data_POSCAR
  _audit_creation_date              2014-09-24
  _audit_creation_method            'ToBaCCo'
  _symmetry_space_group_name_H-M    'P1'
  _symmetry_Int_Tables_number       1
  _symmetry_cell_setting            triclinic
  loop_
  _symmetry_equiv_pos_as_xyz
 x,y,z
_cell_length_a 100.1385
_cell_length_b 100.1942
_cell_length_c 100.4339
_cell_angle_alpha 89.995000
_cell_angle_beta 89.980500
_cell_angle_gamma 89.951400
loop_
  _atom_site_label
  _atom_site_type_symbol
  _atom_site_fract_x
  _atom_site_fract_y
  _atom_site_fract_z
N1 N 0.35361 0.31670 0.32577
 N2 N 0.35344 0.32599 0.31654
 C3 C 0.36368 0.32389 0.30808
 C4 C 0.37067 0.31271 0.31228
 C5 C 0.36395 0.30842 0.32354
 H6 H 0.36592 0.33005 0.29955
 H7 H 0.36628 0.29980 0.32958
 Cu8 Cu 0.33964 0.33968 0.31639
 Cu9 Cu 0.34024 0.31579 0.33984
 Cu10 Cu 0.31575 0.34020 0.33987
 N11 N 0.32596 0.35350 0.31665
 N12 N 0.31656 0.35354 0.32578
 C13 C 0.30818 0.36379 0.32349
 C14 C 0.31257 0.37062 0.31231
 C15 C 0.32390 0.36378 0.30826
 H16 H 0.29962 0.36617 0.32959
 H17 H 0.33005 0.36599 0.29971
 N18 N 0.31662 0.32590 0.35333
 N19 N 0.32591 0.31656 0.35328
 C20 C 0.32381 0.30827 0.36364
 C21 C 0.31265 0.31260 0.37057
 C22 C 0.30839 0.32383 0.36373
 H23 H 0.33003 0.29980 0.36606
 H24 H 0.29983 0.32997 0.36607
 H25 H 0.32505 0.32509 0.32923
 H26 H 0.33582 0.33587 0.33995
 N27 N 0.35409 0.81717 -0.17418
 N28 N 0.35373 0.82626 -0.18360
 C29 C 0.36392 0.82413 -0.19210
 C30 C 0.37119 0.81312 -0.18773
 C31 C 0.36457 0.80903 -0.17627
 H32 H 0.36589 0.83019 -0.20077
 H33 H 0.36695 0.80062 -0.16998
 Cu34 Cu 0.33983 0.83990 -0.18382
 Cu35 Cu 0.34068 0.81626 -0.16017
 Cu36 Cu 0.31576 0.84025 -0.16054
 N37 N 0.32606 0.85367 -0.18363
 N38 N 0.31645 0.85350 -0.17472
 C39 C 0.30805 0.86372 -0.17705
 C40 C 0.31265 0.87085 -0.18800
 C41 C 0.32417 0.86411 -0.19186
 H42 H 0.29939 0.86586 -0.17101
 H43 H 0.33061 0.86646 -0.20017
 N44 N 0.31677 0.82607 -0.14696
 N45 N 0.32626 0.81692 -0.14681
 C46 C 0.32415 0.80862 -0.13647
 C47 C 0.31284 0.81277 -0.12971
 C48 C 0.30843 0.82386 -0.13667
 H49 H 0.33045 0.80023 -0.13396
 H50 H 0.29967 0.82977 -0.13450
 H51 H 0.32551 0.82529 -0.17078
 H52 H 0.33601 0.83637 -0.16016
 N53 N 0.85338 0.31722 -0.17425
 N54 N 0.85323 0.32652 -0.18348
 C55 C 0.86351 0.32445 -0.19190
 C56 C 0.87051 0.31328 -0.18769
 C57 C 0.86376 0.30897 -0.17645
 H58 H 0.86580 0.33068 -0.20039
 H59 H 0.86608 0.30035 -0.17041
 Cu60 Cu 0.83956 0.34037 -0.18357
 Cu61 Cu 0.84001 0.31632 -0.16021
 Cu62 Cu 0.81543 0.34058 -0.16027
 N63 N 0.82573 0.35404 -0.18333
 N64 N 0.81620 0.35392 -0.17435
 C65 C 0.80782 0.36417 -0.17663
 C66 C 0.81234 0.37125 -0.18764
 C67 C 0.82380 0.36446 -0.19158
 H68 H 0.79916 0.36631 -0.17057
 H69 H 0.83020 0.36676 -0.19993
 N70 N 0.81632 0.32631 -0.14681
 N71 N 0.82567 0.31703 -0.14681
 C72 C 0.82357 0.30872 -0.13648
 C73 C 0.81236 0.31298 -0.12959
 C74 C 0.80805 0.32417 -0.13646
 H75 H 0.82982 0.30026 -0.13406
 H76 H 0.79942 0.33024 -0.13417
 H77 H 0.82497 0.32566 -0.17089
 H78 H 0.83559 0.33645 -0.16004
 N79 N 0.85353 0.81697 0.32585
 N80 N 0.85374 0.82663 0.31699
 C81 C 0.86416 0.82471 0.30872
 C82 C 0.87081 0.81319 0.31258
 C83 C 0.86376 0.80858 0.32351
 H84 H 0.86660 0.83109 0.30040
 H85 H 0.86593 0.79983 0.32941
 Cu86 Cu 0.84006 0.84046 0.31715
 Cu87 Cu 0.84000 0.81592 0.33977
 Cu88 Cu 0.81556 0.84046 0.33983
 N89 N 0.82632 0.85421 0.31708
 N90 N 0.81661 0.85396 0.32587
 C91 C 0.80820 0.86417 0.32350
 C92 C 0.81287 0.87134 0.31261
 C93 C 0.82447 0.86467 0.30886
 H94 H 0.79940 0.86618 0.32939
 H95 H 0.83099 0.86707 0.30064
 N96 N 0.81625 0.82596 0.35311
 N97 N 0.82550 0.81658 0.35304
 C98 C 0.82330 0.80821 0.36330
 C99 C 0.81214 0.81253 0.37021
 C100 C 0.80795 0.82382 0.36344
 H101 H 0.82950 0.79971 0.36570
 H102 H 0.79942 0.82999 0.36581
 H103 H 0.82516 0.82564 0.32929
 H104 H 0.83568 0.83606 0.34053
 N105 N 0.64698 0.68386 0.32600
 N106 N 0.64683 0.67430 0.31704
 C107 C 0.63642 0.67626 0.30878
 C108 C 0.62969 0.68769 0.31274
 C109 C 0.63671 0.69223 0.32372
 H110 H 0.63403 0.66994 0.30039
 H111 H 0.63445 0.70089 0.32971
 Cu112 Cu 0.66044 0.66039 0.31693
 Cu113 Cu 0.66038 0.68474 0.33999
 Cu114 Cu 0.68460 0.66012 0.34020
 N115 N 0.67422 0.64666 0.31717
 N116 N 0.68369 0.64670 0.32622
 C117 C 0.69200 0.63639 0.32398
 C118 C 0.68752 0.62945 0.31292
 C119 C 0.67618 0.63628 0.30888
 H120 H 0.70062 0.63406 0.33003
 H121 H 0.66995 0.63398 0.30040
 N122 N 0.68388 0.67453 0.35352
 N123 N 0.67470 0.68398 0.35338
 C124 C 0.67691 0.69236 0.36362
 C125 C 0.68801 0.68798 0.37060
 C126 C 0.69215 0.67663 0.36388
 H127 H 0.67079 0.70093 0.36594
 H128 H 0.70065 0.67043 0.36626
 H129 H 0.67523 0.67498 0.32947
 H130 H 0.66444 0.66449 0.34047
 N131 N 0.64702 0.18383 -0.17447
 N132 N 0.64712 0.17449 -0.18365
 C133 C 0.63676 0.17648 -0.19196
 C134 C 0.62982 0.18771 -0.18780
 C135 C 0.63667 0.19210 -0.17666
 H136 H 0.63452 0.17031 -0.20050
 H137 H 0.63422 0.20059 -0.17048
 Cu138 Cu 0.66087 0.16072 -0.18390
 Cu139 Cu 0.66021 0.18448 -0.16027
 Cu140 Cu 0.68395 0.15936 -0.15962
 N141 N 0.67434 0.14670 -0.18342
 N142 N 0.68309 0.14602 -0.17370
 C143 C 0.69109 0.13541 -0.17567
 C144 C 0.68726 0.12904 -0.18735
 C145 C 0.67656 0.13658 -0.19197
 H146 H 0.69929 0.13279 -0.16919
 H147 H 0.67072 0.13484 -0.20084
 N148 N 0.68323 0.17378 -0.14627
 N149 N 0.67429 0.18346 -0.14663
 C150 C 0.67660 0.19192 -0.13648
 C151 C 0.68752 0.18738 -0.12933
 C152 C 0.69144 0.17583 -0.13585
 H153 H 0.67070 0.20071 -0.13438
 H154 H 0.69981 0.16951 -0.13333
 H155 H 0.67542 0.17472 -0.17033
 H156 H 0.66395 0.16421 -0.16010
 N157 N 0.14694 0.68398 -0.17401
 N158 N 0.14683 0.67445 -0.18300
 C159 C 0.13640 0.67638 -0.19125
 C160 C 0.12963 0.68778 -0.18725
 C161 C 0.13663 0.69231 -0.17625
 H162 H 0.13400 0.67006 -0.19963
 H163 H 0.13433 0.70094 -0.17021
 Cu164 Cu 0.16055 0.66065 -0.18307
 Cu165 Cu 0.16034 0.68489 -0.16000
 Cu166 Cu 0.18455 0.66019 -0.15975
 N167 N 0.17416 0.64676 -0.18283
 N168 N 0.18359 0.64674 -0.17373
 C169 C 0.19183 0.63636 -0.17590
 C170 C 0.18736 0.62944 -0.18697
 C171 C 0.17608 0.63633 -0.19108
 H172 H 0.20039 0.63397 -0.16978
 H173 H 0.16985 0.63404 -0.19956
 N174 N 0.18386 0.67465 -0.14646
 N175 N 0.17470 0.68412 -0.14661
 C176 C 0.17693 0.69250 -0.13636
 C177 C 0.18801 0.68809 -0.12938
 C178 C 0.19213 0.67674 -0.13609
 H179 H 0.17081 0.70108 -0.13404
 H180 H 0.20060 0.67051 -0.13368
 H181 H 0.17526 0.67515 -0.17033
 H182 H 0.16439 0.66463 -0.15947
 N183 N 0.14696 0.18388 0.32574
 N184 N 0.14687 0.17434 0.31676
 C185 C 0.13648 0.17629 0.30847
 C186 C 0.12971 0.18770 0.31242
 C187 C 0.13668 0.19223 0.32344
 H188 H 0.13409 0.16992 0.30012
 H189 H 0.13435 0.20085 0.32948
 Cu190 Cu 0.16029 0.16025 0.31687
 Cu191 Cu 0.16027 0.18467 0.33981
 Cu192 Cu 0.18453 0.16004 0.34004
 N193 N 0.17427 0.14671 0.31690
 N194 N 0.18372 0.14670 0.32597
 C195 C 0.19203 0.13638 0.32372
 C196 C 0.18757 0.12949 0.31261
 C197 C 0.17624 0.13635 0.30858
 H198 H 0.20060 0.13399 0.32981
 H199 H 0.16996 0.13404 0.30015
 N200 N 0.18373 0.17440 0.35341
 N201 N 0.17455 0.18385 0.35327
 C202 C 0.17670 0.19218 0.36357
 C203 C 0.18776 0.18777 0.37057
 C204 C 0.19194 0.17646 0.36383
 H205 H 0.17055 0.20072 0.36593
 H206 H 0.20041 0.17023 0.36627
 H207 H 0.17509 0.17484 0.32940
 H208 H 0.16435 0.16440 0.34047
 N209 N 0.64675 0.31640 0.67405
 N210 N 0.64657 0.32600 0.68297
 C211 C 0.63626 0.32396 0.69135
 C212 C 0.62954 0.31253 0.68741
 C213 C 0.63652 0.30801 0.67638
 H214 H 0.63387 0.33028 0.69974
 H215 H 0.63428 0.29935 0.67039
 Cu216 Cu 0.65996 0.34011 0.68285
 Cu217 Cu 0.66011 0.31558 0.66000
 Cu218 Cu 0.68431 0.34016 0.65976
 N219 N 0.67395 0.35363 0.68281
 N220 N 0.68346 0.35355 0.67379
 C221 C 0.69180 0.36383 0.67606
 C222 C 0.68735 0.37073 0.68717
 C223 C 0.67600 0.36392 0.69120
 H224 H 0.70041 0.36613 0.67001
 H225 H 0.66977 0.36621 0.69969
 N226 N 0.68354 0.32581 0.64640
 N227 N 0.67438 0.31637 0.64655
 C228 C 0.67660 0.30797 0.63631
 C229 C 0.68770 0.31233 0.62933
 C230 C 0.69182 0.32369 0.63604
 H231 H 0.67051 0.29938 0.63402
 H232 H 0.70034 0.32985 0.63366
 H233 H 0.67490 0.32538 0.67067
 H234 H 0.66422 0.33576 0.65947
 N235 N 0.64683 0.81630 1.17411
 N236 N 0.64674 0.82580 1.18313
 C237 C 0.63631 0.82386 1.19138
 C238 C 0.62953 0.81250 1.18735
 C239 C 0.63652 0.80799 1.17633
 H240 H 0.63393 0.83014 1.19981
 H241 H 0.63421 0.79939 1.17026
 Cu242 Cu 0.66046 0.83956 1.18328
 Cu243 Cu 0.66022 0.81542 1.16009
 Cu244 Cu 0.68436 0.84013 1.15982
 N245 N 0.67405 0.85345 1.18299
 N246 N 0.68339 0.85356 1.17381
 C247 C 0.69160 0.86396 1.17595
 C248 C 0.68721 0.87079 1.18713
 C249 C 0.67601 0.86382 1.19131
 H250 H 0.70010 0.86637 1.16977
 H251 H 0.66985 0.86600 1.19987
 N252 N 0.68369 0.82569 1.14653
 N253 N 0.67456 0.81622 1.14668
 C254 C 0.67682 0.80782 1.13646
 C255 C 0.68790 0.81223 1.12948
 C256 C 0.69198 0.82359 1.13618
 H257 H 0.67074 0.79922 1.13416
 H258 H 0.70047 0.82980 1.13380
 H259 H 0.67518 0.82511 1.17045
 H260 H 0.66423 0.83566 1.15968
 N261 N 0.14670 0.31648 1.17406
 N262 N 0.14653 0.32608 1.18296
 C263 C 0.13617 0.32413 1.19128
 C264 C 0.12948 0.31265 1.18740
 C265 C 0.13649 0.30809 1.17641
 H266 H 0.13374 0.33050 1.19962
 H267 H 0.13423 0.29941 1.17043
 Cu268 Cu 0.15992 0.34018 1.18282
 Cu269 Cu 0.16005 0.31561 1.16001
 Cu270 Cu 0.18422 0.34028 1.15970
 N271 N 0.17388 0.35370 1.18276
 N272 N 0.18332 0.35369 1.17368
 C273 C 0.19164 0.36398 1.17592
 C274 C 0.18722 0.37087 1.18705
 C275 C 0.17589 0.36403 1.19111
 H276 H 0.20021 0.36630 1.16981
 H277 H 0.16965 0.36631 1.19958
 N278 N 0.18350 0.32586 1.14640
 N279 N 0.17435 0.31639 1.14657
 C280 C 0.17656 0.30801 1.13632
 C281 C 0.18763 0.31241 1.12932
 C282 C 0.19174 0.32376 1.13602
 H283 H 0.17046 0.29943 1.13402
 H284 H 0.20022 0.32998 1.13359
 H285 H 0.17485 0.32545 1.17053
 H286 H 0.16412 0.33579 1.15935
 N287 N 0.14686 0.81637 0.67390
 N288 N 0.14664 0.82601 0.68277
 C289 C 0.13626 0.82402 0.69108
 C290 C 0.12964 0.81251 0.68722
 C291 C 0.13669 0.80794 0.67626
 H292 H 0.13382 0.83039 0.69942
 H293 H 0.13450 0.79922 0.67032
 Cu294 Cu 0.15998 0.84014 0.68262
 Cu295 Cu 0.16022 0.81554 0.65985
 Cu296 Cu 0.18433 0.84023 0.65955
 N297 N 0.17393 0.85367 0.68258
 N298 N 0.18341 0.85364 0.67354
 C299 C 0.19174 0.86391 0.67581
 C300 C 0.18729 0.87082 0.68691
 C301 C 0.17593 0.86400 0.69094
 H302 H 0.20036 0.86620 0.66975
 H303 H 0.16968 0.86627 0.69940
 N304 N 0.18363 0.82583 0.64623
 N305 N 0.17450 0.81635 0.64639
 C306 C 0.17674 0.80797 0.63615
 C307 C 0.18781 0.81238 0.62915
 C308 C 0.19190 0.82374 0.63586
 H309 H 0.17066 0.79937 0.63386
 H310 H 0.20039 0.82995 0.63347
 H311 H 0.17494 0.82544 0.67036
 H312 H 0.16423 0.83574 0.65912
 N313 N 0.35351 0.68348 0.67418
 N314 N 0.35335 0.67417 0.68340
 C315 C 0.36360 0.67623 0.69184
 C316 C 0.37061 0.68740 0.68765
 C317 C 0.36387 0.69172 0.67640
 H318 H 0.36589 0.66999 0.70031
 H319 H 0.36622 0.70032 0.67034
 Cu320 Cu 0.33981 0.66022 0.68330
 Cu321 Cu 0.34025 0.68432 0.66002
 Cu322 Cu 0.31575 0.65998 0.65997
 N323 N 0.32584 0.64670 0.68326
 N324 N 0.31643 0.64672 0.67414
 C325 C 0.30806 0.63646 0.67639
 C326 C 0.31245 0.62957 0.68752
 C327 C 0.32378 0.63638 0.69161
 H328 H 0.29950 0.63412 0.67029
 H329 H 0.32999 0.63408 0.70011
 N330 N 0.31671 0.67422 0.64645
 N331 N 0.32600 0.68354 0.64651
 C332 C 0.32389 0.69187 0.63618
 C333 C 0.31273 0.68757 0.62924
 C334 C 0.30847 0.67634 0.63607
 H335 H 0.33008 0.70036 0.63381
 H336 H 0.29988 0.67025 0.63375
 H337 H 0.32524 0.67488 0.67052
 H338 H 0.33591 0.66418 0.65965
 N339 N 0.35357 0.18336 1.17408
 N340 N 0.35341 0.17404 1.18329
 C341 C 0.36367 0.17608 1.19172
 C342 C 0.37067 0.18724 1.18754
 C343 C 0.36394 0.19158 1.17630
 H344 H 0.36597 0.16981 1.20017
 H345 H 0.36630 0.20018 1.17024
 Cu346 Cu 0.33989 0.16008 1.18318
 Cu347 Cu 0.34031 0.18421 1.15993
 Cu348 Cu 0.31587 0.15980 1.15982
 N349 N 0.32593 0.14657 1.18313
 N350 N 0.31659 0.14653 1.17395
 C351 C 0.30824 0.13626 1.17618
 C352 C 0.31254 0.12944 1.18739
 C353 C 0.32383 0.13630 1.19152
 H354 H 0.29971 0.13391 1.17002
 H355 H 0.32999 0.13408 1.20007
 N356 N 0.31679 0.17407 1.14636
 N357 N 0.32606 0.18342 1.14642
 C358 C 0.32389 0.19177 1.13612
 C359 C 0.31274 0.18746 1.12920
 C360 C 0.30852 0.17620 1.13601
 H361 H 0.33006 0.20030 1.13378
 H362 H 0.29993 0.17011 1.13371
 H363 H 0.32532 0.17473 1.17038
 H364 H 0.33603 0.16406 1.15952
 N365 N 0.85344 0.68349 1.17423
 N366 N 0.85354 0.67396 1.18323
 C367 C 0.86394 0.67591 1.19150
 C368 C 0.87071 0.68730 1.18751
 C369 C 0.86373 0.69182 1.17649
 H370 H 0.86632 0.66961 1.19991
 H371 H 0.86603 0.70044 1.17044
 Cu372 Cu 0.83993 0.66009 1.18331
 Cu373 Cu 0.84008 0.68437 1.16020
 Cu374 Cu 0.81589 0.65976 1.15993
 N375 N 0.82614 0.64638 1.18308
 N376 N 0.81678 0.64635 1.17392
 C377 C 0.80850 0.63600 1.17608
 C378 C 0.81287 0.62912 1.18723
 C379 C 0.82413 0.63602 1.19139
 H380 H 0.79998 0.63364 1.16992
 H381 H 0.83030 0.63377 1.19992
 N382 N 0.81662 0.67417 1.14662
 N383 N 0.82578 0.68362 1.14678
 C384 C 0.82357 0.69202 1.13654
 C385 C 0.81249 0.68763 1.12954
 C386 C 0.80836 0.67628 1.13625
 H387 H 0.82968 0.70059 1.13424
 H388 H 0.79988 0.67008 1.13385
 H389 H 0.82523 0.67461 1.17062
 H390 H 0.83610 0.66408 1.15970
 N391 N 0.85324 0.18360 0.67430
 N392 N 0.85294 0.17444 0.68367
 C393 C 0.86314 0.17656 0.69215
 C394 C 0.87027 0.18759 0.68782
 C395 C 0.86366 0.19177 0.67644
 H396 H 0.86538 0.17039 0.70069
 H397 H 0.86619 0.20019 0.67021
 Cu398 Cu 0.83946 0.16048 0.68356
 Cu399 Cu 0.84015 0.18420 0.65997
 Cu400 Cu 0.81591 0.15957 0.65977
 N401 N 0.82568 0.14681 0.68349
 N402 N 0.81656 0.14646 0.67409
 C403 C 0.80844 0.13599 0.67620
 C404 C 0.81262 0.12938 0.68759
 C405 C 0.82361 0.13657 0.69194
 H406 H 0.80006 0.13345 0.66993
 H407 H 0.82976 0.13441 0.70051
 N408 N 0.81689 0.17373 0.64617
 N409 N 0.82607 0.18317 0.64629
 C410 C 0.82389 0.19151 0.63599
 C411 C 0.81282 0.18710 0.62899
 C412 C 0.80866 0.17580 0.63577
 H413 H 0.82994 0.20014 0.63374
 H414 H 0.80008 0.16969 0.63347
 H415 H 0.82507 0.17467 0.67018
 H416 H 0.83612 0.16391 0.65976
 N417 N 0.31671 0.35384 0.67386
 N418 N 0.32590 0.35354 0.68319
 C419 C 0.32384 0.36378 0.69164
 C420 C 0.31278 0.37092 0.68735
 C421 C 0.30854 0.36429 0.67601
 H422 H 0.33002 0.36598 0.70018
 H423 H 0.30005 0.36677 0.66985
 Cu424 Cu 0.33973 0.33988 0.68324
 Cu425 Cu 0.31587 0.34057 0.65972
 Cu426 Cu 0.33985 0.31565 0.66012
 N427 N 0.35313 0.32578 0.68334
 N428 N 0.35307 0.31630 0.67431
 C429 C 0.36332 0.30792 0.67659
 C430 C 0.37024 0.31237 0.68768
 C431 C 0.36346 0.32376 0.69168
 H432 H 0.36569 0.29936 0.67048
 H433 H 0.36583 0.33006 0.70008
 N434 N 0.32569 0.31665 0.64654
 N435 N 0.31664 0.32621 0.64630
 C436 C 0.30846 0.32421 0.63585
 C437 C 0.31252 0.31281 0.62918
 C438 C 0.32349 0.30829 0.63627
 H439 H 0.30004 0.33049 0.63339
 H440 H 0.32951 0.29963 0.63403
 H441 H 0.32494 0.32554 0.67039
 H442 H 0.33596 0.33593 0.65957
 N443 N 0.31742 0.85454 0.17340
 N444 N 0.32556 0.85338 0.18360
 C445 C 0.32314 0.86337 0.19225
 C446 C 0.31306 0.87127 0.18709
 C447 C 0.30970 0.86541 0.17510
 H448 H 0.32842 0.86494 0.20150
 H449 H 0.30199 0.86865 0.16829
 Cu450 Cu 0.33886 0.83920 0.18446
 Cu451 Cu 0.31677 0.84136 0.15918
 Cu452 Cu 0.34037 0.81624 0.15997
 N453 N 0.35273 0.82556 0.18402
 N454 N 0.35331 0.81669 0.17439
 C455 C 0.36389 0.80864 0.17641
 C456 C 0.37033 0.81265 0.18794
 C457 C 0.36293 0.82343 0.19250
 H458 H 0.36662 0.80044 0.16998
 H459 H 0.36494 0.82942 0.20121
 N460 N 0.32650 0.81738 0.14615
 N461 N 0.31759 0.82707 0.14575
 C462 C 0.30945 0.82508 0.13526
 C463 C 0.31340 0.81356 0.12872
 C464 C 0.32425 0.80896 0.13594
 H465 H 0.30108 0.83140 0.13275
 H466 H 0.33013 0.80016 0.13387
 H467 H 0.32488 0.82573 0.16988
 H468 H 0.33682 0.83661 0.16048
 N469 N 0.81688 0.35392 0.17363
 N470 N 0.82607 0.35361 0.18296
 C471 C 0.82399 0.36381 0.19144
 C472 C 0.81295 0.37097 0.18715
 C473 C 0.80871 0.36436 0.17580
 H474 H 0.83013 0.36597 0.20002
 H475 H 0.80018 0.36680 0.16967
 Cu476 Cu 0.83990 0.33994 0.18301
 Cu477 Cu 0.81602 0.34062 0.15952
 Cu478 Cu 0.83999 0.31570 0.15991
 N479 N 0.85328 0.32582 0.18312
 N480 N 0.85322 0.31635 0.17407
 C481 C 0.86347 0.30796 0.17637
 C482 C 0.87037 0.31240 0.18747
 C483 C 0.86358 0.32378 0.19148
 H484 H 0.86582 0.29939 0.17027
 H485 H 0.86594 0.33007 0.19989
 N486 N 0.82582 0.31668 0.14635
 N487 N 0.81677 0.32625 0.14612
 C488 C 0.80859 0.32425 0.13566
 C489 C 0.81265 0.31285 0.12899
 C490 C 0.82362 0.30833 0.13607
 H491 H 0.80019 0.33055 0.13317
 H492 H 0.82965 0.29968 0.13381
 H493 H 0.82503 0.32555 0.17032
 H494 H 0.83604 0.33593 0.15946
 N495 N 0.81651 0.85382 0.67399
 N496 N 0.82587 0.85379 0.68316
 C497 C 0.82382 0.86414 0.69148
 C498 C 0.81253 0.87100 0.68732
 C499 C 0.80818 0.86413 0.67617
 H500 H 0.82997 0.86641 0.70001
 H501 H 0.79967 0.86653 0.67000
 Cu502 Cu 0.83968 0.84010 0.68335
 Cu503 Cu 0.81580 0.84053 0.65986
 Cu504 Cu 0.84033 0.81617 0.65994
 N505 N 0.85339 0.82630 0.68333
 N506 N 0.85361 0.81704 0.67407
 C507 C 0.86403 0.80885 0.67624
 C508 C 0.87074 0.81315 0.68751
 C509 C 0.86367 0.82427 0.69175
 H510 H 0.86644 0.80029 0.67014
 H511 H 0.86592 0.83049 0.70025
 N512 N 0.82606 0.81692 0.64645
 N513 N 0.81675 0.82625 0.64639
 C514 C 0.80851 0.82412 0.63602
 C515 C 0.81279 0.81289 0.62920
 C516 C 0.82395 0.80859 0.63614
 H517 H 0.79991 0.83021 0.63370
 H518 H 0.83016 0.80009 0.63378
 H519 H 0.82522 0.82554 0.67038
 H520 H 0.83598 0.83633 0.65968
 N521 N 0.68345 0.64658 0.67373
 N522 N 0.67404 0.64664 0.68285
 C523 C 0.67595 0.63622 0.69112
 C524 C 0.68722 0.62930 0.68701
 C525 C 0.69169 0.63619 0.67591
 H526 H 0.66974 0.63396 0.69962
 H527 H 0.70026 0.63381 0.66982
 Cu528 Cu 0.66044 0.66055 0.68311
 Cu529 Cu 0.68444 0.66003 0.65975
 Cu530 Cu 0.66025 0.68476 0.66001
 N531 N 0.64673 0.67436 0.68302
 N532 N 0.64683 0.68388 0.67402
 C533 C 0.63652 0.69221 0.67626
 C534 C 0.62952 0.68769 0.68726
 C535 C 0.63629 0.67630 0.69127
 H536 H 0.63425 0.70085 0.67024
 H537 H 0.63389 0.66999 0.69967
 N538 N 0.67462 0.68398 0.64662
 N539 N 0.68377 0.67450 0.64646
 C540 C 0.69204 0.67658 0.63609
 C541 C 0.68794 0.68795 0.62938
 C542 C 0.67685 0.69236 0.63637
 H543 H 0.70050 0.67034 0.63368
 H544 H 0.67073 0.70093 0.63404
 H545 H 0.67520 0.67503 0.67029
 H546 H 0.66431 0.66452 0.65949
 N547 N 0.68346 0.14611 0.17339
 N548 N 0.67389 0.14603 0.18235
 C549 C 0.67581 0.13563 0.19065
 C550 C 0.68719 0.12883 0.18667
 C551 C 0.69175 0.13578 0.17565
 H552 H 0.66950 0.13330 0.19907
 H553 H 0.70041 0.13349 0.16965
 Cu554 Cu 0.66022 0.15986 0.18238
 Cu555 Cu 0.68452 0.15963 0.15945
 Cu556 Cu 0.66030 0.18438 0.15972
 N557 N 0.64659 0.17373 0.18255
 N558 N 0.64683 0.18340 0.17370
 C559 C 0.63658 0.19178 0.17602
 C560 C 0.62952 0.18717 0.18695
 C561 C 0.63618 0.17567 0.19083
 H562 H 0.63439 0.20051 0.17009
 H563 H 0.63371 0.16928 0.19914
 N564 N 0.67473 0.18365 0.14638
 N565 N 0.68390 0.17418 0.14622
 C566 C 0.69220 0.17631 0.13589
 C567 C 0.68810 0.18769 0.12921
 C568 C 0.67699 0.19207 0.13618
 H569 H 0.70068 0.17010 0.13347
 H570 H 0.67088 0.20065 0.13386
 H571 H 0.67515 0.17455 0.17007
 H572 H 0.66445 0.16422 0.15893
 N573 N 0.18360 0.64666 0.17353
 N574 N 0.17414 0.64665 0.18260
 C575 C 0.17610 0.63628 0.19091
 C576 C 0.18743 0.62942 0.18686
 C577 C 0.19191 0.63633 0.17577
 H578 H 0.16985 0.63400 0.19938
 H579 H 0.20050 0.63398 0.16970
 Cu580 Cu 0.16023 0.66025 0.18266
 Cu581 Cu 0.18447 0.66004 0.15950
 Cu582 Cu 0.16027 0.68473 0.15978
 N583 N 0.14681 0.67434 0.18280
 N584 N 0.14693 0.68391 0.17386
 C585 C 0.13669 0.69229 0.17618
 C586 C 0.12971 0.68776 0.18720
 C587 C 0.13644 0.67632 0.19112
 H588 H 0.13441 0.70096 0.17019
 H589 H 0.13405 0.66997 0.19949
 N590 N 0.17455 0.68390 0.14630
 N591 N 0.18371 0.67443 0.14614
 C592 C 0.19196 0.67653 0.13576
 C593 C 0.18784 0.68788 0.12905
 C594 C 0.17676 0.69228 0.13605
 H595 H 0.20046 0.67033 0.13336
 H596 H 0.17066 0.70088 0.13376
 H597 H 0.17508 0.67489 0.17022
 H598 H 0.16435 0.66451 0.15911
 N599 N 0.18316 0.14616 0.67355
 N600 N 0.17362 0.14610 0.68255
 C601 C 0.17552 0.13568 0.69081
 C602 C 0.18691 0.12888 0.68683
 C603 C 0.19146 0.13584 0.67582
 H604 H 0.16922 0.13334 0.69923
 H605 H 0.20010 0.13353 0.66979
 Cu606 Cu 0.15994 0.15992 0.68254
 Cu607 Cu 0.18423 0.15968 0.65961
 Cu608 Cu 0.16000 0.18444 0.65988
 N609 N 0.14632 0.17381 0.68274
 N610 N 0.14653 0.18345 0.67386
 C611 C 0.13630 0.19184 0.67618
 C612 C 0.12923 0.18725 0.68711
 C613 C 0.13588 0.17573 0.69098
 H614 H 0.13409 0.20056 0.67023
 H615 H 0.13341 0.16935 0.69929
 N616 N 0.17444 0.18370 0.64653
 N617 N 0.18360 0.17423 0.64637
 C618 C 0.19190 0.17636 0.63604
 C619 C 0.18780 0.18774 0.62935
 C620 C 0.17669 0.19212 0.63632
 H621 H 0.20038 0.17015 0.63362
 H622 H 0.17058 0.20071 0.63401
 H623 H 0.17485 0.17458 0.67020
 H624 H 0.16415 0.16426 0.65905
 N625 N 0.31639 0.64656 0.32567
 N626 N 0.32565 0.64670 0.31642
 C627 C 0.32365 0.63636 0.30809
 C628 C 0.31244 0.62942 0.31229
 C629 C 0.30810 0.63621 0.32350
 H630 H 0.32977 0.63414 0.29952
 H631 H 0.29967 0.63374 0.32975
 Cu632 Cu 0.33950 0.66034 0.31615
 Cu633 Cu 0.31574 0.65977 0.33986
 Cu634 Cu 0.34019 0.68412 0.33981
 N635 N 0.35314 0.67420 0.31629
 N636 N 0.35341 0.68336 0.32563
 C637 C 0.36386 0.69153 0.32351
 C638 C 0.37054 0.68727 0.31219
 C639 C 0.36343 0.67623 0.30788
 H640 H 0.36632 0.70000 0.32969
 H641 H 0.36567 0.67006 0.29935
 N642 N 0.32598 0.68328 0.35334
 N643 N 0.31670 0.67395 0.35339
 C644 C 0.30844 0.67607 0.36376
 C645 C 0.31270 0.68730 0.37059
 C646 C 0.32385 0.69160 0.36366
 H647 H 0.29983 0.67001 0.36605
 H648 H 0.33002 0.70012 0.36601
 H649 H 0.32516 0.67474 0.32930
 H650 H 0.33607 0.66380 0.33989
 N651 N 0.31649 0.14632 0.82597
 N652 N 0.32599 0.14627 0.81693
 C653 C 0.32402 0.13592 0.80861
 C654 C 0.31264 0.12913 0.81260
 C655 C 0.30816 0.13604 0.82368
 H656 H 0.33032 0.13358 0.80019
 H657 H 0.29957 0.13368 0.82976
 Cu658 Cu 0.33998 0.15977 0.81694
 Cu659 Cu 0.31563 0.15967 0.84001
 Cu660 Cu 0.33983 0.18430 0.83979
 N661 N 0.35333 0.17390 0.81680
 N662 N 0.35317 0.18349 0.82573
 C663 C 0.36339 0.19187 0.82341
 C664 C 0.37040 0.18734 0.81241
 C665 C 0.36371 0.17587 0.80850
 H666 H 0.36567 0.20051 0.82944
 H667 H 0.36616 0.16950 0.80017
 N668 N 0.32554 0.18348 0.85324
 N669 N 0.31638 0.17403 0.85339
 C670 C 0.30814 0.17610 0.86379
 C671 C 0.31228 0.18743 0.87052
 C672 C 0.32335 0.19183 0.86352
 H673 H 0.29965 0.16990 0.86619
 H674 H 0.32947 0.20040 0.86584
 H675 H 0.32510 0.17446 0.82930
 H676 H 0.33580 0.16407 0.84047
 N677 N 0.81670 0.64645 0.82594
 N678 N 0.82602 0.64656 0.81672
 C679 C 0.82405 0.63620 0.80840
 C680 C 0.81280 0.62928 0.81255
 C681 C 0.80843 0.63611 0.82373
 H682 H 0.83020 0.63396 0.79982
 H683 H 0.79995 0.63369 0.82991
 Cu684 Cu 0.83971 0.66036 0.81653
 Cu685 Cu 0.81593 0.65976 0.84005
 Cu686 Cu 0.84040 0.68417 0.83999
 N687 N 0.85348 0.67407 0.81658
 N688 N 0.85373 0.68329 0.82589
 C689 C 0.86412 0.69148 0.82371
 C690 C 0.87084 0.68719 0.81243
 C691 C 0.86377 0.67609 0.80817
 H692 H 0.86650 0.70003 0.82980
 H693 H 0.86603 0.66991 0.79962
 N694 N 0.82610 0.68340 0.85345
 N695 N 0.81682 0.67406 0.85350
 C696 C 0.80857 0.67618 0.86387
 C697 C 0.81280 0.68742 0.87068
 C698 C 0.82396 0.69173 0.86376
 H699 H 0.80000 0.67006 0.86621
 H700 H 0.83015 0.70022 0.86614
 H701 H 0.82530 0.67476 0.82963
 H702 H 0.83611 0.66396 0.84021
 N703 N 0.81672 0.14622 0.32601
 N704 N 0.82626 0.14613 0.31702
 C705 C 0.82429 0.13577 0.30870
 C706 C 0.81289 0.12901 0.31266
 C707 C 0.80837 0.13596 0.32370
 H708 H 0.83060 0.13345 0.30028
 H709 H 0.79970 0.13368 0.32970
 Cu710 Cu 0.84026 0.15962 0.31699
 Cu711 Cu 0.81582 0.15962 0.34002
 Cu712 Cu 0.83999 0.18425 0.33978
 N713 N 0.85357 0.17378 0.31686
 N714 N 0.85336 0.18341 0.32574
 C715 C 0.86354 0.19184 0.32338
 C716 C 0.87058 0.18727 0.31242
 C717 C 0.86395 0.17576 0.30855
 H718 H 0.86574 0.20056 0.32932
 H719 H 0.86639 0.16938 0.30023
 N720 N 0.82569 0.18346 0.35321
 N721 N 0.81654 0.17400 0.35336
 C722 C 0.80829 0.17609 0.36375
 C723 C 0.81241 0.18743 0.37047
 C724 C 0.82348 0.19183 0.36348
 H725 H 0.79981 0.16988 0.36617
 H726 H 0.82960 0.20039 0.36580
 H727 H 0.82531 0.17434 0.32919
 H728 H 0.83598 0.16401 0.34048
 N729 N 0.68322 0.35365 0.32604
 N730 N 0.67401 0.35340 0.31673
 C731 C 0.67607 0.36365 0.30829
 C732 C 0.68714 0.37074 0.31257
 C733 C 0.69140 0.36407 0.32388
 H734 H 0.66990 0.36587 0.29975
 H735 H 0.69994 0.36649 0.33001
 Cu736 Cu 0.66017 0.33976 0.31668
 Cu737 Cu 0.68410 0.34034 0.34015
 Cu738 Cu 0.66022 0.31542 0.33972
 N739 N 0.64686 0.32561 0.31654
 N740 N 0.64700 0.31608 0.32553
 C741 C 0.63681 0.30765 0.32321
 C742 C 0.62983 0.31213 0.31218
 C743 C 0.63652 0.32357 0.30821
 H744 H 0.63453 0.29902 0.32925
 H745 H 0.63412 0.32988 0.29982
 N746 N 0.67435 0.31641 0.35331
 N747 N 0.68338 0.32599 0.35355
 C748 C 0.69159 0.32397 0.36398
 C749 C 0.68756 0.31254 0.37064
 C750 C 0.67660 0.30803 0.36355
 H751 H 0.70000 0.33025 0.36644
 H752 H 0.67060 0.29935 0.36577
 H753 H 0.67503 0.32538 0.32938
 H754 H 0.66402 0.33569 0.34031
 N755 N 0.68353 0.85358 0.82625
 N756 N 0.67397 0.85373 0.81730
 C757 C 0.67597 0.86408 0.80897
 C758 C 0.68742 0.87078 0.81291
 C759 C 0.69193 0.86380 0.82393
 H760 H 0.66968 0.86645 0.80056
 H761 H 0.70062 0.86603 0.82991
 Cu762 Cu 0.65997 0.84024 0.81729
 Cu763 Cu 0.68442 0.84019 0.84026
 Cu764 Cu 0.66023 0.81558 0.84003
 N765 N 0.64661 0.82611 0.81715
 N766 N 0.64686 0.81645 0.82600
 C767 C 0.63670 0.80800 0.82362
 C768 C 0.62963 0.81259 0.81269
 C769 C 0.63624 0.82412 0.80885
 H770 H 0.63453 0.79926 0.82954
 H771 H 0.63378 0.83051 0.80053
 N772 N 0.67452 0.81636 0.85348
 N773 N 0.68368 0.82581 0.85362
 C774 C 0.69194 0.82372 0.86399
 C775 C 0.68781 0.81238 0.87072
 C776 C 0.67673 0.80799 0.86373
 H777 H 0.70044 0.82990 0.86637
 H778 H 0.67063 0.79940 0.86603
 H779 H 0.67493 0.82546 0.82945
 H780 H 0.66430 0.83577 0.84076
 N781 N 0.18302 0.35378 0.82615
 N782 N 0.17380 0.35352 0.81684
 C783 C 0.17586 0.36376 0.80839
 C784 C 0.18693 0.37086 0.81266
 C785 C 0.19120 0.36420 0.82398
 H786 H 0.16969 0.36597 0.79984
 H787 H 0.19974 0.36662 0.83009
 Cu788 Cu 0.15999 0.33984 0.81679
 Cu789 Cu 0.18391 0.34046 0.84027
 Cu790 Cu 0.16000 0.31554 0.83984
 N791 N 0.14663 0.32574 0.81668
 N792 N 0.14677 0.31622 0.82567
 C793 C 0.13658 0.30779 0.82335
 C794 C 0.12961 0.31225 0.81231
 C795 C 0.13630 0.32369 0.80834
 H796 H 0.13431 0.29916 0.82940
 H797 H 0.13390 0.32999 0.79993
 N798 N 0.17415 0.31652 0.85343
 N799 N 0.18318 0.32610 0.85367
 C800 C 0.19138 0.32407 0.86411
 C801 C 0.18735 0.31265 0.87077
 C802 C 0.17639 0.30814 0.86368
 H803 H 0.19981 0.33034 0.86656
 H804 H 0.17039 0.29946 0.86588
 H805 H 0.17488 0.32544 0.82951
 H806 H 0.16387 0.33577 0.84041
 N807 N 0.18341 0.85378 0.32624
 N808 N 0.17397 0.85387 0.31716
 C809 C 0.17604 0.86422 0.30884
 C810 C 0.18741 0.87097 0.31293
 C811 C 0.19180 0.86402 0.32401
 H812 H 0.16984 0.86654 0.30035
 H813 H 0.20041 0.86627 0.33009
 Cu814 Cu 0.15999 0.84036 0.31706
 Cu815 Cu 0.18423 0.84037 0.34022
 Cu816 Cu 0.16006 0.81574 0.33984
 N817 N 0.14659 0.82627 0.31687
 N818 N 0.14676 0.81664 0.32575
 C819 C 0.13658 0.80823 0.32336
 C820 C 0.12958 0.81280 0.31238
 C821 C 0.13625 0.82429 0.30852
 H822 H 0.13436 0.79950 0.32929
 H823 H 0.13386 0.83066 0.30016
 N824 N 0.17430 0.81651 0.35334
 N825 N 0.18345 0.82597 0.35354
 C826 C 0.19170 0.82385 0.36391
 C827 C 0.18758 0.81247 0.37058
 C828 C 0.17652 0.80809 0.36357
 H829 H 0.20019 0.83003 0.36631
 H830 H 0.17044 0.79947 0.36582
 H831 H 0.17487 0.82554 0.32932
 H832 H 0.16415 0.83587 0.34053
 C833 C 0.25516 1.01220 0.24498
 C834 C 0.24469 1.01223 0.25442
 C835 C 0.23966 1.00004 0.25905
 C836 C 0.24488 0.98780 0.25466
 C837 C 0.25532 0.98772 0.24512
 C838 C 0.26028 0.99999 0.24045
 H839 H 0.26804 1.00007 0.23292
 H840 H 0.23181 1.00007 0.26650
 C841 C 0.25499 0.51234 0.74523
 C842 C 0.24486 0.51235 0.75505
 C843 C 0.24000 0.50014 0.75987
 C844 C 0.24491 0.48791 0.75512
 C845 C 0.25491 0.48791 0.74517
 C846 C 0.25985 0.50012 0.74041
 H847 H 0.26757 0.50011 0.73284
 H848 H 0.23228 0.50015 0.76745
 C849 C 0.75558 -0.01237 0.25438
 C850 C 0.74473 -0.01235 0.24536
 C851 C 0.73942 -0.00013 0.24103
 C852 C 0.74475 0.01208 0.24533
 C853 C 0.75560 0.01206 0.25436
 C854 C 0.76091 -0.00016 0.25868
 H855 H 0.76904 -0.00017 0.26580
 H856 H 0.73129 -0.00013 0.23391
 C857 C 0.75550 0.48785 0.75431
 C858 C 0.74465 0.48787 0.74529
 C859 C 0.73937 0.50010 0.74095
 C860 C 0.74471 0.51230 0.74526
 C861 C 0.75552 0.51228 0.75432
 C862 C 0.76082 0.50005 0.75863
 H863 H 0.76894 0.50002 0.76578
 H864 H 0.73125 0.50011 0.73381
 C865 C 0.25542 0.48784 0.25420
 C866 C 0.24457 0.48785 0.24518
 C867 C 0.23925 0.50007 0.24087
 C868 C 0.24457 0.51228 0.24516
 C869 C 0.25541 0.51227 0.25420
 C870 C 0.26074 0.50005 0.25850
 H871 H 0.26888 0.50005 0.26563
 H872 H 0.23111 0.50006 0.23374
 C873 C 0.75479 1.01242 0.74528
 C874 C 0.74481 1.01242 0.75524
 C875 C 0.73993 1.00021 0.76003
 C876 C 0.74480 0.98799 0.75522
 C877 C 0.75490 0.98799 0.74537
 C878 C 0.75973 1.00021 0.74053
 H879 H 0.76745 1.00021 0.73295
 H880 H 0.73222 1.00021 0.76762
 C881 C 0.75510 0.51225 0.24528
 C882 C 0.74495 0.51226 0.25507
 C883 C 0.74008 0.50005 0.25989
 C884 C 0.74501 0.48783 0.25514
 C885 C 0.75502 0.48783 0.24520
 C886 C 0.75996 0.50003 0.24046
 H887 H 0.76768 0.50003 0.23289
 H888 H 0.73234 0.50005 0.26745
 C889 C 0.25562 -0.01236 0.75430
 C890 C 0.24477 -0.01235 0.74528
 C891 C 0.23942 -0.00014 0.74100
 C892 C 0.24472 0.01208 0.74531
 C893 C 0.25557 0.01207 0.75433
 C894 C 0.26091 -0.00015 0.75863
 H895 H 0.26904 -0.00015 0.76576
 H896 H 0.23126 -0.00015 0.73390
 C897 C 0.24542 0.25527 1.01215
 C898 C 0.25460 0.24453 1.01214
 C899 C 0.25897 0.23925 0.99995
 C900 C 0.25457 0.24452 0.98777
 C901 C 0.24539 0.25527 0.98778
 C902 C 0.24102 0.26054 0.99997
 H903 H 0.23379 0.26860 0.99999
 H904 H 0.26621 0.23120 0.99994
 C905 C 0.24571 0.75539 0.51199
 C906 C 0.25489 0.74465 0.51199
 C907 C 0.25925 0.73937 0.49980
 C908 C 0.25484 0.74463 0.48762
 C909 C 0.24566 0.75538 0.48763
 C910 C 0.24130 0.76066 0.49982
 H911 H 0.23406 0.76871 0.49983
 H912 H 0.26649 0.73131 0.49979
 C913 C 0.25521 0.75578 -0.01231
 C914 C 0.24600 0.74507 -0.01230
 C915 C 0.24160 0.73983 -0.00011
 C916 C 0.24599 0.74509 0.01208
 C917 C 0.25518 0.75581 0.01208
 C918 C 0.25959 0.76104 -0.00012
 H919 H 0.26684 0.76907 -0.00013
 H920 H 0.23434 0.73181 -0.00011
 C921 C 0.25471 0.25557 0.48773
 C922 C 0.24551 0.24485 0.48772
 C923 C 0.24110 0.23960 0.49991
 C924 C 0.24549 0.24485 0.51210
 C925 C 0.25469 0.25556 0.51211
 C926 C 0.25909 0.26081 0.49992
 H927 H 0.26635 0.26884 0.49992
 H928 H 0.23384 0.23157 0.49990
 C929 C 0.74567 0.75528 1.01221
 C930 C 0.75487 0.74455 1.01221
 C931 C 0.75928 0.73929 1.00003
 C932 C 0.75490 0.74455 0.98784
 C933 C 0.74571 0.75529 0.98784
 C934 C 0.74130 0.76055 1.00002
 H935 H 0.73405 0.76859 1.00002
 H936 H 0.76653 0.73124 1.00003
 C937 C 0.74539 0.25514 0.51209
 C938 C 0.75458 0.24440 0.51208
 C939 C 0.75898 0.23915 0.49989
 C940 C 0.75460 0.24443 0.48771
 C941 C 0.74542 0.25517 0.48772
 C942 C 0.74102 0.26042 0.49991
 H943 H 0.73378 0.26848 0.49991
 H944 H 0.76623 0.23111 0.49988
 C945 C 0.75463 0.25571 -0.01244
 C946 C 0.74547 0.24496 -0.01244
 C947 C 0.74112 0.23968 -0.00025
 C948 C 0.74553 0.24493 0.01194
 C949 C 0.75470 0.25567 0.01194
 C950 C 0.75904 0.26095 -0.00025
 H951 H 0.76627 0.26901 -0.00026
 H952 H 0.73389 0.23163 -0.00023
 C953 C 0.75485 0.75577 0.48779
 C954 C 0.74566 0.74505 0.48780
 C955 C 0.74128 0.73979 0.49998
 C956 C 0.74567 0.74504 0.51216
 C957 C 0.75485 0.75577 0.51216
 C958 C 0.75924 0.76103 0.49997
 H959 H 0.76648 0.76907 0.49997
 H960 H 0.73403 0.73175 0.49999
 C961 C 1.01225 0.24474 0.25457
 C962 C 1.01224 0.25555 0.24551
 C963 C 1.00002 0.26085 0.24118
 C964 C 0.98781 0.25553 0.24551
 C965 C 0.98782 0.24472 0.25457
 C966 C 1.00004 0.23943 0.25890
 H967 H 1.00005 0.23132 0.26605
 H968 H 1.00001 0.26895 0.23402
 C969 C 0.51220 0.24460 0.75453
 C970 C 0.51218 0.25540 0.74544
 C971 C 0.49994 0.26068 0.74112
 C972 C 0.48773 0.25538 0.74548
 C973 C 0.48775 0.24458 0.75456
 C974 C 0.49999 0.23929 0.75887
 H975 H 0.50001 0.23119 0.76604
 H976 H 0.49992 0.26876 0.73393
 C977 C -0.01232 0.25513 0.75491
 C978 C -0.01232 0.24513 0.74497
 C979 C -0.00009 0.24021 0.74021
 C980 C 0.01213 0.24505 0.74502
 C981 C 0.01212 0.25516 0.75486
 C982 C -0.00010 0.26003 0.75967
 H983 H -0.00010 0.26774 0.76725
 H984 H -0.00009 0.23249 0.73263
 C985 C 0.48795 0.25486 0.25481
 C986 C 0.48796 0.24487 0.24485
 C987 C 0.50019 0.23996 0.24010
 C988 C 0.51240 0.24481 0.24493
 C989 C 0.51239 0.25493 0.25475
 C990 C 0.50016 0.25978 0.25957
 H991 H 0.50015 0.26749 0.26714
 H992 H 0.50020 0.23223 0.23254
 C993 C 1.01235 0.74522 0.75496
 C994 C 1.01235 0.75532 0.74511
 C995 C 1.00012 0.76017 0.74028
 C996 C 0.98790 0.75525 0.74503
 C997 C 0.98791 0.74528 0.75500
 C998 C 1.00013 0.74038 0.75979
 H999 H 1.00014 0.73270 0.76739
 H1000 H 1.00012 0.76788 0.73271
 C1001 C 0.51234 0.74505 0.25502
 C1002 C 0.51232 0.75517 0.24520
 C1003 C 0.50010 0.76000 0.24036
 C1004 C 0.48788 0.75507 0.24512
 C1005 C 0.48790 0.74508 0.25507
 C1006 C 0.50012 0.74018 0.25984
 H1007 H 0.50013 0.73247 0.26741
 H1008 H 0.50009 0.76769 0.23276
 C1009 C -0.01214 0.75553 0.25447
 C1010 C -0.01212 0.74472 0.24541
 C1011 C 0.00011 0.73944 0.24106
 C1012 C 0.01233 0.74475 0.24537
 C1013 C 0.01232 0.75555 0.25445
 C1014 C 0.00009 0.76084 0.25879
 H1015 H 0.00007 0.76895 0.26594
 H1016 H 0.00012 0.73134 0.23389
 C1017 C 0.48781 0.75525 0.75502
 C1018 C 0.48782 0.74528 0.74505
 C1019 C 0.50006 0.74036 0.74030
 C1020 C 0.51228 0.74520 0.74516
 C1021 C 0.51226 0.75528 0.75502
 C1022 C 0.50002 0.76013 0.75983
 H1023 H 0.50000 0.76781 0.76743
 H1024 H 0.50007 0.73265 0.73273
 C1025 C 0.40567 0.29512 0.29436
 C1026 C 0.40212 0.29211 0.30757
 C1027 C 0.39076 0.29777 0.31335
 C1028 C 0.38271 0.30668 0.30611
 C1029 C 0.38629 0.30977 0.29293
 C1030 C 0.39762 0.30403 0.28710
 C1031 C 0.41773 0.28903 0.28830
 N1032 N 0.42047 0.29058 0.27514
 N1033 N 0.43133 0.28505 0.26977
 C1034 C 0.43991 0.27777 0.27734
 N1035 N 0.43715 0.27624 0.29049
 N1036 N 0.42630 0.28173 0.29584
 C1037 C 0.45208 0.27173 0.27146
 C1038 C 0.46171 0.26566 0.27968
 C1039 C 0.47329 0.26015 0.27421
 C1040 C 0.47545 0.26047 0.26041
 C1041 C 0.46587 0.26648 0.25216
 C1042 C 0.45429 0.27206 0.25763
 H1043 H 0.40813 0.28535 0.31348
 H1044 H 0.38842 0.29526 0.32356
 H1045 H 0.38029 0.31653 0.28703
 H1046 H 0.40009 0.30665 0.27694
 H1047 H 0.46038 0.26527 0.29037
 H1048 H 0.48058 0.25558 0.28075
 H1049 H 0.46743 0.26697 0.24150
 H1050 H 0.44710 0.27665 0.25101
 C1051 C 0.40554 0.79558 0.79450
 C1052 C 0.40077 0.79103 0.80684
 C1053 C 0.38946 0.79675 0.81266
 C1054 C 0.38262 0.80733 0.80637
 C1055 C 0.38755 0.81195 0.79404
 C1056 C 0.39879 0.80609 0.78816
 C1057 C 0.41755 0.78940 0.78842
 N1058 N 0.42090 0.79185 0.77554
 N1059 N 0.43175 0.78631 0.77017
 C1060 C 0.43973 0.77812 0.77748
 N1061 N 0.43635 0.77567 0.79034
 N1062 N 0.42549 0.78116 0.79568
 C1063 C 0.45192 0.77210 0.77163
 C1064 C 0.46142 0.76581 0.77983
 C1065 C 0.47302 0.76032 0.77438
 C1066 C 0.47531 0.76086 0.76061
 C1067 C 0.46586 0.76709 0.75237
 C1068 C 0.45428 0.77267 0.75783
 H1069 H 0.40574 0.78296 0.81201
 H1070 H 0.38628 0.79287 0.82219
 H1071 H 0.38271 0.82002 0.78876
 H1072 H 0.40222 0.80989 0.77866
 H1073 H 0.46000 0.76527 0.79051
 H1074 H 0.48023 0.75560 0.78090
 H1075 H 0.46753 0.76775 0.74173
 H1076 H 0.44719 0.77745 0.75124
 C1077 C -0.09454 0.29557 0.79443
 C1078 C -0.09811 0.29256 0.80764
 C1079 C -0.10945 0.29828 0.81341
 C1080 C -0.11746 0.30722 0.80615
 C1081 C -0.11384 0.31030 0.79298
 C1082 C -0.10254 0.30451 0.78717
 C1083 C -0.08250 0.28942 0.78836
 N1084 N -0.07976 0.29098 0.77520
 N1085 N -0.06891 0.28545 0.76982
 C1086 C -0.06034 0.27816 0.77738
 N1087 N -0.06309 0.27662 0.79053
 N1088 N -0.07394 0.28211 0.79590
 C1089 C -0.04818 0.27209 0.77150
 C1090 C -0.03857 0.26603 0.77973
 C1091 C -0.02700 0.26048 0.77428
 C1092 C -0.02482 0.26077 0.76049
 C1093 C -0.03439 0.26677 0.75221
 C1094 C -0.04597 0.27239 0.75766
 H1095 H -0.09217 0.28575 0.81354
 H1096 H -0.11182 0.29579 0.82362
 H1097 H -0.11981 0.31709 0.78707
 H1098 H -0.10006 0.30709 0.77700
 H1099 H -0.03990 0.26564 0.79042
 H1100 H -0.01972 0.25591 0.78084
 H1101 H -0.03283 0.26723 0.74155
 H1102 H -0.05316 0.27697 0.75104
 C1103 C -0.09442 0.79545 0.29438
 C1104 C -0.09794 0.80876 0.29165
 C1105 C -0.10923 0.81448 0.29752
 C1106 C -0.11724 0.80708 0.30631
 C1107 C -0.11372 0.79376 0.30904
 C1108 C -0.10247 0.78801 0.30311
 C1109 C -0.08240 0.78940 0.28820
 N1110 N -0.07963 0.77622 0.28981
 N1111 N -0.06878 0.77082 0.28433
 C1112 C -0.06022 0.77836 0.27702
 N1113 N -0.06300 0.79153 0.27540
 N1114 N -0.07386 0.79693 0.28086
 C1115 C -0.04804 0.77241 0.27106
 C1116 C -0.03857 0.78055 0.26467
 C1117 C -0.02698 0.77503 0.25923
 C1118 C -0.02465 0.76124 0.25998
 C1119 C -0.03407 0.75306 0.26634
 C1120 C -0.04567 0.75859 0.27181
 H1121 H -0.09199 0.81479 0.28496
 H1122 H -0.11157 0.82477 0.29525
 H1123 H -0.11972 0.78769 0.31564
 H1124 H -0.10006 0.77773 0.30543
 H1125 H -0.04004 0.79124 0.26394
 H1126 H -0.01982 0.78152 0.25440
 H1127 H -0.03239 0.74242 0.26718
 H1128 H -0.05273 0.75203 0.27668
 C1129 C 0.59472 0.70528 0.29482
 C1130 C 0.59829 0.69200 0.29204
 C1131 C 0.60965 0.68631 0.29782
 C1132 C 0.61767 0.69375 0.30657
 C1133 C 0.61409 0.70702 0.30938
 C1134 C 0.60277 0.71273 0.30354
 C1135 C 0.58266 0.71131 0.28869
 N1136 N 0.57993 0.72451 0.29022
 N1137 N 0.56905 0.72990 0.28479
 C1138 C 0.56042 0.72232 0.27761
 N1139 N 0.56316 0.70913 0.27607
 N1140 N 0.57405 0.70374 0.28148
 C1141 C 0.54823 0.72826 0.27167
 C1142 C 0.53862 0.72007 0.26555
 C1143 C 0.52703 0.72558 0.26011
 C1144 C 0.52484 0.73940 0.26057
 C1145 C 0.53439 0.74764 0.26664
 C1146 C 0.54598 0.74212 0.27214
 H1147 H 0.59233 0.68596 0.28538
 H1148 H 0.61203 0.67604 0.29551
 H1149 H 0.62008 0.71310 0.31597
 H1150 H 0.60032 0.72299 0.30591
 H1151 H 0.53999 0.70936 0.26503
 H1152 H 0.51977 0.71906 0.25550
 H1153 H 0.53281 0.75831 0.26723
 H1154 H 0.55315 0.74872 0.27679
 C1155 C 0.59466 0.20511 0.79443
 C1156 C 0.60255 0.21251 0.80334
 C1157 C 0.61392 0.20686 0.80913
 C1158 C 0.61772 0.19370 0.80610
 C1159 C 0.60985 0.18630 0.79718
 C1160 C 0.59843 0.19192 0.79145
 C1161 C 0.58257 0.21108 0.78832
 N1162 N 0.57413 0.20353 0.78091
 N1163 N 0.56323 0.20887 0.77548
 C1164 C 0.56031 0.22200 0.77721
 N1165 N 0.56878 0.22957 0.78459
 N1166 N 0.57967 0.22422 0.79004
 C1167 C 0.54811 0.22788 0.77124
 C1168 C 0.54569 0.24170 0.77193
 C1169 C 0.53409 0.24717 0.76641
 C1170 C 0.52471 0.23894 0.76006
 C1171 C 0.52708 0.22515 0.75939
 C1172 C 0.53867 0.21968 0.76487
 H1173 H 0.59993 0.22268 0.80588
 H1174 H 0.61978 0.21289 0.81588
 H1175 H 0.61239 0.17610 0.79472
 H1176 H 0.59258 0.18591 0.78466
 H1177 H 0.55272 0.24830 0.77678
 H1178 H 0.53238 0.25781 0.76720
 H1179 H 0.51994 0.21862 0.75458
 H1180 H 0.54016 0.20900 0.76420
 C1181 C 1.09467 0.70540 0.79482
 C1182 C 1.10273 0.71285 0.80353
 C1183 C 1.11404 0.70713 0.80937
 C1184 C 1.11761 0.69384 0.80659
 C1185 C 1.10959 0.68642 0.79783
 C1186 C 1.09823 0.69211 0.79205
 C1187 C 1.08263 0.71145 0.78868
 N1188 N 1.07402 0.70389 0.78146
 N1189 N 1.06316 0.70930 0.77601
 C1190 C 1.06045 0.72250 0.77752
 N1191 N 1.06908 0.73007 0.78471
 N1192 N 1.07993 0.72465 0.79018
 C1193 C 1.04827 0.72845 0.77157
 C1194 C 1.04603 0.74231 0.77203
 C1195 C 1.03442 0.74782 0.76656
 C1196 C 1.02485 0.73957 0.76052
 C1197 C 1.02705 0.72576 0.76007
 C1198 C 1.03865 0.72025 0.76548
 H1199 H 1.10030 0.72311 0.80588
 H1200 H 1.12005 0.71320 0.81595
 H1201 H 1.11198 0.67615 0.79551
 H1202 H 1.09227 0.68607 0.78538
 H1203 H 1.05321 0.74892 0.77665
 H1204 H 1.03283 0.75850 0.76714
 H1205 H 1.01977 0.71922 0.75548
 H1206 H 1.04002 0.70954 0.76497
 C1207 C 1.09460 0.20516 0.29459
 C1208 C 1.10252 0.21257 0.30346
 C1209 C 1.11390 0.20692 0.30923
 C1210 C 1.11766 0.19373 0.30625
 C1211 C 1.10980 0.18636 0.29730
 C1212 C 1.09838 0.19199 0.29158
 C1213 C 1.08249 0.21114 0.28851
 N1214 N 1.07406 0.20360 0.28106
 N1215 N 1.06319 0.20896 0.27560
 C1216 C 1.06029 0.22210 0.27730
 N1217 N 1.06873 0.22964 0.28474
 N1218 N 1.07959 0.22428 0.29024
 C1219 C 1.04813 0.22800 0.27129
 C1220 C 1.04570 0.24182 0.27201
 C1221 C 1.03411 0.24730 0.26649
 C1222 C 1.02475 0.23908 0.26011
 C1223 C 1.02713 0.22530 0.25939
 C1224 C 1.03871 0.21982 0.26487
 H1225 H 1.09991 0.22275 0.30600
 H1226 H 1.11980 0.21298 0.31593
 H1227 H 1.11235 0.17618 0.29478
 H1228 H 1.09252 0.18598 0.28479
 H1229 H 1.05273 0.24842 0.27688
 H1230 H 1.03238 0.25794 0.26731
 H1231 H 1.02001 0.21878 0.25454
 H1232 H 1.04023 0.20915 0.26415
 C1233 C 0.59440 0.29513 0.70524
 C1234 C 0.60237 0.28769 0.69642
 C1235 C 0.61374 0.29333 0.69063
 C1236 C 0.61747 0.30653 0.69356
 C1237 C 0.60950 0.31397 0.70238
 C1238 C 0.59809 0.30836 0.70811
 C1239 C 0.58233 0.28914 0.71138
 N1240 N 0.57383 0.29669 0.71877
 N1241 N 0.56297 0.29133 0.72424
 C1242 C 0.56014 0.27817 0.72260
 N1243 N 0.56865 0.27061 0.71523
 N1244 N 0.57950 0.27598 0.70974
 C1245 C 0.54799 0.27224 0.72865
 C1246 C 0.54565 0.25841 0.72799
 C1247 C 0.53409 0.25290 0.73354
 C1248 C 0.52467 0.26110 0.73989
 C1249 C 0.52697 0.27490 0.74055
 C1250 C 0.53852 0.28041 0.73504
 H1251 H 0.59982 0.27749 0.69395
 H1252 H 0.61967 0.28725 0.68396
 H1253 H 0.61199 0.32419 0.70478
 H1254 H 0.59218 0.31440 0.71484
 H1255 H 0.55271 0.25182 0.72314
 H1256 H 0.53242 0.24225 0.73276
 H1257 H 0.51980 0.28141 0.74536
 H1258 H 0.53997 0.29109 0.73570
 C1259 C 0.59455 0.79494 0.20524
 C1260 C 0.59810 0.80823 0.20801
 C1261 C 0.60946 0.81390 0.20224
 C1262 C 0.61749 0.80646 0.19349
 C1263 C 0.61392 0.79319 0.19068
 C1264 C 0.60261 0.78749 0.19651
 C1265 C 0.58251 0.78891 0.21139
 N1266 N 0.57983 0.77570 0.20989
 N1267 N 0.56899 0.77029 0.21538
 C1268 C 0.56036 0.77787 0.22257
 N1269 N 0.56305 0.79107 0.22407
 N1270 N 0.57390 0.79647 0.21862
 C1271 C 0.54819 0.77193 0.22855
 C1272 C 0.53857 0.78013 0.23466
 C1273 C 0.52699 0.77463 0.24009
 C1274 C 0.52481 0.76082 0.23964
 C1275 C 0.53437 0.75257 0.23358
 C1276 C 0.54597 0.75807 0.22809
 H1277 H 0.59214 0.81427 0.21469
 H1278 H 0.61185 0.82417 0.20457
 H1279 H 0.61994 0.78711 0.18410
 H1280 H 0.60018 0.77723 0.19415
 H1281 H 0.53993 0.79084 0.23517
 H1282 H 0.51970 0.78117 0.24469
 H1283 H 0.53280 0.74189 0.23299
 H1284 H 0.55315 0.75146 0.22345
 C1285 C 1.09442 0.29522 0.20530
 C1286 C 1.09809 0.30845 0.20817
 C1287 C 1.10949 0.31407 0.20242
 C1288 C 1.11745 0.30663 0.19359
 C1289 C 1.11377 0.29340 0.19071
 C1290 C 1.10241 0.28776 0.19652
 C1291 C 1.08235 0.28924 0.21144
 N1292 N 1.07953 0.27608 0.20982
 N1293 N 1.06869 0.27071 0.21534
 C1294 C 1.06020 0.27829 0.22271
 N1295 N 1.06301 0.29145 0.22431
 N1296 N 1.07386 0.29681 0.21882
 C1297 C 1.04806 0.27237 0.22876
 C1298 C 1.03861 0.28053 0.23517
 C1299 C 1.02705 0.27503 0.24067
 C1300 C 1.02474 0.26124 0.23998
 C1301 C 1.03415 0.25304 0.23362
 C1302 C 1.04572 0.25854 0.22809
 H1303 H 1.09219 0.31449 0.21490
 H1304 H 1.11195 0.32430 0.20481
 H1305 H 1.11972 0.28732 0.18407
 H1306 H 1.09989 0.27754 0.19410
 H1307 H 1.04007 0.29122 0.23585
 H1308 H 1.01989 0.28154 0.24549
 H1309 H 1.03248 0.24239 0.23282
 H1310 H 1.05278 0.25195 0.22324
 C1311 C 1.09464 0.79494 0.70510
 C1312 C 1.10272 0.78748 0.69641
 C1313 C 1.11405 0.79317 0.69059
 C1314 C 1.11761 0.80645 0.69338
 C1315 C 1.10955 0.81390 0.70210
 C1316 C 1.09818 0.80823 0.70786
 C1317 C 1.08258 0.78893 0.71123
 N1318 N 1.07396 0.79651 0.71843
 N1319 N 1.06309 0.79114 0.72388
 C1320 C 1.06039 0.77794 0.72239
 N1321 N 1.06902 0.77034 0.71522
 N1322 N 1.07988 0.77572 0.70974
 C1323 C 1.04821 0.77203 0.72837
 C1324 C 1.04598 0.75816 0.72795
 C1325 C 1.03440 0.75267 0.73348
 C1326 C 1.02484 0.76094 0.73953
 C1327 C 1.02703 0.77476 0.73995
 C1328 C 1.03860 0.78024 0.73448
 H1329 H 1.10028 0.77722 0.69405
 H1330 H 1.12006 0.78708 0.68401
 H1331 H 1.11191 0.82418 0.70439
 H1332 H 1.09219 0.81429 0.71450
 H1333 H 1.05316 0.75154 0.72331
 H1334 H 1.03283 0.74199 0.73293
 H1335 H 1.01976 0.78130 0.74456
 H1336 H 1.03996 0.79095 0.73496
 C1337 C 0.40562 0.70500 0.70547
 C1338 C 0.40204 0.70799 0.69227
 C1339 C 0.39068 0.70231 0.68652
 C1340 C 0.38266 0.69341 0.69379
 C1341 C 0.38627 0.69034 0.70697
 C1342 C 0.39759 0.69611 0.71276
 C1343 C 0.41767 0.71110 0.71152
 N1344 N 0.42039 0.70957 0.72469
 N1345 N 0.43122 0.71509 0.73008
 C1346 C 0.43981 0.72236 0.72251
 N1347 N 0.43709 0.72387 0.70935
 N1348 N 0.42625 0.71838 0.70398
 C1349 C 0.45197 0.72840 0.72841
 C1350 C 0.46160 0.73445 0.72019
 C1351 C 0.47317 0.73996 0.72565
 C1352 C 0.47532 0.73967 0.73944
 C1353 C 0.46574 0.73368 0.74771
 C1354 C 0.45417 0.72810 0.74225
 H1355 H 0.40800 0.71477 0.68634
 H1356 H 0.38831 0.70481 0.67631
 H1357 H 0.38029 0.68360 0.71290
 H1358 H 0.40008 0.69354 0.72293
 H1359 H 0.46027 0.73484 0.70950
 H1360 H 0.48045 0.74453 0.71910
 H1361 H 0.46727 0.73322 0.75837
 H1362 H 0.44696 0.72353 0.74887
 C1363 C 0.40575 0.20471 0.20533
 C1364 C 0.39771 0.19582 0.21261
 C1365 C 0.38637 0.19010 0.20683
 C1366 C 0.38275 0.19322 0.19367
 C1367 C 0.39077 0.20212 0.18641
 C1368 C 0.40215 0.20776 0.19214
 C1369 C 0.41781 0.21077 0.21138
 N1370 N 0.42638 0.21806 0.20385
 N1371 N 0.43723 0.22352 0.20922
 C1372 C 0.43997 0.22196 0.22237
 N1373 N 0.43138 0.21469 0.22993
 N1374 N 0.42054 0.20919 0.22454
 C1375 C 0.45213 0.22798 0.22826
 C1376 C 0.45435 0.22765 0.24209
 C1377 C 0.46592 0.23324 0.24754
 C1378 C 0.47548 0.23925 0.23927
 C1379 C 0.47331 0.23956 0.22548
 C1380 C 0.46174 0.23404 0.22003
 H1381 H 0.40021 0.19321 0.22277
 H1382 H 0.38038 0.18336 0.21275
 H1383 H 0.38839 0.20465 0.17621
 H1384 H 0.40812 0.21454 0.18623
 H1385 H 0.44716 0.22307 0.24872
 H1386 H 0.46748 0.23276 0.25820
 H1387 H 0.48058 0.24413 0.21892
 H1388 H 0.46039 0.23445 0.20934
 C1389 C -0.09433 0.70485 0.20545
 C1390 C -0.09798 0.69162 0.20833
 C1391 C -0.10933 0.68596 0.20254
 C1392 C -0.11727 0.69335 0.19367
 C1393 C -0.11361 0.70658 0.19077
 C1394 C -0.10230 0.71227 0.19662
 C1395 C -0.08228 0.71087 0.21159
 N1396 N -0.07947 0.72403 0.20993
 N1397 N -0.06863 0.72942 0.21541
 C1398 C -0.06012 0.72188 0.22278
 N1399 N -0.06294 0.70872 0.22445
 N1400 N -0.07379 0.70334 0.21899
 C1401 C -0.04796 0.72782 0.22877
 C1402 C -0.03848 0.71968 0.23517
 C1403 C -0.02691 0.72521 0.24062
 C1404 C -0.02461 0.73900 0.23989
 C1405 C -0.03404 0.74717 0.23352
 C1406 C -0.04561 0.74165 0.22803
 H1407 H -0.09209 0.68561 0.21509
 H1408 H -0.11178 0.67572 0.20495
 H1409 H -0.11955 0.71264 0.18410
 H1410 H -0.09979 0.72249 0.19417
 H1411 H -0.03993 0.70900 0.23588
 H1412 H -0.01974 0.71872 0.24545
 H1413 H -0.03237 0.75782 0.23267
 H1414 H -0.05268 0.74821 0.22316
 C1415 C -0.09458 0.20496 0.70555
 C1416 C -0.10269 0.19619 0.71287
 C1417 C -0.11404 0.19049 0.70709
 C1418 C -0.11760 0.19351 0.69389
 C1419 C -0.10946 0.20227 0.68656
 C1420 C -0.09807 0.20789 0.69231
 C1421 C -0.08254 0.21106 0.71162
 N1422 N -0.07391 0.21826 0.70407
 N1423 N -0.06305 0.22369 0.70943
 C1424 C -0.06035 0.22220 0.72260
 N1425 N -0.06900 0.21504 0.73018
 N1426 N -0.07986 0.20957 0.72481
 C1427 C -0.04817 0.22821 0.72846
 C1428 C -0.04595 0.22793 0.74229
 C1429 C -0.03437 0.23352 0.74771
 C1430 C -0.02481 0.23949 0.73941
 C1431 C -0.02698 0.23976 0.72562
 C1432 C -0.03856 0.23423 0.72020
 H1433 H -0.10030 0.19368 0.72308
 H1434 H -0.12010 0.18384 0.71304
 H1435 H -0.11176 0.20471 0.67632
 H1436 H -0.09204 0.21460 0.68637
 H1437 H -0.05314 0.22337 0.74893
 H1438 H -0.03279 0.23306 0.75837
 H1439 H -0.01970 0.24428 0.71905
 H1440 H -0.03990 0.23459 0.70951
 C1441 C 0.29505 0.40551 0.29417
 C1442 C 0.28766 0.39771 0.30317
 C1443 C 0.29333 0.38640 0.30907
 C1444 C 0.30650 0.38259 0.30605
 C1445 C 0.31384 0.39033 0.29697
 C1446 C 0.30821 0.40168 0.29114
 C1447 C 0.28909 0.41758 0.28803
 N1448 N 0.29663 0.42598 0.28054
 N1449 N 0.29129 0.43686 0.27508
 C1450 C 0.27815 0.43978 0.27683
 N1451 N 0.27060 0.43137 0.28429
 N1452 N 0.27596 0.42052 0.28979
 C1453 C 0.27224 0.45196 0.27084
 C1454 C 0.25841 0.45436 0.27158
 C1455 C 0.25292 0.46595 0.26609
 C1456 C 0.26112 0.47534 0.25971
 C1457 C 0.27491 0.47297 0.25896
 C1458 C 0.28041 0.46139 0.26442
 H1459 H 0.27750 0.40037 0.30573
 H1460 H 0.28730 0.38059 0.31587
 H1461 H 0.32402 0.38774 0.29444
 H1462 H 0.31421 0.40743 0.28425
 H1463 H 0.25182 0.44732 0.27644
 H1464 H 0.24227 0.46766 0.26694
 H1465 H 0.28142 0.48011 0.25411
 H1466 H 0.29110 0.45990 0.26370
 C1467 C 0.29543 -0.09465 0.79423
 C1468 C 0.28867 -0.10157 0.80435
 C1469 C 0.29435 -0.11286 0.81027
 C1470 C 0.30692 -0.11769 0.80611
 C1471 C 0.31360 -0.11074 0.79588
 C1472 C 0.30798 -0.09935 0.79010
 C1473 C 0.28941 -0.08262 0.78805
 N1474 N 0.29677 -0.07453 0.78006
 N1475 N 0.29139 -0.06366 0.77462
 C1476 C 0.27840 -0.06044 0.77688
 N1477 N 0.27103 -0.06856 0.78483
 N1478 N 0.27643 -0.07940 0.79032
 C1479 C 0.27246 -0.04827 0.77090
 C1480 C 0.25863 -0.04586 0.77166
 C1481 C 0.25313 -0.03427 0.76618
 C1482 C 0.26132 -0.02487 0.75980
 C1483 C 0.27511 -0.02724 0.75903
 C1484 C 0.28061 -0.03884 0.76446
 H1485 H 0.27898 -0.09823 0.80777
 H1486 H 0.28869 -0.11782 0.81799
 H1487 H 0.32330 -0.11391 0.79235
 H1488 H 0.31346 -0.09429 0.78229
 H1489 H 0.25204 -0.05291 0.77651
 H1490 H 0.24248 -0.03255 0.76703
 H1491 H 0.28162 -0.02010 0.75419
 H1492 H 0.29130 -0.04034 0.76373
 C1493 C 0.79505 0.40567 0.79456
 C1494 C 0.80736 0.40068 0.79007
 C1495 C 0.81301 0.38934 0.79587
 C1496 C 0.80659 0.38270 0.80647
 C1497 C 0.79427 0.38781 0.81099
 C1498 C 0.78856 0.39908 0.80506
 C1499 C 0.78907 0.41769 0.78836
 N1500 N 0.77622 0.42121 0.79096
 N1501 N 0.77088 0.43206 0.78544
 C1502 C 0.77816 0.43987 0.77711
 N1503 N 0.79100 0.43636 0.77451
 N1504 N 0.79633 0.42548 0.78000
 C1505 C 0.77228 0.45203 0.77108
 C1506 C 0.78043 0.46131 0.76443
 C1507 C 0.77494 0.47288 0.75893
 C1508 C 0.76118 0.47535 0.75984
 C1509 C 0.75299 0.46609 0.76642
 C1510 C 0.75849 0.45455 0.77200
 H1511 H 0.81263 0.40550 0.78197
 H1512 H 0.82251 0.38596 0.79204
 H1513 H 0.78884 0.38313 0.81904
 H1514 H 0.77907 0.40269 0.80879
 H1515 H 0.79110 0.45973 0.76360
 H1516 H 0.78143 0.47993 0.75393
 H1517 H 0.74237 0.46789 0.76737
 H1518 H 0.75192 0.44761 0.77703
 C1519 C 0.79542 -0.09445 0.29457
 C1520 C 0.78880 -0.10120 0.30489
 C1521 C 0.79456 -0.11240 0.31089
 C1522 C 0.80707 -0.11728 0.30664
 C1523 C 0.81362 -0.11049 0.29621
 C1524 C 0.80790 -0.09921 0.29033
 C1525 C 0.78938 -0.08247 0.28833
 N1526 N 0.79667 -0.07456 0.28009
 N1527 N 0.79129 -0.06373 0.27457
 C1528 C 0.77837 -0.06037 0.27701
 N1529 N 0.77107 -0.06831 0.28521
 N1530 N 0.77647 -0.07911 0.29077
 C1531 C 0.77244 -0.04823 0.27099
 C1532 C 0.75864 -0.04576 0.27190
 C1533 C 0.75312 -0.03419 0.26639
 C1534 C 0.76128 -0.02487 0.25987
 C1535 C 0.77505 -0.02730 0.25895
 C1536 C 0.78057 -0.03889 0.26439
 H1537 H 0.77917 -0.09778 0.30842
 H1538 H 0.78901 -0.11723 0.31877
 H1539 H 0.82325 -0.11371 0.29257
 H1540 H 0.81328 -0.09426 0.28239
 H1541 H 0.75209 -0.05275 0.27689
 H1542 H 0.74248 -0.03244 0.26735
 H1543 H 0.78152 -0.02022 0.25398
 H1544 H 0.79124 -0.04043 0.26356
 C1545 C 0.29479 0.59463 0.70540
 C1546 C 0.30799 0.59832 0.70839
 C1547 C 0.31368 0.60967 0.70264
 C1548 C 0.30635 0.61757 0.69368
 C1549 C 0.29315 0.61386 0.69065
 C1550 C 0.28743 0.60255 0.69648
 C1551 C 0.28876 0.58256 0.71150
 N1552 N 0.27559 0.57978 0.70986
 N1553 N 0.27019 0.56893 0.71532
 C1554 C 0.27775 0.56037 0.72262
 N1555 N 0.29093 0.56315 0.72426
 N1556 N 0.29631 0.57402 0.71883
 C1557 C 0.27182 0.54819 0.72857
 C1558 C 0.28001 0.53857 0.73468
 C1559 C 0.27448 0.52699 0.74012
 C1560 C 0.26066 0.52482 0.73966
 C1561 C 0.25242 0.53439 0.73359
 C1562 C 0.25794 0.54597 0.72809
 H1563 H 0.31396 0.59245 0.71521
 H1564 H 0.32390 0.61214 0.70512
 H1565 H 0.28715 0.61975 0.68389
 H1566 H 0.27724 0.59999 0.69392
 H1567 H 0.29072 0.53991 0.73519
 H1568 H 0.28101 0.51972 0.74475
 H1569 H 0.24173 0.53285 0.73301
 H1570 H 0.25134 0.55316 0.72346
 C1571 C 0.29479 1.09456 0.20533
 C1572 C 0.30758 1.09886 0.20916
 C1573 C 0.31330 1.11018 0.20338
 C1574 C 0.30640 1.11746 0.19359
 C1575 C 0.29360 1.11315 0.18977
 C1576 C 0.28785 1.10186 0.19559
 C1577 C 0.28878 1.08250 0.21141
 N1578 N 0.27580 1.07930 0.20914
 N1579 N 0.27043 1.06843 0.21457
 C1580 C 0.27782 1.06027 0.22248
 N1581 N 0.29080 1.06348 0.22475
 N1582 N 0.29616 1.07437 0.21935
 C1583 C 0.27192 1.04808 0.22839
 C1584 C 0.28010 1.03861 0.23474
 C1585 C 0.27461 1.02701 0.24015
 C1586 C 0.26082 1.02468 0.23942
 C1587 C 0.25260 1.03411 0.23310
 C1588 C 0.25810 1.04570 0.22763
 H1589 H 0.31320 1.09350 0.21665
 H1590 H 0.32319 1.11312 0.20655
 H1591 H 0.28791 1.11852 0.18233
 H1592 H 0.27799 1.09881 0.19238
 H1593 H 0.29079 1.04009 0.23545
 H1594 H 0.28112 1.01985 0.24496
 H1595 H 0.24194 1.03243 0.23231
 H1596 H 0.25151 1.05278 0.22282
 C1597 C 0.79513 0.59426 0.20525
 C1598 C 0.78814 0.60163 0.19559
 C1599 C 0.79389 0.61289 0.18973
 C1600 C 0.80676 0.61711 0.19341
 C1601 C 0.81374 0.60975 0.20309
 C1602 C 0.80801 0.59845 0.20891
 C1603 C 0.78905 0.58228 0.21144
 N1604 N 0.79640 0.57410 0.21935
 N1605 N 0.79096 0.56328 0.22483
 C1606 C 0.77793 0.56020 0.22268
 N1607 N 0.77056 0.56841 0.21481
 N1608 N 0.77601 0.57920 0.20929
 C1609 C 0.77196 0.54805 0.22865
 C1610 C 0.75812 0.54574 0.22795
 C1611 C 0.75258 0.53418 0.23345
 C1612 C 0.76078 0.52472 0.23973
 C1613 C 0.77458 0.52697 0.24040
 C1614 C 0.78011 0.53855 0.23498
 H1615 H 0.77821 0.59866 0.19251
 H1616 H 0.78814 0.61833 0.18240
 H1617 H 0.82368 0.61262 0.20614
 H1618 H 0.81368 0.59303 0.21633
 H1619 H 0.75155 0.55285 0.22314
 H1620 H 0.74191 0.53254 0.23270
 H1621 H 0.78107 0.51976 0.24516
 H1622 H 0.79081 0.53996 0.23565
 C1623 C 0.79515 1.09434 0.70548
 C1624 C 0.80464 1.10193 0.71244
 C1625 C 0.81037 1.11323 0.70660
 C1626 C 0.80669 1.11727 0.69371
 C1627 C 0.79722 1.10962 0.68674
 C1628 C 0.79154 1.09829 0.69254
 C1629 C 0.78900 1.08237 0.71161
 N1630 N 0.78123 1.07409 0.70425
 N1631 N 0.77575 1.06328 0.70967
 C1632 C 0.77777 1.06029 0.72270
 N1633 N 0.78551 1.06859 0.73010
 N1634 N 0.79103 1.07940 0.72466
 C1635 C 0.77172 1.04817 0.72862
 C1636 C 0.77221 1.04589 0.74243
 C1637 C 0.76659 1.03436 0.74792
 C1638 C 0.76040 1.02489 0.73969
 C1639 C 0.75991 1.02712 0.72591
 C1640 C 0.76545 1.03866 0.72043
 H1641 H 0.80769 1.09916 0.72241
 H1642 H 0.81759 1.11886 0.71230
 H1643 H 0.79420 1.11228 0.67674
 H1644 H 0.78425 1.09268 0.68689
 H1645 H 0.77697 1.05301 0.74902
 H1646 H 0.76720 1.03275 0.75856
 H1647 H 0.75520 1.01991 0.71939
 H1648 H 0.76494 1.04004 0.70975
 C1649 C 0.70515 0.59456 0.29488
 C1650 C 0.71257 0.60253 0.30371
 C1651 C 0.70685 0.61381 0.30959
 C1652 C 0.69359 0.61745 0.30672
 C1653 C 0.68619 0.60951 0.29786
 C1654 C 0.69188 0.59819 0.29205
 C1655 C 0.71118 0.58253 0.28872
 N1656 N 0.70362 0.57397 0.28144
 N1657 N 0.70900 0.56311 0.27600
 C1658 C 0.72219 0.56034 0.27756
 N1659 N 0.72977 0.56893 0.28480
 N1660 N 0.72438 0.57978 0.29027
 C1661 C 0.72813 0.54816 0.27162
 C1662 C 0.74200 0.54591 0.27211
 C1663 C 0.74752 0.53432 0.26664
 C1664 C 0.73928 0.52476 0.26058
 C1665 C 0.72546 0.52696 0.26009
 C1666 C 0.71994 0.53856 0.26550
 H1667 H 0.72280 0.60003 0.30613
 H1668 H 0.71290 0.61975 0.31626
 H1669 H 0.67593 0.61194 0.29551
 H1670 H 0.68587 0.59229 0.28530
 H1671 H 0.74860 0.55309 0.27676
 H1672 H 0.75820 0.53274 0.26724
 H1673 H 0.71894 0.51969 0.25547
 H1674 H 0.70923 0.53992 0.26498
 C1675 C 0.70472 1.09465 0.79493
 C1676 C 0.69475 1.10186 0.78823
 C1677 C 0.68892 1.11312 0.79409
 C1678 C 0.69302 1.11759 0.80676
 C1679 C 0.70307 1.11031 0.81340
 C1680 C 0.70876 1.09898 0.80760
 C1681 C 0.71085 1.08264 0.78884
 N1682 N 0.71861 1.07434 0.79623
 N1683 N 0.72405 1.06349 0.79084
 C1684 C 0.72203 1.06047 0.77781
 N1685 N 0.71431 1.06880 0.77040
 N1686 N 0.70882 1.07964 0.77580
 C1687 C 0.72801 1.04829 0.77191
 C1688 C 0.72763 1.04608 0.75808
 C1689 C 0.73319 1.03450 0.75260
 C1690 C 0.73920 1.02492 0.76085
 C1691 C 0.73956 1.02708 0.77464
 C1692 C 0.73409 1.03866 0.78011
 H1693 H 0.69136 1.09877 0.77847
 H1694 H 0.68130 1.11832 0.78850
 H1695 H 0.70652 1.11314 0.82319
 H1696 H 0.71640 1.09363 0.81306
 H1697 H 0.72303 1.05329 0.75148
 H1698 H 0.73268 1.03296 0.74194
 H1699 H 0.74414 1.01979 0.78117
 H1700 H 0.73451 1.03999 0.79080
 C1701 C 0.20497 0.59452 0.79502
 C1702 C 0.21238 0.60247 0.80387
 C1703 C 0.20666 0.61376 0.80974
 C1704 C 0.19341 0.61742 0.80686
 C1705 C 0.18603 0.60951 0.79797
 C1706 C 0.19172 0.59817 0.79216
 C1707 C 0.21102 0.58251 0.78885
 N1708 N 0.20348 0.57396 0.78153
 N1709 N 0.20889 0.56312 0.77606
 C1710 C 0.22208 0.56038 0.77763
 N1711 N 0.22964 0.56894 0.78491
 N1712 N 0.22422 0.57977 0.79041
 C1713 C 0.22804 0.54822 0.77165
 C1714 C 0.24191 0.54598 0.77214
 C1715 C 0.24744 0.53440 0.76665
 C1716 C 0.23920 0.52484 0.76058
 C1717 C 0.22538 0.52704 0.76010
 C1718 C 0.21986 0.53862 0.76552
 H1719 H 0.22261 0.59997 0.80630
 H1720 H 0.21271 0.61969 0.81642
 H1721 H 0.17579 0.61197 0.79557
 H1722 H 0.18571 0.59229 0.78538
 H1723 H 0.24851 0.55316 0.77678
 H1724 H 0.25812 0.53282 0.76725
 H1725 H 0.21886 0.51977 0.75547
 H1726 H 0.20914 0.53998 0.76501
 C1727 C 0.20508 1.09448 0.29463
 C1728 C 0.21247 1.10233 0.30357
 C1729 C 0.20680 1.11368 0.30941
 C1730 C 0.19362 1.11747 0.30640
 C1731 C 0.18627 1.10967 0.29738
 C1732 C 0.19191 1.09828 0.29161
 C1733 C 0.21106 1.08240 0.28849
 N1734 N 0.20350 1.07394 0.28110
 N1735 N 0.20886 1.06309 0.27559
 C1736 C 0.22203 1.06025 0.27720
 N1737 N 0.22960 1.06871 0.28458
 N1738 N 0.22423 1.07955 0.29012
 C1739 C 0.22794 1.04810 0.27115
 C1740 C 0.24181 1.04581 0.27162
 C1741 C 0.24729 1.03423 0.26609
 C1742 C 0.23903 1.02474 0.25996
 C1743 C 0.22522 1.02699 0.25947
 C1744 C 0.21973 1.03857 0.26496
 H1745 H 0.22264 1.09970 0.30613
 H1746 H 0.21284 1.11953 0.31616
 H1747 H 0.17610 1.11225 0.29484
 H1748 H 0.18592 1.09249 0.28475
 H1749 H 0.24843 1.05294 0.27630
 H1750 H 0.25797 1.03261 0.26672
 H1751 H 0.21867 1.01977 0.25481
 H1752 H 0.20902 1.03997 0.26443
 C1753 C 0.70481 0.40573 0.70515
 C1754 C 0.69160 0.40200 0.70809
 C1755 C 0.68597 0.39063 0.70230
 C1756 C 0.69337 0.38276 0.69336
 C1757 C 0.70655 0.38654 0.69036
 C1758 C 0.71221 0.39786 0.69621
 C1759 C 0.71081 0.41776 0.71134
 N1760 N 0.72397 0.42061 0.70965
 N1761 N 0.72935 0.43144 0.71517
 C1762 C 0.72180 0.43990 0.72259
 N1763 N 0.70865 0.43705 0.72429
 N1764 N 0.70327 0.42621 0.71880
 C1765 C 0.72774 0.45204 0.72863
 C1766 C 0.71959 0.46151 0.73504
 C1767 C 0.72512 0.47307 0.74052
 C1768 C 0.73892 0.47537 0.73980
 C1769 C 0.74710 0.46594 0.73345
 C1770 C 0.74158 0.45438 0.72794
 H1771 H 0.68559 0.40783 0.71491
 H1772 H 0.67576 0.38810 0.70475
 H1773 H 0.71259 0.38068 0.68360
 H1774 H 0.72239 0.40046 0.69368
 H1775 H 0.70890 0.46007 0.73573
 H1776 H 0.71862 0.48024 0.74535
 H1777 H 0.75776 0.46760 0.73263
 H1778 H 0.74816 0.44732 0.72308
 C1779 C 0.70482 -0.09435 0.20525
 C1780 C 0.71182 -0.10164 0.19553
 C1781 C 0.70611 -0.11290 0.18963
 C1782 C 0.69327 -0.11720 0.19334
 C1783 C 0.68629 -0.10993 0.20308
 C1784 C 0.69198 -0.09863 0.20894
 C1785 C 0.71086 -0.08237 0.21147
 N1786 N 0.72386 -0.07918 0.20922
 N1787 N 0.72927 -0.06839 0.21476
 C1788 C 0.72191 -0.06030 0.22277
 N1789 N 0.70892 -0.06349 0.22501
 N1790 N 0.70352 -0.07430 0.21950
 C1791 C 0.72786 -0.04818 0.22879
 C1792 C 0.71974 -0.03882 0.23539
 C1793 C 0.72526 -0.02725 0.24082
 C1794 C 0.73902 -0.02484 0.23989
 C1795 C 0.74719 -0.03417 0.23336
 C1796 C 0.74166 -0.04574 0.22788
 H1797 H 0.72173 -0.09862 0.19244
 H1798 H 0.71186 -0.11827 0.18225
 H1799 H 0.67637 -0.11287 0.20617
 H1800 H 0.68631 -0.09328 0.21642
 H1801 H 0.70907 -0.04035 0.23625
 H1802 H 0.71879 -0.02015 0.24579
 H1803 H 0.75781 -0.03242 0.23239
 H1804 H 0.74822 -0.05274 0.22289
 C1805 C 0.20478 0.40583 0.20503
 C1806 C 0.19196 0.40153 0.20877
 C1807 C 0.18630 0.39018 0.20298
 C1808 C 0.19328 0.38289 0.19325
 C1809 C 0.20611 0.38721 0.18950
 C1810 C 0.21179 0.39852 0.19534
 C1811 C 0.21079 0.41786 0.21119
 N1812 N 0.22377 0.42107 0.20892
 N1813 N 0.22917 0.43188 0.21445
 C1814 C 0.22180 0.43995 0.22247
 N1815 N 0.20882 0.43675 0.22472
 N1816 N 0.20343 0.42592 0.21922
 C1817 C 0.22773 0.45206 0.22852
 C1818 C 0.21960 0.46139 0.23515
 C1819 C 0.22512 0.47295 0.24062
 C1820 C 0.23888 0.47537 0.23969
 C1821 C 0.24705 0.46606 0.23315
 C1822 C 0.24154 0.45451 0.22763
 H1823 H 0.18629 0.40689 0.21623
 H1824 H 0.17640 0.38723 0.20610
 H1825 H 0.21186 0.38183 0.18213
 H1826 H 0.22168 0.40157 0.19221
 H1827 H 0.20894 0.45985 0.23601
 H1828 H 0.21864 0.48002 0.24562
 H1829 H 0.25768 0.46780 0.23220
 H1830 H 0.24809 0.44752 0.22263
 C1831 C 0.20493 -0.09432 0.70501
 C1832 C 0.19210 -0.09860 0.70872
 C1833 C 0.18641 -0.10990 0.70288
 C1834 C 0.19337 -0.11718 0.69313
 C1835 C 0.20621 -0.11287 0.68940
 C1836 C 0.21192 -0.10159 0.69529
 C1837 C 0.21095 -0.08232 0.71122
 N1838 N 0.22393 -0.07910 0.70895
 N1839 N 0.22933 -0.06830 0.71450
 C1840 C 0.22196 -0.06024 0.72252
 N1841 N 0.20898 -0.06345 0.72478
 N1842 N 0.20360 -0.07427 0.71927
 C1843 C 0.22790 -0.04812 0.72857
 C1844 C 0.21978 -0.03880 0.73522
 C1845 C 0.22531 -0.02726 0.74071
 C1846 C 0.23908 -0.02484 0.73977
 C1847 C 0.24724 -0.03414 0.73321
 C1848 C 0.24170 -0.04568 0.72765
 H1849 H 0.18643 -0.09324 0.71619
 H1850 H 0.17649 -0.11283 0.70597
 H1851 H 0.21194 -0.11822 0.68200
 H1852 H 0.22181 -0.09855 0.69216
 H1853 H 0.20912 -0.04033 0.73608
 H1854 H 0.21885 -0.02020 0.74574
 H1855 H 0.25787 -0.03241 0.73225
 H1856 H 0.24825 -0.05265 0.72262
 C1857 C 0.29488 0.29502 0.40557
 C1858 C 0.30389 0.28769 0.39771
 C1859 C 0.30969 0.29339 0.38639
 C1860 C 0.30656 0.30655 0.38262
 C1861 C 0.29752 0.31386 0.39047
 C1862 C 0.29178 0.30818 0.40182
 C1863 C 0.28875 0.28904 0.41763
 N1864 N 0.28127 0.29659 0.42603
 N1865 N 0.27581 0.29126 0.43689
 C1866 C 0.27756 0.27814 0.43981
 N1867 N 0.28502 0.27057 0.43139
 N1868 N 0.29051 0.27591 0.42054
 C1869 C 0.27154 0.27227 0.45196
 C1870 C 0.27220 0.25845 0.45434
 C1871 C 0.26663 0.25298 0.46589
 C1872 C 0.26029 0.26122 0.47527
 C1873 C 0.25965 0.27501 0.47294
 C1874 C 0.26516 0.28048 0.46138
 H1875 H 0.30651 0.27753 0.40032
 H1876 H 0.31651 0.28741 0.38054
 H1877 H 0.29495 0.32404 0.38796
 H1878 H 0.28489 0.31413 0.40763
 H1879 H 0.27704 0.25184 0.44731
 H1880 H 0.26740 0.24233 0.46757
 H1881 H 0.25485 0.28155 0.48007
 H1882 H 0.26450 0.29116 0.45991
 C1883 C 0.29524 0.79525 -0.09459
 C1884 C 0.30429 0.78794 -0.10243
 C1885 C 0.31003 0.79362 -0.11380
 C1886 C 0.30678 0.80671 -0.11765
 C1887 C 0.29772 0.81401 -0.10982
 C1888 C 0.29206 0.80837 -0.09841
 C1889 C 0.28917 0.78927 -0.08250
 N1890 N 0.28168 0.79682 -0.07410
 N1891 N 0.27623 0.79149 -0.06323
 C1892 C 0.27800 0.77837 -0.06030
 N1893 N 0.28547 0.77081 -0.06872
 N1894 N 0.29095 0.77615 -0.07958
 C1895 C 0.27200 0.77249 -0.04814
 C1896 C 0.27264 0.75866 -0.04575
 C1897 C 0.26709 0.75320 -0.03419
 C1898 C 0.26078 0.76144 -0.02479
 C1899 C 0.26016 0.77523 -0.02712
 C1900 C 0.26565 0.78069 -0.03869
 H1901 H 0.30701 0.77782 -0.09977
 H1902 H 0.31689 0.78766 -0.11962
 H1903 H 0.29510 0.82417 -0.11238
 H1904 H 0.28516 0.81432 -0.09260
 H1905 H 0.27747 0.75205 -0.05280
 H1906 H 0.26785 0.74254 -0.03252
 H1907 H 0.25537 0.78177 -0.01998
 H1908 H 0.26500 0.79138 -0.04016
 C1909 C 0.79469 0.29540 -0.09454
 C1910 C 0.80371 0.28808 -0.10240
 C1911 C 0.80948 0.29378 -0.11374
 C1912 C 0.80630 0.30691 -0.11754
 C1913 C 0.79727 0.31422 -0.10968
 C1914 C 0.79157 0.30855 -0.09830
 C1915 C 0.78857 0.28939 -0.08249
 N1916 N 0.78107 0.29691 -0.07407
 N1917 N 0.77562 0.29156 -0.06323
 C1918 C 0.77739 0.27843 -0.06033
 N1919 N 0.78486 0.27089 -0.06876
 N1920 N 0.79035 0.27626 -0.07960
 C1921 C 0.77138 0.27252 -0.04819
 C1922 C 0.77208 0.25869 -0.04584
 C1923 C 0.76653 0.25319 -0.03430
 C1924 C 0.76017 0.26139 -0.02490
 C1925 C 0.75950 0.27518 -0.02720
 C1926 C 0.76500 0.28069 -0.03874
 H1927 H 0.80638 0.27794 -0.09978
 H1928 H 0.81632 0.28781 -0.11959
 H1929 H 0.79468 0.32439 -0.11220
 H1930 H 0.78469 0.31450 -0.09247
 H1931 H 0.77694 0.25211 -0.05288
 H1932 H 0.76732 0.24253 -0.03263
 H1933 H 0.75468 0.28169 -0.02005
 H1934 H 0.76432 0.29138 -0.04018
 C1935 C 0.79464 0.79509 0.40541
 C1936 C 0.80351 0.78769 0.39745
 C1937 C 0.80921 0.79335 0.38605
 C1938 C 0.80612 0.80651 0.38231
 C1939 C 0.79723 0.81389 0.39025
 C1940 C 0.79159 0.80827 0.40168
 C1941 C 0.78862 0.78914 0.41753
 N1942 N 0.78124 0.79672 0.42599
 N1943 N 0.77584 0.79142 0.43689
 C1944 C 0.77756 0.77829 0.43980
 N1945 N 0.78493 0.77069 0.43133
 N1946 N 0.79035 0.77601 0.42043
 C1947 C 0.77160 0.77243 0.45198
 C1948 C 0.77227 0.75861 0.45438
 C1949 C 0.76675 0.75316 0.46595
 C1950 C 0.76042 0.76141 0.47533
 C1951 C 0.75977 0.77520 0.47299
 C1952 C 0.76524 0.78065 0.46142
 H1953 H 0.80610 0.77752 0.40003
 H1954 H 0.81593 0.78733 0.38013
 H1955 H 0.79471 0.82409 0.38777
 H1956 H 0.78481 0.81427 0.40758
 H1957 H 0.77709 0.75199 0.44735
 H1958 H 0.76752 0.74252 0.46766
 H1959 H 0.75498 0.78174 0.48013
 H1960 H 0.76457 0.79133 0.45993
 C1961 C 0.70548 0.29465 0.59438
 C1962 C 0.70848 0.30785 0.59805
 C1963 C 0.70278 0.31353 0.60941
 C1964 C 0.69384 0.30621 0.61734
 C1965 C 0.69081 0.29301 0.61367
 C1966 C 0.69659 0.28729 0.60234
 C1967 C 0.71155 0.28865 0.58230
 N1968 N 0.70983 0.27551 0.57943
 N1969 N 0.71527 0.27017 0.56855
 C1970 C 0.72265 0.27774 0.56008
 N1971 N 0.72436 0.29087 0.56296
 N1972 N 0.71895 0.29620 0.57384
 C1973 C 0.72861 0.27186 0.54790
 C1974 C 0.73496 0.28006 0.53845
 C1975 C 0.74045 0.27459 0.52689
 C1976 C 0.73981 0.26080 0.52456
 C1977 C 0.73348 0.25257 0.53394
 C1978 C 0.72794 0.25804 0.54550
 H1979 H 0.71526 0.31383 0.59214
 H1980 H 0.70527 0.32375 0.61185
 H1981 H 0.68407 0.28702 0.61959
 H1982 H 0.69401 0.27711 0.59979
 H1983 H 0.73562 0.29074 0.53993
 H1984 H 0.74525 0.28112 0.51976
 H1985 H 0.73270 0.24192 0.53225
 H1986 H 0.72310 0.25143 0.55254
 C1987 C 0.70571 0.79466 1.09450
 C1988 C 0.69683 0.78727 1.10244
 C1989 C 0.69102 0.79297 1.11377
 C1990 C 0.69403 0.80616 1.11746
 C1991 C 0.70294 0.81352 1.10954
 C1992 C 0.70868 0.80786 1.09819
 C1993 C 0.71179 0.78869 1.08242
 N1994 N 0.71919 0.79626 1.07397
 N1995 N 0.72461 0.79095 1.06309
 C1996 C 0.72290 0.77782 1.06018
 N1997 N 0.71552 0.77023 1.06864
 N1998 N 0.71007 0.77556 1.07952
 C1999 C 0.72888 0.77196 1.04800
 C2000 C 0.72818 0.75815 1.04559
 C2001 C 0.73372 0.75269 1.03403
 C2002 C 0.74007 0.76093 1.02467
 C2003 C 0.74074 0.77471 1.02702
 C2004 C 0.73525 0.78017 1.03859
 H2005 H 0.69430 0.77708 1.09990
 H2006 H 0.68429 0.78695 1.11967
 H2007 H 0.70540 0.82374 1.11199
 H2008 H 0.71548 0.81385 1.09231
 H2009 H 0.72334 0.75154 1.05262
 H2010 H 0.73293 0.74205 1.03232
 H2011 H 0.74556 0.78125 1.01990
 H2012 H 0.73594 0.79085 1.04009
 C2013 C 0.20547 0.29475 1.09441
 C2014 C 0.19657 0.28738 1.10235
 C2015 C 0.19074 0.29312 1.11365
 C2016 C 0.19374 0.30632 1.11730
 C2017 C 0.20267 0.31366 1.10938
 C2018 C 0.20843 0.30796 1.09806
 C2019 C 0.21158 0.28875 1.08236
 N2020 N 0.21898 0.29631 1.07390
 N2021 N 0.22440 0.29098 1.06302
 C2022 C 0.22269 0.27785 1.06014
 N2023 N 0.21532 0.27027 1.06861
 N2024 N 0.20987 0.27561 1.07948
 C2025 C 0.22866 0.27198 1.04796
 C2026 C 0.22798 0.25816 1.04556
 C2027 C 0.23351 0.25269 1.03400
 C2028 C 0.23985 0.26093 1.02462
 C2029 C 0.24051 0.27471 1.02696
 C2030 C 0.23503 0.28018 1.03853
 H2031 H 0.19406 0.27718 1.09983
 H2032 H 0.18400 0.28712 1.11956
 H2033 H 0.20512 0.32389 1.11180
 H2034 H 0.21525 0.31393 1.09218
 H2035 H 0.22313 0.25155 1.05259
 H2036 H 0.23273 0.24205 1.03230
 H2037 H 0.24532 0.28124 1.01983
 H2038 H 0.23569 0.29086 1.04001
 C2039 C 0.20562 0.79482 0.59417
 C2040 C 0.19674 0.78743 0.60211
 C2041 C 0.19093 0.79312 0.61343
 C2042 C 0.19392 0.80632 0.61712
 C2043 C 0.20282 0.81370 0.60919
 C2044 C 0.20857 0.80803 0.59784
 C2045 C 0.21174 0.78884 0.58211
 N2046 N 0.21913 0.79642 0.57366
 N2047 N 0.22458 0.79109 0.56279
 C2048 C 0.22290 0.77796 0.55991
 N2049 N 0.21552 0.77037 0.56837
 N2050 N 0.21005 0.77570 0.57923
 C2051 C 0.22890 0.77209 0.54775
 C2052 C 0.22823 0.75827 0.54536
 C2053 C 0.23379 0.75281 0.53381
 C2054 C 0.24013 0.76104 0.52445
 C2055 C 0.24078 0.77483 0.52678
 C2056 C 0.23527 0.78030 0.53833
 H2057 H 0.19423 0.77724 0.59957
 H2058 H 0.18420 0.78711 0.61934
 H2059 H 0.20527 0.82392 0.61163
 H2060 H 0.21536 0.81402 0.59196
 H2061 H 0.22339 0.75166 0.55239
 H2062 H 0.23301 0.74216 0.53212
 H2063 H 0.24558 0.78136 0.51964
 H2064 H 0.23592 0.79098 0.53980
 C2065 C 0.29498 0.70517 0.59421
 C2066 C 0.30400 0.71248 0.60206
 C2067 C 0.30980 0.70677 0.61338
 C2068 C 0.30666 0.69363 0.61717
 C2069 C 0.29763 0.68633 0.60933
 C2070 C 0.29189 0.69202 0.59797
 C2071 C 0.28885 0.71117 0.58215
 N2072 N 0.28136 0.70363 0.57376
 N2073 N 0.27591 0.70896 0.56289
 C2074 C 0.27768 0.72207 0.55995
 N2075 N 0.28514 0.72963 0.56836
 N2076 N 0.29063 0.72429 0.57922
 C2077 C 0.27167 0.72795 0.54779
 C2078 C 0.27235 0.74177 0.54538
 C2079 C 0.26681 0.74723 0.53382
 C2080 C 0.26047 0.73899 0.52446
 C2081 C 0.25980 0.72521 0.52681
 C2082 C 0.26529 0.71975 0.53837
 H2083 H 0.30662 0.72263 0.59945
 H2084 H 0.31664 0.71273 0.61922
 H2085 H 0.29505 0.67616 0.61184
 H2086 H 0.28498 0.68608 0.59217
 H2087 H 0.27720 0.74838 0.55240
 H2088 H 0.26759 0.75788 0.53212
 H2089 H 0.25499 0.71868 0.51969
 H2090 H 0.26461 0.70907 0.53986
 C2091 C 0.29484 0.20506 1.09426
 C2092 C 0.29177 0.19190 1.09803
 C2093 C 0.29756 0.18622 1.10935
 C2094 C 0.30662 0.19353 1.11717
 C2095 C 0.30973 0.20667 1.11338
 C2096 C 0.30387 0.21238 1.10208
 C2097 C 0.28867 0.21105 1.08222
 N2098 N 0.29044 0.22417 1.07928
 N2099 N 0.28493 0.22951 1.06844
 C2100 C 0.27745 0.22195 1.06005
 N2101 N 0.27569 0.20883 1.06300
 N2102 N 0.28116 0.20351 1.07385
 C2103 C 0.27142 0.22782 1.04790
 C2104 C 0.26501 0.21962 1.03850
 C2105 C 0.25951 0.22509 1.02695
 C2106 C 0.26018 0.23887 1.02459
 C2107 C 0.26655 0.24710 1.03394
 C2108 C 0.27211 0.24164 1.04549
 H2109 H 0.28486 0.18596 1.09224
 H2110 H 0.29502 0.17604 1.11186
 H2111 H 0.31658 0.21264 1.11919
 H2112 H 0.30648 0.22254 1.09947
 H2113 H 0.26433 0.20894 1.03999
 H2114 H 0.25467 0.21857 1.01983
 H2115 H 0.26734 0.25775 1.03224
 H2116 H 0.27698 0.24824 1.05250
 C2117 C 0.79475 0.70522 1.09454
 C2118 C 0.79176 0.69202 1.09823
 C2119 C 0.79749 0.68635 1.10958
 C2120 C 0.80641 0.69370 1.11750
 C2121 C 0.80943 0.70689 1.11380
 C2122 C 0.80364 0.71260 1.10248
 C2123 C 0.78868 0.71119 1.08245
 N2124 N 0.79040 0.72432 1.07954
 N2125 N 0.78495 0.72964 1.06866
 C2126 C 0.77757 0.72205 1.06021
 N2127 N 0.77586 0.70892 1.06312
 N2128 N 0.78128 0.70361 1.07401
 C2129 C 0.77159 0.72790 1.04803
 C2130 C 0.76523 0.71968 1.03862
 C2131 C 0.75976 0.72513 1.02704
 C2132 C 0.76043 0.73891 1.02468
 C2133 C 0.76676 0.74716 1.03404
 C2134 C 0.77228 0.74171 1.04561
 H2135 H 0.78494 0.68605 1.09236
 H2136 H 0.79501 0.67613 1.11203
 H2137 H 0.81617 0.71289 1.11971
 H2138 H 0.80616 0.72279 1.09995
 H2139 H 0.76454 0.70901 1.04013
 H2140 H 0.75496 0.71859 1.01992
 H2141 H 0.76755 0.75780 1.03232
 H2142 H 0.77711 0.74833 1.05263
 C2143 C 0.79497 0.20471 0.59403
 C2144 C 0.79204 0.19149 0.59769
 C2145 C 0.79780 0.18582 0.60903
 C2146 C 0.80670 0.19318 0.61696
 C2147 C 0.80968 0.20639 0.61327
 C2148 C 0.80385 0.21210 0.60196
 C2149 C 0.78880 0.21072 0.58200
 N2150 N 0.79044 0.22388 0.57916
 N2151 N 0.78488 0.22925 0.56836
 C2152 C 0.77746 0.22169 0.55992
 N2153 N 0.77582 0.20854 0.56276
 N2154 N 0.78135 0.20318 0.57357
 C2155 C 0.77138 0.22760 0.54781
 C2156 C 0.76499 0.21943 0.53838
 C2157 C 0.75949 0.22493 0.52684
 C2158 C 0.76014 0.23872 0.52454
 C2159 C 0.76648 0.24693 0.53393
 C2160 C 0.77203 0.24143 0.54546
 H2161 H 0.78525 0.18550 0.59180
 H2162 H 0.79537 0.17559 0.61146
 H2163 H 0.81641 0.21241 0.61917
 H2164 H 0.80636 0.22230 0.59942
 H2165 H 0.76432 0.20875 0.53984
 H2166 H 0.75468 0.21842 0.51970
 H2167 H 0.76726 0.25758 0.53225
 H2168 H 0.77688 0.24802 0.55250
 C2169 C 0.70571 0.70557 0.40560
 C2170 C 0.69683 0.71295 0.39764
 C2171 C 0.69105 0.70724 0.38632
 C2172 C 0.69409 0.69405 0.38263
 C2173 C 0.70301 0.68669 0.39057
 C2174 C 0.70871 0.69237 0.40193
 C2175 C 0.71178 0.71156 0.41767
 N2176 N 0.71919 0.70400 0.42613
 N2177 N 0.72461 0.70933 0.43700
 C2178 C 0.72289 0.72247 0.43988
 N2179 N 0.71551 0.73005 0.43141
 N2180 N 0.71006 0.72470 0.42055
 C2181 C 0.72888 0.72835 0.45204
 C2182 C 0.72819 0.74217 0.45443
 C2183 C 0.73373 0.74763 0.46598
 C2184 C 0.74009 0.73939 0.47535
 C2185 C 0.74074 0.72561 0.47302
 C2186 C 0.73526 0.72014 0.46146
 H2187 H 0.69428 0.72314 0.40018
 H2188 H 0.68432 0.71325 0.38040
 H2189 H 0.70549 0.67647 0.38813
 H2190 H 0.71551 0.68638 0.40782
 H2191 H 0.72334 0.74878 0.44740
 H2192 H 0.73295 0.75828 0.46768
 H2193 H 0.74556 0.71907 0.48015
 H2194 H 0.73593 0.70946 0.45999
 C2195 C 0.70536 0.20516 -0.09447
 C2196 C 0.69657 0.21256 -0.10253
 C2197 C 0.69079 0.20680 -0.11383
 C2198 C 0.69368 0.19353 -0.11737
 C2199 C 0.70250 0.18617 -0.10933
 C2200 C 0.70823 0.19189 -0.09800
 C2201 C 0.71147 0.21122 -0.08244
 N2202 N 0.71884 0.20368 -0.07393
 N2203 N 0.72430 0.20907 -0.06311
 C2204 C 0.72267 0.22223 -0.06033
 N2205 N 0.71531 0.22979 -0.06885
 N2206 N 0.70982 0.22439 -0.07967
 C2207 C 0.72867 0.22816 -0.04819
 C2208 C 0.72801 0.24199 -0.04585
 C2209 C 0.73355 0.24749 -0.03431
 C2210 C 0.73989 0.23928 -0.02490
 C2211 C 0.74054 0.22549 -0.02720
 C2212 C 0.73505 0.21999 -0.03874
 H2213 H 0.69410 0.22279 -0.10009
 H2214 H 0.68414 0.21283 -0.11982
 H2215 H 0.70489 0.17590 -0.11167
 H2216 H 0.71492 0.18589 -0.09203
 H2217 H 0.72317 0.24858 -0.05290
 H2218 H 0.73277 0.25815 -0.03264
 H2219 H 0.74534 0.21897 -0.02005
 H2220 H 0.73571 0.20930 -0.04018
 C2221 C 0.20576 0.70566 -0.09439
 C2222 C 0.19690 0.71306 -0.10235
 C2223 C 0.19110 0.70736 -0.11367
 C2224 C 0.19410 0.69415 -0.11734
 C2225 C 0.20299 0.68677 -0.10940
 C2226 C 0.20873 0.69245 -0.09805
 C2227 C 0.21187 0.71164 -0.08234
 N2228 N 0.21925 0.70406 -0.07388
 N2229 N 0.22471 0.70938 -0.06303
 C2230 C 0.22306 0.72252 -0.06017
 N2231 N 0.21569 0.73012 -0.06863
 N2232 N 0.21020 0.72479 -0.07948
 C2233 C 0.22910 0.72839 -0.04803
 C2234 C 0.22849 0.74221 -0.04566
 C2235 C 0.23407 0.74767 -0.03413
 C2236 C 0.24040 0.73942 -0.02476
 C2237 C 0.24099 0.72563 -0.02707
 C2238 C 0.23546 0.72017 -0.03860
 H2239 H 0.19440 0.72327 -0.09984
 H2240 H 0.18439 0.71338 -0.11959
 H2241 H 0.20545 0.67655 -0.11183
 H2242 H 0.21552 0.68646 -0.09217
 H2243 H 0.22366 0.74883 -0.05270
 H2244 H 0.23333 0.75832 -0.03245
 H2245 H 0.24578 0.71908 -0.01993
 H2246 H 0.23607 0.70948 -0.04007
 C2247 C 0.20548 0.20539 0.40554
 C2248 C 0.20847 0.19218 0.40189
 C2249 C 0.20273 0.18648 0.39057
 C2250 C 0.19381 0.19382 0.38263
 C2251 C 0.19078 0.20702 0.38629
 C2252 C 0.19658 0.21276 0.39758
 C2253 C 0.21157 0.21140 0.41759
 N2254 N 0.20986 0.22454 0.42045
 N2255 N 0.21532 0.22988 0.43131
 C2256 C 0.22270 0.22230 0.43978
 N2257 N 0.22440 0.20916 0.43691
 N2258 N 0.21896 0.20383 0.42605
 C2259 C 0.22871 0.22817 0.45194
 C2260 C 0.23506 0.21996 0.46137
 C2261 C 0.24056 0.22541 0.47293
 C2262 C 0.23993 0.23920 0.47525
 C2263 C 0.23361 0.24745 0.46587
 C2264 C 0.22806 0.24199 0.45432
 H2265 H 0.21531 0.18622 0.40776
 H2266 H 0.20522 0.17625 0.38814
 H2267 H 0.18405 0.21303 0.38036
 H2268 H 0.19407 0.22297 0.40007
 H2269 H 0.23571 0.20927 0.45990
 H2270 H 0.24535 0.21887 0.48006
 H2271 H 0.23285 0.25810 0.46756
 H2272 H 0.22324 0.24861 0.44728
 C2273 C 0.29525 0.40591 0.70528
 C2274 C 0.30404 0.39778 0.71258
 C2275 C 0.30978 0.38646 0.70675
 C2276 C 0.30680 0.38297 0.69352
 C2277 C 0.29800 0.39111 0.68624
 C2278 C 0.29234 0.40246 0.69203
 C2279 C 0.28913 0.41793 0.71138
 N2280 N 0.28186 0.42655 0.70387
 N2281 N 0.27635 0.43736 0.70928
 C2282 C 0.27783 0.44002 0.72245
 N2283 N 0.28509 0.43139 0.72999
 N2284 N 0.29063 0.42058 0.72456
 C2285 C 0.27177 0.45214 0.72840
 C2286 C 0.27210 0.45428 0.74224
 C2287 C 0.26651 0.46583 0.74776
 C2288 C 0.26050 0.47543 0.73953
 C2289 C 0.26015 0.47331 0.72573
 C2290 C 0.26567 0.46177 0.72022
 H2291 H 0.30653 0.40016 0.72279
 H2292 H 0.31642 0.38038 0.71270
 H2293 H 0.29556 0.38882 0.67600
 H2294 H 0.28562 0.40850 0.68610
 H2295 H 0.27671 0.44707 0.74882
 H2296 H 0.26701 0.46734 0.75842
 H2297 H 0.25556 0.48062 0.71922
 H2298 H 0.26526 0.46049 0.70953
 C2299 C 0.29536 0.90605 0.20477
 C2300 C 0.29941 0.89530 0.21277
 C2301 C 0.30541 0.88408 0.20703
 C2302 C 0.30705 0.88326 0.19317
 C2303 C 0.30284 0.89396 0.18516
 C2304 C 0.29724 0.90536 0.19094
 C2305 C 0.28931 0.91800 0.21083
 N2306 N 0.29278 0.93038 0.20656
 N2307 N 0.28742 0.94121 0.21212
 C2308 C 0.27822 0.94005 0.22198
 N2309 N 0.27464 0.92767 0.22616
 N2310 N 0.28017 0.91684 0.22075
 C2311 C 0.27233 0.95202 0.22810
 C2312 C 0.25849 0.95300 0.22993
 C2313 C 0.25289 0.96460 0.23532
 C2314 C 0.26110 0.97518 0.23954
 C2315 C 0.27501 0.97402 0.23785
 C2316 C 0.28054 0.96264 0.23201
 H2317 H 0.29814 0.89568 0.22347
 H2318 H 0.30858 0.87595 0.21339
 H2319 H 0.30411 0.89359 0.17445
 H2320 H 0.29417 0.91355 0.18460
 H2321 H 0.25198 0.94495 0.22683
 H2322 H 0.24213 0.96533 0.23603
 H2323 H 0.28161 0.98195 0.24104
 H2324 H 0.29127 0.96203 0.23075
 C2325 C 0.79547 0.40595 0.20517
 C2326 C 0.79256 0.40253 0.19191
 C2327 C 0.79820 0.39119 0.18609
 C2328 C 0.80698 0.38302 0.19335
 C2329 C 0.81000 0.38649 0.20658
 C2330 C 0.80428 0.39780 0.21244
 C2331 C 0.78934 0.41795 0.21129
 N2332 N 0.79082 0.42058 0.22449
 N2333 N 0.78526 0.43138 0.22992
 C2334 C 0.77800 0.44001 0.22239
 N2335 N 0.77653 0.43737 0.20921
 N2336 N 0.78206 0.42657 0.20379
 C2337 C 0.77192 0.45211 0.22835
 C2338 C 0.76582 0.46177 0.22020
 C2339 C 0.76027 0.47329 0.22574
 C2340 C 0.76061 0.47536 0.23955
 C2341 C 0.76664 0.46575 0.24775
 C2342 C 0.77224 0.45423 0.24220
 H2343 H 0.78587 0.40861 0.18599
 H2344 H 0.79578 0.38894 0.17584
 H2345 H 0.81668 0.38040 0.21248
 H2346 H 0.80682 0.40017 0.22264
 H2347 H 0.76542 0.46053 0.20950
 H2348 H 0.75568 0.48061 0.21926
 H2349 H 0.76714 0.46723 0.25841
 H2350 H 0.77686 0.44700 0.24876
 C2351 C 0.79487 0.90592 0.70526
 C2352 C 0.80809 0.90224 0.70822
 C2353 C 0.81379 0.89090 0.70243
 C2354 C 0.80645 0.88302 0.69347
 C2355 C 0.79325 0.88673 0.69047
 C2356 C 0.78751 0.89802 0.69633
 C2357 C 0.78881 0.91794 0.71143
 N2358 N 0.77563 0.92070 0.70983
 N2359 N 0.77021 0.93152 0.71534
 C2360 C 0.77775 0.94006 0.72265
 N2361 N 0.79094 0.93730 0.72425
 N2362 N 0.79635 0.92646 0.71878
 C2363 C 0.77178 0.95220 0.72865
 C2364 C 0.77996 0.96181 0.73478
 C2365 C 0.77441 0.97336 0.74026
 C2366 C 0.76058 0.97551 0.73982
 C2367 C 0.75236 0.96595 0.73374
 C2368 C 0.75791 0.95440 0.72820
 H2369 H 0.81405 0.90808 0.71506
 H2370 H 0.82401 0.88842 0.70489
 H2371 H 0.78725 0.88085 0.68371
 H2372 H 0.77731 0.90057 0.69381
 H2373 H 0.79068 0.96049 0.73526
 H2374 H 0.78092 0.98063 0.74488
 H2375 H 0.74167 0.96750 0.73316
 H2376 H 0.75132 0.94722 0.72354
 C2377 C 0.70482 0.59442 0.70510
 C2378 C 0.71220 0.60226 0.69612
 C2379 C 0.70648 0.61354 0.69022
 C2380 C 0.69328 0.61728 0.69320
 C2381 C 0.68593 0.60946 0.70221
 C2382 C 0.69162 0.59815 0.70806
 C2383 C 0.71084 0.58241 0.71131
 N2384 N 0.70332 0.57400 0.71880
 N2385 N 0.70869 0.56316 0.72432
 C2386 C 0.72184 0.56029 0.72261
 N2387 N 0.72938 0.56872 0.71515
 N2388 N 0.72400 0.57953 0.70961
 C2389 C 0.72779 0.54815 0.72864
 C2390 C 0.74162 0.54580 0.72789
 C2391 C 0.74717 0.53424 0.73340
 C2392 C 0.73900 0.52481 0.73977
 C2393 C 0.72520 0.52714 0.74053
 C2394 C 0.71965 0.53870 0.73508
 H2395 H 0.72239 0.59968 0.69360
 H2396 H 0.71249 0.61938 0.68343
 H2397 H 0.67572 0.61197 0.70469
 H2398 H 0.68565 0.59233 0.71492
 H2399 H 0.74817 0.55286 0.72300
 H2400 H 0.75782 0.53257 0.73254
 H2401 H 0.71872 0.51998 0.74539
 H2402 H 0.70896 0.54015 0.73580
 C2403 C 0.70482 0.09405 0.20493
 C2404 C 0.69155 0.09767 0.20771
 C2405 C 0.68585 0.10895 0.20181
 C2406 C 0.69326 0.11685 0.19293
 C2407 C 0.70653 0.11322 0.19012
 C2408 C 0.71225 0.10198 0.19607
 C2409 C 0.71086 0.08208 0.21119
 N2410 N 0.72404 0.07927 0.20958
 N2411 N 0.72944 0.06847 0.21515
 C2412 C 0.72189 0.06000 0.22255
 N2413 N 0.70872 0.06281 0.22416
 N2414 N 0.70332 0.07362 0.21862
 C2415 C 0.72784 0.04788 0.22861
 C2416 C 0.71970 0.03844 0.23504
 C2417 C 0.72524 0.02690 0.24054
 C2418 C 0.73904 0.02458 0.23982
 C2419 C 0.74722 0.03398 0.23343
 C2420 C 0.74168 0.04553 0.22789
 H2421 H 0.68553 0.09180 0.21449
 H2422 H 0.67559 0.11138 0.20415
 H2423 H 0.71260 0.11913 0.18343
 H2424 H 0.72251 0.09949 0.19371
 H2425 H 0.70901 0.03989 0.23574
 H2426 H 0.71875 0.01975 0.24540
 H2427 H 0.75787 0.03232 0.23260
 H2428 H 0.74824 0.05258 0.22300
 C2429 C 0.20487 0.59439 0.20482
 C2430 C 0.19171 0.59822 0.20786
 C2431 C 0.18609 0.60960 0.20207
 C2432 C 0.19344 0.61737 0.19303
 C2433 C 0.20660 0.61352 0.18996
 C2434 C 0.21225 0.60218 0.19581
 C2435 C 0.21085 0.58234 0.21100
 N2436 N 0.22398 0.57942 0.20927
 N2437 N 0.22935 0.56860 0.21483
 C2438 C 0.22180 0.56022 0.22233
 N2439 N 0.20867 0.56314 0.22406
 N2440 N 0.20331 0.57397 0.21853
 C2441 C 0.22773 0.54808 0.22839
 C2442 C 0.21956 0.53867 0.23485
 C2443 C 0.22508 0.52712 0.24036
 C2444 C 0.23887 0.52477 0.23963
 C2445 C 0.24707 0.53414 0.23322
 C2446 C 0.24156 0.54570 0.22767
 H2447 H 0.18573 0.59246 0.21476
 H2448 H 0.17591 0.61219 0.20460
 H2449 H 0.21263 0.61931 0.18314
 H2450 H 0.22241 0.59951 0.19323
 H2451 H 0.20888 0.54016 0.23556
 H2452 H 0.21858 0.52000 0.24523
 H2453 H 0.25772 0.53245 0.23239
 H2454 H 0.24814 0.55272 0.22276
 C2455 C 0.20459 0.09406 0.70502
 C2456 C 0.19131 0.09767 0.70783
 C2457 C 0.18560 0.10896 0.70195
 C2458 C 0.19299 0.11688 0.69306
 C2459 C 0.20625 0.11326 0.69023
 C2460 C 0.21200 0.10201 0.69617
 C2461 C 0.21066 0.08208 0.71126
 N2462 N 0.22385 0.07930 0.70965
 N2463 N 0.22927 0.06850 0.71520
 C2464 C 0.22174 0.06000 0.72258
 N2465 N 0.20856 0.06278 0.72420
 N2466 N 0.20314 0.07359 0.71868
 C2467 C 0.22772 0.04788 0.72862
 C2468 C 0.21960 0.03840 0.73503
 C2469 C 0.22516 0.02686 0.74051
 C2470 C 0.23897 0.02458 0.73981
 C2471 C 0.24713 0.03402 0.73346
 C2472 C 0.24157 0.04557 0.72793
 H2473 H 0.18531 0.09179 0.71461
 H2474 H 0.17533 0.11137 0.70430
 H2475 H 0.21231 0.11918 0.68354
 H2476 H 0.22225 0.09954 0.69378
 H2477 H 0.20890 0.03981 0.73571
 H2478 H 0.21869 0.01968 0.74535
 H2479 H 0.25779 0.03238 0.73264
 H2480 H 0.24812 0.05264 0.72306
 C2481 C 0.29506 0.59444 0.29427
 C2482 C 0.28771 0.60215 0.30338
 C2483 C 0.29335 0.61347 0.30926
 C2484 C 0.30645 0.61738 0.30611
 C2485 C 0.31377 0.60971 0.29694
 C2486 C 0.30816 0.59835 0.29112
 C2487 C 0.28909 0.58239 0.28810
 N2488 N 0.29660 0.57403 0.28053
 N2489 N 0.29125 0.56317 0.27508
 C2490 C 0.27814 0.56021 0.27692
 N2491 N 0.27062 0.56858 0.28447
 N2492 N 0.27598 0.57943 0.28995
 C2493 C 0.27222 0.54806 0.27091
 C2494 C 0.25840 0.54568 0.27168
 C2495 C 0.25289 0.53412 0.26614
 C2496 C 0.26109 0.52475 0.25972
 C2497 C 0.27488 0.52710 0.25896
 C2498 C 0.28039 0.53865 0.26446
 H2499 H 0.27759 0.59944 0.30602
 H2500 H 0.28735 0.61920 0.31617
 H2501 H 0.32390 0.61237 0.29432
 H2502 H 0.31411 0.59268 0.28411
 H2503 H 0.25181 0.55270 0.27659
 H2504 H 0.24225 0.53242 0.26700
 H2505 H 0.28139 0.51997 0.25409
 H2506 H 0.29107 0.54012 0.26373
 C2507 C 0.29517 0.09416 0.79461
 C2508 C 0.30835 0.09793 0.79161
 C2509 C 0.31398 0.10929 0.79739
 C2510 C 0.30661 0.11712 0.80640
 C2511 C 0.29343 0.11335 0.80940
 C2512 C 0.28777 0.10202 0.80356
 C2513 C 0.28919 0.08212 0.78844
 N2514 N 0.27605 0.07923 0.79016
 N2515 N 0.27068 0.06842 0.78461
 C2516 C 0.27824 0.06002 0.77712
 N2517 N 0.29138 0.06290 0.77542
 N2518 N 0.29673 0.07373 0.78094
 C2519 C 0.27233 0.04789 0.77106
 C2520 C 0.28051 0.03848 0.76460
 C2521 C 0.27502 0.02692 0.75912
 C2522 C 0.26124 0.02456 0.75987
 C2523 C 0.25302 0.03394 0.76627
 C2524 C 0.25851 0.04551 0.77178
 H2525 H 0.31433 0.09213 0.78473
 H2526 H 0.32417 0.11184 0.79487
 H2527 H 0.28739 0.11921 0.81615
 H2528 H 0.27758 0.09943 0.80608
 H2529 H 0.29120 0.03997 0.76388
 H2530 H 0.28154 0.01979 0.75426
 H2531 H 0.24238 0.03223 0.76711
 H2532 H 0.25191 0.05254 0.77667
 C2533 C 0.79525 0.59439 0.79448
 C2534 C 0.80842 0.59818 0.79144
 C2535 C 0.81408 0.60950 0.79727
 C2536 C 0.80676 0.61727 0.80636
 C2537 C 0.79361 0.61346 0.80944
 C2538 C 0.78791 0.60217 0.80354
 C2539 C 0.78923 0.58238 0.78828
 N2540 N 0.77609 0.57950 0.79005
 N2541 N 0.77070 0.56867 0.78455
 C2542 C 0.77823 0.56024 0.77706
 N2543 N 0.79136 0.56315 0.77527
 N2544 N 0.79674 0.57399 0.78074
 C2545 C 0.77231 0.54808 0.77108
 C2546 C 0.78049 0.53864 0.76466
 C2547 C 0.77499 0.52708 0.75917
 C2548 C 0.76120 0.52475 0.75988
 C2549 C 0.75299 0.53413 0.76629
 C2550 C 0.75849 0.54569 0.77183
 H2551 H 0.81437 0.59243 0.78450
 H2552 H 0.82426 0.61207 0.79474
 H2553 H 0.78761 0.61925 0.81630
 H2554 H 0.77775 0.59954 0.80613
 H2555 H 0.79118 0.54011 0.76397
 H2556 H 0.78151 0.51994 0.75435
 H2557 H 0.74235 0.53242 0.76715
 H2558 H 0.75190 0.55272 0.77672
 C2559 C 0.79532 0.09415 0.29455
 C2560 C 0.80852 0.09789 0.29159
 C2561 C 0.81418 0.10921 0.29743
 C2562 C 0.80682 0.11704 0.30643
 C2563 C 0.79361 0.11330 0.30939
 C2564 C 0.78793 0.10201 0.30350
 C2565 C 0.78932 0.08213 0.28837
 N2566 N 0.77617 0.07926 0.29009
 N2567 N 0.77079 0.06844 0.28456
 C2568 C 0.77833 0.06001 0.27710
 N2569 N 0.79148 0.06288 0.27538
 N2570 N 0.79685 0.07371 0.28088
 C2571 C 0.77241 0.04786 0.27108
 C2572 C 0.78058 0.03843 0.26465
 C2573 C 0.77508 0.02688 0.25916
 C2574 C 0.76129 0.02454 0.25989
 C2575 C 0.75309 0.03392 0.26629
 C2576 C 0.75858 0.04548 0.27182
 H2577 H 0.81452 0.09208 0.28475
 H2578 H 0.82438 0.11173 0.29496
 H2579 H 0.78756 0.11915 0.31616
 H2580 H 0.77774 0.09942 0.30602
 H2581 H 0.79127 0.03991 0.26393
 H2582 H 0.78159 0.01975 0.25429
 H2583 H 0.74244 0.03222 0.26712
 H2584 H 0.75199 0.05252 0.27670
 C2585 C 0.70472 0.40571 0.29469
 C2586 C 0.69591 0.39762 0.28738
 C2587 C 0.69016 0.38631 0.29319
 C2588 C 0.69314 0.38279 0.30641
 C2589 C 0.70194 0.39089 0.31371
 C2590 C 0.70763 0.40222 0.30794
 C2591 C 0.71082 0.41774 0.28862
 N2592 N 0.71806 0.42634 0.29615
 N2593 N 0.72355 0.43716 0.29076
 C2594 C 0.72207 0.43985 0.27759
 N2595 N 0.71485 0.43124 0.27003
 N2596 N 0.70933 0.42041 0.27543
 C2597 C 0.72810 0.45200 0.27170
 C2598 C 0.72780 0.45422 0.25787
 C2599 C 0.73338 0.46579 0.25242
 C2600 C 0.73937 0.47535 0.26071
 C2601 C 0.73967 0.47317 0.27450
 C2602 C 0.73414 0.46161 0.27994
 H2603 H 0.69341 0.40004 0.27718
 H2604 H 0.68349 0.38027 0.28724
 H2605 H 0.70437 0.38858 0.32395
 H2606 H 0.71433 0.40824 0.31389
 H2607 H 0.72323 0.44703 0.25124
 H2608 H 0.73294 0.46734 0.24176
 H2609 H 0.74424 0.48043 0.28106
 H2610 H 0.73453 0.46026 0.29063
 C2611 C 0.70508 0.90569 0.79497
 C2612 C 0.71249 0.89769 0.80379
 C2613 C 0.70676 0.88639 0.80962
 C2614 C 0.69351 0.88277 0.80672
 C2615 C 0.68613 0.89074 0.79786
 C2616 C 0.69183 0.90208 0.79209
 C2617 C 0.71111 0.91773 0.78886
 N2618 N 0.70355 0.92631 0.78159
 N2619 N 0.70893 0.93718 0.77617
 C2620 C 0.72212 0.93993 0.77775
 N2621 N 0.72969 0.93133 0.78500
 N2622 N 0.72430 0.92048 0.79045
 C2623 C 0.72805 0.95211 0.77181
 C2624 C 0.74192 0.95433 0.77229
 C2625 C 0.74742 0.96593 0.76682
 C2626 C 0.73917 0.97550 0.76077
 C2627 C 0.72535 0.97331 0.76030
 C2628 C 0.71984 0.96172 0.76571
 H2629 H 0.72271 0.90018 0.80624
 H2630 H 0.71280 0.88045 0.81631
 H2631 H 0.67588 0.88834 0.79548
 H2632 H 0.68583 0.90800 0.78535
 H2633 H 0.74852 0.94713 0.77690
 H2634 H 0.75811 0.96748 0.76740
 H2635 H 0.71882 0.98058 0.75569
 H2636 H 0.70913 0.96036 0.76519
 C2637 C 0.20453 0.40584 0.79478
 C2638 C 0.20744 0.40234 0.80802
 C2639 C 0.20176 0.39100 0.81379
 C2640 C 0.19294 0.38291 0.80650
 C2641 C 0.18995 0.38644 0.79328
 C2642 C 0.19571 0.39775 0.78747
 C2643 C 0.21065 0.41786 0.78870
 N2644 N 0.20915 0.42054 0.77551
 N2645 N 0.21468 0.43136 0.77011
 C2646 C 0.22191 0.43997 0.77767
 N2647 N 0.22339 0.43729 0.79084
 N2648 N 0.21790 0.42646 0.79623
 C2649 C 0.22797 0.45212 0.77176
 C2650 C 0.23403 0.46173 0.77998
 C2651 C 0.23957 0.47328 0.77451
 C2652 C 0.23928 0.47543 0.76072
 C2653 C 0.23328 0.46586 0.75246
 C2654 C 0.22768 0.45430 0.75792
 H2655 H 0.21416 0.40835 0.81396
 H2656 H 0.20420 0.38869 0.82403
 H2657 H 0.18328 0.38040 0.78734
 H2658 H 0.19321 0.40017 0.77727
 H2659 H 0.23441 0.46041 0.79067
 H2660 H 0.24413 0.48055 0.78106
 H2661 H 0.23282 0.46740 0.74179
 H2662 H 0.22310 0.44711 0.75131
 C2663 C 0.20517 0.90591 0.29517
 C2664 C 0.21235 0.89821 0.30441
 C2665 C 0.20660 0.88689 0.31018
 C2666 C 0.19355 0.88298 0.30681
 C2667 C 0.18639 0.89068 0.29754
 C2668 C 0.19212 0.90202 0.29182
 C2669 C 0.21123 0.91795 0.28909
 N2670 N 0.20383 0.92619 0.28128
 N2671 N 0.20923 0.93704 0.27586
 C2672 C 0.22226 0.94012 0.27797
 N2673 N 0.22968 0.93187 0.28576
 N2674 N 0.22427 0.92103 0.29121
 C2675 C 0.22819 0.95225 0.27196
 C2676 C 0.24199 0.95474 0.27283
 C2677 C 0.24749 0.96624 0.26715
 C2678 C 0.23928 0.97545 0.26052
 C2679 C 0.22552 0.97301 0.25970
 C2680 C 0.22003 0.96152 0.26531
 H2681 H 0.22242 0.90094 0.30725
 H2682 H 0.21247 0.88119 0.31720
 H2683 H 0.17629 0.88806 0.29477
 H2684 H 0.18628 0.90773 0.28475
 H2685 H 0.24856 0.94781 0.27789
 H2686 H 0.25813 0.96799 0.26796
 H2687 H 0.21902 0.98000 0.25460
 H2688 H 0.20937 0.95996 0.26448
 C2689 C 0.40535 0.29492 0.70550
 C2690 C 0.40158 0.30810 0.70849
 C2691 C 0.39017 0.31373 0.70276
 C2692 C 0.38230 0.30635 0.69383
 C2693 C 0.38607 0.29316 0.69083
 C2694 C 0.39743 0.28751 0.69663
 C2695 C 0.41745 0.28896 0.71161
 N2696 N 0.42036 0.27583 0.70990
 N2697 N 0.43123 0.27048 0.71538
 C2698 C 0.43967 0.27805 0.72279
 N2699 N 0.43677 0.29119 0.72449
 N2700 N 0.42588 0.29652 0.71903
 C2701 C 0.45185 0.27215 0.72880
 C2702 C 0.46128 0.28033 0.73521
 C2703 C 0.47286 0.27484 0.74067
 C2704 C 0.47522 0.26106 0.73996
 C2705 C 0.46584 0.25285 0.73360
 C2706 C 0.45425 0.25833 0.72809
 H2707 H 0.40741 0.31410 0.71531
 H2708 H 0.38763 0.32392 0.70526
 H2709 H 0.38018 0.28712 0.68412
 H2710 H 0.40003 0.27732 0.69411
 H2711 H 0.45978 0.29101 0.73591
 H2712 H 0.48001 0.28135 0.74550
 H2713 H 0.46755 0.24220 0.73277
 H2714 H 0.44721 0.25174 0.72323
 C2715 C 0.40558 0.79530 0.20561
 C2716 C 0.40210 0.79244 0.19236
 C2717 C 0.39069 0.79805 0.18664
 C2718 C 0.38249 0.80674 0.19400
 C2719 C 0.38602 0.80969 0.20722
 C2720 C 0.39741 0.80401 0.21298
 C2721 C 0.41766 0.78921 0.21165
 N2722 N 0.42035 0.79067 0.22483
 N2723 N 0.43121 0.78516 0.23019
 C2724 C 0.43984 0.77797 0.22260
 N2725 N 0.43714 0.77651 0.20943
 N2726 N 0.42628 0.78199 0.20408
 C2727 C 0.45202 0.77192 0.22848
 C2728 C 0.46166 0.76587 0.22026
 C2729 C 0.47323 0.76036 0.22573
 C2730 C 0.47538 0.76067 0.23952
 C2731 C 0.46579 0.76665 0.24778
 C2732 C 0.45421 0.77222 0.24232
 H2733 H 0.40817 0.78579 0.18638
 H2734 H 0.38840 0.79565 0.17639
 H2735 H 0.37993 0.81628 0.21321
 H2736 H 0.39980 0.80647 0.22320
 H2737 H 0.46034 0.76548 0.20957
 H2738 H 0.48054 0.75581 0.21919
 H2739 H 0.46734 0.76714 0.25844
 H2740 H 0.44700 0.77680 0.24894
 C2741 C 0.90547 0.29503 0.20537
 C2742 C 0.90168 0.30821 0.20833
 C2743 C 0.89026 0.31380 0.20258
 C2744 C 0.88241 0.30639 0.19365
 C2745 C 0.88620 0.29321 0.19068
 C2746 C 0.89758 0.28759 0.19650
 C2747 C 0.91756 0.28907 0.21150
 N2748 N 0.92046 0.27593 0.20980
 N2749 N 0.93132 0.27058 0.21531
 C2750 C 0.93975 0.27813 0.22274
 N2751 N 0.93684 0.29127 0.22444
 N2752 N 0.92598 0.29662 0.21895
 C2753 C 0.95192 0.27224 0.22876
 C2754 C 0.96132 0.28043 0.23519
 C2755 C 0.97291 0.27497 0.24068
 C2756 C 0.97530 0.26119 0.23996
 C2757 C 0.96595 0.25296 0.23357
 C2758 C 0.95436 0.25842 0.22805
 H2759 H 0.90749 0.31425 0.21513
 H2760 H 0.88768 0.32399 0.20506
 H2761 H 0.88032 0.28713 0.18398
 H2762 H 0.90021 0.27741 0.19400
 H2763 H 0.95980 0.29110 0.23590
 H2764 H 0.98002 0.28150 0.24552
 H2765 H 0.96770 0.24232 0.23275
 H2766 H 0.94734 0.25181 0.22318
 C2767 C 0.90575 0.79555 0.70534
 C2768 C 0.90219 0.79254 0.69214
 C2769 C 0.89084 0.79823 0.68638
 C2770 C 0.88281 0.80715 0.69364
 C2771 C 0.88641 0.81023 0.70681
 C2772 C 0.89773 0.80446 0.71261
 C2773 C 0.91777 0.78941 0.71142
 N2774 N 0.92049 0.79098 0.72459
 N2775 N 0.93132 0.78546 0.72999
 C2776 C 0.93991 0.77816 0.72245
 N2777 N 0.93718 0.77660 0.70930
 N2778 N 0.92635 0.78209 0.70391
 C2779 C 0.95206 0.77212 0.72836
 C2780 C 0.96169 0.76603 0.72015
 C2781 C 0.97326 0.76051 0.72562
 C2782 C 0.97541 0.76085 0.73942
 C2783 C 0.96583 0.76688 0.74767
 C2784 C 0.95426 0.77247 0.74219
 H2785 H 0.90816 0.78574 0.68623
 H2786 H 0.88848 0.79572 0.67617
 H2787 H 0.88042 0.81698 0.71273
 H2788 H 0.90019 0.80704 0.72278
 H2789 H 0.96035 0.76561 0.70946
 H2790 H 0.98054 0.75594 0.71908
 H2791 H 0.96739 0.76739 0.75832
 H2792 H 0.94707 0.77708 0.74880
 C2793 C 0.59482 0.29454 0.29439
 C2794 C 0.59843 0.30779 0.29151
 C2795 C 0.60981 0.31346 0.29724
 C2796 C 0.61781 0.30606 0.30605
 C2797 C 0.61418 0.29282 0.30896
 C2798 C 0.60284 0.28712 0.30317
 C2799 C 0.58273 0.28854 0.28833
 N2800 N 0.57999 0.27535 0.28991
 N2801 N 0.56911 0.26998 0.28448
 C2802 C 0.56049 0.27757 0.27728
 N2803 N 0.56324 0.29075 0.27571
 N2804 N 0.57413 0.29611 0.28110
 C2805 C 0.54828 0.27166 0.27137
 C2806 C 0.53866 0.27987 0.26529
 C2807 C 0.52706 0.27438 0.25988
 C2808 C 0.52487 0.26056 0.26033
 C2809 C 0.53443 0.25231 0.26638
 C2810 C 0.54604 0.25780 0.27185
 H2811 H 0.59248 0.31381 0.28481
 H2812 H 0.61223 0.32370 0.29485
 H2813 H 0.62015 0.28677 0.31561
 H2814 H 0.60034 0.27690 0.30564
 H2815 H 0.54002 0.29057 0.26478
 H2816 H 0.51978 0.28092 0.25528
 H2817 H 0.53286 0.24163 0.26695
 H2818 H 0.55323 0.25118 0.27646
 C2819 C 0.59463 0.79498 0.79484
 C2820 C 0.60272 0.78752 0.80353
 C2821 C 0.61405 0.79323 0.80933
 C2822 C 0.61762 0.80651 0.80652
 C2823 C 0.60955 0.81394 0.79779
 C2824 C 0.59818 0.80826 0.79205
 C2825 C 0.58256 0.78896 0.78875
 N2826 N 0.57391 0.79654 0.78157
 N2827 N 0.56303 0.79116 0.77616
 C2828 C 0.56034 0.77796 0.77766
 N2829 N 0.56899 0.77036 0.78481
 N2830 N 0.57986 0.77575 0.79025
 C2831 C 0.54814 0.77203 0.77172
 C2832 C 0.54593 0.75816 0.77212
 C2833 C 0.53434 0.75266 0.76663
 C2834 C 0.52475 0.76092 0.76062
 C2835 C 0.52690 0.77474 0.76025
 C2836 C 0.53849 0.78024 0.76567
 H2837 H 0.60029 0.77727 0.80590
 H2838 H 0.62006 0.78715 0.81592
 H2839 H 0.61191 0.82422 0.79548
 H2840 H 0.59219 0.81431 0.78541
 H2841 H 0.55314 0.75155 0.77671
 H2842 H 0.53279 0.74198 0.76718
 H2843 H 0.51960 0.78129 0.75569
 H2844 H 0.53982 0.79095 0.76521
 C2845 C 0.09455 0.29470 0.79458
 C2846 C 0.09818 0.30793 0.79168
 C2847 C 0.10957 0.31359 0.79738
 C2848 C 0.11757 0.30619 0.80619
 C2849 C 0.11393 0.29296 0.80912
 C2850 C 0.10258 0.28727 0.80335
 C2851 C 0.08246 0.28870 0.78852
 N2852 N 0.07970 0.27552 0.79010
 N2853 N 0.06882 0.27015 0.78467
 C2854 C 0.06022 0.27775 0.77745
 N2855 N 0.06298 0.29092 0.77588
 N2856 N 0.07387 0.29628 0.78128
 C2857 C 0.04802 0.27184 0.77151
 C2858 C 0.03843 0.28007 0.76540
 C2859 C 0.02683 0.27459 0.75998
 C2860 C 0.02462 0.26078 0.76043
 C2861 C 0.03417 0.25251 0.76648
 C2862 C 0.04577 0.25799 0.77197
 H2863 H 0.09224 0.31395 0.78497
 H2864 H 0.11199 0.32383 0.79498
 H2865 H 0.11990 0.28691 0.81578
 H2866 H 0.10008 0.27705 0.80582
 H2867 H 0.03981 0.29077 0.76489
 H2868 H 0.01957 0.28114 0.75536
 H2869 H 0.03259 0.24183 0.76705
 H2870 H 0.05295 0.25136 0.77659
 C2871 C 0.09457 0.79530 0.29446
 C2872 C 0.10254 0.78786 0.30327
 C2873 C 0.11388 0.79352 0.30909
 C2874 C 0.11756 0.80675 0.30619
 C2875 C 0.10961 0.81417 0.29735
 C2876 C 0.09823 0.80853 0.29159
 C2877 C 0.08249 0.78932 0.28834
 N2878 N 0.07399 0.79687 0.28097
 N2879 N 0.06314 0.79151 0.27550
 C2880 C 0.06032 0.77835 0.27713
 N2881 N 0.06883 0.77079 0.28449
 N2882 N 0.07967 0.77616 0.28998
 C2883 C 0.04817 0.77242 0.27112
 C2884 C 0.04583 0.75859 0.27181
 C2885 C 0.03427 0.75307 0.26630
 C2886 C 0.02482 0.76126 0.25996
 C2887 C 0.02712 0.77505 0.25927
 C2888 C 0.03869 0.78057 0.26473
 H2889 H 0.10001 0.77764 0.30572
 H2890 H 0.11980 0.78745 0.31577
 H2891 H 0.11205 0.82441 0.29498
 H2892 H 0.09233 0.81457 0.28486
 H2893 H 0.05291 0.75201 0.27664
 H2894 H 0.03262 0.74242 0.26709
 H2895 H 0.01995 0.78155 0.25445
 H2896 H 0.04013 0.79126 0.26404
 C2897 C 0.59456 0.70537 0.70517
 C2898 C 0.60262 0.71279 0.69644
 C2899 C 0.61393 0.70705 0.69060
 C2900 C 0.61748 0.69377 0.69341
 C2901 C 0.60944 0.68636 0.70217
 C2902 C 0.59809 0.69208 0.70795
 C2903 C 0.58252 0.71143 0.71132
 N2904 N 0.57390 0.70387 0.71854
 N2905 N 0.56305 0.70927 0.72399
 C2906 C 0.56035 0.72248 0.72251
 N2907 N 0.56899 0.73005 0.71532
 N2908 N 0.57983 0.72464 0.70983
 C2909 C 0.54818 0.72842 0.72849
 C2910 C 0.54596 0.74229 0.72807
 C2911 C 0.53437 0.74780 0.73358
 C2912 C 0.52479 0.73956 0.73960
 C2913 C 0.52696 0.72574 0.74001
 C2914 C 0.53855 0.72022 0.73456
 H2915 H 0.60019 0.72305 0.69406
 H2916 H 0.61994 0.71311 0.68400
 H2917 H 0.61180 0.67608 0.70450
 H2918 H 0.59210 0.68605 0.71461
 H2919 H 0.55316 0.74889 0.72345
 H2920 H 0.53282 0.75849 0.73304
 H2921 H 0.51968 0.71920 0.74459
 H2922 H 0.53988 0.70951 0.73502
 C2923 C 0.59464 0.20488 0.20498
 C2924 C 0.60280 0.21235 0.19638
 C2925 C 0.61408 0.20661 0.19051
 C2926 C 0.61753 0.19327 0.19316
 C2927 C 0.60940 0.18580 0.20179
 C2928 C 0.59807 0.19152 0.20760
 C2929 C 0.58262 0.21095 0.21115
 N2930 N 0.57395 0.20339 0.21830
 N2931 N 0.56311 0.20882 0.22376
 C2932 C 0.56047 0.22205 0.22233
 N2933 N 0.56916 0.22962 0.21521
 N2934 N 0.58000 0.22419 0.20973
 C2935 C 0.54830 0.22801 0.22830
 C2936 C 0.54609 0.24188 0.22786
 C2937 C 0.53449 0.24740 0.23335
 C2938 C 0.52491 0.23916 0.23938
 C2939 C 0.52709 0.22534 0.23983
 C2940 C 0.53868 0.21982 0.23440
 H2941 H 0.60046 0.22267 0.19414
 H2942 H 0.62016 0.21271 0.18402
 H2943 H 0.61168 0.17548 0.20399
 H2944 H 0.59202 0.18546 0.21418
 H2945 H 0.55328 0.24848 0.22323
 H2946 H 0.53292 0.25808 0.23278
 H2947 H 0.51981 0.21881 0.24443
 H2948 H 0.54003 0.20911 0.23489
 C2949 C 0.09460 0.70520 0.20508
 C2950 C 0.09836 0.69200 0.20803
 C2951 C 0.10976 0.68638 0.20227
 C2952 C 0.11765 0.69378 0.19336
 C2953 C 0.11388 0.70697 0.19039
 C2954 C 0.10251 0.71262 0.19621
 C2955 C 0.08251 0.71116 0.21122
 N2956 N 0.07961 0.72430 0.20953
 N2957 N 0.06876 0.72966 0.21506
 C2958 C 0.06033 0.72209 0.22249
 N2959 N 0.06322 0.70895 0.22415
 N2960 N 0.07408 0.70360 0.21865
 C2961 C 0.04817 0.72799 0.22854
 C2962 C 0.03876 0.71981 0.23497
 C2963 C 0.02719 0.72530 0.24050
 C2964 C 0.02483 0.73908 0.23981
 C2965 C 0.03419 0.74730 0.23341
 C2966 C 0.04576 0.74181 0.22785
 H2967 H 0.09251 0.68598 0.21482
 H2968 H 0.11229 0.67618 0.20473
 H2969 H 0.11975 0.71303 0.18367
 H2970 H 0.09991 0.72281 0.19371
 H2971 H 0.04025 0.70913 0.23566
 H2972 H 0.02007 0.71878 0.24535
 H2973 H 0.03248 0.75794 0.23260
 H2974 H 0.05279 0.74841 0.22296
 C2975 C 0.09433 0.20499 0.70508
 C2976 C 0.10250 0.21245 0.69648
 C2977 C 0.11378 0.20669 0.69062
 C2978 C 0.11722 0.19335 0.69329
 C2979 C 0.10908 0.18590 0.70192
 C2980 C 0.09775 0.19163 0.70772
 C2981 C 0.08231 0.21108 0.71123
 N2982 N 0.07363 0.20353 0.71838
 N2983 N 0.06278 0.20897 0.72383
 C2984 C 0.06016 0.22220 0.72239
 N2985 N 0.06886 0.22976 0.71527
 N2986 N 0.07969 0.22431 0.70980
 C2987 C 0.04800 0.22818 0.72837
 C2988 C 0.04581 0.24206 0.72793
 C2989 C 0.03422 0.24760 0.73344
 C2990 C 0.02463 0.23938 0.73947
 C2991 C 0.02678 0.22555 0.73990
 C2992 C 0.03836 0.22001 0.73446
 H2993 H 0.10018 0.22276 0.69423
 H2994 H 0.11988 0.21278 0.68413
 H2995 H 0.11136 0.17558 0.70413
 H2996 H 0.09170 0.18558 0.71430
 H2997 H 0.05301 0.24865 0.72331
 H2998 H 0.03268 0.25828 0.73287
 H2999 H 0.01949 0.21904 0.74450
 H3000 H 0.03968 0.20930 0.73495
 C3001 C 0.40568 0.70466 0.29444
 C3002 C 0.40218 0.70757 0.30768
 C3003 C 0.39080 0.70194 0.31342
 C3004 C 0.38267 0.69319 0.30610
 C3005 C 0.38622 0.69018 0.29289
 C3006 C 0.39757 0.69588 0.28711
 C3007 C 0.41774 0.71077 0.28839
 N3008 N 0.42046 0.70931 0.27521
 N3009 N 0.43131 0.71483 0.26986
 C3010 C 0.43992 0.72202 0.27746
 N3011 N 0.43719 0.72348 0.29063
 N3012 N 0.42633 0.71799 0.29597
 C3013 C 0.45209 0.72808 0.27161
 C3014 C 0.46168 0.73415 0.27986
 C3015 C 0.47324 0.73971 0.27442
 C3016 C 0.47542 0.73943 0.26063
 C3017 C 0.46588 0.73341 0.25234
 C3018 C 0.45432 0.72780 0.25778
 H3019 H 0.40821 0.71426 0.31363
 H3020 H 0.38849 0.70434 0.32367
 H3021 H 0.38018 0.68351 0.28695
 H3022 H 0.39999 0.69338 0.27690
 H3023 H 0.46033 0.73452 0.29055
 H3024 H 0.48050 0.74427 0.28098
 H3025 H 0.46746 0.73295 0.24168
 H3026 H 0.44715 0.72321 0.25114
 C3027 C 0.40549 0.20483 0.79459
 C3028 C 0.40180 0.19162 0.79166
 C3029 C 0.39040 0.18598 0.79738
 C3030 C 0.38245 0.19337 0.80625
 C3031 C 0.38613 0.20659 0.80918
 C3032 C 0.39749 0.21226 0.80340
 C3033 C 0.41757 0.21083 0.78848
 N3034 N 0.42039 0.22399 0.79015
 N3035 N 0.43123 0.22937 0.78465
 C3036 C 0.43974 0.22182 0.77728
 N3037 N 0.43692 0.20866 0.77562
 N3038 N 0.42607 0.20329 0.78109
 C3039 C 0.45190 0.22775 0.77126
 C3040 C 0.46137 0.21959 0.76487
 C3041 C 0.47295 0.22510 0.75941
 C3042 C 0.47526 0.23889 0.76011
 C3043 C 0.46583 0.24708 0.76645
 C3044 C 0.45425 0.24158 0.77195
 H3045 H 0.40770 0.18561 0.78489
 H3046 H 0.38792 0.17576 0.79493
 H3047 H 0.38017 0.21265 0.81583
 H3048 H 0.40001 0.22247 0.80586
 H3049 H 0.45992 0.20891 0.76418
 H3050 H 0.48012 0.21859 0.75460
 H3051 H 0.46750 0.25773 0.76725
 H3052 H 0.44717 0.24817 0.77678
 C3053 C 0.90577 0.70491 0.79457
 C3054 C 0.89779 0.69597 0.78730
 C3055 C 0.88651 0.69015 0.79311
 C3056 C 0.88289 0.69322 0.80629
 C3057 C 0.89090 0.70214 0.81355
 C3058 C 0.90221 0.70788 0.80778
 C3059 C 0.91777 0.71109 0.78849
 N3060 N 0.92632 0.71841 0.79601
 N3061 N 0.93716 0.72389 0.79064
 C3062 C 0.93992 0.72233 0.77750
 N3063 N 0.93133 0.71507 0.76994
 N3064 N 0.92049 0.70955 0.77532
 C3065 C 0.95210 0.72834 0.77162
 C3066 C 0.95432 0.72800 0.75778
 C3067 C 0.96588 0.73361 0.75233
 C3068 C 0.97542 0.73965 0.76059
 C3069 C 0.97325 0.73995 0.77438
 C3070 C 0.96170 0.73441 0.77984
 H3071 H 0.90027 0.69340 0.77712
 H3072 H 0.88056 0.68335 0.78721
 H3073 H 0.88855 0.70461 0.82378
 H3074 H 0.90814 0.71469 0.81369
 H3075 H 0.94716 0.72337 0.75117
 H3076 H 0.96746 0.73309 0.74167
 H3077 H 0.98054 0.74451 0.78093
 H3078 H 0.96037 0.73479 0.79053
 C3079 C 0.90554 0.20488 0.29446
 C3080 C 0.90190 0.19164 0.29158
 C3081 C 0.89054 0.18597 0.29736
 C3082 C 0.88258 0.19336 0.30622
 C3083 C 0.88622 0.20660 0.30911
 C3084 C 0.89754 0.21230 0.30328
 C3085 C 0.91761 0.21090 0.28835
 N3086 N 0.92042 0.22406 0.29003
 N3087 N 0.93127 0.22945 0.28456
 C3088 C 0.93980 0.22191 0.27720
 N3089 N 0.93699 0.20875 0.27553
 N3090 N 0.92613 0.20337 0.28097
 C3091 C 0.95197 0.22785 0.27123
 C3092 C 0.96146 0.21970 0.26485
 C3093 C 0.97303 0.22522 0.25938
 C3094 C 0.97533 0.23901 0.26009
 C3095 C 0.96590 0.24720 0.26644
 C3096 C 0.95433 0.24168 0.27195
 H3097 H 0.90781 0.18562 0.28484
 H3098 H 0.88810 0.17574 0.29496
 H3099 H 0.88028 0.21266 0.31577
 H3100 H 0.90006 0.22252 0.30573
 H3101 H 0.96001 0.20902 0.26415
 H3102 H 0.98019 0.21872 0.25455
 H3103 H 0.96757 0.25785 0.26724
 H3104 H 0.94725 0.24826 0.27679
 C3105 C 0.29475 0.29516 0.59423
 C3106 C 0.30353 0.28775 0.60227
 C3107 C 0.30934 0.29349 0.61356
 C3108 C 0.30644 0.30674 0.61714
 C3109 C 0.29763 0.31414 0.60912
 C3110 C 0.29188 0.30843 0.59779
 C3111 C 0.28864 0.28914 0.58218
 N3112 N 0.28130 0.29671 0.57367
 N3113 N 0.27586 0.29135 0.56282
 C3114 C 0.27748 0.27819 0.56002
 N3115 N 0.28481 0.27061 0.56854
 N3116 N 0.29028 0.27597 0.57938
 C3117 C 0.27147 0.27229 0.54788
 C3118 C 0.27211 0.25846 0.54552
 C3119 C 0.26656 0.25299 0.53398
 C3120 C 0.26025 0.26122 0.52457
 C3121 C 0.25962 0.27501 0.52688
 C3122 C 0.26512 0.28049 0.53843
 H3123 H 0.30595 0.27750 0.59983
 H3124 H 0.31599 0.28745 0.61954
 H3125 H 0.29525 0.32440 0.61148
 H3126 H 0.28514 0.31443 0.59185
 H3127 H 0.27693 0.25186 0.55257
 H3128 H 0.26731 0.24233 0.53231
 H3129 H 0.25483 0.28155 0.51974
 H3130 H 0.26447 0.29118 0.53988
 C3131 C 0.29538 0.79570 0.09400
 C3132 C 0.30421 0.78833 0.10204
 C3133 C 0.31009 0.79413 0.11325
 C3134 C 0.30723 0.80741 0.11676
 C3135 C 0.29838 0.81476 0.10875
 C3136 C 0.29255 0.80898 0.09750
 C3137 C 0.28922 0.78962 0.08202
 N3138 N 0.28184 0.79714 0.07351
 N3139 N 0.27636 0.79175 0.06271
 C3140 C 0.27798 0.77857 0.05994
 N3141 N 0.28534 0.77103 0.06846
 N3142 N 0.29085 0.77644 0.07926
 C3143 C 0.27195 0.77264 0.04783
 C3144 C 0.27258 0.75880 0.04551
 C3145 C 0.26703 0.75329 0.03398
 C3146 C 0.26073 0.76150 0.02454
 C3147 C 0.26010 0.77529 0.02682
 C3148 C 0.26560 0.78080 0.03835
 H3149 H 0.30661 0.77806 0.09965
 H3150 H 0.31678 0.78812 0.11922
 H3151 H 0.29601 0.82504 0.11106
 H3152 H 0.28578 0.81496 0.09156
 H3153 H 0.27740 0.75221 0.05258
 H3154 H 0.26779 0.74263 0.03234
 H3155 H 0.25531 0.78181 0.01966
 H3156 H 0.26495 0.79150 0.03978
 C3157 C 0.79486 0.29520 0.09406
 C3158 C 0.80365 0.28779 0.10209
 C3159 C 0.80945 0.29352 0.11339
 C3160 C 0.80655 0.30677 0.11697
 C3161 C 0.79773 0.31416 0.10896
 C3162 C 0.79199 0.30846 0.09763
 C3163 C 0.78875 0.28920 0.08202
 N3164 N 0.78140 0.29677 0.07352
 N3165 N 0.77595 0.29142 0.06267
 C3166 C 0.77758 0.27827 0.05985
 N3167 N 0.78491 0.27068 0.06835
 N3168 N 0.79039 0.27603 0.07920
 C3169 C 0.77156 0.27238 0.04771
 C3170 C 0.77221 0.25855 0.04533
 C3171 C 0.76664 0.25309 0.03379
 C3172 C 0.76029 0.26132 0.02441
 C3173 C 0.75966 0.27511 0.02674
 C3174 C 0.76518 0.28058 0.03828
 H3175 H 0.80609 0.27755 0.09964
 H3176 H 0.81609 0.28747 0.11937
 H3177 H 0.79533 0.32442 0.11133
 H3178 H 0.78526 0.31448 0.09169
 H3179 H 0.77706 0.25195 0.05236
 H3180 H 0.76741 0.24244 0.03210
 H3181 H 0.75485 0.28165 0.01961
 H3182 H 0.76452 0.29127 0.03975
 C3183 C 0.79505 0.79526 0.59421
 C3184 C 0.80407 0.78794 0.60208
 C3185 C 0.80987 0.79366 0.61338
 C3186 C 0.80673 0.80681 0.61715
 C3187 C 0.79769 0.81411 0.60929
 C3188 C 0.79195 0.80842 0.59796
 C3189 C 0.78893 0.78926 0.58217
 N3190 N 0.78143 0.79680 0.57378
 N3191 N 0.77596 0.79146 0.56294
 C3192 C 0.77772 0.77834 0.56003
 N3193 N 0.78519 0.77078 0.56843
 N3194 N 0.79070 0.77613 0.57927
 C3195 C 0.77168 0.77246 0.54789
 C3196 C 0.77236 0.75864 0.54551
 C3197 C 0.76679 0.75317 0.53397
 C3198 C 0.76043 0.76141 0.52461
 C3199 C 0.75976 0.77520 0.52695
 C3200 C 0.76528 0.78066 0.53849
 H3201 H 0.80669 0.77778 0.59948
 H3202 H 0.81671 0.78769 0.61923
 H3203 H 0.79512 0.82429 0.61179
 H3204 H 0.78505 0.81435 0.59214
 H3205 H 0.77722 0.75203 0.55253
 H3206 H 0.76756 0.74253 0.53228
 H3207 H 0.75493 0.78173 0.51983
 H3208 H 0.76461 0.79135 0.53997
 C3209 C 0.29489 0.70494 0.40554
 C3210 C 0.29181 0.69178 0.40181
 C3211 C 0.29757 0.68609 0.39048
 C3212 C 0.30661 0.69338 0.38263
 C3213 C 0.30973 0.70653 0.38639
 C3214 C 0.30391 0.71226 0.39768
 C3215 C 0.28874 0.71097 0.41757
 N3216 N 0.29051 0.72410 0.42045
 N3217 N 0.28500 0.72947 0.43128
 C3218 C 0.27752 0.72194 0.43970
 N3219 N 0.27576 0.70881 0.43681
 N3220 N 0.28124 0.70345 0.42597
 C3221 C 0.27151 0.72784 0.45184
 C3222 C 0.26513 0.71967 0.46128
 C3223 C 0.25967 0.72517 0.47284
 C3224 C 0.26037 0.73895 0.47516
 C3225 C 0.26670 0.74716 0.46576
 C3226 C 0.27221 0.74167 0.45420
 H3227 H 0.28490 0.68585 0.40762
 H3228 H 0.29502 0.67590 0.38798
 H3229 H 0.31657 0.71249 0.38054
 H3230 H 0.30652 0.72241 0.40027
 H3231 H 0.26443 0.70899 0.45981
 H3232 H 0.25486 0.71866 0.47999
 H3233 H 0.26750 0.75781 0.46744
 H3234 H 0.27705 0.74825 0.44715
 C3235 C 0.29451 0.20504 0.90551
 C3236 C 0.30340 0.21241 0.89756
 C3237 C 0.30922 0.20668 0.88626
 C3238 C 0.30621 0.19349 0.88258
 C3239 C 0.29729 0.18614 0.89051
 C3240 C 0.29153 0.19183 0.90184
 C3241 C 0.28843 0.21103 0.91758
 N3242 N 0.28104 0.20347 0.92604
 N3243 N 0.27562 0.20880 0.93692
 C3244 C 0.27732 0.22193 0.93980
 N3245 N 0.28469 0.22951 0.93133
 N3246 N 0.29014 0.22417 0.92046
 C3247 C 0.27133 0.22781 0.95197
 C3248 C 0.27200 0.24163 0.95436
 C3249 C 0.26646 0.24709 0.96592
 C3250 C 0.26013 0.23886 0.97530
 C3251 C 0.25949 0.22507 0.97297
 C3252 C 0.26497 0.21960 0.96140
 H3253 H 0.30591 0.22261 0.90008
 H3254 H 0.31596 0.21268 0.88035
 H3255 H 0.29482 0.17592 0.88808
 H3256 H 0.28471 0.18587 0.90772
 H3257 H 0.27683 0.24823 0.94732
 H3258 H 0.26723 0.25774 0.96761
 H3259 H 0.25469 0.21854 0.98011
 H3260 H 0.26431 0.20892 0.95993
 C3261 C 0.79510 0.70498 0.90573
 C3262 C 0.80408 0.71232 0.89786
 C3263 C 0.80985 0.70663 0.88650
 C3264 C 0.80672 0.69349 0.88272
 C3265 C 0.79770 0.68618 0.89058
 C3266 C 0.79200 0.69184 0.90196
 C3267 C 0.78898 0.71097 0.91779
 N3268 N 0.78148 0.70343 0.92618
 N3269 N 0.77599 0.70877 0.93702
 C3270 C 0.77772 0.72189 0.93993
 N3271 N 0.78520 0.72944 0.93153
 N3272 N 0.79073 0.72409 0.92070
 C3273 C 0.77168 0.72779 0.95206
 C3274 C 0.77236 0.74161 0.95444
 C3275 C 0.76682 0.74709 0.96599
 C3276 C 0.76047 0.73888 0.97538
 C3277 C 0.75979 0.72509 0.97304
 C3278 C 0.76528 0.71960 0.96149
 H3279 H 0.80672 0.72247 0.90047
 H3280 H 0.81664 0.71262 0.88064
 H3281 H 0.79510 0.67601 0.88806
 H3282 H 0.78513 0.68588 0.90779
 H3283 H 0.77722 0.74820 0.94741
 H3284 H 0.76761 0.75774 0.96767
 H3285 H 0.75497 0.71857 0.98018
 H3286 H 0.76460 0.70892 0.96001
 C3287 C 0.79469 0.20498 0.40550
 C3288 C 0.80357 0.21236 0.39755
 C3289 C 0.80934 0.20667 0.38621
 C3290 C 0.80632 0.19348 0.38252
 C3291 C 0.79742 0.18612 0.39045
 C3292 C 0.79171 0.19178 0.40182
 C3293 C 0.78859 0.21096 0.41757
 N3294 N 0.78118 0.20339 0.42601
 N3295 N 0.77573 0.20872 0.43688
 C3296 C 0.77741 0.22185 0.43976
 N3297 N 0.78480 0.22944 0.43130
 N3298 N 0.79028 0.22410 0.42044
 C3299 C 0.77140 0.22773 0.45191
 C3300 C 0.77206 0.24155 0.45430
 C3301 C 0.76651 0.24701 0.46586
 C3302 C 0.76018 0.23878 0.47524
 C3303 C 0.75953 0.22499 0.47290
 C3304 C 0.76503 0.21952 0.46134
 H3305 H 0.80610 0.22255 0.40009
 H3306 H 0.81606 0.21269 0.38029
 H3307 H 0.79493 0.17591 0.38800
 H3308 H 0.78491 0.18579 0.40771
 H3309 H 0.77689 0.24816 0.44726
 H3310 H 0.76729 0.25766 0.46755
 H3311 H 0.75474 0.21845 0.48003
 H3312 H 0.76438 0.20884 0.45986
 C3313 C 0.70536 0.29491 0.40562
 C3314 C 0.70821 0.30817 0.40205
 C3315 C 0.70247 0.31386 0.39070
 C3316 C 0.69368 0.30647 0.38267
 C3317 C 0.69079 0.29322 0.38627
 C3318 C 0.69659 0.28750 0.39759
 C3319 C 0.71148 0.28888 0.41766
 N3320 N 0.70986 0.27571 0.42046
 N3321 N 0.71535 0.27034 0.43129
 C3322 C 0.72267 0.27790 0.43981
 N3323 N 0.72428 0.29107 0.43701
 N3324 N 0.71883 0.29643 0.42617
 C3325 C 0.72868 0.27199 0.45195
 C3326 C 0.73502 0.28016 0.46141
 C3327 C 0.74050 0.27466 0.47296
 C3328 C 0.73986 0.26086 0.47526
 C3329 C 0.73355 0.25265 0.46585
 C3330 C 0.72802 0.25815 0.45430
 H3331 H 0.71491 0.31419 0.40801
 H3332 H 0.70484 0.32412 0.38833
 H3333 H 0.68416 0.28717 0.38029
 H3334 H 0.69416 0.27726 0.40004
 H3335 H 0.73568 0.29085 0.45997
 H3336 H 0.74528 0.28117 0.48013
 H3337 H 0.73278 0.24200 0.46751
 H3338 H 0.72320 0.25156 0.44724
 C3339 C 0.70558 0.79480 0.90573
 C3340 C 0.69670 0.78741 0.89779
 C3341 C 0.69090 0.79312 0.88646
 C3342 C 0.69391 0.80631 0.88276
 C3343 C 0.70281 0.81367 0.89070
 C3344 C 0.70854 0.80800 0.90205
 C3345 C 0.71170 0.78880 0.91778
 N3346 N 0.71910 0.79637 0.92622
 N3347 N 0.72456 0.79103 0.93708
 C3348 C 0.72288 0.77789 0.93995
 N3349 N 0.71550 0.77031 0.93150
 N3350 N 0.71002 0.77566 0.92065
 C3351 C 0.72890 0.77201 0.95210
 C3352 C 0.72824 0.75819 0.95448
 C3353 C 0.73380 0.75272 0.96602
 C3354 C 0.74015 0.76095 0.97539
 C3355 C 0.74078 0.77474 0.97307
 C3356 C 0.73527 0.78021 0.96152
 H3357 H 0.69417 0.77722 0.90033
 H3358 H 0.68417 0.78711 0.88056
 H3359 H 0.70527 0.82390 0.88826
 H3360 H 0.71533 0.81399 0.90794
 H3361 H 0.72340 0.75158 0.94745
 H3362 H 0.73304 0.74207 0.96771
 H3363 H 0.74558 0.78127 0.98020
 H3364 H 0.73591 0.79090 0.96006
 C3365 C 0.20516 0.29499 0.90575
 C3366 C 0.19637 0.28759 0.89772
 C3367 C 0.19057 0.29331 0.88641
 C3368 C 0.19346 0.30656 0.88281
 C3369 C 0.20226 0.31395 0.89083
 C3370 C 0.20801 0.30825 0.90217
 C3371 C 0.21129 0.28896 0.91778
 N3372 N 0.21865 0.29651 0.92628
 N3373 N 0.22412 0.29114 0.93712
 C3374 C 0.22251 0.27798 0.93992
 N3375 N 0.21517 0.27041 0.93141
 N3376 N 0.20967 0.27579 0.92058
 C3377 C 0.22855 0.27206 0.95205
 C3378 C 0.22791 0.25823 0.95440
 C3379 C 0.23347 0.25273 0.96594
 C3380 C 0.23981 0.26095 0.97533
 C3381 C 0.24044 0.27474 0.97302
 C3382 C 0.23492 0.28024 0.96149
 H3383 H 0.19393 0.27735 0.90018
 H3384 H 0.18392 0.28728 0.88043
 H3385 H 0.20463 0.32421 0.88846
 H3386 H 0.21471 0.31426 0.90812
 H3387 H 0.22306 0.25163 0.94737
 H3388 H 0.23271 0.24208 0.96761
 H3389 H 0.24524 0.28126 0.98017
 H3390 H 0.23556 0.29093 0.96004
 C3391 C 0.20543 0.79484 0.40552
 C3392 C 0.19655 0.78746 0.39758
 C3393 C 0.19072 0.79317 0.38627
 C3394 C 0.19370 0.80638 0.38260
 C3395 C 0.20260 0.81374 0.39054
 C3396 C 0.20836 0.80806 0.40187
 C3397 C 0.21158 0.78885 0.41756
 N3398 N 0.21898 0.79641 0.42600
 N3399 N 0.22445 0.79108 0.43686
 C3400 C 0.22278 0.77794 0.43973
 N3401 N 0.21541 0.77036 0.43127
 N3402 N 0.20991 0.77570 0.42043
 C3403 C 0.22880 0.77207 0.45188
 C3404 C 0.22815 0.75825 0.45428
 C3405 C 0.23371 0.75279 0.46582
 C3406 C 0.24006 0.76103 0.47518
 C3407 C 0.24069 0.77482 0.47285
 C3408 C 0.23517 0.78028 0.46130
 H3409 H 0.19403 0.77726 0.40012
 H3410 H 0.18399 0.78716 0.38036
 H3411 H 0.20504 0.82397 0.38812
 H3412 H 0.21514 0.81406 0.40776
 H3413 H 0.22330 0.75164 0.44726
 H3414 H 0.23295 0.74214 0.46752
 H3415 H 0.24549 0.78136 0.47997
 H3416 H 0.23581 0.79097 0.45983
 C3417 C 0.70567 0.70553 0.59435
 C3418 C 0.70865 0.69232 0.59802
 C3419 C 0.70294 0.68664 0.60938
 C3420 C 0.69403 0.69401 0.61733
 C3421 C 0.69103 0.70722 0.61366
 C3422 C 0.69681 0.71292 0.60233
 C3423 C 0.71176 0.71152 0.58228
 N3424 N 0.71007 0.72467 0.57942
 N3425 N 0.71553 0.73001 0.56856
 C3426 C 0.72289 0.72242 0.56007
 N3427 N 0.72458 0.70928 0.56293
 N3428 N 0.71914 0.70395 0.57380
 C3429 C 0.72889 0.72830 0.54792
 C3430 C 0.73525 0.72010 0.53847
 C3431 C 0.74074 0.72558 0.52692
 C3432 C 0.74011 0.73938 0.52462
 C3433 C 0.73378 0.74761 0.53401
 C3434 C 0.72823 0.74213 0.54555
 H3435 H 0.71545 0.68633 0.59213
 H3436 H 0.70541 0.67642 0.61182
 H3437 H 0.68432 0.71324 0.61959
 H3438 H 0.69429 0.72312 0.59980
 H3439 H 0.73589 0.70942 0.53992
 H3440 H 0.74553 0.71905 0.51977
 H3441 H 0.73301 0.75826 0.53233
 H3442 H 0.72340 0.74874 0.55260
 C3443 C 0.70577 0.20532 0.09419
 C3444 C 0.70878 0.19212 0.09784
 C3445 C 0.70309 0.18643 0.10921
 C3446 C 0.69419 0.19378 0.11718
 C3447 C 0.69116 0.20699 0.11352
 C3448 C 0.69691 0.21270 0.10218
 C3449 C 0.71182 0.21132 0.08211
 N3450 N 0.71009 0.22447 0.07926
 N3451 N 0.71552 0.22982 0.06839
 C3452 C 0.72288 0.22226 0.05989
 N3453 N 0.72460 0.20912 0.06274
 N3454 N 0.71920 0.20377 0.07362
 C3455 C 0.72884 0.22815 0.04772
 C3456 C 0.73519 0.21996 0.03826
 C3457 C 0.74065 0.22545 0.02670
 C3458 C 0.73999 0.23925 0.02440
 C3459 C 0.73365 0.24746 0.03380
 C3460 C 0.72814 0.24198 0.04536
 H3461 H 0.71555 0.18613 0.09192
 H3462 H 0.70557 0.17621 0.11164
 H3463 H 0.68444 0.21299 0.11946
 H3464 H 0.69436 0.22290 0.09966
 H3465 H 0.73586 0.20928 0.03971
 H3466 H 0.74543 0.21893 0.01954
 H3467 H 0.73286 0.25811 0.03212
 H3468 H 0.72331 0.24857 0.05241
 C3469 C 0.20567 0.70554 0.09412
 C3470 C 0.20862 0.69232 0.09776
 C3471 C 0.20286 0.68662 0.10909
 C3472 C 0.19395 0.69397 0.11703
 C3473 C 0.19095 0.70718 0.11338
 C3474 C 0.19677 0.71291 0.10208
 C3475 C 0.21180 0.71155 0.08209
 N3476 N 0.21014 0.72471 0.07924
 N3477 N 0.21564 0.73006 0.06841
 C3478 C 0.22303 0.72249 0.05994
 N3479 N 0.22469 0.70934 0.06279
 N3480 N 0.21921 0.70399 0.07363
 C3481 C 0.22909 0.72837 0.04781
 C3482 C 0.23545 0.72017 0.03838
 C3483 C 0.24098 0.72564 0.02684
 C3484 C 0.24039 0.73943 0.02454
 C3485 C 0.23405 0.74767 0.03392
 C3486 C 0.22847 0.74220 0.04545
 H3487 H 0.21543 0.68634 0.09187
 H3488 H 0.20532 0.67638 0.11150
 H3489 H 0.18422 0.71319 0.11930
 H3490 H 0.19426 0.72312 0.09957
 H3491 H 0.23608 0.70948 0.03983
 H3492 H 0.24577 0.71909 0.01970
 H3493 H 0.23330 0.75832 0.03224
 H3494 H 0.22364 0.74881 0.05249
 C3495 C 0.20547 0.20534 0.59431
 C3496 C 0.19661 0.21272 0.60229
 C3497 C 0.19086 0.20702 0.61363
 C3498 C 0.19389 0.19382 0.61731
 C3499 C 0.20278 0.18646 0.60935
 C3500 C 0.20847 0.19213 0.59797
 C3501 C 0.21154 0.21133 0.58223
 N3502 N 0.21892 0.20376 0.57375
 N3503 N 0.22435 0.20909 0.56288
 C3504 C 0.22265 0.22224 0.56001
 N3505 N 0.21529 0.22982 0.56850
 N3506 N 0.20984 0.22447 0.57937
 C3507 C 0.22865 0.22812 0.54785
 C3508 C 0.22799 0.24194 0.54548
 C3509 C 0.23356 0.24742 0.53394
 C3510 C 0.23990 0.23919 0.52455
 C3511 C 0.24052 0.22539 0.52686
 C3512 C 0.23501 0.21992 0.53841
 H3513 H 0.19406 0.22292 0.59976
 H3514 H 0.18414 0.21303 0.61957
 H3515 H 0.20526 0.17623 0.61178
 H3516 H 0.21525 0.18614 0.59206
 H3517 H 0.22316 0.24855 0.55252
 H3518 H 0.23279 0.25807 0.53226
 H3519 H 0.24532 0.21886 0.51972
 H3520 H 0.23565 0.20923 0.53987
   
