data_POSCAR
  _audit_creation_date              2014-09-24
  _audit_creation_method            'ToBaCCo'
  _symmetry_space_group_name_H-M    'P1'
  _symmetry_Int_Tables_number       1
  _symmetry_cell_setting            triclinic
  loop_
  _symmetry_equiv_pos_as_xyz
 x,y,z
_cell_length_a 53.2022
_cell_length_b 50.4706
_cell_length_c 53.3950
_cell_angle_alpha 89.793800
_cell_angle_beta 89.862600
_cell_angle_gamma 90.445500
loop_
  _atom_site_label
  _atom_site_type_symbol
  _atom_site_fract_x
  _atom_site_fract_y
  _atom_site_fract_z
C1 C 0.27959 0.37077 0.00327
 C2 C 0.29071 0.36247 0.02558
 C3 C 0.31402 0.34994 0.02477
 C4 C 0.32749 0.34749 0.00204
 C5 C 0.31628 0.35739 -0.02016
 C6 C 0.29179 0.36802 -0.01997
 C7 C 0.35308 0.33484 0.00170
 C8 C 0.36322 0.32393 -0.02049
 C9 C 0.38756 0.31297 -0.02100
 C10 C 0.40089 0.31105 0.00167
 C11 C 0.39056 0.31994 0.02419
 C12 C 0.36745 0.33297 0.02385
 H13 H 0.26203 0.38141 0.00441
 H14 H 0.32124 0.34224 0.04218
 H15 H 0.32620 0.35624 -0.03773
 H16 H 0.35255 0.32451 -0.03762
 H17 H 0.41847 0.30040 0.00230
 H18 H 0.36094 0.34128 0.04127
 C19 C 0.70591 0.60843 -0.00366
 C20 C 0.69488 0.61219 0.01978
 C21 C 0.67313 0.62750 0.02168
 C22 C 0.66368 0.64157 0.00072
 C23 C 0.67558 0.63757 -0.02279
 C24 C 0.69636 0.62079 -0.02500
 C25 C 0.64317 0.66184 0.00393
 C26 C 0.63023 0.67255 -0.01696
 C27 C 0.61396 0.69440 -0.01438
 C28 C 0.60862 0.70342 0.00995
 C29 C 0.62009 0.69237 0.03088
 C30 C 0.63763 0.67225 0.02790
 H31 H 0.72229 0.59588 -0.00525
 H32 H 0.66452 0.62898 0.03991
 H33 H 0.66983 0.64810 -0.03940
 H34 H 0.63385 0.66505 -0.03545
 H35 H 0.59485 0.71879 0.01300
 H36 H 0.64734 0.66584 0.04453
 C37 C 0.72169 0.37273 0.99908
 C38 C 0.70919 0.36659 0.97683
 C39 C 0.68858 0.34914 0.97741
 C40 C 0.68161 0.33577 0.99979
 C41 C 0.69493 0.34218 1.02198
 C42 C 0.71451 0.36099 1.02179
 C43 C 0.66178 0.31421 0.99967
 C44 C 0.65007 0.30553 1.02217
 C45 C 0.63417 0.28304 1.02267
 C46 C 0.62792 0.27101 0.99978
 C47 C 0.63782 0.28015 0.97706
 C48 C 0.65522 0.30112 0.97716
 H49 H 0.73705 0.38697 0.99868
 H50 H 0.67873 0.34567 0.96006
 H51 H 0.69104 0.33213 1.03945
 H52 H 0.65419 0.31538 1.03957
 H53 H 0.61396 0.25528 0.99936
 H54 H 0.66384 0.30644 0.95951
 C55 C 0.28170 0.62715 1.00008
 C56 C 0.29285 0.63213 0.97683
 C57 C 0.31434 0.64819 0.97547
 C58 C 0.32363 0.66130 0.99695
 C59 C 0.31188 0.65601 1.02030
 C60 C 0.29119 0.63868 1.02189
 C61 C 0.34442 0.68142 0.99462
 C62 C 0.35953 0.68830 1.01541
 C63 C 0.37825 0.70828 1.01368
 C64 C 0.38200 0.72063 0.99022
 C65 C 0.36796 0.71342 0.96928
 C66 C 0.34900 0.69438 0.97156
 H67 H 0.26554 0.61396 1.00120
 H68 H 0.32313 0.65083 0.95737
 H69 H 0.31796 0.66587 1.03719
 H70 H 0.35747 0.67727 1.03265
 H71 H 0.39545 0.73663 0.98791
 H72 H 0.33763 0.69046 0.95523
 C73 C -0.00363 0.27776 0.37710
 C74 C 0.01972 0.28945 0.37176
 C75 C 0.02090 0.31128 0.35550
 C76 C -0.00083 0.32052 0.34318
 C77 C -0.02415 0.30822 0.34882
 C78 C -0.02565 0.28723 0.36605
 C79 C 0.00102 0.34234 0.32412
 C80 C -0.01993 0.35845 0.31861
 C81 C -0.01851 0.37862 0.30028
 C82 C 0.00460 0.38275 0.28795
 C83 C 0.02553 0.36726 0.29320
 C84 C 0.02372 0.34699 0.31097
 H85 H -0.00475 0.26156 0.39046
 H86 H 0.03897 0.32061 0.35229
 H87 H -0.04121 0.31428 0.33953
 H88 H -0.03706 0.35615 0.32931
 H89 H 0.00641 0.39737 0.27315
 H90 H 0.03995 0.33458 0.31376
 C91 C 0.00261 0.71563 0.61691
 C92 C 0.02457 0.70228 0.62338
 C93 C 0.02335 0.68121 0.64048
 C94 C 0.00066 0.67487 0.65318
 C95 C -0.02132 0.68882 0.64621
 C96 C -0.02045 0.70880 0.62784
 C97 C 0.00045 0.65568 0.67492
 C98 C -0.02232 0.64443 0.68407
 C99 C -0.02306 0.63026 0.70689
 C100 C -0.00022 0.62485 0.71897
 C101 C 0.02271 0.63399 0.70946
 C102 C 0.02294 0.64990 0.68797
 H103 H 0.00354 0.73149 0.60317
 H104 H 0.04052 0.67071 0.64432
 H105 H -0.03906 0.68536 0.65556
 H106 H -0.03975 0.64785 0.67433
 H107 H -0.00002 0.61213 0.73537
 H108 H 0.04081 0.65824 0.68229
 C109 C 1.00217 0.70112 0.38973
 C110 C 0.98024 0.69974 0.37555
 C111 C 0.97954 0.68403 0.35411
 C112 C 1.00073 0.66932 0.34661
 C113 C 1.02303 0.67149 0.36103
 C114 C 1.02403 0.68752 0.38266
 C115 C 0.99957 0.65269 0.32334
 C116 C 1.02154 0.64710 0.30944
 C117 C 1.02040 0.63313 0.28663
 C118 C 0.99661 0.62555 0.27751
 C119 C 0.97461 0.63043 0.29104
 C120 C 0.97625 0.64316 0.31424
 H121 H 1.00235 0.71435 0.40566
 H122 H 0.96262 0.68431 0.34295
 H123 H 1.03935 0.65997 0.35616
 H124 H 1.03950 0.65483 0.31551
 H125 H 0.99501 0.61407 0.26048
 H126 H 0.95911 0.64587 0.32482
 C127 C 1.00570 0.29571 0.60985
 C128 C 0.98198 0.30149 0.61957
 C129 C 0.97994 0.31943 0.63944
 C130 C 1.00140 0.33247 0.64929
 C131 C 1.02505 0.32699 0.63818
 C132 C 1.02724 0.30785 0.61940
 C133 C 0.99932 0.34969 0.67224
 C134 C 1.02068 0.35498 0.68724
 C135 C 1.01892 0.36932 0.70972
 C136 C 0.99503 0.37736 0.71777
 C137 C 0.97352 0.37237 0.70352
 C138 C 0.97583 0.35959 0.68038
 H139 H 1.00756 0.28122 0.59502
 H140 H 0.96158 0.32188 0.64770
 H141 H 1.04213 0.33655 0.64440
 H142 H 1.03867 0.34669 0.68252
 H143 H 0.99300 0.38904 0.73462
 H144 H 0.95903 0.35705 0.66934
 C145 C 0.37643 0.00808 0.27971
 C146 C 0.36543 0.03036 0.29034
 C147 C 0.34848 0.02734 0.31018
 C148 C 0.34305 0.00205 0.32055
 C149 C 0.35560 -0.02011 0.31016
 C150 C 0.37147 -0.01758 0.28897
 C151 C 0.32352 -0.00124 0.34106
 C152 C 0.31262 -0.02637 0.34666
 C153 C 0.29331 -0.02899 0.36444
 C154 C 0.28411 -0.00648 0.37633
 C155 C 0.29406 0.01863 0.37111
 C156 C 0.31436 0.02101 0.35441
 H157 H 0.38997 0.01121 0.26479
 H158 H 0.33933 0.04504 0.31662
 H159 H 0.35223 -0.03960 0.31768
 H160 H 0.31806 -0.04409 0.33691
 H161 H 0.26904 -0.00857 0.38993
 H162 H 0.32223 0.04054 0.35167
 C163 C 0.63154 -0.00421 0.72470
 C164 C 0.63075 0.01921 0.71063
 C165 C 0.64503 0.02116 0.68863
 C166 C 0.65965 -0.00036 0.68035
 C167 C 0.65821 -0.02458 0.69367
 C168 C 0.64423 -0.02668 0.71598
 C169 C 0.67690 0.00282 0.65840
 C170 C 0.68323 -0.01904 0.64321
 C171 C 0.70086 -0.01630 0.62374
 C172 C 0.71191 0.00855 0.61926
 C173 C 0.70548 0.03053 0.63365
 C174 C 0.68814 0.02769 0.65319
 H175 H 0.62045 -0.00545 0.74171
 H176 H 0.64421 0.03924 0.67772
 H177 H 0.66901 -0.04148 0.68763
 H178 H 0.67438 -0.03816 0.64623
 H179 H 0.72589 0.01089 0.60459
 H180 H 0.68427 0.04475 0.66476
 C181 C 0.39235 1.00462 0.70027
 C182 C 0.38762 0.98014 0.68904
 C183 C 0.37171 0.97875 0.66816
 C184 C 0.35864 1.00145 0.65963
 C185 C 0.36373 1.02595 0.67173
 C186 C 0.38072 1.02755 0.69168
 C187 C 0.33803 0.99924 0.64027
 C188 C 0.32819 1.02223 0.62860
 C189 C 0.30545 1.02126 0.61518
 C190 C 0.29449 0.99641 0.61049
 C191 C 0.30496 0.97307 0.61968
 C192 C 0.32631 0.97452 0.63496
 H193 H 0.40487 1.00573 0.71625
 H194 H 0.36897 0.95961 0.65960
 H195 H 0.35377 1.04380 0.66697
 H196 H 0.33705 1.04128 0.63127
 H197 H 0.27803 0.99502 0.59861
 H198 H 0.33274 0.95628 0.64325
 C199 C 0.60183 0.99037 0.30185
 C200 C 0.61242 0.96851 0.31361
 C201 C 0.63074 0.97204 0.33180
 C202 C 0.64022 0.99753 0.33723
 C203 C 0.62910 1.01968 0.32526
 C204 C 0.60902 1.01649 0.30805
 C205 C 0.66190 1.00053 0.35496
 C206 C 0.66584 1.02414 0.36864
 C207 C 0.68591 1.02626 0.38555
 C208 C 0.70192 1.00473 0.38912
 C209 C 0.69839 0.98117 0.37597
 C210 C 0.67882 0.97933 0.35860
 H211 H 0.58869 0.98646 0.28684
 H212 H 0.63779 0.95459 0.34115
 H213 H 0.63584 1.03928 0.32972
 H214 H 0.65315 1.04066 0.36693
 H215 H 0.71715 1.00625 0.40252
 H216 H 0.67727 0.96130 0.34785
 O217 O 0.81722 0.86053 0.51956
 O218 O 0.85786 0.82416 0.47653
 O219 O 0.82263 0.85844 0.47221
 O220 O 0.85459 0.82716 0.52508
 O221 O 0.82829 0.79322 0.52384
 O222 O 0.79394 0.82662 0.47236
 O223 O 0.83007 0.79155 0.47500
 O224 O 0.79047 0.82681 0.52084
 Cu225 Cu 0.84096 0.84570 0.49867
 Cu226 Cu 0.80798 0.80613 0.49806
 C227 C 0.79664 0.85026 0.52691
 C228 C 0.85082 0.80184 0.46804
 C229 C 0.80247 0.84844 0.46365
 C230 C 0.84755 0.80459 0.53310
 O231 O 0.15233 0.18695 0.47764
 O232 O 0.18891 0.15492 0.52631
 O233 O 0.15507 0.19125 0.52579
 O234 O 0.18695 0.15171 0.47824
 O235 O 0.21670 0.18223 0.47465
 O236 O 0.18386 0.22279 0.52212
 O237 O 0.21875 0.18535 0.52321
 O238 O 0.18108 0.21848 0.47366
 Cu239 Cu 0.16792 0.16819 0.50241
 Cu240 Cu 0.20309 0.20541 0.49809
 C241 C 0.16014 0.20813 0.46735
 C242 C 0.21013 0.16406 0.53290
 C243 C 0.16366 0.21386 0.53185
 C244 C 0.20736 0.15993 0.46848
 O245 O 0.18928 0.83634 0.46904
 O246 O 0.15957 0.80503 0.52332
 O247 O 0.19364 0.84035 0.51784
 O248 O 0.15594 0.79820 0.47657
 O249 O 0.18648 0.76885 0.47456
 O250 O 0.22324 0.81000 0.51908
 O251 O 0.18778 0.77312 0.52275
 O252 O 0.22029 0.80761 0.47007
 Cu253 Cu 0.17191 0.82324 0.49623
 Cu254 Cu 0.20764 0.78699 0.49654
 C255 C 0.21004 0.82800 0.46058
 C256 C 0.16790 0.78332 0.53179
 C257 C 0.21452 0.83214 0.52616
 C258 C 0.16425 0.77598 0.46937
 O259 O 0.80088 0.15300 0.48044
 O260 O 0.84790 0.18781 0.51804
 O261 O 0.81093 0.15667 0.52701
 O262 O 0.84020 0.18309 0.47025
 O263 O 0.81713 0.21910 0.47262
 O264 O 0.78437 0.19009 0.52786
 O265 O 0.82276 0.22222 0.52104
 O266 O 0.77692 0.18859 0.47980
 Cu267 Cu 0.82751 0.16675 0.49841
 Cu268 Cu 0.79782 0.20861 0.50032
 C269 C 0.78069 0.16451 0.47427
 C270 C 0.84320 0.21071 0.52653
 C271 C 0.79240 0.16836 0.53689
 C272 C 0.83456 0.20595 0.46221
 O273 O 0.48426 0.85287 0.80860
 O274 O 0.52377 0.81566 0.85160
 O275 O 0.53235 0.84931 0.81621
 O276 O 0.47629 0.81967 0.84421
 O277 O 0.47794 0.78640 0.81757
 O278 O 0.53468 0.81707 0.78852
 O279 O 0.52618 0.78258 0.82486
 O280 O 0.48608 0.82064 0.78081
 Cu281 Cu 0.50405 0.83769 0.83272
 Cu282 Cu 0.50642 0.79838 0.80007
 C283 C 0.47813 0.84323 0.78756
 C284 C 0.53156 0.79275 0.84597
 C285 C 0.54322 0.83852 0.79775
 C286 C 0.46764 0.79787 0.83610
 O287 O 0.46662 0.16432 0.18709
 O288 O 0.52384 0.18661 0.15560
 O289 O 0.51329 0.15235 0.19093
 O290 O 0.47733 0.20026 0.15387
 O291 O 0.48179 0.22990 0.18396
 O292 O 0.52202 0.18323 0.21887
 O293 O 0.52912 0.21867 0.18312
 O294 O 0.47371 0.19216 0.21810
 Cu295 Cu 0.49474 0.17291 0.16898
 Cu296 Cu 0.50218 0.20904 0.20405
 C297 C 0.46081 0.17349 0.20836
 C298 C 0.53572 0.20694 0.16312
 C299 C 0.52370 0.15952 0.21122
 C300 C 0.47361 0.22327 0.16255
 O301 O 0.47334 0.19287 0.84902
 O302 O 0.51358 0.14788 0.81347
 O303 O 0.52080 0.18194 0.84924
 O304 O 0.46635 0.15747 0.81423
 O305 O 0.47368 0.18689 0.78438
 O306 O 0.52644 0.21430 0.82184
 O307 O 0.52197 0.17954 0.78595
 O308 O 0.47869 0.22369 0.81992
 Cu309 Cu 0.49283 0.16703 0.83436
 Cu310 Cu 0.50061 0.20432 0.80010
 C311 C 0.46952 0.21606 0.84072
 C312 C 0.52457 0.15590 0.79368
 C313 C 0.53265 0.20252 0.84198
 C314 C 0.46138 0.16702 0.79282
 O315 O 0.48336 0.81123 0.15065
 O316 O 0.52631 0.84026 0.19629
 O317 O 0.53003 0.80764 0.16016
 O318 O 0.47897 0.84681 0.18613
 O319 O 0.47012 0.81550 0.21377
 O320 O 0.52040 0.77441 0.18552
 O321 O 0.51742 0.80811 0.22317
 O322 O 0.47255 0.77979 0.17756
 Cu323 Cu 0.50528 0.82989 0.17077
 Cu324 Cu 0.49410 0.79121 0.20274
 C325 C 0.47130 0.79012 0.15587
 C326 C 0.52941 0.82911 0.21737
 C327 C 0.53368 0.78420 0.16783
 C328 C 0.46627 0.83847 0.20472
 O329 O 0.84524 0.52651 0.81220
 O330 O 0.81081 0.47454 0.84528
 O331 O 0.84450 0.47533 0.81057
 O332 O 0.81058 0.52574 0.84607
 O333 O 0.78092 0.52675 0.81725
 O334 O 0.81562 0.47631 0.78096
 O335 O 0.78082 0.47517 0.81679
 O336 O 0.81651 0.52784 0.78251
 Cu337 Cu 0.83067 0.50046 0.83138
 Cu338 Cu 0.79546 0.50158 0.79640
 C339 C 0.83721 0.53597 0.79174
 C340 C 0.78992 0.46608 0.83708
 C341 C 0.83613 0.46741 0.78963
 C342 C 0.78986 0.53467 0.83800
 O343 O 0.14589 0.52626 0.17663
 O344 O 0.18163 0.47515 0.14456
 O345 O 0.14694 0.47505 0.17803
 O346 O 0.18134 0.52671 0.14373
 O347 O 0.21028 0.52814 0.17325
 O348 O 0.17516 0.47622 0.20823
 O349 O 0.21068 0.47630 0.17399
 O350 O 0.17399 0.52799 0.20690
 Cu351 Cu 0.16118 0.50070 0.15774
 Cu352 Cu 0.19546 0.50233 0.19362
 C353 C 0.15350 0.53583 0.19721
 C354 C 0.20208 0.46678 0.15368
 C355 C 0.15501 0.46677 0.19897
 C356 C 0.20160 0.53632 0.15248
 O357 O 0.85326 0.47762 0.18776
 O358 O 0.81377 0.52018 0.14941
 O359 O 0.84696 0.52722 0.18357
 O360 O 0.82118 0.46941 0.15111
 O361 O 0.78991 0.46666 0.17820
 O362 O 0.81812 0.52296 0.21318
 O363 O 0.78351 0.51774 0.17769
 O364 O 0.82258 0.47210 0.21532
 Cu365 Cu 0.83666 0.49862 0.16500
 Cu366 Cu 0.80036 0.49447 0.19887
 C367 C 0.84517 0.46851 0.20847
 C368 C 0.79201 0.52649 0.15696
 C369 C 0.83768 0.53438 0.20435
 C370 C 0.80079 0.45867 0.15839
 O371 O 0.18083 0.52511 0.85404
 O372 O 0.14461 0.47346 0.82282
 O373 O 0.17997 0.47399 0.85578
 O374 O 0.14565 0.52469 0.82115
 O375 O 0.17366 0.52342 0.79065
 O376 O 0.20900 0.47255 0.82622
 O377 O 0.17281 0.47160 0.79253
 O378 O 0.20984 0.52392 0.82442
 Cu379 Cu 0.15994 0.49941 0.84141
 Cu380 Cu 0.19419 0.49772 0.80531
 C381 C 0.20151 0.53324 0.84488
 C382 C 0.15224 0.46373 0.80233
 C383 C 0.20041 0.46479 0.84727
 C384 C 0.15358 0.53274 0.80001
 C385 C 0.25420 0.39506 0.08926
 C386 C 0.24014 0.38001 0.07213
 C387 C 0.25256 0.36705 0.05261
 C388 C 0.27877 0.36971 0.04970
 C389 C 0.29279 0.38346 0.06795
 C390 C 0.28053 0.39643 0.08768
 C391 C 0.24099 0.41126 0.10801
 C392 C 0.25492 0.42760 0.12422
 C393 C 0.24213 0.44473 0.14050
 C394 C 0.21571 0.44602 0.13994
 C395 C 0.20210 0.42876 0.12426
 C396 C 0.21461 0.41140 0.10823
 C397 C 0.29389 0.41214 0.10488
 C398 C 0.28130 0.42741 0.12288
 C399 C 0.21380 0.37962 0.07384
 C400 C 0.20124 0.39511 0.09157
 H401 H 0.31422 0.41328 0.10394
 H402 H 0.29230 0.43981 0.13531
 H403 H 0.20277 0.36798 0.06080
 H404 H 0.18087 0.39495 0.09173
 H405 H 0.24173 0.35635 0.03869
 H406 H 0.31294 0.38580 0.06566
 H407 H 0.25268 0.45807 0.15246
 H408 H 0.18174 0.42951 0.12393
 C409 C 0.73438 0.58170 0.08321
 C410 C 0.70830 0.57738 0.08165
 C411 C 0.69502 0.58790 0.06118
 C412 C 0.70790 0.60222 0.04237
 C413 C 0.73389 0.60690 0.04469
 C414 C 0.74724 0.59660 0.06493
 C415 C 0.74869 0.56961 0.10385
 C416 C 0.77488 0.57313 0.10466
 C417 C 0.78866 0.56007 0.12312
 C418 C 0.77656 0.54341 0.14064
 C419 C 0.75016 0.54099 0.14037
 C420 C 0.73611 0.55388 0.12173
 C421 C 0.77333 0.60039 0.06688
 C422 C 0.78694 0.58881 0.08642
 C423 C 0.69624 0.56211 0.10026
 C424 C 0.70990 0.55056 0.11996
 H425 H 0.78337 0.61198 0.05292
 H426 H 0.80713 0.59172 0.08697
 H427 H 0.67613 0.55868 0.09938
 H428 H 0.69993 0.53852 0.13363
 H429 H 0.67499 0.58428 0.05946
 H430 H 0.74379 0.61836 0.03050
 H431 H 0.80897 0.56214 0.12335
 H432 H 0.74078 0.52801 0.15370
 C433 C 0.74084 0.40087 0.91039
 C434 C 0.71497 0.40379 0.91492
 C435 C 0.70415 0.39159 0.93616
 C436 C 0.71928 0.37713 0.95289
 C437 C 0.74495 0.37375 0.94755
 C438 C 0.75585 0.38561 0.92643
 C439 C 0.75273 0.41510 0.88922
 C440 C 0.77879 0.41313 0.88564
 C441 C 0.79042 0.42853 0.86708
 C442 C 0.77633 0.44609 0.85228
 C443 C 0.75000 0.44687 0.85510
 C444 C 0.73810 0.43155 0.87386
 C445 C 0.78167 0.38327 0.92156
 C446 C 0.79297 0.39682 0.90150
 C447 C 0.70076 0.41964 0.89860
 C448 C 0.71212 0.43330 0.87846
 H449 H 0.79337 0.37138 0.93373
 H450 H 0.81307 0.39507 0.89878
 H451 H 0.68078 0.42200 0.90176
 H452 H 0.70056 0.44582 0.86674
 H453 H 0.68437 0.39424 0.94029
 H454 H 0.75655 0.36236 0.96026
 H455 H 0.81069 0.42783 0.86493
 H456 H 0.73912 0.46060 0.84394
 C457 C 0.25588 0.59817 0.91362
 C458 C 0.24219 0.61331 0.93084
 C459 C 0.25477 0.62515 0.95086
 C460 C 0.28077 0.62168 0.95399
 C461 C 0.29451 0.60734 0.93607
 C462 C 0.28204 0.59529 0.91587
 C463 C 0.24235 0.58397 0.89365
 C464 C 0.25576 0.56772 0.87709
 C465 C 0.24245 0.55246 0.85951
 C466 C 0.21600 0.55302 0.85910
 C467 C 0.20303 0.57035 0.87503
 C468 C 0.21606 0.58577 0.89241
 C469 C 0.29495 0.57963 0.89840
 C470 C 0.28203 0.56608 0.87933
 C471 C 0.21605 0.61555 0.92829
 C472 C 0.20317 0.60195 0.90939
 H473 H 0.31513 0.57735 0.89982
 H474 H 0.29262 0.55370 0.86664
 H475 H 0.20537 0.62734 0.94141
 H476 H 0.18290 0.60356 0.90847
 H477 H 0.24424 0.63656 0.96443
 H478 H 0.31455 0.60466 0.93849
 H479 H 0.25246 0.53893 0.84739
 H480 H 0.18265 0.57091 0.87465
 C481 C 0.08486 0.25576 0.40595
 C482 C 0.08225 0.28343 0.40568
 C483 C 0.06122 0.29460 0.39391
 C484 C 0.04284 0.27818 0.38281
 C485 C 0.04615 0.25055 0.38277
 C486 C 0.06701 0.23922 0.39440
 C487 C 0.10611 0.24378 0.41944
 C488 C 0.10795 0.21608 0.42058
 C489 C 0.12689 0.20470 0.43505
 C490 C 0.14382 0.22073 0.44855
 C491 C 0.14259 0.24850 0.44628
 C492 C 0.12347 0.26017 0.43192
 C493 C 0.07002 0.21162 0.39525
 C494 C 0.09014 0.20023 0.40816
 C495 C 0.10035 0.29924 0.41779
 C496 C 0.12061 0.28781 0.43068
 H497 H 0.05640 0.19870 0.38631
 H498 H 0.09147 0.17883 0.40888
 H499 H 0.09861 0.32061 0.41769
 H500 H 0.13384 0.30070 0.44018
 H501 H 0.05870 0.31589 0.39410
 H502 H 0.03228 0.23785 0.37390
 H503 H 0.12785 0.18330 0.43665
 H504 H 0.15544 0.26090 0.45685
 C505 C 0.09280 0.73386 0.59265
 C506 C 0.07681 0.75016 0.60666
 C507 C 0.05499 0.73927 0.61723
 C508 C 0.04897 0.71235 0.61384
 C509 C 0.06558 0.69593 0.60057
 C510 C 0.08748 0.70674 0.58961
 C511 C 0.11475 0.74578 0.57982
 C512 C 0.12997 0.72992 0.56452
 C513 C 0.14935 0.74194 0.55041
 C514 C 0.15293 0.76960 0.55123
 C515 C 0.13837 0.78488 0.56770
 C516 C 0.11914 0.77315 0.58187
 C517 C 0.10370 0.69129 0.57493
 C518 C 0.12453 0.70269 0.56256
 C519 C 0.08246 0.77724 0.60909
 C520 C 0.10329 0.78855 0.59690
 H521 H 0.09989 0.67034 0.57247
 H522 H 0.13611 0.69020 0.55087
 H523 H 0.07030 0.78993 0.61999
 H524 H 0.10658 0.80968 0.59866
 H525 H 0.04232 0.75184 0.62769
 H526 H 0.06091 0.67519 0.59792
 H527 H 0.16025 0.73017 0.53744
 H528 H 0.14105 0.80620 0.56831
 C529 C 0.92059 0.74516 0.40621
 C530 C 0.94302 0.75787 0.39889
 C531 C 0.96183 0.74309 0.38728
 C532 C 0.95847 0.71578 0.38323
 C533 C 0.93547 0.70351 0.38953
 C534 C 0.91647 0.71813 0.40132
 C535 C 0.90166 0.76013 0.42043
 C536 C 0.87975 0.74719 0.42887
 C537 C 0.86256 0.76114 0.44375
 C538 C 0.86744 0.78770 0.45039
 C539 C 0.88918 0.80050 0.44110
 C540 C 0.90639 0.78680 0.42624
 C541 C 0.89396 0.70606 0.40939
 C542 C 0.87590 0.72035 0.42292
 C543 C 0.94667 0.78481 0.40433
 C544 C 0.92863 0.79906 0.41777
 H545 H 0.89051 0.68526 0.40570
 H546 H 0.85903 0.71015 0.42922
 H547 H 0.96387 0.79482 0.39866
 H548 H 0.93239 0.81968 0.42206
 H549 H 0.97957 0.75251 0.38235
 H550 H 0.93301 0.68240 0.38659
 H551 H 0.84589 0.75110 0.45080
 H552 H 0.89307 0.82096 0.44594
 C553 C 0.91970 0.26200 0.58529
 C554 C 0.94071 0.24732 0.59277
 C555 C 0.96051 0.26023 0.60498
 C556 C 0.95960 0.28767 0.60943
 C557 C 0.93805 0.30200 0.60258
 C558 C 0.91805 0.28924 0.59030
 C559 C 0.89941 0.24873 0.57125
 C560 C 0.87866 0.26346 0.56312
 C561 C 0.85987 0.25088 0.54893
 C562 C 0.86201 0.22388 0.54269
 C563 C 0.88277 0.20938 0.55142
 C564 C 0.90152 0.22169 0.56564
 C565 C 0.89679 0.30324 0.58227
 C566 C 0.87742 0.29057 0.56892
 C567 C 0.94186 0.22018 0.58729
 C568 C 0.92257 0.20756 0.57393
 H569 H 0.89527 0.32425 0.58602
 H570 H 0.86151 0.30217 0.56281
 H571 H 0.95798 0.20868 0.59303
 H572 H 0.92433 0.18666 0.56976
 H573 H 0.97691 0.24905 0.61056
 H574 H 0.93736 0.32317 0.60586
 H575 H 0.84397 0.26220 0.54230
 H576 H 0.88453 0.18855 0.54691
 C577 C 0.39422 0.10195 0.25860
 C578 C 0.39745 0.09720 0.28434
 C579 C 0.38608 0.07472 0.29528
 C580 C 0.37230 0.05682 0.28041
 C581 C 0.36838 0.06246 0.25492
 C582 C 0.37932 0.08499 0.24389
 C583 C 0.40828 0.12382 0.24642
 C584 C 0.40631 0.12732 0.22042
 C585 C 0.42191 0.14590 0.20844
 C586 C 0.43993 0.16042 0.22210
 C587 C 0.44055 0.15802 0.24840
 C588 C 0.42491 0.13943 0.26065
 C589 C 0.37684 0.09003 0.21815
 C590 C 0.39007 0.11090 0.20661
 C591 C 0.41321 0.11412 0.29821
 C592 C 0.42674 0.13483 0.28657
 H593 H 0.36525 0.07720 0.20667
 H594 H 0.38832 0.11355 0.18655
 H595 H 0.41579 0.11076 0.31809
 H596 H 0.43937 0.14677 0.29782
 H597 H 0.38936 0.07014 0.31485
 H598 H 0.35789 0.04854 0.24349
 H599 H 0.42127 0.14770 0.18821
 H600 H 0.45455 0.16892 0.25900
 C601 C 0.58334 0.07969 0.74020
 C602 C 0.57465 0.05341 0.73913
 C603 C 0.58975 0.03422 0.72803
 C604 C 0.61386 0.04080 0.71884
 C605 C 0.62200 0.06745 0.71919
 C606 C 0.60672 0.08704 0.72991
 C607 C 0.56796 0.09969 0.75304
 C608 C 0.57655 0.12604 0.75427
 C609 C 0.56201 0.14483 0.76708
 C610 C 0.53961 0.13698 0.77921
 C611 C 0.53130 0.11054 0.77766
 C612 C 0.54523 0.09188 0.76438
 C613 C 0.61457 0.11367 0.73125
 C614 C 0.59968 0.13286 0.74309
 C615 C 0.55139 0.04658 0.74992
 C616 C 0.53698 0.06548 0.76249
 H617 H 0.63250 0.11968 0.72330
 H618 H 0.60653 0.15311 0.74386
 H619 H 0.54451 0.02634 0.74910
 H620 H 0.51935 0.05933 0.77099
 H621 H 0.58304 0.01391 0.72721
 H622 H 0.64050 0.07268 0.71211
 H623 H 0.56842 0.16522 0.76830
 H624 H 0.51386 0.10457 0.78668
 C625 C 0.41977 0.91476 0.72815
 C626 C 0.42453 0.91741 0.70235
 C627 C 0.41297 0.93808 0.68893
 C628 C 0.39720 0.95601 0.70146
 C629 C 0.39192 0.95231 0.72705
 C630 C 0.40326 0.93191 0.74053
 C631 C 0.43320 0.89448 0.74278
 C632 C 0.42930 0.89296 0.76876
 C633 C 0.44344 0.87519 0.78292
 C634 C 0.46140 0.85893 0.77141
 C635 C 0.46440 0.85973 0.74519
 C636 C 0.45050 0.87786 0.73076
 C637 C 0.39912 0.92902 0.76637
 C638 C 0.41198 0.90988 0.78027
 C639 C 0.44144 0.89994 0.69082
 C640 C 0.45416 0.88049 0.70476
 H641 H 0.38629 0.94208 0.77603
 H642 H 0.40874 0.90870 0.80029
 H643 H 0.44524 0.90164 0.67093
 H644 H 0.46737 0.86779 0.69520
 H645 H 0.41710 0.94098 0.66922
 H646 H 0.37959 0.96599 0.73664
 H647 H 0.44094 0.87447 0.80308
 H648 H 0.47836 0.84734 0.73630
 C649 C 0.58606 0.89768 0.28019
 C650 C 0.57559 0.90557 0.30317
 C651 C 0.58564 0.92781 0.31540
 C652 C 0.60577 0.94195 0.30457
 C653 C 0.61690 0.93302 0.28234
 C654 C 0.60693 0.91103 0.26986
 C655 C 0.57364 0.87659 0.26565
 C656 C 0.58272 0.87058 0.24162
 C657 C 0.56900 0.85314 0.22653
 C658 C 0.54645 0.84179 0.23532
 C659 C 0.53841 0.84651 0.25999
 C660 C 0.55173 0.86442 0.27514
 C661 C 0.61637 0.90329 0.24646
 C662 C 0.60440 0.88343 0.23251
 C663 C 0.55435 0.89210 0.31258
 C664 C 0.54266 0.87179 0.29883
 H665 H 0.63254 0.91339 0.23841
 H666 H 0.61165 0.87875 0.21408
 H667 H 0.54620 0.89788 0.33034
 H668 H 0.52583 0.86252 0.30638
 H669 H 0.57694 0.93510 0.33240
 H670 H 0.63220 0.94432 0.27396
 H671 H 0.57509 0.84948 0.20746
 H672 H 0.52078 0.83806 0.26656
 C673 C 0.42089 0.27896 0.91482
 C674 C 0.39468 0.27770 0.91765
 C675 C 0.38339 0.29024 0.93824
 C676 C 0.39830 0.30294 0.95666
 C677 C 0.42461 0.30440 0.95291
 C678 C 0.43592 0.29263 0.93210
 C679 C 0.43299 0.26477 0.89397
 C680 C 0.45928 0.26577 0.89149
 C681 C 0.47083 0.25102 0.87262
 C682 C 0.45636 0.23485 0.85681
 C683 C 0.43004 0.23425 0.85911
 C684 C 0.41818 0.24946 0.87765
 C685 C 0.46209 0.29369 0.92864
 C686 C 0.47357 0.28057 0.90860
 C687 C 0.38039 0.26301 0.90037
 C688 C 0.39195 0.24898 0.88083
 H689 H 0.47385 0.30437 0.94179
 H690 H 0.49386 0.28147 0.90686
 H691 H 0.36013 0.26180 0.90233
 H692 H 0.38028 0.23737 0.86832
 H693 H 0.36326 0.28824 0.94076
 H694 H 0.43642 0.31502 0.96607
 H695 H 0.49117 0.25097 0.87101
 H696 H 0.41903 0.22142 0.84706
 C697 C 0.58284 0.73594 0.92403
 C698 C 0.58881 0.74944 0.94613
 C699 C 0.59929 0.73552 0.96612
 C700 C 0.60391 0.70798 0.96457
 C701 C 0.59845 0.69491 0.94173
 C702 C 0.58764 0.70878 0.92155
 C703 C 0.57098 0.75053 0.90325
 C704 C 0.56426 0.73704 0.88127
 C705 C 0.55201 0.75094 0.86196
 C706 C 0.54646 0.77806 0.86480
 C707 C 0.55402 0.79126 0.88676
 C708 C 0.56610 0.77764 0.90602
 C709 C 0.58105 0.69599 0.89910
 C710 C 0.56953 0.70985 0.87934
 C711 C 0.58406 0.77669 0.94799
 C712 C 0.57289 0.79057 0.92825
 H713 H 0.58460 0.67502 0.89687
 H714 H 0.56453 0.69914 0.86250
 H715 H 0.58875 0.78733 0.96496
 H716 H 0.56925 0.81152 0.93054
 H717 H 0.60458 0.74662 0.98264
 H718 H 0.60128 0.67379 0.93992
 H719 H 0.54625 0.74058 0.84516
 H720 H 0.55004 0.81213 0.88918
 C721 C 0.41927 0.73823 0.07547
 C722 C 0.39634 0.72512 0.07988
 C723 C 0.38310 0.71423 0.05954
 C724 C 0.39266 0.71640 0.03477
 C725 C 0.41664 0.72829 0.03137
 C726 C 0.42961 0.73970 0.05135
 C727 C 0.43254 0.75112 0.09641
 C728 C 0.45495 0.76510 0.09161
 C729 C 0.46702 0.77815 0.11125
 C730 C 0.45728 0.77679 0.13573
 C731 C 0.43518 0.76208 0.14052
 C732 C 0.42243 0.74954 0.12071
 C733 C 0.45252 0.75312 0.04747
 C734 C 0.46489 0.76580 0.06725
 C735 C 0.38679 0.72387 0.10446
 C736 C 0.39971 0.73569 0.12455
 H737 H 0.46071 0.75429 0.02890
 H738 H 0.48231 0.77634 0.06342
 H739 H 0.36912 0.71379 0.10819
 H740 H 0.39166 0.73428 0.14317
 H741 H 0.36472 0.70564 0.06308
 H742 H 0.42563 0.72866 0.01317
 H743 H 0.48433 0.78900 0.10758
 H744 H 0.42775 0.76086 0.15942
 C745 C 0.60132 0.25015 0.08813
 C746 C 0.60895 0.23354 0.06861
 C747 C 0.62047 0.24462 0.04746
 C748 C 0.62450 0.27228 0.04535
 C749 C 0.61795 0.28852 0.06592
 C750 C 0.60586 0.27756 0.08710
 C751 C 0.58725 0.23869 0.10948
 C752 C 0.57810 0.25542 0.12834
 C753 C 0.56269 0.24466 0.14735
 C754 C 0.55626 0.21750 0.14716
 C755 C 0.56682 0.20089 0.12888
 C756 C 0.58205 0.21139 0.10987
 C757 C 0.59728 0.29356 0.10684
 C758 C 0.58356 0.28270 0.12703
 C759 C 0.60425 0.20617 0.07019
 C760 C 0.59104 0.19526 0.09051
 H761 H 0.60064 0.31475 0.10636
 H762 H 0.57672 0.29586 0.14146
 H763 H 0.61030 0.19314 0.05529
 H764 H 0.58721 0.17414 0.09070
 H765 H 0.62652 0.23144 0.03268
 H766 H 0.62046 0.30980 0.06483
 H767 H 0.55448 0.25761 0.16124
 H768 H 0.56208 0.17996 0.12864
 C769 C 0.26625 0.08836 0.58911
 C770 C 0.29264 0.08875 0.58841
 C771 C 0.30595 0.06706 0.59828
 C772 C 0.29286 0.04448 0.60745
 C773 C 0.26632 0.04510 0.60848
 C774 C 0.25304 0.06688 0.59958
 C775 C 0.25207 0.11022 0.57758
 C776 C 0.22571 0.10928 0.57790
 C777 C 0.21227 0.12864 0.56506
 C778 C 0.22485 0.14839 0.55107
 C779 C 0.25131 0.15004 0.55197
 C780 C 0.26507 0.13081 0.56523
 C781 C 0.22667 0.06717 0.60036
 C782 C 0.21322 0.08812 0.58981
 C783 C 0.30505 0.11034 0.57694
 C784 C 0.29152 0.13089 0.56539
 H785 H 0.21632 0.05078 0.60869
 H786 H 0.19286 0.08730 0.59024
 H787 H 0.32540 0.11099 0.57625
 H788 H 0.30184 0.14669 0.55609
 H789 H 0.32628 0.06704 0.59707
 H790 H 0.25584 0.02867 0.61661
 H791 H 0.19191 0.12735 0.56472
 H792 H 0.26115 0.16514 0.54120
 C793 C 0.71343 0.09259 0.42580
 C794 C 0.70593 0.06965 0.43889
 C795 C 0.69438 0.04896 0.42582
 C796 C 0.69097 0.05075 0.39977
 C797 C 0.69705 0.07446 0.38711
 C798 C 0.70860 0.09545 0.40007
 C799 C 0.72838 0.11298 0.43886
 C800 C 0.73733 0.13521 0.42550
 C801 C 0.75343 0.15336 0.43753
 C802 C 0.76093 0.14867 0.46237
 C803 C 0.75121 0.12685 0.47568
 C804 C 0.73489 0.10892 0.46406
 C805 C 0.71693 0.11848 0.38758
 C806 C 0.73100 0.13805 0.40009
 C807 C 0.71167 0.06704 0.46442
 C808 C 0.72597 0.08636 0.47680
 H809 H 0.71323 0.12101 0.36777
 H810 H 0.73766 0.15512 0.38957
 H811 H 0.70587 0.04946 0.47468
 H812 H 0.73075 0.08319 0.49630
 H813 H 0.68971 0.03064 0.43551
 H814 H 0.69466 0.07569 0.36698
 H815 H 0.76119 0.17013 0.42731
 H816 H 0.75708 0.12341 0.49486
 C817 C 0.73308 0.92142 0.58065
 C818 C 0.72773 0.91683 0.60608
 C819 C 0.71556 0.93660 0.61996
 C820 C 0.70898 0.96077 0.60847
 C821 C 0.71311 0.96422 0.58260
 C822 C 0.72555 0.94487 0.56871
 C823 C 0.74798 0.90195 0.56655
 C824 C 0.75468 0.90753 0.54162
 C825 C 0.77036 0.89004 0.52887
 C826 C 0.77897 0.86694 0.54067
 C827 C 0.77142 0.86091 0.56531
 C828 C 0.75616 0.87872 0.57856
 C829 C 0.73168 0.94913 0.54342
 C830 C 0.74613 0.93082 0.53012
 C831 C 0.73570 0.89309 0.61731
 C832 C 0.74955 0.87430 0.60375
 H833 H 0.72586 0.96712 0.53402
 H834 H 0.75102 0.93514 0.51081
 H835 H 0.73159 0.88921 0.63687
 H836 H 0.75564 0.85647 0.61324
 H837 H 0.71258 0.93385 0.63989
 H838 H 0.70772 0.98257 0.57354
 H839 H 0.77613 0.89445 0.50979
 H840 H 0.77821 0.84308 0.57433
 C841 C 0.25876 0.90110 0.39363
 C842 C 0.28512 0.90312 0.39364
 C843 C 0.29674 0.92505 0.38194
 C844 C 0.28202 0.94499 0.37093
 C845 C 0.25575 0.94187 0.36991
 C846 C 0.24399 0.92010 0.38140
 C847 C 0.24630 0.87985 0.40825
 C848 C 0.21995 0.87908 0.40963
 C849 C 0.20821 0.86068 0.42557
 C850 C 0.22257 0.84330 0.44035
 C851 C 0.24894 0.84330 0.43776
 C852 C 0.26095 0.86185 0.42193
 C853 C 0.21768 0.91783 0.38221
 C854 C 0.20585 0.89766 0.39610
 C855 C 0.29917 0.88404 0.40664
 C856 C 0.28730 0.86376 0.42053
 H857 H 0.20612 0.93230 0.37271
 H858 H 0.18550 0.89712 0.39690
 H859 H 0.31951 0.88527 0.40673
 H860 H 0.29885 0.84995 0.43087
 H861 H 0.31696 0.92761 0.38298
 H862 H 0.24443 0.95727 0.36145
 H863 H 0.18790 0.86073 0.42735
 H864 H 0.26013 0.83014 0.44921
 C865 C 0.08090 0.39832 0.75071
 C866 C 0.08351 0.39421 0.72487
 C867 C 0.06354 0.38269 0.71152
 C868 C 0.04056 0.37637 0.72369
 C869 C 0.03906 0.37939 0.74997
 C870 C 0.05900 0.39045 0.76346
 C871 C 0.10084 0.41250 0.76446
 C872 C 0.09761 0.41752 0.79009
 C873 C 0.11546 0.43295 0.80263
 C874 C 0.13619 0.44389 0.78966
 C875 C 0.13983 0.43767 0.76421
 C876 C 0.12205 0.42207 0.75145
 C877 C 0.05696 0.39482 0.78934
 C878 C 0.07599 0.40810 0.80246
 C879 C 0.10551 0.40304 0.71268
 C880 C 0.12441 0.41681 0.72573
 H881 H 0.04020 0.38860 0.79940
 H882 H 0.07340 0.41175 0.82228
 H883 H 0.10781 0.39997 0.69274
 H884 H 0.14072 0.42395 0.71547
 H885 H 0.06525 0.38093 0.69137
 H886 H 0.02228 0.37334 0.76007
 H887 H 0.11259 0.43739 0.82228
 H888 H 0.15572 0.44602 0.75409
 C889 C 0.08279 0.60258 0.24760
 C890 C 0.06183 0.61145 0.23418
 C891 C 0.04192 0.62311 0.24708
 C892 C 0.04241 0.62574 0.27344
 C893 C 0.06456 0.61847 0.28635
 C894 C 0.08453 0.60632 0.27357
 C895 C 0.10260 0.58783 0.23437
 C896 C 0.12286 0.57740 0.24795
 C897 C 0.14051 0.56143 0.23555
 C898 C 0.13762 0.55570 0.20988
 C899 C 0.11783 0.56744 0.19644
 C900 C 0.10018 0.58325 0.20858
 C901 C 0.10560 0.59652 0.28639
 C902 C 0.12440 0.58226 0.27381
 C903 C 0.06063 0.60743 0.20820
 C904 C 0.07952 0.59359 0.19560
 H905 H 0.10723 0.59924 0.30644
 H906 H 0.13995 0.57446 0.28454
 H907 H 0.04460 0.61437 0.19763
 H908 H 0.07755 0.59028 0.17566
 H909 H 0.02586 0.62990 0.23645
 H910 H 0.06549 0.61997 0.30657
 H911 H 0.15569 0.55252 0.24604
 H912 H 0.11556 0.56344 0.17663
 C913 C 0.92021 0.42047 0.27021
 C914 C 0.91571 0.39574 0.28153
 C915 C 0.93570 0.38255 0.29332
 C916 C 0.96024 0.39370 0.29317
 C917 C 0.96354 0.41959 0.28340
 C918 C 0.94389 0.43272 0.27152
 C919 C 0.90010 0.43326 0.25570
 C920 C 0.90525 0.45729 0.24334
 C921 C 0.88686 0.46844 0.22814
 C922 C 0.86331 0.45603 0.22540
 C923 C 0.85783 0.43254 0.23868
 C924 C 0.87648 0.42077 0.25364
 C925 C 0.94790 0.45740 0.25991
 C926 C 0.92890 0.46945 0.24594
 C927 C 0.89165 0.38416 0.27966
 C928 C 0.87235 0.39649 0.26604
 H929 H 0.96610 0.46710 0.26098
 H930 H 0.93291 0.48816 0.23670
 H931 H 0.88783 0.36513 0.28839
 H932 H 0.85423 0.38665 0.26473
 H933 H 0.93242 0.36275 0.30055
 H934 H 0.98162 0.42954 0.28455
 H935 H 0.89084 0.48686 0.21830
 H936 H 0.83958 0.42310 0.23665
 C937 C 0.91143 0.59990 0.74193
 C938 C 0.91237 0.60089 0.71566
 C939 C 0.93348 0.61245 0.70377
 C940 C 0.95409 0.62174 0.71811
 C941 C 0.95200 0.62141 0.74452
 C942 C 0.93091 0.61060 0.75643
 C943 C 0.89027 0.58625 0.75457
 C944 C 0.89000 0.58465 0.78081
 C945 C 0.87123 0.56977 0.79272
 C946 C 0.85310 0.55586 0.77870
 C947 C 0.85276 0.55868 0.75241
 C948 C 0.87153 0.57382 0.74020
 C949 C 0.92942 0.60950 0.78266
 C950 C 0.90924 0.59680 0.79467
 C951 C 0.89270 0.58920 0.70189
 C952 C 0.87272 0.57579 0.71393
 H953 H 0.94431 0.61793 0.79401
 H954 H 0.90912 0.59575 0.81494
 H955 H 0.89310 0.58978 0.68161
 H956 H 0.85837 0.56642 0.70257
 H957 H 0.93458 0.61225 0.68351
 H958 H 0.96684 0.62973 0.75601
 H959 H 0.87149 0.56793 0.81297
 H960 H 0.83893 0.54792 0.74148
 C961 C 0.73521 0.59648 0.90932
 C962 C 0.74858 0.60880 0.92876
 C963 C 0.73538 0.61889 0.94927
 C964 C 0.70907 0.61619 0.95073
 C965 C 0.69574 0.60522 0.93047
 C966 C 0.70882 0.59502 0.90974
 C967 C 0.74921 0.58322 0.88910
 C968 C 0.73596 0.56950 0.87040
 C969 C 0.74942 0.55497 0.85246
 C970 C 0.77584 0.55359 0.85371
 C971 C 0.78879 0.56834 0.87199
 C972 C 0.77559 0.58311 0.88976
 C973 C 0.69620 0.58202 0.89016
 C974 C 0.70953 0.56952 0.87080
 C975 C 0.77496 0.60939 0.92808
 C976 C 0.78825 0.59672 0.90891
 H977 H 0.67585 0.58084 0.89017
 H978 H 0.69906 0.55911 0.85645
 H979 H 0.78544 0.61896 0.94294
 H980 H 0.80861 0.59693 0.90949
 H981 H 0.74563 0.62743 0.96484
 H982 H 0.67550 0.60294 0.93167
 H983 H 0.73933 0.54350 0.83855
 H984 H 0.80912 0.56750 0.87297
 C985 C 0.25384 0.40015 0.91749
 C986 C 0.28022 0.40031 0.91756
 C987 C 0.29306 0.38825 0.93759
 C988 C 0.27958 0.37685 0.95791
 C989 C 0.25302 0.37573 0.95643
 C990 C 0.24016 0.38751 0.93659
 C991 C 0.24020 0.41451 0.89767
 C992 C 0.21384 0.41524 0.89843
 C993 C 0.20100 0.43067 0.88092
 C994 C 0.21425 0.44549 0.86276
 C995 C 0.24065 0.44362 0.86141
 C996 C 0.25378 0.42831 0.87910
 C997 C 0.21377 0.38769 0.93606
 C998 C 0.20082 0.40139 0.91731
 C999 C 0.29317 0.41358 0.89817
 C1000 C 0.28019 0.42734 0.87929
 H1001 H 0.20303 0.37778 0.95065
 H1002 H 0.18046 0.40166 0.91794
 H1003 H 0.31354 0.41385 0.89789
 H1004 H 0.29094 0.43778 0.86504
 H1005 H 0.31337 0.38974 0.93811
 H1006 H 0.24213 0.36572 0.97086
 H1007 H 0.18068 0.43187 0.88195
 H1008 H 0.25097 0.45511 0.84756
 C1009 C 0.25381 0.60726 0.08591
 C1010 C 0.28023 0.60731 0.08534
 C1011 C 0.29280 0.61997 0.06536
 C1012 C 0.27897 0.63199 0.04602
 C1013 C 0.25263 0.63331 0.04785
 C1014 C 0.23992 0.62064 0.06752
 C1015 C 0.24041 0.59129 0.10497
 C1016 C 0.21407 0.58963 0.10419
 C1017 C 0.20152 0.57242 0.12065
 C1018 C 0.21504 0.55689 0.13783
 C1019 C 0.24137 0.55975 0.13933
 C1020 C 0.25422 0.57668 0.12258
 C1021 C 0.21355 0.61961 0.06821
 C1022 C 0.20083 0.60429 0.08621
 C1023 C 0.29340 0.59330 0.10388
 C1024 C 0.28061 0.57833 0.12225
 H1025 H 0.20267 0.62997 0.05417
 H1026 H 0.18049 0.60330 0.08559
 H1027 H 0.31376 0.59327 0.10377
 H1028 H 0.29151 0.56729 0.13579
 H1029 H 0.31308 0.61873 0.06384
 H1030 H 0.24200 0.64264 0.03297
 H1031 H 0.18123 0.57049 0.11958
 H1032 H 0.25188 0.54778 0.15248
 C1033 C 0.75251 0.39175 0.08608
 C1034 C 0.72626 0.38849 0.08685
 C1035 C 0.71394 0.37672 0.06638
 C1036 C 0.72771 0.36882 0.04514
 C1037 C 0.75411 0.37119 0.04523
 C1038 C 0.76658 0.38282 0.06554
 C1039 C 0.76533 0.40617 0.10647
 C1040 C 0.79136 0.41069 0.10491
 C1041 C 0.80313 0.42642 0.12307
 C1042 C 0.78906 0.43795 0.14253
 C1043 C 0.76316 0.43213 0.14454
 C1044 C 0.75114 0.41645 0.12635
 C1045 C 0.79274 0.38680 0.06519
 C1046 C 0.80492 0.40050 0.08455
 C1047 C 0.71281 0.39821 0.10752
 C1048 C 0.72503 0.41195 0.12692
 H1049 H 0.80381 0.37991 0.04948
 H1050 H 0.82503 0.40378 0.08321
 H1051 H 0.69257 0.39579 0.10840
 H1052 H 0.71384 0.41970 0.14217
 H1053 H 0.69361 0.37514 0.06634
 H1054 H 0.76483 0.36489 0.02904
 H1055 H 0.82307 0.43067 0.12138
 H1056 H 0.75212 0.44104 0.15933
 C1057 C 0.91707 0.75049 0.59723
 C1058 C 0.93754 0.76478 0.60700
 C1059 C 0.95719 0.75103 0.61848
 C1060 C 0.95666 0.72317 0.61999
 C1061 C 0.93545 0.70918 0.61122
 C1062 C 0.91567 0.72277 0.59951
 C1063 C 0.89749 0.76468 0.58307
 C1064 C 0.87775 0.75030 0.57201
 C1065 C 0.86034 0.76368 0.55683
 C1066 C 0.86293 0.79114 0.55240
 C1067 C 0.88225 0.80533 0.56458
 C1068 C 0.89967 0.79221 0.57975
 C1069 C 0.89513 0.70916 0.58897
 C1070 C 0.87651 0.72269 0.57545
 C1071 C 0.93852 0.79244 0.60409
 C1072 C 0.91989 0.80593 0.59071
 H1073 H 0.89376 0.68780 0.59063
 H1074 H 0.86135 0.71133 0.56711
 H1075 H 0.95417 0.80368 0.61167
 H1076 H 0.92169 0.82719 0.58837
 H1077 H 0.97343 0.76187 0.62537
 H1078 H 0.93507 0.68772 0.61216
 H1079 H 0.84563 0.75253 0.54749
 H1080 H 0.88439 0.82646 0.56144
 C1081 C 0.90725 0.25249 0.39582
 C1082 C 0.90927 0.28022 0.39423
 C1083 C 0.93052 0.29162 0.38267
 C1084 C 0.94986 0.27542 0.37344
 C1085 C 0.94699 0.24769 0.37422
 C1086 C 0.92577 0.23610 0.38548
 C1087 C 0.88626 0.24041 0.41005
 C1088 C 0.88515 0.21276 0.41284
 C1089 C 0.86674 0.20150 0.42843
 C1090 C 0.84983 0.21766 0.44168
 C1091 C 0.85030 0.24527 0.43760
 C1092 C 0.86869 0.25679 0.42196
 C1093 C 0.92336 0.20847 0.38774
 C1094 C 0.90335 0.19699 0.40116
 C1095 C 0.89068 0.29593 0.40542
 C1096 C 0.87076 0.28442 0.41907
 H1097 H 0.93746 0.19564 0.37971
 H1098 H 0.90259 0.17562 0.40309
 H1099 H 0.89196 0.31733 0.40426
 H1100 H 0.85728 0.29729 0.42805
 H1101 H 0.93281 0.31298 0.38232
 H1102 H 0.96182 0.23519 0.36701
 H1103 H 0.86648 0.18022 0.43131
 H1104 H 0.83747 0.25789 0.44779
 C1105 C 0.09360 0.27224 0.59091
 C1106 C 0.08901 0.29897 0.58509
 C1107 C 0.06806 0.31155 0.59581
 C1108 C 0.05186 0.29728 0.61185
 C1109 C 0.05738 0.27094 0.61829
 C1110 C 0.07807 0.25823 0.60774
 C1111 C 0.11397 0.25811 0.57792
 C1112 C 0.11725 0.23093 0.58249
 C1113 C 0.13486 0.21696 0.56834
 C1114 C 0.14911 0.22989 0.54968
 C1115 C 0.14665 0.25743 0.54619
 C1116 C 0.12872 0.27161 0.56004
 C1117 C 0.08273 0.23137 0.61267
 C1118 C 0.10197 0.21793 0.60021
 C1119 C 0.10472 0.31206 0.56774
 C1120 C 0.12427 0.29863 0.55547
 H1121 H 0.07089 0.22045 0.62570
 H1122 H 0.10445 0.19700 0.60397
 H1123 H 0.10149 0.33267 0.56311
 H1124 H 0.13550 0.30931 0.54176
 H1125 H 0.06358 0.33177 0.59068
 H1126 H 0.04472 0.25999 0.63055
 H1127 H 0.13676 0.19577 0.57108
 H1128 H 0.15738 0.26738 0.53160
 C1129 C 0.08840 0.71258 0.42199
 C1130 C 0.06581 0.70819 0.43497
 C1131 C 0.04525 0.69739 0.42228
 C1132 C 0.04652 0.69182 0.39636
 C1133 C 0.07013 0.69413 0.38417
 C1134 C 0.09099 0.70506 0.39682
 C1135 C 0.10916 0.72674 0.43460
 C1136 C 0.13147 0.73240 0.42138
 C1137 C 0.15045 0.74760 0.43304
 C1138 C 0.14656 0.75755 0.45732
 C1139 C 0.12444 0.75107 0.47044
 C1140 C 0.10572 0.73562 0.45926
 C1141 C 0.11392 0.71021 0.38445
 C1142 C 0.13381 0.72359 0.39652
 C1143 C 0.06364 0.71613 0.46006
 C1144 C 0.08325 0.72972 0.47198
 H1145 H 0.11629 0.70451 0.36506
 H1146 H 0.15089 0.72769 0.38608
 H1147 H 0.04630 0.71266 0.47028
 H1148 H 0.08055 0.73627 0.49110
 H1149 H 0.02787 0.69420 0.43253
 H1150 H 0.07177 0.69002 0.36433
 H1151 H 0.16754 0.75268 0.42296
 H1152 H 0.12164 0.75858 0.48925
 C1153 C 0.61775 0.90566 0.75287
 C1154 C 0.62190 0.90452 0.72690
 C1155 C 0.63420 0.92585 0.71486
 C1156 C 0.64051 0.94892 0.72849
 C1157 C 0.63825 0.94843 0.75483
 C1158 C 0.62675 0.92704 0.76706
 C1159 C 0.60163 0.88548 0.76506
 C1160 C 0.59613 0.88788 0.79067
 C1161 C 0.57835 0.87087 0.80153
 C1162 C 0.56550 0.85200 0.78693
 C1163 C 0.57231 0.84861 0.76162
 C1164 C 0.59030 0.86557 0.75050
 C1165 C 0.62223 0.92773 0.79295
 C1166 C 0.60722 0.90838 0.80460
 C1167 C 0.61170 0.88323 0.71325
 C1168 C 0.59607 0.86416 0.72482
 H1169 H 0.62940 0.94400 0.80411
 H1170 H 0.60329 0.91021 0.82444
 H1171 H 0.61484 0.88198 0.69324
 H1172 H 0.58769 0.84878 0.71339
 H1173 H 0.63575 0.92579 0.69461
 H1174 H 0.64408 0.96552 0.76570
 H1175 H 0.57346 0.87337 0.82111
 H1176 H 0.56249 0.83411 0.75027
 C1177 C 0.40550 0.91733 0.25230
 C1178 C 0.39905 0.93999 0.23860
 C1179 C 0.38732 0.96102 0.25081
 C1180 C 0.38209 0.96003 0.27684
 C1181 C 0.38801 0.93648 0.29008
 C1182 C 0.39993 0.91526 0.27793
 C1183 C 0.41903 0.89570 0.23965
 C1184 C 0.42637 0.87333 0.25346
 C1185 C 0.44063 0.85360 0.24162
 C1186 C 0.44782 0.85651 0.21630
 C1187 C 0.43946 0.87865 0.20262
 C1188 C 0.42518 0.89830 0.21418
 C1189 C 0.40706 0.89227 0.29102
 C1190 C 0.42005 0.87170 0.27902
 C1191 C 0.40482 0.94146 0.21294
 C1192 C 0.41770 0.92098 0.20094
 H1193 H 0.40288 0.89033 0.31081
 H1194 H 0.42555 0.85457 0.28993
 H1195 H 0.39975 0.95882 0.20214
 H1196 H 0.42225 0.92313 0.18124
 H1197 H 0.38180 0.97795 0.23965
 H1198 H 0.38484 0.93503 0.31006
 H1199 H 0.44716 0.83674 0.25236
 H1200 H 0.44479 0.88103 0.18312
 C1201 C 0.57211 0.07944 0.27029
 C1202 C 0.59595 0.08414 0.28059
 C1203 C 0.60814 0.06360 0.29363
 C1204 C 0.59653 0.03834 0.29657
 C1205 C 0.57178 0.03501 0.28714
 C1206 C 0.55990 0.05501 0.27358
 C1207 C 0.55972 0.10037 0.25553
 C1208 C 0.53629 0.09508 0.24449
 C1209 C 0.52500 0.11456 0.22973
 C1210 C 0.53653 0.13949 0.22657
 C1211 C 0.55968 0.14491 0.23831
 C1212 C 0.57163 0.12512 0.25251
 C1213 C 0.53608 0.05079 0.26292
 C1214 C 0.52458 0.07040 0.24841
 C1215 C 0.60733 0.10917 0.27715
 C1216 C 0.59530 0.12935 0.26353
 H1217 H 0.52645 0.03196 0.26543
 H1218 H 0.50639 0.06620 0.24016
 H1219 H 0.62571 0.11319 0.28501
 H1220 H 0.60475 0.14831 0.26137
 H1221 H 0.62707 0.06720 0.30018
 H1222 H 0.56123 0.01694 0.29054
 H1223 H 0.50697 0.11054 0.22101
 H1224 H 0.56855 0.16416 0.23589
 C1225 C 0.40335 0.09591 0.73276
 C1226 C 0.40727 0.09544 0.70672
 C1227 C 0.39801 0.07388 0.69279
 C1228 C 0.38559 0.05272 0.70497
 C1229 C 0.38093 0.05406 0.73087
 C1230 C 0.38983 0.07555 0.74489
 C1231 C 0.41517 0.11703 0.74787
 C1232 C 0.41253 0.11642 0.77404
 C1233 C 0.42599 0.13470 0.78854
 C1234 C 0.44250 0.15312 0.77718
 C1235 C 0.44377 0.15457 0.75082
 C1236 C 0.43032 0.13630 0.73606
 C1237 C 0.38666 0.07635 0.77099
 C1238 C 0.39778 0.09648 0.78532
 C1239 C 0.42158 0.11578 0.69544
 C1240 C 0.43293 0.13582 0.70985
 H1241 H 0.37614 0.06082 0.78051
 H1242 H 0.39555 0.09588 0.80549
 H1243 H 0.42470 0.11573 0.67538
 H1244 H 0.44448 0.15059 0.70046
 H1245 H 0.40184 0.07267 0.67288
 H1246 H 0.37143 0.03770 0.74022
 H1247 H 0.42481 0.13347 0.80879
 H1248 H 0.45659 0.16850 0.74191
 C1249 C 0.59411 0.72703 0.09853
 C1250 C 0.58843 0.70029 0.09372
 C1251 C 0.59871 0.68819 0.07241
 C1252 C 0.61392 0.70297 0.05582
 C1253 C 0.62021 0.72937 0.06139
 C1254 C 0.61033 0.74155 0.08273
 C1255 C 0.58135 0.74065 0.11934
 C1256 C 0.58584 0.76780 0.12300
 C1257 C 0.57163 0.78138 0.14082
 C1258 C 0.55260 0.76822 0.15452
 C1259 C 0.54936 0.74066 0.15181
 C1260 C 0.56356 0.72679 0.13395
 C1261 C 0.61524 0.76836 0.08780
 C1262 C 0.60324 0.78126 0.10766
 C1263 C 0.57147 0.68672 0.10951
 C1264 C 0.55922 0.69975 0.12926
 H1265 H 0.62786 0.77968 0.07584
 H1266 H 0.60692 0.80219 0.11044
 H1267 H 0.56699 0.66607 0.10608
 H1268 H 0.54564 0.68877 0.14043
 H1269 H 0.59364 0.66793 0.06783
 H1270 H 0.63176 0.74072 0.04840
 H1271 H 0.57428 0.80259 0.14289
 H1272 H 0.53458 0.73048 0.16212
 C1273 C 0.42538 0.28874 0.08988
 C1274 C 0.39911 0.28776 0.08764
 C1275 C 0.38770 0.29990 0.06697
 C1276 C 0.40242 0.31233 0.04828
 C1277 C 0.42868 0.31402 0.05133
 C1278 C 0.44028 0.30218 0.07209
 C1279 C 0.43762 0.27406 0.11040
 C1280 C 0.46397 0.27407 0.11197
 C1281 C 0.47557 0.25850 0.13035
 C1282 C 0.46099 0.24275 0.14665
 C1283 C 0.43465 0.24335 0.14534
 C1284 C 0.42280 0.25909 0.12719
 C1285 C 0.46654 0.30244 0.07480
 C1286 C 0.47819 0.28868 0.09445
 C1287 C 0.38486 0.27348 0.10540
 C1288 C 0.39651 0.25932 0.12480
 H1289 H 0.47824 0.31285 0.06128
 H1290 H 0.49853 0.28890 0.09553
 H1291 H 0.36457 0.27263 0.10389
 H1292 H 0.38487 0.24800 0.13769
 H1293 H 0.36753 0.29814 0.06456
 H1294 H 0.44009 0.32362 0.03705
 H1295 H 0.49592 0.25762 0.13126
 H1296 H 0.42354 0.23087 0.15777
 C1297 C 0.60266 0.24585 0.91287
 C1298 C 0.61215 0.22926 0.93172
 C1299 C 0.62543 0.24049 0.95172
 C1300 C 0.62873 0.26816 0.95333
 C1301 C 0.62019 0.28441 0.93363
 C1302 C 0.60692 0.27334 0.91342
 C1303 C 0.58673 0.23437 0.89301
 C1304 C 0.57621 0.25107 0.87479
 C1305 C 0.55959 0.24030 0.85702
 C1306 C 0.55306 0.21318 0.85789
 C1307 C 0.56445 0.19664 0.87581
 C1308 C 0.58125 0.20712 0.89342
 C1309 C 0.59674 0.28930 0.89441
 C1310 C 0.58169 0.27836 0.87540
 C1311 C 0.60710 0.20192 0.93088
 C1312 C 0.59186 0.19104 0.91207
 H1313 H 0.59992 0.31053 0.89455
 H1314 H 0.57376 0.29147 0.86144
 H1315 H 0.61439 0.18893 0.94528
 H1316 H 0.58787 0.16996 0.91249
 H1317 H 0.63217 0.22784 0.96668
 H1318 H 0.62244 0.30573 0.93486
 H1319 H 0.55076 0.25320 0.84342
 H1320 H 0.55964 0.17574 0.87654
 C1321 C 0.39734 0.74934 0.90337
 C1322 C 0.39612 0.72156 0.90493
 C1323 C 0.38418 0.70970 0.92563
 C1324 C 0.37423 0.72551 0.94484
 C1325 C 0.37436 0.75323 0.94233
 C1326 C 0.38605 0.76529 0.92169
 C1327 C 0.41247 0.76194 0.88338
 C1328 C 0.41520 0.78961 0.88304
 C1329 C 0.43186 0.80133 0.86594
 C1330 C 0.44620 0.78562 0.84958
 C1331 C 0.44212 0.75802 0.84903
 C1332 C 0.42546 0.74601 0.86619
 C1333 C 0.38810 0.79297 0.91987
 C1334 C 0.40244 0.80494 0.90084
 C1335 C 0.40828 0.70630 0.88663
 C1336 C 0.42269 0.71832 0.86758
 H1337 H 0.37931 0.80545 0.93379
 H1338 H 0.40432 0.82634 0.90063
 H1339 H 0.40738 0.68487 0.88756
 H1340 H 0.43245 0.70580 0.85437
 H1341 H 0.38435 0.68833 0.92781
 H1342 H 0.36673 0.76532 0.95723
 H1343 H 0.43473 0.82262 0.86635
 H1344 H 0.45315 0.74579 0.83656
 C1345 C 0.74448 0.91810 0.40199
 C1346 C 0.71844 0.91393 0.39985
 C1347 C 0.70352 0.93396 0.38940
 C1348 C 0.71450 0.95818 0.38181
 C1349 C 0.74074 0.96154 0.38308
 C1350 C 0.75582 0.94162 0.39326
 C1351 C 0.75992 0.89828 0.41512
 C1352 C 0.78568 0.90325 0.41847
 C1353 C 0.79984 0.88567 0.43292
 C1354 C 0.78838 0.86351 0.44449
 C1355 C 0.76277 0.85807 0.43994
 C1356 C 0.74837 0.87558 0.42541
 C1357 C 0.78184 0.94532 0.39606
 C1358 C 0.79654 0.92643 0.40842
 C1359 C 0.70772 0.89044 0.40944
 C1360 C 0.72242 0.87161 0.42202
 H1361 H 0.79081 0.96332 0.38927
 H1362 H 0.81644 0.93039 0.41080
 H1363 H 0.68767 0.88694 0.40785
 H1364 H 0.71327 0.85415 0.42976
 H1365 H 0.68328 0.93145 0.38871
 H1366 H 0.74921 0.98016 0.37718
 H1367 H 0.81956 0.89000 0.43617
 H1368 H 0.75374 0.84116 0.44883
 C1369 C 0.26772 0.90527 0.58958
 C1370 C 0.25387 0.92408 0.60300
 C1371 C 0.26656 0.94490 0.61489
 C1372 C 0.29286 0.94749 0.61288
 C1373 C 0.30667 0.92767 0.60057
 C1374 C 0.29411 0.90655 0.58866
 C1375 C 0.25425 0.88488 0.57494
 C1376 C 0.26796 0.86671 0.56057
 C1377 C 0.25495 0.84843 0.54541
 C1378 C 0.22849 0.84894 0.54412
 C1379 C 0.21512 0.86688 0.55915
 C1380 C 0.22786 0.88484 0.57460
 C1381 C 0.30722 0.88752 0.57470
 C1382 C 0.29438 0.86790 0.56097
 C1383 C 0.22750 0.92262 0.60307
 C1384 C 0.21470 0.90336 0.58905
 H1385 H 0.32756 0.88817 0.57388
 H1386 H 0.30523 0.85398 0.55006
 H1387 H 0.21663 0.93698 0.61344
 H1388 H 0.19434 0.90337 0.58906
 H1389 H 0.25589 0.96007 0.62443
 H1390 H 0.32689 0.92973 0.59878
 H1391 H 0.26535 0.83475 0.53380
 H1392 H 0.19476 0.86721 0.55844
 C1393 C 0.25768 0.08402 0.40665
 C1394 C 0.24329 0.06423 0.39495
 C1395 C 0.25550 0.04359 0.38264
 C1396 C 0.28194 0.04222 0.38230
 C1397 C 0.29619 0.06265 0.39346
 C1398 C 0.28408 0.08360 0.40582
 C1399 C 0.24482 0.10502 0.42080
 C1400 C 0.25911 0.12447 0.43318
 C1401 C 0.24673 0.14354 0.44777
 C1402 C 0.22037 0.14268 0.45039
 C1403 C 0.20639 0.12347 0.43726
 C1404 C 0.21848 0.10462 0.42246
 C1405 C 0.29775 0.10374 0.41797
 C1406 C 0.28548 0.12384 0.43138
 C1407 C 0.21695 0.06502 0.39637
 C1408 C 0.20475 0.08486 0.40995
 H1409 H 0.31810 0.10375 0.41744
 H1410 H 0.29675 0.13872 0.44080
 H1411 H 0.20569 0.04987 0.38732
 H1412 H 0.18440 0.08445 0.41102
 H1413 H 0.24440 0.02824 0.37366
 H1414 H 0.31654 0.06171 0.39331
 H1415 H 0.25761 0.15814 0.45801
 H1416 H 0.18608 0.12280 0.43907
 C1417 C 0.74192 0.09959 0.60564
 C1418 C 0.71552 0.09830 0.60541
 C1419 C 0.70330 0.07665 0.61688
 C1420 C 0.71746 0.05624 0.62779
 C1421 C 0.74376 0.05850 0.62901
 C1422 C 0.75613 0.08008 0.61786
 C1423 C 0.75498 0.12041 0.59104
 C1424 C 0.78134 0.12033 0.58974
 C1425 C 0.79358 0.13797 0.57347
 C1426 C 0.77969 0.15527 0.55820
 C1427 C 0.75339 0.15638 0.56084
 C1428 C 0.74086 0.13864 0.57705
 C1429 C 0.78248 0.08159 0.61723
 C1430 C 0.79489 0.10142 0.60342
 C1431 C 0.70202 0.11771 0.59226
 C1432 C 0.71448 0.13753 0.57831
 H1433 H 0.79361 0.06675 0.62673
 H1434 H 0.81524 0.10132 0.60265
 H1435 H 0.68167 0.11702 0.59202
 H1436 H 0.70335 0.15151 0.56771
 H1437 H 0.68304 0.07463 0.61567
 H1438 H 0.75458 0.04259 0.63726
 H1439 H 0.81386 0.13714 0.57154
 H1440 H 0.74262 0.16946 0.54890
 C1441 C 0.90777 0.59936 0.25732
 C1442 C 0.92378 0.61614 0.24347
 C1443 C 0.94478 0.62743 0.25517
 C1444 C 0.95013 0.62177 0.28044
 C1445 C 0.93330 0.60587 0.29444
 C1446 C 0.91215 0.59436 0.28285
 C1447 C 0.88697 0.58550 0.24445
 C1448 C 0.87181 0.56747 0.25789
 C1449 C 0.85367 0.55239 0.24499
 C1450 C 0.85131 0.55481 0.21880
 C1451 C 0.86583 0.57391 0.20589
 C1452 C 0.88375 0.58922 0.21858
 C1453 C 0.89596 0.57697 0.29589
 C1454 C 0.87615 0.56377 0.28363
 C1455 C 0.91918 0.62031 0.21787
 C1456 C 0.89951 0.60705 0.20563
 H1457 H 0.89904 0.57299 0.31559
 H1458 H 0.86459 0.54996 0.29424
 H1459 H 0.93135 0.63333 0.20705
 H1460 H 0.89710 0.61018 0.18569
 H1461 H 0.95758 0.63983 0.24438
 H1462 H 0.93743 0.60130 0.31384
 H1463 H 0.84285 0.53739 0.25493
 H1464 H 0.86413 0.57577 0.18573
 C1465 C 0.90691 0.40344 0.73672
 C1466 C 0.92234 0.38638 0.75054
 C1467 C 0.94302 0.37479 0.73882
 C1468 C 0.94884 0.38067 0.71366
 C1469 C 0.93253 0.39678 0.69962
 C1470 C 0.91153 0.40840 0.71119
 C1471 C 0.88652 0.41764 0.74964
 C1472 C 0.87172 0.43568 0.73618
 C1473 C 0.85369 0.45071 0.74906
 C1474 C 0.85119 0.44830 0.77525
 C1475 C 0.86558 0.42949 0.78824
 C1476 C 0.88321 0.41405 0.77554
 C1477 C 0.89577 0.42590 0.69814
 C1478 C 0.87616 0.43923 0.71040
 C1479 C 0.91759 0.38228 0.77615
 C1480 C 0.89840 0.39598 0.78847
 H1481 H 0.89899 0.42981 0.67843
 H1482 H 0.86486 0.45300 0.69976
 H1483 H 0.92931 0.36902 0.78693
 H1484 H 0.89586 0.39290 0.80841
 H1485 H 0.95541 0.36218 0.74961
 H1486 H 0.93701 0.40146 0.68029
 H1487 H 0.84284 0.46542 0.73906
 H1488 H 0.86365 0.42756 0.80839
 C1489 C 0.08580 0.60110 0.74734
 C1490 C 0.08526 0.60076 0.72103
 C1491 C 0.06552 0.61348 0.70844
 C1492 C 0.04626 0.62592 0.72210
 C1493 C 0.04788 0.62723 0.74838
 C1494 C 0.06745 0.61464 0.76111
 C1495 C 0.10502 0.58564 0.76076
 C1496 C 0.10451 0.58474 0.78703
 C1497 C 0.12137 0.56832 0.79968
 C1498 C 0.13860 0.55266 0.78632
 C1499 C 0.13966 0.55464 0.76000
 C1500 C 0.12263 0.57091 0.74708
 C1501 C 0.06824 0.61415 0.78739
 C1502 C 0.08647 0.59943 0.80014
 C1503 C 0.10371 0.58652 0.70797
 C1504 C 0.12209 0.57190 0.72077
 H1505 H 0.05423 0.62460 0.79821
 H1506 H 0.08601 0.59898 0.82043
 H1507 H 0.10356 0.58613 0.68769
 H1508 H 0.13558 0.56071 0.70996
 H1509 H 0.06421 0.61220 0.68823
 H1510 H 0.03316 0.63692 0.75894
 H1511 H 0.12056 0.56709 0.81994
 H1512 H 0.15277 0.54256 0.74958
 C1513 C 0.08845 0.39696 0.25285
 C1514 C 0.08954 0.39605 0.27914
 C1515 C 0.06988 0.38370 0.29250
 C1516 C 0.04914 0.37301 0.27962
 C1517 C 0.04906 0.37272 0.25330
 C1518 C 0.06857 0.38487 0.23979
 C1519 C 0.10738 0.41258 0.23884
 C1520 C 0.10519 0.41495 0.21274
 C1521 C 0.12173 0.43175 0.19974
 C1522 C 0.14022 0.44641 0.21263
 C1523 C 0.14295 0.44291 0.23867
 C1524 C 0.12633 0.42620 0.25194
 C1525 C 0.06772 0.38669 0.21357
 C1526 C 0.08575 0.40147 0.20025
 C1527 C 0.10939 0.40901 0.29152
 C1528 C 0.12749 0.42380 0.27815
 H1529 H 0.05251 0.37735 0.20332
 H1530 H 0.08399 0.40305 0.18009
 H1531 H 0.11050 0.40841 0.31177
 H1532 H 0.14206 0.43411 0.28849
 H1533 H 0.06969 0.38425 0.31279
 H1534 H 0.03293 0.36464 0.24346
 H1535 H 0.11964 0.43411 0.17966
 H1536 H 0.15709 0.45417 0.24874
   
