data_POSCAR
  _audit_creation_date              2014-09-24
  _audit_creation_method            'ToBaCCo'
  _symmetry_space_group_name_H-M    'P1'
  _symmetry_Int_Tables_number       1
  _symmetry_cell_setting            triclinic
  loop_
  _symmetry_equiv_pos_as_xyz
 x,y,z
_cell_length_a 47.7114
_cell_length_b 47.9915
_cell_length_c 47.7260
_cell_angle_alpha 89.813100
_cell_angle_beta 89.612700
_cell_angle_gamma 90.009000
loop_
  _atom_site_label
  _atom_site_type_symbol
  _atom_site_fract_x
  _atom_site_fract_y
  _atom_site_fract_z
C1 C 0.36017 1.36984 0.33114
 C2 C 0.33557 1.37596 0.34623
 C3 C 0.32673 1.35940 0.36916
 C4 C 0.34292 1.33613 0.37651
 C5 C 0.36785 1.32977 0.36206
 C6 C 0.37628 1.34658 0.33944
 H7 H 0.32294 1.39319 0.33902
 H8 H 0.33561 1.32258 0.39321
 H9 H 0.39495 1.34053 0.32808
 C10 C 0.36059 0.83672 0.81588
 C11 C 0.33785 0.85527 0.81806
 C12 C 0.31958 0.85447 0.84122
 C13 C 0.32362 0.83360 0.86180
 C14 C 0.34577 0.81450 0.85954
 C15 C 0.36418 0.81615 0.83642
 H16 H 0.33456 0.87065 0.80172
 H17 H 0.30916 0.83128 0.87921
 H18 H 0.38113 0.80127 0.83420
 C19 C 0.84559 1.35225 0.81841
 C20 C 0.86138 1.32874 0.82594
 C21 C 0.85426 1.31298 0.84964
 C22 C 0.83049 1.32040 0.86560
 C23 C 0.81416 1.34377 0.85842
 C24 C 0.82199 1.35942 0.83444
 H25 H 0.87906 1.32229 0.81319
 H26 H 0.82439 1.30769 0.88343
 H27 H 0.80970 1.37690 0.82729
 C28 C 0.84962 0.85639 0.31734
 C29 C 0.82488 0.86397 0.33160
 C30 C 0.81502 0.84855 0.35486
 C31 C 0.82997 0.82476 0.36337
 C32 C 0.85444 0.81650 0.34904
 C33 C 0.86395 0.83225 0.32618
 H34 H 0.81311 0.88171 0.32407
 H35 H 0.82204 0.81230 0.38065
 H36 H 0.88225 0.82473 0.31513
 C37 C 0.64875 0.65502 0.31311
 C38 C 0.67204 0.63956 0.32212
 C39 C 0.68685 0.64733 0.34605
 C40 C 0.67873 0.67142 0.36076
 C41 C 0.65576 0.68738 0.35189
 C42 C 0.64105 0.67912 0.32780
 H43 H 0.67911 0.62161 0.31036
 H44 H 0.69059 0.67820 0.37876
 H45 H 0.62389 0.69158 0.31996
 C46 C 0.63876 0.14634 0.82335
 C47 C 0.66259 0.13135 0.83233
 C48 C 0.67871 0.14051 0.85502
 C49 C 0.67084 0.16512 0.86903
 C50 C 0.64713 0.18034 0.86069
 C51 C 0.63156 0.17096 0.83760
 H52 H 0.66954 0.11286 0.82150
 H53 H 0.68344 0.17299 0.88603
 H54 H 0.61401 0.18311 0.83015
 C55 C 1.15987 0.64061 0.80263
 C56 C 1.13948 0.65856 0.81400
 C57 C 1.14609 0.67626 0.83640
 C58 C 1.17293 0.67453 0.84862
 C59 C 1.19316 0.65619 0.83747
 C60 C 1.18672 0.64022 0.81397
 H61 H 1.11885 0.65968 0.80471
 H62 H 1.17804 0.68728 0.86656
 H63 H 1.20242 0.62634 0.80520
 C64 C 1.14665 0.14981 0.31517
 C65 C 1.16972 0.13425 0.32508
 C66 C 1.18479 0.14255 0.34880
 C67 C 1.17702 0.16741 0.36240
 C68 C 1.15446 0.18338 0.35292
 C69 C 1.13941 0.17456 0.32928
 H70 H 1.17671 0.11573 0.31434
 H71 H 1.18875 0.17525 0.37997
 H72 H 1.12237 0.18726 0.32149
 C73 C 0.63676 1.34383 0.68887
 C74 C 0.65994 1.36120 0.68341
 C75 C 0.67822 1.35591 0.66086
 C76 C 0.67345 1.33199 0.64428
 C77 C 0.65074 1.31419 0.64977
 C78 C 0.63263 1.32014 0.67236
 H79 H 0.66375 1.37900 0.69679
 H80 H 0.68772 1.32629 0.62757
 H81 H 0.61544 1.30626 0.67747
 C82 C 0.64629 0.84611 1.18447
 C83 C 0.67108 0.86162 1.18094
 C84 C 0.69063 0.85450 1.16023
 C85 C 0.68582 0.83099 1.14340
 C86 C 0.66145 0.81496 1.14685
 C87 C 0.64186 0.82254 1.16773
 H88 H 0.67536 0.87926 1.19436
 H89 H 0.70123 0.82494 1.12777
 H90 H 0.62329 0.81002 1.17134
 C91 C 1.14462 1.35996 1.18122
 C92 C 1.12979 1.33544 1.17434
 C93 C 1.13874 1.31836 1.15212
 C94 C 1.16267 1.32615 1.13646
 C95 C 1.17723 1.35088 1.14231
 C96 C 1.16838 1.36705 1.16533
 H97 H 1.11192 1.32874 1.18667
 H98 H 1.17033 1.31284 1.11982
 H99 H 1.18021 1.38510 1.17174
 C100 C 1.13269 0.84855 0.67333
 C101 C 1.12964 0.82398 0.65784
 C102 C 1.14810 0.81778 0.63560
 C103 C 1.17036 0.83591 0.62974
 C104 C 1.17428 0.86028 0.64559
 C105 C 1.15508 0.86669 0.66697
 H106 H 1.11302 0.80957 0.66345
 H107 H 1.18425 0.83112 0.61239
 H108 H 1.15843 0.88522 0.67939
 C109 C 0.34509 0.64608 0.67985
 C110 C 0.36131 0.66974 0.67314
 C111 C 0.35619 0.68513 0.64870
 C112 C 0.33383 0.67737 0.63133
 C113 C 0.31756 0.65366 0.63720
 C114 C 0.32337 0.63821 0.66179
 H115 H 0.37766 0.67669 0.68709
 H116 H 0.32886 0.68992 0.61312
 H117 H 0.31058 0.62057 0.66784
 C118 C 0.35736 0.13624 1.16941
 C119 C 0.33418 0.12952 1.15274
 C120 C 0.32745 0.14585 1.12912
 C121 C 0.34412 0.16900 1.12247
 C122 C 0.36767 0.17573 1.13866
 C123 C 0.37453 0.15887 1.16158
 H124 H 0.32083 0.11228 1.15891
 H125 H 0.33893 0.18143 1.10424
 H126 H 0.39309 0.16380 1.17353
 C127 C 0.85999 0.65068 1.18290
 C128 C 0.86418 0.67391 1.16531
 C129 C 0.84720 0.67842 1.14169
 C130 C 0.82527 0.65991 1.13614
 C131 C 0.82053 0.63661 1.15346
 C132 C 0.83765 0.63231 1.17680
 H133 H 0.88063 0.68868 1.17013
 H134 H 0.81166 0.66397 1.11851
 H135 H 0.83257 0.61496 1.19040
 C136 C 0.85617 0.14990 0.68460
 C137 C 0.83442 0.13109 0.67778
 C138 C 0.81797 0.13484 0.65370
 C139 C 0.82307 0.15843 0.63660
 C140 C 0.84421 0.17751 0.64318
 C141 C 0.86034 0.17332 0.66737
 H142 H 0.82953 0.11366 0.69136
 H143 H 0.81021 0.16291 0.61858
 H144 H 0.87622 0.18847 0.67289
 C145 C 1.33992 0.35729 0.68864
 C146 C 1.35900 0.33503 0.68571
 C147 C 1.35723 0.31639 0.66301
 C148 C 1.33519 0.32006 0.64360
 C149 C 1.31599 0.34202 0.64631
 C150 C 1.31840 0.36045 0.66902
 H151 H 1.37523 0.33217 0.70125
 H152 H 1.33196 0.30545 0.62673
 H153 H 1.30324 0.37705 0.67173
 C154 C 1.35861 0.85296 1.17762
 C155 C 1.33451 0.86723 1.16878
 C156 C 1.31945 0.85810 1.14546
 C157 C 1.32825 0.83395 1.13130
 C158 C 1.35228 0.81928 1.13971
 C159 C 1.36727 0.82908 1.16312
 H160 H 1.32693 0.88513 1.18031
 H161 H 1.31603 0.82609 1.11400
 H162 H 1.38533 0.81811 1.17101
 C163 C 0.85593 0.34495 1.18655
 C164 C 0.86499 0.32201 1.17077
 C165 C 0.85047 0.31351 1.14653
 C166 C 0.82640 0.32846 1.13868
 C167 C 0.81721 0.35174 1.15405
 C168 C 0.83187 0.35958 1.17812
 H169 H 0.88300 0.31067 1.17827
 H170 H 0.81454 0.32152 1.12075
 H171 H 0.82401 0.37676 1.19052
 C172 C 0.85086 0.84795 0.68491
 C173 C 0.82772 0.86385 0.67609
 C174 C 0.81264 0.85643 0.65208
 C175 C 0.82054 0.83242 0.63714
 C176 C 0.84353 0.81634 0.64558
 C177 C 0.85839 0.82413 0.66967
 H178 H 0.82085 0.88170 0.68811
 H179 H 0.80851 0.82568 0.61925
 H180 H 0.87550 0.81136 0.67716
 C181 C 0.65024 0.64633 0.68409
 C182 C 0.67470 0.63962 0.66917
 C183 C 0.68252 0.65457 0.64498
 C184 C 0.66591 0.67697 0.63616
 C185 C 0.64115 0.68407 0.65068
 C186 C 0.63360 0.66877 0.67477
 H187 H 0.68796 0.62304 0.67695
 H188 H 0.67282 0.68909 0.61826
 H189 H 0.61514 0.67491 0.68651
 C190 C 0.65434 1.15095 1.17545
 C191 C 0.68191 1.14304 1.16906
 C192 C 0.69878 1.15956 1.15158
 C193 C 0.68815 1.18429 1.14066
 C194 C 0.66000 1.19176 1.14466
 C195 C 0.64301 1.17509 1.16267
 H196 H 0.69045 1.12425 1.17833
 H197 H 0.70154 1.19675 1.12706
 H198 H 0.62146 1.18072 1.16699
 C199 C 0.14853 0.66606 1.19511
 C200 C 0.14145 0.69213 1.18396
 C201 C 0.14790 0.69898 1.15616
 C202 C 0.16549 0.68116 1.14070
 C203 C 0.17563 0.65644 1.15243
 C204 C 0.16628 0.64822 1.17935
 H205 H 0.12801 0.70597 1.19601
 H206 H 0.17253 0.68681 1.11985
 H207 H 0.17315 0.62847 1.18792
 C208 C 0.14591 1.13702 0.67682
 C209 C 0.12928 1.15974 0.66860
 C210 C 0.13568 1.17512 0.64433
 C211 C 0.15984 1.16783 0.62867
 C212 C 0.17691 1.14556 0.63696
 C213 C 0.16987 1.13037 0.66121
 H214 H 0.11144 1.16582 0.68134
 H215 H 0.16640 1.17983 0.61059
 H216 H 0.18331 1.11373 0.66851
 C217 C 1.35200 0.64057 0.32114
 C218 C 1.32948 0.63447 0.33890
 C219 C 1.32211 0.65255 0.36086
 C220 C 1.33850 0.67646 0.36547
 C221 C 1.36115 0.68323 0.34728
 C222 C 1.36713 0.66532 0.32486
 H223 H 1.31820 0.61515 0.33584
 H224 H 1.33238 0.69021 0.38234
 H225 H 1.38392 0.67051 0.31033
 C226 C 1.35049 1.16027 0.80863
 C227 C 1.32883 1.14819 0.82476
 C228 C 1.31967 1.16125 0.84970
 C229 C 1.33335 1.18557 0.85861
 C230 C 1.35545 1.19743 0.84281
 C231 C 1.36307 1.18494 0.81747
 H232 H 1.31854 1.12967 0.81709
 H233 H 1.32576 1.19550 0.87747
 H234 H 1.37968 1.19401 0.80472
 C235 C 0.84668 0.63791 0.81648
 C236 C 0.82337 0.63295 0.83374
 C237 C 0.81706 0.65080 0.85624
 C238 C 0.83386 0.67433 0.86063
 C239 C 0.85728 0.67974 0.84332
 C240 C 0.86337 0.66159 0.82118
 H241 H 0.81002 0.61529 0.82925
 H242 H 0.82830 0.68862 0.87729
 H243 H 0.88091 0.66620 0.80739
 C244 C 0.84996 1.13655 0.31842
 C245 C 0.82556 1.13182 0.33453
 C246 C 0.81766 1.15043 0.35600
 C247 C 0.83434 1.17383 0.36109
 C248 C 0.85900 1.17871 0.34559
 C249 C 0.86635 1.16035 0.32398
 H250 H 0.81240 1.11408 0.32981
 H251 H 0.82767 1.18855 0.37696
 H252 H 0.88461 1.16511 0.31127
 C253 C 0.65389 0.35830 0.31987
 C254 C 0.67769 0.36378 0.33626
 C255 C 0.68322 0.34812 0.36055
 C256 C 0.66494 0.32678 0.36855
 C257 C 0.64072 0.32090 0.35289
 C258 C 0.63580 0.33637 0.32835
 H259 H 0.69223 0.38001 0.32990
 H260 H 0.67049 0.31448 0.38669
 H261 H 0.61793 0.33060 0.31590
 C262 C 0.65537 0.85251 0.81666
 C263 C 0.63817 0.82955 0.82346
 C264 C 0.64320 0.81346 0.84745
 C265 C 0.66647 0.81970 0.86423
 C266 C 0.68387 0.84236 0.85787
 C267 C 0.67826 0.85867 0.83396
 H268 H 0.62103 0.82369 0.80996
 H269 H 0.67142 0.80673 0.88214
 H270 H 0.69203 0.87580 0.82841
 C271 C 0.13855 0.35015 0.82028
 C272 C 0.13405 0.32733 0.83826
 C273 C 0.15043 0.32340 0.86243
 C274 C 0.17131 0.34293 0.86877
 C275 C 0.17671 0.36554 0.85068
 C276 C 0.16056 0.36881 0.82650
 H277 H 0.11703 0.31312 0.83380
 H278 H 0.18410 0.33974 0.88717
 H279 H 0.16603 0.38565 0.81240
 C280 C 0.15545 0.85883 0.31464
 C281 C 0.13819 0.83592 0.32190
 C282 C 0.14337 0.81991 0.34595
 C283 C 0.16631 0.82675 0.36302
 C284 C 0.18368 0.84943 0.35631
 C285 C 0.17843 0.86491 0.33180
 H286 H 0.12116 0.82948 0.30861
 H287 H 0.17114 0.81417 0.38123
 H288 H 0.19244 0.88171 0.32584
 O289 O 0.96671 0.89986 0.85754
 O290 O 0.96306 0.87003 0.82273
 C291 C 0.95480 0.89201 0.83520
 C292 C 0.93085 0.90836 0.82396
 C293 C 0.91926 0.90165 0.79779
 H294 H 0.92853 0.88511 0.78548
 O295 O 1.02193 1.10253 0.86347
 O296 O 1.02022 1.13563 0.83133
 C297 C 1.02979 1.11245 0.84001
 C298 C 1.05064 1.09722 0.82284
 C299 C 1.05623 1.10581 0.79526
 H300 H 1.04468 1.12308 0.78630
 O301 O 0.85609 0.97594 0.90881
 O302 O 0.82207 0.97829 0.87782
 C303 C 0.83269 0.96747 0.89960
 C304 C 0.81818 0.94399 0.91348
 C305 C 0.79145 0.93601 0.90473
 H306 H 0.78074 0.94822 0.88892
 O307 O 1.13780 1.02674 0.88847
 O308 O 1.16746 1.02798 0.85283
 C309 C 1.15982 1.03641 0.87691
 C310 C 1.17656 1.05793 0.89136
 C311 C 1.20264 1.06617 0.88049
 H312 H 1.21084 1.05611 0.86185
 O313 O 0.89955 0.85996 0.96995
 O314 O 0.86649 0.82786 0.97152
 C315 C 0.88900 0.83757 0.96080
 C316 C 0.90287 0.82276 0.93734
 C317 C 0.89442 0.79583 0.93019
 H318 H 0.87807 0.78564 0.94233
 O319 O 1.10773 1.13524 0.96748
 O320 O 1.14106 1.16704 0.96618
 C321 C 1.11755 1.15790 0.95770
 C322 C 1.10173 1.17303 0.93558
 C323 C 1.11327 1.19659 0.92201
 H324 H 1.13353 1.20449 0.92828
 O325 O 0.89462 1.03055 0.87055
 O326 O 0.86071 1.03209 0.83936
 C327 C 0.88417 1.04063 0.84833
 C328 C 0.89905 1.06275 0.83275
 C329 C 0.89096 1.06929 0.80544
 H330 H 0.87439 1.05739 0.79564
 O331 O 1.09543 0.97399 0.85204
 O332 O 1.12521 0.97545 0.81652
 C333 C 1.10313 0.96569 0.82795
 C334 C 1.08665 0.94423 0.81303
 C335 C 1.09332 0.93775 0.78519
 H336 H 1.10987 0.94909 0.77444
 O337 O 1.02419 0.85773 0.88625
 O338 O 1.02167 0.82785 0.85140
 C339 C 1.03338 0.83620 0.87370
 C340 C 1.05877 0.82208 0.88492
 C341 C 1.07238 0.80001 0.87064
 H342 H 1.06360 0.79172 0.85153
 O343 O 0.97128 1.14176 0.90619
 O344 O 0.96950 1.17506 0.87433
 C345 C 0.96133 1.16477 0.89755
 C346 C 0.93942 1.17899 0.91446
 C347 C 0.92873 1.20523 0.90661
 H348 H 0.93742 1.21590 0.88852
 O349 O 0.86350 1.10160 0.98513
 O350 O 0.83100 1.13404 0.98915
 C351 C 0.84017 1.11195 0.97771
 C352 C 0.82390 1.09858 0.95507
 C353 C 0.79765 1.10916 0.94735
 H354 H 0.78883 1.12663 0.95872
 O355 O 1.13860 0.89831 0.95485
 O356 O 1.17170 0.86621 0.95335
 C357 C 1.16162 0.88924 0.94505
 C358 C 1.17659 0.90538 0.92343
 C359 C 1.20456 0.89957 0.91715
 H360 H 1.21551 0.88361 0.92893
 O361 O 0.96773 1.10484 0.86666
 O362 O 0.96609 1.13790 0.83450
 C363 C 0.95707 1.11504 0.84453
 C364 C 0.93393 1.09989 0.83069
 C365 C 0.92501 1.10675 0.80333
 H366 H 0.93519 1.12345 0.79184
 O367 O 1.02118 0.89949 0.85228
 O368 O 1.01800 0.87001 0.81710
 C369 C 1.02874 0.89168 0.82799
 C370 C 1.05072 0.90776 0.81279
 C371 C 1.05837 0.90107 0.78505
 H372 H 1.04764 0.88444 0.77421
 O373 O 1.13851 0.97280 0.88499
 O374 O 1.16864 0.97390 0.84977
 C375 C 1.16062 0.96379 0.87309
 C376 C 1.17638 0.94115 0.88704
 C377 C 1.20443 0.93444 0.88012
 H378 H 1.21534 0.94573 0.86366
 O379 O 0.85687 1.03058 0.90993
 O380 O 0.82300 1.03268 0.87880
 C381 C 0.83405 1.04124 0.90133
 C382 C 0.82080 1.06426 0.91744
 C383 C 0.79456 1.07541 0.90976
 H384 H 0.78331 1.06628 0.89246
 O385 O 0.90282 1.13866 0.98441
 O386 O 0.87049 1.17130 0.98830
 C387 C 0.89259 1.16183 0.97673
 C388 C 0.90609 1.17746 0.95357
 C389 C 0.89612 1.20379 0.94583
 H390 H 0.87916 1.21325 0.95767
 O391 O 1.10127 0.85913 0.95301
 O392 O 1.13446 0.82718 0.95106
 C393 C 1.11154 0.83715 0.94220
 C394 C 1.09725 0.82344 0.91854
 C395 C 1.11059 0.80189 0.90395
 H396 H 1.13104 0.79468 0.91059
 O397 O 1.09609 1.02823 0.85406
 O398 O 1.12546 1.02974 0.81820
 C399 C 1.10362 1.03863 0.83073
 C400 C 1.08693 1.06150 0.81832
 C401 C 1.09238 1.07061 0.79085
 H402 H 1.10822 1.06014 0.77842
 O403 O 0.89322 0.97614 0.86885
 O404 O 0.85915 0.97815 0.83791
 C405 C 0.88218 0.96774 0.84622
 C406 C 0.89581 0.94541 0.82941
 C407 C 0.88490 0.93845 0.80311
 H408 H 0.86711 0.94986 0.79494
 O409 O 1.02626 1.13958 0.90224
 O410 O 1.02470 1.17280 0.87028
 C411 C 1.03609 1.16188 0.89170
 C412 C 1.06177 1.17464 0.90353
 C413 C 1.07384 1.19777 0.89021
 H414 H 1.06362 1.20699 0.87219
 O415 O 0.96970 0.85873 0.89245
 O416 O 0.96644 0.82826 0.85816
 C417 C 0.95890 0.83685 0.88227
 C418 C 0.93683 0.82209 0.89864
 C419 C 0.92759 0.79518 0.89136
 H420 H 0.93721 0.78449 0.87383
 O421 O 1.14596 1.09707 0.96390
 O422 O 1.17959 1.12855 0.96329
 C423 C 1.16852 1.10667 0.95330
 C424 C 1.18117 1.09249 0.92858
 C425 C 1.20724 1.10081 0.91711
 H426 H 1.21900 1.11721 0.92717
 O427 O 0.85898 0.89595 0.97412
 O428 O 0.82557 0.86423 0.97491
 C429 C 0.83532 0.88711 0.96573
 C430 C 0.81953 0.90377 0.94489
 C431 C 0.79290 0.89549 0.93521
 H432 H 0.78319 0.87677 0.94344
 Cu433 Cu 0.99579 0.88176 0.87563
 Cu434 Cu 0.99183 0.84604 0.83386
 Cu435 Cu 0.99674 1.11898 0.88797
 Cu436 Cu 0.99501 1.15888 0.84958
 Cu437 Cu 0.87852 1.00316 0.89278
 Cu438 Cu 0.83782 1.00548 0.85538
 Cu439 Cu 1.11405 1.00021 0.87350
 Cu440 Cu 1.14958 1.00194 0.83065
 C441 C 0.91897 0.93038 0.83962
 H442 H 0.92743 0.93549 0.85997
 C443 C 0.89618 0.91656 0.78731
 C444 C 1.06589 1.07484 0.83415
 H445 H 1.06185 1.06827 0.85554
 C446 C 1.07721 1.09290 0.77931
 C447 C 0.83186 0.92808 0.93386
 H448 H 0.85261 0.93424 0.94052
 C449 C 0.77879 0.91173 0.91505
 C450 C 1.16618 1.07095 0.91552
 H451 H 1.14592 1.06472 0.92380
 C452 C 1.21811 1.08760 0.89292
 C453 C 0.92431 0.83559 0.92171
 H454 H 0.93085 0.85649 0.92718
 C455 C 0.90645 0.78192 0.90733
 C456 C 1.07577 1.16247 0.92633
 H457 H 1.06689 1.14414 0.93628
 C458 C 1.09942 1.20882 0.89910
 C459 C 0.92074 1.07786 0.84513
 H460 H 0.92701 1.07272 0.86630
 C461 C 0.90360 1.09113 0.79057
 C462 C 1.06505 0.92942 0.82658
 H463 H 1.05986 0.93433 0.84813
 C464 C 1.07967 0.91613 0.77119
 C465 C 1.07128 0.83310 0.90913
 H466 H 1.06129 0.85014 0.92019
 C467 C 1.09847 0.79001 0.88021
 C468 C 0.92798 1.16541 0.93804
 H469 H 0.93558 1.14494 0.94385
 C470 C 0.90696 1.21767 0.92229
 C471 C 0.83515 1.07599 0.94017
 H472 H 0.85552 1.06791 0.94591
 C473 C 0.78286 1.09801 0.92467
 C474 C 1.16277 0.92628 0.90857
 H475 H 1.14105 0.93072 0.91360
 C476 C 1.21861 0.91378 0.89564
 O477 O 1.03439 0.89078 1.12753
 O478 O 1.03654 0.85666 1.15856
 C479 C 1.04503 0.88005 1.14936
 C480 C 1.06737 0.89479 1.16447
 C481 C 1.07410 0.88666 1.19173
 H482 H 1.06244 0.86988 1.20166
 O483 O 0.98599 1.09369 1.14116
 O484 O 0.98859 1.12493 1.17480
 C485 C 0.97779 1.10287 1.16477
 C486 C 0.95498 1.08823 1.18038
 C487 C 0.94616 1.09801 1.20666
 H488 H 0.95675 1.11566 1.21596
 O489 O 0.87199 1.02019 1.10907
 O490 O 0.84076 1.01897 1.14336
 C491 C 0.84955 1.02905 1.12029
 C492 C 0.83393 1.05188 1.10688
 C493 C 0.80752 1.05951 1.11723
 H494 H 0.79795 1.04781 1.13425
 O495 O 1.14414 0.96439 1.08854
 O496 O 1.17851 0.96137 1.11907
 C497 C 1.16704 0.95357 1.09645
 C498 C 1.18025 0.93136 1.07948
 C499 C 1.20681 0.92105 1.08667
 H500 H 1.21799 0.93043 1.10387
 O501 O 1.10021 0.85778 1.00754
 O502 O 1.13287 0.82529 1.00534
 C503 C 1.11014 0.83464 1.01563
 C504 C 1.09597 0.81896 1.03813
 C505 C 1.10649 0.79296 1.04629
 H506 H 1.12384 0.78363 1.03492
 O507 O 0.90527 1.13717 1.03873
 O508 O 0.87286 1.16969 1.04278
 C509 C 0.89628 1.15947 1.04996
 C510 C 0.91316 1.17321 1.07190
 C511 C 0.90500 1.19901 1.08335
 H512 H 0.88665 1.20933 1.07519
 O513 O 0.91169 0.96525 1.14427
 O514 O 0.88071 0.96395 1.17875
 C515 C 0.90281 0.95473 1.16710
 C516 C 0.91778 0.93071 1.17930
 C517 C 0.91000 0.91964 1.20550
 H518 H 0.89404 0.93010 1.21774
 O519 O 1.11082 1.01816 1.13201
 O520 O 1.14525 1.01543 1.16250
 C521 C 1.12237 1.02625 1.15446
 C522 C 1.10934 1.04896 1.17088
 C523 C 1.12033 1.05704 1.19683
 H524 H 1.13813 1.04594 1.20538
 O525 O 0.97712 0.85401 1.09221
 O526 O 0.98015 0.81970 1.12292
 C527 C 0.96878 0.83062 1.10159
 C528 C 0.94522 0.81617 1.08802
 C529 C 0.93749 0.78936 1.09666
 H530 H 0.94959 0.77879 1.11265
 O531 O 1.03981 1.13242 1.10099
 O532 O 1.04245 1.16394 1.13438
 C533 C 1.05047 1.15464 1.11070
 C534 C 1.07266 1.16943 1.09436
 C535 C 1.08184 1.19627 1.10209
 H536 H 1.07200 1.20657 1.11971
 O537 O 0.86631 0.89735 1.02821
 O538 O 0.83256 0.86594 1.02937
 C539 C 0.84385 0.88800 1.03895
 C540 C 0.83077 0.90247 1.06304
 C541 C 0.80352 0.89539 1.07122
 H542 H 0.79192 0.88012 1.05926
 O543 O 1.14794 1.09444 1.01870
 O544 O 1.18137 1.12615 1.01855
 C545 C 1.17123 1.10334 1.02781
 C546 C 1.18602 1.08707 1.04982
 C547 C 1.21323 1.09428 1.05870
 H548 H 1.22406 1.11162 1.04892
 O549 O 1.04067 1.09348 1.13894
 O550 O 1.04338 1.12478 1.17253
 C551 C 1.05166 1.10222 1.16144
 C552 C 1.07474 1.08624 1.17432
 C553 C 1.08592 1.09407 1.20031
 H554 H 1.07646 1.11122 1.21153
 O555 O 0.98030 0.88986 1.13258
 O556 O 0.98269 0.85555 1.16335
 C557 C 0.97271 0.87885 1.15565
 C558 C 0.95179 0.89323 1.17340
 C559 C 0.94389 0.88240 1.19961
 H560 H 0.95373 0.86355 1.20732
 O561 O 1.14624 1.01854 1.09067
 O562 O 1.18082 1.01554 1.12097
 C563 C 1.17006 1.02648 1.09924
 C564 C 1.18522 1.04904 1.08422
 C565 C 1.21249 1.05607 1.09215
 H566 H 1.22272 1.04429 1.10858
 O567 O 0.87177 0.96620 1.10782
 O568 O 0.84042 0.96491 1.14197
 C569 C 0.84922 0.95643 1.11825
 C570 C 0.83330 0.93501 1.10243
 C571 C 0.80605 0.92685 1.11079
 H572 H 0.79630 0.93624 1.12901
 O573 O 1.11007 1.13293 1.02205
 O574 O 1.14302 1.16514 1.02120
 C575 C 1.12051 1.15524 1.03168
 C576 C 1.10660 1.16958 1.05556
 C577 C 1.11521 1.19633 1.06348
 H578 H 1.13162 1.20672 1.05160
 O579 O 0.89955 0.85494 1.02445
 O580 O 0.86614 0.82321 1.02607
 C581 C 0.88970 0.83221 1.03421
 C582 C 0.90591 0.81678 1.05560
 C583 C 0.89784 0.79005 1.06511
 H584 H 0.87963 0.77997 1.05630
 O585 O 1.10882 0.96389 1.12993
 O586 O 1.14295 0.96111 1.16077
 C587 C 1.11934 0.95298 1.15177
 C588 C 1.10397 0.93021 1.16614
 C589 C 1.11092 0.92141 1.19350
 H590 H 1.12750 0.93185 1.20473
 O591 O 0.91175 1.01991 1.14547
 O592 O 0.88082 1.01900 1.17997
 C593 C 0.90288 1.02919 1.16881
 C594 C 0.91811 1.05257 1.18249
 C595 C 0.90930 1.06316 1.20867
 H596 H 0.89183 1.05352 1.21956
 O597 O 0.98507 1.13390 1.10497
 O598 O 0.98781 1.16527 1.13851
 C599 C 0.97659 1.15635 1.11623
 C600 C 0.95282 1.17170 1.10388
 C601 C 0.94452 1.19743 1.11497
 H602 H 0.95643 1.20657 1.13187
 O603 O 1.03143 0.85464 1.08730
 O604 O 1.03432 0.82051 1.11822
 C605 C 1.04177 0.83155 1.09512
 C606 C 1.06314 0.81772 1.07751
 C607 C 1.07433 0.79194 1.08567
 H608 H 1.06635 0.78154 1.10426
 O609 O 1.13969 0.89482 1.00938
 O610 O 1.17224 0.86223 1.00734
 C611 C 1.16257 0.88442 1.01809
 C612 C 1.17805 0.89780 1.04121
 C613 C 1.20464 0.88782 1.04875
 H614 H 1.21408 0.87082 1.03714
 O615 O 0.86779 1.09800 1.03945
 O616 O 0.83515 1.13030 1.04355
 C617 C 0.84562 1.10710 1.05103
 C618 C 0.83221 1.09060 1.07364
 C619 C 0.80608 1.09842 1.08480
 H620 H 0.79520 1.11637 1.07637
 Cu621 Cu 1.00551 0.87576 1.10673
 Cu622 Cu 1.00878 0.83458 1.14381
 Cu623 Cu 1.01274 1.11028 1.11813
 Cu624 Cu 1.01585 1.14785 1.15841
 Cu625 Cu 0.88440 0.88010 0.99896
 Cu626 Cu 0.84432 0.84223 1.00054
 Cu627 Cu 1.11661 0.88080 0.98134
 Cu628 Cu 1.15608 0.84192 0.97911
 Cu629 Cu 0.88808 1.11559 1.01162
 Cu630 Cu 0.84908 1.15458 1.01637
 Cu631 Cu 1.12474 1.11171 0.99306
 Cu632 Cu 1.16458 1.14991 0.99234
 Cu633 Cu 0.89505 0.99292 1.12337
 Cu634 Cu 0.85767 0.99158 1.16460
 Cu635 Cu 1.12396 0.99149 1.10734
 Cu636 Cu 1.16539 0.98809 1.14385
 C637 C 1.08210 0.91677 1.15192
 H638 H 1.07687 0.92302 1.13076
 C639 C 1.09567 0.89968 1.20645
 C640 C 0.94098 1.06532 1.16861
 H641 H 0.94756 1.05777 1.14824
 C642 C 0.92328 1.08596 1.22085
 C643 C 0.84597 1.06723 1.08480
 H644 H 0.86647 1.06144 1.07684
 C645 C 0.79376 1.08289 1.10664
 C646 C 1.16606 0.91971 1.05660
 H647 H 1.14541 0.92727 1.05113
 C648 C 1.21900 0.89901 1.07159
 C649 C 1.07396 0.83105 1.05354
 H650 H 1.06611 0.85139 1.04758
 C651 C 1.09635 0.77983 1.07037
 C652 C 0.93720 1.15989 1.08219
 H653 H 0.94334 1.13982 1.07383
 C654 C 0.92061 1.21122 1.10511
 C655 C 0.93882 0.91751 1.16359
 H656 H 0.94457 0.92571 1.14317
 C657 C 0.92286 0.89526 1.21571
 C658 C 1.08645 1.06357 1.15994
 H659 H 1.07813 1.05770 1.13974
 C660 C 1.10893 1.07965 1.21166
 C661 C 0.92961 0.82955 1.06725
 H662 H 0.93559 0.85033 1.06061
 C663 C 0.91382 0.77623 1.08565
 C664 C 1.08513 1.15640 1.07098
 H665 H 1.07849 1.13566 1.06508
 C666 C 1.10312 1.20990 1.08661
 C667 C 0.84543 0.92259 1.07848
 H668 H 0.86653 0.92821 1.07211
 C669 C 0.79108 0.90718 1.09496
 C670 C 1.17228 1.06438 1.06280
 H671 H 1.15114 1.05901 1.05667
 C672 C 1.22654 1.07867 1.07988
 O673 O 0.96238 0.39996 0.36484
 O674 O 0.96067 0.36891 0.33093
 C675 C 0.95189 0.39131 0.34206
 C676 C 0.92919 0.40752 0.32861
 C677 C 0.91876 0.39997 0.30217
 H678 H 0.92799 0.38250 0.29124
 O679 O 1.02379 0.60774 0.36326
 O680 O 1.02292 0.64076 0.33108
 C681 C 1.03258 0.61771 0.34012
 C682 C 1.05429 0.60195 0.32409
 C683 C 1.06495 0.61138 0.29800
 H684 H 1.05751 0.63072 0.28897
 O685 O 0.85828 0.47772 0.41002
 O686 O 0.82457 0.47929 0.37866
 C687 C 0.83505 0.46888 0.40078
 C688 C 0.82025 0.44571 0.41511
 C689 C 0.79323 0.43850 0.40661
 H690 H 0.78282 0.45082 0.39068
 O691 O 1.13219 0.52828 0.39333
 O692 O 1.16273 0.52851 0.35843
 C693 C 1.15427 0.53800 0.38185
 C694 C 1.16990 0.56103 0.39548
 C695 C 1.19383 0.57235 0.38257
 H696 H 1.20137 0.56357 0.36302
 O697 O 0.89471 0.35827 0.47689
 O698 O 0.86144 0.32634 0.47722
 C699 C 0.88431 0.33586 0.46744
 C700 C 0.89869 0.32110 0.44447
 C701 C 0.89039 0.29425 0.43668
 H702 H 0.87378 0.28385 0.44828
 O703 O 1.10204 0.63862 0.47201
 O704 O 1.13498 0.67086 0.47221
 C705 C 1.11165 0.66180 0.46332
 C706 C 1.09590 0.67817 0.44227
 C707 C 1.10461 0.70513 0.43513
 H708 H 1.12232 0.71433 0.44581
 O709 O 0.89618 0.53266 0.37105
 O710 O 0.86260 0.53342 0.33952
 C711 C 0.88590 0.54240 0.34860
 C712 C 0.90082 0.56454 0.33278
 C713 C 0.89262 0.57092 0.30544
 H714 H 0.87593 0.55903 0.29586
 O715 O 1.09194 0.47380 0.35689
 O716 O 1.12282 0.47340 0.32232
 C717 C 1.10049 0.46409 0.33357
 C718 C 1.08435 0.44147 0.31985
 C719 C 1.09162 0.43158 0.29288
 H720 H 1.10899 0.44088 0.28155
 O721 O 1.01944 0.36132 0.39883
 O722 O 1.01773 0.33010 0.36506
 C723 C 1.02870 0.33928 0.38743
 C724 C 1.05292 0.32448 0.39977
 C725 C 1.06077 0.29833 0.38944
 H726 H 1.04840 0.28860 0.37320
 O727 O 0.97061 0.64420 0.40544
 O728 O 0.96856 0.67756 0.37368
 C729 C 0.95995 0.66681 0.39664
 C730 C 0.93688 0.68003 0.41314
 C731 C 0.92569 0.70613 0.40540
 H732 H 0.93454 0.71727 0.38768
 O733 O 0.85925 0.60221 0.48464
 O734 O 0.82647 0.63453 0.48726
 C735 C 0.83603 0.61226 0.47661
 C736 C 0.82050 0.59839 0.45399
 C737 C 0.79420 0.60835 0.44581
 H738 H 0.78463 0.62555 0.45702
 O739 O 1.13845 0.39868 0.46524
 O740 O 1.17136 0.36656 0.46191
 C741 C 1.16095 0.38974 0.45425
 C742 C 1.17451 0.40647 0.43199
 C743 C 1.20227 0.40131 0.42344
 H744 H 1.21418 0.38531 0.43402
 O745 O 0.96948 0.60752 0.36606
 O746 O 0.96785 0.64023 0.33357
 C747 C 0.95896 0.61730 0.34373
 C748 C 0.93593 0.60166 0.33007
 C749 C 0.92693 0.60818 0.30269
 H750 H 0.93712 0.62473 0.29101
 O751 O 1.01674 0.40065 0.36198
 O752 O 1.01489 0.36950 0.32815
 C753 C 1.02486 0.39184 0.33824
 C754 C 1.04666 0.40703 0.32231
 C755 C 1.05356 0.39823 0.29527
 H756 H 1.04189 0.38133 0.28583
 O757 O 1.13193 0.47395 0.39376
 O758 O 1.16295 0.47447 0.35926
 C759 C 1.15452 0.46510 0.38274
 C760 C 1.17110 0.44355 0.39716
 C761 C 1.19880 0.43832 0.38893
 H762 H 1.20818 0.45061 0.37223
 O763 O 0.85657 0.53218 0.40893
 O764 O 0.82305 0.53352 0.37736
 C765 C 0.83356 0.54220 0.40004
 C766 C 0.81937 0.56454 0.41603
 C767 C 0.79316 0.57510 0.40772
 H768 H 0.78262 0.56607 0.38991
 O769 O 0.89909 0.63875 0.48328
 O770 O 0.86648 0.67121 0.48600
 C771 C 0.88887 0.66170 0.47492
 C772 C 0.90264 0.67734 0.45171
 C773 C 0.89237 0.70357 0.44397
 H774 H 0.87509 0.71268 0.45563
 O775 O 1.10106 0.35952 0.46463
 O776 O 1.13342 0.32693 0.46101
 C777 C 1.11011 0.33725 0.45340
 C778 C 1.09323 0.32354 0.43127
 C779 C 1.10099 0.29741 0.42024
 H780 H 1.11926 0.28685 0.42837
 O781 O 1.09109 0.52844 0.35828
 O782 O 1.12171 0.52782 0.32345
 C783 C 1.09984 0.53783 0.33493
 C784 C 1.08560 0.56158 0.32139
 C785 C 1.09467 0.57046 0.29496
 H786 H 1.11048 0.55862 0.28371
 O787 O 0.89341 0.47806 0.36851
 O788 O 0.85966 0.47942 0.33716
 C789 C 0.88246 0.46916 0.34602
 C790 C 0.89583 0.44607 0.33041
 C791 C 0.88582 0.43838 0.30397
 H792 H 0.86892 0.45013 0.29451
 O793 O 1.02546 0.64502 0.40225
 O794 O 1.02425 0.67864 0.37073
 C795 C 1.03486 0.66793 0.39266
 C796 C 1.05880 0.68142 0.40715
 C797 C 1.06846 0.70826 0.39966
 H798 H 1.05798 0.71990 0.38333
 O799 O 0.96468 0.35918 0.40078
 O800 O 0.96309 0.32798 0.36700
 C801 C 0.95483 0.33676 0.39067
 C802 C 0.93306 0.32139 0.40652
 C803 C 0.92428 0.29453 0.39856
 H804 H 0.93436 0.28433 0.38099
 O805 O 1.13920 0.59959 0.46838
 O806 O 1.17236 0.63158 0.46784
 C807 C 1.16143 0.60963 0.45768
 C808 C 1.17380 0.59599 0.43258
 C809 C 1.19782 0.60699 0.41926
 H810 H 1.20784 0.62521 0.42792
 O811 O 0.85792 0.39789 0.47859
 O812 O 0.82432 0.36636 0.47814
 C813 C 0.83470 0.38918 0.46916
 C814 C 0.82006 0.40596 0.44745
 C815 C 0.79320 0.39851 0.43780
 H816 H 0.78269 0.38036 0.44638
 Cu817 Cu 0.99074 0.38332 0.38514
 Cu818 Cu 0.98896 0.34596 0.34441
 Cu819 Cu 0.99755 0.62297 0.38742
 Cu820 Cu 0.99573 0.66275 0.34917
 Cu821 Cu 0.87950 0.50517 0.39277
 Cu822 Cu 0.83913 0.50658 0.35506
 Cu823 Cu 1.10863 0.50094 0.37900
 Cu824 Cu 1.14556 0.50097 0.33733
 C825 C 0.91764 0.43067 0.34246
 H826 H 0.92524 0.43639 0.36299
 C827 C 0.89690 0.41530 0.28976
 C828 C 1.06504 0.57705 0.33559
 H829 H 1.05799 0.57003 0.35605
 C830 C 1.08511 0.59538 0.28343
 C831 C 0.83339 0.42962 0.43584
 H832 H 0.85433 0.43518 0.44244
 C833 C 0.77974 0.41491 0.41737
 C834 C 1.16022 0.57284 0.42063
 H835 H 1.14151 0.56447 0.43049
 C836 C 1.20797 0.59519 0.39418
 C837 C 0.92021 0.33432 0.42954
 H838 H 0.92647 0.35519 0.43542
 C839 C 0.90289 0.28081 0.41374
 C840 C 1.07277 0.66666 0.42849
 H841 H 1.06603 0.64578 0.43400
 C842 C 1.09134 0.72023 0.41385
 C843 C 0.92270 0.57975 0.34484
 H844 H 0.92907 0.57483 0.36604
 C845 C 0.90534 0.59255 0.29024
 C846 C 1.06181 0.42893 0.33434
 H847 H 1.05649 0.43570 0.35535
 C848 C 1.07609 0.40985 0.28057
 C849 C 1.06909 0.33684 0.42086
 H850 H 1.06315 0.35713 0.42879
 C851 C 1.08475 0.28473 0.39923
 C852 C 0.92512 0.66586 0.43639
 H853 H 0.93305 0.64552 0.44222
 C854 C 0.90335 0.71794 0.42083
 C855 C 0.83275 0.57627 0.43926
 H856 H 0.85320 0.56870 0.44541
 C857 C 0.78055 0.59718 0.42254
 C858 C 1.15920 0.42775 0.41885
 H859 H 1.13766 0.43162 0.42506
 C860 C 1.21457 0.41732 0.40183
 O861 O 1.03171 0.39108 0.63493
 O862 O 1.03341 0.35806 0.66713
 C863 C 1.04217 0.38108 0.65723
 C864 C 1.06489 0.39660 0.67127
 C865 C 1.07310 0.39045 0.69899
 H866 H 1.06258 0.37407 0.71064
 O867 O 0.97545 0.59268 0.63989
 O868 O 0.97814 0.62334 0.67411
 C869 C 0.96761 0.60135 0.66379
 C870 C 0.94583 0.58609 0.67981
 C871 C 0.93891 0.59454 0.70703
 H872 H 0.95011 0.61169 0.71655
 O873 O 0.86325 0.52015 0.60801
 O874 O 0.83209 0.51980 0.64237
 C875 C 0.84121 0.52984 0.61932
 C876 C 0.82642 0.55344 0.60587
 C877 C 0.79980 0.56144 0.61540
 H878 H 0.78972 0.54974 0.63212
 O879 O 1.14310 0.46614 0.59229
 O880 O 1.17624 0.46569 0.62430
 C881 C 1.16608 0.45661 0.60157
 C882 C 1.18085 0.43426 0.58618
 C883 C 1.20784 0.42626 0.59406
 H884 H 1.21835 0.43732 0.61075
 O885 O 1.10154 0.35851 0.51894
 O886 O 1.13371 0.32563 0.51579
 C887 C 1.11128 0.33522 0.52669
 C888 C 1.09664 0.31938 0.54894
 C889 C 1.10495 0.29220 0.55529
 H890 H 1.12167 0.28257 0.54324
 O891 O 0.89924 0.63937 0.53780
 O892 O 0.86662 0.67180 0.54067
 C893 C 0.88987 0.66178 0.54846
 C894 C 0.90616 0.67560 0.57059
 C895 C 0.89868 0.70195 0.58106
 H896 H 0.88123 0.71296 0.57183
 O897 O 0.90216 0.46419 0.64295
 O898 O 0.87151 0.46359 0.67772
 C899 C 0.89365 0.45416 0.66611
 C900 C 0.90954 0.43104 0.67925
 C901 C 0.90226 0.42094 0.70603
 H902 H 0.88537 0.43075 0.71760
 O903 O 1.10543 0.51923 0.63302
 O904 O 1.13844 0.51864 0.66517
 C905 C 1.11531 0.52790 0.65608
 C906 C 1.09959 0.54898 0.67230
 C907 C 1.10714 0.55573 0.69996
 H908 H 1.12479 0.54554 0.70979
 O909 O 0.97534 0.35469 0.59805
 O910 O 0.97707 0.32119 0.62973
 C911 C 0.96622 0.33180 0.60789
 C912 C 0.94228 0.31775 0.59430
 C913 C 0.93437 0.29092 0.60268
 H914 H 0.94656 0.28009 0.61841
 O915 O 1.02977 0.63130 0.60074
 O916 O 1.03196 0.66200 0.63499
 C917 C 1.04013 0.65327 0.61119
 C918 C 1.06193 0.66897 0.59572
 C919 C 1.06781 0.69650 0.60312
 H920 H 1.05586 0.70636 0.61976
 O921 O 0.85870 0.39624 0.53308
 O922 O 0.82513 0.36463 0.53285
 C923 C 0.83570 0.38679 0.54266
 C924 C 0.82128 0.40129 0.56581
 C925 C 0.79413 0.39348 0.57355
 H926 H 0.78347 0.37744 0.56174
 O927 O 1.14277 0.59802 0.52302
 O928 O 1.17595 0.62997 0.52315
 C929 C 1.16600 0.60709 0.53220
 C930 C 1.18085 0.59099 0.55416
 C931 C 1.20730 0.59932 0.56433
 H932 H 1.21765 0.61736 0.55536
 O933 O 1.02975 0.59164 0.63785
 O934 O 1.03205 0.62231 0.67213
 C935 C 1.04007 0.59976 0.66086
 C936 C 1.06193 0.58320 0.67465
 C937 C 1.06886 0.58877 0.70248
 H938 H 1.05726 0.60437 0.71417
 O939 O 0.97727 0.39188 0.63685
 O940 O 0.97883 0.35863 0.66883
 C941 C 0.96880 0.38153 0.65991
 C942 C 0.94662 0.39591 0.67620
 C943 C 0.93929 0.38643 0.70306
 H944 H 0.95054 0.36908 0.71226
 O945 O 1.14230 0.52059 0.59267
 O946 O 1.17528 0.51979 0.62483
 C947 C 1.16521 0.52975 0.60237
 C948 C 1.18017 0.55268 0.58798
 C949 C 1.20665 0.56076 0.59727
 H950 H 1.21651 0.54927 0.61414
 O951 O 0.86008 0.46603 0.60888
 O952 O 0.82897 0.46525 0.64323
 C953 C 0.83753 0.45652 0.61960
 C954 C 0.82188 0.43476 0.60421
 C955 C 0.79468 0.42607 0.61232
 H956 H 0.78440 0.43562 0.63015
 O957 O 1.10383 0.63536 0.52624
 O958 O 1.13649 0.66788 0.52664
 C959 C 1.11381 0.65764 0.53637
 C960 C 1.09858 0.67132 0.55975
 C961 C 1.10470 0.69884 0.56794
 H962 H 1.12086 0.71053 0.55703
 O963 O 0.89614 0.35730 0.53119
 O964 O 0.86295 0.32532 0.53176
 C965 C 0.88630 0.33451 0.54061
 C966 C 0.90248 0.31902 0.56216
 C967 C 0.89448 0.29218 0.57135
 H968 H 0.87626 0.28224 0.56241
 O969 O 1.10463 0.46521 0.63077
 O970 O 1.13773 0.46496 0.66286
 C971 C 1.11474 0.45571 0.65341
 C972 C 1.09983 0.43366 0.66906
 C973 C 1.10728 0.42780 0.69671
 H974 H 1.12360 0.43996 0.70660
 O975 O 0.90177 0.51852 0.64543
 O976 O 0.87109 0.51827 0.68020
 C977 C 0.89331 0.52782 0.66891
 C978 C 0.90925 0.55048 0.68256
 C979 C 0.90205 0.55984 0.70961
 H980 H 0.88515 0.54989 0.72111
 O981 O 0.97535 0.63447 0.60521
 O982 O 0.97797 0.66508 0.63950
 C983 C 0.96719 0.65691 0.61678
 C984 C 0.94442 0.67316 0.60395
 C985 C 0.93697 0.69952 0.61417
 H986 H 0.94874 0.70861 0.63120
 O987 O 1.03004 0.35434 0.59520
 O988 O 1.03190 0.32095 0.62698
 C989 C 1.04017 0.33143 0.60386
 C990 C 1.06216 0.31735 0.58699
 C991 C 1.07107 0.29009 0.59337
 H992 H 1.06107 0.27882 0.61037
 O993 O 1.14242 0.39369 0.51939
 O994 O 1.17508 0.36133 0.51652
 C995 C 1.16554 0.38341 0.52767
 C996 C 1.18077 0.39756 0.55073
 C997 C 1.20769 0.38905 0.55966
 H998 H 1.21817 0.37173 0.54956
 O999 O 0.86272 0.59927 0.53898
 O1000 O 0.82983 0.63146 0.54160
 C1001 C 0.84015 0.60841 0.54981
 C1002 C 0.82596 0.59212 0.57231
 C1003 C 0.79928 0.59990 0.58232
 H1004 H 0.78872 0.61749 0.57289
 Cu1005 Cu 1.00360 0.37629 0.61304
 Cu1006 Cu 1.00547 0.33629 0.65132
 Cu1007 Cu 1.00229 0.60950 0.61734
 Cu1008 Cu 1.00537 0.64626 0.65864
 Cu1009 Cu 0.88021 0.38058 0.50490
 Cu1010 Cu 0.84003 0.34251 0.50502
 Cu1011 Cu 1.11779 0.38090 0.49231
 Cu1012 Cu 1.15663 0.34179 0.48843
 Cu1013 Cu 0.88336 0.61666 0.51105
 Cu1014 Cu 0.84408 0.65550 0.51413
 Cu1015 Cu 1.11881 0.61461 0.49748
 Cu1016 Cu 1.15838 0.65320 0.49747
 Cu1017 Cu 0.88488 0.49211 0.62293
 Cu1018 Cu 0.84783 0.49166 0.66438
 Cu1019 Cu 1.12055 0.49293 0.60890
 Cu1020 Cu 1.16036 0.49220 0.64743
 C1021 C 1.07844 0.41824 0.65657
 H1022 H 1.07265 0.42285 0.63514
 C1023 C 1.09422 0.40638 0.71184
 C1024 C 0.93119 0.56379 0.66785
 H1025 H 0.93646 0.55724 0.64676
 C1026 C 0.91694 0.58192 0.72187
 C1027 C 0.83928 0.56875 0.58415
 H1028 H 0.85997 0.56281 0.57685
 C1029 C 0.78612 0.58463 0.60396
 C1030 C 1.16767 0.42011 0.56431
 H1031 H 1.14678 0.42643 0.55821
 C1032 C 1.22135 0.40373 0.58124
 C1033 C 1.07502 0.33172 0.56464
 H1034 H 1.06869 0.35288 0.55989
 C1035 C 1.09259 0.27746 0.57749
 C1036 C 0.92912 0.66158 0.58205
 H1037 H 0.93467 0.64107 0.57439
 C1038 C 0.91404 0.71403 0.60304
 C1039 C 0.93182 0.41840 0.66457
 H1040 H 0.93728 0.42568 0.64373
 C1041 C 0.91705 0.39852 0.71798
 C1042 C 1.07693 0.56288 0.65984
 H1043 H 1.07147 0.55850 0.63830
 C1044 C 1.09152 0.57550 0.71509
 C1045 C 0.92643 0.33152 0.57384
 H1046 H 0.93249 0.35233 0.56738
 C1047 C 0.91055 0.27803 0.59162
 C1048 C 1.07713 0.65662 0.57383
 H1049 H 1.07249 0.63530 0.56805
 C1050 C 1.08904 0.71156 0.58952
 C1051 C 0.83485 0.42215 0.58093
 H1052 H 0.85595 0.42812 0.57489
 C1053 C 0.78068 0.40545 0.59670
 C1054 C 1.16759 0.56758 0.56616
 H1055 H 1.14698 0.56139 0.55909
 C1056 C 1.22028 0.58408 0.58600
 O1057 O 0.46762 0.91043 0.35113
 O1058 O 0.46618 0.88001 0.31664
 C1059 C 0.45738 0.90228 0.32810
 C1060 C 0.43472 0.91882 0.31496
 C1061 C 0.42415 0.91171 0.28853
 H1062 H 0.43355 0.89459 0.27715
 O1063 O 0.52439 1.11561 0.36406
 O1064 O 0.52354 1.15165 0.33530
 C1065 C 0.53328 1.12797 0.34216
 C1066 C 0.55563 1.11495 0.32492
 C1067 C 0.56601 1.12842 0.30091
 H1068 H 0.55692 1.14809 0.29443
 O1069 O 0.36077 0.98431 0.39691
 O1070 O 0.32679 0.98734 0.36595
 C1071 C 0.33737 0.97599 0.38752
 C1072 C 0.32258 0.95253 0.40144
 C1073 C 0.29598 0.94432 0.39226
 H1074 H 0.28591 0.95578 0.37551
 O1075 O 0.62997 1.03696 0.39301
 O1076 O 0.66304 1.03863 0.36053
 C1077 C 0.65336 1.04620 0.38423
 C1078 C 0.66964 1.06595 0.40147
 C1079 C 0.69752 1.07166 0.39432
 H1080 H 0.70718 1.06107 0.37669
 O1081 O 0.39825 0.86872 0.46412
 O1082 O 0.36533 0.83645 0.46282
 C1083 C 0.38825 0.84652 0.45379
 C1084 C 0.40306 0.83198 0.43099
 C1085 C 0.39613 0.80439 0.42511
 H1086 H 0.38058 0.79380 0.43796
 O1087 O 0.59869 1.14050 0.48006
 O1088 O 0.63207 1.17225 0.48156
 C1089 C 0.60876 1.16376 0.47218
 C1090 C 0.59376 1.18085 0.45130
 C1091 C 0.60343 1.20762 0.44462
 H1092 H 0.62122 1.21617 0.45569
 O1093 O 0.39779 1.04131 0.36059
 O1094 O 0.36400 1.04428 0.32943
 C1095 C 0.38717 1.05283 0.33911
 C1096 C 0.40161 1.07700 0.32603
 C1097 C 0.39204 1.08891 0.30082
 H1098 H 0.37422 1.07982 0.29031
 O1099 O 0.59125 0.98650 0.35010
 O1100 O 0.62407 0.98858 0.31742
 C1101 C 0.60131 0.97829 0.32687
 C1102 C 0.58724 0.95556 0.31138
 C1103 C 0.59779 0.94672 0.28541
 H1104 H 0.61528 0.95771 0.27586
 O1105 O 0.52273 0.86999 0.38559
 O1106 O 0.52163 0.83911 0.35149
 C1107 C 0.53175 0.84772 0.37448
 C1108 C 0.55451 0.83201 0.38833
 C1109 C 0.56256 0.80568 0.37851
 H1110 H 0.55156 0.79648 0.36101
 O1111 O 0.47107 1.14900 0.40862
 O1112 O 0.47017 1.18512 0.37996
 C1113 C 0.46140 1.17274 0.40190
 C1114 C 0.43940 1.18579 0.41952
 C1115 C 0.43010 1.21301 0.41386
 H1116 H 0.44014 1.22486 0.39730
 O1117 O 0.36352 1.10325 0.48385
 O1118 O 0.33037 1.13515 0.48710
 C1119 C 0.34053 1.11360 0.47548
 C1120 C 0.32563 1.10102 0.45162
 C1121 C 0.29919 1.11112 0.44402
 H1122 H 0.28943 1.12748 0.45629
 O1123 O 0.63402 0.90455 0.45884
 O1124 O 0.66723 0.87281 0.45522
 C1125 C 0.65653 0.89584 0.44749
 C1126 C 0.67007 0.91229 0.42466
 C1127 C 0.69656 0.90447 0.41414
 H1128 H 0.70744 0.88718 0.42374
 O1129 O 0.46994 1.11510 0.36649
 O1130 O 0.46892 1.15100 0.33754
 C1131 C 0.45981 1.12723 0.34518
 C1132 C 0.43697 1.11366 0.32945
 C1133 C 0.42707 1.12535 0.30448
 H1134 H 0.43670 1.14418 0.29629
 O1135 O 0.52194 0.90945 0.34864
 O1136 O 0.52113 0.87903 0.31414
 C1137 C 0.53096 0.90110 0.32503
 C1138 C 0.55347 0.91714 0.31066
 C1139 C 0.56469 0.90833 0.28482
 H1140 H 0.55606 0.89015 0.27466
 O1141 O 0.63057 0.98294 0.38734
 O1142 O 0.66333 0.98495 0.35459
 C1143 C 0.65338 0.97393 0.37679
 C1144 C 0.66841 0.95024 0.39021
 C1145 C 0.69491 0.94205 0.38016
 H1146 H 0.70455 0.95340 0.36296
 O1147 O 0.36200 1.03819 0.40157
 O1148 O 0.32798 1.04127 0.37065
 C1149 C 0.33885 1.04853 0.39377
 C1150 C 0.32473 1.06956 0.41155
 C1151 C 0.29821 1.07998 0.40426
 H1152 H 0.28776 1.07153 0.38617
 O1153 O 0.40089 1.14216 0.48681
 O1154 O 0.36774 1.17407 0.48991
 C1155 C 0.39062 1.16541 0.47930
 C1156 C 0.40501 1.18223 0.45751
 C1157 C 0.39601 1.20944 0.45157
 H1158 H 0.37903 1.21850 0.46368
 O1159 O 0.59705 0.86486 0.45817
 O1160 O 0.63014 0.83295 0.45471
 C1161 C 0.60686 0.84297 0.44679
 C1162 C 0.59130 0.82958 0.42365
 C1163 C 0.59923 0.80324 0.41339
 H1164 H 0.61619 0.79213 0.42338
 O1165 O 0.59420 1.04136 0.35236
 O1166 O 0.62698 1.04358 0.31970
 C1167 C 0.60450 1.05290 0.33051
 C1168 C 0.59050 1.07807 0.31864
 C1169 C 0.60063 1.09186 0.29433
 H1170 H 0.61859 1.08351 0.28322
 O1171 O 0.39798 0.98687 0.35734
 O1172 O 0.36416 0.98974 0.32620
 C1173 C 0.38706 0.97910 0.33448
 C1174 C 0.40068 0.95679 0.31796
 C1175 C 0.39045 0.94946 0.29151
 H1176 H 0.37311 0.96097 0.28257
 O1177 O 0.52553 1.14894 0.40657
 O1178 O 0.52480 1.18513 0.37799
 C1179 C 0.53487 1.17264 0.39917
 C1180 C 0.55806 1.18529 0.41516
 C1181 C 0.56832 1.21200 0.40842
 H1182 H 0.55846 1.22395 0.39194
 O1183 O 0.46837 0.86914 0.38619
 O1184 O 0.46686 0.83813 0.35225
 C1185 C 0.45836 0.84688 0.37593
 C1186 C 0.43650 0.83169 0.39210
 C1187 C 0.42859 0.80400 0.38579
 H1188 H 0.43851 0.79310 0.36855
 O1189 O 0.63688 1.10243 0.47498
 O1190 O 0.67045 1.13396 0.47627
 C1191 C 0.65961 1.11246 0.46518
 C1192 C 0.67304 1.09890 0.44045
 C1193 C 0.70086 1.10514 0.43214
 H1194 H 0.71309 1.12007 0.44386
 O1195 O 0.35963 0.90679 0.46719
 O1196 O 0.32679 0.87453 0.46525
 C1197 C 0.33678 0.89775 0.45712
 C1198 C 0.32218 0.91412 0.43523
 C1199 C 0.29563 0.90597 0.42545
 H1200 H 0.28524 0.88817 0.43484
 Cu1201 Cu 0.49520 0.89277 0.37128
 Cu1202 Cu 0.49382 0.85601 0.33011
 Cu1203 Cu 0.49783 1.12857 0.38933
 Cu1204 Cu 0.49670 1.17185 0.35478
 Cu1205 Cu 0.38313 1.01243 0.38210
 Cu1206 Cu 0.34236 1.01597 0.34489
 Cu1207 Cu 0.60805 1.01181 0.37374
 Cu1208 Cu 0.64751 1.01422 0.33473
 C1209 C 0.42295 0.94150 0.32939
 H1210 H 0.43067 0.94684 0.34998
 C1211 C 0.40178 0.92681 0.27679
 C1212 C 0.56774 1.08970 0.33335
 H1213 H 0.55999 1.07954 0.35216
 C1214 C 0.58829 1.11716 0.28531
 C1215 C 0.33539 0.93749 0.42313
 H1216 H 0.35604 0.94359 0.43015
 C1217 C 0.28245 0.92100 0.40384
 C1218 C 0.65766 1.07929 0.42482
 H1219 H 0.63614 1.07470 0.43054
 C1220 C 0.71320 1.09114 0.40924
 C1221 C 0.42348 0.84539 0.41475
 H1222 H 0.42882 0.86680 0.41950
 C1223 C 0.40849 0.79024 0.40272
 C1224 C 0.57086 1.16996 0.43673
 H1225 H 0.56352 1.14915 0.44168
 C1226 C 0.59119 1.22319 0.42307
 C1227 C 0.42432 1.08934 0.33988
 H1228 H 0.43161 1.08049 0.35943
 C1229 C 0.40489 1.11306 0.28984
 C1230 C 0.56485 0.94086 0.32365
 H1231 H 0.55684 0.94740 0.34388
 C1232 C 0.58704 0.92298 0.27220
 C1233 C 0.56884 0.84366 0.41106
 H1234 H 0.56290 0.86412 0.41857
 C1235 C 0.58492 0.79117 0.39071
 C1236 C 0.42686 1.17065 0.44152
 H1237 H 0.43362 1.14951 0.44573
 C1238 C 0.40818 1.22490 0.42967
 C1239 C 0.33821 1.08009 0.43539
 H1240 H 0.35883 1.07250 0.44093
 C1241 C 0.28543 1.10108 0.42029
 C1242 C 0.65622 0.93530 0.41262
 H1243 H 0.63570 0.94127 0.42035
 C1244 C 0.70910 0.91916 0.39177
 O1245 O 0.52916 0.89090 0.63148
 O1246 O 0.52945 0.85579 0.66142
 C1247 C 0.53887 0.87929 0.65327
 C1248 C 0.56156 0.89316 0.66906
 C1249 C 0.56907 0.88359 0.69572
 H1250 H 0.55778 0.86625 0.70504
 O1251 O 0.47326 1.09168 0.64908
 O1252 O 0.47407 1.12182 0.68382
 C1253 C 0.46394 1.10004 0.67256
 C1254 C 0.44066 1.08444 0.68625
 C1255 C 0.42911 1.09301 0.71207
 H1256 H 0.43758 1.11101 0.72272
 O1257 O 0.36375 1.01962 0.60592
 O1258 O 0.33085 1.01696 0.63853
 C1259 C 0.34073 1.02799 0.61631
 C1260 C 0.32555 1.05104 0.60260
 C1261 C 0.29796 1.05736 0.61052
 H1262 H 0.28753 1.04485 0.62641
 O1263 O 0.63842 0.96655 0.59522
 O1264 O 0.67226 0.96361 0.62632
 C1265 C 0.66148 0.95613 0.60321
 C1266 C 0.67558 0.93476 0.58567
 C1267 C 0.70188 0.92406 0.59335
 H1268 H 0.71230 0.93247 0.61150
 O1269 O 0.59861 0.86180 0.51293
 O1270 O 0.63183 0.83005 0.50940
 C1271 C 0.60930 0.83881 0.52072
 C1272 C 0.59588 0.82255 0.54373
 C1273 C 0.60694 0.79670 0.55207
 H1274 H 0.62483 0.78811 0.54096
 O1275 O 0.40138 1.13730 0.54135
 O1276 O 0.36817 1.16918 0.54407
 C1277 C 0.39124 1.15911 0.55250
 C1278 C 0.40621 1.17298 0.57558
 C1279 C 0.39888 1.20004 0.58341
 H1280 H 0.38261 1.21090 0.57197
 O1281 O 0.40236 0.96308 0.63993
 O1282 O 0.37025 0.96102 0.67337
 C1283 C 0.39299 0.95235 0.66243
 C1284 C 0.40849 0.92933 0.67582
 C1285 C 0.40216 0.92128 0.70329
 H1286 H 0.38629 0.93255 0.71503
 O1287 O 0.60177 1.01812 0.63899
 O1288 O 0.63557 1.01558 0.67016
 C1289 C 0.61248 1.02596 0.66191
 C1290 C 0.59834 1.04778 0.67886
 C1291 C 0.60914 1.05537 0.70498
 H1292 H 0.62732 1.04455 0.71309
 O1293 O 0.47348 0.85672 0.59146
 O1294 O 0.47358 0.82127 0.62096
 C1295 C 0.46364 0.83344 0.59947
 C1296 C 0.43996 0.82087 0.58396
 C1297 C 0.42943 0.79446 0.59143
 H1298 H 0.43935 0.78269 0.60801
 O1299 O 0.52757 1.13064 0.61075
 O1300 O 0.52888 1.16118 0.64515
 C1301 C 0.53763 1.15260 0.62140
 C1302 C 0.55988 1.16823 0.60622
 C1303 C 0.56693 1.19516 0.61478
 H1304 H 0.55559 1.20464 0.63205
 O1305 O 0.36021 0.90253 0.52211
 O1306 O 0.32746 0.87019 0.51983
 C1307 C 0.33770 0.89163 0.53136
 C1308 C 0.32392 0.90287 0.55666
 C1309 C 0.30053 0.88922 0.56805
 H1310 H 0.29161 0.87146 0.55730
 O1311 O 0.63809 1.09682 0.52963
 O1312 O 0.67123 1.12881 0.53085
 C1313 C 0.66137 1.10553 0.53889
 C1314 C 0.67700 1.08898 0.55976
 C1315 C 0.70435 1.09660 0.56666
 H1316 H 0.71431 1.11381 0.55568
 O1317 O 0.52819 1.09192 0.64846
 O1318 O 0.52961 1.12185 0.68334
 C1319 C 0.53875 1.09996 0.67144
 C1320 C 0.56247 1.08403 0.68373
 C1321 C 0.57382 1.09142 0.70985
 H1322 H 0.56422 1.10809 0.72169
 O1323 O 0.47474 0.88954 0.63431
 O1324 O 0.47491 0.85438 0.66418
 C1325 C 0.46554 0.87796 0.65655
 C1326 C 0.44348 0.89226 0.67311
 C1327 C 0.43625 0.88380 0.70059
 H1328 H 0.44702 0.86646 0.71031
 O1329 O 0.64073 1.02045 0.60086
 O1330 O 0.67481 1.01783 0.63172
 C1331 C 0.66415 1.02899 0.61010
 C1332 C 0.67855 1.05233 0.59542
 C1333 C 0.70587 1.06095 0.60276
 H1334 H 0.71704 1.05026 0.61928
 O1335 O 0.36207 0.96561 0.60383
 O1336 O 0.32986 0.96282 0.63709
 C1337 C 0.33941 0.95526 0.61345
 C1338 C 0.32463 0.93367 0.59718
 C1339 C 0.30089 0.91988 0.60823
 H1340 H 0.29266 0.92563 0.62860
 O1341 O 0.60086 1.13601 0.53454
 O1342 O 0.63379 1.16819 0.53603
 C1343 C 0.61107 1.15783 0.54555
 C1344 C 0.59623 1.17092 0.56971
 C1345 C 0.60341 1.19782 0.57917
 H1346 H 0.61986 1.20944 0.56863
 O1347 O 0.39874 0.86481 0.51854
 O1348 O 0.36583 0.83257 0.51671
 C1349 C 0.38883 0.84150 0.52656
 C1350 C 0.40375 0.82487 0.54805
 C1351 C 0.39395 0.79828 0.55549
 H1352 H 0.37605 0.78952 0.54475
 O1353 O 0.60301 0.96368 0.63655
 O1354 O 0.63647 0.96091 0.66807
 C1355 C 0.61332 0.95235 0.65829
 C1356 C 0.59823 0.92869 0.67170
 C1357 C 0.60578 0.91853 0.69836
 H1358 H 0.62249 0.92858 0.70974
 O1359 O 0.40128 1.01712 0.64472
 O1360 O 0.36857 1.01496 0.67753
 C1361 C 0.39135 1.02509 0.66813
 C1362 C 0.40581 1.04707 0.68417
 C1363 C 0.39537 1.05522 0.71040
 H1364 H 0.37763 1.04440 0.71967
 O1365 O 0.47325 1.13412 0.61536
 O1366 O 0.47428 1.16462 0.64977
 C1367 C 0.46419 1.15640 0.62668
 C1368 C 0.44141 1.17212 0.61254
 C1369 C 0.43322 1.19931 0.62074
 H1370 H 0.44375 1.20963 0.63785
 O1371 O 0.52831 0.85555 0.59067
 O1372 O 0.52885 0.82013 0.62018
 C1373 C 0.53814 0.83212 0.59821
 C1374 C 0.56119 0.81925 0.58166
 C1375 C 0.57263 0.79344 0.58967
 H1376 H 0.56341 0.78227 0.60716
 O1377 O 0.63654 0.90041 0.51376
 O1378 O 0.66981 0.86874 0.50997
 C1379 C 0.65979 0.89030 0.52175
 C1380 C 0.67488 0.90305 0.54560
 C1381 C 0.70120 0.89277 0.55361
 H1382 H 0.71100 0.87628 0.54156
 O1383 O 0.36299 1.09899 0.53833
 O1384 O 0.32970 1.13075 0.54132
 C1385 C 0.33989 1.10743 0.54864
 C1386 C 0.32506 1.09002 0.56965
 C1387 C 0.29741 1.09619 0.57791
 H1388 H 0.28655 1.11331 0.56797
 Cu1389 Cu 0.50133 0.87664 0.60901
 Cu1390 Cu 0.50181 0.83422 0.64453
 Cu1391 Cu 0.50030 1.10907 0.62760
 Cu1392 Cu 0.50199 1.14528 0.66907
 Cu1393 Cu 0.38241 0.88914 0.49309
 Cu1394 Cu 0.34297 0.85029 0.49087
 Cu1395 Cu 0.61326 0.88607 0.48623
 Cu1396 Cu 0.65311 0.84804 0.48194
 Cu1397 Cu 0.38555 1.11720 0.51238
 Cu1398 Cu 0.34566 1.15548 0.51597
 Cu1399 Cu 0.61535 1.11574 0.50466
 Cu1400 Cu 0.65524 1.15396 0.50637
 Cu1401 Cu 0.38562 0.99153 0.62027
 Cu1402 Cu 0.34664 0.98873 0.66000
 Cu1403 Cu 0.61764 0.99248 0.61486
 Cu1404 Cu 0.65811 0.98919 0.65223
 C1405 C 0.57606 0.91586 0.65735
 H1406 H 0.57037 0.92325 0.63669
 C1407 C 0.59107 0.89601 0.71056
 C1408 C 0.42876 1.06141 0.67251
 H1409 H 0.43681 1.05513 0.65222
 C1410 C 0.40647 1.07834 0.72415
 C1411 C 0.33886 1.06731 0.58199
 H1412 H 0.36029 1.06265 0.57600
 C1413 C 0.28375 1.07991 0.59847
 C1414 C 0.66231 0.92420 0.56167
 H1415 H 0.64183 0.93197 0.55587
 C1416 C 0.71470 0.90280 0.57757
 C1417 C 0.57288 0.83353 0.55858
 H1418 H 0.56449 0.85363 0.55256
 C1419 C 0.59575 0.78214 0.57517
 C1420 C 0.42762 1.15931 0.58999
 H1421 H 0.43327 1.13835 0.58378
 C1422 C 0.41207 1.21345 0.60576
 C1423 C 0.42939 0.91500 0.66102
 H1424 H 0.43434 0.92130 0.63974
 C1425 C 0.41576 0.89864 0.71582
 C1426 C 0.57484 1.06207 0.66851
 H1427 H 0.56661 1.05653 0.64818
 C1428 C 0.59733 1.07721 0.72055
 C1429 C 0.42697 0.83588 0.56219
 H1430 H 0.43452 0.85647 0.55668
 C1431 C 0.40634 0.78313 0.57727
 C1432 C 0.57439 1.15637 0.58345
 H1433 H 0.56893 1.13555 0.57669
 C1434 C 0.58853 1.21008 0.60158
 C1435 C 0.33567 0.92527 0.57118
 H1436 H 0.35417 0.93544 0.56273
 C1437 C 0.28894 0.89744 0.59370
 C1438 C 0.66439 1.06658 0.57389
 H1439 H 0.64317 1.06069 0.56854
 C1440 C 0.71886 1.08308 0.58814
 O1441 O 0.46207 0.40936 0.86245
 O1442 O 0.45930 0.37763 0.82928
 C1443 C 0.45126 0.40057 0.83987
 C1444 C 0.42883 0.41663 0.82568
 C1445 C 0.42084 0.40917 0.79858
 H1446 H 0.43187 0.39256 0.78780
 O1447 O 0.52170 0.60626 0.86876
 O1448 O 0.52189 0.64088 0.83824
 C1449 C 0.53083 0.61725 0.84625
 C1450 C 0.55245 0.60272 0.82946
 C1451 C 0.55972 0.61252 0.80272
 H1452 H 0.54877 0.63030 0.79399
 O1453 O 0.35017 0.48608 0.90228
 O1454 O 0.31658 0.48810 0.87086
 C1455 C 0.32662 0.47782 0.89324
 C1456 C 0.31148 0.45577 0.90915
 C1457 C 0.28436 0.44680 0.90171
 H1458 H 0.27378 0.45625 0.88407
 O1459 O 0.63318 0.52825 0.89805
 O1460 O 0.66453 0.52844 0.86385
 C1461 C 0.65611 0.53701 0.88761
 C1462 C 0.67297 0.55776 0.90289
 C1463 C 0.70021 0.56417 0.89385
 H1464 H 0.70926 0.55314 0.87618
 O1465 O 0.38837 0.37658 0.97599
 O1466 O 0.35473 0.34501 0.97655
 C1467 C 0.37775 0.35423 0.96668
 C1468 C 0.39207 0.33871 0.94411
 C1469 C 0.38250 0.31218 0.93678
 H1470 H 0.36499 0.30297 0.94806
 O1471 O 0.60261 0.63625 0.97795
 O1472 O 0.63624 0.66780 0.97672
 C1473 C 0.61246 0.65904 0.96866
 C1474 C 0.59638 0.67539 0.94797
 C1475 C 0.60532 0.70219 0.94045
 H1476 H 0.62348 0.71121 0.95051
 O1477 O 0.39040 0.53922 0.86442
 O1478 O 0.35762 0.54193 0.83220
 C1479 C 0.38090 0.55007 0.84211
 C1480 C 0.39710 0.57283 0.82843
 C1481 C 0.39035 0.58293 0.80151
 H1482 H 0.37343 0.57335 0.79003
 O1483 O 0.59084 0.47781 0.85885
 O1484 O 0.62211 0.47836 0.82461
 C1485 C 0.59941 0.46918 0.83518
 C1486 C 0.58346 0.44747 0.82024
 C1487 C 0.59170 0.43912 0.79335
 H1488 H 0.60892 0.44968 0.78285
 O1489 O 0.51679 0.36661 0.89664
 O1490 O 0.51306 0.33486 0.86359
 C1491 C 0.52445 0.34358 0.88587
 C1492 C 0.54729 0.32708 0.89891
 C1493 C 0.55472 0.30076 0.88830
 H1494 H 0.54307 0.29203 0.87100
 O1495 O 0.46929 0.64304 0.91177
 O1496 O 0.46971 0.67762 0.88123
 C1497 C 0.46033 0.66660 0.90367
 C1498 C 0.43830 0.68123 0.91991
 C1499 C 0.43102 0.70850 0.91260
 H1500 H 0.44245 0.71915 0.89602
 O1501 O 0.35605 0.60432 0.98681
 O1502 O 0.32540 0.63857 0.98970
 C1503 C 0.33387 0.61608 0.97831
 C1504 C 0.31866 0.60436 0.95396
 C1505 C 0.29339 0.61639 0.94516
 H1506 H 0.28394 0.63306 0.95724
 O1507 O 0.63335 0.39556 0.96596
 O1508 O 0.66494 0.36225 0.96203
 C1509 C 0.65520 0.38575 0.95432
 C1510 C 0.66885 0.40183 0.93130
 C1511 C 0.69514 0.39382 0.92037
 H1512 H 0.70583 0.37613 0.92944
 O1513 O 0.46714 0.60899 0.86943
 O1514 O 0.46768 0.64363 0.83894
 C1515 C 0.45774 0.62051 0.84736
 C1516 C 0.43491 0.60711 0.83138
 C1517 C 0.42816 0.61664 0.80448
 H1518 H 0.44018 0.63352 0.79520
 O1519 O 0.51664 0.40610 0.85936
 O1520 O 0.51385 0.37443 0.82613
 C1521 C 0.52483 0.39644 0.83596
 C1522 C 0.54767 0.41102 0.82066
 C1523 C 0.55682 0.40229 0.79396
 H1524 H 0.54674 0.38483 0.78383
 O1525 O 0.63035 0.47397 0.89563
 O1526 O 0.66169 0.47441 0.86146
 C1527 C 0.65235 0.46412 0.88428
 C1528 C 0.66719 0.44027 0.89742
 C1529 C 0.69341 0.43203 0.88704
 H1530 H 0.70290 0.44360 0.86989
 O1531 O 0.35381 0.53995 0.90462
 O1532 O 0.32041 0.54285 0.87308
 C1533 C 0.33126 0.55099 0.89599
 C1534 C 0.31793 0.57360 0.91288
 C1535 C 0.29309 0.58669 0.90403
 H1536 H 0.28313 0.58013 0.88481
 O1537 O 0.39448 0.64258 0.98647
 O1538 O 0.36390 0.67690 0.98934
 C1539 C 0.38568 0.66627 0.97826
 C1540 C 0.40100 0.68117 0.95543
 C1541 C 0.39325 0.70833 0.94686
 H1542 H 0.37589 0.71890 0.95698
 O1543 O 0.59390 0.35873 0.96654
 O1544 O 0.62501 0.32494 0.96300
 C1545 C 0.60220 0.33621 0.95533
 C1546 C 0.58541 0.32349 0.93271
 C1547 C 0.59256 0.29724 0.92177
 H1548 H 0.60970 0.28579 0.93102
 O1549 O 0.59384 0.53214 0.86091
 O1550 O 0.62505 0.53265 0.82663
 C1551 C 0.60312 0.54251 0.83811
 C1552 C 0.58828 0.56656 0.82535
 C1553 C 0.59577 0.57707 0.79866
 H1554 H 0.61229 0.56707 0.78673
 O1555 O 0.38840 0.48477 0.86365
 O1556 O 0.35546 0.48674 0.83158
 C1557 C 0.37794 0.47592 0.84095
 C1558 C 0.39224 0.45261 0.82591
 C1559 C 0.38386 0.44391 0.79891
 H1560 H 0.36671 0.45428 0.78839
 O1561 O 0.52430 0.64309 0.90823
 O1562 O 0.52434 0.67775 0.87777
 C1563 C 0.53440 0.66606 0.89937
 C1564 C 0.55850 0.67894 0.91391
 C1565 C 0.56827 0.70561 0.90615
 H1566 H 0.55752 0.71734 0.89005
 O1567 O 0.46219 0.37079 0.90050
 O1568 O 0.45848 0.33887 0.86758
 C1569 C 0.45069 0.34899 0.89098
 C1570 C 0.42757 0.33587 0.90710
 C1571 C 0.41746 0.30936 0.89986
 H1572 H 0.42751 0.29799 0.88303
 O1573 O 0.64149 0.59888 0.97407
 O1574 O 0.67547 0.63004 0.97275
 C1575 C 0.66413 0.60807 0.96332
 C1576 C 0.67693 0.59303 0.93943
 C1577 C 0.70404 0.59966 0.92967
 H1578 H 0.71610 0.61562 0.94010
 O1579 O 0.35052 0.41550 0.97819
 O1580 O 0.31694 0.38390 0.97896
 C1581 C 0.32711 0.40649 0.96946
 C1582 C 0.31182 0.42176 0.94739
 C1583 C 0.28455 0.41382 0.94038
 H1584 H 0.27417 0.39744 0.95222
 Cu1585 Cu 0.48986 0.39134 0.88306
 Cu1586 Cu 0.48576 0.35326 0.84335
 Cu1587 Cu 0.49556 0.62193 0.89268
 Cu1588 Cu 0.49586 0.66349 0.85608
 Cu1589 Cu 0.37400 0.51223 0.88675
 Cu1590 Cu 0.33423 0.51518 0.84870
 Cu1591 Cu 0.60884 0.50310 0.88173
 Cu1592 Cu 0.64649 0.50348 0.84072
 C1593 C 0.41473 0.43863 0.83905
 H1594 H 0.42100 0.44452 0.85998
 C1595 C 0.39850 0.42233 0.78513
 C1596 C 0.56657 0.57958 0.84045
 H1597 H 0.56100 0.57205 0.86118
 C1598 C 0.58137 0.60009 0.78723
 C1599 C 0.32493 0.44302 0.93203
 H1600 H 0.34605 0.44910 0.93749
 C1601 C 0.27081 0.42582 0.91752
 C1602 C 0.66162 0.57201 0.92591
 H1603 H 0.64052 0.56716 0.93290
 C1604 C 0.71577 0.58513 0.90688
 C1605 C 0.41481 0.35035 0.92938
 H1606 H 0.42213 0.37098 0.93485
 C1607 C 0.39477 0.29751 0.91464
 C1608 C 0.57270 0.66404 0.93491
 H1609 H 0.56577 0.64326 0.94057
 C1610 C 0.59168 0.71729 0.91946
 C1611 C 0.41949 0.58506 0.84304
 H1612 H 0.42460 0.57778 0.86389
 C1613 C 0.40603 0.60485 0.78934
 C1614 C 0.56118 0.43363 0.83352
 H1615 H 0.55485 0.44004 0.85437
 C1616 C 0.57886 0.41645 0.78023
 C1617 C 0.56266 0.33813 0.92124
 H1618 H 0.55730 0.35854 0.92930
 C1619 C 0.57743 0.28576 0.89936
 C1620 C 0.42351 0.66784 0.94164
 H1621 H 0.42920 0.64675 0.94741
 C1622 C 0.40851 0.72205 0.92554
 C1623 C 0.33054 0.58272 0.93790
 H1624 H 0.35008 0.57341 0.94455
 C1625 C 0.28079 0.60806 0.92015
 C1626 C 0.65515 0.42520 0.91973
 H1627 H 0.63477 0.43136 0.92772
 C1628 C 0.70757 0.40895 0.89817
 O1629 O 0.52925 0.39494 1.13329
 O1630 O 0.52821 0.36107 1.16463
 C1631 C 0.53893 0.38351 1.15522
 C1632 C 0.56289 0.39633 1.17000
 C1633 C 0.57047 0.38671 1.19659
 H1634 H 0.55845 0.37007 1.20632
 O1635 O 0.48368 0.59562 1.14641
 O1636 O 0.48631 0.62695 1.18002
 C1637 C 0.47605 0.60468 1.17027
 C1638 C 0.45436 0.58976 1.18653
 C1639 C 0.44801 0.59791 1.21401
 H1640 H 0.46000 0.61437 1.22380
 O1641 O 0.36381 0.53194 1.11543
 O1642 O 0.33406 0.53117 1.15100
 C1643 C 0.34231 0.54161 1.12786
 C1644 C 0.32696 0.56544 1.11551
 C1645 C 0.30404 0.57706 1.12974
 H1646 H 0.29725 0.56824 1.14960
 O1647 O 0.64437 0.46360 1.09517
 O1648 O 0.67798 0.46089 1.12654
 C1649 C 0.66694 0.45267 1.10384
 C1650 C 0.67981 0.42961 1.08766
 C1651 C 0.70591 0.41842 1.09526
 H1652 H 0.71738 0.42776 1.11231
 O1653 O 0.59728 0.35542 1.02084
 O1654 O 0.62833 0.32156 1.01789
 C1655 C 0.60640 0.33191 1.02904
 C1656 C 0.59107 0.31723 1.05201
 C1657 C 0.59934 0.29084 1.06232
 H1658 H 0.61737 0.28036 1.05335
 O1659 O 0.39931 0.63766 1.04060
 O1660 O 0.36909 0.67228 1.04364
 C1661 C 0.39179 0.66064 1.05132
 C1662 C 0.40938 0.67370 1.07321
 C1663 C 0.40271 0.70032 1.08352
 H1664 H 0.38531 0.71146 1.07445
 O1665 O 0.40241 0.47388 1.14738
 O1666 O 0.37282 0.47300 1.18309
 C1667 C 0.39444 0.46359 1.17067
 C1668 C 0.41057 0.44038 1.18315
 C1669 C 0.40567 0.43150 1.21095
 H1670 H 0.39019 0.44216 1.22363
 O1671 O 0.60896 0.51772 1.13637
 O1672 O 0.64234 0.51537 1.16803
 C1673 C 0.61972 0.52611 1.15907
 C1674 C 0.60621 0.54914 1.17470
 C1675 C 0.61649 0.55733 1.20088
 H1676 H 0.63384 0.54613 1.21017
 O1677 O 0.46943 0.36275 1.09747
 O1678 O 0.46812 0.32901 1.12893
 C1679 C 0.45819 0.34074 1.10727
 C1680 C 0.43278 0.32936 1.09380
 C1681 C 0.42036 0.30445 1.10353
 H1682 H 0.42989 0.29305 1.12059
 O1683 O 0.53595 0.63513 1.10565
 O1684 O 0.53766 0.66657 1.13923
 C1685 C 0.54590 0.65756 1.11565
 C1686 C 0.56785 0.67292 1.10017
 C1687 C 0.57509 0.70005 1.10796
 H1688 H 0.56361 0.71026 1.12471
 O1689 O 0.35216 0.41315 1.03309
 O1690 O 0.31839 0.38173 1.03345
 C1691 C 0.32955 0.40348 1.04348
 C1692 C 0.31689 0.41716 1.06816
 C1693 C 0.29027 0.40936 1.07823
 H1694 H 0.27811 0.39419 1.06680
 O1695 O 0.64302 0.59512 1.02849
 O1696 O 0.67676 0.62653 1.02733
 C1697 C 0.66673 0.60371 1.03664
 C1698 C 0.68263 0.58731 1.05748
 C1699 C 0.70997 0.59505 1.06442
 H1700 H 0.71980 0.61253 1.05376
 O1701 O 0.53796 0.59414 1.14114
 O1702 O 0.54033 0.62549 1.17474
 C1703 C 0.54889 0.60297 1.16360
 C1704 C 0.57196 0.58701 1.17671
 C1705 C 0.58265 0.59497 1.20285
 H1706 H 0.57320 0.61230 1.21384
 O1707 O 0.47492 0.39888 1.13724
 O1708 O 0.47440 0.36499 1.16861
 C1709 C 0.46631 0.38880 1.16040
 C1710 C 0.44632 0.40446 1.17796
 C1711 C 0.44154 0.39616 1.20571
 H1712 H 0.45339 0.37892 1.21438
 O1713 O 0.64702 0.51789 1.09784
 O1714 O 0.68081 0.51566 1.12904
 C1715 C 0.67034 0.52653 1.10715
 C1716 C 0.68464 0.54995 1.09247
 C1717 C 0.71184 0.55868 1.09985
 H1718 H 0.72313 0.54785 1.11620
 O1719 O 0.36161 0.47816 1.11202
 O1720 O 0.33157 0.47714 1.14736
 C1721 C 0.33909 0.46920 1.12306
 C1722 C 0.32182 0.44916 1.10740
 C1723 C 0.29515 0.44143 1.11708
 H1724 H 0.28679 0.45070 1.13606
 O1725 O 0.60839 0.63676 1.03190
 O1726 O 0.64184 0.66847 1.03093
 C1727 C 0.61918 0.65906 1.04132
 C1728 C 0.60478 0.67367 1.06461
 C1729 C 0.61247 0.70073 1.07320
 H1730 H 0.62946 0.71156 1.06267
 O1731 O 0.38989 0.37460 1.03028
 O1732 O 0.35600 0.34331 1.03052
 C1733 C 0.37949 0.35189 1.03936
 C1734 C 0.39434 0.33533 1.06079
 C1735 C 0.38229 0.31062 1.07083
 H1736 H 0.36257 0.30345 1.06229
 O1737 O 0.60771 0.46349 1.13529
 O1738 O 0.64088 0.46073 1.16711
 C1739 C 0.61749 0.45259 1.15746
 C1740 C 0.60144 0.42993 1.17151
 C1741 C 0.60893 0.41976 1.19822
 H1742 H 0.62638 0.42905 1.20911
 O1743 O 0.40533 0.52762 1.14973
 O1744 O 0.37579 0.52697 1.18549
 C1745 C 0.39814 0.53589 1.17394
 C1746 C 0.41580 0.55651 1.18833
 C1747 C 0.40945 0.56512 1.21574
 H1748 H 0.39209 0.55562 1.22693
 O1749 O 0.48108 0.63345 1.10753
 O1750 O 0.48319 0.66474 1.14120
 C1751 C 0.47218 0.65571 1.11876
 C1752 C 0.44859 0.67119 1.10595
 C1753 C 0.44145 0.69770 1.11596
 H1754 H 0.45365 0.70694 1.13260
 O1755 O 0.52405 0.35798 1.09405
 O1756 O 0.52245 0.32419 1.12545
 C1757 C 0.53191 0.33417 1.10264
 C1758 C 0.55328 0.31833 1.08688
 C1759 C 0.56085 0.29163 1.09585
 H1760 H 0.54957 0.28185 1.11307
 O1761 O 0.63668 0.39257 1.02034
 O1762 O 0.66814 0.35910 1.01682
 C1763 C 0.65964 0.38162 1.02795
 C1764 C 0.67618 0.39492 1.05043
 C1765 C 0.70237 0.38416 1.05818
 H1766 H 0.71102 0.36645 1.04704
 O1767 O 0.35653 0.60453 1.04223
 O1768 O 0.32580 0.63863 1.04556
 C1769 C 0.33518 0.61535 1.05410
 C1770 C 0.32246 0.60116 1.07900
 C1771 C 0.29895 0.61221 1.09340
 H1772 H 0.28867 0.63074 1.08555
 Cu1773 Cu 0.49951 0.38197 1.11222
 Cu1774 Cu 0.49824 0.34134 1.14997
 Cu1775 Cu 0.50947 0.61146 1.12176
 Cu1776 Cu 0.51208 0.64911 1.16210
 Cu1777 Cu 0.37350 0.39833 1.00431
 Cu1778 Cu 0.33308 0.36037 1.00478
 Cu1779 Cu 0.61219 0.37885 0.99385
 Cu1780 Cu 0.64979 0.33860 0.98955
 Cu1781 Cu 0.37941 0.61880 1.01369
 Cu1782 Cu 0.34285 0.65983 1.01747
 Cu1783 Cu 0.62056 0.61361 1.00332
 Cu1784 Cu 0.66102 0.65132 1.00178
 Cu1785 Cu 0.38629 0.50291 1.12759
 Cu1786 Cu 0.35048 0.50194 1.17031
 Cu1787 Cu 0.62375 0.49087 1.11301
 Cu1788 Cu 0.66390 0.48788 1.15084
 C1789 C 0.57833 0.41807 1.15771
 H1790 H 0.57255 0.42549 1.13708
 C1791 C 0.59329 0.39814 1.21094
 C1792 C 0.43844 0.56879 1.17398
 H1793 H 0.44307 0.56275 1.15260
 C1794 C 0.42537 0.58611 1.22853
 C1795 C 0.33585 0.57746 1.09011
 H1796 H 0.35398 0.56885 1.07945
 C1797 C 0.28976 0.60012 1.11891
 C1798 C 0.66522 0.41778 1.06514
 H1799 H 0.64487 0.42598 1.05947
 C1800 C 0.71724 0.39552 1.08069
 C1801 C 0.56801 0.33069 1.06464
 H1802 H 0.56200 0.35136 1.05777
 C1803 C 0.58400 0.27799 1.08427
 C1804 C 0.43252 0.65936 1.08444
 H1805 H 0.43769 0.63873 1.07684
 C1806 C 0.41857 0.71239 1.10510
 C1807 C 0.43105 0.42677 1.16691
 H1808 H 0.43463 0.43307 1.14536
 C1809 C 0.42125 0.40927 1.22233
 C1810 C 0.58381 0.56400 1.16286
 H1811 H 0.57595 0.55799 1.14252
 C1812 C 0.60510 0.58034 1.21495
 C1813 C 0.41972 0.34447 1.07219
 H1814 H 0.42888 0.36382 1.06479
 C1815 C 0.39503 0.29502 1.09199
 C1816 C 0.58251 0.66007 1.07834
 H1817 H 0.57684 0.63905 1.07239
 C1818 C 0.59735 0.71407 1.09482
 C1819 C 0.33237 0.43715 1.08278
 H1820 H 0.35311 0.44284 1.07538
 C1821 C 0.27931 0.42146 1.10277
 C1822 C 0.67030 0.56449 1.07126
 H1823 H 0.64913 0.55847 1.06590
 C1824 C 0.72458 0.58119 1.08562
 C1825 C 1.13115 1.14207 1.29126
 C1826 C 1.13390 1.11771 1.27769
 C1827 C 1.11834 1.11176 1.25181
 C1828 C 1.12188 1.08729 1.23877
 H1829 H 1.14756 1.10150 1.28529
 H1830 H 1.10510 1.12784 1.24311
 H1831 H 1.11575 1.15672 1.28339
 H1832 H 1.13617 1.07227 1.24791
 C1833 C 1.15426 0.62258 0.77836
 C1834 C 1.12971 0.60997 0.77456
 C1835 C 1.12474 0.59338 0.74925
 C1836 C 1.09904 0.58438 0.74349
 H1837 H 1.11288 0.61267 0.78969
 H1838 H 1.14140 0.59110 0.73384
 H1839 H 1.17131 0.61871 0.76373
 H1840 H 1.08211 0.58857 0.75817
 C1841 C 0.62232 1.13842 0.80013
 C1842 C 0.62487 1.11435 0.78610
 C1843 C 0.60796 1.10862 0.76095
 C1844 C 0.61078 1.08429 0.74758
 H1845 H 0.63939 1.09843 0.79270
 H1846 H 0.59444 1.12480 0.75285
 H1847 H 0.60622 1.15278 0.79316
 H1848 H 0.62528 1.06911 0.75612
 C1849 C 0.63294 0.64725 1.28770
 C1850 C 0.63140 0.62105 1.27836
 C1851 C 0.61678 0.61433 1.25221
 C1852 C 0.61729 0.58834 1.24219
 H1853 H 0.64111 0.60423 1.28994
 H1854 H 0.60688 0.63100 1.24058
 H1855 H 0.62182 0.66355 1.27658
 H1856 H 0.62873 0.57249 1.25364
 C1857 C 0.85848 0.87263 1.29419
 C1858 C 0.88327 0.86978 1.28103
 C1859 C 0.89021 0.88600 1.25569
 C1860 C 0.91490 0.88219 1.24277
 H1861 H 0.89901 0.85550 1.28855
 H1862 H 0.87453 0.89976 1.24701
 H1863 H 0.84444 0.88873 1.28663
 H1864 H 0.92949 0.86727 1.25161
 C1865 C 0.85239 0.36893 0.79309
 C1866 C 0.87846 0.37150 0.78300
 C1867 C 0.88421 0.38677 0.75679
 C1868 C 0.91006 0.38684 0.74586
 H1869 H 0.89584 0.36193 0.79388
 H1870 H 0.86698 0.39636 0.74568
 H1871 H 0.83545 0.37983 0.78271
 H1872 H 0.92650 0.37572 0.75683
 C1873 C 0.38013 0.83845 0.79169
 C1874 C 0.38866 0.86315 0.78185
 C1875 C 0.40386 0.86644 0.75503
 C1876 C 0.40801 0.89218 0.74510
 H1877 H 0.38257 0.88184 0.79307
 H1878 H 0.40866 0.84838 0.74229
 H1879 H 0.38716 0.81940 0.78175
 H1880 H 0.40149 0.90970 0.75792
 C1881 C 0.36659 0.38648 1.30748
 C1882 C 0.39025 0.38489 1.29235
 C1883 C 0.39358 0.40081 1.26605
 C1884 C 0.41722 0.39836 1.25113
 H1885 H 0.40728 0.37146 1.29858
 H1886 H 0.37605 0.41270 1.25811
 H1887 H 0.35110 0.40166 1.30083
 H1888 H 0.43385 0.38544 1.25954
 C1889 C 0.87333 1.14662 0.70842
 C1890 C 0.87575 1.12274 0.72281
 C1891 C 0.89198 1.12059 0.74898
 C1892 C 0.89361 1.09581 0.76169
 H1893 H 0.86567 1.10399 0.71546
 H1894 H 0.90034 1.13914 0.75873
 H1895 H 0.88599 1.16416 0.71504
 H1896 H 0.88407 1.07803 0.75147
 C1897 C 0.87749 0.64725 0.20646
 C1898 C 0.87915 0.62360 0.22140
 C1899 C 0.89515 0.62144 0.24771
 C1900 C 0.89519 0.59707 0.26135
 H1901 H 0.86839 0.60506 0.21451
 H1902 H 0.90466 0.63980 0.25673
 H1903 H 0.89073 0.66453 0.21261
 H1904 H 0.88454 0.57958 0.25174
 C1905 C 0.36307 1.11972 0.19509
 C1906 C 0.37496 1.13108 0.21767
 C1907 C 0.38154 1.11484 0.24306
 C1908 C 0.39524 1.12721 0.26401
 H1909 H 0.38003 1.15309 0.21760
 H1910 H 0.37629 1.09291 0.24402
 H1911 H 0.35648 1.09811 0.19580
 H1912 H 0.40113 1.14893 0.26149
 C1913 C 0.34920 0.63008 0.70628
 C1914 C 0.37363 0.62911 0.71988
 C1915 C 0.37658 0.61458 0.74708
 C1916 C 0.40093 0.61601 0.76077
 H1917 H 0.39187 0.63942 0.71110
 H1918 H 0.35863 0.60416 0.75632
 H1919 H 0.33153 0.61848 0.71467
 H1920 H 0.41793 0.62769 0.75111
 C1921 C 1.11352 0.85374 0.69730
 C1922 C 1.10701 0.87939 0.70598
 C1923 C 1.09130 0.88408 0.73223
 C1924 C 1.08901 0.90991 0.74232
 H1925 H 1.11458 0.89733 0.69435
 H1926 H 1.08418 0.86639 0.74451
 H1927 H 1.10476 0.83590 0.70828
 H1928 H 1.09786 0.92701 0.73024
 C1929 C 1.13754 0.37745 0.20391
 C1930 C 1.11309 0.37704 0.21770
 C1931 C 1.10823 0.39537 0.24203
 C1932 C 1.08253 0.39744 0.25294
 H1933 H 1.09622 0.36355 0.21114
 H1934 H 1.12586 0.40545 0.25199
 H1935 H 1.15265 0.39313 0.21015
 H1936 H 1.06564 0.38643 0.24261
 C1937 C 0.62542 0.85360 0.20631
 C1938 C 0.62076 0.88006 0.21373
 C1939 C 0.60246 0.88738 0.23758
 C1940 C 0.60059 0.91396 0.24576
 H1941 H 0.63141 0.89675 0.20261
 H1942 H 0.59253 0.87090 0.24960
 H1943 H 0.61360 0.83703 0.21638
 H1944 H 0.61203 0.92966 0.23394
 C1945 C 0.61719 0.34964 0.71234
 C1946 C 0.61020 0.37565 0.71944
 C1947 C 0.59320 0.38178 0.74455
 C1948 C 0.58978 0.40824 0.75246
 H1949 H 0.61812 0.39297 0.70707
 H1950 H 0.58584 0.36486 0.75778
 H1951 H 0.60812 0.33221 0.72372
 H1952 H 0.59883 0.42462 0.73953
 C1953 C 1.30225 1.14044 1.11196
 C1954 C 1.29179 1.11494 1.10807
 C1955 C 1.26559 1.11054 1.09243
 C1956 C 1.25499 1.08489 1.09034
 H1957 H 1.30235 1.09704 1.11700
 H1958 H 1.25407 1.12835 1.08456
 H1959 H 1.29232 1.15803 1.10174
 H1960 H 1.26652 1.06774 1.09964
 C1961 C 1.29560 0.64695 0.61869
 C1962 C 1.28232 0.62238 0.61833
 C1963 C 1.25820 0.61717 0.59983
 C1964 C 1.24757 0.59146 0.59856
 H1965 H 1.28915 0.60544 0.63161
 H1966 H 1.24816 0.63443 0.58922
 H1967 H 1.28958 0.66233 0.60313
 H1968 H 1.25815 0.57507 0.61011
 C1969 C 0.79626 1.11555 0.64830
 C1970 C 0.78333 1.11322 0.62358
 C1971 C 0.75849 1.09530 0.61964
 C1972 C 0.74736 1.09353 0.59409
 H1973 H 0.79073 1.12493 0.60560
 H1974 H 0.74800 1.08612 0.63763
 H1975 H 0.78999 1.10135 0.66493
 H1976 H 0.75817 1.10386 0.57688
 C1977 C 0.79683 0.61732 1.14850
 C1978 C 0.78811 0.61100 1.12276
 C1979 C 0.76264 0.59429 1.11807
 C1980 C 0.75298 0.59143 1.09205
 H1981 H 0.79930 0.61926 1.10471
 H1982 H 0.75052 0.58676 1.13583
 H1983 H 0.78650 0.60791 1.16649
 H1984 H 0.76483 0.60063 1.07487
 C1985 C 1.29740 0.87389 0.84247
 C1986 C 1.28386 0.88047 0.86618
 C1987 C 1.25865 0.89829 0.86654
 C1988 C 1.24821 0.90624 0.89124
 H1989 H 1.29112 0.87241 0.88607
 H1990 H 1.24697 0.90175 0.84744
 H1991 H 1.29163 0.88490 0.82347
 H1992 H 1.26008 0.90144 0.90998
 C1993 C 1.30163 0.36435 0.38412
 C1994 C 1.28620 0.38754 0.38178
 C1995 C 1.25875 0.39016 0.39571
 C1996 C 1.24369 0.41330 0.39185
 H1997 H 1.29333 0.40506 0.36940
 H1998 H 1.25044 0.37266 0.40745
 H1999 H 1.29433 0.34841 0.39861
 H2000 H 1.25264 0.42983 0.37905
 C2001 C 0.78841 0.85575 0.36968
 C2002 C 0.77657 0.88109 0.36891
 C2003 C 0.74930 0.88673 0.38265
 C2004 C 0.73711 0.91179 0.38008
 H2005 H 0.78686 0.89809 0.35803
 H2006 H 0.73891 0.86997 0.39381
 H2007 H 0.77824 0.83949 0.38188
 H2008 H 0.74773 0.92756 0.36760
 C2009 C 0.79025 0.34999 0.87493
 C2010 C 0.77511 0.37343 0.87258
 C2011 C 0.74915 0.37806 0.88889
 C2012 C 0.73519 0.40202 0.88553
 H2013 H 0.78157 0.38995 0.85856
 H2014 H 0.74115 0.36163 0.90229
 H2015 H 0.78382 0.33500 0.89079
 H2016 H 0.74407 0.41741 0.87131
 C2017 C 0.71625 0.87155 1.15689
 C2018 C 0.72645 0.87792 1.13159
 C2019 C 0.75293 0.89331 1.12775
 C2020 C 0.76229 0.89809 1.10177
 H2021 H 0.71532 0.87095 1.11314
 H2022 H 0.76567 0.89844 1.14572
 H2023 H 0.72624 0.87979 1.17544
 H2024 H 0.74943 0.89149 1.08433
 C2025 C 0.70101 0.37420 0.65625
 C2026 C 0.71551 0.37549 0.63217
 C2027 C 0.74075 0.39300 0.62858
 C2028 C 0.75215 0.39505 0.60302
 H2029 H 0.70883 0.36352 0.61425
 H2030 H 0.75103 0.40180 0.64668
 H2031 H 0.70653 0.38872 0.67269
 H2032 H 0.74117 0.38532 0.58577
 C2033 C 0.19804 0.87949 0.63998
 C2034 C 0.22234 0.87058 0.62923
 C2035 C 0.24517 0.88975 0.62131
 C2036 C 0.26615 0.88011 0.60544
 H2037 H 0.22541 0.84855 0.62539
 H2038 H 0.24399 0.91159 0.62685
 H2039 H 0.19556 0.90136 0.64507
 H2040 H 0.26561 0.85847 0.59892
 C2041 C 0.20073 0.35816 1.12570
 C2042 C 0.21288 0.38337 1.12608
 C2043 C 0.23903 0.38940 1.11076
 C2044 C 0.25148 0.41412 1.11429
 H2045 H 0.20382 0.40033 1.13789
 H2046 H 0.24880 0.37322 1.09833
 H2047 H 0.20924 0.34268 1.11147
 H2048 H 0.24167 0.42919 1.12814
 C2049 C 0.70453 1.12463 0.86217
 C2050 C 0.71685 1.12519 0.88729
 C2051 C 0.74303 1.10954 0.89263
 C2052 C 0.75537 1.11086 0.91771
 H2053 H 0.70770 1.13720 0.90419
 H2054 H 0.75263 1.09801 0.87565
 H2055 H 0.71350 1.11139 0.84606
 H2056 H 0.74554 1.12356 0.93378
 C2057 C 0.71148 0.63052 0.35425
 C2058 C 0.71976 0.62774 0.38078
 C2059 C 0.74489 0.61142 0.38779
 C2060 C 0.75356 0.60981 0.41429
 H2061 H 0.70804 0.63765 0.39752
 H2062 H 0.75713 0.60218 0.37103
 H2063 H 0.72261 0.61927 0.33795
 H2064 H 0.74159 0.62050 0.43039
 C2065 C 0.20771 1.12609 0.35727
 C2066 C 0.22114 1.12889 0.38164
 C2067 C 0.24621 1.11221 0.38783
 C2068 C 0.25830 1.11408 0.41292
 H2069 H 0.21396 1.14331 0.39747
 H2070 H 0.25529 1.09973 0.37129
 H2071 H 0.21473 1.10965 0.34333
 H2072 H 0.24861 1.12745 0.42852
 C2073 C 0.22109 0.65214 0.84981
 C2074 C 0.22435 0.64402 0.87637
 C2075 C 0.25098 0.63120 0.88523
 C2076 C 0.25465 0.62202 0.91139
 H2077 H 0.20658 0.64416 0.89067
 H2078 H 0.26765 0.62850 0.86991
 H2079 H 0.23867 0.65025 0.83542
 H2080 H 0.23872 0.62609 0.92716
 C2081 C 1.12365 1.29172 1.14682
 C2082 C 1.12389 1.27883 1.12195
 C2083 C 1.11059 1.25132 1.11779
 C2084 C 1.11328 1.23845 1.09304
 H2085 H 1.13435 1.28844 1.10420
 H2086 H 1.09998 1.24130 1.13522
 H2087 H 1.11185 1.28249 1.16398
 H2088 H 1.12507 1.24900 1.07663
 C2089 C 1.14538 0.79192 0.61899
 C2090 C 1.12059 0.78016 0.61392
 C2091 C 1.11826 0.75307 0.59969
 C2092 C 1.09327 0.74067 0.59842
 H2093 H 1.10156 0.79022 0.62120
 H2094 H 1.13698 0.74244 0.59246
 H2095 H 1.16425 0.78254 0.61045
 H2096 H 1.07524 0.75135 0.60728
 C2097 C 0.64723 1.28877 0.63247
 C2098 C 0.62217 1.27736 0.62768
 C2099 C 0.61904 1.25069 0.61269
 C2100 C 0.59380 1.23869 0.61169
 H2101 H 0.60344 1.28744 0.63567
 H2102 H 0.63737 1.24008 0.60450
 H2103 H 0.66577 1.27939 0.62322
 H2104 H 0.57623 1.24937 0.62145
 C2105 C 0.65770 0.78972 1.12934
 C2106 C 0.63246 0.77991 1.12239
 C2107 C 0.62895 0.75329 1.10736
 C2108 C 0.60322 0.74278 1.10429
 H2109 H 0.61382 0.79123 1.12870
 H2110 H 0.64720 0.74137 1.10102
 H2111 H 0.67629 0.77904 1.12179
 H2112 H 0.58554 0.75460 1.11233
 C2113 C 0.87145 1.28821 0.85643
 C2114 C 0.87537 1.27929 0.88264
 C2115 C 0.89190 1.25404 0.88851
 C2116 C 0.89436 1.24482 0.91481
 H2117 H 0.86616 1.29057 0.90004
 H2118 H 0.90051 1.24218 0.87120
 H2119 H 0.88201 1.27758 0.83935
 H2120 H 0.88427 1.25649 0.93150
 C2121 C 0.87000 0.79072 0.35613
 C2122 C 0.87214 0.78064 0.38212
 C2123 C 0.88841 0.75507 0.38771
 C2124 C 0.89045 0.74513 0.41377
 H2125 H 0.86212 0.79138 0.39944
 H2126 H 0.89755 0.74376 0.37030
 H2127 H 0.88137 0.78038 0.33937
 H2128 H 0.87997 0.75630 0.43056
 C2129 C 0.38437 1.30446 0.36873
 C2130 C 0.38443 1.29251 0.39409
 C2131 C 0.39889 1.26586 0.39896
 C2132 C 0.39700 1.25314 0.42390
 H2133 H 0.37327 1.30204 0.41140
 H2134 H 0.40954 1.25599 0.38154
 H2135 H 0.39688 1.29529 0.35208
 H2136 H 0.38494 1.26311 0.44041
 C2137 C 0.34843 0.79202 0.88073
 C2138 C 0.37335 0.78352 0.89005
 C2139 C 0.37643 0.75877 0.90827
 C2140 C 0.40210 0.75048 0.91555
 H2141 H 0.39211 0.79426 0.88294
 H2142 H 0.35838 0.74581 0.91295
 H2143 H 0.32948 0.78243 0.88889
 H2144 H 0.41985 0.76324 0.90924
 C2145 C 1.12454 0.69620 0.84652
 C2146 C 1.13053 0.72295 0.85153
 C2147 C 1.10893 0.74314 0.86096
 C2148 C 1.11586 0.76990 0.86440
 H2149 H 1.15188 0.73018 0.84854
 H2150 H 1.08819 0.73591 0.86686
 H2151 H 1.10294 0.68926 0.84772
 H2152 H 1.13717 0.77632 0.85965
 C2153 C 1.14819 0.20984 0.36761
 C2154 C 1.12246 0.22060 0.36968
 C2155 C 1.11746 0.24687 0.38488
 C2156 C 1.09157 0.25728 0.38682
 H2157 H 1.10485 0.20985 0.36043
 H2158 H 1.13511 0.25813 0.39340
 H2159 H 1.16527 0.22018 0.37829
 H2160 H 1.07460 0.24596 0.37698
 C2161 C 0.64866 0.71326 0.36735
 C2162 C 0.62315 0.72484 0.36709
 C2163 C 0.61741 0.75146 0.38137
 C2164 C 0.59219 0.76343 0.37915
 H2165 H 0.60615 0.71480 0.35611
 H2166 H 0.63423 0.76171 0.39242
 H2167 H 0.66498 0.72296 0.37965
 H2168 H 0.57636 0.75304 0.36676
 C2169 C 0.64019 0.20677 0.87549
 C2170 C 0.61480 0.21878 0.87504
 C2171 C 0.60945 0.24570 0.88902
 C2172 C 0.58434 0.25813 0.88707
 H2173 H 0.59756 0.20886 0.86436
 H2174 H 0.62650 0.25566 0.89996
 H2175 H 0.65665 0.21659 0.88751
 H2176 H 0.56824 0.24806 0.87477
 C2177 C 0.85134 0.70293 1.12316
 C2178 C 0.87683 0.71284 1.11709
 C2179 C 0.88104 0.73854 1.10054
 C2180 C 0.90705 0.74816 1.09663
 H2181 H 0.89512 0.70215 1.12516
 H2182 H 0.86308 0.75053 1.09371
 H2183 H 0.83308 0.71260 1.11385
 H2184 H 0.92437 0.73610 1.10494
 C2185 C 0.84838 0.20239 0.62513
 C2186 C 0.87379 0.21317 0.62039
 C2187 C 0.87797 0.23935 0.60462
 C2188 C 0.90385 0.24975 0.60213
 H2189 H 0.89202 0.20285 0.62904
 H2190 H 0.86001 0.25092 0.59716
 H2191 H 0.83026 0.21169 0.61521
 H2192 H 0.92107 0.23794 0.61100
 C2193 C 0.37370 0.70996 0.64238
 C2194 C 0.37814 0.71918 0.61623
 C2195 C 0.39375 0.74508 0.61047
 C2196 C 0.39434 0.75558 0.58447
 H2197 H 0.36969 0.70783 0.59862
 H2198 H 0.40307 0.75636 0.62768
 H2199 H 0.38347 0.72073 0.65970
 H2200 H 0.38333 0.74459 0.56804
 C2201 C 0.38535 0.20031 1.13215
 C2202 C 0.37456 0.22359 1.12130
 C2203 C 0.39195 0.24803 1.11437
 C2204 C 0.37993 0.27002 1.10215
 H2205 H 0.35223 0.22484 1.11748
 H2206 H 0.41431 0.24750 1.11809
 H2207 H 0.40738 0.19967 1.13752
 H2208 H 0.35765 0.26903 1.09779
 C2209 C 1.13962 1.12084 0.70249
 C2210 C 1.11363 1.11781 0.71258
 C2211 C 1.10850 1.10347 0.73931
 C2212 C 1.08296 1.10370 0.75088
 H2213 H 1.09593 1.12644 0.70143
 H2214 H 1.12607 1.09443 0.75036
 H2215 H 1.15690 1.11086 0.71323
 H2216 H 1.06613 1.11445 0.74015
 C2217 C 1.13590 0.65881 0.22083
 C2218 C 1.12929 0.63279 0.22833
 C2219 C 1.11152 0.62782 0.25332
 C2220 C 1.09782 0.60382 0.25648
 H2221 H 1.13463 0.61539 0.21490
 H2222 H 1.11028 0.64353 0.26958
 H2223 H 1.12731 0.67549 0.23359
 H2224 H 1.10012 0.58792 0.24052
 C2225 C 0.63848 1.13282 0.19520
 C2226 C 0.62304 1.14265 0.21646
 C2227 C 0.61279 1.12379 0.23903
 C2228 C 0.59904 1.13402 0.26126
 H2229 H 0.61969 1.16492 0.21830
 H2230 H 0.61679 1.10163 0.23753
 H2231 H 0.64294 1.11066 0.19463
 H2232 H 0.59453 1.15618 0.26154
 C2233 C 0.64382 0.63033 0.71007
 C2234 C 0.61808 0.62773 0.72102
 C2235 C 0.61321 0.61228 0.74744
 C2236 C 0.58770 0.61192 0.75917
 H2237 H 0.60033 0.63718 0.71064
 H2238 H 0.63076 0.60261 0.75800
 H2239 H 0.66102 0.61966 0.72027
 H2240 H 0.57092 0.62304 0.74872
 C2241 C 0.86675 0.85457 0.71068
 C2242 C 0.86802 0.88004 0.72189
 C2243 C 0.88348 0.88506 0.74805
 C2244 C 0.88320 0.91027 0.75992
 H2245 H 0.85767 0.89744 0.71187
 H2246 H 0.89396 0.86776 0.75815
 H2247 H 0.87840 0.83781 0.72051
 H2248 H 0.87128 0.92675 0.74995
 C2249 C 0.87123 0.35198 0.21258
 C2250 C 0.87132 0.37743 0.22394
 C2251 C 0.88592 0.38294 0.25050
 C2252 C 0.88493 0.40829 0.26204
 H2253 H 0.86055 0.39447 0.21372
 H2254 H 0.89631 0.36587 0.26106
 H2255 H 0.88334 0.33562 0.22251
 H2256 H 0.87324 0.42449 0.25136
 C2257 C 0.37430 0.86127 0.20293
 C2258 C 0.37474 0.88727 0.21287
 C2259 C 0.38975 0.89374 0.23887
 C2260 C 0.38931 0.91949 0.24945
 H2261 H 0.36398 0.90390 0.20198
 H2262 H 0.39997 0.87694 0.25001
 H2263 H 0.38641 0.84535 0.21356
 H2264 H 0.37763 0.93554 0.23852
 C2265 C 0.34127 0.37663 0.71284
 C2266 C 0.36559 0.38661 0.72234
 C2267 C 0.36742 0.40383 0.74799
 C2268 C 0.39247 0.41306 0.75626
 H2269 H 0.38483 0.38115 0.71144
 H2270 H 0.34916 0.40644 0.76135
 H2271 H 0.32180 0.38328 0.72255
 H2272 H 0.41054 0.40885 0.74301
 C2273 C 1.15127 0.87523 1.29039
 C2274 C 1.12767 0.87510 1.27537
 C2275 C 1.12495 0.89068 1.24881
 C2276 C 1.10054 0.88964 1.23533
 H2277 H 1.10962 0.86335 1.28243
 H2278 H 1.14302 0.90097 1.23962
 H2279 H 1.16788 0.88930 1.28379
 H2280 H 1.08338 0.87834 1.24518
 C2281 C 1.12152 0.35299 0.79634
 C2282 C 1.11966 0.37649 0.78125
 C2283 C 1.10408 0.37809 0.75468
 C2284 C 1.10345 0.40243 0.74107
 H2285 H 1.12990 0.39529 0.78824
 H2286 H 1.09551 0.35940 0.74540
 H2287 H 1.10869 0.33543 0.79011
 H2288 H 1.11318 0.42033 0.75091
 C2289 C 0.65081 0.86938 0.79089
 C2290 C 0.62571 0.87183 0.77875
 C2291 C 0.62189 0.88635 0.75171
 C2292 C 0.59701 0.88502 0.73897
 H2293 H 0.60746 0.86245 0.78855
 H2294 H 0.63961 0.89646 0.74168
 H2295 H 0.66866 0.88006 0.78164
 H2296 H 0.58028 0.87347 0.74924
 C2297 C 0.64960 0.37428 1.29527
 C2298 C 0.62598 0.37383 1.28014
 C2299 C 0.62305 0.38908 1.25335
 C2300 C 0.59897 0.38680 1.23929
 H2301 H 0.60796 0.36211 1.28722
 H2302 H 0.64064 0.40060 1.24479
 H2303 H 0.66628 0.38807 1.28829
 H2304 H 0.58239 0.37430 1.24865
 C2305 C 0.85687 1.11748 1.29478
 C2306 C 0.88297 1.11426 1.28470
 C2307 C 0.88913 1.09789 1.25915
 C2308 C 0.91513 1.09810 1.24832
 H2309 H 0.90029 1.12455 1.29493
 H2310 H 0.87221 1.08749 1.24838
 H2311 H 0.83989 1.10595 1.28526
 H2312 H 0.93110 1.10995 1.25914
 C2313 C 0.85243 0.61874 0.79295
 C2314 C 0.87847 0.61297 0.78439
 C2315 C 0.88387 0.59593 0.75936
 C2316 C 0.91007 0.59318 0.74981
 H2317 H 0.89616 0.62174 0.79545
 H2318 H 0.86638 0.58787 0.74748
 H2319 H 0.83484 0.60878 0.78278
 H2320 H 0.92696 0.60286 0.76137
 C2321 C 0.36045 1.14852 0.78190
 C2322 C 0.36887 1.12217 0.77934
 C2323 C 0.38436 1.11353 0.75399
 C2324 C 0.39297 1.08735 0.75049
 H2325 H 0.36592 1.10760 0.79652
 H2326 H 0.38847 1.12878 0.73764
 H2327 H 0.36500 1.16311 0.76505
 H2328 H 0.38736 1.07163 0.76591
 C2329 C 0.35893 0.62118 1.29825
 C2330 C 0.38535 0.61660 1.29021
 C2331 C 0.39175 0.59964 1.26550
 C2332 C 0.41813 0.59759 1.25626
 H2333 H 0.40246 0.62639 1.30133
 H2334 H 0.37460 0.59107 1.25352
 H2335 H 0.34197 0.61019 1.28807
 H2336 H 0.43466 0.60777 1.26791
 C2337 C 1.14552 1.29946 0.88167
 C2338 C 1.13527 1.27517 0.87266
 C2339 C 1.12728 1.25232 0.89186
 C2340 C 1.11179 1.23141 0.88192
 H2341 H 1.13168 1.27220 0.85048
 H2342 H 1.13225 1.25350 0.91394
 H2343 H 1.15043 1.30190 0.90367
 H2344 H 1.10586 1.23196 0.86000
 C2345 C 1.12540 0.79520 0.35157
 C2346 C 1.12057 0.78512 0.37730
 C2347 C 1.10430 0.75928 0.38188
 C2348 C 1.10236 0.74843 0.40763
 H2349 H 1.12925 0.79565 0.39531
 H2350 H 1.09589 0.74814 0.36410
 H2351 H 1.11548 0.78519 0.33387
 H2352 H 1.11233 0.75940 0.42473
 C2353 C 0.62187 1.29938 0.36026
 C2354 C 0.62117 1.28690 0.38542
 C2355 C 0.60328 1.26250 0.39104
 C2356 C 0.60380 1.25057 0.41638
 H2357 H 0.63402 1.29430 0.40240
 H2358 H 0.59171 1.25320 0.37402
 H2359 H 0.60666 1.29277 0.34483
 H2360 H 0.61659 1.26005 0.43248
 C2361 C 0.62466 0.78946 0.85385
 C2362 C 0.61985 0.78069 0.88006
 C2363 C 0.60367 0.75520 0.88606
 C2364 C 0.60294 0.74506 0.91215
 H2365 H 0.62876 0.79195 0.89750
 H2366 H 0.59441 0.74369 0.86896
 H2367 H 0.61454 0.77892 0.83659
 H2368 H 0.61389 0.75626 0.92849
 C2369 C 0.85838 1.29023 1.13024
 C2370 C 0.88234 1.27594 1.13318
 C2371 C 0.88827 1.25093 1.11625
 C2372 C 0.91290 1.23788 1.11885
 H2373 H 0.89814 1.28237 1.14790
 H2374 H 0.87208 1.24292 1.10274
 H2375 H 0.84424 1.28357 1.11385
 H2376 H 0.92811 1.24668 1.13312
 C2377 C 0.85042 0.79070 0.62971
 C2378 C 0.87607 0.77950 0.62905
 C2379 C 0.88161 0.75317 0.61424
 C2380 C 0.90709 0.74159 0.61512
 H2381 H 0.89327 0.78964 0.63963
 H2382 H 0.86445 0.74274 0.60390
 H2383 H 0.83385 0.78096 0.61776
 H2384 H 0.92337 0.75209 0.62683
 C2385 C 0.37657 1.29403 0.66109
 C2386 C 0.38123 1.27960 0.63745
 C2387 C 0.39855 1.25396 0.63611
 C2388 C 0.40330 1.24260 0.61094
 H2389 H 0.37183 1.28650 0.61807
 H2390 H 0.40449 1.24316 0.65513
 H2391 H 0.38879 1.28867 0.67941
 H2392 H 0.39619 1.25400 0.59263
 C2393 C 0.35962 0.79489 1.12494
 C2394 C 0.38320 0.78023 1.12881
 C2395 C 0.38817 0.75398 1.11372
 C2396 C 0.41218 0.74007 1.11732
 H2397 H 0.39926 0.78714 1.14302
 H2398 H 0.37164 0.74578 1.10075
 H2399 H 0.34520 0.78747 1.10913
 H2400 H 0.42773 0.74896 1.13116
 C2401 C 0.87487 0.70486 0.84717
 C2402 C 0.87942 0.71583 0.87241
 C2403 C 0.89466 0.74228 0.87601
 C2404 C 0.89618 0.75348 0.90153
 H2405 H 0.87103 0.70553 0.89089
 H2406 H 0.90256 0.75339 0.85781
 H2407 H 0.88454 0.71432 0.82885
 H2408 H 0.88678 0.74222 0.91898
 C2409 C 0.87647 0.20370 0.35076
 C2410 C 0.87892 0.21472 0.37633
 C2411 C 0.89356 0.24128 0.38125
 C2412 C 0.89274 0.25253 0.40684
 H2413 H 0.86911 0.20439 0.39408
 H2414 H 0.90304 0.25231 0.36377
 H2415 H 0.88756 0.21313 0.33325
 H2416 H 0.88186 0.24125 0.42339
 C2417 C 0.37767 0.70747 0.34993
 C2418 C 0.37887 0.72301 0.37306
 C2419 C 0.39547 0.74897 0.37410
 C2420 C 0.39928 0.76114 0.39884
 H2421 H 0.36787 0.71662 0.39191
 H2422 H 0.40234 0.75902 0.35489
 H2423 H 0.39119 0.71337 0.33251
 H2424 H 0.39147 0.75045 0.41740
 C2425 C 0.36999 0.22159 0.85083
 C2426 C 0.36832 0.23333 0.87613
 C2427 C 0.38373 0.25909 0.88209
 C2428 C 0.38277 0.27007 0.90769
 H2429 H 0.35605 0.22413 0.89288
 H2430 H 0.39460 0.26968 0.86515
 H2431 H 0.38424 0.23097 0.83567
 H2432 H 0.37069 0.25948 0.92386
 C2433 C 1.13529 0.72276 1.14471
 C2434 C 1.13281 0.72753 1.11724
 C2435 C 1.11650 0.75141 1.10750
 C2436 C 1.11087 0.75481 1.08042
 H2437 H 1.14093 0.71319 1.10176
 H2438 H 1.10938 0.76667 1.12268
 H2439 H 1.12471 0.73697 1.15894
 H2440 H 1.11938 0.74036 1.06515
 C2441 C 1.11838 0.19789 0.63749
 C2442 C 1.11912 0.21135 0.61292
 C2443 C 1.10261 0.23682 0.60830
 C2444 C 1.10366 0.24930 0.58330
 H2445 H 1.13211 0.20403 0.59583
 H2446 H 1.09162 0.24624 0.62577
 H2447 H 1.10316 0.20481 0.65298
 H2448 H 1.11572 0.23945 0.56670
 C2449 C 0.62375 0.70837 0.64223
 C2450 C 0.62353 0.71886 0.61616
 C2451 C 0.60758 0.74429 0.60922
 C2452 C 0.60908 0.75538 0.58343
 H2453 H 0.63543 0.70889 0.59961
 H2454 H 0.59584 0.75453 0.62570
 H2455 H 0.61054 0.71791 0.65810
 H2456 H 0.62218 0.74516 0.56790
 C2457 C 0.65064 0.21522 1.12955
 C2458 C 0.62398 0.22148 1.12386
 C2459 C 0.61779 0.24581 1.10579
 C2460 C 0.59184 0.25104 1.09707
 H2461 H 0.60696 0.20842 1.13127
 H2462 H 0.63443 0.26041 1.10068
 H2463 H 0.66654 0.22827 1.11972
 H2464 H 0.57507 0.23710 1.10346
 C2465 C 1.29487 1.15186 0.86633
 C2466 C 1.28312 1.12661 0.86490
 C2467 C 1.25764 1.12006 0.88155
 C2468 C 1.24535 1.09511 0.87956
 H2469 H 1.29197 1.11077 0.85140
 H2470 H 1.24827 1.13621 0.89433
 H2471 H 1.28580 1.16675 0.88085
 H2472 H 1.25477 1.07986 0.86565
 C2473 C 1.29764 0.64638 0.37933
 C2474 C 1.27543 0.63207 0.37011
 C2475 C 1.25192 0.62357 0.38847
 C2476 C 1.23211 0.60673 0.37818
 H2477 H 1.27455 0.62599 0.34830
 H2478 H 1.25161 0.63003 0.41017
 H2479 H 1.29780 0.65392 0.40071
 H2480 H 1.23420 0.60003 0.35657
 C2481 C 0.79137 1.14718 0.37248
 C2482 C 0.78062 1.12245 0.37964
 C2483 C 0.75378 1.12027 0.39518
 C2484 C 0.74259 1.09524 0.40019
 H2485 H 0.79143 1.10353 0.37354
 H2486 H 0.74213 1.13896 0.40041
 H2487 H 0.78105 1.16593 0.37986
 H2488 H 0.75393 1.07689 0.39327
 C2489 C 0.79229 0.64604 0.87452
 C2490 C 0.78215 0.62056 0.87967
 C2491 C 0.75576 0.61623 0.89524
 C2492 C 0.74420 0.59088 0.89588
 H2493 H 0.79292 0.60244 0.87144
 H2494 H 0.74486 0.63396 0.90412
 H2495 H 0.78218 0.66395 0.88399
 H2496 H 0.75491 0.57393 0.88529
 C2497 C 1.29370 0.87331 1.13745
 C2498 C 1.28354 0.87341 1.11141
 C2499 C 1.25713 0.88777 1.10492
 C2500 C 1.24653 0.88694 1.07907
 H2501 H 1.29462 0.86284 1.09466
 H2502 H 1.24582 0.89787 1.12179
 H2503 H 1.28300 0.88529 1.15351
 H2504 H 1.25773 0.87539 1.06301
 C2505 C 1.29255 0.34438 0.62612
 C2506 C 1.28346 0.36903 0.61673
 C2507 C 1.25824 0.37183 0.59903
 C2508 C 1.24991 0.39724 0.59114
 H2509 H 1.29427 0.38781 0.62317
 H2510 H 1.24516 0.35383 0.59503
 H2511 H 1.28290 0.32542 0.61855
 H2512 H 1.26287 0.41493 0.59675
 C2513 C 0.78776 0.87316 0.64417
 C2514 C 0.77795 0.87453 0.61799
 C2515 C 0.75208 0.88996 0.61150
 C2516 C 0.74193 0.89016 0.58541
 H2517 H 0.78886 0.86403 0.60110
 H2518 H 0.74073 0.89983 0.62847
 H2519 H 0.77732 0.88503 0.66048
 H2520 H 0.75328 0.87888 0.56926
 C2521 C 0.79158 0.36746 1.14637
 C2522 C 0.78147 0.36852 1.12030
 C2523 C 0.75529 0.38349 1.11401
 C2524 C 0.74448 0.38279 1.08822
 H2525 H 0.79243 0.35828 1.10328
 H2526 H 0.74433 0.39398 1.13088
 H2527 H 0.78093 0.37906 1.16275
 H2528 H 0.75526 0.37082 1.07219
 C2529 C 0.72715 1.15101 1.14290
 C2530 C 0.73351 1.12450 1.13766
 C2531 C 0.76038 1.11728 1.12456
 C2532 C 0.76673 1.09081 1.11920
 H2533 H 0.71824 1.10817 1.14143
 H2534 H 0.77515 1.13372 1.11936
 H2535 H 0.74216 1.16717 1.13750
 H2536 H 0.75261 1.07437 1.12598
 C2537 C 0.70870 0.64821 0.62938
 C2538 C 0.71987 0.62267 0.62856
 C2539 C 0.74675 0.61725 0.61427
 C2540 C 0.75805 0.59177 0.61527
 H2541 H 0.70923 0.60543 0.63874
 H2542 H 0.75777 0.63438 0.60432
 H2543 H 0.71880 0.66495 0.61781
 H2544 H 0.74686 0.57554 0.62659
 C2545 C 0.20302 1.13989 0.62103
 C2546 C 0.21490 1.11470 0.62012
 C2547 C 0.24237 1.11042 0.60667
 C2548 C 0.25479 1.08551 0.60818
 H2549 H 0.20467 1.09706 0.63003
 H2550 H 0.25300 1.12808 0.59728
 H2551 H 0.21278 1.15702 0.60976
 H2552 H 0.24388 1.06873 0.61897
 C2553 C 0.19573 0.64007 1.13538
 C2554 C 0.22030 0.63130 1.14535
 C2555 C 0.24252 0.62088 1.12622
 C2556 C 0.26701 0.61212 1.13638
 H2557 H 0.22473 0.63351 1.16749
 H2558 H 0.23879 0.62015 1.10386
 H2559 H 0.19223 0.63916 1.11297
 H2560 H 0.26978 0.61164 1.15892
 C2561 C 0.70843 0.84768 0.87590
 C2562 C 0.71745 0.87337 0.88158
 C2563 C 0.74270 0.87825 0.89859
 C2564 C 0.75112 0.90433 0.90339
 H2565 H 0.70625 0.89118 0.87322
 H2566 H 0.75534 0.86073 0.90526
 H2567 H 0.71871 0.82999 0.88559
 H2568 H 0.73849 0.92132 0.89530
 C2569 C 0.70856 0.35281 0.37755
 C2570 C 0.71783 0.37830 0.38351
 C2571 C 0.74325 0.38252 0.40036
 C2572 C 0.75184 0.40835 0.40594
 H2573 H 0.70658 0.39634 0.37573
 H2574 H 0.75587 0.36474 0.40638
 H2575 H 0.71887 0.33486 0.38671
 H2576 H 0.73935 0.42571 0.39847
 C2577 C 0.20809 0.85577 0.37432
 C2578 C 0.21820 0.88162 0.37706
 C2579 C 0.24416 0.88747 0.39256
 C2580 C 0.25471 0.91331 0.39243
 H2581 H 0.20757 0.89890 0.36705
 H2582 H 0.25540 0.87042 0.40226
 H2583 H 0.21787 0.83878 0.38565
 H2584 H 0.24337 0.92947 0.38129
 C2585 C 0.20032 0.38502 0.85541
 C2586 C 0.20856 0.39259 0.88096
 C2587 C 0.23379 0.40986 0.88511
 C2588 C 0.24256 0.41508 0.91107
 H2589 H 0.19712 0.38514 0.89920
 H2590 H 0.24648 0.41597 0.86719
 H2591 H 0.21098 0.39368 0.83723
 H2592 H 0.23012 0.40738 0.92857
   
