data_POSCAR
  _audit_creation_date              2014-09-24
  _audit_creation_method            'ToBaCCo'
  _symmetry_space_group_name_H-M    'P1'
  _symmetry_Int_Tables_number       1
  _symmetry_cell_setting            triclinic
  loop_
  _symmetry_equiv_pos_as_xyz
 x,y,z
_cell_length_a 89.4909
_cell_length_b 90.1556
_cell_length_c 89.1565
_cell_angle_alpha 90.190300
_cell_angle_beta 90.200400
_cell_angle_gamma 90.208000
loop_
  _atom_site_label
  _atom_site_type_symbol
  _atom_site_fract_x
  _atom_site_fract_y
  _atom_site_fract_z
C1 C 0.32111 0.41646 0.90440
 C2 C 0.32170 0.40514 0.91514
 C3 C 0.33336 0.40473 0.92542
 C4 C 0.34459 0.41562 0.92505
 C5 C 0.34402 0.42677 0.91441
 C6 C 0.33222 0.42719 0.90405
 C7 C 0.31069 0.42014 0.89363
 N8 N 0.31531 0.43276 0.88687
 C9 C 0.32840 0.43721 0.89309
 C10 C 0.35571 0.43634 0.91730
 N11 N 0.36327 0.43119 0.92937
 C12 C 0.35663 0.41859 0.93427
 C13 C 0.33053 0.39318 0.93508
 N14 N 0.31752 0.38666 0.93084
 C15 C 0.31198 0.39383 0.91873
 H16 H 0.30040 0.41427 0.89111
 H17 H 0.33449 0.44716 0.89006
 H18 H 0.35821 0.44654 0.91141
 H19 H 0.36000 0.41237 0.94409
 H20 H 0.33715 0.39003 0.94474
 H21 H 0.30145 0.39129 0.91326
 C22 C 0.41060 0.84983 0.42206
 C23 C 0.39969 0.83864 0.42188
 C24 C 0.39993 0.82778 0.41084
 C25 C 0.41109 0.82800 0.39984
 C26 C 0.42187 0.83907 0.40002
 C27 C 0.42163 0.85005 0.41119
 C28 C 0.41397 0.86084 0.43229
 N29 N 0.42669 0.86764 0.42778
 C30 C 0.43153 0.86118 0.41496
 C31 C 0.43203 0.83578 0.38895
 N32 N 0.42761 0.82306 0.38213
 C33 C 0.41489 0.81814 0.38866
 C34 C 0.38895 0.81761 0.41427
 N35 N 0.38213 0.82213 0.42702
 C36 C 0.38857 0.83491 0.43182
 H37 H 0.40803 0.86326 0.44257
 H38 H 0.44183 0.86392 0.40923
 H39 H 0.44219 0.84184 0.38642
 H40 H 0.40918 0.80788 0.38586
 H41 H 0.38651 0.80738 0.40833
 H42 H 0.38578 0.84068 0.44211
 C43 C 0.90713 0.89391 0.83177
 C44 C 0.89602 0.90484 0.83209
 C45 C 0.89620 0.91560 0.84323
 C46 C 0.90750 0.91558 0.85417
 C47 C 0.91849 0.90479 0.85385
 C48 C 0.91830 0.89388 0.84259
 C49 C 0.91064 0.88317 0.82136
 N50 N 0.92357 0.87669 0.82569
 C51 C 0.92842 0.88311 0.83858
 C52 C 0.92886 0.90842 0.86474
 N53 N 0.92431 0.92105 0.87157
 C54 C 0.91134 0.92559 0.86524
 C55 C 0.88520 0.92569 0.83982
 N56 N 0.87842 0.92124 0.82696
 C57 C 0.88491 0.90858 0.82209
 H58 H 0.90467 0.88076 0.81104
 H59 H 0.93888 0.88065 0.84418
 H60 H 0.93924 0.90270 0.86704
 H61 H 0.90553 0.93575 0.86801
 H62 H 0.88282 0.93590 0.84576
 H63 H 0.88226 0.90297 0.81164
 C64 C 0.40866 -0.10434 0.32738
 C65 C 0.39761 -0.09338 0.32821
 C66 C 0.39786 -0.08311 0.33982
 C67 C 0.40917 -0.08367 0.35072
 C68 C 0.42011 -0.09449 0.34989
 C69 C 0.41985 -0.10488 0.33816
 C70 C 0.41206 -0.11470 0.31654
 N71 N 0.42494 -0.12146 0.32058
 C72 C 0.42987 -0.11558 0.33370
 C73 C 0.43047 -0.09143 0.36096
 N74 N 0.42599 -0.07910 0.36839
 C75 C 0.41305 -0.07422 0.36227
 C76 C 0.38684 -0.07288 0.33691
 N77 N 0.37999 -0.07678 0.32391
 C78 C 0.38644 -0.08923 0.31845
 H79 H 0.40601 -0.11670 0.30618
 H80 H 0.44029 -0.11839 0.33920
 H81 H 0.44082 -0.09728 0.36300
 H82 H 0.40730 -0.06418 0.36553
 H83 H 0.38448 -0.06296 0.34333
 H84 H 0.38370 -0.09440 0.30781
 C85 C 0.83201 0.34247 0.35279
 C86 C 0.83259 0.35342 0.34167
 C87 C 0.84385 0.35314 0.33104
 C88 C 0.85462 0.34190 0.33137
 C89 C 0.85402 0.33104 0.34232
 C90 C 0.84265 0.33134 0.35311
 C91 C 0.82150 0.33913 0.36352
 N92 N 0.82558 0.32634 0.37027
 C93 C 0.83843 0.32142 0.36404
 C94 C 0.86478 0.32068 0.33888
 N95 N 0.87180 0.32510 0.32622
 C96 C 0.86572 0.33800 0.32149
 C97 C 0.84078 0.36406 0.32075
 N98 N 0.82800 0.37088 0.32494
 C99 C 0.82285 0.36452 0.33765
 H100 H 0.81129 0.34515 0.36577
 H101 H 0.84387 0.31106 0.36677
 H102 H 0.86684 0.31035 0.34468
 H103 H 0.86864 0.34367 0.31122
 H104 H 0.84695 0.36642 0.31060
 H105 H 0.81243 0.36729 0.34313
 C106 C -0.15949 0.85137 0.83015
 C107 C -0.14859 0.84024 0.83060
 C108 C -0.14914 0.82943 0.84161
 C109 C -0.16059 0.82965 0.85232
 C110 C -0.17134 0.84067 0.85189
 C111 C -0.17079 0.85158 0.84074
 C112 C -0.16258 0.86231 0.81985
 N113 N -0.17541 0.86907 0.82405
 C114 C -0.18057 0.86265 0.83673
 C115 C -0.18188 0.83731 0.86259
 N116 N -0.17770 0.82459 0.86943
 C117 C -0.16478 0.81974 0.86328
 C118 C -0.13815 0.81925 0.83840
 N119 N -0.13104 0.82370 0.82580
 C120 C -0.13729 0.83645 0.82089
 H121 H -0.15636 0.86475 0.80975
 H122 H -0.19098 0.86539 0.84223
 H123 H -0.19215 0.84326 0.86474
 H124 H -0.15924 0.80944 0.86608
 H125 H -0.13597 0.80902 0.84433
 H126 H -0.13430 0.84212 0.81063
 C127 C 0.92175 0.35335 0.41008
 C128 C 0.92154 0.34277 0.39852
 C129 C 0.91044 0.33203 0.39810
 C130 C 0.89943 0.33172 0.40923
 C131 C 0.89963 0.34216 0.42068
 C132 C 0.91086 0.35305 0.42110
 C133 C 0.93203 0.36406 0.41412
 N134 N 0.92755 0.37020 0.42723
 C135 C 0.91469 0.36359 0.43167
 C136 C 0.88865 0.33823 0.43071
 N137 N 0.88188 0.32576 0.42554
 C138 C 0.88833 0.32163 0.41248
 C139 C 0.91390 0.32232 0.38669
 N140 N 0.92675 0.32698 0.38026
 C141 C 0.93158 0.33942 0.38735
 H142 H 0.94231 0.36674 0.40833
 H143 H 0.90895 0.36583 0.44211
 H144 H 0.88624 0.34359 0.44131
 H145 H 0.88563 0.31166 0.40622
 H146 H 0.90794 0.31224 0.38376
 H147 H 0.94197 0.34514 0.38502
 C148 C 0.42177 0.41356 0.84725
 C149 C 0.42162 0.40257 0.83608
 C150 C 0.41138 0.40333 0.82442
 C151 C 0.40121 0.41510 0.82375
 C152 C 0.40136 0.42598 0.83477
 C153 C 0.41169 0.42519 0.84660
 C154 C 0.43116 0.41624 0.85924
 N155 N 0.42692 0.42912 0.86579
 C156 C 0.41510 0.43474 0.85821
 C157 C 0.39095 0.43648 0.83073
 N158 N 0.38460 0.43213 0.81762
 C159 C 0.39074 0.41913 0.81321
 C160 C 0.41448 0.39190 0.81466
 N161 N 0.42630 0.38430 0.82017
 C162 C 0.43081 0.39067 0.83320
 H163 H 0.44068 0.40964 0.86259
 H164 H 0.40977 0.44525 0.86062
 H165 H 0.38843 0.44666 0.83666
 H166 H 0.38801 0.41326 0.80294
 H167 H 0.40896 0.38961 0.80407
 H168 H 0.44039 0.38723 0.83977
 C169 C 0.82972 0.89625 0.91032
 C170 C 0.82966 0.90718 0.89916
 C171 C 0.84073 0.91796 0.89897
 C172 C 0.85199 0.91797 0.90994
 C173 C 0.85205 0.90718 0.92099
 C174 C 0.84086 0.89626 0.92118
 C175 C 0.81952 0.88545 0.91417
 N176 N 0.82429 0.87897 0.92700
 C177 C 0.83725 0.88545 0.93145
 C178 C 0.86321 0.91086 0.93104
 N179 N 0.86983 0.92351 0.92626
 C180 C 0.86311 0.92801 0.91344
 C181 C 0.83700 0.92798 0.88796
 N182 N 0.82402 0.92346 0.88154
 C183 C 0.81937 0.91082 0.88826
 H184 H 0.80908 0.88298 0.90849
 H185 H 0.84319 0.88299 0.94175
 H186 H 0.86581 0.90519 0.94142
 H187 H 0.86561 0.93820 0.90755
 H188 H 0.84287 0.93815 0.88530
 H189 H 0.80895 0.90513 0.88587
 C190 C 0.32880 0.84988 0.33689
 C191 C 0.32812 0.83888 0.34796
 C192 C 0.33848 0.82749 0.34803
 C193 C 0.34964 0.82697 0.33705
 C194 C 0.35032 0.83784 0.32611
 C195 C 0.33984 0.84936 0.32603
 C196 C 0.31940 0.86140 0.33327
 N197 N 0.32455 0.86779 0.32056
 C198 C 0.33698 0.86057 0.31597
 C199 C 0.36133 0.83379 0.31617
 N200 N 0.36727 0.82082 0.32089
 C201 C 0.36025 0.81649 0.33358
 C202 C 0.33429 0.81769 0.35907
 N203 N 0.32174 0.82293 0.36562
 C204 C 0.31780 0.83582 0.35896
 H205 H 0.30926 0.86450 0.33907
 H206 H 0.34309 0.86291 0.30577
 H207 H 0.36438 0.83949 0.30595
 H208 H 0.36230 0.80620 0.33945
 H209 H 0.33957 0.80722 0.36171
 H210 H 0.30784 0.84212 0.36150
 C211 C 0.83433 0.39446 0.40710
 C212 C 0.83390 0.40544 0.39599
 C213 C 0.84473 0.41646 0.39572
 C214 C 0.85613 0.41664 0.40657
 C215 C 0.85655 0.40579 0.41754
 C216 C 0.84560 0.39464 0.41780
 C217 C 0.82429 0.38360 0.41116
 N218 N 0.82926 0.37725 0.42397
 C219 C 0.84222 0.38387 0.42819
 C220 C 0.86768 0.40966 0.42753
 N221 N 0.87395 0.42250 0.42280
 C222 C 0.86702 0.42694 0.41007
 C223 C 0.84056 0.42652 0.38491
 N224 N 0.82756 0.42179 0.37870
 C225 C 0.82332 0.40898 0.38535
 H226 H 0.81374 0.38108 0.40572
 H227 H 0.84823 0.38160 0.43848
 H228 H 0.87050 0.40397 0.43784
 H229 H 0.86922 0.43724 0.40424
 H230 H 0.84613 0.43687 0.38229
 H231 H 0.81295 0.40313 0.38314
 C232 C 0.90923 0.85133 -0.08016
 C233 C 0.89829 0.84016 -0.08043
 C234 C 0.89859 0.82932 -0.09149
 C235 C 0.90984 0.82952 -0.10239
 C236 C 0.92066 0.84056 -0.10212
 C237 C 0.92034 0.85153 -0.09095
 C238 C 0.91257 0.86231 -0.06989
 N239 N 0.92535 0.86908 -0.07428
 C240 C 0.93025 0.86262 -0.08707
 C241 C 0.93099 0.83714 -0.11300
 N242 N 0.92659 0.82438 -0.11978
 C243 C 0.91375 0.81956 -0.11343
 C244 C 0.88764 0.81911 -0.08813
 N245 N 0.88078 0.82356 -0.07539
 C246 C 0.88715 0.83635 -0.07053
 H247 H 0.90658 0.86474 -0.05965
 H248 H 0.94061 0.86534 -0.09270
 H249 H 0.94125 0.84309 -0.11535
 H250 H 0.90808 0.80926 -0.11616
 H251 H 0.88529 0.80888 -0.09410
 H252 H 0.88434 0.84206 -0.06022
 C253 C 0.31850 0.34462 0.83020
 C254 C 0.31844 0.33428 0.84190
 C255 C 0.32989 0.32405 0.84311
 C256 C 0.34155 0.32407 0.83265
 C257 C 0.34162 0.33430 0.82108
 C258 C 0.33000 0.34464 0.81983
 C259 C 0.30851 0.35539 0.82595
 N260 N 0.31370 0.36186 0.81331
 C261 C 0.32679 0.35544 0.80941
 C262 C 0.35379 0.33119 0.81220
 N263 N 0.36098 0.31940 0.81817
 C264 C 0.35366 0.31491 0.83062
 C265 C 0.32650 0.31489 0.85496
 N266 N 0.31337 0.31941 0.86088
 C267 C 0.30829 0.33121 0.85304
 H268 H 0.29814 0.35820 0.83150
 H269 H 0.33335 0.35830 0.79965
 H270 H 0.35692 0.33677 0.80193
 H271 H 0.35667 0.30542 0.83740
 H272 H 0.33288 0.30543 0.85876
 H273 H 0.29782 0.33684 0.85506
 C274 C 0.14408 0.59669 0.58190
 C275 C 0.15502 0.60787 0.58203
 C276 C 0.16608 0.60792 0.59297
 C277 C 0.16631 0.59678 0.60392
 C278 C 0.15548 0.58575 0.60379
 C279 C 0.14431 0.58570 0.59273
 C280 C 0.13322 0.59286 0.57159
 N281 N 0.12693 0.57991 0.57599
 C282 C 0.13359 0.57538 0.58883
 C283 C 0.15942 0.57552 0.61452
 N284 N 0.17228 0.58014 0.62110
 C285 C 0.17666 0.59306 0.61474
 C286 C 0.17610 0.61896 0.58932
 N287 N 0.17132 0.62553 0.57654
 C288 C 0.15852 0.61887 0.57193
 H289 H 0.13066 0.59859 0.56124
 H290 H 0.13138 0.56495 0.59440
 H291 H 0.15380 0.56512 0.61684
 H292 H 0.18698 0.59887 0.61726
 H293 H 0.18648 0.62152 0.59507
 H294 H 0.15264 0.62133 0.56160
 C295 C 0.60473 0.65698 0.08151
 C296 C 0.59376 0.64582 0.08142
 C297 C 0.58295 0.64553 0.09251
 C298 C 0.58297 0.65639 0.10382
 C299 C 0.59381 0.66742 0.10390
 C300 C 0.60476 0.66771 0.09268
 C301 C 0.61565 0.66082 0.07137
 N302 N 0.62222 0.67352 0.07618
 C303 C 0.61569 0.67789 0.08914
 C304 C 0.59021 0.67725 0.11518
 N305 N 0.57755 0.67238 0.12186
 C306 C 0.57298 0.65971 0.11504
 C307 C 0.57292 0.63448 0.08879
 N308 N 0.57746 0.62813 0.07581
 C309 C 0.59012 0.63494 0.07114
 H310 H 0.61817 0.65518 0.06094
 H311 H 0.61827 0.68805 0.09514
 H312 H 0.59594 0.68753 0.11785
 H313 H 0.56277 0.65376 0.11760
 H314 H 0.56272 0.63172 0.09468
 H315 H 0.59581 0.63262 0.06071
 C316 C 0.67356 0.18332 0.66299
 C317 C 0.66262 0.18335 0.67422
 C318 C 0.66268 0.17246 0.68516
 C319 C 0.67367 0.16141 0.68500
 C320 C 0.68446 0.16138 0.67389
 C321 C 0.68441 0.17240 0.66284
 C322 C 0.67647 0.19271 0.65119
 N323 N 0.68876 0.18767 0.64400
 C324 C 0.69374 0.17531 0.65096
 C325 C 0.69388 0.14968 0.67672
 N326 N 0.68901 0.14270 0.68921
 C327 C 0.67670 0.14971 0.69441
 C328 C 0.65102 0.17542 0.69475
 N329 N 0.64401 0.18777 0.68982
 C330 C 0.65094 0.19275 0.67733
 H331 H 0.67025 0.20255 0.64816
 H332 H 0.70351 0.16903 0.64770
 H333 H 0.70365 0.14657 0.67032
 H334 H 0.67057 0.14664 0.70439
 H335 H 0.64793 0.16915 0.70461
 H336 H 0.64777 0.20253 0.67107
 C337 C 1.09646 0.08480 0.17672
 C338 C 1.08561 0.09597 0.17680
 C339 C 1.07461 0.09617 0.16583
 C340 C 1.07432 0.08520 0.15465
 C341 C 1.08505 0.07415 0.15457
 C342 C 1.09618 0.07395 0.16567
 C343 C 1.10777 0.08125 0.18658
 N344 N 1.11428 0.06860 0.18170
 C345 C 1.10733 0.06398 0.16899
 C346 C 1.08140 0.06443 0.14317
 N347 N 1.06881 0.06942 0.13642
 C348 C 1.06432 0.08205 0.14329
 C349 C 1.06501 0.10757 0.16927
 N350 N 1.06999 0.11421 0.18199
 C351 C 1.08252 0.10726 0.18675
 H352 H 1.11074 0.08713 0.19678
 H353 H 1.10989 0.05388 0.16292
 H354 H 1.08715 0.05425 0.14033
 H355 H 1.05429 0.08817 0.14057
 H356 H 1.05492 0.11054 0.16327
 H357 H 1.08863 0.10995 0.19691
 C358 C 0.08941 0.14778 1.07991
 C359 C 0.10086 0.15844 1.08034
 C360 C 0.10067 0.16954 1.09113
 C361 C 0.08903 0.17013 1.10160
 C362 C 0.07771 0.15960 1.10117
 C363 C 0.07791 0.14835 1.09027
 C364 C 0.08603 0.13657 1.06991
 N365 N 0.07286 0.13041 1.07402
 C366 C 0.06773 0.13748 1.08639
 C367 C 0.06726 0.16367 1.11173
 N368 N 0.07208 0.17630 1.11847
 C369 C 0.08531 0.18042 1.11240
 C370 C 0.11230 0.17908 1.08803
 N371 N 0.11946 0.17398 1.07571
 C372 C 0.11260 0.16143 1.07085
 H373 H 0.09235 0.13352 1.06004
 H374 H 0.05713 0.13528 1.09176
 H375 H 0.05671 0.15819 1.11393
 H376 H 0.09144 0.19043 1.11522
 H377 H 0.11495 0.18932 1.09386
 H378 H 0.11553 0.15535 1.06080
 C379 C 0.14718 0.67161 0.65834
 C380 C 0.15820 0.67167 0.64721
 C381 C 0.16930 0.66100 0.64728
 C382 C 0.16952 0.65014 0.65849
 C383 C 0.15863 0.65007 0.66951
 C384 C 0.14739 0.66087 0.66944
 C385 C 0.13595 0.68141 0.66182
 N386 N 0.12941 0.67682 0.67466
 C387 C 0.13626 0.66433 0.67948
 C388 C 0.16241 0.63920 0.67964
 N389 N 0.17522 0.63277 0.67494
 C390 C 0.17972 0.63932 0.66208
 C391 C 0.17925 0.66459 0.63611
 N392 N 0.17439 0.67711 0.62936
 C393 C 0.16159 0.68159 0.63600
 H394 H 0.13314 0.69146 0.65582
 H395 H 0.13373 0.65859 0.68981
 H396 H 0.15662 0.63654 0.68994
 H397 H 0.18993 0.63679 0.65614
 H398 H 0.18959 0.65893 0.63352
 H399 H 0.15559 0.69165 0.63331
 C400 C 1.16385 0.15227 0.17615
 C401 C 1.15284 0.16328 0.17568
 C402 C 1.15292 0.17372 0.16431
 C403 C 1.16402 0.17325 0.15325
 C404 C 1.17492 0.16237 0.15371
 C405 C 1.17483 0.15181 0.16523
 C406 C 1.16717 0.14147 0.18651
 N407 N 1.17981 0.13455 0.18208
 C408 C 1.18465 0.14074 0.16915
 C409 C 1.18486 0.16532 0.14233
 N410 N 1.18016 0.17764 0.13508
 C411 C 1.16750 0.18264 0.14161
 C412 C 1.14176 0.18374 0.16736
 N413 N 1.13498 0.17956 0.18023
 C414 C 1.14162 0.16712 0.18547
 H415 H 1.16115 0.13915 0.19677
 H416 H 1.19482 0.13774 0.16335
 H417 H 1.19502 0.15929 0.13985
 H418 H 1.16159 0.19263 0.13848
 H419 H 1.13912 0.19364 0.16105
 H420 H 1.13886 0.16165 0.19590
 C421 C 0.65901 1.07178 0.58079
 C422 C 0.67006 1.07201 0.59198
 C423 C 0.68098 1.08295 0.59194
 C424 C 0.68098 1.09380 0.58070
 C425 C 0.67004 1.09358 0.56965
 C426 C 0.65900 1.08251 0.56970
 C427 C 0.64749 1.06208 0.57763
 N428 N 0.64059 1.06675 0.56497
 C429 C 0.64747 1.07918 0.55998
 C430 C 0.67311 1.10499 0.55991
 N431 N 0.68559 1.11203 0.56484
 C432 C 0.69056 1.10536 0.57749
 C433 C 0.69060 1.08002 0.60365
 N434 N 0.68568 1.06765 0.61069
 C435 C 0.67320 1.06262 0.60370
 H436 H 0.64455 1.05221 0.58385
 H437 H 0.64450 1.08512 0.54987
 H438 H 0.66692 1.10780 0.54986
 H439 H 0.70050 1.10850 0.58371
 H440 H 0.70058 1.08619 0.60663
 H441 H 0.66708 1.05269 0.60673
 C442 C 0.58637 0.57402 0.15464
 C443 C 0.59719 0.57338 0.16602
 C444 C 0.59792 0.58444 0.17683
 C445 C 0.58785 0.59631 0.17635
 C446 C 0.57715 0.59694 0.16508
 C447 C 0.57640 0.58573 0.15417
 C448 C 0.58234 0.56424 0.14344
 N449 N 0.57023 0.56979 0.13628
 C450 C 0.56644 0.58287 0.14270
 C451 C 0.56816 0.60894 0.16807
 N452 N 0.57321 0.61553 0.18079
 C453 C 0.58519 0.60796 0.18600
 C454 C 0.60881 0.58043 0.18698
 N455 N 0.61460 0.56729 0.18250
 C456 C 0.60762 0.56283 0.16976
 H457 H 0.58744 0.55362 0.14103
 H458 H 0.55685 0.58949 0.13960
 H459 H 0.55833 0.61229 0.16184
 H460 H 0.59109 0.61039 0.19635
 H461 H 0.61206 0.58642 0.19703
 H462 H 0.60977 0.55254 0.16387
 C463 C 0.65445 0.66341 0.17581
 C464 C 0.66604 0.65307 0.17711
 C465 C 0.67725 0.65261 0.16644
 C466 C 0.67698 0.66248 0.15432
 C467 C 0.66553 0.67271 0.15305
 C468 C 0.65420 0.67318 0.16386
 C469 C 0.64277 0.66709 0.18510
 N470 N 0.63554 0.67880 0.17902
 C471 C 0.64238 0.68268 0.16608
 C472 C 0.66870 0.68156 0.14091
 N473 N 0.68173 0.67688 0.13487
 C474 C 0.68694 0.66528 0.14293
 C475 C 0.68746 0.64215 0.17103
 N476 N 0.68262 0.63634 0.18413
 C477 C 0.66960 0.64288 0.18801
 H478 H 0.64006 0.66203 0.19576
 H479 H 0.63932 0.69203 0.15914
 H480 H 0.66233 0.69101 0.13707
 H481 H 0.69745 0.65969 0.14096
 H482 H 0.69776 0.63919 0.16544
 H483 H 0.66337 0.64059 0.19814
 C484 C 0.15145 0.08807 1.07637
 C485 C 0.16226 0.09935 1.07684
 C486 C 0.17324 0.09924 1.08784
 C487 C 0.17353 0.08783 1.09849
 C488 C 0.16284 0.07668 1.09803
 C489 C 0.15173 0.07680 1.08690
 C490 C 0.14027 0.08472 1.06624
 N491 N 0.13386 0.07177 1.07045
 C492 C 0.14072 0.06678 1.08300
 C493 C 0.16652 0.06654 1.10895
 N494 N 0.17909 0.07135 1.11594
 C495 C 0.18354 0.08429 1.10968
 C496 C 0.18294 0.11072 1.08481
 N497 N 0.17804 0.11770 1.07231
 C498 C 0.16547 0.11090 1.06730
 H499 H 0.13739 0.09091 1.05626
 H500 H 0.13826 0.05637 1.08851
 H501 H 0.16077 0.05622 1.11132
 H502 H 0.19354 0.09040 1.11275
 H503 H 0.19314 0.11341 1.09082
 H504 H 0.15950 0.11374 1.05712
 C505 C 0.59264 0.17930 0.58143
 C506 C 0.58156 0.17866 0.59249
 C507 C 0.57111 0.16729 0.59229
 C508 C 0.57161 0.15642 0.58102
 C509 C 0.58255 0.15705 0.57008
 C510 C 0.59313 0.16857 0.57028
 C511 C 0.60379 0.18942 0.57849
 N512 N 0.61095 0.18503 0.56589
 C513 C 0.60459 0.17235 0.56073
 C514 C 0.57986 0.14557 0.56019
 N515 N 0.56762 0.13809 0.56495
 C516 C 0.56244 0.14457 0.57761
 C517 C 0.56128 0.16988 0.60385
 N518 N 0.56561 0.18249 0.61097
 C519 C 0.57794 0.18798 0.60418
 H520 H 0.60636 0.19936 0.58486
 H521 H 0.60790 0.16649 0.55066
 H522 H 0.58607 0.14306 0.55010
 H523 H 0.55254 0.14115 0.58365
 H524 H 0.55153 0.16333 0.60667
 H525 H 0.58359 0.19819 0.60729
 C526 C 0.10291 0.59527 0.66790
 C527 C 0.09193 0.60632 0.66764
 C528 C 0.08109 0.60625 0.65648
 C529 C 0.08113 0.59513 0.64544
 C530 C 0.09200 0.58422 0.64569
 C531 C 0.10294 0.58428 0.65699
 C532 C 0.11364 0.59160 0.67835
 N533 N 0.12009 0.57874 0.67396
 C534 C 0.11367 0.57412 0.66099
 C535 C 0.08831 0.57398 0.63478
 N536 N 0.07557 0.57849 0.62799
 C537 C 0.07102 0.59134 0.63438
 C538 C 0.07094 0.61716 0.66000
 N539 N 0.07543 0.62378 0.67291
 C540 C 0.08818 0.61728 0.67773
 H541 H 0.11604 0.59740 0.68874
 H542 H 0.11610 0.56375 0.65534
 H543 H 0.09401 0.56365 0.63248
 H544 H 0.06073 0.59705 0.63170
 H545 H 0.06065 0.61958 0.65408
 H546 H 0.09384 0.61982 0.68819
 C547 C 0.65545 0.57387 0.08575
 C548 C 0.66716 0.57383 0.09624
 C549 C 0.67746 0.58534 0.09647
 C550 C 0.67619 0.59703 0.08621
 C551 C 0.66463 0.59706 0.07583
 C552 C 0.65420 0.58542 0.07560
 C553 C 0.64447 0.56367 0.08225
 N554 N 0.63671 0.56883 0.07031
 C555 C 0.64251 0.58206 0.06610
 C556 C 0.66685 0.60904 0.06655
 N557 N 0.67941 0.61618 0.07113
 C558 C 0.68525 0.60899 0.08308
 C559 C 0.68805 0.58199 0.10715
 N560 N 0.68435 0.56879 0.11334
 C561 C 0.67166 0.56365 0.10682
 H562 H 0.64259 0.55308 0.08762
 H563 H 0.63880 0.58849 0.05656
 H564 H 0.66023 0.61199 0.05683
 H565 H 0.69564 0.61188 0.08864
 H566 H 0.69786 0.58848 0.11001
 H567 H 0.66631 0.55317 0.10937
 C568 C 0.08771 0.67351 0.59905
 C569 C 0.09871 0.67388 0.58788
 C570 C 0.09891 0.66305 0.57681
 C571 C 0.08812 0.65174 0.57676
 C572 C 0.07725 0.65138 0.58780
 C573 C 0.07705 0.66232 0.59900
 C574 C 0.08393 0.68334 0.61026
 N575 N 0.07133 0.67831 0.61692
 C576 C 0.06697 0.66553 0.61018
 C577 C 0.06746 0.64011 0.58417
 N578 N 0.07219 0.63370 0.57128
 C579 C 0.08475 0.64068 0.56660
 C580 C 0.10984 0.66695 0.56672
 N581 N 0.11620 0.67978 0.57147
 C582 C 0.10953 0.68418 0.58433
 H583 H 0.08952 0.69370 0.61294
 H584 H 0.05687 0.65941 0.61277
 H585 H 0.05731 0.63718 0.59007
 H586 H 0.09059 0.63828 0.55627
 H587 H 0.11255 0.66124 0.55638
 H588 H 0.11195 0.69441 0.59028
 C589 C 0.57983 1.07051 0.65881
 C590 C 0.59115 1.07015 0.66973
 C591 C 0.59168 1.08091 0.68085
 C592 C 0.58090 1.09216 0.68120
 C593 C 0.56971 1.09251 0.67041
 C594 C 0.56917 1.08162 0.65916
 C595 C 0.57619 1.06114 0.64712
 N596 N 0.56366 1.06639 0.64046
 C597 C 0.55921 1.07885 0.64766
 C598 C 0.56043 1.10416 0.67392
 N599 N 0.56580 1.11080 0.68649
 C600 C 0.57826 1.10362 0.69109
 C601 C 0.60341 1.07746 0.69023
 N602 N 0.60992 1.06494 0.68500
 C603 C 0.60257 1.06032 0.67252
 H604 H 0.58201 1.05112 0.64389
 H605 H 0.54934 1.08522 0.64494
 H606 H 0.55036 1.10736 0.66800
 H607 H 0.58468 1.10630 0.70107
 H608 H 0.60681 1.08343 0.70024
 H609 H 0.60519 1.05043 0.66614
 C610 C 0.41757 0.35454 0.90866
 C611 C 0.41766 0.34335 0.89770
 C612 C 0.40721 0.33197 0.89822
 C613 C 0.39655 0.33165 0.90972
 C614 C 0.39646 0.34272 0.92054
 C615 C 0.40702 0.35423 0.92001
 C616 C 0.42728 0.36605 0.91179
 N617 N 0.42278 0.37264 0.92467
 C618 C 0.41048 0.36556 0.92985
 C619 C 0.38587 0.33888 0.93102
 N620 N 0.37960 0.32584 0.92674
 C621 C 0.38602 0.32126 0.91380
 C622 C 0.41082 0.32197 0.88711
 N623 N 0.42311 0.32707 0.87994
 C624 C 0.42745 0.34007 0.88628
 H625 H 0.43725 0.36894 0.90558
 H626 H 0.40492 0.36800 0.94034
 H627 H 0.38331 0.34480 0.94128
 H628 H 0.38359 0.31088 0.90814
 H629 H 0.40536 0.31146 0.88485
 H630 H 0.43735 0.34629 0.88324
 C631 C 0.92053 0.40706 0.35314
 C632 C 0.92027 0.39651 0.34154
 C633 C 0.90925 0.39710 0.33057
 C634 C 0.89838 0.40825 0.33108
 C635 C 0.89863 0.41866 0.34257
 C636 C 0.90975 0.41805 0.35365
 C637 C 0.93088 0.41022 0.36419
 N638 N 0.92653 0.42277 0.37130
 C639 C 0.91370 0.42771 0.36499
 C640 C 0.88790 0.42909 0.33933
 N641 N 0.88122 0.42521 0.32624
 C642 C 0.88749 0.41255 0.32105
 C643 C 0.91268 0.38656 0.31991
 N644 N 0.92540 0.37966 0.32422
 C645 C 0.93019 0.38562 0.33735
 H646 H 0.94118 0.40431 0.36635
 H647 H 0.90813 0.43797 0.36789
 H648 H 0.88565 0.43915 0.34559
 H649 H 0.88486 0.40733 0.31040
 H650 H 0.90677 0.38451 0.30948
 H651 H 0.94048 0.38272 0.34304
 C652 C 0.33234 0.90608 0.39512
 C653 C 0.33258 0.89492 0.40604
 C654 C 0.34375 0.89483 0.41686
 C655 C 0.35481 0.90589 0.41688
 C656 C 0.35458 0.91691 0.40607
 C657 C 0.34328 0.91702 0.39514
 C658 C 0.32193 0.90986 0.38438
 N659 N 0.32638 0.92272 0.37796
 C660 C 0.33934 0.92726 0.38441
 C661 C 0.36559 0.92701 0.40976
 N662 N 0.37242 0.92230 0.42246
 C663 C 0.36595 0.90947 0.42698
 C664 C 0.34023 0.88382 0.42695
 N665 N 0.32731 0.87732 0.42244
 C666 C 0.32248 0.88398 0.40974
 H667 H 0.31156 0.90410 0.38194
 H668 H 0.34506 0.93759 0.38200
 H669 H 0.36796 0.93736 0.40409
 H670 H 0.36865 0.90361 0.43722
 H671 H 0.34617 0.88128 0.43723
 H672 H 0.31201 0.88157 0.40410
 O673 O 0.26678 0.46201 0.74841
 O674 O 0.26385 0.46683 0.72245
 O675 O 0.28854 0.49970 0.76646
 O676 O 0.28404 0.52609 0.76493
 O677 O 0.24994 0.48284 0.78765
 O678 O 0.22346 0.48501 0.78284
 O679 O 0.24785 0.54036 0.72780
 O680 O 0.27480 0.53501 0.72950
 O681 O 0.22763 0.50420 0.70944
 O682 O 0.22904 0.47676 0.71409
 O683 O 0.21028 0.52253 0.74714
 O684 O 0.21586 0.52081 0.77452
 O685 O 0.23001 0.54073 0.74602
 O686 O 0.23298 0.53600 0.77427
 O687 O 0.20924 0.50470 0.72900
 O688 O 0.21357 0.47686 0.73116
 O689 O 0.24599 0.52176 0.70927
 O690 O 0.27396 0.51560 0.71344
 O691 O 0.24899 0.46248 0.76673
 O692 O 0.22248 0.46854 0.76584
 O693 O 0.26842 0.50034 0.78739
 O694 O 0.26745 0.52678 0.78191
 O695 O 0.28752 0.48170 0.74842
 O696 O 0.28142 0.48548 0.72139
 Zr697 Zr 0.26587 0.48345 0.73918
 O698 O 0.25262 0.49678 0.72505
 Zr699 Zr 0.26724 0.50958 0.76575
 O700 O 0.25429 0.52413 0.75271
 Zr701 Zr 0.24016 0.48415 0.76616
 O702 O 0.22584 0.49764 0.75333
 Zr703 Zr 0.25724 0.51915 0.72985
 O704 O 0.27170 0.50584 0.74288
 Zr705 Zr 0.22996 0.49384 0.73043
 O706 O 0.24308 0.47912 0.74330
 Zr707 Zr 0.23156 0.52004 0.75684
 O708 O 0.24455 0.50660 0.77122
 O709 O 0.26266 0.48735 0.76189
 O710 O 0.23467 0.51606 0.73416
 C711 C 0.25944 0.45610 0.75924
 C712 C 0.29415 0.48881 0.75906
 C713 C 0.26095 0.48988 0.79367
 C714 C 0.23681 0.54633 0.73468
 C715 C 0.23449 0.51528 0.70360
 C716 C 0.20394 0.51593 0.73604
 H717 H 0.25470 0.49450 0.71440
 H718 H 0.21532 0.49561 0.75597
 H719 H 0.26894 0.48086 0.76819
 H720 H 0.25702 0.53451 0.75504
 H721 H 0.27386 0.54136 0.73850
 H722 H 0.28861 0.52539 0.75486
 H723 H 0.20657 0.47924 0.73937
 H724 H 0.22282 0.46359 0.75592
 H725 H 0.27226 0.52265 0.70510
 H726 H 0.28869 0.47722 0.72211
 H727 H 0.20904 0.51222 0.77332
 H728 H 0.22432 0.49491 0.78762
 H729 H 0.25359 0.46277 0.72318
 H730 H 0.23744 0.47828 0.70708
 H731 H 0.25769 0.52635 0.78708
 H732 H 0.24075 0.54333 0.77153
 O733 O 0.24863 0.03998 0.23326
 O734 O 0.27476 0.03611 0.23585
 O735 O 0.23176 0.00204 0.21121
 O736 O 0.23442 -0.02440 0.21530
 O737 O 0.21063 0.01770 0.25020
 O738 O 0.21566 0.01515 0.27677
 O739 O 0.27227 -0.03778 0.25095
 O740 O 0.27018 -0.03208 0.22406
 O741 O 0.28946 -0.00117 0.27164
 O742 O 0.28379 0.02603 0.27073
 O743 O 0.25283 -0.02123 0.28913
 O744 O 0.22551 -0.02047 0.28398
 O745 O 0.25435 -0.03907 0.26904
 O746 O 0.22594 -0.03523 0.26639
 O747 O 0.27028 -0.00280 0.29024
 O748 O 0.26684 0.02510 0.28634
 O749 O 0.29004 -0.01852 0.25303
 O750 O 0.28544 -0.01210 0.22505
 O751 O 0.23057 0.03863 0.25128
 O752 O 0.23212 0.03224 0.27791
 O753 O 0.21134 0.00045 0.23143
 O754 O 0.21767 -0.02590 0.23219
 O755 O 0.24901 0.02072 0.21228
 O756 O 0.27625 0.01769 0.21796
 Zr757 Zr 0.25868 0.01892 0.23383
 O758 O 0.27338 0.00596 0.24682
 Zr759 Zr 0.23317 -0.00815 0.23239
 O760 O 0.24684 -0.02238 0.24504
 Zr761 Zr 0.23212 0.01690 0.25993
 O762 O 0.24554 0.00368 0.27397
 Zr763 Zr 0.26938 -0.01650 0.24191
 O764 O 0.25575 -0.00351 0.22770
 Zr765 Zr 0.26814 0.00838 0.26966
 O766 O 0.25467 0.02280 0.25681
 Zr767 Zr 0.24281 -0.01875 0.26794
 O768 O 0.22784 -0.00566 0.25527
 O769 O 0.23629 0.01411 0.23729
 O770 O 0.26520 -0.01389 0.26464
 C771 C 0.23762 0.04536 0.24073
 C772 C 0.23851 0.01338 0.20571
 C773 C 0.20486 0.01071 0.23899
 C774 C 0.26574 -0.04418 0.26198
 C775 C 0.29557 -0.01198 0.26459
 C776 C 0.26376 -0.01438 0.29545
 H777 H 0.28387 0.00866 0.24466
 H778 H 0.24296 0.00546 0.28459
 H779 H 0.22973 0.02046 0.23115
 H780 H 0.24487 -0.03280 0.24218
 H781 H 0.26133 -0.03862 0.22484
 H782 H 0.24430 -0.02313 0.21050
 H783 H 0.25907 0.02212 0.29360
 H784 H 0.24174 0.03766 0.27741
 H785 H 0.29404 -0.01884 0.22661
 H786 H 0.27509 0.02598 0.21076
 H787 H 0.22629 -0.01179 0.29075
 H788 H 0.21122 0.00512 0.27574
 H789 H 0.27398 0.04003 0.24620
 H790 H 0.29065 0.02498 0.26212
 H791 H 0.21249 -0.02563 0.24198
 H792 H 0.22893 -0.04243 0.25858
 O793 O 0.49888 0.77168 0.28727
 O794 O 0.52494 0.77016 0.28204
 O795 O 0.47863 0.78803 0.24812
 O796 O 0.48004 0.78126 0.22179
 O797 O 0.46093 0.75015 0.26906
 O798 O 0.46742 0.72410 0.26886
 O799 O 0.51923 0.74707 0.20955
 O800 O 0.51575 0.77402 0.21269
 O801 O 0.53959 0.73184 0.24719
 O802 O 0.53550 0.73555 0.27484
 O803 O 0.50299 0.71022 0.23135
 O804 O 0.47557 0.71379 0.23314
 O805 O 0.50258 0.72794 0.21129
 O806 O 0.47422 0.72950 0.21645
 O807 O 0.52150 0.71227 0.24886
 O808 O 0.51962 0.71905 0.27659
 O809 O 0.53810 0.74824 0.22787
 O810 O 0.53221 0.77615 0.23186
 O811 O 0.48194 0.75272 0.28885
 O812 O 0.48489 0.72594 0.28510
 O813 O 0.45946 0.76681 0.24989
 O814 O 0.46428 0.76342 0.22306
 O815 O 0.49700 0.79009 0.26584
 O816 O 0.52429 0.78586 0.26169
 Zr817 Zr 0.50783 0.76934 0.26559
 O818 O 0.52253 0.75607 0.25294
 Zr819 Zr 0.48076 0.76620 0.23989
 O820 O 0.49436 0.75306 0.22599
 Zr821 Zr 0.48287 0.74186 0.26786
 O822 O 0.49632 0.72746 0.25515
 Zr823 Zr 0.51696 0.75816 0.23015
 O824 O 0.50325 0.77269 0.24264
 Zr825 Zr 0.51884 0.73362 0.25803
 O826 O 0.50545 0.74698 0.27207
 Zr827 Zr 0.49197 0.73073 0.23219
 O828 O 0.47702 0.74369 0.24502
 O829 O 0.48547 0.76402 0.26250
 O830 O 0.51433 0.73589 0.23535
 C831 C 0.48861 0.76432 0.29407
 C832 C 0.48569 0.79508 0.25852
 C833 C 0.45409 0.76009 0.26138
 C834 C 0.51321 0.73501 0.20476
 C835 C 0.54465 0.73792 0.23524
 C836 C 0.51461 0.70544 0.23823
 H837 H 0.53301 0.75913 0.25476
 H838 H 0.49450 0.71708 0.25818
 H839 H 0.47892 0.77035 0.26866
 H840 H 0.49165 0.75458 0.21536
 H841 H 0.50670 0.77189 0.20667
 H842 H 0.48967 0.78669 0.22193
 H843 H 0.51195 0.71127 0.27501
 H844 H 0.49469 0.72774 0.28996
 H845 H 0.54045 0.77441 0.22467
 H846 H 0.52318 0.79374 0.26939
 H847 H 0.47714 0.70824 0.24256
 H848 H 0.46231 0.72378 0.25900
 H849 H 0.52492 0.76043 0.28714
 H850 H 0.54186 0.74419 0.27237
 H851 H 0.45975 0.75352 0.22468
 H852 H 0.47654 0.73632 0.20810
 O853 O -0.04042 0.75064 0.77072
 O854 O -0.03533 0.72480 0.76820
 O855 O -0.00182 0.77007 0.78892
 O856 O 0.02460 0.76869 0.78281
 O857 O -0.02191 0.78888 0.75098
 O858 O -0.02110 0.78335 0.72432
 O859 O 0.03734 0.73119 0.74685
 O860 O 0.03406 0.73278 0.77376
 O861 O 0.00018 0.71143 0.72975
 O862 O -0.02747 0.71546 0.73284
 O863 O 0.01644 0.74843 0.70981
 O864 O 0.01455 0.77558 0.71454
 O865 O 0.03614 0.74840 0.72823
 O866 O 0.03092 0.77631 0.73074
 O867 O -0.00105 0.73004 0.71064
 O868 O -0.02879 0.73177 0.71680
 O869 O 0.01871 0.71208 0.74732
 O870 O 0.01610 0.71820 0.77610
 O871 O -0.04159 0.76812 0.75223
 O872 O -0.03741 0.76595 0.72507
 O873 O -0.00310 0.78970 0.76835
 O874 O 0.02374 0.78500 0.76534
 O875 O -0.01958 0.75184 0.78980
 O876 O -0.01516 0.72484 0.78455
 Zr877 Zr -0.01884 0.74171 0.76844
 O878 O -0.00605 0.72752 0.75476
 Zr879 Zr 0.00690 0.76859 0.76704
 O880 O 0.02099 0.75552 0.75359
 Zr881 Zr -0.02052 0.76743 0.74165
 O882 O -0.00759 0.75453 0.72688
 Zr883 Zr 0.01662 0.73296 0.75768
 O884 O 0.00395 0.74609 0.77262
 Zr885 Zr -0.01062 0.73199 0.73208
 O886 O -0.02485 0.74485 0.74577
 Zr887 Zr 0.01521 0.75869 0.73096
 O888 O 0.00221 0.77311 0.74433
 O889 O -0.01557 0.76403 0.76403
 O890 O 0.01196 0.73629 0.73512
 C891 C -0.04697 0.76120 0.76362
 C892 C -0.01245 0.76297 0.79542
 C893 C -0.01450 0.79524 0.76159
 C894 C 0.04247 0.73762 0.73512
 C895 C 0.01175 0.70605 0.73625
 C896 C 0.00970 0.73707 0.70431
 H897 H -0.00808 0.71705 0.75731
 H898 H -0.01040 0.75671 0.71639
 H899 H -0.02181 0.77033 0.77052
 H900 H 0.03156 0.75809 0.75556
 H901 H 0.03908 0.74256 0.77340
 H902 H 0.02414 0.75905 0.78807
 H903 H -0.02707 0.73970 0.70935
 H904 H -0.04234 0.75620 0.72644
 H905 H 0.01002 0.70947 0.77315
 H906 H -0.02296 0.72568 0.79238
 H907 H 0.00536 0.77413 0.70852
 H908 H -0.01130 0.78848 0.72455
 H909 H -0.04016 0.72513 0.75821
 H910 H -0.02524 0.70885 0.74138
 H911 H 0.02222 0.78994 0.75555
 H912 H 0.03886 0.77402 0.73811
 O913 O 0.03858 0.01915 0.00037
 O914 O 0.03350 0.01603 -0.02573
 O915 O 0.00046 0.03904 0.01879
 O916 O -0.02620 0.03383 0.01676
 O917 O 0.01852 0.00167 0.03966
 O918 O 0.01719 -0.02471 0.03496
 O919 O -0.03989 -0.00258 -0.01993
 O920 O -0.03514 0.02413 -0.01878
 O921 O -0.00276 -0.02165 -0.03840
 O922 O 0.02483 -0.01894 -0.03382
 O923 O -0.02055 -0.03929 -0.00095
 O924 O -0.01864 -0.03381 0.02653
 O925 O -0.03950 -0.02040 -0.00182
 O926 O -0.03452 -0.01743 0.02636
 O927 O -0.00246 -0.03972 -0.01886
 O928 O 0.02546 -0.03419 -0.01661
 O929 O -0.02127 -0.00438 -0.03854
 O930 O -0.01573 0.02377 -0.03482
 O931 O 0.03883 0.00167 0.01888
 O932 O 0.03369 -0.02507 0.01780
 O933 O 0.00024 0.01926 0.03937
 O934 O -0.02646 0.01722 0.03381
 O935 O 0.01851 0.03875 0.00077
 O936 O 0.01411 0.03289 -0.02641
 Zr937 Zr 0.01698 0.01736 -0.00883
 O938 O 0.00395 0.00361 -0.02295
 Zr939 Zr -0.00916 0.01768 0.01773
 O940 O -0.02345 0.00423 0.00471
 Zr941 Zr 0.01736 -0.00818 0.01821
 O942 O 0.00415 -0.02294 0.00541
 Zr943 Zr -0.01869 0.00729 -0.01817
 O944 O -0.00573 0.02225 -0.00515
 Zr945 Zr 0.00774 -0.01871 -0.01747
 O946 O 0.02219 -0.00506 -0.00465
 Zr947 Zr -0.01857 -0.01815 0.00889
 O948 O -0.00536 -0.00470 0.02326
 O949 O 0.01329 0.01393 0.01385
 O950 O -0.01478 -0.01495 -0.01377
 C951 C 0.04479 0.01232 0.01137
 C952 C 0.01147 0.04488 0.01168
 C953 C 0.01116 0.01239 0.04561
 C954 C -0.04552 -0.01375 -0.01303
 C955 C -0.01435 -0.01553 -0.04415
 C956 C -0.01368 -0.04535 -0.01198
 H957 H 0.00610 0.00573 -0.03360
 H958 H 0.00657 -0.03329 0.00806
 H959 H 0.01969 0.02032 0.02020
 H960 H -0.03398 0.00655 0.00703
 H961 H -0.04085 0.02364 -0.00933
 H962 H -0.02526 0.03874 0.00689
 H963 H 0.02329 -0.04130 -0.00847
 H964 H 0.03878 -0.02429 0.00800
 H965 H -0.02276 0.02163 -0.04318
 H966 H 0.02223 0.04038 -0.02569
 H967 H -0.00993 -0.04039 0.02515
 H968 H 0.00715 -0.02440 0.03956
 H969 H 0.03807 0.00609 -0.02490
 H970 H 0.02288 -0.01078 -0.04094
 H971 H -0.02558 0.00763 0.03911
 H972 H -0.04202 -0.00981 0.02378
 O973 O 0.00173 0.53988 0.51784
 O974 O -0.02432 0.53456 0.51491
 O975 O 0.02048 0.50301 0.53914
 O976 O 0.01916 0.47639 0.53472
 O977 O 0.04065 0.52019 0.50051
 O978 O 0.03588 0.51746 0.47386
 O979 O -0.01770 0.46099 0.49905
 O980 O -0.01640 0.46679 0.52581
 O981 O -0.03694 0.49687 0.47853
 O982 O -0.03275 0.52430 0.47993
 O983 O 0.00042 0.47894 0.46098
 O984 O 0.02784 0.48147 0.46605
 O985 O 0.00019 0.46088 0.48089
 O986 O 0.02818 0.46644 0.48328
 O987 O -0.01764 0.49665 0.46000
 O988 O -0.01571 0.52464 0.46449
 O989 O -0.03656 0.47910 0.49662
 O990 O -0.03265 0.48578 0.52484
 O991 O 0.01987 0.53973 0.49984
 O992 O 0.01840 0.53357 0.47293
 O993 O 0.04082 0.50288 0.51913
 O994 O 0.03601 0.47606 0.51770
 O995 O 0.00225 0.52064 0.53833
 O996 O -0.02482 0.51592 0.53263
 Zr997 Zr -0.00737 0.51834 0.51678
 O998 O -0.02136 0.50467 0.50356
 Zr999 Zr 0.01955 0.49281 0.51785
 O1000 O 0.00664 0.47792 0.50498
 Zr1001 Zr 0.01930 0.51810 0.49067
 O1002 O 0.00662 0.50422 0.47642
 Zr1003 Zr -0.01620 0.48244 0.50813
 O1004 O -0.00326 0.49606 0.52258
 Zr1005 Zr -0.01617 0.50762 0.48079
 O1006 O -0.00351 0.52270 0.49388
 Zr1007 Zr 0.01049 0.48193 0.48213
 O1008 O 0.02476 0.49578 0.49502
 O1009 O 0.01521 0.51482 0.51322
 O1010 O -0.01211 0.48549 0.48545
 C1011 C 0.01262 0.54586 0.51064
 C1012 C 0.01321 0.51397 0.54474
 C1013 C 0.04668 0.51368 0.51180
 C1014 C -0.01083 0.45503 0.48797
 C1015 C -0.04241 0.48551 0.48520
 C1016 C -0.01072 0.48536 0.45470
 H1017 H -0.03198 0.50672 0.50572
 H1018 H 0.00911 0.50624 0.46583
 H1019 H 0.02141 0.52148 0.51948
 H1020 H 0.00913 0.46761 0.50774
 H1021 H -0.00692 0.46122 0.52543
 H1022 H 0.00935 0.47724 0.53974
 H1023 H -0.00768 0.52230 0.45727
 H1024 H 0.00868 0.53871 0.47381
 H1025 H -0.04093 0.47866 0.52300
 H1026 H -0.02411 0.52423 0.53993
 H1027 H 0.02635 0.48993 0.45918
 H1028 H 0.04074 0.50765 0.47469
 H1029 H -0.02352 0.53879 0.50471
 H1030 H -0.03945 0.52289 0.48861
 H1031 H 0.04129 0.47690 0.50799
 H1032 H 0.02597 0.45944 0.49150
 O1033 O 0.53958 0.01785 0.49997
 O1034 O 0.53527 0.01401 0.47397
 O1035 O 0.50101 0.03890 0.51643
 O1036 O 0.47444 0.03382 0.51399
 O1037 O 0.51802 0.00193 0.53928
 O1038 O 0.51662 -0.02452 0.53539
 O1039 O 0.46151 -0.00368 0.47799
 O1040 O 0.46647 0.02311 0.47860
 O1041 O 0.49878 -0.02365 0.46141
 O1042 O 0.52631 -0.02114 0.46672
 O1043 O 0.47982 -0.03990 0.49900
 O1044 O 0.48081 -0.03344 0.52623
 O1045 O 0.46113 -0.02091 0.49666
 O1046 O 0.46519 -0.01682 0.52495
 O1047 O 0.49835 -0.04110 0.48159
 O1048 O 0.52622 -0.03583 0.48439
 O1049 O 0.48065 -0.00604 0.46006
 O1050 O 0.48635 0.02208 0.46314
 O1051 O 0.53907 0.00097 0.51903
 O1052 O 0.53356 -0.02563 0.51885
 O1053 O 0.50001 0.01972 0.53785
 O1054 O 0.47354 0.01787 0.53154
 O1055 O 0.51956 0.03779 0.49897
 O1056 O 0.51612 0.03090 0.47195
 Zr1057 Zr 0.51821 0.01605 0.49024
 O1058 O 0.50542 0.00201 0.47621
 Zr1059 Zr 0.49130 0.01757 0.51598
 O1060 O 0.47722 0.00386 0.50298
 Zr1061 Zr 0.51746 -0.00854 0.51812
 O1062 O 0.50445 -0.02357 0.50544
 Zr1063 Zr 0.48271 0.00612 0.48018
 O1064 O 0.49547 0.02132 0.49307
 Zr1065 Zr 0.50875 -0.02017 0.48254
 O1066 O 0.52299 -0.00627 0.49532
 Zr1067 Zr 0.48169 -0.01842 0.50806
 O1068 O 0.49464 -0.00466 0.52235
 O1069 O 0.51384 0.01349 0.51293
 O1070 O 0.48619 -0.01601 0.48542
 C1071 C 0.54543 0.01122 0.51128
 C1072 C 0.51216 0.04444 0.50931
 C1073 C 0.51056 0.01285 0.54470
 C1074 C 0.45558 -0.01460 0.48501
 C1075 C 0.48753 -0.01748 0.45505
 C1076 C 0.48692 -0.04639 0.48838
 H1077 H 0.50792 0.00375 0.46556
 H1078 H 0.50665 -0.03385 0.50852
 H1079 H 0.52013 0.02005 0.51924
 H1080 H 0.46666 0.00637 0.50490
 H1081 H 0.46020 0.02270 0.48770
 H1082 H 0.47556 0.03824 0.50390
 H1083 H 0.52379 -0.04258 0.49276
 H1084 H 0.53888 -0.02536 0.50915
 H1085 H 0.47947 0.01984 0.45469
 H1086 H 0.52424 0.03839 0.47269
 H1087 H 0.48958 -0.04004 0.52548
 H1088 H 0.50645 -0.02396 0.53969
 H1089 H 0.53955 0.00397 0.47513
 H1090 H 0.52464 -0.01324 0.45924
 H1091 H 0.47404 0.00839 0.53709
 H1092 H 0.45769 -0.00948 0.52166
 O1093 O 0.53968 0.51905 0.00097
 O1094 O 0.53501 0.51654 -0.02527
 O1095 O 0.50194 0.53993 0.01902
 O1096 O 0.47514 0.53565 0.01633
 O1097 O 0.51834 0.50171 0.03955
 O1098 O 0.51611 0.47540 0.03440
 O1099 O 0.46103 0.49999 -0.02132
 O1100 O 0.46631 0.52659 -0.01945
 O1101 O 0.49800 0.48052 -0.03940
 O1102 O 0.52543 0.48190 -0.03402
 O1103 O 0.47863 0.46268 -0.00249
 O1104 O 0.48035 0.46764 0.02519
 O1105 O 0.46041 0.48212 -0.00327
 O1106 O 0.46497 0.48448 0.02499
 O1107 O 0.49682 0.46205 -0.02029
 O1108 O 0.52500 0.46634 -0.01708
 O1109 O 0.48007 0.49839 -0.03957
 O1110 O 0.48619 0.52628 -0.03490
 O1111 O 0.53902 0.50124 0.01915
 O1112 O 0.53298 0.47475 0.01761
 O1113 O 0.50062 0.51986 0.03921
 O1114 O 0.47399 0.51879 0.03313
 O1115 O 0.52030 0.53931 0.00133
 O1116 O 0.51624 0.53405 -0.02602
 Zr1117 Zr 0.51822 0.51814 -0.00867
 O1118 O 0.50501 0.50508 -0.02324
 Zr1119 Zr 0.49160 0.51893 0.01739
 O1120 O 0.47712 0.50614 0.00390
 Zr1121 Zr 0.51723 0.49217 0.01793
 O1122 O 0.50380 0.47805 0.00463
 Zr1123 Zr 0.48241 0.50941 -0.01883
 O1124 O 0.49562 0.52373 -0.00534
 Zr1125 Zr 0.50795 0.48254 -0.01810
 O1126 O 0.52260 0.49549 -0.00478
 Zr1127 Zr 0.48121 0.48355 0.00779
 O1128 O 0.49455 0.49634 0.02263
 O1129 O 0.51398 0.51447 0.01387
 O1130 O 0.48551 0.48699 -0.01475
 C1131 C 0.54546 0.51182 0.01195
 C1132 C 0.51328 0.54550 0.01222
 C1133 C 0.51122 0.51259 0.04552
 C1134 C 0.45489 0.48898 -0.01460
 C1135 C 0.48682 0.48721 -0.04531
 C1136 C 0.48531 0.45668 -0.01366
 H1137 H 0.50745 0.50732 -0.03381
 H1138 H 0.50580 0.46757 0.00713
 H1139 H 0.52048 0.52054 0.02043
 H1140 H 0.46663 0.50874 0.00607
 H1141 H 0.46042 0.52608 -0.01011
 H1142 H 0.47638 0.54060 0.00651
 H1143 H 0.52214 0.45895 -0.00942
 H1144 H 0.53815 0.47537 0.00784
 H1145 H 0.47937 0.52452 -0.04352
 H1146 H 0.52459 0.54126 -0.02500
 H1147 H 0.48877 0.46070 0.02374
 H1148 H 0.50604 0.47609 0.03891
 H1149 H 0.53936 0.50650 -0.02441
 H1150 H 0.52419 0.49049 -0.04078
 H1151 H 0.47443 0.50909 0.03827
 H1152 H 0.45779 0.49241 0.02243
 O1153 O 0.77298 0.29007 0.49961
 O1154 O 0.77109 0.28439 0.52582
 O1155 O 0.78979 0.25238 0.47853
 O1156 O 0.78352 0.22605 0.47953
 O1157 O 0.75160 0.27277 0.46119
 O1158 O 0.72526 0.27193 0.46758
 O1159 O 0.74922 0.21239 0.51804
 O1160 O 0.77521 0.21541 0.51596
 O1161 O 0.73346 0.24970 0.53991
 O1162 O 0.73627 0.27681 0.53598
 O1163 O 0.71154 0.23410 0.50250
 O1164 O 0.71527 0.23647 0.47505
 O1165 O 0.73019 0.21406 0.50106
 O1166 O 0.73090 0.22026 0.47334
 O1167 O 0.71323 0.25119 0.52130
 O1168 O 0.71984 0.27852 0.52017
 O1169 O 0.75020 0.23084 0.53810
 O1170 O 0.77856 0.23484 0.53118
 O1171 O 0.75392 0.29179 0.48256
 O1172 O 0.72690 0.28777 0.48552
 O1173 O 0.76854 0.25399 0.45941
 O1174 O 0.76546 0.22726 0.46373
 O1175 O 0.79161 0.26937 0.49749
 O1176 O 0.78740 0.26459 0.52472
 Zr1177 Zr 0.77069 0.26849 0.50828
 O1178 O 0.75742 0.25554 0.52271
 Zr1179 Zr 0.76799 0.24364 0.48057
 O1180 O 0.75487 0.22951 0.49389
 Zr1181 Zr 0.74310 0.27093 0.48314
 O1182 O 0.72871 0.25791 0.49635
 Zr1183 Zr 0.75978 0.23316 0.51669
 O1184 O 0.77439 0.24592 0.50322
 Zr1185 Zr 0.73475 0.26037 0.51903
 O1186 O 0.74810 0.27470 0.50592
 Zr1187 Zr 0.73228 0.23534 0.49156
 O1188 O 0.74525 0.24848 0.47683
 O1189 O 0.76544 0.26583 0.48578
 O1190 O 0.73720 0.23795 0.51420
 C1191 C 0.76563 0.29685 0.48929
 C1192 C 0.79668 0.26265 0.48585
 C1193 C 0.76178 0.26545 0.45426
 C1194 C 0.73755 0.20730 0.51136
 C1195 C 0.74002 0.23813 0.54499
 C1196 C 0.70642 0.24084 0.51407
 H1197 H 0.76051 0.25721 0.53325
 H1198 H 0.71824 0.26082 0.49451
 H1199 H 0.77175 0.27211 0.47934
 H1200 H 0.75664 0.21909 0.49096
 H1201 H 0.77575 0.21198 0.50544
 H1202 H 0.78961 0.22666 0.48881
 H1203 H 0.71234 0.27729 0.51208
 H1204 H 0.72876 0.29251 0.49538
 H1205 H 0.77658 0.22875 0.54020
 H1206 H 0.79513 0.27245 0.52385
 H1207 H 0.70959 0.24571 0.47677
 H1208 H 0.72520 0.26234 0.46215
 H1209 H 0.76148 0.28977 0.52537
 H1210 H 0.74553 0.27498 0.54177
 H1211 H 0.75559 0.22896 0.45901
 H1212 H 0.73894 0.21286 0.47456
 O1213 O 0.78816 0.75122 -0.02252
 O1214 O 0.78288 0.72527 -0.02093
 O1215 O 0.74940 0.77107 -0.03970
 O1216 O 0.72307 0.76956 -0.03323
 O1217 O 0.77004 0.78880 -0.00120
 O1218 O 0.76947 0.78253 0.02518
 O1219 O 0.71050 0.73071 0.00128
 O1220 O 0.71379 0.73398 -0.02586
 O1221 O 0.74808 0.71061 0.01713
 O1222 O 0.77551 0.71497 0.01405
 O1223 O 0.73176 0.74682 0.03871
 O1224 O 0.73393 0.77417 0.03521
 O1225 O 0.71201 0.74748 0.02044
 O1226 O 0.71744 0.77552 0.01913
 O1227 O 0.74919 0.72855 0.03695
 O1228 O 0.77702 0.73089 0.03070
 O1229 O 0.72881 0.71202 0.00044
 O1230 O 0.73294 0.71788 -0.02780
 O1231 O 0.78964 0.76807 -0.00335
 O1232 O 0.78562 0.76518 0.02372
 O1233 O 0.75111 0.79011 -0.01838
 O1234 O 0.72429 0.78529 -0.01520
 O1235 O 0.76703 0.75291 -0.04144
 O1236 O 0.76275 0.72582 -0.03717
 Zr1237 Zr 0.76654 0.74220 -0.02043
 O1238 O 0.75380 0.72760 -0.00716
 Zr1239 Zr 0.74099 0.76896 -0.01774
 O1240 O 0.72701 0.75544 -0.00462
 Zr1241 Zr 0.76863 0.76708 0.00732
 O1242 O 0.75581 0.75370 0.02174
 Zr1243 Zr 0.73113 0.73300 -0.00963
 O1244 O 0.74371 0.74664 -0.02419
 Zr1245 Zr 0.75870 0.73136 0.01561
 O1246 O 0.77283 0.74467 0.00226
 Zr1247 Zr 0.73299 0.75790 0.01805
 O1248 O 0.74591 0.77277 0.00509
 O1249 O 0.76347 0.76437 -0.01516
 O1250 O 0.73613 0.73570 0.01296
 C1251 C 0.79488 0.76148 -0.01502
 C1252 C 0.75984 0.76411 -0.04662
 C1253 C 0.76258 0.79548 -0.01149
 C1254 C 0.70554 0.73685 0.01327
 C1255 C 0.73618 0.70553 0.01088
 C1256 C 0.73848 0.73526 0.04364
 H1257 H 0.75564 0.71720 -0.01020
 H1258 H 0.75874 0.75553 0.03228
 H1259 H 0.76968 0.77086 -0.02150
 H1260 H 0.71644 0.75808 -0.00634
 H1261 H 0.70799 0.74311 -0.02402
 H1262 H 0.72327 0.76001 -0.03874
 H1263 H 0.77511 0.73822 0.03874
 H1264 H 0.79048 0.75548 0.02199
 H1265 H 0.72585 0.70959 -0.02606
 H1266 H 0.77051 0.72692 -0.04501
 H1267 H 0.74312 0.77245 0.04113
 H1268 H 0.75961 0.78747 0.02538
 H1269 H 0.78806 0.72553 -0.01111
 H1270 H 0.77338 0.70886 0.00506
 H1271 H 0.72595 0.78992 -0.00524
 H1272 H 0.70936 0.77343 0.01181
 O1273 O 1.00178 0.21136 0.23079
 O1274 O 0.97566 0.21568 0.23331
 O1275 O 1.01936 0.24912 0.20958
 O1276 O 1.01726 0.27557 0.21409
 O1277 O 1.04010 0.23274 0.24862
 O1278 O 1.03506 0.23499 0.27509
 O1279 O 0.97964 0.28938 0.24971
 O1280 O 0.98143 0.28389 0.22277
 O1281 O 0.96159 0.25255 0.26950
 O1282 O 0.96684 0.22552 0.26842
 O1283 O 0.99843 0.27219 0.28761
 O1284 O 1.02602 0.27054 0.28273
 O1285 O 0.99772 0.29021 0.26780
 O1286 O 1.02579 0.28579 0.26567
 O1287 O 0.98070 0.25402 0.28827
 O1288 O 0.98398 0.22597 0.28401
 O1289 O 0.96143 0.27043 0.25151
 O1290 O 0.96584 0.26419 0.22335
 O1291 O 1.01980 0.21218 0.24901
 O1292 O 1.01820 0.21830 0.27579
 O1293 O 1.03979 0.25004 0.22999
 O1294 O 1.03399 0.27656 0.23121
 O1295 O 1.00173 0.23078 0.21018
 O1296 O 0.97456 0.23431 0.21569
 Zr1297 Zr 0.99207 0.23258 0.23168
 O1298 O 0.97762 0.24567 0.24480
 Zr1299 Zr 1.01813 0.25913 0.23092
 O1300 O 1.00470 0.27349 0.24370
 Zr1301 Zr 1.01860 0.23381 0.25807
 O1302 O 1.00545 0.24716 0.27223
 Zr1303 Zr 0.98202 0.26811 0.24034
 O1304 O 0.99544 0.25502 0.22600
 Zr1305 Zr 0.98280 0.24288 0.26762
 O1306 O 0.99597 0.22834 0.25462
 Zr1307 Zr 1.00864 0.26958 0.26658
 O1308 O 1.02335 0.25632 0.25380
 O1309 O 1.01455 0.23691 0.23544
 O1310 O 0.98616 0.26516 0.26304
 C1311 C 1.01269 0.20573 0.23823
 C1312 C 1.01239 0.23797 0.20383
 C1313 C 1.04604 0.23962 0.23753
 C1314 C 0.98641 0.29559 0.26080
 C1315 C 0.95572 0.26366 0.26278
 C1316 C 0.98733 0.26550 0.29368
 H1317 H 0.96708 0.24317 0.24251
 H1318 H 1.00797 0.24523 0.28285
 H1319 H 1.02100 0.23052 0.22924
 H1320 H 1.00687 0.28390 0.24101
 H1321 H 0.99053 0.29010 0.22357
 H1322 H 1.00735 0.27457 0.20921
 H1323 H 0.99142 0.22903 0.29165
 H1324 H 1.00854 0.21298 0.27501
 H1325 H 0.95734 0.27101 0.22505
 H1326 H 0.97555 0.22607 0.20837
 H1327 H 1.02448 0.26230 0.28986
 H1328 H 1.03947 0.24506 0.27451
 H1329 H 0.97654 0.21146 0.24351
 H1330 H 0.96036 0.22639 0.25947
 H1331 H 1.03922 0.27600 0.24100
 H1332 H 1.02340 0.29269 0.25741
 O1333 O 0.75109 1.03872 0.73223
 O1334 O 0.77691 1.03372 0.73481
 O1335 O 0.73255 1.00097 0.71088
 O1336 O 0.73408 0.97457 0.71557
 O1337 O 0.71195 1.01829 0.74946
 O1338 O 0.71681 1.01626 0.77603
 O1339 O 0.77134 0.96047 0.75167
 O1340 O 0.76952 0.96559 0.72466
 O1341 O 0.78985 0.99672 0.77161
 O1342 O 0.78536 1.02420 0.76989
 O1343 O 0.75235 0.97878 0.78947
 O1344 O 0.72517 0.98035 0.78407
 O1345 O 0.75351 0.96038 0.76988
 O1346 O 0.72521 0.96510 0.76681
 O1347 O 0.77050 0.99654 0.79019
 O1348 O 0.76848 1.02433 0.78554
 O1349 O 0.78986 0.97903 0.75332
 O1350 O 0.78553 0.98499 0.72518
 O1351 O 0.73291 1.03852 0.75018
 O1352 O 0.73392 1.03262 0.77687
 O1353 O 0.71197 1.00057 0.73112
 O1354 O 0.71730 0.97407 0.73244
 O1355 O 0.75052 1.01898 0.71158
 O1356 O 0.77756 1.01488 0.71735
 Zr1357 Zr 0.76008 1.01723 0.73318
 O1358 O 0.77420 1.00400 0.74652
 Zr1359 Zr 0.73347 0.99122 0.73230
 O1360 O 0.74653 0.97673 0.74531
 Zr1361 Zr 0.73339 1.01691 0.75923
 O1362 O 0.74622 1.00348 0.77361
 Zr1363 Zr 0.76930 0.98161 0.74211
 O1364 O 0.75623 0.99480 0.72757
 Zr1365 Zr 0.76901 1.00717 0.76927
 O1366 O 0.75616 1.02180 0.75605
 Zr1367 Zr 0.74262 0.98103 0.76812
 O1368 O 0.72822 0.99443 0.75510
 O1369 O 0.73747 1.01346 0.73666
 O1370 O 0.76519 0.98492 0.76478
 C1371 C 0.74040 1.04477 0.73962
 C1372 C 0.73980 1.01187 0.70513
 C1373 C 0.70586 1.01121 0.73848
 C1374 C 0.76468 0.95467 0.76295
 C1375 C 0.79558 0.98556 0.76479
 C1376 C 0.76346 0.98541 0.79570
 H1377 H 0.78480 1.00623 0.74433
 H1378 H 0.74367 1.00562 0.78417
 H1379 H 0.73119 1.01997 0.73038
 H1380 H 0.74416 0.96633 0.74269
 H1381 H 0.76040 0.95944 0.72555
 H1382 H 0.74404 0.97526 0.71083
 H1383 H 0.76033 1.02206 0.79265
 H1384 H 0.74378 1.03759 0.77636
 H1385 H 0.79386 0.97797 0.72692
 H1386 H 0.77678 1.02304 0.70995
 H1387 H 0.72620 0.98921 0.79057
 H1388 H 0.71201 1.00637 0.77528
 H1389 H 0.77640 1.03782 0.74511
 H1390 H 0.79239 1.02245 0.76154
 H1391 H 0.71220 0.97468 0.74225
 H1392 H 0.72810 0.95749 0.75936
 O1393 O 0.71185 0.51717 0.24947
 O1394 O 0.71536 0.51312 0.27553
 O1395 O 0.74991 0.54090 0.23519
 O1396 O 0.77655 0.53720 0.23810
 O1397 O 0.73557 0.50313 0.21076
 O1398 O 0.73844 0.47677 0.21420
 O1399 O 0.79022 0.50000 0.27386
 O1400 O 0.78389 0.52650 0.27360
 O1401 O 0.75325 0.47787 0.28891
 O1402 O 0.72606 0.47849 0.28245
 O1403 O 0.77491 0.46333 0.25194
 O1404 O 0.77388 0.46988 0.22442
 O1405 O 0.79235 0.48354 0.25450
 O1406 O 0.78879 0.48716 0.22649
 O1407 O 0.75585 0.46072 0.26860
 O1408 O 0.72773 0.46410 0.26442
 O1409 O 0.77051 0.49638 0.29113
 O1410 O 0.76358 0.52417 0.28829
 O1411 O 0.71396 0.50048 0.23024
 O1412 O 0.72098 0.47436 0.23004
 O1413 O 0.75239 0.52207 0.21320
 O1414 O 0.77868 0.52170 0.22023
 O1415 O 0.73086 0.53837 0.25194
 O1416 O 0.73347 0.53106 0.27877
 Zr1417 Zr 0.73291 0.51651 0.26002
 O1418 O 0.74601 0.50310 0.27421
 Zr1419 Zr 0.76057 0.52009 0.23529
 O1420 O 0.77493 0.50706 0.24848
 Zr1421 Zr 0.73603 0.49242 0.23173
 O1422 O 0.74940 0.47802 0.24459
 Zr1423 Zr 0.76861 0.50863 0.27114
 O1424 O 0.75542 0.52319 0.25811
 Zr1425 Zr 0.74413 0.48085 0.26738
 O1426 O 0.72959 0.49401 0.25435
 Zr1427 Zr 0.77188 0.48461 0.24284
 O1428 O 0.75871 0.49779 0.22838
 O1429 O 0.73819 0.51460 0.23745
 O1430 O 0.76652 0.48641 0.26536
 C1431 C 0.70677 0.51025 0.23788
 C1432 C 0.73837 0.54572 0.24219
 C1433 C 0.74252 0.51462 0.20584
 C1434 C 0.79712 0.48984 0.26654
 C1435 C 0.76393 0.48460 0.29577
 C1436 C 0.76790 0.45631 0.26227
 H1437 H 0.74305 0.50455 0.28480
 H1438 H 0.74789 0.46765 0.24128
 H1439 H 0.73179 0.52093 0.23111
 H1440 H 0.78539 0.51025 0.24697
 H1441 H 0.79059 0.52648 0.26481
 H1442 H 0.77507 0.54126 0.24832
 H1443 H 0.73119 0.45730 0.25644
 H1444 H 0.71544 0.47403 0.23962
 H1445 H 0.77024 0.52220 0.29697
 H1446 H 0.72496 0.53804 0.27794
 H1447 H 0.76602 0.46221 0.22535
 H1448 H 0.74873 0.47800 0.21034
 H1449 H 0.71157 0.50292 0.27384
 H1450 H 0.72668 0.48669 0.28982
 H1451 H 0.77889 0.51226 0.21453
 H1452 H 0.79517 0.49564 0.22953
 O1453 O 0.50120 0.20952 0.73386
 O1454 O 0.47509 0.21333 0.73662
 O1455 O 0.51775 0.24727 0.71176
 O1456 O 0.51539 0.27370 0.71590
 O1457 O 0.53928 0.23201 0.75112
 O1458 O 0.53424 0.23455 0.77756
 O1459 O 0.47767 0.28741 0.75153
 O1460 O 0.47953 0.28159 0.72467
 O1461 O 0.46041 0.25072 0.77199
 O1462 O 0.46627 0.22371 0.77143
 O1463 O 0.49704 0.27138 0.78955
 O1464 O 0.52462 0.27006 0.78457
 O1465 O 0.49588 0.28894 0.76945
 O1466 O 0.52406 0.28496 0.76716
 O1467 O 0.47959 0.25297 0.79065
 O1468 O 0.48334 0.22492 0.78705
 O1469 O 0.45983 0.26809 0.75351
 O1470 O 0.46442 0.26157 0.72549
 O1471 O 0.51931 0.21099 0.75194
 O1472 O 0.51780 0.21752 0.77856
 O1473 O 0.53850 0.24894 0.73217
 O1474 O 0.53221 0.27524 0.73274
 O1475 O 0.50038 0.22872 0.71285
 O1476 O 0.47331 0.23155 0.71870
 Zr1477 Zr 0.49109 0.23055 0.73447
 O1478 O 0.47649 0.24365 0.74740
 Zr1479 Zr 0.51665 0.25755 0.73299
 O1480 O 0.50307 0.27192 0.74559
 Zr1481 Zr 0.51777 0.23276 0.76060
 O1482 O 0.50445 0.24613 0.77461
 Zr1483 Zr 0.48048 0.26607 0.74246
 O1484 O 0.49402 0.25293 0.72832
 Zr1485 Zr 0.48183 0.24141 0.77025
 O1486 O 0.49521 0.22686 0.75746
 Zr1487 Zr 0.50719 0.26850 0.76852
 O1488 O 0.52206 0.25527 0.75589
 O1489 O 0.51354 0.23534 0.73791
 O1490 O 0.48477 0.26364 0.76520
 C1491 C 0.51221 0.20418 0.74137
 C1492 C 0.51074 0.23605 0.70620
 C1493 C 0.54507 0.23890 0.73995
 C1494 C 0.48440 0.29396 0.76245
 C1495 C 0.45426 0.26147 0.76492
 C1496 C 0.48605 0.26467 0.79579
 H1497 H 0.46598 0.24093 0.74522
 H1498 H 0.50706 0.24445 0.78524
 H1499 H 0.52008 0.22898 0.73175
 H1500 H 0.50503 0.28231 0.74270
 H1501 H 0.48843 0.28808 0.72541
 H1502 H 0.50541 0.27256 0.71120
 H1503 H 0.49082 0.22824 0.79455
 H1504 H 0.50814 0.21216 0.77807
 H1505 H 0.45575 0.26820 0.72709
 H1506 H 0.47438 0.22319 0.71153
 H1507 H 0.52325 0.26195 0.79188
 H1508 H 0.53845 0.24469 0.77679
 H1509 H 0.47614 0.20934 0.74690
 H1510 H 0.45964 0.22437 0.76256
 H1511 H 0.53735 0.27514 0.74259
 H1512 H 0.52140 0.29178 0.75891
 O1513 O 0.28755 0.75158 0.47828
 O1514 O 0.28191 0.72578 0.48058
 O1515 O 0.24951 0.77102 0.45878
 O1516 O 0.22299 0.77014 0.46437
 O1517 O 0.26917 0.79005 0.49713
 O1518 O 0.26717 0.78500 0.52381
 O1519 O 0.20861 0.73304 0.49952
 O1520 O 0.21328 0.73479 0.47255
 O1521 O 0.24548 0.71294 0.51793
 O1522 O 0.27303 0.71688 0.51571
 O1523 O 0.22855 0.74986 0.53723
 O1524 O 0.23152 0.77723 0.53290
 O1525 O 0.20953 0.75059 0.51800
 O1526 O 0.21554 0.77819 0.51634
 O1527 O 0.24607 0.73160 0.53699
 O1528 O 0.27415 0.73348 0.53167
 O1529 O 0.22669 0.71398 0.50068
 O1530 O 0.23218 0.71836 0.47233
 O1531 O 0.28845 0.76902 0.49694
 O1532 O 0.28322 0.76747 0.52386
 O1533 O 0.25091 0.79084 0.47921
 O1534 O 0.22386 0.78658 0.48178
 O1535 O 0.26712 0.75277 0.45841
 O1536 O 0.26240 0.72587 0.46360
 Zr1537 Zr 0.26573 0.74284 0.47980
 O1538 O 0.25233 0.72888 0.49315
 Zr1539 Zr 0.24038 0.76992 0.48047
 O1540 O 0.22577 0.75706 0.49354
 Zr1541 Zr 0.26699 0.76878 0.50664
 O1542 O 0.25350 0.75607 0.52107
 Zr1543 Zr 0.22982 0.73439 0.48961
 O1544 O 0.24310 0.74734 0.47501
 Zr1545 Zr 0.25639 0.73350 0.51593
 O1546 O 0.27115 0.74615 0.50263
 Zr1547 Zr 0.23088 0.76036 0.51633
 O1548 O 0.24444 0.77461 0.50329
 O1549 O 0.26269 0.76521 0.48410
 O1550 O 0.23396 0.73794 0.51225
 C1551 C 0.29410 0.76198 0.48576
 C1552 C 0.26015 0.76377 0.45252
 C1553 C 0.26228 0.79630 0.48619
 C1554 C 0.20316 0.73986 0.51089
 C1555 C 0.23363 0.70782 0.51162
 C1556 C 0.23503 0.73850 0.54288
 H1557 H 0.25415 0.71835 0.49062
 H1558 H 0.25603 0.75827 0.53164
 H1559 H 0.26926 0.77131 0.47773
 H1560 H 0.21532 0.75974 0.49125
 H1561 H 0.20769 0.74417 0.47354
 H1562 H 0.22336 0.76046 0.45911
 H1563 H 0.27197 0.74104 0.53942
 H1564 H 0.28802 0.75765 0.52282
 H1565 H 0.22496 0.71022 0.47421
 H1566 H 0.27045 0.72662 0.45601
 H1567 H 0.24018 0.77531 0.53952
 H1568 H 0.25737 0.79002 0.52333
 H1569 H 0.28663 0.72630 0.49062
 H1570 H 0.27120 0.71047 0.50686
 H1571 H 0.22537 0.79169 0.49152
 H1572 H 0.20826 0.77644 0.50815
 O1573 O 0.24843 0.27124 0.96195
 O1574 O 0.22266 0.26830 0.96768
 O1575 O 0.26816 0.29031 1.00044
 O1576 O 0.26718 0.28441 1.02702
 O1577 O 0.28808 0.25334 0.98040
 O1578 O 0.28341 0.22688 0.98140
 O1579 O 0.23058 0.24791 1.04054
 O1580 O 0.23204 0.27481 1.03669
 O1581 O 0.21088 0.23005 1.00330
 O1582 O 0.21464 0.23316 0.97558
 O1583 O 0.24878 0.21163 1.01963
 O1584 O 0.27603 0.21698 1.01727
 O1585 O 0.24850 0.23003 1.03918
 O1586 O 0.27654 0.23317 1.03358
 O1587 O 0.23015 0.21180 1.00215
 O1588 O 0.23158 0.21773 0.97421
 O1589 O 0.21147 0.24702 1.02228
 O1590 O 0.21548 0.27521 1.01758
 O1591 O 0.26660 0.25351 0.96068
 O1592 O 0.26580 0.22678 0.96530
 O1593 O 0.28857 0.27049 0.99928
 O1594 O 0.28406 0.26772 1.02618
 O1595 O 0.24966 0.29050 0.98275
 O1596 O 0.22273 0.28470 0.98761
 Zr1597 Zr 0.24004 0.26912 0.98385
 O1598 O 0.22632 0.25523 0.99692
 Zr1599 Zr 0.26739 0.26871 1.00936
 O1600 O 0.25479 0.25507 1.02368
 Zr1601 Zr 0.26676 0.24343 0.98203
 O1602 O 0.25433 0.22849 0.99520
 Zr1603 Zr 0.23187 0.25840 1.01960
 O1604 O 0.24452 0.27351 1.00666
 Zr1605 Zr 0.23145 0.23294 0.99235
 O1606 O 0.24385 0.24679 0.97790
 Zr1607 Zr 0.25860 0.23277 1.01803
 O1608 O 0.27259 0.24638 1.00478
 O1609 O 0.26272 0.26549 0.98683
 O1610 O 0.23593 0.23622 1.01494
 C1611 C 0.25899 0.26432 0.95517
 C1612 C 0.26072 0.29646 0.98980
 C1613 C 0.29431 0.26391 0.98788
 C1614 C 0.23752 0.23656 1.04566
 C1615 C 0.20553 0.23609 1.01517
 C1616 C 0.23742 0.20585 1.01298
 H1617 H 0.21565 0.25748 0.99510
 H1618 H 0.25680 0.21817 0.99242
 H1619 H 0.26879 0.27200 0.98037
 H1620 H 0.25747 0.25713 1.03424
 H1621 H 0.24149 0.27385 1.04237
 H1622 H 0.25728 0.28927 1.02666
 H1623 H 0.23963 0.21047 0.97605
 H1624 H 0.25578 0.22749 0.96062
 H1625 H 0.20734 0.27302 1.02477
 H1626 H 0.22325 0.29237 0.97967
 H1627 H 0.27456 0.21086 1.00815
 H1628 H 0.28848 0.22717 0.99128
 H1629 H 0.22322 0.25844 0.96281
 H1630 H 0.20772 0.24138 0.97790
 H1631 H 0.28921 0.25811 1.02484
 H1632 H 0.27406 0.24036 1.04159
 C1633 C 0.27625 0.41825 0.77742
 C1634 C 0.27997 0.41936 0.79285
 C1635 C 0.28802 0.40776 0.79994
 C1636 C 0.29210 0.39500 0.79163
 C1637 C 0.28820 0.39380 0.77626
 C1638 C 0.28026 0.40547 0.76913
 C1639 C 0.27662 0.40410 0.75374
 C1640 C 0.28069 0.39153 0.74560
 C1641 C 0.28843 0.38011 0.75257
 C1642 C 0.29218 0.38117 0.76772
 C1643 C 0.29189 0.40927 0.81529
 C1644 C 0.28773 0.42178 0.82346
 C1645 C 0.27965 0.43299 0.81658
 C1646 C 0.27588 0.43193 0.80145
 C1647 C 0.30006 0.38306 0.79902
 C1648 C 0.30647 0.37323 0.80550
 C1649 C 0.26941 0.43082 0.76998
 C1650 C 0.26439 0.44195 0.76452
 H1651 H 0.27057 0.41269 0.74786
 H1652 H 0.27781 0.39065 0.73383
 H1653 H 0.29157 0.37037 0.74619
 H1654 H 0.29824 0.37202 0.77264
 H1655 H 0.29812 0.40080 0.82115
 H1656 H 0.29071 0.42273 0.83521
 H1657 H 0.27621 0.44254 0.82302
 H1658 H 0.26962 0.44100 0.79664
 C1659 C 0.28741 -0.07868 0.28180
 C1660 C 0.28537 -0.09381 0.27807
 C1661 C 0.29336 -0.10488 0.28604
 C1662 C 0.30337 -0.10075 0.29768
 C1663 C 0.30556 -0.08560 0.30129
 C1664 C 0.29752 -0.07453 0.29337
 C1665 C 0.29983 -0.05945 0.29726
 C1666 C 0.30985 -0.05546 0.30857
 C1667 C 0.31776 -0.06628 0.31626
 C1668 C 0.31566 -0.08120 0.31273
 C1669 C 0.29110 -0.11996 0.28214
 C1670 C 0.28123 -0.12397 0.27069
 C1671 C 0.27343 -0.11313 0.26289
 C1672 C 0.27543 -0.09820 0.26649
 C1673 C 0.31125 -0.11209 0.30605
 C1674 C 0.31765 -0.12162 0.31299
 C1675 C 0.27910 -0.06731 0.27389
 C1676 C 0.27259 -0.05723 0.26792
 H1677 H 0.29399 -0.05059 0.29160
 H1678 H 0.31151 -0.04389 0.31138
 H1679 H 0.32554 -0.06309 0.32503
 H1680 H 0.32207 -0.08922 0.31904
 H1681 H 0.29693 -0.12879 0.28786
 H1682 H 0.27964 -0.13555 0.26784
 H1683 H 0.26578 -0.11630 0.25400
 H1684 H 0.26911 -0.09016 0.26012
 C1685 C 0.78615 0.92076 0.78397
 C1686 C 0.79603 0.92538 0.79556
 C1687 C 0.80425 0.91466 0.80380
 C1688 C 0.80257 0.89941 0.80039
 C1689 C 0.79282 0.89481 0.78871
 C1690 C 0.78459 0.90552 0.78047
 C1691 C 0.77491 0.90067 0.76886
 C1692 C 0.77341 0.88564 0.76546
 C1693 C 0.78146 0.87515 0.77350
 C1694 C 0.79107 0.87962 0.78501
 C1695 C 0.81406 0.91952 0.81531
 C1696 C 0.81580 0.93455 0.81852
 C1697 C 0.80782 0.94503 0.81043
 C1698 C 0.79798 0.94057 0.79913
 C1699 C 0.81075 0.88845 0.80900
 C1700 C 0.81741 0.87927 0.81618
 C1701 C 0.77773 0.93179 0.77568
 C1702 C 0.77127 0.94169 0.76937
 H1703 H 0.76843 0.90842 0.76229
 H1704 H 0.76596 0.88211 0.75653
 H1705 H 0.78026 0.86349 0.77081
 H1706 H 0.79710 0.87105 0.79094
 H1707 H 0.82055 0.91179 0.82188
 H1708 H 0.82342 0.93810 0.82729
 H1709 H 0.80929 0.95670 0.81290
 H1710 H 0.79204 0.94919 0.79319
 C1711 C 0.46479 0.83061 0.27718
 C1712 C 0.47205 0.83929 0.28828
 C1713 C 0.46364 0.84922 0.29730
 C1714 C 0.44799 0.85037 0.29520
 C1715 C 0.44074 0.84177 0.28401
 C1716 C 0.44920 0.83199 0.27486
 C1717 C 0.44170 0.82347 0.26377
 C1718 C 0.42628 0.82448 0.26188
 C1719 C 0.41798 0.83390 0.27096
 C1720 C 0.42508 0.84251 0.28189
 C1721 C 0.47114 0.85770 0.30842
 C1722 C 0.48651 0.85640 0.31056
 C1723 C 0.49474 0.84668 0.30174
 C1724 C 0.48765 0.83819 0.29071
 C1725 C 0.43941 0.86045 0.30450
 C1726 C 0.43245 0.86898 0.31219
 C1727 C 0.47298 0.81906 0.26939
 C1728 C 0.47925 0.80863 0.26378
 H1729 H 0.44766 0.81594 0.25647
 H1730 H 0.42075 0.81793 0.25331
 H1731 H 0.40599 0.83457 0.26950
 H1732 H 0.41816 0.84968 0.28868
 H1733 H 0.46523 0.86539 0.31559
 H1734 H 0.49207 0.86296 0.31912
 H1735 H 0.50668 0.84572 0.30343
 H1736 H 0.49452 0.83083 0.28408
 C1737 C -0.03534 0.82921 0.78300
 C1738 C -0.03065 0.83273 0.79779
 C1739 C -0.03947 0.84227 0.80686
 C1740 C -0.05290 0.84825 0.80108
 C1741 C -0.05786 0.84432 0.78650
 C1742 C -0.04903 0.83480 0.77741
 C1743 C -0.05437 0.83077 0.76300
 C1744 C -0.06809 0.83590 0.75775
 C1745 C -0.07673 0.84519 0.76664
 C1746 C -0.07170 0.84943 0.78084
 C1747 C -0.03477 0.84530 0.82173
 C1748 C -0.02180 0.83899 0.82753
 C1749 C -0.01318 0.82967 0.81867
 C1750 C -0.01746 0.82658 0.80395
 C1751 C -0.06164 0.85839 0.81016
 C1752 C -0.06875 0.86701 0.81761
 C1753 C -0.02705 0.81838 0.77432
 C1754 C -0.02077 0.80844 0.76788
 H1755 H -0.04806 0.82354 0.75569
 H1756 H -0.07205 0.83262 0.74674
 H1757 H -0.08741 0.84909 0.76254
 H1758 H -0.07886 0.85661 0.78737
 H1759 H -0.04116 0.85242 0.82909
 H1760 H -0.01844 0.84133 0.83897
 H1761 H -0.00311 0.82479 0.82323
 H1762 H -0.01038 0.81926 0.79751
 C1763 C -0.03412 -0.08022 -0.03275
 C1764 C -0.03039 -0.08292 -0.04794
 C1765 C -0.03902 -0.09308 -0.05660
 C1766 C -0.05129 -0.10053 -0.05001
 C1767 C -0.05533 -0.09746 -0.03498
 C1768 C -0.04670 -0.08730 -0.02631
 C1769 C -0.05114 -0.08415 -0.01142
 C1770 C -0.06383 -0.09075 -0.00531
 C1771 C -0.07229 -0.10066 -0.01381
 C1772 C -0.06810 -0.10407 -0.02845
 C1773 C -0.03541 -0.09521 -0.07191
 C1774 C -0.02372 -0.08738 -0.07851
 C1775 C -0.01527 -0.07744 -0.07004
 C1776 C -0.01845 -0.07526 -0.05491
 C1777 C -0.05984 -0.11121 -0.05874
 C1778 C -0.06677 -0.12024 -0.06596
 C1779 C -0.02612 -0.06887 -0.02438
 C1780 C -0.01999 -0.05864 -0.01814
 H1781 H -0.04494 -0.07648 -0.00439
 H1782 H -0.06714 -0.08813 0.00605
 H1783 H -0.08217 -0.10572 -0.00903
 H1784 H -0.07508 -0.11180 -0.03464
 H1785 H -0.04173 -0.10274 -0.07899
 H1786 H -0.02123 -0.08900 -0.09027
 H1787 H -0.00622 -0.07136 -0.07523
 H1788 H -0.01158 -0.06738 -0.04881
 C1789 C -0.03145 0.41953 0.46849
 C1790 C -0.02476 0.41171 0.45648
 C1791 C -0.03339 0.40148 0.44787
 C1792 C -0.04863 0.39910 0.45135
 C1793 C -0.05541 0.40715 0.46316
 C1794 C -0.04678 0.41736 0.47178
 C1795 C -0.05392 0.42563 0.48322
 C1796 C -0.06916 0.42398 0.48593
 C1797 C -0.07758 0.41400 0.47749
 C1798 C -0.07083 0.40560 0.46628
 C1799 C -0.02656 0.39409 0.43567
 C1800 C -0.01168 0.39681 0.43200
 C1801 C -0.00326 0.40681 0.44042
 C1802 C -0.00965 0.41418 0.45255
 C1803 C -0.05744 0.38869 0.44253
 C1804 C -0.06465 0.37994 0.43522
 C1805 C -0.02314 0.43111 0.47623
 C1806 C -0.01695 0.44153 0.48205
 H1807 H -0.04785 0.43356 0.49006
 H1808 H -0.07445 0.43050 0.49461
 H1809 H -0.08943 0.41279 0.47961
 H1810 H -0.07787 0.39804 0.45995
 H1811 H -0.03268 0.38626 0.42874
 H1812 H -0.00667 0.39115 0.42256
 H1813 H 0.00829 0.40891 0.43751
 H1814 H -0.00266 0.42188 0.45875
 C1815 C 0.46676 -0.08186 0.46842
 C1816 C 0.47074 -0.08499 0.45338
 C1817 C 0.46215 -0.09528 0.44483
 C1818 C 0.44968 -0.10243 0.45139
 C1819 C 0.44548 -0.09901 0.46630
 C1820 C 0.45407 -0.08872 0.47485
 C1821 C 0.44948 -0.08525 0.48963
 C1822 C 0.43673 -0.09171 0.49575
 C1823 C 0.42832 -0.10176 0.48738
 C1824 C 0.43261 -0.10545 0.47283
 C1825 C 0.46599 -0.09782 0.42965
 C1826 C 0.47789 -0.09029 0.42306
 C1827 C 0.48631 -0.08025 0.43142
 C1828 C 0.48289 -0.07765 0.44643
 C1829 C 0.44111 -0.11316 0.44275
 C1830 C 0.43417 -0.12223 0.43559
 C1831 C 0.47464 -0.07028 0.47658
 C1832 C 0.48067 -0.05987 0.48258
 H1833 H 0.45565 -0.07747 0.49657
 H1834 H 0.43333 -0.08887 0.50704
 H1835 H 0.41838 -0.10670 0.49216
 H1836 H 0.42567 -0.11326 0.46673
 H1837 H 0.45971 -0.10545 0.42265
 H1838 H 0.48056 -0.09224 0.41139
 H1839 H 0.49553 -0.07441 0.42625
 H1840 H 0.48975 -0.06970 0.45245
 C1841 C 0.46320 0.42320 -0.03513
 C1842 C 0.44789 0.42097 -0.03181
 C1843 C 0.43922 0.41095 -0.04061
 C1844 C 0.44592 0.40318 -0.05264
 C1845 C 0.46107 0.40584 -0.05632
 C1846 C 0.46975 0.41585 -0.04752
 C1847 C 0.48482 0.41845 -0.05152
 C1848 C 0.49113 0.41139 -0.06388
 C1849 C 0.48263 0.40163 -0.07251
 C1850 C 0.46778 0.39881 -0.06881
 C1851 C 0.42384 0.40924 -0.03736
 C1852 C 0.41717 0.41734 -0.02587
 C1853 C 0.42565 0.42713 -0.01726
 C1854 C 0.44085 0.42891 -0.02008
 C1855 C 0.43730 0.39233 -0.06111
 C1856 C 0.43031 0.38305 -0.06796
 C1857 C 0.47180 0.43408 -0.02670
 C1858 C 0.47844 0.44387 -0.02026
 H1859 H 0.49187 0.42599 -0.04518
 H1860 H 0.50266 0.41354 -0.06681
 H1861 H 0.48756 0.39623 -0.08215
 H1862 H 0.46160 0.39118 -0.07591
 H1863 H 0.41676 0.40184 -0.04383
 H1864 H 0.40535 0.41603 -0.02366
 H1865 H 0.42041 0.43342 -0.00836
 H1866 H 0.44695 0.43671 -0.01311
 C1867 C 0.78768 0.33019 0.46813
 C1868 C 0.80329 0.33144 0.47059
 C1869 C 0.81204 0.34081 0.46128
 C1870 C 0.80514 0.34884 0.44955
 C1871 C 0.78963 0.34721 0.44677
 C1872 C 0.78087 0.33789 0.45611
 C1873 C 0.76543 0.33625 0.45297
 C1874 C 0.75886 0.34356 0.44090
 C1875 C 0.76743 0.35265 0.43175
 C1876 C 0.78264 0.35453 0.43462
 C1877 C 0.82767 0.34153 0.46365
 C1878 C 0.83450 0.33306 0.47476
 C1879 C 0.82596 0.32388 0.48385
 C1880 C 0.81052 0.32310 0.48190
 C1881 C 0.81398 0.35872 0.44027
 C1882 C 0.82114 0.36716 0.43267
 C1883 C 0.77901 0.31964 0.47678
 C1884 C 0.77237 0.30990 0.48317
 H1885 H 0.75831 0.32927 0.45976
 H1886 H 0.74706 0.34211 0.43862
 H1887 H 0.76228 0.35825 0.42235
 H1888 H 0.78885 0.36165 0.42713
 H1889 H 0.83481 0.34841 0.45678
 H1890 H 0.84650 0.33358 0.47628
 H1891 H 0.83132 0.31728 0.49242
 H1892 H 0.80436 0.31576 0.48923
 C1893 C 0.78376 0.83033 -0.03107
 C1894 C 0.77646 0.84004 -0.04113
 C1895 C 0.78500 0.84994 -0.05007
 C1896 C 0.80078 0.85014 -0.04883
 C1897 C 0.80808 0.84046 -0.03874
 C1898 C 0.79955 0.83055 -0.02980
 C1899 C 0.80712 0.82082 -0.01995
 C1900 C 0.82267 0.82078 -0.01907
 C1901 C 0.83101 0.83044 -0.02784
 C1902 C 0.82386 0.84023 -0.03754
 C1903 C 0.77745 0.85942 -0.06018
 C1904 C 0.76192 0.85918 -0.06135
 C1905 C 0.75358 0.84954 -0.05255
 C1906 C 0.76071 0.84002 -0.04257
 C1907 C 0.80947 0.86043 -0.05779
 C1908 C 0.81658 0.86917 -0.06510
 C1909 C 0.77524 0.81913 -0.02312
 C1910 C 0.76885 0.80892 -0.01722
 H1911 H 0.80114 0.81306 -0.01293
 H1912 H 0.82828 0.81315 -0.01160
 H1913 H 0.84309 0.83029 -0.02719
 H1914 H 0.83083 0.84747 -0.04419
 H1915 H 0.78345 0.86709 -0.06729
 H1916 H 0.75633 0.86649 -0.06915
 H1917 H 0.74152 0.84939 -0.05352
 H1918 H 0.75376 0.83270 -0.03598
 C1919 C 0.78246 0.28600 0.41947
 C1920 C 0.79730 0.28156 0.41634
 C1921 C 0.80630 0.29014 0.40651
 C1922 C 0.80040 0.30310 0.39983
 C1923 C 0.78573 0.30779 0.40331
 C1924 C 0.77672 0.29920 0.41314
 C1925 C 0.76221 0.30428 0.41670
 C1926 C 0.75677 0.31749 0.41077
 C1927 C 0.76558 0.32589 0.40117
 C1928 C 0.77988 0.32112 0.39740
 C1929 C 0.82124 0.28574 0.40393
 C1930 C 0.82718 0.27331 0.41097
 C1931 C 0.81839 0.26491 0.42058
 C1932 C 0.80359 0.26889 0.42322
 C1933 C 0.80946 0.31162 0.38947
 C1934 C 0.81696 0.31850 0.38069
 C1935 C 0.77386 0.27800 0.43061
 C1936 C 0.76761 0.27183 0.44081
 H1937 H 0.75495 0.29814 0.42414
 H1938 H 0.74568 0.32126 0.41368
 H1939 H 0.76133 0.33617 0.39664
 H1940 H 0.78634 0.32807 0.38995
 H1941 H 0.82855 0.29197 0.39661
 H1942 H 0.83867 0.27019 0.40898
 H1943 H 0.82306 0.25527 0.42605
 H1944 H 0.79722 0.26201 0.43081
 C1945 C 0.77935 0.78484 -0.08202
 C1946 C 0.79200 0.77829 -0.08880
 C1947 C 0.80106 0.78674 -0.09870
 C1948 C 0.79741 0.80170 -0.10175
 C1949 C 0.78481 0.80829 -0.09490
 C1950 C 0.77567 0.79979 -0.08511
 C1951 C 0.76322 0.80665 -0.07827
 C1952 C 0.75995 0.82150 -0.08095
 C1953 C 0.76895 0.82985 -0.09041
 C1954 C 0.78122 0.82336 -0.09738
 C1955 C 0.81374 0.77999 -0.10521
 C1956 C 0.81740 0.76533 -0.10202
 C1957 C 0.80855 0.75707 -0.09234
 C1958 C 0.79599 0.76342 -0.08578
 C1959 C 0.80657 0.81024 -0.11202
 C1960 C 0.81411 0.81714 -0.12076
 C1961 C 0.77121 0.77679 -0.07056
 C1962 C 0.76535 0.77057 -0.06018
 H1963 H 0.75592 0.80063 -0.07078
 H1964 H 0.75037 0.82656 -0.07563
 H1965 H 0.76640 0.84141 -0.09238
 H1966 H 0.78792 0.83031 -0.10462
 H1967 H 0.82100 0.78598 -0.11278
 H1968 H 0.82715 0.76035 -0.10709
 H1969 H 0.81143 0.74567 -0.08991
 H1970 H 0.78943 0.75653 -0.07835
 C1971 C 0.27944 0.47211 0.83134
 C1972 C 0.27122 0.46744 0.84402
 C1973 C 0.27838 0.45914 0.85549
 C1974 C 0.29372 0.45555 0.85421
 C1975 C 0.30196 0.46030 0.84157
 C1976 C 0.29484 0.46871 0.83017
 C1977 C 0.30336 0.47344 0.81771
 C1978 C 0.31846 0.46995 0.81656
 C1979 C 0.32538 0.46154 0.82758
 C1980 C 0.31729 0.45675 0.83998
 C1981 C 0.26991 0.45451 0.86801
 C1982 C 0.25479 0.45797 0.86915
 C1983 C 0.24779 0.46607 0.85792
 C1984 C 0.25586 0.47078 0.84546
 C1985 C 0.30112 0.44717 0.86594
 C1986 C 0.30758 0.44041 0.87563
 C1987 C 0.27194 0.47927 0.81887
 C1988 C 0.26640 0.48457 0.80778
 H1989 H 0.29851 0.47997 0.80879
 H1990 H 0.32483 0.47385 0.80709
 H1991 H 0.33710 0.45879 0.82656
 H1992 H 0.32318 0.45028 0.84830
 H1993 H 0.27486 0.44816 0.87702
 H1994 H 0.24847 0.45433 0.87881
 H1995 H 0.23604 0.46872 0.85886
 H1996 H 0.24995 0.47708 0.83702
 C1997 C 0.28447 -0.03608 0.32967
 C1998 C 0.28141 -0.05141 0.33135
 C1999 C 0.29027 -0.06011 0.34122
 C2000 C 0.30211 -0.05341 0.34938
 C2001 C 0.30537 -0.03815 0.34746
 C2002 C 0.29650 -0.02946 0.33761
 C2003 C 0.30012 -0.01429 0.33571
 C2004 C 0.31218 -0.00790 0.34328
 C2005 C 0.32088 -0.01640 0.35288
 C2006 C 0.31755 -0.03136 0.35502
 C2007 C 0.28733 -0.07550 0.34232
 C2008 C 0.27607 -0.08216 0.33379
 C2009 C 0.26740 -0.07367 0.32415
 C2010 C 0.26993 -0.05846 0.32296
 C2011 C 0.31105 -0.06224 0.35961
 C2012 C 0.31840 -0.06945 0.36827
 C2013 C 0.27633 -0.02757 0.31855
 C2014 C 0.27013 -0.02107 0.30852
 H2015 H 0.29371 -0.00722 0.32833
 H2016 H 0.31483 0.00371 0.34165
 H2017 H 0.33028 -0.01140 0.35869
 H2018 H 0.32468 -0.03753 0.36256
 H2019 H 0.29384 -0.08259 0.34960
 H2020 H 0.27409 -0.09397 0.33464
 H2021 H 0.25869 -0.07890 0.31752
 H2022 H 0.26292 -0.05234 0.31526
 C2023 C -0.03574 -0.03839 -0.07747
 C2024 C -0.03307 -0.03669 -0.09300
 C2025 C -0.04130 -0.04534 -0.10355
 C2026 C -0.05216 -0.05563 -0.09850
 C2027 C -0.05479 -0.05738 -0.08297
 C2028 C -0.04656 -0.04874 -0.07242
 C2029 C -0.04942 -0.05069 -0.05694
 C2030 C -0.06007 -0.06088 -0.05206
 C2031 C -0.06811 -0.06931 -0.06238
 C2032 C -0.06554 -0.06764 -0.07767
 C2033 C -0.03844 -0.04343 -0.11903
 C2034 C -0.02777 -0.03327 -0.12394
 C2035 C -0.01973 -0.02482 -0.11361
 C2036 C -0.02230 -0.02647 -0.09830
 C2037 C -0.06074 -0.06428 -0.10929
 C2038 C -0.06787 -0.07133 -0.11835
 C2039 C -0.02744 -0.02955 -0.06661
 C2040 C -0.02102 -0.02269 -0.05690
 H2041 H -0.04348 -0.04440 -0.04844
 H2042 H -0.06210 -0.06223 -0.04019
 H2043 H -0.07637 -0.07720 -0.05850
 H2044 H -0.07206 -0.07447 -0.08526
 H2045 H -0.04439 -0.04976 -0.12749
 H2046 H -0.02573 -0.03195 -0.13582
 H2047 H -0.01146 -0.01694 -0.11748
 H2048 H -0.01577 -0.01966 -0.09069
 C2049 C -0.03185 0.46359 0.42060
 C2050 C -0.02549 0.45096 0.41367
 C2051 C -0.03425 0.44208 0.40377
 C2052 C -0.04931 0.44591 0.40084
 C2053 C -0.05584 0.45820 0.40822
 C2054 C -0.04707 0.46709 0.41810
 C2055 C -0.05397 0.47906 0.42568
 C2056 C -0.06912 0.48202 0.42373
 C2057 C -0.07769 0.47330 0.41410
 C2058 C -0.07117 0.46157 0.40633
 C2059 C -0.02778 0.42929 0.39728
 C2060 C -0.01310 0.42531 0.40058
 C2061 C -0.00453 0.43399 0.41025
 C2062 C -0.01058 0.44671 0.41672
 C2063 C -0.05812 0.43719 0.39030
 C2064 C -0.06544 0.43020 0.38135
 C2065 C -0.02332 0.47196 0.43163
 C2066 C -0.01698 0.47847 0.44162
 H2067 H -0.04779 0.48613 0.43335
 H2068 H -0.07424 0.49110 0.42977
 H2069 H -0.08947 0.47560 0.41267
 H2070 H -0.07833 0.45504 0.39905
 H2071 H -0.03404 0.42214 0.38976
 H2072 H -0.00837 0.41542 0.39562
 H2073 H 0.00686 0.43084 0.41279
 H2074 H -0.00348 0.45309 0.42420
 C2075 C 0.46671 -0.04023 0.42129
 C2076 C 0.46943 -0.03815 0.40582
 C2077 C 0.46112 -0.04642 0.39503
 C2078 C 0.45018 -0.05675 0.39977
 C2079 C 0.44755 -0.05895 0.41525
 C2080 C 0.45580 -0.05063 0.42604
 C2081 C 0.45285 -0.05291 0.44145
 C2082 C 0.44209 -0.06311 0.44604
 C2083 C 0.43411 -0.07132 0.43549
 C2084 C 0.43675 -0.06930 0.42026
 C2085 C 0.46400 -0.04409 0.37961
 C2086 C 0.47478 -0.03390 0.37500
 C2087 C 0.48290 -0.02583 0.38556
 C2088 C 0.48030 -0.02788 0.40082
 C2089 C 0.44149 -0.06496 0.38872
 C2090 C 0.43429 -0.07159 0.37940
 C2091 C 0.47493 -0.03160 0.43238
 C2092 C 0.48119 -0.02479 0.44222
 H2093 H 0.45878 -0.04685 0.45013
 H2094 H 0.43993 -0.06467 0.45786
 H2095 H 0.42579 -0.07926 0.43914
 H2096 H 0.43023 -0.07592 0.41247
 H2097 H 0.45798 -0.05011 0.37097
 H2098 H 0.47683 -0.03226 0.36316
 H2099 H 0.49127 -0.01793 0.38192
 H2100 H 0.48691 -0.02136 0.40862
 C2101 C 0.46588 0.46672 -0.08038
 C2102 C 0.47251 0.45452 -0.08781
 C2103 C 0.46411 0.44620 -0.09849
 C2104 C 0.44915 0.45017 -0.10170
 C2105 C 0.44234 0.46202 -0.09386
 C2106 C 0.45076 0.47038 -0.08323
 C2107 C 0.44363 0.48200 -0.07532
 C2108 C 0.42857 0.48512 -0.07768
 C2109 C 0.42033 0.47691 -0.08805
 C2110 C 0.42710 0.46554 -0.09615
 C2111 C 0.47091 0.43393 -0.10563
 C2112 C 0.48558 0.42996 -0.10228
 C2113 C 0.49380 0.43811 -0.09186
 C2114 C 0.48740 0.45025 -0.08467
 C2115 C 0.44088 0.44228 -0.11329
 C2116 C 0.43417 0.43594 -0.12316
 C2117 C 0.47414 0.47467 -0.06884
 C2118 C 0.48043 0.48080 -0.05857
 H2119 H 0.44954 0.48866 -0.06709
 H2120 H 0.42325 0.49392 -0.07140
 H2121 H 0.40863 0.47935 -0.08981
 H2122 H 0.42021 0.45941 -0.10402
 H2123 H 0.46494 0.42721 -0.11377
 H2124 H 0.49058 0.42048 -0.10778
 H2125 H 0.50519 0.43497 -0.08929
 H2126 H 0.49423 0.45623 -0.07662
 C2127 C 0.46815 0.78507 0.32894
 C2128 C 0.45695 0.79518 0.32430
 C2129 C 0.44861 0.80315 0.33518
 C2130 C 0.45144 0.80089 0.35064
 C2131 C 0.46263 0.79079 0.35526
 C2132 C 0.47101 0.78286 0.34437
 C2133 C 0.48210 0.77281 0.34924
 C2134 C 0.48486 0.77065 0.36447
 C2135 C 0.47667 0.77840 0.37513
 C2136 C 0.46567 0.78837 0.37065
 C2137 C 0.43745 0.81314 0.33029
 C2138 C 0.43444 0.81502 0.31507
 C2139 C 0.44246 0.80709 0.30444
 C2140 C 0.45371 0.79741 0.30891
 C2141 C 0.44280 0.80888 0.36178
 C2142 C 0.43571 0.81546 0.37113
 C2143 C 0.47649 0.77692 0.31770
 C2144 C 0.48267 0.77069 0.30749
 H2145 H 0.48875 0.76654 0.34135
 H2146 H 0.49339 0.76292 0.36801
 H2147 H 0.47886 0.77668 0.38695
 H2148 H 0.45961 0.79413 0.37936
 H2149 H 0.43083 0.81947 0.33815
 H2150 H 0.42572 0.82254 0.31151
 H2151 H 0.43983 0.80828 0.29267
 H2152 H 0.45961 0.79153 0.30017
 C2153 C -0.03295 0.78464 0.82959
 C2154 C -0.04383 0.79485 0.82442
 C2155 C -0.05218 0.80332 0.83489
 C2156 C -0.04963 0.80154 0.85045
 C2157 C -0.03873 0.79138 0.85561
 C2158 C -0.03038 0.78290 0.84513
 C2159 C -0.01959 0.77278 0.85053
 C2160 C -0.01713 0.77107 0.86586
 C2161 C -0.02529 0.77936 0.87612
 C2162 C -0.03597 0.78942 0.87112
 C2163 C -0.06305 0.81337 0.82949
 C2164 C -0.06569 0.81491 0.81417
 C2165 C -0.05756 0.80660 0.80393
 C2166 C -0.04669 0.79674 0.80891
 C2167 C -0.05833 0.81001 0.86116
 C2168 C -0.06553 0.81691 0.87017
 C2169 C -0.02460 0.77597 0.81877
 C2170 C -0.01839 0.76943 0.80879
 H2171 H -0.01298 0.76609 0.84296
 H2172 H -0.00884 0.76326 0.86981
 H2173 H -0.02333 0.77799 0.88802
 H2174 H -0.04203 0.79562 0.87953
 H2175 H -0.06967 0.82008 0.83702
 H2176 H -0.07414 0.82254 0.81023
 H2177 H -0.05975 0.80774 0.79204
 H2178 H -0.04069 0.79055 0.80045
 C2179 C 0.41802 0.77868 0.28161
 C2180 C 0.40751 0.78749 0.27383
 C2181 C 0.39716 0.79628 0.28198
 C2182 C 0.39733 0.79612 0.29787
 C2183 C 0.40766 0.78709 0.30565
 C2184 C 0.41801 0.77831 0.29749
 C2185 C 0.42832 0.76946 0.30553
 C2186 C 0.42846 0.76936 0.32115
 C2187 C 0.41839 0.77800 0.32912
 C2188 C 0.40805 0.78676 0.32152
 C2189 C 0.38687 0.80514 0.27395
 C2190 C 0.38674 0.80523 0.25832
 C2191 C 0.39679 0.79654 0.25036
 C2192 C 0.40712 0.78779 0.25797
 C2193 C 0.38675 0.80509 0.30618
 C2194 C 0.37782 0.81242 0.31303
 C2195 C 0.42974 0.77110 0.27343
 C2196 C 0.44032 0.76552 0.26734
 H2197 H 0.43642 0.76257 0.29984
 H2198 H 0.43651 0.76263 0.32711
 H2199 H 0.41862 0.77798 0.34126
 H2200 H 0.40048 0.79333 0.32821
 H2201 H 0.37883 0.81209 0.27965
 H2202 H 0.37880 0.81208 0.25236
 H2203 H 0.39664 0.79665 0.23822
 H2204 H 0.41474 0.78123 0.25130
 C2205 C -0.08114 0.78169 0.78529
 C2206 C -0.08941 0.79308 0.77825
 C2207 C -0.09924 0.80204 0.78685
 C2208 C -0.10077 0.79954 0.80244
 C2209 C -0.09214 0.78847 0.80958
 C2210 C -0.08232 0.77949 0.80098
 C2211 C -0.07351 0.76877 0.80843
 C2212 C -0.07422 0.76711 0.82395
 C2213 C -0.08380 0.77591 0.83235
 C2214 C -0.09276 0.78643 0.82530
 C2215 C -0.10720 0.81353 0.77959
 C2216 C -0.10548 0.81609 0.76429
 C2217 C -0.09590 0.80731 0.75588
 C2218 C -0.08793 0.79592 0.76272
 C2219 C -0.11131 0.80828 0.81107
 C2220 C -0.12032 0.81545 0.81800
 C2221 C -0.07018 0.77337 0.77677
 C2222 C -0.06020 0.76719 0.77024
 H2223 H -0.06583 0.76170 0.80240
 H2224 H -0.06725 0.75900 0.82949
 H2225 H -0.08426 0.77463 0.84441
 H2226 H -0.09995 0.79309 0.83232
 H2227 H -0.11473 0.82071 0.78567
 H2228 H -0.11160 0.82497 0.75894
 H2229 H -0.09458 0.80936 0.74401
 H2230 H -0.08058 0.78940 0.75571
 C2231 C 0.83058 0.28382 0.46442
 C2232 C 0.84607 0.28173 0.46674
 C2233 C 0.85655 0.29044 0.45865
 C2234 C 0.85146 0.30116 0.44825
 C2235 C 0.83597 0.30322 0.44587
 C2236 C 0.82549 0.29460 0.45406
 C2237 C 0.81004 0.29711 0.45173
 C2238 C 0.80512 0.30779 0.44161
 C2239 C 0.81538 0.31603 0.43344
 C2240 C 0.83064 0.31383 0.43550
 C2241 C 0.87199 0.28819 0.46122
 C2242 C 0.87692 0.27766 0.47149
 C2243 C 0.86666 0.26915 0.47940
 C2244 C 0.85139 0.27111 0.47709
 C2245 C 0.86218 0.31011 0.44007
 C2246 C 0.87121 0.31743 0.43333
 C2247 C 0.81977 0.27514 0.47276
 C2248 C 0.80988 0.26872 0.47921
 H2249 H 0.80158 0.29095 0.45774
 H2250 H 0.79328 0.30969 0.44012
 H2251 H 0.81148 0.32427 0.42555
 H2252 H 0.83818 0.32061 0.42897
 H2253 H 0.88040 0.29453 0.45533
 H2254 H 0.88878 0.27610 0.47333
 H2255 H 0.87055 0.26099 0.48737
 H2256 H 0.84382 0.26423 0.48349
 C2257 C 0.82908 0.78240 -0.03621
 C2258 C 0.84454 0.78009 -0.03396
 C2259 C 0.85511 0.78861 -0.04216
 C2260 C 0.85012 0.79937 -0.05256
 C2261 C 0.83464 0.80166 -0.05485
 C2262 C 0.82409 0.79318 -0.04661
 C2263 C 0.80866 0.79589 -0.04887
 C2264 C 0.80384 0.80672 -0.05885
 C2265 C 0.81415 0.81487 -0.06705
 C2266 C 0.82940 0.81239 -0.06514
 C2267 C 0.87053 0.78611 -0.03970
 C2268 C 0.87536 0.77552 -0.02944
 C2269 C 0.86502 0.76719 -0.02143
 C2270 C 0.84976 0.76941 -0.02362
 C2271 C 0.86092 0.80815 -0.06082
 C2272 C 0.87003 0.81534 -0.06760
 C2273 C 0.81817 0.77390 -0.02781
 C2274 C 0.80817 0.76758 -0.02143
 H2275 H 0.80015 0.78986 -0.04280
 H2276 H 0.79203 0.80894 -0.06007
 H2277 H 0.81033 0.82328 -0.07479
 H2278 H 0.83700 0.81908 -0.07169
 H2279 H 0.87900 0.79230 -0.04566
 H2280 H 0.88720 0.77375 -0.02770
 H2281 H 0.86883 0.75898 -0.01348
 H2282 H 0.84213 0.76268 -0.01714
 C2283 C -0.08024 -0.03485 -0.03375
 C2284 C -0.08775 -0.04682 -0.02678
 C2285 C -0.09784 -0.05578 -0.03523
 C2286 C -0.10042 -0.05267 -0.05057
 C2287 C -0.09258 -0.04097 -0.05766
 C2288 C -0.08250 -0.03201 -0.04921
 C2289 C -0.07446 -0.02066 -0.05664
 C2290 C -0.07620 -0.01836 -0.07200
 C2291 C -0.08604 -0.02715 -0.08025
 C2292 C -0.09423 -0.03828 -0.07320
 C2293 C -0.10493 -0.06791 -0.02811
 C2294 C -0.10209 -0.07113 -0.01310
 C2295 C -0.09225 -0.06236 -0.00483
 C2296 C -0.08515 -0.05031 -0.01153
 C2297 C -0.11105 -0.06154 -0.05909
 C2298 C -0.12006 -0.06874 -0.06611
 C2299 C -0.06894 -0.02656 -0.02552
 C2300 C -0.05876 -0.02024 -0.01931
 H2301 H -0.06662 -0.01357 -0.05073
 H2302 H -0.06983 -0.00975 -0.07752
 H2303 H -0.08731 -0.02536 -0.09218
 H2304 H -0.10168 -0.04489 -0.08012
 H2305 H -0.11263 -0.07510 -0.03410
 H2306 H -0.10753 -0.08051 -0.00786
 H2307 H -0.09007 -0.06492 0.00682
 H2308 H -0.07756 -0.04382 -0.00465
 C2309 C -0.07554 0.46314 0.46313
 C2310 C -0.09101 0.46586 0.46462
 C2311 C -0.10146 0.45740 0.45608
 C2312 C -0.09636 0.44627 0.44612
 C2313 C -0.08088 0.44356 0.44460
 C2314 C -0.07043 0.45203 0.45311
 C2315 C -0.05499 0.44916 0.45133
 C2316 C -0.05006 0.43827 0.44142
 C2317 C -0.06027 0.42996 0.43314
 C2318 C -0.07552 0.43252 0.43467
 C2319 C -0.11689 0.46033 0.45777
 C2320 C -0.12185 0.47130 0.46759
 C2321 C -0.11163 0.47957 0.47592
 C2322 C -0.09636 0.47693 0.47450
 C2323 C -0.10705 0.43757 0.43748
 C2324 C -0.11603 0.43037 0.43042
 C2325 C -0.06477 0.47177 0.47174
 C2326 C -0.05511 0.47848 0.47836
 H2327 H -0.04657 0.45530 0.45751
 H2328 H -0.03822 0.43628 0.44015
 H2329 H -0.05635 0.42151 0.42547
 H2330 H -0.08304 0.42579 0.42796
 H2331 H -0.12528 0.45420 0.45153
 H2332 H -0.13370 0.47339 0.46874
 H2333 H -0.11553 0.48808 0.48353
 H2334 H -0.08883 0.48364 0.48121
 C2335 C 0.42177 -0.03623 0.46334
 C2336 C 0.41406 -0.04815 0.47017
 C2337 C 0.40414 -0.05711 0.46152
 C2338 C 0.40195 -0.05406 0.44610
 C2339 C 0.41007 -0.04248 0.43914
 C2340 C 0.42000 -0.03353 0.44779
 C2341 C 0.42835 -0.02232 0.44049
 C2342 C 0.42705 -0.02015 0.42507
 C2343 C 0.41734 -0.02889 0.41663
 C2344 C 0.40885 -0.03989 0.42354
 C2345 C 0.39682 -0.06917 0.46852
 C2346 C 0.39930 -0.07235 0.48361
 C2347 C 0.40898 -0.06358 0.49207
 C2348 C 0.41629 -0.05159 0.48550
 C2349 C 0.39141 -0.06286 0.43739
 C2350 C 0.38245 -0.07000 0.43024
 C2351 C 0.43272 -0.02777 0.47188
 C2352 C 0.44261 -0.02129 0.47838
 H2353 H 0.43610 -0.01527 0.44655
 H2354 H 0.43366 -0.01165 0.41965
 H2355 H 0.41641 -0.02719 0.40465
 H2356 H 0.40153 -0.04648 0.41648
 H2357 H 0.38924 -0.07636 0.46238
 H2358 H 0.39370 -0.08169 0.48875
 H2359 H 0.41089 -0.06611 0.50378
 H2360 H 0.42375 -0.04512 0.49252
 C2361 C 0.41935 0.46877 -0.03498
 C2362 C 0.40422 0.47177 -0.03164
 C2363 C 0.39267 0.46379 -0.03914
 C2364 C 0.39633 0.45287 -0.04997
 C2365 C 0.41147 0.44991 -0.05337
 C2366 C 0.42302 0.45784 -0.04581
 C2367 C 0.43807 0.45457 -0.04931
 C2368 C 0.44159 0.44386 -0.06002
 C2369 C 0.43030 0.43621 -0.06750
 C2370 C 0.41538 0.43913 -0.06423
 C2371 C 0.37761 0.46698 -0.03558
 C2372 C 0.37407 0.47774 -0.02493
 C2373 C 0.38538 0.48554 -0.01760
 C2374 C 0.40030 0.48264 -0.02087
 C2375 C 0.38449 0.44475 -0.05760
 C2376 C 0.37446 0.43820 -0.06384
 C2377 C 0.43119 0.47677 -0.02723
 C2378 C 0.44157 0.48287 -0.02112
 H2379 H 0.44729 0.46023 -0.04384
 H2380 H 0.45316 0.44149 -0.06255
 H2381 H 0.43311 0.42792 -0.07583
 H2382 H 0.40698 0.43284 -0.07030
 H2383 H 0.36842 0.46121 -0.04098
 H2384 H 0.36250 0.48004 -0.02235
 H2385 H 0.38257 0.49390 -0.00934
 H2386 H 0.40870 0.48899 -0.01488
 C2387 C 0.33127 0.46933 0.77659
 C2388 C 0.34400 0.47716 0.78182
 C2389 C 0.35509 0.46966 0.79035
 C2390 C 0.35336 0.45439 0.79359
 C2391 C 0.34074 0.44650 0.78817
 C2392 C 0.32973 0.45396 0.77953
 C2393 C 0.31729 0.44579 0.77407
 C2394 C 0.31580 0.43071 0.77707
 C2395 C 0.32641 0.42347 0.78574
 C2396 C 0.33877 0.43122 0.79125
 C2397 C 0.36764 0.47776 0.79559
 C2398 C 0.36919 0.49283 0.79251
 C2399 C 0.35834 0.50015 0.78418
 C2400 C 0.34585 0.49246 0.77887
 C2401 C 0.36460 0.44670 0.80237
 C2402 C 0.37385 0.44005 0.80951
 C2403 C 0.31905 0.47719 0.76944
 C2404 C 0.30813 0.48303 0.76422
 H2405 H 0.30869 0.45090 0.76730
 H2406 H 0.30639 0.42459 0.77258
 H2407 H 0.32511 0.41177 0.78813
 H2408 H 0.34677 0.42508 0.79788
 H2409 H 0.37636 0.47255 0.80214
 H2410 H 0.37887 0.49886 0.79661
 H2411 H 0.35960 0.51185 0.78182
 H2412 H 0.33772 0.49860 0.77241
 C2413 C 0.33001 -0.03357 0.28480
 C2414 C 0.33705 -0.02786 0.29785
 C2415 C 0.34702 -0.03693 0.30619
 C2416 C 0.34993 -0.05162 0.30138
 C2417 C 0.34255 -0.05747 0.28858
 C2418 C 0.33260 -0.04841 0.28024
 C2419 C 0.32502 -0.05463 0.26773
 C2420 C 0.32708 -0.06943 0.26371
 C2421 C 0.33679 -0.07829 0.27189
 C2422 C 0.34454 -0.07242 0.28414
 C2423 C 0.35365 -0.03111 0.31939
 C2424 C 0.35049 -0.01676 0.32425
 C2425 C 0.34078 -0.00788 0.31608
 C2426 C 0.33411 -0.01331 0.30302
 C2427 C 0.36044 -0.06074 0.30963
 C2428 C 0.36938 -0.06821 0.31631
 C2429 C 0.31883 -0.02482 0.27705
 C2430 C 0.30874 -0.01833 0.27101
 H2431 H 0.31729 -0.04821 0.26105
 H2432 H 0.32106 -0.07405 0.25423
 H2433 H 0.33831 -0.08980 0.26875
 H2434 H 0.35190 -0.07979 0.29021
 H2435 H 0.36122 -0.03762 0.32617
 H2436 H 0.35558 -0.01251 0.33443
 H2437 H 0.33835 0.00325 0.31991
 H2438 H 0.32659 -0.00601 0.29707
 C2439 C 0.16909 0.53730 0.71624
 C2440 C 0.16147 0.53078 0.70392
 C2441 C 0.15152 0.53944 0.69514
 C2442 C 0.14917 0.55455 0.69879
 C2443 C 0.15699 0.56115 0.71094
 C2444 C 0.16696 0.55249 0.71971
 C2445 C 0.17503 0.55945 0.73149
 C2446 C 0.17342 0.57455 0.73440
 C2447 C 0.16367 0.58301 0.72583
 C2448 C 0.15546 0.57643 0.71427
 C2449 C 0.14433 0.53278 0.68264
 C2450 C 0.14695 0.51800 0.67889
 C2451 C 0.15666 0.50953 0.68749
 C2452 C 0.16386 0.51578 0.69988
 C2453 C 0.13895 0.56336 0.68985
 C2454 C 0.13032 0.57055 0.68247
 C2455 C 0.18046 0.52893 0.72416
 C2456 C 0.19068 0.52253 0.73008
 H2457 H 0.18279 0.55335 0.73845
 H2458 H 0.17979 0.57973 0.74335
 H2459 H 0.16249 0.59474 0.72811
 H2460 H 0.14809 0.58349 0.70784
 H2461 H 0.13673 0.53894 0.67557
 H2462 H 0.14143 0.51312 0.66924
 H2463 H 0.15867 0.49806 0.68451
 H2464 H 0.17133 0.50874 0.70621
 C2465 C 0.16804 0.02886 0.21954
 C2466 C 0.16759 0.02852 0.20365
 C2467 C 0.15673 0.03697 0.19581
 C2468 C 0.14630 0.04561 0.20389
 C2469 C 0.14665 0.04582 0.21978
 C2470 C 0.15750 0.03734 0.22762
 C2471 C 0.15758 0.03764 0.24349
 C2472 C 0.14731 0.04619 0.25140
 C2473 C 0.13679 0.05460 0.24373
 C2474 C 0.13640 0.05444 0.22810
 C2475 C 0.15668 0.03667 0.17993
 C2476 C 0.16703 0.02822 0.17202
 C2477 C 0.17758 0.01986 0.17969
 C2478 C 0.17792 0.01997 0.19532
 C2479 C 0.13501 0.05400 0.19589
 C2480 C 0.12549 0.06082 0.18929
 C2481 C 0.18013 0.02152 0.22740
 C2482 C 0.19094 0.01608 0.23326
 H2483 H 0.16558 0.03130 0.24993
 H2484 H 0.14756 0.04633 0.26353
 H2485 H 0.12888 0.06127 0.24992
 H2486 H 0.12801 0.06116 0.22265
 H2487 H 0.14871 0.04302 0.17346
 H2488 H 0.16690 0.02821 0.15988
 H2489 H 0.18564 0.01336 0.17350
 H2490 H 0.18638 0.01333 0.20076
 C2491 C 0.57970 0.71759 0.21466
 C2492 C 0.57582 0.70554 0.20513
 C2493 C 0.58718 0.69759 0.19748
 C2494 C 0.60234 0.70172 0.19940
 C2495 C 0.60620 0.71385 0.20880
 C2496 C 0.59484 0.72181 0.21645
 C2497 C 0.59896 0.73388 0.22579
 C2498 C 0.61389 0.73799 0.22752
 C2499 C 0.62501 0.73022 0.22005
 C2500 C 0.62127 0.71827 0.21079
 C2501 C 0.58305 0.68562 0.18800
 C2502 C 0.56811 0.68166 0.18607
 C2503 C 0.55700 0.68946 0.19350
 C2504 C 0.56073 0.70123 0.20299
 C2505 C 0.61401 0.69342 0.19188
 C2506 C 0.62388 0.68661 0.18584
 C2507 C 0.56806 0.72556 0.22257
 C2508 C 0.55783 0.73168 0.22876
 H2509 H 0.59070 0.74027 0.23183
 H2510 H 0.61684 0.74726 0.23470
 H2511 H 0.63659 0.73345 0.22144
 H2512 H 0.63032 0.71258 0.20521
 H2513 H 0.59130 0.67924 0.18195
 H2514 H 0.56512 0.67252 0.17873
 H2515 H 0.54541 0.68639 0.19190
 H2516 H 0.55166 0.70692 0.20852
 C2517 C 0.07646 0.71651 0.71361
 C2518 C 0.07182 0.70611 0.70256
 C2519 C 0.08264 0.69786 0.69447
 C2520 C 0.09803 0.69996 0.69755
 C2521 C 0.10266 0.71031 0.70863
 C2522 C 0.09183 0.71862 0.71667
 C2523 C 0.09671 0.72891 0.72767
 C2524 C 0.11188 0.73094 0.73066
 C2525 C 0.12247 0.72281 0.72282
 C2526 C 0.11798 0.71260 0.71191
 C2527 C 0.07776 0.68759 0.68343
 C2528 C 0.06261 0.68543 0.68056
 C2529 C 0.05202 0.69336 0.68859
 C2530 C 0.05649 0.70365 0.69941
 C2531 C 0.10910 0.69152 0.68932
 C2532 C 0.11842 0.68464 0.68252
 C2533 C 0.06532 0.72486 0.72186
 C2534 C 0.05541 0.73122 0.72831
 H2535 H 0.08888 0.73549 0.73407
 H2536 H 0.11542 0.73886 0.73912
 H2537 H 0.13424 0.72443 0.72518
 H2538 H 0.12664 0.70654 0.70611
 H2539 H 0.08558 0.68108 0.67695
 H2540 H 0.05905 0.67749 0.67213
 H2541 H 0.04026 0.69153 0.68642
 H2542 H 0.04779 0.70958 0.70529
 C2543 C 0.66865 0.22361 0.53280
 C2544 C 0.66954 0.21962 0.54814
 C2545 C 0.65768 0.21152 0.55486
 C2546 C 0.64490 0.20765 0.54628
 C2547 C 0.64389 0.21188 0.53102
 C2548 C 0.65581 0.21988 0.52426
 C2549 C 0.65462 0.22385 0.50897
 C2550 C 0.64200 0.22005 0.50058
 C2551 C 0.63034 0.21224 0.50718
 C2552 C 0.63122 0.20817 0.52222
 C2553 C 0.65896 0.20740 0.57012
 C2554 C 0.67149 0.21137 0.57857
 C2555 C 0.68296 0.21949 0.57205
 C2556 C 0.68213 0.22349 0.55700
 C2557 C 0.63277 0.19944 0.55318
 C2558 C 0.62269 0.19272 0.55903
 C2559 C 0.68141 0.23054 0.52563
 C2560 C 0.69251 0.23567 0.52003
 H2561 H 0.66339 0.22996 0.50336
 H2562 H 0.64126 0.22319 0.48889
 H2563 H 0.62057 0.20931 0.50061
 H2564 H 0.62188 0.20208 0.52685
 H2565 H 0.65029 0.20113 0.57570
 H2566 H 0.67226 0.20821 0.59025
 H2567 H 0.69251 0.22277 0.57873
 H2568 H 0.69139 0.22976 0.55244
 C2569 C 0.67196 0.71543 0.03521
 C2570 C 0.66981 0.71861 0.05062
 C2571 C 0.65994 0.70970 0.05926
 C2572 C 0.65226 0.69768 0.05243
 C2573 C 0.65481 0.69419 0.03716
 C2574 C 0.66465 0.70311 0.02851
 C2575 C 0.66716 0.69929 0.01332
 C2576 C 0.66021 0.68696 0.00687
 C2577 C 0.65064 0.67819 0.01534
 C2578 C 0.64789 0.68174 0.03030
 C2579 C 0.65832 0.71280 0.07474
 C2580 C 0.66635 0.72427 0.08154
 C2581 C 0.67601 0.73298 0.07311
 C2582 C 0.67770 0.73029 0.05781
 C2583 C 0.64175 0.68891 0.06109
 C2584 C 0.63281 0.68174 0.06814
 C2585 C 0.68286 0.72386 0.02669
 C2586 C 0.69267 0.73029 0.02011
 H2587 H 0.67456 0.70573 0.00629
 H2588 H 0.66232 0.68415 -0.00474
 H2589 H 0.64535 0.66857 0.01030
 H2590 H 0.64041 0.67455 0.03644
 H2591 H 0.65102 0.70627 0.08178
 H2592 H 0.66511 0.72639 0.09342
 H2593 H 0.68225 0.74185 0.07845
 H2594 H 0.68537 0.73734 0.05174
 C2595 C 0.08122 0.03262 0.02979
 C2596 C 0.08179 0.04828 0.02861
 C2597 C 0.09245 0.05647 0.03714
 C2598 C 0.10263 0.04894 0.04659
 C2599 C 0.10221 0.03327 0.04757
 C2600 C 0.09145 0.02509 0.03916
 C2601 C 0.09114 0.00945 0.04043
 C2602 C 0.10119 0.00209 0.04975
 C2603 C 0.11172 0.01008 0.05798
 C2604 C 0.11228 0.02550 0.05694
 C2605 C 0.09252 0.07214 0.03612
 C2606 C 0.08238 0.07950 0.02690
 C2607 C 0.07206 0.07148 0.01844
 C2608 C 0.07173 0.05605 0.01923
 C2609 C 0.11362 0.05727 0.05520
 C2610 C 0.12291 0.06404 0.06230
 C2611 C 0.06925 0.02447 0.02241
 C2612 C 0.05857 0.01834 0.01691
 H2613 H 0.08318 0.00275 0.03421
 H2614 H 0.10081 -0.00988 0.05058
 H2615 H 0.11950 0.00432 0.06521
 H2616 H 0.12066 0.03122 0.06358
 H2617 H 0.10034 0.07886 0.04249
 H2618 H 0.08251 0.09149 0.02635
 H2619 H 0.06418 0.07725 0.01134
 H2620 H 0.06343 0.05032 0.01250
 C2621 C 0.08006 0.53633 0.53288
 C2622 C 0.08143 0.55166 0.52965
 C2623 C 0.09072 0.56085 0.53875
 C2624 C 0.09860 0.55465 0.55100
 C2625 C 0.09694 0.53942 0.55445
 C2626 C 0.08765 0.53023 0.54536
 C2627 C 0.08599 0.51509 0.54916
 C2628 C 0.09329 0.50918 0.56160
 C2629 C 0.10236 0.51817 0.57050
 C2630 C 0.10421 0.53311 0.56702
 C2631 C 0.09152 0.57621 0.53561
 C2632 C 0.08324 0.58236 0.52394
 C2633 C 0.07416 0.57339 0.51504
 C2634 C 0.07329 0.55820 0.51775
 C2635 C 0.10844 0.56392 0.56004
 C2636 C 0.11686 0.57142 0.56746
 C2637 C 0.06950 0.52730 0.52445
 C2638 C 0.05974 0.52047 0.51812
 H2639 H 0.07903 0.50766 0.54259
 H2640 H 0.09185 0.49759 0.56438
 H2641 H 0.10795 0.51354 0.58019
 H2642 H 0.11132 0.53967 0.57433
 H2643 H 0.09833 0.58366 0.54231
 H2644 H 0.08382 0.59417 0.52184
 H2645 H 0.06771 0.57823 0.50602
 H2646 H 0.06602 0.55169 0.51055
 C2647 C 0.58323 0.03011 0.52855
 C2648 C 0.59405 0.02200 0.53668
 C2649 C 0.60582 0.02960 0.54424
 C2650 C 0.60666 0.04528 0.54366
 C2651 C 0.59587 0.05340 0.53547
 C2652 C 0.58420 0.04578 0.52777
 C2653 C 0.57364 0.05412 0.51950
 C2654 C 0.57450 0.06955 0.51900
 C2655 C 0.58578 0.07701 0.52670
 C2656 C 0.59639 0.06908 0.53483
 C2657 C 0.61650 0.02125 0.55232
 C2658 C 0.61555 0.00583 0.55294
 C2659 C 0.60403 -0.00160 0.54556
 C2660 C 0.59336 0.00634 0.53751
 C2661 C 0.61870 0.05304 0.55137
 C2662 C 0.62878 0.05941 0.55769
 C2663 C 0.57056 0.02251 0.52179
 C2664 C 0.55946 0.01683 0.51664
 H2665 H 0.56459 0.04884 0.51341
 H2666 H 0.56626 0.07576 0.51271
 H2667 H 0.58630 0.08900 0.52639
 H2668 H 0.60498 0.07538 0.54062
 H2669 H 0.62565 0.02652 0.55827
 H2670 H 0.62381 -0.00039 0.55918
 H2671 H 0.60335 -0.01358 0.54607
 H2672 H 0.58463 0.00008 0.53191
 C2673 C 0.58227 0.53082 0.03097
 C2674 C 0.58335 0.54646 0.02973
 C2675 C 0.59430 0.55434 0.03819
 C2676 C 0.60428 0.54651 0.04762
 C2677 C 0.60327 0.53088 0.04876
 C2678 C 0.59221 0.52301 0.04043
 C2679 C 0.59132 0.50741 0.04185
 C2680 C 0.60109 0.49977 0.05123
 C2681 C 0.61192 0.50746 0.05937
 C2682 C 0.61305 0.52283 0.05819
 C2683 C 0.59488 0.56999 0.03711
 C2684 C 0.58496 0.57765 0.02790
 C2685 C 0.57437 0.56993 0.01949
 C2686 C 0.57353 0.55452 0.02034
 C2687 C 0.61572 0.55452 0.05594
 C2688 C 0.62536 0.56115 0.06267
 C2689 C 0.57014 0.52303 0.02348
 C2690 C 0.55934 0.51729 0.01779
 H2691 H 0.58311 0.50095 0.03570
 H2692 H 0.60026 0.48783 0.05218
 H2693 H 0.61949 0.50147 0.06664
 H2694 H 0.62164 0.52831 0.06477
 H2695 H 0.60291 0.57649 0.04345
 H2696 H 0.58547 0.58963 0.02731
 H2697 H 0.56666 0.57593 0.01238
 H2698 H 0.56503 0.54904 0.01365
 C2699 C 0.02953 0.03215 0.08250
 C2700 C 0.03843 0.02429 0.09291
 C2701 C 0.04669 0.03215 0.10404
 C2702 C 0.04603 0.04784 0.10465
 C2703 C 0.03710 0.05570 0.09425
 C2704 C 0.02872 0.04782 0.08322
 C2705 C 0.01982 0.05593 0.07298
 C2706 C 0.01937 0.07137 0.07349
 C2707 C 0.02769 0.07907 0.08418
 C2708 C 0.03643 0.07139 0.09450
 C2709 C 0.05556 0.02405 0.11430
 C2710 C 0.05626 0.00863 0.11357
 C2711 C 0.04819 0.00094 0.10267
 C2712 C 0.03936 0.00863 0.09243
 C2713 C 0.05443 0.05584 0.11606
 C2714 C 0.06132 0.06236 0.12570
 C2715 C 0.02219 0.02428 0.07029
 C2716 C 0.01670 0.01833 0.05947
 H2717 H 0.01322 0.05044 0.06440
 H2718 H 0.01264 0.07739 0.06547
 H2719 H 0.02740 0.09107 0.08445
 H2720 H 0.04272 0.07787 0.10259
 H2721 H 0.06206 0.02953 0.12296
 H2722 H 0.06311 0.00261 0.12150
 H2723 H 0.04877 -0.01104 0.10216
 H2724 H 0.03324 0.00217 0.08419
 C2725 C 0.03362 0.53593 0.57911
 C2726 C 0.02957 0.55088 0.58185
 C2727 C 0.03845 0.55984 0.59157
 C2728 C 0.05130 0.55380 0.59851
 C2729 C 0.05562 0.53902 0.59540
 C2730 C 0.04672 0.53004 0.58571
 C2731 C 0.05141 0.51538 0.58256
 C2732 C 0.06454 0.50978 0.58873
 C2733 C 0.07325 0.51857 0.59819
 C2734 C 0.06887 0.53301 0.60156
 C2735 C 0.03445 0.57486 0.59379
 C2736 C 0.02211 0.58090 0.58649
 C2737 C 0.01343 0.57214 0.57698
 C2738 C 0.01702 0.55728 0.57470
 C2739 C 0.06012 0.56281 0.60880
 C2740 C 0.06732 0.57014 0.61757
 C2741 C 0.02536 0.52726 0.56811
 C2742 C 0.01922 0.52065 0.55805
 H2743 H 0.04502 0.50813 0.57524
 H2744 H 0.06801 0.49858 0.58613
 H2745 H 0.08348 0.51419 0.60290
 H2746 H 0.07606 0.53944 0.60891
 H2747 H 0.04091 0.58213 0.60100
 H2748 H 0.01929 0.59244 0.58820
 H2749 H 0.00386 0.57690 0.57132
 H2750 H 0.00993 0.55093 0.56718
 C2751 C 0.52686 0.03196 0.58294
 C2752 C 0.53333 0.02353 0.59463
 C2753 C 0.54090 0.03082 0.60662
 C2754 C 0.54198 0.04650 0.60682
 C2755 C 0.53538 0.05494 0.59521
 C2756 C 0.52769 0.04765 0.58329
 C2757 C 0.52104 0.05633 0.57188
 C2758 C 0.52207 0.07176 0.57217
 C2759 C 0.52976 0.07887 0.58371
 C2760 C 0.53633 0.07062 0.59514
 C2761 C 0.54734 0.02215 0.61814
 C2762 C 0.54634 0.00672 0.61783
 C2763 C 0.53894 -0.00040 0.60610
 C2764 C 0.53249 0.00785 0.59460
 C2765 C 0.54989 0.05391 0.61899
 C2766 C 0.55646 0.05990 0.62918
 C2767 C 0.52026 0.02453 0.57005
 C2768 C 0.51539 0.01879 0.55882
 H2769 H 0.51503 0.05131 0.56261
 H2770 H 0.51699 0.07821 0.56331
 H2771 H 0.53064 0.09085 0.58380
 H2772 H 0.54217 0.07666 0.60390
 H2773 H 0.55322 0.02718 0.62750
 H2774 H 0.55133 0.00026 0.62673
 H2775 H 0.53819 -0.01238 0.60590
 H2776 H 0.52682 0.00182 0.58573
 C2777 C 0.52964 0.53212 0.08245
 C2778 C 0.52906 0.54782 0.08295
 C2779 C 0.53757 0.55573 0.09385
 C2780 C 0.54639 0.54788 0.10435
 C2781 C 0.54677 0.53218 0.10400
 C2782 C 0.53839 0.52428 0.09300
 C2783 C 0.53906 0.50860 0.09276
 C2784 C 0.54775 0.50093 0.10313
 C2785 C 0.55594 0.50865 0.11391
 C2786 C 0.55550 0.52409 0.11440
 C2787 C 0.53718 0.57143 0.09384
 C2788 C 0.52856 0.57909 0.08340
 C2789 C 0.52010 0.57136 0.07285
 C2790 C 0.52030 0.55591 0.07257
 C2791 C 0.55498 0.55592 0.11559
 C2792 C 0.56206 0.56242 0.12508
 C2793 C 0.52227 0.52421 0.07029
 C2794 C 0.51676 0.51831 0.05946
 H2795 H 0.53284 0.50212 0.08461
 H2796 H 0.54812 0.48893 0.10281
 H2797 H 0.56268 0.50264 0.12195
 H2798 H 0.56209 0.52959 0.12298
 H2799 H 0.54358 0.57793 0.10182
 H2800 H 0.52848 0.59110 0.08348
 H2801 H 0.51347 0.57737 0.06473
 H2802 H 0.51361 0.55041 0.06408
 C2803 C 0.21383 0.53729 0.66955
 C2804 C 0.20104 0.53133 0.66231
 C2805 C 0.19239 0.54037 0.65258
 C2806 C 0.19663 0.55531 0.65009
 C2807 C 0.20919 0.56139 0.65762
 C2808 C 0.21785 0.55235 0.66734
 C2809 C 0.23010 0.55880 0.67510
 C2810 C 0.23356 0.57379 0.67346
 C2811 C 0.22507 0.58263 0.66398
 C2812 C 0.21307 0.57654 0.65605
 C2813 C 0.17943 0.53427 0.64578
 C2814 C 0.17510 0.51968 0.64857
 C2815 C 0.18357 0.51084 0.65806
 C2816 C 0.19641 0.51653 0.66487
 C2817 C 0.18792 0.56445 0.63994
 C2818 C 0.18068 0.57182 0.63133
 C2819 C 0.22181 0.52854 0.68060
 C2820 C 0.22796 0.52193 0.69058
 H2821 H 0.23700 0.55240 0.68265
 H2822 H 0.24285 0.57857 0.67961
 H2823 H 0.22777 0.59428 0.66279
 H2824 H 0.20674 0.58389 0.64889
 H2825 H 0.17243 0.54073 0.63836
 H2826 H 0.16510 0.51523 0.64337
 H2827 H 0.18014 0.49951 0.66021
 H2828 H 0.20261 0.50923 0.67220
 C2829 C 0.21821 0.03342 0.17027
 C2830 C 0.20721 0.04388 0.17454
 C2831 C 0.19903 0.05164 0.16338
 C2832 C 0.20193 0.04894 0.14802
 C2833 C 0.21290 0.03846 0.14376
 C2834 C 0.22106 0.03067 0.15492
 C2835 C 0.23194 0.02024 0.15041
 C2836 C 0.23469 0.01757 0.13527
 C2837 C 0.22673 0.02518 0.12434
 C2838 C 0.21594 0.03552 0.12847
 C2839 C 0.18799 0.06192 0.16792
 C2840 C 0.18501 0.06436 0.18306
 C2841 C 0.19295 0.05672 0.19396
 C2842 C 0.20402 0.04669 0.18984
 C2843 C 0.19367 0.05696 0.13661
 C2844 C 0.18688 0.06363 0.12708
 C2845 C 0.22640 0.02549 0.18179
 C2846 C 0.23252 0.01947 0.19217
 H2847 H 0.23841 0.01405 0.15852
 H2848 H 0.24306 0.00955 0.13200
 H2849 H 0.22891 0.02307 0.11259
 H2850 H 0.21003 0.04116 0.11956
 H2851 H 0.18146 0.06807 0.15984
 H2852 H 0.17641 0.07212 0.18634
 H2853 H 0.19040 0.05841 0.20567
 H2854 H 0.20984 0.04102 0.19879
 C2855 C 0.72349 0.22002 0.58343
 C2856 C 0.72055 0.22858 0.59642
 C2857 C 0.71320 0.22200 0.60885
 C2858 C 0.70882 0.20690 0.60822
 C2859 C 0.71177 0.19833 0.59523
 C2860 C 0.71923 0.20487 0.58285
 C2861 C 0.72215 0.19605 0.57003
 C2862 C 0.71785 0.18119 0.56950
 C2863 C 0.71040 0.17484 0.58152
 C2864 C 0.70737 0.18325 0.59428
 C2865 C 0.71031 0.23080 0.62168
 C2866 C 0.71456 0.24568 0.62221
 C2867 C 0.72175 0.25211 0.61005
 C2868 C 0.72474 0.24371 0.59727
 C2869 C 0.70149 0.20011 0.62099
 C2870 C 0.69554 0.19439 0.63162
 C2871 C 0.73003 0.22694 0.57032
 C2872 C 0.73494 0.23235 0.55902
 H2873 H 0.72788 0.20048 0.56035
 H2874 H 0.72039 0.17455 0.55974
 H2875 H 0.70701 0.16331 0.58098
 H2876 H 0.70157 0.17781 0.60337
 H2877 H 0.70473 0.22631 0.63142
 H2878 H 0.71226 0.25226 0.63211
 H2879 H 0.72503 0.26367 0.61052
 H2880 H 0.73038 0.24919 0.58810
 C2881 C 0.71910 0.71389 0.07883
 C2882 C 0.70779 0.70351 0.07492
 C2883 C 0.70021 0.69552 0.08632
 C2884 C 0.70393 0.69802 0.10157
 C2885 C 0.71532 0.70829 0.10547
 C2886 C 0.72292 0.71625 0.09406
 C2887 C 0.73426 0.72647 0.09822
 C2888 C 0.73801 0.72872 0.11323
 C2889 C 0.73059 0.72093 0.12440
 C2890 C 0.71935 0.71084 0.12063
 C2891 C 0.68904 0.68513 0.08216
 C2892 C 0.68549 0.68264 0.06713
 C2893 C 0.69285 0.69049 0.05598
 C2894 C 0.70384 0.70085 0.05975
 C2895 C 0.69593 0.69019 0.11327
 C2896 C 0.68933 0.68393 0.12318
 C2897 C 0.72674 0.72207 0.06714
 C2898 C 0.73258 0.72848 0.05686
 H2899 H 0.74034 0.73279 0.08992
 H2900 H 0.74673 0.73656 0.11622
 H2901 H 0.73355 0.72271 0.13605
 H2902 H 0.71391 0.70504 0.12972
 H2903 H 0.68299 0.67877 0.09044
 H2904 H 0.67697 0.67460 0.06412
 H2905 H 0.69007 0.68850 0.04433
 H2906 H 0.70924 0.70665 0.05063
 C2907 C 0.53558 0.71290 0.17189
 C2908 C 0.55068 0.71692 0.16929
 C2909 C 0.55965 0.70814 0.15960
 C2910 C 0.55344 0.69547 0.15248
 C2911 C 0.53856 0.69110 0.15559
 C2912 C 0.52960 0.69985 0.16531
 C2913 C 0.51483 0.69514 0.16842
 C2914 C 0.50911 0.68211 0.16218
 C2915 C 0.51788 0.67353 0.15271
 C2916 C 0.53243 0.67794 0.14938
 C2917 C 0.57483 0.71207 0.15757
 C2918 C 0.58103 0.72424 0.16503
 C2919 C 0.57226 0.73285 0.17448
 C2920 C 0.55723 0.72934 0.17655
 C2921 C 0.56229 0.68704 0.14183
 C2922 C 0.56944 0.68020 0.13271
 C2923 C 0.52673 0.72139 0.18248
 C2924 C 0.52000 0.72800 0.19207
 H2925 H 0.50760 0.70141 0.17576
 H2926 H 0.49782 0.67863 0.16474
 H2927 H 0.51340 0.66339 0.14795
 H2928 H 0.53885 0.67086 0.14201
 H2929 H 0.58212 0.70565 0.15042
 H2930 H 0.59271 0.72698 0.16351
 H2931 H 0.57714 0.74227 0.18028
 H2932 H 0.55090 0.73633 0.18407
 C2933 C 0.03013 0.71736 0.66877
 C2934 C 0.02372 0.70496 0.66134
 C2935 C 0.03235 0.69668 0.65093
 C2936 C 0.04732 0.70087 0.64798
 C2937 C 0.05385 0.71302 0.65571
 C2938 C 0.04522 0.72133 0.66609
 C2939 C 0.05211 0.73318 0.67399
 C2940 C 0.06715 0.73660 0.67182
 C2941 C 0.07559 0.72846 0.66168
 C2942 C 0.06906 0.71685 0.65363
 C2943 C 0.02582 0.68414 0.64388
 C2944 C 0.01119 0.67988 0.64707
 C2945 C 0.00275 0.68798 0.65724
 C2946 C 0.00889 0.70039 0.66433
 C2947 C 0.05602 0.69266 0.63706
 C2948 C 0.06316 0.68596 0.62783
 C2949 C 0.02182 0.72499 0.68039
 C2950 C 0.01568 0.73088 0.69082
 H2951 H 0.04604 0.73981 0.68204
 H2952 H 0.07228 0.74560 0.67807
 H2953 H 0.08727 0.73113 0.66007
 H2954 H 0.07611 0.71078 0.64595
 H2955 H 0.03196 0.67744 0.63594
 H2956 H 0.00639 0.67021 0.64164
 H2957 H -0.00859 0.68460 0.65971
 H2958 H 0.00190 0.70632 0.67219
 C2959 C 0.53550 0.67009 0.21915
 C2960 C 0.52834 0.66201 0.20752
 C2961 C 0.53645 0.65124 0.19925
 C2962 C 0.55166 0.64857 0.20270
 C2963 C 0.55897 0.65702 0.21397
 C2964 C 0.55086 0.66780 0.22224
 C2965 C 0.55849 0.67639 0.23318
 C2966 C 0.57373 0.67451 0.23574
 C2967 C 0.58166 0.66396 0.22765
 C2968 C 0.57440 0.65523 0.21693
 C2969 C 0.52913 0.64347 0.18750
 C2970 C 0.51422 0.64630 0.18400
 C2971 C 0.50628 0.65680 0.19212
 C2972 C 0.51319 0.66460 0.20376
 C2973 C 0.55970 0.63702 0.19477
 C2974 C 0.56608 0.62718 0.18827
 C2975 C 0.52750 0.68178 0.22687
 C2976 C 0.52125 0.69214 0.23260
 H2977 H 0.55282 0.68477 0.23973
 H2978 H 0.57942 0.68129 0.24403
 H2979 H 0.59350 0.66256 0.22966
 H2980 H 0.58106 0.64724 0.21084
 H2981 H 0.53486 0.63524 0.18081
 H2982 H 0.50882 0.64032 0.17492
 H2983 H 0.49470 0.65897 0.18935
 H2984 H 0.50655 0.67269 0.20973
 C2985 C 0.03364 0.67272 0.71473
 C2986 C 0.04901 0.67080 0.71803
 C2987 C 0.05778 0.66109 0.70911
 C2988 C 0.05113 0.65332 0.69696
 C2989 C 0.03590 0.65566 0.69333
 C2990 C 0.02712 0.66536 0.70226
 C2991 C 0.01200 0.66772 0.69825
 C2992 C 0.00575 0.66076 0.68573
 C2993 C 0.01434 0.65131 0.67698
 C2994 C 0.02923 0.64870 0.68071
 C2995 C 0.07322 0.65972 0.71230
 C2996 C 0.07985 0.66786 0.72387
 C2997 C 0.07128 0.67735 0.73260
 C2998 C 0.05603 0.67879 0.72982
 C2999 C 0.05994 0.64300 0.68817
 C3000 C 0.06716 0.63421 0.68104
 C3001 C 0.02501 0.68348 0.72315
 C3002 C 0.01844 0.69323 0.72960
 H3003 H 0.00489 0.67502 0.70469
 H3004 H -0.00581 0.66276 0.68278
 H3005 H 0.00944 0.64599 0.66722
 H3006 H 0.03548 0.64131 0.67351
 H3007 H 0.08037 0.65256 0.70575
 H3008 H 0.09171 0.66683 0.72603
 H3009 H 0.07650 0.68369 0.74154
 H3010 H 0.04986 0.68637 0.73689
 C3011 C 0.03292 0.07879 0.03295
 C3012 C 0.04347 0.07383 0.04372
 C3013 C 0.05184 0.08431 0.05226
 C3014 C 0.04963 0.09968 0.04998
 C3015 C 0.03913 0.10462 0.03919
 C3016 C 0.03075 0.09414 0.03065
 C3017 C 0.02033 0.09933 0.01994
 C3018 C 0.01821 0.11447 0.01772
 C3019 C 0.02639 0.12473 0.02606
 C3020 C 0.03674 0.11993 0.03668
 C3021 C 0.06230 0.07909 0.06294
 C3022 C 0.06443 0.06395 0.06515
 C3023 C 0.05625 0.05370 0.05681
 C3024 C 0.04588 0.05851 0.04621
 C3025 C 0.05811 0.11044 0.05873
 C3026 C 0.06500 0.11958 0.06586
 C3027 C 0.02437 0.06798 0.02437
 C3028 C 0.01788 0.05809 0.01794
 H3029 H 0.01371 0.09175 0.01318
 H3030 H 0.01019 0.11826 0.00947
 H3031 H 0.02471 0.13648 0.02429
 H3032 H 0.04284 0.12835 0.04289
 H3033 H 0.06893 0.08665 0.06970
 H3034 H 0.07247 0.06016 0.07336
 H3035 H 0.05794 0.04194 0.05855
 H3036 H 0.03982 0.05007 0.04001
 C3037 C 0.03310 0.58074 0.53124
 C3038 C 0.03092 0.59597 0.52827
 C3039 C 0.03907 0.60681 0.53655
 C3040 C 0.04935 0.60234 0.54777
 C3041 C 0.05158 0.58709 0.55070
 C3042 C 0.04346 0.57625 0.54240
 C3043 C 0.04600 0.56105 0.54546
 C3044 C 0.05632 0.55673 0.55632
 C3045 C 0.06420 0.56734 0.56447
 C3046 C 0.06189 0.58236 0.56177
 C3047 C 0.03672 0.62200 0.53336
 C3048 C 0.02661 0.62633 0.52230
 C3049 C 0.01864 0.61571 0.51421
 C3050 C 0.02072 0.60068 0.51712
 C3051 C 0.05763 0.61343 0.55625
 C3052 C 0.06442 0.62274 0.56324
 C3053 C 0.02484 0.56955 0.52288
 C3054 C 0.01864 0.55936 0.51664
 H3055 H 0.04017 0.55234 0.53943
 H3056 H 0.05826 0.54507 0.55836
 H3057 H 0.07221 0.56391 0.57288
 H3058 H 0.06833 0.59020 0.56837
 H3059 H 0.04266 0.63067 0.53934
 H3060 H 0.02496 0.63799 0.51999
 H3061 H 0.01080 0.61913 0.50563
 H3062 H 0.01427 0.59282 0.51054
 C3063 C 0.53183 0.08092 0.52784
 C3064 C 0.52892 0.09583 0.52396
 C3065 C 0.53657 0.10751 0.53153
 C3066 C 0.54710 0.10419 0.54293
 C3067 C 0.55011 0.08926 0.54673
 C3068 C 0.54244 0.07758 0.53918
 C3069 C 0.54560 0.06273 0.54322
 C3070 C 0.55606 0.05951 0.55434
 C3071 C 0.56358 0.07094 0.56169
 C3072 C 0.56068 0.08566 0.55798
 C3073 C 0.53345 0.12235 0.52747
 C3074 C 0.52308 0.12554 0.51626
 C3075 C 0.51560 0.11411 0.50886
 C3076 C 0.51844 0.09940 0.51263
 C3077 C 0.55466 0.11616 0.55086
 C3078 C 0.56074 0.12624 0.55739
 C3079 C 0.52399 0.06892 0.52029
 C3080 C 0.51805 0.05824 0.51469
 H3081 H 0.54006 0.05344 0.53783
 H3082 H 0.55834 0.04810 0.55726
 H3083 H 0.57170 0.06838 0.57032
 H3084 H 0.56681 0.09416 0.56402
 H3085 H 0.53899 0.13162 0.53289
 H3086 H 0.52083 0.13695 0.51329
 H3087 H 0.50755 0.11665 0.50016
 H3088 H 0.51236 0.09087 0.50657
 C3089 C 0.53581 0.57830 0.03419
 C3090 C 0.54608 0.57283 0.04497
 C3091 C 0.55486 0.58289 0.05362
 C3092 C 0.55331 0.59836 0.05145
 C3093 C 0.54308 0.60381 0.04065
 C3094 C 0.53430 0.59374 0.03199
 C3095 C 0.52416 0.59944 0.02127
 C3096 C 0.52271 0.61467 0.01914
 C3097 C 0.53128 0.62452 0.02760
 C3098 C 0.54136 0.61922 0.03824
 C3099 C 0.56503 0.57717 0.06431
 C3100 C 0.56652 0.56194 0.06640
 C3101 C 0.55795 0.55209 0.05795
 C3102 C 0.54784 0.55740 0.04735
 C3103 C 0.56216 0.60871 0.06033
 C3104 C 0.56932 0.61757 0.06756
 C3105 C 0.52688 0.56791 0.02545
 C3106 C 0.52008 0.55837 0.01881
 H3107 H 0.51726 0.59219 0.01444
 H3108 H 0.51490 0.61885 0.01089
 H3109 H 0.53012 0.63635 0.02590
 H3110 H 0.54777 0.62734 0.04453
 H3111 H 0.57194 0.58440 0.07114
 H3112 H 0.57435 0.55775 0.07462
 H3113 H 0.55914 0.54026 0.05962
 H3114 H 0.54145 0.54927 0.04107
 C3115 C 0.71887 0.16964 0.52840
 C3116 C 0.72737 0.15700 0.53224
 C3117 C 0.72051 0.14501 0.53997
 C3118 C 0.70519 0.14577 0.54383
 C3119 C 0.69667 0.15838 0.53992
 C3120 C 0.70350 0.17031 0.53209
 C3121 C 0.69471 0.18275 0.52820
 C3122 C 0.67963 0.18338 0.53194
 C3123 C 0.67299 0.17183 0.53978
 C3124 C 0.68136 0.15943 0.54374
 C3125 C 0.72926 0.13252 0.54376
 C3126 C 0.74436 0.13189 0.54003
 C3127 C 0.75106 0.14361 0.53250
 C3128 C 0.74272 0.15605 0.52862
 C3129 C 0.69815 0.13351 0.55164
 C3130 C 0.69220 0.12330 0.55799
 C3131 C 0.72606 0.18238 0.52159
 C3132 C 0.73164 0.19345 0.51652
 H3133 H 0.69935 0.19207 0.52215
 H3134 H 0.67303 0.19285 0.52867
 H3135 H 0.66129 0.17244 0.54273
 H3136 H 0.67570 0.15069 0.54979
 H3137 H 0.72455 0.12314 0.54965
 H3138 H 0.75088 0.12225 0.54302
 H3139 H 0.76279 0.14307 0.52963
 H3140 H 0.74841 0.16489 0.52273
 C3141 C 0.71601 0.67073 0.03172
 C3142 C 0.72003 0.66798 0.04684
 C3143 C 0.71191 0.65737 0.05533
 C3144 C 0.69994 0.64947 0.04860
 C3145 C 0.69559 0.65259 0.03366
 C3146 C 0.70366 0.66325 0.02519
 C3147 C 0.69903 0.66629 0.01032
 C3148 C 0.68676 0.65901 0.00401
 C3149 C 0.67884 0.64862 0.01231
 C3150 C 0.68316 0.64538 0.02696
 C3151 C 0.71578 0.65518 0.07057
 C3152 C 0.72726 0.66334 0.07727
 C3153 C 0.73525 0.67368 0.06896
 C3154 C 0.73178 0.67595 0.05390
 C3155 C 0.69235 0.63787 0.05689
 C3156 C 0.68627 0.62795 0.06357
 C3157 C 0.72376 0.68218 0.02339
 C3158 C 0.72980 0.69237 0.01712
 H3159 H 0.70481 0.67432 0.00344
 H3160 H 0.68334 0.66149 -0.00737
 H3161 H 0.66926 0.64306 0.00738
 H3162 H 0.67660 0.63726 0.03299
 H3163 H 0.70982 0.64733 0.07751
 H3164 H 0.72996 0.66165 0.08898
 H3165 H 0.74413 0.68002 0.07423
 H3166 H 0.73827 0.68418 0.04794
 C3167 C 0.21565 0.58045 0.71377
 C3168 C 0.21870 0.59571 0.71591
 C3169 C 0.21032 0.60648 0.70790
 C3170 C 0.19896 0.60190 0.69778
 C3171 C 0.19595 0.58663 0.69559
 C3172 C 0.20428 0.57587 0.70363
 C3173 C 0.20101 0.56066 0.70128
 C3174 C 0.18992 0.55624 0.69120
 C3175 C 0.18183 0.56676 0.68329
 C3176 C 0.18473 0.58180 0.68543
 C3177 C 0.21355 0.62169 0.71025
 C3178 C 0.22475 0.62613 0.72022
 C3179 C 0.23295 0.61559 0.72803
 C3180 C 0.23001 0.60054 0.72594
 C3181 C 0.19038 0.61288 0.68962
 C3182 C 0.18331 0.62203 0.68283
 C3183 C 0.22410 0.56936 0.72193
 C3184 C 0.23048 0.55939 0.72821
 H3185 H 0.20700 0.55201 0.70713
 H3186 H 0.18762 0.54457 0.68949
 H3187 H 0.17324 0.56325 0.67545
 H3188 H 0.17812 0.58956 0.67902
 H3189 H 0.20748 0.63030 0.70443
 H3190 H 0.22707 0.63782 0.72188
 H3191 H 0.24164 0.61910 0.73576
 H3192 H 0.23669 0.59274 0.73226
 C3193 C 0.21778 0.08202 0.22313
 C3194 C 0.22573 0.09216 0.21405
 C3195 C 0.21783 0.10293 0.20556
 C3196 C 0.20202 0.10342 0.20613
 C3197 C 0.19408 0.09334 0.21531
 C3198 C 0.20201 0.08276 0.22400
 C3199 C 0.19384 0.07294 0.23328
 C3200 C 0.17829 0.07341 0.23373
 C3201 C 0.17053 0.08355 0.22500
 C3202 C 0.17828 0.09348 0.21592
 C3203 C 0.22602 0.11293 0.19652
 C3204 C 0.24157 0.11229 0.19587
 C3205 C 0.24928 0.10174 0.20415
 C3206 C 0.24150 0.09176 0.21315
 C3207 C 0.19397 0.11441 0.19742
 C3208 C 0.18738 0.12366 0.19027
 C3209 C 0.22562 0.06992 0.23039
 C3210 C 0.23158 0.05916 0.23567
 H3211 H 0.19937 0.06480 0.24023
 H3212 H 0.17224 0.06585 0.24090
 H3213 H 0.15844 0.08377 0.22532
 H3214 H 0.17176 0.10121 0.20937
 H3215 H 0.22053 0.12131 0.18985
 H3216 H 0.24765 0.12003 0.18890
 H3217 H 0.26135 0.10130 0.20362
 H3218 H 0.24799 0.08379 0.21944
 C3219 C 0.72406 1.08335 0.72255
 C3220 C 0.72304 1.08411 0.70671
 C3221 C 0.71557 1.09621 0.69983
 C3222 C 0.70944 1.10762 0.70882
 C3223 C 0.71066 1.10697 0.72465
 C3224 C 0.71797 1.09477 0.73153
 C3225 C 0.71896 1.09429 0.74737
 C3226 C 0.71291 1.10556 0.75617
 C3227 C 0.70578 1.11749 0.74944
 C3228 C 0.70463 1.11825 0.73387
 C3229 C 0.71438 1.09654 0.68399
 C3230 C 0.72053 1.08532 0.67519
 C3231 C 0.72804 1.07362 0.68191
 C3232 C 0.72930 1.07294 0.69747
 C3233 C 0.70201 1.12010 0.70180
 C3234 C 0.69595 1.13053 0.69597
 C3235 C 0.73056 1.07034 0.72950
 C3236 C 0.73544 1.05900 0.73464
 H3237 H 0.72445 1.08524 0.75310
 H3238 H 0.71378 1.10502 0.76826
 H3239 H 0.70110 1.12622 0.75633
 H3240 H 0.69896 1.12775 0.72917
 H3241 H 0.70869 1.10546 0.67825
 H3242 H 0.71951 1.08574 0.66310
 H3243 H 0.73291 1.06502 0.67504
 H3244 H 0.73519 1.06357 0.70215
 C3245 C 0.71860 0.58289 0.22571
 C3246 C 0.72643 0.59593 0.22166
 C3247 C 0.71907 0.60713 0.21324
 C3248 C 0.70395 0.60519 0.20891
 C3249 C 0.69604 0.59227 0.21321
 C3250 C 0.70335 0.58115 0.22175
 C3251 C 0.69517 0.56838 0.22601
 C3252 C 0.68022 0.56667 0.22197
 C3253 C 0.67313 0.57742 0.21343
 C3254 C 0.68089 0.59010 0.20906
 C3255 C 0.72717 0.62000 0.20918
 C3256 C 0.74210 0.62177 0.21333
 C3257 C 0.74929 0.61081 0.22156
 C3258 C 0.74159 0.59800 0.22569
 C3259 C 0.69650 0.61642 0.20000
 C3260 C 0.69013 0.62564 0.19263
 C3261 C 0.72646 0.57061 0.23261
 C3262 C 0.73238 0.55967 0.23753
 H3263 H 0.70017 0.55966 0.23264
 H3264 H 0.67409 0.55698 0.22557
 H3265 H 0.66153 0.57596 0.21024
 H3266 H 0.67487 0.59819 0.20247
 H3267 H 0.72207 0.62882 0.20277
 H3268 H 0.74813 0.63169 0.21015
 H3269 H 0.76089 0.61223 0.22475
 H3270 H 0.74762 0.58979 0.23212
 C3271 C 0.53132 0.16684 0.72426
 C3272 C 0.52278 0.15548 0.71732
 C3273 C 0.53008 0.14395 0.70931
 C3274 C 0.54587 0.14380 0.70836
 C3275 C 0.55442 0.15511 0.71540
 C3276 C 0.54712 0.16663 0.72343
 C3277 C 0.55591 0.17778 0.73044
 C3278 C 0.57145 0.17754 0.72954
 C3279 C 0.57857 0.16636 0.72156
 C3280 C 0.57021 0.15525 0.71455
 C3281 C 0.52129 0.13284 0.70226
 C3282 C 0.50575 0.13312 0.70310
 C3283 C 0.49862 0.14439 0.71095
 C3284 C 0.50699 0.15547 0.71801
 C3285 C 0.55329 0.13192 0.70031
 C3286 C 0.55931 0.12191 0.69370
 C3287 C 0.52388 0.17933 0.73127
 C3288 C 0.51814 0.19029 0.73641
 H3289 H 0.55089 0.18676 0.73670
 H3290 H 0.57800 0.18616 0.73496
 H3291 H 0.59064 0.16632 0.72078
 H3292 H 0.57626 0.14679 0.70847
 H3293 H 0.52631 0.12386 0.69599
 H3294 H 0.49920 0.12454 0.69763
 H3295 H 0.48655 0.14455 0.71158
 H3296 H 0.50095 0.16400 0.72399
 C3297 C 1.03271 0.16979 0.21941
 C3298 C 1.04317 0.17351 0.20810
 C3299 C 1.05105 0.16212 0.20047
 C3300 C 1.04839 0.14708 0.20415
 C3301 C 1.03800 0.14337 0.21550
 C3302 C 1.03013 0.15477 0.22316
 C3303 C 1.01981 0.15082 0.23445
 C3304 C 1.01731 0.13600 0.23810
 C3305 C 1.02499 0.12484 0.23062
 C3306 C 1.03523 0.12842 0.21944
 C3307 C 1.06153 0.16611 0.18931
 C3308 C 1.06429 0.18094 0.18592
 C3309 C 1.05667 0.19208 0.19346
 C3310 C 1.04612 0.18848 0.20431
 C3311 C 1.05626 0.13542 0.19621
 C3312 C 1.06267 0.12566 0.18962
 C3313 C 1.02472 0.18153 0.22709
 C3314 C 1.01870 0.19206 0.23277
 H3315 H 1.01358 0.15912 0.24057
 H3316 H 1.00938 0.13316 0.24677
 H3317 H 1.02301 0.11334 0.23349
 H3318 H 1.04093 0.11935 0.21395
 H3319 H 1.06781 0.15783 0.18321
 H3320 H 1.07248 0.18382 0.17749
 H3321 H 1.05908 0.20357 0.19104
 H3322 H 1.04052 0.19759 0.20985
 C3323 C 0.21209 0.67476 0.53400
 C3324 C 0.21587 0.67269 0.54930
 C3325 C 0.20719 0.66299 0.55833
 C3326 C 0.19483 0.65535 0.55200
 C3327 C 0.19072 0.65784 0.53686
 C3328 C 0.19939 0.66755 0.52783
 C3329 C 0.19491 0.67007 0.51281
 C3330 C 0.18219 0.66324 0.50690
 C3331 C 0.17370 0.65377 0.51573
 C3332 C 0.17789 0.65101 0.53053
 C3333 C 0.21086 0.66150 0.57370
 C3334 C 0.22268 0.66948 0.58002
 C3335 C 0.23119 0.67894 0.57120
 C3336 C 0.22794 0.68050 0.55599
 C3337 C 0.18633 0.64495 0.56102
 C3338 C 0.17935 0.63608 0.56831
 C3339 C 0.22033 0.68547 0.52512
 C3340 C 0.22676 0.69514 0.51839
 H3341 H 0.20114 0.67738 0.50551
 H3342 H 0.17888 0.66535 0.49542
 H3343 H 0.16379 0.64854 0.51111
 H3344 H 0.17088 0.64361 0.53698
 H3345 H 0.20449 0.65436 0.58105
 H3346 H 0.22520 0.66836 0.59185
 H3347 H 0.24033 0.68516 0.57617
 H3348 H 0.23485 0.68805 0.54961
 C3349 C 0.21757 0.17062 1.03335
 C3350 C 0.22126 0.16772 1.04852
 C3351 C 0.21276 0.15725 1.05682
 C3352 C 0.20070 0.14968 1.04986
 C3353 C 0.19674 0.15289 1.03483
 C3354 C 0.20522 0.16337 1.02654
 C3355 C 0.20094 0.16655 1.01160
 C3356 C 0.18860 0.15960 1.00505
 C3357 C 0.18028 0.14937 1.01317
 C3358 C 0.18427 0.14598 1.02788
 C3359 C 0.21631 0.15491 1.07211
 C3360 C 0.22785 0.16280 1.07905
 C3361 C 0.23618 0.17302 1.07093
 C3362 C 0.23304 0.17543 1.05582
 C3363 C 0.19244 0.13849 1.05810
 C3364 C 0.18572 0.12897 1.06476
 C3365 C 0.22548 0.18216 1.02529
 C3366 C 0.23143 0.19249 1.01917
 H3367 H 0.20704 0.17445 1.00484
 H3368 H 0.18545 0.16220 0.99363
 H3369 H 0.17066 0.14406 1.00805
 H3370 H 0.17741 0.13800 1.03376
 H3371 H 0.21008 0.14715 1.07891
 H3372 H 0.23030 0.16100 1.09079
 H3373 H 0.24511 0.17914 1.07638
 H3374 H 0.23980 0.18353 1.05000
 C3375 C 0.21365 0.71722 0.57689
 C3376 C 0.20203 0.70755 0.57212
 C3377 C 0.19387 0.69922 0.58285
 C3378 C 0.19742 0.70055 0.59827
 C3379 C 0.20909 0.71014 0.60303
 C3380 C 0.21722 0.71852 0.59230
 C3381 C 0.22883 0.72803 0.59731
 C3382 C 0.23233 0.72922 0.61251
 C3383 C 0.22440 0.72103 0.62301
 C3384 C 0.21290 0.71158 0.61839
 C3385 C 0.18234 0.68961 0.57783
 C3386 C 0.17907 0.68813 0.56263
 C3387 C 0.18712 0.69617 0.55212
 C3388 C 0.19840 0.70588 0.55674
 C3389 C 0.18910 0.69205 0.60924
 C3390 C 0.18225 0.68508 0.61847
 C3391 C 0.22199 0.72561 0.56583
 C3392 C 0.22841 0.73201 0.55591
 H3393 H 0.23531 0.73462 0.58955
 H3394 H 0.24125 0.73655 0.61616
 H3395 H 0.22717 0.72199 0.63481
 H3396 H 0.20705 0.70544 0.62699
 H3397 H 0.17582 0.68305 0.58558
 H3398 H 0.17031 0.68063 0.55896
 H3399 H 0.18466 0.69485 0.54031
 H3400 H 0.20429 0.71190 0.54810
 C3401 C 0.21796 0.21487 1.08057
 C3402 C 0.22092 0.21779 1.09589
 C3403 C 0.21312 0.20978 1.10715
 C3404 C 0.20240 0.19890 1.10300
 C3405 C 0.19951 0.19591 1.08766
 C3406 C 0.20731 0.20391 1.07641
 C3407 C 0.20417 0.20075 1.06115
 C3408 C 0.19363 0.19002 1.05715
 C3409 C 0.18603 0.18219 1.06815
 C3410 C 0.18889 0.18505 1.08325
 C3411 C 0.21625 0.21291 1.12241
 C3412 C 0.22679 0.22365 1.12643
 C3413 C 0.23440 0.23147 1.11542
 C3414 C 0.23155 0.22862 1.10031
 C3415 C 0.19425 0.19095 1.11452
 C3416 C 0.18752 0.18453 1.12425
 C3417 C 0.22568 0.22320 1.06902
 C3418 C 0.23157 0.22972 1.05884
 H3419 H 0.20979 0.20651 1.05215
 H3420 H 0.19134 0.18777 1.04544
 H3421 H 0.17786 0.17386 1.06496
 H3422 H 0.18269 0.17867 1.09141
 H3423 H 0.21063 0.20711 1.13138
 H3424 H 0.22905 0.22590 1.13815
 H3425 H 0.24258 0.23980 1.11860
 H3426 H 0.23776 0.23498 1.09214
 C3427 C 0.72561 0.53398 0.16824
 C3428 C 0.72209 0.52621 0.15487
 C3429 C 0.71363 0.53327 0.14342
 C3430 C 0.70875 0.54807 0.14543
 C3431 C 0.71249 0.55593 0.15871
 C3432 C 0.72104 0.54890 0.17008
 C3433 C 0.72472 0.55702 0.18321
 C3434 C 0.72008 0.57164 0.18503
 C3435 C 0.71153 0.57845 0.17402
 C3436 C 0.70775 0.57074 0.16097
 C3437 C 0.71012 0.52523 0.13021
 C3438 C 0.71483 0.51062 0.12836
 C3439 C 0.72309 0.50372 0.13956
 C3440 C 0.72670 0.51137 0.15269
 C3441 C 0.69993 0.55526 0.13388
 C3442 C 0.69267 0.56145 0.12437
 C3443 C 0.73265 0.52635 0.18069
 C3444 C 0.73770 0.52055 0.19176
 H3445 H 0.73132 0.55223 0.19215
 H3446 H 0.72321 0.57774 0.19500
 H3447 H 0.70788 0.58979 0.17555
 H3448 H 0.70112 0.57653 0.15269
 H3449 H 0.70370 0.53012 0.12120
 H3450 H 0.71204 0.50462 0.11819
 H3451 H 0.72672 0.49237 0.13806
 H3452 H 0.73319 0.50557 0.16108
 C3453 C 0.72134 1.03066 0.66796
 C3454 C 0.70553 1.03051 0.66708
 C3455 C 0.69814 1.03859 0.65559
 C3456 C 0.70662 1.04664 0.64496
 C3457 C 0.72242 1.04682 0.64588
 C3458 C 0.72980 1.03876 0.65739
 C3459 C 0.74560 1.03915 0.65812
 C3460 C 0.75387 1.04732 0.64780
 C3461 C 0.74665 1.05523 0.63657
 C3462 C 0.73111 1.05501 0.63556
 C3463 C 0.68233 1.03845 0.65507
 C3464 C 0.67405 1.03045 0.66551
 C3465 C 0.68127 1.02242 0.67664
 C3466 C 0.69682 1.02244 0.67750
 C3467 C 0.69910 1.05438 0.63286
 C3468 C 0.69289 1.06061 0.62266
 C3469 C 0.72876 1.02327 0.68033
 C3470 C 0.73432 1.01765 0.69123
 H3471 H 0.75170 1.03317 0.66666
 H3472 H 0.76594 1.04752 0.64854
 H3473 H 0.75313 1.06158 0.62860
 H3474 H 0.72601 1.06137 0.62665
 H3475 H 0.67620 1.04453 0.64662
 H3476 H 0.66196 1.03052 0.66499
 H3477 H 0.67478 1.01625 0.68475
 H3478 H 0.70190 1.01610 0.68644
 C3479 C 0.52787 0.21715 0.66842
 C3480 C 0.52965 0.20155 0.66871
 C3481 C 0.53757 0.19430 0.65702
 C3482 C 0.54339 0.20266 0.64494
 C3483 C 0.54135 0.21823 0.64451
 C3484 C 0.53360 0.22550 0.65631
 C3485 C 0.53181 0.24107 0.65571
 C3486 C 0.53749 0.24925 0.64377
 C3487 C 0.54506 0.24215 0.63222
 C3488 C 0.54700 0.22683 0.63253
 C3489 C 0.53956 0.17874 0.65777
 C3490 C 0.53374 0.17056 0.66964
 C3491 C 0.52577 0.17761 0.68093
 C3492 C 0.52373 0.19292 0.68055
 C3493 C 0.55138 0.19528 0.63291
 C3494 C 0.55798 0.18930 0.62282
 C3495 C 0.52103 0.22462 0.68108
 C3496 C 0.51592 0.23030 0.69218
 H3497 H 0.52596 0.24708 0.66442
 H3498 H 0.53601 0.26116 0.64348
 H3499 H 0.54946 0.24855 0.62297
 H3500 H 0.55298 0.22182 0.62329
 H3501 H 0.54562 0.17275 0.64920
 H3502 H 0.53536 0.15867 0.67006
 H3503 H 0.52115 0.17121 0.69004
 H3504 H 0.51751 0.19789 0.68964
 C3505 C 1.03235 0.21809 0.16809
 C3506 C 1.02498 0.20724 0.15924
 C3507 C 1.03328 0.19841 0.14901
 C3508 C 1.04893 0.20043 0.14775
 C3509 C 1.05630 0.21131 0.15658
 C3510 C 1.04796 0.22029 0.16664
 C3511 C 1.05557 0.23118 0.17527
 C3512 C 1.07098 0.23300 0.17414
 C3513 C 1.07917 0.22406 0.16450
 C3514 C 1.07197 0.21336 0.15575
 C3515 C 1.02565 0.18759 0.14031
 C3516 C 1.01028 0.18554 0.14171
 C3517 C 1.00218 0.19415 0.15174
 C3518 C 1.00939 0.20489 0.16044
 C3519 C 1.05740 0.19147 0.13724
 C3520 C 1.06441 0.18418 0.12836
 C3521 C 1.02426 0.22597 0.17972
 C3522 C 1.01826 0.23192 0.19021
 H3523 H 1.04971 0.23837 0.18299
 H3524 H 1.07658 0.24141 0.18077
 H3525 H 1.09117 0.22547 0.16374
 H3526 H 1.07881 0.20669 0.14838
 H3527 H 1.03148 0.18060 0.13238
 H3528 H 1.00463 0.17721 0.13498
 H3529 H 0.99024 0.19252 0.15279
 H3530 H 1.00261 0.21137 0.16805
 C3531 C 0.58339 0.22154 0.72278
 C3532 C 0.58117 0.21085 0.71128
 C3533 C 0.59367 0.20369 0.70468
 C3534 C 0.60831 0.20739 0.70950
 C3535 C 0.61052 0.21808 0.72098
 C3536 C 0.59802 0.22516 0.72765
 C3537 C 0.60049 0.23578 0.73912
 C3538 C 0.61493 0.23932 0.74387
 C3539 C 0.62716 0.23241 0.73734
 C3540 C 0.62505 0.22190 0.72602
 C3541 C 0.59116 0.19291 0.69335
 C3542 C 0.57672 0.18929 0.68868
 C3543 C 0.56452 0.19631 0.69510
 C3544 C 0.56663 0.20700 0.70623
 C3545 C 0.62109 0.20030 0.70253
 C3546 C 0.63169 0.19448 0.69667
 C3547 C 0.57054 0.22859 0.72961
 C3548 C 0.55929 0.23382 0.73476
 H3549 H 0.59132 0.24145 0.74453
 H3550 H 0.61663 0.24747 0.75266
 H3551 H 0.63835 0.23520 0.74107
 H3552 H 0.63492 0.21682 0.72130
 H3553 H 0.60031 0.18712 0.68804
 H3554 H 0.57499 0.18095 0.68007
 H3555 H 0.55335 0.19338 0.69153
 H3556 H 0.55675 0.21209 0.71089
 C3557 C 1.08238 0.21962 0.21923
 C3558 C 1.08281 0.20397 0.22057
 C3559 C 1.09338 0.19567 0.21220
 C3560 C 1.10357 0.20307 0.20267
 C3561 C 1.10327 0.21873 0.20149
 C3562 C 1.09269 0.22703 0.20987
 C3563 C 1.09267 0.24267 0.20862
 C3564 C 1.10274 0.24992 0.19925
 C3565 C 1.11299 0.24180 0.19094
 C3566 C 1.11332 0.22638 0.19202
 C3567 C 1.09340 0.18002 0.21350
 C3568 C 1.08333 0.17278 0.22287
 C3569 C 1.07308 0.18090 0.23117
 C3570 C 1.07276 0.19632 0.23008
 C3571 C 1.11461 0.19462 0.19441
 C3572 C 1.12396 0.18763 0.18777
 C3573 C 1.07050 0.22784 0.22649
 C3574 C 1.05984 0.23387 0.23196
 H3575 H 1.08488 0.24945 0.21485
 H3576 H 1.10255 0.26189 0.19839
 H3577 H 1.12075 0.24747 0.18363
 H3578 H 1.12150 0.22056 0.18534
 H3579 H 1.10114 0.17321 0.20724
 H3580 H 1.08343 0.16080 0.22366
 H3581 H 1.06524 0.17523 0.23840
 H3582 H 1.06453 0.20213 0.23671
 C3583 C 0.16727 0.72074 0.53119
 C3584 C 0.16455 0.72431 0.54643
 C3585 C 0.15417 0.71578 0.55484
 C3586 C 0.14652 0.70377 0.54795
 C3587 C 0.14944 0.70004 0.53280
 C3588 C 0.15980 0.70858 0.52438
 C3589 C 0.16273 0.70449 0.50934
 C3590 C 0.15567 0.69226 0.50282
 C3591 C 0.14557 0.68388 0.51106
 C3592 C 0.14241 0.68770 0.52587
 C3593 C 0.15202 0.71923 0.57017
 C3594 C 0.16000 0.73069 0.57705
 C3595 C 0.17015 0.73904 0.56883
 C3596 C 0.17239 0.73598 0.55368
 C3597 C 0.13583 0.69512 0.55650
 C3598 C 0.12683 0.68799 0.56349
 C3599 C 0.17905 0.72840 0.52315
 C3600 C 0.18958 0.73412 0.51707
 H3601 H 0.17052 0.71065 0.50249
 H3602 H 0.15810 0.68923 0.49133
 H3603 H 0.14017 0.67434 0.50596
 H3604 H 0.13451 0.68080 0.53184
 H3605 H 0.14431 0.71300 0.57706
 H3606 H 0.15832 0.73309 0.58883
 H3607 H 0.17634 0.74792 0.57423
 H3608 H 0.18043 0.74277 0.54777
 C3609 C 0.17203 0.21401 1.03659
 C3610 C 0.16969 0.21706 1.05200
 C3611 C 0.15949 0.20825 1.06035
 C3612 C 0.15163 0.19652 1.05322
 C3613 C 0.15446 0.19308 1.03799
 C3614 C 0.16467 0.20186 1.02964
 C3615 C 0.16742 0.19812 1.01447
 C3616 C 0.16033 0.18601 1.00776
 C3617 C 0.15038 0.17739 1.01593
 C3618 C 0.14740 0.18086 1.03087
 C3619 C 0.15767 0.21120 1.07584
 C3620 C 0.16583 0.22241 1.08292
 C3621 C 0.17579 0.23104 1.07476
 C3622 C 0.17767 0.22851 1.05945
 C3623 C 0.14043 0.18820 1.06144
 C3624 C 0.13084 0.18152 1.06811
 C3625 C 0.18300 0.22254 1.02828
 C3626 C 0.19279 0.22914 1.02186
 H3627 H 0.17511 0.20446 1.00766
 H3628 H 0.16261 0.18327 0.99616
 H3629 H 0.14495 0.16795 1.01068
 H3630 H 0.13962 0.17378 1.03678
 H3631 H 0.15013 0.20472 1.08268
 H3632 H 0.16445 0.22439 1.09481
 H3633 H 0.18213 0.23971 1.08032
 H3634 H 0.18560 0.23547 1.05361
 C3635 C 0.66925 0.52693 0.21834
 C3636 C 0.67099 0.53118 0.20316
 C3637 C 0.65969 0.53963 0.19596
 C3638 C 0.64661 0.54355 0.20389
 C3639 C 0.64471 0.53899 0.21895
 C3640 C 0.65607 0.53064 0.22620
 C3641 C 0.65402 0.52635 0.24130
 C3642 C 0.64107 0.53016 0.24903
 C3643 C 0.62995 0.53831 0.24194
 C3644 C 0.63169 0.54271 0.22708
 C3645 C 0.66184 0.54405 0.18088
 C3646 C 0.67467 0.54002 0.17308
 C3647 C 0.68559 0.53155 0.18005
 C3648 C 0.68390 0.52726 0.19494
 C3649 C 0.63510 0.55219 0.19648
 C3650 C 0.62562 0.55924 0.19009
 C3651 C 0.68165 0.51997 0.22612
 C3652 C 0.69269 0.51499 0.23197
 H3653 H 0.66235 0.51997 0.24725
 H3654 H 0.63966 0.52678 0.26057
 H3655 H 0.61992 0.54125 0.24800
 H3656 H 0.62275 0.54905 0.22205
 H3657 H 0.65363 0.55059 0.17495
 H3658 H 0.67610 0.54341 0.16153
 H3659 H 0.69538 0.52821 0.17387
 H3660 H 0.69275 0.52071 0.19986
 C3661 C 0.66858 1.02947 0.71985
 C3662 C 0.67148 1.04107 0.70955
 C3663 C 0.65943 1.04815 0.70206
 C3664 C 0.64454 1.04374 0.70506
 C3665 C 0.64165 1.03213 0.71532
 C3666 C 0.65371 1.02495 0.72272
 C3667 C 0.65056 1.01337 0.73291
 C3668 C 0.63589 1.00898 0.73572
 C3669 C 0.62409 1.01599 0.72851
 C3670 C 0.62687 1.02744 0.71841
 C3671 C 0.66263 1.05955 0.69165
 C3672 C 0.67730 1.06383 0.68871
 C3673 C 0.68907 1.05695 0.69609
 C3674 C 0.68628 1.04575 0.70644
 C3675 C 0.63220 1.05128 0.69775
 C3676 C 0.62191 1.05759 0.69180
 C3677 C 0.68099 1.02219 0.72730
 C3678 C 0.69192 1.01671 0.73290
 H3679 H 0.65938 1.00759 0.73880
 H3680 H 0.63367 1.00010 0.74355
 H3681 H 0.61271 1.01255 0.73073
 H3682 H 0.61732 1.03254 0.71306
 H3683 H 0.65384 1.06521 0.68561
 H3684 H 0.67956 1.07249 0.68065
 H3685 H 0.70044 1.06023 0.69370
 H3686 H 0.69585 1.04072 0.71182
 C3687 C 0.83207 0.46900 0.28668
 C3688 C 0.83884 0.47450 0.29996
 C3689 C 0.84878 0.46537 0.30826
 C3690 C 0.85195 0.45082 0.30318
 C3691 C 0.84493 0.44521 0.29007
 C3692 C 0.83500 0.45434 0.28177
 C3693 C 0.82777 0.44832 0.26896
 C3694 C 0.83013 0.43366 0.26461
 C3695 C 0.83981 0.42473 0.27275
 C3696 C 0.84723 0.43040 0.28529
 C3697 C 0.85506 0.47096 0.32173
 C3698 C 0.85157 0.48513 0.32690
 C3699 C 0.84188 0.49406 0.31877
 C3700 C 0.83558 0.48888 0.30543
 C3701 C 0.86224 0.44155 0.31154
 C3702 C 0.87093 0.43393 0.31839
 C3703 C 0.82070 0.47765 0.27909
 C3704 C 0.81044 0.48392 0.27309
 H3705 H 0.82010 0.45480 0.26227
 H3706 H 0.82438 0.42920 0.25488
 H3707 H 0.84157 0.41334 0.26934
 H3708 H 0.85459 0.42300 0.29130
 H3709 H 0.86261 0.46439 0.32849
 H3710 H 0.85638 0.48918 0.33730
 H3711 H 0.83919 0.50505 0.32284
 H3712 H 0.82807 0.49622 0.29950
 C3713 C 0.82927 0.96357 0.78587
 C3714 C 0.83637 0.96963 0.79872
 C3715 C 0.84612 0.96070 0.80745
 C3716 C 0.84874 0.94578 0.80325
 C3717 C 0.84125 0.93957 0.79069
 C3718 C 0.83152 0.94850 0.78194
 C3719 C 0.82384 0.94194 0.76968
 C3720 C 0.82555 0.92694 0.76630
 C3721 C 0.83505 0.91821 0.77488
 C3722 C 0.84291 0.92441 0.78689
 C3723 C 0.85281 0.96689 0.82046
 C3724 C 0.84990 0.98147 0.82476
 C3725 C 0.84038 0.99021 0.81621
 C3726 C 0.83369 0.98443 0.80331
 C3727 C 0.85909 0.93682 0.81187
 C3728 C 0.86792 0.92953 0.81891
 C3729 C 0.81835 0.97228 0.77770
 C3730 C 0.80848 0.97888 0.77141
 H3731 H 0.81628 0.94826 0.76271
 H3732 H 0.81944 0.92206 0.75701
 H3733 H 0.83630 0.90655 0.77225
 H3734 H 0.85008 0.91714 0.79329
 H3735 H 0.86024 0.96051 0.82752
 H3736 H 0.85502 0.98599 0.83480
 H3737 H 0.83813 1.00151 0.81961
 H3738 H 0.82634 0.99165 0.79705
 C3739 C 0.41822 0.28143 0.78405
 C3740 C 0.41326 0.29507 0.77801
 C3741 C 0.40200 0.30330 0.78550
 C3742 C 0.39578 0.29786 0.79899
 C3743 C 0.40118 0.28453 0.80535
 C3744 C 0.41237 0.27624 0.79781
 C3745 C 0.41768 0.26302 0.80443
 C3746 C 0.41214 0.25816 0.81816
 C3747 C 0.40126 0.26631 0.82558
 C3748 C 0.39576 0.27933 0.81927
 C3749 C 0.39732 0.31697 0.77933
 C3750 C 0.40367 0.32241 0.76619
 C3751 C 0.41471 0.31438 0.75889
 C3752 C 0.41947 0.30085 0.76466
 C3753 C 0.38358 0.30575 0.80608
 C3754 C 0.37321 0.31215 0.81174
 C3755 C 0.43024 0.27344 0.77676
 C3756 C 0.44080 0.26746 0.77103
 H3757 H 0.42620 0.25634 0.79913
 H3758 H 0.41635 0.24804 0.82308
 H3759 H 0.39707 0.26253 0.83628
 H3760 H 0.38734 0.28532 0.82549
 H3761 H 0.38882 0.32366 0.78465
 H3762 H 0.40000 0.33292 0.76167
 H3763 H 0.41961 0.31866 0.74869
 H3764 H 0.42810 0.29502 0.75856
 C3765 C 0.92139 0.28388 0.28452
 C3766 C 0.91354 0.29582 0.27794
 C3767 C 0.90357 0.30442 0.28675
 C3768 C 0.90146 0.30097 0.30209
 C3769 C 0.90961 0.28930 0.30878
 C3770 C 0.91958 0.28070 0.29997
 C3771 C 0.92796 0.26939 0.30702
 C3772 C 0.92667 0.26677 0.32236
 C3773 C 0.91692 0.27519 0.33096
 C3774 C 0.90840 0.28628 0.32430
 C3775 C 0.89615 0.31654 0.28001
 C3776 C 0.89856 0.32011 0.26502
 C3777 C 0.90829 0.31169 0.25640
 C3778 C 0.91571 0.29966 0.26271
 C3779 C 0.89106 0.30960 0.31099
 C3780 C 0.88225 0.31677 0.31816
 C3781 C 0.93256 0.27597 0.27590
 C3782 C 0.94262 0.26993 0.26937
 H3783 H 0.93574 0.26258 0.30082
 H3784 H 0.93329 0.25819 0.32759
 H3785 H 0.91599 0.27314 0.34288
 H3786 H 0.90104 0.29260 0.33148
 H3787 H 0.88852 0.32347 0.28627
 H3788 H 0.89287 0.32948 0.26007
 H3789 H 0.91014 0.31452 0.24476
 H3790 H 0.92320 0.29346 0.25556
 C3791 C 0.33034 0.78181 0.46696
 C3792 C 0.33975 0.77459 0.45653
 C3793 C 0.35031 0.78296 0.44819
 C3794 C 0.35137 0.79851 0.45030
 C3795 C 0.34195 0.80574 0.46072
 C3796 C 0.33148 0.79735 0.46916
 C3797 C 0.32209 0.80485 0.47943
 C3798 C 0.32289 0.82020 0.48115
 C3799 C 0.33305 0.82840 0.47281
 C3800 C 0.34255 0.82131 0.46275
 C3801 C 0.35953 0.77551 0.43775
 C3802 C 0.35831 0.76024 0.43559
 C3803 C 0.34796 0.75207 0.44373
 C3804 C 0.33875 0.75910 0.45410
 C3805 C 0.36220 0.80704 0.44182
 C3806 C 0.37134 0.81405 0.43490
 C3807 C 0.31853 0.77359 0.47437
 C3808 C 0.30790 0.76759 0.47998
 H3809 H 0.31395 0.79897 0.48612
 H3810 H 0.31550 0.82576 0.48892
 H3811 H 0.33355 0.84034 0.47411
 H3812 H 0.35023 0.82818 0.45649
 H3813 H 0.36773 0.78139 0.43113
 H3814 H 0.36544 0.75472 0.42755
 H3815 H 0.34705 0.74020 0.44201
 H3816 H 0.33089 0.75228 0.46021
 C3817 C 0.32957 0.28497 0.96843
 C3818 C 0.33935 0.27779 0.95833
 C3819 C 0.34960 0.28628 0.94973
 C3820 C 0.34999 0.30192 0.95125
 C3821 C 0.34028 0.30910 0.96144
 C3822 C 0.33012 0.30060 0.97013
 C3823 C 0.32051 0.30803 0.98024
 C3824 C 0.32083 0.32344 0.98159
 C3825 C 0.33068 0.33176 0.97299
 C3826 C 0.34035 0.32473 0.96305
 C3827 C 0.35921 0.27885 0.93963
 C3828 C 0.35868 0.26347 0.93807
 C3829 C 0.34864 0.25517 0.94648
 C3830 C 0.33905 0.26219 0.95651
 C3831 C 0.36044 0.31059 0.94241
 C3832 C 0.36923 0.31769 0.93512
 C3833 C 0.31808 0.27652 0.97610
 C3834 C 0.30775 0.27017 0.98191
 H3835 H 0.31259 0.30206 0.98711
 H3836 H 0.31330 0.32895 0.98926
 H3837 H 0.33079 0.34373 0.97399
 H3838 H 0.34779 0.33169 0.95658
 H3839 H 0.36719 0.28482 0.93283
 H3840 H 0.36610 0.25796 0.93030
 H3841 H 0.34828 0.24323 0.94523
 H3842 H 0.33146 0.25527 0.96283
 C3843 C 0.78428 0.46264 0.33002
 C3844 C 0.79597 0.46954 0.33823
 C3845 C 0.80499 0.46100 0.34808
 C3846 C 0.80220 0.44563 0.34975
 C3847 C 0.79072 0.43865 0.34129
 C3848 C 0.78174 0.44718 0.33139
 C3849 C 0.77070 0.43987 0.32265
 C3850 C 0.76870 0.42457 0.32354
 C3851 C 0.77748 0.41624 0.33323
 C3852 C 0.78832 0.42315 0.34210
 C3853 C 0.81689 0.46806 0.35582
 C3854 C 0.81984 0.48312 0.35385
 C3855 C 0.81098 0.49148 0.34426
 C3856 C 0.79915 0.48484 0.33653
 C3857 C 0.81134 0.43695 0.35991
 C3858 C 0.81889 0.42987 0.36851
 C3859 C 0.77609 0.47104 0.31885
 C3860 C 0.77000 0.47760 0.30881
 H3861 H 0.76362 0.44586 0.31490
 H3862 H 0.76032 0.41914 0.31665
 H3863 H 0.77591 0.40434 0.33386
 H3864 H 0.79494 0.41618 0.34939
 H3865 H 0.82414 0.46202 0.36336
 H3866 H 0.82906 0.48831 0.35976
 H3867 H 0.81332 0.50316 0.34275
 H3868 H 0.79261 0.49180 0.32916
 C3869 C 0.78297 0.96442 0.83104
 C3870 C 0.77946 0.94925 0.83328
 C3871 C 0.78803 0.94068 0.84350
 C3872 C 0.80003 0.94734 0.85147
 C3873 C 0.80374 0.96241 0.84899
 C3874 C 0.79517 0.97098 0.83878
 C3875 C 0.79927 0.98594 0.83626
 C3876 C 0.81154 0.99223 0.84357
 C3877 C 0.81994 0.98385 0.85355
 C3878 C 0.81611 0.96912 0.85631
 C3879 C 0.78467 0.92542 0.84514
 C3880 C 0.77326 0.91877 0.83680
 C3881 C 0.76487 0.92715 0.82682
 C3882 C 0.76782 0.94223 0.82509
 C3883 C 0.80868 0.93864 0.86205
 C3884 C 0.81581 0.93155 0.87098
 C3885 C 0.77522 0.97269 0.81948
 C3886 C 0.76938 0.97898 0.80910
 H3887 H 0.79310 0.99290 0.82857
 H3888 H 0.81458 1.00367 0.84145
 H3889 H 0.82950 0.98877 0.85916
 H3890 H 0.82302 0.96303 0.86412
 H3891 H 0.79095 0.91842 0.85270
 H3892 H 0.77094 0.90705 0.83807
 H3893 H 0.75603 0.92193 0.82034
 H3894 H 0.76101 0.94826 0.81715
 C3895 C 0.27955 0.78398 0.41674
 C3896 C 0.28931 0.77646 0.40688
 C3897 C 0.29803 0.78464 0.39647
 C3898 C 0.29697 0.80030 0.39602
 C3899 C 0.28721 0.80783 0.40588
 C3900 C 0.27839 0.79964 0.41621
 C3901 C 0.26882 0.80743 0.42607
 C3902 C 0.26811 0.82287 0.42586
 C3903 C 0.27681 0.83088 0.41583
 C3904 C 0.28622 0.82350 0.40589
 C3905 C 0.30780 0.77687 0.38680
 C3906 C 0.30894 0.76147 0.38742
 C3907 C 0.30041 0.75348 0.39761
 C3908 C 0.29069 0.76083 0.40726
 C3909 C 0.30588 0.80862 0.38535
 C3910 C 0.31325 0.81533 0.37632
 C3911 C 0.27179 0.77583 0.42839
 C3912 C 0.26599 0.76972 0.43888
 H3913 H 0.26189 0.80171 0.43413
 H3914 H 0.26086 0.82865 0.43359
 H3915 H 0.27631 0.84287 0.41579
 H3916 H 0.29281 0.83022 0.39833
 H3917 H 0.31469 0.78259 0.37870
 H3918 H 0.31648 0.75571 0.37995
 H3919 H 0.30133 0.74152 0.39804
 H3920 H 0.28426 0.75414 0.41497
 C3921 C 0.27546 0.28352 0.91734
 C3922 C 0.28318 0.27529 0.90630
 C3923 C 0.29096 0.28280 0.89470
 C3924 C 0.29101 0.29850 0.89425
 C3925 C 0.28318 0.30674 0.90523
 C3926 C 0.27526 0.29922 0.91673
 C3927 C 0.26742 0.30768 0.92753
 C3928 C 0.26757 0.32313 0.92709
 C3929 C 0.27546 0.33048 0.91595
 C3930 C 0.28316 0.32244 0.90509
 C3931 C 0.29867 0.27433 0.88381
 C3932 C 0.29869 0.25888 0.88439
 C3933 C 0.29109 0.25154 0.89574
 C3934 C 0.28340 0.25960 0.90660
 C3935 C 0.29906 0.30614 0.88245
 C3936 C 0.30571 0.31234 0.87253
 C3937 C 0.26872 0.27596 0.92998
 C3938 C 0.26380 0.27019 0.94109
 H3939 H 0.26119 0.30247 0.93647
 H3940 H 0.26163 0.32943 0.93553
 H3941 H 0.27564 0.34249 0.91574
 H3942 H 0.28914 0.32866 0.89664
 H3943 H 0.30477 0.27952 0.87477
 H3944 H 0.30465 0.25258 0.87598
 H3945 H 0.29113 0.23955 0.89614
 H3946 H 0.27760 0.25340 0.91519
 C3947 C 0.46452 0.28688 0.82916
 C3948 C 0.45347 0.27980 0.83795
 C3949 C 0.44454 0.28830 0.84792
 C3950 C 0.44675 0.30382 0.84908
 C3951 C 0.45757 0.31095 0.84004
 C3952 C 0.46652 0.30245 0.83008
 C3953 C 0.47710 0.30986 0.82099
 C3954 C 0.47868 0.32523 0.82160
 C3955 C 0.46990 0.33354 0.83130
 C3956 C 0.45950 0.32654 0.84049
 C3957 C 0.43346 0.28099 0.85648
 C3958 C 0.43131 0.26572 0.85528
 C3959 C 0.44009 0.25740 0.84558
 C3960 C 0.45103 0.26431 0.83696
 C3961 C 0.43813 0.31237 0.85981
 C3962 C 0.43112 0.31925 0.86901
 C3963 C 0.47299 0.27835 0.81831
 C3964 C 0.47944 0.27168 0.80856
 H3965 H 0.48413 0.30389 0.81320
 H3966 H 0.48670 0.33073 0.81442
 H3967 H 0.47110 0.34549 0.83165
 H3968 H 0.45285 0.33348 0.84778
 H3969 H 0.42632 0.28699 0.86415
 H3970 H 0.42277 0.26031 0.86189
 H3971 H 0.43837 0.24554 0.84468
 H3972 H 0.45754 0.25737 0.82955
 C3973 C 0.96628 0.28734 0.32759
 C3974 C 0.96907 0.28525 0.34305
 C3975 C 0.96092 0.29356 0.35383
 C3976 C 0.95002 0.30390 0.34905
 C3977 C 0.94723 0.30600 0.33358
 C3978 C 0.95539 0.29770 0.32280
 C3979 C 0.95238 0.30000 0.30739
 C3980 C 0.94162 0.31015 0.30278
 C3981 C 0.93365 0.31825 0.31332
 C3982 C 0.93639 0.31625 0.32856
 C3983 C 0.96391 0.29129 0.36925
 C3984 C 0.97463 0.28109 0.37388
 C3985 C 0.98259 0.27297 0.36333
 C3986 C 0.97988 0.27498 0.34807
 C3987 C 0.94164 0.31230 0.36006
 C3988 C 0.93471 0.31916 0.36933
 C3989 C 0.97451 0.27887 0.31651
 C3990 C 0.98084 0.27231 0.30661
 H3991 H 0.95827 0.29398 0.29872
 H3992 H 0.93944 0.31173 0.29095
 H3993 H 0.92530 0.32612 0.30966
 H3994 H 0.92990 0.32282 0.33633
 H3995 H 0.95801 0.29735 0.37788
 H3996 H 0.97678 0.27949 0.38572
 H3997 H 0.99091 0.26507 0.36698
 H3998 H 0.98635 0.26841 0.34028
 C3999 C 0.46327 0.32893 0.78210
 C4000 C 0.45205 0.32502 0.79257
 C4001 C 0.44424 0.33629 0.80046
 C4002 C 0.44779 0.35139 0.79794
 C4003 C 0.45903 0.35529 0.78750
 C4004 C 0.46678 0.34402 0.77954
 C4005 C 0.47797 0.34817 0.76919
 C4006 C 0.48143 0.36305 0.76676
 C4007 C 0.47387 0.37408 0.77454
 C4008 C 0.46278 0.37031 0.78480
 C4009 C 0.43309 0.33213 0.81088
 C4010 C 0.42994 0.31725 0.81364
 C4011 C 0.43776 0.30623 0.80612
 C4012 C 0.44855 0.30999 0.79556
 C4013 C 0.43998 0.36294 0.80612
 C4014 C 0.43361 0.37273 0.81272
 C4015 C 0.47135 0.31735 0.77425
 C4016 C 0.47770 0.30714 0.76832
 H4017 H 0.48415 0.33998 0.76287
 H4018 H 0.49003 0.36603 0.75880
 H4019 H 0.47659 0.38562 0.77261
 H4020 H 0.45721 0.37929 0.79057
 H4021 H 0.42682 0.34032 0.81711
 H4022 H 0.42153 0.31424 0.82178
 H4023 H 0.43556 0.29470 0.80860
 H4024 H 0.45427 0.30098 0.78999
 C4025 C 0.96587 0.33017 0.28167
 C4026 C 0.96992 0.33294 0.29680
 C4027 C 0.96135 0.34291 0.30563
 C4028 C 0.94882 0.35011 0.29926
 C4029 C 0.94454 0.34705 0.28426
 C4030 C 0.95311 0.33708 0.27542
 C4031 C 0.94845 0.33398 0.26055
 C4032 C 0.93564 0.34048 0.25460
 C4033 C 0.92724 0.35020 0.26325
 C4034 C 0.93161 0.35352 0.27790
 C4035 C 0.96528 0.34507 0.32088
 C4036 C 0.97724 0.33748 0.32727
 C4037 C 0.98564 0.32776 0.31863
 C4038 C 0.98213 0.32553 0.30356
 C4039 C 0.94024 0.36052 0.30821
 C4040 C 0.93329 0.36929 0.31564
 C4041 C 0.97379 0.31892 0.27318
 C4042 C 0.97993 0.30878 0.26691
 H4043 H 0.95460 0.32646 0.25341
 H4044 H 0.93219 0.33792 0.24324
 H4045 H 0.91726 0.35516 0.25860
 H4046 H 0.92467 0.36109 0.28421
 H4047 H 0.95902 0.35245 0.32808
 H4048 H 0.97998 0.33914 0.33899
 H4049 H 0.99491 0.32188 0.32365
 H4050 H 0.98898 0.31782 0.29733
 C4051 C 0.28531 0.82854 0.46430
 C4052 C 0.29547 0.82278 0.45360
 C4053 C 0.30436 0.83262 0.44493
 C4054 C 0.30302 0.84813 0.44698
 C4055 C 0.29289 0.85386 0.45770
 C4056 C 0.28402 0.84403 0.46639
 C4057 C 0.27399 0.85000 0.47703
 C4058 C 0.27275 0.86528 0.47904
 C4059 C 0.28141 0.87491 0.47055
 C4060 C 0.29139 0.86933 0.45999
 C4061 C 0.31444 0.82663 0.43433
 C4062 C 0.31570 0.81135 0.43233
 C4063 C 0.30700 0.80173 0.44077
 C4064 C 0.29699 0.80730 0.45130
 C4065 C 0.31193 0.85824 0.43803
 C4066 C 0.31914 0.86693 0.43074
 C4067 C 0.27624 0.81840 0.47306
 C4068 C 0.26928 0.80903 0.47968
 H4069 H 0.26703 0.84294 0.48390
 H4070 H 0.26502 0.86967 0.48723
 H4071 H 0.28040 0.88677 0.47215
 H4072 H 0.29788 0.87727 0.45366
 H4073 H 0.32145 0.83367 0.42750
 H4074 H 0.32346 0.80695 0.42418
 H4075 H 0.30801 0.78986 0.43917
 H4076 H 0.29048 0.79934 0.45758
 C4077 C 0.28049 0.33182 0.96964
 C4078 C 0.27813 0.34693 0.97311
 C4079 C 0.28593 0.35810 0.96506
 C4080 C 0.29604 0.35406 0.95356
 C4081 C 0.29844 0.33892 0.95012
 C4082 C 0.29066 0.32775 0.95819
 C4083 C 0.29329 0.31267 0.95457
 C4084 C 0.30330 0.30875 0.94330
 C4085 C 0.31089 0.31968 0.93541
 C4086 C 0.30854 0.33460 0.93873
 C4087 C 0.28338 0.37316 0.96874
 C4088 C 0.27342 0.37707 0.98005
 C4089 C 0.26579 0.36614 0.98792
 C4090 C 0.26808 0.35122 0.98454
 C4091 C 0.30390 0.36551 0.94530
 C4092 C 0.31027 0.37521 0.93855
 C4093 C 0.27257 0.32033 0.97778
 C4094 C 0.26659 0.31000 0.98387
 H4095 H 0.28768 0.30374 0.96038
 H4096 H 0.30517 0.29717 0.94069
 H4097 H 0.31865 0.31657 0.92667
 H4098 H 0.31472 0.34270 0.93229
 H4099 H 0.28904 0.38207 0.96294
 H4100 H 0.27161 0.38864 0.98272
 H4101 H 0.25807 0.36923 0.99670
 H4102 H 0.26190 0.34310 0.99096
 C4103 C 0.78987 0.42270 0.28320
 C4104 C 0.78802 0.40740 0.28014
 C4105 C 0.79605 0.39677 0.28870
 C4106 C 0.80591 0.40153 0.30022
 C4107 C 0.80790 0.41684 0.30317
 C4108 C 0.79979 0.42745 0.29470
 C4109 C 0.80179 0.44270 0.29804
 C4110 C 0.81156 0.44728 0.30934
 C4111 C 0.81963 0.43691 0.31748
 C4112 C 0.81784 0.42184 0.31450
 C4113 C 0.79397 0.38152 0.28547
 C4114 C 0.78425 0.37691 0.27412
 C4115 C 0.77641 0.38730 0.26576
 C4116 C 0.77823 0.40240 0.26869
 C4117 C 0.81388 0.39067 0.30914
 C4118 C 0.82044 0.38159 0.31650
 C4119 C 0.78152 0.43363 0.27473
 C4120 C 0.77494 0.44344 0.26841
 H4121 H 0.79583 0.45124 0.29201
 H4122 H 0.81289 0.45897 0.31180
 H4123 H 0.82726 0.44055 0.32620
 H4124 H 0.82431 0.41418 0.32119
 H4125 H 0.79982 0.37301 0.29166
 H4126 H 0.78280 0.36519 0.27180
 H4127 H 0.76888 0.38366 0.25696
 H4128 H 0.77190 0.41008 0.26190
   
