data_POSCAR
  _audit_creation_date              2014-09-24
  _audit_creation_method            'ToBaCCo'
  _symmetry_space_group_name_H-M    'P1'
  _symmetry_Int_Tables_number       1
  _symmetry_cell_setting            triclinic
  loop_
  _symmetry_equiv_pos_as_xyz
 x,y,z
_cell_length_a 60.6902
_cell_length_b 60.7465
_cell_length_c 60.7292
_cell_angle_alpha 89.954300
_cell_angle_beta 90.069600
_cell_angle_gamma 89.904500
loop_
  _atom_site_label
  _atom_site_type_symbol
  _atom_site_fract_x
  _atom_site_fract_y
  _atom_site_fract_z
C1 C 0.24953 0.99656 -0.01591
 C2 C 0.25093 0.99630 0.00640
 C3 C 0.25154 1.01682 0.01960
 C4 C 0.25157 0.97558 0.01928
 C5 C 0.24818 0.97609 -0.02916
 C6 C 0.24954 1.01749 -0.02852
 C7 C 0.26900 1.03178 0.01781
 C8 C 0.27005 1.05013 0.03171
 C9 C 0.25365 1.05384 0.04784
 C10 C 0.23593 1.03882 0.04906
 C11 C 0.23502 1.02055 0.03522
 C12 C 0.26950 0.97169 0.03330
 C13 C 0.26930 0.95396 0.04788
 C14 C 0.25099 0.93985 0.04893
 C15 C 0.23329 0.94336 0.03432
 C16 C 0.23357 0.96112 0.01960
 C17 C 0.23053 0.97340 -0.04381
 C18 C 0.22973 0.95528 -0.05789
 C19 C 0.24672 0.93951 -0.05779
 C20 C 0.26426 0.94204 -0.04280
 C21 C 0.26500 0.96021 -0.02863
 C22 C 0.23293 1.03333 -0.02567
 C23 C 0.23294 1.05260 -0.03833
 C24 C 0.24951 1.05627 -0.05411
 C25 C 0.26611 1.04032 -0.05680
 C26 C 0.26605 1.02111 -0.04421
 H27 H 0.28206 1.02898 0.00599
 H28 H 0.28397 1.06113 0.02998
 H29 H 0.22281 1.04082 0.06097
 H30 H 0.22144 1.00911 0.03685
 H31 H 0.28346 0.98278 0.03334
 H32 H 0.28325 0.95176 0.05879
 H33 H 0.21944 0.96409 0.00910
 H34 H 0.21746 0.98554 -0.04454
 H35 H 0.21597 0.95391 -0.06915
 H36 H 0.27763 0.93023 -0.04229
 H37 H 0.27897 0.96220 -0.01770
 H38 H 0.21986 1.03065 -0.01386
 H39 H 0.21987 1.06450 -0.03588
 H40 H 0.27909 1.04252 -0.06881
 H41 H 0.27894 1.00900 -0.04669
 H42 H 0.21895 0.93278 0.03467
 C43 C 0.74962 0.49453 0.48230
 C44 C 0.75126 0.49453 0.50460
 C45 C 0.75191 0.47399 0.51778
 C46 C 0.75217 0.51522 0.51746
 C47 C 0.74964 0.51530 0.46940
 C48 C 0.74802 0.47391 0.46937
 C49 C 0.73385 0.45961 0.51846
 C50 C 0.73359 0.44209 0.53347
 C51 C 0.75137 0.43873 0.54803
 C52 C 0.76973 0.45275 0.54662
 C53 C 0.76991 0.47024 0.53175
 C54 C 0.73574 0.51938 0.53311
 C55 C 0.73692 0.53791 0.54656
 C56 C 0.75472 0.55260 0.54482
 C57 C 0.77105 0.54856 0.52887
 C58 C 0.76980 0.52998 0.51531
 C59 C 0.76596 0.51856 0.45343
 C60 C 0.76603 0.53761 0.44059
 C61 C 0.74963 0.55376 0.44329
 C62 C 0.73324 0.55044 0.45934
 C63 C 0.73321 0.53134 0.47224
 C64 C 0.76481 0.45800 0.46989
 C65 C 0.76385 0.43968 0.45595
 C66 C 0.74612 0.43702 0.44121
 C67 C 0.72915 0.45281 0.44114
 C68 C 0.73017 0.47108 0.45499
 H69 H 0.71966 0.46247 0.50801
 H70 H 0.71922 0.43158 0.53408
 H71 H 0.78374 0.45066 0.55748
 H72 H 0.78392 0.48127 0.53153
 H73 H 0.72207 0.50810 0.53503
 H74 H 0.72405 0.54046 0.55862
 H75 H 0.78277 0.52684 0.50349
 H76 H 0.77870 0.50631 0.45094
 H77 H 0.77888 0.53954 0.42839
 H78 H 0.72032 0.56250 0.46181
 H79 H 0.72026 0.52893 0.48426
 H80 H 0.77891 0.46009 0.48061
 H81 H 0.77721 0.42785 0.45642
 H82 H 0.71525 0.45133 0.43006
 H83 H 0.71712 0.48326 0.45428
 H84 H 0.78498 0.55953 0.52710
 C85 C 0.75012 0.98173 0.99478
 C86 C 0.75025 1.00408 0.99476
 C87 C 0.75173 1.01725 0.97427
 C88 C 0.74854 1.01700 1.01537
 C89 C 0.74935 0.96892 1.01559
 C90 C 0.75109 0.96868 0.97418
 C91 C 0.76907 1.03228 0.97198
 C92 C 0.76930 1.04722 0.95455
 C93 C 0.75201 1.04764 0.93912
 C94 C 0.73499 1.03201 0.94101
 C95 C 0.73485 1.01693 0.95848
 C96 C 0.76499 1.01603 1.03159
 C97 C 0.76376 1.02964 1.05014
 C98 C 0.74608 1.04447 1.05267
 C99 C 0.72949 1.04503 1.03650
 C100 C 0.73078 1.03151 1.01802
 C101 C 0.73153 0.97069 1.03017
 C102 C 0.73095 0.95799 1.04941
 C103 C 0.74817 0.94314 1.05436
 C104 C 0.76599 0.94155 1.03956
 C105 C 0.76647 0.95421 1.02040
 C106 C 0.73456 0.95314 0.97001
 C107 C 0.73599 0.93921 0.95183
 C108 C 0.75413 0.94034 0.93750
 C109 C 0.77053 0.95622 0.94149
 C110 C 0.76904 0.97025 0.95972
 H111 H 0.78216 1.03283 0.98411
 H112 H 0.78271 1.05891 0.95362
 H113 H 0.72145 1.03184 0.92939
 H114 H 0.72116 1.00564 0.96018
 H115 H 0.77897 1.00510 1.02965
 H116 H 0.77682 1.02880 1.06227
 H117 H 0.71799 1.03252 1.00559
 H118 H 0.71798 0.98175 1.02655
 H119 H 0.71690 0.95974 1.06024
 H120 H 0.77959 0.93040 1.04260
 H121 H 0.78032 0.95257 1.00927
 H122 H 0.72065 0.95161 0.98107
 H123 H 0.72304 0.92723 0.94931
 H124 H 0.78473 0.95754 0.93080
 H125 H 0.78216 0.98189 0.96288
 H126 H 0.71565 1.05621 1.03787
 C127 C 0.24948 0.48326 0.49590
 C128 C 0.24978 0.50561 0.49564
 C129 C 0.25120 0.51849 0.47498
 C130 C 0.24833 0.51882 0.51611
 C131 C 0.24870 0.47073 0.51687
 C132 C 0.25021 0.46992 0.47545
 C133 C 0.26866 0.53331 0.47232
 C134 C 0.26886 0.54801 0.45469
 C135 C 0.25142 0.54839 0.43944
 C136 C 0.23427 0.53295 0.44169
 C137 C 0.23416 0.51811 0.45935
 C138 C 0.26483 0.51785 0.53229
 C139 C 0.26387 0.53175 0.55065
 C140 C 0.24643 0.54689 0.55305
 C141 C 0.22980 0.54746 0.53692
 C142 C 0.23082 0.53366 0.51862
 C143 C 0.23094 0.47285 0.53150
 C144 C 0.23039 0.46045 0.55093
 C145 C 0.24756 0.44565 0.55597
 C146 C 0.26527 0.44364 0.54119
 C147 C 0.26577 0.45598 0.52182
 C148 C 0.23362 0.45436 0.47163
 C149 C 0.23481 0.44021 0.45359
 C150 C 0.25278 0.44114 0.43903
 C151 C 0.26926 0.45703 0.44268
 C152 C 0.26801 0.47127 0.46077
 H153 H 0.28188 0.53389 0.48432
 H154 H 0.28238 0.55955 0.45347
 H155 H 0.22062 0.53276 0.43021
 H156 H 0.22039 0.50698 0.46135
 H157 H 0.27864 0.50670 0.53045
 H158 H 0.27696 0.53089 0.56275
 H159 H 0.21799 0.53469 0.50623
 H160 H 0.21745 0.48393 0.52777
 H161 H 0.21647 0.46235 0.56189
 H162 H 0.27874 0.43239 0.54446
 H163 H 0.27955 0.45407 0.51065
 H164 H 0.21982 0.45299 0.48285
 H165 H 0.22180 0.42825 0.45134
 H166 H 0.28334 0.45819 0.43181
 H167 H 0.28120 0.48291 0.46365
 H168 H 0.21613 0.55887 0.53818
 C169 C 0.99480 0.25042 -0.00515
 C170 C 0.99478 0.25036 0.01720
 C171 C 1.01557 0.25090 0.03012
 C172 C 0.97412 0.24945 0.03016
 C173 C 0.97430 0.24912 -0.01839
 C174 C 1.01544 0.25207 -0.01803
 C175 C 1.02012 0.23375 0.04487
 C176 C 1.03918 0.23408 0.05773
 C177 C 1.05415 0.25176 0.05631
 C178 C 1.04947 0.26898 0.04139
 C179 C 1.03034 0.26856 0.02849
 C180 C 0.95956 0.23161 0.02841
 C181 C 0.94120 0.23020 0.04229
 C182 C 0.93717 0.24658 0.05819
 C183 C 0.95163 0.26460 0.05952
 C184 C 0.96993 0.26594 0.04573
 C185 C 0.95856 0.26603 -0.01798
 C186 C 0.94106 0.26605 -0.03306
 C187 C 0.93907 0.24915 -0.04890
 C188 C 0.95450 0.23179 -0.04847
 C189 C 0.97194 0.23189 -0.03351
 C190 C 1.01819 0.26983 -0.03246
 C191 C 1.03659 0.27100 -0.04609
 C192 C 1.05266 0.25421 -0.04582
 C193 C 1.05000 0.23656 -0.03093
 C194 C 1.03152 0.23549 -0.01721
 H195 H 1.00886 0.22002 0.04641
 H196 H 1.04200 0.22047 0.06891
 H197 H 1.06045 0.28292 0.03976
 H198 H 1.02692 0.28214 0.01742
 H199 H 0.96273 0.21852 0.01674
 H200 H 0.93043 0.21609 0.04083
 H201 H 0.98107 0.27977 0.04740
 H202 H 0.96030 0.27963 -0.00659
 H203 H 0.92952 0.27966 -0.03266
 H204 H 0.95361 0.21835 -0.06014
 H205 H 0.98401 0.21875 -0.03411
 H206 H 1.00587 0.28274 -0.03333
 H207 H 1.03791 0.28493 -0.05714
 H208 H 1.06194 0.22332 -0.03011
 H209 H 1.02949 0.22150 -0.00633
 H210 H 0.94908 0.27753 0.07152
 C211 C 0.49584 0.75075 0.51635
 C212 C 0.49561 0.75058 0.49400
 C213 C 0.47494 0.74936 0.48104
 C214 C 0.51612 0.75187 0.48086
 C215 C 0.51677 0.75130 0.52900
 C216 C 0.47531 0.75009 0.52957
 C217 C 0.47220 0.73199 0.46613
 C218 C 0.45452 0.73191 0.45146
 C219 C 0.43928 0.74937 0.45122
 C220 C 0.44164 0.76644 0.46672
 C221 C 0.45937 0.76644 0.48152
 C222 C 0.53211 0.73519 0.48178
 C223 C 0.55048 0.73595 0.46788
 C224 C 0.55306 0.75338 0.45281
 C225 C 0.53714 0.77022 0.45231
 C226 C 0.51883 0.76939 0.46611
 C227 C 0.53161 0.76888 0.52700
 C228 C 0.55093 0.76927 0.53961
 C229 C 0.55566 0.75212 0.55452
 C230 C 0.54069 0.73457 0.55639
 C231 C 0.52143 0.73423 0.54384
 C232 C 0.47144 0.76670 0.54509
 C233 C 0.45326 0.76562 0.55907
 C234 C 0.43862 0.74773 0.55799
 C235 C 0.44234 0.73122 0.54215
 C236 C 0.46058 0.73237 0.52809
 H237 H 0.48416 0.71874 0.46546
 H238 H 0.45322 0.71845 0.43986
 H239 H 0.43018 0.78011 0.46702
 H240 H 0.46142 0.78015 0.49273
 H241 H 0.53010 0.72137 0.49288
 H242 H 0.56242 0.72272 0.46869
 H243 H 0.50658 0.78235 0.46513
 H244 H 0.52812 0.78238 0.51587
 H245 H 0.56205 0.78307 0.53781
 H246 H 0.54372 0.72112 0.56771
 H247 H 0.51011 0.72059 0.54567
 H248 H 0.48271 0.78044 0.54656
 H249 H 0.45095 0.77863 0.57102
 H250 H 0.43142 0.71720 0.54088
 H251 H 0.46351 0.71918 0.51646
 H252 H 0.53856 0.78389 0.44095
 C253 C 0.00538 0.75030 0.00372
 C254 C -0.01698 0.75009 0.00347
 C255 C -0.03028 0.75053 0.02396
 C256 C -0.02957 0.74967 -0.01746
 C257 C 0.01862 0.74863 -0.01673
 C258 C 0.01827 0.75187 0.02436
 C259 C -0.04561 0.73373 0.02768
 C260 C -0.05966 0.73451 0.04583
 C261 C -0.05891 0.75233 0.06068
 C262 C -0.04317 0.76903 0.05704
 C263 C -0.02905 0.76815 0.03883
 C264 C -0.02772 0.73208 -0.03228
 C265 C -0.04023 0.73186 -0.05165
 C266 C -0.05495 0.74922 -0.05650
 C267 C -0.05658 0.76682 -0.04147
 C268 C -0.04413 0.76695 -0.02217
 C269 C 0.01794 0.76509 -0.03293
 C270 C 0.03195 0.76396 -0.05120
 C271 C 0.04701 0.74637 -0.05353
 C272 C 0.04717 0.72973 -0.03734
 C273 C 0.03324 0.73095 -0.01915
 C274 C 0.03284 0.76954 0.02701
 C275 C 0.04743 0.77003 0.04473
 C276 C 0.04796 0.75270 0.06007
 C277 C 0.03278 0.73532 0.05779
 C278 C 0.01805 0.73491 0.04003
 H279 H -0.04687 0.72004 0.01632
 H280 H -0.07137 0.72124 0.04790
 H281 H -0.04196 0.78303 0.06800
 H282 H -0.01756 0.78148 0.03603
 H283 H -0.01676 0.71843 -0.02874
 H284 H -0.03845 0.71797 -0.06268
 H285 H -0.04580 0.78062 -0.01084
 H286 H 0.00692 0.77902 -0.03116
 H287 H 0.03120 0.77710 -0.06323
 H288 H 0.05835 0.71586 -0.03840
 H289 H 0.03403 0.71814 -0.00674
 H290 H 0.03329 0.78270 0.01497
 H291 H 0.05878 0.78371 0.04597
 H292 H 0.03271 0.72173 0.06934
 H293 H 0.00710 0.72099 0.03804
 H294 H -0.06764 0.78052 -0.04441
 C295 C 0.50466 0.25037 0.50532
 C296 C 0.48229 0.25031 0.50532
 C297 C 0.46924 0.25099 0.52595
 C298 C 0.46945 0.24982 0.48453
 C299 C 0.51762 0.24846 0.48474
 C300 C 0.51782 0.25200 0.52580
 C301 C 0.45386 0.23429 0.52999
 C302 C 0.44004 0.23531 0.54830
 C303 C 0.44113 0.25322 0.56291
 C304 C 0.45682 0.26984 0.55902
 C305 C 0.47073 0.26874 0.54066
 C306 C 0.47106 0.23212 0.46978
 C307 C 0.45834 0.23188 0.45053
 C308 C 0.44374 0.24929 0.44580
 C309 C 0.44225 0.26695 0.46069
 C310 C 0.45489 0.26714 0.47988
 C311 C 0.51686 0.26481 0.46843
 C312 C 0.53058 0.26338 0.44996
 C313 C 0.54532 0.24560 0.44758
 C314 C 0.54565 0.22911 0.46384
 C315 C 0.53204 0.23060 0.48224
 C316 C 0.53263 0.26952 0.52810
 C317 C 0.54748 0.27000 0.54562
 C318 C 0.54802 0.25280 0.56111
 C319 C 0.53262 0.23558 0.55919
 C320 C 0.51763 0.23518 0.54163
 H321 H 0.45239 0.22052 0.51876
 H322 H 0.42821 0.22222 0.55073
 H323 H 0.45810 0.28387 0.56991
 H324 H 0.48225 0.28199 0.53761
 H325 H 0.48198 0.21844 0.47327
 H326 H 0.45985 0.21799 0.43947
 H327 H 0.45337 0.28088 0.49114
 H328 H 0.50603 0.27887 0.47025
 H329 H 0.52991 0.27637 0.43776
 H330 H 0.55674 0.21519 0.46260
 H331 H 0.53289 0.21788 0.49473
 H332 H 0.53307 0.28256 0.51594
 H333 H 0.55900 0.28356 0.54658
 H334 H 0.53255 0.22210 0.57086
 H335 H 0.50651 0.22136 0.53991
 H336 H 0.43116 0.28060 0.45766
 C337 C 1.00387 0.01564 0.25016
 C338 C 1.00414 -0.00664 0.25179
 C339 C 0.98360 -0.01979 0.25245
 C340 C 1.02483 -0.01957 0.25255
 C341 C 1.02436 0.02884 0.24858
 C342 C 0.98292 0.02825 0.25015
 C343 C 0.96867 -0.01799 0.26997
 C344 C 0.95032 -0.03188 0.27105
 C345 C 0.94662 -0.04791 0.25465
 C346 C 0.96153 -0.04919 0.23690
 C347 C 0.97981 -0.03539 0.23593
 C348 C 1.02872 -0.03331 0.27067
 C349 C 1.04620 -0.04820 0.27053
 C350 C 1.06012 -0.04995 0.25204
 C351 C 1.05666 -0.03542 0.23420
 C352 C 1.03913 -0.02039 0.23446
 C353 C 1.02697 0.04331 0.23079
 C354 C 1.04510 0.05736 0.22977
 C355 C 1.06096 0.05741 0.24667
 C356 C 1.05851 0.04261 0.26435
 C357 C 1.04032 0.02847 0.26532
 C358 C 0.96702 0.02528 0.23362
 C359 C 0.94764 0.03780 0.23370
 C360 C 0.94391 0.05357 0.25026
 C361 C 0.95994 0.05642 0.26676
 C362 C 0.97926 0.04396 0.26662
 H363 H 0.97152 -0.00619 0.28302
 H364 H 0.93929 -0.03026 0.28497
 H365 H 0.95939 -0.06114 0.22385
 H366 H 0.99122 -0.03703 0.22232
 H367 H 1.01775 -0.03293 0.28473
 H368 H 1.04827 -0.05883 0.28471
 H369 H 1.03617 -0.01008 0.22021
 H370 H 1.01476 0.04392 0.21778
 H371 H 1.04641 0.06848 0.21589
 H372 H 1.07039 0.04223 0.27766
 H373 H 1.03839 0.01769 0.27939
 H374 H 0.96973 0.01344 0.22057
 H375 H 0.93569 0.03524 0.22070
 H376 H 0.95769 0.06843 0.27973
 H377 H 0.99141 0.04653 0.27945
 H378 H 1.06702 -0.03605 0.21971
 C379 C 0.50527 0.49534 0.75179
 C380 C 0.50521 0.51762 0.74997
 C381 C 0.48438 0.53046 0.74997
 C382 C 0.52583 0.53058 0.74817
 C383 C 0.52584 0.48218 0.75247
 C384 C 0.48459 0.48245 0.75279
 C385 C 0.46828 0.52743 0.73364
 C386 C 0.44902 0.54015 0.73374
 C387 C 0.44560 0.55619 0.75011
 C388 C 0.46184 0.55911 0.76640
 C389 C 0.48104 0.54645 0.76625
 C390 C 0.52850 0.54490 0.73026
 C391 C 0.54679 0.55872 0.72902
 C392 C 0.56276 0.55868 0.74582
 C393 C 0.56024 0.54403 0.76362
 C394 C 0.54190 0.53013 0.76480
 C395 C 0.52967 0.46839 0.77058
 C396 C 0.54707 0.45339 0.77040
 C397 C 0.56091 0.45165 0.75193
 C398 C 0.55752 0.46606 0.73405
 C399 C 0.54008 0.48121 0.73432
 C400 C 0.46986 0.48462 0.77045
 C401 C 0.45131 0.47101 0.77181
 C402 C 0.44728 0.45499 0.75555
 C403 C 0.46195 0.45322 0.73773
 C404 C 0.48044 0.46673 0.73645
 H405 H 0.47073 0.51539 0.72074
 H406 H 0.43691 0.53752 0.72091
 H407 H 0.45984 0.57133 0.77921
 H408 H 0.49334 0.54909 0.77891
 H409 H 0.51620 0.54557 0.71733
 H410 H 0.54814 0.56973 0.71507
 H411 H 0.53994 0.51946 0.77896
 H412 H 0.51874 0.46884 0.78467
 H413 H 0.54919 0.44266 0.78449
 H414 H 0.56790 0.46520 0.71960
 H415 H 0.53716 0.49151 0.72004
 H416 H 0.47299 0.49650 0.78337
 H417 H 0.44036 0.47280 0.78575
 H418 H 0.45941 0.44111 0.72491
 H419 H 0.49170 0.46478 0.72276
 H420 H 0.57221 0.54359 0.77685
 C421 C 0.99540 1.00547 0.75028
 C422 C 1.01777 1.00548 0.75009
 C423 C 1.03067 0.98471 0.74939
 C424 C 1.03079 1.02611 0.75085
 C425 C 0.98221 1.02597 0.75171
 C426 C 0.98248 0.98484 0.74875
 C427 C 1.04558 0.98013 0.76640
 C428 C 1.05846 0.96110 0.76589
 C429 C 1.05690 0.94620 0.74817
 C430 C 1.04180 0.95090 0.73109
 C431 C 1.02888 0.97000 0.73168
 C432 C 1.02930 1.04067 0.76871
 C433 C 1.04329 1.05894 0.76999
 C434 C 1.05905 1.06288 0.75345
 C435 C 1.06011 1.04844 0.73540
 C436 C 1.04621 1.03022 0.73419
 C437 C 0.98260 1.04174 0.73485
 C438 C 0.96766 1.05935 0.73503
 C439 C 0.95198 1.06142 0.75207
 C440 C 0.95242 1.04593 0.76937
 C441 C 0.96724 1.02838 0.76907
 C442 C 0.96777 0.98214 0.73116
 C443 C 0.95422 0.96368 0.73006
 C444 C 0.95490 0.94758 0.74669
 C445 C 0.96991 0.95016 0.76420
 C446 C 0.98358 0.96868 0.76523
 H447 H 1.04724 0.99136 0.78015
 H448 H 1.06978 0.95826 0.77940
 H449 H 1.04005 0.93997 0.71712
 H450 H 1.01767 0.97345 0.71822
 H451 H 1.01775 1.03756 0.78193
 H452 H 1.04204 1.06972 0.78413
 H453 H 1.04768 1.01908 0.72034
 H454 H 0.99387 1.03996 0.72115
 H455 H 0.96804 1.07092 0.72147
 H456 H 0.94087 1.04688 0.78291
 H457 H 0.96667 1.01629 0.78217
 H458 H 0.96665 0.99452 0.71834
 H459 H 0.94290 0.96228 0.71634
 H460 H 0.97086 0.93808 0.77728
 H461 H 0.99463 0.97066 0.77910
 H462 H 1.07199 1.05091 0.72235
 C463 C 0.49424 0.50425 0.24990
 C464 C 0.51660 0.50397 0.24955
 C465 C 0.52920 0.48304 0.24889
 C466 C 0.52991 0.52443 0.25009
 C467 C 0.48137 0.52494 0.25129
 C468 C 0.48101 0.48379 0.24860
 C469 C 0.54411 0.47832 0.26588
 C470 C 0.55670 0.45911 0.26537
 C471 C 0.55480 0.44426 0.24772
 C472 C 0.53979 0.44903 0.23067
 C473 C 0.52713 0.46830 0.23123
 C474 C 0.52872 0.53915 0.26785
 C475 C 0.54294 0.55726 0.26890
 C476 C 0.55864 0.56088 0.25223
 C477 C 0.55941 0.54628 0.23429
 C478 C 0.54528 0.52822 0.23331
 C479 C 0.48180 0.54054 0.23427
 C480 C 0.46714 0.55837 0.23449
 C481 C 0.45184 0.56081 0.25174
 C482 C 0.45213 0.54552 0.26913
 C483 C 0.46665 0.52773 0.26883
 C484 C 0.46607 0.48124 0.23118
 C485 C 0.45222 0.46298 0.23032
 C486 C 0.45283 0.44694 0.24702
 C487 C 0.46808 0.44938 0.26435
 C488 C 0.48203 0.46769 0.26515
 H489 H 0.54599 0.48958 0.27958
 H490 H 0.56810 0.45604 0.27876
 H491 H 0.53796 0.43799 0.21680
 H492 H 0.51593 0.47185 0.21779
 H493 H 0.51722 0.53628 0.28117
 H494 H 0.54191 0.56816 0.28296
 H495 H 0.54652 0.51697 0.21953
 H496 H 0.49286 0.53845 0.22044
 H497 H 0.46739 0.56987 0.22086
 H498 H 0.44067 0.54687 0.28271
 H499 H 0.46604 0.51575 0.28204
 H500 H 0.46500 0.49356 0.21832
 H501 H 0.44073 0.46168 0.21674
 H502 H 0.46898 0.43735 0.27749
 H503 H 0.49326 0.46957 0.27889
 H504 H 0.57123 0.54851 0.22115
 O505 O 0.25962 0.19312 0.20833
 O506 O 0.28343 0.18596 0.23882
 O507 O 0.20195 0.22009 0.24006
 O508 O 0.19543 0.24671 0.26332
 O509 O 0.22907 0.25122 0.18251
 O510 O 0.26106 0.27487 0.17639
 O511 O 0.26108 0.27908 0.29731
 O512 O 0.23502 0.25064 0.30291
 O513 O 0.31674 0.24907 0.27018
 O514 O 0.32335 0.22509 0.23808
 O515 O 0.29007 0.30673 0.24198
 O516 O 0.26338 0.31311 0.21620
 O517 O 0.26150 0.30597 0.27122
 O518 O 0.23299 0.31051 0.24202
 O519 O 0.31638 0.27993 0.24145
 O520 O 0.32327 0.24912 0.21536
 O521 O 0.29030 0.24912 0.29670
 O522 O 0.25928 0.22392 0.30288
 O523 O 0.25999 0.22002 0.18221
 O524 O 0.28439 0.25045 0.17651
 O525 O 0.20262 0.25084 0.20904
 O526 O 0.19965 0.27781 0.23943
 O527 O 0.22836 0.19335 0.23967
 O528 O 0.25931 0.18601 0.26325
 Zr529 Zr 0.25857 0.21037 0.23838
 O530 O 0.27944 0.22859 0.25921
 Zr531 Zr 0.22021 0.24948 0.23892
 O532 O 0.23938 0.26920 0.26012
 Zr533 Zr 0.25894 0.24956 0.20024
 O534 O 0.27946 0.26962 0.21963
 Zr535 Zr 0.26046 0.24955 0.27917
 O536 O 0.23940 0.22952 0.25997
 Zr537 Zr 0.29899 0.24997 0.24036
 O538 O 0.28010 0.22963 0.21924
 Zr539 Zr 0.26048 0.28889 0.24113
 O540 O 0.23964 0.27085 0.21964
 O541 O 0.23830 0.22912 0.21819
 O542 O 0.28108 0.27026 0.26136
 C543 C 0.26032 0.19974 0.18822
 C544 C 0.20818 0.19983 0.24048
 C545 C 0.20887 0.25172 0.18885
 C546 C 0.26151 0.29938 0.29131
 C547 C 0.31048 0.24888 0.29039
 C548 C 0.31023 0.30019 0.24208
 H549 H 0.28853 0.21832 0.26798
 H550 H 0.28843 0.27908 0.20988
 H551 H 0.22879 0.21987 0.20872
 H552 H 0.22967 0.27831 0.26950
 H553 H 0.22314 0.24091 0.29746
 H554 H 0.19844 0.25799 0.27467
 H555 H 0.32025 0.26138 0.20506
 H556 H 0.29601 0.24026 0.18176
 H557 H 0.27107 0.21321 0.29944
 H558 H 0.24933 0.19116 0.27506
 H559 H 0.25080 0.31100 0.20606
 H560 H 0.24916 0.28552 0.17962
 H561 H 0.29533 0.19131 0.22906
 H562 H 0.32003 0.21383 0.24937
 H563 H 0.18440 0.27324 0.23575
 H564 H 0.23852 0.32552 0.24527
 O565 O 0.74858 0.81732 0.22929
 O566 O 0.72493 0.82310 0.26008
 O567 O 0.80717 0.79078 0.25990
 O568 O 0.81448 0.76377 0.28267
 O569 O 0.78031 0.76057 0.20199
 O570 O 0.74888 0.73631 0.19543
 O571 O 0.74991 0.72924 0.31633
 O572 O 0.77554 0.75800 0.32224
 O573 O 0.69354 0.75796 0.29023
 O574 O 0.68593 0.78306 0.25894
 O575 O 0.72106 0.70212 0.26015
 O576 O 0.74796 0.69696 0.23442
 O577 O 0.74951 0.70296 0.28965
 O578 O 0.77819 0.69959 0.26039
 O579 O 0.69418 0.72834 0.26039
 O580 O 0.68635 0.75983 0.23545
 O581 O 0.72020 0.75815 0.31658
 O582 O 0.75060 0.78428 0.32295
 O583 O 0.74855 0.79099 0.20265
 O584 O 0.72496 0.76004 0.19626
 O585 O 0.80703 0.76093 0.22832
 O586 O 0.81081 0.73317 0.25794
 O587 O 0.78018 0.81695 0.26027
 O588 O 0.74932 0.82294 0.28441
 Zr589 Zr 0.75035 0.79929 0.25891
 O590 O 0.73010 0.78007 0.27945
 Zr591 Zr 0.78961 0.76103 0.25829
 O592 O 0.77110 0.74036 0.27916
 Zr593 Zr 0.75054 0.76102 0.21990
 O594 O 0.73067 0.74002 0.23893
 Zr595 Zr 0.74980 0.75911 0.29877
 O596 O 0.77019 0.78007 0.27990
 Zr597 Zr 0.71089 0.75871 0.26023
 O598 O 0.72910 0.77999 0.23946
 Zr599 Zr 0.75026 0.72066 0.25987
 O600 O 0.77050 0.73969 0.23868
 O601 O 0.77085 0.78148 0.23818
 O602 O 0.72948 0.73836 0.28062
 C603 C 0.74780 0.81113 0.20907
 C604 C 0.80050 0.81089 0.26071
 C605 C 0.80059 0.76044 0.20816
 C606 C 0.74955 0.70910 0.30989
 C607 C 0.69999 0.75773 0.31039
 C608 C 0.70075 0.70820 0.26036
 H609 H 0.72083 0.78987 0.28854
 H610 H 0.72185 0.73063 0.22897
 H611 H 0.78002 0.79118 0.22883
 H612 H 0.78108 0.73123 0.28829
 H613 H 0.78708 0.76825 0.31700
 H614 H 0.81190 0.75205 0.29369
 H615 H 0.68963 0.74806 0.22469
 H616 H 0.71316 0.76988 0.20173
 H617 H 0.73828 0.79456 0.32005
 H618 H 0.75963 0.81775 0.29596
 H619 H 0.76045 0.69966 0.22433
 H620 H 0.76101 0.72582 0.19841
 H621 H 0.71295 0.81756 0.25050
 H622 H 0.68893 0.79387 0.27073
 H623 H 0.82594 0.73821 0.25440
 H624 H 0.77298 0.68443 0.26344
 O625 O 0.75040 0.19271 0.78048
 O626 O 0.72740 0.18545 0.75028
 O627 O 0.80828 0.22038 0.75017
 O628 O 0.81392 0.24647 0.72593
 O629 O 0.78030 0.25070 0.80739
 O630 O 0.74962 0.27393 0.81369
 O631 O 0.74878 0.27975 0.69293
 O632 O 0.77501 0.25147 0.68723
 O633 O 0.69321 0.24986 0.71993
 O634 O 0.68603 0.22587 0.75062
 O635 O 0.71970 0.30663 0.74880
 O636 O 0.75050 0.31345 0.77411
 O637 O 0.74876 0.30652 0.71911
 O638 O 0.77481 0.31281 0.74724
 O639 O 0.69322 0.28019 0.74912
 O640 O 0.68741 0.24805 0.77523
 O641 O 0.71940 0.25027 0.69317
 O642 O 0.74695 0.22509 0.68681
 O643 O 0.74983 0.21902 0.80714
 O644 O 0.72506 0.24982 0.81290
 O645 O 0.80709 0.25091 0.78119
 O646 O 0.81158 0.27676 0.75017
 O647 O 0.78223 0.19342 0.75010
 O648 O 0.74979 0.18657 0.72539
 Zr649 Zr 0.75168 0.21034 0.75080
 O650 O 0.73063 0.22904 0.73049
 Zr651 Zr 0.78978 0.24948 0.75095
 O652 O 0.77057 0.26958 0.73007
 Zr653 Zr 0.75079 0.24899 0.78946
 O654 O 0.73029 0.26963 0.77051
 Zr655 Zr 0.74936 0.25023 0.71077
 O656 O 0.77077 0.22976 0.72944
 Zr657 Zr 0.71093 0.25019 0.74959
 O658 O 0.72989 0.22927 0.77014
 Zr659 Zr 0.74943 0.28907 0.74916
 O660 O 0.77018 0.27053 0.77034
 O661 O 0.77168 0.22886 0.77137
 O662 O 0.72872 0.27083 0.72879
 C663 C 0.74957 0.19885 0.80069
 C664 C 0.80236 0.20010 0.74967
 C665 C 0.80054 0.25148 0.80134
 C666 C 0.74852 0.29998 0.69896
 C667 C 0.69925 0.25001 0.69970
 C668 C 0.69952 0.30040 0.74878
 H669 H 0.72173 0.21896 0.72131
 H670 H 0.72114 0.27869 0.78045
 H671 H 0.78115 0.21959 0.78091
 H672 H 0.78028 0.27883 0.72084
 H673 H 0.78587 0.24006 0.69150
 H674 H 0.81050 0.25755 0.71448
 H675 H 0.68917 0.26111 0.78478
 H676 H 0.71394 0.23897 0.80802
 H677 H 0.75775 0.21362 0.69093
 H678 H 0.76327 0.18794 0.71635
 H679 H 0.73868 0.31026 0.78484
 H680 H 0.75894 0.28611 0.80821
 H681 H 0.71496 0.19095 0.75927
 H682 H 0.69042 0.21394 0.74046
 H683 H 0.82659 0.27150 0.75401
 H684 H 0.78668 0.30785 0.75729
 O685 O 0.24082 0.79801 0.77984
 O686 O 0.26469 0.80391 0.74911
 O687 O 0.18262 0.77127 0.74839
 O688 O 0.17601 0.74420 0.72552
 O689 O 0.20902 0.74153 0.80685
 O690 O 0.23925 0.71679 0.81355
 O691 O 0.24137 0.70962 0.69323
 O692 O 0.21540 0.73825 0.68675
 O693 O 0.29700 0.73919 0.71978
 O694 O 0.30384 0.76424 0.75121
 O695 O 0.26977 0.68329 0.75000
 O696 O 0.23963 0.67594 0.77351
 O697 O 0.24052 0.68351 0.72008
 O698 O 0.21347 0.67919 0.75277
 O699 O 0.29642 0.70957 0.74954
 O700 O 0.30349 0.74101 0.77461
 O701 O 0.27069 0.73900 0.69309
 O702 O 0.24018 0.76446 0.68600
 O703 O 0.24076 0.77177 0.80664
 O704 O 0.26420 0.74070 0.81341
 O705 O 0.18268 0.74171 0.78012
 O706 O 0.17937 0.71378 0.75085
 O707 O 0.20946 0.79751 0.74836
 O708 O 0.24054 0.80371 0.72471
 Zr709 Zr 0.23944 0.78001 0.75018
 O710 O 0.26005 0.76079 0.73000
 Zr711 Zr 0.20046 0.74164 0.75036
 O712 O 0.21934 0.72081 0.72990
 Zr713 Zr 0.23901 0.74184 0.78936
 O714 O 0.25944 0.72084 0.77084
 Zr715 Zr 0.24084 0.73959 0.71053
 O716 O 0.22007 0.76064 0.72896
 Zr717 Zr 0.27922 0.73963 0.74957
 O718 O 0.26057 0.76086 0.77000
 Zr719 Zr 0.24015 0.70139 0.74972
 O720 O 0.21951 0.72054 0.77032
 O721 O 0.21880 0.76219 0.77069
 O722 O 0.26112 0.71897 0.72904
 C723 C 0.24149 0.79189 0.80012
 C724 C 0.18917 0.79139 0.74762
 C725 C 0.18884 0.74144 0.80037
 C726 C 0.24121 0.68952 0.69982
 C727 C 0.29084 0.73894 0.69953
 C728 C 0.29001 0.68943 0.74971
 H729 H 0.26933 0.77062 0.72097
 H730 H 0.26837 0.71170 0.78095
 H731 H 0.20949 0.77193 0.77985
 H732 H 0.20952 0.71174 0.72062
 H733 H 0.20371 0.74846 0.69179
 H734 H 0.17859 0.73218 0.71484
 H735 H 0.30038 0.72912 0.78529
 H736 H 0.27613 0.75041 0.80806
 H737 H 0.25188 0.77525 0.68940
 H738 H 0.23055 0.79840 0.71297
 H739 H 0.24844 0.68098 0.78625
 H740 H 0.22870 0.70542 0.80854
 H741 H 0.27651 0.79860 0.75903
 H742 H 0.30092 0.77499 0.73932
 H743 H 0.16414 0.71889 0.75387
 H744 H 0.20498 0.67962 0.73886
 O745 O 0.24799 0.32000 0.73235
 O746 O 0.22435 0.32579 0.76311
 O747 O 0.30661 0.29354 0.76297
 O748 O 0.31392 0.26658 0.78581
 O749 O 0.27981 0.26323 0.70512
 O750 O 0.24840 0.23897 0.69853
 O751 O 0.24937 0.23203 0.81945
 O752 O 0.27496 0.26082 0.82537
 O753 O 0.19299 0.26059 0.79328
 O754 O 0.18535 0.28569 0.76199
 O755 O 0.22060 0.20480 0.76325
 O756 O 0.24754 0.19964 0.73758
 O757 O 0.24900 0.20572 0.79280
 O758 O 0.27773 0.20234 0.76359
 O759 O 0.19368 0.23098 0.76343
 O760 O 0.18584 0.26247 0.73848
 O761 O 0.21963 0.26087 0.81965
 O762 O 0.24998 0.28708 0.82601
 O763 O 0.24802 0.29364 0.70573
 O764 O 0.22446 0.26266 0.69935
 O765 O 0.30651 0.26363 0.73146
 O766 O 0.31031 0.23594 0.76114
 O767 O 0.27959 0.31969 0.76330
 O768 O 0.24872 0.32565 0.78747
 Zr769 Zr 0.24977 0.30200 0.76198
 O770 O 0.22952 0.28278 0.78251
 Zr771 Zr 0.28907 0.26377 0.76142
 O772 O 0.27057 0.24311 0.78229
 Zr773 Zr 0.25003 0.26369 0.72300
 O774 O 0.23017 0.24268 0.74203
 Zr775 Zr 0.24924 0.26187 0.80187
 O776 O 0.26963 0.28283 0.78299
 Zr777 Zr 0.21036 0.26137 0.76329
 O778 O 0.22856 0.28266 0.74253
 Zr779 Zr 0.24977 0.22337 0.76300
 O780 O 0.27000 0.24240 0.74181
 O781 O 0.27031 0.28419 0.74127
 O782 O 0.22895 0.24107 0.78372
 C783 C 0.24724 0.31378 0.71214
 C784 C 0.29992 0.31364 0.76374
 C785 C 0.30008 0.26309 0.71130
 C786 C 0.24903 0.21188 0.81303
 C787 C 0.19942 0.26038 0.81345
 C788 C 0.20028 0.21086 0.76342
 H789 H 0.22024 0.29258 0.79159
 H790 H 0.22137 0.23328 0.73207
 H791 H 0.27947 0.29388 0.73192
 H792 H 0.28055 0.23401 0.79144
 H793 H 0.28648 0.27107 0.82013
 H794 H 0.31134 0.25488 0.79685
 H795 H 0.18913 0.25069 0.72774
 H796 H 0.21266 0.27252 0.70479
 H797 H 0.23763 0.29731 0.82311
 H798 H 0.25905 0.32050 0.79901
 H799 H 0.26004 0.20234 0.72751
 H800 H 0.26049 0.22846 0.70156
 H801 H 0.21236 0.32021 0.75358
 H802 H 0.18832 0.29650 0.77378
 H803 H 0.32543 0.24099 0.75760
 H804 H 0.27253 0.18718 0.76666
 O805 O 0.76241 0.69323 0.70631
 O806 O 0.78618 0.68591 0.73677
 O807 O 0.70479 0.72025 0.73811
 O808 O 0.69832 0.74682 0.76141
 O809 O 0.73199 0.75143 0.68062
 O810 O 0.76402 0.77504 0.67455
 O811 O 0.76405 0.77895 0.79546
 O812 O 0.73795 0.75056 0.80102
 O813 O 0.81965 0.74892 0.76825
 O814 O 0.82623 0.72501 0.73612
 O815 O 0.79308 0.80667 0.74022
 O816 O 0.76642 0.81316 0.71442
 O817 O 0.76452 0.80590 0.76941
 O818 O 0.73602 0.81058 0.74025
 O819 O 0.81934 0.77984 0.73963
 O820 O 0.82615 0.74905 0.71341
 O821 O 0.79322 0.74895 0.79477
 O822 O 0.76215 0.72378 0.80090
 O823 O 0.76285 0.72019 0.68026
 O824 O 0.78729 0.75058 0.67461
 O825 O 0.70555 0.75105 0.70715
 O826 O 0.70262 0.77796 0.73761
 O827 O 0.73114 0.69344 0.73766
 O828 O 0.76210 0.68599 0.76123
 Zr829 Zr 0.76139 0.71040 0.73640
 O830 O 0.78231 0.72853 0.75725
 Zr831 Zr 0.72312 0.74959 0.73702
 O832 O 0.74233 0.76921 0.75826
 Zr833 Zr 0.76185 0.74968 0.69834
 O834 O 0.78242 0.76966 0.71777
 Zr835 Zr 0.76337 0.74947 0.77726
 O836 O 0.74226 0.72953 0.75803
 Zr837 Zr 0.80190 0.74991 0.73844
 O838 O 0.78297 0.72965 0.71729
 Zr839 Zr 0.76346 0.78890 0.73930
 O840 O 0.74258 0.77096 0.71779
 O841 O 0.74116 0.72924 0.71625
 O842 O 0.78402 0.77018 0.75949
 C843 C 0.76313 0.69990 0.68623
 C844 C 0.71098 0.69997 0.73850
 C845 C 0.71180 0.75196 0.68697
 C846 C 0.76451 0.79926 0.78949
 C847 C 0.81339 0.74869 0.78845
 C848 C 0.81322 0.80011 0.74032
 H849 H 0.79139 0.71821 0.76599
 H850 H 0.79140 0.77912 0.70803
 H851 H 0.73164 0.72003 0.70676
 H852 H 0.73264 0.77832 0.76766
 H853 H 0.72604 0.74088 0.79555
 H854 H 0.70137 0.75805 0.77280
 H855 H 0.82322 0.76141 0.70320
 H856 H 0.79891 0.74037 0.67984
 H857 H 0.77393 0.71308 0.79745
 H858 H 0.75211 0.69112 0.77304
 H859 H 0.75381 0.81112 0.70430
 H860 H 0.75213 0.78570 0.67779
 H861 H 0.79812 0.69127 0.72706
 H862 H 0.82287 0.71371 0.74735
 H863 H 0.68737 0.77344 0.73389
 H864 H 0.74158 0.82557 0.74353
 O865 O 0.24955 0.69277 0.28019
 O866 O 0.22655 0.68549 0.24997
 O867 O 0.30738 0.72054 0.24989
 O868 O 0.31300 0.74664 0.22567
 O869 O 0.27936 0.75080 0.30712
 O870 O 0.24862 0.77398 0.31343
 O871 O 0.24784 0.77985 0.19270
 O872 O 0.27412 0.75160 0.18698
 O873 O 0.19231 0.74985 0.21965
 O874 O 0.18516 0.72581 0.25034
 O875 O 0.21870 0.80664 0.24856
 O876 O 0.24947 0.81348 0.27391
 O877 O 0.24777 0.80659 0.21891
 O878 O 0.27378 0.81292 0.24705
 O879 O 0.19225 0.78015 0.24885
 O880 O 0.18647 0.74800 0.27493
 O881 O 0.21852 0.75033 0.19291
 O882 O 0.24609 0.72521 0.18651
 O883 O 0.24893 0.71908 0.30685
 O884 O 0.22413 0.74982 0.31264
 O885 O 0.30615 0.75106 0.28092
 O886 O 0.31062 0.77692 0.24992
 O887 O 0.28137 0.69355 0.24980
 O888 O 0.24895 0.68663 0.22511
 Zr889 Zr 0.25080 0.71042 0.25051
 O890 O 0.22974 0.72909 0.23021
 Zr891 Zr 0.28885 0.74961 0.25069
 O892 O 0.26962 0.76970 0.22982
 Zr893 Zr 0.24985 0.74904 0.28919
 O894 O 0.22933 0.76965 0.27026
 Zr895 Zr 0.24846 0.75032 0.21051
 O896 O 0.26987 0.72987 0.22917
 Zr897 Zr 0.21000 0.75019 0.24931
 O898 O 0.22899 0.72930 0.26986
 Zr899 Zr 0.24845 0.78913 0.24893
 O900 O 0.26923 0.77062 0.27009
 O901 O 0.27077 0.72895 0.27110
 O902 O 0.22778 0.77087 0.22854
 C903 C 0.24870 0.69891 0.30039
 C904 C 0.30149 0.70026 0.24937
 C905 C 0.29959 0.75162 0.30106
 C906 C 0.24755 0.80008 0.19876
 C907 C 0.19837 0.75003 0.19942
 C908 C 0.19854 0.80036 0.24853
 H909 H 0.22086 0.71900 0.22101
 H910 H 0.22016 0.77869 0.28019
 H911 H 0.28025 0.71970 0.28063
 H912 H 0.27933 0.77897 0.22061
 H913 H 0.28498 0.74019 0.19124
 H914 H 0.30957 0.75773 0.21422
 H915 H 0.18821 0.76105 0.28450
 H916 H 0.21301 0.73898 0.30774
 H917 H 0.25687 0.71373 0.19064
 H918 H 0.26241 0.68804 0.21604
 H919 H 0.23762 0.81030 0.28461
 H920 H 0.25794 0.78617 0.30796
 H921 H 0.21411 0.69097 0.25897
 H922 H 0.18955 0.71392 0.24013
 H923 H 0.32563 0.77168 0.25375
 H924 H 0.28566 0.80797 0.25707
 O925 O 0.73917 0.29515 0.27942
 O926 O 0.76299 0.30102 0.24867
 O927 O 0.68094 0.26834 0.24805
 O928 O 0.67428 0.24122 0.22529
 O929 O 0.70739 0.23877 0.30658
 O930 O 0.73759 0.21400 0.31330
 O931 O 0.73967 0.20663 0.19302
 O932 O 0.71368 0.23521 0.18647
 O933 O 0.79529 0.23624 0.21946
 O934 O 0.80217 0.26131 0.25084
 O935 O 0.76803 0.18039 0.24982
 O936 O 0.73793 0.17309 0.27335
 O937 O 0.73881 0.18057 0.21993
 O938 O 0.71175 0.17632 0.25262
 O939 O 0.79470 0.20664 0.24925
 O940 O 0.80181 0.23814 0.27428
 O941 O 0.76896 0.23602 0.19278
 O942 O 0.73843 0.26145 0.18567
 O943 O 0.73915 0.26896 0.30627
 O944 O 0.76255 0.23789 0.31310
 O945 O 0.68102 0.23890 0.27986
 O946 O 0.67769 0.21086 0.25066
 O947 O 0.70777 0.29459 0.24796
 O948 O 0.73886 0.30076 0.22428
 Zr949 Zr 0.73776 0.27710 0.24981
 O950 O 0.75836 0.25785 0.22965
 Zr951 Zr 0.69877 0.23873 0.25009
 O952 O 0.71763 0.21787 0.22966
 Zr953 Zr 0.73735 0.23901 0.28906
 O954 O 0.75777 0.21797 0.27058
 Zr955 Zr 0.73913 0.23662 0.21024
 O956 O 0.71837 0.25770 0.22864
 Zr957 Zr 0.77753 0.23673 0.24926
 O958 O 0.75890 0.25799 0.26965
 Zr959 Zr 0.73844 0.19850 0.24952
 O960 O 0.71782 0.21768 0.27009
 O961 O 0.71714 0.25932 0.27036
 O962 O 0.75941 0.21603 0.22878
 C963 C 0.73988 0.28906 0.29970
 C964 C 0.68749 0.28846 0.24723
 C965 C 0.68720 0.23869 0.30011
 C966 C 0.73952 0.18654 0.19966
 C967 C 0.78911 0.23598 0.19921
 C968 C 0.78827 0.18652 0.24948
 H969 H 0.76763 0.26767 0.22060
 H970 H 0.76670 0.20885 0.28070
 H971 H 0.70784 0.26910 0.27951
 H972 H 0.70780 0.20879 0.22040
 H973 H 0.70198 0.24540 0.19151
 H974 H 0.67687 0.22920 0.21462
 H975 H 0.79874 0.22623 0.28495
 H976 H 0.77450 0.24757 0.30772
 H977 H 0.75014 0.27224 0.18903
 H978 H 0.72883 0.29544 0.21257
 H979 H 0.74672 0.17817 0.28609
 H980 H 0.72701 0.20265 0.30834
 H981 H 0.77483 0.29571 0.25857
 H982 H 0.79923 0.27207 0.23896
 H983 H 0.66247 0.21598 0.25372
 H984 H 0.70328 0.17669 0.23870
 N985 N 0.24083 0.09037 0.09228
 C986 C 0.25814 0.10436 0.09170
 N987 N 0.27385 0.10159 0.07609
 N988 N 0.27230 0.08521 0.06157
 C989 C 0.25501 0.07093 0.06211
 N990 N 0.23929 0.07402 0.07779
 C991 C 0.25991 0.12153 0.10781
 C992 C 0.26088 0.13560 0.12176
 C993 C 0.26147 0.15202 0.13872
 N994 N 0.26123 0.14600 0.16022
 N995 N 0.26103 0.16120 0.17602
 C996 C 0.26103 0.18295 0.17084
 N997 N 0.26131 0.18893 0.14928
 N998 N 0.26151 0.17372 0.13348
 N999 N 0.74218 0.59165 0.58969
 C1000 C 0.76011 0.60487 0.58957
 N1001 N 0.77618 0.60130 0.57448
 N1002 N 0.77438 0.58489 0.56002
 C1003 C 0.75646 0.57149 0.56016
 N1004 N 0.74039 0.57527 0.57526
 C1005 C 0.76216 0.62198 0.60567
 C1006 C 0.76332 0.63601 0.61963
 C1007 C 0.76409 0.65236 0.63662
 N1008 N 0.76386 0.64626 0.65809
 N1009 N 0.76374 0.66142 0.67394
 C1010 C 0.76380 0.68318 0.66881
 N1011 N 0.76409 0.68922 0.64727
 N1012 N 0.76420 0.67406 0.63143
 N1013 N 0.72946 0.91776 0.10526
 C1014 C 0.74608 0.90340 0.10946
 N1015 N 0.76342 0.90249 0.09549
 N1016 N 0.76414 0.91547 0.07784
 C1017 C 0.74753 0.92987 0.07339
 N1018 N 0.73019 0.93077 0.08758
 C1019 C 0.74507 0.88864 0.12789
 C1020 C 0.74472 0.87558 0.14284
 C1021 C 0.74481 0.85928 0.15996
 N1022 N 0.74489 0.83762 0.15465
 N1023 N 0.74568 0.82232 0.17035
 C1024 C 0.74646 0.82815 0.19192
 N1025 N 0.74634 0.84989 0.19721
 N1026 N 0.74555 0.86520 0.18148
 N1027 N 0.22852 0.41968 0.60775
 C1028 C 0.24545 0.40585 0.61242
 N1029 N 0.26311 0.40528 0.59882
 N1030 N 0.26383 0.41811 0.58106
 C1031 C 0.24690 0.43197 0.57619
 N1032 N 0.22925 0.43254 0.58996
 C1033 C 0.24443 0.39116 0.63090
 C1034 C 0.24407 0.37814 0.64588
 C1035 C 0.24417 0.36187 0.66301
 N1036 N 0.24428 0.34021 0.65771
 N1037 N 0.24510 0.32493 0.67342
 C1038 C 0.24587 0.33078 0.69498
 N1039 N 0.24571 0.35252 0.70026
 N1040 N 0.24490 0.36782 0.68452
 N1041 N 0.76676 0.09654 0.90604
 C1042 C 0.74931 0.09837 0.89223
 N1043 N 0.73293 0.08326 0.89336
 N1044 N 0.73389 0.06692 0.90801
 C1045 C 0.75131 0.06508 0.92201
 N1046 N 0.76771 0.08023 0.92066
 C1047 C 0.74832 0.11612 0.87664
 C1048 C 0.74788 0.13103 0.86353
 C1049 C 0.74777 0.14853 0.84763
 N1050 N 0.74798 0.16990 0.85411
 N1051 N 0.74843 0.18605 0.83921
 C1052 C 0.74872 0.18132 0.81735
 N1053 N 0.74848 0.15989 0.81098
 N1054 N 0.74803 0.14378 0.82584
 N1055 N 0.23209 0.58375 0.39361
 C1056 C 0.24862 0.59867 0.39210
 N1057 N 0.26624 0.59678 0.40566
 N1058 N 0.26724 0.58059 0.42042
 C1059 C 0.25069 0.56563 0.42214
 N1060 N 0.23309 0.56753 0.40839
 C1061 C 0.24755 0.61632 0.37643
 C1062 C 0.24707 0.63118 0.36327
 C1063 C 0.24693 0.64864 0.34735
 N1064 N 0.24721 0.64387 0.32558
 N1065 N 0.24765 0.65997 0.31070
 C1066 C 0.24785 0.68140 0.31705
 N1067 N 0.24754 0.68616 0.33891
 N1068 N 0.24710 0.67002 0.35381
 N1069 N 0.22929 0.90286 0.89683
 C1070 C 0.24618 0.88830 0.89581
 N1071 N 0.26315 0.89024 0.91023
 N1072 N 0.26325 0.90633 0.92515
 C1073 C 0.24637 0.92105 0.92620
 N1074 N 0.22940 0.91893 0.91174
 C1075 C 0.24614 0.87128 0.87940
 C1076 C 0.24578 0.85719 0.86542
 C1077 C 0.24502 0.84051 0.84869
 N1078 N 0.24445 0.81892 0.85431
 N1079 N 0.24338 0.80345 0.83881
 C1080 C 0.24282 0.80903 0.81714
 N1081 N 0.24341 0.83068 0.81156
 N1082 N 0.24448 0.84616 0.82708
 N1083 N 0.72819 0.40005 0.39633
 C1084 C 0.74512 0.38554 0.39516
 N1085 N 0.76226 0.38760 0.40935
 N1086 N 0.76250 0.40377 0.42418
 C1087 C 0.74559 0.41845 0.42537
 N1088 N 0.72843 0.41619 0.41114
 C1089 C 0.74496 0.36850 0.37881
 C1090 C 0.74450 0.35439 0.36487
 C1091 C 0.74364 0.33771 0.34817
 N1092 N 0.74304 0.31613 0.35383
 N1093 N 0.74189 0.30065 0.33835
 C1094 C 0.74127 0.30621 0.31668
 N1095 N 0.74189 0.32785 0.31107
 N1096 N 0.74304 0.34334 0.32656
 N1097 N 0.10497 0.27006 0.08226
 C1098 C 0.10888 0.25345 0.09668
 N1099 N 0.09475 0.23624 0.09746
 N1100 N 0.07722 0.23566 0.08429
 C1101 C 0.07306 0.25226 0.06981
 N1102 N 0.08740 0.26945 0.06906
 C1103 C 0.12725 0.25429 0.11158
 C1104 C 0.14221 0.25455 0.12468
 C1105 C 0.15941 0.25440 0.14094
 N1106 N 0.15421 0.25406 0.16263
 N1107 N 0.17001 0.25333 0.17786
 C1108 C 0.19157 0.25289 0.17192
 N1109 N 0.19675 0.25327 0.15016
 N1110 N 0.18092 0.25399 0.13491
 N1111 N 0.60744 0.77068 0.58096
 C1112 C 0.61175 0.75383 0.59499
 N1113 N 0.59790 0.73638 0.59553
 N1114 N 0.58026 0.73579 0.58250
 C1115 C 0.57575 0.75264 0.56845
 N1116 N 0.58976 0.77008 0.56791
 C1117 C 0.63017 0.75469 0.60979
 C1118 C 0.64515 0.75496 0.62285
 C1119 C 0.66235 0.75480 0.63909
 N1120 N 0.65716 0.75445 0.66078
 N1121 N 0.67296 0.75368 0.67600
 C1122 C 0.69451 0.75319 0.67005
 N1123 N 0.69969 0.75358 0.64829
 N1124 N 0.68386 0.75435 0.63305
 N1125 N 0.07740 0.76148 0.89718
 C1126 C 0.09207 0.74470 0.89569
 N1127 N 0.09148 0.72835 0.91083
 N1128 N 0.07675 0.72881 0.92705
 C1129 C 0.06203 0.74563 0.92881
 N1130 N 0.06264 0.76193 0.91342
 C1131 C 0.10846 0.74441 0.87867
 C1132 C 0.12251 0.74393 0.86468
 C1133 C 0.13946 0.74318 0.84824
 N1134 N 0.13416 0.74284 0.82656
 N1135 N 0.14992 0.74214 0.81131
 C1136 C 0.17151 0.74173 0.81724
 N1137 N 0.17676 0.74205 0.83898
 N1138 N 0.16100 0.74274 0.85422
 N1139 N 0.58957 0.22649 0.41044
 C1140 C 0.59067 0.24306 0.39556
 N1141 N 0.57662 0.26034 0.39741
 N1142 N 0.56197 0.26105 0.41374
 C1143 C 0.56087 0.24451 0.42880
 N1144 N 0.57495 0.22721 0.42675
 C1145 C 0.60698 0.24251 0.37850
 C1146 C 0.62100 0.24182 0.36447
 C1147 C 0.63791 0.24086 0.34802
 N1148 N 0.65944 0.24036 0.35398
 N1149 N 0.67518 0.23951 0.33872
 C1150 C 0.66990 0.23909 0.31699
 N1151 N 0.64830 0.23955 0.31109
 N1152 N 0.63257 0.24040 0.32635
 N1153 N 0.91138 0.77232 0.10867
 C1154 C 0.89608 0.75631 0.11144
 N1155 N 0.89601 0.73888 0.09755
 N1156 N 0.91068 0.73755 0.08133
 C1157 C 0.92604 0.75356 0.07831
 N1158 N 0.92608 0.77097 0.09242
 C1159 C 0.87988 0.75784 0.12860
 C1160 C 0.86599 0.75876 0.14278
 C1161 C 0.84927 0.75951 0.15949
 N1162 N 0.85490 0.75984 0.18110
 N1163 N 0.83937 0.76016 0.19659
 C1164 C 0.81768 0.76013 0.19101
 N1165 N 0.81210 0.75981 0.16935
 N1166 N 0.82764 0.75948 0.15385
 N1167 N 0.41061 0.27417 0.61140
 C1168 C 0.39558 0.25801 0.61468
 N1169 N 0.39572 0.24019 0.60130
 N1170 N 0.41036 0.23862 0.58506
 C1171 C 0.42543 0.25477 0.58158
 N1172 N 0.42527 0.27259 0.59513
 C1173 C 0.37939 0.25979 0.63182
 C1174 C 0.36551 0.26090 0.64599
 C1175 C 0.34879 0.26184 0.66268
 N1176 N 0.35440 0.26227 0.68428
 N1177 N 0.33886 0.26271 0.69976
 C1178 C 0.31718 0.26271 0.69417
 N1179 N 0.31161 0.26230 0.67250
 N1180 N 0.32716 0.26185 0.65702
 N1181 N 0.90659 0.23485 0.90297
 C1182 C 0.89239 0.25201 0.90171
 N1183 N 0.89335 0.26805 0.91719
 N1184 N 0.90823 0.26702 0.93335
 C1185 C 0.92268 0.24991 0.93465
 N1186 N 0.92144 0.23384 0.91909
 C1187 C 0.87660 0.25309 0.88410
 C1188 C 0.86338 0.25356 0.86926
 C1189 C 0.84745 0.25367 0.85176
 N1190 N 0.82564 0.25358 0.85647
 N1191 N 0.81078 0.25305 0.84034
 C1192 C 0.81718 0.25255 0.81892
 N1193 N 0.83906 0.25269 0.81422
 N1194 N 0.85395 0.25322 0.83038
 N1195 N 0.40509 0.73467 0.40302
 C1196 C 0.39150 0.75229 0.40128
 N1197 N 0.39314 0.76878 0.41622
 N1198 N 0.40807 0.76775 0.43232
 C1199 C 0.42185 0.75016 0.43408
 N1200 N 0.41999 0.73365 0.41909
 C1201 C 0.37569 0.75338 0.38371
 C1202 C 0.36246 0.75385 0.36890
 C1203 C 0.34652 0.75394 0.35142
 N1204 N 0.32472 0.75380 0.35616
 N1205 N 0.30984 0.75322 0.34005
 C1206 C 0.31623 0.75273 0.31862
 N1207 N 0.33810 0.75292 0.31390
 N1208 N 0.35300 0.75350 0.33005
 N1209 N 0.09751 0.10262 0.22867
 C1210 C 0.11212 0.10384 0.24550
 N1211 N 0.11026 0.08960 0.26260
 N1212 N 0.09419 0.07466 0.26289
 C1213 C 0.07941 0.07342 0.24609
 N1214 N 0.08146 0.08771 0.22898
 C1215 C 0.12908 0.12030 0.24527
 C1216 C 0.14313 0.13431 0.24477
 C1217 C 0.15974 0.15109 0.24391
 N1218 N 0.15399 0.17268 0.24352
 N1219 N 0.16940 0.18825 0.24244
 C1220 C 0.19109 0.18275 0.24168
 N1221 N 0.19678 0.16111 0.24207
 N1222 N 0.18137 0.14555 0.24315
 N1223 N 0.59973 0.60334 0.72731
 C1224 C 0.61444 0.60451 0.74405
 N1225 N 0.61252 0.59040 0.76125
 N1226 N 0.59628 0.57564 0.76173
 C1227 C 0.58140 0.57446 0.74502
 N1228 N 0.58352 0.58860 0.72779
 C1229 C 0.63154 0.62081 0.74365
 C1230 C 0.64568 0.63473 0.74304
 C1231 C 0.66236 0.65143 0.74206
 N1232 N 0.65670 0.67303 0.74169
 N1233 N 0.67218 0.68854 0.74054
 C1234 C 0.69384 0.68295 0.73971
 N1235 N 0.69944 0.66128 0.74008
 N1236 N 0.68396 0.64579 0.74123
 N1237 N 0.90424 0.09426 0.76690
 C1238 C 0.90295 0.10850 0.74979
 N1239 N 0.91831 0.10744 0.73362
 N1240 N 0.93435 0.09245 0.73447
 C1241 C 0.93567 0.07795 0.75153
 N1242 N 0.92026 0.07928 0.76774
 C1243 C 0.88540 0.12434 0.74883
 C1244 C 0.87056 0.13756 0.74840
 C1245 C 0.85301 0.15342 0.74827
 N1246 N 0.85766 0.17523 0.74833
 N1247 N 0.84145 0.19003 0.74868
 C1248 C 0.82004 0.18356 0.74901
 N1249 N 0.81542 0.16168 0.74892
 N1250 N 0.83165 0.14686 0.74857
 N1251 N 0.40404 0.59531 0.26701
 C1252 C 0.40216 0.60886 0.24940
 N1253 N 0.41690 0.60711 0.23273
 N1254 N 0.43294 0.59211 0.23359
 C1255 C 0.43483 0.57836 0.25117
 N1256 N 0.42005 0.58033 0.26786
 C1257 C 0.38459 0.62466 0.24843
 C1258 C 0.36974 0.63785 0.24799
 C1259 C 0.35218 0.65368 0.24787
 N1260 N 0.35680 0.67548 0.24796
 N1261 N 0.34058 0.69026 0.24834
 C1262 C 0.31918 0.68375 0.24868
 N1263 N 0.31458 0.66188 0.24856
 N1264 N 0.33083 0.64708 0.24818
 N1265 N 0.08276 0.89553 0.72945
 C1266 C 0.09736 0.89160 0.74592
 N1267 N 0.09828 0.90567 0.76317
 N1268 N 0.08507 0.92316 0.76394
 C1269 C 0.07042 0.92734 0.74747
 N1270 N 0.06953 0.91306 0.73023
 C1271 C 0.11224 0.87325 0.74492
 C1272 C 0.12532 0.85829 0.74457
 C1273 C 0.14151 0.84104 0.74466
 N1274 N 0.13537 0.81959 0.74533
 N1275 N 0.15054 0.80371 0.74611
 C1276 C 0.17235 0.80876 0.74630
 N1277 N 0.17840 0.83026 0.74558
 N1278 N 0.16324 0.84612 0.74479
 N1279 N 0.59614 0.40219 0.26298
 C1280 C 0.59561 0.38849 0.24541
 N1281 N 0.58148 0.39283 0.22864
 N1282 N 0.56831 0.41041 0.22943
 C1283 C 0.56884 0.42427 0.24700
 N1284 N 0.58299 0.41973 0.26376
 C1285 C 0.61049 0.37016 0.24437
 C1286 C 0.62358 0.35522 0.24401
 C1287 C 0.63978 0.33801 0.24412
 N1288 N 0.66151 0.34313 0.24425
 N1289 N 0.67669 0.32730 0.24508
 C1290 C 0.67066 0.30580 0.24585
 N1291 N 0.64887 0.30071 0.24567
 N1292 N 0.63367 0.31656 0.24485
 N1293 N 0.89844 0.92307 0.27508
 C1294 C 0.89566 0.90751 0.25934
 N1295 N 0.90957 0.90705 0.24193
 N1296 N 0.92584 0.92162 0.24036
 C1297 C 0.92890 0.93723 0.25611
 N1298 N 0.91476 0.93767 0.27349
 C1299 C 0.87857 0.89135 0.26112
 C1300 C 0.86454 0.87736 0.26204
 C1301 C 0.84815 0.86039 0.26252
 N1302 N 0.82643 0.86561 0.26249
 N1303 N 0.81124 0.84980 0.26211
 C1304 C 0.81727 0.82826 0.26169
 N1305 N 0.83905 0.82310 0.26177
 N1306 N 0.85423 0.83891 0.26216
 N1307 N 0.40834 0.40997 0.74326
 C1308 C 0.39512 0.41014 0.76119
 N1309 N 0.39865 0.42529 0.77719
 N1310 N 0.41504 0.43978 0.77532
 C1311 C 0.42844 0.43960 0.75739
 N1312 N 0.42469 0.42442 0.74140
 C1313 C 0.37800 0.39405 0.76328
 C1314 C 0.36396 0.38010 0.76444
 C1315 C 0.34757 0.36314 0.76516
 N1316 N 0.32585 0.36837 0.76517
 N1317 N 0.31065 0.35256 0.76493
 C1318 C 0.31668 0.33101 0.76463
 N1319 N 0.33846 0.32585 0.76467
 N1320 N 0.35364 0.34166 0.76491
 N1321 N 0.08890 0.27207 0.91023
 C1322 C 0.10387 0.25555 0.90968
 N1323 N 0.10209 0.23871 0.92423
 N1324 N 0.08571 0.23838 0.93883
 C1325 C 0.07049 0.25485 0.93940
 N1326 N 0.07255 0.27173 0.92481
 C1327 C 0.12099 0.25571 0.89345
 C1328 C 0.13504 0.25618 0.87947
 C1329 C 0.15150 0.25706 0.86260
 N1330 N 0.14555 0.25748 0.84108
 N1331 N 0.16082 0.25858 0.82537
 C1332 C 0.18254 0.25933 0.83069
 N1333 N 0.18844 0.25890 0.85227
 N1334 N 0.17317 0.25780 0.86797
 N1335 N 0.60265 0.73694 0.42138
 C1336 C 0.60470 0.75389 0.40698
 N1337 N 0.59016 0.77078 0.40788
 N1338 N 0.57397 0.77071 0.42264
 C1339 C 0.57171 0.75375 0.43707
 N1340 N 0.58643 0.73688 0.43616
 C1341 C 0.62169 0.75382 0.39060
 C1342 C 0.63567 0.75411 0.37655
 C1343 C 0.65211 0.75478 0.35963
 N1344 N 0.67379 0.75541 0.36496
 N1345 N 0.68904 0.75636 0.34924
 C1346 C 0.68312 0.75677 0.32766
 N1347 N 0.66138 0.75614 0.32238
 N1348 N 0.64613 0.75518 0.33812
 N1349 N 0.91990 0.73131 0.89220
 C1350 C 0.90565 0.74803 0.88813
 N1351 N 0.90475 0.76521 0.90229
 N1352 N 0.91765 0.76565 0.92003
 C1353 C 0.93193 0.74891 0.92436
 N1354 N 0.93283 0.73176 0.90997
 C1355 C 0.89090 0.74725 0.86969
 C1356 C 0.87784 0.74700 0.85474
 C1357 C 0.86153 0.74707 0.83763
 N1358 N 0.83985 0.74722 0.84293
 N1359 N 0.82455 0.74770 0.82721
 C1360 C 0.83040 0.74808 0.80565
 N1361 N 0.85215 0.74792 0.80037
 N1362 N 0.86748 0.74745 0.81612
 N1363 N 0.41679 0.23104 0.39421
 C1364 C 0.40306 0.24814 0.38988
 N1365 N 0.40288 0.26566 0.40366
 N1366 N 0.41598 0.26607 0.42125
 C1367 C 0.42973 0.24897 0.42577
 N1368 N 0.42992 0.23146 0.41182
 C1369 C 0.38814 0.24744 0.37156
 C1370 C 0.37499 0.24723 0.35667
 C1371 C 0.35866 0.24734 0.33957
 N1372 N 0.33698 0.24752 0.34488
 N1373 N 0.32167 0.24799 0.32916
 C1374 C 0.32750 0.24832 0.30759
 N1375 N 0.34925 0.24814 0.30230
 N1376 N 0.36459 0.24767 0.31805
 N1377 N 0.09588 0.76841 0.09416
 C1378 C 0.09796 0.75087 0.10778
 N1379 N 0.08331 0.73411 0.10621
 N1380 N 0.06716 0.73481 0.09132
 C1381 C 0.06507 0.75232 0.07751
 N1382 N 0.07976 0.76910 0.07929
 C1383 C 0.11560 0.75006 0.12349
 C1384 C 0.13046 0.74970 0.13665
 C1385 C 0.14795 0.74954 0.15254
 N1386 N 0.14322 0.74930 0.17433
 N1387 N 0.15936 0.74944 0.18919
 C1388 C 0.18079 0.74985 0.18279
 N1389 N 0.18551 0.75009 0.16093
 N1390 N 0.16934 0.74995 0.14605
 N1391 N 0.59654 0.26831 0.59448
 C1392 C 0.59853 0.25093 0.60831
 N1393 N 0.58365 0.23434 0.60712
 N1394 N 0.56737 0.23505 0.59237
 C1395 C 0.56535 0.25240 0.57835
 N1396 N 0.58028 0.26901 0.57976
 C1397 C 0.61628 0.25014 0.62392
 C1398 C 0.63121 0.24977 0.63702
 C1399 C 0.64875 0.24959 0.65288
 N1400 N 0.64406 0.24938 0.67468
 N1401 N 0.66022 0.24949 0.68951
 C1402 C 0.68165 0.24985 0.68308
 N1403 N 0.68633 0.25007 0.66121
 N1404 N 0.67012 0.24996 0.64635
 N1405 N 0.89877 0.25864 0.10382
 C1406 C 0.88560 0.24067 0.10378
 N1407 N 0.88902 0.22473 0.08853
 N1408 N 0.90522 0.22668 0.07385
 C1409 C 0.91857 0.24465 0.07389
 N1410 N 0.91495 0.26058 0.08917
 C1411 C 0.86852 0.23854 0.11995
 C1412 C 0.85439 0.23723 0.13383
 C1413 C 0.83773 0.23620 0.15054
 N1414 N 0.84341 0.23623 0.17215
 N1415 N 0.82793 0.23599 0.18770
 C1416 C 0.80624 0.23577 0.18214
 N1417 N 0.80063 0.23568 0.16048
 N1418 N 0.81611 0.23591 0.14494
 N1419 N 0.40071 0.76044 0.60387
 C1420 C 0.38729 0.74265 0.60396
 N1421 N 0.39040 0.72661 0.58876
 N1422 N 0.40654 0.72830 0.57397
 C1423 C 0.42012 0.74608 0.57385
 N1424 N 0.41681 0.76211 0.58910
 C1425 C 0.37025 0.74081 0.62022
 C1426 C 0.35614 0.73971 0.63414
 C1427 C 0.33947 0.73889 0.65086
 N1428 N 0.34515 0.73896 0.67247
 N1429 N 0.32966 0.73884 0.68802
 C1430 C 0.30798 0.73868 0.68247
 N1431 N 0.30236 0.73856 0.66080
 N1432 N 0.31785 0.73868 0.64526
 N1433 N 0.26522 0.09728 0.90378
 C1434 C 0.24856 0.11207 0.90512
 N1435 N 0.23229 0.10881 0.92005
 N1436 N 0.23268 0.09122 0.93321
 C1437 C 0.24932 0.07626 0.93186
 N1438 N 0.26559 0.07972 0.91691
 C1439 C 0.24784 0.13040 0.89024
 C1440 C 0.24759 0.14532 0.87714
 C1441 C 0.24763 0.16247 0.86090
 N1442 N 0.24813 0.18395 0.86693
 N1443 N 0.24856 0.19976 0.85170
 C1444 C 0.24855 0.19459 0.82993
 N1445 N 0.24803 0.17305 0.82398
 N1446 N 0.24760 0.15727 0.83920
 N1447 N 0.73276 0.60634 0.41725
 C1448 C 0.74883 0.60923 0.40203
 N1449 N 0.76523 0.59417 0.40053
 N1450 N 0.76555 0.57671 0.41380
 C1451 C 0.74947 0.57362 0.42905
 N1452 N 0.73309 0.58885 0.43054
 C1453 C 0.74820 0.62753 0.38708
 C1454 C 0.74801 0.64243 0.37395
 C1455 C 0.74811 0.65961 0.35771
 N1456 N 0.74809 0.65444 0.33601
 N1457 N 0.74854 0.67024 0.32080
 C1458 C 0.74906 0.69177 0.32678
 N1459 N 0.74906 0.69692 0.34855
 N1460 N 0.74862 0.68109 0.36377
 N1461 N 0.72750 0.08861 0.09015
 C1462 C 0.74424 0.08958 0.10487
 N1463 N 0.76145 0.07548 0.10282
 N1464 N 0.76193 0.06089 0.08643
 C1465 C 0.74523 0.05992 0.07153
 N1466 N 0.72799 0.07405 0.07379
 C1467 C 0.74396 0.10588 0.12192
 C1468 C 0.74342 0.11993 0.13589
 C1469 C 0.74252 0.13693 0.15221
 N1470 N 0.74149 0.13176 0.17390
 N1471 N 0.74046 0.14760 0.18902
 C1472 C 0.74038 0.16913 0.18295
 N1473 N 0.74141 0.17424 0.16121
 N1474 N 0.74244 0.15840 0.14609
 N1475 N 0.22858 0.59175 0.59006
 C1476 C 0.24527 0.59255 0.60484
 N1477 N 0.26223 0.57812 0.60296
 N1478 N 0.26251 0.56339 0.58669
 C1479 C 0.24584 0.56258 0.57173
 N1480 N 0.22886 0.57705 0.57382
 C1481 C 0.24515 0.60891 0.62186
 C1482 C 0.24474 0.62298 0.63584
 C1483 C 0.24397 0.63997 0.65222
 N1484 N 0.24300 0.63477 0.67390
 N1485 N 0.24206 0.65058 0.68906
 C1486 C 0.24202 0.67213 0.68305
 N1487 N 0.24299 0.67728 0.66131
 N1488 N 0.24393 0.66146 0.64615
 N1489 N 0.74222 0.89438 0.89946
 C1490 C 0.76025 0.89431 0.88635
 N1491 N 0.77619 0.90957 0.88969
 N1492 N 0.77418 0.92438 0.90577
 C1493 C 0.75615 0.92447 0.91905
 N1494 N 0.74022 0.90917 0.91551
 C1495 C 0.76239 0.87807 0.86933
 C1496 C 0.76369 0.86420 0.85520
 C1497 C 0.76467 0.84757 0.83845
 N1498 N 0.76442 0.82593 0.84397
 N1499 N 0.76455 0.81049 0.82839
 C1500 C 0.76490 0.81618 0.80676
 N1501 N 0.76522 0.83787 0.80131
 N1502 N 0.76509 0.85330 0.81688
 N1503 N 0.24025 0.39489 0.40150
 C1504 C 0.25806 0.39473 0.38808
 N1505 N 0.27406 0.41000 0.39108
 N1506 N 0.27233 0.42491 0.40710
 C1507 C 0.25452 0.42510 0.42068
 N1508 N 0.23853 0.40978 0.41749
 C1509 C 0.25991 0.37840 0.37108
 C1510 C 0.26100 0.36448 0.35696
 C1511 C 0.26181 0.34780 0.34022
 N1512 N 0.26156 0.32617 0.34577
 N1513 N 0.26162 0.31070 0.33021
 C1514 C 0.26190 0.31635 0.30857
 N1515 N 0.26220 0.33803 0.30308
 N1516 N 0.26214 0.35349 0.31864
 N1517 N 0.23068 0.89482 0.08465
 C1518 C 0.24783 0.89204 0.09874
 N1519 N 0.26613 0.90450 0.09617
 N1520 N 0.26720 0.91940 0.08013
 C1521 C 0.25006 0.92240 0.06600
 N1522 N 0.23177 0.90975 0.06859
 C1523 C 0.24669 0.87625 0.11627
 C1524 C 0.24619 0.86301 0.13106
 C1525 C 0.24604 0.84706 0.14849
 N1526 N 0.24615 0.82529 0.14370
 N1527 N 0.24656 0.81039 0.15978
 C1528 C 0.24693 0.81673 0.18122
 N1529 N 0.24678 0.83858 0.18600
 N1530 N 0.24637 0.85350 0.16988
 N1531 N 0.73123 0.39416 0.58445
 C1532 C 0.74843 0.39157 0.59849
 N1533 N 0.76671 0.40401 0.59569
 N1534 N 0.76770 0.41872 0.57946
 C1535 C 0.75050 0.42152 0.56537
 N1536 N 0.73223 0.40890 0.56819
 C1537 C 0.74742 0.37591 0.61618
 C1538 C 0.74700 0.36276 0.63106
 C1539 C 0.74693 0.34686 0.64856
 N1540 N 0.74704 0.32507 0.64383
 N1541 N 0.74749 0.31022 0.65996
 C1542 C 0.74789 0.31661 0.68138
 N1543 N 0.74774 0.33847 0.68610
 N1544 N 0.74730 0.35335 0.66993
 N1545 N 0.10483 0.10097 0.74097
 C1546 C 0.10500 0.11418 0.75893
 N1547 N 0.08987 0.11087 0.77500
 N1548 N 0.07508 0.09476 0.77320
 C1549 C 0.07489 0.08138 0.75525
 N1550 N 0.09006 0.08488 0.73918
 C1551 C 0.12126 0.13121 0.76089
 C1552 C 0.13515 0.14533 0.76209
 C1553 C 0.15182 0.16204 0.76304
 N1554 N 0.14612 0.18362 0.76330
 N1555 N 0.16159 0.19915 0.76355
 C1556 C 0.18330 0.19364 0.76350
 N1557 N 0.18895 0.17200 0.76328
 N1558 N 0.17347 0.15647 0.76303
 N1559 N 0.60474 0.59839 0.23913
 C1560 C 0.60511 0.61179 0.25693
 N1561 N 0.59002 0.60880 0.27311
 N1562 N 0.57508 0.59280 0.27156
 C1563 C 0.57468 0.57923 0.25376
 N1564 N 0.58982 0.58241 0.23759
 C1565 C 0.62149 0.62874 0.25862
 C1566 C 0.63546 0.64280 0.25961
 C1567 C 0.65218 0.65948 0.26034
 N1568 N 0.64653 0.68108 0.26056
 N1569 N 0.66204 0.69657 0.26067
 C1570 C 0.68373 0.69102 0.26052
 N1571 N 0.68934 0.66936 0.26034
 N1572 N 0.67382 0.65386 0.26023
 N1573 N 0.10402 0.91459 0.23199
 C1574 C 0.10634 0.90029 0.24900
 N1575 N 0.09369 0.90289 0.26715
 N1576 N 0.07900 0.91916 0.26820
 C1577 C 0.07639 0.93351 0.25117
 N1578 N 0.08930 0.93088 0.23305
 C1579 C 0.12198 0.88259 0.24792
 C1580 C 0.13516 0.86774 0.24745
 C1581 C 0.15118 0.85035 0.24729
 N1582 N 0.14486 0.82894 0.24779
 N1583 N 0.15988 0.81289 0.24814
 C1584 C 0.18172 0.81777 0.24805
 N1585 N 0.18794 0.83923 0.24753
 N1586 N 0.17294 0.85524 0.24717
 N1587 N 0.59529 0.40373 0.76733
 C1588 C 0.60755 0.40064 0.74898
 N1589 N 0.60496 0.41457 0.73170
 N1590 N 0.59039 0.43099 0.73270
 C1591 C 0.57794 0.43411 0.75105
 N1592 N 0.58074 0.42013 0.76832
 C1593 C 0.62310 0.38283 0.74799
 C1594 C 0.63624 0.36792 0.74758
 C1595 C 0.65224 0.35049 0.74749
 N1596 N 0.67401 0.35533 0.74739
 N1597 N 0.68898 0.33930 0.74776
 C1598 C 0.68272 0.31784 0.74830
 N1599 N 0.66087 0.31300 0.74837
 N1600 N 0.64587 0.32908 0.74800
 N1601 N 0.90250 0.09526 0.26621
 C1602 C 0.88766 0.09383 0.24960
 N1603 N 0.89102 0.07897 0.23329
 N1604 N 0.90875 0.06597 0.23359
 C1605 C 0.92376 0.06741 0.25018
 N1606 N 0.92019 0.08229 0.26649
 C1607 C 0.86925 0.10865 0.24891
 C1608 C 0.85433 0.12177 0.24864
 C1609 C 0.83728 0.13815 0.24862
 N1610 N 0.84267 0.15978 0.24842
 N1611 N 0.82701 0.17515 0.24871
 C1612 C 0.80540 0.16942 0.24924
 N1613 N 0.80003 0.14771 0.24942
 N1614 N 0.81572 0.13232 0.24914
 N1615 N 0.40469 0.59845 0.76594
 C1616 C 0.38957 0.59680 0.74960
 N1617 N 0.39260 0.58163 0.73351
 N1618 N 0.41026 0.56854 0.73376
 C1619 C 0.42555 0.57019 0.75007
 N1620 N 0.42232 0.58539 0.76617
 C1621 C 0.37115 0.61165 0.74899
 C1622 C 0.35622 0.62476 0.74878
 C1623 C 0.33912 0.64112 0.74880
 N1624 N 0.34447 0.66277 0.74869
 N1625 N 0.32878 0.67811 0.74900
 C1626 C 0.30718 0.67235 0.74947
 N1627 N 0.30185 0.65062 0.74957
 N1628 N 0.31757 0.63526 0.74926
 N1629 N 0.91056 0.91008 0.72862
 C1630 C 0.90976 0.89537 0.74536
 N1631 N 0.92404 0.89745 0.76242
 N1632 N 0.93862 0.91384 0.76275
 C1633 C 0.93942 0.92873 0.74603
 N1634 N 0.92511 0.92644 0.72895
 C1635 C 0.89352 0.87825 0.74520
 C1636 C 0.87953 0.86421 0.74471
 C1637 C 0.86260 0.84780 0.74382
 N1638 N 0.84107 0.85381 0.74356
 N1639 N 0.82531 0.83861 0.74242
 C1640 C 0.83056 0.81690 0.74145
 N1641 N 0.85214 0.81094 0.74172
 N1642 N 0.86790 0.82614 0.74286
 N1643 N 0.42154 0.39722 0.26321
 C1644 C 0.40701 0.39530 0.24634
 N1645 N 0.40776 0.41000 0.22959
 N1646 N 0.42251 0.42620 0.22973
 C1647 C 0.43708 0.42831 0.24661
 N1648 N 0.43632 0.41344 0.26334
 C1649 C 0.39064 0.37830 0.24635
 C1650 C 0.37658 0.36432 0.24600
 C1651 C 0.35962 0.34791 0.24525
 N1652 N 0.33809 0.35393 0.24502
 N1653 N 0.32232 0.33873 0.24399
 C1654 C 0.32756 0.31700 0.24312
 N1655 N 0.34915 0.31105 0.24337
 N1656 N 0.36491 0.32625 0.24439
   
