data_POSCAR
  _audit_creation_date              2014-09-24
  _audit_creation_method            'ToBaCCo'
  _symmetry_space_group_name_H-M    'P1'
  _symmetry_Int_Tables_number       1
  _symmetry_cell_setting            triclinic
  loop_
  _symmetry_equiv_pos_as_xyz
 x,y,z
_cell_length_a 57.8577
_cell_length_b 57.9601
_cell_length_c 57.6722
_cell_angle_alpha 89.998300
_cell_angle_beta 89.946600
_cell_angle_gamma 90.028800
loop_
  _atom_site_label
  _atom_site_type_symbol
  _atom_site_fract_x
  _atom_site_fract_y
  _atom_site_fract_z
C1 C 0.36581 0.26792 -0.00888
 C2 C 0.36657 0.26856 0.01485
 C3 C 0.35860 0.29013 0.02133
 N4 N 0.35314 0.30279 0.00240
 C5 C 0.35783 0.28932 -0.01614
 C6 C 0.35823 0.29852 0.04428
 C7 C 0.34540 0.31817 0.05074
 C8 C 0.34772 0.33004 0.07149
 C9 C 0.33098 0.34691 0.07159
 C10 C 0.31896 0.34482 0.05091
 N11 N 0.32784 0.32726 0.03833
 C12 C 0.29937 0.35784 0.04465
 C13 C 0.29081 0.35840 0.02177
 C14 C 0.26922 0.36658 0.01551
 C15 C 0.26842 0.36598 -0.00822
 C16 C 0.28974 0.35788 -0.01569
 N17 N 0.30332 0.35296 0.00271
 C18 C 0.29709 0.35661 -0.03911
 C19 C 0.31649 0.34305 -0.04556
 C20 C 0.32953 0.34624 -0.06551
 C21 C 0.34623 0.32943 -0.06562
 C22 C 0.34303 0.31633 -0.04573
 N23 N 0.32502 0.32494 -0.03342
 C24 C 0.35648 0.29681 -0.03950
 H25 H 0.37079 0.25341 -0.01958
 H26 H 0.37234 0.25475 0.02608
 H27 H 0.31774 0.31764 -0.01859
 H28 H 0.36004 0.32676 0.08521
 H29 H 0.32788 0.35917 0.08541
 H30 H 0.25552 0.37240 0.02689
 H31 H 0.25386 0.37114 -0.01878
 H32 H 0.35952 0.32740 -0.07868
 H33 H 0.32069 0.32028 0.02333
 H34 H 0.32754 0.35959 -0.07847
 C35 C 0.71295 0.61480 0.01145
 C36 C 0.71269 0.61479 -0.01233
 C37 C 0.70299 0.63559 -0.01908
 N38 N 0.69736 0.64831 -0.00029
 C39 C 0.70340 0.63561 0.01840
 C40 C 0.70108 0.64333 -0.04218
 C41 C 0.68820 0.66304 -0.04847
 C42 C 0.69049 0.67470 -0.06931
 C43 C 0.67414 0.69189 -0.06929
 C44 C 0.66202 0.69004 -0.04857
 N45 N 0.67088 0.67252 -0.03586
 C46 C 0.64274 0.70382 -0.04220
 C47 C 0.63549 0.70569 -0.01874
 C48 C 0.61416 0.71393 -0.01143
 C49 C 0.61455 0.71399 0.01232
 C50 C 0.63592 0.70541 0.01879
 N51 N 0.64872 0.70030 -0.00018
 C52 C 0.64369 0.70354 0.04191
 C53 C 0.66299 0.69009 0.04826
 C54 C 0.67396 0.69095 0.06961
 C55 C 0.69036 0.67376 0.06954
 C56 C 0.68892 0.66292 0.04816
 N57 N 0.67221 0.67299 0.03529
 C58 C 0.70173 0.64324 0.04159
 H59 H 0.71954 0.60112 0.02236
 H60 H 0.71907 0.60111 -0.02338
 H61 H 0.66554 0.66680 0.01976
 H62 H 0.70273 0.67122 -0.08308
 H63 H 0.67150 0.70433 -0.08303
 H64 H 0.59968 0.71916 -0.02205
 H65 H 0.60059 0.71946 0.02354
 H66 H 0.70182 0.66953 0.08374
 H67 H 0.66388 0.66581 -0.02066
 H68 H 0.67030 0.70252 0.08387
 C69 C 0.71236 0.38551 1.00965
 C70 C 0.71216 0.38513 0.98591
 C71 C 0.70368 0.36373 0.97951
 N72 N 0.69888 0.35089 0.99852
 C73 C 0.70438 0.36413 1.01703
 C74 C 0.70166 0.35595 0.95641
 C75 C 0.68821 0.33663 0.95014
 C76 C 0.68888 0.32576 0.92873
 C77 C 0.67175 0.30927 0.92894
 C78 C 0.66114 0.31055 0.95048
 N79 N 0.67129 0.32726 0.96328
 C80 C 0.64161 0.29757 0.95726
 C81 C 0.63432 0.29572 0.98056
 C82 C 0.61367 0.28595 0.98778
 C83 C 0.61399 0.28613 1.01156
 C84 C 0.63483 0.29600 1.01804
 N85 N 0.64725 0.30181 0.99908
 C86 C 0.64287 0.29793 1.04105
 C87 C 0.66257 0.31099 1.04711
 C88 C 0.67451 0.30879 1.06780
 C89 C 0.69154 0.32532 1.06764
 C90 C 0.68932 0.33745 1.04699
 N91 N 0.67172 0.32842 1.03446
 C92 C 0.70286 0.35686 1.04049
 H93 H 0.71759 0.40001 1.02024
 H94 H 0.71741 0.39912 0.97464
 H95 H 0.66474 0.33537 1.01937
 H96 H 0.70028 0.32955 0.91434
 H97 H 0.66742 0.29784 0.91475
 H98 H 0.59986 0.27928 0.97705
 H99 H 0.60049 0.27959 1.02278
 H100 H 0.70413 0.32807 1.08123
 H101 H 0.66524 0.33382 0.97893
 H102 H 0.67131 0.29650 1.08157
 C103 C 0.26899 0.63185 1.01282
 C104 C 0.26909 0.63121 0.98906
 C105 C 0.28934 0.64184 0.98198
 N106 N 0.30153 0.64907 1.00061
 C107 C 0.28910 0.64312 1.01956
 C108 C 0.29726 0.64275 0.95882
 C109 C 0.31671 0.65575 0.95183
 C110 C 0.32787 0.65351 0.93064
 C111 C 0.34511 0.66985 0.93018
 C112 C 0.34399 0.68158 0.95110
 N113 N 0.32659 0.67296 0.96415
 C114 C 0.35789 0.70064 0.95716
 C115 C 0.35959 0.70890 0.98009
 C116 C 0.36878 0.73010 0.98620
 C117 C 0.36883 0.73083 1.00993
 C118 C 0.36007 0.70984 1.01757
 N119 N 0.35421 0.69653 0.99924
 C120 C 0.35860 0.70281 1.04109
 C121 C 0.34466 0.68380 1.04797
 C122 C 0.34657 0.67219 1.06892
 C123 C 0.32927 0.65600 1.06946
 C124 C 0.31755 0.65754 1.04850
 N125 N 0.32701 0.67465 1.03557
 C126 C 0.29733 0.64488 1.04265
 H127 H 0.25593 0.62409 1.02373
 H128 H 0.25606 0.62322 0.97827
 H129 H 0.32022 0.68145 1.02033
 H130 H 0.32395 0.64142 0.91690
 H131 H 0.35703 0.67282 0.91601
 H132 H 0.37473 0.74365 0.97474
 H133 H 0.37468 0.74520 1.02037
 H134 H 0.32573 0.64465 1.08390
 H135 H 0.32033 0.68006 0.97948
 H136 H 0.35903 0.67512 1.08259
 C137 C -0.01238 0.26901 0.36710
 C138 C 0.01129 0.26918 0.36764
 C139 C 0.01824 0.28951 0.35712
 N140 N -0.00039 0.30169 0.35005
 C141 C -0.01921 0.28917 0.35600
 C142 C 0.04129 0.29753 0.35624
 C143 C 0.04815 0.31710 0.34336
 C144 C 0.06922 0.32830 0.34568
 C145 C 0.06957 0.34569 0.32945
 C146 C 0.04871 0.34461 0.31770
 N147 N 0.03580 0.32709 0.32620
 C148 C 0.04258 0.35865 0.29871
 C149 C 0.01970 0.36032 0.29047
 C150 C 0.01353 0.36964 0.26927
 C151 C -0.01013 0.36956 0.26857
 C152 C -0.01767 0.36060 0.28959
 N153 N 0.00066 0.35473 0.30289
 C154 C -0.04110 0.35891 0.29668
 C155 C -0.04784 0.34486 0.31572
 C156 C -0.06870 0.34661 0.32748
 C157 C -0.06911 0.32923 0.34363
 C158 C -0.04819 0.31760 0.34191
 N159 N -0.03539 0.32722 0.32473
 C160 C -0.04225 0.29735 0.35444
 H161 H -0.02318 0.25587 0.37483
 H162 H 0.02213 0.25613 0.37550
 H163 H -0.02020 0.32054 0.31777
 H164 H 0.08296 0.32433 0.35776
 H165 H 0.08363 0.35768 0.32657
 H166 H 0.02491 0.37576 0.25569
 H167 H -0.02057 0.37546 0.25419
 H168 H -0.08346 0.32557 0.35507
 H169 H 0.02054 0.32085 0.31903
 H170 H -0.08237 0.35902 0.32468
 C171 C -0.00981 0.63160 0.73201
 C172 C 0.01386 0.63132 0.73150
 C173 C 0.02032 0.64027 0.71021
 N174 N 0.00144 0.64587 0.69758
 C175 C -0.01706 0.64034 0.71082
 C176 C 0.04330 0.64151 0.70208
 C177 C 0.04981 0.65509 0.68284
 C178 C 0.07077 0.65354 0.67128
 C179 C 0.07080 0.67061 0.65470
 C180 C 0.04985 0.68209 0.65662
 N181 N 0.03721 0.67258 0.67389
 C182 C 0.04334 0.70150 0.64335
 C183 C 0.02036 0.70961 0.64221
 C184 C 0.01363 0.73019 0.63201
 C185 C -0.01006 0.73054 0.63252
 C186 C -0.01699 0.71015 0.64300
 N187 N 0.00162 0.69740 0.64894
 C188 C -0.04008 0.70254 0.64484
 C189 C -0.04660 0.68312 0.65812
 C190 C -0.06728 0.67134 0.65564
 C191 C -0.06736 0.65415 0.67203
 C192 C -0.04686 0.65611 0.68440
 N193 N -0.03421 0.67376 0.67567
 C194 C -0.04041 0.64199 0.70348
 H195 H -0.02045 0.62594 0.74637
 H196 H 0.02505 0.62526 0.74524
 H197 H -0.01904 0.68043 0.68269
 H198 H 0.08465 0.64146 0.67452
 H199 H 0.08470 0.67420 0.64265
 H200 H 0.02464 0.74341 0.62465
 H201 H -0.02096 0.74406 0.62560
 H202 H -0.08093 0.64151 0.67436
 H203 H 0.02195 0.67913 0.68080
 H204 H -0.08081 0.67461 0.64311
 C205 C 0.98554 0.63424 0.26786
 C206 C 1.00921 0.63474 0.26720
 C207 C 1.01653 0.64269 0.28869
 N208 N 0.99809 0.64760 0.30222
 C209 C 0.97917 0.64231 0.28952
 C210 C 1.03982 0.64384 0.29620
 C211 C 1.04614 0.65721 0.31583
 C212 C 1.06590 0.65381 0.32903
 C213 C 1.06597 0.67051 0.34590
 C214 C 1.04626 0.68374 0.34264
 N215 N 1.03408 0.67533 0.32444
 C216 C 1.04006 0.70322 0.35622
 C217 C 1.01681 0.71080 0.35750
 C218 C 1.00961 0.73217 0.36563
 C219 C 0.98594 0.73162 0.36624
 C220 C 0.97945 0.71013 0.35804
 N221 N 0.99830 0.69743 0.35258
 C222 C 0.95655 0.70181 0.35750
 C223 C 0.95010 0.68229 0.34443
 C224 C 0.92935 0.67049 0.34657
 C225 C 0.92928 0.65374 0.32964
 C226 C 0.94999 0.65584 0.31770
 N227 N 0.96254 0.67328 0.32680
 C228 C 0.95630 0.64293 0.29797
 H229 H 0.97429 0.62855 0.25400
 H230 H 1.01983 0.62963 0.25262
 H231 H 0.97758 0.68025 0.31976
 H232 H 1.07875 0.64040 0.32701
 H233 H 1.07888 0.67238 0.35933
 H234 H 1.02030 0.74660 0.37079
 H235 H 0.97476 0.74542 0.37207
 H236 H 0.91548 0.64157 0.32637
 H237 H 1.01941 0.68276 0.31708
 H238 H 0.91561 0.67374 0.35889
 C239 C 0.98787 0.28593 0.61506
 C240 C 1.01157 0.28612 0.61515
 C241 C 1.01823 0.29597 0.63600
 N242 N 0.99945 0.30176 0.64865
 C243 C 0.98087 0.29567 0.63586
 C244 C 1.04123 0.29787 0.64387
 C245 C 1.04745 0.31087 0.66361
 C246 C 1.06815 0.30860 0.67543
 C247 C 1.06813 0.32506 0.69257
 C248 C 1.04755 0.33723 0.69053
 N249 N 1.03493 0.32828 0.67293
 C250 C 1.04122 0.35662 0.70420
 C251 C 1.01787 0.36396 0.70588
 C252 C 1.01065 0.38536 0.71395
 C253 C 0.98698 0.38507 0.71387
 C254 C 0.98046 0.36370 0.70539
 N255 N 0.99932 0.35079 0.70046
 C256 C 0.95738 0.35602 0.70344
 C257 C 0.95101 0.33665 0.69007
 C258 C 0.92966 0.32581 0.69092
 C259 C 0.92973 0.30927 0.67380
 C260 C 0.95112 0.31050 0.66300
 N261 N 0.96398 0.32723 0.67304
 C262 C 0.95771 0.29747 0.64339
 H263 H 0.97704 0.27926 0.60130
 H264 H 1.02263 0.27960 0.60150
 H265 H 0.97954 0.33376 0.66684
 H266 H 1.08182 0.29630 0.67209
 H267 H 1.08176 0.32774 0.70512
 H268 H 1.02129 0.39981 0.71916
 H269 H 0.97583 0.39910 0.71920
 H270 H 0.91554 0.29785 0.66959
 H271 H 1.01985 0.33528 0.66606
 H272 H 0.91539 0.32965 0.70244
 C273 C 0.38584 -0.01025 0.28691
 C274 C 0.38544 0.01338 0.28698
 C275 C 0.36390 0.01977 0.29523
 N276 N 0.35100 0.00087 0.30001
 C277 C 0.36435 -0.01757 0.29473
 C278 C 0.35607 0.04276 0.29707
 C279 C 0.33648 0.04902 0.31023
 C280 C 0.32553 0.07027 0.30926
 C281 C 0.30877 0.07013 0.32620
 C282 C 0.30997 0.04880 0.33702
 N283 N 0.32690 0.03604 0.32716
 C284 C 0.29674 0.04217 0.35650
 C285 C 0.29494 0.01906 0.36402
 C286 C 0.28500 0.01203 0.38473
 C287 C 0.28533 -0.01163 0.38466
 C288 C 0.29544 -0.01824 0.36390
 N289 N 0.30126 0.00052 0.35130
 C290 C 0.29758 -0.04120 0.35609
 C291 C 0.31082 -0.04734 0.33646
 C292 C 0.30877 -0.06803 0.32461
 C293 C 0.32545 -0.06793 0.30763
 C294 C 0.33753 -0.04732 0.30980
 N295 N 0.32831 -0.03476 0.32730
 C296 C 0.35707 -0.04092 0.29633
 H297 H 0.40042 -0.02079 0.28186
 H298 H 0.39950 0.02458 0.28181
 H299 H 0.33518 -0.01967 0.33425
 H300 H 0.32945 0.08453 0.29778
 H301 H 0.29721 0.08424 0.33028
 H302 H 0.27814 0.02282 0.39842
 H303 H 0.27873 -0.02269 0.39826
 H304 H 0.32832 -0.08154 0.29511
 H305 H 0.33344 0.02055 0.33344
 H306 H 0.29648 -0.08174 0.32783
 C307 C 0.63134 0.01474 0.73093
 C308 C 0.63157 -0.00888 0.73160
 C309 C 0.64045 -0.01629 0.71051
 N310 N 0.64612 0.00207 0.69718
 C311 C 0.64047 0.02102 0.70966
 C312 C 0.64211 -0.03965 0.70332
 C313 C 0.65633 -0.04622 0.68434
 C314 C 0.65438 -0.06674 0.67204
 C315 C 0.67167 -0.06678 0.65570
 C316 C 0.68351 -0.04615 0.65815
 N317 N 0.67409 -0.03369 0.67562
 C318 C 0.70305 -0.03976 0.64492
 C319 C 0.71080 -0.01675 0.64308
 C320 C 0.73132 -0.00998 0.63269
 C321 C 0.73109 0.01367 0.63209
 C322 C 0.71043 0.02052 0.64214
 N323 N 0.69806 0.00190 0.64887
 C324 C 0.70239 0.04349 0.64312
 C325 C 0.68285 0.05012 0.65623
 C326 C 0.67142 0.07104 0.65412
 C327 C 0.65417 0.07113 0.67056
 C328 C 0.65558 0.05026 0.68223
 N329 N 0.67315 0.03761 0.67348
 C330 C 0.64180 0.04390 0.70139
 H331 H 0.62519 0.02602 0.74456
 H332 H 0.62579 -0.01939 0.74599
 H333 H 0.67962 0.02241 0.68052
 H334 H 0.64166 -0.08024 0.67437
 H335 H 0.67495 -0.08035 0.64323
 H336 H 0.74486 -0.02095 0.62588
 H337 H 0.74442 0.02457 0.62477
 H338 H 0.64206 0.08502 0.67364
 H339 H 0.68078 -0.01852 0.68261
 H340 H 0.67514 0.08484 0.64204
 C341 C 0.36705 1.01108 0.73085
 C342 C 0.36755 0.98742 0.73069
 C343 C 0.35733 0.98053 0.71009
 N344 N 0.35060 0.99913 0.69769
 C345 C 0.35656 1.01781 0.71034
 C346 C 0.35616 0.95753 0.70211
 C347 C 0.34299 0.95091 0.68261
 C348 C 0.34499 0.92997 0.67115
 C349 C 0.32848 0.92986 0.65399
 C350 C 0.31688 0.95073 0.65550
 N351 N 0.32575 0.96342 0.67302
 C352 C 0.29766 0.95706 0.64187
 C353 C 0.28946 0.97994 0.64057
 C354 C 0.26819 0.98624 0.63162
 C355 C 0.26758 1.00986 0.63183
 C356 C 0.28870 1.01725 0.64050
 N357 N 0.30199 0.99888 0.64608
 C358 C 0.29595 1.04060 0.64203
 C359 C 0.31501 1.04717 0.65607
 C360 C 0.32730 1.06767 0.65392
 C361 C 0.34375 1.06773 0.67108
 C362 C 0.34137 1.04714 0.68304
 N363 N 0.32384 1.03468 0.67383
 C364 C 0.35471 1.04079 0.70252
 H365 H 0.37399 1.02207 0.74433
 H366 H 0.37490 0.97655 0.74403
 H367 H 0.31689 1.01955 0.68065
 H368 H 0.35704 0.91616 0.67479
 H369 H 0.32531 0.91594 0.64190
 H370 H 0.25452 0.97496 0.62562
 H371 H 0.25321 1.02038 0.62617
 H372 H 0.35623 1.08129 0.67421
 H373 H 0.31879 0.97863 0.67957
 H374 H 0.32488 1.08113 0.64116
 C375 C 0.61444 1.01013 0.28946
 C376 C 0.61489 0.98650 0.28917
 C377 C 0.63663 0.98005 0.29680
 N378 N 0.64958 0.99891 0.30157
 C379 C 0.63610 1.01736 0.29685
 C380 C 0.64467 0.95711 0.29797
 C381 C 0.66446 0.95084 0.31075
 C382 C 0.67566 0.92974 0.30932
 C383 C 0.69251 0.92980 0.32617
 C384 C 0.69107 0.95093 0.33735
 N385 N 0.67401 0.96366 0.32779
 C386 C 0.70387 0.95732 0.35713
 C387 C 0.70513 0.98034 0.36498
 C388 C 0.71296 0.98698 0.38665
 C389 C 0.71267 1.01062 0.38690
 C390 C 0.70506 1.01766 0.36520
 N391 N 0.70023 0.99907 0.35188
 C392 C 0.70364 1.04084 0.35749
 C393 C 0.69030 1.04685 0.33774
 C394 C 0.69336 1.06667 0.32460
 C395 C 0.67644 1.06662 0.30791
 C396 C 0.66346 1.04676 0.31124
 N397 N 0.67224 1.03459 0.32926
 C398 C 0.64361 1.04061 0.29817
 H399 H 0.59978 1.02074 0.28482
 H400 H 0.60078 0.97533 0.28410
 H401 H 0.66492 1.01995 0.33677
 H402 H 0.67181 0.91562 0.29767
 H403 H 0.70418 0.91573 0.33004
 H404 H 0.71815 0.97594 0.40086
 H405 H 0.71745 1.02137 0.40147
 H406 H 0.67412 1.07964 0.29468
 H407 H 0.66737 0.97898 0.33443
 H408 H 0.70655 1.07975 0.32667
 O409 O 0.84790 0.81577 0.48001
 O410 O 0.81646 0.84810 0.52496
 O411 O 0.84818 0.81609 0.52499
 O412 O 0.81634 0.84781 0.47995
 O413 O 0.78906 0.82106 0.48021
 O414 O 0.82102 0.78923 0.52538
 O415 O 0.78920 0.82134 0.52534
 O416 O 0.82071 0.78893 0.48028
 Cu417 Cu 0.83495 0.83464 0.50247
 Cu418 Cu 0.80224 0.80243 0.50286
 C419 C 0.83971 0.79684 0.47265
 C420 C 0.79744 0.84029 0.53261
 C421 C 0.84011 0.79721 0.53264
 C422 C 0.79729 0.83988 0.47255
 O423 O 0.15099 0.18404 0.47821
 O424 O 0.18306 0.15199 0.52281
 O425 O 0.15131 0.18387 0.52321
 O426 O 0.18270 0.15210 0.47783
 O427 O 0.20988 0.17894 0.47764
 O428 O 0.17840 0.21080 0.52313
 O429 O 0.21025 0.17882 0.52274
 O430 O 0.17808 0.21098 0.47802
 Cu431 Cu 0.16428 0.16530 0.50053
 Cu432 Cu 0.19690 0.19761 0.50036
 C433 C 0.15902 0.20298 0.47069
 C434 C 0.20213 0.15988 0.53019
 C435 C 0.15946 0.20275 0.53074
 C436 C 0.20165 0.16005 0.47018
 O437 O 0.18420 0.84654 0.47566
 O438 O 0.15292 0.81435 0.52081
 O439 O 0.18465 0.84629 0.52064
 O440 O 0.15253 0.81453 0.47583
 O441 O 0.17963 0.78763 0.47535
 O442 O 0.21185 0.81950 0.52029
 O443 O 0.18002 0.78745 0.52046
 O444 O 0.21140 0.81975 0.47517
 Cu445 Cu 0.16585 0.83312 0.49827
 Cu446 Cu 0.19848 0.80087 0.49777
 C447 C 0.20315 0.83869 0.46790
 C448 C 0.16107 0.79541 0.52815
 C449 C 0.20374 0.83836 0.52792
 C450 C 0.16054 0.79565 0.46813
 O451 O 0.81696 0.15241 0.47585
 O452 O 0.84851 0.18415 0.52109
 O453 O 0.81654 0.15244 0.52084
 O454 O 0.84898 0.18407 0.47607
 O455 O 0.82210 0.21118 0.47574
 O456 O 0.78957 0.17947 0.52062
 O457 O 0.82163 0.21127 0.52087
 O458 O 0.78998 0.17942 0.47551
 Cu459 Cu 0.83546 0.16555 0.49849
 Cu460 Cu 0.80310 0.19808 0.49815
 C461 C 0.79808 0.16044 0.46815
 C462 C 0.84049 0.20312 0.52853
 C463 C 0.79752 0.16051 0.52819
 C464 C 0.84111 0.20302 0.46844
 O465 O 0.47754 0.84689 0.81487
 O466 O 0.52271 0.81550 0.84665
 O467 O 0.52235 0.84760 0.81503
 O468 O 0.47787 0.81468 0.84643
 O469 O 0.47840 0.78796 0.81906
 O470 O 0.52301 0.82098 0.78757
 O471 O 0.52338 0.78877 0.81930
 O472 O 0.47806 0.82028 0.78739
 Cu473 Cu 0.50005 0.83384 0.83351
 Cu474 Cu 0.50076 0.80179 0.80056
 C475 C 0.47030 0.83902 0.79569
 C476 C 0.53059 0.79679 0.83845
 C477 C 0.53008 0.83996 0.79593
 C478 C 0.47073 0.79570 0.83815
 O479 O 0.52448 0.18401 0.15370
 O480 O 0.47939 0.15250 0.18564
 O481 O 0.47966 0.18446 0.15387
 O482 O 0.52428 0.15212 0.18558
 O483 O 0.52466 0.17894 0.21285
 O484 O 0.47991 0.21137 0.18105
 O485 O 0.47963 0.17931 0.21293
 O486 O 0.52486 0.21093 0.18087
 Cu487 Cu 0.50193 0.16556 0.16697
 Cu488 Cu 0.50230 0.19784 0.19969
 C489 C 0.53216 0.20287 0.16176
 C490 C 0.47195 0.16050 0.20470
 C491 C 0.47236 0.20344 0.16200
 C492 C 0.53192 0.15998 0.20461
 O493 O 0.51965 0.15322 0.81487
 O494 O 0.47483 0.18471 0.84722
 O495 O 0.47482 0.15294 0.81518
 O496 O 0.51968 0.18478 0.84704
 O497 O 0.51952 0.21194 0.82011
 O498 O 0.47452 0.17998 0.78813
 O499 O 0.47455 0.21185 0.82028
 O500 O 0.51949 0.18028 0.78784
 Cu501 Cu 0.49725 0.16619 0.83379
 Cu502 Cu 0.49698 0.19876 0.80136
 C503 C 0.52704 0.16134 0.79583
 C504 C 0.46725 0.20367 0.83933
 C505 C 0.46723 0.16095 0.79620
 C506 C 0.52709 0.20378 0.83906
 O507 O 0.47770 0.81638 0.15235
 O508 O 0.52239 0.84808 0.18461
 O509 O 0.52253 0.81635 0.15264
 O510 O 0.47752 0.84823 0.18427
 O511 O 0.47716 0.82132 0.21145
 O512 O 0.52232 0.78932 0.17970
 O513 O 0.52217 0.82115 0.21177
 O514 O 0.47736 0.78936 0.17943
 Cu515 Cu 0.50005 0.83498 0.16575
 Cu516 Cu 0.49971 0.80256 0.19834
 C517 C 0.47012 0.79743 0.16032
 C518 C 0.52977 0.84004 0.20367
 C519 C 0.52994 0.79741 0.16072
 C520 C 0.46983 0.84027 0.20325
 O521 O 0.84677 0.52286 0.81536
 O522 O 0.81437 0.47818 0.84693
 O523 O 0.84658 0.47810 0.81537
 O524 O 0.81459 0.52297 0.84703
 O525 O 0.78781 0.52318 0.81970
 O526 O 0.81991 0.47817 0.78793
 O527 O 0.78759 0.47825 0.81959
 O528 O 0.82010 0.52306 0.78792
 Cu529 Cu 0.83326 0.50053 0.83394
 Cu530 Cu 0.80114 0.50070 0.80102
 C531 C 0.83903 0.53038 0.79623
 C532 C 0.79548 0.47073 0.83866
 C533 C 0.83874 0.47063 0.79626
 C534 C 0.79575 0.53056 0.83882
 O535 O 0.18542 0.47946 0.15379
 O536 O 0.15281 0.52430 0.18487
 O537 O 0.18475 0.52422 0.15294
 O538 O 0.15337 0.47955 0.18558
 O539 O 0.18022 0.48033 0.21284
 O540 O 0.21170 0.52512 0.18010
 O541 O 0.17966 0.52520 0.21213
 O542 O 0.21237 0.48024 0.18095
 Cu543 Cu 0.16639 0.50180 0.16656
 Cu544 Cu 0.19871 0.50282 0.19925
 C545 C 0.20446 0.47238 0.16202
 C546 C 0.16061 0.53220 0.20382
 C547 C 0.20359 0.53211 0.16090
 C548 C 0.16138 0.47250 0.20478
 O549 O 0.84699 0.47729 0.18343
 O550 O 0.81484 0.52189 0.15164
 O551 O 0.84654 0.52202 0.18369
 O552 O 0.81523 0.47709 0.15141
 O553 O 0.78806 0.47661 0.17840
 O554 O 0.81947 0.52166 0.21078
 O555 O 0.78766 0.52154 0.17862
 O556 O 0.81993 0.47681 0.21053
 Cu557 Cu 0.83361 0.49961 0.16481
 Cu558 Cu 0.80102 0.49911 0.19731
 C559 C 0.83902 0.46966 0.20243
 C560 C 0.79579 0.52918 0.15967
 C561 C 0.83841 0.52931 0.20276
 C562 C 0.79631 0.46935 0.15937
 O563 O 0.18460 0.52054 0.84862
 O564 O 0.15272 0.47563 0.81694
 O565 O 0.18460 0.47579 0.84885
 O566 O 0.15288 0.52040 0.81653
 O567 O 0.17992 0.52022 0.78941
 O568 O 0.21172 0.47549 0.82181
 O569 O 0.17974 0.47532 0.78979
 O570 O 0.21175 0.52037 0.82161
 Cu571 Cu 0.16597 0.49812 0.83546
 Cu572 Cu 0.19852 0.49783 0.80291
 C573 C 0.20362 0.52792 0.84059
 C574 C 0.16073 0.46799 0.79796
 C575 C 0.20358 0.46822 0.84090
 C576 C 0.16094 0.52774 0.79745
 C577 C 0.26590 0.37600 0.09826
 C578 C 0.26457 0.39992 0.09500
 C579 C 0.27509 0.41005 0.07564
 C580 C 0.28666 0.39635 0.05947
 C581 C 0.28781 0.37233 0.06245
 C582 C 0.27750 0.36225 0.08205
 C583 C 0.25189 0.41418 0.11099
 C584 C 0.24114 0.42670 0.12372
 C585 C 0.22844 0.44201 0.13786
 C586 C 0.21752 0.45560 0.14926
 H587 H 0.25777 0.36799 0.11315
 H588 H 0.27414 0.42853 0.07293
 H589 H 0.29458 0.40441 0.04449
 H590 H 0.27818 0.34374 0.08457
 C591 C 0.75031 0.61534 0.07548
 C592 C 0.73799 0.60344 0.09263
 C593 C 0.71387 0.60525 0.09363
 C594 C 0.70208 0.61861 0.07729
 C595 C 0.71433 0.63020 0.05977
 C596 C 0.73854 0.62870 0.05914
 C597 C 0.75005 0.58847 0.10842
 C598 C 0.76030 0.57549 0.12108
 C599 C 0.77249 0.55982 0.13524
 C600 C 0.78305 0.54604 0.14674
 H601 H 0.76896 0.61399 0.07450
 H602 H 0.70417 0.59604 0.10678
 H603 H 0.68339 0.61957 0.07797
 H604 H 0.74823 0.63758 0.04576
 C605 C 0.75004 0.38409 0.92233
 C606 C 0.73767 0.39576 0.90508
 C607 C 0.71358 0.39361 0.90400
 C608 C 0.70186 0.38017 0.92037
 C609 C 0.71416 0.36882 0.93799
 C610 C 0.73835 0.37066 0.93869
 C611 C 0.74965 0.41091 0.88937
 C612 C 0.75988 0.42404 0.87681
 C613 C 0.77208 0.43987 0.86281
 C614 C 0.78268 0.45377 0.85145
 H615 H 0.76866 0.38571 0.92338
 H616 H 0.70384 0.40266 0.89079
 H617 H 0.68319 0.37902 0.91966
 H618 H 0.74808 0.36202 0.95217
 C619 C 0.26180 0.62454 0.90664
 C620 C 0.26239 0.60046 0.90874
 C621 C 0.27468 0.59027 0.92696
 C622 C 0.28618 0.60405 0.94313
 C623 C 0.28543 0.62819 0.94127
 C624 C 0.27331 0.63837 0.92283
 C625 C 0.24996 0.58609 0.89266
 C626 C 0.23946 0.57354 0.87975
 C627 C 0.22708 0.55824 0.86533
 C628 C 0.21641 0.54468 0.85365
 H629 H 0.25231 0.63260 0.89263
 H630 H 0.27524 0.57167 0.92876
 H631 H 0.29555 0.59595 0.95719
 H632 H 0.27261 0.65697 0.92117
 C633 C 0.07307 0.27462 0.40874
 C634 C 0.09119 0.26236 0.39837
 C635 C 0.09329 0.26196 0.37417
 C636 C 0.07718 0.27361 0.36039
 C637 C 0.05883 0.28567 0.37074
 C638 C 0.05699 0.28625 0.39500
 C639 C 0.10714 0.24975 0.41270
 C640 C 0.11995 0.23911 0.42522
 C641 C 0.13427 0.22658 0.44048
 C642 C 0.14591 0.21583 0.45400
 H643 H 0.07128 0.27503 0.42744
 H644 H 0.10722 0.25250 0.36598
 H645 H 0.07883 0.27304 0.34169
 H646 H 0.04298 0.29557 0.40324
 C647 C 0.09596 0.73620 0.62526
 C648 C 0.09368 0.73607 0.60108
 C649 C 0.07527 0.72420 0.59077
 C650 C 0.05908 0.71274 0.60456
 C651 C 0.06108 0.71307 0.62881
 C652 C 0.07974 0.72471 0.63909
 C653 C 0.10968 0.74860 0.58670
 C654 C 0.12247 0.75921 0.57409
 C655 C 0.13671 0.77174 0.55869
 C656 C 0.14821 0.78251 0.54502
 H657 H 0.11012 0.74537 0.63341
 H658 H 0.07332 0.72401 0.57209
 H659 H 0.04484 0.70375 0.59636
 H660 H 0.08152 0.72512 0.65778
 C661 C 0.90342 0.73564 0.37579
 C662 C 0.90668 0.73696 0.39983
 C663 C 0.92590 0.72636 0.40999
 C664 C 0.94193 0.71470 0.39620
 C665 C 0.93893 0.71353 0.37207
 C666 C 0.91948 0.72394 0.36195
 C667 C 0.89079 0.74966 0.41418
 C668 C 0.87811 0.76040 0.42677
 C669 C 0.86399 0.77305 0.44216
 C670 C 0.85255 0.78390 0.45581
 H671 H 0.88863 0.74383 0.36776
 H672 H 0.92860 0.72730 0.42855
 H673 H 0.95680 0.70670 0.40430
 H674 H 0.91695 0.72325 0.34336
 C675 C 0.92397 0.24876 0.61560
 C676 C 0.90699 0.26096 0.60342
 C677 C 0.90604 0.28505 0.60504
 C678 C 0.92227 0.29693 0.61847
 C679 C 0.93961 0.28480 0.63033
 C680 C 0.94019 0.26061 0.62903
 C681 C 0.89135 0.24881 0.58835
 C682 C 0.87880 0.23850 0.57528
 C683 C 0.86476 0.22629 0.55948
 C684 C 0.85334 0.21576 0.54557
 H685 H 0.92491 0.23013 0.61441
 H686 H 0.89304 0.29467 0.59561
 H687 H 0.92163 0.31559 0.61926
 H688 H 0.95344 0.25100 0.63812
 C689 C 0.38500 0.07667 0.24897
 C690 C 0.39640 0.09392 0.26155
 C691 C 0.39382 0.09504 0.28568
 C692 C 0.38023 0.07870 0.29722
 C693 C 0.36916 0.06108 0.28472
 C694 C 0.37143 0.06034 0.26049
 C695 C 0.41166 0.10966 0.24978
 C696 C 0.42489 0.12226 0.23973
 C697 C 0.44085 0.13631 0.22775
 C698 C 0.45485 0.14770 0.21732
 H699 H 0.38695 0.07560 0.23032
 H700 H 0.40264 0.10824 0.29559
 H701 H 0.37874 0.07945 0.31593
 H702 H 0.36300 0.04687 0.25059
 C703 C 0.58942 0.07554 0.72454
 C704 C 0.59966 0.09421 0.73600
 C705 C 0.62373 0.09683 0.73564
 C706 C 0.63752 0.08066 0.72408
 C707 C 0.62731 0.06173 0.71285
 C708 C 0.60315 0.05939 0.71301
 C709 C 0.58534 0.11014 0.74866
 C710 C 0.57278 0.12286 0.75937
 C711 C 0.55744 0.13701 0.77202
 C712 C 0.54383 0.14847 0.78287
 H713 H 0.57082 0.07332 0.72473
 H714 H 0.63183 0.11119 0.74450
 H715 H 0.65613 0.08267 0.72417
 H716 H 0.59500 0.04492 0.70438
 C717 C 0.37384 0.90496 0.73701
 C718 C 0.39796 0.90715 0.73690
 C719 C 0.40835 0.92554 0.72509
 C720 C 0.39473 0.94180 0.71361
 C721 C 0.37054 0.93986 0.71388
 C722 C 0.36017 0.92125 0.72551
 C723 C 0.41218 0.89099 0.74934
 C724 C 0.42466 0.87805 0.75985
 C725 C 0.43991 0.86364 0.77225
 C726 C 0.45349 0.85200 0.78292
 H727 H 0.36563 0.89082 0.74613
 H728 H 0.42699 0.92741 0.72491
 H729 H 0.40299 0.95600 0.70462
 H730 H 0.34153 0.91952 0.72586
 C731 C 0.61553 0.92425 0.24934
 C732 C 0.60464 0.90641 0.26155
 C733 C 0.60761 0.90458 0.28558
 C734 C 0.62110 0.92078 0.29741
 C735 C 0.63167 0.93897 0.28529
 C736 C 0.62900 0.94044 0.26114
 C737 C 0.58950 0.89077 0.24952
 C738 C 0.57639 0.87824 0.23925
 C739 C 0.56058 0.86426 0.22703
 C740 C 0.54671 0.85288 0.21644
 H741 H 0.61328 0.92587 0.23076
 H742 H 0.59917 0.89091 0.29520
 H743 H 0.62289 0.91946 0.31606
 H744 H 0.63705 0.95435 0.25153
 C745 C 0.37369 0.26862 0.90460
 C746 C 0.39647 0.26219 0.90951
 C747 C 0.40608 0.26753 0.93107
 C748 C 0.39298 0.27903 0.94777
 C749 C 0.36986 0.28538 0.94330
 C750 C 0.36049 0.28019 0.92131
 C751 C 0.41013 0.24988 0.89271
 C752 C 0.42226 0.23941 0.87936
 C753 C 0.43722 0.22702 0.86457
 C754 C 0.45061 0.21637 0.85265
 H755 H 0.36605 0.26452 0.88795
 H756 H 0.42377 0.26280 0.93498
 H757 H 0.40115 0.28339 0.96409
 H758 H 0.34273 0.28448 0.91726
 C759 C 0.61114 0.75118 0.92723
 C760 C 0.60448 0.74008 0.90678
 C761 C 0.61122 0.71726 0.90278
 C762 C 0.62423 0.70541 0.91938
 C763 C 0.63057 0.71618 0.94039
 C764 C 0.62410 0.73940 0.94386
 C765 C 0.58979 0.75187 0.89052
 C766 C 0.57697 0.76193 0.87754
 C767 C 0.56137 0.77390 0.86310
 C768 C 0.54757 0.78427 0.85146
 H769 H 0.60609 0.76889 0.93047
 H770 H 0.60602 0.70846 0.88705
 H771 H 0.62852 0.68749 0.91618
 H772 H 0.62921 0.74852 0.95943
 C773 C 0.40887 0.73137 0.06997
 C774 C 0.39905 0.73830 0.09100
 C775 C 0.37587 0.73326 0.09571
 C776 C 0.36250 0.72142 0.07935
 C777 C 0.37212 0.71453 0.05794
 C778 C 0.39559 0.71959 0.05361
 C779 C 0.41290 0.75084 0.10745
 C780 C 0.42512 0.76144 0.12059
 C781 C 0.44013 0.77394 0.13522
 C782 C 0.45351 0.78466 0.14706
 H783 H 0.42684 0.73507 0.06620
 H784 H 0.36807 0.73863 0.11191
 H785 H 0.34445 0.71821 0.08318
 H786 H 0.40383 0.71404 0.03768
 C787 C 0.61631 0.24893 0.07550
 C788 C 0.60498 0.26100 0.09321
 C789 C 0.60678 0.28507 0.09438
 C790 C 0.61952 0.29707 0.07765
 C791 C 0.63048 0.28509 0.05956
 C792 C 0.62905 0.26091 0.05878
 C793 C 0.59053 0.24875 0.10939
 C794 C 0.57792 0.23837 0.12237
 C795 C 0.56257 0.22610 0.13687
 C796 C 0.54896 0.21553 0.14861
 H797 H 0.61497 0.23032 0.07439
 H798 H 0.59801 0.29457 0.10796
 H799 H 0.62046 0.31572 0.07849
 H800 H 0.63749 0.25140 0.04500
 C801 C 0.26652 0.09548 0.62458
 C802 C 0.26116 0.09075 0.60142
 C803 C 0.26760 0.06964 0.59165
 C804 C 0.27916 0.05321 0.60497
 C805 C 0.28449 0.05754 0.62845
 C806 C 0.27815 0.07906 0.63800
 C807 C 0.24875 0.10724 0.58754
 C808 C 0.23821 0.12037 0.57529
 C809 C 0.22574 0.13496 0.56024
 C810 C 0.21499 0.14672 0.54682
 H811 H 0.26154 0.11176 0.63234
 H812 H 0.26366 0.06585 0.57368
 H813 H 0.28433 0.03722 0.59675
 H814 H 0.28159 0.08292 0.65604
 C815 C 0.71805 0.09641 0.38733
 C816 C 0.74056 0.09196 0.39494
 C817 C 0.75117 0.07102 0.38936
 C818 C 0.73919 0.05436 0.37667
 C819 C 0.71624 0.05826 0.36939
 C820 C 0.70601 0.07976 0.37457
 C821 C 0.75252 0.10831 0.40940
 C822 C 0.76274 0.12132 0.42207
 C823 C 0.77491 0.13576 0.43753
 C824 C 0.78543 0.14741 0.45124
 H825 H 0.70963 0.11254 0.39165
 H826 H 0.76865 0.06745 0.39506
 H827 H 0.74800 0.03843 0.37238
 H828 H 0.68832 0.08336 0.36958
 C829 C 0.72651 0.92747 0.59322
 C830 C 0.73821 0.90927 0.60401
 C831 C 0.73800 0.90740 0.62824
 C832 C 0.72633 0.92385 0.64162
 C833 C 0.71487 0.94232 0.63085
 C834 C 0.71486 0.94389 0.60655
 C835 C 0.75086 0.89300 0.59008
 C836 C 0.76152 0.87996 0.57780
 C837 C 0.77404 0.86539 0.56273
 C838 C 0.78474 0.85358 0.54929
 H839 H 0.72655 0.92908 0.57450
 H840 H 0.74701 0.89340 0.63676
 H841 H 0.72645 0.92238 0.66034
 H842 H 0.70598 0.95794 0.59797
 C843 C 0.28496 0.90601 0.39276
 C844 C 0.26083 0.90700 0.39448
 C845 C 0.24865 0.92440 0.38290
 C846 C 0.26057 0.94100 0.36999
 C847 C 0.28480 0.94040 0.36864
 C848 C 0.29690 0.92262 0.37985
 C849 C 0.24864 0.89095 0.40909
 C850 C 0.23833 0.87805 0.42182
 C851 C 0.22616 0.86361 0.43730
 C852 C 0.21568 0.85188 0.45101
 H853 H 0.29455 0.89268 0.40172
 H854 H 0.23000 0.92536 0.38417
 H855 H 0.25097 0.95454 0.36136
 H856 H 0.31559 0.92192 0.37898
 C857 C 0.07159 0.38833 0.75177
 C858 C 0.09212 0.39476 0.74072
 C859 C 0.09621 0.38786 0.71784
 C860 C 0.07964 0.37491 0.70590
 C861 C 0.05857 0.36878 0.71663
 C862 C 0.05499 0.37544 0.73990
 C863 C 0.10841 0.40932 0.75262
 C864 C 0.12143 0.42203 0.76276
 C865 C 0.13593 0.43748 0.77484
 C866 C 0.14765 0.45115 0.78532
 H867 H 0.06828 0.39351 0.76952
 H868 H 0.11200 0.39286 0.70907
 H869 H 0.08293 0.37048 0.68795
 H870 H 0.03936 0.37050 0.74900
 C871 C 0.06877 0.59404 0.26688
 C872 C 0.09040 0.60344 0.26161
 C873 C 0.09547 0.62615 0.26805
 C874 C 0.07889 0.63949 0.27957
 C875 C 0.05685 0.63033 0.28473
 C876 C 0.05218 0.60728 0.27834
 C877 C 0.10712 0.58961 0.24943
 C878 C 0.12044 0.57738 0.23908
 C879 C 0.13525 0.56232 0.22686
 C880 C 0.14721 0.54888 0.21636
 H881 H 0.06473 0.57640 0.26215
 H882 H 0.11217 0.63362 0.26401
 H883 H 0.08308 0.65719 0.28388
 H884 H 0.03582 0.59927 0.28267
 C885 C 0.92959 0.40898 0.26836
 C886 C 0.90871 0.39903 0.26141
 C887 C 0.90425 0.37582 0.26636
 C888 C 0.92070 0.36256 0.27810
 C889 C 0.94197 0.37232 0.28501
 C890 C 0.94606 0.39581 0.28005
 C891 C 0.89214 0.41277 0.24896
 C892 C 0.87890 0.42489 0.23841
 C893 C 0.86417 0.43980 0.22595
 C894 C 0.85229 0.45312 0.21524
 H895 H 0.93317 0.42698 0.26473
 H896 H 0.88815 0.36793 0.26097
 H897 H 0.91706 0.34450 0.28124
 H898 H 0.96188 0.40414 0.28562
 C899 C 0.93015 0.59177 0.73154
 C900 C 0.90900 0.60151 0.73795
 C901 C 0.90438 0.62462 0.73269
 C902 C 0.92096 0.63799 0.72119
 C903 C 0.94251 0.62846 0.71485
 C904 C 0.94673 0.60505 0.72009
 C905 C 0.89234 0.58767 0.75021
 C906 C 0.87905 0.57543 0.76062
 C907 C 0.86428 0.56040 0.77293
 C908 C 0.85236 0.54700 0.78354
 H909 H 0.93385 0.57385 0.73540
 H910 H 0.88807 0.63235 0.73767
 H911 H 0.91717 0.65598 0.71782
 H912 H 0.96275 0.59686 0.71492
 C913 C 0.71358 0.60639 0.90506
 C914 C 0.73768 0.60440 0.90622
 C915 C 0.74988 0.61591 0.92371
 C916 C 0.73802 0.62901 0.94022
 C917 C 0.71381 0.63062 0.93945
 C918 C 0.70169 0.61949 0.92157
 C919 C 0.74982 0.58961 0.89030
 C920 C 0.76014 0.57675 0.87754
 C921 C 0.77240 0.56117 0.86330
 C922 C 0.78299 0.54743 0.85177
 H923 H 0.70397 0.59749 0.89165
 H924 H 0.76851 0.61444 0.92481
 H925 H 0.74763 0.63757 0.95383
 H926 H 0.68302 0.62056 0.92075
 C927 C 0.26794 0.40653 0.93202
 C928 C 0.26238 0.39711 0.91043
 C929 C 0.26863 0.37436 0.90530
 C930 C 0.28024 0.36100 0.92183
 C931 C 0.28565 0.37017 0.94386
 C932 C 0.27948 0.39327 0.94854
 C933 C 0.25000 0.41093 0.89383
 C934 C 0.23948 0.42316 0.88063
 C935 C 0.22703 0.43819 0.86598
 C936 C 0.21634 0.45160 0.85415
 H937 H 0.26335 0.42420 0.93610
 H938 H 0.26437 0.36688 0.88864
 H939 H 0.28439 0.34327 0.91762
 H940 H 0.28401 0.40129 0.96488
 C941 C 0.28463 0.59906 0.08604
 C942 C 0.26218 0.60506 0.09282
 C943 C 0.25166 0.62468 0.08340
 C944 C 0.26345 0.63814 0.06709
 C945 C 0.28594 0.63212 0.06005
 C946 C 0.29644 0.61247 0.06974
 C947 C 0.24962 0.59045 0.10861
 C948 C 0.23909 0.57777 0.12139
 C949 C 0.22674 0.56240 0.13580
 C950 C 0.21618 0.54883 0.14758
 H951 H 0.29285 0.58379 0.09306
 H952 H 0.23425 0.62941 0.08843
 H953 H 0.25499 0.65315 0.05982
 H954 H 0.31357 0.60722 0.06427
 C955 C 0.71673 0.38840 0.09540
 C956 C 0.73947 0.39540 0.09110
 C957 C 0.75038 0.38888 0.07048
 C958 C 0.73850 0.37582 0.05400
 C959 C 0.71535 0.36910 0.05777
 C960 C 0.70477 0.37529 0.07895
 C961 C 0.75135 0.41016 0.10724
 C962 C 0.76146 0.42303 0.12014
 C963 C 0.77347 0.43864 0.13454
 C964 C 0.78384 0.45243 0.14623
 H965 H 0.70807 0.39346 0.11127
 H966 H 0.76803 0.39412 0.06701
 H967 H 0.74749 0.37084 0.03829
 H968 H 0.68692 0.37080 0.08240
 C969 C 0.90707 0.73754 0.62815
 C970 C 0.90896 0.73773 0.60392
 C971 C 0.92719 0.72603 0.59313
 C972 C 0.94361 0.71439 0.60645
 C973 C 0.94202 0.71441 0.63075
 C974 C 0.92352 0.72588 0.64152
 C975 C 0.89267 0.75038 0.59000
 C976 C 0.87962 0.76105 0.57775
 C977 C 0.86506 0.77362 0.56272
 C978 C 0.85328 0.78438 0.54930
 H979 H 0.89305 0.74656 0.63668
 H980 H 0.92882 0.72606 0.57441
 H981 H 0.95769 0.70550 0.59787
 H982 H 0.92203 0.72601 0.66024
 C983 C 0.91741 0.25159 0.37488
 C984 C 0.90819 0.26197 0.39476
 C985 C 0.91492 0.28437 0.40082
 C986 C 0.93100 0.29627 0.38724
 C987 C 0.94051 0.28590 0.36734
 C988 C 0.93350 0.26346 0.36125
 C989 C 0.89266 0.24932 0.40956
 C990 C 0.88009 0.23871 0.42240
 C991 C 0.86591 0.22629 0.43793
 C992 C 0.85430 0.21567 0.45163
 H993 H 0.91241 0.23421 0.37011
 H994 H 0.90805 0.29249 0.41628
 H995 H 0.93646 0.31336 0.39254
 H996 H 0.94064 0.25510 0.34604
 C997 C 0.07512 0.24887 0.61672
 C998 C 0.09261 0.26093 0.60508
 C999 C 0.09387 0.28500 0.60694
 C1000 C 0.07744 0.29700 0.62002
 C1001 C 0.05955 0.28502 0.63126
 C1002 C 0.05869 0.26084 0.62980
 C1003 C 0.10841 0.24869 0.59024
 C1004 C 0.12106 0.23831 0.57732
 C1005 C 0.13518 0.22603 0.56163
 C1006 C 0.14662 0.21544 0.54777
 H1007 H 0.07394 0.23027 0.61535
 H1008 H 0.10728 0.29450 0.59793
 H1009 H 0.07833 0.31564 0.62097
 H1010 H 0.04506 0.25134 0.63845
 C1011 C 0.06923 0.73208 0.40630
 C1012 C 0.09081 0.73735 0.39680
 C1013 C 0.09583 0.73101 0.37393
 C1014 C 0.07919 0.71960 0.36055
 C1015 C 0.05717 0.71448 0.36980
 C1016 C 0.05259 0.72073 0.39301
 C1017 C 0.10752 0.74954 0.41064
 C1018 C 0.12080 0.75993 0.42290
 C1019 C 0.13550 0.77226 0.43798
 C1020 C 0.14734 0.78290 0.45144
 H1021 H 0.06522 0.73674 0.42406
 H1022 H 0.11249 0.73506 0.36638
 H1023 H 0.08333 0.71538 0.34272
 H1024 H 0.03625 0.71642 0.40110
 C1025 C 0.62452 0.90541 0.73273
 C1026 C 0.60136 0.91006 0.73790
 C1027 C 0.59165 0.93116 0.73137
 C1028 C 0.60502 0.94764 0.71989
 C1029 C 0.62849 0.94338 0.71474
 C1030 C 0.63799 0.92189 0.72120
 C1031 C 0.58742 0.89347 0.75015
 C1032 C 0.57514 0.88021 0.76052
 C1033 C 0.56008 0.86542 0.77279
 C1034 C 0.54668 0.85343 0.78333
 H1035 H 0.63224 0.88914 0.73778
 H1036 H 0.57369 0.93489 0.73515
 H1037 H 0.59684 0.96361 0.71463
 H1038 H 0.65602 0.91807 0.71791
 C1039 C 0.38874 0.90436 0.28292
 C1040 C 0.39589 0.90849 0.26012
 C1041 C 0.38949 0.92896 0.24904
 C1042 C 0.37637 0.94546 0.26080
 C1043 C 0.36946 0.94183 0.28399
 C1044 C 0.37557 0.92082 0.29475
 C1045 C 0.41066 0.89231 0.24833
 C1046 C 0.42352 0.87937 0.23827
 C1047 C 0.43913 0.86496 0.22626
 C1048 C 0.45290 0.85331 0.21584
 H1049 H 0.39372 0.88861 0.29171
 H1050 H 0.39485 0.93231 0.23134
 H1051 H 0.37146 0.96103 0.25167
 H1052 H 0.37094 0.91750 0.31265
 C1053 C 0.61331 0.09597 0.28413
 C1054 C 0.60540 0.09145 0.26167
 C1055 C 0.61092 0.07054 0.25096
 C1056 C 0.62386 0.05397 0.26278
 C1057 C 0.63145 0.05794 0.28570
 C1058 C 0.62633 0.07943 0.29602
 C1059 C 0.59075 0.10772 0.24986
 C1060 C 0.57796 0.12069 0.23975
 C1061 C 0.56244 0.13513 0.22769
 C1062 C 0.54874 0.14682 0.21723
 H1063 H 0.60905 0.11209 0.29263
 H1064 H 0.60500 0.06691 0.23352
 H1065 H 0.62811 0.03807 0.25389
 H1066 H 0.63156 0.08309 0.31367
 C1067 C 0.37164 0.09384 0.73714
 C1068 C 0.39578 0.09197 0.73716
 C1069 C 0.40644 0.07366 0.72547
 C1070 C 0.39306 0.05717 0.71402
 C1071 C 0.36885 0.05876 0.71421
 C1072 C 0.35821 0.07732 0.72566
 C1073 C 0.40976 0.10833 0.74964
 C1074 C 0.42206 0.12142 0.76019
 C1075 C 0.43713 0.13601 0.77265
 C1076 C 0.45057 0.14780 0.78337
 H1077 H 0.36322 0.10792 0.74615
 H1078 H 0.42510 0.07204 0.72538
 H1079 H 0.40154 0.04304 0.70513
 H1080 H 0.33955 0.07881 0.72592
 C1081 C 0.61575 0.75203 0.07589
 C1082 C 0.60423 0.73978 0.09336
 C1083 C 0.60635 0.71574 0.09455
 C1084 C 0.61962 0.70395 0.07809
 C1085 C 0.63084 0.71613 0.06028
 C1086 C 0.62901 0.74028 0.05944
 C1087 C 0.58931 0.75181 0.10926
 C1088 C 0.57636 0.76204 0.12201
 C1089 C 0.56068 0.77419 0.13624
 C1090 C 0.54687 0.78471 0.14778
 H1091 H 0.61415 0.77062 0.07476
 H1092 H 0.59742 0.70609 0.10792
 H1093 H 0.62077 0.68532 0.07892
 H1094 H 0.63756 0.74993 0.04583
 C1095 C 0.41041 0.27362 0.07492
 C1096 C 0.40024 0.26327 0.09435
 C1097 C 0.37631 0.26484 0.09773
 C1098 C 0.36258 0.27655 0.08159
 C1099 C 0.37270 0.28673 0.06194
 C1100 C 0.39673 0.28530 0.05881
 C1101 C 0.41447 0.25060 0.11037
 C1102 C 0.42695 0.23989 0.12317
 C1103 C 0.44218 0.22725 0.13745
 C1104 C 0.45569 0.21640 0.14901
 H1105 H 0.42890 0.27249 0.07213
 H1106 H 0.36826 0.25686 0.11268
 H1107 H 0.34406 0.27745 0.08422
 H1108 H 0.40483 0.29310 0.04380
 C1109 C 0.61353 0.24906 0.92339
 C1110 C 0.60142 0.26136 0.90640
 C1111 C 0.60310 0.28546 0.90554
 C1112 C 0.61655 0.29723 0.92184
 C1113 C 0.62837 0.28499 0.93918
 C1114 C 0.62698 0.26081 0.93969
 C1115 C 0.58643 0.24931 0.89059
 C1116 C 0.57345 0.23908 0.87788
 C1117 C 0.55778 0.22694 0.86364
 C1118 C 0.54399 0.21644 0.85207
 H1119 H 0.61229 0.23043 0.92426
 H1120 H 0.59374 0.29515 0.89252
 H1121 H 0.61742 0.31589 0.92124
 H1122 H 0.63604 0.25112 0.95291
 C1123 C 0.40974 0.72373 0.92446
 C1124 C 0.39919 0.73511 0.90587
 C1125 C 0.37508 0.73467 0.90361
 C1126 C 0.36156 0.72312 0.92008
 C1127 C 0.37209 0.71198 0.93895
 C1128 C 0.39628 0.71221 0.94091
 C1129 C 0.41322 0.74786 0.88971
 C1130 C 0.42557 0.75868 0.87685
 C1131 C 0.44069 0.77149 0.86257
 C1132 C 0.45412 0.78251 0.85104
 H1133 H 0.42836 0.72399 0.92641
 H1134 H 0.36674 0.74348 0.88932
 H1135 H 0.34293 0.72316 0.91836
 H1136 H 0.40467 0.70366 0.95532
 C1137 C 0.71605 0.90489 0.39449
 C1138 C 0.74002 0.90663 0.39746
 C1139 C 0.75225 0.92442 0.38651
 C1140 C 0.74054 0.94062 0.37296
 C1141 C 0.71646 0.93922 0.37028
 C1142 C 0.70432 0.92110 0.38093
 C1143 C 0.75195 0.89093 0.41263
 C1144 C 0.76211 0.87833 0.42576
 C1145 C 0.77420 0.86424 0.44160
 C1146 C 0.78466 0.85278 0.45552
 H1147 H 0.70641 0.89126 0.40297
 H1148 H 0.77077 0.92598 0.38876
 H1149 H 0.75017 0.95448 0.36485
 H1150 H 0.68573 0.91983 0.37913
 C1151 C 0.26358 0.90391 0.62426
 C1152 C 0.26303 0.90643 0.60011
 C1153 C 0.27421 0.92517 0.58966
 C1154 C 0.28570 0.94145 0.60327
 C1155 C 0.28610 0.93919 0.62750
 C1156 C 0.27510 0.92022 0.63792
 C1157 C 0.25049 0.89029 0.58591
 C1158 C 0.23989 0.87739 0.57345
 C1159 C 0.22737 0.86302 0.55820
 C1160 C 0.21661 0.85139 0.54466
 H1161 H 0.25494 0.88950 0.63252
 H1162 H 0.27386 0.92731 0.57100
 H1163 H 0.29415 0.95594 0.59495
 H1164 H 0.27521 0.91826 0.65660
 C1165 C 0.28388 0.09390 0.39456
 C1166 C 0.25973 0.09290 0.39601
 C1167 C 0.24764 0.07581 0.38386
 C1168 C 0.25965 0.05957 0.37061
 C1169 C 0.28389 0.06021 0.36947
 C1170 C 0.29591 0.07764 0.38132
 C1171 C 0.24742 0.10863 0.41086
 C1172 C 0.23702 0.12129 0.42376
 C1173 C 0.22477 0.13549 0.43939
 C1174 C 0.21424 0.14704 0.45319
 H1175 H 0.29341 0.10699 0.40397
 H1176 H 0.22897 0.07483 0.38492
 H1177 H 0.25012 0.04626 0.36153
 H1178 H 0.31461 0.07835 0.38064
 C1179 C 0.73748 0.09579 0.62500
 C1180 C 0.73754 0.09336 0.60083
 C1181 C 0.72567 0.07497 0.59054
 C1182 C 0.71400 0.05893 0.60433
 C1183 C 0.71414 0.06109 0.62857
 C1184 C 0.72579 0.07973 0.63884
 C1185 C 0.75026 0.10922 0.58646
 C1186 C 0.76101 0.12191 0.57388
 C1187 C 0.77368 0.13608 0.55854
 C1188 C 0.78455 0.14757 0.54494
 H1189 H 0.74664 0.10994 0.63314
 H1190 H 0.72562 0.07290 0.57187
 H1191 H 0.70502 0.04470 0.59614
 H1192 H 0.72605 0.08162 0.65752
 C1193 C 0.92522 0.59103 0.27316
 C1194 C 0.90599 0.60131 0.26271
 C1195 C 0.90287 0.62524 0.26419
 C1196 C 0.91909 0.63885 0.27591
 C1197 C 0.93856 0.62860 0.28618
 C1198 C 0.94141 0.60458 0.28485
 C1199 C 0.88991 0.58720 0.25000
 C1200 C 0.87708 0.57478 0.23927
 C1201 C 0.86282 0.55957 0.22660
 C1202 C 0.85130 0.54604 0.21573
 H1203 H 0.92782 0.57255 0.27210
 H1204 H 0.88807 0.63338 0.25612
 H1205 H 0.91667 0.65736 0.27673
 H1206 H 0.95628 0.59639 0.29273
 C1207 C 0.92337 0.38450 0.75177
 C1208 C 0.90612 0.39598 0.73927
 C1209 C 0.90508 0.39367 0.71512
 C1210 C 0.92147 0.38023 0.70347
 C1211 C 0.93907 0.36905 0.71589
 C1212 C 0.93976 0.37107 0.74015
 C1213 C 0.89028 0.41104 0.75115
 C1214 C 0.87756 0.42409 0.76126
 C1215 C 0.86333 0.43984 0.77328
 C1216 C 0.85176 0.45369 0.78370
 H1217 H 0.92439 0.38624 0.77044
 H1218 H 0.89187 0.40256 0.70527
 H1219 H 0.92075 0.37893 0.68475
 H1220 H 0.95321 0.36255 0.74999
 C1221 C 0.07483 0.58942 0.72586
 C1222 C 0.09352 0.59973 0.73727
 C1223 C 0.09616 0.62376 0.73669
 C1224 C 0.08002 0.63742 0.72496
 C1225 C 0.06108 0.62714 0.71376
 C1226 C 0.05871 0.60303 0.71416
 C1227 C 0.10946 0.58555 0.75005
 C1228 C 0.12220 0.57310 0.76085
 C1229 C 0.13642 0.55790 0.77357
 C1230 C 0.14796 0.54440 0.78447
 H1231 H 0.07259 0.57086 0.72622
 H1232 H 0.11053 0.63192 0.74550
 H1233 H 0.08206 0.65600 0.72487
 H1234 H 0.04424 0.59481 0.70556
 C1235 C 0.07496 0.41075 0.27602
 C1236 C 0.09361 0.40040 0.26455
 C1237 C 0.09596 0.37634 0.26476
 C1238 C 0.07955 0.36268 0.27618
 C1239 C 0.06065 0.37300 0.28742
 C1240 C 0.05858 0.39714 0.28740
 C1241 C 0.10975 0.41460 0.25199
 C1242 C 0.12262 0.42706 0.24133
 C1243 C 0.13693 0.44229 0.22871
 C1244 C 0.14848 0.45581 0.21782
 H1245 H 0.07295 0.42933 0.27593
 H1246 H 0.11029 0.36816 0.25589
 H1247 H 0.08136 0.34408 0.27598
 H1248 H 0.04414 0.40538 0.29603
   
