data_POSCAR
  _audit_creation_date              2014-09-24
  _audit_creation_method            'ToBaCCo'
  _symmetry_space_group_name_H-M    'P1'
  _symmetry_Int_Tables_number       1
  _symmetry_cell_setting            triclinic
  loop_
  _symmetry_equiv_pos_as_xyz
 x,y,z
_cell_length_a 67.4676
_cell_length_b 68.0518
_cell_length_c 58.1675
_cell_angle_alpha 89.268300
_cell_angle_beta 89.211800
_cell_angle_gamma 89.976900
loop_
  _atom_site_label
  _atom_site_type_symbol
  _atom_site_fract_x
  _atom_site_fract_y
  _atom_site_fract_z
C1 C 0.33727 -0.02796 0.25288
 C2 C 0.34662 -0.01153 0.24269
 C3 C 0.35900 -0.01395 0.22343
 C4 C 0.36285 -0.03270 0.21479
 C5 C 0.35391 -0.04912 0.22544
 C6 C 0.34075 -0.04706 0.24442
 C7 C 0.34588 0.00784 0.25383
 C8 C 0.35577 0.01026 0.27465
 C9 C 0.35865 0.02909 0.28395
 C10 C 0.35065 0.04538 0.27207
 C11 C 0.34004 0.04305 0.25167
 C12 C 0.33780 0.02424 0.24249
 H13 H 0.32821 -0.02583 0.26816
 H14 H 0.36643 -0.00127 0.21583
 H15 H 0.36263 -0.00254 0.28242
 H16 H 0.33030 0.02243 0.22630
 H17 H 0.35647 -0.06337 0.21788
 H18 H 0.35180 0.05998 0.27910
 C19 C 0.17139 -0.01750 0.74424
 C20 C 0.16150 -0.00226 0.75572
 C21 C 0.15143 -0.00624 0.77648
 C22 C 0.15037 -0.02546 0.78537
 C23 C 0.16001 -0.04066 0.77363
 C24 C 0.17077 -0.03672 0.75326
 C25 C 0.15908 0.01719 0.74468
 C26 C 0.14794 0.01872 0.72463
 C27 C 0.14244 0.03720 0.71543
 C28 C 0.14906 0.05418 0.72665
 C29 C 0.16087 0.05280 0.74636
 C30 C 0.16560 0.03422 0.75546
 H31 H 0.17896 -0.01455 0.72801
 H32 H 0.14337 0.00546 0.78497
 H33 H 0.14222 0.00528 0.71747
 H34 H 0.17410 0.03299 0.77109
 H35 H 0.15926 -0.05555 0.78044
 H36 H 0.14599 0.06860 0.71947
 C37 C 0.65822 0.47427 0.25334
 C38 C 0.64674 0.48978 0.26191
 C39 C 0.63353 0.48644 0.28032
 C40 C 0.63157 0.46762 0.29021
 C41 C 0.64315 0.45218 0.28160
 C42 C 0.65642 0.45539 0.26308
 C43 C 0.64685 0.50903 0.25024
 C44 C 0.63663 0.51133 0.22962
 C45 C 0.63472 0.52993 0.21924
 C46 C 0.64336 0.54626 0.22961
 C47 C 0.65422 0.54399 0.24995
 C48 C 0.65580 0.52532 0.26030
 H49 H 0.66801 0.47677 0.23866
 H50 H 0.62453 0.49846 0.28666
 H51 H 0.62962 0.49868 0.22201
 H52 H 0.66371 0.52351 0.27628
 H53 H 0.64157 0.43756 0.28901
 H54 H 0.64217 0.56061 0.22145
 C55 C 0.83244 0.46649 0.75860
 C56 C 0.84126 0.48337 0.74889
 C57 C 0.85272 0.48189 0.72869
 C58 C 0.85603 0.46354 0.71855
 C59 C 0.84734 0.44672 0.72855
 C60 C 0.83536 0.44810 0.74842
 C61 C 0.84108 0.50202 0.76149
 C62 C 0.85237 0.50342 0.78143
 C63 C 0.85510 0.52156 0.79253
 C64 C 0.84552 0.53823 0.78310
 C65 C 0.83402 0.53694 0.76317
 C66 C 0.83188 0.51877 0.75240
 H67 H 0.82389 0.46756 0.77445
 H68 H 0.85994 0.49488 0.72158
 H69 H 0.86028 0.49038 0.78688
 H70 H 0.82363 0.51778 0.73660
 H71 H 0.84966 0.43255 0.72066
 H72 H 0.84643 0.55233 0.79137
 C73 C 0.25471 0.38623 1.02730
 C74 C 0.26256 0.39624 1.00811
 C75 C 0.28080 0.40568 1.00946
 C76 C 0.29166 0.40515 1.02982
 C77 C 0.28365 0.39522 1.04920
 C78 C 0.26513 0.38540 1.04821
 C79 C 0.25212 0.39641 0.98609
 C80 C 0.23447 0.40697 0.98356
 C81 C 0.22504 0.40780 0.96220
 C82 C 0.23340 0.39778 0.94345
 C83 C 0.25116 0.38716 0.94586
 C84 C 0.26045 0.38662 0.96726
 H85 H 0.24026 0.37952 1.02578
 H86 H 0.28645 0.41360 0.99448
 H87 H 0.22812 0.41456 0.99819
 H88 H 0.27431 0.37876 0.96928
 H89 H 0.29258 0.39415 1.06447
 H90 H 0.22606 0.39822 0.92700
 C91 C 0.75570 0.10827 1.03478
 C92 C 0.74772 0.09792 1.01644
 C93 C 0.72983 0.08782 1.01944
 C94 C 0.71992 0.08767 1.04081
 C95 C 0.72801 0.09819 1.05916
 C96 C 0.74587 0.10896 1.05636
 C97 C 0.75801 0.09811 0.99391
 C98 C 0.77660 0.08913 0.99145
 C99 C 0.78703 0.08987 0.97030
 C100 C 0.77831 0.09984 0.95160
 C101 C 0.75954 0.10872 0.95383
 C102 C 0.74948 0.10772 0.97508
 H103 H 0.76985 0.11547 1.03201
 H104 H 0.72358 0.08018 1.00500
 H105 H 0.78264 0.08129 1.00607
 H106 H 0.73502 0.11450 0.97706
 H107 H 0.71980 0.09851 1.07525
 H108 H 0.78632 0.10121 0.93541
 C109 C 0.24704 0.61060 0.53588
 C110 C 0.23973 0.60015 0.51726
 C111 C 0.22189 0.58980 0.51965
 C112 C 0.21138 0.58957 0.54072
 C113 C 0.21877 0.60040 0.55924
 C114 C 0.23652 0.61116 0.55685
 C115 C 0.25076 0.60060 0.49521
 C116 C 0.27010 0.59322 0.49411
 C117 C 0.28174 0.59533 0.47397
 C118 C 0.27345 0.60481 0.45469
 C119 C 0.25395 0.61222 0.45558
 C120 C 0.24265 0.60984 0.47589
 H121 H 0.26088 0.61856 0.53386
 H122 H 0.21620 0.58200 0.50502
 H123 H 0.27599 0.58583 0.50913
 H124 H 0.22771 0.61566 0.47693
 H125 H 0.21063 0.60064 0.57541
 H126 H 0.28241 0.60723 0.43933
 C127 C 0.73617 0.89856 0.52265
 C128 C 0.74276 0.91003 0.50405
 C129 C 0.75912 0.92234 0.50640
 C130 C 0.76977 0.92301 0.52716
 C131 C 0.76268 0.91140 0.54594
 C132 C 0.74611 0.89897 0.54367
 C133 C 0.73354 0.90809 0.48142
 C134 C 0.71591 0.91795 0.47647
 C135 C 0.70722 0.91624 0.45477
 C136 C 0.71633 0.90430 0.43812
 C137 C 0.73410 0.89429 0.44297
 C138 C 0.74265 0.89643 0.46467
 H139 H 0.72351 0.88898 0.52053
 H140 H 0.76311 0.93155 0.49178
 H141 H 0.70891 0.92683 0.48962
 H142 H 0.75646 0.88905 0.46861
 H143 H 0.77080 0.91066 0.56182
 H144 H 0.70953 0.90270 0.42149
 C145 C -0.02385 0.23732 0.36567
 C146 C -0.00727 0.23787 0.37979
 C147 C -0.00453 0.22337 0.39668
 C148 C -0.01844 0.20814 0.40004
 C149 C -0.03512 0.20784 0.38561
 C150 C -0.03821 0.22238 0.36840
 C151 C 0.00628 0.25477 0.37866
 C152 C 0.00248 0.27100 0.39261
 C153 C 0.01600 0.28662 0.39333
 C154 C 0.03328 0.28590 0.37964
 C155 C 0.03729 0.26968 0.36554
 C156 C 0.02358 0.25414 0.36509
 H157 H -0.02594 0.24937 0.35362
 H158 H 0.00796 0.22486 0.40801
 H159 H -0.01072 0.27115 0.40344
 H160 H 0.02665 0.24125 0.35488
 H161 H -0.04502 0.19539 0.38671
 H162 H 0.04358 0.29811 0.37987
 C163 C -0.02648 0.75408 0.13345
 C164 C -0.01047 0.75184 0.11812
 C165 C -0.00735 0.76552 0.10033
 C166 C -0.02001 0.78167 0.09773
 C167 C -0.03609 0.78382 0.11310
 C168 C -0.03984 0.76999 0.13107
 C169 C 0.00295 0.73489 0.12012
 C170 C 0.00080 0.71896 0.10533
 C171 C 0.01504 0.70374 0.10459
 C172 C 0.03147 0.70510 0.11932
 C173 C 0.03359 0.72094 0.13434
 C174 C 0.01912 0.73570 0.13484
 H175 H -0.02886 0.74268 0.14631
 H176 H 0.00498 0.76349 0.08844
 H177 H -0.01141 0.71928 0.09345
 H178 H 0.02099 0.74834 0.14576
 H179 H -0.04500 0.79697 0.11153
 H180 H 0.04251 0.69358 0.11987
 C181 C 0.47442 0.25963 0.63069
 C182 C 0.49278 0.26118 0.61932
 C183 C 0.49714 0.27777 0.60569
 C184 C 0.48305 0.29276 0.60302
 C185 C 0.46473 0.29115 0.61463
 C186 C 0.46029 0.27464 0.62847
 C187 C 0.50656 0.24450 0.61954
 C188 C 0.50259 0.22828 0.60580
 C189 C 0.51606 0.21267 0.60446
 C190 C 0.53338 0.21324 0.61751
 C191 C 0.53750 0.22940 0.63153
 C192 C 0.52397 0.24510 0.63236
 H193 H 0.47094 0.24648 0.64065
 H194 H 0.51116 0.27855 0.59640
 H195 H 0.48927 0.22814 0.59558
 H196 H 0.52710 0.25791 0.64257
 H197 H 0.45395 0.30288 0.61305
 H198 H 0.54353 0.20091 0.61695
 C199 C 0.47729 0.74015 0.86388
 C200 C 0.49486 0.73950 0.87634
 C201 C 0.49878 0.72343 0.89086
 C202 C 0.48505 0.70788 0.89360
 C203 C 0.46731 0.70895 0.88097
 C204 C 0.46340 0.72488 0.86605
 C205 C 0.50859 0.75631 0.87572
 C206 C 0.50536 0.77205 0.89061
 C207 C 0.51921 0.78738 0.89182
 C208 C 0.53620 0.78691 0.87763
 C209 C 0.53957 0.77127 0.86249
 C210 C 0.52562 0.75596 0.86163
 H211 H 0.47422 0.75281 0.85300
 H212 H 0.51212 0.72385 0.90097
 H213 H 0.49237 0.77202 0.90178
 H214 H 0.52827 0.74350 0.85059
 H215 H 0.45676 0.69698 0.88177
 H216 H 0.54674 0.79890 0.87819
 C217 C -0.26862 0.59375 1.00048
 C218 C -0.25324 0.60565 1.00853
 C219 C -0.25691 0.61884 1.02637
 C220 C -0.27587 0.62028 1.03630
 C221 C -0.29123 0.60869 1.02785
 C222 C -0.28803 0.59553 1.00958
 C223 C -0.23438 0.60702 0.99561
 C224 C -0.23276 0.62096 0.97783
 C225 C -0.21524 0.62290 0.96448
 C226 C -0.19912 0.61058 0.97002
 C227 C -0.20063 0.59645 0.98785
 C228 C -0.21830 0.59483 1.00076
 H229 H -0.26570 0.58446 0.98583
 H230 H -0.24505 0.62819 1.03222
 H231 H -0.24525 0.63065 0.97503
 H232 H -0.21967 0.58388 1.01438
 H233 H -0.30576 0.60993 1.03583
 H234 H -0.18559 0.61110 0.95984
 C235 C -0.27778 0.40507 0.50568
 C236 C -0.26186 0.39422 0.49655
 C237 C -0.26503 0.38116 0.47857
 C238 C -0.28400 0.37875 0.46958
 C239 C -0.29986 0.38941 0.47894
 C240 C -0.29715 0.40258 0.49724
 C241 C -0.24218 0.39475 0.50715
 C242 C -0.23878 0.38327 0.52687
 C243 C -0.21956 0.38109 0.53543
 C244 C -0.20374 0.39075 0.52423
 C245 C -0.20705 0.40283 0.50487
 C246 C -0.22635 0.40473 0.49632
 H247 H -0.27513 0.41450 0.52018
 H248 H -0.25270 0.37277 0.47168
 H249 H -0.25100 0.37539 0.53502
 H250 H -0.22894 0.41347 0.48095
 H251 H -0.31433 0.38763 0.47141
 H252 H -0.18890 0.38923 0.53094
 C253 C 0.22629 -0.08986 0.00802
 C254 C 0.24302 -0.09737 -0.00340
 C255 C 0.24080 -0.10728 -0.02419
 C256 C 0.22186 -0.11070 -0.03338
 C257 C 0.20523 -0.10329 -0.02137
 C258 C 0.20737 -0.09267 -0.00099
 C259 C 0.26254 -0.09745 0.00775
 C260 C 0.26472 -0.10772 0.02857
 C261 C 0.28360 -0.11114 0.03796
 C262 C 0.30028 -0.10341 0.02609
 C263 C 0.29816 -0.09222 0.00575
 C264 C 0.27925 -0.08948 -0.00348
 H265 H 0.22795 -0.08234 0.02420
 H266 H 0.25388 -0.11373 -0.03201
 H267 H 0.25166 -0.11443 0.03634
 H268 H 0.27758 -0.08155 -0.01961
 H269 H 0.19052 -0.10486 -0.02833
 H270 H 0.31494 -0.10509 0.03322
 C271 C 0.22089 1.09213 0.50568
 C272 C 0.23657 1.10333 0.51416
 C273 C 0.23329 1.11590 0.53274
 C274 C 0.21440 1.11750 0.54288
 C275 C 0.19883 1.10620 0.53438
 C276 C 0.20193 1.09361 0.51572
 C277 C 0.25607 1.10349 0.50254
 C278 C 0.25875 1.11465 0.48234
 C279 C 0.27781 1.11755 0.47252
 C280 C 0.29407 1.10861 0.48357
 C281 C 0.29136 1.09682 0.50341
 C282 C 0.27231 1.09442 0.51288
 H283 H 0.22330 1.08281 0.49093
 H284 H 0.24541 1.12472 0.53897
 H285 H 0.24596 1.12214 0.47535
 H286 H 0.27019 1.08592 0.52861
 H287 H 0.18410 1.10760 0.54187
 H288 H 0.30885 1.10982 0.47618
 C289 C 0.14317 0.49747 0.22555
 C290 C 0.15553 0.50552 0.24218
 C291 C 0.16386 0.52416 0.23846
 C292 C 0.15981 0.53500 0.21833
 C293 C 0.14675 0.52711 0.20222
 C294 C 0.13842 0.50837 0.20575
 C295 C 0.15792 0.49543 0.26453
 C296 C 0.16774 0.47735 0.26612
 C297 C 0.16884 0.46726 0.28733
 C298 C 0.15959 0.47533 0.30690
 C299 C 0.14909 0.49318 0.30527
 C300 C 0.14896 0.50338 0.28413
 H301 H 0.13642 0.48321 0.22860
 H302 H 0.17313 0.53040 0.25156
 H303 H 0.17443 0.47113 0.25081
 H304 H 0.14111 0.51723 0.28260
 H305 H 0.14328 0.53538 0.18675
 H306 H 0.15946 0.46707 0.32295
 C307 C -0.14569 1.00281 0.21753
 C308 C -0.15424 0.99550 0.23793
 C309 C -0.16475 0.97782 0.23807
 C310 C -0.16756 0.96744 0.21761
 C311 C -0.15966 0.97560 0.19702
 C312 C -0.14786 0.99282 0.19661
 C313 C -0.15238 1.00657 0.25932
 C314 C -0.16187 1.02474 0.26138
 C315 C -0.16114 1.03547 0.28196
 C316 C -0.14999 1.02749 0.30024
 C317 C -0.14027 1.00928 0.29817
 C318 C -0.14162 0.99885 0.27768
 H319 H -0.13672 1.01588 0.21872
 H320 H -0.17018 0.97215 0.25443
 H321 H -0.16944 1.03052 0.24646
 H322 H -0.13444 0.98467 0.27605
 H323 H -0.16389 0.96902 0.18106
 H324 H -0.14926 1.03495 0.31651
 C325 C 0.35025 0.50943 -0.27277
 C326 C 0.33707 0.50179 -0.25610
 C327 C 0.32669 0.48442 -0.26026
 C328 C 0.32948 0.47450 -0.28107
 C329 C 0.34311 0.48205 -0.29742
 C330 C 0.35394 0.49937 -0.29341
 C331 C 0.33606 0.51102 -0.23338
 C332 C 0.32545 0.52851 -0.23036
 C333 C 0.32690 0.53930 -0.20981
 C334 C 0.33945 0.53183 -0.19249
 C335 C 0.35020 0.51435 -0.19551
 C336 C 0.34815 0.50383 -0.21584
 H337 H 0.35877 0.52236 -0.26860
 H338 H 0.31694 0.47837 -0.24701
 H339 H 0.31722 0.53420 -0.24484
 H340 H 0.35698 0.49075 -0.21868
 H341 H 0.34478 0.47462 -0.31368
 H342 H 0.34081 0.53925 -0.17626
 C343 C 0.64259 -0.00667 -0.28870
 C344 C 0.65320 0.00144 -0.27057
 C345 C 0.66386 0.01885 -0.27406
 C346 C 0.66416 0.02822 -0.29567
 C347 C 0.65352 0.01998 -0.31378
 C348 C 0.64235 0.00254 -0.31061
 C349 C 0.65337 -0.00858 -0.24797
 C350 C 0.66314 -0.02660 -0.24554
 C351 C 0.66343 -0.03649 -0.22421
 C352 C 0.65335 -0.02824 -0.20532
 C353 C 0.64326 -0.01020 -0.20758
 C354 C 0.64358 -0.00035 -0.22900
 H355 H 0.63499 -0.02048 -0.28561
 H356 H 0.67180 0.02517 -0.25986
 H357 H 0.67042 -0.03297 -0.26041
 H358 H 0.63607 0.01364 -0.23102
 H359 H 0.65338 0.02784 -0.33006
 H360 H 0.65321 -0.03596 -0.18892
 C361 C -0.01278 0.21950 0.89987
 C362 C -0.01341 0.23661 0.88633
 C363 C -0.02881 0.23943 0.87080
 C364 C -0.04355 0.22507 0.86845
 C365 C -0.04278 0.20786 0.88207
 C366 C -0.02742 0.20495 0.89790
 C367 C 0.00293 0.25081 0.88707
 C368 C 0.02066 0.24673 0.87520
 C369 C 0.03633 0.26022 0.87517
 C370 C 0.03406 0.27782 0.88721
 C371 C 0.01630 0.28223 0.89896
 C372 C 0.00073 0.26854 0.89894
 H373 H -0.00080 0.21760 0.91190
 H374 H -0.02892 0.25254 0.86002
 H375 H 0.02220 0.23304 0.86601
 H376 H -0.01314 0.27177 0.90770
 H377 H -0.05404 0.19668 0.88019
 H378 H 0.04611 0.28834 0.88712
 C379 C 0.51117 0.22419 0.10797
 C380 C 0.51226 0.24178 0.12019
 C381 C 0.52842 0.24527 0.13440
 C382 C 0.54339 0.23114 0.13693
 C383 C 0.54207 0.21344 0.12490
 C384 C 0.52609 0.20992 0.11025
 C385 C 0.49609 0.25623 0.11933
 C386 C 0.47967 0.25403 0.13408
 C387 C 0.46487 0.26852 0.13497
 C388 C 0.46668 0.28528 0.12069
 C389 C 0.48306 0.28758 0.10558
 C390 C 0.49775 0.27292 0.10513
 H391 H 0.49852 0.22145 0.09719
 H392 H 0.52901 0.25882 0.14396
 H393 H 0.47876 0.24124 0.14535
 H394 H 0.51050 0.27437 0.09370
 H395 H 0.55369 0.20254 0.12654
 H396 H 0.45535 0.29654 0.12138
 C397 C 0.01330 0.72361 0.60361
 C398 C 0.01423 0.74164 0.61487
 C399 C 0.03081 0.74619 0.62802
 C400 C 0.04627 0.73258 0.63057
 C401 C 0.04516 0.71446 0.61933
 C402 C 0.02883 0.70997 0.60560
 C403 C -0.00274 0.75519 0.61459
 C404 C -0.01983 0.75053 0.62755
 C405 C -0.03526 0.76433 0.63016
 C406 C -0.03349 0.78245 0.61828
 C407 C -0.01660 0.78714 0.60492
 C408 C -0.00115 0.77345 0.60331
 H409 H 0.00030 0.72005 0.59374
 H410 H 0.03123 0.76001 0.63706
 H411 H -0.02021 0.73669 0.63693
 H412 H 0.01227 0.77709 0.59373
 H413 H 0.05716 0.70397 0.62099
 H414 H -0.04567 0.79280 0.61861
 C415 C 0.48902 0.72997 0.38666
 C416 C 0.48671 0.74680 0.37298
 C417 C 0.46984 0.74906 0.35956
 C418 C 0.45520 0.73440 0.35950
 C419 C 0.45761 0.71748 0.37334
 C420 C 0.47450 0.71520 0.38705
 C421 C 0.50260 0.76146 0.37161
 C422 C 0.51946 0.75767 0.35815
 C423 C 0.53464 0.77165 0.35607
 C424 C 0.53278 0.78954 0.36768
 C425 C 0.51609 0.79324 0.38168
 C426 C 0.50097 0.77914 0.38352
 H427 H 0.50213 0.72850 0.39711
 H428 H 0.46842 0.76200 0.34864
 H429 H 0.52060 0.74392 0.34902
 H430 H 0.48791 0.78195 0.39404
 H431 H 0.44638 0.70611 0.37337
 H432 H 0.54458 0.80031 0.36644
 B433 B -0.01966 -0.00386 1.00805
 B434 B -0.02488 -0.00504 0.97979
 B435 B -0.00821 0.01133 0.98924
 B436 B 0.00472 0.00094 1.01093
 B437 B -0.00424 -0.02226 1.01488
 B438 B -0.02264 -0.02595 0.99550
 B439 B 0.01157 -0.01952 0.97130
 B440 B 0.01679 -0.01843 0.99943
 B441 B -0.00001 -0.03472 0.99032
 B442 B -0.01282 -0.02430 0.96839
 B443 B -0.00382 -0.00095 0.96452
 B444 B 0.01463 0.00243 0.98389
 B445 B 0.48756 0.51943 0.52564
 B446 B 0.47754 0.51638 0.49928
 B447 B 0.49726 0.53137 0.50260
 B448 B 0.51249 0.52129 0.52235
 B449 B 0.50188 0.49976 0.53138
 B450 B 0.48008 0.49692 0.51736
 B451 B 0.51017 0.49689 0.48542
 B452 B 0.52018 0.49961 0.51146
 B453 B 0.50036 0.48496 0.50849
 B454 B 0.48533 0.49497 0.48860
 B455 B 0.49603 0.51652 0.47947
 B456 B 0.51776 0.51922 0.49380
 B457 B 0.51050 0.99166 0.50911
 B458 B 0.51632 0.99727 0.48136
 B459 B 0.49767 0.98147 0.48767
 B460 B 0.48555 0.98921 0.51153
 B461 B 0.49699 1.01021 0.51998
 B462 B 0.51622 1.01502 0.50145
 B463 B 0.48182 1.01680 0.47718
 B464 B 0.47600 1.01148 0.50472
 B465 B 0.49478 1.02703 0.49858
 B466 B 0.50670 1.01931 0.47471
 B467 B 0.49526 0.99836 0.46624
 B468 B 0.47607 0.99352 0.48502
 B469 B 0.02159 0.49069 1.01159
 B470 B 0.03283 0.49353 0.98578
 B471 B 0.01485 0.47665 0.98927
 B472 B -0.00261 0.48556 1.00744
 B473 B 0.00471 0.50867 1.01492
 B474 B 0.02689 0.51342 1.00144
 B475 B -0.00092 0.50855 0.96836
 B476 B -0.01226 0.50533 0.99417
 B477 B 0.00575 0.52256 0.99058
 B478 B 0.02326 0.51352 0.97244
 B479 B 0.01599 0.49062 0.96510
 B480 B -0.00613 0.48562 0.97842
 B481 B 0.01436 0.50648 0.48964
 B482 B 0.02136 0.50104 0.51683
 B483 B 0.00310 0.51750 0.51203
 B484 B -0.01050 0.50993 0.48960
 B485 B -0.00043 0.48829 0.48060
 B486 B 0.01952 0.48300 0.49728
 B487 B -0.01365 0.48300 0.52488
 B488 B -0.02063 0.48817 0.49788
 B489 B -0.00225 0.47190 0.50250
 B490 B 0.01121 0.47946 0.52497
 B491 B 0.00108 0.50098 0.53404
 B492 B -0.01876 0.50645 0.51708
 B493 B 0.52126 0.00852 -0.01309
 B494 B 0.52829 0.00349 0.01424
 B495 B 0.50943 0.01922 0.00918
 B496 B 0.49626 0.01100 -0.01326
 B497 B 0.50725 -0.01022 -0.02211
 B498 B 0.52726 -0.01472 -0.00523
 B499 B 0.49395 -0.01586 0.02215
 B500 B 0.48696 -0.01108 -0.00497
 B501 B 0.50590 -0.02661 -0.00013
 B502 B 0.51890 -0.01844 0.02242
 B503 B 0.50792 0.00277 0.03129
 B504 B 0.48797 0.00728 0.01414
 B505 B 0.49314 0.49045 -0.02327
 B506 B 0.48279 0.49271 0.00332
 B507 B 0.50068 0.47571 -0.00164
 B508 B 0.51753 0.48549 -0.02043
 B509 B 0.50985 0.50871 -0.02690
 B510 B 0.48809 0.51294 -0.01251
 B511 B 0.51714 0.50695 0.01911
 B512 B 0.52746 0.50510 -0.00716
 B513 B 0.50942 0.52174 -0.00253
 B514 B 0.49281 0.51203 0.01635
 B515 B 0.50066 0.48875 0.02298
 B516 B 0.52220 0.48457 0.00823
 B517 B -0.02325 0.99865 0.49516
 B518 B -0.03368 1.00039 0.52149
 B519 B -0.01636 0.98318 0.51647
 B520 B 0.00086 0.99255 0.49797
 B521 B -0.00595 1.01613 0.49187
 B522 B -0.02754 1.02097 0.50654
 B523 B 0.00100 1.01325 0.53814
 B524 B 0.01147 1.01138 0.51185
 B525 B -0.00589 1.02872 0.51671
 B526 B -0.02313 1.01931 0.53531
 B527 B -0.01626 0.99573 0.54137
 B528 B 0.00526 0.99085 0.52663
 B529 B 0.76348 0.23703 0.23803
 B530 B 0.75683 0.22725 0.26386
 B531 B 0.77334 0.24582 0.26228
 B532 B 0.76659 0.26155 0.24102
 B533 B 0.74538 0.25246 0.22957
 B534 B 0.73959 0.23101 0.24351
 B535 B 0.73774 0.26065 0.27470
 B536 B 0.74412 0.27047 0.24901
 B537 B 0.72784 0.25173 0.25050
 B538 B 0.73464 0.23614 0.27169
 B539 B 0.75564 0.24537 0.28327
 B540 B 0.76161 0.26679 0.26908
 B541 B 0.73979 0.76209 0.72559
 B542 B 0.74600 0.77116 0.75144
 B543 B 0.72966 0.75249 0.74989
 B544 B 0.73685 0.73746 0.72833
 B545 B 0.75819 0.74703 0.71670
 B546 B 0.76360 0.76814 0.73082
 B547 B 0.76520 0.73755 0.76164
 B548 B 0.75927 0.72844 0.73593
 B549 B 0.77541 0.74725 0.73746
 B550 B 0.76819 0.76218 0.75890
 B551 B 0.74710 0.75248 0.77061
 B552 B 0.74147 0.73146 0.75623
 B553 B 0.25715 0.27511 0.75374
 B554 B 0.24933 0.28282 0.72780
 B555 B 0.26479 0.26343 0.72986
 B556 B 0.25887 0.25030 0.75365
 B557 B 0.23921 0.26164 0.76649
 B558 B 0.23336 0.28198 0.75037
 B559 B 0.22775 0.24963 0.72387
 B560 B 0.23581 0.24189 0.74989
 B561 B 0.22014 0.26118 0.74788
 B562 B 0.22603 0.27444 0.72403
 B563 B 0.24580 0.26317 0.71121
 B564 B 0.25162 0.24282 0.72710
 B565 B 0.23163 0.73551 0.26471
 B566 B 0.23683 0.72863 0.23736
 B567 B 0.22096 0.74734 0.24248
 B568 B 0.22918 0.76033 0.26507
 B569 B 0.25050 0.74934 0.27396
 B570 B 0.25505 0.72955 0.25698
 B571 B 0.25645 0.76260 0.22982
 B572 B 0.25154 0.76951 0.25691
 B573 B 0.26712 0.75064 0.25208
 B574 B 0.25897 0.73791 0.22939
 B575 B 0.23765 0.74889 0.22044
 B576 B 0.23307 0.76861 0.23770
 B577 B 0.26253 0.74046 0.73797
 B578 B 0.25523 0.73333 0.76476
 B579 B 0.27297 0.75061 0.76114
 B580 B 0.26725 0.76489 0.73812
 B581 B 0.24549 0.75622 0.72760
 B582 B 0.23829 0.73646 0.74393
 B583 B 0.23841 0.76874 0.77140
 B584 B 0.24543 0.77587 0.74477
 B585 B 0.22792 0.75842 0.74831
 B586 B 0.23366 0.74432 0.77131
 B587 B 0.25527 0.75308 0.78191
 B588 B 0.26264 0.77277 0.76530
 B589 B 0.24219 0.26611 0.24173
 B590 B 0.24713 0.27239 0.26898
 B591 B 0.23200 0.25325 0.26399
 B592 B 0.24036 0.24127 0.24057
 B593 B 0.26127 0.25310 0.23116
 B594 B 0.26547 0.27255 0.24880
 B595 B 0.26801 0.23884 0.27460
 B596 B 0.26294 0.23249 0.24747
 B597 B 0.27815 0.25158 0.25229
 B598 B 0.26981 0.26366 0.27578
 B599 B 0.24898 0.25181 0.28519
 B600 B 0.24469 0.23239 0.26758
 B601 B 0.76099 0.76273 0.26705
 B602 B 0.75493 0.77313 0.24159
 B603 B 0.77158 0.75465 0.24256
 B604 B 0.76435 0.73834 0.26329
 B605 B 0.74272 0.74702 0.27491
 B606 B 0.73717 0.76874 0.26167
 B607 B 0.73649 0.73988 0.22946
 B608 B 0.74213 0.72951 0.25491
 B609 B 0.72581 0.74817 0.25383
 B610 B 0.73309 0.76429 0.23326
 B611 B 0.75444 0.75549 0.22154
 B612 B 0.76022 0.73376 0.23504
 B613 B 0.73865 0.22462 0.75896
 B614 B 0.74492 0.21853 0.73188
 B615 B 0.72902 0.23717 0.73650
 B616 B 0.73606 0.24938 0.76013
 B617 B 0.75692 0.23810 0.76997
 B618 B 0.76238 0.21881 0.75241
 B619 B 0.76493 0.25268 0.72673
 B620 B 0.75865 0.25877 0.75376
 B621 B 0.77455 0.24010 0.74917
 B622 B 0.76752 0.22793 0.72552
 B623 B 0.74675 0.23921 0.71570
 B624 B 0.74117 0.25844 0.73325
 C625 C 0.39232 1.03606 0.34472
 C626 C 0.38105 1.01903 0.34138
 C627 C 0.37010 1.01671 0.32143
 C628 C 0.36968 1.03159 0.30433
 C629 C 0.38079 1.04887 0.30806
 C630 C 0.39216 1.05093 0.32784
 C631 C 0.40423 1.03793 0.36574
 N632 N 0.42106 1.04893 0.36597
 N633 N 0.43237 1.04928 0.38463
 C634 C 0.42715 1.03881 0.40383
 N635 N 0.41013 1.02817 0.40361
 N636 N 0.39895 1.02770 0.38501
 C637 C 0.44031 1.03727 0.42402
 C638 C 0.43348 1.02715 0.44370
 C639 C 0.44641 1.02197 0.46110
 C640 C 0.46659 1.02727 0.45995
 C641 C 0.47318 1.03875 0.44103
 C642 C 0.46015 1.04369 0.42319
 H643 H 0.38087 1.00729 0.35413
 H644 H 0.36139 1.00345 0.31997
 H645 H 0.38156 1.06053 0.29526
 H646 H 0.40077 1.06420 0.32996
 H647 H 0.41829 1.02211 0.44515
 H648 H 0.44057 1.01268 0.47480
 H649 H 0.48861 1.04290 0.43929
 H650 H 0.46588 1.05155 0.40823
 C651 C -0.10308 0.52455 0.84676
 C652 C -0.11318 0.50704 0.84236
 C653 C -0.12750 0.50630 0.82534
 C654 C -0.13199 0.52300 0.81167
 C655 C -0.12242 0.54086 0.81710
 C656 C -0.10823 0.54159 0.83444
 C657 C -0.08661 0.52450 0.86329
 N658 N -0.08079 0.54116 0.87398
 N659 N -0.06580 0.54075 0.88875
 C660 C -0.05589 0.52372 0.89308
 N661 N -0.06170 0.50718 0.88228
 N662 N -0.07673 0.50754 0.86775
 C663 C -0.03963 0.52263 0.90987
 C664 C -0.02615 0.50699 0.90881
 C665 C -0.01276 0.50369 0.92643
 C666 C -0.01253 0.51585 0.94586
 C667 C -0.02491 0.53252 0.94592
 C668 C -0.03835 0.53588 0.92810
 H669 H -0.10993 0.49376 0.85205
 H670 H -0.13514 0.49248 0.82331
 H671 H -0.12473 0.55416 0.80715
 H672 H -0.10063 0.55532 0.83745
 H673 H -0.02647 0.49673 0.89473
 H674 H -0.00346 0.49078 0.92527
 H675 H -0.02533 0.54224 0.96036
 H676 H -0.04853 0.54814 0.92933
 C677 C 0.11319 -0.03507 0.84499
 C678 C 0.11116 -0.04696 0.82557
 C679 C 0.12375 -0.04435 0.80644
 C680 C 0.13834 -0.02962 0.80630
 C681 C 0.14064 -0.01804 0.82583
 C682 C 0.12831 -0.02083 0.84502
 C683 C 0.09917 -0.03659 0.86473
 N684 N 0.10330 -0.02736 0.88461
 N685 N 0.09017 -0.02708 0.90182
 C686 C 0.07226 -0.03598 0.89999
 N687 N 0.06821 -0.04562 0.88028
 N688 N 0.08143 -0.04593 0.86299
 C689 C 0.05719 -0.03364 0.91855
 C690 C 0.03854 -0.04290 0.91801
 C691 C 0.02409 -0.03905 0.93502
 C692 C 0.02803 -0.02574 0.95270
 C693 C 0.04684 -0.01682 0.95319
 C694 C 0.06118 -0.02086 0.93662
 H695 H 0.09969 -0.05806 0.82505
 H696 H 0.12164 -0.05335 0.79145
 H697 H 0.15185 -0.00666 0.82611
 H698 H 0.13028 -0.01137 0.85964
 H699 H 0.03500 -0.05285 0.90428
 H700 H 0.00978 -0.04613 0.93402
 H701 H 0.05068 -0.00648 0.96638
 H702 H 0.07531 -0.01341 0.93773
 C703 C 0.59056 0.46020 0.34684
 C704 C 0.58444 0.46912 0.32621
 C705 C 0.59768 0.47121 0.30766
 C706 C 0.61718 0.46415 0.30925
 C707 C 0.62303 0.45438 0.32944
 C708 C 0.60989 0.45256 0.34813
 C709 C 0.57760 0.46062 0.36755
 N710 N 0.58570 0.45967 0.38876
 N711 N 0.57459 0.46250 0.40750
 C712 C 0.55488 0.46619 0.40584
 N713 N 0.54661 0.46657 0.38469
 N714 N 0.55778 0.46390 0.36590
 C715 C 0.54349 0.47238 0.42631
 C716 C 0.52321 0.46819 0.42911
 C717 C 0.51262 0.47530 0.44822
 C718 C 0.52208 0.48708 0.46451
 C719 C 0.54229 0.49157 0.46105
 C720 C 0.55291 0.48394 0.44260
 H721 H 0.56968 0.47523 0.32472
 H722 H 0.59278 0.47859 0.29213
 H723 H 0.63800 0.44883 0.33106
 H724 H 0.61501 0.44557 0.36379
 H725 H 0.51558 0.45950 0.41653
 H726 H 0.49698 0.47200 0.44985
 H727 H 0.55008 0.50117 0.47253
 H728 H 0.56842 0.48780 0.44057
 C729 C 0.60186 0.53355 0.15657
 C730 C 0.61785 0.52043 0.15889
 C731 C 0.62864 0.51957 0.17912
 C732 C 0.62393 0.53199 0.19741
 C733 C 0.60840 0.54560 0.19499
 C734 C 0.59731 0.54625 0.17478
 C735 C 0.58975 0.53308 0.13554
 N736 N 0.57124 0.54102 0.13485
 N737 N 0.55991 0.53882 0.11640
 C738 C 0.56669 0.52860 0.09796
 N739 N 0.58534 0.52115 0.09855
 N740 N 0.59659 0.52332 0.11688
 C741 C 0.55391 0.52415 0.07815
 C742 C 0.56001 0.50950 0.06289
 C743 C 0.54825 0.50421 0.04464
 C744 C 0.53003 0.51363 0.04057
 C745 C 0.52381 0.52844 0.05573
 C746 C 0.53562 0.53359 0.07448
 H747 H 0.62177 0.51038 0.14528
 H748 H 0.64064 0.50905 0.18057
 H749 H 0.60449 0.55527 0.20899
 H750 H 0.58511 0.55653 0.17349
 H751 H 0.57388 0.50175 0.06515
 H752 H 0.55380 0.49276 0.03355
 H753 H 0.50984 0.53592 0.05323
 H754 H 0.53048 0.54491 0.08603
 C755 C 0.10267 1.03849 0.65929
 C756 C 0.11684 1.02348 0.66150
 C757 C 0.13023 1.02341 0.67948
 C758 C 0.13005 1.03844 0.69593
 C759 C 0.11660 1.05418 0.69282
 C760 C 0.10297 1.05408 0.67484
 C761 C 0.08717 1.03689 0.64158
 N762 N 0.07221 1.05024 0.63965
 N763 N 0.05766 1.04761 0.62463
 C764 C 0.05748 1.03145 0.61113
 N765 N 0.07260 1.01840 0.61288
 N766 N 0.08707 1.02104 0.62773
 C767 C 0.04121 1.02733 0.59507
 C768 C 0.03894 1.00806 0.58739
 C769 C 0.02545 1.00371 0.57048
 C770 C 0.01376 1.01853 0.56033
 C771 C 0.01470 1.03759 0.56943
 C772 C 0.02848 1.04202 0.58657
 H773 H 0.11740 1.01140 0.64958
 H774 H 0.14092 1.01157 0.68015
 H775 H 0.11555 1.06599 0.70505
 H776 H 0.09229 1.06591 0.67357
 H777 H 0.04798 0.99621 0.59411
 H778 H 0.02481 0.98860 0.56504
 H779 H 0.00556 1.04925 0.56259
 H780 H 0.02966 1.05698 0.59251
 C781 C -0.10618 0.45958 0.65852
 C782 C -0.10346 0.44671 0.67729
 C783 C -0.11592 0.44778 0.69671
 C784 C -0.13108 0.46194 0.69783
 C785 C -0.13373 0.47482 0.67913
 C786 C -0.12153 0.47357 0.65965
 C787 C -0.09312 0.45888 0.63785
 N788 N -0.09896 0.46775 0.61810
 N789 N -0.08703 0.46838 0.59976
 C790 C -0.06867 0.46023 0.60024
 N791 N -0.06286 0.45101 0.61990
 N792 N -0.07489 0.45029 0.63834
 C793 C -0.05505 0.46307 0.58017
 C794 C -0.03544 0.45593 0.57974
 C795 C -0.02239 0.46104 0.56150
 C796 C -0.02873 0.47350 0.54353
 C797 C -0.04854 0.48005 0.54400
 C798 C -0.06149 0.47465 0.56164
 H799 H -0.09179 0.43578 0.67692
 H800 H -0.11351 0.43777 0.71102
 H801 H -0.14536 0.48579 0.67954
 H802 H -0.12398 0.48379 0.64555
 H803 H -0.02999 0.44696 0.59381
 H804 H -0.00720 0.45596 0.56200
 H805 H -0.05416 0.49013 0.53113
 H806 H -0.07641 0.48049 0.56117
 C807 C 0.40160 -0.03880 0.15578
 C808 C 0.40450 -0.05052 0.17553
 C809 C 0.39173 -0.04880 0.19464
 C810 C 0.37614 -0.03506 0.19449
 C811 C 0.37337 -0.02331 0.17483
 C812 C 0.38583 -0.02527 0.15565
 C813 C 0.41485 -0.04021 0.13532
 N814 N 0.40843 -0.03360 0.11466
 N815 N 0.42047 -0.03328 0.09641
 C816 C 0.43954 -0.03949 0.09787
 N817 N 0.44595 -0.04654 0.11847
 N818 N 0.43380 -0.04695 0.13683
 C819 C 0.45316 -0.03659 0.07778
 C820 C 0.47317 -0.04257 0.07783
 C821 C 0.48605 -0.03732 0.05946
 C822 C 0.47918 -0.02582 0.04089
 C823 C 0.45903 -0.02038 0.04095
 C824 C 0.44625 -0.02600 0.05869
 H825 H 0.41650 -0.06108 0.17611
 H826 H 0.39421 -0.05796 0.20969
 H827 H 0.36142 -0.01269 0.17424
 H828 H 0.38326 -0.01591 0.14079
 H829 H 0.47901 -0.05072 0.09234
 H830 H 0.50151 -0.04148 0.06035
 H831 H 0.45299 -0.01091 0.02775
 H832 H 0.43104 -0.02099 0.05787
 C833 C 0.34780 0.43538 0.02860
 C834 C 0.33599 0.43531 0.04870
 C835 C 0.31792 0.42512 0.04945
 C836 C 0.31153 0.41464 0.03021
 C837 C 0.32394 0.41398 0.01062
 C838 C 0.34171 0.42439 0.00973
 C839 C 0.36626 0.44702 0.02678
 N840 N 0.37295 0.45339 0.00587
 N841 N 0.38993 0.46320 0.00377
 C842 C 0.40102 0.46699 0.02248
 N843 N 0.39428 0.46076 0.04347
 N844 N 0.37716 0.45107 0.04561
 C845 C 0.42073 0.47627 0.01954
 C846 C 0.43553 0.47329 0.03594
 C847 C 0.45500 0.47933 0.03132
 C848 C 0.46012 0.48822 0.01002
 C849 C 0.44480 0.49318 -0.00513
 C850 C 0.42542 0.48690 -0.00067
 H851 H 0.34041 0.44363 0.06352
 H852 H 0.30868 0.42598 0.06477
 H853 H 0.31985 0.40554 -0.00423
 H854 H 0.35072 0.42380 -0.00580
 H855 H 0.43233 0.46537 0.05182
 H856 H 0.46618 0.47596 0.04393
 H857 H 0.44788 0.50116 -0.02099
 H858 H 0.41418 0.48995 -0.01334
 C859 C -0.17586 0.95513 0.53015
 C860 C -0.18680 0.95110 0.55038
 C861 C -0.20478 0.94073 0.54957
 C862 C -0.21238 0.93417 0.52842
 C863 C -0.20123 0.93862 0.50827
 C864 C -0.18349 0.94894 0.50914
 C865 C -0.15601 0.96453 0.53045
 N866 N -0.14499 0.96535 0.51080
 N867 N -0.12659 0.97224 0.51076
 C868 C -0.11835 0.97879 0.53034
 N869 N -0.12943 0.97848 0.55006
 N870 N -0.14793 0.97143 0.55011
 C871 C -0.09713 0.98408 0.53000
 C872 C -0.08933 0.99935 0.54316
 C873 C -0.06920 1.00459 0.54080
 C874 C -0.05657 0.99437 0.52557
 C875 C -0.06459 0.97860 0.51330
 C876 C -0.08446 0.97370 0.51531
 H877 H -0.18135 0.95571 0.56688
 H878 H -0.21280 0.93836 0.56558
 H879 H -0.20536 0.93326 0.49161
 H880 H -0.17546 0.95157 0.49315
 H881 H -0.09887 1.00757 0.55467
 H882 H -0.06364 1.01673 0.55067
 H883 H -0.05566 0.96996 0.50168
 H884 H -0.08995 0.96163 0.50523
 C885 C -0.15620 0.06053 0.96421
 C886 C -0.16843 0.06249 0.94501
 C887 C -0.18679 0.07204 0.94688
 C888 C -0.19309 0.08027 0.96789
 C889 C -0.18033 0.07887 0.98681
 C890 C -0.16230 0.06888 0.98507
 C891 C -0.13750 0.04924 0.96302
 N892 N -0.13165 0.03842 0.98147
 N893 N -0.11479 0.02828 0.98078
 C894 C -0.10296 0.02866 0.96171
 N895 N -0.10872 0.03956 0.94323
 N896 N -0.12578 0.04953 0.94380
 C897 C -0.08386 0.01798 0.96189
 C898 C -0.06697 0.02546 0.95043
 C899 C -0.04827 0.01714 0.95446
 C900 C -0.04619 0.00142 0.97026
 C901 C -0.06351 -0.00754 0.97907
 C902 C -0.08204 0.00090 0.97541
 H903 H -0.16410 0.05604 0.92877
 H904 H -0.19622 0.07247 0.93199
 H905 H -0.18420 0.08550 1.00306
 H906 H -0.15300 0.06780 1.00007
 H907 H -0.06801 0.03846 0.93958
 H908 H -0.03534 0.02397 0.94655
 H909 H -0.06285 -0.02065 0.98962
 H910 H -0.09494 -0.00563 0.98376
 C911 C 0.34145 0.57238 0.47438
 C912 C 0.33054 0.57238 0.45399
 C913 C 0.31123 0.58003 0.45366
 C914 C 0.30265 0.58815 0.47361
 C915 C 0.31409 0.58892 0.49363
 C916 C 0.33310 0.58091 0.49409
 C917 C 0.36111 0.56290 0.47571
 N918 N 0.36673 0.55400 0.49558
 N919 N 0.38443 0.54553 0.49723
 C920 C 0.39736 0.54576 0.47914
 N921 N 0.39180 0.55472 0.45922
 N922 N 0.37393 0.56301 0.45748
 C923 C 0.41723 0.53691 0.48170
 C924 C 0.43381 0.54459 0.46982
 C925 C 0.45288 0.53771 0.47476
 C926 C 0.45574 0.52316 0.49184
 C927 C 0.43887 0.51423 0.50197
 C928 C 0.41993 0.52132 0.49735
 H929 H 0.33665 0.56583 0.43858
 H930 H 0.30285 0.57904 0.43798
 H931 H 0.30835 0.59568 0.50910
 H932 H 0.34134 0.58142 0.50992
 H933 H 0.43211 0.55646 0.45742
 H934 H 0.46540 0.54425 0.46571
 H935 H 0.44024 0.50246 0.51454
 H936 H 0.40736 0.51481 0.50637
 C937 C 0.15608 0.55766 0.54485
 C938 C 0.15791 0.57615 0.55520
 C939 C 0.17594 0.58632 0.55433
 C940 C 0.19255 0.57830 0.54302
 C941 C 0.19086 0.55963 0.53316
 C942 C 0.17287 0.54944 0.53407
 C943 C 0.13666 0.54738 0.54448
 N944 N 0.13479 0.52981 0.53388
 N945 N 0.11719 0.52107 0.53245
 C946 C 0.10066 0.52949 0.54159
 N947 N 0.10255 0.54695 0.55241
 N948 N 0.12016 0.55570 0.55384
 C949 C 0.08081 0.52054 0.53837
 C950 C 0.06367 0.52960 0.54723
 C951 C 0.04486 0.52259 0.54180
 C952 C 0.04263 0.50665 0.52690
 C953 C 0.05983 0.49651 0.51977
 C954 C 0.07866 0.50346 0.52529
 H955 H 0.14532 0.58295 0.56365
 H956 H 0.17672 0.60075 0.56192
 H957 H 0.20347 0.55290 0.52465
 H958 H 0.17208 0.53522 0.52599
 H959 H 0.06473 0.54249 0.55786
 H960 H 0.03214 0.53007 0.54888
 H961 H 0.05887 0.48380 0.50885
 H962 H 0.09153 0.49584 0.51854
 C963 C 0.66363 0.05765 0.04549
 C964 C 0.68020 0.04864 0.03514
 C965 C 0.69853 0.05820 0.03414
 C966 C 0.70079 0.07698 0.04352
 C967 C 0.68442 0.08576 0.05451
 C968 C 0.66603 0.07622 0.05544
 C969 C 0.64383 0.04809 0.04493
 N970 N 0.62739 0.05745 0.05296
 N971 N 0.60950 0.04933 0.05119
 C972 C 0.60728 0.03146 0.04137
 N973 N 0.62374 0.02201 0.03359
 N974 N 0.64161 0.03013 0.03535
 C975 C 0.58725 0.02309 0.03765
 C976 C 0.58504 0.00498 0.02664
 C977 C 0.56629 -0.00174 0.02052
 C978 C 0.54923 0.00968 0.02482
 C979 C 0.55133 0.02680 0.03788
 C980 C 0.57010 0.03356 0.04394
 H981 H 0.67896 0.03432 0.02739
 H982 H 0.71094 0.05096 0.02583
 H983 H 0.68566 0.10029 0.06172
 H984 H 0.65362 0.08360 0.06358
 H985 H 0.59787 -0.00374 0.02199
 H986 H 0.56536 -0.01543 0.01134
 H987 H 0.53862 0.03529 0.04318
 H988 H 0.57116 0.04729 0.05305
 C989 C 0.65147 0.94575 0.44492
 C990 C 0.65411 0.92629 0.43758
 C991 C 0.67244 0.91688 0.43999
 C992 C 0.68843 0.92671 0.44992
 C993 C 0.68603 0.94637 0.45641
 C994 C 0.66779 0.95581 0.45387
 C995 C 0.63159 0.95510 0.44477
 N996 N 0.62910 0.97372 0.45243
 N997 N 0.61109 0.98159 0.45426
 C998 C 0.59475 0.97121 0.44850
 N999 N 0.59724 0.95270 0.44043
 N1000 N 0.61528 0.94483 0.43859
 C1001 C 0.57463 0.97921 0.45306
 C1002 C 0.55761 0.96819 0.44823
 C1003 C 0.53889 0.97447 0.45573
 C1004 C 0.53680 0.99165 0.46873
 C1005 C 0.55364 1.00362 0.47147
 C1006 C 0.57231 0.99740 0.46391
 H1007 H 0.64188 0.91812 0.43055
 H1008 H 0.67388 0.90168 0.43493
 H1009 H 0.69822 0.95437 0.46378
 H1010 H 0.66638 0.97084 0.45955
 H1011 H 0.55878 0.95438 0.43928
 H1012 H 0.52627 0.96553 0.45170
 H1013 H 0.55270 1.01736 0.48058
 H1014 H 0.58502 1.00651 0.46751
 C1015 C 0.16968 0.43876 0.95774
 C1016 C 0.17160 0.41965 0.94909
 C1017 C 0.18977 0.40984 0.94987
 C1018 C 0.20628 0.41883 0.95967
 C1019 C 0.20454 0.43811 0.96781
 C1020 C 0.18643 0.44807 0.96666
 C1021 C 0.14994 0.44815 0.95920
 N1022 N 0.14794 0.46799 0.96082
 N1023 N 0.13010 0.47611 0.96386
 C1024 C 0.11366 0.46465 0.96564
 N1025 N 0.11568 0.44489 0.96378
 N1026 N 0.13343 0.43682 0.96051
 C1027 C 0.09408 0.47301 0.97135
 C1028 C 0.08151 0.46252 0.98636
 C1029 C 0.06266 0.46950 0.99155
 C1030 C 0.05544 0.48692 0.98135
 C1031 C 0.06832 0.49777 0.96672
 C1032 C 0.08758 0.49096 0.96196
 H1033 H 0.15894 0.41213 0.94207
 H1034 H 0.19075 0.39496 0.94356
 H1035 H 0.21715 0.44538 0.97528
 H1036 H 0.18536 0.46274 0.97356
 H1037 H 0.08631 0.44883 0.99420
 H1038 H 0.05365 0.46084 1.00335
 H1039 H 0.06348 0.51135 0.95870
 H1040 H 0.09714 0.49936 0.95040
 C1041 C 0.00547 0.33627 0.43707
 C1042 C 0.02408 0.32698 0.43661
 C1043 C 0.02748 0.31083 0.42246
 C1044 C 0.01227 0.30348 0.40871
 C1045 C -0.00648 0.31239 0.40966
 C1046 C -0.00982 0.32868 0.42358
 C1047 C 0.00232 0.35451 0.45030
 N1048 N -0.01319 0.36648 0.44542
 N1049 N -0.01524 0.38370 0.45575
 C1050 C -0.00197 0.38964 0.47156
 N1051 N 0.01332 0.37750 0.47690
 N1052 N 0.01544 0.36029 0.46642
 C1053 C -0.00310 0.40979 0.48068
 C1054 C 0.00466 0.41463 0.50220
 C1055 C 0.00424 0.43415 0.50976
 C1056 C -0.00350 0.44920 0.49567
 C1057 C -0.01101 0.44411 0.47405
 C1058 C -0.01119 0.42471 0.46692
 H1059 H 0.03617 0.33249 0.44673
 H1060 H 0.04200 0.30405 0.42226
 H1061 H -0.01843 0.30705 0.39918
 H1062 H -0.02434 0.33546 0.42356
 H1063 H 0.01107 0.40336 0.51309
 H1064 H 0.01042 0.43749 0.52633
 H1065 H -0.01683 0.45515 0.46241
 H1066 H -0.01704 0.42151 0.45013
 C1067 C 0.51059 -0.16342 -0.06321
 C1068 C 0.52894 -0.17318 -0.06416
 C1069 C 0.53167 -0.18931 -0.07855
 C1070 C 0.51605 -0.19616 -0.09204
 C1071 C 0.49751 -0.18688 -0.09044
 C1072 C 0.49484 -0.17063 -0.07627
 C1073 C 0.50824 -0.14498 -0.05014
 N1074 N 0.49306 -0.13257 -0.05494
 N1075 N 0.49179 -0.11512 -0.04500
 C1076 C 0.50554 -0.10935 -0.02966
 N1077 N 0.52049 -0.12191 -0.02435
 N1078 N 0.52184 -0.13937 -0.03446
 C1079 C 0.50525 -0.08898 -0.02115
 C1080 C 0.51253 -0.08401 0.00055
 C1081 C 0.51234 -0.06435 0.00774
 C1082 C 0.50531 -0.04936 -0.00694
 C1083 C 0.49851 -0.05458 -0.02883
 C1084 C 0.49813 -0.07406 -0.03561
 H1085 H 0.54138 -0.16799 -0.05436
 H1086 H 0.54605 -0.19638 -0.07925
 H1087 H 0.48525 -0.19181 -0.10071
 H1088 H 0.48050 -0.16349 -0.07589
 H1089 H 0.51822 -0.09530 0.01197
 H1090 H 0.51792 -0.06091 0.02457
 H1091 H 0.49315 -0.04362 -0.04088
 H1092 H 0.49270 -0.07738 -0.05256
 C1093 C -0.00863 -0.17278 1.04702
 C1094 C 0.00700 -0.18145 1.05930
 C1095 C 0.00334 -0.19654 1.07529
 C1096 C -0.01605 -0.20332 1.07945
 C1097 C -0.03161 -0.19521 1.06658
 C1098 C -0.02793 -0.18015 1.05046
 C1099 C -0.00496 -0.15499 1.03256
 N1100 N -0.01940 -0.14709 1.01921
 N1101 N -0.01675 -0.12975 1.00862
 C1102 C 0.00044 -0.11964 1.01104
 N1103 N 0.01502 -0.12780 1.02386
 N1104 N 0.01242 -0.14513 1.03428
 C1105 C 0.00207 -0.09887 1.00363
 C1106 C 0.01098 -0.08566 1.01852
 C1107 C 0.01067 -0.06562 1.01384
 C1108 C 0.00242 -0.05807 0.99341
 C1109 C -0.00602 -0.07143 0.97803
 C1110 C -0.00645 -0.09167 0.98327
 H1111 H 0.02206 -0.17619 1.05707
 H1112 H 0.01562 -0.20240 1.08501
 H1113 H -0.04666 -0.20038 1.06919
 H1114 H -0.04031 -0.17383 1.04130
 H1115 H 0.01725 -0.09071 1.03459
 H1116 H 0.01656 -0.05602 1.02675
 H1117 H -0.01300 -0.06622 0.96246
 H1118 H -0.01361 -0.10163 0.97163
 C1119 C 0.49427 0.34415 0.56104
 C1120 C 0.47615 0.33410 0.55962
 C1121 C 0.47265 0.31721 0.57296
 C1122 C 0.48723 0.30996 0.58786
 C1123 C 0.50563 0.31952 0.58859
 C1124 C 0.50910 0.33647 0.57537
 C1125 C 0.49716 0.36334 0.54919
 N1126 N 0.51259 0.37501 0.55485
 N1127 N 0.51421 0.39312 0.54620
 C1128 C 0.50053 0.40032 0.53141
 N1129 N 0.48535 0.38851 0.52521
 N1130 N 0.48368 0.37037 0.53399
 C1131 C 0.50116 0.42123 0.52438
 C1132 C 0.49194 0.42812 0.50431
 C1133 C 0.49201 0.44825 0.49876
 C1134 C 0.50102 0.46180 0.51341
 C1135 C 0.50992 0.45469 0.53363
 C1136 C 0.51030 0.43472 0.53879
 H1137 H 0.46443 0.33960 0.54876
 H1138 H 0.45845 0.30990 0.57178
 H1139 H 0.51710 0.31427 0.59996
 H1140 H 0.52325 0.34381 0.57681
 H1141 H 0.48466 0.41798 0.49298
 H1142 H 0.48471 0.45316 0.48329
 H1143 H 0.51684 0.46452 0.54560
 H1144 H 0.51728 0.42993 0.55456
 C1145 C 0.50484 1.16313 0.56142
 C1146 C 0.48979 1.17072 0.57572
 C1147 C 0.49337 1.18698 0.58943
 C1148 C 0.51212 1.19587 0.58931
 C1149 C 0.52709 1.18855 0.57474
 C1150 C 0.52345 1.17240 0.56080
 C1151 C 0.50149 1.14481 0.54864
 N1152 N 0.51426 1.13892 0.53178
 N1153 N 0.51203 1.12154 0.52181
 C1154 C 0.49701 1.10936 0.52843
 N1155 N 0.48409 1.11540 0.54496
 N1156 N 0.48623 1.13279 0.55478
 C1157 C 0.49589 1.08909 0.51997
 C1158 C 0.48946 1.07421 0.53512
 C1159 C 0.48924 1.05476 0.52824
 C1160 C 0.49472 1.04963 0.50564
 C1161 C 0.50099 1.06462 0.49030
 C1162 C 0.50180 1.08419 0.49751
 H1163 H 0.47528 1.16392 0.57658
 H1164 H 0.48161 1.19230 0.60060
 H1165 H 0.54161 1.19533 0.57416
 H1166 H 0.53537 1.16685 0.55005
 H1167 H 0.48510 1.07753 0.55264
 H1168 H 0.48449 1.04376 0.54074
 H1169 H 0.50553 1.06123 0.47288
 H1170 H 0.50691 1.09549 0.48556
 C1171 C 0.00951 0.65579 1.05856
 C1172 C -0.00738 0.66564 1.06680
 C1173 C -0.00560 0.68150 1.08168
 C1174 C 0.01318 0.68787 1.08910
 C1175 C 0.03006 0.67792 1.08054
 C1176 C 0.02824 0.66225 1.06545
 C1177 C 0.00767 0.63845 1.04355
 N1178 N 0.02398 0.63038 1.03351
 N1179 N 0.02258 0.61408 1.02122
 C1180 C 0.00481 0.60512 1.01842
 N1181 N -0.01157 0.61334 1.02818
 N1182 N -0.01018 0.62969 1.04043
 C1183 C 0.00372 0.58579 1.00700
 C1184 C -0.01378 0.57465 1.00794
 C1185 C -0.01379 0.55510 1.00085
 C1186 C 0.00364 0.54609 0.99267
 C1187 C 0.02062 0.55800 0.98963
 C1188 C 0.02069 0.57750 0.99682
 H1189 H -0.02207 0.66097 1.06193
 H1190 H -0.01914 0.68808 1.08812
 H1191 H 0.04490 0.68256 1.08469
 H1192 H 0.04160 0.65507 1.05934
 H1193 H -0.02731 0.58070 1.01515
 H1194 H -0.02745 0.54719 1.00230
 H1195 H 0.03438 0.55199 0.98301
 H1196 H 0.03437 0.58576 0.99539
 C1197 C 0.49682 0.65875 -0.06230
 C1198 C 0.51241 0.66946 -0.07262
 C1199 C 0.50858 0.68575 -0.08674
 C1200 C 0.48895 0.69172 -0.09135
 C1201 C 0.47337 0.68099 -0.08061
 C1202 C 0.47727 0.66487 -0.06619
 C1203 C 0.50094 0.64064 -0.04874
 N1204 N 0.48677 0.63226 -0.03497
 N1205 N 0.49009 0.61514 -0.02427
 C1206 C 0.50769 0.60569 -0.02699
 N1207 N 0.52194 0.61424 -0.04045
 N1208 N 0.51868 0.63139 -0.05099
 C1209 C 0.51046 0.58545 -0.01796
 C1210 C 0.52306 0.57258 -0.02980
 C1211 C 0.52352 0.55268 -0.02399
 C1212 C 0.51205 0.54509 -0.00550
 C1213 C 0.50026 0.55827 0.00723
 C1214 C 0.49932 0.57821 0.00091
 H1215 H 0.52766 0.66508 -0.07006
 H1216 H 0.52117 0.69291 -0.09494
 H1217 H 0.45805 0.68527 -0.08265
 H1218 H 0.46491 0.65696 -0.05845
 H1219 H 0.53164 0.57761 -0.04461
 H1220 H 0.53228 0.54312 -0.03485
 H1221 H 0.49088 0.55306 0.02126
 H1222 H 0.48945 0.58785 0.01033
 C1223 C -0.01053 1.16339 0.45111
 C1224 C 0.00588 1.17315 0.44122
 C1225 C 0.00330 1.18808 0.42482
 C1226 C -0.01582 1.19356 0.41748
 C1227 C -0.03224 1.18395 0.42796
 C1228 C -0.02962 1.16921 0.44460
 C1229 C -0.00766 1.14626 0.46672
 N1230 N -0.02307 1.13846 0.47906
 N1231 N -0.02087 1.12183 0.49113
 C1232 C -0.00317 1.11231 0.49127
 N1233 N 0.01233 1.12036 0.47937
 N1234 N 0.01016 1.13702 0.46745
 C1235 C -0.00155 1.09223 0.50106
 C1236 C 0.01143 1.07887 0.49061
 C1237 C 0.01073 1.05902 0.49650
 C1238 C -0.00220 1.05194 0.51394
 C1239 C -0.01447 1.06559 0.52533
 C1240 C -0.01428 1.08551 0.51878
 H1241 H 0.02082 1.16897 0.44578
 H1242 H 0.01651 1.19445 0.41707
 H1243 H -0.04729 1.18807 0.42386
 H1244 H -0.04260 1.16204 0.45196
 H1245 H 0.02115 1.08349 0.47659
 H1246 H 0.01965 1.04912 0.48628
 H1247 H -0.02501 1.06076 0.53840
 H1248 H -0.02454 1.09552 0.52704
 C1249 C 0.78730 0.66090 0.90578
 C1250 C 0.80461 0.65670 0.91796
 C1251 C 0.80389 0.64434 0.93743
 C1252 C 0.78572 0.63619 0.94545
 C1253 C 0.76838 0.64121 0.93341
 C1254 C 0.76921 0.65324 0.91392
 C1255 C 0.78777 0.67200 0.88380
 N1256 N 0.77347 0.66861 0.86824
 N1257 N 0.77334 0.67827 0.84830
 C1258 C 0.78744 0.69183 0.84296
 N1259 N 0.80182 0.69540 0.85854
 N1260 N 0.80205 0.68553 0.87856
 C1261 C 0.78618 0.70252 0.82074
 C1262 C 0.79327 0.72181 0.81752
 C1263 C 0.78808 0.73273 0.79778
 C1264 C 0.77578 0.72446 0.78106
 C1265 C 0.76987 0.70474 0.78406
 C1266 C 0.77528 0.69391 0.80325
 H1267 H 0.81877 0.66250 0.91206
 H1268 H 0.81758 0.64161 0.94638
 H1269 H 0.75411 0.63496 0.93797
 H1270 H 0.75558 0.65622 0.90489
 H1271 H 0.80170 0.72883 0.83083
 H1272 H 0.79265 0.74795 0.79635
 H1273 H 0.75990 0.69772 0.77233
 H1274 H 0.76979 0.67900 0.80500
 C1275 C 0.28536 0.15252 0.41170
 C1276 C 0.26783 0.14190 0.41583
 C1277 C 0.26532 0.13062 0.43583
 C1278 C 0.28047 0.12921 0.45226
 C1279 C 0.29820 0.13981 0.44784
 C1280 C 0.30047 0.15153 0.42797
 C1281 C 0.28759 0.16424 0.39022
 N1282 N 0.29891 0.18079 0.38907
 N1283 N 0.29965 0.19179 0.36987
 C1284 C 0.28928 0.18650 0.35103
 N1285 N 0.27831 0.16978 0.35222
 N1286 N 0.27744 0.15894 0.37135
 C1287 C 0.28827 0.19914 0.33007
 C1288 C 0.27882 0.19180 0.31069
 C1289 C 0.27382 0.20415 0.29254
 C1290 C 0.27872 0.22428 0.29253
 C1291 C 0.28970 0.23139 0.31112
 C1292 C 0.29439 0.21893 0.32978
 H1293 H 0.25589 0.14236 0.40357
 H1294 H 0.25169 0.12234 0.43775
 H1295 H 0.31011 0.13979 0.46010
 H1296 H 0.31413 0.15962 0.42522
 H1297 H 0.27406 0.17662 0.31007
 H1298 H 0.26485 0.19791 0.27924
 H1299 H 0.29354 0.24680 0.31197
 H1300 H 0.30176 0.22505 0.34447
 C1301 C 0.70697 0.33957 0.41315
 C1302 C 0.69925 0.35875 0.41260
 C1303 C 0.70195 0.37134 0.43107
 C1304 C 0.71265 0.36511 0.45037
 C1305 C 0.72014 0.34586 0.45113
 C1306 C 0.71720 0.33314 0.43277
 C1307 C 0.70577 0.32700 0.39263
 N1308 N 0.70904 0.30730 0.39405
 N1309 N 0.71000 0.29646 0.37512
 C1310 C 0.70780 0.30494 0.35404
 N1311 N 0.70414 0.32453 0.35268
 N1312 N 0.70301 0.33531 0.37158
 C1313 C 0.71268 0.29401 0.33299
 C1314 C 0.72425 0.30334 0.31597
 C1315 C 0.73158 0.29286 0.29738
 C1316 C 0.72667 0.27293 0.29442
 C1317 C 0.71439 0.26373 0.31112
 C1318 C 0.70770 0.27412 0.33046
 H1319 H 0.69132 0.36414 0.39774
 H1320 H 0.69610 0.38615 0.43004
 H1321 H 0.72827 0.34067 0.46594
 H1322 H 0.72345 0.31850 0.43364
 H1323 H 0.72873 0.31852 0.31777
 H1324 H 0.74179 0.30040 0.28584
 H1325 H 0.71069 0.24831 0.30985
 H1326 H 0.69894 0.26658 0.34358
 C1327 C 0.21598 0.85596 0.90563
 C1328 C 0.23277 0.86767 0.90909
 C1329 C 0.23470 0.87853 0.92908
 C1330 C 0.21967 0.87838 0.94618
 C1331 C 0.20261 0.86683 0.94237
 C1332 C 0.20094 0.85556 0.92249
 C1333 C 0.21460 0.84433 0.88440
 N1334 N 0.20403 0.82733 0.88368
 N1335 N 0.20436 0.81628 0.86484
 C1336 C 0.21514 0.82195 0.84596
 N1337 N 0.22526 0.83917 0.84668
 N1338 N 0.22504 0.85008 0.86543
 C1339 C 0.21767 0.80916 0.82563
 C1340 C 0.23002 0.81566 0.80753
 C1341 C 0.23562 0.80310 0.79006
 C1342 C 0.22845 0.78369 0.78930
 C1343 C 0.21504 0.77742 0.80666
 C1344 C 0.20976 0.79002 0.82476
 H1345 H 0.24465 0.86830 0.89638
 H1346 H 0.24776 0.88763 0.93056
 H1347 H 0.19086 0.86566 0.95515
 H1348 H 0.18786 0.84661 0.92027
 H1349 H 0.23640 0.83026 0.80738
 H1350 H 0.24646 0.80859 0.77773
 H1351 H 0.20943 0.76251 0.80691
 H1352 H 0.20018 0.78454 0.83847
 C1353 C 0.28831 0.85390 0.09879
 C1354 C 0.27197 0.86631 0.09539
 C1355 C 0.27051 0.87779 0.07550
 C1356 C 0.28560 0.87761 0.05849
 C1357 C 0.30236 0.86557 0.06238
 C1358 C 0.30350 0.85358 0.08212
 C1359 C 0.28885 0.84133 0.11966
 N1360 N 0.29703 0.82305 0.11947
 N1361 N 0.29524 0.81108 0.13778
 C1362 C 0.28531 0.81703 0.15698
 N1363 N 0.27774 0.83551 0.15724
 N1364 N 0.27942 0.84736 0.13902
 C1365 C 0.28073 0.80341 0.17650
 C1366 C 0.26801 0.80994 0.19405
 C1367 C 0.26099 0.79708 0.21091
 C1368 C 0.26699 0.77726 0.21159
 C1369 C 0.28045 0.77076 0.19461
 C1370 C 0.28720 0.78372 0.17711
 H1371 H 0.26002 0.86689 0.10799
 H1372 H 0.25771 0.88728 0.07394
 H1373 H 0.31418 0.86453 0.04968
 H1374 H 0.31625 0.84412 0.08437
 H1375 H 0.26261 0.82492 0.19433
 H1376 H 0.25034 0.80285 0.22313
 H1377 H 0.28517 0.75557 0.19431
 H1378 H 0.29699 0.77820 0.16377
 C1379 C 0.78934 0.34465 0.59538
 C1380 C 0.77553 0.36015 0.59566
 C1381 C 0.77271 0.37192 0.57617
 C1382 C 0.78388 0.36871 0.55608
 C1383 C 0.79797 0.35349 0.55580
 C1384 C 0.80053 0.34140 0.57522
 C1385 C 0.79136 0.33183 0.61599
 N1386 N 0.79823 0.31307 0.61449
 N1387 N 0.79806 0.30114 0.63292
 C1388 C 0.79115 0.30758 0.65358
 N1389 N 0.78489 0.32649 0.65506
 N1390 N 0.78497 0.33832 0.63672
 C1391 C 0.78807 0.29402 0.67354
 C1392 C 0.77690 0.30064 0.69239
 C1393 C 0.77064 0.28770 0.70958
 C1394 C 0.77601 0.26770 0.70931
 C1395 C 0.78828 0.26119 0.69115
 C1396 C 0.79416 0.27422 0.67332
 H1397 H 0.76656 0.36297 0.61084
 H1398 H 0.76182 0.38361 0.57678
 H1399 H 0.80667 0.35073 0.54039
 H1400 H 0.81125 0.32957 0.57451
 H1401 H 0.77179 0.31570 0.69328
 H1402 H 0.76058 0.29346 0.72243
 H1403 H 0.79245 0.24587 0.69003
 H1404 H 0.80280 0.26863 0.65901
 C1405 C 0.20368 0.15911 0.59678
 C1406 C 0.19676 0.13968 0.59906
 C1407 C 0.20009 0.12617 0.58149
 C1408 C 0.21068 0.13174 0.56149
 C1409 C 0.21752 0.15115 0.55917
 C1410 C 0.21395 0.16472 0.57654
 C1411 C 0.20104 0.17328 0.61570
 N1412 N 0.20436 0.19275 0.61199
 N1413 N 0.20360 0.20534 0.62930
 C1414 C 0.19950 0.19902 0.65109
 N1415 N 0.19580 0.17959 0.65474
 N1416 N 0.19647 0.16699 0.63739
 C1417 C 0.20160 0.21259 0.67064
 C1418 C 0.20302 0.20526 0.69321
 C1419 C 0.20943 0.21736 0.71085
 C1420 C 0.21461 0.23710 0.70640
 C1421 C 0.21079 0.24489 0.68432
 C1422 C 0.20454 0.23277 0.66664
 H1423 H 0.18880 0.13491 0.61443
 H1424 H 0.19470 0.11126 0.58367
 H1425 H 0.22549 0.15587 0.54378
 H1426 H 0.21956 0.17953 0.57427
 H1427 H 0.20039 0.18986 0.69705
 H1428 H 0.21096 0.21077 0.72756
 H1429 H 0.21399 0.26011 0.68011
 H1430 H 0.20311 0.23904 0.64954
 C1431 C 0.71201 0.66049 0.09128
 C1432 C 0.70517 0.64099 0.09251
 C1433 C 0.70908 0.62802 0.07463
 C1434 C 0.72003 0.63420 0.05516
 C1435 C 0.72668 0.65374 0.05372
 C1436 C 0.72262 0.66681 0.07156
 C1437 C 0.70944 0.67353 0.11129
 N1438 N 0.71328 0.69313 0.10963
 N1439 N 0.71314 0.70429 0.12832
 C1440 C 0.70918 0.69624 0.14937
 N1441 N 0.70487 0.67680 0.15092
 N1442 N 0.70486 0.66571 0.13227
 C1443 C 0.71339 0.70716 0.17043
 C1444 C 0.72439 0.69770 0.18748
 C1445 C 0.73117 0.70803 0.20619
 C1446 C 0.72619 0.72793 0.20930
 C1447 C 0.71458 0.73734 0.19247
 C1448 C 0.70848 0.72709 0.17296
 H1449 H 0.69699 0.63563 0.10746
 H1450 H 0.70386 0.61301 0.07621
 H1451 H 0.73494 0.65892 0.03873
 H1452 H 0.72820 0.68169 0.07015
 H1453 H 0.72885 0.68250 0.18563
 H1454 H 0.74097 0.70035 0.21777
 H1455 H 0.71095 0.75277 0.19381
 H1456 H 0.70021 0.73473 0.15977
 C1457 C 0.18611 0.59250 0.21030
 C1458 C 0.19748 0.57632 0.21763
 C1459 C 0.18901 0.55766 0.21978
 C1460 C 0.16897 0.55465 0.21459
 C1461 C 0.15772 0.57065 0.20657
 C1462 C 0.16618 0.58939 0.20449
 C1463 C 0.19482 0.61256 0.20979
 N1464 N 0.18382 0.62847 0.20366
 N1465 N 0.19136 0.64655 0.20460
 C1466 C 0.21024 0.64949 0.21168
 N1467 N 0.22128 0.63355 0.21753
 N1468 N 0.21376 0.61550 0.21658
 C1469 C 0.21814 0.66965 0.21472
 C1470 C 0.23671 0.67246 0.22479
 C1471 C 0.24309 0.69126 0.23054
 C1472 C 0.23092 0.70780 0.22670
 C1473 C 0.21330 0.70514 0.21447
 C1474 C 0.20683 0.68628 0.20887
 H1475 H 0.21289 0.57810 0.22210
 H1476 H 0.19813 0.54553 0.22562
 H1477 H 0.14221 0.56879 0.20258
 H1478 H 0.15699 0.60149 0.19878
 H1479 H 0.24606 0.66005 0.22912
 H1480 H 0.25715 0.69259 0.23910
 H1481 H 0.20417 0.71745 0.20956
 H1482 H 0.19271 0.68471 0.20046
 C1483 C 0.69394 0.08399 0.69689
 C1484 C 0.67495 0.08120 0.68782
 C1485 C 0.66552 0.06299 0.68978
 C1486 C 0.67480 0.04715 0.70099
 C1487 C 0.69397 0.04975 0.70961
 C1488 C 0.70350 0.06797 0.70747
 C1489 C 0.70290 0.10389 0.69686
 N1490 N 0.72229 0.10665 0.70207
 N1491 N 0.72968 0.12473 0.70403
 C1492 C 0.71792 0.14073 0.70096
 N1493 N 0.69867 0.13794 0.69535
 N1494 N 0.69135 0.11992 0.69323
 C1495 C 0.72490 0.16064 0.70659
 C1496 C 0.71157 0.17359 0.71707
 C1497 C 0.71789 0.19176 0.72469
 C1498 C 0.73760 0.19809 0.72123
 C1499 C 0.75094 0.18520 0.71019
 C1500 C 0.74469 0.16652 0.70321
 H1501 H 0.66716 0.09322 0.67957
 H1502 H 0.65068 0.06147 0.68319
 H1503 H 0.70152 0.03773 0.71816
 H1504 H 0.71809 0.06966 0.71474
 H1505 H 0.69637 0.16924 0.72058
 H1506 H 0.70734 0.20016 0.73455
 H1507 H 0.76632 0.18926 0.70757
 H1508 H 0.75531 0.15667 0.69531
 C1509 C 0.80860 0.09031 0.28693
 C1510 C 0.82525 0.08644 0.30048
 C1511 C 0.83505 0.06836 0.29919
 C1512 C 0.82859 0.05362 0.28411
 C1513 C 0.81152 0.05756 0.27102
 C1514 C 0.80173 0.07556 0.27244
 C1515 C 0.79886 0.10983 0.28705
 N1516 N 0.78287 0.11335 0.27370
 N1517 N 0.77479 0.13116 0.27253
 C1518 C 0.78232 0.14626 0.28468
 N1519 N 0.79815 0.14270 0.29833
 N1520 N 0.80624 0.12486 0.29950
 C1521 C 0.77430 0.16638 0.28171
 C1522 C 0.78228 0.18227 0.29368
 C1523 C 0.77609 0.20148 0.28890
 C1524 C 0.76205 0.20529 0.27177
 C1525 C 0.75310 0.18921 0.26099
 C1526 C 0.75923 0.17005 0.26580
 H1527 H 0.83098 0.09753 0.31180
 H1528 H 0.84831 0.06653 0.30923
 H1529 H 0.80513 0.04660 0.26005
 H1530 H 0.78879 0.07791 0.26194
 H1531 H 0.79365 0.17993 0.30639
 H1532 H 0.78263 0.21329 0.29839
 H1533 H 0.74193 0.19135 0.24802
 H1534 H 0.75255 0.15817 0.25643
 C1535 C 0.29823 0.59499 0.79567
 C1536 C 0.31524 0.59079 0.80843
 C1537 C 0.32438 0.57240 0.80711
 C1538 C 0.31689 0.55757 0.79278
 C1539 C 0.29939 0.56179 0.78058
 C1540 C 0.29022 0.58015 0.78207
 C1541 C 0.28949 0.61500 0.79556
 N1542 N 0.27269 0.61887 0.78375
 N1543 N 0.26561 0.63709 0.78220
 C1544 C 0.27501 0.65226 0.79238
 N1545 N 0.29165 0.64835 0.80451
 N1546 N 0.29872 0.63011 0.80609
 C1547 C 0.26824 0.67276 0.78854
 C1548 C 0.27885 0.68869 0.79735
 C1549 C 0.27409 0.70798 0.79094
 C1550 C 0.25879 0.71179 0.77532
 C1551 C 0.24708 0.69589 0.76821
 C1552 C 0.25185 0.67665 0.77457
 H1553 H 0.32183 0.60189 0.81909
 H1554 H 0.33801 0.57047 0.81643
 H1555 H 0.29234 0.55083 0.77017
 H1556 H 0.27695 0.58277 0.77222
 H1557 H 0.29127 0.68627 0.80864
 H1558 H 0.28276 0.71976 0.79786
 H1559 H 0.23476 0.69810 0.75674
 H1560 H 0.24310 0.66478 0.76778
 C1561 C 0.29972 0.41957 0.70663
 C1562 C 0.28943 0.43518 0.71700
 C1563 C 0.29900 0.45308 0.72095
 C1564 C 0.31901 0.45572 0.71456
 C1565 C 0.32917 0.44016 0.70400
 C1566 C 0.31965 0.42238 0.70003
 C1567 C 0.29036 0.40003 0.70389
 N1568 N 0.30128 0.38478 0.69585
 N1569 N 0.29377 0.36674 0.69536
 C1570 C 0.27494 0.36313 0.70274
 N1571 N 0.26374 0.37844 0.71020
 N1572 N 0.27131 0.39655 0.71076
 C1573 C 0.26805 0.34260 0.70554
 C1574 C 0.24784 0.33769 0.70658
 C1575 C 0.24190 0.31838 0.71197
 C1576 C 0.25605 0.30374 0.71706
 C1577 C 0.27623 0.30891 0.71550
 C1578 C 0.28211 0.32784 0.70940
 H1579 H 0.27409 0.43351 0.72237
 H1580 H 0.29073 0.46487 0.72893
 H1581 H 0.34469 0.44156 0.69923
 H1582 H 0.32812 0.41068 0.69213
 H1583 H 0.23666 0.34885 0.70373
 H1584 H 0.22620 0.31523 0.71330
 H1585 H 0.28779 0.29908 0.72073
 H1586 H 0.29780 0.33120 0.70928
 C1587 C 0.80330 0.91185 0.21844
 C1588 C 0.79859 0.92596 0.23504
 C1589 C 0.80795 0.94428 0.23470
 C1590 C 0.82228 0.94913 0.21762
 C1591 C 0.82660 0.93490 0.20076
 C1592 C 0.81728 0.91660 0.20121
 C1593 C 0.79420 0.89205 0.21954
 N1594 N 0.79994 0.87785 0.20465
 N1595 N 0.79245 0.85978 0.20634
 C1596 C 0.77886 0.85516 0.22297
 N1597 N 0.77296 0.86942 0.23770
 N1598 N 0.78047 0.88747 0.23603
 C1599 C 0.77144 0.83479 0.22590
 C1600 C 0.75729 0.83032 0.24308
 C1601 C 0.75155 0.81095 0.24737
 C1602 C 0.76003 0.79542 0.23481
 C1603 C 0.77327 0.80004 0.21668
 C1604 C 0.77901 0.81949 0.21235
 H1605 H 0.78773 0.92285 0.24847
 H1606 H 0.80336 0.95474 0.24756
 H1607 H 0.83795 0.93732 0.18772
 H1608 H 0.82137 0.90603 0.18822
 H1609 H 0.75094 0.84175 0.25366
 H1610 H 0.74101 0.80820 0.26122
 H1611 H 0.77944 0.78869 0.20596
 H1612 H 0.78971 0.82246 0.19871
 C1613 C 0.69318 0.90745 0.77892
 C1614 C 0.70208 0.92367 0.76770
 C1615 C 0.69263 0.94192 0.76722
 C1616 C 0.67403 0.94445 0.77795
 C1617 C 0.66538 0.92844 0.78981
 C1618 C 0.67484 0.91012 0.79028
 C1619 C 0.70261 0.88775 0.77783
 N1620 N 0.69419 0.87189 0.78852
 N1621 N 0.70217 0.85406 0.78646
 C1622 C 0.71889 0.85132 0.77360
 N1623 N 0.72739 0.86721 0.76309
 N1624 N 0.71943 0.88502 0.76518
 C1625 C 0.72709 0.83133 0.76999
 C1626 C 0.74272 0.82838 0.75418
 C1627 C 0.74928 0.80943 0.74914
 C1628 C 0.74028 0.79286 0.75963
 C1629 C 0.72556 0.79594 0.77656
 C1630 C 0.71890 0.81491 0.78151
 H1631 H 0.71625 0.92223 0.75892
 H1632 H 0.69981 0.95408 0.75826
 H1633 H 0.65098 0.92990 0.79808
 H1634 H 0.66755 0.89796 0.79909
 H1635 H 0.74953 0.84067 0.74512
 H1636 H 0.76088 0.80784 0.73627
 H1637 H 0.71883 0.78375 0.78576
 H1638 H 0.70709 0.81666 0.79410
 C1639 C 0.19473 0.40935 0.29003
 C1640 C 0.18115 0.41463 0.27288
 C1641 C 0.17300 0.43344 0.27202
 C1642 C 0.17802 0.44746 0.28840
 C1643 C 0.19155 0.44231 0.30565
 C1644 C 0.20000 0.42344 0.30633
 C1645 C 0.20265 0.38901 0.29080
 N1646 N 0.21954 0.38423 0.30217
 N1647 N 0.22652 0.36583 0.30200
 C1648 C 0.21675 0.35149 0.29063
 N1649 N 0.19987 0.35638 0.27949
 N1650 N 0.19301 0.37466 0.27954
 C1651 C 0.22422 0.33098 0.28922
 C1652 C 0.21168 0.31664 0.28039
 C1653 C 0.21873 0.29806 0.27527
 C1654 C 0.23855 0.29267 0.27928
 C1655 C 0.25093 0.30666 0.28957
 C1656 C 0.24385 0.32568 0.29446
 H1657 H 0.17678 0.40420 0.25999
 H1658 H 0.16243 0.43693 0.25871
 H1659 H 0.19569 0.45292 0.31845
 H1660 H 0.21036 0.41979 0.31978
 H1661 H 0.19647 0.32003 0.27612
 H1662 H 0.20878 0.28880 0.26613
 H1663 H 0.26634 0.30329 0.29277
 H1664 H 0.25393 0.33643 0.30131
 C1665 C 0.09029 0.25361 0.83581
 C1666 C 0.07202 0.24839 0.82628
 C1667 C 0.05448 0.24979 0.83933
 C1668 C 0.05493 0.25646 0.86209
 C1669 C 0.07326 0.26082 0.87188
 C1670 C 0.09072 0.25941 0.85892
 C1671 C 0.10876 0.25412 0.82171
 N1672 N 0.12550 0.26182 0.83054
 N1673 N 0.14199 0.26327 0.81791
 C1674 C 0.14255 0.25710 0.79582
 N1675 N 0.12586 0.24919 0.78692
 N1676 N 0.10926 0.24780 0.79960
 C1677 C 0.16114 0.25913 0.78213
 C1678 C 0.16393 0.24971 0.76095
 C1679 C 0.18225 0.25088 0.74926
 C1680 C 0.19813 0.26141 0.75860
 C1681 C 0.19478 0.27156 0.77926
 C1682 C 0.17667 0.27039 0.79080
 H1683 H 0.07118 0.24383 0.80855
 H1684 H 0.04050 0.24643 0.83134
 H1685 H 0.07407 0.26568 0.88950
 H1686 H 0.10453 0.26330 0.86696
 H1687 H 0.15215 0.24105 0.75370
 H1688 H 0.18395 0.24311 0.73335
 H1689 H 0.20637 0.28006 0.78710
 H1690 H 0.17501 0.27815 0.80685
 C1691 C 0.58746 0.75891 0.31695
 C1692 C 0.57767 0.77698 0.31396
 C1693 C 0.56047 0.78117 0.32665
 C1694 C 0.55264 0.76726 0.34231
 C1695 C 0.56218 0.74906 0.34495
 C1696 C 0.57946 0.74496 0.33250
 C1697 C 0.60643 0.75493 0.30488
 N1698 N 0.61838 0.74015 0.31224
 N1699 N 0.63608 0.73729 0.30250
 C1700 C 0.64252 0.74900 0.28488
 N1701 N 0.63044 0.76357 0.27720
 N1702 N 0.61275 0.76650 0.28704
 C1703 C 0.66292 0.74700 0.27571
 C1704 C 0.66839 0.75523 0.25429
 C1705 C 0.68816 0.75478 0.24675
 C1706 C 0.70289 0.74642 0.26069
 C1707 C 0.69721 0.73786 0.28193
 C1708 C 0.67746 0.73790 0.28917
 H1709 H 0.58350 0.78806 0.30218
 H1710 H 0.55324 0.79524 0.32419
 H1711 H 0.55649 0.73815 0.35705
 H1712 H 0.58663 0.73089 0.33519
 H1713 H 0.65745 0.76228 0.24352
 H1714 H 0.69191 0.76156 0.23034
 H1715 H 0.70805 0.73127 0.29321
 H1716 H 0.67373 0.73149 0.30581
 C1717 C 0.59335 0.24216 0.18018
 C1718 C 0.58622 0.25685 0.16524
 C1719 C 0.56989 0.25331 0.15141
 C1720 C 0.56040 0.23496 0.15209
 C1721 C 0.56734 0.22031 0.16721
 C1722 C 0.58359 0.22391 0.18122
 C1723 C 0.61148 0.24558 0.19360
 N1724 N 0.61696 0.23300 0.21071
 N1725 N 0.63399 0.23551 0.22166
 C1726 C 0.64624 0.25067 0.21585
 N1727 N 0.64061 0.26338 0.19899
 N1728 N 0.62357 0.26093 0.18817
 C1729 C 0.66611 0.25237 0.22601
 C1730 C 0.68127 0.26184 0.21344
 C1731 C 0.70056 0.26198 0.22154
 C1732 C 0.70521 0.25320 0.24285
 C1733 C 0.68985 0.24430 0.25587
 C1734 C 0.67051 0.24372 0.24741
 H1735 H 0.59336 0.27108 0.16404
 H1736 H 0.56493 0.26482 0.13981
 H1737 H 0.56013 0.20611 0.16826
 H1738 H 0.58876 0.21226 0.19249
 H1739 H 0.67842 0.26851 0.19681
 H1740 H 0.71189 0.26888 0.21084
 H1741 H 0.69283 0.23727 0.27225
 H1742 H 0.65905 0.23634 0.25747
 C1743 C 0.09570 0.74610 0.67366
 C1744 C 0.08627 0.72772 0.67547
 C1745 C 0.07031 0.72327 0.66135
 C1746 C 0.06331 0.73719 0.64537
 C1747 C 0.07252 0.75566 0.64382
 C1748 C 0.08862 0.76004 0.65771
 C1749 C 0.11339 0.75045 0.68751
 N1750 N 0.12573 0.76538 0.68122
 N1751 N 0.14236 0.76857 0.69262
 C1752 C 0.14730 0.75708 0.71092
 N1753 N 0.13479 0.74237 0.71754
 N1754 N 0.11818 0.73910 0.70602
 C1755 C 0.16683 0.75939 0.72181
 C1756 C 0.17042 0.75220 0.74413
 C1757 C 0.18954 0.75293 0.75326
 C1758 C 0.20547 0.76053 0.74004
 C1759 C 0.20159 0.76801 0.71786
 C1760 C 0.18253 0.76774 0.70906
 H1761 H 0.09143 0.71664 0.68750
 H1762 H 0.06332 0.70899 0.66305
 H1763 H 0.06746 0.76662 0.63157
 H1764 H 0.09554 0.77433 0.65590
 H1765 H 0.15853 0.74572 0.75437
 H1766 H 0.19191 0.74690 0.77031
 H1767 H 0.21337 0.77381 0.70694
 H1768 H 0.18030 0.77328 0.69175
 C1769 C 0.91388 0.75334 0.67246
 C1770 C 0.92372 0.73775 0.66161
 C1771 C 0.94078 0.74120 0.64818
 C1772 C 0.94807 0.76046 0.64467
 C1773 C 0.93821 0.77595 0.65605
 C1774 C 0.92152 0.77239 0.66989
 C1775 C 0.89505 0.75009 0.68522
 N1776 N 0.88873 0.76307 0.70131
 N1777 N 0.87095 0.76112 0.71132
 C1778 C 0.85871 0.74622 0.70548
 N1779 N 0.86515 0.73309 0.68964
 N1780 N 0.88299 0.73493 0.67979
 C1781 C 0.83818 0.74533 0.71454
 C1782 C 0.82323 0.73729 0.70107
 C1783 C 0.80351 0.73790 0.70841
 C1784 C 0.79823 0.74594 0.72984
 C1785 C 0.81332 0.75360 0.74358
 C1786 C 0.83308 0.75348 0.73589
 H1787 H 0.91811 0.72289 0.66331
 H1788 H 0.94749 0.72880 0.63959
 H1789 H 0.94363 0.79090 0.65491
 H1790 H 0.91429 0.78471 0.67811
 H1791 H 0.82668 0.73111 0.68443
 H1792 H 0.79239 0.73193 0.69721
 H1793 H 0.80988 0.76005 0.76007
 H1794 H 0.84436 0.75982 0.74658
 C1795 C 0.41434 0.26085 0.18045
 C1796 C 0.42161 0.24517 0.16728
 C1797 C 0.43804 0.24769 0.15270
 C1798 C 0.44757 0.26598 0.15080
 C1799 C 0.44048 0.28166 0.16413
 C1800 C 0.42409 0.27909 0.17891
 C1801 C 0.39598 0.25831 0.19451
 N1802 N 0.39021 0.27184 0.21029
 N1803 N 0.37293 0.26998 0.22159
 C1804 C 0.36076 0.25456 0.21745
 N1805 N 0.36671 0.24094 0.20199
 N1806 N 0.38396 0.24271 0.19086
 C1807 C 0.34048 0.25353 0.22732
 C1808 C 0.32540 0.24582 0.21385
 C1809 C 0.30596 0.24531 0.22192
 C1810 C 0.30095 0.25178 0.24418
 C1811 C 0.31612 0.25939 0.25788
 C1812 C 0.33572 0.26048 0.24939
 H1813 H 0.41449 0.23091 0.16803
 H1814 H 0.44306 0.23538 0.14252
 H1815 H 0.44770 0.29586 0.16321
 H1816 H 0.41880 0.29149 0.18875
 H1817 H 0.32854 0.24060 0.19666
 H1818 H 0.29486 0.23958 0.21054
 H1819 H 0.31281 0.26475 0.27495
 H1820 H 0.34714 0.26658 0.26007
 C1821 C 0.40394 0.74210 0.31707
 C1822 C 0.41105 0.75759 0.33042
 C1823 C 0.42766 0.75503 0.34413
 C1824 C 0.43754 0.73690 0.34491
 C1825 C 0.43060 0.72139 0.33147
 C1826 C 0.41400 0.72400 0.31757
 C1827 C 0.38549 0.74466 0.30387
 N1828 N 0.37943 0.73098 0.28862
 N1829 N 0.36203 0.73283 0.27816
 C1830 C 0.35003 0.74839 0.28265
 N1831 N 0.35627 0.76218 0.29755
 N1832 N 0.37365 0.76040 0.30785
 C1833 C 0.32968 0.74941 0.27382
 C1834 C 0.31482 0.75742 0.28786
 C1835 C 0.29527 0.75775 0.28081
 C1836 C 0.28998 0.75080 0.25902
 C1837 C 0.30494 0.74290 0.24476
 C1838 C 0.32463 0.74200 0.25223
 H1839 H 0.40367 0.77173 0.33047
 H1840 H 0.43260 0.76718 0.35446
 H1841 H 0.43811 0.70733 0.33157
 H1842 H 0.40886 0.71175 0.30756
 H1843 H 0.31821 0.76296 0.30474
 H1844 H 0.28431 0.76368 0.29257
 H1845 H 0.30142 0.73709 0.22807
 H1846 H 0.33589 0.73564 0.24116
 C1847 C 0.90886 0.23381 0.82083
 C1848 C 0.91521 0.24919 0.83486
 C1849 C 0.93081 0.24638 0.85006
 C1850 C 0.94034 0.22809 0.85169
 C1851 C 0.93432 0.21281 0.83734
 C1852 C 0.91879 0.21567 0.82196
 C1853 C 0.89103 0.23639 0.80654
 N1854 N 0.88620 0.22318 0.79017
 N1855 N 0.86917 0.22476 0.77889
 C1856 C 0.85631 0.23956 0.78368
 N1857 N 0.86133 0.25292 0.79970
 N1858 N 0.87836 0.25142 0.81081
 C1859 C 0.83623 0.24000 0.77399
 C1860 C 0.82051 0.24631 0.78799
 C1861 C 0.80123 0.24616 0.78002
 C1862 C 0.79707 0.24038 0.75742
 C1863 C 0.81288 0.23417 0.74323
 C1864 C 0.83232 0.23375 0.75157
 H1865 H 0.90793 0.26337 0.83439
 H1866 H 0.93508 0.25839 0.86098
 H1867 H 0.94163 0.19865 0.83803
 H1868 H 0.91421 0.20352 0.81143
 H1869 H 0.82304 0.25093 0.80546
 H1870 H 0.78961 0.25092 0.79168
 H1871 H 0.81023 0.22942 0.72585
 H1872 H 0.84428 0.22875 0.74050
 C1873 C 0.60617 0.98196 0.63516
 C1874 C 0.60109 0.97788 0.65819
 C1875 C 0.61325 0.98407 0.67598
 C1876 C 0.63078 0.99488 0.67130
 C1877 C 0.63602 0.99837 0.64800
 C1878 C 0.62398 0.99192 0.63027
 C1879 C 0.59244 0.97706 0.61638
 N1880 N 0.59845 0.97852 0.59405
 N1881 N 0.58568 0.97596 0.57711
 C1882 C 0.56631 0.97185 0.58172
 N1883 N 0.56037 0.97002 0.60406
 N1884 N 0.57317 0.97249 0.62103
 C1885 C 0.55170 0.97189 0.56291
 C1886 C 0.53130 0.97332 0.56772
 C1887 C 0.51798 0.97769 0.55016
 C1888 C 0.52472 0.98080 0.52733
 C1889 C 0.54482 0.97700 0.52236
 C1890 C 0.55814 0.97277 0.53988
 H1891 H 0.58744 0.97024 0.66256
 H1892 H 0.60807 0.98134 0.69341
 H1893 H 0.64968 1.00575 0.64319
 H1894 H 0.62844 0.99519 0.61269
 H1895 H 0.52573 0.97236 0.58524
 H1896 H 0.50258 0.97995 0.55485
 H1897 H 0.55074 0.97799 0.50523
 H1898 H 0.57369 0.97113 0.53544
 C1899 C 0.09758 0.48672 1.15603
 C1900 C 0.11517 0.47640 1.16070
 C1901 C 0.12822 0.48312 1.17737
 C1902 C 0.12414 0.50053 1.18918
 C1903 C 0.10644 0.51066 1.18487
 C1904 C 0.09315 0.50369 1.16863
 C1905 C 0.08496 0.48106 1.13660
 N1906 N 0.09322 0.47267 1.11771
 N1907 N 0.08265 0.47011 1.09882
 C1908 C 0.06328 0.47549 1.09819
 N1909 N 0.05480 0.48333 1.11728
 N1910 N 0.06546 0.48611 1.13611
 C1911 C 0.05311 0.47669 1.07598
 C1912 C 0.03353 0.47020 1.07324
 C1913 C 0.02379 0.47339 1.05229
 C1914 C 0.03328 0.48374 1.03412
 C1915 C 0.05283 0.49035 1.03739
 C1916 C 0.06274 0.48639 1.05770
 H1917 H 0.11894 0.46328 1.15123
 H1918 H 0.14180 0.47509 1.18054
 H1919 H 0.10299 0.52405 1.19397
 H1920 H 0.07982 0.51204 1.16526
 H1921 H 0.02574 0.46292 1.08734
 H1922 H 0.00862 0.46846 1.05070
 H1923 H 0.06049 0.49920 1.02452
 H1924 H 0.07765 0.49199 1.05963
 C1925 C -0.11730 0.01119 1.13524
 C1926 C -0.11971 0.02433 1.15335
 C1927 C -0.13029 0.01866 1.17327
 C1928 C -0.13814 -0.00062 1.17592
 C1929 C -0.13527 -0.01360 1.15735
 C1930 C -0.12538 -0.00767 1.13735
 C1931 C -0.10541 0.01603 1.11455
 N1932 N -0.11036 0.00786 1.09431
 N1933 N -0.09780 0.00828 1.07655
 C1934 C -0.07973 0.01681 1.07827
 N1935 N -0.07509 0.02590 1.09816
 N1936 N -0.08775 0.02552 1.11602
 C1937 C -0.06455 0.01277 1.06048
 C1938 C -0.04851 0.02542 1.05579
 C1939 C -0.03413 0.02036 1.03917
 C1940 C -0.03559 0.00257 1.02715
 C1941 C -0.05110 -0.01038 1.03316
 C1942 C -0.06555 -0.00516 1.04905
 H1943 H -0.11361 0.03902 1.15200
 H1944 H -0.13242 0.02974 1.18618
 H1945 H -0.13959 -0.02886 1.15823
 H1946 H -0.12324 -0.01831 1.12383
 H1947 H -0.04715 0.03915 1.06485
 H1948 H -0.02187 0.03030 1.03586
 H1949 H -0.05219 -0.02485 1.02588
 H1950 H -0.07725 -0.01564 1.05297
 C1951 C 0.39938 0.51836 0.66008
 C1952 C 0.39521 0.49833 0.66315
 C1953 C 0.37998 0.49217 0.67800
 C1954 C 0.36885 0.50587 0.69085
 C1955 C 0.37343 0.52603 0.68795
 C1956 C 0.38827 0.53219 0.67239
 C1957 C 0.41491 0.52450 0.64347
 N1958 N 0.41179 0.53963 0.62851
 N1959 N 0.42488 0.54359 0.61170
 C1960 C 0.44174 0.53278 0.60949
 N1961 N 0.44506 0.51801 0.62486
 N1962 N 0.43187 0.51389 0.64145
 C1963 C 0.45469 0.53483 0.58895
 C1964 C 0.47468 0.52934 0.58985
 C1965 C 0.48571 0.52681 0.56958
 C1966 C 0.47680 0.52896 0.54785
 C1967 C 0.45729 0.53629 0.54732
 C1968 C 0.44645 0.53938 0.56757
 H1969 H 0.40357 0.48739 0.65373
 H1970 H 0.37766 0.47651 0.68011
 H1971 H 0.36506 0.53718 0.69695
 H1972 H 0.39120 0.54775 0.67015
 H1973 H 0.48151 0.52602 0.60619
 H1974 H 0.50083 0.52169 0.57111
 H1975 H 0.44970 0.53882 0.53154
 H1976 H 0.43106 0.54379 0.56636
 C1977 C 0.39565 0.49707 -0.14826
 C1978 C 0.38132 0.48336 -0.15492
 C1979 C 0.36637 0.48890 -0.17021
 C1980 C 0.36527 0.50834 -0.17856
 C1981 C 0.37935 0.52207 -0.17149
 C1982 C 0.39445 0.51648 -0.15667
 C1983 C 0.41194 0.49150 -0.13272
 N1984 N 0.42896 0.50211 -0.13302
 N1985 N 0.44332 0.49811 -0.11826
 C1986 C 0.44131 0.48336 -0.10247
 N1987 N 0.42437 0.47253 -0.10231
 N1988 N 0.41000 0.47645 -0.11725
 C1989 C 0.45647 0.48084 -0.08445
 C1990 C 0.45258 0.46988 -0.06427
 C1991 C 0.46525 0.47119 -0.04544
 C1992 C 0.48173 0.48386 -0.04613
 C1993 C 0.48676 0.49279 -0.06746
 C1994 C 0.47430 0.49136 -0.08624
 H1995 H 0.38191 0.46831 -0.14868
 H1996 H 0.35566 0.47806 -0.17549
 H1997 H 0.37894 0.53708 -0.17791
 H1998 H 0.40517 0.52742 -0.15172
 H1999 H 0.43915 0.46126 -0.06246
 H2000 H 0.46112 0.46342 -0.02996
 H2001 H 0.49977 0.50194 -0.06958
 H2002 H 0.47816 0.49947 -0.10180
 C2003 C -0.10671 0.98800 0.35559
 C2004 C -0.09845 0.98775 0.33328
 C2005 C -0.10955 0.99414 0.31445
 C2006 C -0.12900 1.00106 0.31767
 C2007 C -0.13749 1.00062 0.33979
 C2008 C -0.12653 0.99407 0.35852
 C2009 C -0.09446 0.98382 0.37603
 N2010 N -0.10266 0.98514 0.39736
 N2011 N -0.09145 0.98428 0.41593
 C2012 C -0.07152 0.98196 0.41402
 N2013 N -0.06329 0.97987 0.39276
 N2014 N -0.07456 0.98080 0.37409
 C2015 C -0.05918 0.98492 0.43439
 C2016 C -0.04077 0.97558 0.43730
 C2017 C -0.02934 0.97945 0.45676
 C2018 C -0.03597 0.99308 0.47318
 C2019 C -0.05420 1.00266 0.46960
 C2020 C -0.06573 0.99837 0.45081
 H2021 H -0.08325 0.98317 0.33043
 H2022 H -0.10271 0.99436 0.29749
 H2023 H -0.15257 1.00559 0.34262
 H2024 H -0.13344 0.99441 0.37541
 H2025 H -0.03535 0.96526 0.42467
 H2026 H -0.01528 0.97201 0.45877
 H2027 H -0.05990 1.01343 0.48151
 H2028 H -0.07966 1.00611 0.44883
 C2029 C 0.11118 0.51227 0.36107
 C2030 C 0.10494 0.51347 0.33815
 C2031 C 0.11739 0.50750 0.32024
 C2032 C 0.13648 0.50021 0.32466
 C2033 C 0.14289 0.49919 0.34753
 C2034 C 0.13039 0.50523 0.36557
 C2035 C 0.09717 0.51728 0.38001
 N2036 N 0.10299 0.51717 0.40229
 N2037 N 0.08990 0.52019 0.41927
 C2038 C 0.07046 0.52343 0.41468
 N2039 N 0.06474 0.52388 0.39240
 N2040 N 0.07782 0.52095 0.37546
 C2041 C 0.05544 0.52395 0.43349
 C2042 C 0.03554 0.51969 0.42892
 C2043 C 0.02209 0.51605 0.44690
 C2044 C 0.02814 0.51663 0.46999
 C2045 C 0.04732 0.52368 0.47437
 C2046 C 0.06097 0.52685 0.45637
 H2047 H 0.09025 0.51870 0.33399
 H2048 H 0.11179 0.50811 0.30288
 H2049 H 0.15754 0.49370 0.35146
 H2050 H 0.13563 0.50403 0.38304
 H2051 H 0.03059 0.51783 0.41145
 H2052 H 0.00723 0.51159 0.44252
 H2053 H 0.05216 0.52639 0.49154
 H2054 H 0.07602 0.53095 0.46041
 C2055 C 0.60915 0.01165 -0.14996
 C2056 C 0.60158 0.01255 -0.17236
 C2057 C 0.61281 0.00585 -0.19106
 C2058 C 0.63186 -0.00200 -0.18784
 C2059 C 0.63963 -0.00251 -0.16555
 C2060 C 0.62844 0.00430 -0.14684
 C2061 C 0.59661 0.01727 -0.12988
 N2062 N 0.60416 0.01737 -0.10835
 N2063 N 0.59253 0.02082 -0.09013
 C2064 C 0.57284 0.02433 -0.09263
 N2065 N 0.56537 0.02459 -0.11421
 N2066 N 0.57700 0.02119 -0.13243
 C2067 C 0.55949 0.02545 -0.07215
 C2068 C 0.53883 0.02449 -0.07453
 C2069 C 0.52651 0.02128 -0.05531
 C2070 C 0.53452 0.01880 -0.03317
 C2071 C 0.55494 0.02224 -0.03069
 C2072 C 0.56728 0.02536 -0.04990
 H2073 H 0.58680 0.01811 -0.17542
 H2074 H 0.60634 0.00628 -0.20800
 H2075 H 0.65436 -0.00825 -0.16257
 H2076 H 0.63478 0.00339 -0.12986
 H2077 H 0.53220 0.02493 -0.09138
 H2078 H 0.51082 0.01928 -0.05817
 H2079 H 0.56179 0.02176 -0.01420
 H2080 H 0.58308 0.02672 -0.04733
 C2081 C 0.66235 0.56444 -0.01596
 C2082 C 0.68124 0.55576 -0.01656
 C2083 C 0.69787 0.56619 -0.00902
 C2084 C 0.69578 0.58522 0.00018
 C2085 C 0.67680 0.59388 0.00000
 C2086 C 0.66049 0.58377 -0.00811
 C2087 C 0.64414 0.55348 -0.02174
 N2088 N 0.62727 0.56362 -0.02607
 N2089 N 0.60994 0.55447 -0.02717
 C2090 C 0.60869 0.53472 -0.02414
 N2091 N 0.62564 0.52433 -0.02079
 N2092 N 0.64309 0.53356 -0.01965
 C2093 C 0.58901 0.52596 -0.01982
 C2094 C 0.58274 0.50839 -0.02983
 C2095 C 0.56326 0.50153 -0.02591
 C2096 C 0.55003 0.51197 -0.01157
 C2097 C 0.55706 0.52900 -0.00087
 C2098 C 0.57604 0.53599 -0.00517
 H2099 H 0.68311 0.54087 -0.02256
 H2100 H 0.71210 0.55883 -0.00916
 H2101 H 0.67444 0.60882 0.00562
 H2102 H 0.64620 0.59102 -0.00751
 H2103 H 0.59265 0.50034 -0.04108
 H2104 H 0.55857 0.48821 -0.03421
 H2105 H 0.54784 0.53742 0.01069
 H2106 H 0.58064 0.54936 0.00316
 C2107 C 0.14983 1.06342 0.49400
 C2108 C 0.16700 1.05267 0.49951
 C2109 C 0.18446 1.06246 0.50544
 C2110 C 0.18487 1.08306 0.50616
 C2111 C 0.16815 1.09376 0.49942
 C2112 C 0.15088 1.08407 0.49325
 C2113 C 0.13032 1.05364 0.49161
 N2114 N 0.11372 1.06479 0.48998
 N2115 N 0.09586 1.05662 0.49111
 C2116 C 0.09377 1.03691 0.49374
 N2117 N 0.11031 1.02554 0.49463
 N2118 N 0.12828 1.03378 0.49363
 C2119 C 0.07396 1.02888 0.49901
 C2120 C 0.06652 1.01200 0.48852
 C2121 C 0.04681 1.00610 0.49273
 C2122 C 0.03445 1.01682 0.50780
 C2123 C 0.04266 1.03298 0.51910
 C2124 C 0.06193 1.03905 0.51456
 H2125 H 0.16670 1.03677 0.50023
 H2126 H 0.19728 1.05398 0.51060
 H2127 H 0.16828 1.10967 0.49964
 H2128 H 0.13808 1.09288 0.48888
 H2129 H 0.07568 1.00386 0.47653
 H2130 H 0.04121 0.99340 0.48389
 H2131 H 0.03399 1.04182 0.53068
 H2132 H 0.06741 1.05198 0.52311
 C2133 C 0.15332 -0.06867 1.02637
 C2134 C 0.15539 -0.08904 1.02312
 C2135 C 0.17326 -0.09689 1.01518
 C2136 C 0.18958 -0.08465 1.01067
 C2137 C 0.18810 -0.06453 1.01549
 C2138 C 0.17007 -0.05656 1.02316
 C2139 C 0.13329 -0.06018 1.03013
 N2140 N 0.13019 -0.04041 1.02933
 N2141 N 0.11184 -0.03310 1.02868
 C2142 C 0.09592 -0.04532 1.02877
 N2143 N 0.09902 -0.06497 1.03045
 N2144 N 0.11729 -0.07223 1.03120
 C2145 C 0.07609 -0.03810 1.02255
 C2146 C 0.06560 -0.04862 1.00622
 C2147 C 0.04724 -0.04215 0.99888
 C2148 C 0.03824 -0.02532 1.00825
 C2149 C 0.04887 -0.01462 1.02462
 C2150 C 0.06781 -0.02083 1.03151
 H2151 H 0.14291 -0.09888 1.02554
 H2152 H 0.17416 -0.11249 1.01182
 H2153 H 0.20056 -0.05483 1.01209
 H2154 H 0.16902 -0.04085 1.02557
 H2155 H 0.07187 -0.06168 0.99854
 H2156 H 0.04023 -0.05056 0.98565
 H2157 H 0.04270 -0.00138 1.03195
 H2158 H 0.07584 -0.01235 1.04395
 C2159 C 0.65226 0.43343 0.52231
 C2160 C 0.65081 0.41392 0.51496
 C2161 C 0.66745 0.40380 0.50719
 C2162 C 0.68635 0.41265 0.50684
 C2163 C 0.68801 0.43182 0.51569
 C2164 C 0.67108 0.44222 0.52293
 C2165 C 0.63382 0.44452 0.52746
 N2166 N 0.63327 0.46452 0.52662
 N2167 N 0.61597 0.47409 0.52760
 C2168 C 0.59863 0.46397 0.52947
 N2169 N 0.59933 0.44410 0.53123
 N2170 N 0.61651 0.43460 0.53029
 C2171 C 0.57927 0.47359 0.52583
 C2172 C 0.56507 0.46342 0.51335
 C2173 C 0.54683 0.47181 0.50874
 C2174 C 0.54167 0.49050 0.51703
 C2175 C 0.55600 0.50087 0.52950
 C2176 C 0.57477 0.49256 0.53363
 H2177 H 0.63661 0.40654 0.51443
 H2178 H 0.66541 0.38876 0.50184
 H2179 H 0.70213 0.43936 0.51566
 H2180 H 0.67268 0.45723 0.52856
 H2181 H 0.56827 0.44901 0.50650
 H2182 H 0.53694 0.46348 0.49818
 H2183 H 0.55280 0.51541 0.53589
 H2184 H 0.58561 0.50079 0.54311
 C2185 C -0.15575 0.43304 0.47771
 C2186 C -0.15612 0.41239 0.47956
 C2187 C -0.17304 0.40261 0.48763
 C2188 C -0.19013 0.41316 0.49367
 C2189 C -0.19031 0.43367 0.49054
 C2190 C -0.17320 0.44356 0.48279
 C2191 C -0.13665 0.44326 0.47292
 N2192 N -0.13448 0.46286 0.47664
 N2193 N -0.11655 0.47119 0.47603
 C2194 C -0.10013 0.46022 0.47164
 N2195 N -0.10243 0.44087 0.46704
 N2196 N -0.12027 0.43260 0.46759
 C2197 C -0.08009 0.46772 0.47642
 C2198 C -0.06730 0.45543 0.48865
 C2199 C -0.04885 0.46202 0.49527
 C2200 C -0.04196 0.48093 0.48908
 C2201 C -0.05476 0.49333 0.47656
 C2202 C -0.07383 0.48687 0.47056
 H2203 H -0.14303 0.40375 0.47580
 H2204 H -0.17264 0.38677 0.48973
 H2205 H -0.20337 0.44208 0.49516
 H2206 H -0.17344 0.45945 0.48152
 H2207 H -0.07193 0.44082 0.49407
 H2208 H -0.04035 0.45224 0.50603
 H2209 H -0.05025 0.50812 0.47183
 H2210 H -0.08360 0.49672 0.46133
 C2211 C 0.35126 -0.06581 -0.02217
 C2212 C 0.35019 -0.08621 -0.01804
 C2213 C 0.33274 -0.09484 -0.00967
 C2214 C 0.31585 -0.08336 -0.00557
 C2215 C 0.31645 -0.06317 -0.01092
 C2216 C 0.33406 -0.05443 -0.01900
 C2217 C 0.37074 -0.05651 -0.02739
 N2218 N 0.37334 -0.03673 -0.02595
 N2219 N 0.39147 -0.02887 -0.02704
 C2220 C 0.40768 -0.04053 -0.02962
 N2221 N 0.40497 -0.06016 -0.03195
 N2222 N 0.38693 -0.06796 -0.03092
 C2223 C 0.42788 -0.03294 -0.02578
 C2224 C 0.44123 -0.04510 -0.01419
 C2225 C 0.45966 -0.03815 -0.00794
 C2226 C 0.46594 -0.01900 -0.01391
 C2227 C 0.45265 -0.00680 -0.02601
 C2228 C 0.43364 -0.01364 -0.03162
 H2229 H 0.36310 -0.09549 -0.02028
 H2230 H 0.33255 -0.11047 -0.00587
 H2231 H 0.30357 -0.05402 -0.00783
 H2232 H 0.33436 -0.03870 -0.02203
 H2233 H 0.43706 -0.05984 -0.00876
 H2234 H 0.46849 -0.04777 0.00265
 H2235 H 0.45668 0.00816 -0.03054
 H2236 H 0.42346 -0.00388 -0.04036
 C2237 C 0.34282 1.06802 0.53062
 C2238 C 0.32543 1.05725 0.52670
 C2239 C 0.30839 1.06672 0.51869
 C2240 C 0.30856 1.08705 0.51414
 C2241 C 0.32562 1.09791 0.51889
 C2242 C 0.34250 1.08854 0.52722
 C2243 C 0.36182 1.05800 0.53569
 N2244 N 0.37815 1.06883 0.54018
 N2245 N 0.39598 1.06056 0.54067
 C2246 C 0.39830 1.04106 0.53683
 N2247 N 0.38189 1.02996 0.53340
 N2248 N 0.36398 1.03828 0.53287
 C2249 C 0.41827 1.03342 0.53144
 C2250 C 0.42401 1.01394 0.53619
 C2251 C 0.44266 1.00705 0.52870
 C2252 C 0.45552 1.01936 0.51574
 C2253 C 0.44923 1.03868 0.51088
 C2254 C 0.43124 1.04570 0.51904
 H2255 H 0.32518 1.04145 0.52914
 H2256 H 0.29534 1.05807 0.51512
 H2257 H 0.32598 1.11363 0.51576
 H2258 H 0.35558 1.09735 0.53005
 H2259 H 0.41407 1.00410 0.54548
 H2260 H 0.44671 0.99196 0.53245
 H2261 H 0.45764 1.04842 0.49973
 H2262 H 0.42699 1.06057 0.51439
 C2263 C -0.15041 0.55859 0.99825
 C2264 C -0.15919 0.56042 0.97654
 C2265 C -0.17568 0.57246 0.97339
 C2266 C -0.18395 0.58278 0.99190
 C2267 C -0.17573 0.58048 1.01382
 C2268 C -0.15897 0.56860 1.01694
 C2269 C -0.13187 0.54709 1.00076
 N2270 N -0.12029 0.54887 1.01958
 N2271 N -0.10278 0.53979 1.02065
 C2272 C -0.09618 0.52852 1.00299
 N2273 N -0.10798 0.52646 0.98446
 N2274 N -0.12540 0.53554 0.98336
 C2275 C -0.07587 0.52012 1.00268
 C2276 C -0.06886 0.51055 0.98293
 C2277 C -0.04904 0.50512 0.98084
 C2278 C -0.03546 0.50944 0.99820
 C2279 C -0.04293 0.51695 1.01906
 C2280 C -0.06286 0.52263 1.02110
 H2281 H -0.15302 0.55298 0.96175
 H2282 H -0.18191 0.57387 0.95638
 H2283 H -0.18190 0.58835 1.02832
 H2284 H -0.15259 0.56745 1.03389
 H2285 H -0.07852 0.50780 0.96862
 H2286 H -0.04436 0.49800 0.96517
 H2287 H -0.03313 0.51963 1.03327
 H2288 H -0.06789 0.52956 1.03679
 C2289 C 0.02395 0.65398 0.57262
 C2290 C 0.02064 0.67145 0.56012
 C2291 C 0.02231 0.68969 0.57079
 C2292 C 0.02763 0.69078 0.59402
 C2293 C 0.03139 0.67335 0.60633
 C2294 C 0.02946 0.65516 0.59580
 C2295 C 0.02090 0.63454 0.56208
 N2296 N 0.01853 0.61836 0.57569
 N2297 N 0.01514 0.60089 0.56660
 C2298 C 0.01408 0.59875 0.54349
 N2299 N 0.01666 0.61487 0.52974
 N2300 N 0.01992 0.63245 0.53888
 C2301 C 0.00985 0.57918 0.53397
 C2302 C 0.01596 0.57390 0.51169
 C2303 C 0.01329 0.55459 0.50405
 C2304 C 0.00448 0.54028 0.51858
 C2305 C -0.00290 0.54623 0.54020
 C2306 C 0.00000 0.56524 0.54786
 H2307 H 0.01632 0.67103 0.54228
 H2308 H 0.01947 0.70297 0.56091
 H2309 H 0.03534 0.67380 0.62431
 H2310 H 0.03216 0.64198 0.60592
 H2311 H 0.02333 0.58449 0.50046
 H2312 H 0.01835 0.55099 0.48696
 H2313 H -0.01037 0.53601 0.55180
 H2314 H -0.00531 0.56896 0.56492
 C2315 C 0.52239 0.15484 0.07499
 C2316 C 0.52037 0.17265 0.06274
 C2317 C 0.52137 0.19062 0.07420
 C2318 C 0.52481 0.19104 0.09796
 C2319 C 0.52717 0.17326 0.11007
 C2320 C 0.52582 0.15536 0.09876
 C2321 C 0.52030 0.13568 0.06348
 N2322 N 0.51498 0.11953 0.07600
 N2323 N 0.51277 0.10224 0.06598
 C2324 C 0.51593 0.10025 0.04304
 N2325 N 0.52143 0.11635 0.03043
 N2326 N 0.52348 0.13377 0.04046
 C2327 C 0.51312 0.08083 0.03241
 C2328 C 0.52353 0.07524 0.01243
 C2329 C 0.52196 0.05598 0.00418
 C2330 C 0.50979 0.04208 0.01565
 C2331 C 0.49864 0.04826 0.03492
 C2332 C 0.50040 0.06723 0.04322
 H2333 H 0.51765 0.17269 0.04444
 H2334 H 0.51966 0.20419 0.06449
 H2335 H 0.52976 0.17322 0.12841
 H2336 H 0.52752 0.14190 0.10866
 H2337 H 0.53345 0.08548 0.00374
 H2338 H 0.53077 0.05198 -0.01063
 H2339 H 0.48896 0.03825 0.04434
 H2340 H 0.49195 0.07114 0.05846
 C2341 C -0.02344 0.15117 0.93769
 C2342 C -0.00635 0.16028 0.92850
 C2343 C -0.00772 0.17765 0.91565
 C2344 C -0.02620 0.18651 0.91179
 C2345 C -0.04333 0.17753 0.92114
 C2346 C -0.04197 0.16001 0.93392
 C2347 C -0.02176 0.13217 0.95027
 N2348 N -0.03808 0.12146 0.95631
 N2349 N -0.03626 0.10372 0.96609
 C2350 C -0.01805 0.09601 0.97026
 N2351 N -0.00182 0.10692 0.96463
 N2352 N -0.00363 0.12459 0.95488
 C2353 C -0.01565 0.07548 0.97860
 C2354 C 0.00321 0.06680 0.97816
 C2355 C 0.00551 0.04681 0.98266
 C2356 C -0.01097 0.03478 0.98794
 C2357 C -0.02963 0.04386 0.99041
 C2358 C -0.03201 0.06393 0.98545
 H2359 H 0.00817 0.15383 0.93084
 H2360 H 0.00574 0.18392 0.90833
 H2361 H -0.05777 0.18413 0.91872
 H2362 H -0.05543 0.15339 0.94078
 H2363 H 0.01624 0.07525 0.97331
 H2364 H 0.02032 0.04084 0.98116
 H2365 H -0.04259 0.03539 0.99529
 H2366 H -0.04673 0.07024 0.98637
 C2367 C 0.48297 0.66433 0.43060
 C2368 C 0.49879 0.67220 0.41748
 C2369 C 0.49593 0.68852 0.40319
 C2370 C 0.47721 0.69744 0.40169
 C2371 C 0.46133 0.68955 0.41467
 C2372 C 0.46418 0.67317 0.42900
 C2373 C 0.48607 0.64675 0.44539
 N2374 N 0.47086 0.63868 0.45779
 N2375 N 0.47354 0.62231 0.47019
 C2376 C 0.49155 0.61339 0.47075
 N2377 N 0.50679 0.62163 0.45860
 N2378 N 0.50412 0.63798 0.44623
 C2379 C 0.49411 0.59415 0.48251
 C2380 C 0.51182 0.58358 0.47974
 C2381 C 0.51320 0.56418 0.48753
 C2382 C 0.49688 0.55474 0.49832
 C2383 C 0.47990 0.56603 0.50297
 C2384 C 0.47841 0.58542 0.49498
 H2385 H 0.51343 0.66571 0.41815
 H2386 H 0.50839 0.69410 0.39314
 H2387 H 0.44679 0.69626 0.41404
 H2388 H 0.45167 0.66746 0.43883
 H2389 H 0.52437 0.58994 0.47056
 H2390 H 0.52689 0.55644 0.48404
 H2391 H 0.46718 0.55972 0.51144
 H2392 H 0.46463 0.59325 0.49776
 C2393 C 0.51100 0.84754 0.41804
 C2394 C 0.50901 0.82953 0.42990
 C2395 C 0.51052 0.81182 0.41806
 C2396 C 0.51447 0.81187 0.39428
 C2397 C 0.51685 0.82983 0.38252
 C2398 C 0.51495 0.84750 0.39424
 C2399 C 0.50846 0.86638 0.43006
 N2400 N 0.50299 0.88268 0.41810
 N2401 N 0.50048 0.89972 0.42865
 C2402 C 0.50345 0.90125 0.45158
 N2403 N 0.50906 0.88498 0.46362
 N2404 N 0.51141 0.86783 0.45306
 C2405 C 0.50063 0.92042 0.46278
 C2406 C 0.51087 0.92542 0.48275
 C2407 C 0.50948 0.94449 0.49153
 C2408 C 0.49771 0.95880 0.48058
 C2409 C 0.48659 0.95317 0.46141
 C2410 C 0.48816 0.93436 0.45258
 H2411 H 0.50589 0.82914 0.44822
 H2412 H 0.50877 0.79806 0.42745
 H2413 H 0.51983 0.83017 0.36417
 H2414 H 0.51663 0.86116 0.38466
 H2415 H 0.52054 0.91487 0.49100
 H2416 H 0.51808 0.94798 0.50640
 H2417 H 0.47711 0.96350 0.45249
 H2418 H 0.47981 0.93085 0.43740
 C2419 C 0.01424 0.33804 0.93293
 C2420 C 0.02130 0.33647 0.91018
 C2421 C 0.02120 0.31850 0.89906
 C2422 C 0.01418 0.30151 0.91038
 C2423 C 0.00627 0.30310 0.93279
 C2424 C 0.00628 0.32126 0.94399
 C2425 C 0.01595 0.35715 0.94470
 N2426 N 0.00542 0.36135 0.96416
 N2427 N 0.00680 0.37903 0.97378
 C2428 C 0.01888 0.39309 0.96440
 N2429 N 0.02958 0.38863 0.94526
 N2430 N 0.02817 0.37112 0.93566
 C2431 C 0.01959 0.41342 0.97332
 C2432 C 0.03056 0.42761 0.96094
 C2433 C 0.02969 0.44726 0.96684
 C2434 C 0.01834 0.45354 0.98586
 C2435 C 0.00810 0.43925 0.99911
 C2436 C 0.00864 0.41935 0.99283
 H2437 H 0.02716 0.34914 0.90092
 H2438 H 0.02692 0.31784 0.88159
 H2439 H 0.00076 0.29020 0.94189
 H2440 H 0.00064 0.32205 0.96148
 H2441 H 0.03925 0.42377 0.94587
 H2442 H 0.03758 0.45761 0.95580
 H2443 H -0.00099 0.44350 1.01370
 H2444 H 0.00005 0.40875 1.00278
 C2445 C 0.48852 0.33911 0.06179
 C2446 C 0.46998 0.33007 0.06552
 C2447 C 0.46822 0.31335 0.07962
 C2448 C 0.48493 0.30529 0.09043
 C2449 C 0.50347 0.31428 0.08661
 C2450 C 0.50526 0.33094 0.07242
 C2451 C 0.49026 0.35734 0.04763
 N2452 N 0.50827 0.36539 0.04266
 N2453 N 0.50974 0.38236 0.03107
 C2454 C 0.49326 0.39202 0.02394
 N2455 N 0.47527 0.38382 0.02863
 N2456 N 0.47380 0.36684 0.04016
 C2457 C 0.49473 0.41192 0.01332
 C2458 C 0.47774 0.42363 0.01112
 C2459 C 0.47932 0.44341 0.00480
 C2460 C 0.49786 0.45217 0.00020
 C2461 C 0.51470 0.43984 0.00039
 C2462 C 0.51318 0.42005 0.00707
 H2463 H 0.45679 0.33592 0.05755
 H2464 H 0.45378 0.30662 0.08190
 H2465 H 0.51659 0.30864 0.09493
 H2466 H 0.51973 0.33758 0.07009
 H2467 H 0.46320 0.41781 0.01542
 H2468 H 0.46582 0.45165 0.00446
 H2469 H 0.52932 0.44565 -0.00346
 H2470 H 0.52658 0.41135 0.00816
 C2471 C -0.01662 0.84338 0.57022
 C2472 C -0.02308 0.84145 0.59320
 C2473 C -0.02231 0.82337 0.60457
 C2474 C -0.01529 0.80662 0.59322
 C2475 C -0.00806 0.80861 0.57049
 C2476 C -0.00866 0.82689 0.55909
 C2477 C -0.01883 0.86257 0.55828
 N2478 N -0.00794 0.86747 0.53920
 N2479 N -0.00952 0.88534 0.52959
 C2480 C -0.02219 0.89887 0.53859
 N2481 N -0.03331 0.89368 0.55730
 N2482 N -0.03168 0.87598 0.56691
 C2483 C -0.02279 0.91948 0.53001
 C2484 C -0.03394 0.93327 0.54238
 C2485 C -0.03257 0.95315 0.53718
 C2486 C -0.02056 0.96007 0.51884
 C2487 C -0.01023 0.94619 0.50548
 C2488 C -0.01126 0.92606 0.51109
 H2489 H -0.02889 0.85394 0.60247
 H2490 H -0.02747 0.82245 0.62227
 H2491 H -0.00258 0.79593 0.56131
 H2492 H -0.00350 0.82799 0.54141
 H2493 H -0.04305 0.92889 0.55704
 H2494 H -0.04043 0.96315 0.54838
 H2495 H -0.00059 0.95091 0.49144
 H2496 H -0.00251 0.91578 0.50116
 C2497 C 0.24252 0.35287 0.10602
 C2498 C 0.23774 0.34739 0.08362
 C2499 C 0.24488 0.35822 0.06464
 C2500 C 0.25739 0.37469 0.06748
 C2501 C 0.26206 0.38005 0.09012
 C2502 C 0.25460 0.36942 0.10903
 C2503 C 0.23572 0.34109 0.12624
 N2504 N 0.23671 0.34872 0.14761
 N2505 N 0.23242 0.33777 0.16609
 C2506 C 0.22691 0.31867 0.16412
 N2507 N 0.22541 0.31112 0.14269
 N2508 N 0.22965 0.32214 0.12411
 C2509 C 0.22553 0.30594 0.18503
 C2510 C 0.22065 0.28586 0.18399
 C2511 C 0.22360 0.27337 0.20309
 C2512 C 0.23188 0.28064 0.22342
 C2513 C 0.23546 0.30101 0.22456
 C2514 C 0.23186 0.31345 0.20600
 H2515 H 0.22858 0.33462 0.08072
 H2516 H 0.24129 0.35292 0.04775
 H2517 H 0.27095 0.39289 0.09351
 H2518 H 0.25859 0.37407 0.12609
 H2519 H 0.21564 0.27959 0.16807
 H2520 H 0.22092 0.25779 0.20124
 H2521 H 0.24286 0.30744 0.23894
 H2522 H 0.23581 0.32879 0.20760
 C2523 C 0.72950 0.85812 0.59798
 C2524 C 0.73019 0.85224 0.57491
 C2525 C 0.73542 0.86555 0.55742
 C2526 C 0.74011 0.88513 0.56249
 C2527 C 0.73927 0.89114 0.58551
 C2528 C 0.73393 0.87779 0.60308
 C2529 C 0.72519 0.84347 0.61652
 N2530 N 0.72319 0.84896 0.63882
 N2531 N 0.72074 0.83554 0.65553
 C2532 C 0.72020 0.81607 0.65063
 N2533 N 0.72187 0.81063 0.62832
 N2534 N 0.72423 0.82403 0.61164
 C2535 C 0.72029 0.80102 0.66930
 C2536 C 0.72678 0.78185 0.66470
 C2537 C 0.73092 0.76877 0.68267
 C2538 C 0.72873 0.77450 0.70577
 C2539 C 0.71952 0.79268 0.71011
 C2540 C 0.71575 0.80597 0.69212
 H2541 H 0.72693 0.83723 0.57030
 H2542 H 0.73623 0.86037 0.53991
 H2543 H 0.74267 0.90617 0.58990
 H2544 H 0.73360 0.88281 0.62067
 H2545 H 0.72999 0.77732 0.64726
 H2546 H 0.73707 0.75460 0.67828
 H2547 H 0.71577 0.79708 0.72733
 H2548 H 0.70995 0.82038 0.69618
 C2549 C 0.25856 0.64754 0.61112
 C2550 C 0.25100 0.62867 0.61618
 C2551 C 0.24370 0.61684 0.59866
 C2552 C 0.24391 0.62360 0.57573
 C2553 C 0.25145 0.64245 0.57074
 C2554 C 0.25867 0.65425 0.58817
 C2555 C 0.26555 0.66058 0.62961
 N2556 N 0.27044 0.67957 0.62480
 N2557 N 0.27531 0.69179 0.64150
 C2558 C 0.27566 0.68554 0.66375
 N2559 N 0.27121 0.66643 0.66853
 N2560 N 0.26628 0.65420 0.65182
 C2561 C 0.27811 0.69983 0.68254
 C2562 C 0.27972 0.69346 0.70549
 C2563 C 0.27749 0.70678 0.72348
 C2564 C 0.27283 0.72660 0.71896
 C2565 C 0.27401 0.73328 0.69593
 C2566 C 0.27657 0.72008 0.67797
 H2567 H 0.25055 0.62310 0.63370
 H2568 H 0.23811 0.60233 0.60300
 H2569 H 0.25152 0.64822 0.55330
 H2570 H 0.26421 0.66873 0.58362
 H2571 H 0.28178 0.67804 0.70960
 H2572 H 0.27870 0.70117 0.74073
 H2573 H 0.27141 0.74856 0.69151
 H2574 H 0.27584 0.72564 0.66047
 C2575 C 0.76751 0.14500 0.11011
 C2576 C 0.75666 0.12787 0.11533
 C2577 C 0.74960 0.11596 0.09777
 C2578 C 0.75349 0.12061 0.07439
 C2579 C 0.76493 0.13761 0.06945
 C2580 C 0.77166 0.14963 0.08699
 C2581 C 0.77343 0.15862 0.12851
 N2582 N 0.77769 0.17770 0.12342
 N2583 N 0.78132 0.19045 0.14003
 C2584 C 0.78109 0.18461 0.16245
 N2585 N 0.77729 0.16542 0.16752
 N2586 N 0.77351 0.15269 0.15091
 C2587 C 0.78212 0.19927 0.18101
 C2588 C 0.78652 0.19357 0.20365
 C2589 C 0.78330 0.20654 0.22181
 C2590 C 0.77463 0.22508 0.21787
 C2591 C 0.77278 0.23154 0.19486
 C2592 C 0.77650 0.21880 0.17667
 H2593 H 0.75322 0.12387 0.13301
 H2594 H 0.74155 0.10281 0.10278
 H2595 H 0.76786 0.14247 0.05196
 H2596 H 0.77990 0.16278 0.08236
 H2597 H 0.79171 0.17883 0.20742
 H2598 H 0.78689 0.20159 0.23891
 H2599 H 0.76710 0.24602 0.19076
 H2600 H 0.77344 0.22385 0.15935
 C2601 C 0.73480 0.13989 0.89588
 C2602 C 0.73391 0.14802 0.91798
 C2603 C 0.74164 0.13778 0.93687
 C2604 C 0.75058 0.11928 0.93403
 C2605 C 0.75113 0.11100 0.91206
 C2606 C 0.74327 0.12113 0.89324
 C2607 C 0.72819 0.15126 0.87541
 N2608 N 0.72837 0.14285 0.85439
 N2609 N 0.72459 0.15343 0.83557
 C2610 C 0.72039 0.17291 0.83687
 N2611 N 0.71961 0.18125 0.85797
 N2612 N 0.72339 0.17063 0.87686
 C2613 C 0.71988 0.18514 0.81556
 C2614 C 0.71435 0.20508 0.81592
 C2615 C 0.71806 0.21735 0.79673
 C2616 C 0.72776 0.21001 0.77701
 C2617 C 0.73196 0.18974 0.77641
 C2618 C 0.72768 0.17747 0.79511
 H2619 H 0.72753 0.16242 0.92064
 H2620 H 0.74110 0.14456 0.95361
 H2621 H 0.75768 0.09665 0.90944
 H2622 H 0.74424 0.11438 0.87651
 H2623 H 0.70819 0.21143 0.83142
 H2624 H 0.71480 0.23286 0.79813
 H2625 H 0.74025 0.18336 0.76237
 H2626 H 0.73221 0.16223 0.79412
 C2627 C 0.23141 0.64613 0.39849
 C2628 C 0.24111 0.62811 0.39474
 C2629 C 0.24832 0.61700 0.41324
 C2630 C 0.24580 0.62357 0.43589
 C2631 C 0.23577 0.64137 0.43966
 C2632 C 0.22872 0.65254 0.42119
 C2633 C 0.22514 0.65870 0.37886
 N2634 N 0.21976 0.67771 0.38219
 N2635 N 0.21572 0.68952 0.36442
 C2636 C 0.21673 0.68279 0.34255
 N2637 N 0.22169 0.66366 0.33927
 N2638 N 0.22581 0.65187 0.35703
 C2639 C 0.21500 0.69649 0.32265
 C2640 C 0.21473 0.68928 0.30017
 C2641 C 0.21760 0.70194 0.28134
 C2642 C 0.22121 0.72209 0.28444
 C2643 C 0.21895 0.72955 0.30685
 C2644 C 0.21594 0.71691 0.32571
 H2645 H 0.24350 0.62275 0.37748
 H2646 H 0.25587 0.60327 0.40987
 H2647 H 0.23383 0.64693 0.45691
 H2648 H 0.22136 0.66634 0.42472
 H2649 H 0.21332 0.67368 0.29713
 H2650 H 0.21780 0.69549 0.26466
 H2651 H 0.22107 0.74502 0.31014
 H2652 H 0.21579 0.72305 0.34279
 C2653 C 0.76049 0.85571 0.39281
 C2654 C 0.75341 0.87435 0.38617
 C2655 C 0.74494 0.88694 0.40241
 C2656 C 0.74353 0.88124 0.42569
 C2657 C 0.75106 0.86282 0.43240
 C2658 C 0.75939 0.85019 0.41617
 C2659 C 0.76771 0.84156 0.37539
 N2660 N 0.76971 0.82222 0.38095
 N2661 N 0.77420 0.80910 0.36491
 C2662 C 0.77708 0.81475 0.34264
 N2663 N 0.77561 0.83416 0.33716
 N2664 N 0.77102 0.84729 0.35320
 C2665 C 0.77867 0.79986 0.32433
 C2666 C 0.78451 0.80516 0.30182
 C2667 C 0.78153 0.79223 0.28365
 C2668 C 0.77171 0.77421 0.28746
 C2669 C 0.76848 0.76798 0.31042
 C2670 C 0.77194 0.78064 0.32860
 H2671 H 0.75397 0.87905 0.36831
 H2672 H 0.73949 0.90115 0.39679
 H2673 H 0.75006 0.85794 0.45018
 H2674 H 0.76470 0.83596 0.42191
 H2675 H 0.79052 0.81962 0.29808
 H2676 H 0.78601 0.79690 0.26658
 H2677 H 0.76192 0.75382 0.31445
 H2678 H 0.76779 0.77584 0.34583
 C2679 C 0.27534 0.35601 0.88797
 C2680 C 0.26895 0.37561 0.88555
 C2681 C 0.26129 0.38577 0.90438
 C2682 C 0.26001 0.37663 0.92610
 C2683 C 0.26703 0.35730 0.92877
 C2684 C 0.27455 0.34706 0.90987
 C2685 C 0.28104 0.34459 0.86739
 N2686 N 0.28325 0.32474 0.86863
 N2687 N 0.28545 0.31421 0.84959
 C2688 C 0.28560 0.32311 0.82855
 N2689 N 0.28420 0.34301 0.82743
 N2690 N 0.28200 0.35351 0.84641
 C2691 C 0.28345 0.31145 0.80742
 C2692 C 0.27474 0.32028 0.78817
 C2693 C 0.26770 0.30888 0.77041
 C2694 C 0.27006 0.28832 0.77060
 C2695 C 0.28043 0.27965 0.78899
 C2696 C 0.28689 0.29108 0.80734
 H2697 H 0.26931 0.38298 0.86894
 H2698 H 0.25627 0.40076 0.90195
 H2699 H 0.26615 0.34991 0.94535
 H2700 H 0.27931 0.33199 0.91234
 H2701 H 0.27158 0.33588 0.78772
 H2702 H 0.25885 0.31633 0.75773
 H2703 H 0.28226 0.26387 0.79016
 H2704 H 0.29357 0.28384 0.82200
 C2705 C 0.80939 0.39435 0.77403
 C2706 C 0.79749 0.41109 0.77063
 C2707 C 0.80601 0.42890 0.76321
 C2708 C 0.82649 0.43013 0.75874
 C2709 C 0.83843 0.41366 0.76295
 C2710 C 0.83002 0.39603 0.77068
 C2711 C 0.80050 0.37476 0.77885
 N2712 N 0.81245 0.35912 0.78301
 N2713 N 0.80515 0.34099 0.78387
 C2714 C 0.78555 0.33765 0.78071
 N2715 N 0.77338 0.35332 0.77745
 N2716 N 0.78072 0.37154 0.77655
 C2717 C 0.77865 0.31736 0.77685
 C2718 C 0.75894 0.31143 0.78092
 C2719 C 0.75272 0.29248 0.77483
 C2720 C 0.76598 0.27937 0.76402
 C2721 C 0.78561 0.28572 0.76002
 C2722 C 0.79191 0.30411 0.76677
 H2723 H 0.78157 0.41030 0.77307
 H2724 H 0.79653 0.44146 0.76002
 H2725 H 0.85429 0.41436 0.75982
 H2726 H 0.83969 0.38350 0.77312
 H2727 H 0.74834 0.32149 0.78848
 H2728 H 0.73738 0.28841 0.77781
 H2729 H 0.79610 0.27709 0.75032
 H2730 H 0.80704 0.30839 0.76270
 C2731 C 0.31184 0.90186 0.27154
 C2732 C 0.30237 0.92021 0.27243
 C2733 C 0.31215 0.93724 0.26448
 C2734 C 0.33139 0.93620 0.25458
 C2735 C 0.34090 0.91775 0.25443
 C2736 C 0.33138 0.90097 0.26299
 C2737 C 0.30135 0.88333 0.27768
 N2738 N 0.31202 0.86683 0.28199
 N2739 N 0.30323 0.84940 0.28360
 C2740 C 0.28335 0.84761 0.28103
 N2741 N 0.27244 0.86420 0.27775
 N2742 N 0.28129 0.88175 0.27615
 C2743 C 0.27492 0.82786 0.27724
 C2744 C 0.25528 0.82267 0.28308
 C2745 C 0.24789 0.80393 0.27760
 C2746 C 0.25987 0.79035 0.26564
 C2747 C 0.27931 0.79614 0.25958
 C2748 C 0.28679 0.81424 0.26569
 H2749 H 0.28730 0.92134 0.27893
 H2750 H 0.30404 0.95096 0.26478
 H2751 H 0.35597 0.91617 0.24813
 H2752 H 0.33921 0.88709 0.26213
 H2753 H 0.24571 0.83306 0.29178
 H2754 H 0.23271 0.80030 0.28217
 H2755 H 0.28886 0.78713 0.24909
 H2756 H 0.30177 0.81793 0.26024
 C2757 C 0.19921 0.91306 0.72379
 C2758 C 0.21057 0.92934 0.73037
 C2759 C 0.20128 0.94626 0.73882
 C2760 C 0.18056 0.94697 0.74114
 C2761 C 0.16920 0.93117 0.73360
 C2762 C 0.17839 0.91448 0.72478
 C2763 C 0.20861 0.89387 0.71863
 N2764 N 0.19723 0.87867 0.71172
 N2765 N 0.20446 0.86052 0.71109
 C2766 C 0.22343 0.85674 0.71720
 N2767 N 0.23518 0.87202 0.72313
 N2768 N 0.22789 0.89025 0.72381
 C2769 C 0.22939 0.83625 0.72195
 C2770 C 0.24876 0.82929 0.71811
 C2771 C 0.25383 0.80991 0.72444
 C2772 C 0.23976 0.79746 0.73533
 C2773 C 0.22062 0.80499 0.73950
 C2774 C 0.21542 0.82379 0.73247
 H2775 H 0.22660 0.92874 0.72979
 H2776 H 0.21026 0.95836 0.74464
 H2777 H 0.15318 0.93153 0.73520
 H2778 H 0.16912 0.90229 0.71989
 H2779 H 0.25988 0.83881 0.71031
 H2780 H 0.26885 0.80489 0.72137
 H2781 H 0.20961 0.79680 0.74920
 H2782 H 0.20058 0.82895 0.73641
 C2783 C 0.68819 0.40544 0.23722
 C2784 C 0.69851 0.42261 0.24296
 C2785 C 0.68818 0.43919 0.25070
 C2786 C 0.66745 0.43868 0.25320
 C2787 C 0.65714 0.42180 0.24680
 C2788 C 0.66735 0.40544 0.23872
 C2789 C 0.69878 0.38695 0.23176
 N2790 N 0.68836 0.37114 0.22470
 N2791 N 0.69685 0.35359 0.22326
 C2792 C 0.71617 0.35103 0.22869
 N2793 N 0.72693 0.36695 0.23484
 N2794 N 0.71838 0.38460 0.23632
 C2795 C 0.72375 0.33090 0.23211
 C2796 C 0.74352 0.32557 0.22749
 C2797 C 0.75002 0.30627 0.23210
 C2798 C 0.73697 0.29226 0.24200
 C2799 C 0.71741 0.29817 0.24709
 C2800 C 0.71084 0.31694 0.24179
 H2801 H 0.71454 0.42309 0.24196
 H2802 H 0.69638 0.45215 0.25551
 H2803 H 0.64112 0.42121 0.24833
 H2804 H 0.65887 0.39251 0.23448
 H2805 H 0.75384 0.33625 0.22031
 H2806 H 0.76529 0.30249 0.22835
 H2807 H 0.70708 0.28864 0.25609
 H2808 H 0.69570 0.32079 0.24630
 C2809 C 0.68353 0.59550 0.27431
 C2810 C 0.69414 0.57788 0.27160
 C2811 C 0.68444 0.56080 0.26469
 C2812 C 0.66406 0.56117 0.26004
 C2813 C 0.65333 0.57850 0.26366
 C2814 C 0.66291 0.59543 0.27092
 C2815 C 0.69384 0.61436 0.27830
 N2816 N 0.68307 0.63088 0.28192
 N2817 N 0.69172 0.64841 0.28185
 C2818 C 0.71154 0.65023 0.27826
 N2819 N 0.72256 0.63368 0.27558
 N2820 N 0.71385 0.61606 0.27560
 C2821 C 0.71991 0.66990 0.27341
 C2822 C 0.73945 0.67511 0.27882
 C2823 C 0.74664 0.69403 0.27328
 C2824 C 0.73456 0.70776 0.26171
 C2825 C 0.71529 0.70192 0.25581
 C2826 C 0.70802 0.68354 0.26188
 H2827 H 0.71001 0.57743 0.27414
 H2828 H 0.69298 0.54754 0.26195
 H2829 H 0.63757 0.57904 0.26040
 H2830 H 0.65421 0.60870 0.27285
 H2831 H 0.74899 0.66469 0.28750
 H2832 H 0.76164 0.69782 0.27788
 H2833 H 0.70565 0.71132 0.24593
 H2834 H 0.69311 0.67978 0.25681
 C2835 C 0.18498 0.10669 0.77158
 C2836 C 0.16458 0.10509 0.76733
 C2837 C 0.15659 0.08736 0.75991
 C2838 C 0.16878 0.07085 0.75683
 C2839 C 0.18892 0.07211 0.76236
 C2840 C 0.19697 0.08988 0.76956
 C2841 C 0.19399 0.12614 0.77576
 N2842 N 0.21383 0.12877 0.77296
 N2843 N 0.22174 0.14666 0.77373
 C2844 C 0.21017 0.16267 0.77747
 N2845 N 0.19041 0.15999 0.78094
 N2846 N 0.18247 0.14209 0.78006
 C2847 C 0.21846 0.18269 0.77470
 C2848 C 0.20783 0.19920 0.78225
 C2849 C 0.21411 0.21815 0.77608
 C2850 C 0.23068 0.22097 0.76144
 C2851 C 0.24227 0.20444 0.75578
 C2852 C 0.23625 0.18557 0.76234
 H2853 H 0.15492 0.11773 0.76873
 H2854 H 0.14094 0.08667 0.75605
 H2855 H 0.19865 0.05960 0.76007
 H2856 H 0.21271 0.09059 0.77281
 H2857 H 0.19435 0.19745 0.79239
 H2858 H 0.20555 0.23038 0.78230
 H2859 H 0.25556 0.20586 0.74527
 H2860 H 0.24496 0.17319 0.75651
 C2861 C 0.31517 0.09673 0.22541
 C2862 C 0.33580 0.09459 0.22780
 C2863 C 0.34389 0.07680 0.23526
 C2864 C 0.33163 0.06063 0.24019
 C2865 C 0.31119 0.06222 0.23638
 C2866 C 0.30298 0.08017 0.22917
 C2867 C 0.30663 0.11660 0.22148
 N2868 N 0.28674 0.11986 0.22294
 N2869 N 0.27951 0.13814 0.22268
 C2870 C 0.29190 0.15385 0.22099
 N2871 N 0.31166 0.15052 0.21878
 N2872 N 0.31884 0.13234 0.21897
 C2873 C 0.28468 0.17409 0.22495
 C2874 C 0.29730 0.18739 0.23562
 C2875 C 0.29051 0.20578 0.24215
 C2876 C 0.27104 0.21197 0.23746
 C2877 C 0.25849 0.19881 0.22607
 C2878 C 0.26518 0.17994 0.22012
 H2879 H 0.34570 0.10692 0.22498
 H2880 H 0.35972 0.07585 0.23798
 H2881 H 0.30147 0.04990 0.24020
 H2882 H 0.28706 0.08129 0.22744
 H2883 H 0.31224 0.18320 0.24019
 H2884 H 0.30044 0.21460 0.25209
 H2885 H 0.24330 0.20278 0.22247
 H2886 H 0.25508 0.16988 0.21203
 C2887 C 0.80884 0.59035 0.73590
 C2888 C 0.82922 0.58893 0.74052
 C2889 C 0.83729 0.57151 0.74910
 C2890 C 0.82529 0.55497 0.75299
 C2891 C 0.80507 0.55601 0.74762
 C2892 C 0.79685 0.57363 0.73933
 C2893 C 0.80033 0.60965 0.72906
 N2894 N 0.78049 0.61321 0.73037
 N2895 N 0.77338 0.63134 0.72704
 C2896 C 0.78587 0.64657 0.72224
 N2897 N 0.80556 0.64280 0.72016
 N2898 N 0.81262 0.62478 0.72345
 C2899 C 0.77901 0.66723 0.72284
 C2900 C 0.79225 0.68153 0.73031
 C2901 C 0.78605 0.70068 0.73383
 C2902 C 0.76653 0.70668 0.72907
 C2903 C 0.75328 0.69245 0.72085
 C2904 C 0.75940 0.67282 0.71804
 H2905 H 0.83894 0.60147 0.73816
 H2906 H 0.85296 0.57099 0.75288
 H2907 H 0.79555 0.54338 0.75049
 H2908 H 0.78113 0.57424 0.73593
 H2909 H 0.80729 0.67769 0.73486
 H2910 H 0.79650 0.71030 0.74183
 H2911 H 0.73802 0.69626 0.71744
 H2912 H 0.74880 0.66201 0.71243
 C2913 C 0.90817 0.77328 0.17363
 C2914 C 0.92521 0.76375 0.18167
 C2915 C 0.94244 0.76296 0.16798
 C2916 C 0.94319 0.77175 0.14578
 C2917 C 0.92612 0.78190 0.13833
 C2918 C 0.90900 0.78263 0.15199
 C2919 C 0.88911 0.77238 0.18663
 N2920 N 0.87218 0.77819 0.17624
 N2921 N 0.85469 0.77593 0.18670
 C2922 C 0.85330 0.76787 0.20811
 N2923 N 0.87023 0.76245 0.21889
 N2924 N 0.88781 0.76462 0.20830
 C2925 C 0.83348 0.76351 0.21799
 C2926 C 0.82923 0.76424 0.24170
 C2927 C 0.80975 0.76112 0.24995
 C2928 C 0.79433 0.75716 0.23458
 C2929 C 0.79923 0.75514 0.21109
 C2930 C 0.81833 0.75860 0.20295
 H2931 H 0.92513 0.75651 0.19836
 H2932 H 0.95522 0.75570 0.17522
 H2933 H 0.92524 0.78839 0.12132
 H2934 H 0.89614 0.79010 0.14516
 H2935 H 0.84081 0.76767 0.25371
 H2936 H 0.80684 0.76188 0.26822
 H2937 H 0.78825 0.75130 0.19855
 H2938 H 0.82125 0.75736 0.18466
 C2939 C 0.40279 0.26931 0.66080
 C2940 C 0.41995 0.26461 0.67316
 C2941 C 0.43867 0.26623 0.66267
 C2942 C 0.44056 0.27274 0.63972
 C2943 C 0.42343 0.27742 0.62741
 C2944 C 0.40476 0.27568 0.63779
 C2945 C 0.38285 0.26761 0.67158
 N2946 N 0.36645 0.27000 0.65863
 N2947 N 0.34845 0.26867 0.66808
 C2948 C 0.34601 0.26493 0.69091
 N2949 N 0.36241 0.26252 0.70396
 N2950 N 0.38049 0.26381 0.69446
 C2951 C 0.32581 0.26377 0.70110
 C2952 C 0.32267 0.26214 0.72499
 C2953 C 0.30338 0.26173 0.73423
 C2954 C 0.28689 0.26300 0.71975
 C2955 C 0.29018 0.26417 0.69582
 C2956 C 0.30932 0.26461 0.68668
 H2957 H 0.41893 0.25964 0.69089
 H2958 H 0.45170 0.26264 0.67256
 H2959 H 0.42445 0.28220 0.60960
 H2960 H 0.39188 0.27942 0.62773
 H2961 H 0.33508 0.26140 0.73658
 H2962 H 0.30144 0.26059 0.75267
 H2963 H 0.27802 0.26512 0.68393
 H2964 H 0.31113 0.26574 0.66819
 C2965 C 0.40808 0.72886 0.83000
 C2966 C 0.42608 0.73284 0.81840
 C2967 C 0.44409 0.73149 0.83002
 C2968 C 0.44446 0.72583 0.85336
 C2969 C 0.42651 0.72141 0.86475
 C2970 C 0.40854 0.72300 0.85326
 C2971 C 0.38880 0.73157 0.81845
 N2972 N 0.37208 0.73428 0.83123
 N2973 N 0.35474 0.73735 0.82121
 C2974 C 0.35327 0.73773 0.79796
 N2975 N 0.36995 0.73481 0.78506
 N2976 N 0.38740 0.73188 0.79513
 C2977 C 0.33385 0.74180 0.78733
 C2978 C 0.32915 0.73522 0.76524
 C2979 C 0.31009 0.73826 0.75637
 C2980 C 0.29545 0.74800 0.76942
 C2981 C 0.30075 0.75540 0.79102
 C2982 C 0.31951 0.75217 0.79988
 H2983 H 0.42620 0.73745 0.80051
 H2984 H 0.45775 0.73482 0.82078
 H2985 H 0.42632 0.71715 0.88276
 H2986 H 0.39495 0.71974 0.86267
 H2987 H 0.34002 0.72731 0.75508
 H2988 H 0.30693 0.73282 0.73948
 H2989 H 0.29025 0.76340 0.80157
 H2990 H 0.32276 0.75781 0.81674
 C2991 C 0.90876 0.22422 0.32935
 C2992 C 0.92642 0.23204 0.32013
 C2993 C 0.94395 0.23123 0.33274
 C2994 C 0.94437 0.22233 0.35486
 C2995 C 0.92661 0.21389 0.36348
 C2996 C 0.90915 0.21490 0.35098
 C2997 C 0.88963 0.22682 0.31749
 N2998 N 0.87244 0.22524 0.32973
 N2999 N 0.85512 0.22851 0.31982
 C3000 C 0.85414 0.23339 0.29718
 N3001 N 0.87129 0.23470 0.28471
 N3002 N 0.88873 0.23157 0.29473
 C3003 C 0.83466 0.23790 0.28708
 C3004 C 0.83063 0.23484 0.26375
 C3005 C 0.81140 0.23781 0.25536
 C3006 C 0.79595 0.24383 0.27019
 C3007 C 0.80063 0.24817 0.29312
 C3008 C 0.81955 0.24500 0.30145
 H3009 H 0.92660 0.23924 0.30342
 H3010 H 0.95721 0.23729 0.32475
 H3011 H 0.92561 0.20746 0.38055
 H3012 H 0.89578 0.20869 0.35859
 H3013 H 0.84216 0.22966 0.25220
 H3014 H 0.80875 0.23527 0.23739
 H3015 H 0.78954 0.25356 0.30508
 H3016 H 0.82231 0.24804 0.31936
 C3017 C 0.09306 0.26580 0.32867
 C3018 C 0.07545 0.25983 0.31816
 C3019 C 0.05724 0.26114 0.33000
 C3020 C 0.05633 0.26854 0.35248
 C3021 C 0.07393 0.27462 0.36280
 C3022 C 0.09200 0.27331 0.35107
 C3023 C 0.11269 0.26371 0.31712
 N3024 N 0.12934 0.26739 0.32908
 N3025 N 0.14715 0.26499 0.31956
 C3026 C 0.14922 0.25883 0.29757
 N3027 N 0.13259 0.25537 0.28531
 N3028 N 0.11465 0.25772 0.29494
 C3029 C 0.16944 0.25561 0.28806
 C3030 C 0.17368 0.25526 0.26429
 C3031 C 0.19343 0.25377 0.25631
 C3032 C 0.20914 0.25269 0.27199
 C3033 C 0.20448 0.25201 0.29567
 C3034 C 0.18506 0.25349 0.30349
 H3035 H 0.07575 0.25396 0.30095
 H3036 H 0.04388 0.25647 0.32155
 H3037 H 0.07382 0.28004 0.38022
 H3038 H 0.10521 0.27804 0.35979
 H3039 H 0.16188 0.25674 0.25198
 H3040 H 0.19643 0.25412 0.23798
 H3041 H 0.21578 0.25085 0.30860
 H3042 H 0.18238 0.25324 0.32189
 C3043 C 0.59402 0.76845 0.82292
 C3044 C 0.57587 0.76397 0.81262
 C3045 C 0.55810 0.76489 0.82538
 C3046 C 0.55817 0.77052 0.84857
 C3047 C 0.57629 0.77529 0.85867
 C3048 C 0.59396 0.77423 0.84605
 C3049 C 0.61315 0.76640 0.81030
 N3050 N 0.63030 0.76600 0.82218
 N3051 N 0.64760 0.76358 0.81143
 C3052 C 0.64863 0.76153 0.78828
 N3053 N 0.63152 0.76217 0.77619
 N3054 N 0.61409 0.76449 0.78703
 C3055 C 0.66816 0.75806 0.77712
 C3056 C 0.67215 0.76281 0.75390
 C3057 C 0.69142 0.76064 0.74466
 C3058 C 0.70697 0.75378 0.75854
 C3059 C 0.70234 0.74787 0.78131
 C3060 C 0.68341 0.75018 0.79046
 H3061 H 0.57542 0.75942 0.79487
 H3062 H 0.54431 0.76129 0.81712
 H3063 H 0.57686 0.77946 0.87656
 H3064 H 0.60763 0.77783 0.85456
 H3065 H 0.66054 0.76863 0.74309
 H3066 H 0.69403 0.76445 0.72681
 H3067 H 0.71348 0.74183 0.79260
 H3068 H 0.68078 0.74585 0.80822
 C3069 C 0.59220 0.23045 0.66893
 C3070 C 0.57460 0.23731 0.67926
 C3071 C 0.55677 0.23710 0.66716
 C3072 C 0.55625 0.23002 0.64455
 C3073 C 0.57388 0.22333 0.63427
 C3074 C 0.59157 0.22348 0.64628
 C3075 C 0.61138 0.23074 0.68106
 N3076 N 0.62782 0.22363 0.67043
 N3077 N 0.64536 0.22446 0.68039
 C3078 C 0.64737 0.23241 0.70149
 N3079 N 0.63089 0.23927 0.71247
 N3080 N 0.61321 0.23846 0.70242
 C3081 C 0.66745 0.23423 0.71121
 C3082 C 0.67075 0.23765 0.73468
 C3083 C 0.69021 0.23873 0.74302
 C3084 C 0.70656 0.23662 0.72796
 C3085 C 0.70294 0.23362 0.70447
 C3086 C 0.68381 0.23236 0.69633
 H3087 H 0.57459 0.24280 0.69665
 H3088 H 0.54336 0.24222 0.67558
 H3089 H 0.57407 0.21815 0.61673
 H3090 H 0.60481 0.21822 0.63763
 H3091 H 0.65837 0.23917 0.74655
 H3092 H 0.69243 0.24107 0.76117
 H3093 H 0.71486 0.23176 0.69207
 H3094 H 0.68194 0.22993 0.67813
 C3095 C 0.08692 0.72809 0.17302
 C3096 C 0.08774 0.72392 0.14942
 C3097 C 0.07039 0.72119 0.13712
 C3098 C 0.05181 0.72285 0.14802
 C3099 C 0.05088 0.72691 0.17165
 C3100 C 0.06833 0.72929 0.18413
 C3101 C 0.10551 0.73188 0.18541
 N3102 N 0.10686 0.72901 0.20853
 N3103 N 0.12387 0.73237 0.21929
 C3104 C 0.14007 0.73895 0.20733
 N3105 N 0.13860 0.74186 0.18430
 N3106 N 0.12173 0.73835 0.17357
 C3107 C 0.15918 0.74272 0.21863
 C3108 C 0.17271 0.75570 0.20808
 C3109 C 0.19169 0.75786 0.21666
 C3110 C 0.19793 0.74692 0.23599
 C3111 C 0.18396 0.73475 0.24740
 C3112 C 0.16472 0.73270 0.23882
 H3113 H 0.10183 0.72282 0.14040
 H3114 H 0.07147 0.71824 0.11888
 H3115 H 0.03668 0.72822 0.18039
 H3116 H 0.06728 0.73257 0.20227
 H3117 H 0.16878 0.76389 0.19272
 H3118 H 0.20173 0.76759 0.20735
 H3119 H 0.18794 0.72619 0.26235
 H3120 H 0.15453 0.72262 0.24735
   
