data_POSCAR
  _audit_creation_date              2014-09-24
  _audit_creation_method            'ToBaCCo'
  _symmetry_space_group_name_H-M    'P1'
  _symmetry_Int_Tables_number       1
  _symmetry_cell_setting            triclinic
  loop_
  _symmetry_equiv_pos_as_xyz
 x,y,z
_cell_length_a 55.0798
_cell_length_b 54.9947
_cell_length_c 55.2195
_cell_angle_alpha 93.999000
_cell_angle_beta 93.332900
_cell_angle_gamma 93.895300
loop_
  _atom_site_label
  _atom_site_type_symbol
  _atom_site_fract_x
  _atom_site_fract_y
  _atom_site_fract_z
C1 C 0.72021 0.67440 0.97322
 H2 H 0.73777 0.67348 0.96553
 C3 C 0.70218 0.68730 0.96202
 H4 H 0.70608 0.69629 0.94571
 C5 C 0.69323 0.66215 1.00272
 H6 H 0.68948 0.65178 1.01813
 C7 C 0.67476 0.67483 0.99216
 H8 H 0.65720 0.67452 1.00003
 N9 N 0.71536 0.66193 0.99302
 C10 C 0.78344 0.64440 1.02976
 H11 H 0.77855 0.62523 1.03142
 C12 C 0.80612 0.65468 1.03917
 H13 H 0.81867 0.64320 1.04792
 C14 C 0.77319 0.68223 1.01535
 H15 H 0.76027 0.69281 1.00599
 C16 C 0.79587 0.69328 1.02440
 H17 H 0.80020 0.71244 1.02207
 Zn18 Zn 0.73853 0.64081 1.00450
 N19 N 0.76766 0.65808 1.01784
 C20 C 0.76911 0.62138 0.97020
 N21 N 0.74588 0.62021 0.97737
 C22 C 0.72758 0.60685 0.96379
 C23 C 0.73232 0.59429 0.94183
 C24 C 0.77461 0.60925 0.94845
 C25 C 0.72297 0.63640 1.05067
 C26 C 0.71370 0.62542 1.07048
 C27 C 0.71077 0.58663 1.04683
 C28 C 0.72015 0.59852 1.02740
 N29 N 0.72569 0.62303 1.02958
 H30 H 0.78336 0.63245 0.98086
 H31 H 0.70915 0.60666 0.96961
 H32 H 0.71748 0.58427 0.93088
 H33 H 0.79320 0.61063 0.94300
 H34 H 0.72818 0.65580 1.05211
 H35 H 0.71317 0.63709 1.08697
 H36 H 0.70558 0.56735 1.04350
 H37 H 0.72273 0.58815 1.01050
 C38 C 0.81272 0.67937 1.03634
 C39 C 0.67892 0.68718 0.97121
 C40 C 0.70691 0.59999 1.06908
 C41 C 0.75604 0.59586 0.93372
 C42 C 0.73521 0.35592 0.50167
 H43 H 0.75305 0.35684 0.51112
 C44 C 0.71612 0.34107 0.50957
 H45 H 0.71942 0.33067 0.52522
 C46 C 0.70898 0.36961 0.47071
 H47 H 0.70610 0.38116 0.45593
 C48 C 0.68939 0.35501 0.47799
 H49 H 0.67172 0.35513 0.46834
 N50 N 0.73135 0.36982 0.48259
 C51 C 0.80263 0.38764 0.45545
 H52 H 0.80231 0.40731 0.45576
 C53 C 0.82268 0.37624 0.44696
 H54 H 0.83766 0.38728 0.44052
 C55 C 0.78306 0.34940 0.46288
 H56 H 0.76750 0.33901 0.46893
 C57 C 0.80274 0.33722 0.45447
 H58 H 0.80227 0.31751 0.45450
 Zn59 Zn 0.75742 0.39153 0.47485
 N60 N 0.78352 0.37420 0.46351
 C61 C 0.79098 0.41061 0.51338
 N62 N 0.76770 0.41092 0.50380
 C63 C 0.75074 0.42287 0.51596
 C64 C 0.75682 0.43472 0.53896
 C65 C 0.79784 0.42224 0.53623
 C66 C 0.74126 0.39892 0.42758
 C67 C 0.73297 0.41161 0.40810
 C68 C 0.73740 0.44883 0.43444
 C69 C 0.74564 0.43539 0.45346
 N70 N 0.74702 0.41083 0.44978
 H71 H 0.80411 0.40064 0.50375
 H72 H 0.73222 0.42242 0.50815
 H73 H 0.74285 0.44334 0.54876
 H74 H 0.81641 0.42154 0.54361
 H75 H 0.74275 0.37940 0.42515
 H76 H 0.72776 0.40162 0.39079
 H77 H 0.73631 0.46836 0.43767
 H78 H 0.75077 0.44456 0.47114
 C79 C 0.82297 0.35070 0.44653
 C80 C 0.69275 0.34067 0.49783
 C81 C 0.73074 0.43689 0.41143
 C82 C 0.78055 0.43406 0.54958
 C83 C 0.23516 -0.14259 0.00196
 H84 H 0.25278 -0.14048 0.01191
 C85 C 0.21639 -0.15766 0.01012
 H86 H 0.21970 -0.16700 0.02649
 C87 C 0.20916 -0.13176 -0.03065
 H88 H 0.20623 -0.12126 -0.04623
 C89 C 0.18988 -0.14663 -0.02314
 H90 H 0.17242 -0.14777 -0.03337
 N91 N 0.23126 -0.13001 -0.01807
 C92 C 0.30282 -0.11144 -0.04426
 H93 H 0.30202 -0.09189 -0.04483
 C94 C 0.32324 -0.12269 -0.05200
 H95 H 0.33806 -0.11166 -0.05874
 C96 C 0.28396 -0.14960 -0.03552
 H97 H 0.26850 -0.16004 -0.02934
 C98 C 0.30404 -0.16162 -0.04315
 H99 H 0.30398 -0.18124 -0.04236
 Zn100 Zn 0.25682 -0.10799 -0.02638
 N101 N 0.28383 -0.12491 -0.03600
 C102 C 0.28886 -0.08545 0.01196
 N103 N 0.26573 -0.08673 0.00166
 C104 C 0.24792 -0.07478 0.01245
 C105 C 0.25301 -0.06112 0.03468
 C106 C 0.29476 -0.07194 0.03409
 C107 C 0.24161 -0.10373 -0.07460
 C108 C 0.23321 -0.09255 -0.09506
 C109 C 0.23541 -0.05418 -0.07072
 C110 C 0.24380 -0.06622 -0.05074
 N111 N 0.24627 -0.09063 -0.05292
 H112 H 0.30262 -0.09559 0.00352
 H113 H 0.22957 -0.07645 0.00408
 H114 H 0.23854 -0.05198 0.04317
 H115 H 0.31308 -0.07188 0.04237
 H116 H 0.24440 -0.12305 -0.07597
 H117 H 0.23082 -0.10392 -0.11188
 H118 H 0.23250 -0.03508 -0.06730
 H119 H 0.24793 -0.05605 -0.03336
 C120 C 0.32406 -0.14812 -0.05146
 C121 C 0.19329 -0.15964 -0.00235
 C122 C 0.22940 -0.06725 -0.09363
 C123 C 0.27664 -0.05983 0.04594
 C124 C 0.21912 0.17299 0.47106
 H125 H 0.23670 0.17224 0.46338
 C126 C 0.20111 0.18608 0.46009
 H127 H 0.20505 0.19542 0.44399
 C128 C 0.19202 0.16002 0.50016
 H129 H 0.18818 0.14925 0.51527
 C130 C 0.17358 0.17290 0.48985
 H131 H 0.15598 0.17235 0.49764
 N132 N 0.21419 0.16003 0.49052
 C133 C 0.28225 0.14070 0.52606
 H134 H 0.27695 0.12158 0.52751
 C135 C 0.30544 0.15021 0.53473
 H136 H 0.31775 0.13834 0.54325
 C137 C 0.27250 0.17920 0.51295
 H138 H 0.25964 0.19029 0.50418
 C139 C 0.29565 0.18952 0.52141
 H140 H 0.30051 0.20855 0.51894
 Zn141 Zn 0.23717 0.13839 0.50137
 N142 N 0.26653 0.15503 0.51494
 C143 C 0.26744 0.11981 0.46637
 N144 N 0.24426 0.11839 0.47368
 C145 C 0.22591 0.10525 0.45997
 C146 C 0.23056 0.09312 0.43775
 C147 C 0.27283 0.10812 0.44436
 C148 C 0.22116 0.13296 0.54729
 C149 C 0.21126 0.12148 0.56654
 C150 C 0.20852 0.08317 0.54195
 C151 C 0.21845 0.09547 0.52303
 N152 N 0.22415 0.12001 0.52594
 H153 H 0.28172 0.13074 0.47710
 H154 H 0.20752 0.10488 0.46590
 H155 H 0.21569 0.08324 0.42672
 H156 H 0.29139 0.10968 0.43883
 H157 H 0.22625 0.15238 0.54922
 H158 H 0.20900 0.13220 0.58336
 H159 H 0.20356 0.06374 0.53924
 H160 H 0.22138 0.08545 0.50604
 C161 C 0.31263 0.17478 0.53199
 C162 C 0.17779 0.18567 0.46917
 C163 C 0.20452 0.09632 0.56394
 C164 C 0.25423 0.09493 0.42953
 C165 C 0.18055 0.47252 0.22302
 H166 H 0.17999 0.46532 0.24073
 C167 C 0.19444 0.46173 0.20538
 H168 H 0.20494 0.44653 0.20985
 C169 C 0.16672 0.50045 0.19541
 H170 H 0.15525 0.51496 0.19127
 C171 C 0.18035 0.49024 0.17727
 H172 H 0.17920 0.49715 0.15939
 N173 N 0.16689 0.49137 0.21771
 C174 C 0.14715 0.52767 0.28572
 H175 H 0.12786 0.52818 0.28105
 C176 C 0.15695 0.53762 0.30836
 H177 H 0.14497 0.54560 0.32110
 C178 C 0.18586 0.51565 0.27497
 H179 H 0.19700 0.50703 0.26187
 C180 C 0.19644 0.52530 0.29757
 H181 H 0.21578 0.52416 0.30165
 Zn182 Zn 0.14503 0.50217 0.24069
 N183 N 0.16152 0.51662 0.26972
 C184 C 0.12689 0.46724 0.27122
 N185 N 0.12562 0.47420 0.24805
 C186 C 0.11278 0.46007 0.22981
 C187 C 0.10066 0.43787 0.23458
 C188 C 0.11519 0.44526 0.27675
 C189 C 0.13823 0.54796 0.22476
 C190 C 0.12591 0.56713 0.21590
 C191 C 0.08844 0.54131 0.21358
 C192 C 0.10152 0.52259 0.22264
 N193 N 0.12601 0.52619 0.22781
 H194 H 0.13759 0.47833 0.28542
 H195 H 0.11253 0.46573 0.21142
 H196 H 0.09095 0.42657 0.21980
 H197 H 0.11652 0.44007 0.29532
 H198 H 0.15768 0.55037 0.22921
 H199 H 0.13612 0.58416 0.21324
 H200 H 0.06894 0.53824 0.20962
 H201 H 0.09208 0.50529 0.22561
 C202 C 0.18185 0.53626 0.31468
 C203 C 0.19414 0.47034 0.18201
 C204 C 0.10068 0.56398 0.21018
 C205 C 0.10215 0.43008 0.25828
 C206 C -0.14113 0.00271 0.23434
 H207 H -0.13959 0.01143 0.25260
 C208 C -0.15589 0.01203 0.21632
 H209 H -0.16621 0.02734 0.22165
 C210 C -0.12973 -0.02829 0.20629
 H211 H -0.11893 -0.04356 0.20226
 C212 C -0.14427 -0.01963 0.18768
 H213 H -0.14373 -0.02848 0.16965
 N214 N -0.12841 -0.01707 0.22908
 C215 C -0.11099 -0.04815 0.29788
 H216 H -0.09151 -0.04901 0.29683
 C217 C -0.12244 -0.05687 0.31776
 H218 H -0.11155 -0.06418 0.33212
 C219 C -0.14869 -0.03722 0.28045
 H220 H -0.15890 -0.02986 0.26572
 C221 C -0.16089 -0.04570 0.30005
 H222 H -0.18046 -0.04482 0.30015
 Zn223 Zn -0.10681 -0.02690 0.25383
 N224 N -0.12412 -0.03829 0.27990
 C225 C -0.08468 0.00941 0.28855
 N226 N -0.08586 0.00092 0.26475
 C227 C -0.07442 0.01364 0.24790
 C228 C -0.06180 0.03625 0.25464
 C229 C -0.07216 0.03180 0.29608
 C230 C -0.10234 -0.07455 0.23564
 C231 C -0.09097 -0.09474 0.22632
 C232 C -0.05267 -0.07018 0.22984
 C233 C -0.06482 -0.05040 0.23915
 N234 N -0.08928 -0.05288 0.24154
 H235 H -0.09418 -0.00066 0.30164
 H236 H -0.07602 0.00669 0.22901
 H237 H -0.05377 0.04660 0.24077
 H238 H -0.07174 0.03833 0.31507
 H239 H -0.12172 -0.07606 0.23811
 H240 H -0.10172 -0.11185 0.22182
 H241 H -0.03330 -0.06775 0.22750
 H242 H -0.05474 -0.03308 0.24428
 C243 C -0.14771 -0.05561 0.31908
 C244 C -0.15756 0.00115 0.19227
 C245 C -0.06583 -0.09267 0.22310
 C246 C -0.06106 0.04586 0.27894
 C247 C 0.35975 0.50625 0.73584
 H248 H 0.36199 0.51506 0.75406
 C249 C 0.34479 0.51584 0.71816
 H250 H 0.33521 0.53185 0.72303
 C251 C 0.36997 0.47493 0.70735
 H252 H 0.38029 0.45937 0.70303
 C253 C 0.35518 0.48390 0.68911
 H254 H 0.35434 0.47509 0.67090
 N255 N 0.37197 0.48616 0.73019
 C256 C 0.39029 0.45394 0.79814
 H257 H 0.40966 0.45265 0.79655
 C258 C 0.37917 0.44512 0.81815
 H259 H 0.39019 0.43729 0.83208
 C260 C 0.35257 0.46606 0.78195
 H261 H 0.34221 0.47394 0.76766
 C262 C 0.34070 0.45752 0.80172
 H263 H 0.32122 0.45886 0.80239
 Zn264 Zn 0.39391 0.47589 0.75442
 N265 N 0.37700 0.46442 0.78071
 C266 C 0.41712 0.51147 0.78922
 N267 N 0.41527 0.50342 0.76529
 C268 C 0.42626 0.51643 0.74837
 C269 C 0.43903 0.53895 0.75520
 C270 C 0.42983 0.53373 0.79684
 C271 C 0.39765 0.42823 0.73584
 C272 C 0.40869 0.40795 0.72623
 C273 C 0.44712 0.43226 0.72892
 C274 C 0.43531 0.45213 0.73854
 N275 N 0.41095 0.44982 0.74151
 H276 H 0.40799 0.50116 0.80237
 H277 H 0.42412 0.50983 0.72939
 H278 H 0.44665 0.54957 0.74132
 H279 H 0.43077 0.53992 0.81594
 H280 H 0.37837 0.42685 0.73876
 H281 H 0.39776 0.39091 0.72197
 H282 H 0.46641 0.43455 0.72616
 H283 H 0.44557 0.46939 0.74348
 C284 C 0.35406 0.44694 0.82018
 C285 C 0.34253 0.50477 0.69436
 C286 C 0.43372 0.40983 0.72247
 C287 C 0.44042 0.54813 0.77967
 C288 C 0.67915 0.97399 0.72182
 H289 H 0.67871 0.96690 0.73960
 C290 C 0.69278 0.96297 0.70409
 H291 H 0.70321 0.94771 0.70854
 C292 C 0.66522 1.00181 0.69416
 H293 H 0.65380 1.01637 0.69003
 C294 C 0.67860 0.99138 0.67593
 H295 H 0.67730 0.99816 0.65799
 N296 N 0.66556 0.99289 0.71653
 C297 C 0.64640 1.02997 0.78434
 H298 H 0.62713 1.03067 0.77961
 C299 C 0.65619 1.03990 0.80698
 H300 H 0.64372 1.04751 0.81935
 C301 C 0.68481 1.01717 0.77389
 H302 H 0.69587 1.00837 0.76084
 C303 C 0.69543 1.02672 0.79650
 H304 H 0.71482 1.02556 0.79993
 Zn305 Zn 0.64391 1.00392 0.73963
 N306 N 0.66058 1.01852 0.76851
 C307 C 0.62599 0.96934 0.77060
 N308 N 0.62456 0.97604 0.74734
 C309 C 0.61168 0.96169 0.72928
 C310 C 0.59973 0.93950 0.73433
 C311 C 0.61446 0.94737 0.77641
 C312 C 0.63696 1.04961 0.72345
 C313 C 0.62454 1.06876 0.71469
 C314 C 0.58707 1.04296 0.71289
 C315 C 0.60026 1.02426 0.72184
 N316 N 0.62479 1.02787 0.72673
 H317 H 0.63670 0.98061 0.78465
 H318 H 0.61130 0.96716 0.71083
 H319 H 0.59001 0.92801 0.71970
 H320 H 0.61594 0.94237 0.79503
 H321 H 0.65644 1.05202 0.72769
 H322 H 0.63469 1.08577 0.71187
 H323 H 0.56754 1.03990 0.70919
 H324 H 0.59087 1.00699 0.72500
 C325 C 0.68109 1.03813 0.81382
 C326 C 0.69229 0.97140 0.68064
 C327 C 0.59925 1.06560 0.70930
 C328 C 0.60143 0.93195 0.75812
 C329 C 0.00578 0.23740 -0.13877
 H330 H 0.01441 0.25575 -0.13770
 C331 C 0.01512 0.21885 -0.15322
 H332 H 0.03074 0.22318 -0.16358
 C333 C -0.02479 0.20949 -0.12611
 H334 H -0.03992 0.20576 -0.11500
 C335 C -0.01603 0.19038 -0.14031
 H336 H -0.02459 0.17210 -0.13995
 N337 N -0.01381 0.23245 -0.12558
 C338 C -0.04401 0.30244 -0.10880
 H339 H -0.04457 0.30201 -0.08928
 C340 C -0.05251 0.32223 -0.12038
 H341 H -0.05985 0.33691 -0.10964
 C342 C -0.03429 0.28339 -0.14649
 H343 H -0.02736 0.26812 -0.15661
 C344 C -0.04266 0.30283 -0.15884
 H345 H -0.04170 0.30249 -0.17838
 Zn346 Zn -0.02343 0.25799 -0.10430
 N347 N -0.03479 0.28372 -0.12187
 C348 C 0.01349 0.29299 -0.08388
 N349 N 0.00450 0.26933 -0.08401
 C350 C 0.01680 0.25272 -0.07197
 C351 C 0.03944 0.25956 -0.05974
 C352 C 0.03594 0.30061 -0.07182
 C353 C -0.07082 0.23987 -0.09877
 C354 C -0.09095 0.23114 -0.08694
 C355 C -0.06644 0.23655 -0.04902
 C356 C -0.04680 0.24525 -0.06170
 N357 N -0.04925 0.24642 -0.08616
 H358 H 0.00377 0.30585 -0.09391
 H359 H 0.00948 0.23391 -0.07276
 H360 H 0.04944 0.24584 -0.05117
 H361 H 0.04288 0.31946 -0.07225
 H362 H -0.07225 0.24109 -0.11827
 H363 H -0.10703 0.22495 -0.09840
 H364 H -0.06355 0.23701 -0.02948
 H365 H -0.02963 0.25123 -0.05191
 C366 C -0.05176 0.32268 -0.14572
 C367 C 0.00436 0.19489 -0.15391
 C368 C -0.08930 0.22900 -0.06145
 C369 C 0.04953 0.28368 -0.06006
 C370 C 0.46887 0.22114 0.17514
 H371 H 0.46171 0.23889 0.17400
 C372 C 0.45724 0.20369 0.18860
 H373 H 0.44139 0.20833 0.19818
 C374 C 0.49768 0.19325 0.16324
 H375 H 0.51293 0.18892 0.15271
 C376 C 0.48667 0.17531 0.17649
 H377 H 0.49370 0.15738 0.17597
 N378 N 0.48860 0.21561 0.16267
 C379 C 0.52823 0.28266 0.14485
 H380 H 0.53077 0.27716 0.12603
 C381 C 0.53747 0.30565 0.15470
 H382 H 0.54751 0.31759 0.14341
 C383 C 0.51183 0.27366 0.18222
 H384 H 0.50159 0.26120 0.19276
 C385 C 0.52079 0.29662 0.19285
 H386 H 0.51719 0.30172 0.21152
 Zn387 Zn 0.50108 0.23832 0.14144
 N388 N 0.51519 0.26743 0.15844
 C389 C 0.46950 0.26998 0.11985
 N390 N 0.47458 0.24618 0.12067
 C391 C 0.45984 0.22794 0.10844
 C392 C 0.43896 0.23340 0.09476
 C393 C 0.44905 0.27623 0.10628
 C394 C 0.54706 0.22160 0.13631
 C395 C 0.56674 0.21281 0.12452
 C396 C 0.54246 0.21068 0.08645
 C397 C 0.52319 0.21964 0.09901
 N398 N 0.52582 0.22478 0.12352
 H399 H 0.48092 0.28422 0.13016
 H400 H 0.46404 0.20912 0.10973
 H401 H 0.42731 0.21872 0.08522
 H402 H 0.44513 0.29526 0.10631
 H403 H 0.54869 0.22605 0.15576
 H404 H 0.58339 0.21016 0.13513
 H405 H 0.54020 0.20688 0.06691
 H406 H 0.50629 0.22270 0.08914
 C407 C 0.53334 0.31314 0.17883
 C408 C 0.46594 0.18028 0.18911
 C409 C 0.56465 0.20731 0.09924
 C410 C 0.43339 0.25786 0.09362
 C411 C 0.96414 0.72070 0.67562
 H412 H 0.95677 0.73836 0.67452
 C413 C 0.95292 0.70321 0.68933
 H414 H 0.93718 0.70773 0.69914
 C415 C 0.99306 0.69308 0.66340
 H416 H 1.00821 0.68886 0.65267
 C417 C 0.98248 0.67512 0.67691
 H418 H 0.98972 0.65728 0.67638
 N419 N 0.98374 0.71533 0.66289
 C420 C 1.02257 0.78261 0.64455
 H421 H 1.02483 0.77714 0.62567
 C422 C 1.03187 0.80562 0.65430
 H423 H 1.04165 0.81760 0.64287
 C424 C 1.00687 0.77351 0.68221
 H425 H 0.99690 0.76098 0.69290
 C426 C 1.01592 0.79648 0.69275
 H427 H 1.01265 0.80153 0.71152
 Zn428 Zn 0.99583 0.73809 0.64150
 N429 N 1.00986 0.76732 0.65834
 C430 C 0.96381 0.76946 0.62017
 N431 N 0.96914 0.74572 0.62085
 C432 C 0.95457 0.72742 0.60850
 C433 C 0.93367 0.73276 0.59478
 C434 C 0.94335 0.77560 0.60657
 C435 C 1.04191 0.72188 0.63626
 C436 C 1.06167 0.71325 0.62448
 C437 C 1.03726 0.71057 0.58646
 C438 C 1.01792 0.71940 0.59900
 N439 N 1.02058 0.72473 0.62349
 H440 H 0.97508 0.78375 0.63058
 H441 H 0.95896 0.70864 0.60968
 H442 H 0.92218 0.71804 0.58510
 H443 H 0.93926 0.79460 0.60667
 H444 H 1.04357 0.72647 0.65569
 H445 H 1.07839 0.71087 0.63508
 H446 H 1.03498 0.70661 0.56694
 H447 H 1.00093 0.72219 0.58915
 C448 C 1.02815 0.81306 0.67855
 C449 C 0.96192 0.67994 0.68985
 C450 C 1.05955 0.70756 0.59923
 C451 C 0.92790 0.75717 0.59373
 C452 C 0.50198 0.73789 0.35818
 H453 H 0.51060 0.75624 0.35938
 C454 C 0.51157 0.71936 0.34391
 H455 H 0.52736 0.72371 0.33381
 C456 C 0.47121 0.70992 0.37039
 H457 H 0.45591 0.70615 0.38126
 C458 C 0.48021 0.69083 0.35636
 H459 H 0.47167 0.67254 0.35662
 N460 N 0.48219 0.73289 0.37108
 C461 C 0.45160 0.80269 0.38765
 H462 H 0.45066 0.80211 0.40712
 C463 C 0.44316 0.82251 0.37606
 H464 H 0.43515 0.83646 0.38712
 C465 C 0.46180 0.78386 0.35015
 H466 H 0.46903 0.76872 0.34011
 C467 C 0.45348 0.80328 0.33773
 H468 H 0.45545 0.80275 0.31835
 Zn469 Zn 0.47227 0.75832 0.39231
 N470 N 0.46104 0.78409 0.37470
 C471 C 0.50884 0.79337 0.41343
 N472 N 0.49999 0.76964 0.41296
 C473 C 0.51230 0.75296 0.42487
 C474 C 0.53483 0.75979 0.43732
 C475 C 0.53118 0.80099 0.42573
 C476 C 0.42474 0.74018 0.39712
 C477 C 0.40457 0.73101 0.40861
 C478 C 0.42878 0.73563 0.44680
 C479 C 0.44855 0.74478 0.43453
 N480 N 0.44625 0.74652 0.41007
 H481 H 0.49912 0.80630 0.40351
 H482 H 0.50509 0.73409 0.42379
 H483 H 0.54485 0.74602 0.44577
 H484 H 0.53803 0.81990 0.42557
 H485 H 0.42337 0.74212 0.37773
 H486 H 0.38762 0.72610 0.39793
 H487 H 0.43108 0.73377 0.46617
 H488 H 0.46573 0.75024 0.44451
 C489 C 0.44409 0.82333 0.35060
 C490 C 0.50084 0.69537 0.34311
 C491 C 0.40648 0.72839 0.43375
 C492 C 0.54481 0.78399 0.43736
 C493 C 0.36553 -0.02265 0.26693
 C494 C 0.35157 -0.02893 0.24226
 C495 C 0.33932 -0.01008 0.23405
 C496 C 0.34200 0.01330 0.25127
 C497 C 0.38213 0.00025 0.26345
 C498 C 0.36973 0.01904 0.25523
 C499 C 0.34649 -0.01390 0.28400
 C500 C 0.33422 0.00490 0.27585
 H501 H 0.35251 -0.04615 0.23156
 H502 H 0.33186 0.02858 0.24462
 H503 H 0.40186 0.00120 0.26632
 H504 H 0.34412 -0.02081 0.30174
 C505 C 0.09441 1.04348 0.75689
 C506 C 0.10688 1.05043 0.73405
 C507 C 0.12099 1.03299 0.72496
 C508 C 0.12145 1.01016 0.73950
 C509 C 0.08018 1.01883 0.74961
 C510 C 0.09444 1.00142 0.74056
 C511 C 0.11509 1.03757 0.77482
 C512 C 0.12917 1.02008 0.76574
 H513 H 0.10448 1.06745 0.72560
 H514 H 0.13305 0.99602 0.73204
 H515 H 0.06084 1.01529 0.75199
 H516 H 0.11703 1.04490 0.79368
 C517 C 0.59418 0.54436 0.25774
 C518 C 0.60714 0.55142 0.23522
 C519 C 0.62198 0.53434 0.22678
 C520 C 0.62265 0.51172 0.24163
 C521 C 0.58074 0.51933 0.25039
 C522 C 0.59575 0.50228 0.24200
 C523 C 0.61459 0.53921 0.27633
 C524 C 0.62942 0.52209 0.26792
 H525 H 0.60459 0.56828 0.22654
 H526 H 0.63484 0.49788 0.23471
 H527 H 0.56136 0.51533 0.25213
 H528 H 0.61589 0.54681 0.29510
 C529 C 0.86673 0.47672 0.77182
 C530 C 0.85264 0.46962 0.74737
 C531 C 0.83988 0.48794 0.73878
 C532 C 0.84220 0.51169 0.75546
 C533 C 0.88278 0.49980 0.76766
 C534 C 0.86986 0.51808 0.75908
 C535 C 0.84767 0.48544 0.78887
 C536 C 0.83488 0.50374 0.78037
 H537 H 0.85400 0.45229 0.73699
 H538 H 0.83162 0.52654 0.74851
 H539 H 0.90253 0.50126 0.77046
 H540 H 0.84574 0.47901 0.80688
 C541 C 0.27235 0.37141 -0.02158
 C542 C 0.24748 0.35751 -0.02764
 C543 C 0.23899 0.34531 -0.00884
 C544 C 0.25616 0.34796 0.01434
 C545 C 0.26898 0.38812 0.00125
 C546 C 0.26050 0.37576 0.02003
 C547 C 0.28913 0.35228 -0.01300
 C548 C 0.28073 0.34004 0.00578
 H549 H 0.23685 0.35851 -0.04471
 H550 H 0.24929 0.33784 0.02958
 H551 H 0.27219 0.40789 0.00221
 H552 H 0.30692 0.34985 -0.01999
 C553 C 0.75508 0.09336 1.04493
 C554 C 0.73254 0.10622 1.05223
 C555 C 0.72438 0.12132 1.03551
 C556 C 0.73948 0.12231 1.01298
 C557 C 0.74783 0.08019 1.01985
 C558 C 0.73971 0.09547 1.00315
 C559 C 0.77394 0.11393 1.04005
 C560 C 0.76581 0.12901 1.02327
 H561 H 0.72367 0.10343 1.06900
 H562 H 0.73277 0.13473 0.99944
 H563 H 0.74967 0.06086 1.01549
 H564 H 0.79274 0.11508 1.04745
 C565 C 0.25177 0.59582 0.54694
 C566 C 0.22905 0.60846 0.55404
 C567 C 0.22051 0.62297 0.53694
 C568 C 0.23544 0.62365 0.51428
 C569 C 0.24459 0.58198 0.52215
 C570 C 0.23608 0.59667 0.50509
 C571 C 0.27026 0.61650 0.54144
 C572 C 0.26174 0.63099 0.52428
 H573 H 0.22034 0.60594 0.57094
 H574 H 0.22839 0.63559 0.50044
 H575 H 0.24697 0.56269 0.51820
 H576 H 0.28916 0.61797 0.54856
 C577 C 0.76811 0.87027 0.47677
 C578 C 0.74310 0.85668 0.47067
 C579 C 0.73436 0.84470 0.48951
 C580 C 0.75145 0.84725 0.51274
 C581 C 0.76488 0.88717 0.49950
 C582 C 0.75614 0.87504 0.51831
 C583 C 0.78458 0.85094 0.48552
 C584 C 0.77592 0.83894 0.50434
 H585 H 0.73259 0.85768 0.45354
 H586 H 0.74436 0.83732 0.52802
 H587 H 0.76842 0.90690 0.50038
 H588 H 0.80238 0.84826 0.47866
 C589 C -0.02020 0.26901 0.36708
 C590 C -0.02665 0.24432 0.35285
 C591 C -0.00776 0.23561 0.34080
 C592 C 0.01587 0.25244 0.34391
 C593 C 0.00218 0.26503 0.38384
 C594 C 0.02104 0.25634 0.37163
 C595 C -0.01067 0.28598 0.34842
 C596 C 0.00820 0.27735 0.33633
 H597 H -0.04403 0.23387 0.35360
 H598 H 0.03120 0.24541 0.33391
 H599 H 0.00271 0.26785 0.40354
 H600 H -0.01707 0.30402 0.34624
 C601 C 1.04594 0.75002 0.09132
 C602 C 1.05315 0.72775 0.10445
 C603 C 1.03615 0.71959 0.11951
 C604 C 1.01347 0.73441 0.12016
 C605 C 1.02099 0.74229 0.07817
 C606 C 1.00402 0.73418 0.09338
 C607 C 1.04065 0.76912 0.11153
 C608 C 1.02358 0.76097 0.12655
 H609 H 1.07011 0.71914 0.10199
 H610 H 0.99970 0.72768 0.13252
 H611 H 1.01682 0.74419 0.05895
 H612 H 1.04783 0.78808 0.11233
 C613 C 0.54413 0.25131 0.59060
 C614 C 0.55135 0.22925 0.60406
 C615 C 0.53421 0.22110 0.61899
 C616 C 0.51139 0.23574 0.61920
 C617 C 0.51936 0.24326 0.57723
 C618 C 0.50225 0.23517 0.59231
 C619 C 0.53846 0.27053 0.61053
 C620 C 0.52127 0.26241 0.62543
 H621 H 0.56838 0.22069 0.60184
 H622 H 0.49751 0.22904 0.63147
 H623 H 0.51547 0.24465 0.55788
 H624 H 0.54562 0.28950 0.61132
 C625 C 0.48123 0.77092 0.86918
 C626 C 0.47472 0.74628 0.85486
 C627 C 0.49355 0.73763 0.84266
 C628 C 0.51717 0.75446 0.84573
 C629 C 0.50368 0.76685 0.88580
 C630 C 0.52248 0.75823 0.87345
 C631 C 0.49064 0.78798 0.85055
 C632 C 0.50945 0.77941 0.83832
 H633 H 0.45734 0.73582 0.85564
 H634 H 0.53245 0.74748 0.83562
 H635 H 0.50428 0.76952 0.90551
 H636 H 0.48414 0.80598 0.84841
 C637 C 0.41895 -0.13919 0.30194
 C638 C 0.41820 -0.11651 0.31482
 C639 C 0.42642 -0.11354 0.33930
 C640 C 0.43511 -0.13321 0.35102
 C641 C 0.43576 -0.15649 0.33848
 C642 C 0.42768 -0.15896 0.31355
 C643 C 0.40818 -0.09644 0.30326
 C644 C 0.39933 -0.07956 0.29413
 C645 C 0.38836 -0.05980 0.28407
 C646 C 0.37841 -0.04298 0.27602
 H647 H 0.41237 -0.14174 0.28299
 H648 H 0.42608 -0.09597 0.34941
 H649 H 0.44201 -0.12966 0.36975
 H650 H 0.42688 -0.17634 0.30302
 C651 C 0.91652 0.35968 0.80802
 C652 C 0.92134 0.38347 0.81876
 C653 C 0.93544 0.38744 0.84076
 C654 C 0.94444 0.36770 0.85215
 C655 C 0.93942 0.34368 0.84169
 C656 C 0.92553 0.33990 0.81938
 C657 C 0.91099 0.40369 0.80779
 C658 C 0.90182 0.42059 0.79901
 C659 C 0.89046 0.44025 0.78920
 C660 C 0.88014 0.45685 0.78117
 H661 H 0.90550 0.35640 0.79106
 H662 H 0.93927 0.40578 0.84923
 H663 H 0.95538 0.37123 0.86913
 H664 H 0.92112 0.32162 0.81101
 C665 C 0.05064 1.15396 0.82010
 C666 C 0.03554 1.13516 0.80756
 C667 C 0.01018 1.13608 0.80714
 C668 C -0.00003 1.15565 0.81940
 C669 C 0.01503 1.17455 0.83223
 C670 C 0.04049 1.17352 0.83235
 C671 C 0.04627 1.11479 0.79565
 C672 C 0.05601 1.09797 0.78613
 C673 C 0.06832 1.07865 0.77551
 C674 C 0.07963 1.06253 0.76687
 H675 H 0.07029 1.15338 0.82064
 H676 H -0.00167 1.12162 0.79746
 H677 H -0.01968 1.15605 0.81878
 H678 H 0.05258 1.18753 0.84238
 C679 C 0.50757 0.63637 0.30475
 C680 C 0.53294 0.63557 0.30567
 C681 C 0.54777 0.65453 0.31830
 C682 C 0.53733 0.67411 0.33016
 C683 C 0.51183 0.67502 0.32957
 C684 C 0.49705 0.65598 0.31663
 C685 C 0.54399 0.61514 0.29423
 C686 C 0.55407 0.59832 0.28517
 C687 C 0.56686 0.57906 0.27513
 C688 C 0.57867 0.56309 0.26703
 H689 H 0.49592 0.62179 0.29500
 H690 H 0.56743 0.65403 0.31923
 H691 H 0.54920 0.68823 0.34030
 H692 H 0.47738 0.65629 0.31564
 C693 C 0.54640 0.38192 0.18309
 C694 C 0.55689 0.38642 0.20678
 C695 C 0.55942 0.36699 0.22162
 C696 C 0.55161 0.34309 0.21270
 C697 C 0.54129 0.33840 0.18877
 C698 C 0.53864 0.35813 0.17415
 C699 C 0.56525 0.41102 0.21551
 C700 C 0.57219 0.43181 0.22213
 C701 C 0.58029 0.45630 0.22928
 C702 C 0.58726 0.47725 0.23512
 H703 H 0.54426 0.39683 0.17147
 H704 H 0.56756 0.37027 0.24000
 H705 H 0.55404 0.32827 0.22432
 H706 H 0.53036 0.35520 0.15581
 C707 C 0.05535 0.86670 0.72097
 C708 C 0.05260 0.88618 0.70623
 C709 C 0.04148 0.88180 0.68279
 C710 C 0.03336 0.85807 0.67396
 C711 C 0.03630 0.83828 0.68845
 C712 C 0.04719 0.84286 0.71216
 C713 C 0.06149 0.91069 0.71477
 C714 C 0.06892 0.93139 0.72122
 C715 C 0.07767 0.95574 0.72818
 C716 C 0.08522 0.97657 0.73385
 H717 H 0.06399 0.86990 0.73916
 H718 H 0.03916 0.89674 0.67125
 H719 H 0.02465 0.85521 0.65580
 H720 H 0.04984 0.82799 0.72367
 C721 C 0.95065 0.62390 0.72523
 C722 C 0.92518 0.62052 0.72301
 C723 C 0.91168 0.63729 0.71109
 C724 C 0.92359 0.65706 0.70094
 C725 C 0.94922 0.66026 0.70252
 C726 C 0.96260 0.64363 0.71508
 C727 C 0.91301 0.59920 0.73187
 C728 C 0.90293 0.58101 0.73874
 C729 C 0.89128 0.55938 0.74625
 C730 C 0.88146 0.54068 0.75228
 H731 H 0.96130 0.61103 0.73443
 H732 H 0.89196 0.63479 0.70914
 H733 H 0.91277 0.66931 0.69110
 H734 H 0.98233 0.64575 0.71685
 C735 C 0.41468 0.13808 0.20912
 C736 C 0.42770 0.12100 0.22111
 C737 C 0.45317 0.12399 0.22375
 C738 C 0.46562 0.14367 0.21398
 C739 C 0.45272 0.16063 0.20138
 C740 C 0.42708 0.15779 0.19935
 C741 C 0.41502 0.09976 0.22959
 C742 C 0.40448 0.08165 0.23613
 C743 C 0.39225 0.06014 0.24324
 C744 C 0.38193 0.04154 0.24890
 H745 H 0.39496 0.13587 0.20685
 H746 H 0.46345 0.11088 0.23300
 H747 H 0.48534 0.14550 0.21608
 H748 H 0.41663 0.17029 0.18945
 C749 C 0.31319 0.44263 -0.12700
 C750 C 0.31969 0.42074 -0.11780
 C751 C 0.33716 0.40730 -0.12900
 C752 C 0.34822 0.41575 -0.14925
 C753 C 0.34194 0.43779 -0.15858
 C754 C 0.32422 0.45111 -0.14730
 C755 C 0.30857 0.41191 -0.09685
 C756 C 0.29968 0.40387 -0.07938
 C757 C 0.28974 0.39364 -0.05909
 C758 C 0.28166 0.38410 -0.04199
 H759 H 0.29971 0.45319 -0.11842
 H760 H 0.34224 0.39028 -0.12209
 H761 H 0.36153 0.40492 -0.15774
 H762 H 0.31922 0.46828 -0.15391
 C763 C 0.80999 0.94000 0.37077
 C764 C 0.81688 0.91860 0.38072
 C765 C 0.83508 0.90550 0.37039
 C766 C 0.84648 0.91380 0.35026
 C767 C 0.83982 0.93537 0.34018
 C768 C 0.82137 0.94834 0.35059
 C769 C 0.80543 0.90994 0.40156
 C770 C 0.79626 0.90207 0.41898
 C771 C 0.78603 0.89206 0.43923
 C772 C 0.77770 0.88272 0.45633
 H773 H 0.79594 0.95030 0.37866
 H774 H 0.84047 0.88885 0.37789
 H775 H 0.86035 0.90322 0.34245
 H776 H 0.81604 0.96515 0.34341
 C777 C 0.80742 0.00699 1.13273
 C778 C 0.80319 0.03178 1.13453
 C779 C 0.81116 0.04623 1.15565
 C780 C 0.82366 0.03613 1.17479
 C781 C 0.82863 0.01116 1.17325
 C782 C 0.81995 -0.00325 1.15182
 C783 C 0.79153 0.04279 1.11447
 C784 C 0.78233 0.05286 1.09793
 C785 C 0.77222 0.06569 1.07899
 C786 C 0.76416 0.07761 1.06330
 H787 H 0.80116 -0.00443 1.11648
 H788 H 0.80817 0.06554 1.15713
 H789 H 0.83045 0.04849 1.19012
 H790 H 0.82215 -0.02265 1.14978
 C791 C 0.31612 0.55126 0.65466
 C792 C 0.30225 0.53618 0.63680
 C793 C 0.30098 0.51080 0.63803
 C794 C 0.31378 0.50052 0.65695
 C795 C 0.32801 0.51555 0.67485
 C796 C 0.32891 0.54105 0.67355
 C797 C 0.28998 0.54694 0.61692
 C798 C 0.28032 0.55673 0.60045
 C799 C 0.26972 0.56917 0.58147
 C800 C 0.26128 0.58067 0.56563
 H801 H 0.31733 0.57093 0.65380
 H802 H 0.29027 0.49896 0.62430
 H803 H 0.31253 0.48085 0.65760
 H804 H 0.34000 0.55310 0.68680
 C805 C 0.21613 0.53936 0.37661
 C806 C 0.20795 0.56068 0.38777
 C807 C 0.19236 0.57470 0.37459
 C808 C 0.18448 0.56716 0.35057
 C809 C 0.19206 0.54542 0.33937
 C810 C 0.20828 0.53179 0.35253
 C811 C 0.21475 0.56780 0.41297
 C812 C 0.21993 0.57395 0.43413
 C813 C 0.22561 0.58143 0.45891
 C814 C 0.23034 0.58814 0.48000
 H815 H 0.22816 0.52834 0.38666
 H816 H 0.18598 0.59128 0.38301
 H817 H 0.17225 0.57821 0.34081
 H818 H 0.21422 0.51484 0.34451
 C819 C 0.72000 0.04409 0.87240
 C820 C 0.70830 0.06171 0.88595
 C821 C 0.68848 0.07242 0.87527
 C822 C 0.67992 0.06516 0.85139
 C823 C 0.69095 0.04680 0.83751
 C824 C 0.71155 0.03678 0.84842
 C825 C 0.71605 0.06842 0.91102
 C826 C 0.72191 0.07420 0.93213
 C827 C 0.72827 0.08122 0.95689
 C828 C 0.73350 0.08750 0.97801
 H829 H 0.73535 0.03560 0.88054
 H830 H 0.67947 0.08634 0.88549
 H831 H 0.66494 0.07454 0.84385
 H832 H 0.72051 0.02226 0.83917
 C833 C 0.72558 0.95932 0.62316
 C834 C 0.72381 0.93375 0.62062
 C835 C 0.71293 0.92052 0.63837
 C836 C 0.70336 0.93278 0.65829
 C837 C 0.70448 0.95849 0.66070
 C838 C 0.71600 0.97163 0.64306
 C839 C 0.73197 0.92110 0.59920
 C840 C 0.73820 0.91048 0.58099
 C841 C 0.74489 0.89806 0.55941
 C842 C 0.75020 0.88753 0.54078
 H843 H 0.73397 0.96976 0.60952
 H844 H 0.71134 0.90072 0.63653
 H845 H 0.69429 0.92211 0.67133
 H846 H 0.71739 0.99141 0.64454
 C847 C 0.22825 0.45898 0.12493
 C848 C 0.22675 0.43342 0.12225
 C849 C 0.21576 0.41996 0.13978
 C850 C 0.20581 0.43198 0.15961
 C851 C 0.20667 0.45768 0.16216
 C852 C 0.21830 0.47105 0.14475
 C853 C 0.23527 0.42100 0.10089
 C854 C 0.24178 0.41057 0.08272
 C855 C 0.24878 0.39838 0.06115
 C856 C 0.25432 0.38804 0.04252
 H857 H 0.23671 0.46959 0.11147
 H858 H 0.21437 0.40017 0.13782
 H859 H 0.19666 0.42115 0.17246
 H860 H 0.21949 0.49084 0.14634
 C861 C -0.13911 0.30521 0.41379
 C862 C -0.11546 0.31572 0.41972
 C863 C -0.11190 0.33731 0.43484
 C864 C -0.13191 0.34853 0.44378
 C865 C -0.15578 0.33830 0.43769
 C866 C -0.15916 0.31639 0.42274
 C867 C -0.09491 0.30491 0.40955
 C868 C -0.07770 0.29624 0.40064
 C869 C -0.05764 0.28648 0.38967
 C870 C -0.04064 0.27845 0.37980
 H871 H -0.14206 0.28856 0.40198
 H872 H -0.09368 0.34560 0.43954
 H873 H -0.12871 0.36519 0.45553
 H874 H -0.17731 0.30822 0.41751
 C875 C 0.38939 0.83927 0.93682
 C876 C 0.38608 0.81725 0.92235
 C877 C 0.36258 0.80617 0.91698
 C878 C 0.34240 0.81722 0.92580
 C879 C 0.34551 0.83957 0.94005
 C880 C 0.36925 0.85037 0.94564
 C881 C 0.40670 0.80657 0.91218
 C882 C 0.42391 0.79797 0.90319
 C883 C 0.44392 0.78828 0.89208
 C884 C 0.46087 0.78029 0.88207
 H885 H 0.40751 0.84800 0.94108
 H886 H 0.35981 0.78918 0.90567
 H887 H 0.32435 0.80861 0.92094
 H888 H 0.37225 0.86739 0.95684
 C889 C 1.13011 0.82182 0.01696
 C890 C 1.13395 0.79974 0.02722
 C891 C 1.15696 0.79042 0.02701
 C892 C 1.17618 0.80334 0.01694
 C893 C 1.17261 0.82579 0.00698
 C894 C 1.14927 0.83475 0.00688
 C895 C 1.11466 0.78749 0.03923
 C896 C 1.09862 0.77789 0.04996
 C897 C 1.08005 0.76743 0.06334
 C898 C 1.06447 0.75918 0.07552
 H899 H 1.11242 0.82930 0.01722
 H900 H 1.16015 0.77337 0.03497
 H901 H 1.19386 0.79583 0.01704
 H902 H 1.14601 0.85215 -0.00029
 C903 C 0.62966 0.32358 0.51821
 C904 C 0.63278 0.30069 0.52705
 C905 C 0.65525 0.29041 0.52551
 C906 C 0.67465 0.30314 0.51554
 C907 C 0.67182 0.32638 0.50702
 C908 C 0.64901 0.33633 0.50824
 C909 C 0.61336 0.28853 0.53895
 C910 C 0.59720 0.27900 0.54959
 C911 C 0.57850 0.26862 0.56286
 C912 C 0.56280 0.26042 0.57493
 H913 H 0.61240 0.33180 0.51950
 H914 H 0.65788 0.27272 0.53236
 H915 H 0.69189 0.29488 0.51459
 H916 H 0.64632 0.35433 0.50220
 C917 C 0.36694 0.21641 0.55885
 C918 C 0.38623 0.20171 0.55435
 C919 C 0.38148 0.17859 0.54213
 C920 C 0.35759 0.17004 0.53468
 C921 C 0.33801 0.18447 0.53939
 C922 C 0.34294 0.20787 0.55135
 C923 C 0.41091 0.20994 0.56252
 C924 C 0.43176 0.21615 0.56929
 C925 C 0.45628 0.22290 0.57719
 C926 C 0.47724 0.22848 0.58400
 H927 H 0.37041 0.23434 0.56832
 H928 H 0.39626 0.16710 0.53845
 H929 H 0.35445 0.15214 0.52510
 H930 H 0.32824 0.21932 0.55536
 C931 C 0.87531 0.71306 0.03764
 C932 C 0.88604 0.70621 0.05952
 C933 C 0.87234 0.69185 0.07446
 C934 C 0.84822 0.68380 0.06730
 C935 C 0.83746 0.68999 0.04503
 C936 C 0.85113 0.70505 0.03045
 C937 C 0.91136 0.71300 0.06628
 C938 C 0.93263 0.71812 0.07212
 C939 C 0.95753 0.72372 0.07919
 C940 C 0.97876 0.72841 0.08548
 H941 H 0.88577 0.72413 0.02591
 H942 H 0.88043 0.68650 0.09146
 H943 H 0.83806 0.67249 0.07905
 H944 H 0.84344 0.70988 0.01309
 C945 C 0.61604 0.69652 0.94318
 C946 C 0.62008 0.71875 0.93271
 C947 C 0.64336 0.73093 0.93499
 C948 C 0.66256 0.72082 0.94764
 C949 C 0.65863 0.69844 0.95822
 C950 C 0.63513 0.68642 0.95581
 C951 C 0.60019 0.72873 0.91955
 C952 C 0.58300 0.73634 0.90868
 C953 C 0.56236 0.74452 0.89617
 C954 C 0.54437 0.75100 0.88570
 H955 H 0.59813 0.68687 0.94144
 H956 H 0.64668 0.74818 0.92697
 H957 H 0.68039 0.73059 0.94932
 H958 H 0.63159 0.66894 0.96329
 C959 C 0.14206 0.22972 0.43349
 C960 C 0.11885 0.21738 0.43097
 C961 C 0.11493 0.19495 0.44109
 C962 C 0.13405 0.18482 0.45363
 C963 C 0.15748 0.19700 0.45629
 C964 C 0.16129 0.21958 0.44605
 C965 C 0.09892 0.22735 0.41786
 C966 C 0.08169 0.23490 0.40702
 C967 C 0.06098 0.24296 0.39451
 C968 C 0.04295 0.24930 0.38400
 H969 H 0.14529 0.24711 0.42573
 H970 H 0.09708 0.18518 0.43915
 H971 H 0.13059 0.16719 0.46083
 H972 H 0.17906 0.22946 0.44792
 C973 C 0.58085 0.12945 0.69893
 C974 C 0.56378 0.12490 0.67909
 C975 C 0.55721 0.10079 0.66998
 C976 C 0.56816 0.08136 0.68028
 C977 C 0.58594 0.08586 0.69972
 C978 C 0.59184 0.11010 0.70920
 C979 C 0.55456 0.14510 0.66705
 C980 C 0.54803 0.16234 0.65667
 C981 C 0.54177 0.18275 0.64410
 C982 C 0.53764 0.20025 0.63293
 H983 H 0.58611 0.14802 0.70611
 H984 H 0.54415 0.09706 0.65452
 H985 H 0.56340 0.06293 0.67247
 H986 H 0.60519 0.11412 0.72438
 C987 C 1.05914 0.59921 0.17040
 C988 C 1.06561 0.62331 0.17960
 C989 C 1.08246 0.62784 0.19963
 C990 C 1.09330 0.60848 0.21002
 C991 C 1.08749 0.58425 0.20046
 C992 C 1.06995 0.57977 0.18082
 C993 C 1.05651 0.64353 0.16749
 C994 C 1.05004 0.66077 0.15708
 C995 C 1.04381 0.68119 0.14451
 C996 C 1.03966 0.69870 0.13337
 H997 H 1.04625 0.59550 0.15479
 H998 H 1.08765 0.64640 0.20688
 H999 H 1.10646 0.61247 0.22536
 H1000 H 1.06527 0.56135 0.17294
 C1001 C 0.94613 0.85150 0.18245
 C1002 C 0.96948 0.84661 0.19124
 C1003 C 0.98131 0.86142 0.21063
 C1004 C 0.96984 0.88112 0.22114
 C1005 C 0.94637 0.88625 0.21233
 C1006 C 0.93464 0.87115 0.19290
 C1007 C 0.98156 0.82701 0.17955
 C1008 C 0.99140 0.81093 0.16889
 C1009 C 1.00271 0.79268 0.15534
 C1010 C 1.01226 0.77776 0.14279
 H1011 H 0.93690 0.84030 0.16730
 H1012 H 0.99945 0.85784 0.21752
 H1013 H 0.97923 0.89224 0.23624
 H1014 H 0.91676 0.87483 0.18543
 C1015 C 0.44450 0.35358 0.68186
 C1016 C 0.46796 0.34857 0.69022
 C1017 C 0.48026 0.36347 0.70929
 C1018 C 0.46914 0.38336 0.71990
 C1019 C 0.44557 0.38860 0.71152
 C1020 C 0.43337 0.37342 0.69241
 C1021 C 0.47967 0.32878 0.67843
 C1022 C 0.48928 0.31256 0.66772
 C1023 C 0.50040 0.29418 0.65416
 C1024 C 0.50989 0.27921 0.64162
 H1025 H 0.43490 0.34230 0.66696
 H1026 H 0.49847 0.35980 0.71584
 H1027 H 0.47890 0.39453 0.73475
 H1028 H 0.41539 0.37717 0.68527
 C1029 C 0.48126 0.60718 0.78337
 C1030 C 0.46959 0.62170 0.80031
 C1031 C 0.44882 0.61206 0.81068
 C1032 C 0.43959 0.58812 0.80411
 C1033 C 0.45104 0.57331 0.78706
 C1034 C 0.47203 0.58309 0.77675
 C1035 C 0.47825 0.64667 0.80709
 C1036 C 0.48402 0.66771 0.81376
 C1037 C 0.48905 0.69232 0.82269
 C1038 C 0.49188 0.71315 0.83126
 H1039 H 0.49737 0.61447 0.77522
 H1040 H 0.43956 0.62317 0.82371
 H1041 H 0.42313 0.58141 0.81202
 H1042 H 0.48134 0.57211 0.76369
 C1043 C -0.05309 0.11021 0.30899
 C1044 C -0.03189 0.11951 0.29913
 C1045 C -0.01984 0.10465 0.28280
 C1046 C -0.02910 0.08056 0.27631
 C1047 C -0.05049 0.07110 0.28615
 C1048 C -0.06235 0.08625 0.30255
 C1049 C -0.02313 0.14447 0.30582
 C1050 C -0.01730 0.16553 0.31238
 C1051 C -0.01222 0.19018 0.32115
 C1052 C -0.00937 0.21105 0.32958
 H1053 H -0.06265 0.12158 0.32153
 H1054 H -0.00339 0.11168 0.27506
 H1055 H -0.01948 0.06930 0.26376
 H1056 H -0.07912 0.07978 0.31006
 C1057 C 0.05566 0.37639 0.26166
 C1058 C 0.06807 0.36228 0.27783
 C1059 C 0.09200 0.36964 0.28641
 C1060 C 0.10328 0.39135 0.27948
 C1061 C 0.09073 0.40608 0.26388
 C1062 C 0.06697 0.39813 0.25461
 C1063 C 0.05566 0.34158 0.28750
 C1064 C 0.04526 0.32508 0.29693
 C1065 C 0.03288 0.30694 0.30938
 C1066 C 0.02193 0.29268 0.32111
 H1067 H 0.03704 0.37096 0.25507
 H1068 H 0.10174 0.35893 0.29900
 H1069 H 0.12173 0.39680 0.28658
 H1070 H 0.05684 0.40918 0.24270
 C1071 C 0.59204 0.87178 0.78690
 C1072 C 0.56809 0.86419 0.77858
 C1073 C 0.55542 0.87803 0.76235
 C1074 C 0.56649 0.89976 0.75500
 C1075 C 0.59026 0.90795 0.76402
 C1076 C 0.60307 0.89347 0.77966
 C1077 C 0.55594 0.84352 0.78856
 C1078 C 0.54577 0.82705 0.79824
 C1079 C 0.53366 0.80895 0.81095
 C1080 C 0.52293 0.79471 0.82289
 H1081 H 0.60198 0.86128 0.79953
 H1082 H 0.53678 0.87242 0.75596
 H1083 H 0.55616 0.91061 0.74304
 H1084 H 0.62155 0.89912 0.78657
 C1085 C 0.67705 0.59209 0.12691
 C1086 C 0.67702 0.56692 0.12847
 C1087 C 0.68675 0.55255 0.11012
 C1088 C 0.69661 0.56336 0.09028
 C1089 C 0.69711 0.58905 0.08832
 C1090 C 0.68683 0.60302 0.10726
 C1091 C 0.66658 0.55626 0.14894
 C1092 C 0.65730 0.54887 0.16653
 C1093 C 0.64576 0.54200 0.18745
 C1094 C 0.63529 0.53767 0.20540
 H1095 H 0.66916 0.60338 0.14084
 H1096 H 0.68690 0.53296 0.11120
 H1097 H 0.70478 0.55130 0.07733
 H1098 H 0.68492 0.62238 0.10678
 C1099 C 0.16562 1.08546 0.61703
 C1100 C 0.17286 1.06293 0.62396
 C1101 C 0.18990 1.05073 0.61071
 C1102 C 0.19992 1.06128 0.59080
 C1103 C 0.19310 1.08421 0.58409
 C1104 C 0.17563 1.09602 0.59727
 C1105 C 0.16310 1.05307 0.64515
 C1106 C 0.15436 1.04626 0.66325
 C1107 C 0.14347 1.03997 0.68470
 C1108 C 0.13357 1.03602 0.70307
 H1109 H 0.15239 1.09502 0.62709
 H1110 H 0.19566 1.03330 0.61594
 H1111 H 0.21345 1.05185 0.58108
 H1112 H 0.16970 1.11348 0.59230
 C1113 C 0.21120 0.98094 0.86628
 C1114 C 0.19829 0.96689 0.84714
 C1115 C 0.19650 0.94150 0.84724
 C1116 C 0.20716 0.93011 0.86661
 C1117 C 0.21995 0.94389 0.88673
 C1118 C 0.22194 0.96971 0.88575
 C1119 C 0.18553 0.97850 0.82814
 C1120 C 0.17399 0.98807 0.81271
 C1121 C 0.15946 0.99919 0.79538
 C1122 C 0.14616 1.00868 0.78136
 H1123 H 0.21284 1.00069 0.86629
 H1124 H 0.18622 0.93044 0.83262
 H1125 H 0.20367 0.91053 0.86604
 H1126 H 0.23241 0.98168 0.89943
 C1127 C 0.69303 0.47964 0.37657
 C1128 C 0.69868 0.47356 0.35261
 C1129 C 0.71569 0.45632 0.34795
 C1130 C 0.72663 0.44483 0.36713
 C1131 C 0.72063 0.45040 0.39124
 C1132 C 0.70394 0.46818 0.39576
 C1133 C 0.68596 0.48410 0.33287
 C1134 C 0.67443 0.49277 0.31681
 C1135 C 0.65987 0.50287 0.29875
 C1136 C 0.64651 0.51155 0.28416
 H1137 H 0.67977 0.49285 0.38037
 H1138 H 0.72018 0.45146 0.32947
 H1139 H 0.73965 0.43145 0.36310
 H1140 H 0.69868 0.47264 0.41405
 C1141 C 0.80732 0.44022 0.61466
 C1142 C 0.79878 0.46230 0.62347
 C1143 C 0.78424 0.47538 0.60812
 C1144 C 0.77828 0.46633 0.58399
 C1145 C 0.78691 0.44414 0.57499
 C1146 C 0.80143 0.43119 0.59066
 C1147 C 0.80525 0.47114 0.64831
 C1148 C 0.81165 0.47716 0.66924
 C1149 C 0.82028 0.48258 0.69371
 C1150 C 0.82865 0.48580 0.71443
 H1151 H 0.81849 0.42989 0.62640
 H1152 H 0.77756 0.49252 0.61476
 H1153 H 0.76718 0.47677 0.57233
 H1154 H 0.80795 0.41383 0.58448
 C1155 C 0.31087 -0.02488 0.10057
 C1156 C 0.29473 -0.02880 0.11880
 C1157 C 0.27195 -0.04130 0.11285
 C1158 C 0.26564 -0.05054 0.08891
 C1159 C 0.28212 -0.04750 0.07063
 C1160 C 0.30462 -0.03413 0.07663
 C1161 C 0.30252 -0.02211 0.14385
 C1162 C 0.30977 -0.01763 0.16481
 C1163 C 0.31912 -0.01369 0.18921
 C1164 C 0.32788 -0.01144 0.20982
 H1165 H 0.32860 -0.01532 0.10498
 H1166 H 0.25941 -0.04464 0.12686
 H1167 H 0.24833 -0.06102 0.08495
 H1168 H 0.31756 -0.03125 0.06290
 C1169 C 0.25796 0.04888 0.37560
 C1170 C 0.27382 0.06186 0.36137
 C1171 C 0.28194 0.08604 0.36870
 C1172 C 0.27492 0.09697 0.39051
 C1173 C 0.25970 0.08384 0.40538
 C1174 C 0.25081 0.05986 0.39746
 C1175 C 0.28375 0.04988 0.34056
 C1176 C 0.29349 0.03996 0.32396
 C1177 C 0.30637 0.02824 0.30570
 C1178 C 0.31851 0.01789 0.29133
 H1179 H 0.25173 0.03007 0.37019
 H1180 H 0.29429 0.09622 0.35789
 H1181 H 0.28171 0.11561 0.39596
 H1182 H 0.23916 0.04931 0.40862
 C1183 C 0.78373 0.58592 0.87297
 C1184 C 0.77534 0.56177 0.86587
 C1185 C 0.75942 0.54910 0.88030
 C1186 C 0.75244 0.56039 0.90208
 C1187 C 0.76155 0.58437 0.90975
 C1188 C 0.77688 0.59716 0.89471
 C1189 C 0.78501 0.54948 0.84508
 C1190 C 0.79454 0.53933 0.82847
 C1191 C 0.80722 0.52738 0.81019
 C1192 C 0.81923 0.51687 0.79581
 H1193 H 0.79612 0.59586 0.86201
 H1194 H 0.75298 0.53031 0.87507
 H1195 H 0.74070 0.55009 0.91337
 H1196 H 0.78384 0.61579 0.89995
 C1197 C 0.12439 0.69907 0.58252
 C1198 C 0.12099 0.67909 0.56526
 C1199 C 0.09736 0.66916 0.55812
 C1200 C 0.07723 0.67884 0.56863
 C1201 C 0.08057 0.69846 0.58655
 C1202 C 0.10435 0.70872 0.59307
 C1203 C 0.14190 0.66780 0.55637
 C1204 C 0.15973 0.65810 0.55009
 C1205 C 0.18085 0.64639 0.54410
 C1206 C 0.19895 0.63599 0.54018
 H1207 H 0.14259 0.70688 0.58823
 H1208 H 0.09452 0.65357 0.54490
 H1209 H 0.05917 0.67045 0.56339
 H1210 H 0.10747 0.72407 0.60653
 C1211 C 0.60204 0.16886 1.05772
 C1212 C 0.62577 0.17844 1.06496
 C1213 C 0.62939 0.19819 1.08248
 C1214 C 0.60947 0.20795 1.09317
 C1215 C 0.58558 0.19805 1.08651
 C1216 C 0.58204 0.17865 1.06836
 C1217 C 0.64653 0.16703 1.05586
 C1218 C 0.66422 0.15720 1.04938
 C1219 C 0.68514 0.14528 1.04314
 C1220 C 0.70306 0.13465 1.03900
 H1221 H 0.59903 0.15345 1.04429
 H1222 H 0.64766 0.20573 1.08826
 H1223 H 0.61275 0.22312 1.10681
 H1224 H 0.56390 0.17052 1.06302
 C1225 C 0.84749 0.20767 0.95129
 C1226 C 0.85138 0.19810 0.97379
 C1227 C 0.87481 0.19974 0.98507
 C1228 C 0.89446 0.21044 0.97371
 C1229 C 0.89126 0.21970 0.95043
 C1230 C 0.86701 0.21838 0.93978
 C1231 C 0.83161 0.18533 0.98467
 C1232 C 0.81547 0.17382 0.99359
 C1233 C 0.79722 0.15933 1.00391
 C1234 C 0.78240 0.14605 1.01271
 H1235 H 0.82931 0.20672 0.94248
 H1236 H 0.87807 0.19212 1.00244
 H1237 H 0.91221 0.20973 0.98291
 H1238 H 0.86245 0.22626 0.92290
 C1239 C 0.36044 0.71635 0.48097
 C1240 C 0.34601 0.69649 0.46938
 C1241 C 0.35117 0.68727 0.44614
 C1242 C 0.37074 0.69774 0.43455
 C1243 C 0.38546 0.71763 0.44606
 C1244 C 0.38005 0.72688 0.46939
 C1245 C 0.32659 0.68471 0.48160
 C1246 C 0.31070 0.67393 0.49158
 C1247 C 0.29273 0.66019 0.50306
 C1248 C 0.27811 0.64746 0.51276
 H1249 H 0.35665 0.72357 0.49901
 H1250 H 0.34027 0.67176 0.43709
 H1251 H 0.37464 0.68993 0.41678
 H1252 H 0.39089 0.74233 0.47861
 C1253 C 0.60305 0.78845 0.47860
 C1254 C 0.61830 0.80390 0.46603
 C1255 C 0.60944 0.81298 0.44447
 C1256 C 0.58553 0.80665 0.43537
 C1257 C 0.56998 0.79113 0.44775
 C1258 C 0.57900 0.78206 0.46949
 C1259 C 0.64320 0.81049 0.47468
 C1260 C 0.66422 0.81692 0.48044
 C1261 C 0.68886 0.82550 0.48541
 C1262 C 0.70976 0.83374 0.48812
 H1263 H 0.60973 0.78132 0.49532
 H1264 H 0.62112 0.82484 0.43452
 H1265 H 0.57938 0.81353 0.41834
 H1266 H 0.56743 0.77019 0.47950
 C1267 C 0.10791 0.28848 -0.01902
 C1268 C 0.12315 0.30366 -0.03186
 C1269 C 0.11426 0.31242 -0.05358
 C1270 C 0.09032 0.30604 -0.06254
 C1271 C 0.07478 0.29080 -0.04987
 C1272 C 0.08383 0.28204 -0.02799
 C1273 C 0.14805 0.31038 -0.02330
 C1274 C 0.16906 0.31693 -0.01764
 C1275 C 0.19365 0.32569 -0.01277
 C1276 C 0.21449 0.33410 -0.01015
 H1277 H 0.11462 0.28160 -0.00217
 H1278 H 0.12593 0.32407 -0.06374
 H1279 H 0.08414 0.31267 -0.07968
 H1280 H 0.07226 0.27039 -0.01777
 C1281 C 0.39081 0.29280 0.05517
 C1282 C 0.36824 0.28038 0.05795
 C1283 C 0.36709 0.25956 0.07118
 C1284 C 0.38843 0.25158 0.08212
 C1285 C 0.41108 0.26450 0.08004
 C1286 C 0.41206 0.28494 0.06611
 C1287 C 0.34649 0.28995 0.04788
 C1288 C 0.32930 0.29947 0.03916
 C1289 C 0.31060 0.31221 0.02840
 C1290 C 0.29607 0.32431 0.01853
 H1291 H 0.39193 0.30888 0.04490
 H1292 H 0.34970 0.24983 0.07347
 H1293 H 0.38713 0.23591 0.09293
 H1294 H 0.42928 0.29505 0.06395
 C1295 C 0.88542 0.79196 0.55503
 C1296 C 0.86287 0.77942 0.55760
 C1297 C 0.86170 0.75855 0.57078
 C1298 C 0.88302 0.75066 0.58187
 C1299 C 0.90563 0.76371 0.58000
 C1300 C 0.90663 0.78419 0.56613
 C1301 C 0.84115 0.78889 0.54733
 C1302 C 0.82402 0.79837 0.53842
 C1303 C 0.80545 0.81110 0.52741
 C1304 C 0.79106 0.82320 0.51734
 H1305 H 0.88655 0.80808 0.54481
 H1306 H 0.84432 0.74872 0.57290
 H1307 H 0.88171 0.73495 0.59262
 H1308 H 0.92383 0.79440 0.56413
   
