data_POSCAR
  _audit_creation_date              2014-09-24
  _audit_creation_method            'ToBaCCo'
  _symmetry_space_group_name_H-M    'P1'
  _symmetry_Int_Tables_number       1
  _symmetry_cell_setting            triclinic
  loop_
  _symmetry_equiv_pos_as_xyz
 x,y,z
_cell_length_a 96.8450
_cell_length_b 96.7565
_cell_length_c 96.8396
_cell_angle_alpha 90.062300
_cell_angle_beta 90.037100
_cell_angle_gamma 90.022900
loop_
  _atom_site_label
  _atom_site_type_symbol
  _atom_site_fract_x
  _atom_site_fract_y
  _atom_site_fract_z
N1 N 0.31186 0.42876 0.90012
 N2 N 0.32165 0.43818 0.90009
 C3 C 0.31957 0.44684 0.88938
 C4 C 0.30790 0.44253 0.88244
 C5 C 0.30323 0.43107 0.88947
 H6 H 0.32598 0.45563 0.88684
 H7 H 0.29421 0.42493 0.88704
 Cu8 Cu 0.33609 0.43821 0.91411
 Cu9 Cu 0.31096 0.41422 0.91400
 Cu10 Cu 0.33632 0.41432 0.93931
 N11 N 0.35015 0.43830 0.92852
 N12 N 0.35016 0.42891 0.93834
 C13 C 0.36084 0.43130 0.94694
 C14 C 0.36781 0.44276 0.94220
 C15 C 0.36083 0.44701 0.93054
 H16 H 0.36331 0.42520 0.95597
 H17 H 0.36333 0.45578 0.92409
 N18 N 0.32145 0.40040 0.93854
 N19 N 0.31179 0.40037 0.92889
 C20 C 0.30310 0.38974 0.93123
 C21 C 0.30755 0.38284 0.94284
 C22 C 0.31916 0.38980 0.94725
 H23 H 0.29415 0.38724 0.92503
 H24 H 0.32538 0.38734 0.95620
 H25 H 0.32088 0.42524 0.92942
 H26 H 0.33183 0.41375 0.91847
 N27 N 0.42896 0.85061 0.43836
 N28 N 0.43855 0.85046 0.42873
 C29 C 0.44723 0.86117 0.43080
 C30 C 0.44276 0.86830 0.44230
 C31 C 0.43120 0.86140 0.44689
 H32 H 0.45612 0.86359 0.42450
 H33 H 0.42493 0.86398 0.45576
 Cu34 Cu 0.43857 0.83624 0.41449
 Cu35 Cu 0.41433 0.83678 0.43922
 Cu36 Cu 0.41436 0.81144 0.41379
 N37 N 0.43858 0.82205 0.40022
 N38 N 0.42901 0.81239 0.40001
 C39 C 0.43127 0.80392 0.38920
 C40 C 0.44282 0.80856 0.38233
 C41 C 0.44726 0.82005 0.38952
 H42 H 0.42501 0.79505 0.38655
 H43 H 0.45614 0.82639 0.38714
 N44 N 0.40043 0.81226 0.42862
 N45 N 0.40041 0.82190 0.43830
 C46 C 0.38979 0.81955 0.44698
 C47 C 0.38288 0.80794 0.44250
 C48 C 0.38982 0.80354 0.43089
 H49 H 0.38731 0.82573 0.45595
 H50 H 0.38736 0.79458 0.42467
 H51 H 0.42508 0.82116 0.42947
 H52 H 0.41400 0.83231 0.41835
 N53 N 0.92913 0.90082 0.81141
 N54 N 0.93878 0.90100 0.82099
 C55 C 0.94753 0.89039 0.81880
 C56 C 0.94307 0.88329 0.80728
 C57 C 0.93141 0.89011 0.80281
 H58 H 0.95651 0.88804 0.82501
 H59 H 0.92515 0.88755 0.79392
 Cu60 Cu 0.93904 0.91521 0.83525
 Cu61 Cu 0.91449 0.91457 0.81065
 Cu62 Cu 0.91434 0.93966 0.83623
 N63 N 0.93860 0.92917 0.84975
 N64 N 0.92891 0.93870 0.85007
 C65 C 0.93103 0.94705 0.86101
 C66 C 0.94263 0.94244 0.86784
 C67 C 0.94723 0.93112 0.86051
 H68 H 0.92468 0.95583 0.86373
 H69 H 0.95620 0.92488 0.86281
 N70 N 0.90047 0.93892 0.82134
 N71 N 0.90052 0.92935 0.81159
 C72 C 0.88991 0.93168 0.80290
 C73 C 0.88292 0.94322 0.80742
 C74 C 0.88981 0.94759 0.81908
 H75 H 0.88748 0.92554 0.79388
 H76 H 0.88728 0.95648 0.82537
 H77 H 0.92521 0.93023 0.82047
 H78 H 0.91438 0.91880 0.83160
 N79 N 0.42846 -0.10007 0.31199
 N80 N 0.43811 -0.09981 0.32155
 C81 C 0.44685 -0.11045 0.31946
 C82 C 0.44236 -0.11765 0.30802
 C83 C 0.43072 -0.11086 0.30349
 H84 H 0.45580 -0.11278 0.32572
 H85 H 0.42441 -0.11353 0.29466
 Cu86 Cu 0.43811 -0.08558 0.33575
 Cu87 Cu 0.41370 -0.08642 0.31119
 Cu88 Cu 0.41369 -0.06104 0.33659
 N89 N 0.43811 -0.07140 0.34999
 N90 N 0.42845 -0.06184 0.35026
 C91 C 0.43072 -0.05334 0.36105
 C92 C 0.44237 -0.05788 0.36783
 C93 C 0.44685 -0.06931 0.36062
 H94 H 0.42441 -0.04452 0.36373
 H95 H 0.45581 -0.07556 0.36295
 N96 N 0.39967 -0.06203 0.32186
 N97 N 0.39967 -0.07169 0.31219
 C98 C 0.38892 -0.06952 0.30363
 C99 C 0.38191 -0.05802 0.30817
 C100 C 0.38891 -0.05348 0.31969
 H101 H 0.38641 -0.07576 0.29470
 H102 H 0.38638 -0.04456 0.32593
 H103 H 0.42437 -0.07066 0.32085
 H104 H 0.41349 -0.08191 0.33206
 N105 N 0.81159 0.32126 0.34957
 N106 N 0.82115 0.31159 0.34935
 C107 C 0.81895 0.30279 0.35990
 C108 C 0.80745 0.30724 0.36701
 C109 C 0.80300 0.31894 0.36025
 H110 H 0.82518 0.29382 0.36225
 H111 H 0.79416 0.32524 0.36287
 Cu112 Cu 0.83551 0.31162 0.33532
 Cu113 Cu 0.81093 0.33607 0.33597
 Cu114 Cu 0.83642 0.33609 0.31078
 N115 N 0.84972 0.31163 0.32114
 N116 N 0.85004 0.32130 0.31160
 C117 C 0.86086 0.31904 0.30317
 C118 C 0.86762 0.30738 0.30773
 C119 C 0.86036 0.30288 0.31910
 H120 H 0.86360 0.32537 0.29439
 H121 H 0.86268 0.29394 0.32538
 N122 N 0.82172 0.35015 0.31172
 N123 N 0.81202 0.35015 0.32131
 C124 C 0.80348 0.36092 0.31910
 C125 C 0.80808 0.36795 0.30764
 C126 C 0.81960 0.36093 0.30316
 H127 H 0.79453 0.36343 0.32529
 H128 H 0.82588 0.36345 0.29429
 H129 H 0.82068 0.32536 0.32032
 H130 H 0.83184 0.33629 0.33163
 N131 N -0.17977 0.84945 0.81032
 N132 N -0.18948 0.84919 0.81982
 C133 C -0.19822 0.85982 0.81767
 C134 C -0.19367 0.86700 0.80626
 C135 C -0.18199 0.86022 0.80180
 H136 H -0.20724 0.86211 0.82385
 H137 H -0.17566 0.86286 0.79299
 Cu138 Cu -0.18983 0.83487 0.83394
 Cu139 Cu -0.16510 0.83570 0.80955
 Cu140 Cu -0.16514 0.81043 0.83490
 N141 N -0.18952 0.82078 0.84830
 N142 N -0.17982 0.81126 0.84860
 C143 C -0.18207 0.80278 0.85939
 C144 C -0.19376 0.80726 0.86614
 C145 C -0.19827 0.81866 0.85891
 H146 H -0.17576 0.79396 0.86206
 H147 H -0.20729 0.82485 0.86117
 N148 N -0.15114 0.81129 0.82016
 N149 N -0.15112 0.82092 0.81049
 C150 C -0.14043 0.81864 0.80188
 C151 C -0.13348 0.80707 0.80639
 C152 C -0.14047 0.80263 0.81794
 H153 H -0.13792 0.82483 0.79294
 H154 H -0.13800 0.79371 0.82418
 H155 H -0.17588 0.81999 0.81911
 H156 H -0.16514 0.83134 0.83044
 N157 N 0.93923 0.34935 0.42937
 N158 N 0.92969 0.34905 0.43905
 C159 C 0.93182 0.35963 0.44787
 C160 C 0.94326 0.36683 0.44340
 C161 C 0.94776 0.36011 0.43169
 H162 H 0.92560 0.36191 0.45686
 H163 H 0.95659 0.36278 0.42540
 Cu164 Cu 0.91548 0.33482 0.43903
 Cu165 Cu 0.93998 0.33571 0.41455
 Cu166 Cu 0.91465 0.31029 0.41453
 N167 N 0.90132 0.32055 0.43902
 N168 N 0.90104 0.31101 0.42933
 C169 C 0.89034 0.30243 0.43164
 C170 C 0.88361 0.30688 0.44335
 C171 C 0.89077 0.31836 0.44783
 H172 H 0.88769 0.29358 0.42533
 H173 H 0.88846 0.32457 0.45683
 N174 N 0.92932 0.31133 0.40046
 N175 N 0.93896 0.32100 0.40046
 C176 C 0.94751 0.31883 0.38970
 C177 C 0.94298 0.30731 0.38268
 C178 C 0.93148 0.30277 0.38969
 H179 H 0.95642 0.32508 0.38718
 H180 H 0.92525 0.29383 0.38718
 H181 H 0.91914 0.33118 0.41438
 H182 H 0.93041 0.31994 0.42522
 N183 N 0.43776 0.42830 0.85013
 N184 N 0.42829 0.43803 0.84984
 C185 C 0.43036 0.44670 0.86055
 C186 C 0.44169 0.44208 0.86781
 C187 C 0.44618 0.43043 0.86099
 H188 H 0.42418 0.45572 0.86286
 H189 H 0.45496 0.42406 0.86367
 Cu190 Cu 0.41426 0.43852 0.83547
 Cu191 Cu 0.43858 0.41368 0.83636
 Cu192 Cu 0.41330 0.41374 0.81103
 N193 N 0.39990 0.43811 0.82142
 N194 N 0.39959 0.42840 0.81190
 C195 C 0.38873 0.43059 0.80349
 C196 C 0.38196 0.44225 0.80804
 C197 C 0.38924 0.44681 0.81939
 H198 H 0.38602 0.42426 0.79468
 H199 H 0.38696 0.45581 0.82561
 N200 N 0.42805 0.39977 0.81190
 N201 N 0.43769 0.39975 0.82156
 C202 C 0.44628 0.38903 0.81935
 C203 C 0.44178 0.38205 0.80781
 C204 C 0.43026 0.38905 0.80329
 H205 H 0.45518 0.38650 0.82560
 H206 H 0.42402 0.38654 0.79437
 H207 H 0.42904 0.42450 0.82062
 H208 H 0.41767 0.41380 0.83194
 N209 N 0.81105 0.90096 0.92913
 N210 N 0.82072 0.90114 0.93869
 C211 C 0.81861 0.89057 0.94748
 C212 C 0.80705 0.88349 0.94313
 C213 C 0.80246 0.89028 0.93151
 H214 H 0.82491 0.88821 0.95639
 H215 H 0.79353 0.88769 0.92531
 Cu216 Cu 0.83502 0.91524 0.93857
 Cu217 Cu 0.81021 0.91465 0.91441
 Cu218 Cu 0.83577 0.93984 0.91423
 N219 N 0.84934 0.92931 0.93846
 N220 N 0.84958 0.93890 0.92884
 C221 C 0.86043 0.94731 0.93103
 C222 C 0.86729 0.94269 0.94260
 C223 C 0.86007 0.93130 0.94711
 H224 H 0.86311 0.95614 0.92473
 H225 H 0.86243 0.92501 0.95603
 N226 N 0.82090 0.93899 0.90036
 N227 N 0.81118 0.92940 0.90042
 C228 C 0.80248 0.93171 0.88981
 C229 C 0.80699 0.94325 0.88284
 C230 C 0.81863 0.94765 0.88971
 H231 H 0.79346 0.92558 0.88738
 H232 H 0.82488 0.95656 0.88719
 H233 H 0.83110 0.91899 0.91400
 H234 H 0.82008 0.93029 0.92504
 N235 N 0.31208 0.84999 0.32130
 N236 N 0.32193 0.85000 0.31195
 C237 C 0.31994 0.86071 0.30329
 C238 C 0.30828 0.86767 0.30752
 C239 C 0.30350 0.86067 0.31892
 H240 H 0.32637 0.86320 0.29451
 H241 H 0.29442 0.86310 0.32495
 Cu242 Cu 0.33610 0.83577 0.31190
 Cu243 Cu 0.31098 0.83606 0.33576
 Cu244 Cu 0.33634 0.81070 0.33585
 N245 N 0.35034 0.82161 0.31204
 N246 N 0.35031 0.81178 0.32142
 C247 C 0.36101 0.80321 0.31911
 C248 C 0.36805 0.80797 0.30771
 C249 C 0.36108 0.81961 0.30343
 H250 H 0.36345 0.79416 0.32518
 H251 H 0.36359 0.82602 0.29464
 N252 N 0.32133 0.81145 0.34957
 N253 N 0.31168 0.82110 0.34953
 C254 C 0.30294 0.81880 0.36009
 C255 C 0.30735 0.80720 0.36702
 C256 C 0.31898 0.80275 0.36017
 H257 H 0.29401 0.82503 0.36256
 H258 H 0.32519 0.79383 0.36271
 H259 H 0.33182 0.83154 0.33633
 H260 H 0.32086 0.82052 0.32490
 N261 N 0.81105 0.40079 0.42913
 N262 N 0.82052 0.40115 0.43888
 C263 C 0.81839 0.39057 0.44765
 C264 C 0.80703 0.38331 0.44311
 C265 C 0.80258 0.39000 0.43138
 H266 H 0.82454 0.38835 0.45671
 H267 H 0.79378 0.38728 0.42504
 Cu268 Cu 0.83458 0.41550 0.43927
 Cu269 Cu 0.81029 0.41443 0.41441
 Cu270 Cu 0.83561 0.43975 0.41440
 N271 N 0.84893 0.42956 0.43886
 N272 N 0.84927 0.43901 0.42911
 C273 C 0.86005 0.44751 0.43134
 C274 C 0.86676 0.44309 0.44308
 C275 C 0.85952 0.43172 0.44764
 H276 H 0.86274 0.45630 0.42500
 H277 H 0.86175 0.42560 0.45671
 N278 N 0.82091 0.43878 0.40039
 N279 N 0.81126 0.42912 0.40039
 C280 C 0.80270 0.43128 0.38963
 C281 C 0.80725 0.44278 0.38262
 C282 C 0.81875 0.44733 0.38963
 H283 H 0.79379 0.42503 0.38710
 H284 H 0.82501 0.45623 0.38711
 H285 H 0.83120 0.41882 0.41455
 H286 H 0.81982 0.43024 0.42515
 N287 N 0.92916 0.84909 -0.06138
 N288 N 0.93888 0.84879 -0.07086
 C289 C 0.94753 0.85951 -0.06881
 C290 C 0.94292 0.86678 -0.05748
 C291 C 0.93129 0.85997 -0.05297
 H292 H 0.95654 0.86181 -0.07499
 H293 H 0.92494 0.86266 -0.04419
 Cu294 Cu 0.93938 0.83439 -0.08486
 Cu295 Cu 0.91458 0.83530 -0.06053
 Cu296 Cu 0.91469 0.80990 -0.08579
 N297 N 0.93901 0.82029 -0.09917
 N298 N 0.92933 0.81076 -0.09948
 C299 C 0.93160 0.80225 -0.11026
 C300 C 0.94328 0.80677 -0.11698
 C301 C 0.94777 0.81819 -0.10977
 H302 H 0.92532 0.79339 -0.11292
 H303 H 0.95679 0.82439 -0.11202
 N304 N 0.90074 0.81078 -0.07105
 N305 N 0.90070 0.82046 -0.06141
 C306 C 0.89004 0.81819 -0.05278
 C307 C 0.88313 0.80658 -0.05725
 C308 C 0.89010 0.80209 -0.06879
 H309 H 0.88752 0.82442 -0.04385
 H310 H 0.88765 0.79312 -0.07499
 H311 H 0.92542 0.81955 -0.07004
 H312 H 0.91470 0.83085 -0.08143
 N313 N 0.31184 0.35017 0.82155
 N314 N 0.32140 0.34992 0.81191
 C315 C 0.31940 0.36066 0.80327
 C316 C 0.30802 0.36790 0.80781
 C317 C 0.30343 0.36103 0.81938
 H318 H 0.32567 0.36301 0.79434
 H319 H 0.29461 0.36369 0.82568
 Cu320 Cu 0.33546 0.33556 0.81151
 Cu321 Cu 0.31091 0.33634 0.83610
 Cu322 Cu 0.33620 0.31099 0.83610
 N323 N 0.34980 0.32147 0.81191
 N324 N 0.35002 0.31190 0.82156
 C325 C 0.36087 0.30347 0.81940
 C326 C 0.36776 0.30805 0.80783
 C327 C 0.36054 0.31945 0.80329
 H328 H 0.36352 0.29464 0.82570
 H329 H 0.36290 0.32571 0.79435
 N330 N 0.32134 0.31181 0.84995
 N331 N 0.31170 0.32147 0.84995
 C332 C 0.30300 0.31916 0.86056
 C333 C 0.30742 0.30755 0.86747
 C334 C 0.31902 0.30311 0.86056
 H335 H 0.29405 0.32537 0.86303
 H336 H 0.32521 0.29414 0.86303
 H337 H 0.33181 0.33192 0.83615
 H338 H 0.32053 0.32064 0.82528
 N339 N 0.15006 0.57156 0.56160
 N340 N 0.15036 0.56185 0.57109
 C341 C 0.13967 0.55315 0.56904
 C342 C 0.13238 0.55773 0.55770
 C343 C 0.13919 0.56938 0.55319
 H344 H 0.13734 0.54417 0.57526
 H345 H 0.13647 0.57574 0.54442
 Cu346 Cu 0.16471 0.56172 0.58516
 Cu347 Cu 0.16377 0.58630 0.56079
 Cu348 Cu 0.18932 0.58611 0.58599
 N349 N 0.17900 0.56161 0.59930
 N350 N 0.18858 0.57126 0.59957
 C351 C 0.19716 0.56888 0.61025
 C352 C 0.19268 0.55717 0.61697
 C353 C 0.18117 0.55276 0.60982
 H354 H 0.20604 0.57514 0.61289
 H355 H 0.17493 0.54378 0.61212
 N356 N 0.18827 0.60024 0.57135
 N357 N 0.17856 0.60030 0.56175
 C358 C 0.18072 0.61109 0.55322
 C359 C 0.19229 0.61805 0.55771
 C360 C 0.19686 0.61098 0.56917
 H361 H 0.17445 0.61365 0.54435
 H362 H 0.20583 0.61344 0.57535
 H363 H 0.17956 0.57553 0.57024
 H364 H 0.16843 0.58639 0.58162
 N365 N 0.59952 0.67948 0.06095
 N366 N 0.59927 0.68915 0.07052
 C367 C 0.60998 0.69782 0.06851
 C368 C 0.61721 0.69329 0.05712
 C369 C 0.61036 0.68168 0.05253
 H370 H 0.61235 0.70676 0.07479
 H371 H 0.61303 0.67535 0.04372
 Cu372 Cu 0.58498 0.68926 0.08462
 Cu373 Cu 0.58574 0.66482 0.06003
 Cu374 Cu 0.56023 0.66500 0.08524
 N375 N 0.57069 0.68938 0.09871
 N376 N 0.56106 0.67978 0.09891
 C377 C 0.55249 0.68215 0.10959
 C378 C 0.55703 0.69381 0.11638
 C379 C 0.56856 0.69819 0.10929
 H380 H 0.54358 0.67592 0.11218
 H381 H 0.57485 0.70713 0.11165
 N382 N 0.56119 0.65096 0.07050
 N383 N 0.57089 0.65089 0.06090
 C384 C 0.56862 0.64020 0.05226
 C385 C 0.55700 0.63331 0.05669
 C386 C 0.55251 0.64032 0.06821
 H387 H 0.57485 0.63766 0.04335
 H388 H 0.54351 0.63790 0.07436
 H389 H 0.57004 0.67563 0.06958
 H390 H 0.58112 0.66464 0.08087
 N391 N 0.67880 0.18860 0.65003
 N392 N 0.68838 0.17896 0.65019
 C393 C 0.69705 0.18101 0.63950
 C394 C 0.69260 0.19249 0.63236
 C395 C 0.68104 0.19710 0.63926
 H396 H 0.70593 0.17468 0.63707
 H397 H 0.67479 0.20599 0.63667
 Cu398 Cu 0.68839 0.16473 0.66438
 Cu399 Cu 0.66417 0.18950 0.66382
 Cu400 Cu 0.66418 0.16409 0.68914
 N401 N 0.68840 0.15049 0.67856
 N402 N 0.67882 0.15030 0.68820
 C403 C 0.68108 0.13949 0.69665
 C404 C 0.69263 0.13261 0.69202
 C405 C 0.69707 0.13979 0.68057
 H406 H 0.67483 0.13687 0.70553
 H407 H 0.70595 0.13738 0.67423
 N408 N 0.65027 0.17895 0.68829
 N409 N 0.65026 0.18862 0.67866
 C410 C 0.63965 0.19732 0.68099
 C411 C 0.63274 0.19287 0.69258
 C412 C 0.63966 0.18125 0.69699
 H413 H 0.63718 0.20629 0.67482
 H414 H 0.63720 0.17505 0.70594
 H415 H 0.67492 0.17977 0.67945
 H416 H 0.66383 0.16863 0.66829
 N417 N 1.09883 0.06980 0.18939
 N418 N 1.09854 0.06006 0.17990
 C419 C 1.10918 0.05134 0.18202
 C420 C 1.11640 0.05592 0.19340
 C421 C 1.10963 0.06760 0.19787
 H422 H 1.11146 0.04230 0.17585
 H423 H 1.11229 0.07395 0.20668
 Cu424 Cu 1.08421 0.05960 0.16583
 Cu425 Cu 1.08509 0.08443 0.19021
 Cu426 Cu 1.05982 0.08436 0.16487
 N427 N 1.07017 0.05999 0.15146
 N428 N 1.06067 0.06970 0.15115
 C429 C 1.05221 0.06746 0.14034
 C430 C 1.05670 0.05576 0.13360
 C431 C 1.06807 0.05123 0.14084
 H432 H 1.04339 0.07377 0.13766
 H433 H 1.07425 0.04219 0.13858
 N434 N 1.06068 0.09833 0.17962
 N435 N 1.07031 0.09836 0.18929
 C436 C 1.06803 0.10904 0.19793
 C437 C 1.05646 0.11597 0.19342
 C438 C 1.05201 0.10899 0.18186
 H439 H 1.07422 0.11156 0.20687
 H440 H 1.04307 0.11145 0.17563
 H441 H 1.06938 0.07361 0.18064
 H442 H 1.08073 0.08432 0.16930
 N443 N 0.07131 0.15003 1.06139
 N444 N 0.06180 0.15017 1.07108
 C445 C 0.05298 0.13960 1.06893
 C446 C 0.05726 0.13257 1.05732
 C447 C 0.06888 0.13939 1.05275
 H448 H 0.04408 0.13723 1.07524
 H449 H 0.07503 0.13685 1.04378
 Cu450 Cu 0.06183 0.16424 1.08546
 Cu451 Cu 0.08603 0.16372 1.06059
 Cu452 Cu 0.08606 0.18914 1.08588
 N453 N 0.06183 0.17868 1.09946
 N454 N 0.07135 0.18839 1.09956
 C455 C 0.06894 0.19707 1.11017
 C456 C 0.05732 0.19252 1.11700
 C457 C 0.05302 0.18087 1.11001
 H458 H 0.07510 0.20606 1.11267
 H459 H 0.04412 0.17456 1.11241
 N460 N 0.10008 0.18814 1.07115
 N461 N 0.10006 0.17845 1.06152
 C462 C 0.11082 0.18058 1.05297
 C463 C 0.11786 0.19210 1.05748
 C464 C 0.11085 0.19668 1.06897
 H465 H 0.11334 0.17430 1.04408
 H466 H 0.11340 0.20560 1.07521
 H467 H 0.08639 0.16823 1.08145
 H468 H 0.07519 0.17931 1.07034
 N469 N 0.15007 0.68845 0.67847
 N470 N 0.15020 0.67873 0.68796
 C471 C 0.13955 0.68077 0.69669
 C472 C 0.13247 0.69233 0.69236
 C473 C 0.13935 0.69699 0.68082
 H474 H 0.13715 0.67441 0.70554
 H475 H 0.13678 0.70595 0.67465
 Cu476 Cu 0.16434 0.66444 0.68799
 Cu477 Cu 0.16384 0.68938 0.66385
 Cu478 Cu 0.18935 0.66421 0.66392
 N479 N 0.17883 0.65051 0.68806
 N480 N 0.18857 0.65048 0.67859
 C481 C 0.19729 0.63992 0.68103
 C482 C 0.19272 0.63304 0.69260
 C483 C 0.18103 0.63995 0.69686
 H484 H 0.20631 0.63748 0.67492
 H485 H 0.17471 0.63751 0.70572
 N486 N 0.18836 0.67898 0.64995
 N487 N 0.17865 0.68857 0.64993
 C488 C 0.18080 0.69714 0.63918
 C489 C 0.19235 0.69269 0.63221
 C490 C 0.19694 0.68120 0.63923
 H491 H 0.17449 0.70599 0.63662
 H492 H 0.20588 0.67500 0.63671
 H493 H 0.16845 0.66852 0.66347
 H494 H 0.17941 0.67969 0.67477
 N495 N 1.17942 0.15051 0.18877
 N496 N 1.18888 0.15058 0.17903
 C497 C 1.19769 0.14001 0.18117
 C498 C 1.19344 0.13305 0.19283
 C499 C 1.18187 0.13991 0.19743
 H500 H 1.20655 0.13759 0.17483
 H501 H 1.17573 0.13741 0.20642
 Cu502 Cu 1.18877 0.16456 0.16459
 Cu503 Cu 1.16471 0.16419 0.18960
 Cu504 Cu 1.16457 0.18945 0.16421
 N505 N 1.18871 0.17891 0.15052
 N506 N 1.17920 0.18861 0.15044
 C507 C 1.18151 0.19719 0.13974
 C508 C 1.19304 0.19257 0.13282
 C509 C 1.19741 0.18099 0.13986
 H510 H 1.17529 0.20611 0.13719
 H511 H 1.20626 0.17464 0.13741
 N512 N 1.15064 0.18855 0.17902
 N513 N 1.15070 0.17892 0.18869
 C514 C 1.14004 0.18115 0.19735
 C515 C 1.13303 0.19268 0.19287
 C516 C 1.13994 0.19716 0.18129
 H517 H 1.13761 0.17495 0.20630
 H518 H 1.13740 0.20608 0.17507
 H519 H 1.16425 0.16858 0.16872
 H520 H 1.17554 0.17971 0.17973
 N521 N 0.64999 1.06199 0.57131
 N522 N 0.65026 1.07157 0.56167
 C523 C 0.63968 1.06943 0.55288
 C524 C 0.63252 1.05795 0.55730
 C525 C 0.63927 1.05345 0.56898
 H526 H 0.63741 1.07563 0.54388
 H527 H 0.63665 1.04456 0.57522
 Cu528 Cu 0.66453 1.08572 0.56143
 Cu529 Cu 0.66368 1.06116 0.58600
 Cu530 Cu 0.68889 1.08660 0.58622
 N531 N 0.67855 1.10012 0.56193
 N532 N 0.68805 1.10040 0.57164
 C533 C 0.69646 1.11127 0.56952
 C534 C 0.69194 1.11811 0.55790
 C535 C 0.68059 1.11084 0.55329
 H536 H 0.70525 1.11395 0.57588
 H537 H 0.67440 1.11316 0.54429
 N538 N 0.68801 1.07175 0.60010
 N539 N 0.67839 1.06206 0.60001
 C540 C 0.68056 1.05345 0.61071
 C541 C 0.69203 1.05798 0.61779
 C542 C 0.69655 1.06955 0.61086
 H543 H 0.67432 1.04451 0.61318
 H544 H 0.70542 1.07583 0.61347
 H545 H 0.66801 1.08211 0.58610
 H546 H 0.67940 1.07086 0.57533
 N547 N 0.57061 0.56086 0.15083
 N548 N 0.56092 0.57038 0.15109
 C549 C 0.55220 0.56826 0.14044
 C550 C 0.55674 0.55685 0.13323
 C551 C 0.56840 0.55236 0.14003
 H552 H 0.54319 0.57445 0.13814
 H553 H 0.57471 0.54353 0.13739
 Cu554 Cu 0.56051 0.58449 0.16542
 Cu555 Cu 0.58522 0.56004 0.16461
 Cu556 Cu 0.58521 0.58543 0.18988
 N557 N 0.56090 0.59889 0.17947
 N558 N 0.57060 0.59920 0.18899
 C559 C 0.56837 0.61003 0.19744
 C560 C 0.55671 0.61680 0.19292
 C561 C 0.55218 0.60954 0.18154
 H562 H 0.57468 0.61271 0.20627
 H563 H 0.54317 0.61180 0.17534
 N564 N 0.59913 0.57062 0.18906
 N565 N 0.59914 0.56094 0.17942
 C566 C 0.60978 0.55227 0.18173
 C567 C 0.61671 0.55677 0.19332
 C568 C 0.60977 0.56837 0.19774
 H569 H 0.61227 0.54331 0.17554
 H570 H 0.61225 0.57461 0.20668
 H571 H 0.57443 0.56967 0.18031
 H572 H 0.58519 0.58098 0.16898
 N573 N 0.65090 0.67950 0.18880
 N574 N 0.65110 0.68916 0.17925
 C575 C 0.64046 0.69788 0.18139
 C576 C 0.63334 0.69339 0.19286
 C577 C 0.64017 0.68174 0.19734
 H578 H 0.63812 0.70687 0.17519
 H579 H 0.63759 0.67546 0.20620
 Cu580 Cu 0.66533 0.68949 0.16507
 Cu581 Cu 0.66467 0.66488 0.18961
 Cu582 Cu 0.68978 0.66478 0.16413
 N583 N 0.67928 0.68903 0.15061
 N584 N 0.68881 0.67934 0.15031
 C585 C 0.69715 0.68147 0.13941
 C586 C 0.69257 0.69307 0.13257
 C587 C 0.68125 0.69766 0.13987
 H588 H 0.70594 0.67512 0.13669
 H589 H 0.67501 0.70663 0.13756
 N590 N 0.68904 0.65092 0.17899
 N591 N 0.67946 0.65095 0.18870
 C592 C 0.68180 0.64034 0.19739
 C593 C 0.69335 0.63339 0.19289
 C594 C 0.69772 0.64028 0.18125
 H595 H 0.67566 0.63790 0.20638
 H596 H 0.70662 0.63777 0.17500
 H597 H 0.68030 0.67565 0.17988
 H598 H 0.66891 0.66481 0.16868
 N599 N 0.15070 0.07067 1.06124
 N600 N 0.15103 0.06091 1.07068
 C601 C 0.14043 0.05214 1.06853
 C602 C 0.13318 0.05672 1.05718
 C603 C 0.13990 0.06845 1.05276
 H604 H 0.13818 0.04308 1.07465
 H605 H 0.13720 0.07481 1.04398
 Cu606 Cu 0.16536 0.06049 1.08475
 Cu607 Cu 0.16437 0.08540 1.06052
 Cu608 Cu 0.18965 0.08535 1.08586
 N609 N 0.17941 0.06086 1.09910
 N610 N 0.18888 0.07061 1.09948
 C611 C 0.19735 0.06835 1.11027
 C612 C 0.19291 0.05660 1.11694
 C613 C 0.18154 0.05206 1.10967
 H614 H 0.20615 0.07469 1.11299
 H615 H 0.17540 0.04299 1.11186
 N616 N 0.18872 0.09940 1.07119
 N617 N 0.17908 0.09942 1.06153
 C618 C 0.18127 0.11020 1.05300
 C619 C 0.19277 0.11721 1.05757
 C620 C 0.19729 0.11017 1.06906
 H621 H 0.17503 0.11274 1.04409
 H622 H 0.20619 0.11268 1.07533
 H623 H 0.18013 0.07462 1.07002
 H624 H 0.16874 0.08523 1.08142
 N625 N 0.59968 0.18910 0.57074
 N626 N 0.59936 0.17957 0.56104
 C627 C 0.61009 0.18154 0.55241
 C628 C 0.61741 0.19286 0.55700
 C629 C 0.61060 0.19745 0.56861
 H630 H 0.61238 0.17530 0.54342
 H631 H 0.61332 0.20625 0.57496
 Cu632 Cu 0.58488 0.16562 0.56057
 Cu633 Cu 0.58588 0.19007 0.58531
 Cu634 Cu 0.56036 0.16495 0.58518
 N635 N 0.57067 0.15139 0.56088
 N636 N 0.56113 0.15119 0.57054
 C637 C 0.55256 0.14047 0.56828
 C638 C 0.55702 0.13364 0.55663
 C639 C 0.56849 0.14076 0.55214
 H640 H 0.54369 0.13790 0.57456
 H641 H 0.57469 0.13841 0.54315
 N642 N 0.56131 0.17974 0.59913
 N643 N 0.57104 0.18932 0.59917
 C644 C 0.56880 0.19801 0.60983
 C645 C 0.55717 0.19363 0.61672
 C646 C 0.55264 0.18208 0.60975
 H647 H 0.57507 0.20691 0.61235
 H648 H 0.54364 0.17594 0.61219
 H649 H 0.58129 0.16918 0.58524
 H650 H 0.57011 0.18061 0.57445
 N651 N 0.09981 0.57123 0.68832
 N652 N 0.09954 0.56150 0.67882
 C653 C 0.11013 0.55273 0.68099
 C654 C 0.11730 0.55727 0.69243
 C655 C 0.11054 0.56898 0.69687
 H656 H 0.11241 0.54369 0.67483
 H657 H 0.11318 0.57530 0.70570
 Cu658 Cu 0.08527 0.56116 0.66465
 Cu659 Cu 0.08614 0.58594 0.68907
 Cu660 Cu 0.06098 0.58601 0.66360
 N661 N 0.07128 0.56159 0.65021
 N662 N 0.06182 0.57134 0.64987
 C663 C 0.05343 0.56918 0.63898
 C664 C 0.05794 0.55750 0.63220
 C665 C 0.06924 0.55290 0.63952
 H666 H 0.04468 0.57555 0.63625
 H667 H 0.07542 0.54387 0.63724
 N668 N 0.06184 0.59999 0.67838
 N669 N 0.07144 0.59996 0.68809
 C670 C 0.06922 0.61070 0.69668
 C671 C 0.05774 0.61772 0.69211
 C672 C 0.05327 0.61074 0.68055
 H673 H 0.07541 0.61320 0.70563
 H674 H 0.04440 0.61328 0.67426
 H675 H 0.07042 0.57520 0.67941
 H676 H 0.08186 0.58588 0.66814
 N677 N 0.65061 0.56130 0.07056
 N678 N 0.65083 0.57095 0.06098
 C679 C 0.64025 0.56882 0.05216
 C680 C 0.63314 0.55728 0.05651
 C681 C 0.63992 0.55273 0.06816
 H682 H 0.63790 0.57512 0.04325
 H683 H 0.63731 0.54381 0.07436
 Cu684 Cu 0.66495 0.58526 0.06112
 Cu685 Cu 0.66428 0.56048 0.08533
 Cu686 Cu 0.68951 0.58601 0.08556
 N687 N 0.67907 0.59957 0.06127
 N688 N 0.68863 0.59981 0.07093
 C689 C 0.69706 0.61066 0.06876
 C690 C 0.69249 0.61752 0.05717
 C691 C 0.68110 0.61029 0.05262
 H692 H 0.70589 0.61332 0.07507
 H693 H 0.67482 0.61267 0.04370
 N694 N 0.68862 0.57114 0.09946
 N695 N 0.67901 0.56143 0.09938
 C696 C 0.68129 0.55275 0.11001
 C697 C 0.69283 0.55725 0.11702
 C698 C 0.69726 0.56888 0.11014
 H699 H 0.67513 0.54375 0.11242
 H700 H 0.70617 0.57512 0.11267
 H701 H 0.66868 0.58137 0.08572
 H702 H 0.67995 0.57029 0.07473
 N703 N 0.07200 0.68798 0.60014
 N704 N 0.06229 0.67846 0.59988
 C705 C 0.05365 0.68053 0.61059
 C706 C 0.05824 0.69190 0.61784
 C707 C 0.06986 0.69642 0.61100
 H708 H 0.04467 0.67431 0.61293
 H709 H 0.07622 0.70522 0.61367
 Cu710 Cu 0.06184 0.66436 0.58553
 Cu711 Cu 0.08659 0.68879 0.58636
 Cu712 Cu 0.08648 0.66344 0.56104
 N713 N 0.06216 0.64999 0.57144
 N714 N 0.07183 0.64969 0.56190
 C715 C 0.06960 0.63883 0.55347
 C716 C 0.05797 0.63203 0.55802
 C717 C 0.05346 0.63930 0.56940
 H718 H 0.07591 0.63614 0.54466
 H719 H 0.04449 0.63700 0.57564
 N720 N 0.10046 0.67823 0.56189
 N721 N 0.10049 0.68790 0.57154
 C722 C 0.11121 0.69650 0.56930
 C723 C 0.11816 0.69199 0.55775
 C724 C 0.11115 0.68044 0.55326
 H725 H 0.11374 0.70543 0.57554
 H726 H 0.11363 0.67420 0.54433
 H727 H 0.07575 0.67920 0.57065
 H728 H 0.08652 0.66787 0.58194
 N729 N 0.57047 1.06145 0.65034
 N730 N 0.56077 1.07097 0.65062
 C731 C 0.55197 1.06880 0.64003
 C732 C 0.55648 1.05734 0.63285
 C733 C 0.56819 1.05289 0.63960
 H734 H 0.54297 1.07500 0.63773
 H735 H 0.57450 1.04406 0.63696
 Cu736 Cu 0.56072 1.08520 0.66485
 Cu737 Cu 0.58526 1.06074 0.66402
 Cu738 Cu 0.58517 1.08612 0.68942
 N739 N 0.56067 1.09943 0.67910
 N740 N 0.57033 1.09974 0.68866
 C741 C 0.56798 1.11048 0.69721
 C742 C 0.55626 1.11718 0.69271
 C743 C 0.55183 1.10999 0.68123
 H744 H 0.57426 1.11315 0.70606
 H745 H 0.54285 1.11226 0.67499
 N746 N 0.59929 1.07144 0.68842
 N747 N 0.59933 1.06178 0.67875
 C748 C 0.61011 1.05325 0.68093
 C749 C 0.61712 1.05780 0.69246
 C750 C 0.61006 1.06930 0.69699
 H751 H 0.61265 1.04434 0.67469
 H752 H 0.61255 1.07555 0.70591
 H753 H 0.57454 1.07033 0.67977
 H754 H 0.58538 1.08162 0.66856
 N755 N 0.43852 0.35031 0.92880
 N756 N 0.42906 0.34994 0.93855
 C757 C 0.43109 0.36064 0.94726
 C758 C 0.44237 0.36799 0.94264
 C759 C 0.44689 0.36122 0.93096
 H760 H 0.42491 0.36289 0.95628
 H761 H 0.45562 0.36397 0.92457
 Cu762 Cu 0.41511 0.33544 0.93898
 Cu763 Cu 0.43936 0.33656 0.91412
 Cu764 Cu 0.41428 0.31100 0.91424
 N765 N 0.40090 0.32119 0.93869
 N766 N 0.40064 0.31168 0.92898
 C767 C 0.38995 0.30308 0.93126
 C768 C 0.38320 0.30748 0.94298
 C769 C 0.39034 0.31897 0.94748
 H770 H 0.38733 0.29423 0.92494
 H771 H 0.38805 0.32513 0.95652
 N772 N 0.42894 0.31203 0.90018
 N773 N 0.43851 0.32177 0.90013
 C774 C 0.44706 0.31962 0.88936
 C775 C 0.44260 0.30804 0.88238
 C776 C 0.43115 0.30344 0.88943
 H777 H 0.45590 0.32594 0.88680
 H778 H 0.42497 0.29447 0.88695
 H779 H 0.41851 0.33195 0.91427
 H780 H 0.43000 0.32072 0.92493
 N781 N 0.93871 0.42862 0.35003
 N782 N 0.92923 0.43837 0.34976
 C783 C 0.93145 0.44717 0.36034
 C784 C 0.94288 0.44262 0.36750
 C785 C 0.94728 0.43088 0.36076
 H786 H 0.92530 0.45621 0.36262
 H787 H 0.95609 0.42453 0.36339
 Cu788 Cu 0.91503 0.43868 0.33550
 Cu789 Cu 0.93937 0.41386 0.33636
 Cu790 Cu 0.91387 0.41379 0.31122
 N791 N 0.90056 0.43827 0.32151
 N792 N 0.90018 0.42850 0.31205
 C793 C 0.88929 0.43067 0.30367
 C794 C 0.88254 0.44237 0.30817
 C795 C 0.88989 0.44698 0.31947
 H796 H 0.88653 0.42427 0.29493
 H797 H 0.88765 0.45601 0.32565
 N798 N 0.92860 0.39977 0.31207
 N799 N 0.93832 0.39979 0.32166
 C800 C 0.94687 0.38903 0.31942
 C801 C 0.94227 0.38199 0.30794
 C802 C 0.93072 0.38900 0.30349
 H803 H 0.95583 0.38652 0.32560
 H804 H 0.92442 0.38647 0.29463
 H805 H 0.92973 0.42458 0.32065
 H806 H 0.91844 0.41394 0.33211
 N807 N 0.31228 0.92889 0.39997
 N808 N 0.32212 0.93827 0.39988
 C809 C 0.32007 0.94688 0.38914
 C810 C 0.30837 0.94259 0.38223
 C811 C 0.30365 0.93120 0.38932
 H812 H 0.32651 0.95563 0.38655
 H813 H 0.29459 0.92510 0.38693
 Cu814 Cu 0.33655 0.93831 0.41389
 Cu815 Cu 0.31131 0.91444 0.41392
 Cu816 Cu 0.33668 0.91456 0.43922
 N817 N 0.35061 0.93841 0.42829
 N818 N 0.35058 0.92907 0.43816
 C819 C 0.36125 0.93147 0.44676
 C820 C 0.36827 0.94288 0.44196
 C821 C 0.36132 0.94709 0.43027
 H822 H 0.36368 0.92542 0.45583
 H823 H 0.36385 0.95583 0.42378
 N824 N 0.32175 0.90072 0.43853
 N825 N 0.31209 0.90068 0.42889
 C826 C 0.30338 0.89008 0.43127
 C827 C 0.30782 0.88321 0.44289
 C828 C 0.31944 0.89015 0.44728
 H829 H 0.29443 0.88756 0.42507
 H830 H 0.32567 0.88770 0.45622
 H831 H 0.32128 0.92548 0.42925
 H832 H 0.33218 0.91388 0.41836
 O833 O 0.23198 0.50114 0.71338
 O834 O 0.23427 0.47720 0.71776
 O835 O 0.21337 0.51790 0.74912
 O836 O 0.21717 0.51758 0.77219
 O837 O 0.24908 0.53692 0.73215
 O838 O 0.27340 0.53207 0.73354
 O839 O 0.25126 0.48164 0.78588
 O840 O 0.22735 0.48470 0.78223
 O841 O 0.26841 0.46432 0.75134
 O842 O 0.26700 0.46889 0.72617
 O843 O 0.28600 0.49901 0.76823
 O844 O 0.28133 0.52407 0.76707
 O845 O 0.26789 0.49834 0.78594
 O846 O 0.26579 0.52426 0.78130
 O847 O 0.28616 0.48238 0.75157
 O848 O 0.28127 0.48444 0.72582
 O849 O 0.25204 0.46433 0.76822
 O850 O 0.22679 0.46834 0.76334
 O851 O 0.24880 0.51770 0.71330
 O852 O 0.27357 0.51622 0.71832
 O853 O 0.23246 0.53694 0.74881
 O854 O 0.23497 0.53149 0.77393
 O855 O 0.21346 0.50146 0.73222
 O856 O 0.21870 0.47642 0.73571
 Zr857 Zr 0.23332 0.49258 0.73331
 O858 O 0.24573 0.47935 0.74532
 Zr859 Zr 0.23338 0.51702 0.75759
 O860 O 0.24540 0.50462 0.77082
 Zr861 Zr 0.25765 0.51695 0.73323
 O862 O 0.27097 0.50492 0.74553
 Zr863 Zr 0.24224 0.48363 0.76627
 O864 O 0.22870 0.49597 0.75433
 Zr865 Zr 0.26667 0.48391 0.74208
 O866 O 0.25433 0.49595 0.72869
 Zr867 Zr 0.26638 0.50812 0.76653
 O868 O 0.25436 0.52165 0.75423
 O869 O 0.23687 0.51344 0.73680
 O870 O 0.26312 0.48724 0.76295
 C871 C 0.23879 0.51099 0.70766
 C872 C 0.20773 0.51127 0.73909
 C873 C 0.23920 0.54263 0.73890
 C874 C 0.26144 0.48810 0.79141
 C875 C 0.26214 0.45883 0.76164
 C876 C 0.29158 0.48886 0.76178
 H877 H 0.24354 0.46959 0.74317
 H878 H 0.28068 0.50721 0.74339
 H879 H 0.23097 0.51933 0.73092
 H880 H 0.24312 0.50660 0.78057
 H881 H 0.21857 0.48753 0.77782
 H882 H 0.21965 0.51105 0.77963
 H883 H 0.28793 0.49193 0.72783
 H884 H 0.27264 0.50724 0.71350
 H885 H 0.22732 0.46184 0.77122
 H886 H 0.21169 0.47724 0.72828
 H887 H 0.28701 0.52327 0.75863
 H888 H 0.27306 0.53641 0.74280
 H889 H 0.24363 0.47773 0.71368
 H890 H 0.25869 0.46305 0.72721
 H891 H 0.24339 0.53702 0.77219
 H892 H 0.25846 0.52206 0.78807
 O893 O 0.24886 0.03618 0.23172
 O894 O 0.27275 0.03186 0.23387
 O895 O 0.23207 0.00026 0.21327
 O896 O 0.23241 -0.02279 0.21717
 O897 O 0.21321 0.01740 0.24907
 O898 O 0.21821 0.01617 0.27334
 O899 O 0.26846 -0.03628 0.25097
 O900 O 0.26536 -0.03265 0.22711
 O901 O 0.28589 -0.00159 0.26805
 O902 O 0.28125 0.02363 0.26658
 O903 O 0.25148 -0.01849 0.28587
 O904 O 0.22636 -0.01732 0.28138
 O905 O 0.25191 -0.03629 0.26771
 O906 O 0.22604 -0.03162 0.26592
 O907 O 0.26799 -0.00173 0.28591
 O908 O 0.26585 0.02399 0.28096
 O909 O 0.28578 -0.01859 0.25176
 O910 O 0.28169 -0.01377 0.22653
 O911 O 0.23241 0.03633 0.24862
 O912 O 0.23400 0.03142 0.27338
 O913 O 0.21313 0.00065 0.23248
 O914 O 0.21863 -0.02443 0.23500
 O915 O 0.24846 0.01720 0.21323
 O916 O 0.27352 0.01380 0.21840
 Zr917 Zr 0.25743 0.01625 0.23306
 O918 O 0.27074 0.00432 0.24544
 Zr919 Zr 0.23305 -0.00807 0.23332
 O920 O 0.24553 -0.02123 0.24532
 Zr921 Zr 0.23322 0.01642 0.25751
 O922 O 0.24535 0.00419 0.27082
 Zr923 Zr 0.26647 -0.01666 0.24201
 O924 O 0.25404 -0.00480 0.22851
 Zr925 Zr 0.26630 0.00765 0.26640
 O926 O 0.25417 0.02098 0.25408
 Zr927 Zr 0.24217 -0.01685 0.26631
 O928 O 0.22855 -0.00462 0.25432
 O929 O 0.23660 0.01275 0.23672
 O930 O 0.26300 -0.01326 0.26292
 C931 C 0.23906 0.04194 0.23859
 C932 C 0.23867 0.01026 0.20756
 C933 C 0.20747 0.01057 0.23924
 C934 C 0.26206 -0.04179 0.26117
 C935 C 0.29133 -0.01194 0.26181
 C936 C 0.26161 -0.01196 0.29140
 H937 H 0.28047 0.00648 0.24319
 H938 H 0.24312 0.00637 0.28053
 H939 H 0.23067 0.01860 0.23083
 H940 H 0.24355 -0.03100 0.24306
 H941 H 0.26249 -0.02825 0.21834
 H942 H 0.23900 -0.03019 0.21962
 H943 H 0.25838 0.02203 0.28764
 H944 H 0.24297 0.03622 0.27242
 H945 H 0.28820 -0.02166 0.22705
 H946 H 0.27263 0.02118 0.21134
 H947 H 0.22724 -0.00888 0.28708
 H948 H 0.21394 0.00687 0.27310
 H949 H 0.27233 0.03593 0.24324
 H950 H 0.28711 0.02248 0.25830
 H951 H 0.21316 -0.02269 0.24346
 H952 H 0.22807 -0.03832 0.25847
 O953 O 0.53670 0.73206 0.24889
 O954 O 0.53226 0.73419 0.27280
 O955 O 0.50088 0.71365 0.23192
 O956 O 0.47785 0.71759 0.23217
 O957 O 0.51814 0.74946 0.21320
 O958 O 0.51684 0.77377 0.21822
 O959 O 0.46423 0.75150 0.26819
 O960 O 0.46783 0.72758 0.26511
 O961 O 0.49881 0.76850 0.28581
 O962 O 0.52401 0.76693 0.28132
 O963 O 0.48214 0.78633 0.25129
 O964 O 0.48344 0.78182 0.22615
 O965 O 0.46433 0.76824 0.25162
 O966 O 0.46908 0.76640 0.22580
 O967 O 0.49879 0.78633 0.26791
 O968 O 0.52451 0.78131 0.26590
 O969 O 0.48179 0.75225 0.28562
 O970 O 0.48660 0.72696 0.28153
 O971 O 0.53693 0.74901 0.23248
 O972 O 0.53204 0.77377 0.23406
 O973 O 0.50139 0.73288 0.21301
 O974 O 0.47628 0.73545 0.21840
 O975 O 0.51774 0.71358 0.24839
 O976 O 0.51421 0.71872 0.27344
 Zr977 Zr 0.51675 0.73341 0.25739
 O978 O 0.50477 0.74582 0.27067
 Zr979 Zr 0.49256 0.73372 0.23290
 O980 O 0.47937 0.74576 0.24533
 Zr981 Zr 0.51704 0.75791 0.23321
 O982 O 0.50479 0.77124 0.24530
 Zr983 Zr 0.48382 0.74246 0.26630
 O984 O 0.49572 0.72892 0.25390
 Zr985 Zr 0.50815 0.76679 0.26627
 O986 O 0.52150 0.75445 0.25418
 Zr987 Zr 0.48379 0.76676 0.24199
 O988 O 0.49605 0.75474 0.22842
 O989 O 0.51335 0.73710 0.23656
 O990 O 0.48727 0.76336 0.26285
 C991 C 0.54250 0.73894 0.23913
 C992 C 0.51085 0.70792 0.23855
 C993 C 0.51135 0.73963 0.20741
 C994 C 0.45878 0.76173 0.26176
 C995 C 0.48841 0.76230 0.29120
 C996 C 0.48861 0.79184 0.26147
 H997 H 0.50687 0.74357 0.28041
 H998 H 0.50700 0.78096 0.24309
 H999 H 0.51922 0.73120 0.23064
 H1000 H 0.46962 0.74352 0.24329
 H1001 H 0.47222 0.71879 0.26225
 H1002 H 0.47044 0.72004 0.23874
 H1003 H 0.52258 0.78803 0.25845
 H1004 H 0.53679 0.77282 0.24306
 H1005 H 0.47869 0.72751 0.28800
 H1006 H 0.52158 0.71166 0.27258
 H1007 H 0.49185 0.78754 0.22713
 H1008 H 0.50760 0.77349 0.21386
 H1009 H 0.53635 0.74356 0.27240
 H1010 H 0.52284 0.75864 0.28716
 H1011 H 0.47807 0.74391 0.21294
 H1012 H 0.46238 0.75894 0.22780
 O1013 O -0.01803 0.78676 0.75088
 O1014 O -0.01589 0.78233 0.72696
 O1015 O -0.03655 0.75102 0.76774
 O1016 O -0.03277 0.72794 0.76735
 O1017 O -0.00064 0.76801 0.78654
 O1018 O 0.02361 0.76673 0.78151
 O1019 O 0.00110 0.71413 0.73141
 O1020 O -0.02278 0.71784 0.73450
 O1021 O 0.01826 0.74863 0.71393
 O1022 O 0.01687 0.77383 0.71840
 O1023 O 0.03600 0.73190 0.74851
 O1024 O 0.03141 0.73319 0.77362
 O1025 O 0.01784 0.71415 0.74800
 O1026 O 0.01598 0.71886 0.77384
 O1027 O 0.03610 0.74855 0.73191
 O1028 O 0.03114 0.77434 0.73394
 O1029 O 0.00190 0.73172 0.71405
 O1030 O -0.02332 0.73665 0.71810
 O1031 O -0.00113 0.78688 0.76735
 O1032 O 0.02362 0.78193 0.76569
 O1033 O -0.01729 0.75133 0.78665
 O1034 O -0.01493 0.72623 0.78118
 O1035 O -0.03656 0.76787 0.75129
 O1036 O -0.03140 0.76430 0.72622
 Zr1037 Zr -0.01674 0.76679 0.74231
 O1038 O -0.00438 0.75474 0.72904
 Zr1039 Zr -0.01655 0.74256 0.76674
 O1040 O -0.00457 0.72930 0.75432
 Zr1041 Zr 0.00774 0.76696 0.76652
 O1042 O 0.02100 0.75462 0.75445
 Zr1043 Zr -0.00785 0.73378 0.73335
 O1044 O -0.02133 0.74575 0.74573
 Zr1045 Zr 0.01660 0.75800 0.73348
 O1046 O 0.00431 0.77143 0.74555
 Zr1047 Zr 0.01642 0.73362 0.75771
 O1048 O 0.00446 0.74596 0.77126
 O1049 O -0.01307 0.76335 0.76314
 O1050 O 0.01306 0.73713 0.73685
 C1051 C -0.01117 0.79251 0.76070
 C1052 C -0.04225 0.76102 0.76112
 C1053 C -0.01047 0.76123 0.79230
 C1054 C 0.01131 0.70863 0.73784
 C1055 C 0.01199 0.73828 0.70851
 C1056 C 0.04157 0.73836 0.73838
 H1057 H -0.00662 0.75685 0.71930
 H1058 H 0.03072 0.75679 0.75670
 H1059 H -0.01893 0.76923 0.76908
 H1060 H -0.00686 0.71954 0.75632
 H1061 H -0.03155 0.72228 0.73733
 H1062 H -0.03031 0.72047 0.76083
 H1063 H 0.03785 0.77238 0.74139
 H1064 H 0.02261 0.78674 0.75673
 H1065 H -0.02282 0.72871 0.71163
 H1066 H -0.03844 0.77170 0.72708
 H1067 H 0.03720 0.74156 0.77267
 H1068 H 0.02334 0.75747 0.78583
 H1069 H -0.00650 0.78636 0.72738
 H1070 H 0.00849 0.77280 0.71266
 H1071 H -0.00643 0.72792 0.78662
 H1072 H 0.00853 0.71217 0.77178
 O1073 O 0.03675 0.01755 0.00126
 O1074 O 0.03188 0.01370 -0.02335
 O1075 O 0.00123 0.03599 0.01776
 O1076 O -0.02193 0.03221 0.01748
 O1077 O 0.01804 0.00009 0.03671
 O1078 O 0.01663 -0.02429 0.03155
 O1079 O -0.03580 -0.00168 -0.01834
 O1080 O -0.03208 0.02225 -0.01520
 O1081 O -0.00120 -0.01867 -0.03605
 O1082 O 0.02484 -0.01605 -0.03059
 O1083 O -0.01775 -0.03662 -0.00163
 O1084 O -0.01650 -0.03210 0.02362
 O1085 O -0.03567 -0.01851 -0.00186
 O1086 O -0.03099 -0.01691 0.02384
 O1087 O -0.00102 -0.03663 -0.01817
 O1088 O 0.02379 -0.03231 -0.01703
 O1089 O -0.01825 -0.00247 -0.03580
 O1090 O -0.01341 0.02281 -0.03169
 O1091 O 0.03692 0.00053 0.01759
 O1092 O 0.03205 -0.02413 0.01589
 O1093 O 0.00140 0.01676 0.03682
 O1094 O -0.02361 0.01442 0.03141
 O1095 O 0.01822 0.03599 0.00142
 O1096 O 0.01417 0.03126 -0.02324
 Zr1097 Zr 0.01689 0.01618 -0.00755
 O1098 O 0.00474 0.00393 -0.02085
 Zr1099 Zr -0.00735 0.01597 0.01690
 O1100 O -0.02059 0.00395 0.00449
 Zr1101 Zr 0.01702 -0.00832 0.01669
 O1102 O 0.00481 -0.02154 0.00447
 Zr1103 Zr -0.01618 0.00729 -0.01647
 O1104 O -0.00415 0.02071 -0.00409
 Zr1105 Zr 0.00817 -0.01703 -0.01649
 O1106 O 0.02156 -0.00485 -0.00425
 Zr1107 Zr -0.01619 -0.01707 0.00776
 O1108 O -0.00397 -0.00506 0.02138
 O1109 O 0.01340 0.01247 0.01328
 O1110 O -0.01272 -0.01362 -0.01310
 C1111 C 0.04251 0.01063 0.01102
 C1112 C 0.01129 0.04167 0.01121
 C1113 C 0.01127 0.00994 0.04248
 C1114 C -0.04126 -0.01193 -0.01194
 C1115 C -0.01162 -0.01247 -0.04142
 C1116 C -0.01120 -0.04215 -0.01174
 H1117 H 0.00682 0.00620 -0.03059
 H1118 H 0.00700 -0.03127 0.00665
 H1119 H 0.01924 0.01834 0.01924
 H1120 H -0.03033 0.00619 0.00653
 H1121 H -0.02761 0.03101 -0.01235
 H1122 H -0.02951 0.02964 0.01113
 H1123 H 0.02329 -0.03757 -0.00829
 H1124 H 0.03674 -0.02323 0.00685
 H1125 H -0.02134 0.02227 -0.03815
 H1126 H 0.02190 0.03796 -0.02273
 H1127 H -0.00822 -0.03797 0.02250
 H1128 H 0.00744 -0.02386 0.03600
 H1129 H 0.03848 0.02152 -0.02286
 H1130 H 0.02247 -0.00919 -0.03778
 H1131 H -0.02204 0.00580 0.03669
 H1132 H -0.03746 -0.00921 0.02207
 O1133 O -0.00116 0.48158 0.46328
 O1134 O 0.02279 0.48376 0.46762
 O1135 O -0.01791 0.46308 0.49903
 O1136 O -0.01743 0.46688 0.52210
 O1137 O -0.03674 0.49897 0.48215
 O1138 O -0.03169 0.52327 0.48343
 O1139 O 0.01857 0.50080 0.53578
 O1140 O 0.01545 0.47688 0.53207
 O1141 O 0.03596 0.51794 0.50126
 O1142 O 0.03139 0.51655 0.47610
 O1143 O 0.00147 0.53570 0.51815
 O1144 O -0.02367 0.53112 0.51690
 O1145 O 0.00199 0.51754 0.53584
 O1146 O -0.02387 0.51568 0.53121
 O1147 O 0.01802 0.53579 0.50145
 O1148 O 0.01585 0.53082 0.47566
 O1149 O 0.03586 0.50159 0.51816
 O1150 O 0.03179 0.47635 0.51322
 O1151 O -0.01762 0.49848 0.46322
 O1152 O -0.01592 0.52327 0.46818
 O1153 O -0.03681 0.48233 0.49881
 O1154 O -0.03125 0.48473 0.52387
 O1155 O -0.00152 0.46306 0.48213
 O1156 O 0.02357 0.46822 0.48560
 Zr1157 Zr 0.00748 0.48290 0.48320
 O1158 O 0.02080 0.49528 0.49520
 Zr1159 Zr -0.01686 0.48310 0.50751
 O1160 O -0.00439 0.49510 0.52071
 Zr1161 Zr -0.01671 0.50739 0.48314
 O1162 O -0.00459 0.52068 0.49542
 Zr1163 Zr 0.01655 0.49182 0.51615
 O1164 O 0.00412 0.47832 0.50423
 Zr1165 Zr 0.01637 0.51627 0.49197
 O1166 O 0.00424 0.50396 0.47859
 Zr1167 Zr -0.00778 0.51611 0.51642
 O1168 O -0.02138 0.50413 0.50414
 O1169 O -0.01333 0.48657 0.48672
 O1170 O 0.01306 0.51274 0.51284
 C1171 C -0.01100 0.48843 0.45757
 C1172 C -0.01134 0.45738 0.48901
 C1173 C -0.04248 0.48913 0.48894
 C1174 C 0.01217 0.51102 0.54131
 C1175 C 0.04140 0.51168 0.51159
 C1176 C 0.01161 0.54125 0.51168
 H1177 H 0.03053 0.49304 0.49305
 H1178 H -0.00683 0.53040 0.49328
 H1179 H -0.01929 0.48070 0.48086
 H1180 H -0.00636 0.49282 0.53047
 H1181 H 0.01260 0.46811 0.52763
 H1182 H -0.01089 0.46935 0.52954
 H1183 H 0.00845 0.53756 0.47769
 H1184 H -0.00697 0.52226 0.46334
 H1185 H 0.03829 0.47685 0.52112
 H1186 H 0.02267 0.46118 0.47820
 H1187 H -0.02270 0.53694 0.50856
 H1188 H -0.03597 0.52301 0.49270
 H1189 H 0.02232 0.49313 0.46356
 H1190 H 0.03710 0.50814 0.47708
 H1191 H -0.03670 0.49323 0.52220
 H1192 H -0.02180 0.50822 0.53788
 O1193 O 0.50076 0.03695 0.51809
 O1194 O 0.47685 0.03246 0.51596
 O1195 O 0.51769 0.00131 0.53677
 O1196 O 0.51721 -0.02183 0.53304
 O1197 O 0.53651 0.01818 0.50097
 O1198 O 0.53159 0.01676 0.47668
 O1199 O 0.48134 -0.03570 0.49890
 O1200 O 0.48442 -0.03203 0.52282
 O1201 O 0.46395 -0.00116 0.48177
 O1202 O 0.46847 0.02400 0.48316
 O1203 O 0.49859 -0.01800 0.46416
 O1204 O 0.52371 -0.01672 0.46887
 O1205 O 0.49801 -0.03573 0.48226
 O1206 O 0.52383 -0.03108 0.48428
 O1207 O 0.48197 -0.00137 0.46401
 O1208 O 0.48403 0.02444 0.46894
 O1209 O 0.46401 -0.01806 0.49813
 O1210 O 0.46806 -0.01317 0.52338
 O1211 O 0.51726 0.03702 0.50124
 O1212 O 0.51578 0.03195 0.47652
 O1213 O 0.53660 0.00152 0.51761
 O1214 O 0.53115 -0.02360 0.51523
 O1215 O 0.50124 0.01817 0.53668
 O1216 O 0.47618 0.01448 0.53152
 Zr1217 Zr 0.49226 0.01696 0.51685
 O1218 O 0.47902 0.00490 0.50445
 Zr1219 Zr 0.51669 -0.00727 0.51678
 O1220 O 0.50429 -0.02055 0.50476
 Zr1221 Zr 0.51653 0.01706 0.49246
 O1222 O 0.50449 0.00472 0.47916
 Zr1223 Zr 0.48331 -0.01606 0.50793
 O1224 O 0.49566 -0.00407 0.52147
 Zr1225 Zr 0.48351 0.00814 0.48350
 O1226 O 0.49556 0.02157 0.49582
 Zr1227 Zr 0.50774 -0.01628 0.48377
 O1228 O 0.52126 -0.00393 0.49578
 O1229 O 0.51309 0.01352 0.51326
 O1230 O 0.48687 -0.01274 0.48704
 C1231 C 0.51056 0.04269 0.51123
 C1232 C 0.51108 0.01136 0.54241
 C1233 C 0.54225 0.01144 0.51083
 C1234 C 0.48779 -0.04122 0.48871
 C1235 C 0.45849 -0.01149 0.48803
 C1236 C 0.48845 -0.01157 0.45857
 H1237 H 0.46928 0.00703 0.50666
 H1238 H 0.50676 0.00686 0.46945
 H1239 H 0.51900 0.01944 0.51912
 H1240 H 0.50628 -0.03030 0.50705
 H1241 H 0.48726 -0.02760 0.53160
 H1242 H 0.51077 -0.02934 0.53051
 H1243 H 0.49144 0.02241 0.46222
 H1244 H 0.50680 0.03675 0.47744
 H1245 H 0.46157 -0.02108 0.52285
 H1246 H 0.47702 0.02191 0.53854
 H1247 H 0.52275 -0.00839 0.46304
 H1248 H 0.53593 0.00750 0.47701
 H1249 H 0.47729 0.03650 0.50658
 H1250 H 0.46268 0.02298 0.49150
 H1251 H 0.53658 -0.02194 0.50674
 H1252 H 0.52173 -0.03776 0.49172
 O1253 O 0.53624 0.51830 0.00086
 O1254 O 0.53185 0.51605 -0.02305
 O1255 O 0.50046 0.53682 0.01765
 O1256 O 0.47741 0.53294 0.01734
 O1257 O 0.51756 0.50105 0.03654
 O1258 O 0.51622 0.47673 0.03161
 O1259 O 0.46378 0.49892 -0.01874
 O1260 O 0.46736 0.52283 -0.01555
 O1261 O 0.49836 0.48190 -0.03610
 O1262 O 0.52351 0.48327 -0.03147
 O1263 O 0.48151 0.46410 -0.00153
 O1264 O 0.48267 0.46870 0.02353
 O1265 O 0.46376 0.48222 -0.00213
 O1266 O 0.46844 0.48426 0.02380
 O1267 O 0.49812 0.46403 -0.01815
 O1268 O 0.52388 0.46895 -0.01601
 O1269 O 0.48146 0.49827 -0.03602
 O1270 O 0.48625 0.52352 -0.03185
 O1271 O 0.53640 0.50142 0.01734
 O1272 O 0.53142 0.47662 0.01577
 O1273 O 0.50087 0.51766 0.03662
 O1274 O 0.47576 0.51509 0.03117
 O1275 O 0.51734 0.53680 0.00123
 O1276 O 0.51386 0.53157 -0.02381
 Zr1277 Zr 0.51631 0.51693 -0.00770
 O1278 O 0.50432 0.50452 -0.02097
 Zr1279 Zr 0.49206 0.51676 0.01672
 O1280 O 0.47885 0.50473 0.00427
 Zr1281 Zr 0.51648 0.49252 0.01656
 O1282 O 0.50419 0.47919 0.00448
 Zr1283 Zr 0.48337 0.50798 -0.01668
 O1284 O 0.49529 0.52151 -0.00429
 Zr1285 Zr 0.50760 0.48354 -0.01650
 O1286 O 0.52098 0.49590 -0.00441
 Zr1287 Zr 0.48318 0.48373 0.00767
 O1288 O 0.49548 0.49575 0.02124
 O1289 O 0.51285 0.51333 0.01313
 O1290 O 0.48673 0.48706 -0.01318
 C1291 C 0.54201 0.51146 0.01067
 C1292 C 0.51045 0.54251 0.01103
 C1293 C 0.51079 0.51092 0.04228
 C1294 C 0.45827 0.48870 -0.01234
 C1295 C 0.48806 0.48820 -0.04156
 C1296 C 0.48794 0.45855 -0.01169
 H1297 H 0.50646 0.50675 -0.03070
 H1298 H 0.50635 0.46947 0.00673
 H1299 H 0.51873 0.51923 0.01904
 H1300 H 0.46909 0.50699 0.00625
 H1301 H 0.47174 0.53162 -0.01266
 H1302 H 0.46995 0.53044 0.01083
 H1303 H 0.52187 0.46224 -0.00858
 H1304 H 0.53621 0.47757 0.00680
 H1305 H 0.47836 0.52301 -0.03836
 H1306 H 0.52126 0.53861 -0.02296
 H1307 H 0.49115 0.46307 0.02274
 H1308 H 0.50696 0.47703 0.03593
 H1309 H 0.53597 0.50670 -0.02254
 H1310 H 0.52249 0.49164 -0.03724
 H1311 H 0.47752 0.50665 0.03666
 H1312 H 0.46163 0.49155 0.02161
 O1313 O 0.78676 0.25101 0.48185
 O1314 O 0.78225 0.22708 0.48392
 O1315 O 0.75113 0.26808 0.46334
 O1316 O 0.72806 0.26783 0.46712
 O1317 O 0.76820 0.28674 0.49928
 O1318 O 0.76682 0.28169 0.52354
 O1319 O 0.71413 0.23179 0.50084
 O1320 O 0.71785 0.23496 0.47698
 O1321 O 0.74856 0.21410 0.51793
 O1322 O 0.77377 0.21853 0.51657
 O1323 O 0.73193 0.24868 0.53582
 O1324 O 0.73328 0.27381 0.53137
 O1325 O 0.71419 0.24833 0.51763
 O1326 O 0.71902 0.27420 0.51587
 O1327 O 0.74852 0.23201 0.53586
 O1328 O 0.77425 0.23395 0.53097
 O1329 O 0.73166 0.21434 0.50156
 O1330 O 0.73658 0.21848 0.47636
 O1331 O 0.78695 0.26743 0.49882
 O1332 O 0.78195 0.26578 0.52356
 O1333 O 0.75154 0.28697 0.48263
 O1334 O 0.72642 0.28163 0.48501
 O1335 O 0.76791 0.25155 0.46331
 O1336 O 0.76426 0.22648 0.46837
 Zr1337 Zr 0.76678 0.24253 0.48310
 O1338 O 0.75469 0.22926 0.49538
 Zr1339 Zr 0.74266 0.26709 0.48334
 O1340 O 0.72937 0.25467 0.49526
 Zr1341 Zr 0.76702 0.26670 0.50764
 O1342 O 0.75466 0.25463 0.52085
 Zr1343 Zr 0.73377 0.23369 0.49191
 O1344 O 0.74579 0.24607 0.47849
 Zr1345 Zr 0.75797 0.23363 0.51637
 O1346 O 0.77143 0.24571 0.50415
 Zr1347 Zr 0.73368 0.25798 0.51628
 O1348 O 0.74606 0.27153 0.50437
 O1349 O 0.76343 0.26338 0.48682
 O1350 O 0.73712 0.23710 0.51283
 C1351 C 0.79255 0.26078 0.48876
 C1352 C 0.76110 0.26143 0.45765
 C1353 C 0.76147 0.29256 0.48945
 C1354 C 0.70864 0.23821 0.51106
 C1355 C 0.73820 0.20873 0.51162
 C1356 C 0.73834 0.23849 0.54134
 H1357 H 0.75677 0.21952 0.49311
 H1358 H 0.75682 0.25683 0.53058
 H1359 H 0.76933 0.26930 0.48098
 H1360 H 0.71963 0.25673 0.49298
 H1361 H 0.72229 0.23782 0.46823
 H1362 H 0.72057 0.26134 0.46956
 H1363 H 0.77234 0.24144 0.53766
 H1364 H 0.78671 0.25678 0.52255
 H1365 H 0.72864 0.21203 0.47682
 H1366 H 0.77167 0.22732 0.46135
 H1367 H 0.74169 0.27288 0.53707
 H1368 H 0.75759 0.28608 0.52323
 H1369 H 0.78630 0.22748 0.49329
 H1370 H 0.77266 0.21274 0.50822
 H1371 H 0.72816 0.28706 0.49351
 H1372 H 0.71232 0.27219 0.50842
 O1373 O 0.76837 0.78675 -0.00099
 O1374 O 0.76622 0.78227 0.02288
 O1375 O 0.78659 0.75084 -0.01801
 O1376 O 0.78251 0.72783 -0.01796
 O1377 O 0.75092 0.76837 -0.03677
 O1378 O 0.72661 0.76710 -0.03181
 O1379 O 0.74865 0.71428 0.01817
 O1380 O 0.77254 0.71775 0.01505
 O1381 O 0.73189 0.74895 0.03581
 O1382 O 0.73349 0.77417 0.03130
 O1383 O 0.71390 0.73236 0.00120
 O1384 O 0.71837 0.73357 -0.02385
 O1385 O 0.73190 0.71445 0.00160
 O1386 O 0.73382 0.71925 -0.02428
 O1387 O 0.71400 0.74897 0.01788
 O1388 O 0.71909 0.77467 0.01593
 O1389 O 0.74809 0.73189 0.03561
 O1390 O 0.77335 0.73658 0.03145
 O1391 O 0.75142 0.78709 -0.01741
 O1392 O 0.72664 0.78225 -0.01590
 O1393 O 0.76740 0.75155 -0.03699
 O1394 O 0.76463 0.72637 -0.03166
 O1395 O 0.78674 0.76770 -0.00152
 O1396 O 0.78161 0.76416 0.02350
 Zr1397 Zr 0.76693 0.76678 0.00744
 O1398 O 0.75450 0.75482 0.02068
 Zr1399 Zr 0.76648 0.74263 -0.01713
 O1400 O 0.75443 0.72944 -0.00472
 Zr1401 Zr 0.74244 0.76721 -0.01678
 O1402 O 0.72910 0.75497 -0.00472
 Zr1403 Zr 0.75778 0.73384 0.01626
 O1404 O 0.77133 0.74572 0.00389
 Zr1405 Zr 0.73356 0.75828 0.01626
 O1406 O 0.74594 0.77162 0.00421
 Zr1407 Zr 0.73347 0.73392 -0.00805
 O1408 O 0.74550 0.74619 -0.02160
 O1409 O 0.76322 0.76344 -0.01341
 O1410 O 0.73690 0.73737 0.01282
 C1411 C 0.76150 0.79261 -0.01072
 C1412 C 0.79236 0.76078 -0.01136
 C1413 C 0.76071 0.76157 -0.04258
 C1414 C 0.73839 0.70886 0.01174
 C1415 C 0.73810 0.73857 0.04121
 C1416 C 0.70843 0.73883 0.01139
 H1417 H 0.75677 0.75691 0.03042
 H1418 H 0.71939 0.75721 -0.00694
 H1419 H 0.76914 0.76931 -0.01929
 H1420 H 0.75663 0.71967 -0.00676
 H1421 H 0.78134 0.72211 0.01219
 H1422 H 0.78012 0.72048 -0.01130
 H1423 H 0.71240 0.77280 0.00843
 H1424 H 0.72763 0.78700 -0.00689
 H1425 H 0.77279 0.72868 0.03793
 H1426 H 0.78869 0.77153 0.02267
 H1427 H 0.71285 0.74213 -0.02304
 H1428 H 0.72688 0.75786 -0.03621
 H1429 H 0.75690 0.78643 0.02246
 H1430 H 0.74179 0.77298 0.03714
 H1431 H 0.75623 0.72826 -0.03718
 H1432 H 0.74114 0.71243 -0.02221
 O1433 O 1.00073 0.21288 0.23189
 O1434 O 0.97685 0.21737 0.23401
 O1435 O 1.01769 0.24862 0.21335
 O1436 O 1.01739 0.27171 0.21719
 O1437 O 1.03652 0.23153 0.24910
 O1438 O 1.03161 0.23292 0.27340
 O1439 O 0.98144 0.28548 0.25116
 O1440 O 0.98453 0.28184 0.22727
 O1441 O 0.96398 0.25094 0.26822
 O1442 O 0.96848 0.22572 0.26675
 O1443 O 0.99861 0.26766 0.28599
 O1444 O 1.02367 0.26647 0.28137
 O1445 O 0.99804 0.28546 0.26787
 O1446 O 1.02391 0.28076 0.26590
 O1447 O 0.98198 0.25102 0.28606
 O1448 O 0.98394 0.22528 0.28107
 O1449 O 0.96408 0.26785 0.25188
 O1450 O 0.96815 0.26299 0.22664
 O1451 O 1.01722 0.21273 0.24877
 O1452 O 1.01576 0.21775 0.27351
 O1453 O 1.03665 0.24825 0.23253
 O1454 O 1.03124 0.27338 0.23503
 O1455 O 1.00123 0.23175 0.21336
 O1456 O 0.97620 0.23537 0.21850
 Zr1457 Zr 0.99227 0.23287 0.23318
 O1458 O 0.97904 0.24489 0.24557
 Zr1459 Zr 1.01676 0.25707 0.23337
 O1460 O 1.00436 0.27033 0.24539
 Zr1461 Zr 1.01654 0.23268 0.25761
 O1462 O 1.00450 0.24499 0.27091
 Zr1463 Zr 0.98339 0.26586 0.24214
 O1464 O 0.99574 0.25390 0.22861
 Zr1465 Zr 0.98352 0.24160 0.26653
 O1466 O 0.99556 0.22820 0.25420
 Zr1467 Zr 1.00777 0.26601 0.26637
 O1468 O 1.02130 0.25368 0.25437
 O1469 O 1.01312 0.23628 0.23681
 O1470 O 0.98690 0.26249 0.26303
 C1471 C 1.01051 0.20710 0.23876
 C1472 C 1.01107 0.23860 0.20767
 C1473 C 1.04228 0.23830 0.23927
 C1474 C 0.98786 0.29098 0.26138
 C1475 C 0.95854 0.26127 0.26195
 C1476 C 0.98848 0.26119 0.29155
 H1477 H 0.96930 0.24278 0.24334
 H1478 H 1.00676 0.24282 0.28062
 H1479 H 1.01901 0.23037 0.23094
 H1480 H 1.00637 0.28009 0.24313
 H1481 H 0.98737 0.27742 0.21849
 H1482 H 1.01087 0.27917 0.21966
 H1483 H 0.99146 0.22720 0.28772
 H1484 H 1.00677 0.21296 0.27257
 H1485 H 0.96167 0.27090 0.22715
 H1486 H 0.97703 0.22795 0.21146
 H1487 H 1.02285 0.25800 0.28701
 H1488 H 1.03599 0.24216 0.27307
 H1489 H 0.97728 0.21331 0.24338
 H1490 H 0.96263 0.22684 0.25846
 H1491 H 1.03671 0.27165 0.24349
 H1492 H 1.02180 0.28750 0.25852
 O1493 O 0.76784 0.96334 0.75105
 O1494 O 0.76563 0.96764 0.72712
 O1495 O 0.78643 0.99917 0.76776
 O1496 O 0.78266 1.02227 0.76724
 O1497 O 0.75063 0.98230 0.78668
 O1498 O 0.72634 0.98360 0.78173
 O1499 O 0.74870 1.03586 0.73133
 O1500 O 0.77259 1.03217 0.73444
 O1501 O 0.73150 1.00124 0.71402
 O1502 O 0.73288 0.97605 0.71865
 O1503 O 0.71383 1.01825 0.74849
 O1504 O 0.71844 1.01709 0.77362
 O1505 O 0.73201 1.03597 0.74793
 O1506 O 0.73392 1.03138 0.77381
 O1507 O 0.71369 1.00149 0.73196
 O1508 O 0.71859 0.97571 0.73416
 O1509 O 0.74787 1.01815 0.71406
 O1510 O 0.77309 1.01325 0.71811
 O1511 O 0.75098 0.96332 0.76755
 O1512 O 0.72623 0.96830 0.76595
 O1513 O 0.76726 0.99898 0.78670
 O1514 O 0.76486 1.02404 0.78117
 O1515 O 0.78638 0.98221 0.75139
 O1516 O 0.78117 0.98564 0.72631
 Zr1517 Zr 0.76654 0.98326 0.74243
 O1518 O 0.75415 0.99523 0.72913
 Zr1519 Zr 0.76643 1.00765 0.76676
 O1520 O 0.75442 1.02084 0.75430
 Zr1521 Zr 0.74213 0.98326 0.76668
 O1522 O 0.72884 0.99552 0.75458
 Zr1523 Zr 0.75765 1.01622 0.73336
 O1524 O 0.77116 1.00431 0.74576
 Zr1525 Zr 0.73318 0.99201 0.73361
 O1526 O 0.74550 0.97865 0.74573
 Zr1527 Zr 0.73342 1.01655 0.75773
 O1528 O 0.74542 1.00429 0.77131
 O1529 O 0.76293 0.98683 0.76325
 O1530 O 0.73675 1.01291 0.73689
 C1531 C 0.76099 0.95764 0.76090
 C1532 C 0.79209 0.98912 0.76119
 C1533 C 0.76049 0.98910 0.79239
 C1534 C 0.73852 1.04142 0.73773
 C1535 C 0.73777 1.01155 0.70855
 C1536 C 0.70825 1.01175 0.73837
 H1537 H 0.75636 0.99306 0.71940
 H1538 H 0.71912 0.99338 0.75684
 H1539 H 0.76880 0.98097 0.76919
 H1540 H 0.75671 1.03060 0.75626
 H1541 H 0.78135 1.02774 0.73728
 H1542 H 0.78012 1.02975 0.76078
 H1543 H 0.71191 0.97774 0.74160
 H1544 H 0.72718 0.96346 0.75699
 H1545 H 0.77259 1.02115 0.71161
 H1546 H 0.78820 0.97824 0.72719
 H1547 H 0.71268 1.00869 0.77274
 H1548 H 0.72664 0.99289 0.78601
 H1549 H 0.75626 0.96359 0.72759
 H1550 H 0.74122 0.97708 0.71284
 H1551 H 0.75637 1.02239 0.78661
 H1552 H 0.74136 1.03806 0.77172
 O1553 O 0.74934 0.53683 0.23187
 O1554 O 0.77323 0.53238 0.23404
 O1555 O 0.73240 0.50106 0.21332
 O1556 O 0.73273 0.47798 0.21713
 O1557 O 0.71359 0.51816 0.24910
 O1558 O 0.71857 0.51683 0.27341
 O1559 O 0.76866 0.46425 0.25107
 O1560 O 0.76560 0.46791 0.22718
 O1561 O 0.78617 0.49878 0.26825
 O1562 O 0.78169 0.52402 0.26674
 O1563 O 0.75156 0.48212 0.28593
 O1564 O 0.72648 0.48333 0.28131
 O1565 O 0.75208 0.46430 0.26779
 O1566 O 0.72623 0.46900 0.26586
 O1567 O 0.76816 0.49879 0.28604
 O1568 O 0.76624 0.52450 0.28105
 O1569 O 0.78605 0.48184 0.25190
 O1570 O 0.78201 0.48673 0.22665
 O1571 O 0.73286 0.53700 0.24874
 O1572 O 0.73439 0.53204 0.27348
 O1573 O 0.71346 0.50143 0.23250
 O1574 O 0.71889 0.47632 0.23496
 O1575 O 0.74886 0.51793 0.21334
 O1576 O 0.77391 0.51436 0.21850
 Zr1577 Zr 0.75783 0.51686 0.23317
 O1578 O 0.77109 0.50485 0.24555
 Zr1579 Zr 0.73336 0.49263 0.23333
 O1580 O 0.74578 0.47940 0.24534
 Zr1581 Zr 0.73359 0.51707 0.25759
 O1582 O 0.74565 0.50477 0.27088
 Zr1583 Zr 0.76675 0.48388 0.24210
 O1584 O 0.75438 0.49582 0.22859
 Zr1585 Zr 0.76663 0.50815 0.26651
 O1586 O 0.75456 0.52155 0.25419
 Zr1587 Zr 0.74238 0.48376 0.26632
 O1588 O 0.72884 0.49606 0.25433
 O1589 O 0.73699 0.51344 0.23679
 O1590 O 0.76324 0.48727 0.26300
 C1591 C 0.73954 0.54261 0.23873
 C1592 C 0.73902 0.51106 0.20764
 C1593 C 0.70782 0.51137 0.23926
 C1594 C 0.76223 0.45876 0.26127
 C1595 C 0.79159 0.48841 0.26200
 C1596 C 0.76168 0.48861 0.29150
 H1597 H 0.78083 0.50696 0.24333
 H1598 H 0.74340 0.50696 0.28059
 H1599 H 0.73108 0.51932 0.23092
 H1600 H 0.74376 0.46964 0.24306
 H1601 H 0.76275 0.47234 0.21841
 H1602 H 0.73925 0.47052 0.21961
 H1603 H 0.75870 0.52262 0.28768
 H1604 H 0.74337 0.53682 0.27254
 H1605 H 0.78848 0.47881 0.22717
 H1606 H 0.77307 0.52177 0.21148
 H1607 H 0.72736 0.49176 0.28701
 H1608 H 0.71419 0.50759 0.27307
 H1609 H 0.77282 0.53643 0.24342
 H1610 H 0.78757 0.52285 0.25848
 H1611 H 0.71343 0.47805 0.24343
 H1612 H 0.72830 0.46229 0.25843
 O1613 O 0.50082 0.21349 0.73146
 O1614 O 0.47692 0.21791 0.73370
 O1615 O 0.51773 0.24938 0.71327
 O1616 O 0.51755 0.27241 0.71730
 O1617 O 0.53652 0.23200 0.74898
 O1618 O 0.53151 0.23319 0.77329
 O1619 O 0.48156 0.28599 0.75118
 O1620 O 0.48466 0.28245 0.72728
 O1621 O 0.46394 0.25141 0.76804
 O1622 O 0.46841 0.22617 0.76645
 O1623 O 0.49853 0.26801 0.78596
 O1624 O 0.52360 0.26672 0.78148
 O1625 O 0.49813 0.28585 0.76793
 O1626 O 0.52401 0.28103 0.76602
 O1627 O 0.48186 0.25141 0.78590
 O1628 O 0.48385 0.22566 0.78083
 O1629 O 0.46414 0.26843 0.75181
 O1630 O 0.46822 0.26365 0.72656
 O1631 O 0.51727 0.21320 0.74838
 O1632 O 0.51563 0.21799 0.77318
 O1633 O 0.53669 0.24879 0.73248
 O1634 O 0.53132 0.27393 0.73516
 O1635 O 0.50124 0.23254 0.71312
 O1636 O 0.47620 0.23603 0.71832
 Zr1637 Zr 0.49230 0.23345 0.73296
 O1638 O 0.47906 0.24544 0.74539
 Zr1639 Zr 0.51682 0.25765 0.73336
 O1640 O 0.50442 0.27084 0.74543
 Zr1641 Zr 0.51652 0.23307 0.75742
 O1642 O 0.50447 0.24534 0.77078
 Zr1643 Zr 0.48345 0.26641 0.74208
 O1644 O 0.49581 0.25451 0.72853
 Zr1645 Zr 0.48348 0.24203 0.76635
 O1646 O 0.49553 0.22866 0.75396
 Zr1647 Zr 0.50778 0.26637 0.76639
 O1648 O 0.52131 0.25409 0.75434
 O1649 O 0.51314 0.23683 0.73665
 O1650 O 0.48692 0.26292 0.76297
 C1651 C 0.51062 0.20766 0.73827
 C1652 C 0.51108 0.23944 0.70750
 C1653 C 0.54230 0.23882 0.73919
 C1654 C 0.48799 0.29142 0.76144
 C1655 C 0.45856 0.26181 0.76183
 C1656 C 0.48833 0.26158 0.79144
 H1657 H 0.46932 0.24335 0.74313
 H1658 H 0.50669 0.24311 0.78049
 H1659 H 0.51904 0.23098 0.73072
 H1660 H 0.50646 0.28061 0.74323
 H1661 H 0.48748 0.27806 0.71848
 H1662 H 0.51098 0.27983 0.71977
 H1663 H 0.49132 0.22757 0.78753
 H1664 H 0.50663 0.21325 0.77217
 H1665 H 0.46177 0.27159 0.72710
 H1666 H 0.47704 0.22866 0.71123
 H1667 H 0.52272 0.25823 0.78708
 H1668 H 0.53588 0.24244 0.77306
 H1669 H 0.47736 0.21379 0.74304
 H1670 H 0.46262 0.22732 0.75812
 H1671 H 0.53681 0.27210 0.74359
 H1672 H 0.52192 0.28785 0.75871
 O1673 O 0.26835 0.78691 0.49897
 O1674 O 0.26622 0.78245 0.52288
 O1675 O 0.28674 0.75117 0.48195
 O1676 O 0.28289 0.72807 0.48228
 O1677 O 0.25092 0.76828 0.46326
 O1678 O 0.22665 0.76698 0.46827
 O1679 O 0.24900 0.71434 0.51828
 O1680 O 0.27289 0.71795 0.51513
 O1681 O 0.23204 0.74892 0.53585
 O1682 O 0.23346 0.77410 0.53137
 O1683 O 0.21417 0.73216 0.50128
 O1684 O 0.21868 0.73345 0.47616
 O1685 O 0.23226 0.71439 0.50169
 O1686 O 0.23414 0.71913 0.47583
 O1687 O 0.21416 0.74878 0.51794
 O1688 O 0.21913 0.77458 0.51588
 O1689 O 0.24833 0.73195 0.53567
 O1690 O 0.27356 0.73678 0.53155
 O1691 O 0.25142 0.78710 0.48252
 O1692 O 0.22665 0.78216 0.48416
 O1693 O 0.26749 0.75155 0.46308
 O1694 O 0.26501 0.72642 0.46846
 O1695 O 0.28681 0.76801 0.49844
 O1696 O 0.28171 0.76441 0.52351
 Zr1697 Zr 0.26701 0.76694 0.50746
 O1698 O 0.25464 0.75492 0.52071
 Zr1699 Zr 0.26672 0.74273 0.48296
 O1700 O 0.25472 0.72949 0.49537
 Zr1701 Zr 0.24251 0.76718 0.48327
 O1702 O 0.22922 0.75487 0.49533
 Zr1703 Zr 0.25804 0.73395 0.51634
 O1704 O 0.27154 0.74590 0.50397
 Zr1705 Zr 0.23367 0.75824 0.51630
 O1706 O 0.24598 0.77164 0.50425
 Zr1707 Zr 0.23373 0.73385 0.49202
 O1708 O 0.24571 0.74617 0.47848
 O1709 O 0.26330 0.76353 0.48663
 O1710 O 0.23714 0.73735 0.51288
 C1711 C 0.26149 0.79269 0.48918
 C1712 C 0.29246 0.76116 0.48857
 C1713 C 0.26073 0.76150 0.45748
 C1714 C 0.23877 0.70886 0.51185
 C1715 C 0.23829 0.73856 0.54125
 C1716 C 0.20867 0.73858 0.51147
 H1717 H 0.25690 0.75703 0.53045
 H1718 H 0.21950 0.75705 0.49310
 H1719 H 0.26917 0.76941 0.48071
 H1720 H 0.25697 0.71973 0.49334
 H1721 H 0.28167 0.72236 0.51228
 H1722 H 0.28041 0.72060 0.48878
 H1723 H 0.21237 0.77257 0.50848
 H1724 H 0.22766 0.78696 0.49314
 H1725 H 0.27305 0.72886 0.53802
 H1726 H 0.28876 0.77181 0.52266
 H1727 H 0.21297 0.74187 0.47710
 H1728 H 0.22691 0.75772 0.46392
 H1729 H 0.25688 0.78656 0.52244
 H1730 H 0.24184 0.77306 0.53711
 H1731 H 0.25654 0.72817 0.46301
 H1732 H 0.24153 0.71239 0.47789
 O1733 O 0.28696 0.25087 0.98194
 O1734 O 0.28262 0.22692 0.98410
 O1735 O 0.25112 0.26759 0.96344
 O1736 O 0.22807 0.26723 0.96731
 O1737 O 0.26823 0.28654 0.99920
 O1738 O 0.26685 0.28161 1.02351
 O1739 O 0.21451 0.23118 1.00117
 O1740 O 0.21815 0.23427 0.97729
 O1741 O 0.24914 0.21381 1.01825
 O1742 O 0.27433 0.21847 1.01679
 O1743 O 0.23226 0.24833 1.03603
 O1744 O 0.23341 0.27345 1.03152
 O1745 O 0.21448 0.24781 1.01789
 O1746 O 0.21914 0.27371 1.01602
 O1747 O 0.24896 0.23178 1.03610
 O1748 O 0.27467 0.23392 1.03117
 O1749 O 0.23219 0.21387 1.00192
 O1750 O 0.23702 0.21795 0.97669
 O1751 O 0.28707 0.26735 0.99885
 O1752 O 0.28212 0.26580 1.02360
 O1753 O 0.25152 0.28658 0.98259
 O1754 O 0.22641 0.28108 0.98515
 O1755 O 0.26805 0.25121 0.96344
 O1756 O 0.26460 0.22613 0.96859
 Zr1757 Zr 0.26704 0.24225 0.98326
 O1758 O 0.25508 0.22895 0.99563
 Zr1759 Zr 0.24274 0.26664 0.98347
 O1760 O 0.22957 0.25417 0.99547
 Zr1761 Zr 0.26716 0.26654 1.00770
 O1762 O 0.25492 0.25441 1.02099
 Zr1763 Zr 0.23412 0.23320 0.99219
 O1764 O 0.24601 0.24562 0.97869
 Zr1765 Zr 0.25838 0.23342 1.01659
 O1766 O 0.27172 0.24556 1.00428
 Zr1767 Zr 0.23391 0.25758 1.01646
 O1768 O 0.24615 0.27119 1.00448
 O1769 O 0.26354 0.26310 0.98691
 O1770 O 0.23749 0.23672 1.01309
 C1771 C 0.29270 0.26070 0.98880
 C1772 C 0.26114 0.26101 0.95775
 C1773 C 0.26145 0.29226 0.98933
 C1774 C 0.20899 0.23761 1.01137
 C1775 C 0.23881 0.20834 1.01198
 C1776 C 0.23875 0.23820 1.04158
 H1777 H 0.25724 0.21920 0.99339
 H1778 H 0.25709 0.25667 1.03071
 H1779 H 0.26940 0.26902 0.98102
 H1780 H 0.21981 0.25614 0.99320
 H1781 H 0.22255 0.23714 0.96852
 H1782 H 0.22066 0.26065 0.96977
 H1783 H 0.27270 0.24140 1.03786
 H1784 H 0.28691 0.25682 1.02265
 H1785 H 0.22914 0.21143 0.97721
 H1786 H 0.27199 0.22700 0.96155
 H1787 H 0.24186 0.27261 1.03720
 H1788 H 0.25759 0.28592 1.02320
 H1789 H 0.28669 0.22738 0.99347
 H1790 H 0.27321 0.21260 1.00850
 H1791 H 0.22817 0.28659 0.99359
 H1792 H 0.21244 0.27162 1.00859
 C1793 C 0.28691 0.41238 0.77022
 C1794 C 0.29821 0.41305 0.78154
 C1795 C 0.29037 0.40197 0.78976
 C1796 C 0.27917 0.40112 0.77854
 C1797 C 0.27870 0.42350 0.77801
 C1798 C 0.27087 0.41244 0.78624
 C1799 C 0.28990 0.42437 0.78923
 C1800 C 0.28217 0.41311 0.79755
 C1801 C 0.29677 0.38990 0.79625
 C1802 C 0.30195 0.37990 0.80155
 C1803 C 0.27233 0.43565 0.77164
 C1804 C 0.26741 0.44599 0.76677
 H1805 H 0.28877 0.41221 0.75891
 H1806 H 0.30952 0.41321 0.77971
 H1807 H 0.27484 0.39141 0.77423
 H1808 H 0.25956 0.41230 0.78809
 H1809 H 0.29424 0.43408 0.79355
 H1810 H 0.28032 0.41331 0.80886
 C1811 C 0.27971 -0.09152 0.27079
 C1812 C 0.29501 -0.09221 0.27543
 C1813 C 0.29037 -0.09858 0.28919
 C1814 C 0.27517 -0.09806 0.28466
 C1815 C 0.27855 -0.07715 0.27743
 C1816 C 0.27393 -0.08350 0.29120
 C1817 C 0.29376 -0.07765 0.28197
 C1818 C 0.28922 -0.08420 0.29583
 C1819 C 0.29686 -0.11056 0.29574
 C1820 C 0.30212 -0.12046 0.30112
 C1821 C 0.27214 -0.06503 0.27108
 C1822 C 0.26723 -0.05468 0.26625
 H1823 H 0.27572 -0.09440 0.26043
 H1824 H 0.30378 -0.09591 0.26904
 H1825 H 0.26762 -0.10661 0.28587
 H1826 H 0.26518 -0.07978 0.29761
 H1827 H 0.30132 -0.06911 0.28079
 H1828 H 0.29321 -0.08129 0.30619
 C1829 C 0.77590 0.91837 0.79227
 C1830 C 0.77283 0.90308 0.78860
 C1831 C 0.78843 0.90017 0.78853
 C1832 C 0.79159 0.91527 0.79231
 C1833 C 0.77674 0.92171 0.77678
 C1834 C 0.79235 0.91880 0.77673
 C1835 C 0.77358 0.90661 0.77300
 C1836 C 0.78929 0.90352 0.77305
 C1837 C 0.79495 0.88815 0.79505
 C1838 C 0.80030 0.87824 0.80035
 C1839 C 0.77047 0.93396 0.77047
 C1840 C 0.76578 0.94448 0.76574
 H1841 H 0.77032 0.92461 0.80011
 H1842 H 0.76489 0.89650 0.79359
 H1843 H 0.79905 0.91873 0.80030
 H1844 H 0.80031 0.92540 0.77178
 H1845 H 0.76612 0.90318 0.76500
 H1846 H 0.79490 0.89729 0.76523
 C1847 C 0.47946 0.84092 0.28092
 C1848 C 0.46651 0.84856 0.27544
 C1849 C 0.46046 0.84845 0.29011
 C1850 C 0.47330 0.84100 0.29569
 C1851 C 0.47221 0.82708 0.27814
 C1852 C 0.46615 0.82696 0.29281
 C1853 C 0.45935 0.83452 0.27258
 C1854 C 0.45321 0.83460 0.28734
 C1855 C 0.45397 0.86046 0.29664
 C1856 C 0.44867 0.87041 0.30189
 C1857 C 0.47858 0.81500 0.27164
 C1858 C 0.48345 0.80469 0.26667
 H1859 H 0.49031 0.84339 0.27820
 H1860 H 0.46656 0.85758 0.26838
 H1861 H 0.47894 0.84377 0.30529
 H1862 H 0.46608 0.81793 0.29989
 H1863 H 0.45369 0.83173 0.26300
 H1864 H 0.44236 0.83211 0.29008
 C1865 C -0.01978 0.84228 0.77925
 C1866 C -0.03297 0.84972 0.77404
 C1867 C -0.03863 0.84970 0.78887
 C1868 C -0.02555 0.84246 0.79418
 C1869 C -0.02693 0.82832 0.77681
 C1870 C -0.03260 0.82831 0.79164
 C1871 C -0.04003 0.83555 0.77152
 C1872 C -0.04578 0.83573 0.78644
 C1873 C -0.04515 0.86163 0.79554
 C1874 C -0.05052 0.87149 0.80095
 C1875 C -0.02067 0.81614 0.77037
 C1876 C -0.01597 0.80565 0.76556
 H1877 H -0.00904 0.84485 0.77621
 H1878 H -0.03322 0.85866 0.76688
 H1879 H -0.01970 0.84539 0.80359
 H1880 H -0.03238 0.81937 0.79882
 H1881 H -0.04591 0.83260 0.76213
 H1882 H -0.05652 0.83313 0.78949
 C1883 C -0.03750 -0.07690 -0.04017
 C1884 C -0.02966 -0.08890 -0.04727
 C1885 C -0.03902 -0.09924 -0.03971
 C1886 C -0.04696 -0.08742 -0.03271
 C1887 C -0.02733 -0.07769 -0.02800
 C1888 C -0.03670 -0.08801 -0.02045
 C1889 C -0.01939 -0.08950 -0.03502
 C1890 C -0.02885 -0.10003 -0.02755
 C1891 C -0.04550 -0.11129 -0.04615
 C1892 C -0.05080 -0.12126 -0.05136
 C1893 C -0.02103 -0.06550 -0.02167
 C1894 C -0.01624 -0.05509 -0.01683
 H1895 H -0.04098 -0.06724 -0.04527
 H1896 H -0.02688 -0.08938 -0.05838
 H1897 H -0.05837 -0.08667 -0.03187
 H1898 H -0.03951 -0.08752 -0.00935
 H1899 H -0.00798 -0.09022 -0.03588
 H1900 H -0.02538 -0.10969 -0.02246
 C1901 C -0.03040 0.42030 0.45769
 C1902 C -0.02462 0.40538 0.45791
 C1903 C -0.03913 0.40001 0.46144
 C1904 C -0.04500 0.41476 0.46112
 C1905 C -0.02736 0.42151 0.47323
 C1906 C -0.04188 0.41616 0.47674
 C1907 C -0.02149 0.40677 0.47354
 C1908 C -0.03611 0.40123 0.47697
 C1909 C -0.04562 0.38799 0.45488
 C1910 C -0.05088 0.37807 0.44948
 C1911 C -0.02102 0.43373 0.47954
 C1912 C -0.01624 0.44423 0.48424
 H1913 H -0.02798 0.42828 0.44982
 H1914 H -0.01762 0.40083 0.45005
 H1915 H -0.05472 0.41793 0.45594
 H1916 H -0.04891 0.42073 0.48457
 H1917 H -0.01176 0.40362 0.47872
 H1918 H -0.03857 0.39325 0.48483
 C1919 C 0.46179 -0.07585 0.45951
 C1920 C 0.46980 -0.08787 0.45261
 C1921 C 0.46024 -0.09821 0.45992
 C1922 C 0.45213 -0.08637 0.46671
 C1923 C 0.47164 -0.07664 0.47195
 C1924 C 0.46206 -0.08696 0.47924
 C1925 C 0.47975 -0.08846 0.46514
 C1926 C 0.47008 -0.09899 0.47235
 C1927 C 0.45389 -0.11032 0.45337
 C1928 C 0.44867 -0.12034 0.44810
 C1929 C 0.47784 -0.06446 0.47849
 C1930 C 0.48264 -0.05410 0.48349
 H1931 H 0.45845 -0.06620 0.45430
 H1932 H 0.47289 -0.08834 0.44159
 H1933 H 0.44070 -0.08561 0.46725
 H1934 H 0.45895 -0.08647 0.49026
 H1935 H 0.49117 -0.08920 0.46458
 H1936 H 0.47342 -0.10864 0.47755
 C1937 C 0.46344 0.42349 -0.04167
 C1938 C 0.47111 0.41026 -0.04640
 C1939 C 0.45975 0.40147 -0.03965
 C1940 C 0.45198 0.41452 -0.03503
 C1941 C 0.47149 0.42306 -0.02798
 C1942 C 0.46011 0.41429 -0.02125
 C1943 C 0.47926 0.41003 -0.03262
 C1944 C 0.46779 0.40105 -0.02598
 C1945 C 0.45332 0.38937 -0.04612
 C1946 C 0.44813 0.37935 -0.05141
 C1947 C 0.47787 0.43526 -0.02166
 C1948 C 0.48277 0.44564 -0.01681
 H1949 H 0.46172 0.43286 -0.04806
 H1950 H 0.47554 0.40851 -0.05682
 H1951 H 0.44070 0.41627 -0.03611
 H1952 H 0.45567 0.41607 -0.01084
 H1953 H 0.49054 0.40830 -0.03156
 H1954 H 0.46950 0.39169 -0.01959
 C1955 C 0.77271 0.33453 0.45983
 C1956 C 0.77385 0.34919 0.46618
 C1957 C 0.78906 0.34974 0.46169
 C1958 C 0.78801 0.33527 0.45524
 C1959 C 0.77734 0.32839 0.47370
 C1960 C 0.79255 0.32894 0.46920
 C1961 C 0.77840 0.34285 0.48016
 C1962 C 0.79371 0.34359 0.47556
 C1963 C 0.79553 0.36165 0.45502
 C1964 C 0.80081 0.37150 0.44955
 C1965 C 0.77105 0.31622 0.48007
 C1966 C 0.76632 0.30572 0.48477
 H1967 H 0.76400 0.33067 0.45344
 H1968 H 0.76625 0.35766 0.46483
 H1969 H 0.79204 0.33226 0.44493
 H1970 H 0.80017 0.32047 0.47052
 H1971 H 0.77437 0.34583 0.49047
 H1972 H 0.80245 0.34743 0.48192
 C1973 C 0.77270 0.83475 -0.04022
 C1974 C 0.77399 0.84933 -0.03372
 C1975 C 0.78915 0.84984 -0.03835
 C1976 C 0.78795 0.83544 -0.04494
 C1977 C 0.77742 0.82844 -0.02645
 C1978 C 0.79259 0.82894 -0.03110
 C1979 C 0.77863 0.84282 -0.01985
 C1980 C 0.79390 0.84352 -0.02460
 C1981 C 0.79561 0.86179 -0.04498
 C1982 C 0.80086 0.87166 -0.05042
 C1983 C 0.77111 0.81625 -0.02013
 C1984 C 0.76636 0.80576 -0.01544
 H1985 H 0.76390 0.83101 -0.04656
 H1986 H 0.76643 0.85787 -0.03491
 H1987 H 0.79187 0.83251 -0.05531
 H1988 H 0.80017 0.82041 -0.02994
 H1989 H 0.77473 0.84572 -0.00947
 H1990 H 0.80273 0.84723 -0.01829
 C1991 C 0.79174 0.27368 0.41678
 C1992 C 0.78613 0.27343 0.40180
 C1993 C 0.78922 0.28896 0.40061
 C1994 C 0.79494 0.28930 0.41540
 C1995 C 0.77718 0.27728 0.42195
 C1996 C 0.78030 0.29282 0.42077
 C1997 C 0.77146 0.27695 0.40717
 C1998 C 0.77468 0.29258 0.40579
 C1999 C 0.79584 0.29547 0.38867
 C2000 C 0.80119 0.30084 0.37881
 C2001 C 0.77072 0.27102 0.43410
 C2002 C 0.76592 0.26630 0.44455
 H2003 H 0.79868 0.26583 0.42143
 H2004 H 0.78864 0.26554 0.39386
 H2005 H 0.80466 0.29445 0.41868
 H2006 H 0.77783 0.30073 0.42871
 H2007 H 0.76175 0.27180 0.40391
 H2008 H 0.76776 0.30046 0.40116
 C2009 C 0.79075 0.77378 -0.08407
 C2010 C 0.78479 0.77371 -0.09893
 C2011 C 0.78800 0.78923 -0.10006
 C2012 C 0.79406 0.78939 -0.08540
 C2013 C 0.77635 0.77746 -0.07853
 C2014 C 0.77957 0.79298 -0.07966
 C2015 C 0.77029 0.77730 -0.09318
 C2016 C 0.77361 0.79292 -0.09451
 C2017 C 0.79450 0.79575 -0.11208
 C2018 C 0.79985 0.80104 -0.12199
 C2019 C 0.77012 0.77114 -0.06627
 C2020 C 0.76546 0.76641 -0.05574
 H2021 H 0.79774 0.76583 -0.07966
 H2022 H 0.78704 0.76586 -0.10698
 H2023 H 0.80388 0.79443 -0.08229
 H2024 H 0.77736 0.80085 -0.07161
 H2025 H 0.76046 0.77227 -0.09627
 H2026 H 0.76665 0.80090 -0.09891
 C2027 C 0.29132 0.47716 0.83364
 C2028 C 0.28448 0.47527 0.84798
 C2029 C 0.28991 0.46036 0.84839
 C2030 C 0.29684 0.46215 0.83423
 C2031 C 0.27802 0.47182 0.82681
 C2032 C 0.28346 0.45690 0.82721
 C2033 C 0.27109 0.47001 0.84095
 C2034 C 0.27663 0.45500 0.84154
 C2035 C 0.29644 0.45400 0.86048
 C2036 C 0.30172 0.44878 0.87048
 C2037 C 0.27157 0.47808 0.81463
 C2038 C 0.26663 0.48292 0.80428
 H2039 H 0.29729 0.48635 0.83026
 H2040 H 0.28500 0.48277 0.85665
 H2041 H 0.30750 0.45885 0.83157
 H2042 H 0.28297 0.44940 0.81853
 H2043 H 0.26044 0.47331 0.84359
 H2044 H 0.27068 0.44579 0.84490
 C2045 C 0.27365 -0.02604 0.34178
 C2046 C 0.27514 -0.04180 0.34419
 C2047 C 0.29031 -0.03956 0.34826
 C2048 C 0.28894 -0.02390 0.34603
 C2049 C 0.27830 -0.02811 0.32676
 C2050 C 0.29349 -0.02589 0.33082
 C2051 C 0.27970 -0.04377 0.32898
 C2052 C 0.29497 -0.04164 0.33324
 C2053 C 0.29689 -0.04592 0.36032
 C2054 C 0.30219 -0.05115 0.37029
 C2055 C 0.27179 -0.02187 0.31462
 C2056 C 0.26682 -0.01708 0.30427
 H2057 H 0.26482 -0.01956 0.34516
 H2058 H 0.26768 -0.04844 0.34981
 H2059 H 0.29284 -0.01581 0.35316
 H2060 H 0.30096 -0.01927 0.32518
 H2061 H 0.27583 -0.05188 0.32184
 H2062 H 0.30380 -0.04811 0.32983
 C2063 C -0.04102 -0.02333 -0.08407
 C2064 C -0.03391 -0.02565 -0.09821
 C2065 C -0.03973 -0.04042 -0.09852
 C2066 C -0.04694 -0.03820 -0.08456
 C2067 C -0.02803 -0.02890 -0.07685
 C2068 C -0.03386 -0.04368 -0.07715
 C2069 C -0.02083 -0.03114 -0.09080
 C2070 C -0.02676 -0.04601 -0.09130
 C2071 C -0.04619 -0.04675 -0.11068
 C2072 C -0.05146 -0.05187 -0.12075
 C2073 C -0.02168 -0.02259 -0.06464
 C2074 C -0.01680 -0.01771 -0.05427
 H2075 H -0.04681 -0.01392 -0.08097
 H2076 H -0.03402 -0.01830 -0.10700
 H2077 H -0.05773 -0.04118 -0.08210
 H2078 H -0.03377 -0.05103 -0.06835
 H2079 H -0.01004 -0.02816 -0.09324
 H2080 H -0.02098 -0.05543 -0.09438
 C2081 C -0.02435 0.45761 0.41703
 C2082 C -0.04010 0.45533 0.41537
 C2083 C -0.03913 0.46068 0.40047
 C2084 C -0.02348 0.46286 0.40195
 C2085 C -0.02715 0.47249 0.42184
 C2086 C -0.02619 0.47784 0.40695
 C2087 C -0.04281 0.47029 0.42037
 C2088 C -0.04195 0.47555 0.40528
 C2089 C -0.04576 0.45410 0.38853
 C2090 C -0.05114 0.44870 0.37868
 C2091 C -0.02073 0.47883 0.43400
 C2092 C -0.01591 0.48358 0.44446
 H2093 H -0.01705 0.45030 0.42199
 H2094 H -0.04589 0.44602 0.41873
 H2095 H -0.01561 0.45970 0.39424
 H2096 H -0.02040 0.48716 0.40361
 H2097 H -0.05070 0.47342 0.42808
 H2098 H -0.04929 0.48284 0.40035
 C2099 C 0.47888 -0.02936 0.40888
 C2100 C 0.47424 -0.04468 0.40818
 C2101 C 0.46049 -0.04004 0.40177
 C2102 C 0.46502 -0.02483 0.40229
 C2103 C 0.47222 -0.02817 0.42321
 C2104 C 0.45846 -0.02355 0.41682
 C2105 C 0.46767 -0.04338 0.42271
 C2106 C 0.45382 -0.03885 0.41611
 C2107 C 0.45399 -0.04653 0.38974
 C2108 C 0.44868 -0.05176 0.37977
 C2109 C 0.47855 -0.02172 0.43534
 C2110 C 0.48338 -0.01678 0.44569
 H2111 H 0.48925 -0.02539 0.40604
 H2112 H 0.48063 -0.05347 0.40452
 H2113 H 0.46384 -0.01728 0.39375
 H2114 H 0.45204 -0.01478 0.42050
 H2115 H 0.46883 -0.05094 0.43125
 H2116 H 0.44346 -0.04284 0.41898
 C2117 C 0.46941 0.45615 -0.07855
 C2118 C 0.45442 0.45891 -0.08338
 C2119 C 0.45965 0.46012 -0.09830
 C2120 C 0.47455 0.45726 -0.09365
 C2121 C 0.47158 0.47180 -0.07687
 C2122 C 0.47681 0.47300 -0.09178
 C2123 C 0.45668 0.47465 -0.08150
 C2124 C 0.46181 0.47576 -0.09661
 C2125 C 0.45311 0.45366 -0.11031
 C2126 C 0.44784 0.44836 -0.12026
 C2127 C 0.47803 0.47812 -0.06476
 C2128 C 0.48293 0.48299 -0.05442
 H2129 H 0.47262 0.44816 -0.07098
 H2130 H 0.44514 0.45305 -0.08004
 H2131 H 0.48180 0.45001 -0.09878
 H2132 H 0.48608 0.47887 -0.09510
 H2133 H 0.44941 0.48188 -0.07637
 H2134 H 0.45857 0.48375 -0.10417
 C2135 C 0.47743 0.79237 0.33336
 C2136 C 0.46239 0.79781 0.33398
 C2137 C 0.46067 0.79086 0.34814
 C2138 C 0.47560 0.78552 0.34770
 C2139 C 0.47216 0.77903 0.32654
 C2140 C 0.47042 0.77208 0.34069
 C2141 C 0.45722 0.78437 0.32696
 C2142 C 0.45539 0.77753 0.34130
 C2143 C 0.45430 0.79732 0.36026
 C2144 C 0.44907 0.80251 0.37030
 C2145 C 0.47842 0.77257 0.31437
 C2146 C 0.48325 0.76759 0.30403
 H2147 H 0.48657 0.79840 0.32996
 H2148 H 0.45903 0.80845 0.33132
 H2149 H 0.48310 0.78609 0.35636
 H2150 H 0.47379 0.76144 0.34332
 H2151 H 0.44972 0.78383 0.31830
 H2152 H 0.44623 0.77151 0.34468
 C2153 C -0.02015 0.77708 0.84287
 C2154 C -0.02377 0.79264 0.84403
 C2155 C -0.03812 0.78872 0.84953
 C2156 C -0.03462 0.77326 0.84856
 C2157 C -0.02615 0.77696 0.82819
 C2158 C -0.04051 0.77305 0.83368
 C2159 C -0.02967 0.79242 0.82916
 C2160 C -0.04411 0.78860 0.83484
 C2161 C -0.04479 0.79522 0.86142
 C2162 C -0.05026 0.80053 0.87124
 C2163 C -0.01980 0.77068 0.81601
 C2164 C -0.01513 0.76599 0.80549
 H2165 H -0.01024 0.77227 0.84603
 H2166 H -0.01700 0.80081 0.84840
 H2167 H -0.03677 0.76547 0.85669
 H2168 H -0.04730 0.76492 0.82930
 H2169 H -0.02755 0.80023 0.82103
 H2170 H -0.05401 0.79342 0.83165
 C2171 C 0.40851 0.77680 0.27279
 C2172 C 0.40374 0.77444 0.28788
 C2173 C 0.40194 0.79012 0.28959
 C2174 C 0.40652 0.79259 0.27461
 C2175 C 0.42342 0.77828 0.27796
 C2176 C 0.42164 0.79397 0.27968
 C2177 C 0.41885 0.77583 0.29295
 C2178 C 0.41687 0.79161 0.29476
 C2179 C 0.38991 0.79661 0.29606
 C2180 C 0.37996 0.80184 0.30138
 C2181 C 0.43555 0.77183 0.27167
 C2182 C 0.44590 0.76690 0.26686
 H2183 H 0.40520 0.77064 0.26369
 H2184 H 0.39624 0.76649 0.29135
 H2185 H 0.40134 0.79959 0.26716
 H2186 H 0.42915 0.80193 0.27624
 H2187 H 0.42406 0.76887 0.30042
 H2188 H 0.42020 0.79778 0.30384
 C2189 C -0.09323 0.77390 0.77287
 C2190 C -0.09698 0.77308 0.78841
 C2191 C -0.09970 0.78873 0.78843
 C2192 C -0.09613 0.78966 0.77300
 C2193 C -0.07817 0.77685 0.77687
 C2194 C -0.08088 0.79250 0.77692
 C2195 C -0.08173 0.77593 0.79231
 C2196 C -0.08463 0.79167 0.79244
 C2197 C -0.11171 0.79533 0.79486
 C2198 C -0.12162 0.80072 0.80013
 C2199 C -0.06592 0.77050 0.77065
 C2200 C -0.05540 0.76579 0.76596
 H2201 H -0.09663 0.76653 0.76477
 H2202 H -0.10373 0.76517 0.79324
 H2203 H -0.10216 0.79542 0.76514
 H2204 H -0.07411 0.80042 0.77212
 H2205 H -0.07567 0.77021 0.80019
 H2206 H -0.08119 0.79904 0.80054
 C2207 C 0.84324 0.27596 0.47875
 C2208 C 0.84850 0.27304 0.46391
 C2209 C 0.84990 0.28868 0.46153
 C2210 C 0.84483 0.29170 0.47626
 C2211 C 0.82844 0.27673 0.47313
 C2212 C 0.82983 0.29238 0.47073
 C2213 C 0.83349 0.27373 0.45839
 C2214 C 0.83508 0.28946 0.45591
 C2215 C 0.86188 0.29528 0.45507
 C2216 C 0.87177 0.30062 0.44974
 C2217 C 0.81622 0.27034 0.47934
 C2218 C 0.80571 0.26559 0.48400
 H2219 H 0.84647 0.27033 0.48820
 H2220 H 0.85631 0.26517 0.46100
 H2221 H 0.84960 0.29920 0.48352
 H2222 H 0.82202 0.30026 0.47361
 H2223 H 0.82871 0.26627 0.45110
 H2224 H 0.83183 0.29509 0.44647
 C2225 C 0.84302 0.77574 -0.02167
 C2226 C 0.84822 0.77267 -0.03649
 C2227 C 0.84957 0.78828 -0.03905
 C2228 C 0.84455 0.79146 -0.02434
 C2229 C 0.82819 0.77643 -0.02725
 C2230 C 0.82954 0.79204 -0.02982
 C2231 C 0.83319 0.77326 -0.04197
 C2232 C 0.83473 0.78897 -0.04463
 C2233 C 0.86149 0.79485 -0.04559
 C2234 C 0.87134 0.80022 -0.05094
 C2235 C 0.81602 0.77011 -0.02092
 C2236 C 0.80552 0.76545 -0.01619
 H2237 H 0.84628 0.77023 -0.01217
 H2238 H 0.85603 0.76478 -0.03935
 H2239 H 0.84934 0.79906 -0.01719
 H2240 H 0.82171 0.79994 -0.02700
 H2241 H 0.82838 0.76570 -0.04914
 H2242 H 0.83144 0.79448 -0.05412
 C2243 C -0.09116 -0.02143 -0.02895
 C2244 C -0.09211 -0.02605 -0.04425
 C2245 C -0.09849 -0.03980 -0.03955
 C2246 C -0.09773 -0.03529 -0.02435
 C2247 C -0.07684 -0.02815 -0.02801
 C2248 C -0.08320 -0.04191 -0.02332
 C2249 C -0.07759 -0.03268 -0.04321
 C2250 C -0.08416 -0.04652 -0.03862
 C2251 C -0.11062 -0.04616 -0.04594
 C2252 C -0.12067 -0.05130 -0.05118
 C2253 C -0.06461 -0.02183 -0.02177
 C2254 C -0.05419 -0.01700 -0.01700
 H2255 H -0.09391 -0.01105 -0.02491
 H2256 H -0.09590 -0.01963 -0.05296
 H2257 H -0.10615 -0.03647 -0.01667
 H2258 H -0.07939 -0.04835 -0.01464
 H2259 H -0.06916 -0.03153 -0.05090
 H2260 H -0.08139 -0.05690 -0.04266
 C2261 C -0.09256 0.48020 0.47140
 C2262 C -0.09297 0.47476 0.45634
 C2263 C -0.09974 0.46137 0.46151
 C2264 C -0.09953 0.46669 0.47646
 C2265 C -0.07840 0.47335 0.47329
 C2266 C -0.08515 0.45994 0.47844
 C2267 C -0.07861 0.46801 0.45833
 C2268 C -0.08556 0.45452 0.46339
 C2269 C -0.11164 0.45475 0.45493
 C2270 C -0.12146 0.44938 0.44951
 C2271 C -0.06621 0.47972 0.47956
 C2272 C -0.05568 0.48443 0.48421
 H2273 H -0.09531 0.49081 0.47476
 H2274 H -0.09630 0.48074 0.44715
 H2275 H -0.10827 0.46603 0.48383
 H2276 H -0.08181 0.45394 0.48761
 H2277 H -0.06987 0.46863 0.45094
 H2278 H -0.08279 0.44391 0.46002
 C2279 C 0.41638 -0.04124 0.47622
 C2280 C 0.40201 -0.03439 0.47456
 C2281 C 0.40160 -0.03934 0.45948
 C2282 C 0.41578 -0.04629 0.46105
 C2283 C 0.42314 -0.02774 0.47133
 C2284 C 0.42274 -0.03270 0.45624
 C2285 C 0.40897 -0.02080 0.46975
 C2286 C 0.40838 -0.02586 0.45457
 C2287 C 0.38954 -0.04580 0.45299
 C2288 C 0.37956 -0.05111 0.44776
 C2289 C 0.43530 -0.02146 0.47778
 C2290 C 0.44564 -0.01663 0.48275
 H2291 H 0.41979 -0.04749 0.48520
 H2292 H 0.39335 -0.03518 0.48202
 H2293 H 0.41848 -0.05682 0.45739
 H2294 H 0.43141 -0.03194 0.44878
 H2295 H 0.40630 -0.01026 0.47341
 H2296 H 0.40497 -0.01962 0.44557
 C2297 C 0.42199 0.45690 -0.03278
 C2298 C 0.40733 0.45629 -0.02642
 C2299 C 0.40125 0.46057 -0.04044
 C2300 C 0.41573 0.46107 -0.04691
 C2301 C 0.42286 0.47227 -0.02880
 C2302 C 0.41681 0.47653 -0.04284
 C2303 C 0.40839 0.47175 -0.02235
 C2304 C 0.40214 0.47592 -0.03648
 C2305 C 0.38914 0.45408 -0.04684
 C2306 C 0.37914 0.44877 -0.05203
 C2307 C 0.43505 0.47863 -0.02245
 C2308 C 0.44541 0.48352 -0.01755
 H2309 H 0.43028 0.44915 -0.03120
 H2310 H 0.40331 0.44787 -0.01975
 H2311 H 0.41865 0.45662 -0.05706
 H2312 H 0.42084 0.48492 -0.04952
 H2313 H 0.40550 0.47620 -0.01219
 H2314 H 0.39385 0.48367 -0.03809
 C2315 C 0.34099 0.47066 0.77158
 C2316 C 0.34792 0.47558 0.78515
 C2317 C 0.34813 0.46055 0.79025
 C2318 C 0.34139 0.45553 0.77679
 C2319 C 0.32680 0.47245 0.77841
 C2320 C 0.32701 0.45742 0.78353
 C2321 C 0.33353 0.47746 0.79189
 C2322 C 0.33394 0.46233 0.79709
 C2323 C 0.36010 0.45396 0.79672
 C2324 C 0.37003 0.44859 0.80193
 C2325 C 0.31474 0.47888 0.77196
 C2326 C 0.30444 0.48376 0.76701
 H2327 H 0.34376 0.47417 0.76103
 H2328 H 0.35665 0.48297 0.78593
 H2329 H 0.34473 0.44642 0.77068
 H2330 H 0.31827 0.45002 0.78278
 H2331 H 0.33016 0.48656 0.79802
 H2332 H 0.33115 0.45883 0.80764
 C2333 C 0.32752 -0.03180 0.29386
 C2334 C 0.33336 -0.04622 0.29007
 C2335 C 0.34799 -0.04008 0.29020
 C2336 C 0.34234 -0.02577 0.29410
 C2337 C 0.32656 -0.02832 0.27841
 C2338 C 0.34118 -0.02220 0.27855
 C2339 C 0.33219 -0.04265 0.27453
 C2340 C 0.34701 -0.03662 0.27475
 C2341 C 0.36001 -0.04655 0.29669
 C2342 C 0.36997 -0.05181 0.30196
 C2343 C 0.31446 -0.02195 0.27200
 C2344 C 0.30415 -0.01707 0.26706
 H2345 H 0.31936 -0.02974 0.30164
 H2346 H 0.33025 -0.05615 0.29488
 H2347 H 0.34663 -0.01892 0.30225
 H2348 H 0.34426 -0.01226 0.27373
 H2349 H 0.32788 -0.04950 0.26640
 H2350 H 0.35516 -0.03870 0.26697
 C2351 C 0.16638 0.52298 0.70874
 C2352 C 0.15156 0.52356 0.71472
 C2353 C 0.15080 0.53894 0.71084
 C2354 C 0.16543 0.53845 0.70475
 C2355 C 0.17206 0.52718 0.72296
 C2356 C 0.17131 0.54256 0.71906
 C2357 C 0.15744 0.52767 0.72905
 C2358 C 0.15650 0.54315 0.72505
 C2359 C 0.13891 0.54548 0.70415
 C2360 C 0.12909 0.55086 0.69874
 C2361 C 0.18418 0.52086 0.72944
 C2362 C 0.19462 0.51612 0.73425
 H2363 H 0.17058 0.51462 0.70211
 H2364 H 0.14330 0.51583 0.71283
 H2365 H 0.16861 0.54296 0.69471
 H2366 H 0.17957 0.55030 0.72092
 H2367 H 0.15428 0.52317 0.73910
 H2368 H 0.15232 0.55155 0.73165
 C2369 C 0.16333 0.03821 0.22957
 C2370 C 0.16348 0.04535 0.21527
 C2371 C 0.15008 0.03772 0.21151
 C2372 C 0.14975 0.03067 0.22572
 C2373 C 0.17153 0.02609 0.22343
 C2374 C 0.15815 0.01845 0.21966
 C2375 C 0.17186 0.03315 0.20921
 C2376 C 0.15829 0.02561 0.20535
 C2377 C 0.13812 0.04421 0.20495
 C2378 C 0.12824 0.04956 0.19962
 C2379 C 0.18375 0.01990 0.22979
 C2380 C 0.19428 0.01528 0.23451
 H2381 H 0.16554 0.04331 0.23961
 H2382 H 0.16557 0.05647 0.21336
 H2383 H 0.14050 0.02974 0.23242
 H2384 H 0.15609 0.00733 0.22155
 H2385 H 0.18110 0.03410 0.20250
 H2386 H 0.15611 0.02054 0.19529
 C2387 C 0.59112 0.71793 0.23086
 C2388 C 0.59064 0.70455 0.22207
 C2389 C 0.59972 0.71160 0.21114
 C2390 C 0.60039 0.72489 0.21982
 C2391 C 0.57832 0.72324 0.22315
 C2392 C 0.58738 0.73028 0.21221
 C2393 C 0.57765 0.70994 0.21447
 C2394 C 0.58690 0.71689 0.20344
 C2395 C 0.61166 0.70511 0.20451
 C2396 C 0.62152 0.69976 0.19914
 C2397 C 0.56613 0.72946 0.22957
 C2398 C 0.55564 0.73414 0.23434
 H2399 H 0.59273 0.71844 0.24219
 H2400 H 0.59208 0.69388 0.22601
 H2401 H 0.60989 0.73096 0.22192
 H2402 H 0.58591 0.74094 0.20824
 H2403 H 0.56816 0.70385 0.21234
 H2404 H 0.58526 0.71637 0.19210
 C2405 C 0.07979 0.72171 0.70658
 C2406 C 0.09504 0.72557 0.70947
 C2407 C 0.09853 0.71012 0.71054
 C2408 C 0.08346 0.70617 0.70755
 C2409 C 0.07701 0.72188 0.72221
 C2410 C 0.08048 0.70642 0.72326
 C2411 C 0.09208 0.72583 0.72519
 C2412 C 0.09575 0.71027 0.72616
 C2413 C 0.11058 0.70366 0.70405
 C2414 C 0.12054 0.69844 0.69871
 C2415 C 0.06484 0.72829 0.72850
 C2416 C 0.05447 0.73319 0.73330
 H2417 H 0.07308 0.72649 0.69861
 H2418 H 0.10115 0.73336 0.70369
 H2419 H 0.08001 0.69802 0.70024
 H2420 H 0.07436 0.69862 0.72901
 H2421 H 0.09550 0.73398 0.73251
 H2422 H 0.10244 0.70546 0.73413
 C2423 C 0.65895 0.22893 0.52877
 C2424 C 0.65203 0.21531 0.52393
 C2425 C 0.65154 0.21041 0.53901
 C2426 C 0.65827 0.22393 0.54395
 C2427 C 0.67313 0.22199 0.52731
 C2428 C 0.67265 0.21709 0.54240
 C2429 C 0.66642 0.20847 0.52239
 C2430 C 0.66573 0.20348 0.53757
 C2431 C 0.63944 0.20405 0.54548
 C2432 C 0.62942 0.19890 0.55075
 C2433 C 0.68533 0.22828 0.52097
 C2434 C 0.69572 0.23310 0.51613
 H2435 H 0.65629 0.23945 0.52508
 H2436 H 0.64342 0.21447 0.51641
 H2437 H 0.65481 0.23019 0.55291
 H2438 H 0.68127 0.21790 0.54992
 H2439 H 0.66990 0.20219 0.51345
 H2440 H 0.66842 0.19296 0.54127
 C2441 C 0.65923 0.71979 0.02043
 C2442 C 0.65900 0.70518 0.02696
 C2443 C 0.65139 0.71114 0.03955
 C2444 C 0.65144 0.72565 0.03312
 C2445 C 0.67297 0.72269 0.02780
 C2446 C 0.66539 0.72863 0.04040
 C2447 C 0.67294 0.70817 0.03424
 C2448 C 0.66514 0.71402 0.04693
 C2449 C 0.63928 0.70475 0.04595
 C2450 C 0.62924 0.69951 0.05110
 C2451 C 0.68515 0.72895 0.02141
 C2452 C 0.69553 0.73375 0.01653
 H2453 H 0.65693 0.72224 0.00947
 H2454 H 0.65626 0.69545 0.02154
 H2455 H 0.64247 0.73277 0.03276
 H2456 H 0.66815 0.73835 0.04585
 H2457 H 0.68192 0.70104 0.03463
 H2458 H 0.66747 0.71156 0.05788
 C2459 C 0.08646 0.03849 0.02088
 C2460 C 0.08620 0.04586 0.03509
 C2461 C 0.09957 0.03830 0.03905
 C2462 C 0.10002 0.03102 0.02495
 C2463 C 0.07822 0.02646 0.02712
 C2464 C 0.09157 0.01889 0.03111
 C2465 C 0.07777 0.03375 0.04124
 C2466 C 0.09131 0.02628 0.04531
 C2467 C 0.11149 0.04490 0.04562
 C2468 C 0.12135 0.05031 0.05094
 C2469 C 0.06607 0.02015 0.02071
 C2470 C 0.05561 0.01544 0.01590
 H2471 H 0.08434 0.04343 0.01076
 H2472 H 0.08409 0.05701 0.03682
 H2473 H 0.10932 0.03000 0.01834
 H2474 H 0.09365 0.00774 0.02939
 H2475 H 0.06847 0.03478 0.04786
 H2476 H 0.09341 0.02137 0.05546
 C2477 C 0.08356 0.54157 0.52313
 C2478 C 0.08409 0.54685 0.53824
 C2479 C 0.09821 0.53983 0.54001
 C2480 C 0.09787 0.53465 0.52500
 C2481 C 0.07668 0.52819 0.52819
 C2482 C 0.09078 0.52118 0.52997
 C2483 C 0.07700 0.53338 0.54319
 C2484 C 0.09131 0.52647 0.54507
 C2485 C 0.11032 0.54625 0.54646
 C2486 C 0.12035 0.55149 0.55165
 C2487 C 0.06454 0.52186 0.52174
 C2488 C 0.05422 0.51695 0.51680
 H2489 H 0.08025 0.54771 0.51404
 H2490 H 0.08145 0.55746 0.54172
 H2491 H 0.10659 0.53526 0.51760
 H2492 H 0.09340 0.51057 0.52650
 H2493 H 0.06828 0.53279 0.55061
 H2494 H 0.09459 0.52035 0.55419
 C2495 C 0.57754 0.03441 0.54097
 C2496 C 0.59132 0.02719 0.54465
 C2497 C 0.59917 0.03959 0.53863
 C2498 C 0.58556 0.04691 0.53506
 C2499 C 0.57797 0.02753 0.52666
 C2500 C 0.58581 0.03994 0.52065
 C2501 C 0.59157 0.02021 0.53025
 C2502 C 0.59961 0.03272 0.52432
 C2503 C 0.61100 0.04625 0.54530
 C2504 C 0.62079 0.05164 0.55079
 C2505 C 0.56586 0.02108 0.52030
 C2506 C 0.55539 0.01628 0.51559
 H2507 H 0.56831 0.03503 0.54776
 H2508 H 0.59369 0.02206 0.55463
 H2509 H 0.58320 0.05795 0.53712
 H2510 H 0.58342 0.04510 0.51070
 H2511 H 0.59391 0.00917 0.52819
 H2512 H 0.60884 0.03214 0.51755
 C2513 C 0.58029 0.52827 0.04207
 C2514 C 0.59552 0.52397 0.03977
 C2515 C 0.59939 0.53928 0.03811
 C2516 C 0.58434 0.54368 0.04050
 C2517 C 0.57790 0.52744 0.02639
 C2518 C 0.58175 0.54276 0.02474
 C2519 C 0.59294 0.52304 0.02400
 C2520 C 0.59699 0.53847 0.02244
 C2521 C 0.61139 0.54579 0.04465
 C2522 C 0.62129 0.55108 0.05006
 C2523 C 0.56566 0.52107 0.02014
 C2524 C 0.55516 0.51631 0.01546
 H2525 H 0.57329 0.52401 0.05008
 H2526 H 0.60130 0.51633 0.04606
 H2527 H 0.58091 0.55222 0.04734
 H2528 H 0.57595 0.55042 0.01849
 H2529 H 0.59635 0.51450 0.01715
 H2530 H 0.60398 0.54277 0.01445
 C2531 C 0.03176 0.04065 0.07893
 C2532 C 0.02508 0.04217 0.09337
 C2533 C 0.03868 0.03733 0.09994
 C2534 C 0.04546 0.03591 0.08568
 C2535 C 0.02693 0.02551 0.07849
 C2536 C 0.04055 0.02069 0.08505
 C2537 C 0.02015 0.02694 0.09274
 C2538 C 0.03387 0.02221 0.09951
 C2539 C 0.04519 0.04392 0.11190
 C2540 C 0.05048 0.04933 0.12177
 C2541 C 0.02067 0.01924 0.06624
 C2542 C 0.01600 0.01460 0.05569
 H2543 H 0.03082 0.04816 0.07032
 H2544 H 0.01883 0.05111 0.09691
 H2545 H 0.05592 0.03968 0.08289
 H2546 H 0.04682 0.01177 0.08150
 H2547 H 0.00969 0.02318 0.09551
 H2548 H 0.03484 0.01471 0.10812
 C2549 C 0.02212 0.52814 0.59114
 C2550 C 0.03626 0.52400 0.59740
 C2551 C 0.04023 0.53936 0.59818
 C2552 C 0.02620 0.54360 0.59210
 C2553 C 0.02857 0.52750 0.57668
 C2554 C 0.03256 0.54287 0.57744
 C2555 C 0.04261 0.52327 0.58274
 C2556 C 0.04668 0.53873 0.58370
 C2557 C 0.04665 0.54589 0.61023
 C2558 C 0.05184 0.55121 0.62022
 C2559 C 0.02224 0.52107 0.56453
 C2560 C 0.01736 0.51616 0.55419
 H2561 H 0.01196 0.52372 0.59407
 H2562 H 0.03787 0.51632 0.60575
 H2563 H 0.01955 0.55206 0.59606
 H2564 H 0.03096 0.55056 0.56908
 H2565 H 0.04928 0.51484 0.57876
 H2566 H 0.05683 0.54316 0.58074
 C2567 C 0.53828 0.02090 0.58712
 C2568 C 0.54642 0.03468 0.58674
 C2569 C 0.53859 0.03950 0.59968
 C2570 C 0.53055 0.02581 0.60024
 C2571 C 0.52695 0.02751 0.57821
 C2572 C 0.51912 0.03234 0.59113
 C2573 C 0.53500 0.04121 0.57764
 C2574 C 0.52727 0.04613 0.59075
 C2575 C 0.54508 0.04609 0.61169
 C2576 C 0.55043 0.05142 0.62161
 C2577 C 0.52069 0.02107 0.56600
 C2578 C 0.51596 0.01625 0.55553
 H2579 H 0.54275 0.01046 0.58552
 H2580 H 0.55770 0.03575 0.58503
 H2581 H 0.52880 0.01956 0.60968
 H2582 H 0.50783 0.03130 0.59281
 H2583 H 0.53677 0.04748 0.56821
 H2584 H 0.52284 0.05659 0.59233
 C2585 C 0.54005 0.52181 0.08491
 C2586 C 0.54532 0.53692 0.08536
 C2587 C 0.53842 0.53874 0.09952
 C2588 C 0.53325 0.52373 0.09926
 C2589 C 0.52663 0.52685 0.07811
 C2590 C 0.51973 0.52868 0.09226
 C2591 C 0.53182 0.54187 0.07836
 C2592 C 0.52502 0.54380 0.09271
 C2593 C 0.54499 0.54529 0.11148
 C2594 C 0.55036 0.55061 0.12137
 C2595 C 0.52032 0.52048 0.06592
 C2596 C 0.51560 0.51572 0.05543
 H2597 H 0.54615 0.51269 0.08158
 H2598 H 0.55590 0.54039 0.08262
 H2599 H 0.53393 0.51635 0.10800
 H2600 H 0.50914 0.52522 0.09497
 H2601 H 0.53116 0.54926 0.06963
 H2602 H 0.51894 0.55294 0.09602
 C2603 C 0.22916 0.52773 0.65741
 C2604 C 0.21507 0.52340 0.65115
 C2605 C 0.21084 0.53869 0.65055
 C2606 C 0.22482 0.54313 0.65663
 C2607 C 0.22278 0.52686 0.67189
 C2608 C 0.21853 0.54216 0.67130
 C2609 C 0.20879 0.52244 0.66583
 C2610 C 0.20446 0.53783 0.66505
 C2611 C 0.20426 0.54528 0.63862
 C2612 C 0.19893 0.55070 0.62876
 C2613 C 0.22917 0.52054 0.68406
 C2614 C 0.23395 0.51581 0.69453
 H2615 H 0.23938 0.52351 0.65440
 H2616 H 0.21354 0.51575 0.64273
 H2617 H 0.23131 0.55174 0.65273
 H2618 H 0.22002 0.54982 0.67971
 H2619 H 0.20227 0.51386 0.66975
 H2620 H 0.19424 0.54206 0.66808
 C2621 C 0.20873 0.03343 0.17222
 C2622 C 0.21503 0.04549 0.16381
 C2623 C 0.21097 0.03798 0.15043
 C2624 C 0.20457 0.02602 0.15866
 C2625 C 0.22276 0.02600 0.17175
 C2626 C 0.21869 0.01849 0.15838
 C2627 C 0.22914 0.03797 0.16354
 C2628 C 0.22499 0.03056 0.14996
 C2629 C 0.20446 0.04466 0.13854
 C2630 C 0.19915 0.05013 0.12871
 C2631 C 0.22907 0.01964 0.18392
 C2632 C 0.23381 0.01495 0.19441
 H2633 H 0.20212 0.03454 0.18151
 H2634 H 0.21342 0.05665 0.16595
 H2635 H 0.19437 0.02122 0.15655
 H2636 H 0.22028 0.00732 0.15628
 H2637 H 0.23932 0.04281 0.16567
 H2638 H 0.23159 0.02948 0.14066
 C2639 C 0.72957 0.21237 0.58677
 C2640 C 0.72285 0.22019 0.59902
 C2641 C 0.71047 0.21027 0.59828
 C2642 C 0.71709 0.20236 0.58622
 C2643 C 0.72204 0.22207 0.57674
 C2644 C 0.70965 0.21215 0.57598
 C2645 C 0.71540 0.22997 0.58878
 C2646 C 0.70292 0.21995 0.58823
 C2647 C 0.70407 0.20381 0.61037
 C2648 C 0.69884 0.19859 0.62038
 C2649 C 0.72833 0.22847 0.56457
 C2650 C 0.73318 0.23335 0.55421
 H2651 H 0.74060 0.20934 0.58605
 H2652 H 0.72820 0.22340 0.60864
 H2653 H 0.71769 0.19095 0.58526
 H2654 H 0.70429 0.20892 0.56637
 H2655 H 0.71478 0.24139 0.58972
 H2656 H 0.69189 0.22297 0.58893
 C2657 C 0.71681 0.73039 0.08952
 C2658 C 0.70321 0.72195 0.08930
 C2659 C 0.71011 0.71091 0.09836
 C2660 C 0.72361 0.71925 0.09877
 C2661 C 0.72172 0.72244 0.07670
 C2662 C 0.72862 0.71139 0.08575
 C2663 C 0.70822 0.71409 0.07628
 C2664 C 0.71502 0.70296 0.08553
 C2665 C 0.70374 0.70452 0.11050
 C2666 C 0.69859 0.69929 0.12054
 C2667 C 0.72804 0.72869 0.06447
 C2668 C 0.73291 0.73348 0.05409
 H2669 H 0.71762 0.74174 0.09103
 H2670 H 0.69268 0.72619 0.09086
 H2671 H 0.72987 0.72129 0.10816
 H2672 H 0.73914 0.70713 0.08417
 H2673 H 0.70195 0.71205 0.06689
 H2674 H 0.71419 0.69161 0.08400
 C2675 C 0.52172 0.72486 0.15665
 C2676 C 0.53660 0.72783 0.15156
 C2677 C 0.53902 0.71221 0.15006
 C2678 C 0.52425 0.70913 0.15497
 C2679 C 0.52721 0.72397 0.17150
 C2680 C 0.52964 0.70835 0.17001
 C2681 C 0.54199 0.72703 0.16661
 C2682 C 0.54450 0.71132 0.16492
 C2683 C 0.54554 0.70565 0.13809
 C2684 C 0.55083 0.70025 0.12821
 C2685 C 0.52088 0.73025 0.18372
 C2686 C 0.51615 0.73491 0.19424
 H2687 H 0.51229 0.73050 0.15338
 H2688 H 0.53958 0.73576 0.14385
 H2689 H 0.51706 0.70166 0.15006
 H2690 H 0.52671 0.70039 0.17773
 H2691 H 0.54920 0.73447 0.17154
 H2692 H 0.55393 0.70568 0.16821
 C2693 C 0.04342 0.71613 0.67308
 C2694 C 0.03821 0.70279 0.66592
 C2695 C 0.04024 0.70978 0.65183
 C2696 C 0.04556 0.72302 0.65882
 C2697 C 0.02853 0.72164 0.67329
 C2698 C 0.03058 0.72863 0.65921
 C2699 C 0.02323 0.70839 0.66632
 C2700 C 0.02536 0.71529 0.65205
 C2701 C 0.04671 0.70328 0.63979
 C2702 C 0.05199 0.69804 0.62982
 C2703 C 0.02216 0.72810 0.68540
 C2704 C 0.01724 0.73304 0.69570
 H2705 H 0.05078 0.71655 0.68188
 H2706 H 0.04141 0.69210 0.66858
 H2707 H 0.05484 0.72895 0.65562
 H2708 H 0.02738 0.73932 0.65658
 H2709 H 0.01396 0.70245 0.66954
 H2710 H 0.01801 0.71484 0.64327
 C2711 C 0.52893 0.65808 0.22978
 C2712 C 0.52356 0.65062 0.21665
 C2713 C 0.53833 0.65056 0.21086
 C2714 C 0.54380 0.65783 0.22387
 C2715 C 0.52651 0.67201 0.22262
 C2716 C 0.54128 0.67195 0.21681
 C2717 C 0.52105 0.66476 0.20959
 C2718 C 0.53592 0.66451 0.20370
 C2719 C 0.54491 0.63857 0.20437
 C2720 C 0.55031 0.62867 0.19911
 C2721 C 0.52021 0.68423 0.22893
 C2722 C 0.51554 0.69475 0.23368
 H2723 H 0.52598 0.65556 0.24056
 H2724 H 0.51635 0.64170 0.21648
 H2725 H 0.55326 0.65487 0.22964
 H2726 H 0.54851 0.68087 0.21694
 H2727 H 0.51162 0.66774 0.20379
 H2728 H 0.53888 0.66705 0.19292
 C2729 C 0.02552 0.66872 0.70650
 C2730 C 0.04130 0.66666 0.70492
 C2731 C 0.03966 0.65169 0.70996
 C2732 C 0.02398 0.65358 0.71144
 C2733 C 0.02778 0.67321 0.72156
 C2734 C 0.02615 0.65825 0.72660
 C2735 C 0.04347 0.67134 0.72007
 C2736 C 0.04194 0.65619 0.72501
 C2737 C 0.04619 0.63964 0.70355
 C2738 C 0.05150 0.62967 0.69831
 C2739 C 0.02134 0.68536 0.72786
 C2740 C 0.01644 0.69573 0.73269
 H2741 H 0.01870 0.67402 0.69896
 H2742 H 0.04760 0.67001 0.69596
 H2743 H 0.01604 0.64614 0.70779
 H2744 H 0.01985 0.65493 0.73557
 H2745 H 0.05141 0.67879 0.72369
 H2746 H 0.04879 0.65093 0.73254
 C2747 C 0.02190 0.09247 0.02590
 C2748 C 0.02376 0.09443 0.04168
 C2749 C 0.03876 0.09894 0.03921
 C2750 C 0.03702 0.09716 0.02353
 C2751 C 0.02698 0.07751 0.02734
 C2752 C 0.04200 0.08201 0.02488
 C2753 C 0.02874 0.07928 0.04302
 C2754 C 0.04384 0.08397 0.04065
 C2755 C 0.04535 0.11090 0.04575
 C2756 C 0.05079 0.12077 0.05107
 C2757 C 0.02070 0.06531 0.02095
 C2758 C 0.01603 0.05481 0.01614
 H2759 H 0.01282 0.09583 0.01977
 H2760 H 0.01635 0.09965 0.04870
 H2761 H 0.04054 0.10465 0.01561
 H2762 H 0.04943 0.07677 0.01790
 H2763 H 0.02525 0.07178 0.05096
 H2764 H 0.05291 0.08058 0.04679
 C2765 C 0.02506 0.59171 0.52447
 C2766 C 0.02413 0.59532 0.54004
 C2767 C 0.03976 0.59806 0.54018
 C2768 C 0.04080 0.59463 0.52472
 C2769 C 0.02800 0.57660 0.52832
 C2770 C 0.04363 0.57934 0.52849
 C2771 C 0.02697 0.58002 0.54379
 C2772 C 0.04269 0.58295 0.54404
 C2773 C 0.04629 0.61010 0.54668
 C2774 C 0.05163 0.62007 0.55190
 C2775 C 0.02163 0.56447 0.52186
 C2776 C 0.01676 0.55413 0.51690
 H2777 H 0.01775 0.59519 0.51636
 H2778 H 0.01619 0.60201 0.54489
 H2779 H 0.04658 0.60076 0.51697
 H2780 H 0.05158 0.57263 0.52367
 H2781 H 0.02121 0.57387 0.55156
 H2782 H 0.05000 0.57945 0.55216
 C2783 C 0.53472 0.07806 0.54042
 C2784 C 0.54622 0.08691 0.53370
 C2785 C 0.53863 0.10002 0.53841
 C2786 C 0.52723 0.09135 0.54523
 C2787 C 0.52656 0.07861 0.52680
 C2788 C 0.51897 0.09171 0.53152
 C2789 C 0.53798 0.08726 0.51999
 C2790 C 0.53048 0.10057 0.52480
 C2791 C 0.54529 0.11197 0.54489
 C2792 C 0.55070 0.12183 0.55024
 C2793 C 0.52013 0.06639 0.52060
 C2794 C 0.51536 0.05587 0.51597
 H2795 H 0.53639 0.06867 0.54678
 H2796 H 0.55749 0.08503 0.53468
 H2797 H 0.52292 0.09314 0.55570
 H2798 H 0.50770 0.09355 0.53055
 H2799 H 0.54231 0.08545 0.50953
 H2800 H 0.52884 0.10997 0.51846
 C2801 C 0.52253 0.59346 0.02402
 C2802 C 0.52305 0.59632 0.03977
 C2803 C 0.53849 0.59973 0.03849
 C2804 C 0.53809 0.59706 0.02286
 C2805 C 0.52643 0.57835 0.02682
 C2806 C 0.54188 0.58174 0.02557
 C2807 C 0.52684 0.58101 0.04246
 C2808 C 0.54238 0.58460 0.04129
 C2809 C 0.54517 0.61166 0.04500
 C2810 C 0.55061 0.62151 0.05034
 C2811 C 0.51998 0.56616 0.02056
 C2812 C 0.51522 0.55567 0.01586
 H2813 H 0.51431 0.59698 0.01685
 H2814 H 0.51539 0.60244 0.04572
 H2815 H 0.54284 0.60378 0.01488
 H2816 H 0.54955 0.57560 0.01965
 H2817 H 0.52214 0.57427 0.05046
 H2818 H 0.55061 0.58106 0.04846
 C2819 C 0.70897 0.16585 0.52221
 C2820 C 0.71620 0.15192 0.52534
 C2821 C 0.70976 0.15205 0.53983
 C2822 C 0.70243 0.16580 0.53680
 C2823 C 0.72158 0.17349 0.52808
 C2824 C 0.71513 0.17364 0.54258
 C2825 C 0.72891 0.15976 0.53112
 C2826 C 0.72237 0.15972 0.54571
 C2827 C 0.70329 0.14003 0.54633
 C2828 C 0.69806 0.13007 0.55164
 C2829 C 0.72802 0.18559 0.52170
 C2830 C 0.73296 0.19591 0.51681
 H2831 H 0.70354 0.16850 0.51246
 H2832 H 0.71655 0.14284 0.51832
 H2833 H 0.69148 0.16817 0.53922
 H2834 H 0.71477 0.18272 0.54959
 H2835 H 0.73987 0.15741 0.52870
 H2836 H 0.72778 0.15708 0.55547
 C2837 C 0.71275 0.66295 0.02016
 C2838 C 0.72056 0.65103 0.02745
 C2839 C 0.71014 0.65176 0.03939
 C2840 C 0.70224 0.66350 0.03221
 C2841 C 0.72189 0.67339 0.02789
 C2842 C 0.71146 0.67413 0.03984
 C2843 C 0.72978 0.66167 0.03509
 C2844 C 0.71926 0.66222 0.04713
 C2845 C 0.70372 0.63962 0.04575
 C2846 C 0.69855 0.62957 0.05096
 C2847 C 0.72828 0.68559 0.02164
 C2848 C 0.73319 0.69597 0.01684
 H2849 H 0.71016 0.66339 0.00901
 H2850 H 0.72421 0.64139 0.02242
 H2851 H 0.69084 0.66415 0.03111
 H2852 H 0.70779 0.68377 0.04487
 H2853 H 0.74117 0.66104 0.03621
 H2854 H 0.72183 0.66180 0.05829
 C2855 C 0.20784 0.58216 0.72476
 C2856 C 0.21209 0.59746 0.72684
 C2857 C 0.21112 0.59963 0.71115
 C2858 C 0.20677 0.58451 0.70898
 C2859 C 0.22315 0.57836 0.72301
 C2860 C 0.22216 0.58052 0.70732
 C2861 C 0.22750 0.59346 0.72517
 C2862 C 0.22642 0.59582 0.70938
 C2863 C 0.20447 0.61150 0.70454
 C2864 C 0.19907 0.62130 0.69909
 C2865 C 0.22958 0.56623 0.72935
 C2866 C 0.23437 0.55576 0.73409
 H2867 H 0.20028 0.57640 0.73117
 H2868 H 0.20783 0.60455 0.73478
 H2869 H 0.19819 0.58093 0.70227
 H2870 H 0.22638 0.57342 0.69936
 H2871 H 0.23609 0.59702 0.73189
 H2872 H 0.23397 0.60155 0.70294
 C2873 C 0.23018 0.08664 0.21142
 C2874 C 0.21648 0.08632 0.20316
 C2875 C 0.21174 0.09934 0.21090
 C2876 C 0.22534 0.09985 0.21907
 C2877 C 0.22338 0.07784 0.22272
 C2878 C 0.21862 0.09085 0.23047
 C2879 C 0.20977 0.07734 0.21455
 C2880 C 0.20492 0.09053 0.22219
 C2881 C 0.20524 0.11134 0.20436
 C2882 C 0.19987 0.12123 0.19906
 C2883 C 0.22961 0.06561 0.22906
 C2884 C 0.23428 0.05510 0.23379
 H2885 H 0.24065 0.08491 0.20707
 H2886 H 0.21551 0.08456 0.19187
 H2887 H 0.23166 0.10926 0.22083
 H2888 H 0.21958 0.09258 0.24176
 H2889 H 0.20344 0.06793 0.21276
 H2890 H 0.19445 0.09223 0.22651
 C2891 C 0.72909 1.08582 0.71015
 C2892 C 0.71546 1.08553 0.70177
 C2893 C 0.71059 1.09845 0.70962
 C2894 C 0.72412 1.09892 0.71790
 C2895 C 0.72224 1.07686 0.72130
 C2896 C 0.71736 1.08976 0.72914
 C2897 C 0.70870 1.07638 0.71301
 C2898 C 0.70373 1.08947 0.72076
 C2899 C 0.70416 1.11056 0.70323
 C2900 C 0.69889 1.12059 0.69807
 C2901 C 0.72857 1.06467 0.72765
 C2902 C 0.73341 1.05430 0.73253
 H2903 H 0.73959 1.08419 0.70586
 H2904 H 0.71459 1.08389 0.69045
 H2905 H 0.73040 1.10833 0.71983
 H2906 H 0.71821 1.09137 0.74046
 H2907 H 0.70242 1.06697 0.71107
 H2908 H 0.69321 1.09108 0.72502
 C2909 C 0.70978 0.58464 0.22749
 C2910 C 0.71617 0.59929 0.22639
 C2911 C 0.71176 0.59984 0.21116
 C2912 C 0.70526 0.58539 0.21216
 C2913 C 0.72366 0.57845 0.22294
 C2914 C 0.71922 0.57901 0.20770
 C2915 C 0.73016 0.59289 0.22193
 C2916 C 0.72562 0.59364 0.20659
 C2917 C 0.70515 0.61177 0.20461
 C2918 C 0.69975 0.62161 0.19924
 C2919 C 0.73002 0.56626 0.22923
 C2920 C 0.73475 0.55577 0.23394
 H2921 H 0.70334 0.58081 0.23616
 H2922 H 0.71481 0.60776 0.23400
 H2923 H 0.69497 0.58240 0.20807
 H2924 H 0.72055 0.57053 0.20008
 H2925 H 0.74045 0.59584 0.22602
 H2926 H 0.73204 0.59744 0.19790
 C2927 C 0.52822 0.15766 0.72906
 C2928 C 0.52322 0.15066 0.71554
 C2929 C 0.53821 0.15035 0.71035
 C2930 C 0.54331 0.15717 0.72376
 C2931 C 0.52645 0.17184 0.72216
 C2932 C 0.54144 0.17153 0.71696
 C2933 C 0.52136 0.16504 0.70874
 C2934 C 0.53645 0.16453 0.70346
 C2935 C 0.54477 0.13833 0.70385
 C2936 C 0.55017 0.12841 0.69857
 C2937 C 0.52014 0.18405 0.72853
 C2938 C 0.51543 0.19454 0.73334
 H2939 H 0.52477 0.15496 0.73964
 H2940 H 0.51579 0.14195 0.71485
 H2941 H 0.55244 0.15383 0.72983
 H2942 H 0.54888 0.18024 0.71761
 H2943 H 0.51225 0.16840 0.70264
 H2944 H 0.53990 0.16727 0.69288
 C2945 C 1.02853 0.16950 0.20748
 C2946 C 1.04346 0.16456 0.21036
 C2947 C 1.03811 0.14966 0.21146
 C2948 C 1.02327 0.15442 0.20847
 C2949 C 1.02624 0.17114 0.22310
 C2950 C 1.02088 0.15625 0.22420
 C2951 C 1.04108 0.16640 0.22607
 C2952 C 1.03583 0.15131 0.22708
 C2953 C 1.04471 0.13768 0.20500
 C2954 C 1.05010 0.12779 0.19971
 C2955 C 1.01992 0.18338 0.22934
 C2956 C 1.01523 0.19392 0.23401
 H2957 H 1.02545 0.17713 0.19949
 H2958 H 1.05280 0.16788 0.20461
 H2959 H 1.01605 0.14937 0.20113
 H2960 H 1.01153 0.15298 0.22995
 H2961 H 1.04833 0.17147 0.23338
 H2962 H 1.03895 0.14369 0.23505
 C2963 C 0.22369 0.66965 0.54349
 C2964 C 0.20792 0.66709 0.54421
 C2965 C 0.21034 0.65201 0.53982
 C2966 C 0.22602 0.65440 0.53921
 C2967 C 0.22221 0.67350 0.52817
 C2968 C 0.22463 0.65844 0.52379
 C2969 C 0.20653 0.67114 0.52880
 C2970 C 0.20884 0.65588 0.52451
 C2971 C 0.20382 0.63997 0.54626
 C2972 C 0.19852 0.63000 0.55151
 C2973 C 0.22866 0.68564 0.52185
 C2974 C 0.23359 0.69598 0.51700
 H2975 H 0.22987 0.67545 0.55123
 H2976 H 0.20098 0.67055 0.55265
 H2977 H 0.23396 0.64739 0.54360
 H2978 H 0.23156 0.65502 0.51534
 H2979 H 0.19859 0.67817 0.52444
 H2980 H 0.20263 0.65011 0.51678
 C2981 C 0.22334 0.16943 1.04382
 C2982 C 0.20763 0.16639 1.04384
 C2983 C 0.21072 0.15132 1.03990
 C2984 C 0.22633 0.15417 1.03999
 C2985 C 0.22247 0.17292 1.02836
 C2986 C 0.22555 0.15786 1.02443
 C2987 C 0.20685 0.17008 1.02829
 C2988 C 0.20984 0.15482 1.02446
 C2989 C 0.20424 0.13922 1.04626
 C2990 C 0.19898 0.12920 1.05144
 C2991 C 0.22883 0.18510 1.02207
 C2992 C 0.23369 0.19547 1.01720
 H2993 H 0.22896 0.17559 1.05170
 H2994 H 0.20020 0.16980 1.05187
 H2995 H 0.23426 0.14751 1.04489
 H2996 H 0.23299 0.15448 1.01639
 H2997 H 0.19892 0.17676 1.02341
 H2998 H 0.20419 0.14869 1.01657
 C2999 C 0.21980 0.70654 0.57834
 C3000 C 0.22503 0.70778 0.59341
 C3001 C 0.21014 0.71054 0.59814
 C3002 C 0.20482 0.70919 0.58325
 C3003 C 0.22182 0.72219 0.57658
 C3004 C 0.20692 0.72494 0.58129
 C3005 C 0.22714 0.72354 0.59145
 C3006 C 0.21215 0.72620 0.59636
 C3007 C 0.20372 0.70412 0.61023
 C3008 C 0.19851 0.69888 0.62023
 C3009 C 0.22818 0.72853 0.56442
 C3010 C 0.23308 0.73340 0.55408
 H3011 H 0.22302 0.69853 0.57078
 H3012 H 0.23240 0.70063 0.59851
 H3013 H 0.19558 0.70323 0.57998
 H3014 H 0.19955 0.73207 0.57616
 H3015 H 0.23639 0.72951 0.59469
 H3016 H 0.20891 0.73421 0.60390
 C3017 C 0.21852 0.20650 1.07794
 C3018 C 0.22495 0.20588 1.09258
 C3019 C 0.21096 0.21021 1.09870
 C3020 C 0.20444 0.21072 1.08424
 C3021 C 0.22253 0.22185 1.07706
 C3022 C 0.20853 0.22616 1.08315
 C3023 C 0.22905 0.22133 1.09150
 C3024 C 0.21496 0.22556 1.09779
 C3025 C 0.20455 0.20383 1.11081
 C3026 C 0.19930 0.19865 1.12084
 C3027 C 0.22881 0.22819 1.06485
 C3028 C 0.23363 0.23306 1.05447
 H3029 H 0.22005 0.19873 1.06964
 H3030 H 0.23161 0.19745 1.09657
 H3031 H 0.19426 0.20628 1.08136
 H3032 H 0.20185 0.23457 1.07914
 H3033 H 0.23923 0.22576 1.09436
 H3034 H 0.21340 0.23332 1.10609
 C3035 C 0.70923 0.53482 0.17249
 C3036 C 0.71570 0.54651 0.16371
 C3037 C 0.71115 0.53887 0.15056
 C3038 C 0.70457 0.52728 0.15916
 C3039 C 0.72301 0.52696 0.17190
 C3040 C 0.71845 0.51931 0.15876
 C3041 C 0.72958 0.53857 0.16332
 C3042 C 0.72493 0.53102 0.14997
 C3043 C 0.70457 0.54548 0.13865
 C3044 C 0.69919 0.55087 0.12881
 C3045 C 0.72937 0.52059 0.18405
 C3046 C 0.73414 0.51585 0.19452
 H3047 H 0.70283 0.53631 0.18189
 H3048 H 0.71448 0.55776 0.16566
 H3049 H 0.69419 0.52274 0.15736
 H3050 H 0.71965 0.50806 0.15686
 H3051 H 0.73994 0.54313 0.16515
 H3052 H 0.73131 0.52955 0.14057
 C3053 C 0.72776 1.02871 0.65887
 C3054 C 0.71363 1.02459 0.65257
 C3055 C 0.70970 1.03995 0.65182
 C3056 C 0.72372 1.04418 0.65794
 C3057 C 0.72128 1.02809 0.67332
 C3058 C 0.71733 1.04346 0.67259
 C3059 C 0.70724 1.02388 0.66722
 C3060 C 0.70321 1.03934 0.66628
 C3061 C 0.70334 1.04648 0.63976
 C3062 C 0.69816 1.05177 0.62976
 C3063 C 0.72760 1.02164 0.68543
 C3064 C 0.73251 1.01672 0.69574
 H3065 H 0.73791 1.02426 0.65597
 H3066 H 0.71201 1.01690 0.64421
 H3067 H 0.73041 1.05262 0.65402
 H3068 H 0.71893 1.05114 0.68097
 H3069 H 0.70055 1.01545 0.67118
 H3070 H 0.69307 1.04379 0.66923
 C3071 C 0.52304 0.22656 0.65654
 C3072 C 0.53857 0.22766 0.65286
 C3073 C 0.53889 0.21199 0.65026
 C3074 C 0.52346 0.21079 0.65376
 C3075 C 0.52702 0.22382 0.67164
 C3076 C 0.52735 0.20815 0.66905
 C3077 C 0.54246 0.22501 0.66815
 C3078 C 0.54287 0.20925 0.66537
 C3079 C 0.54546 0.20541 0.63834
 C3080 C 0.55083 0.20002 0.62850
 C3081 C 0.52067 0.23012 0.68382
 C3082 C 0.51592 0.23477 0.69433
 H3083 H 0.51482 0.23375 0.65306
 H3084 H 0.54330 0.23559 0.64608
 H3085 H 0.51574 0.20483 0.64772
 H3086 H 0.52266 0.20020 0.67585
 H3087 H 0.55019 0.23093 0.67421
 H3088 H 0.55108 0.20207 0.66889
 C3089 C 1.04255 0.21964 0.17076
 C3090 C 1.03916 0.20497 0.16532
 C3091 C 1.03883 0.21073 0.15054
 C3092 C 1.04233 0.22530 0.15580
 C3093 C 1.02700 0.22264 0.17191
 C3094 C 1.02668 0.22840 0.15714
 C3095 C 1.02352 0.20805 0.16666
 C3096 C 1.02329 0.21371 0.15170
 C3097 C 1.04543 0.20416 0.13862
 C3098 C 1.05086 0.19881 0.12877
 C3099 C 1.02067 0.22903 0.18407
 C3100 C 1.01593 0.23379 0.19454
 H3101 H 1.05041 0.22215 0.17873
 H3102 H 1.04435 0.19528 0.16857
 H3103 H 1.05017 0.23230 0.15122
 H3104 H 1.02148 0.23809 0.15391
 H3105 H 1.01571 0.20103 0.17126
 H3106 H 1.01544 0.21115 0.14373
 C3107 C 0.58198 0.22500 0.70795
 C3108 C 0.59725 0.22692 0.71235
 C3109 C 0.59934 0.21123 0.71114
 C3110 C 0.58426 0.20922 0.70664
 C3111 C 0.57806 0.22302 0.72320
 C3112 C 0.58015 0.20732 0.72197
 C3113 C 0.59313 0.22503 0.72770
 C3114 C 0.59541 0.20922 0.72637
 C3115 C 0.61121 0.20466 0.70445
 C3116 C 0.62101 0.19926 0.69900
 C3117 C 0.56592 0.22931 0.72964
 C3118 C 0.55544 0.23401 0.73441
 H3119 H 0.57632 0.23157 0.70046
 H3120 H 0.60440 0.23490 0.70828
 H3121 H 0.58072 0.20266 0.69791
 H3122 H 0.57298 0.19933 0.72600
 H3123 H 0.59664 0.23159 0.73643
 H3124 H 0.60105 0.20262 0.73386
 C3125 C 1.07877 0.20722 0.21908
 C3126 C 1.08495 0.21161 0.20501
 C3127 C 1.09946 0.21081 0.21136
 C3128 C 1.09346 0.20631 0.22534
 C3129 C 1.07810 0.22251 0.22338
 C3130 C 1.09260 0.22170 0.22973
 C3131 C 1.08409 0.22698 0.20939
 C3132 C 1.09880 0.22609 0.21564
 C3133 C 1.11139 0.20431 0.20469
 C3134 C 1.12124 0.19899 0.19926
 C3135 C 1.06592 0.22878 0.22977
 C3136 C 1.05543 0.23349 0.23451
 H3137 H 1.07039 0.19952 0.22057
 H3138 H 1.08190 0.20738 0.19479
 H3139 H 1.09742 0.19771 0.23179
 H3140 H 1.09562 0.22592 0.23996
 H3141 H 1.08011 0.23556 0.20291
 H3142 H 1.10717 0.23377 0.21412
 C3143 C 0.15836 0.72651 0.52581
 C3144 C 0.15418 0.71115 0.52401
 C3145 C 0.15200 0.71009 0.53969
 C3146 C 0.15600 0.72535 0.54160
 C3147 C 0.17340 0.72197 0.52792
 C3148 C 0.17124 0.72090 0.54361
 C3149 C 0.16942 0.70671 0.52603
 C3150 C 0.16706 0.70555 0.54180
 C3151 C 0.14000 0.70355 0.54619
 C3152 C 0.13006 0.69824 0.55148
 C3153 C 0.18550 0.72843 0.52153
 C3154 C 0.19581 0.73337 0.51664
 H3155 H 0.15492 0.73519 0.51917
 H3156 H 0.14705 0.70704 0.51603
 H3157 H 0.15038 0.73293 0.54810
 H3158 H 0.17840 0.72498 0.55159
 H3159 H 0.17508 0.69912 0.51955
 H3160 H 0.17054 0.69687 0.54844
 C3161 C 0.17321 0.20646 1.03333
 C3162 C 0.16603 0.21180 1.04658
 C3163 C 0.15196 0.20979 1.03951
 C3164 C 0.15896 0.20434 1.02636
 C3165 C 0.17354 0.22132 1.02773
 C3166 C 0.15948 0.21930 1.02067
 C3167 C 0.16655 0.22676 1.04089
 C3168 C 0.15229 0.22465 1.03393
 C3169 C 0.13986 0.20343 1.04601
 C3170 C 0.12985 0.19825 1.05128
 C3171 C 0.18573 0.22760 1.02135
 C3172 C 0.19610 0.23244 1.01648
 H3173 H 0.18196 0.19905 1.03300
 H3174 H 0.16862 0.20865 1.05729
 H3175 H 0.15574 0.19503 1.02048
 H3176 H 0.15692 0.22245 1.00995
 H3177 H 0.16981 0.23605 1.04679
 H3178 H 0.14356 0.23206 1.03427
 C3179 C 0.66465 0.54012 0.22888
 C3180 C 0.66433 0.54584 0.21395
 C3181 C 0.65036 0.53865 0.21168
 C3182 C 0.65049 0.53303 0.22652
 C3183 C 0.67184 0.52701 0.22354
 C3184 C 0.65789 0.51983 0.22127
 C3185 C 0.67171 0.53265 0.20870
 C3186 C 0.65757 0.52556 0.20633
 C3187 C 0.63839 0.54513 0.20509
 C3188 C 0.62851 0.55045 0.19969
 C3189 C 0.68409 0.52079 0.22986
 C3190 C 0.69463 0.51613 0.23454
 H3191 H 0.66770 0.54603 0.23824
 H3192 H 0.66688 0.55658 0.21086
 H3193 H 0.64162 0.53329 0.23377
 H3194 H 0.65538 0.50907 0.22435
 H3195 H 0.68058 0.53242 0.20145
 H3196 H 0.65455 0.51967 0.19696
 C3197 C 0.66562 1.04127 0.72750
 C3198 C 0.66519 1.04707 0.71260
 C3199 C 0.65120 1.03990 0.71038
 C3200 C 0.65144 1.03420 0.72519
 C3201 C 0.67278 1.02819 0.72204
 C3202 C 0.65880 1.02103 0.71982
 C3203 C 0.67255 1.03390 0.70724
 C3204 C 0.65838 1.02684 0.70492
 C3205 C 0.63910 1.04636 0.70394
 C3206 C 0.62910 1.05161 0.69868
 C3207 C 0.68497 1.02182 0.72838
 C3208 C 0.69535 1.01693 0.73323
 H3209 H 0.66872 1.04713 0.73686
 H3210 H 0.66774 1.05783 0.70956
 H3211 H 0.64263 1.03441 0.73251
 H3212 H 0.65629 1.01026 0.72286
 H3213 H 0.68137 1.03371 0.69991
 H3214 H 0.65530 1.02099 0.69554
 C3215 C 0.83899 0.46545 0.27072
 C3216 C 0.84920 0.47284 0.28061
 C3217 C 0.84847 0.46037 0.29040
 C3218 C 0.83844 0.45288 0.28062
 C3219 C 0.82692 0.47201 0.27863
 C3220 C 0.82617 0.45953 0.28843
 C3221 C 0.83693 0.47949 0.28843
 C3222 C 0.83637 0.46692 0.29831
 C3223 C 0.86055 0.45392 0.29686
 C3224 C 0.87055 0.44865 0.30207
 C3225 C 0.81475 0.47835 0.27223
 C3226 C 0.80442 0.48322 0.26728
 H3227 H 0.83995 0.46492 0.25932
 H3228 H 0.85881 0.47824 0.27747
 H3229 H 0.83916 0.44186 0.27750
 H3230 H 0.81656 0.45413 0.29157
 H3231 H 0.83618 0.49050 0.29156
 H3232 H 0.83539 0.46743 0.30972
 C3233 C 0.83262 0.95840 0.77446
 C3234 C 0.84773 0.96359 0.77342
 C3235 C 0.84932 0.96152 0.78908
 C3236 C 0.83441 0.95624 0.79021
 C3237 C 0.82792 0.97332 0.77721
 C3238 C 0.82951 0.97124 0.79286
 C3239 C 0.84282 0.97861 0.77608
 C3240 C 0.84460 0.97643 0.79184
 C3241 C 0.86127 0.95497 0.79567
 C3242 C 0.87113 0.94960 0.80106
 C3243 C 0.81572 0.97964 0.77085
 C3244 C 0.80523 0.98434 0.76608
 H3245 H 0.82756 0.95105 0.76724
 H3246 H 0.85534 0.96033 0.76550
 H3247 H 0.83105 0.94698 0.79608
 H3248 H 0.82188 0.97445 0.80079
 H3249 H 0.84615 0.98787 0.77020
 H3250 H 0.84964 0.98376 0.79909
 C3251 C 0.42283 0.29361 0.78296
 C3252 C 0.40836 0.29500 0.77626
 C3253 C 0.40181 0.29026 0.78990
 C3254 C 0.41609 0.28898 0.79670
 C3255 C 0.42331 0.27843 0.77827
 C3256 C 0.41676 0.27370 0.79192
 C3257 C 0.40904 0.27973 0.77147
 C3258 C 0.40230 0.27509 0.78522
 C3259 C 0.38974 0.29674 0.79633
 C3260 C 0.37975 0.30196 0.80159
 C3261 C 0.43543 0.27197 0.77195
 C3262 C 0.44575 0.26703 0.76707
 H3263 H 0.43141 0.30115 0.78195
 H3264 H 0.40479 0.30386 0.76991
 H3265 H 0.41888 0.29286 0.80712
 H3266 H 0.42035 0.26487 0.79829
 H3267 H 0.40627 0.27585 0.76104
 H3268 H 0.39372 0.26755 0.78624
 C3269 C 0.90936 0.28012 0.27122
 C3270 C 0.90182 0.27460 0.28420
 C3271 C 0.90170 0.28932 0.29017
 C3272 C 0.90906 0.29494 0.27730
 C3273 C 0.92324 0.27763 0.27848
 C3274 C 0.92313 0.29235 0.28446
 C3275 C 0.91590 0.27202 0.29137
 C3276 C 0.91559 0.28684 0.29744
 C3277 C 0.88962 0.29578 0.29656
 C3278 C 0.87961 0.30108 0.30170
 C3279 C 0.93538 0.27129 0.27211
 C3280 C 0.94572 0.26643 0.26719
 H3281 H 0.90694 0.27728 0.26038
 H3282 H 0.89292 0.26737 0.28419
 H3283 H 0.90614 0.30445 0.27161
 H3284 H 0.93204 0.29959 0.28449
 H3285 H 0.91884 0.26252 0.29706
 H3286 H 0.91804 0.28968 0.30828
 C3287 C 0.32786 0.78389 0.45814
 C3288 C 0.33569 0.79655 0.46403
 C3289 C 0.34943 0.78931 0.46076
 C3290 C 0.34177 0.77675 0.45477
 C3291 C 0.32814 0.77722 0.47255
 C3292 C 0.34186 0.76998 0.46927
 C3293 C 0.33579 0.78980 0.47852
 C3294 C 0.34971 0.78266 0.47516
 C3295 C 0.36131 0.79602 0.45422
 C3296 C 0.37112 0.80149 0.44886
 C3297 C 0.31601 0.77077 0.47889
 C3298 C 0.30557 0.76598 0.48366
 H3299 H 0.31874 0.78432 0.45120
 H3300 H 0.33324 0.80753 0.46179
 H3301 H 0.34432 0.77149 0.44491
 H3302 H 0.34427 0.75899 0.47150
 H3303 H 0.33320 0.79508 0.48837
 H3304 H 0.35883 0.78225 0.48209
 C3305 C 0.32808 0.28386 0.95876
 C3306 C 0.33610 0.29630 0.96485
 C3307 C 0.34973 0.28899 0.96130
 C3308 C 0.34188 0.27665 0.95511
 C3309 C 0.32842 0.27687 0.97301
 C3310 C 0.34203 0.26956 0.96945
 C3311 C 0.33626 0.28922 0.97920
 C3312 C 0.35007 0.28201 0.97555
 C3313 C 0.36162 0.29569 0.95477
 C3314 C 0.37144 0.30113 0.94940
 C3315 C 0.31628 0.27040 0.97929
 C3316 C 0.30582 0.26558 0.98399
 H3317 H 0.31890 0.28455 0.95192
 H3318 H 0.33376 0.30736 0.96288
 H3319 H 0.34429 0.27158 0.94510
 H3320 H 0.34435 0.25850 0.97141
 H3321 H 0.33382 0.29431 0.98918
 H3322 H 0.35925 0.28135 0.98238
 C3323 C 0.78982 0.47866 0.33526
 C3324 C 0.78225 0.47479 0.34880
 C3325 C 0.78946 0.46065 0.34857
 C3326 C 0.79713 0.46442 0.33521
 C3327 C 0.77783 0.47233 0.32700
 C3328 C 0.78506 0.45819 0.32675
 C3329 C 0.77017 0.46854 0.34035
 C3330 C 0.77749 0.45431 0.34029
 C3331 C 0.79587 0.45421 0.36065
 C3332 C 0.80108 0.44896 0.37064
 C3333 C 0.77154 0.47866 0.31481
 C3334 C 0.76673 0.48350 0.30442
 H3335 H 0.79481 0.48875 0.33305
 H3336 H 0.78119 0.48154 0.35802
 H3337 H 0.80828 0.46264 0.33320
 H3338 H 0.78613 0.45143 0.31754
 H3339 H 0.75902 0.47032 0.34232
 H3340 H 0.77252 0.44420 0.34247
 C3341 C 0.77085 0.96066 0.83571
 C3342 C 0.78553 0.95433 0.83565
 C3343 C 0.78852 0.96162 0.84944
 C3344 C 0.77394 0.96785 0.84968
 C3345 C 0.77648 0.97342 0.82817
 C3346 C 0.77948 0.98072 0.84193
 C3347 C 0.79108 0.96718 0.82792
 C3348 C 0.79418 0.97437 0.84188
 C3349 C 0.79518 0.95504 0.86130
 C3350 C 0.80060 0.94964 0.87110
 C3351 C 0.77004 0.97970 0.81603
 C3352 C 0.76527 0.98437 0.80555
 H3353 H 0.76117 0.95510 0.83304
 H3354 H 0.78812 0.94343 0.83317
 H3355 H 0.76697 0.96802 0.85878
 H3356 H 0.77691 0.99163 0.84437
 H3357 H 0.79805 0.96699 0.81883
 H3358 H 0.80387 0.97990 0.84451
 C3359 C 0.29057 0.77272 0.41568
 C3360 C 0.28429 0.77384 0.40101
 C3361 C 0.28878 0.78907 0.40049
 C3362 C 0.29517 0.78804 0.41497
 C3363 C 0.27667 0.77734 0.42176
 C3364 C 0.28118 0.79257 0.42124
 C3365 C 0.27028 0.77838 0.40728
 C3366 C 0.27489 0.79371 0.40658
 C3367 C 0.29548 0.79556 0.38860
 C3368 C 0.30094 0.80088 0.37878
 C3369 C 0.27023 0.77105 0.43388
 C3370 C 0.26548 0.76632 0.44434
 H3371 H 0.29694 0.76401 0.41956
 H3372 H 0.28568 0.76622 0.39255
 H3373 H 0.30545 0.79209 0.41803
 H3374 H 0.27982 0.80021 0.42970
 H3375 H 0.25998 0.77434 0.40427
 H3376 H 0.26855 0.80245 0.40272
 C3377 C 0.29061 0.27225 0.91553
 C3378 C 0.28400 0.27403 0.90107
 C3379 C 0.28899 0.28911 0.90087
 C3380 C 0.29570 0.28743 0.91515
 C3381 C 0.27703 0.27714 0.92211
 C3382 C 0.28203 0.29222 0.92192
 C3383 C 0.27032 0.27883 0.90784
 C3384 C 0.27542 0.29402 0.90747
 C3385 C 0.29561 0.29574 0.88901
 C3386 C 0.30103 0.30116 0.87921
 C3387 C 0.27065 0.27072 0.93421
 C3388 C 0.26591 0.26592 0.94464
 H3389 H 0.29678 0.26322 0.91898
 H3390 H 0.28492 0.26663 0.89235
 H3391 H 0.30619 0.29104 0.91806
 H3392 H 0.28115 0.29963 0.93064
 H3393 H 0.25982 0.27522 0.90497
 H3394 H 0.26927 0.30307 0.90405
 C3395 C 0.47060 0.27138 0.84110
 C3396 C 0.47550 0.28505 0.84786
 C3397 C 0.46044 0.29002 0.84835
 C3398 C 0.45544 0.27645 0.84177
 C3399 C 0.47204 0.27814 0.82683
 C3400 C 0.45697 0.28312 0.82731
 C3401 C 0.47702 0.29172 0.83339
 C3402 C 0.46187 0.29678 0.83407
 C3403 C 0.45403 0.29655 0.86042
 C3404 C 0.44880 0.30183 0.87041
 C3405 C 0.47834 0.27169 0.81468
 C3406 C 0.48319 0.26676 0.80433
 H3407 H 0.47426 0.26087 0.84386
 H3408 H 0.48306 0.28595 0.85643
 H3409 H 0.44647 0.27026 0.84532
 H3410 H 0.44941 0.28224 0.81873
 H3411 H 0.48597 0.29793 0.82982
 H3412 H 0.45820 0.30729 0.83128
 C3413 C 0.98039 0.28427 0.33902
 C3414 C 0.97038 0.29674 0.33848
 C3415 C 0.96080 0.28928 0.34867
 C3416 C 0.97070 0.27689 0.34940
 C3417 C 0.97238 0.27752 0.32710
 C3418 C 0.96278 0.27006 0.33728
 C3419 C 0.96246 0.28990 0.32636
 C3420 C 0.95278 0.28254 0.33673
 C3421 C 0.95440 0.29578 0.36075
 C3422 C 0.94917 0.30107 0.37072
 C3423 C 0.97865 0.27116 0.31489
 C3424 C 0.98344 0.26631 0.30448
 H3425 H 0.99180 0.28489 0.33983
 H3426 H 0.97340 0.30780 0.33906
 H3427 H 0.97401 0.27162 0.35903
 H3428 H 0.95974 0.25901 0.33665
 H3429 H 0.95915 0.29517 0.31673
 H3430 H 0.94137 0.28192 0.33589
 C3431 C 0.47810 0.34116 0.77894
 C3432 C 0.46409 0.34752 0.77456
 C3433 C 0.45980 0.34814 0.78982
 C3434 C 0.47371 0.34196 0.79431
 C3435 C 0.47160 0.32671 0.77802
 C3436 C 0.46731 0.32732 0.79328
 C3437 C 0.45768 0.33287 0.77355
 C3438 C 0.45330 0.33368 0.78891
 C3439 C 0.45329 0.36016 0.79631
 C3440 C 0.44800 0.37012 0.80158
 C3441 C 0.47799 0.31461 0.77159
 C3442 C 0.48286 0.30428 0.76665
 H3443 H 0.48836 0.34409 0.77477
 H3444 H 0.46266 0.35596 0.76694
 H3445 H 0.48021 0.34581 0.80295
 H3446 H 0.46871 0.31887 0.80090
 H3447 H 0.45118 0.32899 0.76494
 H3448 H 0.44305 0.33071 0.79308
 C3449 C 0.97858 0.34052 0.27969
 C3450 C 0.96510 0.34761 0.27478
 C3451 C 0.96000 0.34794 0.28980
 C3452 C 0.97338 0.34103 0.29482
 C3453 C 0.97157 0.32640 0.27792
 C3454 C 0.96645 0.32672 0.29294
 C3455 C 0.95818 0.33329 0.27292
 C3456 C 0.95298 0.33380 0.28804
 C3457 C 0.95362 0.36002 0.29636
 C3458 C 0.94842 0.37002 0.30168
 C3459 C 0.97786 0.31423 0.27148
 C3460 C 0.98271 0.30387 0.26656
 H3461 H 0.98917 0.34316 0.27619
 H3462 H 0.96446 0.35634 0.26738
 H3463 H 0.97954 0.34432 0.30391
 H3464 H 0.96709 0.31798 0.30034
 H3465 H 0.95200 0.32998 0.26384
 H3466 H 0.94240 0.33113 0.29154
 C3467 C 0.27238 0.83528 0.45991
 C3468 C 0.27455 0.84962 0.46672
 C3469 C 0.28947 0.84971 0.46133
 C3470 C 0.28740 0.83556 0.45442
 C3471 C 0.27754 0.82840 0.47324
 C3472 C 0.29247 0.82849 0.46783
 C3473 C 0.27963 0.84254 0.48015
 C3474 C 0.29466 0.84282 0.47464
 C3475 C 0.29608 0.86161 0.45471
 C3476 C 0.30146 0.87144 0.44930
 C3477 C 0.27114 0.81627 0.47961
 C3478 C 0.26636 0.80581 0.48436
 H3479 H 0.26314 0.83205 0.45393
 H3480 H 0.26726 0.85844 0.46616
 H3481 H 0.29067 0.83278 0.44379
 H3482 H 0.29977 0.81966 0.46837
 H3483 H 0.27636 0.84528 0.49079
 H3484 H 0.30392 0.84602 0.48060
 C3485 C 0.28807 0.32697 0.96166
 C3486 C 0.28036 0.33853 0.95375
 C3487 C 0.28920 0.34935 0.96132
 C3488 C 0.29701 0.33795 0.96913
 C3489 C 0.27734 0.32804 0.97332
 C3490 C 0.28619 0.33883 0.98088
 C3491 C 0.26953 0.33941 0.96549
 C3492 C 0.27847 0.35041 0.97296
 C3493 C 0.29579 0.36125 0.95467
 C3494 C 0.30118 0.37107 0.94925
 C3495 C 0.27101 0.31589 0.97974
 C3496 C 0.26628 0.30541 0.98451
 H3497 H 0.29195 0.31719 0.95708
 H3498 H 0.27807 0.33849 0.94251
 H3499 H 0.30838 0.33744 0.97052
 H3500 H 0.28851 0.33883 0.99211
 H3501 H 0.25817 0.33988 0.96407
 H3502 H 0.27461 0.36020 0.97753
 C3503 C 0.77377 0.41699 0.29142
 C3504 C 0.77506 0.40243 0.28486
 C3505 C 0.79021 0.40188 0.28955
 C3506 C 0.78901 0.41625 0.29621
 C3507 C 0.77855 0.42336 0.27771
 C3508 C 0.79370 0.42283 0.28242
 C3509 C 0.77976 0.40901 0.27105
 C3510 C 0.79501 0.40828 0.27585
 C3511 C 0.79665 0.38985 0.29608
 C3512 C 0.80189 0.37989 0.30139
 C3513 C 0.77222 0.43551 0.27130
 C3514 C 0.76737 0.44587 0.26641
 H3515 H 0.76496 0.42070 0.29773
 H3516 H 0.76747 0.39391 0.28596
 H3517 H 0.79289 0.41914 0.30662
 H3518 H 0.80129 0.43136 0.28133
 H3519 H 0.77588 0.40616 0.26064
 H3520 H 0.80383 0.40459 0.26954
   
