data_POSCAR
  _audit_creation_date              2014-09-24
  _audit_creation_method            'ToBaCCo'
  _symmetry_space_group_name_H-M    'P1'
  _symmetry_Int_Tables_number       1
  _symmetry_cell_setting            triclinic
  loop_
  _symmetry_equiv_pos_as_xyz
 x,y,z
_cell_length_a 53.2118
_cell_length_b 50.3541
_cell_length_c 52.0371
_cell_angle_alpha 89.729000
_cell_angle_beta 89.273000
_cell_angle_gamma 92.029900
loop_
  _atom_site_label
  _atom_site_type_symbol
  _atom_site_fract_x
  _atom_site_fract_y
  _atom_site_fract_z
C1 C 0.19163 0.22644 0.22425
 C2 C 0.19647 0.24298 0.20279
 C3 C 0.21587 0.23740 0.18523
 C4 C 0.23018 0.21483 0.18911
 C5 C 0.22524 0.19785 0.21017
 C6 C 0.20601 0.20388 0.22763
 H7 H 0.18568 0.26061 0.20016
 H8 H 0.24477 0.21011 0.17532
 H9 H 0.20223 0.19092 0.24400
 C10 C 0.68209 0.70075 0.72555
 C11 C 0.68365 0.71740 0.70382
 C12 C 0.70371 0.71588 0.68618
 C13 C 0.72241 0.69747 0.69056
 C14 C 0.72130 0.68075 0.71229
 C15 C 0.70093 0.68241 0.72961
 H16 H 0.66919 0.73165 0.70069
 H17 H 0.73760 0.69573 0.67668
 H18 H 0.70009 0.67001 0.74669
 C19 C 0.31189 0.80037 0.72975
 C20 C 0.29624 0.82194 0.73355
 C21 C 0.27439 0.82507 0.71877
 C22 C 0.26867 0.80558 0.70004
 C23 C 0.28417 0.78395 0.69602
 C24 C 0.30571 0.78152 0.71094
 H25 H 0.30068 0.83544 0.74907
 H26 H 0.25298 0.80777 0.68729
 H27 H 0.31776 0.76490 0.70781
 C28 C 0.81327 0.29080 0.22894
 C29 C 0.79771 0.31285 0.23110
 C30 C 0.77650 0.31544 0.21562
 C31 C 0.77061 0.29557 0.19765
 C32 C 0.78558 0.27334 0.19510
 C33 C 0.80670 0.27103 0.21081
 H34 H 0.80117 0.32753 0.24587
 H35 H 0.75472 0.29775 0.18510
 H36 H 0.81838 0.25409 0.20809
 C37 C 0.81500 0.71821 0.27243
 C38 C 0.81094 0.73372 0.29431
 C39 C 0.78999 0.72860 0.31049
 C40 C 0.77284 0.70780 0.30440
 C41 C 0.77657 0.69209 0.28250
 C42 C 0.79778 0.69739 0.26668
 H43 H 0.82419 0.74982 0.29879
 H44 H 0.75657 0.70381 0.31673
 H45 H 0.80089 0.68532 0.24984
 C46 C 0.32316 0.21593 -0.23165
 C47 C 0.31909 0.23386 -0.21132
 C48 C 0.29682 0.23232 -0.19639
 C49 C 0.27812 0.21302 -0.20228
 C50 C 0.28142 0.19549 -0.22276
 C51 C 0.30390 0.19689 -0.23710
 H52 H 0.33355 0.24851 -0.20633
 H53 H 0.26093 0.21157 -0.19090
 H54 H 0.30585 0.18343 -0.25309
 C55 C 0.69865 0.26474 -0.22010
 C56 C 0.71735 0.28461 -0.22562
 C57 C 0.73895 0.28770 -0.21051
 C58 C 0.74234 0.27011 -0.18995
 C59 C 0.72431 0.24986 -0.18423
 C60 C 0.70252 0.24753 -0.19914
 H61 H 0.71484 0.29857 -0.24115
 H62 H 0.75901 0.27222 -0.17831
 H63 H 0.68896 0.23162 -0.19466
 C64 C 0.18603 0.78481 0.28124
 C65 C 0.19028 0.76687 0.30129
 C66 C 0.21195 0.76937 0.31620
 C67 C 0.22968 0.78998 0.31074
 C68 C 0.22612 0.80837 0.29062
 C69 C 0.20391 0.80546 0.27609
 H70 H 0.17666 0.75086 0.30533
 H71 H 0.24593 0.79189 0.32293
 H72 H 0.20060 0.81869 0.26017
 C73 C 0.47123 0.44507 0.48527
 C74 C 0.44921 0.45926 0.48887
 C75 C 0.44244 0.47885 0.47121
 C76 C 0.45811 0.48431 0.44977
 C77 C 0.48012 0.47022 0.44577
 C78 C 0.48649 0.45055 0.46353
 H79 H 0.43729 0.45505 0.50552
 H80 H 0.45286 0.49906 0.43579
 H81 H 0.50374 0.44005 0.46079
 C82 C -0.03861 -0.07516 0.96593
 C83 C -0.05734 -0.05705 0.97176
 C84 C -0.06096 -0.03451 0.95609
 C85 C -0.04539 -0.03093 0.93405
 C86 C -0.02683 -0.04903 0.92782
 C87 C -0.02350 -0.07095 0.94392
 H88 H -0.06845 -0.06026 0.98911
 H89 H -0.04841 -0.01483 0.92073
 H90 H -0.00857 -0.08439 0.93965
 C91 C 1.02378 0.55282 0.97585
 C92 C 1.00661 0.54890 0.95586
 C93 C 1.00997 0.52900 0.93747
 C94 C 1.03093 0.51293 0.93922
 C95 C 1.04838 0.51652 0.95909
 C96 C 1.04467 0.53661 0.97729
 H97 H 0.99087 0.56186 0.95427
 H98 H 1.03364 0.49752 0.92511
 H99 H 1.05763 0.53915 0.99304
 C100 C 0.53368 0.05869 0.47234
 C101 C 0.55188 0.03995 0.47783
 C102 C 0.55428 0.01685 0.46278
 C103 C 0.53788 0.01321 0.44185
 C104 C 0.51989 0.03193 0.43587
 C105 C 0.51782 0.05448 0.45132
 H106 H 0.56367 0.04327 0.49436
 H107 H 0.53954 -0.00374 0.42934
 H108 H 0.50387 0.06890 0.44686
 C109 C -0.04685 0.06643 0.52700
 C110 C -0.03067 0.06399 0.54790
 C111 C -0.03506 0.04394 0.56642
 C112 C -0.05580 0.02614 0.56367
 C113 C -0.07233 0.02802 0.54281
 C114 C -0.06736 0.04833 0.52448
 H115 H -0.01516 0.07826 0.55018
 H116 H -0.05816 0.00994 0.57731
 H117 H -0.07994 0.05095 0.50858
 C118 C 0.46258 0.56339 0.03227
 C119 C 0.47747 0.55888 0.05385
 C120 C 0.47075 0.53870 0.07167
 C121 C 0.44884 0.52294 0.06757
 C122 C 0.43367 0.52724 0.04617
 C123 C 0.44071 0.54750 0.02861
 H124 H 0.49396 0.57160 0.05709
 H125 H 0.44386 0.50683 0.08074
 H126 H 0.42911 0.55093 0.01205
 C127 C 0.52916 -0.06460 0.02925
 C128 C 0.54993 -0.04660 0.02572
 C129 C 0.55353 -0.02447 0.04185
 C130 C 0.53583 -0.01993 0.06143
 C131 C 0.51480 -0.03714 0.06504
 C132 C 0.51178 -0.05942 0.04916
 H133 H 0.56390 -0.05009 0.01097
 H134 H 0.53838 -0.00292 0.07389
 H135 H 0.49520 -0.07220 0.05200
 C136 C 1.03767 0.44423 0.51793
 C137 C 1.02000 0.44590 0.53801
 C138 C 1.02281 0.46528 0.55707
 C139 C 1.04351 0.48334 0.55588
 C140 C 1.06188 0.48199 0.53611
 C141 C 1.05851 0.46215 0.51719
 H142 H 1.00366 0.43243 0.53853
 H143 H 1.04589 0.49733 0.57145
 H144 H 1.07167 0.46088 0.50127
 C145 C 0.41297 0.01991 0.22283
 H146 H 0.41451 0.03693 0.23540
 C147 C 0.43144 0.01597 0.20411
 H148 H 0.44706 0.03024 0.20212
 C149 C 0.39059 -0.01932 0.21016
 H150 H 0.37486 -0.03324 0.21284
 C151 C 0.40856 -0.02394 0.19108
 H152 H 0.40647 -0.04146 0.17920
 N153 N 0.39295 0.00250 0.22536
 C154 C 0.33183 0.04606 0.25943
 H155 H 0.32735 0.03378 0.27610
 C156 C 0.31765 0.06819 0.25418
 H157 H 0.30241 0.07306 0.26711
 C158 C 0.35725 0.05458 0.22237
 H159 H 0.37242 0.04897 0.20977
 C160 C 0.34363 0.07694 0.21645
 H161 H 0.34847 0.08833 0.19928
 Zn162 Zn 0.36923 0.00917 0.25167
 N163 N 0.35133 0.03983 0.24371
 C164 C 0.38507 0.03618 0.29700
 N165 N 0.38740 0.01405 0.28238
 C166 C 0.40382 -0.00495 0.28864
 C167 C 0.41859 -0.00224 0.31049
 C168 C 0.39938 0.03962 0.31913
 C169 C 0.32914 -0.02446 0.23593
 C170 C 0.31114 -0.04528 0.23796
 C171 C 0.32716 -0.05564 0.27994
 C172 C 0.34473 -0.03457 0.27716
 N173 N 0.34563 -0.01968 0.25527
 H174 H 0.37233 0.05134 0.29142
 H175 H 0.40550 -0.02220 0.27650
 H176 H 0.43142 -0.01768 0.31526
 H177 H 0.39752 0.05748 0.33040
 H178 H 0.33003 -0.01206 0.21888
 H179 H 0.29838 -0.04904 0.22224
 H180 H 0.32664 -0.06716 0.29757
 H181 H 0.35753 -0.03009 0.29260
 C182 C 0.32353 0.08397 0.23245
 C183 C 0.42929 -0.00613 0.18785
 C184 C 0.31012 -0.06128 0.26015
 C185 C 0.41648 0.02030 0.32603
 C186 C 0.08280 -0.00113 0.70712
 H187 H 0.07916 -0.01845 0.71917
 C188 C 0.06736 0.00365 0.68626
 H189 H 0.05196 -0.01026 0.68214
 C190 C 0.10724 0.03815 0.69805
 H191 H 0.12252 0.05178 0.70298
 C192 C 0.09240 0.04355 0.67680
 H193 H 0.09641 0.06136 0.66551
 N194 N 0.10228 0.01601 0.71261
 C195 C 0.15781 -0.02741 0.75515
 H196 H 0.15928 -0.01529 0.77222
 C197 C 0.17318 -0.04911 0.75211
 H198 H 0.18626 -0.05377 0.76711
 C199 C 0.13876 -0.03605 0.71499
 H200 H 0.12556 -0.03070 0.70041
 C201 C 0.15372 -0.05798 0.71120
 H202 H 0.15190 -0.06927 0.69362
 Zn203 Zn 0.12108 0.00856 0.74227
 N204 N 0.14088 -0.02145 0.73683
 C205 C 0.09875 -0.02043 0.78419
 N206 N 0.09794 0.00206 0.76970
 C207 C 0.08040 0.02051 0.77427
 C208 C 0.06326 0.01715 0.79466
 C209 C 0.08199 -0.02458 0.80480
 C210 C 0.16300 0.04316 0.73438
 C211 C 0.18046 0.06352 0.74027
 C212 C 0.15678 0.07192 0.77912
 C213 C 0.13986 0.05134 0.77256
 N214 N 0.14313 0.03755 0.75042
 H215 H 0.11252 -0.03509 0.78002
 H216 H 0.07993 0.03802 0.76217
 H217 H 0.04946 0.03208 0.79800
 H218 H 0.08340 -0.04226 0.81654
 H219 H 0.16544 0.03153 0.71716
 H220 H 0.19641 0.06731 0.72749
 H221 H 0.15362 0.08286 0.79666
 H222 H 0.12429 0.04631 0.78535
 C223 C 0.17119 -0.06477 0.72992
 C224 C 0.07205 0.02627 0.67083
 C225 C 0.17750 0.07819 0.76296
 C226 C 0.06407 -0.00554 0.81039
 C227 C 0.58290 0.48934 0.21720
 H228 H 0.57890 0.47221 0.22939
 C229 C 0.56756 0.49428 0.19625
 H230 H 0.55188 0.48070 0.19225
 C231 C 0.60835 0.52775 0.20753
 H232 H 0.62409 0.54092 0.21210
 C233 C 0.59365 0.53329 0.18625
 H234 H 0.59822 0.55076 0.17466
 N235 N 0.60297 0.50587 0.22230
 C236 C 0.66266 0.46376 0.25916
 H237 H 0.66630 0.47675 0.27529
 C238 C 0.67807 0.44237 0.25460
 H239 H 0.69347 0.43884 0.26744
 C240 C 0.63799 0.45247 0.22295
 H241 H 0.62249 0.45658 0.21052
 C242 C 0.65275 0.43066 0.21785
 H243 H 0.64852 0.41821 0.20145
 Zn244 Zn 0.62307 0.49781 0.25092
 N245 N 0.64300 0.46833 0.24348
 C246 C 0.60498 0.46767 0.29386
 N247 N 0.60150 0.48973 0.27934
 C248 C 0.58241 0.50620 0.28457
 C249 C 0.56604 0.50091 0.30531
 C250 C 0.58920 0.46175 0.31490
 C251 C 0.66458 0.53291 0.24249
 C252 C 0.68172 0.55370 0.24796
 C253 C 0.65844 0.56185 0.28712
 C254 C 0.64177 0.54088 0.28092
 N255 N 0.64500 0.52701 0.25883
 H256 H 0.62013 0.45471 0.28933
 H257 H 0.57990 0.52346 0.27253
 H258 H 0.55077 0.51410 0.30889
 H259 H 0.59274 0.44444 0.32654
 H260 H 0.66698 0.52125 0.22528
 H261 H 0.69738 0.55782 0.23489
 H262 H 0.65532 0.57287 0.30462
 H263 H 0.62631 0.53570 0.29384
 C264 C 0.67308 0.42543 0.23380
 C265 C 0.57301 0.51639 0.18036
 C266 C 0.67878 0.56849 0.27057
 C267 C 0.56938 0.47847 0.32091
 C268 C 0.90995 0.51473 0.70934
 H269 H 0.91139 0.53065 0.72320
 C270 C 0.92629 0.51465 0.68816
 H271 H 0.94041 0.53054 0.68599
 C272 C 0.89049 0.47405 0.69624
 H273 H 0.87674 0.45809 0.69965
 C274 C 0.90636 0.47325 0.67469
 H275 H 0.90427 0.45683 0.66144
 N276 N 0.89250 0.49464 0.71298
 C277 C 0.83198 0.52495 0.76039
 H278 H 0.83197 0.51102 0.77628
 C279 C 0.81350 0.54390 0.75913
 H280 H 0.79951 0.54473 0.77437
 C281 C 0.85004 0.54041 0.72098
 H282 H 0.86394 0.53859 0.70584
 C283 C 0.83198 0.55975 0.71901
 H284 H 0.83220 0.57266 0.70231
 Zn285 Zn 0.87251 0.49557 0.74324
 N286 N 0.84975 0.52354 0.74147
 C287 C 0.89192 0.52047 0.78820
 N288 N 0.89463 0.50039 0.77110
 C289 C 0.91399 0.48359 0.77276
 C290 C 0.93147 0.48641 0.79240
 C291 C 0.90890 0.52391 0.80826
 C292 C 0.83387 0.45904 0.73091
 C293 C 0.81734 0.43716 0.73446
 C294 C 0.84079 0.42485 0.77189
 C295 C 0.85678 0.44710 0.76773
 N296 N 0.85304 0.46367 0.74751
 H297 H 0.87672 0.53396 0.78624
 H298 H 0.91583 0.46798 0.75871
 H299 H 0.94662 0.47266 0.79358
 H300 H 0.90660 0.54009 0.82161
 H301 H 0.83113 0.47276 0.71521
 H302 H 0.80206 0.43389 0.72116
 H303 H 0.84366 0.41222 0.78841
 H304 H 0.87175 0.45141 0.78105
 C305 C 0.81328 0.56153 0.73816
 C306 C 0.92470 0.49366 0.67050
 C307 C 0.82057 0.41988 0.75532
 C308 C 0.92901 0.50675 0.81050
 C309 C 0.21304 0.42679 -0.00016
 H310 H 0.22532 0.42840 0.01622
 C311 C 0.19353 0.44436 -0.00287
 H312 H 0.19073 0.45933 0.01166
 C313 C 0.20158 0.40491 -0.03871
 H314 H 0.20490 0.38971 -0.05278
 C315 C 0.18172 0.42196 -0.04209
 H316 H 0.16994 0.41970 -0.05882
 N317 N 0.21647 0.40730 -0.01773
 C318 C 0.25039 0.34176 0.02262
 H319 H 0.26690 0.33886 0.01075
 C320 C 0.24524 0.32510 0.04372
 H321 H 0.25781 0.30921 0.04780
 C322 C 0.21363 0.36557 0.03115
 H323 H 0.20120 0.38120 0.02613
 C324 C 0.20782 0.34946 0.05246
 H325 H 0.19120 0.35333 0.06386
 Zn326 Zn 0.24291 0.38386 -0.01182
 N327 N 0.23481 0.36173 0.01693
 C328 C 0.28589 0.40162 0.01621
 N329 N 0.27233 0.40498 -0.00548
 C330 C 0.27907 0.42405 -0.02308
 C331 C 0.30057 0.44025 -0.01955
 C332 C 0.30755 0.41738 0.02050
 C333 C 0.22969 0.34357 -0.04700
 C334 C 0.23284 0.32679 -0.06803
 C335 C 0.27408 0.34718 -0.07539
 C336 C 0.27014 0.36356 -0.05425
 N337 N 0.24809 0.36173 -0.04072
 H338 H 0.28003 0.38669 0.03020
 H339 H 0.26770 0.42659 -0.03995
 H340 H 0.30553 0.45540 -0.03374
 H341 H 0.31837 0.41402 0.03762
 H342 H 0.21254 0.34214 -0.03562
 H343 H 0.21802 0.31236 -0.07263
 H344 H 0.29157 0.34934 -0.08617
 H345 H 0.28479 0.37768 -0.04872
 C346 C 0.22377 0.32894 0.05910
 C347 C 0.17739 0.44187 -0.02391
 C348 C 0.25526 0.32852 -0.08260
 C349 C 0.31522 0.43693 0.00243
 C350 C 0.72406 0.06809 0.00056
 H351 H 0.73713 0.06605 -0.01535
 C352 C 0.70307 0.05081 0.00284
 H353 H 0.69993 0.03560 -0.01152
 C354 C 0.71234 0.09049 0.03860
 H355 H 0.71621 0.10574 0.05267
 C356 C 0.69090 0.07381 0.04145
 H357 H 0.67841 0.07636 0.05777
 N358 N 0.72826 0.08750 0.01823
 C359 C 0.77232 0.15112 -0.01968
 H360 H 0.78865 0.15218 -0.00751
 C361 C 0.77028 0.16904 -0.04004
 H362 H 0.78529 0.18371 -0.04365
 C363 C 0.73292 0.13056 -0.02973
 H364 H 0.71823 0.11580 -0.02542
 C365 C 0.73018 0.14799 -0.05037
 H366 H 0.71330 0.14648 -0.06176
 Zn367 Zn 0.75768 0.10929 0.01342
 N368 N 0.75386 0.13227 -0.01502
 C369 C 0.79780 0.08796 -0.01533
 N370 N 0.78459 0.08643 0.00720
 C371 C 0.78926 0.06753 0.02509
 C372 C 0.80824 0.04952 0.02090
 C373 C 0.81682 0.07025 -0.02040
 C374 C 0.74784 0.15047 0.04776
 C375 C 0.75264 0.16833 0.06771
 C376 C 0.79088 0.14570 0.07653
 C377 C 0.78540 0.12834 0.05635
 N378 N 0.76413 0.13095 0.04247
 H379 H 0.79335 0.10259 -0.02965
 H380 H 0.77817 0.06645 0.04266
 H381 H 0.81193 0.03494 0.03560
 H382 H 0.82674 0.07150 -0.03868
 H383 H 0.73135 0.15249 0.03605
 H384 H 0.73974 0.18411 0.07116
 H385 H 0.80784 0.14316 0.08741
 H386 H 0.79843 0.11314 0.05157
 C387 C 0.74901 0.16754 -0.05574
 C388 C 0.68613 0.05363 0.02344
 C389 C 0.77452 0.16620 0.08231
 C390 C 0.82231 0.05069 -0.00215
 C391 C 0.22618 0.58461 0.49429
 H392 H 0.23781 0.58537 0.47708
 C393 C 0.20604 0.56619 0.49627
 H394 H 0.20212 0.55307 0.48028
 C395 C 0.21701 0.60137 0.53570
 H396 H 0.22150 0.61500 0.55108
 C397 C 0.19669 0.58317 0.53854
 H398 H 0.18580 0.58288 0.55626
 N399 N 0.23104 0.60197 0.51366
 C400 C 0.26838 0.67099 0.47728
 H401 H 0.28518 0.67284 0.48873
 C402 C 0.26427 0.68937 0.45775
 H403 H 0.27817 0.70519 0.45403
 C404 C 0.22995 0.64792 0.46818
 H405 H 0.21639 0.63206 0.47256
 C406 C 0.22513 0.66579 0.44841
 H407 H 0.20786 0.66343 0.43775
 Zn408 Zn 0.25844 0.62652 0.50875
 N409 N 0.25150 0.65056 0.48188
 C410 C 0.30073 0.61227 0.47847
 N411 N 0.28714 0.60693 0.50033
 C412 C 0.29345 0.58712 0.51662
 C413 C 0.31467 0.57234 0.51164
 C414 C 0.32213 0.59803 0.47279
 C415 C 0.24693 0.66482 0.54559
 C416 C 0.25140 0.68210 0.56608
 C417 C 0.29143 0.66202 0.57230
 C418 C 0.28628 0.64528 0.55159
 N419 N 0.26433 0.64696 0.53868
 H420 H 0.29508 0.62757 0.46539
 H421 H 0.28213 0.58306 0.53369
 H422 H 0.31974 0.55709 0.52517
 H423 H 0.33272 0.60257 0.45532
 H424 H 0.22982 0.66608 0.53469
 H425 H 0.23763 0.69671 0.57073
 H426 H 0.30898 0.66021 0.58236
 H427 H 0.30011 0.63134 0.54559
 C428 C 0.24248 0.68677 0.44290
 C429 C 0.19088 0.56535 0.51858
 C430 C 0.27404 0.68102 0.57961
 C431 C 0.32944 0.57789 0.48958
 C432 C 0.70856 0.91428 0.51632
 H433 H 0.72087 0.91482 0.53271
 C434 C 0.68889 0.93184 0.51487
 H435 H 0.68592 0.94557 0.53047
 C436 C 0.69773 0.89580 0.47599
 H437 H 0.70157 0.88216 0.46060
 C438 C 0.67787 0.91302 0.47373
 H439 H 0.66666 0.91240 0.45652
 N440 N 0.71252 0.89663 0.49711
 C441 C 0.75498 0.83271 0.53054
 H442 H 0.77037 0.83209 0.51679
 C443 C 0.75370 0.81482 0.55111
 H444 H 0.76813 0.80034 0.55301
 C445 C 0.71716 0.85200 0.54430
 H446 H 0.70285 0.86637 0.54148
 C447 C 0.71509 0.83441 0.56512
 H448 H 0.69937 0.83577 0.57841
 Zn449 Zn 0.74067 0.87484 0.49951
 N450 N 0.73712 0.85113 0.52777
 C451 C 0.78603 0.89402 0.52262
 N452 N 0.76942 0.89764 0.50337
 C453 C 0.77254 0.91820 0.48647
 C454 C 0.79321 0.93592 0.48831
 C455 C 0.80712 0.91107 0.52498
 C456 C 0.72607 0.83497 0.46474
 C457 C 0.72831 0.81839 0.44345
 C458 C 0.76775 0.84122 0.43258
 C459 C 0.76474 0.85736 0.45404
 N460 N 0.74409 0.85406 0.46954
 H461 H 0.78308 0.87787 0.53614
 H462 H 0.75885 0.92085 0.47157
 H463 H 0.79506 0.95237 0.47488
 H464 H 0.82042 0.90735 0.54004
 H465 H 0.71004 0.83250 0.47764
 H466 H 0.71395 0.80305 0.44013
 H467 H 0.78420 0.84434 0.42034
 H468 H 0.77906 0.87234 0.45839
 C469 C 0.73364 0.81565 0.56884
 C470 C 0.67327 0.93142 0.49331
 C471 C 0.74944 0.82133 0.42710
 C472 C 0.81096 0.93242 0.50770
 C473 C 0.01675 0.21636 0.40592
 H474 H 0.03244 0.23057 0.40689
 C475 C 0.01486 0.19520 0.42338
 H476 H 0.02919 0.19331 0.43780
 C477 C -0.02171 0.20258 0.38682
 H478 H -0.03617 0.20579 0.37289
 C479 C -0.02433 0.18115 0.40388
 H480 H -0.04062 0.16775 0.40249
 N481 N -0.00142 0.21969 0.38816
 C482 C 0.03108 0.26903 0.32613
 H483 H 0.01761 0.28462 0.32560
 C484 C 0.05073 0.26887 0.30808
 H485 H 0.05248 0.28458 0.29382
 C486 C 0.04502 0.22949 0.34534
 H487 H 0.04247 0.21392 0.35957
 C488 C 0.06504 0.22867 0.32780
 H489 H 0.07776 0.21239 0.32873
 Zn490 Zn 0.00088 0.25062 0.36730
 N491 N 0.02866 0.24960 0.34433
 C492 C 0.02466 0.29724 0.38780
 N493 N 0.00458 0.27983 0.38982
 C494 C -0.01251 0.28154 0.40932
 C495 C -0.00981 0.30138 0.42782
 C496 C 0.02807 0.31743 0.40588
 C497 C -0.03187 0.23539 0.32808
 C498 C -0.05274 0.23662 0.31218
 C499 C -0.06608 0.27479 0.33603
 C500 C -0.04486 0.27293 0.35136
 N501 N -0.02839 0.25329 0.34729
 H502 H 0.03837 0.29518 0.37253
 H503 H -0.02809 0.26717 0.41069
 H504 H -0.02368 0.30244 0.44316
 H505 H 0.04445 0.33075 0.40429
 H506 H -0.01826 0.22021 0.32502
 H507 H -0.05490 0.22242 0.29674
 H508 H -0.07919 0.29026 0.33994
 H509 H -0.04159 0.28722 0.36646
 C510 C 0.06806 0.24852 0.30885
 C511 C -0.00605 0.17742 0.42269
 C512 C -0.07024 0.25651 0.31605
 C513 C 0.01081 0.31954 0.42635
 C514 C -0.00383 0.71107 0.08749
 H515 H -0.02062 0.72244 0.08592
 C516 C 0.00030 0.69024 0.07053
 H517 H -0.01338 0.68582 0.05578
 C518 C 0.03476 0.70373 0.10816
 H519 H 0.04823 0.70916 0.12275
 C520 C 0.03963 0.68272 0.09161
 H521 H 0.05669 0.67191 0.09394
 N522 N 0.01319 0.71723 0.10600
 C523 C -0.02569 0.75365 0.17028
 H524 H -0.01395 0.77140 0.17285
 C525 C -0.04597 0.74821 0.18701
 H526 H -0.04954 0.76178 0.20260
 C527 C -0.03483 0.71416 0.14712
 H528 H -0.03042 0.70087 0.13163
 C529 C -0.05534 0.70800 0.16332
 H530 H -0.06673 0.69019 0.15975
 Zn531 Zn 0.00649 0.74601 0.12804
 N532 N -0.02075 0.73691 0.15057
 C533 C -0.02218 0.78973 0.11249
 N534 N -0.00153 0.77541 0.10725
 C535 C 0.01352 0.78120 0.08651
 C536 C 0.00815 0.80227 0.07017
 C537 C -0.02807 0.81116 0.09683
 C538 C 0.04061 0.73756 0.16751
 C539 C 0.06149 0.74280 0.18290
 C540 C 0.07057 0.78278 0.15812
 C541 C 0.04937 0.77691 0.14336
 N542 N 0.03506 0.75446 0.14810
 H543 H -0.03419 0.78458 0.12875
 H544 H 0.02969 0.76934 0.08264
 H545 H 0.02041 0.80675 0.05383
 H546 H -0.04461 0.82232 0.10121
 H547 H 0.02882 0.71992 0.17094
 H548 H 0.06583 0.72897 0.19807
 H549 H 0.08179 0.80072 0.15411
 H550 H 0.04446 0.79028 0.12808
 C551 C -0.06129 0.72524 0.18348
 C552 C 0.02223 0.67567 0.07253
 C553 C 0.07684 0.76559 0.17817
 C554 C -0.01284 0.81760 0.07534
 C555 C 0.50226 0.21363 0.58887
 H556 H 0.48754 0.22753 0.58578
 C557 C 0.50385 0.19119 0.57330
 H558 H 0.49010 0.18774 0.55841
 C559 C 0.53827 0.20138 0.61183
 H560 H 0.55202 0.20559 0.62643
 C561 C 0.54038 0.17859 0.59692
 H562 H 0.55572 0.16549 0.60032
 N563 N 0.51919 0.21817 0.60787
 C564 C 0.48725 0.26377 0.67030
 H565 H 0.50258 0.27813 0.67303
 C566 C 0.46678 0.26297 0.68737
 H567 H 0.46678 0.27654 0.70343
 C568 C 0.46920 0.22823 0.64635
 H569 H 0.47019 0.21472 0.63035
 C570 C 0.44820 0.22698 0.66272
 H571 H 0.43308 0.21272 0.65872
 Zn572 Zn 0.51640 0.24939 0.62788
 N573 N 0.48808 0.24659 0.65025
 C574 C 0.49291 0.29431 0.60778
 N575 N 0.51284 0.27834 0.60507
 C576 C 0.52973 0.28191 0.58542
 C577 C 0.52696 0.30234 0.56751
 C578 C 0.48946 0.31498 0.59037
 C579 C 0.54921 0.23674 0.66733
 C580 C 0.57045 0.23925 0.68269
 C581 C 0.58263 0.27951 0.65961
 C582 C 0.56125 0.27608 0.64452
 N583 N 0.54528 0.25470 0.64834
 H584 H 0.47946 0.29087 0.62326
 H585 H 0.54526 0.26873 0.58358
 H586 H 0.54066 0.30500 0.55207
 H587 H 0.47322 0.32716 0.59260
 H588 H 0.53597 0.22016 0.67024
 H589 H 0.57360 0.22418 0.69707
 H590 H 0.59500 0.29676 0.65636
 H591 H 0.55746 0.29052 0.62978
 C592 C 0.44675 0.24448 0.68365
 C593 C 0.52303 0.17327 0.57739
 C594 C 0.58762 0.26079 0.67884
 C595 C 0.50657 0.31917 0.56985
 C596 C 0.50616 0.71640 0.91220
 H597 H 0.52338 0.72837 0.91344
 C598 C 0.50076 0.69650 0.93047
 H599 H 0.51394 0.69337 0.94578
 C600 C 0.46750 0.70699 0.89149
 H601 H 0.45432 0.71140 0.87660
 C602 C 0.46141 0.68686 0.90925
 H603 H 0.44381 0.67562 0.90735
 N604 N 0.48960 0.72124 0.89318
 C605 C 0.52981 0.76089 0.82953
 H606 H 0.51749 0.77724 0.82665
 C607 C 0.55064 0.75805 0.81338
 H608 H 0.55396 0.77215 0.79784
 C609 C 0.53990 0.72239 0.85307
 H610 H 0.53562 0.70855 0.86856
 C611 C 0.56110 0.71890 0.83746
 H612 H 0.57314 0.70252 0.84139
 Zn613 Zn 0.49691 0.75006 0.87040
 N614 N 0.52502 0.74340 0.84910
 C615 C 0.52640 0.79410 0.88826
 N616 N 0.50396 0.78046 0.89072
 C617 C 0.48655 0.78745 0.90855
 C618 C 0.49117 0.80929 0.92445
 C619 C 0.53186 0.81600 0.90385
 C620 C 0.46331 0.73657 0.83116
 C621 C 0.44274 0.73921 0.81507
 C622 C 0.43486 0.78142 0.83493
 C623 C 0.45563 0.77800 0.85060
 N624 N 0.46911 0.75561 0.84878
 H625 H 0.54029 0.78786 0.87446
 H626 H 0.46902 0.77601 0.91038
 H627 H 0.47684 0.81480 0.93817
 H628 H 0.54998 0.82632 0.90185
 H629 H 0.47462 0.71918 0.82979
 H630 H 0.43847 0.72382 0.80118
 H631 H 0.42399 0.79904 0.83720
 H632 H 0.46079 0.79319 0.86430
 C633 C 0.56684 0.73703 0.81742
 C634 C 0.47803 0.68151 0.92923
 C635 C 0.42803 0.76176 0.81700
 C636 C 0.51412 0.82389 0.92225
 C637 C 0.17607 0.22917 0.26972
 C638 C 0.17165 0.23240 0.24332
 C639 C 0.14780 0.24005 0.23532
 C640 C 0.12836 0.24341 0.25342
 C641 C 0.13289 0.23928 0.27983
 C642 C 0.15689 0.23257 0.28780
 C643 C 0.11325 0.24147 0.29783
 C644 C 0.08902 0.24770 0.28985
 C645 C 0.08482 0.25239 0.26363
 C646 C 0.10430 0.25023 0.24556
 H647 H 0.14413 0.24245 0.21501
 H648 H 0.16074 0.22957 0.30798
 H649 H 0.11678 0.23821 0.31805
 H650 H 0.10046 0.25350 0.22541
 H651 H 0.19440 0.22378 0.27640
 H652 H 0.06626 0.25707 0.25702
 C653 C 0.64765 0.67985 0.75304
 C654 C 0.66079 0.70280 0.74400
 C655 C 0.65311 0.72785 0.75212
 C656 C 0.63231 0.73005 0.76868
 C657 C 0.61888 0.70690 0.77728
 C658 C 0.62682 0.68188 0.76948
 C659 C 0.59763 0.70920 0.79330
 C660 C 0.58967 0.73437 0.80096
 C661 C 0.60357 0.75718 0.79264
 C662 C 0.62462 0.75505 0.77662
 H663 H 0.66337 0.74565 0.74554
 H664 H 0.61679 0.66390 0.77590
 H665 H 0.58702 0.69143 0.79934
 H666 H 0.63484 0.77298 0.77038
 H667 H 0.65317 0.66036 0.74690
 H668 H 0.59827 0.77677 0.79867
 C669 C 0.35058 0.81970 0.75068
 C670 C 0.33469 0.79750 0.74557
 C671 C 0.34071 0.77255 0.75557
 C672 C 0.36226 0.76980 0.77049
 C673 C 0.37811 0.79226 0.77548
 C674 C 0.37211 0.81710 0.76545
 C675 C 0.39963 0.78951 0.79045
 C676 C 0.40553 0.76460 0.80068
 C677 C 0.38958 0.74242 0.79556
 C678 C 0.36819 0.74499 0.78059
 H679 H 0.32844 0.75535 0.75204
 H680 H 0.38407 0.83453 0.76903
 H681 H 0.41190 0.80672 0.79393
 H682 H 0.35620 0.72758 0.77705
 H683 H 0.34650 0.83906 0.74295
 H684 H 0.39342 0.72309 0.80351
 C685 C -0.15217 0.31177 0.25363
 C686 C -0.16513 0.28874 0.24456
 C687 C -0.15595 0.26372 0.25157
 C688 C -0.13483 0.26183 0.26731
 C689 C -0.12225 0.28515 0.27606
 C690 C -0.13101 0.30997 0.26903
 C691 C -0.10114 0.28330 0.29176
 C692 C -0.09251 0.25836 0.29923
 C693 C -0.10531 0.23525 0.29052
 C694 C -0.12621 0.23696 0.27468
 H695 H -0.16575 0.24552 0.24588
 H696 H -0.12145 0.32808 0.27540
 H697 H -0.09130 0.30132 0.29795
 H698 H -0.13570 0.21882 0.26831
 H699 H -0.15760 0.33146 0.24808
 H700 H -0.09936 0.21578 0.29625
 C701 C -0.15621 0.75003 0.24815
 C702 C -0.16272 0.72380 0.25564
 C703 C -0.14772 0.70303 0.24727
 C704 C -0.12636 0.70839 0.23174
 C705 C -0.12004 0.73484 0.22426
 C706 C -0.13511 0.75549 0.23252
 C707 C -0.09878 0.74020 0.20861
 C708 C -0.08356 0.71950 0.20041
 C709 C -0.08994 0.69329 0.20816
 C710 C -0.11116 0.68779 0.22364
 H711 H -0.15245 0.68277 0.25320
 H712 H -0.13057 0.77588 0.22693
 H713 H -0.09435 0.76045 0.20249
 H714 H -0.11564 0.66741 0.22931
 H715 H -0.16763 0.76630 0.25420
 H716 H -0.07838 0.67702 0.20246
 C717 C 0.35526 0.19348 0.74275
 C718 C 0.34587 0.21686 0.75369
 C719 C 0.35955 0.24107 0.74924
 C720 C 0.38134 0.24196 0.73365
 C721 C 0.39022 0.21834 0.72290
 C722 C 0.37720 0.19421 0.72778
 C723 C 0.41182 0.21921 0.70714
 C724 C 0.42445 0.24355 0.70128
 C725 C 0.41534 0.26701 0.71205
 C726 C 0.39412 0.26620 0.72820
 H727 H 0.35265 0.25956 0.75660
 H728 H 0.38388 0.17585 0.71986
 H729 H 0.41876 0.20085 0.69947
 H730 H 0.38750 0.28459 0.73609
 H731 H 0.34622 0.17423 0.74642
 H732 H 0.42431 0.28613 0.70761
 C733 C 0.65359 0.25230 0.77579
 C734 C 0.67652 0.26233 0.76493
 C735 C 0.67670 0.27009 0.73876
 C736 C 0.65481 0.26798 0.72405
 C737 C 0.63212 0.25818 0.73542
 C738 C 0.63172 0.25040 0.76127
 C739 C 0.61020 0.25621 0.72073
 C740 C 0.61070 0.26353 0.69458
 C741 C 0.63352 0.27307 0.68344
 C742 C 0.65532 0.27536 0.69803
 H743 H 0.69403 0.27678 0.72926
 H744 H 0.61441 0.24296 0.77035
 H745 H 0.59273 0.24916 0.72975
 H746 H 0.67262 0.28275 0.68892
 H747 H 0.65200 0.24694 0.79591
 H748 H 0.63465 0.27839 0.66327
 C749 C 0.13974 0.77458 0.27726
 C750 C 0.16300 0.78159 0.26550
 C751 C 0.16423 0.78483 0.23863
 C752 C 0.14264 0.78074 0.22372
 C753 C 0.11950 0.77318 0.23576
 C754 C 0.11822 0.77035 0.26254
 C755 C 0.09807 0.76841 0.22082
 C756 C 0.09937 0.77126 0.19395
 C757 C 0.12237 0.77921 0.18220
 C758 C 0.14384 0.78381 0.19693
 H759 H 0.18207 0.78992 0.22925
 H760 H 0.10060 0.76477 0.27211
 H761 H 0.08033 0.76262 0.23008
 H762 H 0.16141 0.78961 0.18737
 H763 H 0.13816 0.77240 0.29793
 H764 H 0.12384 0.78134 0.16151
 C765 C 0.22807 0.14974 0.22185
 C766 C 0.24010 0.17383 0.21412
 C767 C 0.26639 0.17501 0.21084
 C768 C 0.28052 0.15254 0.21568
 C769 C 0.26821 0.12855 0.22380
 C770 C 0.24199 0.12730 0.22663
 C771 C 0.28234 0.10624 0.22910
 C772 C 0.30867 0.10751 0.22643
 C773 C 0.32071 0.13139 0.21811
 C774 C 0.30676 0.15372 0.21281
 H775 H 0.27589 0.19354 0.20513
 H776 H 0.23224 0.10903 0.23269
 H777 H 0.27282 0.08782 0.23513
 H778 H 0.31652 0.17195 0.20664
 H779 H 0.20781 0.14823 0.22412
 H780 H 0.34099 0.13292 0.21613
 C781 C 0.76682 0.66927 0.71174
 C782 C 0.74153 0.66171 0.71682
 C783 C 0.73570 0.63585 0.72595
 C784 C 0.75479 0.61771 0.72960
 C785 C 0.78008 0.62546 0.72406
 C786 C 0.78589 0.65132 0.71529
 C787 C 0.79911 0.60717 0.72719
 C788 C 0.79325 0.58115 0.73581
 C789 C 0.76806 0.57376 0.74157
 C790 C 0.74901 0.59185 0.73847
 H791 H 0.71627 0.62965 0.72970
 H792 H 0.80519 0.65766 0.71110
 H793 H 0.81849 0.61320 0.72299
 H794 H 0.72973 0.58555 0.74279
 H795 H 0.77189 0.68919 0.70513
 H796 H 0.76302 0.55375 0.74795
 C797 C 0.78361 0.30559 0.78557
 C798 C 0.75766 0.30970 0.78400
 C799 C 0.74958 0.33502 0.77703
 C800 C 0.76705 0.35579 0.77143
 C801 C 0.79307 0.35146 0.77317
 C802 C 0.80115 0.32629 0.78027
 C803 C 0.81052 0.37239 0.76777
 C804 C 0.80228 0.39753 0.76046
 C805 C 0.77635 0.40149 0.75863
 C806 C 0.75889 0.38085 0.76414
 H807 H 0.72966 0.33868 0.77621
 H808 H 0.82102 0.32257 0.78160
 H809 H 0.83049 0.36907 0.76903
 H810 H 0.73901 0.38451 0.76276
 H811 H 0.79037 0.28623 0.79058
 H812 H 0.76954 0.42077 0.75339
 C813 C 0.26990 -0.17369 0.29169
 C814 C 0.24434 -0.17083 0.28538
 C815 C 0.23754 -0.14654 0.27401
 C816 C 0.25546 -0.12575 0.26980
 C817 C 0.28068 -0.12901 0.27683
 C818 C 0.28773 -0.15310 0.28751
 C819 C 0.29846 -0.10806 0.27328
 C820 C 0.29139 -0.08368 0.26284
 C821 C 0.26630 -0.08071 0.25553
 C822 C 0.24848 -0.10154 0.25902
 H823 H 0.21814 -0.14297 0.26956
 H824 H 0.30710 -0.15607 0.29265
 H825 H 0.31784 -0.11072 0.27863
 H826 H 0.22920 -0.09862 0.25351
 H827 H 0.27665 -0.19216 0.29914
 H828 H 0.26034 -0.06206 0.24763
 C829 C 0.26865 -0.12859 0.73259
 C830 C 0.25881 -0.15279 0.72248
 C831 C 0.23302 -0.15414 0.71604
 C832 C 0.21777 -0.13220 0.71943
 C833 C 0.22810 -0.10834 0.72954
 C834 C 0.25352 -0.10676 0.73605
 C835 C 0.21285 -0.08641 0.73293
 C836 C 0.18730 -0.08798 0.72630
 C837 C 0.17720 -0.11187 0.71625
 C838 C 0.19227 -0.13379 0.71290
 H839 H 0.22426 -0.17248 0.70928
 H840 H 0.26181 -0.08850 0.74362
 H841 H 0.22095 -0.06801 0.74040
 H842 H 0.18396 -0.15198 0.70519
 H843 H 0.28838 -0.12578 0.73692
 H844 H 0.15752 -0.11372 0.71129
 C845 C 0.77152 0.36423 0.22301
 C846 C 0.76049 0.33890 0.21848
 C847 C 0.73412 0.33608 0.21717
 C848 C 0.71903 0.35812 0.22069
 C849 C 0.73038 0.38333 0.22575
 C850 C 0.75662 0.38620 0.22669
 C851 C 0.71529 0.40524 0.22990
 C852 C 0.68896 0.40236 0.22886
 C853 C 0.67786 0.37731 0.22341
 C854 C 0.69276 0.35535 0.21946
 H855 H 0.72531 0.31667 0.21397
 H856 H 0.76564 0.40542 0.23033
 H857 H 0.72402 0.42456 0.23377
 H858 H 0.68373 0.33619 0.21558
 H859 H 0.79177 0.36711 0.22361
 H860 H 0.65760 0.37463 0.22269
 C861 C 0.75055 0.66641 0.25063
 C862 C 0.75832 0.67020 0.27611
 C863 C 0.74862 0.65296 0.29544
 C864 C 0.73144 0.63220 0.28940
 C865 C 0.72375 0.62860 0.26371
 C866 C 0.73340 0.64584 0.24449
 C867 C 0.70655 0.60785 0.25768
 C868 C 0.69693 0.59051 0.27698
 C869 C 0.70479 0.59428 0.30246
 C870 C 0.72186 0.61492 0.30861
 H871 H 0.75471 0.65548 0.31510
 H872 H 0.72767 0.64342 0.22470
 H873 H 0.70044 0.60541 0.23802
 H874 H 0.72762 0.61731 0.32839
 H875 H 0.75752 0.67961 0.23546
 H876 H 0.69799 0.58100 0.31763
 C877 C 0.25408 0.17229 0.74498
 C878 C 0.26142 0.17556 0.77065
 C879 C 0.25007 0.15929 0.78983
 C880 C 0.23194 0.13961 0.78337
 C881 C 0.22479 0.13639 0.75746
 C882 C 0.23585 0.15296 0.73844
 C883 C 0.20687 0.11653 0.75095
 C884 C 0.19610 0.09957 0.76995
 C885 C 0.20337 0.10300 0.79567
 C886 C 0.22105 0.12287 0.80232
 H887 H 0.25582 0.16154 0.80964
 H888 H 0.23056 0.15082 0.71850
 H889 H 0.20122 0.11439 0.73111
 H890 H 0.22638 0.12496 0.82226
 H891 H 0.26243 0.18481 0.72995
 H892 H 0.19569 0.08999 0.81065
 C893 C 0.24630 0.26283 0.15651
 C894 C 0.22134 0.25505 0.16282
 C895 C 0.20176 0.26377 0.14735
 C896 C 0.20707 0.27978 0.12565
 C897 C 0.23225 0.28748 0.11950
 C898 C 0.25170 0.27899 0.13512
 C899 C 0.23757 0.30349 0.09782
 C900 C 0.21808 0.31181 0.08197
 C901 C 0.19312 0.30386 0.08822
 C902 C 0.18766 0.28807 0.10987
 H903 H 0.18248 0.25763 0.15193
 H904 H 0.27110 0.28473 0.13073
 H905 H 0.25687 0.30975 0.09351
 H906 H 0.16827 0.28223 0.11420
 H907 H 0.26165 0.25653 0.16829
 H908 H 0.17776 0.30960 0.07618
 C909 C 0.68345 0.73882 0.64927
 C910 C 0.70518 0.73363 0.66329
 C911 C 0.72830 0.74564 0.65546
 C912 C 0.72971 0.76268 0.63404
 C913 C 0.70771 0.76787 0.62020
 C914 C 0.68470 0.75578 0.62793
 C915 C 0.70909 0.78509 0.59891
 C916 C 0.73221 0.79721 0.59119
 C917 C 0.75397 0.79179 0.60505
 C918 C 0.75273 0.77472 0.62629
 H919 H 0.74514 0.74208 0.66628
 H920 H 0.66767 0.75944 0.61749
 H921 H 0.69224 0.78884 0.58819
 H922 H 0.76977 0.77101 0.63671
 H923 H 0.66548 0.72953 0.65467
 H924 H 0.77193 0.80113 0.59969
 C925 C 0.80664 0.75187 0.34951
 C926 C 0.78618 0.74502 0.33374
 C927 C 0.76225 0.75426 0.34006
 C928 C 0.75888 0.77043 0.36166
 C929 C 0.77966 0.77736 0.37721
 C930 C 0.80341 0.76785 0.37106
 C931 C 0.77640 0.79378 0.39860
 C932 C 0.75263 0.80357 0.40468
 C933 C 0.73205 0.79640 0.38919
 C934 C 0.73514 0.77999 0.36786
 H935 H 0.74639 0.74932 0.32790
 H936 H 0.81952 0.77287 0.38285
 H937 H 0.79235 0.79879 0.41062
 H938 H 0.71900 0.77493 0.35614
 H939 H 0.82517 0.74469 0.34525
 H940 H 0.71360 0.80386 0.39331
 C941 C 0.31311 0.25615 -0.15736
 C942 C 0.29325 0.25046 -0.17427
 C943 C 0.26978 0.26169 -0.16960
 C944 C 0.26615 0.27816 -0.14827
 C945 C 0.28624 0.28364 -0.13138
 C946 C 0.30965 0.27258 -0.13614
 C947 C 0.28257 0.29999 -0.10998
 C948 C 0.25904 0.31103 -0.10516
 C949 C 0.23921 0.30542 -0.12213
 C950 C 0.24273 0.28917 -0.14348
 H951 H 0.25439 0.25774 -0.18264
 H952 H 0.32525 0.27650 -0.12335
 H953 H 0.29795 0.30382 -0.09689
 H954 H 0.22713 0.28524 -0.15626
 H955 H 0.33124 0.24745 -0.16027
 H956 H 0.22101 0.31394 -0.11909
 C957 C 0.72234 0.20373 -0.16572
 C958 C 0.72817 0.23099 -0.16271
 C959 C 0.73749 0.24010 -0.13903
 C960 C 0.74068 0.22229 -0.11858
 C961 C 0.73445 0.19500 -0.12179
 C962 C 0.72541 0.18591 -0.14546
 C963 C 0.73731 0.17724 -0.10126
 C964 C 0.74638 0.18635 -0.07751
 C965 C 0.75273 0.21350 -0.07459
 C966 C 0.74985 0.23132 -0.09493
 H967 H 0.74182 0.26110 -0.13636
 H968 H 0.72070 0.16503 -0.14830
 H969 H 0.73268 0.15629 -0.10384
 H970 H 0.75470 0.25218 -0.09210
 H971 H 0.71556 0.19612 -0.18388
 H972 H 0.75952 0.22103 -0.05640
 C973 C 0.21104 0.72309 0.33438
 C974 C 0.21607 0.75047 0.33760
 C975 C 0.22517 0.75970 0.36133
 C976 C 0.22937 0.74186 0.38147
 C977 C 0.22425 0.71439 0.37799
 C978 C 0.21507 0.70522 0.35439
 C979 C 0.22848 0.69654 0.39812
 C980 C 0.23788 0.70574 0.42173
 C981 C 0.24292 0.73311 0.42496
 C982 C 0.23865 0.75102 0.40504
 H983 H 0.22876 0.78080 0.36420
 H984 H 0.21112 0.68422 0.35136
 H985 H 0.22484 0.67545 0.39529
 H986 H 0.24262 0.77202 0.40806
 H987 H 0.20431 0.71545 0.31621
 H988 H 0.24989 0.74070 0.44306
 C989 C 0.25346 0.75386 0.67298
 C990 C 0.27815 0.76420 0.67573
 C991 C 0.29710 0.75572 0.65893
 C992 C 0.29148 0.73723 0.63958
 C993 C 0.26661 0.72685 0.63703
 C994 C 0.24775 0.73528 0.65387
 C995 C 0.26103 0.70834 0.61763
 C996 C 0.27994 0.70019 0.60054
 C997 C 0.30458 0.71082 0.60326
 C998 C 0.31031 0.72907 0.62262
 H999 H 0.31614 0.76385 0.66066
 H1000 H 0.22858 0.72754 0.65222
 H1001 H 0.24201 0.70015 0.61599
 H1002 H 0.32944 0.73695 0.62420
 H1003 H 0.23860 0.75997 0.68585
 H1004 H 0.31944 0.70538 0.59011
 C1005 C 0.75449 0.24340 0.17238
 C1006 C 0.77944 0.25280 0.17555
 C1007 C 0.79848 0.24274 0.15975
 C1008 C 0.79267 0.22368 0.14095
 C1009 C 0.76751 0.21439 0.13790
 C1010 C 0.74858 0.22432 0.15378
 C1011 C 0.76169 0.19546 0.11895
 C1012 C 0.78069 0.18575 0.10283
 C1013 C 0.80565 0.19519 0.10610
 C1014 C 0.81158 0.21391 0.12499
 H1015 H 0.81774 0.25011 0.16176
 H1016 H 0.72919 0.21741 0.15176
 H1017 H 0.74242 0.18817 0.11688
 H1018 H 0.83095 0.22090 0.12697
 H1019 H 0.73955 0.25068 0.18448
 H1020 H 0.82060 0.18845 0.09371
 C1021 C 0.47531 0.42944 0.53079
 C1022 C 0.47821 0.42465 0.50433
 C1023 C 0.48734 0.40014 0.49623
 C1024 C 0.49297 0.38048 0.51429
 C1025 C 0.48956 0.38540 0.54080
 C1026 C 0.48094 0.41002 0.54885
 C1027 C 0.49452 0.36553 0.55883
 C1028 C 0.50272 0.34062 0.55077
 C1029 C 0.50643 0.33608 0.52437
 C1030 C 0.50161 0.35582 0.50630
 H1031 H 0.48946 0.39612 0.47589
 H1032 H 0.47836 0.41418 0.56910
 H1033 H 0.49194 0.36943 0.57914
 H1034 H 0.50432 0.35168 0.48605
 H1035 H 0.46873 0.44831 0.53754
 H1036 H 0.51248 0.31699 0.51764
 C1037 C -0.02870 0.87695 -0.02735
 C1038 C -0.03425 0.90182 -0.01690
 C1039 C -0.03494 0.90472 0.00999
 C1040 C -0.02989 0.88322 0.02615
 C1041 C -0.02389 0.85848 0.01537
 C1042 C -0.02351 0.85552 -0.01138
 C1043 C -0.01831 0.83715 0.03151
 C1044 C -0.01887 0.84012 0.05835
 C1045 C -0.02519 0.86467 0.06889
 C1046 C -0.03054 0.88609 0.05294
 H1047 H -0.03884 0.92384 0.01834
 H1048 H -0.01913 0.83665 -0.01997
 H1049 H -0.01377 0.81817 0.02324
 H1050 H -0.03511 0.90489 0.06155
 H1051 H -0.02843 0.87404 -0.04795
 H1052 H -0.02558 0.86742 0.08952
 C1053 C -0.00440 0.57749 0.00554
 C1054 C 0.01975 0.57388 -0.00485
 C1055 C 0.03981 0.59083 0.00283
 C1056 C 0.03570 0.61143 0.02031
 C1057 C 0.01128 0.61500 0.03044
 C1058 C -0.00859 0.59781 0.02307
 C1059 C 0.00708 0.63581 0.04761
 C1060 C 0.02692 0.65333 0.05475
 C1061 C 0.05117 0.64949 0.04467
 C1062 C 0.05553 0.62873 0.02763
 H1063 H 0.05845 0.58837 -0.00525
 H1064 H -0.02741 0.60019 0.03072
 H1065 H -0.01163 0.63826 0.05553
 H1066 H 0.07435 0.62635 0.02001
 H1067 H -0.02008 0.56447 0.00015
 H1068 H 0.06673 0.66287 0.04961
 C1069 C 0.52691 0.10753 0.47718
 C1070 C 0.53117 0.08271 0.48855
 C1071 C 0.53278 0.08095 0.51547
 C1072 C 0.53022 0.10359 0.53077
 C1073 C 0.52575 0.12836 0.51911
 C1074 C 0.52416 0.13011 0.49230
 C1075 C 0.52309 0.15098 0.53442
 C1076 C 0.52517 0.14925 0.56127
 C1077 C 0.52971 0.12455 0.57266
 C1078 C 0.53210 0.10189 0.55757
 H1079 H 0.53570 0.06190 0.52454
 H1080 H 0.52089 0.14896 0.48302
 H1081 H 0.51989 0.17002 0.52545
 H1082 H 0.53550 0.08307 0.56685
 H1083 H 0.52597 0.10956 0.45649
 H1084 H 0.53118 0.12274 0.59333
 C1085 C -0.06349 0.10318 0.50029
 C1086 C -0.04297 0.08842 0.50813
 C1087 C -0.01896 0.09458 0.49764
 C1088 C -0.01559 0.11495 0.47925
 C1089 C -0.03643 0.12949 0.47141
 C1090 C -0.06025 0.12353 0.48214
 C1091 C -0.03316 0.14975 0.45298
 C1092 C -0.00931 0.15575 0.44205
 C1093 C 0.01132 0.14120 0.45000
 C1094 C 0.00821 0.12099 0.46842
 H1095 H -0.00305 0.08320 0.50345
 H1096 H -0.07641 0.13457 0.47645
 H1097 H -0.04916 0.16111 0.44740
 H1098 H 0.02441 0.11002 0.47413
 H1099 H -0.08208 0.09906 0.50838
 H1100 H 0.02984 0.14526 0.44174
 C1101 C 0.49482 0.58828 1.00497
 C1102 C 0.46976 0.58477 1.01356
 C1103 C 0.45149 0.60156 1.00395
 C1104 C 0.45806 0.62140 0.98584
 C1105 C 0.48325 0.62459 0.97710
 C1106 C 0.50150 0.60797 0.98686
 C1107 C 0.48972 0.64423 0.95869
 C1108 C 0.47134 0.66084 0.94891
 C1109 C 0.44641 0.65763 0.95804
 C1110 C 0.43982 0.63809 0.97626
 H1111 H 0.43217 0.59928 1.01072
 H1112 H 0.52090 0.61010 0.98039
 H1113 H 0.50897 0.64628 0.95169
 H1114 H 0.42046 0.63604 0.98288
 H1115 H 0.50918 0.57545 1.01194
 H1116 H 0.43195 0.67044 0.95127
 C1117 C 0.51287 0.88952 1.02261
 C1118 C 0.52560 0.91280 1.01324
 C1119 C 0.53427 0.91298 0.98742
 C1120 C 0.52971 0.89099 0.97140
 C1121 C 0.51674 0.86813 0.98121
 C1122 C 0.50861 0.86753 1.00686
 C1123 C 0.51193 0.84626 0.96519
 C1124 C 0.51963 0.84697 0.93924
 C1125 C 0.53255 0.86986 0.92964
 C1126 C 0.53758 0.89163 0.94558
 H1127 H 0.54340 0.93063 0.97914
 H1128 H 0.49888 0.85002 1.01478
 H1129 H 0.50233 0.82862 0.97301
 H1130 H 0.54745 0.90904 0.93763
 H1131 H 0.50684 0.88767 1.04248
 H1132 H 0.53843 0.87112 0.90967
 C1133 C 0.03864 0.43034 0.47162
 C1134 C 0.03417 0.42382 0.49763
 C1135 C 0.02605 0.39775 0.50418
 C1136 C 0.02229 0.37852 0.48507
 C1137 C 0.02682 0.38529 0.45900
 C1138 C 0.03501 0.41125 0.45248
 C1139 C 0.02301 0.36603 0.43989
 C1140 C 0.01467 0.34003 0.44649
 C1141 C 0.01025 0.33356 0.47252
 C1142 C 0.01404 0.35260 0.49162
 H1143 H 0.02284 0.39238 0.52418
 H1144 H 0.03850 0.41684 0.43259
 H1145 H 0.02623 0.37135 0.41988
 H1146 H 0.01056 0.34704 0.51153
 H1147 H 0.04456 0.45035 0.46602
 H1148 H 0.00421 0.31359 0.47816
 C1149 C 0.39682 0.48011 0.48384
 C1150 C 0.41900 0.49355 0.47522
 C1151 C 0.41873 0.52110 0.47072
 C1152 C 0.39671 0.53507 0.47498
 C1153 C 0.37462 0.52137 0.48388
 C1154 C 0.37485 0.49388 0.48813
 C1155 C 0.35269 0.53539 0.48846
 C1156 C 0.35250 0.56299 0.48426
 C1157 C 0.37455 0.57637 0.47524
 C1158 C 0.39645 0.56255 0.47067
 H1159 H 0.43576 0.53175 0.46435
 H1160 H 0.35805 0.48303 0.49482
 H1161 H 0.33573 0.52479 0.49509
 H1162 H 0.41322 0.57339 0.46390
 H1163 H 0.39641 0.45884 0.48707
 H1164 H 0.37497 0.59766 0.47215
 C1165 C 0.92330 0.01098 -0.04540
 C1166 C 0.92035 -0.01596 -0.03777
 C1167 C 0.89824 -0.02379 -0.02390
 C1168 C 0.87970 -0.00547 -0.01818
 C1169 C 0.88314 0.02127 -0.02604
 C1170 C 0.90503 0.02929 -0.03953
 C1171 C 0.86457 0.03956 -0.02045
 C1172 C 0.84229 0.03142 -0.00736
 C1173 C 0.83905 0.00468 0.00034
 C1174 C 0.85759 -0.01356 -0.00496
 H1175 H 0.89464 -0.04437 -0.01849
 H1176 H 0.90807 0.04981 -0.04553
 H1177 H 0.86755 0.06016 -0.02620
 H1178 H 0.85453 -0.03405 0.00111
 H1179 H 0.94022 0.01847 -0.05511
 H1180 H 0.82195 -0.00229 0.01007
 C1181 C 0.57376 0.02140 0.04125
 C1182 C 0.57597 -0.00622 0.03857
 C1183 C 0.59979 -0.01632 0.03325
 C1184 C 0.62106 0.00084 0.03076
 C1185 C 0.61862 0.02851 0.03384
 C1186 C 0.59488 0.03858 0.03899
 C1187 C 0.63995 0.04564 0.03167
 C1188 C 0.66368 0.03551 0.02612
 C1189 C 0.66585 0.00798 0.02290
 C1190 C 0.64477 -0.00921 0.02532
 H1191 H 0.60188 -0.03757 0.03149
 H1192 H 0.59262 0.05975 0.04123
 H1193 H 0.63805 0.06688 0.03388
 H1194 H 0.64700 -0.03037 0.02291
 H1195 H 0.55561 0.02978 0.04495
 H1196 H 0.68399 -0.00026 0.01881
 C1197 C 0.08202 0.52566 0.54593
 C1198 C 0.08317 0.49990 0.53537
 C1199 C 0.10620 0.49250 0.52406
 C1200 C 0.12717 0.51020 0.52318
 C1201 C 0.12543 0.53591 0.53355
 C1202 C 0.10281 0.54341 0.54491
 C1203 C 0.14630 0.55376 0.53224
 C1204 C 0.16904 0.54618 0.52078
 C1205 C 0.17063 0.52032 0.51093
 C1206 C 0.14991 0.50253 0.51208
 H1207 H 0.10839 0.47261 0.51677
 H1208 H 0.10109 0.56312 0.55286
 H1209 H 0.14466 0.57370 0.53968
 H1210 H 0.15167 0.48278 0.50422
 H1211 H 0.06475 0.53283 0.55408
 H1212 H 0.18800 0.51376 0.50242
 C1213 C 0.06735 0.47168 -0.04389
 C1214 C 0.07024 0.49907 -0.03903
 C1215 C 0.09410 0.50964 -0.03234
 C1216 C 0.11472 0.49312 -0.03050
 C1217 C 0.11155 0.46566 -0.03555
 C1218 C 0.08780 0.45515 -0.04222
 C1219 C 0.13212 0.44912 -0.03365
 C1220 C 0.15587 0.45960 -0.02658
 C1221 C 0.15882 0.48694 -0.02161
 C1222 C 0.13845 0.50357 -0.02364
 H1223 H 0.09668 0.53076 -0.02882
 H1224 H 0.08500 0.43412 -0.04601
 H1225 H 0.12955 0.42800 -0.03719
 H1226 H 0.14125 0.52458 -0.01975
 H1227 H 0.04914 0.46293 -0.04867
 H1228 H 0.17698 0.49550 -0.01636
 C1229 C 0.56922 0.97099 0.46130
 C1230 C 0.57285 0.99800 0.46816
 C1231 C 0.59575 1.00571 0.48003
 C1232 C 0.61453 0.98730 0.48414
 C1233 C 0.61056 0.96059 0.47670
 C1234 C 0.58776 0.95261 0.46557
 C1235 C 0.62955 0.94234 0.48021
 C1236 C 0.65273 0.95047 0.49083
 C1237 C 0.65640 0.97709 0.49842
 C1238 C 0.63749 0.99531 0.49514
 H1239 H 0.59981 1.02628 0.48486
 H1240 H 0.58426 0.93210 0.46004
 H1241 H 0.62631 0.92181 0.47460
 H1242 H 0.64094 1.01575 0.50090
 H1243 H 0.55169 0.96355 0.45332
 H1244 H 0.67416 0.98400 0.50635
 C1245 C 0.89457 0.99880 0.56258
 C1246 C 0.90651 1.01019 0.54053
 C1247 C 0.89662 1.00347 0.51621
 C1248 C 0.87561 0.98600 0.51404
 C1249 C 0.86386 0.97517 0.53637
 C1250 C 0.87348 0.98170 0.56051
 C1251 C 0.84269 0.95795 0.53422
 C1252 C 0.83327 0.95092 0.50993
 C1253 C 0.84537 0.96160 0.48780
 C1254 C 0.86625 0.97904 0.48984
 H1255 H 0.90574 1.01082 0.49874
 H1256 H 0.86461 0.97366 0.57786
 H1257 H 0.83343 0.95027 0.55151
 H1258 H 0.87515 0.98697 0.47246
 H1259 H 0.90069 1.00391 0.58174
 H1260 H 0.83891 0.95621 0.46882
 C1261 C 0.39424 0.50411 0.06297
 C1262 C 0.41049 0.51055 0.04217
 C1263 C 0.40445 0.50104 0.01756
 C1264 C 0.38251 0.48533 0.01376
 C1265 C 0.36633 0.47900 0.03482
 C1266 C 0.37236 0.48851 0.05933
 C1267 C 0.34438 0.46329 0.03102
 C1268 C 0.33837 0.45370 0.00641
 C1269 C 0.35466 0.46012 -0.01437
 C1270 C 0.37651 0.47578 -0.01074
 H1271 H 0.41698 0.50559 0.00142
 H1272 H 0.36013 0.48392 0.07569
 H1273 H 0.33185 0.45881 0.04716
 H1274 H 0.38875 0.48035 -0.02709
 H1275 H 0.39832 0.51145 0.08205
 H1276 H 0.35068 0.45269 -0.03344
 C1277 C 0.50306 0.50259 0.41639
 C1278 C 0.49650 0.47615 0.42306
 C1279 C 0.50561 0.45543 0.40797
 C1280 C 0.52106 0.46102 0.38642
 C1281 C 0.52776 0.48767 0.38002
 C1282 C 0.51865 0.50831 0.39513
 C1283 C 0.54347 0.49325 0.35866
 C1284 C 0.55245 0.47255 0.34336
 C1285 C 0.54536 0.44614 0.34978
 C1286 C 0.52990 0.44042 0.37114
 H1287 H 0.50040 0.43498 0.41283
 H1288 H 0.52358 0.52886 0.39050
 H1289 H 0.54900 0.51370 0.35422
 H1290 H 0.52481 0.41989 0.37566
 H1291 H 0.49639 0.51885 0.42787
 H1292 H 0.55156 0.42980 0.33813
 C1293 C -0.00544 -0.06672 0.88859
 C1294 C -0.01086 -0.04506 0.90444
 C1295 C -0.00075 -0.01969 0.89800
 C1296 C 0.01478 -0.01603 0.87618
 C1297 C 0.02022 -0.03798 0.86049
 C1298 C 0.00992 -0.06321 0.86679
 C1299 C 0.03601 -0.03439 0.83887
 C1300 C 0.04664 -0.00914 0.83275
 C1301 C 0.04096 0.01258 0.84843
 C1302 C 0.02516 0.00918 0.86992
 H1303 H -0.00457 -0.00290 0.91023
 H1304 H 0.01382 -0.08024 0.85493
 H1305 H 0.03995 -0.05124 0.82676
 H1306 H 0.02125 0.02622 0.88177
 H1307 H -0.01327 -0.08639 0.89297
 H1308 H 0.04915 0.03216 0.84437
 C1309 C -0.02834 0.03483 0.61320
 C1310 C -0.01819 0.04139 0.58880
 C1311 C 0.00807 0.04479 0.58587
 C1312 C 0.02394 0.04104 0.60686
 C1313 C 0.01345 0.03378 0.63109
 C1314 C -0.01270 0.03099 0.63411
 C1315 C 0.02926 0.02921 0.65189
 C1316 C 0.05551 0.03191 0.64891
 C1317 C 0.06578 0.03966 0.62490
 C1318 C 0.05014 0.04408 0.60402
 H1319 H 0.01619 0.04966 0.56715
 H1320 H -0.02106 0.02568 0.65261
 H1321 H 0.02115 0.02364 0.67044
 H1322 H 0.05854 0.04968 0.58561
 H1323 H -0.04849 0.03264 0.61615
 H1324 H 0.08596 0.04174 0.62216
 C1325 C 0.47517 0.52747 0.11847
 C1326 C 0.48649 0.53406 0.09458
 C1327 C 0.51291 0.53604 0.09270
 C1328 C 0.52775 0.53144 0.11428
 C1329 C 0.51612 0.52453 0.13806
 C1330 C 0.48983 0.52268 0.13996
 C1331 C 0.53096 0.51961 0.15956
 C1332 C 0.55733 0.52173 0.15768
 C1333 C 0.56870 0.52886 0.13399
 C1334 C 0.55405 0.53357 0.11245
 H1335 H 0.52195 0.54077 0.07439
 H1336 H 0.48059 0.51758 0.15809
 H1337 H 0.52201 0.51443 0.17782
 H1338 H 0.56330 0.53884 0.09438
 H1339 H 0.45490 0.52627 0.12062
 H1340 H 0.58899 0.53039 0.13204
 C1341 C 0.46995 -0.03496 0.07995
 C1342 C 0.49573 -0.03181 0.08526
 C1343 C 0.50314 -0.02377 0.10996
 C1344 C 0.48506 -0.01920 0.12916
 C1345 C 0.45922 -0.02274 0.12363
 C1346 C 0.45187 -0.03052 0.09896
 C1347 C 0.44114 -0.01846 0.14287
 C1348 C 0.44850 -0.01057 0.16760
 C1349 C 0.47423 -0.00691 0.17286
 C1350 C 0.49237 -0.01125 0.15383
 H1351 H 0.52296 -0.02150 0.11436
 H1352 H 0.43214 -0.03316 0.09435
 H1353 H 0.42133 -0.02098 0.13851
 H1354 H 0.51209 -0.00847 0.15842
 H1355 H 0.46375 -0.04069 0.06096
 H1356 H 0.48035 -0.00106 0.19184
 C1357 C 0.99637 0.44273 0.59141
 C1358 C 1.00434 0.46623 0.57859
 C1359 C 0.99467 0.49055 0.58645
 C1360 C 0.97720 0.49138 0.60685
 C1361 C 0.96947 0.46764 0.61973
 C1362 C 0.97916 0.44343 0.61185
 C1363 C 0.95227 0.46849 0.64034
 C1364 C 0.94247 0.49277 0.64825
 C1365 C 0.95009 0.51622 0.63507
 C1366 C 0.96732 0.51554 0.61461
 H1367 H 1.00053 0.50873 0.57649
 H1368 H 0.97346 0.42504 0.62152
 H1369 H 0.94691 0.45030 0.65052
 H1370 H 0.97291 0.53392 0.60486
 H1371 H 1.00377 0.42381 0.58583
 H1372 H 0.94258 0.53513 0.64046
 C1373 C 0.96566 0.52679 0.92148
 C1374 C 0.99159 0.52513 0.91644
 C1375 C 0.99984 0.51996 0.89123
 C1376 C 0.98248 0.51659 0.87133
 C1377 C 0.95649 0.51852 0.87662
 C1378 C 0.94828 0.52356 0.90176
 C1379 C 0.93914 0.51536 0.85670
 C1380 C 0.94739 0.51013 0.83151
 C1381 C 0.97327 0.50812 0.82650
 C1382 C 0.99067 0.51139 0.84621
 H1383 H 1.01978 0.51896 0.88700
 H1384 H 0.92842 0.52496 0.90619
 H1385 H 0.91920 0.51662 0.86083
 H1386 H 1.01052 0.50989 0.84179
 H1387 H 0.95878 0.53036 0.94078
 H1388 H 0.98009 0.50438 0.80720
 C1389 C 0.51390 0.01923 0.38975
 C1390 C 0.50366 0.02821 0.41305
 C1391 C 0.47797 0.03385 0.41435
 C1392 C 0.46273 0.03058 0.39270
 C1393 C 0.47324 0.02137 0.36945
 C1394 C 0.49883 0.01577 0.36818
 C1395 C 0.45804 0.01801 0.34782
 C1396 C 0.43241 0.02384 0.34901
 C1397 C 0.42216 0.03312 0.37218
 C1398 C 0.43717 0.03638 0.39386
 H1399 H 0.46979 0.04055 0.43227
 H1400 H 0.50722 0.00885 0.35046
 H1401 H 0.46622 0.01122 0.32995
 H1402 H 0.42878 0.04344 0.41152
 H1403 H 0.53370 0.01521 0.38807
 H1404 H 0.40242 0.03753 0.37360
   
