data_POSCAR
  _audit_creation_date              2014-09-24
  _audit_creation_method            'ToBaCCo'
  _symmetry_space_group_name_H-M    'P1'
  _symmetry_Int_Tables_number       1
  _symmetry_cell_setting            triclinic
  loop_
  _symmetry_equiv_pos_as_xyz
 x,y,z
_cell_length_a 75.8635
_cell_length_b 75.9076
_cell_length_c 75.9584
_cell_angle_alpha 89.971400
_cell_angle_beta 89.966500
_cell_angle_gamma 89.972100
loop_
  _atom_site_label
  _atom_site_type_symbol
  _atom_site_fract_x
  _atom_site_fract_y
  _atom_site_fract_z
C1 C 0.19419 0.21265 0.22233
 C2 C 0.20548 0.19823 0.22498
 C3 C 0.21980 0.19521 0.21365
 C4 C 0.22269 0.20676 0.19948
 C5 C 0.21149 0.22121 0.19660
 C6 C 0.19730 0.22409 0.20813
 H7 H 0.20310 0.18935 0.23589
 H8 H 0.23369 0.20449 0.19066
 H9 H 0.18862 0.23523 0.20604
 C10 C 0.69448 0.71365 0.72200
 C11 C 0.69747 0.72504 0.70772
 C12 C 0.71174 0.72230 0.69625
 C13 C 0.72309 0.70797 0.69920
 C14 C 0.72032 0.69646 0.71341
 C15 C 0.70598 0.69941 0.72475
 H16 H 0.68865 0.73604 0.70552
 H17 H 0.73411 0.70576 0.69039
 H18 H 0.70375 0.69057 0.73572
 C19 C 0.30409 0.78733 0.72115
 C20 C 0.30150 0.77618 0.70668
 C21 C 0.28747 0.77897 0.69499
 C22 C 0.27597 0.79321 0.69790
 C23 C 0.27820 0.80467 0.71239
 C24 C 0.29241 0.80141 0.72395
 H25 H 0.31074 0.76557 0.70426
 H26 H 0.26470 0.79464 0.68931
 H27 H 0.29490 0.81010 0.73495
 C28 C 0.80587 0.28676 0.21968
 C29 C 0.80253 0.27530 0.20542
 C30 C 0.78813 0.27801 0.19413
 C31 C 0.77680 0.29227 0.19709
 C32 C 0.77975 0.30392 0.21111
 C33 C 0.79425 0.30109 0.22227
 H34 H 0.81135 0.26447 0.20259
 H35 H 0.76593 0.29458 0.18814
 H36 H 0.79577 0.30962 0.23357
 C37 C 0.80576 0.71048 0.27983
 C38 C 0.79430 0.69625 0.27697
 C39 C 0.77991 0.69321 0.28822
 C40 C 0.77707 0.70467 0.30248
 C41 C 0.78839 0.71899 0.30556
 C42 C 0.80271 0.72177 0.29415
 H43 H 0.79633 0.68779 0.26567
 H44 H 0.76601 0.70242 0.31122
 H45 H 0.81178 0.73249 0.29668
 C46 C 0.30504 0.21192 -0.22093
 C47 C 0.29331 0.19773 -0.22373
 C48 C 0.27923 0.19440 -0.21217
 C49 C 0.27668 0.20548 -0.19763
 C50 C 0.28795 0.21977 -0.19457
 C51 C 0.30204 0.22286 -0.20617
 H52 H 0.29530 0.18878 -0.23461
 H53 H 0.26586 0.20300 -0.18866
 H54 H 0.31031 0.23420 -0.20377
 C55 C 0.69394 0.28861 -0.22132
 C56 C 0.69751 0.27699 -0.20723
 C57 C 0.71157 0.28001 -0.19560
 C58 C 0.72242 0.29473 -0.19817
 C59 C 0.71936 0.30640 -0.21214
 C60 C 0.70512 0.30333 -0.22354
 H61 H 0.68877 0.26606 -0.20450
 H62 H 0.73359 0.29686 -0.18954
 H63 H 0.70321 0.31229 -0.23445
 C64 C 0.19562 0.78837 0.27910
 C65 C 0.20705 0.80268 0.27645
 C66 C 0.22104 0.80621 0.28821
 C67 C 0.22324 0.79484 0.30278
 C68 C 0.21204 0.78035 0.30548
 C69 C 0.19828 0.77723 0.29358
 H70 H 0.20454 0.81133 0.26541
 H71 H 0.23429 0.79651 0.31162
 H72 H 0.18929 0.76638 0.29587
 C73 C 0.46097 0.44420 0.46949
 C74 C 0.44669 0.45567 0.47224
 C75 C 0.44368 0.47000 0.46091
 C76 C 0.45520 0.47278 0.44668
 C77 C 0.46956 0.46148 0.44371
 C78 C 0.47233 0.44722 0.45519
 H79 H 0.43789 0.45343 0.48324
 H80 H 0.45297 0.48379 0.43789
 H81 H 0.48337 0.43844 0.45298
 C82 C -0.03885 -0.05610 0.97065
 C83 C -0.02725 -0.05293 0.95664
 C84 C -0.02983 -0.03860 0.94530
 C85 C -0.04418 -0.02726 0.94813
 C86 C -0.05617 -0.03007 0.96211
 C87 C -0.05324 -0.04472 0.97324
 H88 H -0.01590 -0.06140 0.95479
 H89 H -0.04642 -0.01683 0.93869
 H90 H -0.06181 -0.04716 0.98435
 C91 C 1.03862 0.55479 0.97064
 C92 C 1.02728 0.55187 0.95634
 C93 C 1.03003 0.53766 0.94483
 C94 C 1.04433 0.52628 0.94777
 C95 C 1.05582 0.52898 0.96201
 C96 C 1.05286 0.54327 0.97338
 H97 H 1.01627 0.56071 0.95414
 H98 H 1.04654 0.51529 0.93894
 H99 H 1.06167 0.54544 0.98438
 C100 C 0.53841 0.05443 0.47166
 C101 C 0.52727 0.05186 0.45717
 C102 C 0.53017 0.03795 0.44539
 C103 C 0.54450 0.02655 0.44820
 C104 C 0.55595 0.02875 0.46269
 C105 C 0.55259 0.04285 0.47437
 H106 H 0.51657 0.06102 0.45482
 H107 H 0.54600 0.01536 0.43951
 H108 H 0.56127 0.04531 0.48538
 C109 C -0.03858 0.05549 0.53012
 C110 C -0.05274 0.04397 0.52713
 C111 C -0.05568 0.02915 0.53801
 C112 C -0.04387 0.02625 0.55211
 C113 C -0.02971 0.03773 0.55535
 C114 C -0.02717 0.05228 0.54427
 H115 H -0.06082 0.04618 0.51561
 H116 H -0.04583 0.01535 0.56106
 H117 H -0.01653 0.06142 0.54692
 C118 C 0.46195 0.55463 0.02926
 C119 C 0.44773 0.54310 0.02651
 C120 C 0.44482 0.52874 0.03781
 C121 C 0.45633 0.52597 0.05202
 C122 C 0.47062 0.53733 0.05498
 C123 C 0.47334 0.55161 0.04353
 H124 H 0.43860 0.54556 0.01583
 H125 H 0.45415 0.51493 0.06080
 H126 H 0.48461 0.56014 0.04550
 C127 C 0.53686 -0.05428 0.02912
 C128 C 0.55091 -0.04241 0.02614
 C129 C 0.55409 -0.02817 0.03752
 C130 C 0.54297 -0.02559 0.05205
 C131 C 0.52886 -0.03705 0.05532
 C132 C 0.52594 -0.05129 0.04390
 H133 H 0.55987 -0.04440 0.01526
 H134 H 0.54557 -0.01490 0.06112
 H135 H 0.51445 -0.05941 0.04617
 C136 C 1.03689 0.44590 0.52975
 C137 C 1.05114 0.45736 0.52691
 C138 C 1.05418 0.47199 0.53801
 C139 C 1.04237 0.47477 0.55214
 C140 C 1.02811 0.46337 0.55519
 C141 C 1.02547 0.44900 0.54392
 H142 H 1.05923 0.45524 0.51538
 H143 H 1.04467 0.48520 0.56155
 H144 H 1.01448 0.44018 0.54619
 C145 C 0.40257 0.00896 0.22753
 H146 H 0.40389 0.02046 0.23584
 C147 C 0.41400 0.00655 0.21332
 H148 H 0.42418 0.01622 0.21086
 C149 C 0.38803 -0.01791 0.22114
 H150 H 0.37801 -0.02749 0.22432
 C151 C 0.39916 -0.02084 0.20679
 H152 H 0.39733 -0.03255 0.19887
 N153 N 0.38982 -0.00312 0.23108
 C154 C 0.34764 0.02385 0.25924
 H155 H 0.34652 0.01553 0.27075
 C156 C 0.33602 0.03793 0.25690
 H157 H 0.32588 0.04028 0.26666
 C158 C 0.36187 0.03040 0.23224
 H159 H 0.37182 0.02732 0.22255
 C160 C 0.35054 0.04462 0.22939
 H161 H 0.35218 0.05255 0.21765
 Zn162 Zn 0.37523 0.00080 0.25091
 N163 N 0.36034 0.02045 0.24706
 C164 C 0.38829 0.01944 0.28063
 N165 N 0.39013 0.00479 0.27049
 C166 C 0.40313 -0.00713 0.27367
 C167 C 0.41473 -0.00473 0.28773
 C168 C 0.39953 0.02232 0.29489
 C169 C 0.34734 -0.02201 0.24329
 C170 C 0.33583 -0.03615 0.24574
 C171 C 0.35176 -0.04383 0.27218
 C172 C 0.36287 -0.02945 0.26931
 N173 N 0.36059 -0.01899 0.25495
 H174 H 0.37817 0.02899 0.27767
 H175 H 0.40446 -0.01855 0.26525
 H176 H 0.42483 -0.01450 0.29021
 H177 H 0.39793 0.03410 0.30276
 H178 H 0.34566 -0.01332 0.23213
 H179 H 0.32521 -0.03811 0.23645
 H180 H 0.35407 -0.05220 0.28350
 H181 H 0.37330 -0.02671 0.27857
 C182 C 0.33740 0.04856 0.24182
 C183 C 0.41237 -0.00852 0.20271
 C184 C 0.33798 -0.04735 0.26033
 C185 C 0.41295 0.01012 0.29860
 C186 C 0.09658 -0.00817 0.72752
 H187 H 0.09520 -0.01957 0.73596
 C188 C 0.08507 -0.00577 0.71339
 H189 H 0.07496 -0.01551 0.71088
 C190 C 0.11153 0.01834 0.72055
 H191 H 0.12167 0.02785 0.72353
 C192 C 0.10036 0.02122 0.70624
 H193 H 0.10202 0.03299 0.69835
 N194 N 0.10961 0.00371 0.73072
 C195 C 0.15245 -0.02319 0.75784
 H196 H 0.15421 -0.01449 0.76897
 C197 C 0.16390 -0.03738 0.75536
 H198 H 0.17458 -0.03936 0.76459
 C199 C 0.13675 -0.03062 0.73193
 H200 H 0.12627 -0.02786 0.72273
 C201 C 0.14780 -0.04504 0.72903
 H202 H 0.14540 -0.05341 0.71775
 Zn203 Zn 0.12451 -0.00033 0.75031
 N204 N 0.13913 -0.02014 0.74625
 C205 C 0.11181 -0.01899 0.78016
 N206 N 0.10993 -0.00424 0.77016
 C207 C 0.09713 0.00780 0.77368
 C208 C 0.08575 0.00539 0.78793
 C209 C 0.10073 -0.02191 0.79455
 C210 C 0.15218 0.02264 0.74203
 C211 C 0.16372 0.03677 0.74430
 C212 C 0.14890 0.04375 0.77158
 C213 C 0.13769 0.02943 0.76883
 N214 N 0.13938 0.01933 0.75413
 H215 H 0.12188 -0.02854 0.77701
 H216 H 0.09574 0.01926 0.76533
 H217 H 0.07552 0.01503 0.79037
 H218 H 0.10263 -0.03359 0.80251
 H219 H 0.15337 0.01427 0.73056
 H220 H 0.17367 0.03935 0.73440
 H221 H 0.14743 0.05156 0.78341
 H222 H 0.12772 0.02637 0.77850
 C223 C 0.16164 -0.04859 0.74081
 C224 C 0.08694 0.00906 0.70248
 C225 C 0.16211 0.04758 0.75922
 C226 C 0.08747 -0.00964 0.79860
 C227 C 0.59770 0.49072 0.22634
 H228 H 0.59642 0.47919 0.23464
 C229 C 0.58622 0.49317 0.21219
 H230 H 0.57603 0.48350 0.20975
 C231 C 0.61219 0.51761 0.21994
 H232 H 0.62219 0.52721 0.22311
 C233 C 0.60101 0.52058 0.20565
 H234 H 0.60280 0.53232 0.19775
 N235 N 0.61046 0.50278 0.22985
 C236 C 0.65263 0.47553 0.25776
 H237 H 0.65387 0.48386 0.26924
 C238 C 0.66412 0.46135 0.25541
 H239 H 0.67407 0.45869 0.26527
 C240 C 0.63811 0.46892 0.23095
 H241 H 0.62816 0.47208 0.22129
 C242 C 0.64924 0.45455 0.22813
 H243 H 0.64774 0.44678 0.21627
 Zn244 Zn 0.62516 0.49875 0.24958
 N245 N 0.63986 0.47896 0.24568
 C246 C 0.61200 0.48019 0.27936
 N247 N 0.61033 0.49489 0.26925
 C248 C 0.59752 0.50700 0.27253
 C249 C 0.58593 0.50471 0.28663
 C250 C 0.60075 0.47742 0.29365
 C251 C 0.65283 0.52175 0.24150
 C252 C 0.66437 0.53588 0.24387
 C253 C 0.64942 0.54277 0.27111
 C254 C 0.63822 0.52846 0.26826
 N255 N 0.63998 0.51841 0.25354
 H256 H 0.62198 0.47051 0.27632
 H257 H 0.59635 0.51847 0.26415
 H258 H 0.57597 0.51461 0.28917
 H259 H 0.60220 0.46559 0.30148
 H260 H 0.65407 0.51342 0.23002
 H261 H 0.67436 0.53848 0.23403
 H262 H 0.64790 0.55056 0.28295
 H263 H 0.62821 0.52537 0.27788
 C264 C 0.66246 0.45061 0.24045
 C265 C 0.58781 0.50826 0.20160
 C266 C 0.66269 0.54664 0.25881
 C267 C 0.58751 0.48978 0.29743
 C268 C 0.90174 0.50912 0.72742
 H269 H 0.90295 0.52070 0.73564
 C270 C 0.91317 0.50674 0.71321
 H271 H 0.92325 0.51650 0.71065
 C272 C 0.88748 0.48207 0.72123
 H273 H 0.87759 0.47238 0.72449
 C274 C 0.89862 0.47916 0.70688
 H275 H 0.89690 0.46738 0.69904
 N276 N 0.88910 0.49696 0.73104
 C277 C 0.84717 0.52446 0.75909
 H278 H 0.84604 0.51624 0.77068
 C279 C 0.83570 0.53865 0.75674
 H280 H 0.82567 0.54120 0.76656
 C281 C 0.86125 0.53062 0.73192
 H282 H 0.87107 0.52734 0.72217
 C283 C 0.85008 0.54496 0.72906
 H284 H 0.85171 0.55278 0.71725
 Zn285 Zn 0.87441 0.50103 0.75079
 N286 N 0.85973 0.52081 0.74684
 C287 C 0.88787 0.51983 0.78024
 N288 N 0.88927 0.50493 0.77041
 C289 C 0.90183 0.49263 0.77392
 C290 C 0.91343 0.49493 0.78800
 C291 C 0.89917 0.52264 0.79447
 C292 C 0.84688 0.47793 0.74267
 C293 C 0.83528 0.46386 0.74507
 C294 C 0.84972 0.45738 0.77267
 C295 C 0.86102 0.47160 0.76975
 N296 N 0.85954 0.48142 0.75484
 H297 H 0.87804 0.52961 0.77707
 H298 H 0.90286 0.48105 0.76569
 H299 H 0.92345 0.48507 0.79043
 H300 H 0.89763 0.53445 0.80231
 H301 H 0.84578 0.48616 0.73109
 H302 H 0.82519 0.46142 0.73530
 H303 H 0.85132 0.44953 0.78447
 H304 H 0.87093 0.47476 0.77944
 C305 C 0.83709 0.54916 0.74157
 C306 C 0.91167 0.49160 0.70268
 C307 C 0.83664 0.45333 0.76023
 C308 C 0.91217 0.51009 0.79852
 C309 C 0.22710 0.40135 0.00837
 H310 H 0.23523 0.40239 0.02003
 C311 C 0.21304 0.41297 0.00590
 H312 H 0.21052 0.42302 0.01569
 C313 C 0.22101 0.38733 -0.01881
 H314 H 0.22427 0.37749 -0.02853
 C315 C 0.20681 0.39865 -0.02180
 H316 H 0.19907 0.39710 -0.03366
 N317 N 0.23069 0.38873 -0.00381
 C318 C 0.25813 0.34658 0.02397
 H319 H 0.26976 0.34531 0.01581
 C320 C 0.25565 0.33524 0.03823
 H321 H 0.26539 0.32516 0.04088
 C322 C 0.23104 0.36092 0.02995
 H323 H 0.22138 0.37081 0.02658
 C324 C 0.22804 0.34989 0.04436
 H325 H 0.21621 0.35168 0.05213
 Zn326 Zn 0.25023 0.37378 0.00042
 N327 N 0.24600 0.35922 0.02021
 C328 C 0.27972 0.38701 0.01938
 N329 N 0.27005 0.38839 0.00438
 C330 C 0.27382 0.40079 -0.00799
 C331 C 0.28801 0.41226 -0.00564
 C332 C 0.29406 0.39819 0.02224
 C333 C 0.24169 0.34662 -0.02298
 C334 C 0.24403 0.33504 -0.03706
 C335 C 0.27241 0.34837 -0.04263
 C336 C 0.26949 0.35974 -0.02847
 N337 N 0.25424 0.35879 -0.01910
 H338 H 0.27634 0.37731 0.02921
 H339 H 0.26572 0.40179 -0.01966
 H340 H 0.29064 0.42218 -0.01555
 H341 H 0.30176 0.39667 0.03413
 H342 H 0.22984 0.34592 -0.01508
 H343 H 0.23393 0.32538 -0.03989
 H344 H 0.28451 0.34949 -0.05010
 H345 H 0.27948 0.36924 -0.02498
 C346 C 0.24045 0.33684 0.04869
 C347 C 0.20263 0.41168 -0.00933
 C348 C 0.25955 0.33585 -0.04712
 C349 C 0.29837 0.41104 0.00963
 C350 C 0.72617 0.09802 -0.00916
 H351 H 0.73438 0.09671 -0.02073
 C352 C 0.71189 0.08669 -0.00668
 H353 H 0.70906 0.07678 -0.01654
 C354 C 0.71992 0.11259 0.01772
 H355 H 0.72325 0.12251 0.02734
 C356 C 0.70546 0.10160 0.02067
 H357 H 0.69779 0.10318 0.03260
 N358 N 0.72983 0.11072 0.00291
 C359 C 0.75843 0.15190 -0.02511
 H360 H 0.77033 0.15264 -0.01729
 C361 C 0.75608 0.16332 -0.03934
 H362 H 0.76621 0.17291 -0.04235
 C363 C 0.73054 0.13885 -0.03027
 H364 H 0.72053 0.12944 -0.02659
 C365 C 0.72762 0.15006 -0.04456
 H366 H 0.71547 0.14891 -0.05194
 Zn367 Zn 0.74975 0.12514 -0.00123
 N368 N 0.74583 0.13985 -0.02098
 C369 C 0.77870 0.11103 -0.02042
 N370 N 0.76921 0.11001 -0.00525
 C371 C 0.77293 0.09767 0.00718
 C372 C 0.78701 0.08604 0.00485
 C373 C 0.79287 0.09964 -0.02330
 C374 C 0.74214 0.15304 0.02155
 C375 C 0.74456 0.16455 0.03568
 C376 C 0.77138 0.14901 0.04301
 C377 C 0.76854 0.13791 0.02863
 N378 N 0.75397 0.13995 0.01838
 H379 H 0.77525 0.12056 -0.03039
 H380 H 0.76498 0.09694 0.01899
 H381 H 0.78997 0.07656 0.01509
 H382 H 0.80016 0.10057 -0.03553
 H383 H 0.73077 0.15450 0.01308
 H384 H 0.73491 0.17478 0.03814
 H385 H 0.78304 0.14723 0.05102
 H386 H 0.77803 0.12774 0.02568
 C387 C 0.74050 0.16248 -0.04928
 C388 C 0.70130 0.08843 0.00838
 C389 C 0.75929 0.16252 0.04667
 C390 C 0.79725 0.08698 -0.01054
 C391 C 0.22534 0.59861 0.49132
 H392 H 0.23309 0.59791 0.47937
 C393 C 0.21106 0.58727 0.49370
 H394 H 0.20774 0.57801 0.48339
 C395 C 0.22027 0.61169 0.51918
 H396 H 0.22408 0.62102 0.52921
 C397 C 0.20590 0.60059 0.52212
 H398 H 0.19881 0.60149 0.53446
 N399 N 0.22955 0.61064 0.50389
 C400 C 0.25793 0.65239 0.47638
 H401 H 0.26986 0.65296 0.48416
 C402 C 0.25557 0.66403 0.46234
 H403 H 0.26573 0.67361 0.45943
 C404 C 0.22996 0.63954 0.47116
 H405 H 0.21990 0.63015 0.47476
 C406 C 0.22702 0.65097 0.45705
 H407 H 0.21483 0.64999 0.44972
 Zn408 Zn 0.24937 0.62523 0.49983
 N409 N 0.24532 0.64030 0.48037
 C410 C 0.27864 0.61175 0.48056
 N411 N 0.26889 0.61026 0.49552
 C412 C 0.27242 0.59755 0.50764
 C413 C 0.28647 0.58593 0.50514
 C414 C 0.29288 0.60047 0.47758
 C415 C 0.24155 0.65240 0.52336
 C416 C 0.24410 0.66382 0.53753
 C417 C 0.27166 0.64910 0.54370
 C418 C 0.26863 0.63802 0.52935
 N419 N 0.25367 0.63974 0.51962
 H420 H 0.27537 0.62160 0.47084
 H421 H 0.26430 0.59650 0.51931
 H422 H 0.28923 0.57607 0.51507
 H423 H 0.30045 0.60179 0.46556
 H424 H 0.22987 0.65359 0.51528
 H425 H 0.23419 0.67367 0.54043
 H426 H 0.28369 0.64763 0.55123
 H427 H 0.27831 0.62816 0.52594
 C428 C 0.23995 0.66338 0.45245
 C429 C 0.20110 0.58818 0.50927
 C430 C 0.25930 0.66221 0.54794
 C431 C 0.29696 0.58737 0.48998
 C432 C 0.72786 0.90233 0.50708
 H433 H 0.73656 0.90401 0.51823
 C434 C 0.71373 0.91386 0.50463
 H435 H 0.71180 0.92451 0.51391
 C436 C 0.72036 0.88675 0.48113
 H437 H 0.72307 0.87628 0.47190
 C438 C 0.70599 0.89788 0.47826
 H439 H 0.69760 0.89557 0.46697
 N440 N 0.73084 0.88903 0.49547
 C441 C 0.75858 0.84729 0.52343
 H442 H 0.77016 0.84589 0.51523
 C443 C 0.75609 0.83606 0.53779
 H444 H 0.76578 0.82594 0.54046
 C445 C 0.73160 0.86183 0.52944
 H446 H 0.72200 0.87178 0.52606
 C447 C 0.72859 0.85091 0.54393
 H448 H 0.71681 0.85283 0.55174
 Zn449 Zn 0.75054 0.87430 0.49966
 N450 N 0.74648 0.85994 0.51962
 C451 C 0.77982 0.88797 0.51854
 N452 N 0.77026 0.88910 0.50344
 C453 C 0.77409 0.90135 0.49094
 C454 C 0.78827 0.91284 0.49318
 C455 C 0.79411 0.89922 0.52134
 C456 C 0.74241 0.84638 0.47697
 C457 C 0.74476 0.83472 0.46294
 C458 C 0.77216 0.84938 0.45603
 C459 C 0.76934 0.86070 0.47023
 N460 N 0.75453 0.85918 0.48022
 H461 H 0.77632 0.87848 0.52853
 H462 H 0.76610 0.90213 0.47917
 H463 H 0.79128 0.92227 0.48292
 H464 H 0.80143 0.89824 0.53353
 H465 H 0.73088 0.84529 0.48528
 H466 H 0.73484 0.82480 0.46039
 H467 H 0.78407 0.85074 0.44827
 H468 H 0.77906 0.87062 0.47328
 C469 C 0.74093 0.83781 0.54828
 C470 C 0.70250 0.91169 0.49009
 C471 C 0.75975 0.83621 0.45220
 C472 C 0.79853 0.91184 0.50854
 C473 C 0.00697 0.22786 0.40379
 H474 H 0.01830 0.23639 0.40524
 C475 C 0.00458 0.21372 0.41531
 H476 H 0.01428 0.21130 0.42549
 C477 C -0.01938 0.22067 0.38868
 H478 H -0.02882 0.22357 0.37845
 C479 C -0.02226 0.20636 0.39987
 H480 H -0.03397 0.19840 0.39815
 N481 N -0.00486 0.23097 0.39071
 C482 C 0.02180 0.25853 0.34804
 H483 H 0.01302 0.26964 0.34636
 C484 C 0.03600 0.25622 0.33658
 H485 H 0.03821 0.26571 0.32616
 C486 C 0.02953 0.23263 0.36368
 H487 H 0.02682 0.22331 0.37407
 C488 C 0.04399 0.22991 0.35263
 H489 H 0.05228 0.21847 0.35462
 Zn490 Zn -0.00099 0.25067 0.37592
 N491 N 0.01888 0.24687 0.36133
 C492 C 0.01739 0.28063 0.38866
 N493 N 0.00274 0.27050 0.39056
 C494 C -0.00926 0.27383 0.40345
 C495 C -0.00689 0.28802 0.41489
 C496 C 0.02027 0.29496 0.39980
 C497 C -0.02336 0.24261 0.34780
 C498 C -0.03734 0.24486 0.33608
 C499 C -0.04564 0.27122 0.35184
 C500 C -0.03140 0.26855 0.36316
 N501 N -0.02069 0.25434 0.36106
 H502 H 0.02692 0.27762 0.37853
 H503 H -0.02064 0.26536 0.40488
 H504 H -0.01649 0.29033 0.42519
 H505 H 0.03188 0.30303 0.39789
 H506 H -0.01447 0.23156 0.34627
 H507 H -0.03899 0.23553 0.32544
 H508 H -0.05420 0.28243 0.35400
 H509 H -0.02895 0.27787 0.37360
 C510 C 0.04734 0.24178 0.33885
 C511 C -0.01018 0.20273 0.41340
 C512 C -0.04877 0.25932 0.33802
 C513 C 0.00804 0.29882 0.41315
 C514 C -0.00763 0.72615 0.09788
 H515 H -0.01926 0.73434 0.09678
 C516 C -0.00521 0.71203 0.08636
 H517 H -0.01501 0.70952 0.07632
 C518 C 0.01954 0.71997 0.11196
 H519 H 0.02925 0.72321 0.12182
 C520 C 0.02247 0.70570 0.10074
 H521 H 0.03431 0.69790 0.10236
 N522 N 0.00458 0.72975 0.11047
 C523 C -0.02264 0.75741 0.15280
 H524 H -0.01444 0.76901 0.15395
 C525 C -0.03674 0.75493 0.16437
 H526 H -0.03921 0.76466 0.17449
 C527 C -0.02889 0.73037 0.13856
 H528 H -0.02569 0.72072 0.12862
 C529 C -0.04313 0.72738 0.14982
 H530 H -0.05095 0.71557 0.14815
 Zn531 Zn 0.00053 0.74941 0.12525
 N532 N -0.01909 0.74529 0.14011
 C533 C -0.01850 0.77901 0.11228
 N534 N -0.00365 0.76910 0.11053
 C535 C 0.00838 0.77259 0.09772
 C536 C 0.00587 0.78671 0.08620
 C537 C -0.02149 0.79331 0.10110
 C538 C 0.02398 0.74135 0.15251
 C539 C 0.03820 0.74379 0.16391
 C540 C 0.04444 0.77139 0.14933
 C541 C 0.03008 0.76843 0.13823
 N542 N 0.02030 0.75351 0.13989
 H543 H -0.02812 0.77580 0.12225
 H544 H 0.01997 0.76437 0.09649
 H545 H 0.01572 0.78943 0.07624
 H546 H -0.03344 0.80098 0.10260
 H547 H 0.01579 0.72975 0.15374
 H548 H 0.04079 0.73404 0.17399
 H549 H 0.05224 0.78320 0.14759
 H550 H 0.02678 0.77809 0.12834
 C551 C -0.04724 0.73976 0.16294
 C552 C 0.01000 0.70156 0.08772
 C553 C 0.04868 0.75897 0.16239
 C554 C -0.00921 0.79732 0.08785
 C555 C 0.49141 0.22636 0.59774
 H556 H 0.47984 0.23458 0.59638
 C557 C 0.49390 0.21205 0.58647
 H558 H 0.48420 0.20942 0.57635
 C559 C 0.51839 0.22027 0.61223
 H560 H 0.52799 0.22361 0.62217
 C561 C 0.52139 0.20582 0.60126
 H562 H 0.53317 0.19799 0.60313
 N563 N 0.50352 0.23011 0.61038
 C564 C 0.47588 0.25866 0.65185
 H565 H 0.48387 0.27043 0.65267
 C566 C 0.46166 0.25639 0.66330
 H567 H 0.45862 0.26664 0.67273
 C568 C 0.47016 0.23109 0.63842
 H569 H 0.47368 0.22111 0.62892
 C570 C 0.45584 0.22826 0.64962
 H571 H 0.44851 0.21607 0.64861
 Zn572 Zn 0.49945 0.25003 0.62479
 N573 N 0.47973 0.24619 0.63959
 C574 C 0.48061 0.27951 0.61130
 N575 N 0.49543 0.26953 0.60972
 C576 C 0.50752 0.27283 0.59691
 C577 C 0.50514 0.28688 0.58528
 C578 C 0.47776 0.29375 0.60001
 C579 C 0.52219 0.24255 0.65274
 C580 C 0.53630 0.24503 0.66426
 C581 C 0.54392 0.27152 0.64836
 C582 C 0.52957 0.26861 0.63723
 N583 N 0.51916 0.25421 0.63949
 H584 H 0.47091 0.27643 0.62123
 H585 H 0.51906 0.26453 0.59578
 H586 H 0.51504 0.28947 0.57533
 H587 H 0.46585 0.30149 0.60141
 H588 H 0.51353 0.23135 0.65440
 H589 H 0.53828 0.23573 0.67488
 H590 H 0.55226 0.28287 0.64607
 H591 H 0.52682 0.27788 0.62681
 C592 C 0.45138 0.24103 0.66225
 C593 C 0.50905 0.20154 0.58816
 C594 C 0.54746 0.25966 0.66213
 C595 C 0.49013 0.29761 0.58681
 C596 C 0.50698 0.72740 0.90341
 H597 H 0.51855 0.73564 0.90459
 C598 C 0.50461 0.71319 0.91484
 H599 H 0.51455 0.71043 0.92469
 C600 C 0.48001 0.72102 0.88904
 H601 H 0.47030 0.72427 0.87918
 C602 C 0.47716 0.70662 0.90014
 H603 H 0.46524 0.69893 0.89867
 N604 N 0.49484 0.73094 0.89072
 C605 C 0.52243 0.75896 0.84887
 H606 H 0.51423 0.77057 0.84777
 C607 C 0.53666 0.75662 0.83745
 H608 H 0.53924 0.76647 0.82747
 C609 C 0.52853 0.73173 0.86288
 H610 H 0.52522 0.72196 0.87267
 C611 C 0.54291 0.72888 0.85175
 H612 H 0.55071 0.71705 0.85337
 Zn613 Zn 0.49892 0.75065 0.87599
 N614 N 0.51874 0.74667 0.86137
 C615 C 0.51800 0.77984 0.88961
 N616 N 0.50284 0.77035 0.89077
 C617 C 0.49034 0.77427 0.90299
 C618 C 0.49263 0.78851 0.91439
 C619 C 0.52085 0.79417 0.90076
 C620 C 0.47582 0.74235 0.84854
 C621 C 0.46172 0.74465 0.83696
 C622 C 0.45527 0.77240 0.85113
 C623 C 0.46952 0.76958 0.86242
 N624 N 0.47933 0.75464 0.86107
 H625 H 0.52800 0.77625 0.88015
 H626 H 0.47852 0.76634 0.90380
 H627 H 0.48236 0.79161 0.92379
 H628 H 0.53308 0.80145 0.89975
 H629 H 0.48404 0.73075 0.84754
 H630 H 0.45926 0.73478 0.82697
 H631 H 0.44743 0.78422 0.85265
 H632 H 0.47270 0.77938 0.87220
 C633 C 0.54715 0.74143 0.83882
 C634 C 0.48957 0.70254 0.91323
 C635 C 0.45118 0.75983 0.83820
 C636 C 0.50804 0.79872 0.91333
 C637 C 0.15034 0.22162 0.25718
 C638 C 0.15369 0.20470 0.25047
 C639 C 0.16799 0.20177 0.23924
 C640 C 0.17911 0.21573 0.23435
 C641 C 0.17572 0.23267 0.24099
 C642 C 0.16153 0.23557 0.25238
 C643 C 0.13522 0.22471 0.26915
 C644 C 0.13730 0.23488 0.28446
 C645 C 0.12307 0.23768 0.29581
 C646 C 0.10643 0.23054 0.29197
 C647 C 0.10432 0.22047 0.27660
 C648 C 0.11860 0.21750 0.26535
 C649 C 0.09132 0.23353 0.30398
 C650 C 0.07472 0.23818 0.29724
 C651 C 0.06047 0.24100 0.30857
 C652 C 0.06250 0.23902 0.32685
 C653 C 0.07909 0.23432 0.33359
 C654 C 0.09339 0.23169 0.32227
 H655 H 0.14535 0.19370 0.25407
 H656 H 0.17024 0.18862 0.23419
 H657 H 0.18417 0.24363 0.23753
 H658 H 0.15916 0.24876 0.25726
 H659 H 0.15001 0.24047 0.28776
 H660 H 0.12501 0.24560 0.30750
 H661 H 0.09167 0.21470 0.27341
 H662 H 0.11661 0.20974 0.25356
 H663 H 0.07280 0.23981 0.28321
 H664 H 0.04779 0.24448 0.30303
 H665 H 0.08105 0.23284 0.34763
 H666 H 0.10601 0.22799 0.32779
 C667 C 0.65043 0.72216 0.75681
 C668 C 0.65454 0.70513 0.75082
 C669 C 0.66885 0.70237 0.73956
 C670 C 0.67932 0.71659 0.73399
 C671 C 0.67520 0.73362 0.73995
 C672 C 0.66093 0.73638 0.75128
 C673 C 0.63526 0.72507 0.76881
 C674 C 0.63671 0.73662 0.78318
 C675 C 0.62245 0.73929 0.79453
 C676 C 0.60638 0.73051 0.79172
 C677 C 0.60492 0.71900 0.77729
 C678 C 0.61920 0.71630 0.76599
 C679 C 0.59121 0.73331 0.80379
 C680 C 0.58034 0.71915 0.80872
 C681 C 0.56606 0.72178 0.82005
 C682 C 0.56234 0.73863 0.82677
 C683 C 0.57322 0.75279 0.82186
 C684 C 0.58748 0.75016 0.81050
 H685 H 0.64679 0.69391 0.75500
 H686 H 0.67162 0.68913 0.73505
 H687 H 0.68313 0.74481 0.73600
 H688 H 0.65799 0.74966 0.75555
 H689 H 0.64900 0.74337 0.78583
 H690 H 0.62410 0.74801 0.80568
 H691 H 0.59264 0.71227 0.77458
 H692 H 0.61761 0.70752 0.75486
 H693 H 0.58297 0.70597 0.80395
 H694 H 0.55782 0.71063 0.82340
 H695 H 0.57083 0.76590 0.82695
 H696 H 0.59548 0.76139 0.80682
 C697 C 0.34799 0.77886 0.75615
 C698 C 0.33760 0.76463 0.75046
 C699 C 0.32338 0.76737 0.73909
 C700 C 0.31919 0.78442 0.73321
 C701 C 0.32956 0.79865 0.73888
 C702 C 0.34381 0.79590 0.75021
 C703 C 0.36312 0.77596 0.76823
 C704 C 0.36672 0.78799 0.78184
 C705 C 0.38101 0.78534 0.79313
 C706 C 0.39201 0.77057 0.79112
 C707 C 0.38839 0.75851 0.77757
 C708 C 0.37413 0.76119 0.76624
 C709 C 0.40720 0.76779 0.80310
 C710 C 0.41102 0.75093 0.80973
 C711 C 0.42527 0.74835 0.82110
 C712 C 0.43606 0.76256 0.82605
 C713 C 0.43227 0.77941 0.81935
 C714 C 0.41799 0.78200 0.80803
 H715 H 0.34029 0.75138 0.75501
 H716 H 0.31548 0.75619 0.73509
 H717 H 0.32682 0.81189 0.73433
 H718 H 0.35173 0.80711 0.75408
 H719 H 0.35833 0.79934 0.78393
 H720 H 0.38331 0.79471 0.80362
 H721 H 0.39678 0.74714 0.77555
 H722 H 0.37189 0.75183 0.75572
 H723 H 0.40279 0.73978 0.80636
 H724 H 0.42765 0.73526 0.82624
 H725 H 0.44051 0.79057 0.82265
 H726 H 0.41554 0.79509 0.80292
 C727 C -0.15066 0.27831 0.25422
 C728 C -0.15861 0.26409 0.24553
 C729 C -0.17276 0.26684 0.23408
 C730 C -0.17959 0.28393 0.23115
 C731 C -0.17147 0.29813 0.24006
 C732 C -0.15718 0.29534 0.25131
 C733 C -0.13565 0.27538 0.26634
 C734 C -0.12068 0.28622 0.26554
 C735 C -0.10655 0.28350 0.27701
 C736 C -0.10713 0.26998 0.28968
 C737 C -0.12217 0.25916 0.29046
 C738 C -0.13622 0.26178 0.27887
 C739 C -0.09217 0.26723 0.30205
 C740 C -0.08716 0.25015 0.30722
 C741 C -0.07318 0.24759 0.31891
 C742 C -0.06373 0.26203 0.32564
 C743 C -0.06869 0.27910 0.32041
 C744 C -0.08277 0.28167 0.30884
 H745 H -0.15381 0.25081 0.24754
 H746 H -0.17873 0.25534 0.22818
 H747 H -0.17561 0.31160 0.23791
 H748 H -0.15128 0.30655 0.25788
 H749 H -0.11982 0.29666 0.25585
 H750 H -0.09506 0.29186 0.27579
 H751 H -0.12322 0.24884 0.30025
 H752 H -0.14771 0.25337 0.27990
 H753 H -0.09394 0.23871 0.30209
 H754 H -0.06988 0.23427 0.32282
 H755 H -0.06158 0.29053 0.32511
 H756 H -0.08639 0.29502 0.30535
 C757 C -0.15021 0.71941 0.24508
 C758 C -0.15435 0.70230 0.25081
 C759 C -0.16865 0.69940 0.26204
 C760 C -0.17908 0.71356 0.26786
 C761 C -0.17491 0.73068 0.26216
 C762 C -0.16066 0.73357 0.25086
 C763 C -0.13505 0.72248 0.23310
 C764 C -0.13652 0.73427 0.21892
 C765 C -0.12227 0.73710 0.20759
 C766 C -0.10621 0.72824 0.21023
 C767 C -0.10474 0.71649 0.22447
 C768 C -0.11900 0.71362 0.23576
 C769 C -0.09107 0.73121 0.19816
 C770 C -0.08022 0.71711 0.19300
 C771 C -0.06600 0.71989 0.18162
 C772 C -0.06231 0.73683 0.17510
 C773 C -0.07315 0.75093 0.18027
 C774 C -0.08735 0.74816 0.19168
 H775 H -0.14664 0.69112 0.24644
 H776 H -0.17146 0.68609 0.26634
 H777 H -0.18281 0.74182 0.26630
 H778 H -0.15769 0.74691 0.24679
 H779 H -0.14880 0.74109 0.21639
 H780 H -0.12394 0.74601 0.19658
 H781 H -0.09246 0.70969 0.22705
 H782 H -0.11740 0.70466 0.24673
 H783 H -0.08283 0.70386 0.19759
 H784 H -0.05779 0.70877 0.17807
 H785 H -0.07079 0.76411 0.17534
 H786 H -0.09533 0.75934 0.19555
 C787 C 0.34828 0.22117 0.74430
 C788 C 0.34910 0.22653 0.76195
 C789 C 0.33492 0.22359 0.77333
 C790 C 0.31943 0.21508 0.76744
 C791 C 0.31879 0.20975 0.74961
 C792 C 0.33297 0.21280 0.73826
 C793 C 0.36340 0.22424 0.73226
 C794 C 0.36058 0.23001 0.71491
 C795 C 0.37481 0.23286 0.70357
 C796 C 0.39218 0.22997 0.70932
 C797 C 0.39499 0.22420 0.72668
 C798 C 0.38076 0.22139 0.73803
 C799 C 0.40732 0.23290 0.69724
 C800 C 0.42296 0.24067 0.70340
 C801 C 0.43722 0.24333 0.69207
 C802 C 0.43619 0.23829 0.67429
 C803 C 0.42053 0.23057 0.66812
 C804 C 0.40627 0.22790 0.67946
 H805 H 0.36072 0.23309 0.76698
 H806 H 0.33662 0.22742 0.78693
 H807 H 0.30713 0.20380 0.74402
 H808 H 0.33197 0.20846 0.72472
 H809 H 0.34736 0.23257 0.71018
 H810 H 0.37222 0.23757 0.69037
 H811 H 0.40819 0.22157 0.73142
 H812 H 0.38334 0.21668 0.75124
 H813 H 0.42412 0.24484 0.71698
 H814 H 0.44916 0.24914 0.69728
 H815 H 0.41924 0.22672 0.65445
 H816 H 0.39448 0.22171 0.67434
 C817 C 0.65050 0.27973 0.74421
 C818 C 0.65664 0.29686 0.74733
 C819 C 0.67095 0.29979 0.75852
 C820 C 0.67947 0.28564 0.76715
 C821 C 0.67307 0.26845 0.76395
 C822 C 0.65889 0.26556 0.75257
 C823 C 0.63536 0.27667 0.73227
 C824 C 0.63599 0.26323 0.71960
 C825 C 0.62178 0.26047 0.70822
 C826 C 0.60656 0.27100 0.70937
 C827 C 0.60593 0.28438 0.72217
 C828 C 0.62021 0.28723 0.73343
 C829 C 0.59142 0.26808 0.69726
 C830 C 0.58164 0.28241 0.69074
 C831 C 0.56738 0.27968 0.67943
 C832 C 0.56261 0.26256 0.67422
 C833 C 0.57243 0.24823 0.68069
 C834 C 0.58661 0.25096 0.69211
 H835 H 0.65041 0.30804 0.74101
 H836 H 0.67473 0.31332 0.76087
 H837 H 0.67936 0.25699 0.76963
 H838 H 0.65439 0.25220 0.75040
 H839 H 0.64761 0.25504 0.71828
 H840 H 0.62286 0.25027 0.69833
 H841 H 0.59430 0.29251 0.72367
 H842 H 0.61929 0.29753 0.74325
 H843 H 0.58511 0.29579 0.69422
 H844 H 0.55999 0.29101 0.67491
 H845 H 0.56929 0.23489 0.67680
 H846 H 0.59369 0.23960 0.69705
 C847 C 0.15192 0.77929 0.24404
 C848 C 0.15585 0.79639 0.24994
 C849 C 0.17007 0.79934 0.26123
 C850 C 0.18065 0.78525 0.26692
 C851 C 0.17674 0.76815 0.26103
 C852 C 0.16255 0.76521 0.24967
 C853 C 0.13675 0.77618 0.23211
 C854 C 0.13827 0.76451 0.21783
 C855 C 0.12401 0.76168 0.20654
 C856 C 0.10789 0.77041 0.20931
 C857 C 0.10637 0.78201 0.22365
 C858 C 0.12064 0.78488 0.23490
 C859 C 0.09273 0.76746 0.19727
 C860 C 0.08181 0.78156 0.19225
 C861 C 0.06754 0.77880 0.18096
 C862 C 0.06386 0.76189 0.17440
 C863 C 0.07479 0.74779 0.17941
 C864 C 0.08905 0.75054 0.19072
 H865 H 0.14800 0.80753 0.24569
 H866 H 0.17266 0.81263 0.26571
 H867 H 0.18474 0.75706 0.26512
 H868 H 0.15975 0.75187 0.24548
 H869 H 0.15059 0.75781 0.21520
 H870 H 0.12569 0.75287 0.19545
 H871 H 0.09405 0.78870 0.22633
 H872 H 0.11899 0.79373 0.24596
 H873 H 0.08441 0.79479 0.19690
 H874 H 0.05927 0.78991 0.17752
 H875 H 0.07243 0.73464 0.17444
 H876 H 0.09709 0.73937 0.19448
 C877 C 0.25460 0.15116 0.22229
 C878 C 0.24890 0.16158 0.23648
 C879 C 0.23756 0.17583 0.23368
 C880 C 0.23175 0.18001 0.21662
 C881 C 0.23746 0.16960 0.20243
 C882 C 0.24873 0.15531 0.20523
 C883 C 0.26666 0.13604 0.22525
 C884 C 0.26402 0.12002 0.21638
 C885 C 0.27540 0.10580 0.21914
 C886 C 0.28971 0.10730 0.23080
 C887 C 0.29233 0.12333 0.23967
 C888 C 0.28092 0.13753 0.23695
 C889 C 0.30188 0.09222 0.23364
 C890 C 0.30845 0.08844 0.25053
 C891 C 0.31995 0.07430 0.25318
 C892 C 0.32514 0.06358 0.23901
 C893 C 0.31855 0.06733 0.22213
 C894 C 0.30707 0.08149 0.21947
 H895 H 0.25306 0.15860 0.24979
 H896 H 0.23351 0.18371 0.24485
 H897 H 0.23306 0.17241 0.18916
 H898 H 0.25303 0.14762 0.19402
 H899 H 0.25299 0.11840 0.20749
 H900 H 0.27284 0.09354 0.21233
 H901 H 0.30340 0.12501 0.24851
 H902 H 0.28344 0.14980 0.24377
 H903 H 0.30456 0.09633 0.26175
 H904 H 0.32494 0.07188 0.26632
 H905 H 0.32212 0.05921 0.21097
 H906 H 0.30241 0.08415 0.20627
 C907 C 0.75515 0.65244 0.72202
 C908 C 0.74922 0.65656 0.70498
 C909 C 0.73797 0.67086 0.70218
 C910 C 0.73234 0.68132 0.71638
 C911 C 0.73825 0.67720 0.73342
 C912 C 0.74957 0.66294 0.73620
 C913 C 0.76712 0.63725 0.72497
 C914 C 0.78147 0.63869 0.73657
 C915 C 0.79278 0.62441 0.73929
 C916 C 0.78997 0.60835 0.73051
 C917 C 0.77557 0.60692 0.71896
 C918 C 0.76430 0.62121 0.71620
 C919 C 0.80203 0.59317 0.73336
 C920 C 0.80699 0.58230 0.71923
 C921 C 0.81833 0.56804 0.72189
 C922 C 0.82500 0.56431 0.73875
 C923 C 0.82003 0.57518 0.75289
 C924 C 0.80867 0.58944 0.75023
 H925 H 0.75344 0.64881 0.69377
 H926 H 0.73350 0.67363 0.68893
 H927 H 0.73425 0.68512 0.74458
 H928 H 0.75379 0.65999 0.74950
 H929 H 0.78412 0.65096 0.74333
 H930 H 0.80391 0.62604 0.74806
 H931 H 0.77286 0.59465 0.71222
 H932 H 0.75319 0.61964 0.70739
 H933 H 0.80227 0.58493 0.70604
 H934 H 0.82172 0.55980 0.71076
 H935 H 0.82509 0.57279 0.76600
 H936 H 0.80495 0.59743 0.76143
 C937 C 0.75408 0.35056 0.77960
 C938 C 0.74800 0.34641 0.79659
 C939 C 0.73674 0.33208 0.79927
 C940 C 0.73124 0.32167 0.78500
 C941 C 0.73726 0.32586 0.76801
 C942 C 0.74858 0.34013 0.76535
 C943 C 0.76616 0.36568 0.77677
 C944 C 0.78055 0.36418 0.76521
 C945 C 0.79194 0.37839 0.76254
 C946 C 0.78918 0.39445 0.77134
 C947 C 0.77477 0.39594 0.78289
 C948 C 0.76341 0.38171 0.78559
 C949 C 0.80130 0.40957 0.76849
 C950 C 0.80635 0.42039 0.78262
 C951 C 0.81777 0.43458 0.77995
 C952 C 0.82444 0.43827 0.76307
 C953 C 0.81938 0.42746 0.74893
 C954 C 0.80794 0.41328 0.75161
 H955 H 0.75215 0.35410 0.80785
 H956 H 0.73220 0.32923 0.81248
 H957 H 0.73339 0.31795 0.75680
 H958 H 0.75291 0.34311 0.75209
 H959 H 0.78317 0.35191 0.75843
 H960 H 0.80309 0.37671 0.75379
 H961 H 0.77211 0.40821 0.78965
 H962 H 0.75228 0.38333 0.79438
 H963 H 0.80162 0.41777 0.79582
 H964 H 0.82124 0.44277 0.79108
 H965 H 0.82443 0.42982 0.73581
 H966 H 0.80416 0.40532 0.74041
 C967 C 0.25567 -0.15035 0.27995
 C968 C 0.25239 -0.15663 0.29700
 C969 C 0.24113 -0.17094 0.29972
 C970 C 0.23258 -0.17929 0.28545
 C971 C 0.23592 -0.17272 0.26835
 C972 C 0.24736 -0.15856 0.26566
 C973 C 0.26773 -0.13526 0.27707
 C974 C 0.28048 -0.13584 0.26368
 C975 C 0.29190 -0.12165 0.26101
 C976 C 0.29073 -0.10648 0.27158
 C977 C 0.27788 -0.10591 0.28494
 C978 C 0.26657 -0.12017 0.28770
 C979 C 0.30284 -0.09134 0.26870
 C980 C 0.30936 -0.08160 0.28303
 C981 C 0.32068 -0.06733 0.28032
 C982 C 0.32589 -0.06251 0.26321
 C983 C 0.31942 -0.07229 0.24888
 C984 C 0.30800 -0.08647 0.25159
 H985 H 0.25866 -0.15054 0.30826
 H986 H 0.23868 -0.17488 0.31319
 H987 H 0.23033 -0.17889 0.25679
 H988 H 0.24965 -0.15394 0.25236
 H989 H 0.28179 -0.14742 0.25545
 H990 H 0.30184 -0.12269 0.25083
 H991 H 0.27638 -0.09433 0.29311
 H992 H 0.25670 -0.11930 0.29798
 H993 H 0.30586 -0.08511 0.29640
 H994 H 0.32519 -0.05997 0.29165
 H995 H 0.32333 -0.06910 0.23555
 H996 H 0.30306 -0.09352 0.24022
 C997 C 0.24332 -0.15210 0.72084
 C998 C 0.25182 -0.16021 0.73507
 C999 C 0.26331 -0.17434 0.73234
 C1000 C 0.26649 -0.18097 0.71523
 C1001 C 0.25768 -0.17277 0.70102
 C1002 C 0.24638 -0.15849 0.70380
 C1003 C 0.23133 -0.13696 0.72376
 C1004 C 0.23243 -0.12192 0.71304
 C1005 C 0.22122 -0.10759 0.71586
 C1006 C 0.20852 -0.10803 0.72937
 C1007 C 0.20740 -0.12315 0.74003
 C1008 C 0.21874 -0.13741 0.73731
 C1009 C 0.19652 -0.09279 0.73231
 C1010 C 0.19154 -0.08784 0.74945
 C1011 C 0.18021 -0.07358 0.75219
 C1012 C 0.17367 -0.06381 0.73789
 C1013 C 0.17871 -0.06871 0.72076
 C1014 C 0.18992 -0.08306 0.71800
 H1015 H 0.24970 -0.15552 0.74837
 H1016 H 0.26909 -0.18041 0.74385
 H1017 H 0.25998 -0.17677 0.68755
 H1018 H 0.23994 -0.15248 0.69258
 H1019 H 0.24218 -0.12115 0.70265
 H1020 H 0.22269 -0.09604 0.70761
 H1021 H 0.19758 -0.12409 0.75033
 H1022 H 0.21747 -0.14894 0.74562
 H1023 H 0.19655 -0.09488 0.76079
 H1024 H 0.17644 -0.07034 0.76555
 H1025 H 0.17413 -0.06135 0.70943
 H1026 H 0.19327 -0.08662 0.70461
 C1027 C 0.74463 0.34778 0.22005
 C1028 C 0.73798 0.33128 0.21489
 C1029 C 0.74934 0.31708 0.21201
 C1030 C 0.76764 0.31903 0.21418
 C1031 C 0.77430 0.33553 0.21930
 C1032 C 0.76293 0.34972 0.22224
 C1033 C 0.73254 0.36289 0.22315
 C1034 C 0.73733 0.38001 0.21792
 C1035 C 0.72599 0.39422 0.22087
 C1036 C 0.70956 0.39163 0.22902
 C1037 C 0.70474 0.37453 0.23421
 C1038 C 0.71612 0.36033 0.23135
 C1039 C 0.69749 0.40671 0.23205
 C1040 C 0.67934 0.40506 0.22871
 C1041 C 0.66799 0.41930 0.23142
 C1042 C 0.67451 0.43547 0.23764
 C1043 C 0.69264 0.43709 0.24107
 C1044 C 0.70401 0.42287 0.23825
 H1045 H 0.72398 0.32939 0.21289
 H1046 H 0.74377 0.30450 0.20826
 H1047 H 0.78834 0.33752 0.22089
 H1048 H 0.76848 0.36217 0.22640
 H1049 H 0.74974 0.38240 0.21130
 H1050 H 0.72994 0.40721 0.21649
 H1051 H 0.69227 0.37218 0.24075
 H1052 H 0.71216 0.34737 0.23581
 H1053 H 0.67397 0.39281 0.22378
 H1054 H 0.65406 0.41763 0.22882
 H1055 H 0.69807 0.44943 0.24571
 H1056 H 0.71791 0.42448 0.24108
 C1057 C 0.74490 0.64939 0.27904
 C1058 C 0.73821 0.66582 0.28438
 C1059 C 0.74955 0.68003 0.28732
 C1060 C 0.76784 0.67813 0.28505
 C1061 C 0.77452 0.66170 0.27971
 C1062 C 0.76319 0.64751 0.27673
 C1063 C 0.73284 0.63427 0.27592
 C1064 C 0.73768 0.61714 0.28106
 C1065 C 0.72634 0.60294 0.27815
 C1066 C 0.70987 0.60554 0.27011
 C1067 C 0.70501 0.62266 0.26498
 C1068 C 0.71638 0.63685 0.26782
 C1069 C 0.69778 0.59048 0.26713
 C1070 C 0.67964 0.59215 0.27052
 C1071 C 0.66827 0.57793 0.26784
 C1072 C 0.67477 0.56175 0.26162
 C1073 C 0.69290 0.56009 0.25815
 C1074 C 0.70429 0.57429 0.26093
 H1075 H 0.72422 0.66767 0.28647
 H1076 H 0.74395 0.69256 0.29121
 H1077 H 0.78856 0.65975 0.27803
 H1078 H 0.76875 0.63509 0.27243
 H1079 H 0.75012 0.61474 0.28761
 H1080 H 0.73032 0.58994 0.28248
 H1081 H 0.69251 0.62502 0.25851
 H1082 H 0.71238 0.64982 0.26343
 H1083 H 0.67428 0.60442 0.27546
 H1084 H 0.65435 0.57964 0.27048
 H1085 H 0.69831 0.54774 0.25350
 H1086 H 0.71817 0.57266 0.25805
 C1087 C 0.24429 0.15046 0.77891
 C1088 C 0.26257 0.14862 0.77650
 C1089 C 0.27389 0.16284 0.77941
 C1090 C 0.26720 0.17926 0.78475
 C1091 C 0.24892 0.18111 0.78716
 C1092 C 0.23760 0.16688 0.78429
 C1093 C 0.23224 0.13533 0.77586
 C1094 C 0.21574 0.13787 0.76784
 C1095 C 0.20438 0.12366 0.76506
 C1096 C 0.20929 0.10656 0.77017
 C1097 C 0.22580 0.10398 0.77813
 C1098 C 0.23714 0.11820 0.78098
 C1099 C 0.19720 0.09147 0.76727
 C1100 C 0.20369 0.07528 0.76106
 C1101 C 0.19230 0.06107 0.75837
 C1102 C 0.17420 0.06271 0.76192
 C1103 C 0.16771 0.07889 0.76815
 C1104 C 0.17908 0.09313 0.77075
 H1105 H 0.26813 0.13621 0.77218
 H1106 H 0.28793 0.16092 0.77765
 H1107 H 0.24334 0.19363 0.79110
 H1108 H 0.22361 0.16869 0.78648
 H1109 H 0.21169 0.15084 0.76347
 H1110 H 0.19184 0.12600 0.75866
 H1111 H 0.22983 0.09099 0.78244
 H1112 H 0.24962 0.11583 0.78746
 H1113 H 0.21757 0.07366 0.75812
 H1114 H 0.19770 0.04871 0.75371
 H1115 H 0.15380 0.08060 0.77085
 H1116 H 0.17373 0.10540 0.77569
 C1117 C 0.22029 0.25591 0.15255
 C1118 C 0.20319 0.25016 0.15674
 C1119 C 0.20033 0.23897 0.17108
 C1120 C 0.21453 0.23323 0.18149
 C1121 C 0.23163 0.23897 0.17730
 C1122 C 0.23448 0.25023 0.16301
 C1123 C 0.22332 0.26776 0.13730
 C1124 C 0.23506 0.28200 0.13862
 C1125 C 0.23785 0.29320 0.12427
 C1126 C 0.22900 0.29036 0.10826
 C1127 C 0.21729 0.27607 0.10695
 C1128 C 0.21447 0.26492 0.12131
 C1129 C 0.23194 0.30227 0.09300
 C1130 C 0.21783 0.30727 0.08210
 C1131 C 0.22058 0.31845 0.06774
 C1132 C 0.23752 0.32493 0.06395
 C1133 C 0.25164 0.31995 0.07485
 C1134 C 0.24888 0.30874 0.08920
 H1135 H 0.19199 0.25445 0.14903
 H1136 H 0.18703 0.23463 0.17390
 H1137 H 0.24280 0.23487 0.18518
 H1138 H 0.24782 0.25431 0.16001
 H1139 H 0.24188 0.28467 0.15085
 H1140 H 0.24673 0.30425 0.12581
 H1141 H 0.21050 0.27334 0.09472
 H1142 H 0.20554 0.25389 0.11983
 H1143 H 0.20458 0.30268 0.08478
 H1144 H 0.20946 0.32186 0.05949
 H1145 H 0.26481 0.32486 0.07242
 H1146 H 0.26007 0.30499 0.09721
 C1147 C 0.72048 0.75706 0.65223
 C1148 C 0.70340 0.75120 0.65635
 C1149 C 0.70055 0.73998 0.67067
 C1150 C 0.71474 0.73433 0.68114
 C1151 C 0.73182 0.74019 0.67702
 C1152 C 0.73466 0.75146 0.66274
 C1153 C 0.72350 0.76893 0.63699
 C1154 C 0.73523 0.78319 0.63832
 C1155 C 0.73805 0.79436 0.62397
 C1156 C 0.72925 0.79151 0.60794
 C1157 C 0.71755 0.77721 0.60661
 C1158 C 0.71469 0.76607 0.62097
 C1159 C 0.73225 0.80339 0.59267
 C1160 C 0.71816 0.80841 0.58175
 C1161 C 0.72098 0.81955 0.56737
 C1162 C 0.73795 0.82596 0.56358
 C1163 C 0.75203 0.82095 0.57450
 C1164 C 0.74922 0.80979 0.58887
 H1165 H 0.69219 0.75542 0.64859
 H1166 H 0.68727 0.73555 0.67343
 H1167 H 0.74298 0.73618 0.68494
 H1168 H 0.74798 0.75563 0.65979
 H1169 H 0.74201 0.78587 0.65057
 H1170 H 0.74693 0.80542 0.62551
 H1171 H 0.71079 0.77447 0.59436
 H1172 H 0.70578 0.75503 0.61947
 H1173 H 0.70490 0.80387 0.58442
 H1174 H 0.70988 0.82299 0.55910
 H1175 H 0.76523 0.82580 0.57206
 H1176 H 0.76039 0.80601 0.59691
 C1177 C 0.77956 0.75388 0.34949
 C1178 C 0.78497 0.76057 0.33311
 C1179 C 0.78778 0.74927 0.31887
 C1180 C 0.78531 0.73100 0.32070
 C1181 C 0.77992 0.72432 0.33711
 C1182 C 0.77703 0.73564 0.35133
 C1183 C 0.77661 0.76590 0.36462
 C1184 C 0.76197 0.76364 0.37573
 C1185 C 0.75915 0.77502 0.38992
 C1186 C 0.77095 0.78888 0.39336
 C1187 C 0.78563 0.79107 0.38226
 C1188 C 0.78840 0.77974 0.36804
 C1189 C 0.76796 0.80101 0.40843
 C1190 C 0.77151 0.81912 0.40678
 C1191 C 0.76884 0.83051 0.42097
 C1192 C 0.76249 0.82409 0.43712
 C1193 C 0.75885 0.80602 0.43877
 C1194 C 0.76159 0.79460 0.42460
 H1195 H 0.78677 0.77460 0.33123
 H1196 H 0.79164 0.75487 0.30633
 H1197 H 0.77819 0.71030 0.33905
 H1198 H 0.77311 0.73009 0.36387
 H1199 H 0.75253 0.75323 0.37327
 H1200 H 0.74757 0.77313 0.39803
 H1201 H 0.79514 0.80141 0.38472
 H1202 H 0.79994 0.78164 0.35985
 H1203 H 0.77612 0.82454 0.39442
 H1204 H 0.77151 0.84442 0.41923
 H1205 H 0.75418 0.80065 0.45113
 H1206 H 0.75900 0.78069 0.42640
 C1207 C 0.27911 0.25413 -0.15029
 C1208 C 0.28305 0.26111 -0.16697
 C1209 C 0.28596 0.24997 -0.18132
 C1210 C 0.28492 0.23159 -0.17931
 C1211 C 0.28094 0.22460 -0.16265
 C1212 C 0.27810 0.23575 -0.14828
 C1213 C 0.27609 0.26598 -0.13504
 C1214 C 0.28318 0.26193 -0.11844
 C1215 C 0.28045 0.27318 -0.10413
 C1216 C 0.27050 0.28868 -0.10609
 C1217 C 0.26334 0.29268 -0.12267
 C1218 C 0.26613 0.28148 -0.13700
 C1219 C 0.26766 0.30066 -0.09091
 C1220 C 0.25109 0.30842 -0.08799
 C1221 C 0.24844 0.31977 -0.07375
 C1222 C 0.26233 0.32368 -0.06216
 C1223 C 0.27890 0.31592 -0.06508
 C1224 C 0.28153 0.30451 -0.07927
 H1225 H 0.28409 0.27521 -0.16889
 H1226 H 0.28882 0.25573 -0.19405
 H1227 H 0.28019 0.21049 -0.16069
 H1228 H 0.27492 0.22999 -0.13563
 H1229 H 0.29105 0.25017 -0.11657
 H1230 H 0.28599 0.26965 -0.09147
 H1231 H 0.25576 0.30461 -0.12463
 H1232 H 0.26035 0.28486 -0.14959
 H1233 H 0.24011 0.30557 -0.09664
 H1234 H 0.23557 0.32567 -0.07194
 H1235 H 0.28980 0.31854 -0.05627
 H1236 H 0.29449 0.29887 -0.08128
 C1237 C 0.72070 0.24482 -0.15198
 C1238 C 0.71659 0.23814 -0.16874
 C1239 C 0.71363 0.24954 -0.18288
 C1240 C 0.71480 0.26788 -0.18060
 C1241 C 0.71899 0.27456 -0.16387
 C1242 C 0.72187 0.26316 -0.14971
 C1243 C 0.72368 0.23272 -0.13691
 C1244 C 0.71670 0.23664 -0.12021
 C1245 C 0.71944 0.22524 -0.10603
 C1246 C 0.72927 0.20969 -0.10820
 C1247 C 0.73629 0.20580 -0.12488
 C1248 C 0.73349 0.21717 -0.13909
 C1249 C 0.73216 0.19758 -0.09312
 C1250 C 0.74872 0.18975 -0.09036
 C1251 C 0.75144 0.17839 -0.07612
 C1252 C 0.73763 0.17456 -0.06438
 C1253 C 0.72107 0.18237 -0.06717
 C1254 C 0.71837 0.19378 -0.08136
 H1255 H 0.71543 0.22408 -0.17085
 H1256 H 0.71058 0.24402 -0.19566
 H1257 H 0.71981 0.28863 -0.16167
 H1258 H 0.72519 0.26869 -0.13700
 H1259 H 0.70894 0.24845 -0.11817
 H1260 H 0.71402 0.22869 -0.09330
 H1261 H 0.74377 0.19383 -0.12699
 H1262 H 0.73916 0.21388 -0.15175
 H1263 H 0.75964 0.19256 -0.09911
 H1264 H 0.76430 0.17245 -0.07441
 H1265 H 0.71023 0.17982 -0.05824
 H1266 H 0.70542 0.19948 -0.08324
 C1267 C 0.22033 0.74560 0.34961
 C1268 C 0.21628 0.73877 0.33290
 C1269 C 0.21353 0.75004 0.31861
 C1270 C 0.21483 0.76839 0.32070
 C1271 C 0.21887 0.77522 0.33741
 C1272 C 0.22156 0.76395 0.35172
 C1273 C 0.22328 0.73361 0.36478
 C1274 C 0.21632 0.73766 0.38145
 C1275 C 0.21905 0.72634 0.39571
 C1276 C 0.22886 0.71076 0.39363
 C1277 C 0.23586 0.70675 0.37697
 C1278 C 0.23307 0.71803 0.36270
 C1279 C 0.23173 0.69871 0.40876
 C1280 C 0.24827 0.69083 0.41151
 C1281 C 0.25095 0.67943 0.42572
 C1282 C 0.23714 0.67561 0.43745
 C1283 C 0.22060 0.68351 0.43470
 C1284 C 0.21794 0.69496 0.42054
 H1285 H 0.21506 0.72470 0.33091
 H1286 H 0.21059 0.74439 0.30586
 H1287 H 0.21981 0.78931 0.33945
 H1288 H 0.22482 0.76959 0.36439
 H1289 H 0.20858 0.74948 0.38342
 H1290 H 0.21363 0.72986 0.40842
 H1291 H 0.24332 0.69476 0.37493
 H1292 H 0.23875 0.71465 0.35006
 H1293 H 0.25919 0.69360 0.40276
 H1294 H 0.26379 0.67342 0.42739
 H1295 H 0.20976 0.68097 0.44362
 H1296 H 0.20501 0.70071 0.41867
 C1297 C 0.27935 0.74402 0.65093
 C1298 C 0.28464 0.73737 0.66738
 C1299 C 0.28726 0.74868 0.68165
 C1300 C 0.28472 0.76694 0.67980
 C1301 C 0.27949 0.77360 0.66334
 C1302 C 0.27681 0.76228 0.64909
 C1303 C 0.27648 0.73196 0.63578
 C1304 C 0.28157 0.73693 0.61868
 C1305 C 0.27880 0.72563 0.60443
 C1306 C 0.27094 0.70906 0.60697
 C1307 C 0.26589 0.70405 0.62405
 C1308 C 0.26859 0.71539 0.63828
 C1309 C 0.26799 0.69706 0.59184
 C1310 C 0.27160 0.67896 0.59334
 C1311 C 0.26884 0.66767 0.57908
 C1312 C 0.26230 0.67421 0.56305
 C1313 C 0.25865 0.69230 0.56157
 C1314 C 0.26152 0.70362 0.57579
 H1315 H 0.28693 0.72341 0.66921
 H1316 H 0.29109 0.74310 0.69420
 H1317 H 0.27760 0.78761 0.66142
 H1318 H 0.27254 0.76781 0.63666
 H1319 H 0.28796 0.74947 0.61634
 H1320 H 0.28305 0.72973 0.59145
 H1321 H 0.25958 0.69147 0.62635
 H1322 H 0.26422 0.71128 0.65122
 H1323 H 0.27674 0.67357 0.60550
 H1324 H 0.27163 0.65376 0.58066
 H1325 H 0.25377 0.69775 0.54933
 H1326 H 0.25848 0.71748 0.57430
 C1327 C 0.77921 0.24348 0.15010
 C1328 C 0.76529 0.24804 0.16142
 C1329 C 0.76817 0.25930 0.17568
 C1330 C 0.78508 0.26606 0.17901
 C1331 C 0.79903 0.26142 0.16776
 C1332 C 0.79610 0.25031 0.15338
 C1333 C 0.77614 0.23165 0.13489
 C1334 C 0.78315 0.23574 0.11826
 C1335 C 0.78022 0.22461 0.10391
 C1336 C 0.77040 0.20906 0.10596
 C1337 C 0.76344 0.20493 0.12260
 C1338 C 0.76620 0.21617 0.13691
 C1339 C 0.76747 0.19714 0.09079
 C1340 C 0.76970 0.17886 0.09265
 C1341 C 0.76712 0.16764 0.07831
 C1342 C 0.76206 0.17445 0.06186
 C1343 C 0.75971 0.19272 0.06003
 C1344 C 0.76249 0.20397 0.07433
 H1345 H 0.75212 0.24306 0.15910
 H1346 H 0.75723 0.26262 0.18422
 H1347 H 0.81215 0.26657 0.16996
 H1348 H 0.80709 0.24690 0.14493
 H1349 H 0.79074 0.24767 0.11633
 H1350 H 0.78583 0.22803 0.09125
 H1351 H 0.75571 0.19308 0.12450
 H1352 H 0.76076 0.21264 0.14962
 H1353 H 0.77366 0.17328 0.10516
 H1354 H 0.76889 0.15359 0.08011
 H1355 H 0.75595 0.19832 0.04747
 H1356 H 0.76056 0.21799 0.07258
 C1357 C 0.46987 0.40032 0.50449
 C1358 C 0.47226 0.39842 0.48625
 C1359 C 0.46934 0.41262 0.47490
 C1360 C 0.46404 0.42907 0.48155
 C1361 C 0.46170 0.43098 0.49982
 C1362 C 0.46454 0.41675 0.51115
 C1363 C 0.47291 0.38523 0.51654
 C1364 C 0.46120 0.38184 0.53047
 C1365 C 0.46404 0.36762 0.54181
 C1366 C 0.47871 0.35651 0.53953
 C1367 C 0.49042 0.35993 0.52559
 C1368 C 0.48753 0.37410 0.51420
 C1369 C 0.48176 0.34143 0.55166
 C1370 C 0.48811 0.32525 0.54523
 C1371 C 0.49091 0.31107 0.55663
 C1372 C 0.48734 0.31271 0.57471
 C1373 C 0.48101 0.32886 0.58115
 C1374 C 0.47829 0.34307 0.56977
 H1375 H 0.47612 0.38584 0.48072
 H1376 H 0.47097 0.41063 0.46088
 H1377 H 0.45792 0.44355 0.50539
 H1378 H 0.46284 0.41868 0.52518
 H1379 H 0.44968 0.39003 0.53243
 H1380 H 0.45459 0.36517 0.55222
 H1381 H 0.50199 0.35181 0.52364
 H1382 H 0.49691 0.37655 0.50373
 H1383 H 0.49064 0.32345 0.53132
 H1384 H 0.49557 0.29870 0.55126
 H1385 H 0.47840 0.33059 0.59506
 H1386 H 0.47369 0.35543 0.57521
 C1387 C -0.02993 0.90001 0.00567
 C1388 C -0.02754 0.89814 -0.01259
 C1389 C -0.03047 0.91234 -0.02393
 C1390 C -0.03582 0.92878 -0.01728
 C1391 C -0.03818 0.93066 0.00098
 C1392 C -0.03530 0.91644 0.01231
 C1393 C -0.02681 0.88490 0.01774
 C1394 C -0.01876 0.88749 0.03420
 C1395 C -0.01589 0.87330 0.04557
 C1396 C -0.02094 0.85617 0.04071
 C1397 C -0.02894 0.85355 0.02424
 C1398 C -0.03188 0.86775 0.01290
 C1399 C -0.01790 0.84111 0.05279
 C1400 C -0.01155 0.82497 0.04630
 C1401 C -0.00866 0.81079 0.05768
 C1402 C -0.01217 0.81240 0.07578
 C1403 C -0.01856 0.82853 0.08226
 C1404 C -0.02134 0.84274 0.07089
 H1405 H -0.02320 0.88573 -0.01812
 H1406 H -0.02869 0.91042 -0.03794
 H1407 H -0.04207 0.94321 0.00655
 H1408 H -0.03745 0.91828 0.02628
 H1409 H -0.01442 0.90047 0.03820
 H1410 H -0.00947 0.87568 0.05807
 H1411 H -0.03320 0.84054 0.02025
 H1412 H -0.03838 0.86534 0.00045
 H1413 H -0.00863 0.82338 0.03244
 H1414 H -0.00389 0.79847 0.05229
 H1415 H -0.02123 0.83021 0.09616
 H1416 H -0.02639 0.85497 0.07624
 C1417 C 0.02993 0.59865 0.00558
 C1418 C 0.04700 0.59458 -0.00036
 C1419 C 0.04982 0.58032 -0.01165
 C1420 C 0.03563 0.56987 -0.01730
 C1421 C 0.01856 0.57396 -0.01139
 C1422 C 0.01574 0.58816 -0.00003
 C1423 C 0.02694 0.61378 0.01759
 C1424 C 0.01530 0.61227 0.03190
 C1425 C 0.01253 0.62650 0.04324
 C1426 C 0.02130 0.64258 0.04049
 C1427 C 0.03290 0.64409 0.02613
 C1428 C 0.03571 0.62984 0.01482
 C1429 C 0.01839 0.65771 0.05257
 C1430 C 0.03251 0.66859 0.05758
 C1431 C 0.02979 0.68280 0.06895
 C1432 C 0.01288 0.68647 0.07560
 C1433 C -0.00124 0.67559 0.07058
 C1434 C 0.00148 0.66139 0.05919
 H1435 H 0.05821 0.60232 0.00387
 H1436 H 0.06310 0.57759 -0.01613
 H1437 H 0.00739 0.56604 -0.01540
 H1438 H 0.00242 0.59108 0.00420
 H1439 H 0.00855 0.59998 0.03451
 H1440 H 0.00374 0.62481 0.05435
 H1441 H 0.03963 0.65639 0.02346
 H1442 H 0.04455 0.63148 0.00374
 H1443 H 0.04573 0.66600 0.05287
 H1444 H 0.04091 0.69104 0.07238
 H1445 H -0.01439 0.67793 0.07562
 H1446 H -0.00971 0.65339 0.05543
 C1447 C 0.52955 0.09816 0.50674
 C1448 C 0.54665 0.09410 0.50087
 C1449 C 0.54953 0.07988 0.48955
 C1450 C 0.53537 0.06943 0.48382
 C1451 C 0.51827 0.07348 0.48967
 C1452 C 0.51540 0.08766 0.50105
 C1453 C 0.52649 0.11331 0.51870
 C1454 C 0.51475 0.11185 0.53294
 C1455 C 0.51191 0.12611 0.54422
 C1456 C 0.52072 0.14218 0.54149
 C1457 C 0.53243 0.14364 0.52721
 C1458 C 0.53530 0.12936 0.51596
 C1459 C 0.51773 0.15735 0.55349
 C1460 C 0.53182 0.16824 0.55858
 C1461 C 0.52900 0.18254 0.56981
 C1462 C 0.51204 0.18630 0.57624
 C1463 C 0.49795 0.17540 0.57118
 C1464 C 0.50076 0.16110 0.55993
 H1465 H 0.55783 0.10185 0.50516
 H1466 H 0.56283 0.07718 0.48511
 H1467 H 0.50713 0.06558 0.48556
 H1468 H 0.50206 0.09057 0.50521
 H1469 H 0.50796 0.09957 0.53552
 H1470 H 0.50303 0.12447 0.55526
 H1471 H 0.53919 0.15592 0.52456
 H1472 H 0.54421 0.13097 0.50494
 H1473 H 0.54508 0.16559 0.55401
 H1474 H 0.54011 0.19079 0.57328
 H1475 H 0.48475 0.17781 0.57605
 H1476 H 0.48959 0.15309 0.55611
 C1477 C -0.03006 0.09983 0.49565
 C1478 C -0.04714 0.09552 0.50142
 C1479 C -0.04989 0.08117 0.51262
 C1480 C -0.03564 0.07082 0.51833
 C1481 C -0.01856 0.07516 0.51263
 C1482 C -0.01580 0.08949 0.50141
 C1483 C -0.02714 0.11500 0.48363
 C1484 C -0.01250 0.12612 0.48584
 C1485 C -0.00972 0.14034 0.47448
 C1486 C -0.02153 0.14378 0.46064
 C1487 C -0.03619 0.13268 0.45845
 C1488 C -0.03896 0.11845 0.46980
 C1489 C -0.01857 0.15888 0.44853
 C1490 C -0.02185 0.15719 0.43040
 C1491 C -0.01913 0.17140 0.41902
 C1492 C -0.01302 0.18762 0.42550
 C1493 C -0.00969 0.18931 0.44361
 C1494 C -0.01245 0.17511 0.45500
 H1495 H -0.05836 0.10340 0.49747
 H1496 H -0.06317 0.07829 0.51700
 H1497 H -0.00735 0.06727 0.51661
 H1498 H -0.00252 0.09228 0.49698
 H1499 H -0.00325 0.12393 0.49647
 H1500 H 0.00180 0.14853 0.47641
 H1501 H -0.04564 0.13509 0.44804
 H1502 H -0.05026 0.11003 0.46762
 H1503 H -0.02629 0.14478 0.42495
 H1504 H -0.02156 0.16961 0.40508
 H1505 H -0.00523 0.20172 0.44904
 H1506 H -0.01006 0.17693 0.46894
 C1507 C 0.47038 0.59879 0.99449
 C1508 C 0.47305 0.60053 1.01271
 C1509 C 0.47029 0.58623 1.02398
 C1510 C 0.46488 0.56984 1.01727
 C1511 C 0.46227 0.56810 0.99903
 C1512 C 0.46495 0.58243 0.98777
 C1513 C 0.47324 0.61400 0.98254
 C1514 C 0.46134 0.61753 0.96882
 C1515 C 0.46399 0.63189 0.95761
 C1516 C 0.47864 0.64300 0.95982
 C1517 C 0.49056 0.63943 0.97353
 C1518 C 0.48787 0.62511 0.98479
 C1519 C 0.48148 0.65827 0.94787
 C1520 C 0.48785 0.67436 0.95446
 C1521 C 0.49052 0.68870 0.94322
 C1522 C 0.48680 0.68730 0.92516
 C1523 C 0.48041 0.67124 0.91856
 C1524 C 0.47781 0.65688 0.92978
 H1525 H 0.47698 0.61305 1.01829
 H1526 H 0.47213 0.58809 1.03799
 H1527 H 0.45839 0.55559 0.99341
 H1528 H 0.46304 0.58063 0.97376
 H1529 H 0.44981 0.60934 0.96694
 H1530 H 0.45440 0.63444 0.94737
 H1531 H 0.50214 0.64754 0.97541
 H1532 H 0.49740 0.62256 0.99509
 H1533 H 0.49052 0.67597 0.96836
 H1534 H 0.49522 0.70099 0.94872
 H1535 H 0.47768 0.66970 0.90466
 H1536 H 0.47318 0.64459 0.92423
 C1537 C 0.52780 0.90220 0.99473
 C1538 C 0.53611 0.91750 0.98854
 C1539 C 0.53910 0.93176 0.99977
 C1540 C 0.53379 0.93124 1.01762
 C1541 C 0.52536 0.91575 1.02365
 C1542 C 0.52246 0.90149 1.01239
 C1543 C 0.52474 0.88702 0.98280
 C1544 C 0.52760 0.86970 0.98869
 C1545 C 0.52481 0.85540 0.97744
 C1546 C 0.51905 0.85810 0.96006
 C1547 C 0.51615 0.87543 0.95419
 C1548 C 0.51897 0.88972 0.96543
 C1549 C 0.51615 0.84291 0.94808
 C1550 C 0.52121 0.84386 0.93030
 C1551 C 0.51855 0.82955 0.91904
 C1552 C 0.51079 0.81395 0.92530
 C1553 C 0.50570 0.81300 0.94308
 C1554 C 0.50836 0.82732 0.95433
 H1555 H 0.54043 0.91842 0.97498
 H1556 H 0.54500 0.94340 0.99407
 H1557 H 0.52153 0.91416 1.03727
 H1558 H 0.51594 0.88989 1.01753
 H1559 H 0.53230 0.86721 1.00192
 H1560 H 0.52744 0.84224 0.98227
 H1561 H 0.51144 0.87794 0.94097
 H1562 H 0.51639 0.90290 0.96061
 H1563 H 0.52742 0.85561 0.92512
 H1564 H 0.52244 0.83077 0.90538
 H1565 H 0.49986 0.80111 0.94835
 H1566 H 0.50415 0.82623 0.96791
 C1567 C 0.02809 0.40189 0.49500
 C1568 C 0.01392 0.41239 0.50067
 C1569 C 0.01676 0.42664 0.51195
 C1570 C 0.03385 0.43075 0.51777
 C1571 C 0.04804 0.42029 0.51207
 C1572 C 0.04518 0.40600 0.50083
 C1573 C 0.02506 0.38672 0.48305
 C1574 C 0.03400 0.37072 0.48570
 C1575 C 0.03117 0.35645 0.47444
 C1576 C 0.01937 0.35786 0.46025
 C1577 C 0.01042 0.37387 0.45761
 C1578 C 0.01323 0.38813 0.46889
 C1579 C 0.01644 0.34271 0.44821
 C1580 C -0.00054 0.33881 0.44193
 C1581 C -0.00327 0.32459 0.43058
 C1582 C 0.01092 0.31393 0.42524
 C1583 C 0.02789 0.31782 0.43155
 C1584 C 0.03062 0.33204 0.44289
 H1585 H 0.00058 0.40945 0.49654
 H1586 H 0.00560 0.43457 0.51598
 H1587 H 0.06133 0.42306 0.51645
 H1588 H 0.05639 0.39827 0.49655
 H1589 H 0.04299 0.36915 0.49666
 H1590 H 0.03804 0.34421 0.47700
 H1591 H 0.00146 0.37547 0.44663
 H1592 H 0.00635 0.40038 0.46636
 H1593 H -0.01177 0.34666 0.44593
 H1594 H -0.01648 0.32205 0.42581
 H1595 H 0.03907 0.30975 0.42786
 H1596 H 0.04389 0.33481 0.44735
 C1597 C 0.39973 0.50503 0.46977
 C1598 C 0.41620 0.51168 0.46446
 C1599 C 0.43043 0.50034 0.46163
 C1600 C 0.42854 0.48206 0.46396
 C1601 C 0.41207 0.47541 0.46922
 C1602 C 0.39785 0.48675 0.47212
 C1603 C 0.38459 0.51711 0.47282
 C1604 C 0.36745 0.51224 0.46776
 C1605 C 0.35322 0.52359 0.47063
 C1606 C 0.35583 0.54011 0.47855
 C1607 C 0.37295 0.54500 0.48359
 C1608 C 0.38717 0.53362 0.48080
 C1609 C 0.34075 0.55221 0.48150
 C1610 C 0.34237 0.57029 0.47788
 C1611 C 0.32815 0.58168 0.48059
 C1612 C 0.31203 0.57525 0.48707
 C1613 C 0.31043 0.55718 0.49075
 C1614 C 0.32462 0.54576 0.48793
 H1615 H 0.41805 0.52566 0.46232
 H1616 H 0.44299 0.50591 0.45778
 H1617 H 0.41011 0.46138 0.47094
 H1618 H 0.38542 0.48121 0.47640
 H1619 H 0.36504 0.49975 0.46131
 H1620 H 0.34021 0.51957 0.46639
 H1621 H 0.37532 0.55755 0.48995
 H1622 H 0.40014 0.53765 0.48514
 H1623 H 0.35459 0.57560 0.47277
 H1624 H 0.32981 0.59557 0.47778
 H1625 H 0.29812 0.55183 0.49561
 H1626 H 0.32304 0.53192 0.49097
 C1627 C 0.90024 0.00454 -0.02965
 C1628 C 0.89942 -0.01307 -0.02414
 C1629 C 0.91368 -0.02443 -0.02680
 C1630 C 0.92927 -0.01855 -0.03516
 C1631 C 0.92988 -0.00077 -0.04070
 C1632 C 0.91562 0.01056 -0.03794
 C1633 C 0.88510 0.01660 -0.02676
 C1634 C 0.88789 0.03400 -0.02111
 C1635 C 0.87365 0.04537 -0.01841
 C1636 C 0.85629 0.03961 -0.02133
 C1637 C 0.85351 0.02220 -0.02697
 C1638 C 0.86775 0.01082 -0.02964
 C1639 C 0.84116 0.05174 -0.01855
 C1640 C 0.82547 0.04565 -0.01079
 C1641 C 0.81124 0.05706 -0.00819
 C1642 C 0.81236 0.07483 -0.01329
 C1643 C 0.82805 0.08091 -0.02105
 C1644 C 0.84227 0.06950 -0.02365
 H1645 H 0.88774 -0.01809 -0.01765
 H1646 H 0.91200 -0.03800 -0.02283
 H1647 H 0.94159 0.00481 -0.04659
 H1648 H 0.91662 0.02408 -0.04241
 H1649 H 0.90110 0.03876 -0.01851
 H1650 H 0.87623 0.05861 -0.01378
 H1651 H 0.84032 0.01744 -0.02961
 H1652 H 0.86520 -0.00244 -0.03424
 H1653 H 0.82426 0.03208 -0.00654
 H1654 H 0.79928 0.05191 -0.00235
 H1655 H 0.82941 0.09457 -0.02495
 H1656 H 0.85409 0.07456 -0.02985
 C1657 C 0.59800 0.00686 0.02866
 C1658 C 0.59987 -0.01141 0.02622
 C1659 C 0.58566 -0.02275 0.02909
 C1660 C 0.56920 -0.01610 0.03440
 C1661 C 0.56730 0.00216 0.03681
 C1662 C 0.58153 0.01350 0.03399
 C1663 C 0.61316 0.01891 0.02571
 C1664 C 0.61066 0.03544 0.01773
 C1665 C 0.62492 0.04676 0.01496
 C1666 C 0.64202 0.04177 0.02003
 C1667 C 0.64454 0.02525 0.02799
 C1668 C 0.63027 0.01397 0.03083
 C1669 C 0.65718 0.05374 0.01701
 C1670 C 0.67328 0.04712 0.01066
 C1671 C 0.68756 0.05838 0.00780
 C1672 C 0.68610 0.07649 0.01133
 C1673 C 0.67001 0.08311 0.01771
 C1674 C 0.65569 0.07186 0.02047
 H1675 H 0.61231 -0.01694 0.02193
 H1676 H 0.58762 -0.03677 0.02734
 H1677 H 0.55475 0.00771 0.04074
 H1678 H 0.57969 0.02748 0.03620
 H1679 H 0.59771 0.03954 0.01336
 H1680 H 0.62263 0.05931 0.00858
 H1681 H 0.65753 0.02117 0.03227
 H1682 H 0.63261 0.00147 0.03729
 H1683 H 0.67476 0.03324 0.00773
 H1684 H 0.69984 0.05288 0.00303
 H1685 H 0.66845 0.09704 0.02040
 H1686 H 0.64350 0.07731 0.02552
 C1687 C 0.09770 0.50655 0.52929
 C1688 C 0.09836 0.48899 0.52362
 C1689 C 0.08411 0.47767 0.52641
 C1690 C 0.06868 0.48354 0.53507
 C1691 C 0.06821 0.50128 0.54074
 C1692 C 0.08246 0.51257 0.53785
 C1693 C 0.11286 0.51855 0.52631
 C1694 C 0.11011 0.53604 0.52090
 C1695 C 0.12439 0.54733 0.51809
 C1696 C 0.14175 0.54139 0.52066
 C1697 C 0.14450 0.52389 0.52610
 C1698 C 0.13022 0.51260 0.52888
 C1699 C 0.15694 0.55339 0.51770
 C1700 C 0.17241 0.54721 0.50959
 C1701 C 0.18671 0.55848 0.50684
 C1702 C 0.18588 0.57620 0.51215
 C1703 C 0.17040 0.58239 0.52025
 C1704 C 0.15610 0.57111 0.52299
 H1705 H 0.10992 0.48398 0.51691
 H1706 H 0.08568 0.46412 0.52230
 H1707 H 0.05660 0.50685 0.54685
 H1708 H 0.08158 0.52605 0.54244
 H1709 H 0.09690 0.54092 0.51856
 H1710 H 0.12184 0.56064 0.51363
 H1711 H 0.15769 0.51900 0.52848
 H1712 H 0.13275 0.49928 0.53331
 H1713 H 0.17340 0.53368 0.50519
 H1714 H 0.19850 0.55326 0.50075
 H1715 H 0.16927 0.59601 0.52431
 H1716 H 0.14445 0.57623 0.52945
 C1717 C 0.09972 0.49400 -0.02933
 C1718 C 0.08919 0.49959 -0.01516
 C1719 C 0.07497 0.51096 -0.01797
 C1720 C 0.07092 0.51691 -0.03501
 C1721 C 0.08142 0.51129 -0.04918
 C1722 C 0.09569 0.49999 -0.04637
 C1723 C 0.11486 0.48197 -0.02634
 C1724 C 0.13096 0.48475 -0.03507
 C1725 C 0.14521 0.47343 -0.03226
 C1726 C 0.14368 0.45904 -0.02070
 C1727 C 0.12756 0.45627 -0.01198
 C1728 C 0.11333 0.46762 -0.01475
 C1729 C 0.15882 0.44695 -0.01777
 C1730 C 0.16244 0.44029 -0.00088
 C1731 C 0.17664 0.42887 0.00185
 C1732 C 0.18757 0.42386 -0.01223
 C1733 C 0.18397 0.43055 -0.02911
 C1734 C 0.16976 0.44194 -0.03185
 H1735 H 0.09208 0.49532 -0.00187
 H1736 H 0.06702 0.51495 -0.00682
 H1737 H 0.07870 0.51580 -0.06244
 H1738 H 0.10346 0.49577 -0.05756
 H1739 H 0.13261 0.49585 -0.04388
 H1740 H 0.15753 0.47610 -0.03895
 H1741 H 0.12586 0.44514 -0.00322
 H1742 H 0.10101 0.46500 -0.00804
 H1743 H 0.15439 0.44404 0.01028
 H1744 H 0.17893 0.42381 0.01498
 H1745 H 0.19226 0.42712 -0.04021
 H1746 H 0.16722 0.44668 -0.04506
 C1747 C 0.59931 0.99395 0.47086
 C1748 C 0.59120 1.00235 0.48516
 C1749 C 0.57704 1.01384 0.48252
 C1750 C 0.57039 1.01712 0.46544
 C1751 C 0.57863 1.00845 0.45116
 C1752 C 0.59292 0.99715 0.45384
 C1753 C 0.61442 0.98189 0.47368
 C1754 C 0.62945 0.98300 0.46295
 C1755 C 0.64373 0.97168 0.46565
 C1756 C 0.64323 0.95889 0.47905
 C1757 C 0.62811 0.95777 0.48972
 C1758 C 0.61390 0.96920 0.48712
 C1759 C 0.65841 0.94678 0.48187
 C1760 C 0.66336 0.94167 0.49897
 C1761 C 0.67757 0.93026 0.50162
 C1762 C 0.68730 0.92377 0.48725
 C1763 C 0.68239 0.92893 0.47016
 C1764 C 0.66809 0.94023 0.46750
 H1765 H 0.59589 1.00012 0.49844
 H1766 H 0.57096 1.01952 0.49408
 H1767 H 0.57462 1.01085 0.43770
 H1768 H 0.59894 0.99081 0.44257
 H1769 H 0.63027 0.99282 0.45264
 H1770 H 0.65528 0.97315 0.45740
 H1771 H 0.62713 0.94787 0.49994
 H1772 H 0.60237 0.96793 0.49543
 H1773 H 0.65636 0.94663 0.51036
 H1774 H 0.68082 0.92639 0.51495
 H1775 H 0.68972 0.92439 0.45880
 H1776 H 0.66452 0.94369 0.45415
 C1777 C 0.90117 0.99433 0.52863
 C1778 C 0.90032 1.01201 0.52333
 C1779 C 0.91446 1.02341 0.52632
 C1780 C 0.92995 1.01751 0.53484
 C1781 C 0.93062 0.99965 0.54012
 C1782 C 0.91648 0.98828 0.53702
 C1783 C 0.88612 0.98225 0.52547
 C1784 C 0.88904 0.96491 0.51968
 C1785 C 0.87487 0.95352 0.51679
 C1786 C 0.85746 0.95920 0.51964
 C1787 C 0.85455 0.97655 0.52541
 C1788 C 0.86872 0.98795 0.52827
 C1789 C 0.84240 0.94705 0.51669
 C1790 C 0.82674 0.95315 0.50890
 C1791 C 0.81254 0.94174 0.50622
 C1792 C 0.81366 0.92395 0.51128
 C1793 C 0.82933 0.91785 0.51903
 C1794 C 0.84353 0.92925 0.52171
 H1795 H 0.88870 1.01705 0.51676
 H1796 H 0.91276 1.03703 0.52251
 H1797 H 0.94229 0.99404 0.54607
 H1798 H 0.91751 0.97471 0.54132
 H1799 H 0.90228 0.96023 0.51715
 H1800 H 0.87753 0.94033 0.51207
 H1801 H 0.84132 0.98124 0.52801
 H1802 H 0.86607 1.00115 0.53299
 H1803 H 0.82551 0.96673 0.50471
 H1804 H 0.80058 0.94691 0.50039
 H1805 H 0.83070 0.90418 0.52290
 H1806 H 0.85533 0.92419 0.52792
 C1807 C 0.40097 0.49375 0.02917
 C1808 C 0.41143 0.49943 0.01498
 C1809 C 0.42561 0.51083 0.01778
 C1810 C 0.42971 0.51671 0.03483
 C1811 C 0.41927 0.51101 0.04902
 C1812 C 0.40503 0.49969 0.04621
 C1813 C 0.38590 0.48166 0.02621
 C1814 C 0.36979 0.48437 0.03494
 C1815 C 0.35561 0.47297 0.03219
 C1816 C 0.35722 0.45855 0.02069
 C1817 C 0.37334 0.45585 0.01196
 C1818 C 0.38751 0.46730 0.01466
 C1819 C 0.34216 0.44636 0.01785
 C1820 C 0.33858 0.43956 0.00102
 C1821 C 0.32442 0.42810 -0.00164
 C1822 C 0.31347 0.42318 0.01247
 C1823 C 0.31704 0.42999 0.02930
 C1824 C 0.33122 0.44141 0.03196
 H1825 H 0.40852 0.49521 0.00169
 H1826 H 0.43352 0.51490 0.00662
 H1827 H 0.42201 0.51546 0.06228
 H1828 H 0.39730 0.49540 0.05741
 H1829 H 0.36809 0.49549 0.04372
 H1830 H 0.34328 0.47560 0.03889
 H1831 H 0.37512 0.44470 0.00324
 H1832 H 0.39984 0.46473 0.00794
 H1833 H 0.34662 0.44326 -0.01017
 H1834 H 0.32216 0.42294 -0.01473
 H1835 H 0.30875 0.42664 0.04041
 H1836 H 0.33373 0.44625 0.04514
 C1837 C 0.50476 0.47035 0.39994
 C1838 C 0.48647 0.47264 0.39798
 C1839 C 0.47507 0.46975 0.41215
 C1840 C 0.48169 0.46456 0.42864
 C1841 C 0.49997 0.46231 0.43062
 C1842 C 0.51137 0.46514 0.41644
 C1843 C 0.51689 0.47334 0.38485
 C1844 C 0.53335 0.48145 0.38742
 C1845 C 0.54480 0.48416 0.37326
 C1846 C 0.54002 0.47890 0.35619
 C1847 C 0.52354 0.47087 0.35358
 C1848 C 0.51213 0.46808 0.36776
 C1849 C 0.55218 0.48175 0.34115
 C1850 C 0.54577 0.48789 0.32491
 C1851 C 0.55724 0.49057 0.31076
 C1852 C 0.57535 0.48706 0.31250
 C1853 C 0.58175 0.48088 0.32872
 C1854 C 0.57030 0.47831 0.34291
 H1855 H 0.48097 0.47684 0.38552
 H1856 H 0.46104 0.47141 0.41013
 H1857 H 0.50551 0.45852 0.44319
 H1858 H 0.52535 0.46306 0.41835
 H1859 H 0.53730 0.48594 0.40036
 H1860 H 0.55730 0.49062 0.37561
 H1861 H 0.51961 0.46645 0.34061
 H1862 H 0.49968 0.46154 0.36537
 H1863 H 0.53190 0.49080 0.32322
 H1864 H 0.55190 0.49518 0.29836
 H1865 H 0.59566 0.47822 0.33050
 H1866 H 0.57559 0.47342 0.35522
 C1867 C 0.00543 -0.02976 0.90165
 C1868 C -0.00036 -0.01560 0.91208
 C1869 C -0.01178 -0.01846 0.92624
 C1870 C -0.01761 -0.03555 0.93032
 C1871 C -0.01177 -0.04972 0.91993
 C1872 C -0.00040 -0.04685 0.90574
 C1873 C 0.01745 -0.02672 0.88652
 C1874 C 0.01484 -0.03563 0.87052
 C1875 C 0.02617 -0.03280 0.85629
 C1876 C 0.04039 -0.02103 0.85773
 C1877 C 0.04299 -0.01212 0.87374
 C1878 C 0.03164 -0.01491 0.88797
 C1879 C 0.05248 -0.01810 0.84261
 C1880 C 0.05885 -0.00114 0.83875
 C1881 C 0.07019 0.00160 0.82451
 C1882 C 0.07544 -0.01255 0.81378
 C1883 C 0.06908 -0.02951 0.81764
 C1884 C 0.05774 -0.03225 0.83188
 H1885 H 0.00378 -0.00227 0.90915
 H1886 H -0.01595 -0.00731 0.93410
 H1887 H -0.01617 -0.06301 0.92266
 H1888 H 0.00397 -0.05805 0.89805
 H1889 H 0.00386 -0.04460 0.86893
 H1890 H 0.02362 -0.03965 0.84405
 H1891 H 0.05399 -0.00318 0.87537
 H1892 H 0.03413 -0.00805 0.90021
 H1893 H 0.05490 0.01006 0.84664
 H1894 H 0.07501 0.01479 0.82201
 H1895 H 0.07269 -0.04065 0.80951
 H1896 H 0.05324 -0.04551 0.83461
 C1897 C 0.00523 0.02889 0.59925
 C1898 C -0.01303 0.02643 0.60111
 C1899 C -0.02436 0.02931 0.58690
 C1900 C -0.01767 0.03465 0.57048
 C1901 C 0.00060 0.03708 0.56861
 C1902 C 0.01192 0.03426 0.58285
 C1903 C 0.01725 0.02591 0.61437
 C1904 C 0.03120 0.03760 0.61774
 C1905 C 0.04247 0.03484 0.63202
 C1906 C 0.04010 0.02028 0.64323
 C1907 C 0.02616 0.00857 0.63982
 C1908 C 0.01485 0.01137 0.62557
 C1909 C 0.05211 0.01734 0.65841
 C1910 C 0.04550 0.01124 0.67460
 C1911 C 0.05680 0.00850 0.68887
 C1912 C 0.07494 0.01186 0.68730
 C1913 C 0.08156 0.01796 0.67113
 C1914 C 0.07028 0.02064 0.65684
 H1915 H -0.01859 0.02257 0.61367
 H1916 H -0.03840 0.02764 0.58886
 H1917 H 0.00618 0.04094 0.55606
 H1918 H 0.02596 0.03603 0.58095
 H1919 H 0.03321 0.04907 0.60949
 H1920 H 0.05289 0.04427 0.63445
 H1921 H 0.02415 -0.00293 0.64802
 H1922 H 0.00438 0.00200 0.62315
 H1923 H 0.03154 0.00885 0.67634
 H1924 H 0.05128 0.00404 0.70125
 H1925 H 0.09552 0.02041 0.66944
 H1926 H 0.07584 0.02505 0.64447
 C1927 C 0.50568 0.52851 0.09874
 C1928 C 0.49996 0.51435 0.08829
 C1929 C 0.48858 0.51720 0.07411
 C1930 C 0.48273 0.53429 0.07002
 C1931 C 0.48850 0.54846 0.08043
 C1932 C 0.49982 0.54559 0.09466
 C1933 C 0.51770 0.52547 0.11386
 C1934 C 0.51503 0.53433 0.12988
 C1935 C 0.52635 0.53148 0.14411
 C1936 C 0.54062 0.51975 0.14263
 C1937 C 0.54328 0.51090 0.12659
 C1938 C 0.53193 0.51371 0.11237
 C1939 C 0.55270 0.51679 0.15774
 C1940 C 0.55914 0.49984 0.16151
 C1941 C 0.57052 0.49707 0.17572
 C1942 C 0.57571 0.51119 0.18650
 C1943 C 0.56925 0.52814 0.18274
 C1944 C 0.55789 0.53091 0.16853
 H1945 H 0.50413 0.50102 0.09122
 H1946 H 0.48449 0.50605 0.06622
 H1947 H 0.48409 0.56175 0.07768
 H1948 H 0.50414 0.55679 0.10236
 H1949 H 0.50402 0.54326 0.13150
 H1950 H 0.52376 0.53828 0.15637
 H1951 H 0.55431 0.50200 0.12493
 H1952 H 0.53447 0.50690 0.10011
 H1953 H 0.55524 0.48865 0.15358
 H1954 H 0.57540 0.48389 0.17814
 H1955 H 0.57283 0.53927 0.19090
 H1956 H 0.55333 0.54416 0.16587
 C1957 C 0.49435 -0.02845 0.09961
 C1958 C 0.50000 -0.01423 0.08916
 C1959 C 0.51123 -0.01701 0.07485
 C1960 C 0.51704 -0.03407 0.07062
 C1961 C 0.51143 -0.04829 0.08107
 C1962 C 0.50023 -0.04550 0.09541
 C1963 C 0.48233 -0.02550 0.11479
 C1964 C 0.46861 -0.03742 0.11840
 C1965 C 0.45730 -0.03466 0.13266
 C1966 C 0.45942 -0.01990 0.14362
 C1967 C 0.47311 -0.00797 0.14000
 C1968 C 0.48445 -0.01075 0.12576
 C1969 C 0.44739 -0.01697 0.15876
 C1970 C 0.44101 -0.00002 0.16258
 C1971 C 0.42965 0.00272 0.17681
 C1972 C 0.42444 -0.01143 0.18757
 C1973 C 0.43086 -0.02838 0.18376
 C1974 C 0.44219 -0.03112 0.16950
 H1975 H 0.49548 -0.00097 0.09187
 H1976 H 0.51514 -0.00584 0.06688
 H1977 H 0.51590 -0.06155 0.07828
 H1978 H 0.49636 -0.05669 0.10337
 H1979 H 0.46643 -0.04875 0.11002
 H1980 H 0.44671 -0.04394 0.13496
 H1981 H 0.47523 0.00338 0.14837
 H1982 H 0.49506 -0.00148 0.12351
 H1983 H 0.44458 0.01110 0.15438
 H1984 H 0.42471 0.01589 0.17922
 H1985 H 0.42735 -0.03950 0.19196
 H1986 H 0.44710 -0.04429 0.16705
 C1987 C 0.99322 0.47203 0.59917
 C1988 C 0.99924 0.45499 0.59512
 C1989 C 1.01053 0.45218 0.58086
 C1990 C 1.01609 0.46636 0.57033
 C1991 C 1.01013 0.48340 0.57439
 C1992 C 0.99880 0.48621 0.58864
 C1993 C 0.98119 0.47499 0.61434
 C1994 C 0.98323 0.48983 0.62522
 C1995 C 0.97194 0.49257 0.63951
 C1996 C 0.95839 0.48052 0.64327
 C1997 C 0.95634 0.46570 0.63238
 C1998 C 0.96759 0.46298 0.61807
 C1999 C 0.94646 0.48337 0.65850
 C2000 C 0.94150 0.46921 0.66934
 C2001 C 0.93026 0.47188 0.68367
 C2002 C 0.92368 0.48877 0.68747
 C2003 C 0.92865 0.50294 0.67662
 C2004 C 0.93993 0.50027 0.66232
 H2005 H 0.99544 0.44383 0.60316
 H2006 H 1.01514 0.43894 0.57822
 H2007 H 1.01402 0.49454 0.56637
 H2008 H 0.99419 0.49946 0.59124
 H2009 H 0.99374 0.49918 0.62288
 H2010 H 0.97401 0.50397 0.64782
 H2011 H 0.94585 0.45633 0.63479
 H2012 H 0.96548 0.45159 0.60977
 H2013 H 0.94653 0.45608 0.66689
 H2014 H 0.92693 0.46074 0.69194
 H2015 H 0.92359 0.51606 0.67902
 H2016 H 0.94332 0.51140 0.65405
 C2017 C 0.99503 0.52916 0.90099
 C2018 C 1.00103 0.54619 0.90506
 C2019 C 1.01235 0.54895 0.91930
 C2020 C 1.01799 0.53472 0.92972
 C2021 C 1.01203 0.51769 0.92562
 C2022 C 1.00064 0.51494 0.91144
 C2023 C 0.98294 0.52625 0.88591
 C2024 C 0.96857 0.51469 0.88746
 C2025 C 0.95713 0.51204 0.87329
 C2026 C 0.95983 0.52085 0.85723
 C2027 C 0.97426 0.53237 0.85568
 C2028 C 0.98566 0.53506 0.86986
 C2029 C 0.94764 0.51808 0.84218
 C2030 C 0.94262 0.53227 0.83139
 C2031 C 0.93114 0.52968 0.81724
 C2032 C 0.92439 0.51284 0.81356
 C2033 C 0.92941 0.49864 0.82435
 C2034 C 0.94090 0.50123 0.83849
 H2035 H 0.99680 0.55742 0.89735
 H2036 H 1.01686 0.56220 0.92204
 H2037 H 1.01603 0.50650 0.93353
 H2038 H 0.99636 0.50165 0.90852
 H2039 H 0.96599 0.50791 0.89974
 H2040 H 0.94598 0.50330 0.87501
 H2041 H 0.97689 0.53913 0.84340
 H2042 H 0.99678 0.54385 0.86819
 H2043 H 0.94741 0.54545 0.83399
 H2044 H 0.92771 0.54085 0.80907
 H2045 H 0.92429 0.48554 0.82199
 H2046 H 0.94466 0.48999 0.84642
 C2047 C 0.49521 0.02974 0.40135
 C2048 C 0.48852 0.03480 0.41786
 C2049 C 0.49984 0.03747 0.43211
 C2050 C 0.51813 0.03519 0.43019
 C2051 C 0.52483 0.03020 0.41367
 C2052 C 0.51350 0.02749 0.39943
 C2053 C 0.48315 0.02680 0.38622
 C2054 C 0.48794 0.03219 0.36916
 C2055 C 0.47660 0.02941 0.35494
 C2056 C 0.46017 0.02124 0.35746
 C2057 C 0.45536 0.01586 0.37450
 C2058 C 0.46673 0.01857 0.38871
 C2059 C 0.44809 0.01837 0.34238
 C2060 C 0.42993 0.02160 0.34413
 C2061 C 0.41855 0.01897 0.32992
 C2062 C 0.42506 0.01293 0.31368
 C2063 C 0.44321 0.00964 0.31194
 C2064 C 0.45461 0.01238 0.32613
 H2065 H 0.47452 0.03686 0.41973
 H2066 H 0.49424 0.04112 0.44471
 H2067 H 0.53887 0.02853 0.41171
 H2068 H 0.51907 0.02341 0.38695
 H2069 H 0.50035 0.03883 0.36684
 H2070 H 0.48055 0.03392 0.34200
 H2071 H 0.44290 0.00929 0.37679
 H2072 H 0.46276 0.01398 0.40161
 H2073 H 0.42455 0.02638 0.35645
 H2074 H 0.40460 0.02146 0.33169
 H2075 H 0.44862 0.00514 0.29954
 H2076 H 0.46851 0.00962 0.32445
   
