data_POSCAR
  _audit_creation_date              2014-09-24
  _audit_creation_method            'ToBaCCo'
  _symmetry_space_group_name_H-M    'P1'
  _symmetry_Int_Tables_number       1
  _symmetry_cell_setting            triclinic
  loop_
  _symmetry_equiv_pos_as_xyz
 x,y,z
_cell_length_a 66.6804
_cell_length_b 66.3338
_cell_length_c 61.5352
_cell_angle_alpha 90.280500
_cell_angle_beta 90.032500
_cell_angle_gamma 89.263000
loop_
  _atom_site_label
  _atom_site_type_symbol
  _atom_site_fract_x
  _atom_site_fract_y
  _atom_site_fract_z
C1 C 0.39641 0.02464 0.27662
 H2 H 0.39582 0.03218 0.26108
 C3 C 0.40836 0.03233 0.29334
 H4 H 0.41710 0.04572 0.29060
 C5 C 0.38503 -0.00148 0.29950
 H6 H 0.37556 -0.01434 0.30207
 C7 C 0.39649 0.00584 0.31668
 H8 H 0.39609 -0.00178 0.33220
 N9 N 0.38518 0.00793 0.27993
 C10 C 0.36976 -0.01420 0.21534
 H11 H 0.35385 -0.01618 0.21790
 C12 C 0.37836 -0.01956 0.19549
 H13 H 0.36892 -0.02570 0.18283
 C14 C 0.40136 -0.00442 0.22920
 H15 H 0.41030 0.00114 0.24252
 C16 C 0.41060 -0.00948 0.20948
 H17 H 0.42655 -0.00716 0.20763
 Zn18 Zn 0.36751 -0.00087 0.25782
 N19 N 0.38121 -0.00654 0.23159
 C20 C 0.34675 0.03019 0.23484
 N21 N 0.34832 0.01997 0.25390
 C22 C 0.33773 0.02582 0.27176
 C23 C 0.32548 0.04300 0.27113
 C24 C 0.33460 0.04748 0.23348
 C25 C 0.36789 -0.04110 0.26887
 C26 C 0.36046 -0.06032 0.27236
 C27 C 0.32686 -0.04657 0.26985
 C28 C 0.33506 -0.02750 0.26657
 N29 N 0.35525 -0.02522 0.26584
 H30 H 0.35562 0.02554 0.22096
 H31 H 0.33946 0.01754 0.28676
 H32 H 0.31756 0.04772 0.28569
 H33 H 0.33424 0.05598 0.21850
 H34 H 0.38392 -0.03882 0.26829
 H35 H 0.37144 -0.07201 0.27563
 H36 H 0.31074 -0.04752 0.26887
 H37 H 0.32525 -0.01470 0.26364
 C38 C 0.39902 -0.01700 0.19222
 C39 C 0.40823 0.02302 0.31375
 C40 C 0.33951 -0.06382 0.27216
 C41 C 0.32420 0.05437 0.25197
 C42 C 0.10319 0.01873 0.72164
 H43 H 0.10247 0.02698 0.73684
 C44 C 0.09072 0.02439 0.70433
 H45 H 0.08030 0.03692 0.70626
 C46 C 0.11821 -0.00712 0.70023
 H47 H 0.12924 -0.01905 0.69840
 C48 C 0.10628 -0.00185 0.68254
 H49 H 0.10793 -0.01018 0.66745
 N50 N 0.11647 0.00309 0.71935
 C51 C 0.13277 -0.01670 0.78468
 H52 H 0.14880 -0.01817 0.78226
 C53 C 0.12444 -0.02141 0.80475
 H54 H 0.13420 -0.02663 0.81769
 C55 C 0.10069 -0.00843 0.77047
 H56 H 0.09148 -0.00354 0.75702
 C57 C 0.09171 -0.01289 0.79039
 H58 H 0.07566 -0.01087 0.79218
 Zn59 Zn 0.13449 -0.00348 0.74218
 N60 N 0.12095 -0.00994 0.76819
 C61 C 0.15258 0.02823 0.76624
 N62 N 0.15115 0.01893 0.74655
 C63 C 0.16103 0.02592 0.72888
 C64 C 0.17286 0.04304 0.73053
 C65 C 0.16436 0.04535 0.76866
 C66 C 0.14009 -0.04376 0.73138
 C67 C 0.15051 -0.06173 0.72749
 C68 C 0.18165 -0.04365 0.73035
 C69 C 0.17057 -0.02591 0.73399
 N70 N 0.15018 -0.02635 0.73462
 H71 H 0.14430 0.02267 0.77999
 H72 H 0.15950 0.01828 0.71340
 H73 H 0.18053 0.04848 0.71625
 H74 H 0.16498 0.05289 0.78429
 H75 H 0.12388 -0.04368 0.73217
 H76 H 0.14214 -0.07542 0.72499
 H77 H 0.19787 -0.04321 0.73077
 H78 H 0.17831 -0.01197 0.73706
 C79 C 0.10369 -0.01916 0.80797
 C80 C 0.09242 0.01415 0.68440
 C81 C 0.17159 -0.06194 0.72746
 C82 C 0.17448 0.05307 0.75058
 C83 C 0.61579 0.53371 0.22771
 H84 H 0.61376 0.54106 0.24330
 C85 C 0.60496 0.54050 0.20960
 H86 H 0.59446 0.55299 0.21132
 C87 C 0.63241 0.50890 0.20623
 H88 H 0.64342 0.49689 0.20479
 C89 C 0.62214 0.51531 0.18778
 H90 H 0.62497 0.50772 0.17244
 N91 N 0.62899 0.51797 0.22576
 C92 C 0.63959 0.49548 0.29110
 H93 H 0.65570 0.49386 0.28971
 C94 C 0.63006 0.48997 0.31023
 H95 H 0.63899 0.48403 0.32349
 C96 C 0.60850 0.50479 0.27511
 H97 H 0.60018 0.51033 0.26126
 C98 C 0.59830 0.49952 0.29411
 H99 H 0.58218 0.50155 0.29491
 Zn100 Zn 0.64463 0.50949 0.24977
 N101 N 0.62884 0.50306 0.27419
 C102 C 0.65908 0.54113 0.27575
 N103 N 0.66208 0.53074 0.25690
 C104 C 0.67561 0.53695 0.24190
 C105 C 0.68635 0.55466 0.24533
 C106 C 0.66935 0.55894 0.27975
 C107 C 0.64607 0.46977 0.23819
 C108 C 0.65382 0.45041 0.23524
 C109 C 0.68710 0.46334 0.24136
 C110 C 0.67865 0.48264 0.24409
 N111 N 0.65843 0.48535 0.24273
 H112 H 0.64793 0.53625 0.28724
 H113 H 0.67739 0.52863 0.22685
 H114 H 0.69640 0.55992 0.23282
 H115 H 0.66625 0.56742 0.29448
 H116 H 0.63004 0.47238 0.23744
 H117 H 0.64363 0.43820 0.23187
 H118 H 0.70311 0.46115 0.24335
 H119 H 0.68813 0.49521 0.24817
 C120 C 0.60919 0.49228 0.31209
 C121 C 0.60826 0.53132 0.18930
 C122 C 0.67450 0.44688 0.23740
 C123 C 0.68281 0.56616 0.26419
 C124 C 0.89755 0.52068 0.76135
 H125 H 0.90337 0.52092 0.74495
 C126 C 0.91002 0.52570 0.77882
 H127 H 0.92519 0.53007 0.77512
 C128 C 0.87022 0.51595 0.78516
 H129 H 0.85465 0.51210 0.78747
 C130 C 0.88208 0.52077 0.80306
 H131 H 0.87524 0.51959 0.81890
 N132 N 0.87805 0.51602 0.76483
 C133 C 0.88765 0.48663 0.71655
 H134 H 0.88938 0.47807 0.73130
 C135 C 0.89772 0.48025 0.69777
 H136 H 0.90682 0.46662 0.69822
 C137 C 0.87362 0.51460 0.69794
 H138 H 0.86443 0.52810 0.69803
 C139 C 0.88337 0.50874 0.67881
 H140 H 0.88154 0.51790 0.66441
 Zn141 Zn 0.86041 0.51029 0.74155
 N142 N 0.87551 0.50330 0.71623
 C143 C 0.82977 0.53378 0.72026
 N144 N 0.84394 0.53356 0.73624
 C145 C 0.84720 0.55019 0.74869
 C146 C 0.83616 0.56786 0.74530
 C147 C 0.81826 0.55122 0.71637
 C148 C 0.85449 0.47174 0.75828
 C149 C 0.84432 0.45406 0.76299
 C150 C 0.81355 0.47010 0.75112
 C151 C 0.82435 0.48754 0.74664
 N152 N 0.84458 0.48785 0.74963
 H153 H 0.82762 0.52052 0.71027
 H154 H 0.85855 0.54993 0.76120
 H155 H 0.83899 0.58085 0.75553
 H156 H 0.80726 0.55126 0.70341
 H157 H 0.87039 0.47256 0.76145
 H158 H 0.85260 0.44133 0.76957
 H159 H 0.79761 0.46985 0.74777
 H160 H 0.81654 0.50058 0.74033
 C161 C 0.89533 0.49114 0.67844
 C162 C 0.90244 0.52597 0.80029
 C163 C 0.82366 0.45289 0.75890
 C164 C 0.82157 0.56862 0.72886
 C165 C 0.22525 0.42876 0.98134
 H166 H 0.23920 0.43011 0.97253
 C167 C 0.20929 0.44209 0.97707
 H168 H 0.21114 0.45385 0.96514
 C169 C 0.20583 0.41163 1.00747
 H170 H 0.20425 0.39936 1.01878
 C171 C 0.18956 0.42448 1.00367
 H172 H 0.17567 0.42187 1.01225
 N173 N 0.22334 0.41410 0.99658
 C174 C 0.28524 0.39654 1.01003
 H175 H 0.28371 0.38044 1.00790
 C176 C 0.30396 0.40458 1.01459
 H177 H 0.31680 0.39446 1.01533
 C178 C 0.27019 0.42908 1.01078
 H179 H 0.25688 0.43849 1.00960
 C180 C 0.28865 0.43778 1.01578
 H181 H 0.28930 0.45390 1.01840
 Zn182 Zn 0.24467 0.39559 1.00164
 N183 N 0.26892 0.40881 1.00778
 C184 C 0.26394 0.38101 0.96341
 N185 N 0.24759 0.37938 0.97648
 C186 C 0.23255 0.36653 0.97152
 C187 C 0.23401 0.35397 0.95335
 C188 C 0.26588 0.36894 0.94486
 C189 C 0.23577 0.39011 1.04514
 C190 C 0.23205 0.37994 1.06445
 C191 C 0.23562 0.34836 1.04502
 C192 C 0.23913 0.35919 1.02598
 N193 N 0.23903 0.37971 1.02637
 H194 H 0.27537 0.39188 0.96714
 H195 H 0.21952 0.36583 0.98195
 H196 H 0.22214 0.34337 0.95023
 H197 H 0.27885 0.37073 0.93451
 H198 H 0.23604 0.40642 1.04506
 H199 H 0.22922 0.38860 1.07911
 H200 H 0.23626 0.33205 1.04453
 H201 H 0.24242 0.35115 1.01108
 C202 C 0.30593 0.42549 1.01759
 C203 C 0.19116 0.44009 0.98844
 C204 C 0.23215 0.35876 1.06464
 C205 C 0.25086 0.35506 0.93967
 C206 C 0.77301 0.07995 0.97187
 H207 H 0.75872 0.07620 0.96472
 C208 C 0.79041 0.06950 0.96527
 H209 H 0.78907 0.05778 0.95309
 C210 C 0.79201 0.10072 0.99521
 H211 H 0.79274 0.11305 1.00669
 C212 C 0.80969 0.09119 0.98870
 H213 H 0.82344 0.09596 0.99638
 N214 N 0.77407 0.09488 0.98706
 C215 C 0.71425 0.10461 1.01406
 H216 H 0.71613 0.12053 1.01720
 C217 C 0.69599 0.09566 1.01852
 H218 H 0.68396 0.10478 1.02536
 C219 C 0.72768 0.07362 1.00095
 H220 H 0.74006 0.06510 0.99413
 C221 C 0.70946 0.06403 1.00497
 H222 H 0.70786 0.04828 1.00072
 Zn223 Zn 0.75134 0.10994 0.99667
 N224 N 0.72939 0.09378 1.00470
 C225 C 0.72468 0.12527 0.96483
 N226 N 0.74315 0.12736 0.97392
 C227 C 0.75626 0.14118 0.96633
 C228 C 0.75086 0.15377 0.94908
 C229 C 0.71869 0.13749 0.94756
 C230 C 0.76414 0.11320 1.03921
 C231 C 0.76866 0.12222 1.05906
 C232 C 0.76099 0.15472 1.04331
 C233 C 0.75672 0.14503 1.02361
 N234 N 0.75828 0.12461 1.02200
 H235 H 0.71460 0.11392 0.97071
 H236 H 0.77099 0.14230 0.97359
 H237 H 0.76161 0.16447 0.94304
 H238 H 0.70388 0.13565 0.94065
 H239 H 0.76515 0.09698 1.03747
 H240 H 0.77337 0.11280 1.07249
 H241 H 0.75907 0.17091 1.04453
 H242 H 0.75168 0.15378 1.00984
 C243 C 0.69313 0.07533 1.01314
 C244 C 0.80927 0.07517 0.97355
 C245 C 0.76681 0.14323 1.06145
 C246 C 0.73185 0.15195 0.93941
 C247 C 0.27564 0.58162 0.47851
 H248 H 0.26229 0.57771 0.46953
 C249 C 0.29402 0.57220 0.47345
 H250 H 0.29472 0.56091 0.46069
 C251 C 0.29136 0.60184 0.50521
 H252 H 0.29062 0.61383 0.51708
 C253 C 0.30989 0.59298 0.50062
 H254 H 0.32295 0.59787 0.50960
 N255 N 0.27462 0.59604 0.49434
 C256 C 0.21246 0.60417 0.51533
 H257 H 0.21339 0.62026 0.51798
 C258 C 0.19436 0.59448 0.51866
 H259 H 0.18151 0.60322 0.52422
 C260 C 0.22808 0.57349 0.50436
 H261 H 0.24121 0.56545 0.49853
 C262 C 0.21007 0.56315 0.50732
 H263 H 0.20945 0.54723 0.50345
 Zn264 Zn 0.25045 0.61056 0.50039
 N265 N 0.22869 0.59379 0.50769
 C266 C 0.22633 0.62086 0.46433
 N267 N 0.24345 0.62545 0.47525
 C268 C 0.25616 0.63969 0.46770
 C269 C 0.25167 0.65016 0.44861
 C270 C 0.22146 0.63070 0.44501
 C271 C 0.25947 0.61835 0.54347
 C272 C 0.26401 0.62949 0.56203
 C273 C 0.25768 0.66005 0.54183
 C274 C 0.25348 0.64827 0.52350
 N275 N 0.25474 0.62781 0.52458
 H276 H 0.21663 0.60919 0.47026
 H277 H 0.26989 0.64274 0.47642
 H278 H 0.26204 0.66127 0.44262
 H279 H 0.20794 0.62667 0.43634
 H280 H 0.26026 0.60206 0.54389
 H281 H 0.26844 0.62153 0.57661
 H282 H 0.25639 0.67630 0.54075
 H283 H 0.24920 0.65551 0.50848
 C284 C 0.19275 0.57385 0.51387
 C285 C 0.31147 0.57810 0.48445
 C286 C 0.26315 0.65066 0.56144
 C287 C 0.23423 0.64551 0.43694
 C288 C 0.72984 0.91856 0.48752
 H289 H 0.74424 0.92534 0.49049
 C290 C 0.71308 0.93087 0.48351
 H291 H 0.71487 0.94706 0.48302
 C292 C 0.70992 0.88932 0.48505
 H293 H 0.70878 0.87310 0.48616
 C294 C 0.69279 0.90104 0.48107
 H295 H 0.67850 0.89365 0.47930
 N296 N 0.72794 0.89818 0.48835
 C297 C 0.78029 0.89696 0.52410
 H298 H 0.77274 0.88943 0.53723
 C299 C 0.79840 0.90675 0.52809
 H300 H 0.80437 0.90697 0.54444
 C301 C 0.78187 0.90552 0.48681
 H302 H 0.77550 0.90457 0.47067
 C303 C 0.80003 0.91529 0.49002
 H304 H 0.80755 0.92165 0.47612
 Zn305 Zn 0.74961 0.88114 0.49668
 N306 N 0.77249 0.89646 0.50368
 C307 C 0.77335 0.85124 0.47631
 N308 N 0.75725 0.86380 0.47355
 C309 C 0.74807 0.86563 0.45392
 C310 C 0.75523 0.85479 0.43601
 C311 C 0.78088 0.83991 0.45883
 C312 C 0.73221 0.87742 0.53733
 C313 C 0.72490 0.86793 0.55581
 C314 C 0.73535 0.83587 0.54053
 C315 C 0.74221 0.84598 0.52214
 N316 N 0.74086 0.86644 0.52108
 H317 H 0.78070 0.85046 0.49197
 H318 H 0.73560 0.87601 0.45192
 H319 H 0.74790 0.85663 0.42043
 H320 H 0.79395 0.83030 0.46112
 H321 H 0.73094 0.89363 0.53584
 H322 H 0.71790 0.87703 0.56839
 H323 H 0.73724 0.81966 0.54138
 H324 H 0.74873 0.83747 0.50886
 C325 C 0.80869 0.91585 0.51085
 C326 C 0.69415 0.92216 0.48053
 C327 C 0.72671 0.84687 0.55781
 C328 C 0.77200 0.84195 0.43829
 C329 C 0.01399 0.26312 0.40812
 H330 H 0.02697 0.25323 0.40690
 C331 C 0.01466 0.28027 0.42147
 H332 H 0.02828 0.28349 0.43034
 C333 C -0.01905 0.27154 0.39699
 H334 H -0.03202 0.26844 0.38709
 C335 C -0.01906 0.28874 0.41015
 H336 H -0.03230 0.29835 0.41052
 N337 N -0.00266 0.25914 0.39611
 C338 C -0.00001 0.19512 0.37891
 H339 H -0.00206 0.19632 0.36152
 C340 C 0.00215 0.17619 0.38843
 H341 H 0.00110 0.16314 0.37791
 C342 C 0.00239 0.21110 0.41322
 H343 H 0.00247 0.22478 0.42281
 C344 C 0.00437 0.19240 0.42353
 H345 H 0.00657 0.19234 0.44094
 Zn346 Zn -0.00198 0.23696 0.37630
 N347 N 0.00058 0.21211 0.39125
 C348 C 0.03459 0.22609 0.35485
 N349 N 0.02022 0.24066 0.35743
 C350 C 0.02155 0.25865 0.34704
 C351 C 0.03774 0.26251 0.33334
 C352 C 0.05092 0.22924 0.34113
 C353 C -0.04342 0.23258 0.37083
 C354 C -0.06177 0.23263 0.35988
 C355 C -0.04413 0.23859 0.32630
 C356 C -0.02610 0.23859 0.33794
 N357 N -0.02611 0.23607 0.35989
 H358 H 0.03361 0.21208 0.36360
 H359 H 0.01002 0.27006 0.34953
 H360 H 0.03857 0.27692 0.32523
 H361 H 0.06236 0.21759 0.33953
 H362 H -0.04298 0.23020 0.38821
 H363 H -0.07543 0.23022 0.36896
 H364 H -0.04392 0.24126 0.30895
 H365 H -0.01216 0.24086 0.32942
 C366 C 0.00466 0.17439 0.41115
 C367 C -0.00193 0.29354 0.42236
 C368 C -0.06231 0.23598 0.33736
 C369 C 0.05270 0.24768 0.33025
 C370 C 0.02514 0.72453 0.08945
 H371 H 0.03686 0.73561 0.08832
 C372 C 0.02501 0.70808 0.07511
 H373 H 0.03657 0.70688 0.06282
 C374 C -0.00438 0.71311 0.10654
 H375 H -0.01570 0.71495 0.11895
 C376 C -0.00489 0.69631 0.09283
 H377 H -0.01658 0.68536 0.09517
 N378 N 0.01026 0.72704 0.10439
 C379 C 0.00685 0.79189 0.11691
 H380 H 0.00569 0.79170 0.13444
 C381 C 0.00682 0.81024 0.10594
 H382 H 0.00553 0.82413 0.11518
 C383 C 0.00958 0.77395 0.08365
 H384 H 0.01041 0.75980 0.07495
 C385 C 0.00955 0.79200 0.07198
 H386 H 0.01083 0.79152 0.05445
 Zn387 Zn 0.00986 0.75029 0.12262
 N388 N 0.00881 0.77423 0.10577
 C389 C 0.04540 0.76614 0.14145
 N390 N 0.03310 0.74995 0.14054
 C391 C 0.03683 0.73328 0.15277
 C392 C 0.05315 0.73269 0.16704
 C393 C 0.06174 0.76628 0.15565
 C394 C -0.03132 0.75262 0.12991
 C395 C -0.04917 0.75359 0.14169
 C396 C -0.02999 0.75003 0.17474
 C397 C -0.01249 0.74927 0.16223
 N398 N -0.01347 0.75044 0.14023
 H399 H 0.04259 0.77906 0.13127
 H400 H 0.02690 0.72054 0.15165
 H401 H 0.05575 0.71941 0.17686
 H402 H 0.07136 0.77930 0.15614
 H403 H -0.03167 0.75350 0.11236
 H404 H -0.06284 0.75427 0.13229
 H405 H -0.02809 0.74990 0.19216
 H406 H 0.00188 0.74809 0.17023
 C407 C 0.00856 0.81047 0.08319
 C408 C 0.00970 0.69375 0.07651
 C409 C -0.04903 0.75242 0.16472
 C410 C 0.06571 0.74945 0.16877
 C411 C 0.50818 0.22427 0.59926
 H412 H 0.51823 0.23597 0.59416
 C413 C 0.50819 0.20580 0.58818
 H414 H 0.51842 0.20346 0.57472
 C415 C 0.48344 0.21273 0.62365
 H416 H 0.47413 0.21528 0.63779
 C417 C 0.48291 0.19412 0.61302
 H418 H 0.47275 0.18274 0.61884
 N419 N 0.49593 0.22740 0.61668
 C420 C 0.48406 0.28640 0.60828
 H421 H 0.46946 0.28359 0.61512
 C422 C 0.48663 0.30303 0.59469
 H423 H 0.47397 0.31292 0.59138
 C424 C 0.51844 0.27755 0.60495
 H425 H 0.53086 0.26769 0.60924
 C426 C 0.52172 0.29406 0.59147
 H427 H 0.53665 0.29665 0.58526
 Zn428 Zn 0.49718 0.25204 0.63261
 N429 N 0.49987 0.27405 0.61314
 C430 C 0.52565 0.26818 0.66175
 N431 N 0.52015 0.25121 0.65090
 C432 C 0.53099 0.23378 0.65271
 C433 C 0.54801 0.23293 0.66594
 C434 C 0.54245 0.26794 0.67535
 C435 C 0.45530 0.25270 0.64018
 C436 C 0.43767 0.25384 0.65244
 C437 C 0.45759 0.26089 0.68429
 C438 C 0.47487 0.25916 0.67153
 N439 N 0.47348 0.25521 0.64984
 H440 H 0.51685 0.28188 0.65994
 H441 H 0.52648 0.22049 0.64384
 H442 H 0.55658 0.21899 0.66673
 H443 H 0.54625 0.28153 0.68416
 H444 H 0.45453 0.24939 0.62296
 H445 H 0.42334 0.25159 0.64456
 H446 H 0.45896 0.26394 0.70153
 H447 H 0.48936 0.26083 0.67909
 C448 C 0.50572 0.30715 0.58629
 C449 C 0.49555 0.19033 0.59515
 C450 C 0.43874 0.25801 0.67478
 C451 C 0.55396 0.25014 0.67759
 C452 C 0.51309 0.77564 0.90975
 H453 H 0.52656 0.76655 0.90773
 C454 C 0.51325 0.79252 0.92343
 H455 H 0.52701 0.79646 0.93169
 C456 C 0.47911 0.78203 0.90051
 H457 H 0.46591 0.77812 0.89134
 C458 C 0.47858 0.79893 0.91407
 H459 H 0.46477 0.80761 0.91542
 N460 N 0.49619 0.77073 0.89863
 C461 C 0.49946 0.70645 0.88439
 H462 H 0.49711 0.70660 0.86699
 C463 C 0.50160 0.68814 0.89524
 H464 H 0.50077 0.67420 0.88606
 C465 C 0.50278 0.72449 0.91750
 H466 H 0.50305 0.73868 0.92615
 C467 C 0.50492 0.70650 0.92903
 H468 H 0.50718 0.70705 0.94644
 Zn469 Zn 0.49740 0.74828 0.87948
 N470 N 0.50041 0.72415 0.89553
 C471 C 0.53387 0.73713 0.85837
 N472 N 0.51966 0.75187 0.86081
 C473 C 0.52158 0.77008 0.85100
 C474 C 0.53848 0.77414 0.83842
 C475 C 0.55082 0.74043 0.84564
 C476 C 0.45646 0.74167 0.87430
 C477 C 0.43833 0.73928 0.86335
 C478 C 0.45533 0.74599 0.82955
 C479 C 0.47319 0.74837 0.84120
 N480 N 0.47339 0.74627 0.86319
 H481 H 0.53235 0.72291 0.86661
 H482 H 0.51016 0.78161 0.85339
 H483 H 0.53998 0.78882 0.83100
 H484 H 0.56218 0.72868 0.84421
 H485 H 0.45709 0.73987 0.89175
 H486 H 0.42499 0.73601 0.87265
 H487 H 0.45552 0.74741 0.81203
 H488 H 0.48689 0.75166 0.83263
 C489 C 0.50452 0.68801 0.91785
 C490 C 0.49586 0.80453 0.92559
 C491 C 0.43757 0.74130 0.84063
 C492 C 0.55339 0.75921 0.83571
 C493 C -0.23186 0.64866 0.97403
 H494 H -0.22430 0.65072 0.98943
 C495 C -0.22526 0.65894 0.95560
 H496 H -0.21267 0.66903 0.95691
 C497 C -0.25681 0.63219 0.95331
 H498 H -0.26871 0.62136 0.95226
 C499 C -0.25063 0.64199 0.93456
 H500 H -0.25830 0.63899 0.91939
 N501 N -0.24743 0.63563 0.97257
 C502 C -0.26874 0.62467 1.03819
 H503 H -0.27009 0.60851 1.03643
 C504 C -0.27420 0.63396 1.05764
 H505 H -0.28037 0.62451 1.07016
 C506 C -0.26035 0.65604 1.02279
 H507 H -0.25499 0.66454 1.00908
 C508 C -0.26553 0.66605 1.04214
 H509 H -0.26326 0.68214 1.04291
 Zn510 Zn -0.25449 0.61988 0.99690
 N511 N -0.26160 0.63565 1.02142
 C512 C -0.22181 0.60691 1.02251
 N513 N -0.23204 0.60350 1.00375
 C514 C -0.22527 0.58991 0.98875
 C515 C -0.20734 0.57929 0.99224
 C516 C -0.20371 0.59683 1.02651
 C517 C -0.29421 0.61509 0.98615
 C518 C -0.31258 0.60553 0.98444
 C519 C -0.29587 0.57373 0.99174
 C520 C -0.27767 0.58394 0.99316
 N521 N -0.27728 0.60431 0.99068
 H522 H -0.22719 0.61809 1.03400
 H523 H -0.23350 0.58781 0.97378
 H524 H -0.20176 0.56902 0.97985
 H525 H -0.19542 0.60014 1.04122
 H526 H -0.29347 0.63130 0.98460
 H527 H -0.32592 0.61449 0.98112
 H528 H -0.29614 0.55767 0.99477
 H529 H -0.26412 0.57573 0.99732
 C530 C -0.27214 0.65498 1.06034
 C531 C -0.23452 0.65538 0.93549
 C532 C -0.31369 0.58468 0.98791
 C533 C -0.19614 0.58308 1.01110
 C534 C -0.22330 0.37726 0.53566
 H535 H -0.21395 0.38950 0.53054
 C536 C -0.21840 0.36695 0.55352
 H537 H -0.20484 0.37095 0.56207
 C538 C -0.25159 0.35665 0.52854
 H539 H -0.26451 0.35282 0.51880
 C540 C -0.24662 0.34462 0.54798
 H541 H -0.25679 0.33274 0.55235
 N542 N -0.24067 0.37196 0.52317
 C543 C -0.27468 0.37212 0.46650
 H544 H -0.28378 0.38496 0.47124
 C545 C -0.28130 0.35968 0.44974
 H546 H -0.29535 0.36320 0.44167
 C547 C -0.24555 0.35178 0.47120
 H548 H -0.23156 0.34890 0.47962
 C549 C -0.25169 0.33883 0.45456
 H550 H -0.24218 0.32615 0.44998
 Zn551 Zn -0.24733 0.38669 0.49783
 N552 N -0.25676 0.36840 0.47640
 C553 C -0.21390 0.39333 0.47022
 N554 N -0.22437 0.40038 0.48770
 C555 C -0.21819 0.41688 0.49896
 C556 C -0.20016 0.42614 0.49366
 C557 C -0.19575 0.40205 0.46443
 C558 C -0.27933 0.40465 0.52185
 C559 C -0.29656 0.41674 0.52401
 C560 C -0.28886 0.43198 0.48948
 C561 C -0.27173 0.41979 0.48816
 N562 N -0.26779 0.40589 0.50374
 H563 H -0.21922 0.38052 0.46113
 H564 H -0.22691 0.42234 0.51265
 H565 H -0.19497 0.43859 0.50352
 H566 H -0.18727 0.39581 0.45093
 H567 H -0.27583 0.39350 0.53408
 H568 H -0.30609 0.41424 0.53792
 H569 H -0.29156 0.44269 0.47658
 H570 H -0.26208 0.42065 0.47407
 C571 C -0.26955 0.34303 0.44327
 C572 C -0.23082 0.34963 0.56061
 C573 C -0.30221 0.43003 0.50713
 C574 C -0.18842 0.41833 0.47658
 C575 C 0.25732 -0.15456 0.02108
 H576 H 0.25445 -0.16081 0.00514
 C577 C 0.26354 -0.16670 0.03711
 H578 H 0.26574 -0.18250 0.03334
 C579 C 0.25981 -0.12521 0.04330
 H580 H 0.25914 -0.10901 0.04532
 C581 C 0.26623 -0.13802 0.06161
 H582 H 0.26840 -0.13052 0.07704
 N583 N 0.25550 -0.13319 0.02458
 C584 C 0.25469 -0.12771 -0.04281
 H585 H 0.26748 -0.11790 -0.04290
 C586 C 0.24872 -0.13699 -0.06208
 H587 H 0.25736 -0.13463 -0.07673
 C588 C 0.22749 -0.14219 -0.02392
 H589 H 0.21908 -0.14372 -0.00901
 C590 C 0.22104 -0.15188 -0.04285
 H591 H 0.20765 -0.16092 -0.04244
 Zn592 Zn 0.25038 -0.11559 0.00108
 N593 N 0.24404 -0.13040 -0.02425
 C594 C 0.29097 -0.11183 -0.00663
 N595 N 0.27401 -0.10072 -0.00320
 C596 C 0.27454 -0.08026 -0.00158
 C597 C 0.29282 -0.07022 -0.00317
 C598 C 0.30946 -0.10247 -0.00837
 C599 C 0.21690 -0.09849 0.02453
 C600 C 0.19906 -0.08716 0.02576
 C601 C 0.20513 -0.07537 -0.01069
 C602 C 0.22286 -0.08665 -0.01106
 N603 N 0.22820 -0.09822 0.00616
 H604 H 0.29012 -0.12809 -0.00769
 H605 H 0.26091 -0.07175 0.00155
 H606 H 0.29312 -0.05401 -0.00118
 H607 H 0.32279 -0.11165 -0.01104
 H608 H 0.22121 -0.10813 0.03790
 H609 H 0.18996 -0.08861 0.04019
 H610 H 0.20161 -0.06625 -0.02474
 H611 H 0.23217 -0.08672 -0.02546
 C612 C 0.23156 -0.14906 -0.06232
 C613 C 0.26841 -0.15823 0.05903
 C614 C 0.19243 -0.07588 0.00764
 C615 C 0.31063 -0.08142 -0.00623
 C616 C 0.26837 1.13212 0.47587
 H617 H 0.27888 1.13338 0.48915
 C618 C 0.27200 1.14226 0.45645
 H619 H 0.28545 1.15110 0.45485
 C620 C 0.23825 1.11881 0.46166
 H621 H 0.22494 1.10994 0.46384
 C622 C 0.24130 1.12863 0.44200
 H623 H 0.23027 1.12716 0.42919
 N624 N 0.25190 1.12038 0.47798
 C625 C 0.24367 1.11706 0.54733
 H626 H 0.24960 1.10205 0.55021
 C627 C 0.23758 1.12908 0.56477
 H628 H 0.23939 1.12335 0.58110
 C629 C 0.23429 1.14265 0.52240
 H630 H 0.23277 1.14765 0.50578
 C631 C 0.22791 1.15521 0.53944
 H632 H 0.22154 1.16990 0.53580
 Zn633 Zn 0.24840 1.10575 0.50399
 N634 N 0.24181 1.12392 0.52666
 C635 C 0.28676 1.10426 0.52143
 N636 N 0.27302 1.09273 0.51101
 C637 C 0.27745 1.07344 0.50490
 C638 C 0.29666 1.06535 0.50852
 C639 C 0.30599 1.09678 0.52547
 C640 C 0.21107 1.08963 0.51449
 C641 C 0.19354 1.07893 0.51117
 C642 C 0.20893 1.06260 0.48013
 C643 C 0.22635 1.07366 0.48410
 N644 N 0.22691 1.08727 0.50076
 H645 H 0.28292 1.11954 0.52618
 H646 H 0.26636 1.06449 0.49665
 H647 H 0.30021 1.05028 0.50275
 H648 H 0.31671 1.10635 0.53360
 H649 H 0.21156 1.10046 0.52759
 H650 H 0.18096 1.08149 0.52200
 H651 H 0.20829 1.05259 0.46621
 H652 H 0.23893 1.07227 0.47309
 C653 C 0.22929 1.14832 0.56095
 C654 C 0.25852 1.14030 0.43908
 C655 C 0.19206 1.06572 0.49342
 C656 C 0.31134 1.07727 0.51852
 C657 C 0.16391 0.47806 0.27056
 H658 H 0.16538 0.49194 0.27968
 C659 C 0.17450 0.46072 0.27709
 H660 H 0.18419 0.46133 0.29119
 C661 C 0.14890 0.46005 0.24159
 H662 H 0.13862 0.45958 0.22807
 C663 C 0.15900 0.44247 0.24761
 H664 H 0.15671 0.42884 0.23822
 N665 N 0.15156 0.47745 0.25293
 C666 C 0.14254 0.53884 0.22969
 H667 H 0.12671 0.53769 0.22614
 C668 C 0.15227 0.55701 0.22643
 H669 H 0.14382 0.56975 0.22012
 C670 C 0.17258 0.52359 0.24256
 H671 H 0.18039 0.51054 0.24894
 C672 C 0.18294 0.54161 0.23965
 H673 H 0.19859 0.54237 0.24421
 Zn674 Zn 0.13628 0.50044 0.24448
 N675 N 0.15258 0.52279 0.23824
 C676 C 0.12078 0.52540 0.27799
 N677 N 0.11866 0.50739 0.26759
 C678 C 0.10477 0.49389 0.27418
 C679 C 0.09206 0.49845 0.29163
 C680 C 0.10860 0.53044 0.29568
 C681 C 0.13327 0.49083 0.20079
 C682 C 0.12432 0.48636 0.18092
 C683 C 0.09191 0.48997 0.19804
 C684 C 0.10161 0.49438 0.21762
 N685 N 0.12193 0.49456 0.21867
 H686 H 0.13221 0.53575 0.27293
 H687 H 0.10368 0.47949 0.26595
 H688 H 0.08124 0.48745 0.29687
 H689 H 0.11061 0.54476 0.30389
 H690 H 0.14946 0.49102 0.20211
 H691 H 0.13435 0.48242 0.16777
 H692 H 0.07574 0.49097 0.19810
 H693 H 0.09279 0.49797 0.23187
 C694 C 0.17256 0.55878 0.23210
 C695 C 0.17189 0.44260 0.26562
 C696 C 0.10314 0.48596 0.17886
 C697 C 0.09405 0.51687 0.30271
 C698 C -0.14417 1.03638 0.27700
 H699 H -0.13221 1.03023 0.28683
 C700 C -0.15378 1.05421 0.28363
 H701 H -0.14906 1.06153 0.29851
 C702 C -0.16510 1.03433 0.24600
 H703 H -0.16959 1.02638 0.23145
 C704 C -0.17509 1.05209 0.25199
 H705 H -0.18683 1.05796 0.24154
 N706 N -0.14951 1.02718 0.25809
 C707 C -0.15102 0.97570 0.21811
 H708 H -0.13871 0.97995 0.20775
 C709 C -0.16351 0.95998 0.21181
 H710 H -0.16078 0.95232 0.19650
 C711 C -0.16913 0.98004 0.25097
 H712 H -0.17093 0.98773 0.26641
 C713 C -0.18200 0.96442 0.24530
 H714 H -0.19355 0.95999 0.25662
 Zn715 Zn -0.13515 1.00440 0.24719
 N716 N -0.15375 0.98503 0.23762
 C717 C -0.12208 0.97423 0.27700
 N718 N -0.11863 0.99307 0.26928
 C719 C -0.10304 1.00414 0.27679
 C720 C -0.09027 0.99642 0.29272
 C721 C -0.10974 0.96596 0.29312
 C722 C -0.12709 1.02391 0.20746
 C723 C -0.11561 1.03007 0.18981
 C724 C -0.08712 1.01245 0.20512
 C725 C -0.09922 1.00656 0.22244
 N726 N -0.11881 1.01242 0.22341
 H727 H -0.13437 0.96552 0.27066
 H728 H -0.10048 1.01900 0.27027
 H729 H -0.07810 1.00560 0.29865
 H730 H -0.11264 0.95095 0.29909
 H731 H -0.14266 1.02838 0.20835
 H732 H -0.12278 1.03979 0.17800
 H733 H -0.07188 1.00670 0.20469
 H734 H -0.09296 0.99689 0.23484
 C735 C -0.17895 0.95384 0.22573
 C736 C -0.16917 1.06252 0.27079
 C737 C -0.09520 1.02430 0.18815
 C738 C -0.09354 0.97709 0.30110
 C739 C 0.34030 0.52187 -0.22058
 H740 H 0.33911 0.50946 -0.20935
 C741 C 0.33058 0.54022 -0.21592
 H742 H 0.32168 0.54177 -0.20128
 C743 C 0.35454 0.53563 -0.25244
 H744 H 0.36428 0.53413 -0.26635
 C745 C 0.34528 0.55414 -0.24832
 H746 H 0.34767 0.56652 -0.25941
 N747 N 0.35211 0.51994 -0.23858
 C748 C 0.36125 0.45597 -0.25694
 H749 H 0.37666 0.45695 -0.26226
 C750 C 0.35115 0.43899 -0.26023
 H751 H 0.35908 0.42630 -0.26744
 C752 C 0.33314 0.47244 -0.24043
 H753 H 0.32599 0.48553 -0.23329
 C754 C 0.32149 0.45383 -0.24324
 H755 H 0.30597 0.45421 -0.23818
 Zn756 Zn 0.36783 0.49623 -0.24375
 N757 N 0.35179 0.47304 -0.24658
 C758 C 0.39755 0.47552 -0.21891
 N759 N 0.38629 0.49271 -0.22056
 C760 C 0.38758 0.50759 -0.20538
 C761 C 0.39995 0.50522 -0.18732
 C762 C 0.41028 0.47256 -0.20109
 C763 C 0.37006 0.49914 -0.28849
 C764 C 0.37874 0.50182 -0.30881
 C765 C 0.41114 0.50428 -0.29141
 C766 C 0.40178 0.50163 -0.27130
 N767 N 0.38158 0.49920 -0.27028
 H768 H 0.39653 0.46398 -0.23128
 H769 H 0.37890 0.52132 -0.20709
 H770 H 0.40007 0.51703 -0.17512
 H771 H 0.41908 0.45878 -0.20002
 H772 H 0.35402 0.49727 -0.28711
 H773 H 0.36918 0.50213 -0.32304
 H774 H 0.42726 0.50597 -0.29204
 H775 H 0.41060 0.50163 -0.25655
 C776 C 0.32991 0.43744 -0.25290
 C777 C 0.33342 0.55670 -0.22970
 C778 C 0.39955 0.50438 -0.31051
 C779 C 0.41145 0.48749 -0.18487
 C780 C 0.65773 -0.01394 -0.22551
 H781 H 0.66406 -0.00037 -0.21874
 C782 C 0.66580 -0.03198 -0.22041
 H783 H 0.67860 -0.03248 -0.20960
 C784 C 0.63122 -0.02893 -0.24549
 H785 H 0.61758 -0.02791 -0.25490
 C786 C 0.63931 -0.04897 -0.24011
 H787 H 0.63178 -0.06171 -0.24730
 N788 N 0.64033 -0.01266 -0.23932
 C789 C 0.63533 0.04953 -0.26358
 H790 H 0.61930 0.04897 -0.26622
 C791 C 0.64556 0.06724 -0.26786
 H792 H 0.63680 0.08009 -0.27328
 C793 C 0.66521 0.03340 -0.25185
 H794 H 0.67294 0.02007 -0.24615
 C795 C 0.67606 0.05101 -0.25550
 H796 H 0.69207 0.05058 -0.25263
 Zn797 Zn 0.62752 0.01178 -0.24848
 N798 N 0.64506 0.03321 -0.25522
 C799 C 0.61324 0.03791 -0.21529
 N800 N 0.60980 0.02033 -0.22608
 C801 C 0.59445 0.00816 -0.22031
 C802 C 0.58177 0.01356 -0.20311
 C803 C 0.60106 0.04377 -0.19787
 C804 C 0.62409 -0.00275 -0.29063
 C805 C 0.61463 -0.00941 -0.30950
 C806 C 0.58314 0.00320 -0.29514
 C807 C 0.59319 0.00938 -0.27637
 N808 N 0.61325 0.00598 -0.27433
 H809 H 0.62576 0.04719 -0.21976
 H810 H 0.59223 -0.00590 -0.22891
 H811 H 0.56992 0.00347 -0.19840
 H812 H 0.60420 0.05766 -0.18926
 H813 H 0.64004 -0.00523 -0.28855
 H814 H 0.62349 -0.01711 -0.32179
 H815 H 0.56719 0.00616 -0.29650
 H816 H 0.58494 0.01675 -0.26341
 C817 C 0.66625 0.06855 -0.26333
 C818 C 0.65627 -0.05094 -0.22827
 C819 C 0.59382 -0.00666 -0.31191
 C820 C 0.58519 0.03146 -0.19149
 C821 C 0.02522 0.26201 0.83650
 H822 H 0.01449 0.27423 0.83442
 C823 C 0.04179 0.26037 0.82265
 H824 H 0.04346 0.27125 0.80976
 C825 C 0.03570 0.23286 0.85567
 H826 H 0.03349 0.22235 0.86878
 C827 C 0.05259 0.23081 0.84242
 H828 H 0.06322 0.21874 0.84572
 N829 N 0.02226 0.24811 0.85232
 C830 C -0.04197 0.25312 0.86447
 H831 H -0.04160 0.25384 0.88203
 C832 C -0.06020 0.25496 0.85354
 H833 H -0.07387 0.25689 0.86284
 C834 C -0.02450 0.24965 0.83111
 H835 H -0.01057 0.24745 0.82243
 C836 C -0.04249 0.25133 0.81948
 H837 H -0.04219 0.25077 0.80189
 Zn838 Zn -0.00081 0.25059 0.87023
 N839 N -0.02454 0.25111 0.85319
 C840 C -0.01152 0.29064 0.88084
 N841 N 0.00102 0.27509 0.88619
 C842 C 0.01527 0.27728 0.90186
 C843 C 0.01684 0.29548 0.91333
 C844 C -0.01021 0.30913 0.89156
 C845 C -0.00492 0.20993 0.87850
 C846 C -0.00719 0.19229 0.89040
 C847 C -0.00530 0.21191 0.92349
 C848 C -0.00313 0.22928 0.91090
 N849 N -0.00281 0.22795 0.88881
 H850 H -0.02228 0.28892 0.86787
 H851 H 0.02546 0.26491 0.90541
 H852 H 0.02825 0.29709 0.92573
 H853 H -0.02022 0.32138 0.88697
 H854 H -0.00485 0.20933 0.86093
 H855 H -0.00858 0.17809 0.88180
 H856 H -0.00574 0.21321 0.94103
 H857 H -0.00206 0.24378 0.91883
 C858 C -0.06058 0.25446 0.83073
 C859 C 0.05573 0.24450 0.82540
 C860 C -0.00749 0.19312 0.91320
 C861 C 0.00407 0.31169 0.90803
 C862 C 0.47229 0.24607 0.17564
 H863 H 0.48624 0.24984 0.18353
 C864 C 0.45503 0.24325 0.18815
 H865 H 0.45585 0.24479 0.20565
 C866 C 0.45425 0.23915 0.14332
 H867 H 0.45409 0.23766 0.12580
 C868 C 0.43675 0.23610 0.15515
 H869 H 0.42308 0.23247 0.14655
 N870 N 0.47153 0.24414 0.15362
 C871 C 0.53205 0.23501 0.15303
 H872 H 0.52987 0.22146 0.14360
 C873 C 0.54976 0.23727 0.16488
 H874 H 0.56106 0.22540 0.16442
 C875 C 0.52054 0.26733 0.16439
 H876 H 0.50911 0.27904 0.16394
 C877 C 0.53819 0.27035 0.17616
 H878 H 0.54026 0.28440 0.18486
 Zn879 Zn 0.49431 0.24791 0.13581
 N880 N 0.51785 0.24994 0.15302
 C881 C 0.50724 0.27873 0.10816
 N882 N 0.49140 0.27221 0.12000
 C883 C 0.47409 0.28321 0.12132
 C884 C 0.47221 0.30151 0.11040
 C885 C 0.50604 0.29702 0.09704
 C886 C 0.49616 0.20684 0.12509
 C887 C 0.49712 0.18985 0.11164
 C888 C 0.49725 0.21177 0.08041
 C889 C 0.49638 0.22837 0.09448
 N890 N 0.49612 0.22564 0.11640
 H891 H 0.52093 0.26981 0.10762
 H892 H 0.46174 0.27794 0.13100
 H893 H 0.45823 0.30994 0.11156
 H894 H 0.51898 0.30218 0.08812
 H895 H 0.49542 0.20507 0.14253
 H896 H 0.49709 0.17502 0.11890
 H897 H 0.49777 0.21422 0.06303
 H898 H 0.49587 0.24340 0.08784
 C899 C 0.55308 0.25521 0.17642
 C900 C 0.43696 0.23815 0.17788
 C901 C 0.49780 0.19219 0.08897
 C902 C 0.48837 0.30876 0.09820
 C903 C -0.03095 0.76056 0.65992
 H904 H -0.02059 0.77288 0.65814
 C905 C -0.04678 0.76255 0.67313
 H906 H -0.04909 0.77685 0.68130
 C907 C -0.03999 0.72736 0.64914
 H908 H -0.03739 0.71375 0.63981
 C909 C -0.05767 0.72882 0.66348
 H910 H -0.06684 0.71557 0.66465
 N911 N -0.02756 0.74222 0.64789
 C912 C 0.03703 0.73998 0.63896
 H913 H 0.03819 0.73913 0.62144
 C914 C 0.05435 0.73974 0.65170
 H915 H 0.06885 0.73870 0.64383
 C916 C 0.01666 0.74169 0.67047
 H917 H 0.00195 0.74210 0.67778
 C918 C 0.03360 0.74140 0.68384
 H919 H 0.03173 0.74210 0.70131
 Zn920 Zn -0.00429 0.74078 0.63031
 N921 N 0.01866 0.74126 0.64845
 C922 C 0.00970 0.77714 0.61109
 N923 N -0.00514 0.76327 0.61133
 C924 C -0.02155 0.76528 0.59835
 C925 C -0.02333 0.78153 0.58409
 C926 C 0.00854 0.79363 0.59705
 C927 C -0.00132 0.69880 0.62514
 C928 C 0.00090 0.68048 0.61407
 C929 C -0.00012 0.69858 0.58014
 C930 C -0.00238 0.71658 0.59187
 N931 N -0.00301 0.71638 0.61399
 H932 H 0.02239 0.77559 0.62190
 H933 H -0.03324 0.75415 0.59904
 H934 H -0.03637 0.78264 0.57366
 H935 H 0.02039 0.80463 0.59730
 H936 H -0.00152 0.69906 0.64272
 H937 H 0.00199 0.66668 0.62333
 H938 H 0.00078 0.69914 0.56259
 H939 H -0.00316 0.73071 0.58326
 C940 C 0.05276 0.74058 0.67447
 C941 C -0.06135 0.74576 0.67529
 C942 C 0.00169 0.68019 0.59124
 C943 C -0.00814 0.79598 0.58326
 C944 C 0.53368 0.76398 0.34185
 H945 H 0.52167 0.77510 0.34141
 C946 C 0.55026 0.76602 0.32822
 H947 H 0.55048 0.77851 0.31699
 C948 C 0.54751 0.73415 0.35695
 H949 H 0.54653 0.72195 0.36846
 C950 C 0.56461 0.73586 0.34399
 H951 H 0.57663 0.72493 0.34598
 N952 N 0.53242 0.74805 0.35558
 C953 C 0.46824 0.74486 0.36890
 H954 H 0.46886 0.74316 0.38637
 C955 C 0.44971 0.74585 0.35840
 H956 H 0.43614 0.74468 0.36793
 C957 C 0.48527 0.74814 0.33537
 H958 H 0.49913 0.74880 0.32638
 C959 C 0.46701 0.74921 0.32417
 H960 H 0.46708 0.75116 0.30672
 Zn961 Zn 0.50965 0.74665 0.37397
 N962 N 0.48554 0.74660 0.35743
 C963 C 0.49477 0.78332 0.39197
 N964 N 0.51012 0.76964 0.39245
 C965 C 0.52656 0.77270 0.40511
 C966 C 0.52803 0.79014 0.41788
 C967 C 0.49557 0.80085 0.40452
 C968 C 0.50897 0.70496 0.37923
 C969 C 0.50682 0.68673 0.39016
 C970 C 0.50696 0.70499 0.42421
 C971 C 0.50913 0.72292 0.41260
 N972 N 0.50993 0.72259 0.39050
 H973 H 0.48201 0.78093 0.38153
 H974 H 0.53871 0.76173 0.40496
 H975 H 0.54145 0.79254 0.42741
 H976 H 0.48309 0.81144 0.40392
 H977 H 0.50940 0.70515 0.36166
 H978 H 0.50602 0.67289 0.38082
 H979 H 0.50571 0.70560 0.44175
 H980 H 0.50946 0.73713 0.42125
 C981 C 0.44890 0.74849 0.33577
 C982 C 0.56617 0.75191 0.32919
 C983 C 0.50542 0.68659 0.41295
 C984 C 0.51248 0.80462 0.41749
 B985 B -0.01209 0.01281 1.01560
 B986 B -0.02195 0.00926 0.99075
 B987 B -0.00270 0.02513 0.99400
 B988 B 0.01297 0.01569 1.01304
 B989 B 0.00326 -0.00661 1.02142
 B990 B -0.01858 -0.01062 1.00757
 B991 B 0.01195 -0.00990 0.97802
 B992 B 0.02189 -0.00628 1.00283
 B993 B 0.00272 -0.02221 0.99965
 B994 B -0.01310 -0.01277 0.98062
 B995 B -0.00335 0.00951 0.97222
 B996 B 0.01848 0.01353 0.98606
 B997 B 0.48929 0.50688 0.51815
 B998 B 0.47937 0.50325 0.49339
 B999 B 0.49769 0.52018 0.49681
 B1000 B 0.51407 0.51117 0.51545
 B1001 B 0.50572 0.48816 0.52337
 B1002 B 0.48407 0.48325 0.50962
 B1003 B 0.51418 0.48636 0.47982
 B1004 B 0.52410 0.48995 0.50466
 B1005 B 0.50586 0.47302 0.50118
 B1006 B 0.48940 0.48202 0.48256
 B1007 B 0.49773 0.50504 0.47466
 B1008 B 0.51942 0.50994 0.48843
 B1009 B 0.51558 0.98627 0.51569
 B1010 B 0.52512 0.99273 0.49124
 B1011 B 0.50538 0.97712 0.49267
 B1012 B 0.49042 0.98469 0.51329
 B1013 B 0.50106 1.00547 0.52469
 B1014 B 0.52275 1.01029 0.51118
 B1015 B 0.49155 1.01434 0.48257
 B1016 B 0.48213 1.00809 0.50696
 B1017 B 0.50184 1.02357 0.50551
 B1018 B 0.51681 1.01598 0.48485
 B1019 B 0.50607 0.99527 0.47344
 B1020 B 0.48438 0.99050 0.48722
 B1021 B 0.00746 0.49264 1.01262
 B1022 B 0.01823 0.49660 0.98835
 B1023 B -0.00036 0.47991 0.99042
 B1024 B -0.01725 0.48865 1.00872
 B1025 B -0.00891 0.51138 1.01783
 B1026 B 0.01327 0.51629 1.00513
 B1027 B -0.01593 0.51433 0.97406
 B1028 B -0.02667 0.51024 0.99834
 B1029 B -0.00804 0.52704 0.99627
 B1030 B 0.00887 0.51823 0.97793
 B1031 B 0.00048 0.49557 0.96883
 B1032 B -0.02169 0.49060 0.98150
 B1033 B 0.01562 0.50352 0.47776
 B1034 B 0.02555 0.49821 0.50223
 B1035 B 0.00656 0.51505 0.50028
 B1036 B -0.00935 0.50729 0.48071
 B1037 B -0.00006 0.48513 0.47065
 B1038 B 0.02175 0.47944 0.48402
 B1039 B -0.00874 0.47984 0.51375
 B1040 B -0.01861 0.48522 0.48929
 B1041 B 0.00031 0.46830 0.49121
 B1042 B 0.01630 0.47603 0.51083
 B1043 B 0.00701 0.49827 0.52088
 B1044 B -0.01479 0.50393 0.50748
 B1045 B 0.51179 0.01200 -0.01497
 B1046 B 0.52320 0.00595 0.00854
 B1047 B 0.50450 0.02323 0.00845
 B1048 B 0.48711 0.01619 -0.01003
 B1049 B 0.49532 -0.00596 -0.02124
 B1050 B 0.51785 -0.01230 -0.00971
 B1051 B 0.48948 -0.01191 0.02233
 B1052 B 0.47807 -0.00594 -0.00118
 B1053 B 0.49679 -0.02315 -0.00109
 B1054 B 0.51413 -0.01614 0.01738
 B1055 B 0.50594 0.00603 0.02858
 B1056 B 0.48343 0.01239 0.01703
 B1057 B 0.48794 0.48725 -0.00923
 B1058 B 0.47617 0.49293 0.01413
 B1059 B 0.49526 0.47609 0.01404
 B1060 B 0.51264 0.48366 -0.00407
 B1061 B 0.50403 0.50566 -0.01505
 B1062 B 0.48132 0.51142 -0.00369
 B1063 B 0.50932 0.51150 0.02869
 B1064 B 0.52107 0.50593 0.00521
 B1065 B 0.50199 0.52268 0.00539
 B1066 B 0.48467 0.51514 0.02349
 B1067 B 0.49320 0.49311 0.03448
 B1068 B 0.51601 0.48740 0.02311
 B1069 B -0.00611 0.97066 0.46935
 B1070 B -0.01877 0.97480 0.49278
 B1071 B 0.00038 0.95769 0.49166
 B1072 B 0.01833 0.96679 0.47510
 B1073 B 0.01017 0.98964 0.46606
 B1074 B -0.01292 0.99443 0.47679
 B1075 B 0.01401 0.99190 0.51021
 B1076 B 0.02647 0.98825 0.48678
 B1077 B 0.00737 1.00497 0.48783
 B1078 B -0.01049 0.99599 0.50445
 B1079 B -0.00225 0.97301 0.51361
 B1080 B 0.02085 0.96838 0.50260
 B1081 B 0.75947 0.23876 0.23011
 B1082 B 0.75612 0.22955 0.25532
 B1083 B 0.77230 0.24850 0.25117
 B1084 B 0.76273 0.26397 0.23200
 B1085 B 0.74022 0.25441 0.22415
 B1086 B 0.73616 0.23296 0.23859
 B1087 B 0.73789 0.26422 0.26741
 B1088 B 0.74111 0.27353 0.24227
 B1089 B 0.72510 0.25457 0.24626
 B1090 B 0.73471 0.23909 0.26549
 B1091 B 0.75721 0.24873 0.27327
 B1092 B 0.76099 0.27026 0.25878
 B1093 B 0.73269 0.77323 0.73504
 B1094 B 0.73743 0.78378 0.75940
 B1095 B 0.72202 0.76393 0.75759
 B1096 B 0.73079 0.74793 0.73829
 B1097 B 0.75197 0.75819 0.72811
 B1098 B 0.75620 0.78055 0.74116
 B1099 B 0.75815 0.75050 0.77131
 B1100 B 0.75343 0.73985 0.74707
 B1101 B 0.76880 0.75970 0.74854
 B1102 B 0.76015 0.77566 0.76799
 B1103 B 0.73872 0.76548 0.77824
 B1104 B 0.73463 0.74311 0.76517
 B1105 B 0.25616 0.25580 0.77372
 B1106 B 0.25518 0.27067 0.75159
 B1107 B 0.27115 0.25059 0.75234
 B1108 B 0.25965 0.23169 0.76567
 B1109 B 0.23642 0.24019 0.77286
 B1110 B 0.23380 0.26452 0.76434
 B1111 B 0.23870 0.24056 0.72854
 B1112 B 0.23934 0.22573 0.75060
 B1113 B 0.22371 0.24576 0.74993
 B1114 B 0.23511 0.26466 0.73664
 B1115 B 0.25840 0.25599 0.72926
 B1116 B 0.26085 0.23172 0.73797
 B1117 B 0.24638 0.73614 0.26756
 B1118 B 0.25119 0.72524 0.24340
 B1119 B 0.23474 0.74464 0.24495
 B1120 B 0.24299 0.76116 0.26385
 B1121 B 0.26509 0.75171 0.27374
 B1122 B 0.27015 0.72932 0.26095
 B1123 B 0.26978 0.75901 0.23025
 B1124 B 0.26506 0.76974 0.25459
 B1125 B 0.28146 0.75034 0.25274
 B1126 B 0.27316 0.73387 0.23388
 B1127 B 0.25110 0.74330 0.22407
 B1128 B 0.24606 0.76575 0.23686
 B1129 B 0.25873 0.73225 0.73654
 B1130 B 0.25416 0.72244 0.76119
 B1131 B 0.26961 0.74216 0.75883
 B1132 B 0.26076 0.75761 0.73920
 B1133 B 0.23940 0.74715 0.72944
 B1134 B 0.23527 0.72517 0.74305
 B1135 B 0.23363 0.75605 0.77251
 B1136 B 0.23819 0.76599 0.74800
 B1137 B 0.22277 0.74624 0.75007
 B1138 B 0.23154 0.73083 0.76979
 B1139 B 0.25303 0.74125 0.77961
 B1140 B 0.25712 0.76320 0.76601
 B1141 B 0.23409 0.25934 0.23111
 B1142 B 0.23589 0.27035 0.25566
 B1143 B 0.21994 0.25120 0.25197
 B1144 B 0.23048 0.23438 0.23454
 B1145 B 0.25348 0.24330 0.22772
 B1146 B 0.25685 0.26576 0.24089
 B1147 B 0.25307 0.23654 0.27161
 B1148 B 0.25126 0.22549 0.24706
 B1149 B 0.26722 0.24459 0.25076
 B1150 B 0.25669 0.26149 0.26816
 B1151 B 0.23369 0.25254 0.27500
 B1152 B 0.23035 0.23008 0.26183
 B1153 B 0.77156 0.76982 0.26272
 B1154 B 0.76485 0.78086 0.23921
 B1155 B 0.78128 0.76140 0.23896
 B1156 B 0.77458 0.74479 0.25820
 B1157 B 0.75340 0.75406 0.27033
 B1158 B 0.74737 0.77666 0.25857
 B1159 B 0.74509 0.74736 0.22735
 B1160 B 0.75191 0.73623 0.25072
 B1161 B 0.73539 0.75564 0.25110
 B1162 B 0.74208 0.77240 0.23186
 B1163 B 0.76321 0.76304 0.21970
 B1164 B 0.76929 0.74052 0.23145
 B1165 B 0.73545 0.25146 0.77729
 B1166 B 0.73721 0.23697 0.75463
 B1167 B 0.72207 0.25774 0.75514
 B1168 B 0.73352 0.27587 0.76986
 B1169 B 0.75587 0.26615 0.77844
 B1170 B 0.75799 0.24197 0.76927
 B1171 B 0.75630 0.26687 0.73404
 B1172 B 0.75496 0.28121 0.75657
 B1173 B 0.76972 0.26052 0.75627
 B1174 B 0.75840 0.24248 0.74148
 B1175 B 0.73595 0.25229 0.73277
 B1176 B 0.73402 0.27645 0.74218
 C1177 C 0.44025 1.03550 0.33035
 C1178 C 0.45152 1.04049 0.34882
 C1179 C 0.44238 1.04143 0.36931
 C1180 C 0.42156 1.03856 0.37090
 C1181 C 0.41040 1.03346 0.35258
 C1182 C 0.41973 1.03124 0.33228
 N1183 N 0.45459 1.04254 0.38850
 N1184 N 0.44662 1.04034 0.40710
 C1185 C 0.45761 1.03851 0.42694
 C1186 C 0.44762 1.03017 0.44453
 C1187 C 0.45822 1.02360 0.46264
 C1188 C 0.47908 1.02634 0.46434
 C1189 C 0.48891 1.03619 0.44715
 C1190 C 0.47830 1.04198 0.42842
 H1191 H 0.44775 1.03390 0.31482
 H1192 H 0.46754 1.04257 0.34733
 H1193 H 0.41402 1.03931 0.38646
 H1194 H 0.39453 1.03060 0.35440
 H1195 H 0.43174 1.02705 0.44335
 H1196 H 0.45004 1.01496 0.47441
 H1197 H 0.50500 1.03815 0.44746
 H1198 H 0.48634 1.04830 0.41483
 C1199 C -0.06409 0.52887 0.81780
 C1200 C -0.05239 0.53188 0.83645
 C1201 C -0.06142 0.53687 0.85627
 C1202 C -0.08223 0.54015 0.85695
 C1203 C -0.09392 0.53738 0.83840
 C1204 C -0.08527 0.53087 0.81853
 N1205 N -0.04972 0.53647 0.87586
 N1206 N -0.05838 0.53474 0.89416
 C1207 C -0.04802 0.53255 0.91437
 C1208 C -0.05799 0.52277 0.93107
 C1209 C -0.04798 0.51764 0.95009
 C1210 C -0.02793 0.52330 0.95360
 C1211 C -0.01815 0.53410 0.93709
 C1212 C -0.02804 0.53844 0.91744
 H1213 H -0.05638 0.52367 0.80335
 H1214 H -0.03635 0.52921 0.83569
 H1215 H -0.08956 0.54449 0.87198
 H1216 H -0.10979 0.54060 0.83990
 H1217 H -0.07330 0.51793 0.92875
 H1218 H -0.05591 0.50845 0.96161
 H1219 H -0.00262 0.53837 0.93891
 H1220 H -0.02006 0.54603 0.90460
 C1221 C 0.10519 -0.01557 0.84844
 C1222 C 0.09666 -0.01732 0.86900
 C1223 C 0.07769 -0.02569 0.87152
 C1224 C 0.06737 -0.03279 0.85316
 C1225 C 0.07592 -0.03106 0.83245
 C1226 C 0.09487 -0.02223 0.82987
 N1227 N 0.06885 -0.02520 0.89268
 N1228 N 0.05170 -0.03233 0.89709
 C1229 C 0.04326 -0.02968 0.91838
 C1230 C 0.02408 -0.03694 0.92289
 C1231 C 0.01451 -0.03196 0.94253
 C1232 C 0.02400 -0.01952 0.95793
 C1233 C 0.04363 -0.01306 0.95357
 C1234 C 0.05318 -0.01823 0.93421
 H1235 H 0.11960 -0.00836 0.84704
 H1236 H 0.10463 -0.01160 0.88303
 H1237 H 0.05261 -0.03923 0.85475
 H1238 H 0.06769 -0.03652 0.81849
 H1239 H 0.01619 -0.04573 0.91081
 H1240 H -0.00066 -0.03702 0.94509
 H1241 H 0.05146 -0.00326 0.96472
 H1242 H 0.06801 -0.01240 0.93124
 C1243 C 0.60851 0.49390 0.35261
 C1244 C 0.59935 0.49037 0.37252
 C1245 C 0.58075 0.48099 0.37347
 C1246 C 0.57130 0.47495 0.35414
 C1247 C 0.58050 0.47850 0.33404
 C1248 C 0.59921 0.48806 0.33311
 N1249 N 0.57148 0.47929 0.39429
 N1250 N 0.55478 0.47081 0.39778
 C1251 C 0.54624 0.47146 0.41919
 C1252 C 0.52745 0.46299 0.42312
 C1253 C 0.51774 0.46620 0.44311
 C1254 C 0.52668 0.47811 0.45938
 C1255 C 0.54598 0.48569 0.45555
 C1256 C 0.55570 0.48220 0.43592
 H1257 H 0.62270 0.50166 0.35247
 H1258 H 0.60661 0.49533 0.38733
 H1259 H 0.55679 0.46782 0.35456
 H1260 H 0.57305 0.47373 0.31928
 H1261 H 0.51994 0.45468 0.41038
 H1262 H 0.50283 0.46030 0.44530
 H1263 H 0.55337 0.49522 0.46732
 H1264 H 0.57024 0.48891 0.43348
 C1265 C 0.60772 0.53977 0.14987
 C1266 C 0.59728 0.54232 0.13044
 C1267 C 0.57633 0.54317 0.13033
 C1268 C 0.56586 0.54288 0.15014
 C1269 C 0.57634 0.54034 0.16971
 C1270 C 0.59733 0.53794 0.16959
 N1271 N 0.56638 0.54098 0.10991
 N1272 N 0.54747 0.54238 0.10736
 C1273 C 0.53873 0.53688 0.08692
 C1274 C 0.51895 0.54254 0.08196
 C1275 C 0.50977 0.53542 0.06293
 C1276 C 0.52018 0.52220 0.04878
 C1277 C 0.53999 0.51654 0.05411
 C1278 C 0.54925 0.52407 0.07261
 H1279 H 0.62391 0.53830 0.14937
 H1280 H 0.60548 0.54245 0.11526
 H1281 H 0.54962 0.54334 0.15038
 H1282 H 0.56800 0.53892 0.18471
 H1283 H 0.51053 0.55214 0.09303
 H1284 H 0.49432 0.53965 0.05982
 H1285 H 0.54838 0.50584 0.04426
 H1286 H 0.56438 0.51904 0.07626
 C1287 C 0.05933 1.02248 0.66664
 C1288 C 0.04780 1.02474 0.64769
 C1289 C 0.05710 1.02462 0.62726
 C1290 C 0.07816 1.02382 0.62612
 C1291 C 0.08959 1.02156 0.64490
 C1292 C 0.08027 1.02007 0.66525
 N1293 N 0.04522 1.02272 0.60791
 N1294 N 0.05363 1.01664 0.59048
 C1295 C 0.04354 1.01261 0.57049
 C1296 C 0.05392 1.00107 0.55515
 C1297 C 0.04455 0.99481 0.53621
 C1298 C 0.02470 1.00083 0.53143
 C1299 C 0.01431 1.01289 0.54677
 C1300 C 0.02362 1.01862 0.56632
 H1301 H 0.05182 1.02142 0.68218
 H1302 H 0.03161 1.02535 0.64885
 H1303 H 0.08580 1.02403 0.61060
 H1304 H 0.10575 1.02020 0.64346
 H1305 H 0.06917 0.99612 0.55838
 H1306 H 0.05295 0.98485 0.52553
 H1307 H -0.00115 1.01734 0.54403
 H1308 H 0.01530 1.02747 0.57816
 C1309 C -0.10589 0.48548 0.63822
 C1310 C -0.09685 0.48000 0.61860
 C1311 C -0.07700 0.47297 0.61811
 C1312 C -0.06634 0.47086 0.63768
 C1313 C -0.07542 0.47635 0.65745
 C1314 C -0.09519 0.48410 0.65785
 N1315 N -0.06772 0.47016 0.59733
 N1316 N -0.04995 0.46337 0.59447
 C1317 C -0.04125 0.46327 0.57311
 C1318 C -0.02157 0.45615 0.56992
 C1319 C -0.01169 0.45946 0.55011
 C1320 C -0.02129 0.47023 0.53329
 C1321 C -0.04144 0.47625 0.53636
 C1322 C -0.05134 0.47255 0.55576
 H1323 H -0.12125 0.49098 0.63801
 H1324 H -0.10517 0.48175 0.60360
 H1325 H -0.05090 0.46564 0.63764
 H1326 H -0.06677 0.47519 0.67229
 H1327 H -0.01353 0.44901 0.58315
 H1328 H 0.00387 0.45482 0.54860
 H1329 H -0.04935 0.48525 0.52445
 H1330 H -0.06651 0.47830 0.55766
 C1331 C 0.39749 -0.01613 0.15164
 C1332 C 0.40615 -0.01907 0.13126
 C1333 C 0.42553 -0.02709 0.12931
 C1334 C 0.43617 -0.03269 0.14808
 C1335 C 0.42748 -0.02979 0.16862
 C1336 C 0.40810 -0.02126 0.17061
 N1337 N 0.43440 -0.02741 0.10819
 N1338 N 0.45183 -0.03438 0.10383
 C1339 C 0.45985 -0.03197 0.08236
 C1340 C 0.47899 -0.03954 0.07715
 C1341 C 0.48802 -0.03462 0.05727
 C1342 C 0.47806 -0.02182 0.04244
 C1343 C 0.45857 -0.01495 0.04764
 C1344 C 0.44950 -0.02020 0.06704
 H1345 H 0.38273 -0.00919 0.15253
 H1346 H 0.39794 -0.01446 0.11688
 H1347 H 0.45127 -0.03879 0.14689
 H1348 H 0.43594 -0.03410 0.18293
 H1349 H 0.48723 -0.04856 0.08883
 H1350 H 0.50316 -0.03993 0.05409
 H1351 H 0.45045 -0.00460 0.03723
 H1352 H 0.43474 -0.01401 0.07053
 C1353 C 0.34058 0.42312 0.03365
 C1354 C 0.36011 0.43017 0.03567
 C1355 C 0.36537 0.44870 0.02678
 C1356 C 0.35073 0.46043 0.01616
 C1357 C 0.33124 0.45318 0.01366
 C1358 C 0.32601 0.43423 0.02202
 N1359 N 0.38598 0.45434 0.02702
 N1360 N 0.39158 0.47244 0.02452
 C1361 C 0.41242 0.47706 0.02291
 C1362 C 0.41905 0.49631 0.02847
 C1363 C 0.43931 0.50116 0.02635
 C1364 C 0.45325 0.48693 0.01806
 C1365 C 0.44625 0.46777 0.01200
 C1366 C 0.42618 0.46278 0.01474
 H1367 H 0.33703 0.40878 0.04090
 H1368 H 0.37130 0.42103 0.04393
 H1369 H 0.35459 0.47471 0.00894
 H1370 H 0.32057 0.46206 0.00438
 H1371 H 0.40851 0.50755 0.03453
 H1372 H 0.44389 0.51621 0.03082
 H1373 H 0.45606 0.45665 0.00457
 H1374 H 0.42126 0.44797 0.00978
 C1375 C -0.15716 0.91606 0.52844
 C1376 C -0.13763 0.92342 0.52990
 C1377 C -0.13165 0.93955 0.51695
 C1378 C -0.14577 0.94893 0.50324
 C1379 C -0.16535 0.94176 0.50195
 C1380 C -0.17118 0.92491 0.51412
 N1381 N -0.11100 0.94533 0.51699
 N1382 N -0.10410 0.95704 0.50256
 C1383 C -0.08341 0.96246 0.50148
 C1384 C -0.07655 0.97197 0.48277
 C1385 C -0.05623 0.97601 0.48017
 C1386 C -0.04217 0.97042 0.49623
 C1387 C -0.04941 0.96229 0.51581
 C1388 C -0.06978 0.95790 0.51822
 H1389 H -0.16099 0.90293 0.53787
 H1390 H -0.12689 0.91603 0.54050
 H1391 H -0.14159 0.96158 0.49323
 H1392 H -0.17584 0.94925 0.49115
 H1393 H -0.08696 0.97581 0.46987
 H1394 H -0.05154 0.98315 0.46527
 H1395 H -0.03923 0.95853 0.52893
 H1396 H -0.07483 0.95085 0.53303
 C1397 C -0.17213 0.04441 0.96181
 C1398 C -0.15372 0.03410 0.95931
 C1399 C -0.13563 0.04430 0.96201
 C1400 C -0.13616 0.06523 0.96544
 C1401 C -0.15431 0.07545 0.96812
 C1402 C -0.17266 0.06512 0.96745
 N1403 N -0.11698 0.03330 0.96344
 N1404 N -0.10190 0.04211 0.97162
 C1405 C -0.08255 0.03330 0.97515
 C1406 C -0.06915 0.04444 0.98752
 C1407 C -0.05030 0.03673 0.99246
 C1408 C -0.04395 0.01770 0.98468
 C1409 C -0.05750 0.00645 0.97199
 C1410 C -0.07678 0.01415 0.96735
 H1411 H -0.18572 0.03570 0.96103
 H1412 H -0.15359 0.01797 0.95649
 H1413 H -0.12244 0.07370 0.96683
 H1414 H -0.15380 0.09157 0.97076
 H1415 H -0.07357 0.05912 0.99381
 H1416 H -0.04095 0.04575 1.00290
 H1417 H -0.05331 -0.00832 0.96581
 H1418 H -0.08706 0.00527 0.95776
 C1419 C 0.34807 0.58221 0.47779
 C1420 C 0.36743 0.57424 0.47611
 C1421 C 0.37066 0.55341 0.47553
 C1422 C 0.35413 0.54046 0.47553
 C1423 C 0.33460 0.54846 0.47728
 C1424 C 0.33149 0.56941 0.47914
 N1425 N 0.39087 0.54613 0.47729
 N1426 N 0.39615 0.52771 0.47528
 C1427 C 0.41660 0.52182 0.47927
 C1428 C 0.42403 0.50329 0.47157
 C1429 C 0.44396 0.49744 0.47571
 C1430 C 0.45669 0.50992 0.48799
 C1431 C 0.44883 0.52827 0.49606
 C1432 C 0.42920 0.53424 0.49157
 H1433 H 0.34609 0.59842 0.47878
 H1434 H 0.38006 0.58434 0.47609
 H1435 H 0.35635 0.52426 0.47520
 H1436 H 0.32207 0.53828 0.47834
 H1437 H 0.41442 0.49344 0.46226
 H1438 H 0.44926 0.48307 0.46943
 H1439 H 0.45770 0.53809 0.50617
 H1440 H 0.42374 0.54844 0.49816
 C1441 C 0.15625 0.57518 0.50518
 C1442 C 0.13723 0.56683 0.50484
 C1443 C 0.13408 0.54752 0.51295
 C1444 C 0.15035 0.53639 0.52143
 C1445 C 0.16960 0.54478 0.52175
 C1446 C 0.17268 0.56438 0.51376
 N1447 N 0.11414 0.53991 0.51177
 N1448 N 0.10857 0.52279 0.51861
 C1449 C 0.08798 0.51705 0.51591
 C1450 C 0.08147 0.49809 0.52271
 C1451 C 0.06157 0.49217 0.51902
 C1452 C 0.04787 0.50517 0.50841
 C1453 C 0.05461 0.52428 0.50204
 C1454 C 0.07422 0.53014 0.50578
 H1455 H 0.15815 0.59007 0.49839
 H1456 H 0.12482 0.57544 0.49809
 H1457 H 0.14819 0.52135 0.52769
 H1458 H 0.18199 0.53612 0.52844
 H1459 H 0.09187 0.48777 0.53054
 H1460 H 0.05708 0.47729 0.52409
 H1461 H 0.04507 0.53463 0.49319
 H1462 H 0.07870 0.54486 0.50019
 C1463 C 0.65634 0.07865 0.00703
 C1464 C 0.63699 0.07112 0.00749
 C1465 C 0.63347 0.05166 0.01493
 C1466 C 0.64964 0.03956 0.02198
 C1467 C 0.66920 0.04712 0.02151
 C1468 C 0.67268 0.06683 0.01412
 N1469 N 0.61327 0.04481 0.01443
 N1470 N 0.60748 0.02765 0.02090
 C1471 C 0.58669 0.02257 0.01894
 C1472 C 0.57989 0.00380 0.02594
 C1473 C 0.55970 -0.00144 0.02317
 C1474 C 0.54602 0.01205 0.01326
 C1475 C 0.55309 0.03092 0.00657
 C1476 C 0.57300 0.03613 0.00941
 H1477 H 0.65853 0.09368 0.00073
 H1478 H 0.62463 0.08045 0.00183
 H1479 H 0.64716 0.02438 0.02770
 H1480 H 0.68154 0.03770 0.02705
 H1481 H 0.59025 -0.00686 0.03329
 H1482 H 0.55496 -0.01616 0.02847
 H1483 H 0.54344 0.04166 -0.00163
 H1484 H 0.57773 0.05072 0.00370
 C1485 C 0.67339 0.95270 0.49061
 C1486 C 0.65538 0.96371 0.49005
 C1487 C 0.63936 0.95719 0.47725
 C1488 C 0.64180 0.93982 0.46429
 C1489 C 0.65985 0.92883 0.46476
 C1490 C 0.67574 0.93492 0.47825
 N1491 N 0.62046 0.96762 0.47892
 N1492 N 0.60480 0.96164 0.46908
 C1493 C 0.58565 0.97133 0.47203
 C1494 C 0.56865 0.96251 0.46291
 C1495 C 0.54948 0.96991 0.46796
 C1496 C 0.54693 0.98611 0.48260
 C1497 C 0.56418 0.99614 0.49002
 C1498 C 0.58333 0.98864 0.48507
 H1499 H 0.68517 0.95770 0.50141
 H1500 H 0.65366 0.97701 0.50019
 H1501 H 0.62965 0.93451 0.45419
 H1502 H 0.66126 0.91541 0.45476
 H1503 H 0.57024 0.94941 0.45245
 H1504 H 0.53677 0.96260 0.46066
 H1505 H 0.56297 1.00910 0.50071
 H1506 H 0.59627 0.99598 0.49201
 C1507 C 0.16839 0.45945 0.96296
 C1508 C 0.15013 0.46952 0.95897
 C1509 C 0.13681 0.47351 0.97609
 C1510 C 0.14264 0.46891 0.99743
 C1511 C 0.16089 0.45921 1.00147
 C1512 C 0.17360 0.45355 0.98422
 N1513 N 0.11667 0.48010 0.97171
 N1514 N 0.10267 0.47297 0.98328
 C1515 C 0.08194 0.47832 0.98153
 C1516 C 0.06828 0.46581 0.99171
 C1517 C 0.04812 0.47111 0.99276
 C1518 C 0.04098 0.48942 0.98397
 C1519 C 0.05472 0.50174 0.97297
 C1520 C 0.07511 0.49618 0.97166
 H1521 H 0.17784 0.45531 0.94932
 H1522 H 0.14582 0.47300 0.94243
 H1523 H 0.13271 0.47223 1.01093
 H1524 H 0.16473 0.45549 1.01809
 H1525 H 0.07344 0.45207 0.99948
 H1526 H 0.03845 0.46120 1.00169
 H1527 H 0.04991 0.51594 0.96599
 H1528 H 0.08557 0.50614 0.96381
 C1529 C 0.00856 0.31412 0.45512
 C1530 C 0.00946 0.33257 0.46635
 C1531 C 0.00079 0.35005 0.45748
 C1532 C -0.00887 0.34876 0.43719
 C1533 C -0.00976 0.33045 0.42601
 C1534 C -0.00109 0.31286 0.43479
 N1535 N 0.00227 0.36902 0.46878
 N1536 N -0.00540 0.38487 0.46044
 C1537 C -0.00453 0.40472 0.46963
 C1538 C -0.01253 0.42043 0.45732
 C1539 C -0.01127 0.44026 0.46447
 C1540 C -0.00223 0.44503 0.48454
 C1541 C 0.00547 0.42910 0.49727
 C1542 C 0.00441 0.40902 0.48982
 H1543 H 0.01528 0.30083 0.46240
 H1544 H 0.01698 0.33326 0.48193
 H1545 H -0.01561 0.36198 0.42978
 H1546 H -0.01692 0.33020 0.41022
 H1547 H -0.01946 0.41730 0.44176
 H1548 H -0.01744 0.45186 0.45403
 H1549 H 0.01264 0.43216 0.51271
 H1550 H 0.01071 0.39700 0.49963
 C1551 C 0.50652 -0.17548 -0.04143
 C1552 C 0.50699 -0.15737 -0.02959
 C1553 C 0.49696 -0.14017 -0.03733
 C1554 C 0.48627 -0.14138 -0.05700
 C1555 C 0.48583 -0.15934 -0.06880
 C1556 C 0.49598 -0.17662 -0.06123
 N1557 N 0.49833 -0.12144 -0.02566
 N1558 N 0.48940 -0.10579 -0.03289
 C1559 C 0.49038 -0.08619 -0.02325
 C1560 C 0.48106 -0.07039 -0.03431
 C1561 C 0.48276 -0.05068 -0.02691
 C1562 C 0.49356 -0.04622 -0.00782
 C1563 C 0.50250 -0.06228 0.00373
 C1564 C 0.50100 -0.08218 -0.00399
 H1565 H 0.51435 -0.18858 -0.03507
 H1566 H 0.51532 -0.15669 -0.01450
 H1567 H 0.47847 -0.12832 -0.06351
 H1568 H 0.47792 -0.15953 -0.08416
 H1569 H 0.47287 -0.07333 -0.04917
 H1570 H 0.47566 -0.03892 -0.03643
 H1571 H 0.51105 -0.05944 0.01836
 H1572 H 0.50836 -0.09428 0.00480
 C1573 C 0.02173 -0.15454 1.08023
 C1574 C 0.02291 -0.13601 1.06977
 C1575 C 0.01252 -0.13254 1.05040
 C1576 C 0.00105 -0.14805 1.04124
 C1577 C -0.00011 -0.16675 1.05171
 C1578 C 0.01004 -0.17008 1.07148
 N1579 N 0.01336 -0.11281 1.04120
 N1580 N 0.00463 -0.10750 1.02369
 C1581 C 0.00569 -0.08696 1.01651
 C1582 C -0.00417 -0.08085 0.99746
 C1583 C -0.00452 -0.06046 0.99137
 C1584 C 0.00499 -0.04586 1.00433
 C1585 C 0.01515 -0.05229 1.02319
 C1586 C 0.01565 -0.07249 1.02907
 H1587 H 0.03004 -0.15674 1.09517
 H1588 H 0.03180 -0.12415 1.07694
 H1589 H -0.00717 -0.14563 1.02629
 H1590 H -0.00930 -0.17841 1.04464
 H1591 H -0.01200 -0.09181 0.98762
 H1592 H -0.01274 -0.05610 0.97694
 H1593 H 0.02250 -0.04168 1.03386
 H1594 H 0.02340 -0.07665 1.04388
 C1595 C 0.52599 0.33758 0.57743
 C1596 C 0.52873 0.35560 0.56624
 C1597 C 0.51492 0.36194 0.55050
 C1598 C 0.49832 0.34984 0.54580
 C1599 C 0.49542 0.33184 0.55717
 C1600 C 0.50917 0.32560 0.57324
 N1601 N 0.51740 0.38142 0.54095
 N1602 N 0.50693 0.38793 0.52508
 C1603 C 0.50903 0.40823 0.51743
 C1604 C 0.49856 0.41460 0.49888
 C1605 C 0.49862 0.43493 0.49267
 C1606 C 0.50899 0.44931 0.50512
 C1607 C 0.51997 0.44259 0.52332
 C1608 C 0.52018 0.42234 0.52925
 H1609 H 0.53669 0.33335 0.58990
 H1610 H 0.54148 0.36490 0.57016
 H1611 H 0.48735 0.35453 0.53381
 H1612 H 0.48240 0.32285 0.55351
 H1613 H 0.48983 0.40391 0.48962
 H1614 H 0.48980 0.43947 0.47871
 H1615 H 0.52786 0.45308 0.53367
 H1616 H 0.52832 0.41793 0.54372
 C1617 C 0.49448 1.15261 0.59719
 C1618 C 0.49490 1.13357 0.58748
 C1619 C 0.49703 1.13150 0.56498
 C1620 C 0.49877 1.14883 0.55212
 C1621 C 0.49829 1.16801 0.56185
 C1622 C 0.49607 1.17011 0.58453
 N1623 N 0.49730 1.11156 0.55595
 N1624 N 0.49988 1.10758 0.53586
 C1625 C 0.49991 1.08707 0.52825
 C1626 C 0.50416 1.08266 0.50642
 C1627 C 0.50470 1.06260 0.49899
 C1628 C 0.50089 1.04663 0.51333
 C1629 C 0.49642 1.05128 0.53518
 C1630 C 0.49593 1.07116 0.54251
 H1631 H 0.49318 1.15360 0.61470
 H1632 H 0.49364 1.12030 0.59755
 H1633 H 0.50038 1.14757 0.53467
 H1634 H 0.49938 1.18117 0.55162
 H1635 H 0.50725 1.09475 0.49519
 H1636 H 0.50823 1.05964 0.48211
 H1637 H 0.49318 1.03960 0.54682
 H1638 H 0.49248 1.07405 0.55944
 C1639 C 0.02652 0.66683 1.05335
 C1640 C 0.02556 0.64956 1.04021
 C1641 C 0.00703 0.64106 1.03509
 C1642 C -0.01064 0.65068 1.04231
 C1643 C -0.00973 0.66812 1.05506
 C1644 C 0.00887 0.67616 1.06130
 N1645 N 0.00648 0.62193 1.02413
 N1646 N -0.00888 0.61083 1.02557
 C1647 C -0.00995 0.59112 1.01612
 C1648 C -0.02239 0.57716 1.02601
 C1649 C -0.02224 0.55712 1.01921
 C1650 C -0.01048 0.55069 1.00138
 C1651 C 0.00133 0.56509 0.99072
 C1652 C 0.00182 0.58511 0.99823
 H1653 H 0.04113 0.67240 1.05790
 H1654 H 0.03931 0.64225 1.03484
 H1655 H -0.02517 0.64456 1.03834
 H1656 H -0.02368 0.67518 1.06020
 H1657 H -0.03139 0.58159 1.03992
 H1658 H -0.03097 0.54656 1.02849
 H1659 H 0.01086 0.56074 0.97721
 H1660 H 0.01154 0.59577 0.99033
 C1661 C 0.51896 0.65308 -0.07961
 C1662 C 0.52098 0.63457 -0.06911
 C1663 C 0.51135 0.63125 -0.04930
 C1664 C 0.49990 0.64685 -0.03976
 C1665 C 0.49789 0.66545 -0.05026
 C1666 C 0.50722 0.66866 -0.07044
 N1667 N 0.51277 0.61158 -0.03995
 N1668 N 0.50444 0.60683 -0.02212
 C1669 C 0.50557 0.58653 -0.01424
 C1670 C 0.49574 0.58145 0.00504
 C1671 C 0.49520 0.56134 0.01191
 C1672 C 0.50452 0.54598 -0.00047
 C1673 C 0.51479 0.55135 -0.01954
 C1674 C 0.51542 0.57134 -0.02625
 H1675 H 0.52661 0.65520 -0.09494
 H1676 H 0.52985 0.62264 -0.07659
 H1677 H 0.49225 0.64456 -0.02448
 H1678 H 0.48862 0.67713 -0.04288
 H1679 H 0.48802 0.59300 0.01443
 H1680 H 0.48695 0.55783 0.02650
 H1681 H 0.52215 0.54008 -0.02963
 H1682 H 0.52317 0.57479 -0.04121
 C1683 C 0.01566 1.13880 0.40900
 C1684 C 0.01802 1.11979 0.41830
 C1685 C 0.01217 1.11635 0.43970
 C1686 C 0.00425 1.13238 0.45208
 C1687 C 0.00205 1.15160 0.44289
 C1688 C 0.00742 1.15516 0.42098
 N1689 N 0.01406 1.09627 0.44795
 N1690 N 0.00792 1.09081 0.46658
 C1691 C 0.00981 1.07013 0.47318
 C1692 C 0.01995 1.05592 0.46009
 C1693 C 0.01990 1.03555 0.46540
 C1694 C 0.00982 1.02871 0.48403
 C1695 C 0.00040 1.04309 0.49763
 C1696 C 0.00045 1.06363 0.49225
 H1697 H 0.02103 1.14062 0.39256
 H1698 H 0.02435 1.10757 0.40867
 H1699 H -0.00045 1.13000 0.46869
 H1700 H -0.00478 1.16329 0.45282
 H1701 H 0.02749 1.06047 0.44537
 H1702 H 0.02748 1.02511 0.45449
 H1703 H -0.00763 1.03847 0.51200
 H1704 H -0.00742 1.07439 0.50253
 C1705 C 0.77412 0.65374 0.89605
 C1706 C 0.77819 0.66310 0.87635
 C1707 C 0.78087 0.68393 0.87546
 C1708 C 0.78054 0.69530 0.89480
 C1709 C 0.77648 0.68589 0.91465
 C1710 C 0.77257 0.66511 0.91530
 N1711 N 0.78102 0.69319 0.85452
 N1712 N 0.78403 0.71185 0.85135
 C1713 C 0.78107 0.72026 0.83012
 C1714 C 0.78635 0.74025 0.82596
 C1715 C 0.78059 0.74954 0.80644
 C1716 C 0.76912 0.73903 0.79094
 C1717 C 0.76451 0.71875 0.79507
 C1718 C 0.77069 0.70942 0.81415
 H1719 H 0.77156 0.63765 0.89613
 H1720 H 0.77834 0.65422 0.86153
 H1721 H 0.78241 0.71148 0.89443
 H1722 H 0.77534 0.69500 0.92926
 H1723 H 0.79421 0.74888 0.83819
 H1724 H 0.78416 0.76525 0.80411
 H1725 H 0.75519 0.71019 0.78410
 H1726 H 0.76616 0.69403 0.81696
 C1727 C 0.25842 0.13954 0.39849
 C1728 C 0.26073 0.14893 0.37846
 C1729 C 0.26708 0.16889 0.37736
 C1730 C 0.27177 0.17931 0.39659
 C1731 C 0.26947 0.16989 0.41675
 C1732 C 0.26238 0.15002 0.41788
 N1733 N 0.26677 0.17850 0.35664
 N1734 N 0.27259 0.19642 0.35331
 C1735 C 0.26992 0.20538 0.33233
 C1736 C 0.27744 0.22460 0.32811
 C1737 C 0.27307 0.23428 0.30840
 C1738 C 0.26092 0.22488 0.29271
 C1739 C 0.25374 0.20544 0.29705
 C1740 C 0.25839 0.19575 0.31639
 H1741 H 0.25333 0.12411 0.39882
 H1742 H 0.25704 0.14080 0.36372
 H1743 H 0.27656 0.19483 0.39606
 H1744 H 0.27255 0.17835 0.43144
 H1745 H 0.28623 0.23230 0.34032
 H1746 H 0.27858 0.24935 0.30586
 H1747 H 0.24408 0.19770 0.28571
 H1748 H 0.25222 0.18097 0.31918
 C1749 C 0.72661 0.31005 0.42348
 C1750 C 0.72304 0.29926 0.40428
 C1751 C 0.71809 0.30944 0.38509
 C1752 C 0.71566 0.33051 0.38557
 C1753 C 0.71894 0.34126 0.40474
 C1754 C 0.72490 0.33120 0.42376
 N1755 N 0.71765 0.29850 0.36498
 N1756 N 0.71882 0.30772 0.34695
 C1757 C 0.72010 0.29752 0.32650
 C1758 C 0.72914 0.30753 0.30929
 C1759 C 0.73393 0.29723 0.29021
 C1760 C 0.72878 0.27685 0.28738
 C1761 C 0.71846 0.26718 0.30431
 C1762 C 0.71438 0.27736 0.32385
 H1763 H 0.73102 0.30195 0.43798
 H1764 H 0.72503 0.28303 0.40412
 H1765 H 0.71182 0.33874 0.37096
 H1766 H 0.71768 0.35755 0.40444
 H1767 H 0.73380 0.32301 0.31128
 H1768 H 0.74258 0.30510 0.27814
 H1769 H 0.71453 0.25145 0.30304
 H1770 H 0.70734 0.26937 0.33704
 C1771 C 0.22487 0.85318 0.89784
 C1772 C 0.22028 0.84425 0.87794
 C1773 C 0.21529 0.82388 0.87679
 C1774 C 0.21399 0.81262 0.89601
 C1775 C 0.21855 0.82159 0.91605
 C1776 C 0.22460 0.84182 0.91703
 N1777 N 0.21435 0.81467 0.85579
 N1778 N 0.20971 0.79636 0.85245
 C1779 C 0.21189 0.78773 0.83114
 C1780 C 0.20597 0.76786 0.82715
 C1781 C 0.21127 0.75814 0.80763
 C1782 C 0.22290 0.76810 0.79198
 C1783 C 0.22797 0.78835 0.79586
 C1784 C 0.22226 0.79811 0.81493
 H1785 H 0.22908 0.86889 0.89816
 H1786 H 0.22142 0.85302 0.86320
 H1787 H 0.21035 0.79677 0.89544
 H1788 H 0.21825 0.81249 0.93061
 H1789 H 0.19807 0.75960 0.83956
 H1790 H 0.20729 0.74249 0.80544
 H1791 H 0.23733 0.79654 0.78469
 H1792 H 0.22718 0.81341 0.81754
 C1793 C 0.27065 0.80817 0.07643
 C1794 C 0.27552 0.79607 0.09431
 C1795 C 0.28443 0.80443 0.11276
 C1796 C 0.28962 0.82484 0.11260
 C1797 C 0.28503 0.83692 0.09473
 C1798 C 0.27474 0.82908 0.07648
 N1799 N 0.28587 0.79271 0.13224
 N1800 N 0.28812 0.80139 0.15055
 C1801 C 0.28746 0.79101 0.17082
 C1802 C 0.28000 0.80165 0.18866
 C1803 C 0.27526 0.79165 0.20772
 C1804 C 0.27929 0.77087 0.21013
 C1805 C 0.28816 0.76040 0.19250
 C1806 C 0.29186 0.77033 0.17280
 H1807 H 0.26253 0.80109 0.06334
 H1808 H 0.27127 0.78037 0.09427
 H1809 H 0.29689 0.83161 0.12653
 H1810 H 0.28987 0.85239 0.09545
 H1811 H 0.27618 0.81750 0.18714
 H1812 H 0.26717 0.80021 0.21991
 H1813 H 0.29103 0.74433 0.19340
 H1814 H 0.29760 0.76182 0.15904
 C1815 C 0.78289 0.34969 0.59769
 C1816 C 0.78545 0.34051 0.61787
 C1817 C 0.77927 0.32075 0.62119
 C1818 C 0.77085 0.30994 0.60389
 C1819 C 0.76782 0.31922 0.58376
 C1820 C 0.77345 0.33947 0.58037
 N1821 N 0.77914 0.31313 0.64287
 N1822 N 0.77790 0.29447 0.64734
 C1823 C 0.77497 0.28825 0.66936
 C1824 C 0.77958 0.26847 0.67568
 C1825 C 0.77486 0.26186 0.69668
 C1826 C 0.76497 0.27486 0.71147
 C1827 C 0.76037 0.29467 0.70480
 C1828 C 0.76567 0.30138 0.68426
 H1829 H 0.78705 0.36534 0.59642
 H1830 H 0.79165 0.34909 0.63124
 H1831 H 0.76582 0.29465 0.60620
 H1832 H 0.76124 0.31033 0.57088
 H1833 H 0.78651 0.25808 0.66423
 H1834 H 0.77822 0.24638 0.70095
 H1835 H 0.75209 0.30501 0.71518
 H1836 H 0.76151 0.31660 0.67964
 C1837 C 0.21318 0.15194 0.59747
 C1838 C 0.20965 0.16296 0.61645
 C1839 C 0.21489 0.18324 0.61774
 C1840 C 0.22266 0.19285 0.59935
 C1841 C 0.22643 0.18175 0.58033
 C1842 C 0.22243 0.16098 0.57952
 N1843 N 0.21562 0.19240 0.63876
 N1844 N 0.21701 0.21128 0.64204
 C1845 C 0.22113 0.21838 0.66356
 C1846 C 0.21459 0.23751 0.67049
 C1847 C 0.21948 0.24451 0.69138
 C1848 C 0.23147 0.23262 0.70532
 C1849 C 0.23838 0.21370 0.69781
 C1850 C 0.23297 0.20655 0.67746
 H1851 H 0.20941 0.13611 0.59717
 H1852 H 0.20376 0.15540 0.63059
 H1853 H 0.22708 0.20848 0.60016
 H1854 H 0.23361 0.18913 0.56680
 H1855 H 0.20568 0.24693 0.65977
 H1856 H 0.21422 0.25931 0.69641
 H1857 H 0.24802 0.20419 0.70766
 H1858 H 0.23862 0.19192 0.67226
 C1859 C 0.72573 0.65302 0.10028
 C1860 C 0.72360 0.66220 0.12054
 C1861 C 0.71981 0.68283 0.12229
 C1862 C 0.71753 0.69433 0.10337
 C1863 C 0.71972 0.68520 0.08289
 C1864 C 0.72418 0.66433 0.08088
 N1865 N 0.72080 0.69176 0.14344
 N1866 N 0.71651 0.71011 0.14768
 C1867 C 0.72036 0.71807 0.16898
 C1868 C 0.71417 0.73771 0.17444
 C1869 C 0.72053 0.74662 0.19397
 C1870 C 0.73349 0.73607 0.20814
 C1871 C 0.73896 0.71609 0.20278
 C1872 C 0.73224 0.70713 0.18373
 H1873 H 0.72995 0.63725 0.10024
 H1874 H 0.72576 0.65328 0.13508
 H1875 H 0.71467 0.71041 0.10441
 H1876 H 0.71762 0.69462 0.06876
 H1877 H 0.70510 0.74641 0.16319
 H1878 H 0.71622 0.76211 0.19728
 H1879 H 0.74941 0.70754 0.21266
 H1880 H 0.73744 0.69199 0.17994
 C1881 C 0.17120 0.59571 0.23959
 C1882 C 0.17984 0.61468 0.24007
 C1883 C 0.19950 0.61732 0.23297
 C1884 C 0.21063 0.60065 0.22524
 C1885 C 0.20197 0.58147 0.22481
 C1886 C 0.18210 0.57887 0.23193
 N1887 N 0.20757 0.63711 0.23460
 N1888 N 0.22491 0.64218 0.22813
 C1889 C 0.23132 0.66258 0.23132
 C1890 C 0.24977 0.66896 0.22311
 C1891 C 0.25610 0.68885 0.22656
 C1892 C 0.24405 0.70264 0.23840
 C1893 C 0.22559 0.69593 0.24653
 C1894 C 0.21930 0.67634 0.24300
 H1895 H 0.15606 0.59418 0.24566
 H1896 H 0.17122 0.62743 0.24624
 H1897 H 0.22593 0.60242 0.21977
 H1898 H 0.21069 0.56874 0.21880
 H1899 H 0.25927 0.65853 0.21410
 H1900 H 0.27046 0.69331 0.22010
 H1901 H 0.21584 0.70572 0.25596
 H1902 H 0.20501 0.67193 0.24971
 C1903 C 0.66947 0.10198 0.71961
 C1904 C 0.67817 0.12101 0.71888
 C1905 C 0.69387 0.12589 0.73286
 C1906 C 0.70159 0.11109 0.74691
 C1907 C 0.69313 0.09189 0.74748
 C1908 C 0.67642 0.08714 0.73433
 N1909 N 0.70098 0.14618 0.73317
 N1910 N 0.71322 0.15246 0.74749
 C1911 C 0.71965 0.17299 0.74827
 C1912 C 0.73143 0.17929 0.76575
 C1913 C 0.73697 0.19945 0.76775
 C1914 C 0.73053 0.21389 0.75243
 C1915 C 0.71958 0.20720 0.73423
 C1916 C 0.71392 0.18703 0.73234
 H1917 H 0.65745 0.09898 0.70829
 H1918 H 0.67228 0.13220 0.70773
 H1919 H 0.71383 0.11449 0.75784
 H1920 H 0.69897 0.08138 0.75936
 H1921 H 0.73609 0.16858 0.77804
 H1922 H 0.74600 0.20374 0.78160
 H1923 H 0.71489 0.21762 0.72169
 H1924 H 0.70499 0.18248 0.71852
 C1925 C 0.83393 0.09836 0.28349
 C1926 C 0.82593 0.11780 0.28604
 C1927 C 0.80578 0.12178 0.28122
 C1928 C 0.79337 0.10583 0.27484
 C1929 C 0.80131 0.08637 0.27238
 C1930 C 0.82180 0.08251 0.27613
 N1931 N 0.79873 0.14226 0.28109
 N1932 N 0.78120 0.14691 0.27450
 C1933 C 0.77438 0.16736 0.27263
 C1934 C 0.75585 0.17116 0.26283
 C1935 C 0.74979 0.19086 0.25816
 C1936 C 0.76242 0.20722 0.26274
 C1937 C 0.78011 0.20340 0.27461
 C1938 C 0.78628 0.18363 0.27911
 H1939 H 0.84981 0.09595 0.28629
 H1940 H 0.83566 0.12998 0.29087
 H1941 H 0.77768 0.10850 0.27115
 H1942 H 0.79150 0.07442 0.26708
 H1943 H 0.74635 0.15874 0.25817
 H1944 H 0.73540 0.19311 0.25034
 H1945 H 0.78933 0.21556 0.28036
 H1946 H 0.80043 0.18108 0.28733
 C1947 C 0.33746 0.59375 0.77403
 C1948 C 0.32945 0.61312 0.77635
 C1949 C 0.30898 0.61601 0.78017
 C1950 C 0.29658 0.59921 0.78277
 C1951 C 0.30465 0.57968 0.78057
 C1952 C 0.32506 0.57688 0.77552
 N1953 N 0.30118 0.63612 0.77899
 N1954 N 0.28287 0.64095 0.78204
 C1955 C 0.27627 0.66131 0.77839
 C1956 C 0.25686 0.66745 0.78428
 C1957 C 0.24992 0.68695 0.77938
 C1958 C 0.26226 0.70055 0.76820
 C1959 C 0.28174 0.69412 0.76242
 C1960 C 0.28869 0.67491 0.76759
 H1961 H 0.35330 0.59195 0.77049
 H1962 H 0.33910 0.62598 0.77431
 H1963 H 0.28066 0.60118 0.78564
 H1964 H 0.29483 0.56686 0.78176
 H1965 H 0.24703 0.65706 0.79244
 H1966 H 0.23477 0.69116 0.78398
 H1967 H 0.29152 0.70353 0.75301
 H1968 H 0.30364 0.67050 0.76242
 C1969 C 0.32455 0.40558 0.72740
 C1970 C 0.31499 0.38709 0.72526
 C1971 C 0.30014 0.38155 0.73993
 C1972 C 0.29429 0.39508 0.75640
 C1973 C 0.30361 0.41375 0.75843
 C1974 C 0.31929 0.41921 0.74423
 N1975 N 0.29193 0.36179 0.73832
 N1976 N 0.28059 0.35465 0.75292
 C1977 C 0.27309 0.33457 0.75161
 C1978 C 0.26353 0.32646 0.76969
 C1979 C 0.25756 0.30637 0.76961
 C1980 C 0.26134 0.29388 0.75146
 C1981 C 0.26965 0.30258 0.73271
 C1982 C 0.27580 0.32262 0.73291
 H1983 H 0.33575 0.40923 0.71539
 H1984 H 0.31947 0.37683 0.71235
 H1985 H 0.28281 0.39108 0.76798
 H1986 H 0.29919 0.42324 0.77199
 H1987 H 0.26105 0.33564 0.78407
 H1988 H 0.25010 0.30069 0.78387
 H1989 H 0.27215 0.29373 0.71812
 H1990 H 0.28287 0.32867 0.71857
 C1991 C 0.78912 0.93386 0.22573
 C1992 C 0.77931 0.91536 0.22399
 C1993 C 0.79000 0.89791 0.21795
 C1994 C 0.81034 0.89944 0.21224
 C1995 C 0.82006 0.91786 0.21374
 C1996 C 0.80973 0.93517 0.22109
 N1997 N 0.78079 0.87857 0.21985
 N1998 N 0.79183 0.86289 0.22166
 C1999 C 0.78452 0.84295 0.22472
 C2000 C 0.79799 0.82860 0.23268
 C2001 C 0.79171 0.80922 0.23730
 C2002 C 0.77184 0.80328 0.23321
 C2003 C 0.75828 0.81779 0.22483
 C2004 C 0.76453 0.83759 0.22080
 H2005 H 0.78076 0.94702 0.23124
 H2006 H 0.76364 0.91442 0.22844
 H2007 H 0.81894 0.88621 0.20738
 H2008 H 0.83597 0.91830 0.21026
 H2009 H 0.81334 0.83270 0.23613
 H2010 H 0.80246 0.79927 0.24496
 H2011 H 0.74280 0.81400 0.22173
 H2012 H 0.75385 0.84860 0.21468
 C2013 C 0.65283 0.91225 0.77571
 C2014 C 0.66142 0.89306 0.77712
 C2015 C 0.68212 0.89054 0.77899
 C2016 C 0.69426 0.90761 0.78066
 C2017 C 0.68568 0.92702 0.77934
 C2018 C 0.66483 0.92969 0.77590
 N2019 N 0.69017 0.87051 0.77724
 N2020 N 0.70865 0.86588 0.77938
 C2021 C 0.71536 0.84551 0.77557
 C2022 C 0.73490 0.83954 0.78119
 C2023 C 0.74181 0.81991 0.77657
 C2024 C 0.72934 0.80595 0.76594
 C2025 C 0.70978 0.81223 0.76029
 C2026 C 0.70285 0.83160 0.76519
 H2027 H 0.63666 0.91320 0.77461
 H2028 H 0.65188 0.87999 0.77615
 H2029 H 0.71038 0.90596 0.78210
 H2030 H 0.69569 0.93971 0.77951
 H2031 H 0.74482 0.85013 0.78903
 H2032 H 0.75703 0.81585 0.78103
 H2033 H 0.69989 0.80253 0.75128
 H2034 H 0.68781 0.83586 0.76022
 C2035 C 0.20280 0.42292 0.27669
 C2036 C 0.21271 0.40431 0.27952
 C2037 C 0.20205 0.38628 0.27783
 C2038 C 0.18114 0.38716 0.27493
 C2039 C 0.17131 0.40560 0.27220
 C2040 C 0.18211 0.42362 0.27221
 N2041 N 0.21259 0.36729 0.27697
 N2042 N 0.20390 0.35217 0.26857
 C2043 C 0.21258 0.33251 0.26606
 C2044 C 0.20238 0.31892 0.25292
 C2045 C 0.20992 0.29958 0.24950
 C2046 C 0.22777 0.29298 0.25962
 C2047 C 0.23811 0.30677 0.27293
 C2048 C 0.23063 0.32649 0.27604
 H2049 H 0.21146 0.43662 0.27683
 H2050 H 0.22880 0.40389 0.28182
 H2051 H 0.17246 0.37350 0.27398
 H2052 H 0.15528 0.40574 0.26932
 H2053 H 0.18853 0.32348 0.24503
 H2054 H 0.20156 0.28987 0.23877
 H2055 H 0.25196 0.30240 0.28089
 H2056 H 0.23876 0.33688 0.28629
 C2057 C 0.08139 0.22305 0.80580
 C2058 C 0.09914 0.22092 0.79392
 C2059 C 0.10927 0.23788 0.78655
 C2060 C 0.10119 0.25716 0.79077
 C2061 C 0.08356 0.25936 0.80297
 C2062 C 0.07362 0.24231 0.81099
 N2063 N 0.12871 0.23513 0.77706
 N2064 N 0.13774 0.24889 0.76671
 C2065 C 0.15814 0.24607 0.75982
 C2066 C 0.16671 0.25961 0.74521
 C2067 C 0.18730 0.25861 0.74060
 C2068 C 0.19975 0.24424 0.75091
 C2069 C 0.19083 0.23040 0.76515
 C2070 C 0.17030 0.23109 0.76925
 H2071 H 0.07393 0.20957 0.81116
 H2072 H 0.10526 0.20598 0.79083
 H2073 H 0.10896 0.27050 0.78549
 H2074 H 0.07822 0.27442 0.80683
 H2075 H 0.15754 0.27136 0.73794
 H2076 H 0.19356 0.26976 0.72986
 H2077 H 0.19978 0.21948 0.77399
 H2078 H 0.16416 0.22059 0.78083
 C2079 C 0.59119 0.77338 0.30920
 C2080 C 0.60884 0.77545 0.29715
 C2081 C 0.62041 0.75850 0.29154
 C2082 C 0.61361 0.73927 0.29717
 C2083 C 0.59572 0.73711 0.30871
 C2084 C 0.58446 0.75416 0.31538
 N2085 N 0.63957 0.76112 0.28144
 N2086 N 0.65343 0.74797 0.28385
 C2087 C 0.67307 0.74989 0.27481
 C2088 C 0.68890 0.73991 0.28513
 C2089 C 0.70846 0.74194 0.27767
 C2090 C 0.71262 0.75322 0.25888
 C2091 C 0.69655 0.76305 0.24826
 C2092 C 0.67692 0.76159 0.25632
 H2093 H 0.58325 0.78693 0.31423
 H2094 H 0.61397 0.79037 0.29302
 H2095 H 0.62220 0.72591 0.29273
 H2096 H 0.59083 0.72204 0.31246
 H2097 H 0.68612 0.73094 0.29945
 H2098 H 0.72031 0.73442 0.28666
 H2099 H 0.69915 0.77210 0.23397
 H2100 H 0.66478 0.76942 0.24809
 C2101 C 0.58316 0.27629 0.18393
 C2102 C 0.60225 0.27875 0.19287
 C2103 C 0.61082 0.26372 0.20592
 C2104 C 0.59994 0.24618 0.21022
 C2105 C 0.58096 0.24354 0.20095
 C2106 C 0.57248 0.25851 0.18757
 N2107 N 0.63111 0.26597 0.21309
 N2108 N 0.63901 0.25498 0.22778
 C2109 C 0.65985 0.25655 0.23323
 C2110 C 0.66717 0.24748 0.25219
 C2111 C 0.68773 0.24759 0.25695
 C2112 C 0.70139 0.25650 0.24256
 C2113 C 0.69384 0.26566 0.22358
 C2114 C 0.67333 0.26593 0.21912
 H2115 H 0.57705 0.28795 0.17349
 H2116 H 0.61057 0.29225 0.18929
 H2117 H 0.60635 0.23428 0.22010
 H2118 H 0.57298 0.22973 0.20404
 H2119 H 0.65697 0.24006 0.26314
 H2120 H 0.69290 0.24017 0.27157
 H2121 H 0.70379 0.27248 0.21192
 H2122 H 0.66811 0.27285 0.20423
 C2123 C 0.07240 0.72963 0.70752
 C2124 C 0.09006 0.72963 0.71992
 C2125 C 0.10653 0.74095 0.71330
 C2126 C 0.10495 0.75262 0.69430
 C2127 C 0.08744 0.75259 0.68195
 C2128 C 0.07104 0.74093 0.68823
 N2129 N 0.12502 0.73987 0.72527
 N2130 N 0.14024 0.74911 0.71814
 C2131 C 0.15975 0.74879 0.72772
 C2132 C 0.17494 0.75796 0.71606
 C2133 C 0.19456 0.75725 0.72342
 C2134 C 0.19961 0.74775 0.74317
 C2135 C 0.18417 0.73881 0.75527
 C2136 C 0.16428 0.73923 0.74752
 H2137 H 0.06001 0.72043 0.71270
 H2138 H 0.09103 0.72053 0.73445
 H2139 H 0.11735 0.76164 0.68879
 H2140 H 0.08672 0.76175 0.66745
 H2141 H 0.17159 0.76532 0.70078
 H2142 H 0.20578 0.76428 0.71338
 H2143 H 0.18748 0.73120 0.77039
 H2144 H 0.15262 0.73199 0.75676
 C2145 C 0.92062 0.76188 0.70620
 C2146 C 0.90316 0.76460 0.71865
 C2147 C 0.88599 0.75354 0.71398
 C2148 C 0.88675 0.73913 0.69718
 C2149 C 0.90405 0.73631 0.68483
 C2150 C 0.92137 0.74783 0.68878
 N2151 N 0.86756 0.75772 0.72532
 N2152 N 0.85144 0.75029 0.71794
 C2153 C 0.83180 0.75323 0.72672
 C2154 C 0.81602 0.74617 0.71421
 C2155 C 0.79641 0.74852 0.72118
 C2156 C 0.79188 0.75767 0.74137
 C2157 C 0.80787 0.76480 0.75416
 C2158 C 0.82782 0.76269 0.74681
 H2159 H 0.93356 0.77060 0.71071
 H2160 H 0.90291 0.77566 0.73166
 H2161 H 0.87372 0.73028 0.69314
 H2162 H 0.90313 0.72582 0.67139
 H2163 H 0.81897 0.73886 0.69873
 H2164 H 0.78486 0.74264 0.71065
 H2165 H 0.80497 0.77201 0.76968
 H2166 H 0.83998 0.76825 0.75673
 C2167 C 0.40531 0.21939 0.18486
 C2168 C 0.38680 0.21755 0.19516
 C2169 C 0.38088 0.23124 0.21134
 C2170 C 0.39409 0.24649 0.21780
 C2171 C 0.41272 0.24835 0.20748
 C2172 C 0.41829 0.23508 0.19053
 N2173 N 0.36077 0.23021 0.21930
 N2174 N 0.35364 0.24146 0.23432
 C2175 C 0.33275 0.24055 0.23989
 C2176 C 0.32520 0.25173 0.25753
 C2177 C 0.30451 0.25237 0.26181
 C2178 C 0.29104 0.24194 0.24833
 C2179 C 0.29888 0.23058 0.23082
 C2180 C 0.31939 0.22969 0.22684
 H2181 H 0.40931 0.20873 0.17216
 H2182 H 0.37673 0.20575 0.19005
 H2183 H 0.38974 0.25731 0.23020
 H2184 H 0.42237 0.26065 0.21210
 H2185 H 0.33529 0.26033 0.26766
 H2186 H 0.29908 0.26158 0.27518
 H2187 H 0.28915 0.22260 0.21974
 H2188 H 0.32470 0.22105 0.21297
 C2189 C 0.41394 0.76264 0.33455
 C2190 C 0.39524 0.76483 0.32462
 C2191 C 0.39140 0.75568 0.30457
 C2192 C 0.40668 0.74443 0.29426
 C2193 C 0.42551 0.74220 0.30422
 C2194 C 0.42925 0.75111 0.32463
 N2195 N 0.37157 0.75744 0.29583
 N2196 N 0.36624 0.75025 0.27752
 C2197 C 0.34571 0.75188 0.27056
 C2198 C 0.33996 0.74421 0.25025
 C2199 C 0.31970 0.74441 0.24402
 C2200 C 0.30485 0.75215 0.25814
 C2201 C 0.31089 0.76028 0.27826
 C2202 C 0.33100 0.76026 0.28431
 H2203 H 0.41643 0.77006 0.35002
 H2204 H 0.38358 0.77356 0.33269
 H2205 H 0.40399 0.73713 0.27877
 H2206 H 0.43695 0.73313 0.29623
 H2207 H 0.35112 0.73772 0.23944
 H2208 H 0.31565 0.73802 0.22842
 H2209 H 0.30007 0.76654 0.28962
 H2210 H 0.33494 0.76638 0.30007
 C2211 C 0.90693 0.27312 0.82620
 C2212 C 0.88842 0.27598 0.81608
 C2213 C 0.88278 0.26380 0.79859
 C2214 C 0.89617 0.24890 0.79082
 C2215 C 0.91485 0.24605 0.80092
 C2216 C 0.92025 0.25793 0.81898
 N2217 N 0.86291 0.26630 0.79018
 N2218 N 0.85572 0.25612 0.77447
 C2219 C 0.83512 0.25891 0.76822
 C2220 C 0.82705 0.24752 0.75115
 C2221 C 0.80646 0.24868 0.74642
 C2222 C 0.79361 0.26121 0.75882
 C2223 C 0.80203 0.27300 0.77551
 C2224 C 0.82245 0.27201 0.78000
 H2225 H 0.91081 0.28276 0.83978
 H2226 H 0.87821 0.28751 0.82218
 H2227 H 0.89204 0.23926 0.77735
 H2228 H 0.92481 0.23421 0.79507
 H2229 H 0.83660 0.23731 0.74193
 H2230 H 0.80056 0.23924 0.73359
 H2231 H 0.79280 0.28280 0.78558
 H2232 H 0.82818 0.28104 0.79326
 C2233 C 0.56377 0.97834 0.66955
 C2234 C 0.55373 0.97203 0.65081
 C2235 C 0.56314 0.97284 0.63053
 C2236 C 0.58289 0.97985 0.62920
 C2237 C 0.59285 0.98641 0.64786
 C2238 C 0.58336 0.98591 0.66828
 N2239 N 0.55174 0.96853 0.61139
 N2240 N 0.55987 0.96708 0.59273
 C2241 C 0.54824 0.96553 0.57324
 C2242 C 0.55810 0.96565 0.55322
 C2243 C 0.54744 0.96964 0.53412
 C2244 C 0.52675 0.97399 0.53477
 C2245 C 0.51660 0.97100 0.55462
 C2246 C 0.52724 0.96699 0.57368
 H2247 H 0.55613 0.97733 0.68502
 H2248 H 0.53846 0.96679 0.65203
 H2249 H 0.59036 0.98096 0.61365
 H2250 H 0.60777 0.99244 0.64615
 H2251 H 0.57427 0.96406 0.55258
 H2252 H 0.55578 0.97024 0.51928
 H2253 H 0.50057 0.97354 0.55593
 H2254 H 0.51917 0.96656 0.58893
 C2255 C 0.10452 0.48470 1.13932
 C2256 C 0.09502 0.48218 1.11934
 C2257 C 0.07486 0.47708 1.11824
 C2258 C 0.06420 0.47397 1.13748
 C2259 C 0.07359 0.47656 1.15766
 C2260 C 0.09402 0.48234 1.15920
 N2261 N 0.06539 0.47713 1.09739
 N2262 N 0.04739 0.47177 1.09398
 C2263 C 0.03863 0.47429 1.07284
 C2264 C 0.01935 0.46712 1.06851
 C2265 C 0.00977 0.47169 1.04878
 C2266 C 0.01932 0.48371 1.03316
 C2267 C 0.03885 0.49044 1.03761
 C2268 C 0.04846 0.48555 1.05693
 H2269 H 0.11975 0.48996 1.13861
 H2270 H 0.10329 0.48495 1.10452
 H2271 H 0.04852 0.46995 1.13696
 H2272 H 0.06467 0.47337 1.17184
 H2273 H 0.01148 0.45857 1.08071
 H2274 H -0.00542 0.46663 1.04628
 H2275 H 0.04663 0.50024 1.02652
 H2276 H 0.06327 0.49150 1.05984
 C2277 C -0.06229 0.03011 1.17069
 C2278 C -0.05084 0.03346 1.15201
 C2279 C -0.06015 0.03607 1.13187
 C2280 C -0.08118 0.03646 1.13080
 C2281 C -0.09266 0.03331 1.14938
 C2282 C -0.08349 0.02946 1.16969
 N2283 N -0.04821 0.03616 1.11248
 N2284 N -0.05646 0.03382 1.09402
 C2285 C -0.04564 0.03189 1.07407
 C2286 C -0.05542 0.02280 1.05668
 C2287 C -0.04494 0.01751 1.03797
 C2288 C -0.02451 0.02223 1.03558
 C2289 C -0.01490 0.03241 1.05277
 C2290 C -0.02534 0.03700 1.07203
 H2291 H -0.05433 0.02825 1.18587
 H2292 H -0.03463 0.03325 1.15312
 H2293 H -0.08880 0.03844 1.11541
 H2294 H -0.10871 0.03253 1.14718
 H2295 H -0.07099 0.01856 1.05821
 H2296 H -0.05282 0.00887 1.02581
 H2297 H 0.00088 0.03591 1.05183
 H2298 H -0.01749 0.04400 1.08543
 C2299 C 0.40194 0.49552 0.65001
 C2300 C 0.41036 0.49786 0.62948
 C2301 C 0.42601 0.51131 0.62627
 C2302 C 0.43326 0.52258 0.64392
 C2303 C 0.42476 0.52033 0.66457
 C2304 C 0.40896 0.50677 0.66780
 N2305 N 0.43454 0.51245 0.60503
 N2306 N 0.44943 0.52336 0.60016
 C2307 C 0.45753 0.52265 0.57858
 C2308 C 0.47618 0.53125 0.57429
 C2309 C 0.48579 0.52769 0.55435
 C2310 C 0.47678 0.51550 0.53838
 C2311 C 0.45744 0.50811 0.54236
 C2312 C 0.44790 0.51174 0.56210
 H2313 H 0.39009 0.48468 0.65199
 H2314 H 0.40482 0.48896 0.61600
 H2315 H 0.44543 0.53303 0.64176
 H2316 H 0.43035 0.52934 0.67792
 H2317 H 0.48377 0.53975 0.58683
 H2318 H 0.50071 0.53353 0.55201
 H2319 H 0.44995 0.49852 0.53071
 H2320 H 0.43338 0.50509 0.56483
 C2321 C 0.43346 0.50118 -0.15545
 C2322 C 0.44281 0.49930 -0.13530
 C2323 C 0.44334 0.48078 -0.12462
 C2324 C 0.43501 0.46379 -0.13466
 C2325 C 0.42529 0.46570 -0.15476
 C2326 C 0.42396 0.48459 -0.16510
 N2327 N 0.45068 0.48035 -0.10283
 N2328 N 0.45595 0.46439 -0.09284
 C2329 C 0.46178 0.46615 -0.07056
 C2330 C 0.47976 0.45743 -0.06328
 C2331 C 0.48757 0.46283 -0.04293
 C2332 C 0.47718 0.47663 -0.02941
 C2333 C 0.45823 0.48382 -0.03622
 C2334 C 0.45072 0.47873 -0.05657
 H2335 H 0.43321 0.51581 -0.16319
 H2336 H 0.44925 0.51248 -0.12769
 H2337 H 0.43514 0.44936 -0.12651
 H2338 H 0.41800 0.45266 -0.16164
 H2339 H 0.48847 0.44773 -0.07399
 H2340 H 0.50231 0.45723 -0.03855
 H2341 H 0.44968 0.49450 -0.02651
 H2342 H 0.43667 0.48544 -0.06192
 C2343 C -0.05941 0.97175 0.31707
 C2344 C -0.04702 0.96638 0.33442
 C2345 C -0.05512 0.95814 0.35329
 C2346 C -0.07577 0.95429 0.35424
 C2347 C -0.08824 0.95960 0.33681
 C2348 C -0.08023 0.96895 0.31833
 N2349 N -0.04246 0.95640 0.37196
 N2350 N -0.04826 0.94948 0.39013
 C2351 C -0.03559 0.95071 0.40892
 C2352 C -0.04228 0.94338 0.42890
 C2353 C -0.03197 0.94803 0.44811
 C2354 C -0.01528 0.96081 0.44769
 C2355 C -0.00757 0.96635 0.42728
 C2356 C -0.01757 0.96138 0.40818
 H2357 H -0.05280 0.97863 0.30290
 H2358 H -0.03113 0.96949 0.33356
 H2359 H -0.08238 0.94807 0.36877
 H2360 H -0.10424 0.95736 0.33823
 H2361 H -0.05600 0.93486 0.42973
 H2362 H -0.03784 0.94256 0.46325
 H2363 H 0.00573 0.97541 0.42586
 H2364 H -0.01179 0.96695 0.39294
 C2365 C 0.06117 0.51797 0.32258
 C2366 C 0.05012 0.52082 0.34173
 C2367 C 0.05972 0.52664 0.36096
 C2368 C 0.08037 0.53065 0.36058
 C2369 C 0.09133 0.52815 0.34141
 C2370 C 0.08193 0.52134 0.32236
 N2371 N 0.04879 0.52640 0.38100
 N2372 N 0.05799 0.52556 0.39910
 C2373 C 0.04793 0.52356 0.41945
 C2374 C 0.05819 0.51384 0.43620
 C2375 C 0.04817 0.50832 0.45503
 C2376 C 0.02781 0.51351 0.45822
 C2377 C 0.01784 0.52452 0.44180
 C2378 C 0.02774 0.52923 0.42240
 H2379 H 0.05357 0.51287 0.30804
 H2380 H 0.03424 0.51760 0.34181
 H2381 H 0.08813 0.53520 0.37522
 H2382 H 0.10733 0.53074 0.34170
 H2383 H 0.07368 0.50917 0.43397
 H2384 H 0.05628 0.49902 0.46651
 H2385 H 0.00211 0.52847 0.44334
 H2386 H 0.01955 0.53679 0.40954
 C2387 C 0.55244 0.03401 -0.17135
 C2388 C 0.54174 0.03651 -0.15192
 C2389 C 0.55184 0.04095 -0.13255
 C2390 C 0.57264 0.04416 -0.13310
 C2391 C 0.58326 0.04198 -0.15251
 C2392 C 0.57337 0.03632 -0.17171
 N2393 N 0.54132 0.03974 -0.11230
 N2394 N 0.55099 0.03700 -0.09471
 C2395 C 0.54162 0.03384 -0.07417
 C2396 C 0.55226 0.02266 -0.05882
 C2397 C 0.54298 0.01636 -0.03987
 C2398 C 0.52307 0.02220 -0.03502
 C2399 C 0.51269 0.03445 -0.05007
 C2400 C 0.52180 0.03998 -0.06969
 H2401 H 0.54445 0.02982 -0.18599
 H2402 H 0.52574 0.03392 -0.15173
 H2403 H 0.58079 0.04765 -0.11836
 H2404 H 0.59939 0.04371 -0.15227
 H2405 H 0.56745 0.01761 -0.06226
 H2406 H 0.55132 0.00617 -0.02949
 H2407 H 0.49724 0.03893 -0.04722
 H2408 H 0.51331 0.04864 -0.08148
 C2409 C 0.65079 0.58506 0.00053
 C2410 C 0.63206 0.57627 0.00244
 C2411 C 0.62852 0.55725 -0.00645
 C2412 C 0.64405 0.54689 -0.01736
 C2413 C 0.66297 0.55571 -0.01931
 C2414 C 0.66645 0.57498 -0.01047
 N2415 N 0.60894 0.54915 -0.00384
 N2416 N 0.60345 0.53204 -0.01096
 C2417 C 0.58329 0.52559 -0.00723
 C2418 C 0.57700 0.50673 -0.01472
 C2419 C 0.55732 0.50038 -0.01090
 C2420 C 0.54362 0.51285 0.00052
 C2421 C 0.55020 0.53176 0.00788
 C2422 C 0.56965 0.53803 0.00408
 H2423 H 0.65310 0.59967 0.00798
 H2424 H 0.62020 0.58429 0.01101
 H2425 H 0.64156 0.53211 -0.02433
 H2426 H 0.67477 0.54763 -0.02790
 H2427 H 0.58734 0.49695 -0.02347
 H2428 H 0.55291 0.48571 -0.01685
 H2429 H 0.54045 0.54187 0.01690
 H2430 H 0.57400 0.55269 0.01015
 C2431 C 0.15509 1.06902 0.48904
 C2432 C 0.13621 1.06077 0.48608
 C2433 C 0.13416 1.04017 0.48209
 C2434 C 0.15139 1.02783 0.48024
 C2435 C 0.17048 1.03615 0.48318
 C2436 C 0.17240 1.05676 0.48816
 N2437 N 0.11430 1.03236 0.48174
 N2438 N 0.10990 1.01414 0.47752
 C2439 C 0.08942 1.00790 0.47918
 C2440 C 0.08358 0.98909 0.47113
 C2441 C 0.06363 0.98286 0.47319
 C2442 C 0.04923 0.99531 0.48361
 C2443 C 0.05544 1.01405 0.49185
 C2444 C 0.07512 1.02031 0.48954
 H2445 H 0.15615 1.08502 0.49239
 H2446 H 0.12303 1.07039 0.48749
 H2447 H 0.15007 1.01181 0.47722
 H2448 H 0.18362 1.02641 0.48239
 H2449 H 0.09447 0.97926 0.46326
 H2450 H 0.05960 0.96823 0.46681
 H2451 H 0.04530 1.02388 0.50071
 H2452 H 0.07921 1.03477 0.49633
 C2453 C 0.16283 -0.06393 0.98736
 C2454 C 0.14345 -0.05586 0.98684
 C2455 C 0.13398 -0.04950 1.00590
 C2456 C 0.14414 -0.05125 1.02578
 C2457 C 0.16348 -0.05979 1.02649
 C2458 C 0.17322 -0.06636 1.00723
 N2459 N 0.11367 -0.04251 1.00449
 N2460 N 0.10477 -0.03238 1.01931
 C2461 C 0.08409 -0.02677 1.01661
 C2462 C 0.07627 -0.00963 1.02709
 C2463 C 0.05649 -0.00321 1.02307
 C2464 C 0.04410 -0.01411 1.00877
 C2465 C 0.05187 -0.03194 0.99932
 C2466 C 0.07161 -0.03805 1.00298
 H2467 H 0.16899 -0.06938 0.97215
 H2468 H 0.13561 -0.05482 0.97146
 H2469 H 0.13698 -0.04646 1.04076
 H2470 H 0.17085 -0.06074 1.04211
 H2471 H 0.08569 -0.00087 1.03781
 H2472 H 0.05108 0.01043 1.03094
 H2473 H 0.04289 -0.04115 0.98866
 H2474 H 0.07718 -0.05160 0.99503
 C2475 C 0.66900 0.44423 0.48711
 C2476 C 0.64936 0.45166 0.48670
 C2477 C 0.63897 0.45542 0.50597
 C2478 C 0.64856 0.45205 0.52593
 C2479 C 0.66815 0.44416 0.52646
 C2480 C 0.67870 0.43981 0.50700
 N2481 N 0.61827 0.46116 0.50460
 N2482 N 0.60847 0.46918 0.52020
 C2483 C 0.58749 0.47339 0.51769
 C2484 C 0.57856 0.48966 0.52873
 C2485 C 0.55841 0.49478 0.52495
 C2486 C 0.54673 0.48339 0.51038
 C2487 C 0.55561 0.46632 0.50046
 C2488 C 0.57577 0.46156 0.50380
 H2489 H 0.67586 0.44066 0.47162
 H2490 H 0.64200 0.45403 0.47121
 H2491 H 0.64071 0.45489 0.54106
 H2492 H 0.67499 0.44176 0.54219
 H2493 H 0.58740 0.49879 0.53967
 H2494 H 0.55215 0.50784 0.53323
 H2495 H 0.54718 0.45675 0.48963
 H2496 H 0.58226 0.44863 0.49547
 C2497 C -0.15192 0.41198 0.47009
 C2498 C -0.13220 0.41864 0.46898
 C2499 C -0.12800 0.43919 0.47034
 C2500 C -0.14388 0.45322 0.47229
 C2501 C -0.16368 0.44655 0.47366
 C2502 C -0.16786 0.42582 0.47286
 N2503 N -0.10748 0.44506 0.47173
 N2504 N -0.10178 0.46326 0.47056
 C2505 C -0.08113 0.46816 0.47393
 C2506 C -0.07410 0.48718 0.46812
 C2507 C -0.05418 0.49244 0.47235
 C2508 C -0.04101 0.47884 0.48286
 C2509 C -0.04837 0.45982 0.48875
 C2510 C -0.06803 0.45448 0.48414
 H2511 H -0.15462 0.39592 0.46976
 H2512 H -0.12006 0.40769 0.46769
 H2513 H -0.14093 0.46920 0.47355
 H2514 H -0.17570 0.45753 0.47571
 H2515 H -0.08410 0.49798 0.46042
 H2516 H -0.04929 0.50732 0.46777
 H2517 H -0.03924 0.44915 0.49768
 H2518 H -0.07318 0.43983 0.48925
 C2519 C 0.34642 -0.08083 0.00549
 C2520 C 0.36530 -0.07216 0.00580
 C2521 C 0.36875 -0.05409 -0.00503
 C2522 C 0.35293 -0.04448 -0.01614
 C2523 C 0.33385 -0.05319 -0.01646
 C2524 C 0.33050 -0.07160 -0.00581
 N2525 N 0.38863 -0.04634 -0.00435
 N2526 N 0.39428 -0.03000 -0.01310
 C2527 C 0.41490 -0.02422 -0.01114
 C2528 C 0.42135 -0.00557 -0.01898
 C2529 C 0.44141 0.00027 -0.01627
 C2530 C 0.45531 -0.01252 -0.00570
 C2531 C 0.44860 -0.03132 0.00171
 C2532 C 0.42884 -0.03706 -0.00097
 H2533 H 0.34425 -0.09474 0.01427
 H2534 H 0.37740 -0.07960 0.01452
 H2535 H 0.35534 -0.03045 -0.02461
 H2536 H 0.32185 -0.04577 -0.02533
 H2537 H 0.41081 0.00453 -0.02691
 H2538 H 0.44591 0.01487 -0.02220
 H2539 H 0.45842 -0.04165 0.01023
 H2540 H 0.42445 -0.05159 0.00525
 C2541 C 0.34817 1.08345 0.51612
 C2542 C 0.36808 1.07688 0.51709
 C2543 C 0.37277 1.05690 0.52227
 C2544 C 0.35723 1.04342 0.52674
 C2545 C 0.33719 1.04999 0.52578
 C2546 C 0.33246 1.07010 0.52038
 N2547 N 0.39337 1.05070 0.52165
 N2548 N 0.39951 1.03295 0.52607
 C2549 C 0.42032 1.02760 0.52389
 C2550 C 0.42668 1.00778 0.52787
 C2551 C 0.44650 1.00179 0.52352
 C2552 C 0.46035 1.01557 0.51500
 C2553 C 0.45392 1.03565 0.51188
 C2554 C 0.43425 1.04160 0.51632
 H2555 H 0.34508 1.09890 0.51146
 H2556 H 0.37994 1.08732 0.51339
 H2557 H 0.36056 1.02784 0.53068
 H2558 H 0.32541 1.03940 0.52926
 H2559 H 0.41610 0.99680 0.53368
 H2560 H 0.45068 0.98617 0.52612
 H2561 H 0.46353 1.04665 0.50456
 H2562 H 0.42976 1.05700 0.51293
 C2563 C -0.15969 0.58704 1.01864
 C2564 C -0.14011 0.57942 1.01912
 C2565 C -0.13627 0.55900 1.01504
 C2566 C -0.15231 0.54605 1.01071
 C2567 C -0.17195 0.55374 1.00984
 C2568 C -0.17576 0.57435 1.01364
 N2569 N -0.11586 0.55232 1.01354
 N2570 N -0.11050 0.53384 1.01391
 C2571 C -0.08990 0.52826 1.01062
 C2572 C -0.08273 0.50945 1.01757
 C2573 C -0.06264 0.50384 1.01414
 C2574 C -0.04948 0.51684 1.00326
 C2575 C -0.05709 0.53550 0.99589
 C2576 C -0.07690 0.54124 0.99976
 H2577 H -0.16220 0.60302 1.02133
 H2578 H -0.12782 0.58955 1.02224
 H2579 H -0.14960 0.53023 1.00727
 H2580 H -0.18413 0.54369 1.00595
 H2581 H -0.09268 0.49920 1.02576
 H2582 H -0.05758 0.48922 1.01979
 H2583 H -0.04789 0.54566 0.98667
 H2584 H -0.08220 0.55567 0.99376
 C2585 C 0.01797 0.64601 0.58757
 C2586 C 0.02070 0.62765 0.57672
 C2587 C 0.01063 0.62375 0.55725
 C2588 C -0.00216 0.63862 0.54849
 C2589 C -0.00498 0.65705 0.55940
 C2590 C 0.00493 0.66089 0.57920
 N2591 N 0.01304 0.60422 0.54749
 N2592 N 0.00536 0.59921 0.52932
 C2593 C 0.00752 0.57897 0.52114
 C2594 C -0.00067 0.57379 0.50092
 C2595 C -0.00016 0.55371 0.49360
 C2596 C 0.00845 0.53844 0.50654
 C2597 C 0.01715 0.54394 0.52655
 C2598 C 0.01682 0.56390 0.53367
 H2599 H 0.02616 0.64858 0.60251
 H2600 H 0.03061 0.61630 0.58362
 H2601 H -0.01022 0.63587 0.53352
 H2602 H -0.01526 0.66810 0.55260
 H2603 H -0.00789 0.58525 0.49105
 H2604 H -0.00708 0.55011 0.47817
 H2605 H 0.02397 0.53276 0.53707
 H2606 H 0.02333 0.56739 0.54934
 C2607 C 0.48774 0.17297 0.05532
 C2608 C 0.48842 0.15548 0.04244
 C2609 C 0.50059 0.13906 0.04845
 C2610 C 0.51247 0.14057 0.06729
 C2611 C 0.51175 0.15794 0.08014
 C2612 C 0.49918 0.17423 0.07450
 N2613 N 0.49999 0.12066 0.03607
 N2614 N 0.51022 0.10538 0.04215
 C2615 C 0.50990 0.08604 0.03180
 C2616 C 0.52007 0.07030 0.04209
 C2617 C 0.51877 0.05070 0.03423
 C2618 C 0.50764 0.04630 0.01534
 C2619 C 0.49796 0.06235 0.00446
 C2620 C 0.49897 0.08212 0.01272
 H2621 H 0.47783 0.18526 0.05063
 H2622 H 0.47914 0.15455 0.02804
 H2623 H 0.52210 0.12819 0.07232
 H2624 H 0.52102 0.15859 0.09458
 H2625 H 0.52848 0.07315 0.05683
 H2626 H 0.52635 0.03893 0.04333
 H2627 H 0.48911 0.05956 -0.00997
 H2628 H 0.49095 0.09416 0.00452
 C2629 C -0.02427 0.16006 0.91875
 C2630 C -0.02594 0.14164 0.92935
 C2631 C -0.01391 0.13715 0.94733
 C2632 C -0.00053 0.15167 0.95519
 C2633 C 0.00116 0.17023 0.94455
 C2634 C -0.01040 0.17440 0.92591
 N2635 N -0.01462 0.11715 0.95588
 N2636 N -0.00504 0.11115 0.97260
 C2637 C -0.00563 0.09029 0.97873
 C2638 C 0.00279 0.08389 0.99846
 C2639 C 0.00324 0.06332 1.00386
 C2640 C -0.00450 0.04884 0.98941
 C2641 C -0.01297 0.05553 0.96970
 C2642 C -0.01371 0.07589 0.96455
 H2643 H -0.03366 0.16297 0.90472
 H2644 H -0.03630 0.13054 0.92317
 H2645 H 0.00900 0.14843 0.96902
 H2646 H 0.01204 0.18098 0.95037
 H2647 H 0.00918 0.09479 1.00953
 H2648 H 0.01001 0.05877 1.01908
 H2649 H -0.01910 0.04503 0.95801
 H2650 H -0.02020 0.08029 0.94913
 C2651 C 0.48808 0.65341 0.41582
 C2652 C 0.48461 0.63518 0.42630
 C2653 C 0.49430 0.63057 0.44583
 C2654 C 0.50741 0.64465 0.45508
 C2655 C 0.51093 0.66299 0.44457
 C2656 C 0.50147 0.66746 0.42466
 N2657 N 0.49123 0.61106 0.45506
 N2658 N 0.49892 0.60522 0.47294
 C2659 C 0.49613 0.58497 0.48044
 C2660 C 0.50529 0.57856 0.49976
 C2661 C 0.50470 0.55823 0.50592
 C2662 C 0.49496 0.54393 0.49277
 C2663 C 0.48510 0.55073 0.47386
 C2664 C 0.48555 0.57094 0.46788
 H2665 H 0.48022 0.65652 0.40079
 H2666 H 0.47447 0.62445 0.41903
 H2667 H 0.51516 0.64134 0.47013
 H2668 H 0.52139 0.67345 0.45174
 H2669 H 0.51353 0.58917 0.50963
 H2670 H 0.51267 0.55363 0.52043
 H2671 H 0.47756 0.54032 0.46311
 H2672 H 0.47827 0.57541 0.45289
 C2673 C 0.52253 0.82481 0.45062
 C2674 C 0.52346 0.84317 0.46198
 C2675 C 0.51593 0.86093 0.45261
 C2676 C 0.50783 0.86014 0.43152
 C2677 C 0.50698 0.84194 0.42020
 C2678 C 0.51407 0.82398 0.42966
 N2679 N 0.51635 0.87958 0.46457
 N2680 N 0.50751 0.89513 0.45697
 C2681 C 0.50701 0.91456 0.46714
 C2682 C 0.49580 0.92965 0.45698
 C2683 C 0.49511 0.94908 0.46549
 C2684 C 0.50574 0.95407 0.48455
 C2685 C 0.51688 0.93871 0.49498
 C2686 C 0.51752 0.91904 0.48633
 H2687 H 0.52805 0.81122 0.45840
 H2688 H 0.52978 0.84351 0.47818
 H2689 H 0.50212 0.87363 0.42371
 H2690 H 0.50087 0.84198 0.40389
 H2691 H 0.48768 0.92635 0.44216
 H2692 H 0.48642 0.96026 0.45669
 H2693 H 0.52537 0.94179 0.50950
 H2694 H 0.52637 0.90751 0.49441
 C2695 C 0.00804 0.34888 0.90587
 C2696 C 0.00918 0.36787 0.91554
 C2697 C 0.00806 0.37002 0.93812
 C2698 C 0.00634 0.35278 0.95115
 C2699 C 0.00556 0.33361 0.94145
 C2700 C 0.00611 0.33159 0.91869
 N2701 N 0.00854 0.38998 0.94699
 N2702 N 0.00455 0.39445 0.96668
 C2703 C 0.00514 0.41511 0.97374
 C2704 C -0.00366 0.42096 0.99352
 C2705 C -0.00491 0.44142 0.99941
 C2706 C 0.00283 0.45632 0.98564
 C2707 C 0.01237 0.45013 0.96626
 C2708 C 0.01353 0.42989 0.96042
 H2709 H 0.00866 0.34766 0.88832
 H2710 H 0.01060 0.38106 0.90537
 H2711 H 0.00556 0.35414 0.96867
 H2712 H 0.00403 0.32044 0.95162
 H2713 H -0.01018 0.40974 1.00400
 H2714 H -0.01244 0.44556 1.01437
 H2715 H 0.01875 0.46096 0.95521
 H2716 H 0.02066 0.42584 0.94518
 C2717 C 0.47726 0.34500 0.09806
 C2718 C 0.47624 0.36395 0.08838
 C2719 C 0.48498 0.36717 0.06808
 C2720 C 0.49469 0.35107 0.05732
 C2721 C 0.49569 0.33201 0.06699
 C2722 C 0.48702 0.32878 0.08752
 N2723 N 0.48420 0.38708 0.05925
 N2724 N 0.49223 0.39182 0.04126
 C2725 C 0.49149 0.41221 0.03363
 C2726 C 0.50180 0.41735 0.01468
 C2727 C 0.50252 0.43746 0.00790
 C2728 C 0.49274 0.45279 0.01992
 C2729 C 0.48208 0.44738 0.03873
 C2730 C 0.48137 0.42738 0.04542
 H2731 H 0.47075 0.34317 0.11404
 H2732 H 0.46884 0.37630 0.09687
 H2733 H 0.50156 0.35323 0.04158
 H2734 H 0.50313 0.31978 0.05835
 H2735 H 0.50978 0.40583 0.00549
 H2736 H 0.51127 0.44099 -0.00631
 H2737 H 0.47443 0.45864 0.04858
 H2738 H 0.47324 0.42387 0.06012
 C2739 C -0.02836 0.82356 0.56539
 C2740 C -0.02978 0.84058 0.55211
 C2741 C -0.01280 0.84794 0.54159
 C2742 C 0.00569 0.83780 0.54421
 C2743 C 0.00714 0.82079 0.55750
 C2744 C -0.00983 0.81358 0.56843
 N2745 N -0.01447 0.86632 0.52951
 N2746 N 0.00052 0.87410 0.52005
 C2747 C -0.00069 0.89319 0.50929
 C2748 C 0.01698 0.90199 0.50204
 C2749 C 0.01689 0.92190 0.49477
 C2750 C -0.00097 0.93360 0.49462
 C2751 C -0.01895 0.92391 0.49991
 C2752 C -0.01883 0.90401 0.50741
 H2753 H -0.04167 0.81857 0.57376
 H2754 H -0.04408 0.84832 0.55038
 H2755 H 0.01906 0.84319 0.53627
 H2756 H 0.02156 0.81328 0.55923
 H2757 H 0.03107 0.89374 0.50313
 H2758 H 0.03114 0.92841 0.49042
 H2759 H -0.03315 0.93157 0.49894
 H2760 H -0.03282 0.89736 0.51242
 C2761 C 0.23871 0.35529 0.10447
 C2762 C 0.23695 0.34506 0.12406
 C2763 C 0.22639 0.32705 0.12516
 C2764 C 0.21734 0.31931 0.10633
 C2765 C 0.21903 0.32963 0.08658
 C2766 C 0.22979 0.34775 0.08545
 N2767 N 0.22606 0.31684 0.14554
 N2768 N 0.21750 0.30012 0.14904
 C2769 C 0.21914 0.29100 0.17011
 C2770 C 0.21134 0.27179 0.17388
 C2771 C 0.21494 0.26196 0.19372
 C2772 C 0.22647 0.27125 0.21004
 C2773 C 0.23359 0.29082 0.20626
 C2774 C 0.22982 0.30059 0.18678
 H2775 H 0.24747 0.36892 0.10416
 H2776 H 0.24415 0.35103 0.13846
 H2777 H 0.20915 0.30533 0.10686
 H2778 H 0.21186 0.32352 0.07224
 H2779 H 0.20307 0.26416 0.16119
 H2780 H 0.20940 0.24684 0.19590
 H2781 H 0.24273 0.29856 0.21811
 H2782 H 0.23599 0.31545 0.18450
 C2783 C 0.71257 0.81714 0.57803
 C2784 C 0.70816 0.80732 0.59755
 C2785 C 0.71148 0.81691 0.61752
 C2786 C 0.71886 0.83668 0.61771
 C2787 C 0.72344 0.84638 0.59835
 C2788 C 0.72056 0.83671 0.57823
 N2789 N 0.70916 0.80595 0.63740
 N2790 N 0.71232 0.81469 0.65550
 C2791 C 0.71274 0.80479 0.67607
 C2792 C 0.72059 0.81552 0.69353
 C2793 C 0.72565 0.80575 0.71270
 C2794 C 0.72203 0.78503 0.71542
 C2795 C 0.71264 0.77454 0.69829
 C2796 C 0.70823 0.78430 0.67861
 H2797 H 0.70990 0.80935 0.56283
 H2798 H 0.70257 0.79207 0.59712
 H2799 H 0.72181 0.84444 0.63287
 H2800 H 0.72993 0.86123 0.59926
 H2801 H 0.72441 0.83124 0.69160
 H2802 H 0.73380 0.81436 0.72465
 H2803 H 0.70999 0.75852 0.69946
 H2804 H 0.70223 0.77569 0.66516
 C2805 C 0.27747 0.68123 0.58031
 C2806 C 0.28153 0.69221 0.59933
 C2807 C 0.27593 0.68470 0.61964
 C2808 C 0.26599 0.66615 0.62066
 C2809 C 0.26174 0.65536 0.60179
 C2810 C 0.26751 0.66264 0.58136
 N2811 N 0.27923 0.69637 0.63899
 N2812 N 0.27613 0.68844 0.65744
 C2813 C 0.27671 0.69891 0.67776
 C2814 C 0.26950 0.68872 0.69579
 C2815 C 0.26525 0.69903 0.71494
 C2816 C 0.26903 0.71980 0.71703
 C2817 C 0.27791 0.72974 0.69930
 C2818 C 0.28151 0.71941 0.67966
 H2819 H 0.28229 0.68719 0.56486
 H2820 H 0.28904 0.70654 0.59823
 H2821 H 0.26110 0.66012 0.63606
 H2822 H 0.25359 0.64143 0.60325
 H2823 H 0.26549 0.67299 0.69438
 H2824 H 0.25744 0.69081 0.72736
 H2825 H 0.28068 0.74577 0.70002
 H2826 H 0.28704 0.72760 0.66577
 C2827 C 0.76262 0.14314 0.10184
 C2828 C 0.76452 0.15219 0.12221
 C2829 C 0.77344 0.17103 0.12437
 C2830 C 0.78083 0.18074 0.10584
 C2831 C 0.77896 0.17165 0.08532
 C2832 C 0.76971 0.15278 0.08311
 N2833 N 0.77330 0.18032 0.14539
 N2834 N 0.78098 0.19736 0.14966
 C2835 C 0.77866 0.20614 0.17089
 C2836 C 0.78617 0.22537 0.17525
 C2837 C 0.78138 0.23529 0.19480
 C2838 C 0.76885 0.22614 0.21024
 C2839 C 0.76231 0.20644 0.20610
 C2840 C 0.76727 0.19651 0.18685
 H2841 H 0.75506 0.12883 0.10073
 H2842 H 0.75855 0.14471 0.13636
 H2843 H 0.78768 0.19540 0.10717
 H2844 H 0.78470 0.17938 0.07122
 H2845 H 0.79500 0.23301 0.16313
 H2846 H 0.78674 0.25046 0.19729
 H2847 H 0.75226 0.19895 0.21699
 H2848 H 0.76122 0.18166 0.18401
 C2849 C 0.71573 0.15615 0.90278
 C2850 C 0.71126 0.16775 0.88446
 C2851 C 0.71694 0.18795 0.88351
 C2852 C 0.72674 0.19664 0.90144
 C2853 C 0.73125 0.18505 0.91975
 C2854 C 0.72604 0.16460 0.92052
 N2855 N 0.71421 0.19875 0.86359
 N2856 N 0.71972 0.21694 0.86159
 C2857 C 0.71905 0.22735 0.84128
 C2858 C 0.72878 0.24577 0.83974
 C2859 C 0.73235 0.25432 0.81948
 C2860 C 0.72626 0.24453 0.80019
 C2861 C 0.71418 0.22740 0.80213
 C2862 C 0.71093 0.21862 0.82245
 H2863 H 0.71172 0.14039 0.90276
 H2864 H 0.70388 0.16082 0.87069
 H2865 H 0.73134 0.21222 0.90110
 H2866 H 0.73894 0.19205 0.93327
 H2867 H 0.73482 0.25285 0.85419
 H2868 H 0.74093 0.26804 0.81904
 H2869 H 0.70813 0.22001 0.78804
 H2870 H 0.70288 0.20457 0.82331
 C2871 C 0.22598 0.64304 0.39746
 C2872 C 0.22370 0.65177 0.37700
 C2873 C 0.22500 0.67266 0.37451
 C2874 C 0.22834 0.68487 0.39285
 C2875 C 0.23104 0.67610 0.41331
 C2876 C 0.23006 0.65508 0.41572
 N2877 N 0.22523 0.68075 0.35301
 N2878 N 0.22253 0.69940 0.34901
 C2879 C 0.22542 0.70711 0.32754
 C2880 C 0.21868 0.72659 0.32238
 C2881 C 0.22388 0.73534 0.30251
 C2882 C 0.23634 0.72487 0.28768
 C2883 C 0.24251 0.70507 0.29283
 C2884 C 0.23686 0.69620 0.31229
 H2885 H 0.22536 0.62679 0.39888
 H2886 H 0.22141 0.64220 0.36293
 H2887 H 0.22970 0.70104 0.39122
 H2888 H 0.23413 0.68566 0.42720
 H2889 H 0.20996 0.73524 0.33407
 H2890 H 0.21901 0.75068 0.29935
 H2891 H 0.25250 0.69658 0.28226
 H2892 H 0.24249 0.68122 0.31596
 C2893 C 0.78521 0.81081 0.41932
 C2894 C 0.79115 0.80082 0.40019
 C2895 C 0.79261 0.81142 0.38062
 C2896 C 0.78911 0.83239 0.38069
 C2897 C 0.78308 0.84229 0.39964
 C2898 C 0.78050 0.83153 0.41899
 N2899 N 0.79498 0.80057 0.36053
 N2900 N 0.79346 0.80991 0.34259
 C2901 C 0.79285 0.80035 0.32175
 C2902 C 0.78448 0.81145 0.30482
 C2903 C 0.77889 0.80201 0.28562
 C2904 C 0.78275 0.78130 0.28216
 C2905 C 0.79283 0.77047 0.29866
 C2906 C 0.79753 0.77984 0.31851
 H2907 H 0.78338 0.80221 0.43408
 H2908 H 0.79368 0.78466 0.40040
 H2909 H 0.79022 0.84105 0.36588
 H2910 H 0.77995 0.85835 0.39907
 H2911 H 0.78047 0.82717 0.30732
 H2912 H 0.77007 0.81085 0.27437
 H2913 H 0.79571 0.75444 0.29692
 H2914 H 0.80396 0.77096 0.33154
 C2915 C 0.23524 0.33686 0.90822
 C2916 C 0.23658 0.32413 0.89019
 C2917 C 0.25516 0.31659 0.88325
 C2918 C 0.27260 0.32186 0.89458
 C2919 C 0.27127 0.33438 0.91293
 C2920 C 0.25253 0.34199 0.92001
 N2921 N 0.25555 0.30335 0.86488
 N2922 N 0.27140 0.29810 0.85469
 C2923 C 0.26989 0.28469 0.83646
 C2924 C 0.28416 0.28515 0.81979
 C2925 C 0.28080 0.27473 0.80026
 C2926 C 0.26312 0.26366 0.79719
 C2927 C 0.24989 0.26184 0.81492
 C2928 C 0.25319 0.27226 0.83420
 H2929 H 0.22064 0.34278 0.91279
 H2930 H 0.22307 0.32021 0.88145
 H2931 H 0.28711 0.31603 0.88951
 H2932 H 0.28486 0.33777 0.92177
 H2933 H 0.29721 0.29458 0.82138
 H2934 H 0.29137 0.27654 0.78722
 H2935 H 0.23620 0.25333 0.81369
 H2936 H 0.24216 0.27128 0.84705
 C2937 C 0.79359 0.43272 0.77019
 C2938 C 0.78370 0.41427 0.77193
 C2939 C 0.79305 0.39637 0.76488
 C2940 C 0.81257 0.39713 0.75632
 C2941 C 0.82245 0.41544 0.75467
 C2942 C 0.81309 0.43347 0.76152
 N2943 N 0.78254 0.37766 0.76609
 N2944 N 0.79034 0.36165 0.75812
 C2945 C 0.78109 0.34233 0.75838
 C2946 C 0.79087 0.32652 0.74761
 C2947 C 0.78261 0.30740 0.74705
 C2948 C 0.76429 0.30343 0.75748
 C2949 C 0.75444 0.31945 0.76842
 C2950 C 0.76275 0.33879 0.76883
 H2951 H 0.78606 0.44636 0.77572
 H2952 H 0.76867 0.41394 0.77857
 H2953 H 0.82020 0.38357 0.75070
 H2954 H 0.83731 0.41553 0.74757
 H2955 H 0.80497 0.32911 0.73941
 H2956 H 0.79065 0.29583 0.73809
 H2957 H 0.74029 0.31712 0.77659
 H2958 H 0.75492 0.35088 0.77728
 C2959 C 0.34432 0.89985 0.26861
 C2960 C 0.33657 0.88046 0.26835
 C2961 C 0.31642 0.87721 0.27274
 C2962 C 0.30392 0.89364 0.27799
 C2963 C 0.31157 0.91323 0.27827
 C2964 C 0.33201 0.91698 0.27327
 N2965 N 0.30910 0.85716 0.27041
 N2966 N 0.29117 0.85199 0.27441
 C2967 C 0.28505 0.83165 0.27039
 C2968 C 0.26594 0.82539 0.27664
 C2969 C 0.25962 0.80574 0.27200
 C2970 C 0.27230 0.79205 0.26082
 C2971 C 0.29146 0.79861 0.25464
 C2972 C 0.29778 0.81801 0.25944
 H2973 H 0.35974 0.90101 0.26355
 H2974 H 0.34628 0.86786 0.26400
 H2975 H 0.28823 0.89138 0.28163
 H2976 H 0.30128 0.92513 0.28307
 H2977 H 0.25589 0.83577 0.28499
 H2978 H 0.24471 0.80143 0.27695
 H2979 H 0.30151 0.78908 0.24529
 H2980 H 0.31252 0.82247 0.25407
 C2981 C 0.20086 0.91650 0.71460
 C2982 C 0.21114 0.89790 0.71397
 C2983 C 0.20349 0.88123 0.72496
 C2984 C 0.18551 0.88347 0.73674
 C2985 C 0.17537 0.90188 0.73743
 C2986 C 0.18277 0.91860 0.72626
 N2987 N 0.21395 0.86217 0.72445
 N2988 N 0.20577 0.84707 0.73329
 C2989 C 0.21422 0.82728 0.73496
 C2990 C 0.20283 0.81314 0.74584
 C2991 C 0.21034 0.79392 0.74951
 C2992 C 0.22955 0.78803 0.74213
 C2993 C 0.24097 0.80227 0.73072
 C2994 C 0.23336 0.82187 0.72718
 H2995 H 0.20691 0.92915 0.70582
 H2996 H 0.22500 0.89647 0.70489
 H2997 H 0.17928 0.87100 0.74566
 H2998 H 0.16182 0.90308 0.74708
 H2999 H 0.18813 0.81725 0.75205
 H3000 H 0.20107 0.78395 0.75885
 H3001 H 0.25585 0.79843 0.72489
 H3002 H 0.24243 0.83276 0.71876
 C3003 C 0.67169 0.41086 0.24812
 C3004 C 0.67842 0.39093 0.24782
 C3005 C 0.69594 0.38552 0.23673
 C3006 C 0.70695 0.40040 0.22596
 C3007 C 0.70019 0.42052 0.22626
 C3008 C 0.68236 0.42587 0.23720
 N3009 N 0.70204 0.36481 0.23714
 N3010 N 0.71760 0.35771 0.22774
 C3011 C 0.72251 0.33667 0.22959
 C3012 C 0.74049 0.32909 0.22090
 C3013 C 0.74611 0.30889 0.22414
 C3014 C 0.73379 0.29591 0.23616
 C3015 C 0.71544 0.30360 0.24415
 C3016 C 0.70987 0.32362 0.24090
 H3017 H 0.65816 0.41456 0.25710
 H3018 H 0.66996 0.37959 0.25634
 H3019 H 0.72062 0.39648 0.21736
 H3020 H 0.70867 0.43180 0.21770
 H3021 H 0.75039 0.33896 0.21211
 H3022 H 0.76037 0.30367 0.21771
 H3023 H 0.70565 0.29450 0.25392
 H3024 H 0.69586 0.32899 0.24782
 C3025 C 0.67851 0.60284 0.27207
 C3026 C 0.68573 0.62247 0.27255
 C3027 C 0.70582 0.62623 0.26783
 C3028 C 0.71884 0.61003 0.26283
 C3029 C 0.71154 0.59033 0.26200
 C3030 C 0.69125 0.58660 0.26651
 N3031 N 0.71203 0.64674 0.26657
 N3032 N 0.73030 0.65204 0.26604
 C3033 C 0.73529 0.67281 0.26318
 C3034 C 0.75457 0.67947 0.26825
 C3035 C 0.75972 0.69965 0.26493
 C3036 C 0.74573 0.71346 0.25608
 C3037 C 0.72648 0.70642 0.25078
 C3038 C 0.72126 0.68650 0.25452
 H3039 H 0.66275 0.60045 0.27527
 H3040 H 0.67553 0.63487 0.27619
 H3041 H 0.73441 0.61268 0.25890
 H3042 H 0.72163 0.57804 0.25765
 H3043 H 0.76562 0.66903 0.27477
 H3044 H 0.77478 0.70426 0.26897
 H3045 H 0.71544 0.71610 0.24314
 H3046 H 0.70638 0.68165 0.25002
 C3047 C 0.19814 0.07621 0.77009
 C3048 C 0.20780 0.09477 0.77188
 C3049 C 0.20480 0.10963 0.75610
 C3050 C 0.19246 0.10552 0.73812
 C3051 C 0.18300 0.08699 0.73620
 C3052 C 0.18556 0.07221 0.75225
 N3053 N 0.21377 0.12900 0.75880
 N3054 N 0.20835 0.14364 0.74681
 C3055 C 0.21640 0.16343 0.74840
 C3056 C 0.20722 0.17867 0.73632
 C3057 C 0.21433 0.19825 0.73722
 C3058 C 0.23114 0.20311 0.75001
 C3059 C 0.24039 0.18764 0.76221
 C3060 C 0.23302 0.16794 0.76149
 H3061 H 0.20046 0.06500 0.78260
 H3062 H 0.21728 0.09772 0.78579
 H3063 H 0.18993 0.11670 0.72563
 H3064 H 0.17321 0.08442 0.72244
 H3065 H 0.19435 0.17535 0.72624
 H3066 H 0.20648 0.20955 0.72778
 H3067 H 0.25329 0.19067 0.77232
 H3068 H 0.24035 0.15629 0.77097
 C3069 C 0.31666 0.08757 0.26959
 C3070 C 0.30824 0.10690 0.26931
 C3071 C 0.29673 0.11336 0.25163
 C3072 C 0.29347 0.10013 0.23412
 C3073 C 0.30209 0.08073 0.23427
 C3074 C 0.31385 0.07431 0.25201
 N3075 N 0.28948 0.13374 0.25174
 N3076 N 0.27733 0.14105 0.23780
 C3077 C 0.27152 0.16193 0.23904
 C3078 C 0.25481 0.16909 0.22749
 C3079 C 0.24850 0.18927 0.22961
 C3080 C 0.25900 0.20271 0.24316
 C3081 C 0.27621 0.19543 0.25400
 C3082 C 0.28231 0.17539 0.25208
 H3083 H 0.32594 0.08324 0.28329
 H3084 H 0.31094 0.11705 0.28281
 H3085 H 0.28468 0.10491 0.22023
 H3086 H 0.29966 0.07079 0.22054
 H3087 H 0.24639 0.15892 0.21724
 H3088 H 0.23524 0.19421 0.22087
 H3089 H 0.28492 0.20504 0.26449
 H3090 H 0.29546 0.17039 0.26098
 C3091 C 0.78946 0.58803 0.72154
 C3092 C 0.77891 0.60644 0.72014
 C3093 C 0.78910 0.62473 0.72199
 C3094 C 0.81012 0.62434 0.72404
 C3095 C 0.82058 0.60609 0.72540
 C3096 C 0.81036 0.58773 0.72481
 N3097 N 0.77806 0.64345 0.72345
 N3098 N 0.78703 0.65916 0.73002
 C3099 C 0.77802 0.67863 0.73308
 C3100 C 0.78935 0.69293 0.74397
 C3101 C 0.78151 0.71198 0.74833
 C3102 C 0.76211 0.71765 0.74136
 C3103 C 0.75067 0.70319 0.73013
 C3104 C 0.75852 0.68371 0.72612
 H3105 H 0.78120 0.57408 0.72101
 H3106 H 0.76274 0.60645 0.71853
 H3107 H 0.81848 0.63819 0.72516
 H3108 H 0.83672 0.60635 0.72735
 H3109 H 0.80432 0.68910 0.74961
 H3110 H 0.79078 0.72205 0.75767
 H3111 H 0.73563 0.70682 0.72465
 H3112 H 0.74947 0.67274 0.71766
 C3113 C 0.93240 0.74664 0.19838
 C3114 C 0.91440 0.74760 0.21013
 C3115 C 0.89705 0.75572 0.20077
 C3116 C 0.89793 0.76309 0.17948
 C3117 C 0.91574 0.76210 0.16765
 C3118 C 0.93354 0.75366 0.17662
 N3119 N 0.87855 0.75595 0.21271
 N3120 N 0.86277 0.76355 0.20427
 C3121 C 0.84345 0.76392 0.21434
 C3122 C 0.82752 0.77194 0.20240
 C3123 C 0.80809 0.77150 0.21048
 C3124 C 0.80405 0.76321 0.23104
 C3125 C 0.82024 0.75563 0.24341
 C3126 C 0.83985 0.75591 0.23507
 H3127 H 0.94492 0.73929 0.20632
 H3128 H 0.91392 0.74167 0.22649
 H3129 H 0.88480 0.76972 0.17186
 H3130 H 0.91534 0.76897 0.15179
 H3131 H 0.83015 0.77818 0.18643
 H3132 H 0.79623 0.77767 0.20040
 H3133 H 0.81772 0.74914 0.25927
 H3134 H 0.85205 0.74963 0.24459
 C3135 C 0.41633 0.27570 0.70169
 C3136 C 0.39863 0.27678 0.71391
 C3137 C 0.38491 0.26098 0.71327
 C3138 C 0.38903 0.24407 0.70004
 C3139 C 0.40648 0.24319 0.68746
 C3140 C 0.42029 0.25898 0.68817
 N3141 N 0.36644 0.26285 0.72509
 N3142 N 0.35561 0.24761 0.72899
 C3143 C 0.33625 0.24926 0.73903
 C3144 C 0.32622 0.23164 0.74448
 C3145 C 0.30612 0.23242 0.75089
 C3146 C 0.29536 0.25090 0.75153
 C3147 C 0.30612 0.26867 0.74775
 C3148 C 0.32632 0.26790 0.74157
 H3149 H 0.42673 0.28809 0.70242
 H3150 H 0.39558 0.28996 0.72388
 H3151 H 0.37855 0.23177 0.69907
 H3152 H 0.40928 0.23011 0.67724
 H3153 H 0.33373 0.21715 0.74277
 H3154 H 0.29873 0.21828 0.75393
 H3155 H 0.29907 0.28324 0.74898
 H3156 H 0.33385 0.28180 0.73776
 C3157 C 0.40483 0.72363 0.83564
 C3158 C 0.38619 0.72169 0.82559
 C3159 C 0.38072 0.73419 0.80831
 C3160 C 0.39436 0.74854 0.80078
 C3161 C 0.41304 0.75063 0.81096
 C3162 C 0.41836 0.73839 0.82876
 N3163 N 0.36076 0.73282 0.79991
 N3164 N 0.35461 0.74204 0.78303
 C3165 C 0.33398 0.74097 0.77650
 C3166 C 0.32794 0.74848 0.75625
 C3167 C 0.30764 0.74836 0.75019
 C3168 C 0.29302 0.74099 0.76450
 C3169 C 0.29930 0.73342 0.78478
 C3170 C 0.31947 0.73323 0.79060
 H3171 H 0.40858 0.71364 0.84894
 H3172 H 0.37580 0.71057 0.83152
 H3173 H 0.39035 0.75848 0.78753
 H3174 H 0.42302 0.76225 0.80536
 H3175 H 0.33894 0.75456 0.74522
 H3176 H 0.30341 0.75438 0.73450
 H3177 H 0.28864 0.72758 0.79633
 H3178 H 0.32365 0.72743 0.80640
 C3179 C 0.90252 0.24923 0.33527
 C3180 C 0.88422 0.25154 0.32455
 C3181 C 0.88106 0.24249 0.30429
 C3182 C 0.89658 0.23105 0.29466
 C3183 C 0.91509 0.22887 0.30534
 C3184 C 0.91818 0.23788 0.32583
 N3185 N 0.86193 0.24549 0.29417
 N3186 N 0.85624 0.23686 0.27673
 C3187 C 0.83652 0.24106 0.26827
 C3188 C 0.82822 0.22872 0.25212
 C3189 C 0.80817 0.23149 0.24559
 C3190 C 0.79609 0.24671 0.25518
 C3191 C 0.80504 0.25969 0.27048
 C3192 C 0.82486 0.25691 0.27690
 H3193 H 0.90453 0.25663 0.35083
 H3194 H 0.87238 0.26047 0.33206
 H3195 H 0.89444 0.22395 0.27897
 H3196 H 0.92691 0.21999 0.29772
 H3197 H 0.83701 0.21642 0.24526
 H3198 H 0.80193 0.22099 0.23404
 H3199 H 0.79659 0.27167 0.27838
 H3200 H 0.83088 0.26691 0.28917
 C3201 C 0.08071 0.27013 0.31897
 C3202 C 0.09863 0.27335 0.30785
 C3203 C 0.10667 0.25847 0.29409
 C3204 C 0.09630 0.24036 0.29113
 C3205 C 0.07845 0.23701 0.30247
 C3206 C 0.07063 0.25177 0.31675
 N3207 N 0.12627 0.26139 0.28525
 N3208 N 0.13412 0.24996 0.27080
 C3209 C 0.15462 0.25245 0.26432
 C3210 C 0.16228 0.24178 0.24637
 C3211 C 0.18282 0.24233 0.24141
 C3212 C 0.19608 0.25335 0.25459
 C3213 C 0.18808 0.26432 0.27232
 C3214 C 0.16766 0.26412 0.27691
 H3215 H 0.07518 0.28168 0.33003
 H3216 H 0.10660 0.28728 0.31043
 H3217 H 0.10233 0.22857 0.28072
 H3218 H 0.07090 0.22278 0.30034
 H3219 H 0.15243 0.23259 0.23659
 H3220 H 0.18836 0.23345 0.22784
 H3221 H 0.19767 0.27269 0.28321
 H3222 H 0.16224 0.27236 0.29101
 C3223 C 0.58295 0.78101 0.82850
 C3224 C 0.60163 0.78414 0.81891
 C3225 C 0.60963 0.77007 0.80417
 C3226 C 0.59854 0.75288 0.79877
 C3227 C 0.57998 0.74956 0.80864
 C3228 C 0.57212 0.76350 0.82377
 N3229 N 0.62963 0.77277 0.79635
 N3230 N 0.63696 0.76254 0.78062
 C3231 C 0.65754 0.76441 0.77434
 C3232 C 0.66403 0.75624 0.75451
 C3233 C 0.68433 0.75670 0.74873
 C3234 C 0.69857 0.76503 0.76297
 C3235 C 0.69187 0.77330 0.78285
 C3236 C 0.67159 0.77321 0.78834
 H3237 H 0.57732 0.79187 0.84028
 H3238 H 0.61012 0.79735 0.82332
 H3239 H 0.60450 0.74171 0.78755
 H3240 H 0.57186 0.73598 0.80469
 H3241 H 0.65336 0.74930 0.74360
 H3242 H 0.68886 0.75010 0.73336
 H3243 H 0.70230 0.77982 0.79430
 H3244 H 0.66699 0.77948 0.80386
 C3245 C 0.57769 0.23203 0.70306
 C3246 C 0.59538 0.23124 0.71530
 C3247 C 0.60785 0.24800 0.71659
 C3248 C 0.60229 0.26574 0.70558
 C3249 C 0.58473 0.26649 0.69316
 C3250 C 0.57225 0.24959 0.69158
 N3251 N 0.62657 0.24633 0.72799
 N3252 N 0.63753 0.26161 0.73133
 C3253 C 0.65702 0.26025 0.74110
 C3254 C 0.66794 0.27790 0.74372
 C3255 C 0.68806 0.27702 0.74992
 C3256 C 0.69793 0.25834 0.75339
 C3257 C 0.68628 0.24080 0.75263
 C3258 C 0.66608 0.24169 0.74636
 H3259 H 0.56829 0.21884 0.70258
 H3260 H 0.59947 0.21746 0.72367
 H3261 H 0.61177 0.27885 0.70610
 H3262 H 0.58128 0.28015 0.68429
 H3263 H 0.66108 0.29236 0.73997
 H3264 H 0.69608 0.29108 0.75087
 H3265 H 0.69265 0.22624 0.75613
 H3266 H 0.65782 0.22781 0.74482
 C3267 C 0.08784 0.76618 0.19642
 C3268 C 0.10524 0.76642 0.20916
 C3269 C 0.11852 0.74991 0.20901
 C3270 C 0.11365 0.73268 0.19673
 C3271 C 0.09616 0.73232 0.18425
 C3272 C 0.08329 0.74922 0.18358
 N3273 N 0.13750 0.75143 0.21987
 N3274 N 0.15161 0.73902 0.21538
 C3275 C 0.17136 0.73993 0.22438
 C3276 C 0.18651 0.72929 0.21360
 C3277 C 0.20631 0.73075 0.22033
 C3278 C 0.21151 0.74222 0.23881
 C3279 C 0.19610 0.75260 0.25006
 C3280 C 0.17613 0.75163 0.24276
 H3281 H 0.07803 0.77932 0.19638
 H3282 H 0.10878 0.77979 0.21850
 H3283 H 0.12361 0.71966 0.19638
 H3284 H 0.09310 0.71911 0.17445
 H3285 H 0.18302 0.72036 0.19934
 H3286 H 0.21757 0.72286 0.21078
 H3287 H 0.19951 0.76183 0.26410
 H3288 H 0.16454 0.76003 0.25131
   
