data_POSCAR
  _audit_creation_date              2014-09-24
  _audit_creation_method            'ToBaCCo'
  _symmetry_space_group_name_H-M    'P1'
  _symmetry_Int_Tables_number       1
  _symmetry_cell_setting            triclinic
  loop_
  _symmetry_equiv_pos_as_xyz
 x,y,z
_cell_length_a 52.2883
_cell_length_b 52.6534
_cell_length_c 51.3072
_cell_angle_alpha 89.447500
_cell_angle_beta 90.466300
_cell_angle_gamma 90.443800
loop_
  _atom_site_label
  _atom_site_type_symbol
  _atom_site_fract_x
  _atom_site_fract_y
  _atom_site_fract_z
C1 C 0.35951 1.33807 0.33546
 C2 C 0.35109 1.32108 0.35464
 C3 C 0.32943 1.32610 0.36879
 C4 C 0.31577 1.34854 0.36378
 C5 C 0.32417 1.36566 0.34493
 C6 C 0.34651 1.36042 0.33069
 C7 C 0.37970 1.33707 0.31862
 N8 N 0.37983 1.35843 0.30372
 C9 C 0.35956 1.37297 0.31096
 C10 C 0.30676 1.38532 0.34422
 N11 N 0.28809 1.38055 0.36204
 C12 C 0.29366 1.35802 0.37410
 C13 C 0.32606 1.30596 0.38598
 N14 N 0.34543 1.28925 0.38264
 C15 C 0.36061 1.29832 0.36325
 H16 H 0.39338 1.32180 0.31728
 H17 H 0.35407 1.39090 0.30219
 H18 H 0.30750 1.40179 0.33144
 H19 H 0.28261 1.34869 0.38915
 H20 H 0.31084 1.30373 0.40000
 H21 H 0.37723 1.28898 0.35553
 C22 C 0.35610 0.84063 0.82418
 C23 C 0.36025 0.81900 0.83976
 C24 C 0.34489 0.81421 0.86114
 C25 C 0.32505 0.83102 0.86716
 C26 C 0.32112 0.85233 0.85175
 C27 C 0.33661 0.85712 0.83009
 C28 C 0.36760 0.84974 0.80191
 N29 N 0.35549 0.87136 0.79421
 C30 C 0.33642 0.87591 0.81125
 C31 C 0.30064 0.86506 0.86167
 N32 N 0.29175 0.85202 0.88288
 C33 C 0.30659 0.83110 0.88626
 C34 C 0.35309 0.79175 0.87226
 N35 N 0.37304 0.78288 0.85813
 C36 C 0.37739 0.79938 0.83817
 H37 H 0.38312 0.84078 0.79174
 H38 H 0.32325 0.89164 0.80987
 H39 H 0.29274 0.88227 0.85339
 H40 H 0.30407 0.81690 0.90145
 H41 H 0.34467 0.78241 0.88902
 H42 H 0.39192 0.79717 0.82347
 C43 C 0.83374 1.30992 0.79938
 C44 C 0.83194 1.28790 0.81446
 C45 C 0.81771 1.28768 0.83692
 C46 C 0.80388 1.30928 0.84379
 C47 C 0.80537 1.33136 0.82882
 C48 C 0.82135 1.33193 0.80655
 C49 C 0.84915 1.31539 0.77873
 N50 N 0.84749 1.34042 0.77306
 C51 C 0.83033 1.35092 0.78979
 C52 C 0.78947 1.34883 0.84064
 N53 N 0.77842 1.33755 0.86198
 C54 C 0.78769 1.31363 0.86412
 C55 C 0.82351 1.26552 0.85015
 N56 N 0.84086 1.25255 0.83597
 C57 C 0.84579 1.26588 0.81394
 H58 H 0.86201 1.30227 0.76945
 H59 H 0.82535 1.37081 0.79042
 H60 H 0.78587 1.36794 0.83370
 H61 H 0.78228 1.29992 0.87901
 H62 H 0.81736 1.26028 0.86959
 H63 H 0.86051 1.26125 0.80008
 C64 C 0.87308 0.85231 0.33942
 C65 C 0.86685 0.83642 0.36046
 C66 C 0.84521 0.84085 0.37507
 C67 C 0.82940 0.86165 0.36863
 C68 C 0.83571 0.87733 0.34777
 C69 C 0.85774 0.87271 0.33326
 C70 C 0.89229 0.85166 0.32124
 N71 N 0.88913 0.87139 0.30433
 C72 C 0.86793 0.88438 0.31163
 C73 C 0.81667 0.89501 0.34490
 N74 N 0.79898 0.89085 0.36362
 C75 C 0.80652 0.87044 0.37827
 C76 C 0.84382 0.82150 0.39348
 N77 N 0.86417 0.80585 0.39041
 C78 C 0.87818 0.81487 0.37008
 H79 H 0.90732 0.83767 0.32022
 H80 H 0.85967 0.90056 0.30164
 H81 H 0.81553 0.90968 0.33000
 H82 H 0.79579 0.86201 0.39413
 H83 H 0.82898 0.81883 0.40786
 H84 H 0.89499 0.80609 0.36210
 C85 C 0.63296 0.66484 0.32916
 C86 C 0.63703 0.68198 0.34959
 C87 C 0.65773 0.67894 0.36626
 C88 C 0.67455 0.65871 0.36285
 C89 C 0.67055 0.64179 0.34279
 C90 C 0.64959 0.64487 0.32588
 C91 C 0.61519 0.66370 0.30922
 N92 N 0.62057 0.64349 0.29398
 C93 C 0.64167 0.63186 0.30416
 C94 C 0.69053 0.62493 0.34338
 N95 N 0.70642 0.63113 0.36340
 C96 C 0.69681 0.65186 0.37539
 C97 C 0.65772 0.69889 0.38334
 N98 N 0.63744 0.71386 0.37762
 C99 C 0.62469 0.70372 0.35691
 H100 H 0.59966 0.67686 0.30583
 H101 H 0.65124 0.61554 0.29632
 H102 H 0.69357 0.60952 0.32995
 H103 H 0.70563 0.66187 0.39147
 H104 H 0.67167 0.70250 0.39860
 H105 H 0.60819 0.71187 0.34722
 C106 C 0.63718 0.14082 0.82666
 C107 C 0.63144 0.16113 0.84302
 C108 C 0.64767 0.16699 0.86349
 C109 C 0.66981 0.15287 0.86787
 C110 C 0.67543 0.13271 0.85190
 C111 C 0.65905 0.12670 0.83094
 C112 C 0.62523 0.13138 0.80487
 N113 N 0.63932 0.11182 0.79551
 C114 C 0.66007 0.10892 0.81140
 C115 C 0.69813 0.12266 0.86085
 N116 N 0.70638 0.13642 0.88179
 C117 C 0.68918 0.15503 0.88597
 C118 C 0.63796 0.18777 0.87571
 N119 N 0.61608 0.19475 0.86319
 C120 C 0.61204 0.17871 0.84301
 H121 H 0.60791 0.13898 0.79634
 H122 H 0.67500 0.09505 0.80876
 H123 H 0.70794 0.10688 0.85216
 H124 H 0.69059 0.16907 0.90122
 H125 H 0.64677 0.19753 0.89197
 H126 H 0.59631 0.17995 0.82922
 C127 C 1.14548 0.66614 0.83848
 C128 C 1.15062 0.68626 0.85546
 C129 C 1.17269 0.68619 0.87029
 C130 C 1.18952 0.66595 0.86897
 C131 C 1.18441 0.64557 0.85288
 C132 C 1.16223 0.64589 0.83698
 C133 C 1.12579 0.66179 0.82120
 N134 N 1.13016 0.63969 0.80876
 C135 C 1.15230 0.62961 0.81841
 C136 C 1.20373 0.62815 0.85743
 N137 N 1.22008 0.63797 0.87574
 C138 C 1.21153 0.66111 0.88250
 C139 C 1.17276 0.70745 0.88548
 N140 N 1.15099 0.72033 0.88054
 C141 C 1.13731 0.70770 0.86200
 H142 H 1.10971 0.67417 0.81743
 H143 H 1.16072 0.61194 0.81236
 H144 H 1.20547 0.60983 0.84829
 H145 H 1.22031 0.67330 0.89700
 H146 H 1.18717 0.71278 0.89973
 H147 H 1.11902 0.71349 0.85403
 C148 C 1.13865 0.18147 0.32273
 C149 C 1.14236 0.20207 0.33946
 C150 C 1.16326 0.20255 0.35595
 C151 C 1.18016 0.18229 0.35672
 C152 C 1.17633 0.16135 0.34102
 C153 C 1.15544 0.16115 0.32327
 C154 C 1.12049 0.17675 0.30393
 N155 N 1.12570 0.15430 0.29246
 C156 C 1.14694 0.14437 0.30436
 C157 C 1.19512 0.14404 0.34808
 N158 N 1.20986 0.15446 0.36745
 C159 C 1.20085 0.17788 0.37242
 C160 C 1.16180 0.22396 0.37080
 N161 N 1.14015 0.23632 0.36414
 C162 C 1.12812 0.22330 0.34476
 H163 H 1.10491 0.18921 0.29845
 H164 H 1.15605 0.12671 0.29942
 H165 H 1.19755 0.12536 0.33992
 H166 H 1.20831 0.19054 0.38724
 H167 H 1.17479 0.22947 0.38633
 H168 H 1.11009 0.22847 0.33575
 C169 C 0.63256 1.35274 0.65711
 C170 C 0.63320 1.33214 0.63948
 C171 C 0.64977 1.33337 0.61850
 C172 C 0.66539 1.35460 0.61447
 C173 C 0.66461 1.37468 0.63137
 C174 C 0.64814 1.37379 0.65268
 C175 C 0.62033 1.35708 0.68060
 N176 N 0.62826 1.38012 0.69000
 C177 C 0.64513 1.39026 0.67287
 C178 C 0.68366 1.39146 0.62424
 N179 N 0.69600 1.38181 0.60336
 C180 C 0.68479 1.35936 0.59719
 C181 C 0.64848 1.31076 0.60566
 N182 N 0.63122 1.29556 0.61766
 C183 C 0.62164 1.30826 0.63847
 H184 H 0.60711 1.34416 0.69011
 H185 H 0.65512 1.40820 0.67529
 H186 H 0.68889 1.40860 0.63450
 H187 H 0.69128 1.34672 0.58213
 H188 H 0.65963 1.30553 0.58887
 H189 H 0.60810 1.30044 0.65229
 C190 C 0.63334 0.84123 1.16724
 C191 C 0.63921 0.82424 1.14704
 C192 C 0.66088 0.82834 1.13211
 C193 C 0.67682 0.84940 1.13691
 C194 C 0.67100 0.86598 1.15664
 C195 C 0.64918 0.86191 1.17176
 C196 C 0.61418 0.84210 1.18570
 N197 N 0.61804 0.86283 1.20102
 C198 C 0.63953 0.87496 1.19245
 C199 C 0.69007 0.88413 1.15753
 N200 N 0.70723 0.87918 1.13863
 C201 C 0.69935 0.85786 1.12594
 C202 C 0.66240 0.80870 1.11467
 N203 N 0.64215 0.79283 1.11827
 C204 C 0.62786 0.80212 1.13811
 H205 H 0.59866 0.82853 1.18790
 H206 H 0.64822 0.89178 1.20070
 H207 H 0.69148 0.89974 1.17106
 H208 H 0.70948 0.84871 1.11036
 H209 H 0.67730 0.80603 1.10044
 H210 H 0.61085 0.79321 1.14601
 C211 C 1.13966 1.34885 1.18322
 C212 C 1.13472 1.32754 1.16781
 C213 C 1.15141 1.32132 1.14819
 C214 C 1.17336 1.33606 1.14384
 C215 C 1.17831 1.35712 1.15901
 C216 C 1.16130 1.36359 1.17897
 C217 C 1.12681 1.35913 1.20377
 N218 N 1.14000 1.37988 1.21221
 C219 C 1.16122 1.38265 1.19728
 C220 C 1.20100 1.36756 1.15037
 N221 N 1.20992 1.35320 1.13037
 C222 C 1.19305 1.33390 1.12642
 C223 C 1.14200 1.29986 1.13645
 N224 N 1.11992 1.29290 1.14845
 C225 C 1.11543 1.30956 1.16784
 H226 H 1.10946 1.35153 1.21224
 H227 H 1.17558 1.39738 1.19967
 H228 H 1.21025 1.38414 1.15854
 H229 H 1.19498 1.31925 1.11190
 H230 H 1.15097 1.28978 1.12071
 H231 H 1.09929 1.30866 1.18091
 C232 C 1.12082 0.85067 0.65707
 C233 C 1.12611 0.83448 0.63616
 C234 C 1.14632 0.84002 0.61978
 C235 C 1.16135 0.86166 0.62388
 C236 C 1.15629 0.87759 0.64437
 C237 C 1.13584 0.87210 0.66100
 C238 C 1.10407 0.84904 0.67767
 N239 N 1.10849 0.86897 0.69376
 C240 C 1.12802 0.88308 0.68370
 C241 C 1.17576 0.89535 0.64530
 N242 N 1.19234 0.89052 0.62578
 C243 C 1.18362 0.86987 0.61262
 C244 C 1.14887 0.82010 0.60296
 N245 N 1.13056 0.80261 0.60842
 C246 C 1.11653 0.81115 0.62877
 H247 H 1.09023 0.83401 0.68118
 H248 H 1.13690 0.89944 0.69269
 H249 H 1.17836 0.90994 0.65982
 H250 H 1.19342 0.86033 0.59709
 H251 H 1.16353 0.81804 0.58836
 H252 H 1.10142 0.80065 0.63845
 C253 C 0.37335 0.64611 0.66416
 C254 C 0.36823 0.66222 0.64277
 C255 C 0.34761 0.65716 0.62636
 C256 C 0.33184 0.63581 0.63120
 C257 C 0.33695 0.62028 0.65240
 C258 C 0.35774 0.62533 0.66868
 C259 C 0.39111 0.64663 0.68426
 N260 N 0.38655 0.62649 0.70039
 C261 C 0.36599 0.61354 0.69099
 C262 C 0.31813 0.60211 0.65385
 N263 N 0.30157 0.60575 0.63380
 C264 C 0.30979 0.62637 0.61968
 C265 C 0.34660 0.67671 0.60826
 N266 N 0.36606 0.69331 0.61315
 C267 C 0.37933 0.68457 0.63431
 H268 H 0.40596 0.66079 0.68718
 H269 H 0.35689 0.59727 0.70011
 H270 H 0.31640 0.58742 0.66868
 H271 H 0.30011 0.63467 0.60299
 H272 H 0.33242 0.67898 0.59294
 H273 H 0.39535 0.69405 0.64359
 C274 C 0.39297 0.13048 1.14912
 C275 C 0.38794 0.15006 1.13119
 C276 C 0.36640 0.14894 1.11541
 C277 C 0.34960 0.12808 1.11731
 C278 C 0.35466 0.10867 1.13488
 C279 C 0.37639 0.10995 1.15097
 C280 C 0.41017 0.12856 1.16947
 N281 N 0.40411 0.10769 1.18385
 C282 C 0.38368 0.09597 1.17247
 C283 C 0.33397 0.09237 1.13457
 N284 N 0.31631 0.10143 1.11739
 C285 C 0.32582 0.12332 1.10665
 C286 C 0.36487 0.17180 1.10226
 N287 N 0.38489 0.18670 1.10969
 C288 C 0.39908 0.17352 1.12746
 H289 H 0.42467 0.14244 1.17469
 H290 H 0.37386 0.07934 1.18002
 H291 H 0.33146 0.07568 1.14682
 H292 H 0.31613 0.13555 1.09278
 H293 H 0.34970 0.17762 1.08906
 H294 H 0.41561 0.18066 1.13794
 C295 C 0.87938 0.65620 1.15781
 C296 C 0.87467 0.67151 1.13608
 C297 C 0.85390 0.66687 1.12001
 C298 C 0.83753 0.64623 1.12558
 C299 C 0.84224 0.63085 1.14719
 C300 C 0.86343 0.63590 1.16347
 C301 C 0.89698 0.65833 1.17761
 N302 N 0.89244 0.63964 1.19521
 C303 C 0.87191 0.62573 1.18685
 C304 C 0.82243 0.61349 1.14868
 N305 N 0.80599 0.61775 1.12851
 C306 C 0.81504 0.63785 1.11435
 C307 C 0.85326 0.68644 1.10186
 N308 N 0.87326 0.70244 1.10668
 C309 C 0.88630 0.69337 1.12771
 H310 H 0.91160 0.67289 1.17953
 H311 H 0.86301 0.61026 1.19755
 H312 H 0.81988 0.59908 1.16365
 H313 H 0.80566 0.64645 1.09763
 H314 H 0.83889 0.68930 1.08683
 H315 H 0.90229 0.70256 1.13734
 C316 C 0.85153 0.15821 0.67933
 C317 C 0.85598 0.18035 0.66444
 C318 C 0.83930 0.18673 0.64442
 C319 C 0.81806 0.17132 0.63897
 C320 C 0.81371 0.14955 0.65359
 C321 C 0.83043 0.14305 0.67406
 C322 C 0.86430 0.14724 0.70008
 N323 N 0.85133 0.12584 0.70768
 C324 C 0.83053 0.12330 0.69187
 C325 C 0.79203 0.13816 0.64369
 N326 N 0.78322 0.15252 0.62338
 C327 C 0.79884 0.17299 0.62056
 C328 C 0.84792 0.20900 0.63339
 N329 N 0.86957 0.21644 0.64613
 C330 C 0.87456 0.19911 0.66528
 H331 H 0.88137 0.15491 0.70916
 H332 H 0.81646 0.10814 0.69321
 H333 H 0.78322 0.12086 0.65094
 H334 H 0.79656 0.18778 0.60594
 H335 H 0.83859 0.21921 0.61764
 H336 H 0.89048 0.20016 0.67886
 C337 C 1.34648 0.34931 0.67445
 C338 C 1.32489 0.35514 0.65914
 C339 C 1.31870 0.34030 0.63780
 C340 C 1.33391 0.31940 0.63156
 C341 C 1.35515 0.31388 0.64666
 C342 C 1.36139 0.32871 0.66827
 C343 C 1.35685 0.35977 0.69668
 N344 N 1.37758 0.34587 0.70402
 C345 C 1.38036 0.32674 0.68686
 C346 C 1.36622 0.29267 0.63664
 N347 N 1.35221 0.28487 0.61565
 C348 C 1.33227 0.30108 0.61254
 C349 C 1.29666 0.34998 0.62697
 N350 N 1.28933 0.37035 0.64116
 C351 C 1.30638 0.37350 0.66096
 H352 H 1.34934 0.37580 0.70714
 H353 H 1.39501 0.31234 0.68800
 H354 H 1.38285 0.28344 0.64489
 H355 H 1.31761 0.29961 0.59759
 H356 H 1.28645 0.34224 0.61039
 H357 H 1.30527 0.38801 0.67571
 C358 C 1.34522 0.84358 1.17637
 C359 C 1.32932 0.84366 1.15395
 C360 C 1.33014 0.82342 1.13677
 C361 C 1.34659 0.80286 1.14179
 C362 C 1.36095 0.80249 1.16440
 C363 C 1.36031 0.82269 1.18149
 C364 C 1.35116 0.86113 1.19557
 N365 N 1.36935 0.85082 1.21170
 C366 C 1.37457 0.82725 1.20327
 C367 C 1.37589 0.78136 1.16445
 N368 N 1.37171 0.76881 1.14197
 C369 C 1.35355 0.78163 1.12790
 C370 C 1.31278 0.82832 1.11708
 N371 N 1.30101 0.85066 1.12192
 C372 C 1.31126 0.86040 1.14427
 H373 H 1.34328 0.87999 1.19714
 H374 H 1.38880 0.81470 1.21173
 H375 H 1.38988 0.77615 1.17922
 H376 H 1.34625 0.77641 1.10889
 H377 H 1.30841 0.81608 1.10078
 H378 H 1.30579 0.87804 1.15320
 C379 C 0.86161 0.37397 1.16437
 C380 C 0.84277 0.37905 1.14583
 C381 C 0.83814 0.36237 1.12574
 C382 C 0.85273 0.34010 1.12405
 C383 C 0.87150 0.33494 1.14262
 C384 C 0.87591 0.35211 1.16319
 C385 C 0.86822 0.38660 1.18654
 N386 N 0.88642 0.37311 1.19951
 C387 C 0.89131 0.35192 1.18532
 C388 C 0.88175 0.31166 1.13653
 N389 N 0.86973 0.30261 1.11471
 C390 C 0.85194 0.31993 1.10716
 C391 C 0.81700 0.37141 1.11234
 N392 N 0.80899 0.39297 1.12420
 C393 C 0.82469 0.39768 1.14462
 H394 H 0.85942 0.40398 1.19282
 H395 H 0.90458 0.33714 1.19100
 H396 H 0.89671 0.30222 1.14749
 H397 H 0.83917 0.31794 1.09055
 H398 H 0.80730 0.36208 1.09632
 H399 H 0.82231 0.41292 1.15840
 C400 C 0.85248 0.86462 0.67544
 C401 C 0.83132 0.86845 0.65890
 C402 C 0.82661 0.85204 0.63836
 C403 C 0.84315 0.83139 0.63427
 C404 C 0.86383 0.82788 0.65081
 C405 C 0.86844 0.84435 0.67138
 C406 C 0.86151 0.87687 0.69732
 N407 N 0.88246 0.86425 0.70636
 C408 C 0.88668 0.84426 0.69070
 C409 C 0.87631 0.80649 0.64344
 N410 N 0.86402 0.79654 0.62248
 C411 C 0.84354 0.81151 0.61678
 C412 C 0.80438 0.86015 0.62628
 N413 N 0.79563 0.88094 0.63903
 C414 C 0.81196 0.88597 0.65902
 H415 H 0.85298 0.89320 0.70638
 H416 H 0.90183 0.83054 0.69338
 H417 H 0.89274 0.79850 0.65337
 H418 H 0.82984 0.80803 0.60126
 H419 H 0.79500 0.85109 0.60992
 H420 H 0.80971 0.90118 0.67286
 C421 C 0.65764 0.63663 0.66913
 C422 C 0.67477 0.64382 0.64944
 C423 C 0.67006 0.66516 0.63433
 C424 C 0.64807 0.67950 0.63855
 C425 C 0.63108 0.67252 0.65791
 C426 C 0.63588 0.65080 0.67332
 C427 C 0.65794 0.61731 0.68742
 N428 N 0.63683 0.61919 0.70245
 C429 C 0.62324 0.63970 0.69402
 C430 C 0.61205 0.69057 0.65794
 N431 N 0.61705 0.70802 0.63892
 C432 C 0.63917 0.70140 0.62710
 C433 C 0.69020 0.66811 0.61742
 N434 N 0.70688 0.64890 0.62169
 C435 C 0.69766 0.63401 0.64138
 H436 H 0.67261 0.60305 0.68984
 H437 H 0.60588 0.64662 0.70272
 H438 H 0.59587 0.69111 0.67095
 H439 H 0.64866 0.71205 0.61180
 H440 H 0.69266 0.68319 0.60315
 H441 H 0.70714 0.61765 0.64981
 C442 C 0.68855 1.15686 1.20170
 C443 C 0.71032 1.15701 1.18628
 C444 C 0.71121 1.17183 1.16408
 C445 C 0.69055 1.18738 1.15746
 C446 C 0.66862 1.18728 1.17253
 C447 C 0.66739 1.17127 1.19491
 C448 C 0.68252 1.14220 1.22284
 N449 N 0.65796 1.14651 1.22933
 C450 C 0.64831 1.16439 1.21246
 C451 C 0.65192 1.20424 1.16057
 N452 N 0.66355 1.21454 1.13905
 C453 C 0.68695 1.20392 1.13703
 C454 C 0.73273 1.16502 1.15071
 N455 N 0.74461 1.14620 1.16434
 C456 C 0.73136 1.14155 1.18640
 H457 H 0.69490 1.12838 1.23221
 H458 H 0.62895 1.17150 1.21250
 H459 H 0.63310 1.20899 1.16753
 H460 H 0.70072 1.20836 1.12195
 H461 H 0.73827 1.17188 1.13159
 H462 H 0.73535 1.12631 1.20013
 C463 C 0.15702 0.62363 1.15614
 C464 C 0.17085 0.62130 1.13307
 C465 C 0.16853 0.63939 1.11373
 C466 C 0.15278 0.66028 1.11723
 C467 C 0.13926 0.66330 1.14014
 C468 C 0.14115 0.64430 1.15997
 C469 C 0.15607 0.60847 1.17796
 N470 N 0.13976 0.61871 1.19527
 C471 C 0.13056 0.64082 1.18458
 C472 C 0.12715 0.68673 1.13775
 N473 N 0.13323 0.69728 1.11405
 C474 C 0.14869 0.68099 1.10161
 C475 C 0.18526 0.63336 1.09428
 N476 N 0.19801 0.61212 1.10149
 C477 C 0.18912 0.60438 1.12516
 H478 H 0.16639 0.59089 1.18091
 H479 H 0.11722 0.65347 1.19375
 H480 H 0.11523 0.69536 1.15229
 H481 H 0.15703 0.68431 1.08259
 H482 H 0.18892 0.64439 1.07676
 H483 H 0.19593 0.58825 1.13636
 C484 C 0.14557 1.14340 0.67431
 C485 C 0.16719 1.14005 0.65900
 C486 C 0.17182 1.15587 0.63779
 C487 C 0.15469 1.17591 0.63215
 C488 C 0.13339 1.17913 0.64766
 C489 C 0.12880 1.16279 0.66885
 C490 C 0.13688 1.13078 0.69601
 N491 N 0.11503 1.14211 0.70410
 C492 C 0.11008 1.16185 0.68762
 C493 C 0.12055 1.20010 0.63866
 N494 N 0.13340 1.21019 0.61797
 C495 C 0.15433 1.19547 0.61389
 C496 C 0.19456 1.14776 0.62701
 N497 N 0.20350 1.12785 0.64153
 C498 C 0.18700 1.12323 0.66116
 H499 H 0.14643 1.11494 0.70530
 H500 H 0.09406 1.17465 0.68921
 H501 H 0.10344 1.20752 0.64735
 H502 H 0.16849 1.19894 0.59896
 H503 H 0.20420 1.15612 0.61038
 H504 H 0.18933 1.10865 0.67601
 C505 C 1.35237 0.63827 0.32280
 C506 C 1.33059 0.63394 0.33812
 C507 C 1.32461 0.65065 0.35783
 C508 C 1.34028 0.67205 0.36233
 C509 C 1.36156 0.67621 0.34704
 C510 C 1.36757 0.65937 0.32715
 C511 C 1.36285 0.62547 0.30225
 N512 N 1.38400 0.63851 0.29395
 C513 C 1.38682 0.65935 0.30906
 C514 C 1.37321 0.69813 0.35528
 N515 N 1.35958 0.70772 0.37539
 C516 C 1.33933 0.69187 0.37975
 C517 C 1.30230 0.64192 0.36905
 N518 N 1.29461 0.62039 0.35659
 C519 C 1.31174 0.61551 0.33759
 H520 H 1.35503 0.60835 0.29376
 H521 H 1.40186 0.67349 0.30705
 H522 H 1.39025 0.70629 0.34673
 H523 H 1.32494 0.69456 0.39451
 H524 H 1.29212 0.65106 0.38461
 H525 H 1.31043 0.59978 0.32420
 C526 C 1.34761 1.12099 0.83989
 C527 C 1.33286 1.12634 0.86180
 C528 C 1.34012 1.14568 0.87828
 C529 C 1.36225 1.15976 0.87328
 C530 C 1.37691 1.15484 0.85165
 C531 C 1.36957 1.13506 0.83480
 C532 C 1.34422 1.10416 0.81982
 N533 N 1.36369 1.10729 0.80281
 C534 C 1.37927 1.12624 0.81170
 C535 C 1.39610 1.17307 0.85111
 N536 N 1.39339 1.18854 0.87202
 C537 C 1.37261 1.18033 0.88560
 C538 C 1.32145 1.14804 0.89677
 N539 N 1.30318 1.13031 0.89210
 C540 C 1.30990 1.11695 0.87069
 H541 H 1.32855 1.09077 0.81755
 H542 H 1.39592 1.13369 0.80175
 H543 H 1.41063 1.17523 0.83631
 H544 H 1.36448 1.18914 0.90254
 H545 H 1.32087 1.16197 0.91214
 H546 H 1.29842 1.10230 0.86152
 C547 C 0.81487 0.65870 0.81864
 C548 C 0.79334 0.66283 0.83390
 C549 C 0.79312 0.68260 0.85123
 C550 C 0.81455 0.69829 0.85384
 C551 C 0.83632 0.69416 0.83923
 C552 C 0.83643 0.67403 0.82114
 C553 C 0.81971 0.64082 0.80020
 N554 N 0.84366 0.64456 0.79111
 C555 C 0.85425 0.66479 0.80380
 C556 C 0.85421 0.71210 0.84726
 N557 N 0.84343 0.72660 0.86609
 C558 C 0.81928 0.71825 0.87003
 C559 C 0.77067 0.68101 0.86487
 N560 N 0.75753 0.66035 0.85653
 C561 C 0.77105 0.64926 0.83727
 H562 H 0.80660 0.62616 0.79360
 H563 H 0.87316 0.67256 0.80034
 H564 H 0.87342 0.71445 0.83988
 H565 H 0.80612 0.72606 0.88399
 H566 H 0.76508 0.69293 0.88090
 H567 H 0.76567 0.63202 0.82724
 C568 C 0.84758 1.15268 0.31519
 C569 C 0.82704 1.14990 0.33245
 C570 C 0.82082 1.16939 0.34932
 C571 C 0.83559 1.19214 0.34908
 C572 C 0.85544 1.19466 0.33146
 C573 C 0.86144 1.17500 0.31468
 C574 C 0.85766 1.13726 0.29630
 N575 N 0.87731 1.14997 0.28459
 C576 C 0.87959 1.17308 0.29567
 C577 C 0.86600 1.21833 0.33401
 N578 N 0.85373 1.23055 0.35315
 C579 C 0.83500 1.21489 0.36268
 C580 C 0.79933 1.16116 0.36285
 N581 N 0.79267 1.13741 0.35448
 C582 C 0.80966 1.13053 0.33608
 H583 H 0.85073 1.11855 0.29113
 H584 H 0.89338 1.18756 0.29008
 H585 H 0.88168 1.22619 0.32277
 H586 H 0.82171 1.21987 0.37783
 H587 H 0.78933 1.17180 0.37748
 H588 H 0.80913 1.11272 0.32569
 C589 C 0.64350 0.36917 0.34880
 C590 C 0.66338 0.36985 0.36757
 C591 C 0.66288 0.35286 0.38832
 C592 C 0.64294 0.33538 0.39091
 C593 C 0.62343 0.33466 0.37272
 C594 C 0.62367 0.35171 0.35158
 C595 C 0.63942 0.38178 0.32539
 N596 N 0.61760 0.37237 0.31416
 C597 C 0.60797 0.35407 0.33016
 C598 C 0.60829 0.31391 0.37880
 N599 N 0.61845 0.30222 0.40024
 C600 C 0.63954 0.31534 0.40775
 C601 C 0.68505 0.35573 0.40229
 N602 N 0.69913 0.37433 0.39101
 C603 C 0.68620 0.38323 0.36967
 H604 H 0.65173 0.39635 0.31721
 H605 H 0.59101 0.34277 0.32617
 H606 H 0.59215 0.30712 0.36748
 H607 H 0.65229 0.30982 0.42352
 H608 H 0.69085 0.34469 0.41923
 H609 H 0.69329 0.39750 0.35617
 C610 C 0.64916 0.85968 0.82441
 C611 C 0.67050 0.86383 0.84060
 C612 C 0.67551 0.84745 0.86129
 C613 C 0.65914 0.82650 0.86592
 C614 C 0.63819 0.82257 0.84979
 C615 C 0.63322 0.83913 0.82896
 C616 C 0.64007 0.87194 0.80246
 N617 N 0.61899 0.85921 0.79369
 C618 C 0.61480 0.83904 0.80970
 C619 C 0.62606 0.80078 0.85793
 N620 N 0.63894 0.79113 0.87884
 C621 C 0.65932 0.80665 0.88379
 C622 C 0.69786 0.85590 0.87298
 N623 N 0.70637 0.87692 0.85982
 C624 C 0.68979 0.88173 0.83997
 H625 H 0.64872 0.88839 0.79318
 H626 H 0.59960 0.82515 0.80727
 H627 H 0.60945 0.79236 0.84864
 H628 H 0.67338 0.80356 0.89907
 H629 H 0.70745 0.84691 0.88934
 H630 H 0.69181 0.89704 0.82587
 C631 C 0.19281 0.33642 0.79848
 C632 C 0.21526 0.33179 0.81253
 C633 C 0.21522 0.31439 0.83271
 C634 C 0.19283 0.30110 0.83887
 C635 C 0.17029 0.30562 0.82522
 C636 C 0.17023 0.32386 0.80473
 C637 C 0.18758 0.35399 0.77947
 N638 N 0.16231 0.35298 0.77371
 C639 C 0.15134 0.33455 0.78902
 C640 C 0.15169 0.29045 0.83689
 N641 N 0.16278 0.27714 0.85693
 C642 C 0.18777 0.28381 0.85822
 C643 C 0.23815 0.31685 0.84571
 N644 N 0.25186 0.33573 0.83403
 C645 C 0.23826 0.34458 0.81335
 H646 H 0.20117 0.36721 0.77091
 H647 H 0.13125 0.32951 0.78919
 H648 H 0.13179 0.28920 0.83110
 H649 H 0.20142 0.27642 0.87231
 H650 H 0.24349 0.30711 0.86359
 H651 H 0.24355 0.36095 0.80159
 C652 C 0.11761 0.89106 0.34752
 C653 C 0.14054 0.88876 0.36166
 C654 C 0.14551 0.86698 0.37622
 C655 C 0.12715 0.84714 0.37687
 C656 C 0.10438 0.84994 0.36314
 C657 C 0.09957 0.87190 0.34861
 C658 C 0.11001 0.90760 0.32804
 N659 N 0.08789 0.89856 0.31717
 C660 C 0.08111 0.87709 0.33021
 C661 C 0.09158 0.82723 0.36383
 N662 N 0.10558 0.81044 0.37780
 C663 C 0.12743 0.82229 0.38606
 C664 C 0.17023 0.86951 0.38584
 N665 N 0.18000 0.89227 0.37753
 C666 C 0.16196 0.90395 0.36270
 H667 H 0.12100 0.92379 0.32125
 H668 H 0.06533 0.86470 0.32485
 H669 H 0.07382 0.82280 0.35377
 H670 H 0.14303 0.81313 0.39637
 H671 H 0.18025 0.85568 0.39775
 H672 H 0.16444 0.92214 0.35298
 O673 O 0.97880 0.91214 0.87345
 O674 O 0.97866 0.88324 0.84261
 C675 C 0.96994 0.90364 0.85215
 C676 C 0.94905 0.91760 0.83883
 C677 C 0.94161 0.91194 0.81311
 H678 H 0.95168 0.89748 0.80251
 O679 O 1.02535 1.09222 0.87264
 O680 O 1.02553 1.12015 0.84033
 C681 C 1.03427 1.10010 0.85108
 C682 C 1.05546 1.08614 0.83881
 C683 C 1.06424 1.09331 0.81395
 H684 H 1.05455 1.10833 0.80343
 O685 O 0.87274 0.97530 0.90909
 O686 O 0.84229 0.97485 0.87914
 C687 C 0.85202 0.96591 0.89998
 C688 C 0.83995 0.94384 0.91353
 C689 C 0.81556 0.93436 0.90629
 H690 H 0.80475 0.94390 0.89108
 O691 O 1.12895 1.02405 0.91228
 O692 O 1.15946 1.02457 0.88279
 C693 C 1.14996 1.03285 0.90369
 C694 C 1.16332 1.05335 0.91766
 C695 C 1.18926 1.05789 0.91313
 H696 H 1.19959 1.04558 0.90013
 O697 O 0.91397 0.87103 0.97488
 O698 O 0.88526 0.84016 0.97601
 C699 C 0.90538 0.84993 0.96647
 C700 C 0.91863 0.83731 0.94479
 C701 C 0.90991 0.81396 0.93469
 H702 H 0.89381 0.80429 0.94362
 O703 O 1.09360 1.13382 0.97147
 O704 O 1.12323 1.16380 0.97029
 C705 C 1.10249 1.15434 0.96167
 C706 C 1.08876 1.16666 0.93958
 C707 C 1.09767 1.18948 0.92807
 H708 H 1.11425 1.19895 0.93630
 O709 O 0.90635 1.02611 0.87316
 O710 O 0.87593 1.02600 0.84314
 C711 C 0.89692 1.03477 0.85192
 C712 C 0.91061 1.05538 0.83774
 C713 C 0.90209 1.06433 0.81311
 H714 H 0.88542 1.05579 0.80403
 O715 O 1.09534 0.97539 0.87422
 O716 O 1.12544 0.97682 0.84433
 C717 C 1.10447 0.96792 0.85274
 C718 C 1.09062 0.94841 0.83772
 C719 C 1.09752 0.94268 0.81210
 H720 H 1.11304 0.95310 0.80293
 O721 O 1.02873 0.87863 0.91001
 O722 O 1.02884 0.84916 0.87974
 C723 C 1.03714 0.85791 0.90135
 C724 C 1.05664 0.84367 0.91649
 C725 C 1.06310 0.81914 0.90884
 H726 H 1.05357 0.81059 0.89221
 O727 O 0.97577 1.12884 0.90513
 O728 O 0.97514 1.15680 0.87284
 C729 C 0.96681 1.14888 0.89470
 C730 C 0.94625 1.16261 0.90819
 C731 C 0.93466 1.18420 0.89699
 H732 H 0.94091 1.19144 0.87824
 O733 O 0.87730 1.09735 0.97544
 O734 O 0.84709 1.12636 0.97489
 C735 C 0.85615 1.10563 0.96654
 C736 C 0.84221 1.09066 0.94642
 C737 C 0.81727 1.09716 0.93808
 H738 H 0.80792 1.11337 0.94647
 O739 O 1.13149 0.90648 0.98163
 O740 O 1.16064 0.87647 0.98066
 C741 C 1.15164 0.89730 0.97193
 C742 C 1.16413 0.91087 0.94988
 C743 C 1.18760 0.90255 0.93984
 H744 H 1.19704 0.88653 0.94895
 O745 O 0.97529 1.09228 0.87177
 O746 O 0.97562 1.12018 0.83944
 C747 C 0.96667 1.10013 0.84994
 C748 C 0.94543 1.08654 0.83684
 C749 C 0.93712 1.09471 0.81221
 H750 H 0.94721 1.11010 0.80246
 O751 O 1.02848 0.91020 0.87091
 O752 O 1.02853 0.88115 0.84023
 C753 C 1.03704 0.90172 0.84956
 C754 C 1.05750 0.91583 0.83603
 C755 C 1.06455 0.91006 0.81036
 H756 H 1.05406 0.89553 0.79994
 O757 O 1.12847 0.97409 0.91236
 O758 O 1.15841 0.97509 0.88234
 C759 C 1.14926 0.96571 0.90324
 C760 C 1.16278 0.94450 0.91661
 C761 C 1.18624 0.93603 0.90709
 H762 H 1.19471 0.94558 0.89042
 O763 O 0.87525 1.02518 0.91242
 O764 O 0.84490 1.02483 0.88233
 C765 C 0.85442 1.03370 0.90331
 C766 C 0.84142 1.05470 0.91655
 C767 C 0.81663 1.06115 0.90895
 H768 H 0.80684 1.04986 0.89432
 O769 O 0.91318 1.13162 0.97612
 O770 O 0.88318 1.16083 0.97554
 C771 C 0.90395 1.15201 0.96685
 C772 C 0.91656 1.16471 0.94463
 C773 C 0.90615 1.18689 0.93391
 H774 H 0.89017 1.19598 0.94329
 O775 O 1.09490 0.87361 0.98294
 O776 O 1.12357 0.84315 0.98207
 C777 C 1.10293 0.85302 0.97348
 C778 C 1.08856 0.84098 0.95171
 C779 C 1.09504 0.81659 0.94324
 H780 H 1.10986 0.80605 0.95338
 O781 O 1.09336 1.02449 0.87700
 O782 O 1.12373 1.02565 0.84740
 C783 C 1.10258 1.03365 0.85607
 C784 C 1.08881 1.05389 0.84156
 C785 C 1.09723 1.06137 0.81677
 H786 H 1.11348 1.05196 0.80826
 O787 O 0.91007 0.97704 0.87643
 O788 O 0.88009 0.97695 0.84590
 C789 C 0.90130 0.96891 0.85497
 C790 C 0.91574 0.94982 0.84044
 C791 C 0.90892 0.94432 0.81472
 H792 H 0.89334 0.95450 0.80538
 O793 O 1.02540 1.12976 0.90482
 O794 O 1.02485 1.15776 0.87257
 C795 C 1.03377 1.15010 0.89429
 C796 C 1.05471 1.16453 0.90688
 C797 C 1.06353 1.18741 0.89587
 H798 H 1.05408 1.19516 0.87870
 O799 O 0.97946 0.87462 0.90664
 O800 O 0.97960 0.84561 0.87590
 C801 C 0.97118 0.85382 0.89728
 C802 C 0.95116 0.83935 0.91108
 C803 C 0.94275 0.81583 0.90163
 H804 H 0.95173 0.80771 0.88469
 O805 O 1.12682 1.09764 0.97308
 O806 O 1.15713 1.12703 0.97231
 C807 C 1.14812 1.10580 0.96472
 C808 C 1.16246 1.08992 0.94639
 C809 C 1.18851 1.09450 0.94139
 H810 H 1.19826 1.11006 0.95098
 O811 O 0.87962 0.90616 0.97453
 O812 O 0.85068 0.87547 0.97583
 C813 C 0.85872 0.89652 0.96652
 C814 C 0.84368 0.90986 0.94613
 C815 C 0.81936 0.90096 0.93903
 H816 H 0.81144 0.88442 0.94889
 Cu817 Cu 1.00380 0.89691 0.89315
 Cu818 Cu 1.00402 0.86192 0.85657
 Cu819 Cu 1.00046 1.10795 0.89184
 Cu820 Cu 1.00027 1.14145 0.85296
 Cu821 Cu 0.89396 1.00100 0.89582
 Cu822 Cu 0.85766 1.00051 0.85977
 Cu823 Cu 1.10855 0.99926 0.89706
 Cu824 Cu 1.14489 1.00072 0.86136
 C825 C 0.93600 0.93664 0.85229
 H826 H 0.94123 0.94084 0.87227
 C827 C 0.92149 0.92539 0.80102
 C828 C 1.06776 1.06626 0.85241
 H829 H 1.06134 1.06079 0.87170
 C830 C 1.08528 1.08105 0.80286
 C831 C 0.85369 0.93141 0.93350
 H832 H 0.87257 0.93824 0.93892
 C833 C 0.80512 0.91285 0.91918
 C834 C 1.15007 1.06922 0.93448
 H835 H 1.12991 1.06573 0.93787
 C836 C 1.20200 1.07836 0.92473
 C837 C 0.93935 0.84971 0.93287
 H838 H 0.94580 0.86797 0.94005
 C839 C 0.92193 0.80322 0.91294
 C840 C 1.06718 1.15453 0.92888
 H841 H 1.06052 1.13671 0.93720
 C842 C 1.08514 1.19989 0.90596
 C843 C 0.93231 1.06667 0.84935
 H844 H 0.93868 1.06042 0.86849
 C845 C 0.91544 1.08412 0.80026
 C846 C 1.07055 0.93504 0.84939
 H847 H 1.06540 0.93925 0.86929
 C848 C 1.08467 0.92352 0.79821
 C849 C 1.06920 0.85440 0.93821
 H850 H 1.06439 0.87345 0.94416
 C851 C 1.08237 0.80572 0.92176
 C852 C 0.93702 1.15308 0.93206
 H853 H 0.94508 1.13589 0.94035
 C854 C 0.91466 1.19632 0.90998
 C855 C 0.85403 1.06932 0.93549
 H856 H 0.87334 1.06438 0.94129
 C857 C 0.80442 1.08227 0.91927
 C858 C 1.15197 0.93193 0.93815
 H859 H 1.13373 0.93823 0.94546
 C860 C 1.19875 0.91508 0.91831
 O861 O 1.03113 0.91636 1.13177
 O862 O 1.03096 0.88919 1.16476
 C863 C 1.03959 0.90933 1.15387
 C864 C 1.05997 0.92470 1.16653
 C865 C 1.06536 0.92222 1.19333
 H866 H 1.05448 0.90870 1.20480
 O867 O 0.98047 1.09084 1.12938
 O868 O 0.98040 1.11917 1.16072
 C869 C 0.97157 1.09885 1.15068
 C870 C 0.95004 1.08487 1.16319
 C871 C 0.94097 1.09206 1.18777
 H872 H 0.95059 1.10712 1.19829
 O873 O 0.87402 1.02508 1.08970
 O874 O 0.84426 1.02468 1.11990
 C875 C 0.85346 1.03379 1.09899
 C876 C 0.84084 1.05546 1.08590
 C877 C 0.81822 1.06572 1.09586
 H878 H 0.80912 1.05710 1.11268
 O879 O 1.13802 0.97945 1.09143
 O880 O 1.16782 0.98070 1.12202
 C881 C 1.15856 0.97082 1.10154
 C882 C 1.17114 0.94837 1.09008
 C883 C 1.19396 0.93884 1.10084
 H884 H 1.20317 0.94886 1.11675
 O885 O 1.09831 0.87195 1.03399
 O886 O 1.12703 0.84157 1.03376
 C887 C 1.10698 0.85122 1.04326
 C888 C 1.09370 0.83916 1.06587
 C889 C 1.10153 0.81575 1.07695
 H890 H 1.11739 0.80578 1.06848
 O891 O 0.91150 1.13186 1.02717
 O892 O 0.88194 1.16146 1.02694
 C893 C 0.90249 1.15225 1.03635
 C894 C 0.91600 1.16461 1.05862
 C895 C 0.90797 1.18809 1.06884
 H896 H 0.89192 1.19770 1.05988
 O897 O 0.90997 0.97621 1.12542
 O898 O 0.88012 0.97587 1.15559
 C899 C 0.90131 0.96803 1.14698
 C900 C 0.91599 0.94939 1.16245
 C901 C 0.90884 0.94394 1.18811
 H902 H 0.89268 0.95366 1.19646
 O903 O 1.10284 1.03041 1.12461
 O904 O 1.13327 1.03164 1.15461
 C905 C 1.11206 1.03951 1.14562
 C906 C 1.09816 1.05942 1.15993
 C907 C 1.10768 1.06791 1.18401
 H908 H 1.12496 1.05961 1.19206
 O909 O 0.98267 0.87889 1.09731
 O910 O 0.98229 0.85066 1.12936
 C911 C 0.97419 0.85837 1.10716
 C912 C 0.95473 0.84356 1.09246
 C913 C 0.94890 0.81835 1.09945
 H914 H 0.95876 0.80953 1.11581
 O915 O 1.02856 1.12839 1.09392
 O916 O 1.02901 1.15712 1.12491
 C917 C 1.03701 1.14913 1.10312
 C918 C 1.05661 1.16369 1.08834
 C919 C 1.06429 1.18819 1.09599
 H920 H 1.05514 1.19688 1.11245
 O921 O 0.87928 0.90601 1.02495
 O922 O 0.85067 0.87500 1.02619
 C923 C 0.85876 0.89644 1.03399
 C924 C 0.84414 0.91027 1.05379
 C925 C 0.81956 0.90203 1.06057
 H926 H 0.81118 0.88574 1.05084
 O927 O 1.12914 1.09985 1.02303
 O928 O 1.15850 1.13017 1.02224
 C929 C 1.15025 1.10912 1.03117
 C930 C 1.16552 1.09518 1.05095
 C931 C 1.19035 1.10334 1.05726
 H932 H 1.19834 1.11986 1.04741
 O933 O 1.03103 1.09349 1.12971
 O934 O 1.03109 1.12184 1.16103
 C935 C 1.04044 1.10213 1.15084
 C936 C 1.06309 1.08967 1.16302
 C937 C 1.07308 1.09800 1.18717
 H938 H 1.06326 1.11278 1.19748
 O939 O 0.98115 0.91322 1.13297
 O940 O 0.98092 0.88549 1.16546
 C941 C 0.97206 0.90526 1.15453
 C942 C 0.95059 0.91884 1.16657
 C943 C 0.94292 0.91328 1.19231
 H944 H 0.95344 0.89949 1.20380
 O945 O 1.13697 1.02961 1.08799
 O946 O 1.16724 1.03082 1.11813
 C947 C 1.15764 1.03905 1.09686
 C948 C 1.16974 1.06054 1.08264
 C949 C 1.19462 1.06905 1.08887
 H950 H 1.20532 1.05921 1.10391
 O951 O 0.87434 0.97509 1.08998
 O952 O 0.84440 0.97464 1.11999
 C953 C 0.85373 0.96587 1.09917
 C954 C 0.84123 0.94420 1.08573
 C955 C 0.81661 0.93540 1.09266
 H956 H 0.80603 0.94520 1.10750
 O957 O 1.09195 1.13222 1.02251
 O958 O 1.12125 1.16256 1.02179
 C959 C 1.10078 1.15300 1.03111
 C960 C 1.08744 1.16561 1.05272
 C961 C 1.09473 1.19001 1.06051
 H962 H 1.10965 1.20006 1.04999
 O963 O 0.91687 0.87411 1.02582
 O964 O 0.88836 0.84303 1.02693
 C965 C 0.90888 0.85327 1.03542
 C966 C 0.92326 0.84105 1.05702
 C967 C 0.91791 0.81582 1.06412
 H968 H 0.90424 0.80516 1.05261
 O969 O 1.10128 0.98138 1.12481
 O970 O 1.13077 0.98289 1.15580
 C971 C 1.10963 0.97427 1.14693
 C972 C 1.09441 0.95617 1.16272
 C973 C 1.09945 0.95351 1.18940
 H974 H 1.11461 0.96470 1.19828
 O975 O 0.91011 1.02508 1.12446
 O976 O 0.88044 1.02464 1.15480
 C977 C 0.90146 1.03322 1.14584
 C978 C 0.91579 1.05294 1.16046
 C979 C 0.90742 1.06012 1.18516
 H980 H 0.89084 1.05084 1.19366
 O981 O 0.97896 1.12786 1.09572
 O982 O 0.97938 1.15628 1.12701
 C983 C 0.97030 1.14809 1.10561
 C984 C 0.94925 1.16211 1.09241
 C985 C 0.94109 1.18542 1.10218
 H986 H 0.95075 1.19333 1.11905
 O987 O 1.03221 0.87743 1.10115
 O988 O 1.03194 0.85002 1.13392
 C989 C 1.04080 0.85747 1.11220
 C990 C 1.06141 0.84287 1.09981
 C991 C 1.06951 0.81976 1.11068
 H992 H 1.06026 0.81238 1.12804
 O993 O 1.13359 0.90681 1.03212
 O994 O 1.16280 0.87687 1.03176
 C995 C 1.15468 0.89788 1.04038
 C996 C 1.16927 0.91220 1.06054
 C997 C 1.19219 0.90285 1.07160
 H998 H 1.19957 0.88496 1.06492
 O999 O 0.87777 1.09570 1.02550
 O1000 O 0.84783 1.12501 1.02516
 C1001 C 0.85663 1.10405 1.03360
 C1002 C 0.84245 1.08966 1.05358
 C1003 C 0.81938 1.09904 1.06300
 H1004 H 0.81129 1.11624 1.05471
 Cu1005 Cu 1.00686 0.89928 1.11269
 Cu1006 Cu 1.00647 0.86614 1.15163
 Cu1007 Cu 1.00475 1.10717 1.10925
 Cu1008 Cu 1.00503 1.14128 1.14668
 Cu1009 Cu 0.90046 0.89229 0.99992
 Cu1010 Cu 0.86595 0.85524 1.00142
 Cu1011 Cu 1.11166 0.89259 1.00792
 Cu1012 Cu 1.14631 0.85638 1.00700
 Cu1013 Cu 0.89809 1.11139 1.00108
 Cu1014 Cu 0.86214 1.14656 1.00061
 Cu1015 Cu 1.10727 1.11308 0.99757
 Cu1016 Cu 1.14279 1.14913 0.99647
 Cu1017 Cu 0.89485 1.00033 1.10405
 Cu1018 Cu 0.85916 0.99990 1.14049
 Cu1019 Cu 1.11706 1.00517 1.10389
 Cu1020 Cu 1.15295 1.00649 1.14050
 C1021 C 1.07444 0.94196 1.15147
 H1022 H 1.07053 0.94395 1.13078
 C1023 C 1.08488 0.93702 1.20496
 C1024 C 0.93732 1.06519 1.14972
 H1025 H 0.94373 1.05986 1.13053
 C1026 C 0.91954 1.07977 1.19875
 C1027 C 0.85277 1.06755 1.06469
 H1028 H 0.87070 1.06033 1.05748
 C1029 C 0.80757 1.08756 1.08440
 C1030 C 1.15923 0.93511 1.06975
 H1031 H 1.14147 0.94227 1.06166
 C1032 C 1.20477 0.91619 1.09184
 C1033 C 1.07342 0.85225 1.07738
 H1034 H 1.06731 0.87028 1.06924
 C1035 C 1.08924 0.80583 1.09942
 C1036 C 0.93676 1.15201 1.07053
 H1037 H 0.94292 1.13388 1.06312
 C1038 C 0.92063 1.19871 1.09071
 C1039 C 0.93705 0.93701 1.15187
 H1040 H 0.94257 0.94114 1.13196
 C1041 C 0.92198 0.92595 1.20317
 C1042 C 1.07576 1.07027 1.14968
 H1043 H 1.06848 1.06394 1.13100
 C1044 C 1.09555 1.08720 1.19779
 C1045 C 0.94185 0.85472 1.07111
 H1046 H 0.94594 0.87428 1.06575
 C1047 C 0.93049 0.80434 1.08543
 C1048 C 1.06821 1.15268 1.06659
 H1049 H 1.06272 1.13365 1.06083
 C1050 C 1.08346 1.20142 1.08212
 C1051 C 0.85470 0.93151 1.06620
 H1052 H 0.87378 0.93781 1.06103
 C1053 C 0.80564 0.91427 1.07992
 C1054 C 1.15550 1.07361 1.06348
 H1055 H 1.13623 1.06738 1.05879
 C1056 C 1.20521 1.09038 1.07591
 O1057 O 0.96321 0.42115 0.37326
 O1058 O 0.96080 0.39194 0.34280
 C1059 C 0.95394 0.41311 0.35193
 C1060 C 0.93441 0.42817 0.33806
 C1061 C 0.92613 0.42128 0.31307
 H1062 H 0.93558 0.40577 0.30361
 O1063 O 1.02837 0.60138 0.37432
 O1064 O 1.02926 0.63234 0.34509
 C1065 C 1.03728 0.61100 0.35345
 C1066 C 1.05743 0.59753 0.33886
 C1067 C 1.06629 0.60748 0.31516
 H1068 H 1.05778 0.62468 0.30736
 O1069 O 0.86900 0.49300 0.41123
 O1070 O 0.83849 0.49622 0.38144
 C1071 C 0.84722 0.48649 0.40242
 C1072 C 0.83215 0.46701 0.41641
 C1073 C 0.80753 0.46048 0.40773
 H1074 H 0.79914 0.47039 0.39117
 O1075 O 1.12506 0.52826 0.40636
 O1076 O 1.15480 0.52703 0.37623
 C1077 C 1.14640 0.53590 0.39750
 C1078 C 1.16086 0.55574 0.41211
 C1079 C 1.18530 0.56435 0.40424
 H1080 H 1.19426 0.55585 0.38756
 O1081 O 0.89651 0.39016 0.47932
 O1082 O 0.86403 0.36319 0.48036
 C1083 C 0.88527 0.37040 0.47084
 C1084 C 0.89663 0.35606 0.44921
 C1085 C 0.88637 0.33249 0.44191
 H1086 H 0.87070 0.32420 0.45287
 O1087 O 1.09469 0.62718 0.47974
 O1088 O 1.12640 0.65503 0.48147
 C1089 C 1.10505 0.64782 0.47211
 C1090 C 1.09239 0.66348 0.45191
 C1091 C 1.10109 0.68818 0.44658
 H1092 H 1.11687 0.69601 0.45783
 O1093 O 0.90775 0.53993 0.37604
 O1094 O 0.87755 0.54281 0.34585
 C1095 C 0.89935 0.54926 0.35482
 C1096 C 0.91507 0.56770 0.34025
 C1097 C 0.91048 0.57167 0.31372
 H1098 H 0.89555 0.56085 0.30397
 O1099 O 1.08539 0.48179 0.37134
 O1100 O 1.11461 0.47971 0.34074
 C1101 C 1.09340 0.47222 0.35037
 C1102 C 1.07829 0.45156 0.33775
 C1103 C 1.08618 0.44131 0.31393
 H1104 H 1.10257 0.44953 0.30418
 O1105 O 1.00921 0.38253 0.40988
 O1106 O 1.00666 0.35323 0.37952
 C1107 C 1.01599 0.36133 0.40082
 C1108 C 1.03578 0.34641 0.41447
 C1109 C 1.04320 0.32293 0.40453
 H1110 H 1.03330 0.31501 0.38780
 O1111 O 0.97982 0.63617 0.41139
 O1112 O 0.98050 0.66689 0.38189
 C1113 C 0.97183 0.65748 0.40300
 C1114 C 0.95212 0.67140 0.41775
 C1115 C 0.94478 0.69591 0.40988
 H1116 H 0.95397 0.70484 0.39325
 O1117 O 0.87879 0.60501 0.48295
 O1118 O 0.85115 0.63640 0.48433
 C1119 C 0.85850 0.61557 0.47469
 C1120 C 0.84367 0.60380 0.45325
 C1121 C 0.81948 0.61308 0.44619
 H1122 H 0.81132 0.62860 0.45700
 O1123 O 1.11570 0.41061 0.47518
 O1124 O 1.14299 0.37895 0.47418
 C1125 C 1.13542 0.40039 0.46559
 C1126 C 1.14970 0.41313 0.44402
 C1127 C 1.17260 0.40262 0.43532
 H1128 H 1.17993 0.38574 0.44496
 O1129 O 0.97863 0.60342 0.37393
 O1130 O 0.97931 0.63372 0.34396
 C1131 C 0.97019 0.61292 0.35276
 C1132 C 0.94935 0.59938 0.33885
 C1133 C 0.94409 0.60369 0.31218
 H1134 H 0.95547 0.61729 0.30126
 O1135 O 1.01296 0.41759 0.37419
 O1136 O 1.01056 0.38839 0.34374
 C1137 C 1.02105 0.40828 0.35305
 C1138 C 1.04311 0.42037 0.33931
 C1139 C 1.05136 0.41063 0.31546
 H1140 H 1.04121 0.39471 0.30686
 O1141 O 1.12206 0.47870 0.40528
 O1142 O 1.15171 0.47689 0.37510
 C1143 C 1.14203 0.46847 0.39619
 C1144 C 1.15339 0.44613 0.41009
 C1145 C 1.17642 0.43503 0.40163
 H1146 H 1.18635 0.44322 0.38512
 O1147 O 0.87268 0.54208 0.41127
 O1148 O 0.84223 0.54547 0.38145
 C1149 C 0.85240 0.55253 0.40279
 C1150 C 0.84076 0.57319 0.41790
 C1151 C 0.81651 0.58261 0.41117
 H1152 H 0.80609 0.57387 0.39531
 O1153 O 0.91515 0.63855 0.48308
 O1154 O 0.88772 0.67008 0.48461
 C1155 C 0.90735 0.66000 0.47477
 C1156 C 0.92077 0.67286 0.45287
 C1157 C 0.91354 0.69735 0.44448
 H1158 H 0.89889 0.70734 0.45494
 O1159 O 1.07862 0.37726 0.47675
 O1160 O 1.10600 0.34566 0.47562
 C1161 C 1.08561 0.35613 0.46754
 C1162 C 1.07031 0.34404 0.44665
 C1163 C 1.07789 0.32082 0.43599
 H1164 H 1.09439 0.31103 0.44393
 O1165 O 1.09109 0.53146 0.36951
 O1166 O 1.12028 0.53008 0.33886
 C1167 C 1.10049 0.54024 0.34841
 C1168 C 1.08846 0.56302 0.33582
 C1169 C 1.09724 0.57349 0.31191
 H1170 H 1.11270 0.56432 0.30190
 O1171 O 0.90158 0.49103 0.37368
 O1172 O 0.87124 0.49397 0.34370
 C1173 C 0.89144 0.48359 0.35243
 C1174 C 0.90333 0.46239 0.33826
 C1175 C 0.89487 0.45507 0.31330
 H1176 H 0.87946 0.46535 0.30383
 O1177 O 1.02952 0.63529 0.41050
 O1178 O 1.03053 0.66653 0.38159
 C1179 C 1.03894 0.65619 0.40243
 C1180 C 1.06020 0.66785 0.41752
 C1181 C 1.06916 0.69266 0.41227
 H1182 H 1.05969 0.70383 0.39734
 O1183 O 0.95954 0.38558 0.40827
 O1184 O 0.95692 0.35622 0.37800
 C1185 C 0.94897 0.36567 0.39913
 C1186 C 0.92714 0.35383 0.41340
 C1187 C 0.91601 0.33048 0.40578
 H1188 H 0.92349 0.32047 0.38919
 O1189 O 1.12760 0.59070 0.47806
 O1190 O 1.15923 0.61859 0.47988
 C1191 C 1.14896 0.59903 0.46979
 C1192 C 1.16180 0.58626 0.44786
 C1193 C 1.18615 0.59427 0.43998
 H1194 H 1.19584 0.60926 0.45063
 O1195 O 0.86380 0.42676 0.47999
 O1196 O 0.83127 0.39987 0.48083
 C1197 C 0.84199 0.41962 0.47152
 C1198 C 0.82948 0.43412 0.45012
 C1199 C 0.80488 0.42753 0.44095
 H1200 H 0.79435 0.41239 0.45054
 Cu1201 Cu 0.98639 0.40462 0.39446
 Cu1202 Cu 0.98357 0.36953 0.35792
 Cu1203 Cu 1.00397 0.61601 0.39545
 Cu1204 Cu 1.00492 0.65298 0.36017
 Cu1205 Cu 0.89082 0.51617 0.39603
 Cu1206 Cu 0.85427 0.52007 0.36011
 Cu1207 Cu 1.10305 0.50530 0.39102
 Cu1208 Cu 1.13820 0.50325 0.35463
 C1209 C 0.92315 0.44881 0.35035
 H1210 H 0.92947 0.45395 0.36977
 C1211 C 0.90613 0.43441 0.30053
 C1212 C 1.06844 0.57523 0.34886
 H1213 H 1.06172 0.56769 0.36731
 C1214 C 1.08606 0.59587 0.30138
 C1215 C 0.84285 0.45397 0.43775
 H1216 H 0.86199 0.45885 0.44432
 C1217 C 0.79390 0.44060 0.41955
 C1218 C 1.14944 0.56685 0.43399
 H1219 H 1.13053 0.56076 0.43998
 C1220 C 1.19807 0.58372 0.41825
 C1221 C 0.91715 0.36638 0.43510
 H1222 H 0.92509 0.38458 0.44081
 C1223 C 0.89566 0.31968 0.42020
 C1224 C 1.07192 0.65356 0.43745
 H1225 H 1.06542 0.63434 0.44146
 C1226 C 1.08977 0.70296 0.42686
 C1227 C 0.93470 0.58131 0.35264
 H1228 H 0.93827 0.57809 0.37324
 C1229 C 0.92474 0.58948 0.29954
 C1230 C 1.05664 0.44098 0.35024
 H1231 H 1.05063 0.44843 0.36880
 C1232 C 1.07291 0.42069 0.30276
 C1233 C 1.04911 0.35664 0.43583
 H1234 H 1.04363 0.37496 0.44334
 C1235 C 1.06452 0.31041 0.41471
 C1236 C 0.94013 0.66011 0.43941
 H1237 H 0.94552 0.64112 0.44549
 C1238 C 0.92546 0.70899 0.42291
 C1239 C 0.85409 0.58378 0.43907
 H1240 H 0.87291 0.57676 0.44421
 C1241 C 0.80575 0.60274 0.42515
 C1242 C 1.14036 0.43505 0.43144
 H1243 H 1.12253 0.44310 0.43790
 C1244 C 1.18619 0.41318 0.41430
 O1245 O 1.01748 0.41157 0.63660
 O1246 O 1.01568 0.38039 0.66553
 C1247 C 1.02600 0.40079 0.65708
 C1248 C 1.04893 0.41129 0.67043
 C1249 C 1.05877 0.39924 0.69277
 H1250 H 1.04865 0.38314 0.70118
 O1251 O 0.98279 0.59391 0.64527
 O1252 O 0.98664 0.62410 0.67456
 C1253 C 0.97579 0.60406 0.66638
 C1254 C 0.95379 0.59313 0.68055
 C1255 C 0.94458 0.60446 0.70320
 H1256 H 0.95486 0.62039 0.71162
 O1257 O 0.87906 0.53964 0.60595
 O1258 O 0.84821 0.54018 0.63501
 C1259 C 0.85822 0.54865 0.61414
 C1260 C 0.84517 0.56889 0.59917
 C1261 C 0.81996 0.57516 0.60512
 H1262 H 0.81017 0.56505 0.62066
 O1263 O 1.12500 0.47008 0.59954
 O1264 O 1.15665 0.46746 0.62807
 C1265 C 1.14593 0.46022 0.60711
 C1266 C 1.15758 0.43996 0.59138
 C1267 C 1.18197 0.43028 0.59757
 H1268 H 1.19269 0.43827 0.61366
 O1269 O 1.08052 0.37696 0.52780
 O1270 O 1.10796 0.34543 0.52653
 C1271 C 1.08838 0.35564 0.53641
 C1272 C 1.07501 0.34285 0.55851
 C1273 C 1.08304 0.31882 0.56765
 H1274 H 1.09839 0.30934 0.55777
 O1275 O 0.91789 0.63484 0.53420
 O1276 O 0.89026 0.66622 0.53567
 C1277 C 0.91045 0.65544 0.54412
 C1278 C 0.92470 0.66668 0.56631
 C1279 C 0.91796 0.69078 0.57520
 H1280 H 0.90379 0.70149 0.56440
 O1281 O 0.90912 0.48670 0.64130
 O1282 O 0.87850 0.48751 0.67057
 C1283 C 0.89868 0.47765 0.66163
 C1284 C 0.90931 0.45465 0.67425
 C1285 C 0.89759 0.44433 0.69641
 H1286 H 0.88182 0.45421 0.70529
 O1287 O 1.09502 0.52041 0.63765
 O1288 O 1.12648 0.51780 0.66638
 C1289 C 1.10591 0.52807 0.65838
 C1290 C 1.09503 0.54969 0.67280
 C1291 C 1.10689 0.55837 0.69567
 H1292 H 1.12342 0.54844 0.70340
 O1293 O 0.96494 0.38174 0.59969
 O1294 O 0.96337 0.35019 0.62822
 C1295 C 0.95505 0.36099 0.60762
 C1296 C 0.93325 0.34974 0.59304
 C1297 C 0.92366 0.32551 0.59969
 H1298 H 0.93314 0.31463 0.61485
 O1299 O 1.03208 0.62384 0.60476
 O1300 O 1.03550 0.65438 0.63378
 C1301 C 1.04187 0.64465 0.61226
 C1302 C 1.06049 0.65812 0.59573
 C1303 C 1.06475 0.68405 0.59947
 H1304 H 1.05416 0.69393 0.61431
 O1305 O 0.86723 0.42798 0.53086
 O1306 O 0.83450 0.40130 0.53148
 C1307 C 0.84580 0.42105 0.54002
 C1308 C 0.83394 0.43568 0.56115
 C1309 C 0.80816 0.43148 0.56721
 H1310 H 0.79708 0.41893 0.55494
 O1311 O 1.12666 0.58694 0.52897
 O1312 O 1.15811 0.61507 0.53038
 C1313 C 1.14809 0.59426 0.53802
 C1314 C 1.16191 0.57875 0.55758
 C1315 C 1.18785 0.58359 0.56192
 H1316 H 1.19753 0.59801 0.55033
 O1317 O 1.03260 0.59046 0.64230
 O1318 O 1.03675 0.62068 0.67149
 C1319 C 1.04352 0.59935 0.66250
 C1320 C 1.06473 0.58481 0.67497
 C1321 C 1.07700 0.59332 0.69791
 H1322 H 1.07053 0.61059 0.70688
 O1323 O 0.96739 0.41357 0.63796
 O1324 O 0.96530 0.38223 0.66664
 C1325 C 0.95788 0.40387 0.65856
 C1326 C 0.93755 0.41785 0.67255
 C1327 C 0.92492 0.40735 0.69445
 H1328 H 0.93065 0.38899 0.70205
 O1329 O 1.12723 0.51927 0.59976
 O1330 O 1.15915 0.51694 0.62802
 C1331 C 1.14923 0.52649 0.60743
 C1332 C 1.16295 0.54633 0.59205
 C1333 C 1.18902 0.55209 0.59666
 H1334 H 1.19954 0.54185 0.61161
 O1335 O 0.87446 0.49074 0.60522
 O1336 O 0.84375 0.49145 0.63445
 C1337 C 0.85260 0.48343 0.61308
 C1338 C 0.83731 0.46550 0.59717
 C1339 C 0.81160 0.46055 0.60331
 H1340 H 0.80298 0.46990 0.61976
 O1341 O 1.09518 0.62498 0.53050
 O1342 O 1.12655 0.65324 0.53179
 C1343 C 1.10516 0.64502 0.53994
 C1344 C 1.09166 0.65870 0.56068
 C1345 C 1.09618 0.68477 0.56506
 H1346 H 1.10961 0.69513 0.55294
 O1347 O 0.89746 0.38906 0.53019
 O1348 O 0.86486 0.36224 0.53107
 C1349 C 0.88681 0.36911 0.53924
 C1350 C 0.89990 0.35388 0.55969
 C1351 C 0.89060 0.32969 0.56658
 H1352 H 0.87407 0.32197 0.55643
 O1353 O 1.09127 0.47088 0.63638
 O1354 O 1.12260 0.46775 0.66519
 C1355 C 1.10070 0.46069 0.65678
 C1356 C 1.08603 0.44004 0.67013
 C1357 C 1.09580 0.42737 0.69235
 H1358 H 1.11385 0.43354 0.70068
 O1359 O 0.91103 0.53614 0.64479
 O1360 O 0.88049 0.53727 0.67409
 C1361 C 0.90209 0.54480 0.66589
 C1362 C 0.91697 0.56441 0.68014
 C1363 C 0.90770 0.57611 0.70274
 H1364 H 0.88986 0.56952 0.71104
 O1365 O 0.98283 0.62693 0.60755
 O1366 O 0.98632 0.65727 0.63674
 C1367 C 0.97607 0.64843 0.61609
 C1368 C 0.95607 0.66316 0.60187
 C1369 C 0.94869 0.68728 0.61060
 H1370 H 0.95771 0.69527 0.62778
 O1371 O 1.01486 0.37890 0.59936
 O1372 O 1.01334 0.34759 0.62815
 C1373 C 1.02253 0.35734 0.60741
 C1374 C 1.04281 0.34375 0.59296
 C1375 C 1.05109 0.31976 0.60159
 H1376 H 1.04204 0.31093 0.61835
 O1377 O 1.11836 0.40900 0.52628
 O1378 O 1.14581 0.37745 0.52486
 C1379 C 1.13877 0.39845 0.53429
 C1380 C 1.15409 0.41024 0.55530
 C1381 C 1.17844 0.40097 0.56155
 H1382 H 1.18641 0.38576 0.55014
 O1383 O 0.87874 0.60456 0.53388
 O1384 O 0.85094 0.63584 0.53510
 C1385 C 0.85875 0.61443 0.54333
 C1386 C 0.84499 0.60101 0.56455
 C1387 C 0.81973 0.60744 0.57112
 H1388 H 0.80983 0.62203 0.56008
 Cu1389 Cu 0.99122 0.39961 0.61562
 Cu1390 Cu 0.98927 0.36200 0.65004
 Cu1391 Cu 1.00722 0.60556 0.62226
 Cu1392 Cu 1.01181 0.64206 0.65718
 Cu1393 Cu 0.88450 0.41120 0.50500
 Cu1394 Cu 0.84540 0.37896 0.50616
 Cu1395 Cu 1.09552 0.39660 0.50159
 Cu1396 Cu 1.12841 0.35874 0.50011
 Cu1397 Cu 0.90040 0.61762 0.50837
 Cu1398 Cu 0.86738 0.65537 0.51006
 Cu1399 Cu 1.10781 0.60466 0.50421
 Cu1400 Cu 1.14584 0.63818 0.50616
 Cu1401 Cu 0.89667 0.51330 0.62156
 Cu1402 Cu 0.85975 0.51422 0.65661
 Cu1403 Cu 1.10646 0.49534 0.61557
 Cu1404 Cu 1.14427 0.49225 0.64993
 C1405 C 1.06250 0.43184 0.65948
 H1406 H 1.05509 0.44096 0.64201
 C1407 C 1.08229 0.40671 0.70361
 C1408 C 0.94018 0.57287 0.66960
 H1409 H 0.94719 0.56432 0.65195
 C1410 C 0.92143 0.59639 0.71431
 C1411 C 0.85748 0.58167 0.57868
 H1412 H 0.87700 0.57682 0.57398
 C1413 C 0.80706 0.59427 0.59133
 C1414 C 1.14392 0.42988 0.57013
 H1415 H 1.12498 0.43689 0.56550
 C1416 C 1.19250 0.41066 0.58265
 C1417 C 1.05482 0.35507 0.57128
 H1418 H 1.04878 0.37369 0.56464
 C1419 C 1.07123 0.30715 0.58931
 C1420 C 0.94389 0.65303 0.57963
 H1421 H 0.94900 0.63431 0.57294
 C1422 C 0.92943 0.70107 0.59759
 C1423 C 0.92952 0.44156 0.66275
 H1424 H 0.93846 0.44950 0.64550
 C1425 C 0.90475 0.42060 0.70635
 C1426 C 1.07378 0.56281 0.66283
 H1427 H 1.06479 0.55634 0.64497
 C1428 C 1.09812 0.58002 0.70847
 C1429 C 0.92135 0.36367 0.57288
 H1430 H 0.92843 0.38246 0.56785
 C1431 C 0.90221 0.31537 0.58655
 C1432 C 1.07367 0.64558 0.57606
 H1433 H 1.07025 0.62550 0.57302
 C1434 C 1.08235 0.69756 0.58432
 C1435 C 0.84835 0.45298 0.57599
 H1436 H 0.86831 0.45624 0.57144
 C1437 C 0.79690 0.44342 0.58862
 C1438 C 1.14960 0.55984 0.57238
 H1439 H 1.12946 0.55607 0.56894
 C1440 C 1.20151 0.57071 0.58133
 O1441 O 0.47048 0.91715 0.36334
 O1442 O 0.47093 0.88920 0.33164
 C1443 C 0.46141 0.90871 0.34204
 C1444 C 0.43871 0.92104 0.33021
 C1445 C 0.42982 0.91454 0.30513
 H1446 H 0.44051 0.90128 0.29354
 O1447 O 0.51401 1.09039 0.36901
 O1448 O 0.51112 1.12028 0.33878
 C1449 C 0.52197 1.10067 0.34799
 C1450 C 0.54492 1.09083 0.33474
 C1451 C 0.55408 1.10320 0.31226
 H1452 H 0.54346 1.11887 0.30376
 O1453 O 0.35881 0.96776 0.40912
 O1454 O 0.32874 0.96689 0.37877
 C1455 C 0.33854 0.95796 0.39964
 C1456 C 0.32704 0.93554 0.41296
 C1457 C 0.30299 0.92551 0.40559
 H1458 H 0.29237 0.93458 0.38996
 O1459 O 0.62742 1.03573 0.40315
 O1460 O 0.65661 1.03773 0.37248
 C1461 C 0.64744 1.04599 0.39362
 C1462 C 0.65913 1.06839 0.40700
 C1463 C 0.68098 1.08130 0.39720
 H1464 H 0.69025 1.07432 0.37994
 O1465 O 0.40851 0.86996 0.47130
 O1466 O 0.38089 0.83812 0.47076
 C1467 C 0.40052 0.84939 0.46143
 C1468 C 0.41368 0.83914 0.43829
 C1469 C 0.40654 0.81543 0.42805
 H1470 H 0.39230 0.80411 0.43808
 O1471 O 0.58117 1.12869 0.47416
 O1472 O 0.60765 1.16149 0.47418
 C1473 C 0.58747 1.15047 0.46565
 C1474 C 0.57138 1.16272 0.44528
 C1475 C 0.57523 1.18831 0.43850
 H1476 H 0.58915 1.19915 0.44948
 O1477 O 0.39202 1.02049 0.37632
 O1478 O 0.36248 1.01973 0.34534
 C1479 C 0.38324 1.02873 0.35475
 C1480 C 0.39765 1.04843 0.34010
 C1481 C 0.39082 1.05418 0.31426
 H1482 H 0.37478 1.04438 0.30523
 O1483 O 0.59222 0.98486 0.36871
 O1484 O 0.62124 0.98652 0.33782
 C1485 C 0.60078 0.97698 0.34716
 C1486 C 0.58706 0.95628 0.33299
 C1487 C 0.59659 0.94747 0.30925
 H1488 H 0.61363 0.95622 0.30115
 O1489 O 0.52126 0.88279 0.39824
 O1490 O 0.52147 0.85438 0.36690
 C1491 C 0.52993 0.86252 0.38858
 C1492 C 0.55022 0.84842 0.40252
 C1493 C 0.55683 0.82398 0.39456
 H1494 H 0.54662 0.81527 0.37844
 O1495 O 0.46204 1.12137 0.40516
 O1496 O 0.45983 1.15094 0.37448
 C1497 C 0.45222 1.14165 0.39596
 C1498 C 0.43159 1.15459 0.41009
 C1499 C 0.42437 1.17928 0.40284
 H1500 H 0.43440 1.18904 0.38723
 O1501 O 0.35734 1.08594 0.47371
 O1502 O 0.32795 1.11571 0.47428
 C1503 C 0.33633 1.09501 0.46531
 C1504 C 0.32223 1.08125 0.44452
 C1505 C 0.29932 1.09054 0.43346
 H1506 H 0.29101 1.10770 0.44102
 O1507 O 0.62424 0.91482 0.46839
 O1508 O 0.65373 0.88513 0.46715
 C1509 C 0.64510 0.90645 0.45947
 C1510 C 0.65966 0.92154 0.44003
 C1511 C 0.68493 0.91515 0.43456
 H1512 H 0.69378 0.89947 0.44501
 O1513 O 0.46355 1.08531 0.37095
 O1514 O 0.46111 1.11495 0.34039
 C1515 C 0.45362 1.09384 0.35002
 C1516 C 0.43260 1.07946 0.33727
 C1517 C 0.42548 1.08487 0.31136
 H1518 H 0.43582 1.09938 0.30062
 O1519 O 0.52127 0.91902 0.36382
 O1520 O 0.52166 0.89074 0.33244
 C1521 C 0.53059 0.91087 0.34269
 C1522 C 0.55273 0.92431 0.33047
 C1523 C 0.56282 0.91576 0.30671
 H1524 H 0.55346 0.90022 0.29675
 O1525 O 0.62842 0.98567 0.40351
 O1526 O 0.65790 0.98706 0.37308
 C1527 C 0.64916 0.97749 0.39411
 C1528 C 0.66224 0.95607 0.40777
 C1529 C 0.68755 0.94883 0.40197
 H1530 H 0.69837 0.95934 0.38748
 O1531 O 0.35595 1.01757 0.41027
 O1532 O 0.32618 1.01672 0.37960
 C1533 C 0.33495 1.02553 0.40078
 C1534 C 0.32136 1.04630 0.41364
 C1535 C 0.29833 1.05538 0.40321
 H1536 H 0.28946 1.04581 0.38681
 O1537 O 0.39367 1.11959 0.47272
 O1538 O 0.36457 1.14966 0.47386
 C1539 C 0.38489 1.14058 0.46439
 C1540 C 0.39844 1.15423 0.44327
 C1541 C 0.39123 1.17891 0.43557
 H1542 H 0.37597 1.18832 0.44570
 O1543 O 0.58931 0.87931 0.46727
 O1544 O 0.61866 0.84952 0.46575
 C1545 C 0.59780 0.85897 0.45754
 C1546 C 0.58343 0.84653 0.43615
 C1547 C 0.58991 0.82203 0.42784
 H1548 H 0.60493 0.81184 0.43797
 O1549 O 0.59045 1.03404 0.36934
 O1550 O 0.61928 1.03630 0.33828
 C1551 C 0.59824 1.04357 0.34800
 C1552 C 0.58272 1.06365 0.33496
 C1553 C 0.59171 1.07659 0.31265
 H1554 H 0.60971 1.07107 0.30422
 O1555 O 0.39404 0.97218 0.37360
 O1556 O 0.36392 0.97139 0.34323
 C1557 C 0.38573 0.96466 0.35165
 C1558 C 0.40151 0.94812 0.33547
 C1559 C 0.39334 0.94207 0.31024
 H1560 H 0.37566 0.94986 0.30254
 O1561 O 0.51174 1.12302 0.40625
 O1562 O 0.50916 1.15310 0.37613
 C1563 C 0.51864 1.14455 0.39737
 C1564 C 0.53798 1.15970 0.41176
 C1565 C 0.54241 1.18522 0.40500
 H1566 H 0.53143 1.19390 0.38932
 O1567 O 0.47176 0.88137 0.39848
 O1568 O 0.47212 0.85328 0.36689
 C1569 C 0.46366 0.86069 0.38870
 C1570 C 0.44417 0.84504 0.40264
 C1571 C 0.43674 0.82128 0.39284
 H1572 H 0.44552 0.81431 0.37526
 O1573 O 0.62138 1.10032 0.47187
 O1574 O 0.64819 1.13283 0.47221
 C1575 C 0.64101 1.11170 0.46283
 C1576 C 0.65533 1.10060 0.44086
 C1577 C 0.67692 1.11313 0.43085
 H1578 H 0.68351 1.13056 0.43985
 O1579 O 0.36828 0.89854 0.47328
 O1580 O 0.34082 0.86651 0.47341
 C1581 C 0.34771 0.88817 0.46495
 C1582 C 0.33190 0.90129 0.44499
 C1583 C 0.30796 0.89148 0.43747
 H1584 H 0.30069 0.87440 0.44686
 Cu1585 Cu 0.49611 0.90317 0.38388
 Cu1586 Cu 0.49656 0.86927 0.34615
 Cu1587 Cu 0.48799 1.10186 0.39072
 Cu1588 Cu 0.48510 1.13763 0.35428
 Cu1589 Cu 0.37791 0.99437 0.39577
 Cu1590 Cu 0.34212 0.99360 0.35882
 Cu1591 Cu 0.60701 1.00992 0.38940
 Cu1592 Cu 0.64172 1.01201 0.35239
 C1593 C 0.42441 0.93796 0.34516
 H1594 H 0.43063 0.94255 0.36476
 C1595 C 0.40700 0.92507 0.29515
 C1596 C 0.55924 1.07095 0.34579
 H1597 H 0.55241 1.06162 0.36334
 C1598 C 0.57761 1.09675 0.30147
 C1599 C 0.34108 0.92341 0.43286
 H1600 H 0.35969 0.93081 0.43846
 C1601 C 0.29314 0.90350 0.41809
 C1602 C 0.64681 1.07817 0.42902
 H1603 H 0.62991 1.06872 0.43654
 C1604 C 0.69002 1.10383 0.40920
 C1605 C 0.43261 0.85375 0.42550
 H1606 H 0.43802 0.87218 0.43306
 C1607 C 0.41793 0.80639 0.40521
 C1608 C 0.55250 1.14862 0.43198
 H1609 H 0.54948 1.12879 0.43699
 C1610 C 0.56104 1.19966 0.41807
 C1611 C 0.41877 1.06096 0.35140
 H1612 H 0.42408 1.05674 0.37142
 C1613 C 0.40482 1.07193 0.29961
 C1614 C 0.56498 0.94465 0.34337
 H1615 H 0.55764 0.95108 0.36184
 C1616 C 0.58488 0.92718 0.29602
 C1617 C 0.56346 0.85948 0.42346
 H1618 H 0.55856 0.87848 0.42951
 C1619 C 0.57665 0.81066 0.40693
 C1620 C 0.41869 1.14229 0.43045
 H1621 H 0.42415 1.12317 0.43602
 C1622 C 0.40424 1.19157 0.41532
 C1623 C 0.33285 1.05900 0.43454
 H1624 H 0.35080 1.05204 0.44238
 C1625 C 0.28738 1.07764 0.41254
 C1626 C 0.64859 0.94219 0.42687
 H1627 H 0.62902 0.94714 0.43118
 C1628 C 0.69904 0.92845 0.41573
 O1629 O 0.52415 0.90766 0.62485
 O1630 O 0.52622 0.87828 0.65571
 C1631 C 0.53381 0.89927 0.64604
 C1632 C 0.55451 0.91382 0.65912
 C1633 C 0.56266 0.90741 0.68456
 H1634 H 0.55293 0.89234 0.69510
 O1635 O 0.46957 1.08348 0.62670
 O1636 O 0.46925 1.11214 0.65777
 C1637 C 0.46124 1.09136 0.64838
 C1638 C 0.44160 1.07675 0.66274
 C1639 C 0.43656 1.08244 0.68875
 H1640 H 0.44793 1.09683 0.69856
 O1641 O 0.36340 1.01823 0.59365
 O1642 O 0.33424 1.01603 0.62436
 C1643 C 0.34248 1.02583 0.60328
 C1644 C 0.32819 1.04649 0.58961
 C1645 C 0.30360 1.05432 0.59742
 H1646 H 0.29430 1.04517 0.61384
 O1647 O 0.62903 0.97603 0.58767
 O1648 O 0.65915 0.97623 0.61796
 C1649 C 0.64996 0.96745 0.59687
 C1650 C 0.66291 0.94660 0.58291
 C1651 C 0.68710 0.93727 0.59072
 H1652 H 0.69711 0.94603 0.60686
 O1653 O 0.58991 0.87740 0.51834
 O1654 O 0.61932 0.84767 0.51665
 C1655 C 0.59895 0.85637 0.52637
 C1656 C 0.58611 0.84221 0.54773
 C1657 C 0.59464 0.81802 0.55527
 H1658 H 0.61010 0.80933 0.54471
 O1659 O 0.39538 1.11893 0.52340
 O1660 O 0.36614 1.14885 0.52480
 C1661 C 0.38715 1.13948 0.53285
 C1662 C 0.40206 1.15224 0.55369
 C1663 C 0.39538 1.17665 0.56216
 H1664 H 0.37969 1.18644 0.55272
 O1665 O 0.40196 0.96913 0.62662
 O1666 O 0.37295 0.96627 0.65748
 C1667 C 0.39398 0.95916 0.64773
 C1668 C 0.40924 0.93889 0.66071
 C1669 C 0.40241 0.92939 0.68548
 H1670 H 0.38633 0.93756 0.69543
 O1671 O 0.59286 1.02424 0.62273
 O1672 O 0.62280 1.02517 0.65324
 C1673 C 0.60158 1.03298 0.64408
 C1674 C 0.58676 1.05250 0.65803
 C1675 C 0.59438 1.06101 0.68292
 H1676 H 0.61107 1.05283 0.69218
 O1677 O 0.47517 0.87002 0.59032
 O1678 O 0.47749 0.84046 0.62099
 C1679 C 0.46796 0.84875 0.59975
 C1680 C 0.44804 0.83372 0.58604
 C1681 C 0.44168 0.80909 0.59456
 H1682 H 0.45195 0.80080 0.61094
 O1683 O 0.51695 1.12263 0.59124
 O1684 O 0.51558 1.15109 0.62247
 C1685 C 0.52447 1.14356 0.60102
 C1686 C 0.54429 1.15904 0.58791
 C1687 C 0.55052 1.18328 0.59723
 H1688 H 0.53992 1.19108 0.61332
 O1689 O 0.37334 0.90029 0.52370
 O1690 O 0.34502 0.86902 0.52363
 C1691 C 0.35298 0.89029 0.53237
 C1692 C 0.33827 0.90385 0.55242
 C1693 C 0.31278 0.89715 0.55733
 H1694 H 0.30396 0.88170 0.54661
 O1695 O 0.62126 1.09661 0.52253
 O1696 O 0.64871 1.12859 0.52313
 C1697 C 0.64163 1.10671 0.53123
 C1698 C 0.65667 1.09259 0.55117
 C1699 C 0.68108 1.10086 0.55939
 H1700 H 0.68950 1.11771 0.55067
 O1701 O 0.51975 1.08508 0.62428
 O1702 O 0.51886 1.11378 0.65528
 C1703 C 0.52857 1.09402 0.64544
 C1704 C 0.55070 1.08182 0.65858
 C1705 C 0.55847 1.08986 0.68336
 H1706 H 0.54762 1.10440 0.69308
 O1707 O 0.47396 0.90610 0.62439
 O1708 O 0.47614 0.87661 0.65512
 C1709 C 0.46609 0.89670 0.64576
 C1710 C 0.44470 0.90880 0.65967
 C1711 C 0.43767 0.89981 0.68440
 H1712 H 0.44847 0.88459 0.69351
 O1713 O 0.62638 1.02569 0.58587
 O1714 O 0.65655 1.02620 0.61616
 C1715 C 0.64695 1.03496 0.59510
 C1716 C 0.65932 1.05674 0.58174
 C1717 C 0.68374 1.06491 0.58931
 H1718 H 0.69412 1.05440 0.60422
 O1719 O 0.36759 0.96888 0.59034
 O1720 O 0.33805 0.96613 0.62070
 C1721 C 0.34744 0.95867 0.59927
 C1722 C 0.33528 0.93761 0.58469
 C1723 C 0.30976 0.93068 0.58927
 H1724 H 0.29886 0.94159 0.60296
 O1725 O 0.58538 1.13031 0.52478
 O1726 O 0.61239 1.16264 0.52512
 C1727 C 0.59272 1.15152 0.53410
 C1728 C 0.57825 1.16297 0.55577
 C1729 C 0.58466 1.18716 0.56574
 H1730 H 0.60007 1.19802 0.55701
 O1731 O 0.40753 0.86498 0.52238
 O1732 O 0.37997 0.83310 0.52230
 C1733 C 0.40017 0.84342 0.53113
 C1734 C 0.41490 0.83084 0.55239
 C1735 C 0.40859 0.80613 0.56129
 H1736 H 0.39349 0.79566 0.55157
 O1737 O 0.59240 0.97513 0.62125
 O1738 O 0.62215 0.97591 0.65198
 C1739 C 0.60130 0.96701 0.64279
 C1740 C 0.58744 0.94692 0.65728
 C1741 C 0.59505 0.94051 0.68270
 H1742 H 0.61079 0.95070 0.69181
 O1743 O 0.40047 1.01827 0.62745
 O1744 O 0.37194 1.01589 0.65880
 C1745 C 0.39230 1.02550 0.64934
 C1746 C 0.40699 1.04536 0.66341
 C1747 C 0.40169 1.05177 0.68944
 H1748 H 0.38651 1.04200 0.69979
 O1749 O 0.46709 1.11780 0.58995
 O1750 O 0.46635 1.14637 0.62109
 C1751 C 0.45774 1.13774 0.59964
 C1752 C 0.43659 1.15113 0.58611
 C1753 C 0.42972 1.17546 0.59411
 H1754 H 0.44034 1.18445 0.60979
 O1755 O 0.52468 0.87359 0.58874
 O1756 O 0.52699 0.84398 0.61935
 C1757 C 0.53449 0.85331 0.59775
 C1758 C 0.55502 0.84075 0.58301
 C1759 C 0.56392 0.81654 0.59040
 H1760 H 0.55505 0.80676 0.60663
 O1761 O 0.62566 0.91166 0.51898
 O1762 O 0.65508 0.88192 0.51748
 C1763 C 0.64658 0.90226 0.52717
 C1764 C 0.66092 0.91485 0.54847
 C1765 C 0.68503 0.90605 0.55620
 H1766 H 0.69347 0.89033 0.54593
 O1767 O 0.36076 1.08381 0.52411
 O1768 O 0.33109 1.11335 0.52507
 C1769 C 0.34030 1.09250 0.53348
 C1770 C 0.32732 1.07853 0.55472
 C1771 C 0.30268 1.08533 0.56205
 H1772 H 0.29276 1.10026 0.55144
 Cu1773 Cu 0.49930 0.89234 0.60406
 Cu1774 Cu 0.50192 0.85697 0.64096
 Cu1775 Cu 0.49342 1.09933 0.60493
 Cu1776 Cu 0.49233 1.13362 0.64228
 Cu1777 Cu 0.39223 0.88642 0.49763
 Cu1778 Cu 0.35918 0.84840 0.49775
 Cu1779 Cu 0.60423 0.89870 0.49333
 Cu1780 Cu 0.63958 0.86303 0.49148
 Cu1781 Cu 0.37972 1.09911 0.49825
 Cu1782 Cu 0.34448 1.13493 0.49969
 Cu1783 Cu 0.59969 1.11082 0.49842
 Cu1784 Cu 0.63189 1.14961 0.49864
 Cu1785 Cu 0.38613 0.99402 0.60644
 Cu1786 Cu 0.35129 0.99081 0.64335
 Cu1787 Cu 0.60733 1.00022 0.60122
 Cu1788 Cu 0.64328 1.00090 0.63782
 C1789 C 0.56697 0.93370 0.64571
 H1790 H 0.56113 0.93848 0.62597
 C1791 C 0.58301 0.92077 0.69642
 C1792 C 0.42700 1.05803 0.65032
 H1793 H 0.43094 1.05373 0.63014
 C1794 C 0.41668 1.07031 0.70222
 C1795 C 0.33977 1.05889 0.56826
 H1796 H 0.35885 1.05360 0.56243
 C1797 C 0.29076 1.07363 0.58332
 C1798 C 0.65018 0.93523 0.56173
 H1799 H 0.63145 0.94191 0.55582
 C1800 C 0.69830 0.91690 0.57725
 C1801 C 0.56615 0.85333 0.56158
 H1802 H 0.55967 0.87212 0.55603
 C1803 C 0.58385 0.80504 0.57659
 C1804 C 0.42282 1.13970 0.56570
 H1805 H 0.42794 1.12079 0.55956
 C1806 C 0.40923 1.18836 0.58242
 C1807 C 0.43051 0.92850 0.64803
 H1808 H 0.43571 0.93539 0.62882
 C1809 C 0.41656 0.90972 0.69739
 C1810 C 0.56482 1.06299 0.64613
 H1811 H 0.55899 1.05686 0.62687
 C1812 C 0.58021 1.07978 0.69572
 C1813 C 0.43473 0.84429 0.56482
 H1814 H 0.43941 0.86340 0.55837
 C1815 C 0.42199 0.79509 0.58248
 C1816 C 0.55800 1.14919 0.56704
 H1817 H 0.55324 1.13041 0.55994
 C1818 C 0.57075 1.19741 0.58660
 C1819 C 0.34935 0.92421 0.56610
 H1820 H 0.36909 0.92946 0.56250
 C1821 C 0.29832 0.91047 0.57555
 C1822 C 0.64608 1.07047 0.56246
 H1823 H 0.62707 1.06424 0.55673
 C1824 C 0.69469 1.08693 0.57849
 O1825 O 0.47547 0.39082 0.87369
 O1826 O 0.47439 0.36013 0.84474
 C1827 C 0.46635 0.38127 0.85293
 C1828 C 0.44623 0.39531 0.83863
 C1829 C 0.43889 0.38907 0.81297
 H1830 H 0.44815 0.37358 0.80315
 O1831 O 0.52008 0.58391 0.87085
 O1832 O 0.51744 0.61241 0.83918
 C1833 C 0.52713 0.59224 0.84873
 C1834 C 0.54686 0.57850 0.83395
 C1835 C 0.55395 0.58718 0.80914
 H1836 H 0.54458 0.60363 0.80068
 O1837 O 0.37853 0.45607 0.91182
 O1838 O 0.34820 0.45306 0.88184
 C1839 C 0.35843 0.44541 0.90311
 C1840 C 0.34731 0.42346 0.91746
 C1841 C 0.32712 0.40941 0.90642
 H1842 H 0.31893 0.41535 0.88791
 O1843 O 0.61774 0.51463 0.90154
 O1844 O 0.64679 0.51605 0.87067
 C1845 C 0.63777 0.52452 0.89186
 C1846 C 0.65039 0.54678 0.90440
 C1847 C 0.67245 0.55708 0.89292
 H1848 H 0.68069 0.54814 0.87603
 O1849 O 0.41594 0.35863 0.98734
 O1850 O 0.38754 0.32755 0.99033
 C1851 C 0.40743 0.33714 0.98000
 C1852 C 0.42018 0.32359 0.95859
 C1853 C 0.41289 0.29867 0.95236
 H1854 H 0.39856 0.28898 0.96402
 O1855 O 0.58866 0.62499 0.97066
 O1856 O 0.61841 0.65475 0.96745
 C1857 C 0.59701 0.64553 0.96046
 C1858 C 0.58208 0.65822 0.93960
 C1859 C 0.58923 0.68235 0.93012
 H1860 H 0.60492 0.69227 0.93947
 O1861 O 0.40866 0.50790 0.87462
 O1862 O 0.37812 0.50581 0.84478
 C1863 C 0.39859 0.51595 0.85356
 C1864 C 0.41070 0.53752 0.83943
 C1865 C 0.40273 0.54414 0.81406
 H1866 H 0.38777 0.53317 0.80457
 O1867 O 0.58557 0.46327 0.86485
 O1868 O 0.61465 0.46449 0.83402
 C1869 C 0.59466 0.45456 0.84383
 C1870 C 0.58229 0.43187 0.83178
 C1871 C 0.59057 0.42158 0.80792
 H1872 H 0.60585 0.43097 0.79742
 O1873 O 0.52617 0.35893 0.91025
 O1874 O 0.52530 0.32750 0.88212
 C1875 C 0.53446 0.33772 0.90254
 C1876 C 0.55515 0.32521 0.91750
 C1877 C 0.56268 0.30035 0.91184
 H1878 H 0.55244 0.28991 0.89695
 O1879 O 0.47004 0.61796 0.90582
 O1880 O 0.46719 0.64664 0.87434
 C1881 C 0.45967 0.63767 0.89604
 C1882 C 0.43815 0.64947 0.90996
 C1883 C 0.42873 0.67364 0.90293
 H1884 H 0.43796 0.68438 0.88753
 O1885 O 0.37037 0.57274 0.97394
 O1886 O 0.33919 0.60070 0.97422
 C1887 C 0.34889 0.58047 0.96547
 C1888 C 0.33565 0.56601 0.94473
 C1889 C 0.31212 0.57404 0.93420
 H1890 H 0.30277 0.59034 0.94244
 O1891 O 0.62809 0.39881 0.97182
 O1892 O 0.65902 0.37062 0.97174
 C1893 C 0.64847 0.39020 0.96184
 C1894 C 0.65955 0.40311 0.93834
 C1895 C 0.68239 0.39458 0.92677
 H1896 H 0.69240 0.37868 0.93545
 O1897 O 0.47078 0.58111 0.87307
 O1898 O 0.46806 0.60949 0.84126
 C1899 C 0.46104 0.58856 0.85162
 C1900 C 0.44126 0.57286 0.83862
 C1901 C 0.43332 0.57892 0.81318
 H1902 H 0.44275 0.59439 0.80305
 O1903 O 0.52477 0.39249 0.87318
 O1904 O 0.52408 0.36138 0.84468
 C1905 C 0.53266 0.38277 0.85222
 C1906 C 0.55212 0.39645 0.83660
 C1907 C 0.56043 0.38657 0.81296
 H1908 H 0.55205 0.36901 0.80590
 O1909 O 0.62075 0.46476 0.90084
 O1910 O 0.64983 0.46633 0.87000
 C1911 C 0.64162 0.45696 0.89130
 C1912 C 0.65614 0.43620 0.90447
 C1913 C 0.67898 0.42758 0.89359
 H1914 H 0.68632 0.43683 0.87620
 O1915 O 0.37277 0.50510 0.90902
 O1916 O 0.34219 0.50216 0.87931
 C1917 C 0.35109 0.51180 0.90002
 C1918 C 0.33665 0.53187 0.91305
 C1919 C 0.31304 0.53988 0.90291
 H1920 H 0.30460 0.53026 0.88632
 O1921 O 0.40288 0.61028 0.97251
 O1922 O 0.37172 0.63828 0.97338
 C1923 C 0.39273 0.63069 0.96415
 C1924 C 0.40542 0.64568 0.94342
 C1925 C 0.39646 0.66983 0.93651
 H1926 H 0.38037 0.67769 0.94681
 O1927 O 0.59361 0.36361 0.97810
 O1928 O 0.62442 0.33524 0.97859
 C1929 C 0.60271 0.34273 0.97045
 C1930 C 0.58827 0.32756 0.95118
 C1931 C 0.59561 0.30274 0.94533
 H1932 H 0.61148 0.29417 0.95582
 O1933 O 0.58374 0.51351 0.86475
 O1934 O 0.61269 0.51472 0.83377
 C1935 C 0.59218 0.52300 0.84356
 C1936 C 0.57854 0.54464 0.83098
 C1937 C 0.58582 0.55412 0.80626
 H1938 H 0.60081 0.54480 0.79561
 O1939 O 0.41034 0.45833 0.87347
 O1940 O 0.37992 0.45659 0.84345
 C1941 C 0.40134 0.44936 0.85235
 C1942 C 0.41535 0.42968 0.83834
 C1943 C 0.40864 0.42377 0.81267
 H1944 H 0.39395 0.43468 0.80271
 O1945 O 0.51998 0.62055 0.90453
 O1946 O 0.51728 0.64920 0.87302
 C1947 C 0.52727 0.64139 0.89424
 C1948 C 0.54801 0.65617 0.90695
 C1949 C 0.55540 0.68027 0.89756
 H1950 H 0.54524 0.68864 0.88115
 O1951 O 0.47686 0.35895 0.91252
 O1952 O 0.47569 0.32782 0.88407
 C1953 C 0.46819 0.33758 0.90523
 C1954 C 0.44929 0.32399 0.92161
 C1955 C 0.44178 0.29901 0.91568
 H1956 H 0.45045 0.28973 0.89933
 O1957 O 0.62016 0.58731 0.96938
 O1958 O 0.64999 0.61686 0.96528
 C1959 C 0.63993 0.59584 0.95807
 C1960 C 0.65117 0.58166 0.93600
 C1961 C 0.67302 0.59154 0.92373
 H1962 H 0.68198 0.60866 0.93109
 O1963 O 0.38180 0.39361 0.98597
 O1964 O 0.35331 0.36256 0.98813
 C1965 C 0.36158 0.38297 0.97755
 C1966 C 0.34840 0.39350 0.95426
 C1967 C 0.32791 0.38008 0.94307
 H1968 H 0.32069 0.36294 0.95240
 Cu1969 Cu 0.50084 0.37842 0.89525
 Cu1970 Cu 0.49973 0.34102 0.86101
 Cu1971 Cu 0.49557 0.59822 0.89192
 Cu1972 Cu 0.49228 0.63234 0.85378
 Cu1973 Cu 0.39564 0.48213 0.89521
 Cu1974 Cu 0.35903 0.47916 0.85942
 Cu1975 Cu 0.59890 0.48877 0.88587
 Cu1976 Cu 0.63392 0.49059 0.84913
 C1977 C 0.43433 0.41566 0.85105
 H1978 H 0.43935 0.42022 0.87100
 C1979 C 0.42007 0.40351 0.79988
 C1980 C 0.55902 0.55703 0.84459
 H1981 H 0.55366 0.55029 0.86381
 C1982 C 0.57345 0.57542 0.79525
 C1983 C 0.35788 0.41535 0.94144
 H1984 H 0.37395 0.42562 0.94977
 C1985 C 0.31773 0.38747 0.91893
 C1986 C 0.63982 0.55914 0.92615
 H1987 H 0.62256 0.55163 0.93497
 C1988 C 0.68336 0.57963 0.90194
 C1989 C 0.43855 0.33604 0.94321
 H1990 H 0.44404 0.35541 0.94768
 C1991 C 0.42344 0.28621 0.93093
 C1992 C 0.56135 0.64547 0.92809
 H1993 H 0.55608 0.62671 0.93515
 C1994 C 0.57608 0.69353 0.90892
 C1995 C 0.43003 0.55201 0.85155
 H1996 H 0.43605 0.54732 0.87125
 C1997 C 0.41384 0.56488 0.80083
 C1998 C 0.56287 0.41919 0.84564
 H1999 H 0.55656 0.42666 0.86408
 C2000 C 0.57945 0.39884 0.79828
 C2001 C 0.56789 0.33854 0.93734
 H2002 H 0.56243 0.35787 0.94151
 C2003 C 0.58309 0.28904 0.92561
 C2004 C 0.42637 0.63579 0.93026
 H2005 H 0.43321 0.61704 0.93550
 C2006 C 0.40782 0.68398 0.91635
 C2007 C 0.34760 0.54477 0.93414
 H2008 H 0.36601 0.53878 0.94171
 C2009 C 0.30091 0.56120 0.91293
 C2010 C 0.64668 0.42395 0.92692
 H2011 H 0.62895 0.43043 0.93526
 C2012 C 0.69221 0.40676 0.90419
 O2013 O 0.53826 0.40732 1.13770
 O2014 O 0.54085 0.37919 1.16969
 C2015 C 0.54859 0.39960 1.15877
 C2016 C 0.57029 0.41427 1.17006
 C2017 C 0.58074 0.40786 1.19459
 H2018 H 0.57242 0.39215 1.20532
 O2019 O 0.48111 0.58649 1.12935
 O2020 O 0.48037 0.61684 1.15863
 C2021 C 0.47250 0.59551 1.15045
 C2022 C 0.45257 0.58123 1.16491
 C2023 C 0.44400 0.58918 1.18954
 H2024 H 0.45275 0.60556 1.19866
 O2025 O 0.38000 0.51194 1.09776
 O2026 O 0.35121 0.51190 1.12899
 C2027 C 0.35883 0.51942 1.10681
 C2028 C 0.34295 0.53721 1.09155
 C2029 C 0.31811 0.54282 1.09961
 H2030 H 0.31035 0.53345 1.11674
 O2031 O 0.63521 0.47490 1.08777
 O2032 O 0.66755 0.47668 1.11557
 C2033 C 0.65706 0.46734 1.09527
 C2034 C 0.66999 0.44734 1.08014
 C2035 C 0.69621 0.44224 1.08364
 H2036 H 0.70733 0.45335 1.09736
 O2037 O 0.59891 0.36667 1.02887
 O2038 O 0.62986 0.33849 1.02950
 C2039 C 0.60948 0.34728 1.03922
 C2040 C 0.59792 0.33541 1.06301
 C2041 C 0.60668 0.31197 1.07340
 H2042 H 0.62185 0.30199 1.06371
 O2043 O 0.40688 0.60841 1.02288
 O2044 O 0.37566 0.63633 1.02359
 C2045 C 0.39745 0.62872 1.03154
 C2046 C 0.41168 0.64384 1.05107
 C2047 C 0.40303 0.66811 1.05698
 H2048 H 0.38654 0.67581 1.04677
 O2049 O 0.41901 0.46719 1.13592
 O2050 O 0.39011 0.46764 1.16702
 C2051 C 0.41112 0.45977 1.15808
 C2052 C 0.42612 0.44140 1.17355
 C2053 C 0.41903 0.43566 1.19911
 H2054 H 0.40323 0.44567 1.20781
 O2055 O 0.60106 0.52404 1.12334
 O2056 O 0.63275 0.52611 1.15189
 C2057 C 0.61100 0.53367 1.14360
 C2058 C 0.59723 0.55404 1.15743
 C2059 C 0.60619 0.56272 1.18155
 H2060 H 0.62302 0.55411 1.19025
 O2061 O 0.48767 0.36965 1.10612
 O2062 O 0.49018 0.34092 1.13760
 C2063 C 0.48031 0.34879 1.11629
 C2064 C 0.46003 0.33371 1.10309
 C2065 C 0.45481 0.30853 1.11078
 H2066 H 0.46577 0.29996 1.12653
 O2067 O 0.52778 0.62285 1.09051
 O2068 O 0.52674 0.65337 1.11960
 C2069 C 0.53554 0.64432 1.09870
 C2070 C 0.55561 0.65849 1.08427
 C2071 C 0.56286 0.68299 1.09180
 H2072 H 0.55290 0.69198 1.10767
 O2073 O 0.38045 0.39365 1.03681
 O2074 O 0.35160 0.36300 1.03937
 C2075 C 0.36013 0.38439 1.04671
 C2076 C 0.34708 0.39862 1.06746
 C2077 C 0.32259 0.39160 1.07671
 H2078 H 0.31252 0.37577 1.06798
 O2079 O 0.62771 0.59116 1.01955
 O2080 O 0.65759 0.62069 1.01564
 C2081 C 0.64945 0.60025 1.02598
 C2082 C 0.66517 0.58724 1.04604
 C2083 C 0.68994 0.59601 1.05191
 H2084 H 0.69785 0.61195 1.04105
 O2085 O 0.53091 0.58743 1.12558
 O2086 O 0.53058 0.61764 1.15502
 C2087 C 0.54015 0.59732 1.14606
 C2088 C 0.56264 0.58519 1.15892
 C2089 C 0.57204 0.59367 1.18315
 H2090 H 0.56215 0.60876 1.19290
 O2091 O 0.48838 0.40458 1.14130
 O2092 O 0.49059 0.37627 1.17314
 C2093 C 0.48072 0.39612 1.16323
 C2094 C 0.45963 0.40948 1.17647
 C2095 C 0.45152 0.40307 1.20199
 H2096 H 0.46106 0.38816 1.21292
 O2097 O 0.63624 0.52454 1.08813
 O2098 O 0.66819 0.52628 1.11639
 C2099 C 0.65746 0.53414 1.09563
 C2100 C 0.66926 0.55506 1.08030
 C2101 C 0.69404 0.56423 1.08616
 H2102 H 0.70506 0.55511 1.10146
 O2103 O 0.38311 0.46292 1.10102
 O2104 O 0.35435 0.46332 1.13226
 C2105 C 0.36288 0.45408 1.11134
 C2106 C 0.34899 0.43288 1.09901
 C2107 C 0.32469 0.42597 1.10779
 H2108 H 0.31611 0.43663 1.12339
 O2109 O 0.59189 0.62508 1.02149
 O2110 O 0.62157 0.65487 1.01839
 C2111 C 0.60146 0.64602 1.02910
 C2112 C 0.58875 0.65951 1.05083
 C2113 C 0.59626 0.68406 1.05909
 H2114 H 0.61172 0.69394 1.04930
 O2115 O 0.41910 0.36299 1.03812
 O2116 O 0.39059 0.33201 1.04082
 C2117 C 0.41136 0.34239 1.04846
 C2118 C 0.42653 0.33059 1.06977
 C2119 C 0.42174 0.30540 1.07753
 H2120 H 0.40753 0.29461 1.06689
 O2121 O 0.60470 0.47484 1.12769
 O2122 O 0.63673 0.47667 1.15583
 C2123 C 0.61540 0.46729 1.14871
 C2124 C 0.60306 0.44725 1.16488
 C2125 C 0.61313 0.44071 1.18949
 H2126 H 0.62974 0.45082 1.19693
 O2127 O 0.41679 0.51631 1.13189
 O2128 O 0.38785 0.51630 1.16295
 C2129 C 0.40806 0.52535 1.15283
 C2130 C 0.42124 0.54672 1.16565
 C2131 C 0.41333 0.55447 1.19025
 H2132 H 0.39803 0.54421 1.19998
 O2133 O 0.47794 0.61744 1.09001
 O2134 O 0.47664 0.64811 1.11890
 C2135 C 0.46791 0.63762 1.09832
 C2136 C 0.44559 0.64846 1.08400
 C2137 C 0.43597 0.67257 1.09017
 H2138 H 0.44518 0.68373 1.10523
 O2139 O 0.53722 0.37163 1.10342
 O2140 O 0.53982 0.34322 1.13518
 C2141 C 0.54695 0.35157 1.11301
 C2142 C 0.56696 0.33782 1.09857
 C2143 C 0.57553 0.31439 1.10808
 H2144 H 0.56695 0.30630 1.12548
 O2145 O 0.63033 0.40450 1.02228
 O2146 O 0.66162 0.37664 1.02222
 C2147 C 0.65237 0.39757 1.02976
 C2148 C 0.66742 0.41376 1.04761
 C2149 C 0.69354 0.40934 1.05095
 H2150 H 0.70265 0.39458 1.03983
 O2151 O 0.37134 0.57394 1.02466
 O2152 O 0.33989 0.60161 1.02504
 C2153 C 0.35034 0.58165 1.03394
 C2154 C 0.33850 0.56758 1.05580
 C2155 C 0.31362 0.57318 1.06415
 H2156 H 0.30292 0.58771 1.05394
 Cu2157 Cu 0.51253 0.39128 1.11914
 Cu2158 Cu 0.51566 0.35708 1.15712
 Cu2159 Cu 0.50448 0.60056 1.10604
 Cu2160 Cu 0.50351 0.63703 1.14089
 Cu2161 Cu 0.40215 0.38029 1.01199
 Cu2162 Cu 0.36785 0.34326 1.01501
 Cu2163 Cu 0.60961 0.38606 1.00022
 Cu2164 Cu 0.64681 0.35241 1.00064
 Cu2165 Cu 0.39087 0.58839 0.99834
 Cu2166 Cu 0.35347 0.62203 0.99922
 Cu2167 Cu 0.60406 0.60434 0.99581
 Cu2168 Cu 0.63993 0.63961 0.99131
 Cu2169 Cu 0.40269 0.48960 1.11344
 Cu2170 Cu 0.36799 0.48983 1.15100
 Cu2171 Cu 0.61625 0.49931 1.10389
 Cu2172 Cu 0.65441 0.50153 1.13778
 C2173 C 0.58146 0.43416 1.15553
 H2174 H 0.57376 0.43899 1.13647
 C2175 C 0.60205 0.42127 1.20468
 C2176 C 0.44107 0.55992 1.15324
 H2177 H 0.44709 0.55397 1.13411
 C2178 C 0.42428 0.57567 1.20230
 C2179 C 0.35285 0.54933 1.06942
 H2180 H 0.37218 0.54525 1.06338
 C2181 C 0.30320 0.56062 1.08605
 C2182 C 0.65580 0.43301 1.06195
 H2183 H 0.63552 0.43639 1.05941
 C2184 C 0.70804 0.42320 1.06892
 C2185 C 0.57802 0.34807 1.07588
 H2186 H 0.57140 0.36623 1.06850
 C2187 C 0.59532 0.30134 1.09600
 C2188 C 0.43323 0.63422 1.06432
 H2189 H 0.43998 0.61540 1.05973
 C2190 C 0.41466 0.68238 1.07656
 C2191 C 0.44666 0.42866 1.16256
 H2192 H 0.45207 0.43324 1.14272
 C2193 C 0.43123 0.41649 1.21340
 C2194 C 0.57534 0.56526 1.14636
 H2195 H 0.56845 0.55876 1.12759
 C2196 C 0.59388 0.58243 1.19461
 C2197 C 0.44581 0.34453 1.08252
 H2198 H 0.44952 0.36402 1.07663
 C2199 C 0.43570 0.29417 1.09815
 C2200 C 0.56845 0.64708 1.06369
 H2201 H 0.56281 0.62808 1.05796
 C2202 C 0.58312 0.69595 1.07963
 C2203 C 0.35994 0.41934 1.07873
 H2204 H 0.37887 0.42468 1.07210
 C2205 C 0.31123 0.40551 1.09694
 C2206 C 0.65512 0.56663 1.06015
 H2207 H 0.63591 0.55997 1.05583
 C2208 C 0.70453 0.58483 1.07197
 C2209 C 1.11182 1.14530 1.27180
 C2210 C 1.11703 1.12374 1.25930
 C2211 C 1.10219 1.11650 1.23573
 C2212 C 1.10759 1.09520 1.22290
 H2213 H 1.13255 1.11171 1.26578
 H2214 H 1.08764 1.12929 1.22848
 H2215 H 1.09592 1.15661 1.26463
 H2216 H 1.12278 1.08335 1.23067
 C2217 C 1.11376 0.63017 0.78835
 C2218 C 1.12121 0.61261 0.77144
 C2219 C 1.10455 0.60510 0.74935
 C2220 C 1.11286 0.58858 0.73174
 H2221 H 1.14006 0.60440 0.77321
 H2222 H 1.08565 0.61319 0.74767
 H2223 H 1.09514 0.63880 0.78569
 H2224 H 1.13167 0.58044 0.73474
 C2225 C 0.63469 1.09781 0.77366
 C2226 C 0.61330 1.10033 0.75931
 C2227 C 0.60896 1.08654 0.73472
 C2228 C 0.58688 1.08998 0.72180
 H2229 H 0.59845 1.11306 0.76540
 H2230 H 0.62396 1.07483 0.72701
 H2231 H 0.64885 1.08416 0.76765
 H2232 H 0.57283 1.10228 0.73053
 C2233 C 0.60709 0.63722 1.27204
 C2234 C 0.61247 0.61679 1.25777
 C2235 C 0.59855 0.61089 1.23344
 C2236 C 0.60488 0.59017 1.22011
 H2237 H 0.62756 0.60404 1.26373
 H2238 H 0.58403 0.62380 1.22638
 H2239 H 0.59142 0.64930 1.26583
 H2240 H 0.61995 0.57827 1.22808
 C2241 C 0.90426 0.87585 1.28322
 C2242 C 0.90192 0.89666 1.26825
 C2243 C 0.91626 0.90017 1.24389
 C2244 C 0.91267 0.92143 1.22996
 H2245 H 0.88869 0.91139 1.27351
 H2246 H 0.92792 0.88491 1.23668
 H2247 H 0.91868 0.86202 1.27832
 H2248 H 0.90018 0.93577 1.23785
 C2249 C 0.86250 0.35136 0.75442
 C2250 C 0.86578 0.37637 0.75111
 C2251 C 0.88375 0.38562 0.73093
 C2252 C 0.88965 0.41021 0.72843
 H2253 H 0.85606 0.38977 0.76339
 H2254 H 0.89153 0.37215 0.71732
 H2255 H 0.87368 0.33888 0.74228
 H2256 H 0.88082 0.42358 0.74148
 C2257 C 0.36050 0.88648 0.77132
 C2258 C 0.38290 0.88562 0.75906
 C2259 C 0.38753 0.90000 0.73475
 C2260 C 0.41031 0.89856 0.72323
 H2261 H 0.39810 0.87389 0.76689
 H2262 H 0.37199 0.91052 0.72588
 H2263 H 0.34573 0.89912 0.76408
 H2264 H 0.42495 0.88709 0.73260
 C2265 C 0.39723 0.36275 1.28446
 C2266 C 0.39971 0.38504 1.27205
 C2267 C 0.41722 0.38827 1.24974
 C2268 C 0.42113 0.41145 1.23980
 H2269 H 0.38847 0.40114 1.27795
 H2270 H 0.42473 0.37172 1.24010
 H2271 H 0.40999 0.34750 1.27921
 H2272 H 0.41261 0.42742 1.24965
 C2273 C 0.85695 1.10965 0.72786
 C2274 C 0.87905 1.11082 0.74115
 C2275 C 0.88445 1.09448 0.76410
 C2276 C 0.90787 1.09526 0.77472
 H2277 H 0.89374 1.12422 0.73529
 H2278 H 0.86918 1.08352 0.77297
 H2279 H 0.84314 1.09503 0.73312
 H2280 H 0.92222 1.10690 0.76502
 C2281 C 0.90593 0.63742 0.21954
 C2282 C 0.90703 0.61554 0.23263
 C2283 C 0.91911 0.61399 0.25858
 C2284 C 0.91852 0.59202 0.27159
 H2285 H 0.89820 0.59869 0.22445
 H2286 H 0.92636 0.63107 0.26777
 H2287 H 0.91573 0.65401 0.22719
 H2288 H 0.91003 0.57559 0.26216
 C2289 C 0.41523 1.10182 0.20883
 C2290 C 0.40168 1.09001 0.22733
 C2291 C 0.41183 1.08628 0.25385
 C2292 C 0.39662 1.07674 0.27238
 H2293 H 0.38219 1.08408 0.22330
 H2294 H 0.43158 1.09118 0.25798
 H2295 H 0.43418 1.10909 0.21339
 H2296 H 0.37723 1.07125 0.26711
 C2297 C 0.39991 0.62106 0.72434
 C2298 C 0.39766 0.59843 0.73626
 C2299 C 0.40872 0.59353 0.76217
 C2300 C 0.40476 0.57109 0.77410
 H2301 H 0.38695 0.58325 0.72709
 H2302 H 0.41892 0.60882 0.77171
 H2303 H 0.41160 0.63584 0.73309
 H2304 H 0.39337 0.55681 0.76415
 C2305 C 1.09599 0.87272 0.71831
 C2306 C 1.09867 0.89431 0.73164
 C2307 C 1.08783 0.89745 0.75782
 C2308 C 1.09279 0.91874 0.77108
 H2309 H 1.10952 0.90997 0.72344
 H2310 H 1.07701 0.88198 0.76645
 H2311 H 1.08440 0.85741 0.72631
 H2312 H 1.10464 0.93324 0.76191
 C2313 C 1.13372 0.39568 0.23396
 C2314 C 1.11029 0.39562 0.24431
 C2315 C 1.10419 0.41031 0.26777
 C2316 C 1.08069 0.40882 0.27794
 H2317 H 1.09523 0.38422 0.23563
 H2318 H 1.11924 0.42114 0.27722
 H2319 H 1.14844 0.40791 0.24212
 H2320 H 1.06659 0.39689 0.26827
 C2321 C 0.60304 0.86932 0.22164
 C2322 C 0.60696 0.89062 0.23547
 C2323 C 0.59174 0.89709 0.25865
 C2324 C 0.59687 0.91877 0.27134
 H2325 H 0.62191 0.90383 0.22999
 H2326 H 0.57737 0.88384 0.26556
 H2327 H 0.58737 0.85680 0.22711
 H2328 H 0.61188 0.93098 0.26363
 C2329 C 0.62203 0.39214 0.71252
 C2330 C 0.60675 0.38223 0.73083
 C2331 C 0.60135 0.39662 0.75486
 C2332 C 0.58709 0.38621 0.77369
 H2333 H 0.59837 0.36353 0.72845
 H2334 H 0.60879 0.41575 0.75677
 H2335 H 0.63030 0.41078 0.71604
 H2336 H 0.57976 0.36713 0.77054
 C2337 C 1.29294 1.09037 1.11342
 C2338 C 1.27485 1.10067 1.09812
 C2339 C 1.24950 1.08858 1.09497
 C2340 C 1.23129 1.10050 1.08120
 H2341 H 1.27828 1.11847 1.08804
 H2342 H 1.24611 1.07009 1.10368
 H2343 H 1.28858 1.07272 1.12360
 H2344 H 1.23601 1.11884 1.07260
 C2345 C 1.28009 0.59132 0.63044
 C2346 C 1.26535 0.59282 0.60918
 C2347 C 1.24110 0.57851 0.60724
 C2348 C 1.22859 0.57828 0.58454
 H2349 H 1.27087 0.60497 0.59301
 H2350 H 1.23265 0.57025 0.62460
 H2351 H 1.27488 0.57773 0.64557
 H2352 H 1.23767 0.58730 0.56786
 C2353 C 0.76101 1.14754 0.60758
 C2354 C 0.75233 1.12391 0.60420
 C2355 C 0.72851 1.11845 0.58979
 C2356 C 0.72027 1.09445 0.58820
 H2357 H 0.76273 1.10818 0.61282
 H2358 H 0.71701 1.13398 0.58237
 H2359 H 0.75148 1.16329 0.59792
 H2360 H 0.73191 1.07960 0.59692
 C2361 C 0.78241 0.60391 1.12453
 C2362 C 0.76869 0.60583 1.10246
 C2363 C 0.74393 0.59248 1.09912
 C2364 C 0.73050 0.59549 1.07698
 H2365 H 0.77560 0.61759 1.08657
 H2366 H 0.73645 0.58122 1.11511
 H2367 H 0.77566 0.59145 1.14000
 H2368 H 0.73848 0.60771 1.06191
 C2369 C 1.27132 0.85786 0.89808
 C2370 C 1.25814 0.87947 0.89505
 C2371 C 1.23516 0.88518 0.91041
 C2372 C 1.22324 0.90733 0.90639
 H2373 H 1.26403 0.89350 0.88077
 H2374 H 1.22774 0.87103 0.92383
 H2375 H 1.26553 0.84456 0.91323
 H2376 H 1.23144 0.92046 0.89227
 C2377 C 1.26753 0.39599 0.36618
 C2378 C 1.24931 0.39048 0.38374
 C2379 C 1.22683 0.40688 0.38832
 C2380 C 1.20987 0.39967 0.40652
 H2381 H 1.25062 0.37332 0.39535
 H2382 H 1.22445 0.42427 0.37721
 H2383 H 1.26580 0.41334 0.35477
 H2384 H 1.21375 0.38210 0.41701
 C2385 C 0.77565 0.90502 0.36558
 C2386 C 0.76269 0.90643 0.38782
 C2387 C 0.73803 0.91991 0.38947
 C2388 C 0.72583 0.92030 0.41222
 H2389 H 0.77020 0.89708 0.40513
 H2390 H 0.72917 0.92772 0.37202
 H2391 H 0.76877 0.91533 0.34855
 H2392 H 0.73501 0.91136 0.42896
 C2393 C 0.76009 0.34648 0.87835
 C2394 C 0.74910 0.36934 0.87604
 C2395 C 0.72747 0.37631 0.89316
 C2396 C 0.71585 0.39877 0.89035
 H2397 H 0.75521 0.38260 0.86106
 H2398 H 0.72041 0.36243 0.90709
 H2399 H 0.75332 0.33392 0.89376
 H2400 H 0.72329 0.41175 0.87567
 C2401 C 0.73023 0.89375 1.13433
 C2402 C 0.74311 0.89260 1.11201
 C2403 C 0.76740 0.90654 1.10804
 C2404 C 0.77972 0.90409 1.08549
 H2405 H 0.73581 0.88089 1.09635
 H2406 H 0.77565 0.91744 1.12383
 H2407 H 0.73702 0.90629 1.14958
 H2408 H 0.77103 0.89221 1.07063
 C2409 C 0.71905 0.39092 0.59143
 C2410 C 0.73142 0.41183 0.59926
 C2411 C 0.75681 0.41780 0.58874
 C2412 C 0.77016 0.43812 0.59663
 H2413 H 0.72358 0.42385 0.61414
 H2414 H 0.76500 0.40428 0.57555
 H2415 H 0.72743 0.37944 0.57631
 H2416 H 0.76164 0.45064 0.61075
 C2417 C 0.21648 0.90319 0.62229
 C2418 C 0.23068 0.89939 0.60118
 C2419 C 0.25681 0.90951 0.59912
 C2420 C 0.27123 0.90295 0.57890
 H2421 H 0.22336 0.88787 0.58542
 H2422 H 0.26437 0.92102 0.61476
 H2423 H 0.22364 0.91545 0.63761
 H2424 H 0.26297 0.89046 0.56433
 C2425 C 0.23184 0.35637 1.11638
 C2426 C 0.24751 0.37634 1.11937
 C2427 C 0.27159 0.37913 1.10470
 C2428 C 0.28553 0.40026 1.10787
 H2429 H 0.24275 0.39115 1.13291
 H2430 H 0.27808 0.36388 1.09248
 H2431 H 0.23669 0.34222 1.10205
 H2432 H 0.27797 0.41465 1.12067
 C2433 C 0.72801 1.13320 0.89643
 C2434 C 0.74286 1.11284 0.89429
 C2435 C 0.76665 1.10984 0.90957
 C2436 C 0.77847 1.08750 0.90900
 H2437 H 0.73749 1.09772 0.88118
 H2438 H 0.77488 1.12591 0.91971
 H2439 H 0.73301 1.14737 0.91086
 H2440 H 0.76924 1.07224 0.89827
 C2441 C 0.73003 0.61842 0.36919
 C2442 C 0.74305 0.62228 0.39135
 C2443 C 0.76771 0.60981 0.39631
 C2444 C 0.78029 0.61352 0.41878
 H2445 H 0.73559 0.63476 0.40604
 H2446 H 0.77568 0.59831 0.38108
 H2447 H 0.73736 0.60516 0.35508
 H2448 H 0.77184 0.62591 0.43307
 C2449 C 0.22989 1.14454 0.38112
 C2450 C 0.23698 1.12028 0.38013
 C2451 C 0.25861 1.11163 0.39650
 C2452 C 0.26422 1.08705 0.39883
 H2453 H 0.22674 1.10681 0.36802
 H2454 H 0.27052 1.12572 0.40605
 H2455 H 0.24008 1.15689 0.39458
 H2456 H 0.25257 1.07339 0.38828
 C2457 C 0.24124 0.62766 0.88702
 C2458 C 0.24837 0.60356 0.88416
 C2459 C 0.27116 0.59463 0.89845
 C2460 C 0.27727 0.57012 0.89980
 H2461 H 0.23733 0.59048 0.87235
 H2462 H 0.28339 0.60864 0.90772
 H2463 H 0.25244 0.63951 0.90013
 H2464 H 0.26556 0.55640 0.88941
 C2465 C 1.10438 1.27107 1.14262
 C2466 C 1.10453 1.26074 1.11897
 C2467 C 1.09099 1.23687 1.11320
 C2468 C 1.09280 1.22698 1.08939
 H2469 H 1.11554 1.26973 1.10360
 H2470 H 1.08127 1.22679 1.12876
 H2471 H 1.09239 1.26295 1.15774
 H2472 H 1.10356 1.23747 1.07478
 C2473 C 1.12878 0.77829 0.59613
 C2474 C 1.10733 0.76451 0.59672
 C2475 C 1.10618 0.73853 0.58639
 C2476 C 1.08471 0.72504 0.58927
 H2477 H 1.09047 0.77221 0.60578
 H2478 H 1.12319 0.72998 0.57849
 H2479 H 1.14536 0.77106 0.58613
 H2480 H 1.06849 0.73408 0.59833
 C2481 C 0.62649 1.26994 0.60941
 C2482 C 0.60360 1.25866 0.61087
 C2483 C 0.59935 1.23365 0.59851
 C2484 C 0.57615 1.22284 0.59784
 H2485 H 0.58783 1.26839 0.61991
 H2486 H 0.61546 1.22397 0.59009
 H2487 H 0.64159 1.26042 0.59901
 H2488 H 0.56054 1.23242 0.60736
 C2489 C 0.63820 0.76965 1.10394
 C2490 C 0.61555 0.75767 1.10292
 C2491 C 0.61190 0.73330 1.08902
 C2492 C 0.58889 0.72197 1.08917
 H2493 H 0.59935 0.76579 1.11276
 H2494 H 0.62809 0.72412 1.08017
 H2495 H 0.65411 0.76196 1.09322
 H2496 H 0.57351 0.73153 1.09911
 C2497 C 0.85652 1.23212 0.84502
 C2498 C 0.86951 1.23425 0.86734
 C2499 C 0.88805 1.21499 0.87575
 C2500 C 0.90063 1.21761 0.89827
 H2501 H 0.86677 1.25088 0.87929
 H2502 H 0.89032 1.19791 0.86437
 H2503 H 0.86032 1.21650 0.83204
 H2504 H 0.89700 1.23396 0.91036
 C2505 C 0.86895 0.78288 0.40514
 C2506 C 0.89168 0.77126 0.40448
 C2507 C 0.89646 0.74643 0.41716
 C2508 C 0.91887 0.73485 0.41336
 H2509 H 0.90724 0.77992 0.39375
 H2510 H 0.88137 0.73730 0.42820
 H2511 H 0.85365 0.77469 0.41670
 H2512 H 0.93291 0.74433 0.40112
 C2513 C 0.34881 1.26575 0.39677
 C2514 C 0.37158 1.25431 0.39770
 C2515 C 0.37547 1.22900 0.40949
 C2516 C 0.39821 1.21781 0.40684
 H2517 H 0.38794 1.26357 0.38885
 H2518 H 0.35964 1.21922 0.41875
 H2519 H 0.33258 1.25718 0.40660
 H2520 H 0.41307 1.22799 0.39630
 C2521 C 0.38699 0.75969 0.86218
 C2522 C 0.38594 0.74654 0.88456
 C2523 C 0.39956 0.72228 0.88825
 C2524 C 0.39718 0.70952 0.91077
 H2525 H 0.37470 0.75361 0.90052
 H2526 H 0.41039 0.71457 0.87232
 H2527 H 0.39899 0.75291 0.84662
 H2528 H 0.38535 0.71769 0.92576
 C2529 C 1.14415 0.74300 0.89384
 C2530 C 1.11988 0.74994 0.89633
 C2531 C 1.11348 0.77312 0.91034
 C2532 C 1.08930 0.78074 0.91150
 H2533 H 1.10464 0.73848 0.88803
 H2534 H 1.12876 0.78477 0.91835
 H2535 H 1.15916 0.75405 0.90320
 H2536 H 1.07446 0.76960 0.90197
 C2537 C 1.13129 0.25822 0.37752
 C2538 C 1.10647 0.26230 0.38107
 C2539 C 1.09815 0.28360 0.39704
 C2540 C 1.07340 0.28754 0.40134
 H2541 H 1.09233 0.24944 0.37291
 H2542 H 1.11240 0.29674 0.40457
 H2543 H 1.14529 0.27040 0.38700
 H2544 H 1.05922 0.27514 0.39243
 C2545 C 0.63208 0.73719 0.39072
 C2546 C 0.60963 0.74888 0.38817
 C2547 C 0.60499 0.77344 0.40065
 C2548 C 0.58253 0.78498 0.39724
 H2549 H 0.59449 0.74046 0.37654
 H2550 H 0.62037 0.78242 0.41149
 H2551 H 0.64676 0.74537 0.40318
 H2552 H 0.56805 0.77571 0.38533
 C2553 C 0.60076 0.21648 0.86882
 C2554 C 0.60186 0.22760 0.89209
 C2555 C 0.58891 0.25170 0.89702
 C2556 C 0.59233 0.26324 0.91990
 H2557 H 0.61329 0.21931 0.90761
 H2558 H 0.57825 0.26063 0.88131
 H2559 H 0.58843 0.22417 0.85365
 H2560 H 0.60419 0.25408 0.93461
 C2561 C 0.87802 0.72625 1.09362
 C2562 C 0.90010 0.73890 1.09701
 C2563 C 0.90404 0.76478 1.08691
 C2564 C 0.92534 0.77769 1.09331
 H2565 H 0.91548 0.73042 1.10821
 H2566 H 0.88890 0.77347 1.07554
 H2567 H 0.86304 0.73444 1.08155
 H2568 H 0.93936 0.76858 1.10591
 C2569 C 0.88428 0.23920 0.64134
 C2570 C 0.88173 0.25260 0.61918
 C2571 C 0.89532 0.27686 0.61477
 C2572 C 0.89124 0.28994 0.59262
 H2573 H 0.86910 0.24580 0.60393
 H2574 H 0.90757 0.28426 0.63003
 H2575 H 0.89772 0.24558 0.65614
 H2576 H 0.87802 0.28203 0.57839
 C2577 C 0.37024 0.71677 0.59900
 C2578 C 0.39157 0.73077 0.60195
 C2579 C 0.39518 0.75556 0.58857
 C2580 C 0.41657 0.76914 0.59292
 H2581 H 0.40670 0.72410 0.61472
 H2582 H 0.38002 0.76287 0.57622
 H2583 H 0.35553 0.72327 0.58555
 H2584 H 0.43078 0.76115 0.60611
 C2585 C 0.38845 0.21259 1.10123
 C2586 C 0.40859 0.22674 1.10857
 C2587 C 0.41107 0.25337 1.09993
 C2588 C 0.43162 0.26734 1.10648
 H2589 H 0.42344 0.21881 1.12089
 H2590 H 0.39564 0.26139 1.08848
 H2591 H 0.37408 0.22092 1.08848
 H2592 H 0.44615 0.25876 1.11886
 C2593 C 1.10064 1.13588 0.72530
 C2594 C 1.10512 1.11510 0.73984
 C2595 C 1.09081 1.10939 0.76377
 C2596 C 1.09598 1.08805 0.77711
 H2597 H 1.11983 1.10190 0.73442
 H2598 H 1.07728 1.12311 0.77079
 H2599 H 1.08496 1.14815 0.73054
 H2600 H 1.11015 1.07533 0.76924
 C2601 C 1.13446 0.60713 0.21862
 C2602 C 1.11736 0.61555 0.23576
 C2603 C 1.11210 0.60101 0.26019
 C2604 C 1.09384 0.60862 0.27644
 H2605 H 1.10677 0.63274 0.23172
 H2606 H 1.12302 0.58410 0.26449
 H2607 H 1.14433 0.58961 0.22340
 H2608 H 1.08350 0.62567 0.27094
 C2609 C 0.64661 1.13334 0.24912
 C2610 C 0.62154 1.13315 0.25399
 C2611 C 0.61205 1.11667 0.27538
 C2612 C 0.58718 1.11226 0.27920
 H2613 H 0.60827 1.14398 0.24208
 H2614 H 0.62596 1.10820 0.28852
 H2615 H 0.65868 1.12110 0.26105
 H2616 H 0.57334 1.12175 0.26671
 C2617 C 0.63143 0.60288 0.72445
 C2618 C 0.60816 0.60129 0.73497
 C2619 C 0.60315 0.58607 0.75877
 C2620 C 0.57988 0.58640 0.76938
 H2621 H 0.59255 0.61188 0.72629
 H2622 H 0.61873 0.57619 0.76837
 H2623 H 0.64678 0.59151 0.73262
 H2624 H 0.56513 0.59748 0.75968
 C2625 C 0.89723 0.86941 0.72934
 C2626 C 0.89846 0.89253 0.73951
 C2627 C 0.91239 0.89709 0.76398
 C2628 C 0.91238 0.92017 0.77434
 H2629 H 0.88861 0.90814 0.73000
 H2630 H 0.92088 0.88122 0.77439
 H2631 H 0.90804 0.85409 0.73829
 H2632 H 0.90262 0.93538 0.76397
 C2633 C 0.89722 0.37880 0.22309
 C2634 C 0.89172 0.40018 0.23603
 C2635 C 0.90245 0.40560 0.26200
 C2636 C 0.89665 0.42729 0.27417
 H2637 H 0.87900 0.41420 0.22775
 H2638 H 0.91448 0.39140 0.27104
 H2639 H 0.91059 0.36549 0.23181
 H2640 H 0.88379 0.44046 0.26447
 C2641 C 0.38214 0.86098 0.23230
 C2642 C 0.38074 0.88523 0.23932
 C2643 C 0.39598 0.89366 0.26193
 C2644 C 0.39564 0.91760 0.26991
 H2645 H 0.36882 0.89859 0.22874
 H2646 H 0.40649 0.87960 0.27318
 H2647 H 0.39508 0.84872 0.24321
 H2648 H 0.38392 0.93127 0.25943
 C2649 C 0.39325 0.34929 0.72683
 C2650 C 0.39602 0.37200 0.73778
 C2651 C 0.41010 0.37539 0.76248
 C2652 C 0.41129 0.39844 0.77300
 H2653 H 0.38703 0.38837 0.72873
 H2654 H 0.41748 0.35897 0.77286
 H2655 H 0.40321 0.33306 0.73504
 H2656 H 0.40269 0.41418 0.76237
 C2657 C 1.07618 0.90603 1.29462
 C2658 C 1.08658 0.92292 1.27816
 C2659 C 1.07668 0.92547 1.25139
 C2660 C 1.09167 0.93543 1.23296
 H2661 H 1.10412 0.93281 1.28312
 H2662 H 1.05787 0.91802 1.24674
 H2663 H 1.05908 0.89588 1.28837
 H2664 H 1.11025 0.94292 1.23873
 C2665 C 1.15155 0.36888 0.75570
 C2666 C 1.12645 0.37043 0.75089
 C2667 C 1.11723 0.38827 0.73055
 C2668 C 1.09231 0.39151 0.72591
 H2669 H 1.11286 0.35888 0.76163
 H2670 H 1.13119 0.39797 0.71847
 H2671 H 1.16419 0.38149 0.74482
 H2672 H 1.07870 0.38075 0.73752
 C2673 C 0.60425 0.86451 0.77058
 C2674 C 0.60458 0.88735 0.75911
 C2675 C 0.59099 0.89208 0.73435
 C2676 C 0.59270 0.91492 0.72294
 H2677 H 0.61548 0.90270 0.76778
 H2678 H 0.58112 0.87653 0.72484
 H2679 H 0.59247 0.84949 0.76240
 H2680 H 0.60371 0.92964 0.73267
 C2681 C 0.60648 0.37870 1.29088
 C2682 C 0.61650 0.39541 1.27387
 C2683 C 0.60326 0.40062 1.24886
 C2684 C 0.61402 0.41528 1.23045
 H2685 H 0.63451 0.40489 1.27790
 H2686 H 0.58451 0.39233 1.24584
 H2687 H 0.58866 0.36928 1.28559
 H2688 H 0.63257 0.42373 1.23462
 C2689 C 0.89267 1.14204 1.26313
 C2690 C 0.89386 1.11791 1.25560
 C2691 C 0.90874 1.11102 1.23253
 C2692 C 0.90854 1.08717 1.22399
 H2693 H 0.88344 1.10325 1.26607
 H2694 H 0.91841 1.12587 1.22156
 H2695 H 0.90385 1.15633 1.25285
 H2696 H 0.89755 1.07296 1.23461
 C2697 C 0.85387 0.62967 0.77036
 C2698 C 0.87872 0.62871 0.76469
 C2699 C 0.88729 0.61263 0.74304
 C2700 C 0.91205 0.61041 0.73729
 H2701 H 0.89257 0.63947 0.77595
 H2702 H 0.87294 0.60328 0.73112
 H2703 H 0.84061 0.61797 0.75927
 H2704 H 0.92597 0.62090 0.74880
 C2705 C 0.36583 1.09361 0.77883
 C2706 C 0.38818 1.09119 0.76677
 C2707 C 0.39017 1.07869 0.74126
 C2708 C 0.41287 1.07788 0.72959
 H2709 H 0.40533 1.09910 0.77559
 H2710 H 0.37305 1.07199 0.73138
 H2711 H 0.34885 1.08474 0.77062
 H2712 H 0.42934 1.08580 0.73973
 C2713 C 0.39974 0.63297 1.27375
 C2714 C 0.39850 0.61092 1.26112
 C2715 C 0.41435 0.60583 1.23814
 C2716 C 0.41362 0.58264 1.22787
 H2717 H 0.38542 0.59616 1.26751
 H2718 H 0.42490 0.62119 1.22892
 H2719 H 0.41410 0.64685 1.26791
 H2720 H 0.40234 0.56816 1.23777
 C2721 C 1.15202 1.25817 0.87408
 C2722 C 1.12727 1.25176 0.87451
 C2723 C 1.11862 1.23077 0.89175
 C2724 C 1.09421 1.22311 0.89202
 H2725 H 1.11366 1.26133 0.86189
 H2726 H 1.13281 1.22056 0.90312
 H2727 H 1.16501 1.24830 0.88723
 H2728 H 1.08062 1.23298 0.87955
 C2729 C 1.09848 0.78416 0.37991
 C2730 C 1.10625 0.76918 0.39943
 C2731 C 1.09601 0.74308 0.40151
 C2732 C 1.09986 0.72913 0.42299
 H2733 H 1.11894 0.77653 0.41440
 H2734 H 1.08507 0.73553 0.38533
 H2735 H 1.08467 0.77677 0.36596
 H2736 H 1.11152 0.73715 0.43850
 C2737 C 0.61136 1.27830 0.41170
 C2738 C 0.59047 1.26534 0.40464
 C2739 C 0.58620 1.23974 0.41539
 C2740 C 0.56522 1.22632 0.40946
 H2741 H 0.57702 1.27312 0.39062
 H2742 H 0.60123 1.23160 0.42731
 H2743 H 0.62412 1.27015 0.42626
 H2744 H 0.55103 1.23484 0.39662
 C2745 C 0.63316 0.76787 0.89267
 C2746 C 0.61082 0.75554 0.88949
 C2747 C 0.60544 0.73093 0.90235
 C2748 C 0.58310 0.71888 0.89801
 H2749 H 0.59612 0.76348 0.87699
 H2750 H 0.62017 0.72254 0.91449
 H2751 H 0.64740 0.76014 0.90594
 H2752 H 0.56938 0.72774 0.88488
 C2753 C 0.87386 1.28038 1.10184
 C2754 C 0.89144 1.26330 1.10933
 C2755 C 0.89564 1.23950 1.09473
 C2756 C 0.91356 1.22319 1.10307
 H2757 H 0.90317 1.26668 1.12640
 H2758 H 0.88435 1.23572 1.07743
 H2759 H 0.86241 1.27634 1.08462
 H2760 H 0.92426 1.22830 1.12048
 C2761 C 0.87062 0.77339 0.60951
 C2762 C 0.89325 0.76210 0.61362
 C2763 C 0.89947 0.73743 0.60219
 C2764 C 0.92191 0.72623 0.60768
 H2765 H 0.90760 0.77095 0.62587
 H2766 H 0.88518 0.72822 0.59013
 H2767 H 0.85677 0.76481 0.59638
 H2768 H 0.93511 0.73556 0.62098
 C2769 C 0.35637 1.26409 0.60061
 C2770 C 0.37766 1.25023 0.60295
 C2771 C 0.38153 1.22646 0.58870
 C2772 C 0.40343 1.21392 0.59244
 H2773 H 0.39283 1.25613 0.61602
 H2774 H 0.36621 1.21884 0.57675
 H2775 H 0.34204 1.25863 0.58629
 H2776 H 0.41778 1.22238 0.60515
 C2777 C 0.38523 0.74786 1.13564
 C2778 C 0.38521 0.73795 1.11187
 C2779 C 0.40100 0.71564 1.10661
 C2780 C 0.40305 0.70704 1.08245
 H2781 H 0.37411 0.74637 1.09618
 H2782 H 0.40985 0.70548 1.12274
 H2783 H 0.39769 0.73950 1.15038
 H2784 H 0.39311 0.71693 1.06677
 C2785 C 0.85397 0.74778 0.88002
 C2786 C 0.87901 0.75211 0.88267
 C2787 C 0.88794 0.77391 0.89821
 C2788 C 0.91275 0.77954 0.90058
 H2789 H 0.89271 0.73966 0.87371
 H2790 H 0.87387 0.78629 0.90674
 H2791 H 0.84076 0.76014 0.88993
 H2792 H 0.92657 0.76788 0.89068
 C2793 C 0.85997 0.25622 0.35998
 C2794 C 0.86552 0.26291 0.38441
 C2795 C 0.87804 0.28770 0.38965
 C2796 C 0.88400 0.29470 0.41391
 H2797 H 0.86252 0.24942 0.40019
 H2798 H 0.88235 0.30041 0.37350
 H2799 H 0.86456 0.26938 0.34427
 H2800 H 0.87833 0.28250 0.43004
 C2801 C 0.36455 0.72941 0.38900
 C2802 C 0.38529 0.74399 0.38465
 C2803 C 0.39017 0.76780 0.39881
 C2804 C 0.41123 0.78152 0.39349
 H2805 H 0.39921 0.73864 0.37032
 H2806 H 0.37625 0.77419 0.41272
 H2807 H 0.35124 0.73507 0.40394
 H2808 H 0.42410 0.77451 0.37876
 C2809 C 0.40805 0.20951 0.87708
 C2810 C 0.40545 0.22295 0.89899
 C2811 C 0.41859 0.24738 0.90322
 C2812 C 0.41414 0.26016 0.92519
 H2813 H 0.39278 0.21639 0.91419
 H2814 H 0.43039 0.25519 0.88787
 H2815 H 0.42200 0.21571 0.86279
 H2816 H 0.40166 0.25142 0.93957
 C2817 C 1.12669 0.72007 1.10306
 C2818 C 1.11352 0.73819 1.11500
 C2819 C 1.10829 0.76240 1.10095
 C2820 C 1.09647 0.78156 1.11260
 H2821 H 1.10701 0.73555 1.13482
 H2822 H 1.11372 0.76421 1.08070
 H2823 H 1.13322 0.72408 1.08339
 H2824 H 1.09050 0.77881 1.13264
 C2825 C 1.12746 0.23170 0.60403
 C2826 C 1.10622 0.24528 0.60839
 C2827 C 1.10045 0.26935 0.59445
 C2828 C 1.07898 0.28197 0.60016
 H2829 H 1.09258 0.23897 0.62280
 H2830 H 1.11404 0.27684 0.58054
 H2831 H 1.14045 0.23818 0.58895
 H2832 H 1.06644 0.27366 0.61472
 C2833 C 0.60207 0.73031 0.63355
 C2834 C 0.60428 0.74325 0.61108
 C2835 C 0.59070 0.76727 0.60603
 C2836 C 0.59433 0.77967 0.58342
 H2837 H 0.61673 0.73625 0.59606
 H2838 H 0.57894 0.77507 0.62119
 H2839 H 0.58875 0.73671 0.64812
 H2840 H 0.60693 0.77119 0.56928
 C2841 C 0.65532 0.23318 1.12235
 C2842 C 0.63242 0.24420 1.12374
 C2843 C 0.62590 0.26614 1.10667
 C2844 C 0.60289 0.27682 1.10836
 H2845 H 0.61863 0.23775 1.13801
 H2846 H 0.64040 0.27443 1.09419
 H2847 H 0.66832 0.23988 1.10734
 H2848 H 0.58928 0.26817 1.12168
 C2849 C 1.27978 1.12802 0.90626
 C2850 C 1.26698 1.10610 0.90722
 C2851 C 1.24154 1.10411 0.91894
 C2852 C 1.22926 1.08184 0.91839
 H2853 H 1.27506 1.08945 0.89825
 H2854 H 1.23228 1.12106 0.92584
 H2855 H 1.27249 1.14446 0.91627
 H2856 H 1.23907 1.06562 0.91038
 C2857 C 1.27173 0.60565 0.36119
 C2858 C 1.25924 0.60654 0.38379
 C2859 C 1.23504 0.59246 0.38828
 C2860 C 1.22376 0.59400 0.41154
 H2861 H 1.26688 0.61810 0.39940
 H2862 H 1.22611 0.58218 0.37243
 H2863 H 1.26473 0.59320 0.34596
 H2864 H 1.23338 0.60511 0.42645
 C2865 C 0.77165 1.12119 0.36242
 C2866 C 0.75230 1.12894 0.37724
 C2867 C 0.73085 1.11149 0.38425
 C2868 C 0.71194 1.11953 0.39951
 H2869 H 0.75205 1.14829 0.38415
 H2870 H 0.73098 1.09208 0.37747
 H2871 H 0.77122 1.10184 0.35534
 H2872 H 0.71314 1.13891 0.40643
 C2873 C 0.73501 0.65059 0.86886
 C2874 C 0.73011 0.62572 0.86985
 C2875 C 0.70865 0.61565 0.88502
 C2876 C 0.70518 0.59063 0.88766
 H2877 H 0.74278 0.61251 0.86046
 H2878 H 0.69550 0.62882 0.89379
 H2879 H 0.72311 0.66355 0.87961
 H2880 H 0.71778 0.57779 0.87760
 C2881 C 1.28038 0.86056 1.10604
 C2882 C 1.26551 0.87978 1.11343
 C2883 C 1.24325 0.88800 1.09744
 C2884 C 1.22817 0.90676 1.10559
 H2885 H 1.26916 0.88909 1.13181
 H2886 H 1.23936 0.87853 1.07920
 H2887 H 1.27601 0.85115 1.08781
 H2888 H 1.23337 0.91606 1.12367
 C2889 C 1.26684 0.38553 0.63726
 C2890 C 1.25416 0.38595 0.61454
 C2891 C 1.23024 0.40025 0.61096
 C2892 C 1.21797 0.39948 0.58800
 H2893 H 1.26132 0.37529 0.59824
 H2894 H 1.22224 0.41012 0.62736
 H2895 H 1.26020 0.39706 0.65320
 H2896 H 1.22638 0.38855 0.57247
 C2897 C 0.77255 0.89501 0.63402
 C2898 C 0.75978 0.89371 0.61139
 C2899 C 0.73574 0.90781 0.60682
 C2900 C 0.72374 0.90602 0.58378
 H2901 H 0.76706 0.88203 0.59591
 H2902 H 0.72754 0.91856 0.62252
 H2903 H 0.76562 0.90749 0.64905
 H2904 H 0.73247 0.89439 0.56899
 C2905 C 0.78597 0.40693 1.11949
 C2906 C 0.77324 0.40587 1.09698
 C2907 C 0.74826 0.41827 1.09410
 C2908 C 0.73524 0.41632 1.07180
 H2909 H 0.78078 0.39504 1.08097
 H2910 H 0.73972 0.42702 1.11092
 H2911 H 0.77867 0.41862 1.13502
 H2912 H 0.74403 0.40648 1.05573
 C2913 C 0.76451 1.13020 1.15518
 C2914 C 0.76507 1.12321 1.13031
 C2915 C 0.78449 1.10575 1.12082
 C2916 C 0.78541 1.10032 1.09554
 H2917 H 0.75079 1.13038 1.11675
 H2918 H 0.79913 1.09878 1.13411
 H2919 H 0.77778 1.12193 1.16916
 H2920 H 0.77166 1.10879 1.08219
 C2921 C 0.73073 0.64612 0.60831
 C2922 C 0.74285 0.62392 0.60786
 C2923 C 0.76834 0.62115 0.59623
 C2924 C 0.78020 0.59886 0.59856
 H2925 H 0.73408 0.60740 0.61692
 H2926 H 0.77786 0.63745 0.58755
 H2927 H 0.73892 0.66246 0.59832
 H2928 H 0.77029 0.58339 0.60844
 C2929 C 0.22700 1.11432 0.63852
 C2930 C 0.23462 1.10620 0.61534
 C2931 C 0.25836 1.09141 0.61259
 C2932 C 0.26472 1.08231 0.58937
 H2933 H 0.22306 1.11043 0.59823
 H2934 H 0.27147 1.08959 0.62897
 H2935 H 0.23759 1.10874 0.65588
 H2936 H 0.25187 1.08550 0.57298
 C2937 C 0.21909 0.60217 1.08713
 C2938 C 0.23598 0.58627 1.09789
 C2939 C 0.25960 0.57964 1.08424
 C2940 C 0.27773 0.56650 1.09679
 H2941 H 0.23337 0.57941 1.11764
 H2942 H 0.26226 0.58623 1.06442
 H2943 H 0.22252 0.60954 1.06764
 H2944 H 0.27379 0.55979 1.11643
 C2945 C 0.72944 0.89140 0.86437
 C2946 C 0.74262 0.88999 0.88676
 C2947 C 0.76676 0.90434 0.89078
 C2948 C 0.77944 0.90194 0.91340
 H2949 H 0.73567 0.87793 0.90241
 H2950 H 0.77455 0.91569 0.87498
 H2951 H 0.73607 0.90422 0.84915
 H2952 H 0.77120 0.88964 0.92826
 C2953 C 0.72416 0.38110 0.40022
 C2954 C 0.73418 0.40423 0.39696
 C2955 C 0.75904 0.41036 0.40911
 C2956 C 0.76848 0.43395 0.40860
 H2957 H 0.72368 0.41872 0.38635
 H2958 H 0.76985 0.39519 0.41825
 H2959 H 0.73442 0.36732 0.41210
 H2960 H 0.75792 0.44864 0.39830
 C2961 C 0.20475 0.90345 0.38267
 C2962 C 0.22386 0.89113 0.39464
 C2963 C 0.24875 0.90397 0.39933
 C2964 C 0.26797 0.89177 0.41130
 H2965 H 0.22129 0.87162 0.40099
 H2966 H 0.25093 0.92369 0.39357
 H2967 H 0.20806 0.92285 0.37614
 H2968 H 0.26469 0.87231 0.41763
 C2969 C 0.27379 0.34853 0.84459
 C2970 C 0.27694 0.35073 0.87030
 C2971 C 0.29674 0.36741 0.88124
 C2972 C 0.29791 0.37131 0.90689
 H2973 H 0.26364 0.34150 0.88347
 H2974 H 0.31036 0.37649 0.86828
 H2975 H 0.28613 0.35917 0.83149
 H2976 H 0.28493 0.36105 0.91967
   
