data_POSCAR
  _audit_creation_date              2014-09-24
  _audit_creation_method            'ToBaCCo'
  _symmetry_space_group_name_H-M    'P1'
  _symmetry_Int_Tables_number       1
  _symmetry_cell_setting            triclinic
  loop_
  _symmetry_equiv_pos_as_xyz
 x,y,z
_cell_length_a 93.9580
_cell_length_b 94.0551
_cell_length_c 97.3481
_cell_angle_alpha 90.170200
_cell_angle_beta 89.940200
_cell_angle_gamma 89.817600
loop_
  _atom_site_label
  _atom_site_type_symbol
  _atom_site_fract_x
  _atom_site_fract_y
  _atom_site_fract_z
N1 N 0.35727 0.31918 0.33499
 N2 N 0.35653 0.32867 0.32514
 C3 C 0.36737 0.32641 0.31628
 C4 C 0.37529 0.31486 0.32083
 C5 C 0.36850 0.31060 0.33276
 H6 H 0.36925 0.33263 0.30714
 H7 H 0.37153 0.30196 0.33944
 Cu8 Cu 0.34139 0.34296 0.32488
 Cu9 Cu 0.34369 0.31841 0.35006
 Cu10 Cu 0.31739 0.34415 0.35055
 N11 N 0.32665 0.35765 0.32564
 N12 N 0.31742 0.35794 0.33578
 C13 C 0.30833 0.36881 0.33395
 C14 C 0.31192 0.37582 0.32197
 C15 C 0.32369 0.36845 0.31697
 H16 H 0.29975 0.37141 0.34092
 H17 H 0.32951 0.37064 0.30763
 N18 N 0.31898 0.32932 0.36463
 N19 N 0.32895 0.31944 0.36445
 C20 C 0.32706 0.31079 0.37531
 C21 C 0.31530 0.31545 0.38269
 C22 C 0.31049 0.32725 0.37557
 H23 H 0.33367 0.30167 0.37757
 H24 H 0.30148 0.33389 0.37817
 H25 H 0.32704 0.32774 0.33969
 H26 H 0.33903 0.33980 0.34962
 N27 N 0.35665 0.81712 -0.17080
 N28 N 0.35764 0.82848 -0.17854
 C29 C 0.36958 0.82753 -0.18619
 C30 C 0.37649 0.81480 -0.18306
 C31 C 0.36781 0.80853 -0.17323
 H32 H 0.37289 0.83552 -0.19346
 H33 H 0.36930 0.79843 -0.16817
 Cu34 Cu 0.34278 0.84302 -0.17803
 Cu35 Cu 0.34081 0.81410 -0.15829
 Cu36 Cu 0.32301 0.84508 -0.14934
 N37 N 0.32861 0.85799 -0.17553
 N38 N 0.32080 0.85863 -0.16435
 C39 C 0.31187 0.86980 -0.16519
 C40 C 0.31409 0.87663 -0.17767
 C41 C 0.32491 0.86876 -0.18391
 H42 H 0.30438 0.87264 -0.15721
 H43 H 0.32968 0.87055 -0.19385
 N44 N 0.32248 0.82766 -0.13808
 N45 N 0.32885 0.81575 -0.14181
 C46 C 0.32653 0.80577 -0.13222
 C47 C 0.31822 0.81161 -0.12185
 C48 C 0.31585 0.82555 -0.12598
 H49 H 0.33079 0.79510 -0.13273
 H50 H 0.30987 0.83363 -0.12056
 H51 H 0.32590 0.82992 -0.16373
 H52 H 0.34231 0.83516 -0.15421
 N53 N 0.85663 0.32043 -0.16438
 N54 N 0.85658 0.33009 -0.17410
 C55 C 0.86778 0.32780 -0.18249
 C56 C 0.87529 0.31603 -0.17782
 C57 C 0.86782 0.31167 -0.16627
 H58 H 0.87028 0.33426 -0.19132
 H59 H 0.87028 0.30280 -0.15966
 Cu60 Cu 0.84194 0.34481 -0.17484
 Cu61 Cu 0.84227 0.31985 -0.14987
 Cu62 Cu 0.81668 0.34634 -0.15046
 N63 N 0.82759 0.35987 -0.17469
 N64 N 0.81782 0.36029 -0.16505
 C65 C 0.80921 0.37148 -0.16715
 C66 C 0.81371 0.37866 -0.17881
 C67 C 0.82550 0.37090 -0.18331
 H68 H 0.80030 0.37406 -0.16060
 H69 H 0.83207 0.37304 -0.19217
 N70 N 0.81711 0.33138 -0.13645
 N71 N 0.82678 0.32121 -0.13612
 C72 C 0.82406 0.31269 -0.12529
 C73 C 0.81205 0.31776 -0.11850
 C74 C 0.80802 0.32964 -0.12592
 H75 H 0.83030 0.30344 -0.12261
 H76 H 0.79916 0.33663 -0.12376
 H77 H 0.82653 0.32970 -0.16094
 H78 H 0.83826 0.34131 -0.15027
 N79 N 0.85808 0.81603 0.33262
 N80 N 0.85961 0.82656 0.32393
 C81 C 0.87169 0.82458 0.31671
 C82 C 0.87808 0.81206 0.32108
 C83 C 0.86906 0.80693 0.33120
 H84 H 0.87542 0.83168 0.30879
 H85 H 0.87019 0.79720 0.33698
 Cu86 Cu 0.84518 0.84134 0.32236
 Cu87 Cu 0.84158 0.81468 0.34468
 Cu88 Cu 0.82331 0.84657 0.34912
 N89 N 0.83127 0.85668 0.32242
 N90 N 0.82265 0.85867 0.33288
 C91 C 0.81438 0.87010 0.33042
 C92 C 0.81797 0.87564 0.31763
 C93 C 0.82878 0.86673 0.31292
 H94 H 0.80648 0.87405 0.33756
 H95 H 0.83450 0.86742 0.30331
 N96 N 0.82157 0.83037 0.36185
 N97 N 0.82830 0.81819 0.35996
 C98 C 0.82497 0.80929 0.37026
 C99 C 0.81561 0.81616 0.37908
 C100 C 0.81366 0.82951 0.37336
 H101 H 0.82911 0.79861 0.37125
 H102 H 0.80710 0.83803 0.37736
 H103 H 0.82725 0.82975 0.33665
 H104 H 0.84289 0.83603 0.34676
 N105 N 0.63924 0.68308 0.33219
 N106 N 0.63935 0.67297 0.32285
 C107 C 0.62872 0.67540 0.31384
 C108 C 0.62159 0.68771 0.31778
 C109 C 0.62861 0.69224 0.32949
 H110 H 0.62642 0.66878 0.30503
 H111 H 0.62610 0.70143 0.33572
 Cu112 Cu 0.65342 0.65767 0.32346
 Cu113 Cu 0.65269 0.68375 0.34732
 Cu114 Cu 0.67833 0.65737 0.34831
 N115 N 0.66833 0.64317 0.32399
 N116 N 0.67796 0.64324 0.33376
 C117 C 0.68687 0.63221 0.33197
 C118 C 0.68272 0.62468 0.32041
 C119 C 0.67086 0.63200 0.31559
 H120 H 0.69568 0.62987 0.33871
 H121 H 0.66452 0.62939 0.30668
 N122 N 0.67701 0.67255 0.36216
 N123 N 0.66722 0.68261 0.36182
 C124 C 0.66906 0.69132 0.37268
 C125 C 0.68058 0.68650 0.38025
 C126 C 0.68534 0.67458 0.37321
 H127 H 0.66243 0.70043 0.37495
 H128 H 0.69429 0.66791 0.37587
 H129 H 0.66875 0.67325 0.33691
 H130 H 0.65685 0.66219 0.34794
 N131 N 0.64162 0.18503 -0.16400
 N132 N 0.64207 0.17696 -0.17502
 C133 C 0.63101 0.18024 -0.18320
 C134 C 0.62319 0.19102 -0.17699
 C135 C 0.63029 0.19377 -0.16480
 H136 H 0.62895 0.17525 -0.19301
 H137 H 0.62742 0.20148 -0.15702
 Cu138 Cu 0.65708 0.16302 -0.17779
 Cu139 Cu 0.65578 0.18369 -0.14949
 Cu140 Cu 0.67991 0.15599 -0.15198
 N141 N 0.66899 0.14611 -0.17784
 N142 N 0.67782 0.14340 -0.16774
 C143 C 0.68473 0.13116 -0.17040
 C144 C 0.68001 0.12581 -0.18292
 C145 C 0.66996 0.13569 -0.18730
 H146 H 0.69267 0.12666 -0.16367
 H147 H 0.66375 0.13542 -0.19663
 N148 N 0.68020 0.16995 -0.13686
 N149 N 0.67097 0.18050 -0.13591
 C150 C 0.67385 0.18816 -0.12456
 C151 C 0.68548 0.18216 -0.11799
 C152 C 0.68922 0.17063 -0.12614
 H153 H 0.66800 0.19752 -0.12142
 H154 H 0.69782 0.16321 -0.12434
 H155 H 0.67217 0.17450 -0.16068
 H156 H 0.65880 0.16216 -0.15292
 N157 N 0.13673 0.68236 -0.16869
 N158 N 0.13762 0.67233 -0.17806
 C159 C 0.12681 0.67374 -0.18696
 C160 C 0.11856 0.68527 -0.18302
 C161 C 0.12523 0.69051 -0.17133
 H162 H 0.12517 0.66691 -0.19574
 H163 H 0.12202 0.69955 -0.16517
 Cu164 Cu 0.15286 0.65847 -0.17783
 Cu165 Cu 0.15067 0.68389 -0.15389
 Cu166 Cu 0.17814 0.65887 -0.15359
 N167 N 0.16821 0.64473 -0.17793
 N168 N 0.17812 0.64473 -0.16841
 C169 C 0.18737 0.63405 -0.17105
 C170 C 0.18301 0.62712 -0.18293
 C171 C 0.17082 0.63420 -0.18693
 H172 H 0.19666 0.63166 -0.16492
 H173 H 0.16422 0.63174 -0.19570
 N174 N 0.17615 0.67410 -0.13961
 N175 N 0.16578 0.68361 -0.13982
 C176 C 0.16740 0.69256 -0.12912
 C177 C 0.17934 0.68855 -0.12176
 C178 C 0.18461 0.67678 -0.12874
 H179 H 0.16029 0.70129 -0.12679
 H180 H 0.19402 0.67071 -0.12619
 H181 H 0.16753 0.67455 -0.16432
 H182 H 0.15649 0.66265 -0.15339
 N183 N 0.14152 0.18335 0.33539
 N184 N 0.14193 0.17379 0.32552
 C185 C 0.13139 0.17660 0.31651
 C186 C 0.12407 0.18860 0.32100
 C187 C 0.13083 0.19252 0.33302
 H188 H 0.12930 0.17050 0.30731
 H189 H 0.12810 0.20132 0.33969
 Cu190 Cu 0.15642 0.15883 0.32551
 Cu191 Cu 0.15468 0.18349 0.35071
 Cu192 Cu 0.18040 0.15726 0.35116
 N193 N 0.17114 0.14409 0.32601
 N194 N 0.18038 0.14375 0.33612
 C195 C 0.18945 0.13289 0.33417
 C196 C 0.18584 0.12594 0.32215
 C197 C 0.17408 0.13333 0.31723
 H198 H 0.19799 0.13020 0.34112
 H199 H 0.16823 0.13114 0.30790
 N200 N 0.17876 0.17186 0.36550
 N201 N 0.16894 0.18188 0.36537
 C202 C 0.17064 0.19026 0.37647
 C203 C 0.18212 0.18527 0.38398
 C204 C 0.18699 0.17358 0.37667
 H205 H 0.16399 0.19931 0.37890
 H206 H 0.19599 0.16691 0.37918
 H207 H 0.17115 0.17370 0.34027
 H208 H 0.15891 0.16195 0.35025
 N209 N 0.64130 0.31876 0.66478
 N210 N 0.64136 0.32860 0.67437
 C211 C 0.63029 0.32644 0.68290
 C212 C 0.62284 0.31461 0.67840
 C213 C 0.63020 0.31002 0.66685
 H214 H 0.62792 0.33296 0.69177
 H215 H 0.62766 0.30106 0.66034
 Cu216 Cu 0.65591 0.34318 0.67473
 Cu217 Cu 0.65553 0.31815 0.65029
 Cu218 Cu 0.68187 0.34401 0.65078
 N219 N 0.67075 0.35744 0.67513
 N220 N 0.68093 0.35784 0.66588
 C221 C 0.68970 0.36876 0.66884
 C222 C 0.68473 0.37552 0.68063
 C223 C 0.67266 0.36801 0.68423
 H224 H 0.69906 0.37148 0.66295
 H225 H 0.66567 0.37014 0.69281
 N226 N 0.68076 0.32899 0.63646
 N227 N 0.67072 0.31920 0.63647
 C228 C 0.67257 0.31056 0.62561
 C229 C 0.68433 0.31502 0.61823
 C230 C 0.68928 0.32677 0.62547
 H231 H 0.66576 0.30167 0.62328
 H232 H 0.69835 0.33329 0.62290
 H233 H 0.67175 0.32804 0.66126
 H234 H 0.66044 0.33973 0.65029
 N235 N 0.64107 0.81991 1.16686
 N236 N 0.64218 0.82972 1.17642
 C237 C 0.63134 0.82829 1.18536
 C238 C 0.62294 0.81694 1.18119
 C239 C 0.62952 0.81191 1.16938
 H240 H 0.62970 0.83503 1.19423
 H241 H 0.62623 0.80309 1.16302
 Cu242 Cu 0.65768 0.84341 1.17621
 Cu243 Cu 0.65461 0.81821 1.15186
 Cu244 Cu 0.68194 0.84281 1.15062
 N245 N 0.67278 0.85748 1.17501
 N246 N 0.68226 0.85718 1.16508
 C247 C 0.69136 0.86808 1.16677
 C248 C 0.68735 0.87569 1.17838
 C249 C 0.67550 0.86860 1.18332
 H250 H 0.70012 0.87039 1.15994
 H251 H 0.66937 0.87126 1.19237
 N252 N 0.67974 0.82744 1.13694
 N253 N 0.66929 0.81813 1.13746
 C254 C 0.67060 0.80901 1.12685
 C255 C 0.68247 0.81270 1.11923
 C256 C 0.68799 0.82447 1.12596
 H257 H 0.66336 0.80037 1.12480
 H258 H 0.69740 0.83037 1.12316
 H259 H 0.67177 0.82735 1.16188
 H260 H 0.66025 0.83953 1.15157
 N261 N 0.14230 0.31743 1.16495
 N262 N 0.14231 0.32745 1.17437
 C263 C 0.13163 0.32495 1.18332
 C264 C 0.12463 0.31266 1.17924
 C265 C 0.13173 0.30826 1.16753
 H266 H 0.12923 0.33148 1.19219
 H267 H 0.12931 0.29912 1.16122
 Cu268 Cu 0.15646 0.34260 1.17383
 Cu269 Cu 0.15589 0.31674 1.15002
 Cu270 Cu 0.18178 0.34274 1.14907
 N271 N 0.17141 0.35692 1.17338
 N272 N 0.18120 0.35692 1.16372
 C273 C 0.19011 0.36787 1.16584
 C274 C 0.18574 0.37521 1.17748
 C275 C 0.17381 0.36789 1.18199
 H276 H 0.19907 0.37031 1.15931
 H277 H 0.16740 0.37028 1.19092
 N278 N 0.18044 0.32742 1.13522
 N279 N 0.17046 0.31762 1.13566
 C280 C 0.17221 0.30861 1.12507
 C281 C 0.18393 0.31281 1.11752
 C282 C 0.18888 0.32484 1.12426
 H283 H 0.16538 0.29965 1.12300
 H284 H 0.19803 0.33115 1.12150
 H285 H 0.17214 0.32717 1.16047
 H286 H 0.16041 0.33838 1.14937
 N287 N 0.14098 0.82077 0.66675
 N288 N 0.14356 0.82948 0.67700
 C289 C 0.13297 0.82858 0.68626
 C290 C 0.12315 0.81871 0.68158
 C291 C 0.12864 0.81399 0.66913
 H292 H 0.13255 0.83460 0.69572
 H293 H 0.12402 0.80625 0.66225
 Cu294 Cu 0.16047 0.84122 0.67734
 Cu295 Cu 0.15396 0.81878 0.65125
 Cu296 Cu 0.18160 0.84299 0.64941
 N297 N 0.17397 0.85651 0.67487
 N298 N 0.18229 0.85722 0.66404
 C299 C 0.19048 0.86891 0.66507
 C300 C 0.18702 0.87595 0.67718
 C301 C 0.17650 0.86770 0.68311
 H302 H 0.19821 0.87214 0.65748
 H303 H 0.17112 0.86959 0.69277
 N304 N 0.17885 0.82767 0.63574
 N305 N 0.16827 0.81851 0.63645
 C306 C 0.16929 0.80932 0.62588
 C307 C 0.18110 0.81279 0.61806
 C308 C 0.18689 0.82453 0.62465
 H309 H 0.16194 0.80072 0.62404
 H310 H 0.19637 0.83026 0.62174
 H311 H 0.17248 0.82647 0.66023
 H312 H 0.16014 0.83989 0.65247
 N313 N 0.36082 0.68107 0.66789
 N314 N 0.36023 0.67104 0.67723
 C315 C 0.37093 0.67293 0.68625
 C316 C 0.37868 0.68478 0.68235
 C317 C 0.37189 0.68965 0.67062
 H318 H 0.37297 0.66611 0.69494
 H319 H 0.37469 0.69882 0.66455
 Cu320 Cu 0.34553 0.65653 0.67668
 Cu321 Cu 0.34722 0.68223 0.65284
 Cu322 Cu 0.32062 0.65677 0.65186
 N323 N 0.33040 0.64246 0.67618
 N324 N 0.32069 0.64260 0.66648
 C325 C 0.31159 0.63179 0.66854
 C326 C 0.31579 0.62440 0.68020
 C327 C 0.32780 0.63155 0.68474
 H328 H 0.30260 0.62952 0.66200
 H329 H 0.33420 0.62902 0.69361
 N330 N 0.32238 0.67199 0.63802
 N331 N 0.33251 0.68166 0.63842
 C332 C 0.33097 0.69046 0.62763
 C333 C 0.31930 0.68617 0.62000
 C334 C 0.31413 0.67440 0.62694
 H335 H 0.33796 0.69925 0.62543
 H336 H 0.30500 0.66806 0.62417
 H337 H 0.33063 0.67244 0.66311
 H338 H 0.34218 0.66082 0.65219
 N339 N 0.35743 0.18051 1.16589
 N340 N 0.35747 0.17154 1.17621
 C341 C 0.36835 0.17486 1.18469
 C342 C 0.37543 0.18659 1.17936
 C343 C 0.36815 0.18978 1.16741
 H344 H 0.37082 0.16928 1.19408
 H345 H 0.37050 0.19818 1.16022
 Cu346 Cu 0.34310 0.15656 1.17744
 Cu347 Cu 0.34358 0.17988 1.15111
 Cu348 Cu 0.31880 0.15295 1.15228
 N349 N 0.32914 0.14111 1.17762
 N350 N 0.31985 0.13991 1.16761
 C351 C 0.31133 0.12879 1.17004
 C352 C 0.31530 0.12256 1.18230
 C353 C 0.32676 0.13066 1.18683
 H354 H 0.30282 0.12552 1.16330
 H355 H 0.33272 0.12920 1.19622
 N356 N 0.31930 0.16712 1.13755
 N357 N 0.32870 0.17747 1.13708
 C358 C 0.32613 0.18549 1.12591
 C359 C 0.31451 0.17993 1.11901
 C360 C 0.31050 0.16827 1.12672
 H361 H 0.33216 0.19481 1.12312
 H362 H 0.30182 0.16109 1.12459
 H363 H 0.32766 0.17028 1.16224
 H364 H 0.34016 0.15834 1.15263
 N365 N 0.85807 0.67866 1.16683
 N366 N 0.85798 0.66920 1.17674
 C367 C 0.86914 0.67167 1.18513
 C368 C 0.87662 0.68333 1.18020
 C369 C 0.86920 0.68742 1.16856
 H370 H 0.87161 0.66544 1.19412
 H371 H 0.87167 0.69610 1.16174
 Cu372 Cu 0.84327 0.65457 1.17765
 Cu373 Cu 0.84392 0.67912 1.15224
 Cu374 Cu 0.81845 0.65281 1.15286
 N375 N 0.82897 0.63946 1.17738
 N376 N 0.81942 0.63903 1.16755
 C377 C 0.81078 0.62791 1.16951
 C378 C 0.81499 0.62079 1.18125
 C379 C 0.82665 0.62847 1.18601
 H380 H 0.80201 0.62532 1.16283
 H381 H 0.83292 0.62627 1.19506
 N382 N 0.81899 0.66759 1.13874
 N383 N 0.82865 0.67770 1.13840
 C384 C 0.82606 0.68612 1.12747
 C385 C 0.81415 0.68103 1.12065
 C386 C 0.81002 0.66926 1.12812
 H387 H 0.83231 0.69532 1.12475
 H388 H 0.80121 0.66229 1.12591
 H389 H 0.82808 0.66954 1.16333
 H390 H 0.84005 0.65770 1.15300
 N391 N 0.86013 0.18036 0.67066
 N392 N 0.85858 0.17059 0.68015
 C393 C 0.86889 0.17213 0.68964
 C394 C 0.87740 0.18349 0.68592
 C395 C 0.87148 0.18845 0.67378
 H396 H 0.87022 0.16536 0.69849
 H397 H 0.87507 0.19734 0.66770
 Cu398 Cu 0.84341 0.15663 0.67917
 Cu399 Cu 0.84736 0.18178 0.65495
 Cu400 Cu 0.82061 0.15659 0.65251
 N401 N 0.82859 0.14238 0.67741
 N402 N 0.81973 0.14236 0.66699
 C403 C 0.81069 0.13137 0.66833
 C404 C 0.81406 0.12405 0.68026
 C405 C 0.82551 0.13141 0.68572
 H406 H 0.80233 0.12890 0.66110
 H407 H 0.83116 0.12903 0.69509
 N408 N 0.82323 0.17185 0.63889
 N409 N 0.83340 0.18144 0.63983
 C410 C 0.83240 0.19036 0.62907
 C411 C 0.82104 0.18623 0.62090
 C412 C 0.81550 0.17443 0.62752
 H413 H 0.83945 0.19922 0.62735
 H414 H 0.80648 0.16815 0.62432
 H415 H 0.82991 0.17244 0.66415
 H416 H 0.84218 0.16042 0.65442
 N417 N 0.31901 0.36152 0.66847
 N418 N 0.32880 0.36161 0.67809
 C419 C 0.32626 0.37262 0.68666
 C420 C 0.31421 0.37979 0.68213
 C421 C 0.30995 0.37239 0.67056
 H422 H 0.33264 0.37516 0.69556
 H423 H 0.30100 0.37479 0.66399
 Cu424 Cu 0.34390 0.34734 0.67829
 Cu425 Cu 0.31857 0.34748 0.65384
 Cu426 Cu 0.34464 0.32147 0.65429
 N427 N 0.35828 0.33234 0.67857
 N428 N 0.35840 0.32234 0.66913
 C429 C 0.36933 0.31344 0.67146
 C430 C 0.37658 0.31802 0.68304
 C431 C 0.36921 0.33009 0.68729
 H432 H 0.37183 0.30438 0.66506
 H433 H 0.37160 0.33676 0.69603
 N434 N 0.32979 0.32241 0.64011
 N435 N 0.31989 0.33237 0.63992
 C436 C 0.31137 0.33022 0.62902
 C437 C 0.31611 0.31831 0.62196
 C438 C 0.32783 0.31364 0.62933
 H439 H 0.30243 0.33691 0.62638
 H440 H 0.33438 0.30447 0.62709
 H441 H 0.32857 0.33165 0.66498
 H442 H 0.34013 0.34295 0.65384
 N443 N 0.31784 0.86200 0.16711
 N444 N 0.32806 0.86217 0.17628
 C445 C 0.32611 0.87336 0.18474
 C446 C 0.31398 0.88064 0.18064
 C447 C 0.30904 0.87305 0.16939
 H448 H 0.33302 0.87601 0.19322
 H449 H 0.29970 0.87530 0.16330
 Cu450 Cu 0.34283 0.84766 0.17628
 Cu451 Cu 0.31672 0.84754 0.15287
 Cu452 Cu 0.34268 0.82122 0.15274
 N453 N 0.35704 0.83265 0.17637
 N454 N 0.35705 0.82233 0.16723
 C455 C 0.36803 0.81348 0.16987
 C456 C 0.37526 0.81852 0.18132
 C457 C 0.36794 0.83071 0.18510
 H458 H 0.37044 0.80402 0.16398
 H459 H 0.37041 0.83774 0.19355
 N460 N 0.32713 0.82210 0.13902
 N461 N 0.31727 0.83212 0.13924
 C462 C 0.30818 0.82998 0.12879
 C463 C 0.31241 0.81802 0.12155
 C464 C 0.32453 0.81331 0.12833
 H465 H 0.29923 0.83679 0.12650
 H466 H 0.33091 0.80410 0.12573
 H467 H 0.32715 0.83160 0.16378
 H468 H 0.33832 0.84262 0.15208
 N469 N 0.81836 0.36015 0.16764
 N470 N 0.82778 0.36081 0.17758
 C471 C 0.82484 0.37210 0.18561
 C472 C 0.81291 0.37896 0.18048
 C473 C 0.80910 0.37101 0.16903
 H474 H 0.83097 0.37506 0.19454
 H475 H 0.80026 0.37292 0.16219
 Cu476 Cu 0.84299 0.34690 0.17905
 Cu477 Cu 0.81889 0.34524 0.15367
 Cu478 Cu 0.84592 0.32014 0.15634
 N479 N 0.85799 0.33277 0.18056
 N480 N 0.85914 0.32235 0.17161
 C481 C 0.87047 0.31426 0.17487
 C482 C 0.87678 0.31990 0.18654
 C483 C 0.86854 0.33164 0.18985
 H484 H 0.87379 0.30492 0.16921
 H485 H 0.87023 0.33895 0.19827
 N486 N 0.83150 0.31976 0.14164
 N487 N 0.82127 0.32934 0.14059
 C488 C 0.81328 0.32629 0.12950
 C489 C 0.81872 0.31420 0.12322
 C490 C 0.83027 0.31036 0.13124
 H491 H 0.80409 0.33236 0.12630
 H492 H 0.83737 0.30147 0.12954
 H493 H 0.82885 0.33014 0.16572
 H494 H 0.84052 0.34137 0.15469
 N495 N 0.81589 0.86283 0.66515
 N496 N 0.82548 0.86317 0.67494
 C497 C 0.82281 0.87437 0.68320
 C498 C 0.81089 0.88146 0.67830
 C499 C 0.80681 0.87377 0.66681
 H500 H 0.82902 0.87708 0.69216
 H501 H 0.79796 0.87600 0.66007
 Cu502 Cu 0.84050 0.84895 0.67584
 Cu503 Cu 0.81589 0.84825 0.65098
 Cu504 Cu 0.84253 0.82264 0.65236
 N505 N 0.85539 0.83461 0.67651
 N506 N 0.85618 0.82435 0.66736
 C507 C 0.86756 0.81611 0.67019
 C508 C 0.87430 0.82151 0.68176
 C509 C 0.86621 0.83327 0.68545
 H510 H 0.87068 0.80694 0.66419
 H511 H 0.86808 0.84042 0.69394
 N512 N 0.82765 0.82288 0.63803
 N513 N 0.81760 0.83269 0.63757
 C514 C 0.80912 0.83014 0.62675
 C515 C 0.81398 0.81812 0.61999
 C516 C 0.82579 0.81380 0.62744
 H517 H 0.80012 0.83668 0.62393
 H518 H 0.83247 0.80467 0.62538
 H519 H 0.82598 0.83259 0.66243
 H520 H 0.83758 0.84394 0.65143
 N521 N 0.68124 0.64153 0.66625
 N522 N 0.67153 0.64105 0.67595
 C523 C 0.67435 0.62993 0.68423
 C524 C 0.68649 0.62306 0.67945
 C525 C 0.69052 0.63078 0.66800
 H526 H 0.66806 0.62709 0.69310
 H527 H 0.69946 0.62869 0.66129
 Cu528 Cu 0.65617 0.65503 0.67662
 Cu529 Cu 0.68120 0.65590 0.65194
 Cu530 Cu 0.65443 0.68123 0.65313
 N531 N 0.64136 0.66959 0.67735
 N532 N 0.64077 0.67975 0.66813
 C533 C 0.62963 0.68830 0.67092
 C534 C 0.62278 0.68328 0.68255
 C535 C 0.63059 0.67137 0.68635
 H536 H 0.62684 0.69757 0.66497
 H537 H 0.62853 0.66445 0.69496
 N538 N 0.66925 0.68092 0.63876
 N539 N 0.67943 0.67124 0.63835
 C540 C 0.68779 0.67371 0.62739
 C541 C 0.68267 0.68553 0.62050
 C542 C 0.67089 0.68982 0.62805
 H543 H 0.69700 0.66739 0.62469
 H544 H 0.66392 0.69867 0.62584
 H545 H 0.67090 0.67135 0.66343
 H546 H 0.65955 0.65990 0.65223
 N547 N 0.67711 0.13794 0.17055
 N548 N 0.66570 0.13756 0.17834
 C549 C 0.66704 0.12707 0.18759
 C550 C 0.68001 0.12038 0.18552
 C551 C 0.68612 0.12757 0.17457
 H552 H 0.65906 0.12448 0.19518
 H553 H 0.69640 0.12555 0.16995
 Cu554 Cu 0.65013 0.15076 0.17583
 Cu555 Cu 0.67920 0.15199 0.15592
 Cu556 Cu 0.65359 0.17871 0.15474
 N557 N 0.63761 0.16704 0.17718
 N558 N 0.63877 0.17797 0.16889
 C559 C 0.62866 0.18761 0.17217
 C560 C 0.62086 0.18244 0.18319
 C561 C 0.62689 0.16934 0.18605
 H562 H 0.62726 0.19772 0.16706
 H563 H 0.62367 0.16194 0.19393
 N564 N 0.66951 0.17735 0.14146
 N565 N 0.67924 0.16721 0.14195
 C566 C 0.68844 0.16898 0.13149
 C567 C 0.68438 0.18082 0.12397
 C568 C 0.67229 0.18584 0.13065
 H569 H 0.69735 0.16201 0.12944
 H570 H 0.66591 0.19494 0.12784
 H571 H 0.66761 0.16711 0.16666
 H572 H 0.65801 0.15721 0.15283
 N573 N 0.18312 0.64186 0.17023
 N574 N 0.17178 0.64080 0.17804
 C575 C 0.17262 0.62871 0.18537
 C576 C 0.18523 0.62181 0.18197
 C577 C 0.19162 0.63056 0.17234
 H578 H 0.16460 0.62517 0.19256
 H579 H 0.20173 0.62894 0.16726
 Cu580 Cu 0.15732 0.65565 0.17805
 Cu581 Cu 0.18604 0.65786 0.15794
 Cu582 Cu 0.15480 0.67553 0.14955
 N583 N 0.14221 0.66958 0.17582
 N584 N 0.14124 0.67738 0.16468
 C585 C 0.12973 0.68588 0.16570
 C586 C 0.12312 0.68331 0.17821
 C587 C 0.13140 0.67287 0.18433
 H588 H 0.12641 0.69327 0.15784
 H589 H 0.12978 0.66806 0.19427
 N590 N 0.17216 0.67624 0.13809
 N591 N 0.18416 0.66993 0.14163
 C592 C 0.19407 0.67241 0.13197
 C593 C 0.18809 0.68071 0.12174
 C594 C 0.17415 0.68296 0.12604
 H595 H 0.20480 0.66827 0.13236
 H596 H 0.16598 0.68892 0.12076
 H597 H 0.17017 0.67267 0.16370
 H598 H 0.16489 0.65631 0.15412
 N599 N 0.17879 0.14013 0.67000
 N600 N 0.16929 0.14083 0.67991
 C601 C 0.17161 0.12999 0.68871
 C602 C 0.18323 0.12212 0.68406
 C603 C 0.18740 0.12894 0.67213
 H604 H 0.16540 0.12806 0.69786
 H605 H 0.19605 0.12600 0.66537
 Cu606 Cu 0.15495 0.15599 0.68018
 Cu607 Cu 0.17963 0.15370 0.65498
 Cu608 Cu 0.15385 0.17990 0.65453
 N609 N 0.14020 0.17074 0.67944
 N610 N 0.13996 0.17988 0.66926
 C611 C 0.12914 0.18903 0.67107
 C612 C 0.12210 0.18563 0.68309
 C613 C 0.12940 0.17385 0.68813
 H614 H 0.12662 0.19758 0.66409
 H615 H 0.12717 0.16816 0.69752
 N616 N 0.16877 0.17834 0.64046
 N617 N 0.17870 0.16841 0.64062
 C618 C 0.18748 0.17041 0.62984
 C619 C 0.18286 0.18220 0.62254
 C620 C 0.17094 0.18689 0.62962
 H621 H 0.19669 0.16389 0.62761
 H622 H 0.16431 0.19590 0.62709
 H623 H 0.17022 0.17033 0.66540
 H624 H 0.15822 0.15830 0.65544
 N625 N 0.32119 0.63763 0.33073
 N626 N 0.33220 0.63644 0.32247
 C627 C 0.32997 0.62578 0.31353
 C628 C 0.31684 0.61983 0.31631
 C629 C 0.31157 0.62761 0.32736
 H630 H 0.33744 0.62257 0.30565
 H631 H 0.30141 0.62625 0.33242
 Cu632 Cu 0.34842 0.64889 0.32385
 Cu633 Cu 0.32034 0.65237 0.34495
 Cu634 Cu 0.34692 0.67794 0.34378
 N635 N 0.36144 0.66449 0.32128
 N636 N 0.36096 0.67591 0.32905
 C637 C 0.37118 0.68497 0.32492
 C638 C 0.37838 0.67889 0.31389
 C639 C 0.37185 0.66587 0.31192
 H640 H 0.37309 0.69528 0.32949
 H641 H 0.37449 0.65790 0.30430
 N642 N 0.33172 0.67792 0.35783
 N643 N 0.32162 0.66821 0.35831
 C644 C 0.31315 0.67092 0.36920
 C645 C 0.31815 0.68292 0.37596
 C646 C 0.32995 0.68702 0.36839
 H647 H 0.30408 0.66453 0.37203
 H648 H 0.33692 0.69587 0.37051
 H649 H 0.33190 0.66634 0.33304
 H650 H 0.34182 0.65674 0.34685
 N651 N 0.32113 0.13889 0.82871
 N652 N 0.33097 0.13901 0.81910
 C653 C 0.32863 0.12825 0.81030
 C654 C 0.31667 0.12093 0.81451
 C655 C 0.31219 0.12797 0.82630
 H656 H 0.33526 0.12583 0.80152
 H657 H 0.30305 0.12546 0.83259
 Cu658 Cu 0.34597 0.15311 0.81886
 Cu659 Cu 0.32074 0.15303 0.84348
 Cu660 Cu 0.34759 0.17836 0.84308
 N661 N 0.36090 0.16731 0.81878
 N662 N 0.36148 0.17718 0.82833
 C663 C 0.37268 0.18567 0.82587
 C664 C 0.37953 0.18089 0.81411
 C665 C 0.37172 0.16920 0.80991
 H666 H 0.37548 0.19476 0.83211
 H667 H 0.37378 0.16251 0.80108
 N668 N 0.33262 0.17785 0.85718
 N669 N 0.32236 0.16830 0.85743
 C670 C 0.31387 0.17099 0.86832
 C671 C 0.31904 0.18283 0.87522
 C672 C 0.33094 0.18682 0.86783
 H673 H 0.30454 0.16489 0.87095
 H674 H 0.33797 0.19557 0.87008
 H675 H 0.33089 0.16881 0.83262
 H676 H 0.34227 0.15697 0.84339
 N677 N 0.82252 0.63863 0.83107
 N678 N 0.83379 0.63761 0.82311
 C679 C 0.83195 0.62698 0.81407
 C680 C 0.81880 0.62088 0.81641
 C681 C 0.81311 0.62851 0.82736
 H682 H 0.83967 0.62394 0.80636
 H683 H 0.80280 0.62705 0.83207
 Cu684 Cu 0.84978 0.65036 0.82479
 Cu685 Cu 0.82100 0.65340 0.84523
 Cu686 Cu 0.84703 0.67950 0.84438
 N687 N 0.86263 0.66620 0.82252
 N688 N 0.86151 0.67769 0.83014
 C689 C 0.87162 0.68700 0.82633
 C690 C 0.87948 0.68102 0.81570
 C691 C 0.87342 0.66778 0.81359
 H692 H 0.87299 0.69740 0.83089
 H693 H 0.87658 0.65982 0.80615
 N694 N 0.83155 0.67932 0.85802
 N695 N 0.82166 0.66939 0.85851
 C696 C 0.81300 0.67208 0.86928
 C697 C 0.81768 0.68432 0.87587
 C698 C 0.82946 0.68854 0.86840
 H699 H 0.80401 0.66558 0.87212
 H700 H 0.83627 0.69750 0.87054
 H701 H 0.83249 0.66734 0.83341
 H702 H 0.84230 0.65812 0.84756
 N703 N 0.82026 0.14001 0.32961
 N704 N 0.82787 0.14198 0.31845
 C705 C 0.82584 0.13109 0.30974
 C706 C 0.81642 0.12165 0.31567
 C707 C 0.81303 0.12771 0.32831
 H708 H 0.83096 0.13016 0.29984
 H709 H 0.80608 0.12339 0.33610
 Cu710 Cu 0.84034 0.15811 0.31632
 Cu711 Cu 0.82080 0.15349 0.34499
 Cu712 Cu 0.84722 0.17908 0.34332
 N713 N 0.85686 0.17029 0.31665
 N714 N 0.85963 0.17843 0.32728
 C715 C 0.87178 0.18554 0.32491
 C716 C 0.87697 0.18161 0.31207
 C717 C 0.86714 0.17188 0.30716
 H718 H 0.87646 0.19296 0.33207
 H719 H 0.86742 0.16623 0.29749
 N720 N 0.83351 0.17795 0.35860
 N721 N 0.82340 0.16828 0.35931
 C722 C 0.81566 0.17062 0.37078
 C723 C 0.82117 0.18235 0.37764
 C724 C 0.83248 0.18666 0.36952
 H725 H 0.80661 0.16430 0.37383
 H726 H 0.83939 0.19564 0.37128
 H727 H 0.82850 0.17112 0.33478
 H728 H 0.84182 0.15784 0.34114
 N729 N 0.67937 0.35801 0.33409
 N730 N 0.66960 0.35832 0.32445
 C731 C 0.67201 0.36957 0.31623
 C732 C 0.68395 0.37673 0.32097
 C733 C 0.68830 0.36900 0.33234
 H734 H 0.66549 0.37237 0.30750
 H735 H 0.69727 0.37116 0.33894
 Cu736 Cu 0.65461 0.34403 0.32380
 Cu737 Cu 0.67984 0.34358 0.34839
 Cu738 Cu 0.65373 0.31776 0.34712
 N739 N 0.64012 0.32922 0.32308
 N740 N 0.63996 0.31902 0.33226
 C741 C 0.62897 0.31031 0.32969
 C742 C 0.62172 0.31523 0.31824
 C743 C 0.62917 0.32731 0.31431
 H744 H 0.62645 0.30113 0.33584
 H745 H 0.62677 0.33423 0.30578
 N746 N 0.66855 0.31824 0.36141
 N747 N 0.67850 0.32809 0.36194
 C748 C 0.68688 0.32560 0.37291
 C749 C 0.68198 0.31360 0.37966
 C750 C 0.67034 0.30925 0.37200
 H751 H 0.69583 0.33213 0.37580
 H752 H 0.66362 0.30019 0.37396
 H753 H 0.66998 0.32810 0.33685
 H754 H 0.65837 0.33925 0.34817
 N755 N 0.68112 0.86011 0.83308
 N756 N 0.67134 0.86009 0.82346
 C757 C 0.67396 0.87090 0.81471
 C758 C 0.68608 0.87799 0.81915
 C759 C 0.69024 0.87080 0.83085
 H760 H 0.66764 0.87331 0.80575
 H761 H 0.69920 0.87320 0.83739
 Cu762 Cu 0.65631 0.84580 0.82354
 Cu763 Cu 0.68166 0.84626 0.84777
 Cu764 Cu 0.65580 0.82019 0.84786
 N765 N 0.64199 0.83085 0.82355
 N766 N 0.64185 0.82095 0.83305
 C767 C 0.63091 0.81208 0.83069
 C768 C 0.62372 0.81661 0.81905
 C769 C 0.63112 0.82858 0.81481
 H770 H 0.62836 0.80306 0.83707
 H771 H 0.62883 0.83511 0.80597
 N772 N 0.67091 0.82137 0.86193
 N773 N 0.68063 0.83144 0.86183
 C774 C 0.68951 0.82952 0.87247
 C775 C 0.68530 0.81760 0.87969
 C776 C 0.67339 0.81272 0.87271
 H777 H 0.69840 0.83635 0.87479
 H778 H 0.66713 0.80345 0.87517
 H779 H 0.67157 0.83007 0.83690
 H780 H 0.66002 0.84155 0.84800
 N781 N 0.18127 0.36101 0.83246
 N782 N 0.17142 0.36094 0.82289
 C783 C 0.17423 0.37150 0.81389
 C784 C 0.18656 0.37840 0.81809
 C785 C 0.19060 0.37144 0.82993
 H786 H 0.16793 0.37385 0.80488
 H787 H 0.19965 0.37383 0.83636
 Cu788 Cu 0.15620 0.34674 0.82340
 Cu789 Cu 0.18186 0.34756 0.84743
 Cu790 Cu 0.15610 0.32156 0.84820
 N791 N 0.14195 0.33161 0.82381
 N792 N 0.14209 0.32192 0.83352
 C793 C 0.13127 0.31285 0.83154
 C794 C 0.12383 0.31695 0.81993
 C795 C 0.13094 0.32896 0.81529
 H796 H 0.12893 0.30400 0.83820
 H797 H 0.12836 0.33524 0.80635
 N798 N 0.17121 0.32305 0.86215
 N799 N 0.18092 0.33312 0.86184
 C800 C 0.18988 0.33137 0.87244
 C801 C 0.18573 0.31955 0.87984
 C802 C 0.17378 0.31456 0.87302
 H803 H 0.19884 0.33818 0.87456
 H804 H 0.16758 0.30530 0.87560
 H805 H 0.17166 0.33128 0.83683
 H806 H 0.16021 0.34294 0.84788
 N807 N 0.17867 0.85893 0.33035
 N808 N 0.16837 0.85802 0.32127
 C809 C 0.16965 0.86874 0.31221
 C810 C 0.18137 0.87686 0.31581
 C811 C 0.18682 0.87026 0.32740
 H812 H 0.16249 0.87063 0.30373
 H813 H 0.19609 0.87337 0.33322
 Cu814 Cu 0.15419 0.84302 0.32239
 Cu815 Cu 0.18074 0.84544 0.34539
 Cu816 Cu 0.15574 0.81846 0.34734
 N817 N 0.14031 0.82773 0.32346
 N818 N 0.14099 0.81818 0.33326
 C819 C 0.13022 0.80891 0.33171
 C820 C 0.12229 0.81281 0.32030
 C821 C 0.12908 0.82484 0.31534
 H822 H 0.12837 0.79999 0.33844
 H823 H 0.12610 0.83106 0.30649
 N824 N 0.17147 0.82054 0.36060
 N825 N 0.18102 0.83077 0.35984
 C826 C 0.19030 0.82932 0.37029
 C827 C 0.18643 0.81762 0.37806
 C828 C 0.17442 0.81234 0.37157
 H829 H 0.19914 0.83636 0.37220
 H830 H 0.16834 0.80312 0.37453
 H831 H 0.17092 0.82862 0.33556
 H832 H 0.15949 0.84008 0.34675
 O833 O 0.27043 0.98792 0.25570
 O834 O 0.24923 1.01612 0.27264
 O835 O 0.25037 0.98840 0.27410
 O836 O 0.27050 1.01567 0.25562
 O837 O 0.25466 1.01530 0.23893
 O838 O 0.23484 0.98712 0.25717
 O839 O 0.23338 1.01487 0.25598
 O840 O 0.25484 0.98756 0.23879
 Cu841 Cu 0.26168 1.00210 0.26621
 Cu842 Cu 0.24287 1.00114 0.24604
 C843 C 0.26616 0.98291 0.24428
 C844 C 0.23770 1.02037 0.26713
 C845 C 0.23934 0.98291 0.26880
 C846 C 0.26598 1.02032 0.24421
 O847 O 0.25214 0.51586 0.77309
 O848 O 0.27173 0.48917 0.75319
 O849 O 0.27143 0.51689 0.75392
 O850 O 0.25065 0.48822 0.77040
 O851 O 0.23440 0.49014 0.75418
 O852 O 0.25552 0.51773 0.73730
 O853 O 0.25547 0.48994 0.73688
 O854 O 0.23631 0.51777 0.75648
 Cu855 Cu 0.26306 0.50240 0.76430
 Cu856 Cu 0.24383 0.50404 0.74458
 C857 C 0.24105 0.52160 0.76816
 C858 C 0.26692 0.48477 0.74178
 C859 C 0.26693 0.52222 0.74272
 C860 C 0.23896 0.48425 0.76501
 O861 O 0.74566 -0.01625 0.27159
 O862 O 0.72940 0.01229 0.25075
 O863 O 0.72776 -0.01544 0.25123
 O864 O 0.74622 0.01148 0.27182
 O865 O 0.76433 0.01090 0.25740
 O866 O 0.74597 -0.01666 0.23696
 O867 O 0.74746 0.01105 0.23630
 O868 O 0.76384 -0.01690 0.25726
 Cu869 Cu 0.73543 -0.00191 0.26277
 Cu870 Cu 0.75723 -0.00300 0.24556
 C871 C 0.75756 -0.02150 0.26790
 C872 C 0.73574 0.01662 0.24000
 C873 C 0.73369 -0.02080 0.24069
 C874 C 0.75832 0.01598 0.26807
 O875 O 0.75140 0.48658 0.72912
 O876 O 0.76758 0.51424 0.75087
 O877 O 0.77004 0.48658 0.74881
 O878 O 0.74895 0.51421 0.73126
 O879 O 0.73173 0.51163 0.74646
 O880 O 0.75285 0.48424 0.76408
 O881 O 0.75036 0.51179 0.76608
 O882 O 0.73426 0.48402 0.74441
 Cu883 Cu 0.76122 0.50066 0.73849
 Cu884 Cu 0.74058 0.49765 0.75677
 C885 C 0.74012 0.48044 0.73314
 C886 C 0.76166 0.51789 0.76209
 C887 C 0.76496 0.48059 0.75942
 C888 C 0.73681 0.51777 0.73594
 O889 O 0.26108 0.51238 0.25507
 O890 O 0.24265 0.48410 0.23566
 O891 O 0.24162 0.51186 0.23622
 O892 O 0.26312 0.48469 0.25356
 O893 O 0.24681 0.48301 0.26978
 O894 O 0.22556 0.51093 0.25273
 O895 O 0.22630 0.48316 0.25189
 O896 O 0.24505 0.51066 0.27154
 Cu897 Cu 0.25373 0.49839 0.24349
 Cu898 Cu 0.23431 0.49678 0.26312
 C899 C 0.25612 0.51642 0.26661
 C900 C 0.23130 0.47876 0.24053
 C901 C 0.23008 0.51625 0.24155
 C902 C 0.25859 0.47905 0.26454
 O903 O 0.76727 0.98918 0.75090
 O904 O 0.74754 1.01572 0.77085
 O905 O 0.74679 0.98810 0.76864
 O906 O 0.76718 1.01676 0.75210
 O907 O 0.75113 1.01776 0.73561
 O908 O 0.73043 0.98968 0.75248
 O909 O 0.73147 1.01742 0.75443
 O910 O 0.75099 0.99000 0.73462
 Cu911 Cu 0.75878 1.00233 0.76228
 Cu912 Cu 0.73938 1.00386 0.74264
 C913 C 0.76249 0.98488 0.73945
 C914 C 0.73628 1.02128 0.76607
 C915 C 0.73517 0.98390 0.76332
 C916 C 0.76262 1.02216 0.74097
 O917 O 0.76502 0.48659 0.25198
 O918 O 0.74358 0.51439 0.26899
 O919 O 0.74385 0.48655 0.26910
 O920 O 0.76546 0.51429 0.25274
 O921 O 0.75069 0.51453 0.23515
 O922 O 0.72904 0.48666 0.25154
 O923 O 0.72877 0.51450 0.25142
 O924 O 0.75019 0.48682 0.23443
 Cu925 Cu 0.75592 0.50043 0.26249
 Cu926 Cu 0.73819 0.50066 0.24138
 C927 C 0.76119 0.48187 0.24031
 C928 C 0.73260 0.51934 0.26303
 C929 C 0.73290 0.48169 0.26309
 C930 C 0.76174 0.51923 0.24117
 O931 O 0.24291 -0.01542 0.73587
 O932 O 0.26195 0.01168 0.75605
 O933 O 0.26304 -0.01602 0.75409
 O934 O 0.24218 0.01230 0.73760
 O935 O 0.22605 0.01104 0.75402
 O936 O 0.24689 -0.01771 0.77045
 O937 O 0.24590 0.01001 0.77251
 O938 O 0.22666 -0.01673 0.75217
 Cu939 Cu 0.25414 -0.00173 0.74427
 Cu940 Cu 0.23475 -0.00353 0.76392
 C941 C 0.23153 -0.02077 0.74062
 C942 C 0.25710 0.01562 0.76766
 C943 C 0.25852 -0.02183 0.76501
 C944 C 0.23068 0.01670 0.74304
 O945 O 0.24958 0.26406 0.98281
 O946 O 0.27107 0.24621 1.00923
 O947 O 0.26892 0.24437 0.98248
 O948 O 0.25194 0.26610 1.00940
 O949 O 0.23524 0.24983 1.01163
 O950 O 0.25225 0.22809 0.98471
 O951 O 0.25434 0.22998 1.01145
 O952 O 0.23287 0.24781 0.98503
 Cu953 Cu 0.26207 0.25679 0.99573
 Cu954 Cu 0.24202 0.23727 0.99843
 C955 C 0.23760 0.25896 0.97933
 C956 C 0.26625 0.23515 1.01504
 C957 C 0.26343 0.23263 0.97884
 C958 C 0.24073 0.26160 1.01522
 O959 O 0.24736 0.76252 0.48381
 O960 O 0.26666 0.74281 0.51089
 O961 O 0.26607 0.74219 0.48388
 O962 O 0.24858 0.76371 0.51062
 O963 O 0.23128 0.74797 0.51198
 O964 O 0.24851 0.72672 0.48463
 O965 O 0.24934 0.72706 0.51152
 O966 O 0.22981 0.74707 0.48520
 Cu967 Cu 0.25894 0.75433 0.49720
 Cu968 Cu 0.23801 0.73564 0.49843
 C969 C 0.23526 0.75808 0.47984
 C970 C 0.26118 0.73163 0.51594
 C971 C 0.26018 0.73094 0.47945
 C972 C 0.23705 0.75946 0.51603
 O973 O 0.26827 0.75015 -0.01391
 O974 O 0.24880 0.73075 0.01340
 O975 O 0.24937 0.73002 -0.01351
 O976 O 0.26935 0.74919 0.01298
 O977 O 0.25260 0.76565 0.01388
 O978 O 0.23317 0.74703 -0.01392
 O979 O 0.23210 0.74726 0.01292
 O980 O 0.25204 0.76711 -0.01293
 Cu981 Cu 0.26058 0.73836 -0.00029
 Cu982 Cu 0.24085 0.75842 0.00001
 C983 C 0.26336 0.76201 -0.01809
 C984 C 0.23707 0.73581 0.01783
 C985 C 0.23806 0.73529 -0.01848
 C986 C 0.26432 0.76051 0.01820
 O987 O 0.24125 0.23878 0.49042
 O988 O 0.26115 0.25835 0.51665
 O989 O 0.26086 0.25795 0.48987
 O990 O 0.24189 0.23876 0.51717
 O991 O 0.25844 0.22208 0.51692
 O992 O 0.27753 0.24138 0.48973
 O993 O 0.27780 0.24176 0.51657
 O994 O 0.25782 0.22211 0.49011
 Cu995 Cu 0.24963 0.25013 0.50356
 Cu996 Cu 0.26957 0.23016 0.50332
 C997 C 0.24617 0.22720 0.48563
 C998 C 0.27278 0.25338 0.52122
 C999 C 0.27237 0.25287 0.48501
 C1000 C 0.24696 0.22718 0.52179
 O1001 O 0.74786 0.76395 0.98426
 O1002 O 0.76971 0.74650 1.01066
 O1003 O 0.76746 0.74458 0.98391
 O1004 O 0.75009 0.76593 1.01089
 O1005 O 0.73365 0.74941 1.01314
 O1006 O 0.75109 0.72800 0.98616
 O1007 O 0.75325 0.73000 1.01294
 O1008 O 0.73142 0.74743 0.98646
 Cu1009 Cu 0.76044 0.75688 0.99719
 Cu1010 Cu 0.74072 0.73703 0.99991
 C1011 C 0.73599 0.75864 0.98073
 C1012 C 0.76508 0.73537 1.01651
 C1013 C 0.76215 0.73276 0.98025
 C1014 C 0.73896 0.76126 1.01673
 O1015 O 0.75494 0.26717 0.48482
 O1016 O 0.77214 0.24584 0.51193
 O1017 O 0.77197 0.24534 0.48495
 O1018 O 0.75533 0.26773 0.51171
 O1019 O 0.73685 0.25334 0.51204
 O1020 O 0.75346 0.23098 0.48534
 O1021 O 0.75365 0.23146 0.51220
 O1022 O 0.73648 0.25277 0.48520
 Cu1023 Cu 0.76547 0.25794 0.49829
 Cu1024 Cu 0.74327 0.24071 0.49873
 C1025 C 0.74280 0.26353 0.48027
 C1026 C 0.76572 0.23512 0.51687
 C1027 C 0.76549 0.23444 0.48042
 C1028 C 0.74330 0.26424 0.51659
 O1029 O 0.76621 0.25063 -0.00978
 O1030 O 0.74507 0.23369 0.01748
 O1031 O 0.74525 0.23271 -0.00949
 O1032 O 0.76536 0.25237 0.01709
 O1033 O 0.74986 0.26995 0.01564
 O1034 O 0.72943 0.25007 -0.00999
 O1035 O 0.72958 0.25133 0.01678
 O1036 O 0.75035 0.26790 -0.01111
 Cu1037 Cu 0.75703 0.24059 0.00394
 Cu1038 Cu 0.73826 0.26155 0.00273
 C1039 C 0.76178 0.26203 -0.01529
 C1040 C 0.73385 0.23968 0.02197
 C1041 C 0.73391 0.23814 -0.01434
 C1042 C 0.76095 0.26455 0.02095
 O1043 O 0.73931 0.74131 0.48665
 O1044 O 0.75946 0.76054 0.51308
 O1045 O 0.75909 0.76042 0.48623
 O1046 O 0.73956 0.74159 0.51350
 O1047 O 0.75588 0.72468 0.51333
 O1048 O 0.77541 0.74352 0.48618
 O1049 O 0.77583 0.74368 0.51302
 O1050 O 0.75560 0.72438 0.48654
 Cu1051 Cu 0.74773 0.75267 0.49987
 Cu1052 Cu 0.76732 0.73237 0.49975
 C1053 C 0.74407 0.72962 0.48196
 C1054 C 0.77098 0.75534 0.51773
 C1055 C 0.77051 0.75511 0.48142
 C1056 C 0.74447 0.72997 0.51818
 O1057 O 0.98758 0.25222 0.23196
 O1058 O 1.01461 0.23260 0.25113
 O1059 O 0.98690 0.23371 0.25172
 O1060 O 1.01529 0.25286 0.23312
 O1061 O 1.01453 0.26984 0.24878
 O1062 O 0.98744 0.25024 0.26782
 O1063 O 1.01517 0.24955 0.26682
 O1064 O 0.98678 0.26876 0.24806
 Cu1065 Cu 1.00109 0.24119 0.24039
 Cu1066 Cu 1.00096 0.26126 0.25946
 C1067 C 0.98238 0.26368 0.23670
 C1068 C 1.01972 0.23773 0.26211
 C1069 C 0.98237 0.23877 0.26305
 C1070 C 1.01976 0.26467 0.23785
 O1071 O 0.51470 0.27545 0.75295
 O1072 O 0.48756 0.25584 0.77238
 O1073 O 0.51526 0.25518 0.77102
 O1074 O 0.48690 0.27589 0.75410
 O1075 O 0.48612 0.25987 0.73754
 O1076 O 0.51405 0.23904 0.75458
 O1077 O 0.48640 0.23990 0.75576
 O1078 O 0.51387 0.25925 0.73655
 Cu1079 Cu 0.50122 0.26722 0.76427
 Cu1080 Cu 0.50001 0.24793 0.74443
 C1081 C 0.51908 0.27060 0.74150
 C1082 C 0.48223 0.24459 0.76734
 C1083 C 0.51953 0.24357 0.76567
 C1084 C 0.48155 0.27131 0.74295
 O1085 O -0.01487 0.23763 0.74871
 O1086 O 0.01296 0.25743 0.76770
 O1087 O -0.01500 0.25749 0.76736
 O1088 O 0.01283 0.23620 0.75057
 O1089 O 0.01437 0.25208 0.73401
 O1090 O -0.01441 0.27306 0.75049
 O1091 O 0.01345 0.27333 0.75111
 O1092 O -0.01325 0.25321 0.73190
 Cu1093 Cu -0.00114 0.24566 0.76028
 Cu1094 Cu 0.00015 0.26449 0.74023
 C1095 C -0.01878 0.24212 0.73697
 C1096 C 0.01803 0.26876 0.76252
 C1097 C -0.01970 0.26872 0.76176
 C1098 C 0.01851 0.24052 0.73952
 O1099 O 0.48367 0.27407 0.24655
 O1100 O 0.51106 0.25475 0.22703
 O1101 O 0.48332 0.25318 0.22896
 O1102 O 0.51154 0.27446 0.24576
 O1103 O 0.51247 0.25857 0.26235
 O1104 O 0.48512 0.23715 0.24535
 O1105 O 0.51282 0.23895 0.24364
 O1106 O 0.48467 0.25796 0.26293
 Cu1107 Cu 0.49723 0.26570 0.23543
 Cu1108 Cu 0.49891 0.24658 0.25521
 C1109 C 0.47931 0.26926 0.25796
 C1110 C 0.51683 0.24371 0.23204
 C1111 C 0.47937 0.24153 0.23436
 C1112 C 0.51692 0.26999 0.25694
 O1113 O 1.01204 0.77206 0.74365
 O1114 O 0.98398 0.75565 0.76478
 O1115 O 1.01169 0.75597 0.76524
 O1116 O 0.98417 0.77199 0.74334
 O1117 O 0.98446 0.75308 0.72988
 O1118 O 1.01205 0.73707 0.75178
 O1119 O 0.98436 0.73678 0.75128
 O1120 O 1.01222 0.75315 0.73020
 Cu1121 Cu 0.99793 0.76585 0.75557
 Cu1122 Cu 0.99832 0.74313 0.73943
 C1123 C 1.01704 0.76532 0.73338
 C1124 C 0.97932 0.74341 0.76158
 C1125 C 1.01665 0.74378 0.76221
 C1126 C 0.97946 0.76524 0.73298
 O1127 O 0.48563 0.74756 0.26120
 O1128 O 0.51311 0.76433 0.24006
 O1129 O 0.48526 0.76457 0.24025
 O1130 O 0.51333 0.74598 0.25985
 O1131 O 0.51202 0.72794 0.24539
 O1132 O 0.48474 0.74675 0.22549
 O1133 O 0.51254 0.74630 0.22554
 O1134 O 0.48429 0.72974 0.24648
 Cu1135 Cu 0.49941 0.75741 0.25178
 Cu1136 Cu 0.49830 0.73589 0.23427
 C1137 C 0.48011 0.73589 0.25744
 C1138 C 0.51774 0.75816 0.22935
 C1139 C 0.48016 0.75876 0.22952
 C1140 C 0.51752 0.73376 0.25589
 O1141 O -0.01365 0.76497 0.25012
 O1142 O 0.01401 0.74401 0.23246
 O1143 O -0.01386 0.74380 0.23298
 O1144 O 0.01410 0.76489 0.24992
 O1145 O 0.01439 0.74969 0.26712
 O1146 O -0.01361 0.72862 0.25019
 O1147 O 0.01428 0.72878 0.24964
 O1148 O -0.01343 0.74980 0.26736
 Cu1149 Cu 0.00012 0.75591 0.23964
 Cu1150 Cu 0.00044 0.73769 0.26029
 C1151 C -0.01837 0.76094 0.26170
 C1152 C 0.01903 0.73291 0.23809
 C1153 C -0.01867 0.73270 0.23876
 C1154 C 0.01912 0.76083 0.26138
 O1155 O 0.48682 0.74199 0.74116
 O1156 O 0.51476 0.76090 0.76040
 O1157 O 0.48689 0.76121 0.76034
 O1158 O 0.51466 0.74173 0.74118
 O1159 O 0.51473 0.75860 0.72549
 O1160 O 0.48700 0.77808 0.74466
 O1161 O 0.51484 0.77779 0.74474
 O1162 O 0.48701 0.75885 0.72546
 Cu1163 Cu 0.50077 0.74978 0.75235
 Cu1164 Cu 0.50091 0.77003 0.73353
 C1165 C 0.48206 0.74724 0.73006
 C1166 C 0.51971 0.77250 0.75578
 C1167 C 0.48206 0.77288 0.75570
 C1168 C 0.51952 0.74690 0.73009
 C1169 C 0.40532 0.28891 0.31327
 C1170 C 0.41283 0.29561 0.30248
 C1171 C 0.40750 0.30881 0.29767
 C1172 C 0.39534 0.31504 0.30366
 C1173 C 0.38813 0.30831 0.31444
 C1174 C 0.39325 0.29517 0.31910
 C1175 C 0.41429 0.31575 0.28689
 C1176 C 0.42618 0.30984 0.28057
 C1177 C 0.43191 0.29669 0.28490
 C1178 C 0.42530 0.28959 0.29621
 C1179 C 0.43140 0.27675 0.30093
 C1180 C 0.44325 0.27081 0.29461
 C1181 C 0.44954 0.27732 0.28330
 C1182 C 0.44404 0.29038 0.27828
 C1183 C 0.45083 0.29643 0.26669
 C1184 C 0.46235 0.28969 0.26035
 C1185 C 0.46763 0.27673 0.26529
 C1186 C 0.46124 0.27071 0.27690
 H1187 H 0.40833 0.27874 0.31739
 H1188 H 0.39157 0.32520 0.29991
 H1189 H 0.38788 0.28950 0.32722
 H1190 H 0.41030 0.32588 0.28319
 H1191 H 0.43067 0.31597 0.27234
 H1192 H 0.42733 0.27099 0.30961
 H1193 H 0.44748 0.26090 0.29857
 H1194 H 0.44740 0.30625 0.26209
 H1195 H 0.46706 0.29462 0.25139
 H1196 H 0.46518 0.26066 0.28082
 C1197 C 0.40743 0.79067 0.81057
 C1198 C 0.41491 0.79770 0.79998
 C1199 C 0.40925 0.81076 0.79520
 C1200 C 0.39669 0.81647 0.80092
 C1201 C 0.38930 0.80930 0.81138
 C1202 C 0.39495 0.79635 0.81610
 C1203 C 0.41607 0.81805 0.78463
 C1204 C 0.42823 0.81254 0.77845
 C1205 C 0.43421 0.79947 0.78267
 C1206 C 0.42764 0.79211 0.79386
 C1207 C 0.43402 0.77940 0.79856
 C1208 C 0.44603 0.77377 0.79227
 C1209 C 0.45221 0.78048 0.78103
 C1210 C 0.44649 0.79345 0.77606
 C1211 C 0.45319 0.79968 0.76450
 C1212 C 0.46485 0.79315 0.75813
 C1213 C 0.47031 0.78025 0.76302
 C1214 C 0.46401 0.77409 0.77461
 H1215 H 0.41076 0.78062 0.81475
 H1216 H 0.39267 0.82645 0.79698
 H1217 H 0.38981 0.79037 0.82415
 H1218 H 0.41186 0.82809 0.78097
 H1219 H 0.43275 0.81890 0.77038
 H1220 H 0.43003 0.77348 0.80718
 H1221 H 0.45045 0.76392 0.79619
 H1222 H 0.44956 0.80944 0.75992
 H1223 H 0.46947 0.79817 0.74918
 H1224 H 0.46809 0.76408 0.77849
 C1225 C -0.09305 0.29138 0.81690
 C1226 C -0.08652 0.29682 0.80490
 C1227 C -0.09292 0.30884 0.79867
 C1228 C -0.10526 0.31506 0.80431
 C1229 C -0.11160 0.30952 0.81622
 C1230 C -0.10530 0.29762 0.82239
 C1231 C -0.08702 0.31461 0.78678
 C1232 C -0.07495 0.30867 0.78081
 C1233 C -0.06817 0.29664 0.78652
 C1234 C -0.07398 0.29070 0.79885
 C1235 C -0.06708 0.27882 0.80471
 C1236 C -0.05513 0.27277 0.79868
 C1237 C -0.04949 0.27824 0.78657
 C1238 C -0.05581 0.29029 0.78030
 C1239 C -0.04953 0.29534 0.76799
 C1240 C -0.03771 0.28853 0.76214
 C1241 C -0.03169 0.27651 0.76832
 C1242 C -0.03759 0.27155 0.78064
 H1243 H -0.08906 0.28225 0.82232
 H1244 H -0.10992 0.32422 0.79932
 H1245 H -0.10980 0.29297 0.83155
 H1246 H -0.09183 0.32383 0.78198
 H1247 H -0.07119 0.31382 0.77164
 H1248 H -0.07063 0.27384 0.81404
 H1249 H -0.05028 0.26360 0.80355
 H1250 H -0.05354 0.30442 0.76250
 H1251 H -0.03339 0.29262 0.75262
 H1252 H -0.03305 0.26226 0.78557
 C1253 C -0.09038 0.78701 0.31719
 C1254 C -0.08369 0.79194 0.30506
 C1255 C -0.08975 0.80398 0.29853
 C1256 C -0.10204 0.81052 0.30385
 C1257 C -0.10866 0.80534 0.31573
 C1258 C -0.10261 0.79359 0.32237
 C1259 C -0.08358 0.80944 0.28665
 C1260 C -0.07164 0.80310 0.28088
 C1261 C -0.06533 0.79090 0.28674
 C1262 C -0.07136 0.78531 0.29913
 C1263 C -0.06495 0.77320 0.30507
 C1264 C -0.05326 0.76660 0.29905
 C1265 C -0.04744 0.77173 0.28687
 C1266 C -0.05329 0.78399 0.28055
 C1267 C -0.04693 0.78867 0.26816
 C1268 C -0.03552 0.78133 0.26227
 C1269 C -0.02995 0.76911 0.26847
 C1270 C -0.03589 0.76447 0.28088
 H1271 H -0.08651 0.77805 0.32295
 H1272 H -0.10653 0.81956 0.29852
 H1273 H -0.10728 0.78940 0.33166
 H1274 H -0.08810 0.81871 0.28168
 H1275 H -0.06766 0.80808 0.27172
 H1276 H -0.06876 0.76840 0.31439
 H1277 H -0.04880 0.75726 0.30395
 H1278 H -0.05058 0.79787 0.26261
 H1279 H -0.03115 0.78519 0.25268
 H1280 H -0.03168 0.75503 0.28580
 C1281 C 0.59351 0.71511 0.30866
 C1282 C 0.58487 0.70782 0.29906
 C1283 C 0.58886 0.69373 0.29549
 C1284 C 0.60083 0.68726 0.30152
 C1285 C 0.60912 0.69459 0.31117
 C1286 C 0.60535 0.70858 0.31458
 C1287 C 0.58089 0.68611 0.28593
 C1288 C 0.56908 0.69217 0.27968
 C1289 C 0.56464 0.70618 0.28281
 C1290 C 0.57253 0.71406 0.29283
 C1291 C 0.56778 0.72787 0.29635
 C1292 C 0.55599 0.73393 0.29009
 C1293 C 0.54842 0.72658 0.28006
 C1294 C 0.55257 0.71259 0.27626
 C1295 C 0.54452 0.70570 0.26591
 C1296 C 0.53308 0.71250 0.25956
 C1297 C 0.52914 0.72636 0.26328
 C1298 C 0.53679 0.73327 0.27367
 H1299 H 0.59156 0.72593 0.31179
 H1300 H 0.60355 0.67641 0.29878
 H1301 H 0.61163 0.71467 0.32178
 H1302 H 0.58385 0.67532 0.28319
 H1303 H 0.56360 0.68547 0.27245
 H1304 H 0.57290 0.73434 0.30400
 H1305 H 0.55281 0.74459 0.29310
 H1306 H 0.54687 0.69513 0.26228
 H1307 H 0.52738 0.70688 0.25156
 H1308 H 0.53388 0.74402 0.27663
 C1309 C 0.59347 0.21796 0.81846
 C1310 C 0.58566 0.21234 0.80727
 C1311 C 0.59049 0.19934 0.80145
 C1312 C 0.60260 0.19243 0.80667
 C1313 C 0.61024 0.19821 0.81770
 C1314 C 0.60549 0.21100 0.82354
 C1315 C 0.58328 0.19329 0.79041
 C1316 C 0.57146 0.19994 0.78477
 C1317 C 0.56630 0.21301 0.78998
 C1318 C 0.57339 0.21920 0.80157
 C1319 C 0.56799 0.23207 0.80702
 C1320 C 0.55633 0.23885 0.80122
 C1321 C 0.54955 0.23316 0.78974
 C1322 C 0.55435 0.22013 0.78397
 C1323 C 0.54704 0.21492 0.77227
 C1324 C 0.53569 0.22243 0.76654
 C1325 C 0.53114 0.23537 0.77222
 C1326 C 0.53806 0.24059 0.78393
 H1327 H 0.59072 0.22779 0.82350
 H1328 H 0.60601 0.18248 0.80210
 H1329 H 0.61118 0.21585 0.83199
 H1330 H 0.58686 0.18331 0.78599
 H1331 H 0.56661 0.19447 0.77627
 H1332 H 0.57252 0.23727 0.81584
 H1333 H 0.55266 0.24876 0.80572
 H1334 H 0.54989 0.20517 0.76714
 H1335 H 0.53054 0.21811 0.75751
 H1336 H 0.53464 0.25059 0.78844
 C1337 C 1.08796 0.68841 0.79183
 C1338 C 1.08112 0.70115 0.79594
 C1339 C 1.08681 0.70850 0.80742
 C1340 C 1.09888 0.70328 0.81431
 C1341 C 1.10560 0.69070 0.80998
 C1342 C 1.09991 0.68334 0.79872
 C1343 C 1.08050 0.72111 0.81192
 C1344 C 1.06879 0.72678 0.80518
 C1345 C 1.06283 0.72002 0.79356
 C1346 C 1.06897 0.70687 0.78899
 C1347 C 1.06281 0.69992 0.77758
 C1348 C 1.05132 0.70572 0.77064
 C1349 C 1.04545 0.71866 0.77473
 C1350 C 1.05099 0.72599 0.78629
 C1351 C 1.04454 0.73912 0.78991
 C1352 C 1.03331 0.74473 0.78223
 C1353 C 1.02806 0.73748 0.77073
 C1354 C 1.03411 0.72436 0.76715
 H1355 H 1.08450 0.68208 0.78324
 H1356 H 1.10309 0.70915 0.82298
 H1357 H 1.10465 0.67355 0.79507
 H1358 H 1.08474 0.72675 0.82074
 H1359 H 1.06467 0.73656 0.80938
 H1360 H 1.06661 0.68991 0.77363
 H1361 H 1.04705 0.70002 0.76187
 H1362 H 1.04797 0.74546 0.79850
 H1363 H 1.02883 0.75488 0.78527
 H1364 H 1.03013 0.71863 0.75827
 C1365 C 1.09634 0.21661 0.31291
 C1366 C 1.08739 0.20966 0.30336
 C1367 C 1.09118 0.19565 0.29929
 C1368 C 1.10319 0.18887 0.30492
 C1369 C 1.11169 0.19582 0.31463
 C1370 C 1.10820 0.20978 0.31843
 C1371 C 1.08295 0.18842 0.28966
 C1372 C 1.07109 0.19480 0.28381
 C1373 C 1.06684 0.20873 0.28747
 C1374 C 1.07495 0.21617 0.29763
 C1375 C 1.07028 0.22981 0.30182
 C1376 C 1.05840 0.23618 0.29602
 C1377 C 1.05069 0.22931 0.28577
 C1378 C 1.05473 0.21548 0.28134
 C1379 C 1.04658 0.20912 0.27077
 C1380 C 1.03513 0.21626 0.26482
 C1381 C 1.03129 0.22996 0.26917
 C1382 C 1.03902 0.23634 0.27980
 H1383 H 1.09463 0.22739 0.31628
 H1384 H 1.10575 0.17807 0.30187
 H1385 H 1.11472 0.21561 0.32565
 H1386 H 1.08575 0.17769 0.28654
 H1387 H 1.06538 0.18838 0.27650
 H1388 H 1.07550 0.23588 0.30972
 H1389 H 1.05529 0.24669 0.29953
 H1390 H 1.04887 0.19873 0.26664
 H1391 H 1.02934 0.21104 0.25663
 H1392 H 1.03619 0.24696 0.28321
 C1393 C 0.59259 0.28911 0.68571
 C1394 C 0.58504 0.29604 0.69643
 C1395 C 0.59036 0.30927 0.70112
 C1396 C 0.60255 0.31528 0.69517
 C1397 C 0.60986 0.30828 0.68455
 C1398 C 0.60472 0.29516 0.67992
 C1399 C 0.58355 0.31648 0.71180
 C1400 C 0.57167 0.31076 0.71816
 C1401 C 0.56600 0.29755 0.71401
 C1402 C 0.57258 0.29023 0.70274
 C1403 C 0.56645 0.27738 0.69812
 C1404 C 0.55462 0.27162 0.70454
 C1405 C 0.54844 0.27832 0.71585
 C1406 C 0.55396 0.29139 0.72077
 C1407 C 0.54732 0.29759 0.73243
 C1408 C 0.53590 0.29097 0.73893
 C1409 C 0.53060 0.27801 0.73407
 C1410 C 0.53683 0.27185 0.72239
 H1411 H 0.58956 0.27890 0.68167
 H1412 H 0.60626 0.32547 0.69888
 H1413 H 0.61014 0.28936 0.67184
 H1414 H 0.58752 0.32665 0.71537
 H1415 H 0.56713 0.31710 0.72628
 H1416 H 0.57048 0.27148 0.68946
 H1417 H 0.55036 0.26169 0.70066
 H1418 H 0.55083 0.30741 0.73699
 H1419 H 0.53130 0.29598 0.74795
 H1420 H 0.53286 0.26179 0.71854
 C1421 C 0.59234 0.81238 0.20631
 C1422 C 0.58485 0.80063 0.20081
 C1423 C 0.59028 0.79433 0.18863
 C1424 C 0.60257 0.79971 0.18230
 C1425 C 0.60986 0.81137 0.18788
 C1426 C 0.60457 0.81761 0.19995
 C1427 C 0.58347 0.78263 0.18281
 C1428 C 0.57145 0.77685 0.18887
 C1429 C 0.56563 0.78259 0.20107
 C1430 C 0.57230 0.79484 0.20701
 C1431 C 0.56620 0.80090 0.21893
 C1432 C 0.55425 0.79506 0.22506
 C1433 C 0.54788 0.78293 0.21964
 C1434 C 0.55339 0.77649 0.20755
 C1435 C 0.54649 0.76410 0.20263
 C1436 C 0.53482 0.75833 0.20954
 C1437 C 0.52955 0.76470 0.22153
 C1438 C 0.53608 0.77710 0.22641
 H1439 H 0.58917 0.81776 0.21560
 H1440 H 0.60643 0.79467 0.17301
 H1441 H 0.60987 0.82658 0.20462
 H1442 H 0.58754 0.77781 0.17346
 H1443 H 0.56693 0.76784 0.18363
 H1444 H 0.57036 0.81027 0.22384
 H1445 H 0.55002 0.80005 0.23425
 H1446 H 0.54993 0.75842 0.19360
 H1447 H 0.53000 0.74873 0.20553
 H1448 H 0.53214 0.78214 0.23570
 C1449 C 1.09701 0.28483 0.18772
 C1450 C 1.08783 0.29203 0.19695
 C1451 C 1.09147 0.30612 0.20077
 C1452 C 1.10351 0.31278 0.19512
 C1453 C 1.11222 0.30559 0.18568
 C1454 C 1.10891 0.29152 0.18221
 C1455 C 1.08306 0.31354 0.21017
 C1456 C 1.07117 0.30726 0.21604
 C1457 C 1.06704 0.29327 0.21257
 C1458 C 1.07531 0.28566 0.20260
 C1459 C 1.07070 0.27202 0.19848
 C1460 C 1.05876 0.26577 0.20424
 C1461 C 1.05094 0.27277 0.21437
 C1462 C 1.05490 0.28662 0.21870
 C1463 C 1.04665 0.29312 0.22917
 C1464 C 1.03516 0.28607 0.23511
 C1465 C 1.03138 0.27236 0.23083
 C1466 C 1.03923 0.26585 0.22031
 H1467 H 1.09546 0.27394 0.18464
 H1468 H 1.10595 0.32365 0.19796
 H1469 H 1.11560 0.28549 0.17525
 H1470 H 1.08574 0.32433 0.21312
 H1471 H 1.06532 0.31381 0.22317
 H1472 H 1.07598 0.26586 0.19065
 H1473 H 1.05570 0.25524 0.20079
 H1474 H 1.04892 0.30351 0.23325
 H1475 H 1.02928 0.29138 0.24323
 H1476 H 1.03645 0.25521 0.21695
 C1477 C 1.09225 0.81699 0.70666
 C1478 C 1.08455 0.80497 0.70203
 C1479 C 1.08984 0.79769 0.69030
 C1480 C 1.10229 0.80226 0.68367
 C1481 C 1.10983 0.81410 0.68848
 C1482 C 1.10462 0.82142 0.70000
 C1483 C 1.08275 0.78580 0.68524
 C1484 C 1.07060 0.78076 0.69164
 C1485 C 1.06497 0.78743 0.70348
 C1486 C 1.07195 0.79986 0.70866
 C1487 C 1.06614 0.80669 0.72034
 C1488 C 1.05416 0.80145 0.72693
 C1489 C 1.04744 0.78919 0.72221
 C1490 C 1.05265 0.78203 0.71038
 C1491 C 1.04540 0.76960 0.70611
 C1492 C 1.03375 0.76443 0.71343
 C1493 C 1.02881 0.77145 0.72521
 C1494 C 1.03562 0.78395 0.72944
 H1495 H 1.08909 0.82322 0.71545
 H1496 H 1.10616 0.79639 0.67484
 H1497 H 1.11007 0.83068 0.70394
 H1498 H 1.08670 0.78024 0.67622
 H1499 H 1.06589 0.77152 0.68698
 H1500 H 1.07063 0.81617 0.72477
 H1501 H 1.05018 0.80702 0.73592
 H1502 H 1.04851 0.76343 0.69727
 H1503 H 1.02870 0.75477 0.70988
 H1504 H 1.03191 0.78947 0.73857
 C1505 C 0.40745 0.69198 0.70882
 C1506 C 0.41573 0.70269 0.70249
 C1507 C 0.41142 0.70741 0.68931
 C1508 C 0.39946 0.70151 0.68282
 C1509 C 0.39140 0.69090 0.68923
 C1510 C 0.39555 0.68624 0.70229
 C1511 C 0.41902 0.71805 0.68264
 C1512 C 0.43071 0.72436 0.68881
 C1513 C 0.43542 0.72020 0.70198
 C1514 C 0.42799 0.70897 0.70881
 C1515 C 0.43309 0.70437 0.72170
 C1516 C 0.44478 0.71071 0.72789
 C1517 C 0.45183 0.72195 0.72158
 C1518 C 0.44730 0.72689 0.70854
 C1519 C 0.45477 0.73848 0.70274
 C1520 C 0.46609 0.74487 0.70965
 C1521 C 0.47047 0.73996 0.72254
 C1522 C 0.46334 0.72838 0.72838
 H1523 H 0.40973 0.68789 0.71890
 H1524 H 0.39651 0.70523 0.67270
 H1525 H 0.38952 0.67820 0.70764
 H1526 H 0.41583 0.72163 0.67252
 H1527 H 0.43590 0.73246 0.68286
 H1528 H 0.42834 0.69576 0.72733
 H1529 H 0.44825 0.70682 0.73781
 H1530 H 0.45205 0.74307 0.69297
 H1531 H 0.47138 0.75380 0.70487
 H1532 H 0.46657 0.72451 0.73839
 C1533 C 0.40359 0.21487 0.18461
 C1534 C 0.41222 0.20912 0.19513
 C1535 C 0.40820 0.19579 0.20068
 C1536 C 0.39623 0.18850 0.19560
 C1537 C 0.38795 0.19428 0.18500
 C1538 C 0.39176 0.20757 0.17969
 C1539 C 0.41614 0.18978 0.21127
 C1540 C 0.42792 0.19674 0.21665
 C1541 C 0.43238 0.21005 0.21153
 C1542 C 0.42456 0.21621 0.20041
 C1543 C 0.42938 0.22921 0.19488
 C1544 C 0.44113 0.23618 0.20024
 C1545 C 0.44859 0.23058 0.21133
 C1546 C 0.44440 0.21741 0.21715
 C1547 C 0.45235 0.21231 0.22847
 C1548 C 0.46376 0.22003 0.23380
 C1549 C 0.46775 0.23308 0.22808
 C1550 C 0.46017 0.23821 0.21673
 H1551 H 0.40554 0.22507 0.18002
 H1552 H 0.39346 0.17825 0.19986
 H1553 H 0.38550 0.21256 0.17171
 H1554 H 0.41317 0.17957 0.21553
 H1555 H 0.43337 0.19127 0.22480
 H1556 H 0.42438 0.23432 0.18626
 H1557 H 0.44436 0.24617 0.19567
 H1558 H 0.44995 0.20250 0.23362
 H1559 H 0.46939 0.21577 0.24258
 H1560 H 0.46312 0.24831 0.21222
 C1561 C -0.09233 0.70861 0.18498
 C1562 C -0.08539 0.70324 0.19678
 C1563 C -0.09134 0.69106 0.20311
 C1564 C -0.10362 0.68459 0.19770
 C1565 C -0.11034 0.69006 0.18596
 C1566 C -0.10451 0.70214 0.17973
 C1567 C -0.08504 0.68540 0.21485
 C1568 C -0.07303 0.69160 0.22060
 C1569 C -0.06670 0.70378 0.21477
 C1570 C -0.07288 0.70959 0.20255
 C1571 C -0.06637 0.72157 0.19652
 C1572 C -0.05448 0.72787 0.20231
 C1573 C -0.04851 0.72257 0.21435
 C1574 C -0.05442 0.71041 0.22075
 C1575 C -0.04784 0.70553 0.23296
 C1576 C -0.03614 0.71260 0.23860
 C1577 C -0.03052 0.72472 0.23231
 C1578 C -0.03671 0.72953 0.22007
 H1579 H -0.08874 0.71788 0.17954
 H1580 H -0.10792 0.67529 0.20272
 H1581 H -0.10934 0.70680 0.17073
 H1582 H -0.08951 0.67607 0.21974
 H1583 H -0.06896 0.68652 0.22968
 H1584 H -0.07017 0.72641 0.18721
 H1585 H -0.04994 0.73710 0.19732
 H1586 H -0.05152 0.69639 0.23855
 H1587 H -0.03160 0.70861 0.24807
 H1588 H -0.03248 0.73890 0.21507
 C1589 C -0.09528 0.19027 0.71387
 C1590 C -0.08572 0.19984 0.70751
 C1591 C -0.08865 0.20386 0.69377
 C1592 C -0.10058 0.19848 0.68682
 C1593 C -0.10994 0.18905 0.69329
 C1594 C -0.10712 0.18501 0.70686
 C1595 C -0.07969 0.21328 0.68697
 C1596 C -0.06797 0.21908 0.69354
 C1597 C -0.06465 0.21566 0.70729
 C1598 C -0.07351 0.20566 0.71432
 C1599 C -0.06988 0.20186 0.72790
 C1600 C -0.05827 0.20785 0.73455
 C1601 C -0.04982 0.21793 0.72802
 C1602 C -0.05281 0.22195 0.71428
 C1603 C -0.04395 0.23233 0.70820
 C1604 C -0.03285 0.23856 0.71553
 C1605 C -0.03005 0.23468 0.72914
 C1606 C -0.03848 0.22418 0.73527
 H1607 H -0.09406 0.18672 0.72430
 H1608 H -0.10249 0.20164 0.67629
 H1609 H -0.11418 0.17786 0.71224
 H1610 H -0.08181 0.21631 0.67643
 H1611 H -0.06170 0.22624 0.68744
 H1612 H -0.07580 0.19421 0.73377
 H1613 H -0.05599 0.20466 0.74501
 H1614 H -0.04538 0.23613 0.69788
 H1615 H -0.02650 0.24661 0.71050
 H1616 H -0.03645 0.22112 0.74582
 C1617 C 0.28381 0.40397 0.31555
 C1618 C 0.28998 0.41248 0.30520
 C1619 C 0.30353 0.40835 0.30010
 C1620 C 0.31065 0.39641 0.30551
 C1621 C 0.30445 0.38829 0.31597
 C1622 C 0.29093 0.39217 0.32080
 C1623 C 0.30993 0.41615 0.28964
 C1624 C 0.30312 0.42786 0.28393
 C1625 C 0.28961 0.43242 0.28861
 C1626 C 0.28308 0.42479 0.29964
 C1627 C 0.26993 0.42978 0.30484
 C1628 C 0.26312 0.44147 0.29919
 C1629 C 0.26905 0.44869 0.28813
 C1630 C 0.28239 0.44436 0.28267
 C1631 C 0.28780 0.45209 0.27134
 C1632 C 0.28018 0.46342 0.26568
 C1633 C 0.26696 0.46753 0.27108
 C1634 C 0.26155 0.46019 0.28242
 H1635 H 0.27338 0.40595 0.31975
 H1636 H 0.32108 0.39355 0.30161
 H1637 H 0.28561 0.38599 0.32861
 H1638 H 0.32031 0.41310 0.28572
 H1639 H 0.30886 0.43320 0.27590
 H1640 H 0.26459 0.42497 0.31342
 H1641 H 0.25300 0.44482 0.30349
 H1642 H 0.29775 0.44954 0.26643
 H1643 H 0.28465 0.46889 0.25690
 H1644 H 0.25132 0.46324 0.28668
 C1645 C 0.28814 -0.09334 0.81923
 C1646 C 0.29190 -0.08716 0.80650
 C1647 C 0.30350 -0.09328 0.79926
 C1648 C 0.31076 -0.10519 0.80451
 C1649 C 0.30686 -0.11131 0.81713
 C1650 C 0.29548 -0.10510 0.82440
 C1651 C 0.30784 -0.08754 0.78676
 C1652 C 0.30098 -0.07579 0.78124
 C1653 C 0.28933 -0.06927 0.78796
 C1654 C 0.28459 -0.07516 0.80073
 C1655 C 0.27261 -0.06895 0.80720
 C1656 C 0.26548 -0.05746 0.80145
 C1657 C 0.27003 -0.05152 0.78911
 C1658 C 0.28213 -0.05718 0.78226
 C1659 C 0.28649 -0.05046 0.76996
 C1660 C 0.27894 -0.03895 0.76459
 C1661 C 0.26678 -0.03366 0.77121
 C1662 C 0.26246 -0.03995 0.78356
 H1663 H 0.27959 -0.08936 0.82554
 H1664 H 0.31954 -0.10955 0.79865
 H1665 H 0.29200 -0.10931 0.83416
 H1666 H 0.31667 -0.09220 0.78114
 H1667 H 0.30501 -0.07221 0.77150
 H1668 H 0.26828 -0.07283 0.81671
 H1669 H 0.25626 -0.05317 0.80676
 H1670 H 0.29573 -0.05375 0.76421
 H1671 H 0.28262 -0.03427 0.75508
 H1672 H 0.25314 -0.03590 0.78886
 C1673 C 0.78899 0.40921 0.81569
 C1674 C 0.79432 0.41551 0.80359
 C1675 C 0.80661 0.40933 0.79755
 C1676 C 0.81304 0.39721 0.80338
 C1677 C 0.80749 0.39094 0.81534
 C1678 C 0.79541 0.39724 0.82138
 C1679 C 0.81242 0.41522 0.78568
 C1680 C 0.80628 0.42708 0.77957
 C1681 C 0.79394 0.43357 0.78507
 C1682 C 0.78785 0.42766 0.79728
 C1683 C 0.77540 0.43401 0.80271
 C1684 C 0.76902 0.44558 0.79643
 C1685 C 0.77474 0.45141 0.78453
 C1686 C 0.78736 0.44565 0.77870
 C1687 C 0.79273 0.45222 0.76669
 C1688 C 0.78564 0.46369 0.76061
 C1689 C 0.77300 0.46904 0.76628
 C1690 C 0.76773 0.46291 0.77834
 H1691 H 0.77984 0.41320 0.82114
 H1692 H 0.82237 0.39272 0.79845
 H1693 H 0.79067 0.39302 0.83061
 H1694 H 0.82183 0.41058 0.78100
 H1695 H 0.81145 0.43082 0.77040
 H1696 H 0.77011 0.43023 0.81179
 H1697 H 0.75940 0.44998 0.80094
 H1698 H 0.80234 0.44876 0.76164
 H1699 H 0.79000 0.46824 0.75132
 H1700 H 0.75800 0.46700 0.78290
 C1701 C 0.81187 -0.09598 0.29156
 C1702 C 0.80061 -0.08797 0.29738
 C1703 C 0.79502 -0.09263 0.31011
 C1704 C 0.80081 -0.10456 0.31680
 C1705 C 0.81213 -0.11235 0.31096
 C1706 C 0.81746 -0.10787 0.29820
 C1707 C 0.78361 -0.08539 0.31612
 C1708 C 0.77745 -0.07372 0.30971
 C1709 C 0.78261 -0.06863 0.29702
 C1710 C 0.79462 -0.07566 0.29093
 C1711 C 0.80033 -0.07007 0.27867
 C1712 C 0.79433 -0.05832 0.27233
 C1713 C 0.78234 -0.05168 0.27783
 C1714 C 0.77623 -0.05669 0.29022
 C1715 C 0.76388 -0.04961 0.29514
 C1716 C 0.75794 -0.03815 0.28801
 C1717 C 0.76409 -0.03328 0.27580
 C1718 C 0.77637 -0.04007 0.27086
 H1719 H 0.81654 -0.09353 0.28175
 H1720 H 0.79631 -0.10774 0.32655
 H1721 H 0.82607 -0.11345 0.29315
 H1722 H 0.77928 -0.08887 0.32587
 H1723 H 0.76872 -0.06881 0.31510
 H1724 H 0.80963 -0.07441 0.27371
 H1725 H 0.79909 -0.05446 0.26290
 H1726 H 0.75836 -0.05278 0.30433
 H1727 H 0.74841 -0.03314 0.29205
 H1728 H 0.78122 -0.03648 0.26137
 C1729 C 0.29032 0.59375 0.68627
 C1730 C 0.29580 0.58729 0.69829
 C1731 C 0.30810 0.59341 0.70426
 C1732 C 0.31455 0.60540 0.69833
 C1733 C 0.30897 0.61166 0.68642
 C1734 C 0.29679 0.60566 0.68050
 C1735 C 0.31394 0.58758 0.71615
 C1736 C 0.30779 0.57585 0.72240
 C1737 C 0.29548 0.56936 0.71696
 C1738 C 0.28946 0.57511 0.70463
 C1739 C 0.27729 0.56849 0.69906
 C1740 C 0.27103 0.55689 0.70537
 C1741 C 0.27659 0.55133 0.71748
 C1742 C 0.28893 0.55737 0.72347
 C1743 C 0.29406 0.55117 0.73578
 C1744 C 0.28708 0.53968 0.74189
 C1745 C 0.27479 0.53394 0.73597
 C1746 C 0.26972 0.53978 0.72368
 H1747 H 0.28099 0.58995 0.68103
 H1748 H 0.32393 0.60982 0.70314
 H1749 H 0.29212 0.61015 0.67133
 H1750 H 0.32337 0.59219 0.72074
 H1751 H 0.31302 0.57213 0.73155
 H1752 H 0.27223 0.57201 0.68975
 H1753 H 0.26165 0.55224 0.70071
 H1754 H 0.30336 0.55498 0.74107
 H1755 H 0.29126 0.53539 0.75138
 H1756 H 0.26023 0.53543 0.71894
 C1757 C 0.28838 1.09376 0.19000
 C1758 C 0.29483 1.08600 0.20075
 C1759 C 0.30812 1.09093 0.20575
 C1760 C 0.31477 1.10285 0.19982
 C1761 C 0.30833 1.11017 0.18893
 C1762 C 0.29501 1.10554 0.18426
 C1763 C 0.31469 1.08395 0.21666
 C1764 C 0.30832 1.07231 0.22288
 C1765 C 0.29511 1.06696 0.21827
 C1766 C 0.28845 1.07370 0.20678
 C1767 C 0.27571 1.06782 0.20159
 C1768 C 0.26938 1.05614 0.20769
 C1769 C 0.27538 1.04981 0.21924
 C1770 C 0.28834 1.05507 0.22472
 C1771 C 0.29382 1.04828 0.23657
 C1772 C 0.28667 1.03694 0.24267
 C1773 C 0.27384 1.03188 0.23723
 C1774 C 0.26835 1.03831 0.22540
 H1775 H 0.27807 1.09120 0.18589
 H1776 H 0.32502 1.10631 0.20364
 H1777 H 0.28947 1.11111 0.17616
 H1778 H 0.32487 1.08760 0.22053
 H1779 H 0.31417 1.06762 0.23123
 H1780 H 0.27038 1.07188 0.19264
 H1781 H 0.25957 1.05207 0.20336
 H1782 H 0.30348 1.05160 0.24156
 H1783 H 0.29118 1.03222 0.25183
 H1784 H 0.25841 1.03453 0.22110
 C1785 C 0.78954 0.58999 0.18601
 C1786 C 0.79429 0.58356 0.19829
 C1787 C 0.80622 0.58969 0.20495
 C1788 C 0.81303 0.60172 0.19940
 C1789 C 0.80811 0.60795 0.18720
 C1790 C 0.79632 0.60186 0.18063
 C1791 C 0.81123 0.58384 0.21718
 C1792 C 0.80458 0.57217 0.22308
 C1793 C 0.79259 0.56574 0.21692
 C1794 C 0.78750 0.57141 0.20420
 C1795 C 0.77577 0.56477 0.19780
 C1796 C 0.76898 0.55326 0.20373
 C1797 C 0.77354 0.54784 0.21627
 C1798 C 0.78546 0.55387 0.22305
 C1799 C 0.78956 0.54782 0.23576
 C1800 C 0.78201 0.53650 0.24148
 C1801 C 0.77015 0.53077 0.23477
 C1802 C 0.76609 0.53644 0.22209
 H1803 H 0.78050 0.58627 0.18027
 H1804 H 0.82210 0.60624 0.20467
 H1805 H 0.79209 0.60623 0.17124
 H1806 H 0.82038 0.58841 0.22232
 H1807 H 0.80917 0.56842 0.23253
 H1808 H 0.77147 0.56815 0.18811
 H1809 H 0.75996 0.54861 0.19846
 H1810 H 0.79845 0.55165 0.24166
 H1811 H 0.78542 0.53233 0.25131
 H1812 H 0.75694 0.53209 0.21676
 C1813 C 0.78754 1.09419 0.68572
 C1814 C 0.79308 1.08706 0.69736
 C1815 C 0.80582 1.09240 0.70317
 C1816 C 0.81261 1.10429 0.69750
 C1817 C 0.80694 1.11128 0.68602
 C1818 C 0.79437 1.10605 0.68021
 C1819 C 0.81174 1.08591 0.71469
 C1820 C 0.80521 1.07432 0.72078
 C1821 C 0.79243 1.06863 0.71554
 C1822 C 0.78637 1.07496 0.70350
 C1823 C 0.77382 1.06900 0.69801
 C1824 C 0.76722 1.05749 0.70418
 C1825 C 0.77276 1.05145 0.71608
 C1826 C 0.78546 1.05684 0.72195
 C1827 C 0.79053 1.05026 0.73409
 C1828 C 0.78321 1.03898 0.74011
 C1829 C 0.77062 1.03380 0.73430
 C1830 C 0.76553 1.04005 0.72220
 H1831 H 0.77788 1.09102 0.68066
 H1832 H 0.82236 1.10806 0.70214
 H1833 H 0.78960 1.11118 0.67140
 H1834 H 0.82152 1.08991 0.71913
 H1835 H 0.81056 1.07005 0.72962
 H1836 H 0.76876 1.07294 0.68887
 H1837 H 0.75756 1.05334 0.69960
 H1838 H 0.80002 1.05362 0.73933
 H1839 H 0.78740 1.03437 0.74946
 H1840 H 0.75579 1.03616 0.71758
 C1841 C 0.70833 0.59377 0.31578
 C1842 C 0.70274 0.58646 0.30428
 C1843 C 0.69040 0.59221 0.29799
 C1844 C 0.68390 0.60459 0.30324
 C1845 C 0.68954 0.61161 0.31474
 C1846 C 0.70184 0.60604 0.32086
 C1847 C 0.68461 0.58561 0.28644
 C1848 C 0.69088 0.57352 0.28084
 C1849 C 0.70321 0.56738 0.28667
 C1850 C 0.70907 0.57380 0.29875
 C1851 C 0.72105 0.56734 0.30493
 C1852 C 0.72738 0.55534 0.29930
 C1853 C 0.72212 0.54923 0.28730
 C1854 C 0.70992 0.55506 0.28081
 C1855 C 0.70513 0.54838 0.26860
 C1856 C 0.71231 0.53667 0.26305
 C1857 C 0.72446 0.53113 0.26945
 C1858 C 0.72918 0.53738 0.28168
 H1859 H 0.71781 0.59044 0.32107
 H1860 H 0.67445 0.60872 0.29829
 H1861 H 0.70667 0.61115 0.32964
 H1862 H 0.67516 0.58992 0.28159
 H1863 H 0.68568 0.56919 0.27192
 H1864 H 0.72583 0.57124 0.31424
 H1865 H 0.73663 0.55085 0.30437
 H1866 H 0.69602 0.55204 0.26291
 H1867 H 0.70840 0.53206 0.25358
 H1868 H 0.73858 0.53322 0.28674
 C1869 C 0.68402 1.09740 0.79043
 C1870 C 0.69452 1.08842 0.79625
 C1871 C 0.69976 1.09212 0.80942
 C1872 C 0.69484 1.10434 0.81625
 C1873 C 0.68460 1.11332 0.81028
 C1874 C 0.67919 1.10955 0.79731
 C1875 C 0.71000 1.08367 0.81577
 C1876 C 0.71543 1.07171 0.80928
 C1877 C 0.71085 1.06766 0.79603
 C1878 C 0.70010 1.07606 0.78944
 C1879 C 0.69544 1.07190 0.77624
 C1880 C 0.70126 1.06019 0.76955
 C1881 C 0.71194 1.05210 0.77568
 C1882 C 0.71681 1.05560 0.78906
 C1883 C 0.72765 1.04698 0.79480
 C1884 C 0.73363 1.03575 0.78741
 C1885 C 0.72902 1.03256 0.77408
 C1886 C 0.71798 1.04065 0.76836
 H1887 H 0.67933 1.09543 0.78053
 H1888 H 0.69918 1.10677 0.82626
 H1889 H 0.67125 1.11600 0.79225
 H1890 H 0.71397 1.08640 0.82590
 H1891 H 0.72334 1.06593 0.81499
 H1892 H 0.68733 1.07756 0.77066
 H1893 H 0.69743 1.05752 0.75936
 H1894 H 0.73196 1.04866 0.80490
 H1895 H 0.74207 1.02962 0.79215
 H1896 H 0.71431 1.03828 0.75805
 C1897 C 0.19182 0.60025 0.78937
 C1898 C 0.20072 0.59042 0.79623
 C1899 C 0.20439 0.59343 0.81007
 C1900 C 0.19882 0.60550 0.81680
 C1901 C 0.18960 0.61480 0.80994
 C1902 C 0.18636 0.61213 0.79613
 C1903 C 0.21352 0.58436 0.81716
 C1904 C 0.21926 0.57241 0.81081
 C1905 C 0.21591 0.56888 0.79707
 C1906 C 0.20618 0.57784 0.78978
 C1907 C 0.20208 0.57383 0.77637
 C1908 C 0.20767 0.56182 0.77005
 C1909 C 0.21763 0.55333 0.77674
 C1910 C 0.22191 0.55667 0.79036
 C1911 C 0.23221 0.54774 0.79655
 C1912 C 0.23811 0.53625 0.78944
 C1913 C 0.23392 0.53313 0.77596
 C1914 C 0.22350 0.54161 0.76976
 H1915 H 0.18897 0.59922 0.77870
 H1916 H 0.20148 0.60748 0.82747
 H1917 H 0.17963 0.61932 0.79039
 H1918 H 0.21634 0.58656 0.82775
 H1919 H 0.22619 0.56602 0.81709
 H1920 H 0.19436 0.57965 0.77045
 H1921 H 0.20424 0.55923 0.75971
 H1922 H 0.23622 0.54949 0.80677
 H1923 H 0.24615 0.52987 0.79450
 H1924 H 0.22022 0.53935 0.75930
 C1925 C 0.21379 1.09764 0.31581
 C1926 C 0.20731 1.08869 0.30597
 C1927 C 0.19372 1.09273 0.30094
 C1928 C 0.18678 1.10492 0.30609
 C1929 C 0.19321 1.11338 0.31619
 C1930 C 0.20685 1.10968 0.32080
 C1931 C 0.18712 1.08458 0.29082
 C1932 C 0.19376 1.07258 0.28541
 C1933 C 0.20726 1.06806 0.29010
 C1934 C 0.21394 1.07602 0.30084
 C1935 C 0.22695 1.07096 0.30625
 C1936 C 0.23354 1.05892 0.30099
 C1937 C 0.22754 1.05143 0.29010
 C1938 C 0.21431 1.05582 0.28447
 C1939 C 0.20886 1.04788 0.27328
 C1940 C 0.21632 1.03627 0.26791
 C1941 C 0.22942 1.03208 0.27348
 C1942 C 0.23486 1.03963 0.28470
 H1943 H 0.22434 1.09582 0.31976
 H1944 H 0.17628 1.10768 0.30234
 H1945 H 0.21237 1.11618 0.32826
 H1946 H 0.17673 1.08758 0.28694
 H1947 H 0.18786 1.06694 0.27765
 H1948 H 0.23229 1.07594 0.31476
 H1949 H 0.24355 1.05551 0.30543
 H1950 H 0.19902 1.05051 0.26821
 H1951 H 0.21185 1.03065 0.25920
 H1952 H 0.24502 1.03655 0.28907
 C1953 C 0.69087 0.40333 0.70817
 C1954 C 0.70105 0.41244 0.70215
 C1955 C 0.70636 0.40871 0.68897
 C1956 C 0.70112 0.39667 0.68199
 C1957 C 0.69070 0.38802 0.68799
 C1958 C 0.68583 0.39143 0.70121
 C1959 C 0.71684 0.41702 0.68283
 C1960 C 0.72234 0.42887 0.68953
 C1961 C 0.71736 0.43310 0.70262
 C1962 C 0.70625 0.42495 0.70885
 C1963 C 0.70053 0.42970 0.72149
 C1964 C 0.70581 0.44161 0.72812
 C1965 C 0.71704 0.44928 0.72253
 C1966 C 0.72302 0.44522 0.70971
 C1967 C 0.73454 0.45339 0.70467
 C1968 C 0.73989 0.46491 0.71214
 C1969 C 0.73395 0.46876 0.72483
 C1970 C 0.72241 0.46096 0.72986
 H1971 H 0.68671 0.40491 0.71837
 H1972 H 0.70510 0.39415 0.67182
 H1973 H 0.67812 0.38483 0.70640
 H1974 H 0.72095 0.41426 0.67276
 H1975 H 0.73040 0.43465 0.68402
 H1976 H 0.69174 0.42456 0.72651
 H1977 H 0.70110 0.44477 0.73783
 H1978 H 0.73988 0.45101 0.69514
 H1979 H 0.74885 0.47073 0.70801
 H1980 H 0.71774 0.46377 0.73969
 C1981 C 0.71440 -0.09544 0.18602
 C1982 C 0.70736 -0.08701 0.19605
 C1983 C 0.69342 -0.09113 0.19993
 C1984 C 0.68700 -0.10315 0.19407
 C1985 C 0.69417 -0.11144 0.18427
 C1986 C 0.70789 -0.10740 0.18027
 C1987 C 0.68592 -0.08329 0.20972
 C1988 C 0.69197 -0.07153 0.21598
 C1989 C 0.70589 -0.06704 0.21270
 C1990 C 0.71366 -0.07479 0.20244
 C1991 C 0.72748 -0.07012 0.19897
 C1992 C 0.73364 -0.05852 0.20548
 C1993 C 0.72636 -0.05107 0.21571
 C1994 C 0.71235 -0.05512 0.21943
 C1995 C 0.70548 -0.04717 0.22991
 C1996 C 0.71236 -0.03596 0.23652
 C1997 C 0.72627 -0.03216 0.23296
 C1998 C 0.73314 -0.03966 0.22239
 H1999 H 0.72501 -0.09321 0.18244
 H2000 H 0.67631 -0.10597 0.19718
 H2001 H 0.71378 -0.11361 0.17280
 H2002 H 0.67523 -0.08635 0.21266
 H2003 H 0.68535 -0.06620 0.22342
 H2004 H 0.73392 -0.07523 0.19125
 H2005 H 0.74432 -0.05542 0.20254
 H2006 H 0.69486 -0.04938 0.23343
 H2007 H 0.70673 -0.03033 0.24460
 H2008 H 0.74392 -0.03683 0.21953
 C2009 C 0.21182 0.40507 0.18481
 C2010 C 0.20519 0.41258 0.19572
 C2011 C 0.19194 0.40740 0.20052
 C2012 C 0.18567 0.39533 0.19454
 C2013 C 0.19238 0.38803 0.18373
 C2014 C 0.20551 0.39307 0.17897
 C2015 C 0.18495 0.41424 0.21131
 C2016 C 0.19087 0.42605 0.21764
 C2017 C 0.20410 0.43161 0.21338
 C2018 C 0.21127 0.42492 0.20208
 C2019 C 0.22425 0.43081 0.19750
 C2020 C 0.23019 0.44260 0.20388
 C2021 C 0.22355 0.44900 0.21513
 C2022 C 0.21041 0.44364 0.22007
 C2023 C 0.20427 0.45046 0.23164
 C2024 C 0.21095 0.46192 0.23803
 C2025 C 0.22397 0.46710 0.23315
 C2026 C 0.23013 0.46065 0.22158
 H2027 H 0.22197 0.40805 0.18059
 H2028 H 0.17549 0.39170 0.19836
 H2029 H 0.21109 0.38768 0.17074
 H2030 H 0.17478 0.41037 0.21498
 H2031 H 0.18466 0.43063 0.22584
 H2032 H 0.23014 0.42660 0.18892
 H2033 H 0.24020 0.44668 0.20002
 H2034 H 0.19441 0.44711 0.23622
 H2035 H 0.20592 0.46666 0.24696
 H2036 H 0.24023 0.46452 0.21772
 C2037 C 0.21224 -0.09329 0.68355
 C2038 C 0.20541 -0.08572 0.69432
 C2039 C 0.19211 -0.09092 0.69898
 C2040 C 0.18614 -0.10321 0.69319
 C2041 C 0.19318 -0.11072 0.68274
 C2042 C 0.20619 -0.10554 0.67789
 C2043 C 0.18482 -0.08395 0.70949
 C2044 C 0.19059 -0.07210 0.71587
 C2045 C 0.20399 -0.06669 0.71197
 C2046 C 0.21136 -0.07337 0.70077
 C2047 C 0.22445 -0.06753 0.69647
 C2048 C 0.23039 -0.05590 0.70311
 C2049 C 0.22363 -0.04963 0.71436
 C2050 C 0.21031 -0.05486 0.71895
 C2051 C 0.20405 -0.04820 0.73056
 C2052 C 0.21084 -0.03704 0.73735
 C2053 C 0.22405 -0.03203 0.73284
 C2054 C 0.23029 -0.03828 0.72120
 H2055 H 0.22238 -0.09021 0.67936
 H2056 H 0.17594 -0.10689 0.69691
 H2057 H 0.21193 -0.11112 0.66986
 H2058 H 0.17456 -0.08778 0.71297
 H2059 H 0.18417 -0.06743 0.72386
 H2060 H 0.23046 -0.07171 0.68794
 H2061 H 0.24053 -0.05189 0.69950
 H2062 H 0.19405 -0.05148 0.73489
 H2063 H 0.20575 -0.03242 0.74630
 H2064 H 0.24055 -0.03454 0.71763
 C2065 C 0.28970 0.30791 0.41191
 C2066 C 0.29690 0.29731 0.41954
 C2067 C 0.31033 0.29265 0.41459
 C2068 C 0.31629 0.29860 0.40268
 C2069 C 0.30904 0.30918 0.39532
 C2070 C 0.29569 0.31369 0.40007
 C2071 C 0.31778 0.28203 0.42152
 C2072 C 0.31214 0.27572 0.43318
 C2073 C 0.29877 0.27988 0.43852
 C2074 C 0.29117 0.29108 0.43176
 C2075 C 0.27813 0.29573 0.43748
 C2076 C 0.27248 0.28942 0.44912
 C2077 C 0.27948 0.27819 0.45553
 C2078 C 0.29273 0.27323 0.45040
 C2079 C 0.29923 0.26165 0.45728
 C2080 C 0.29274 0.25527 0.46859
 C2081 C 0.27961 0.26019 0.47353
 C2082 C 0.27313 0.27178 0.46701
 H2083 H 0.27932 0.31188 0.41464
 H2084 H 0.32663 0.29497 0.39920
 H2085 H 0.28964 0.32165 0.39458
 H2086 H 0.32808 0.27847 0.41782
 H2087 H 0.31865 0.26763 0.43783
 H2088 H 0.27200 0.30435 0.43327
 H2089 H 0.26240 0.29333 0.45307
 H2090 H 0.30921 0.25705 0.45408
 H2091 H 0.29800 0.24631 0.47341
 H2092 H 0.26293 0.27566 0.47068
 C2093 C 0.31341 0.78413 -0.09370
 C2094 C 0.30344 0.79071 -0.08478
 C2095 C 0.29850 0.80447 -0.08838
 C2096 C 0.30338 0.81121 -0.10036
 C2097 C 0.31321 0.80451 -0.10910
 C2098 C 0.31816 0.79092 -0.10558
 C2099 C 0.28861 0.81145 -0.08008
 C2100 C 0.28333 0.80508 -0.06831
 C2101 C 0.28778 0.79135 -0.06426
 C2102 C 0.29812 0.78410 -0.07255
 C2103 C 0.30273 0.77046 -0.06838
 C2104 C 0.29720 0.76396 -0.05676
 C2105 C 0.28688 0.77071 -0.04876
 C2106 C 0.28211 0.78456 -0.05228
 C2107 C 0.27169 0.79094 -0.04373
 C2108 C 0.26599 0.78371 -0.03254
 C2109 C 0.27048 0.76990 -0.02931
 C2110 C 0.28114 0.76355 -0.03735
 H2111 H 0.31772 0.77369 -0.09191
 H2112 H 0.29932 0.82166 -0.10290
 H2113 H 0.32581 0.78541 -0.11199
 H2114 H 0.28481 0.82198 -0.08276
 H2115 H 0.27567 0.81127 -0.06263
 H2116 H 0.31062 0.76442 -0.07391
 H2117 H 0.30099 0.75342 -0.05407
 H2118 H 0.26750 0.80145 -0.04544
 H2119 H 0.25784 0.78895 -0.02647
 H2120 H 0.28470 0.75286 -0.03498
 C2121 C 0.78480 0.31225 -0.09024
 C2122 C 0.79112 0.30166 -0.08194
 C2123 C 0.80446 0.29608 -0.08623
 C2124 C 0.81123 0.30128 -0.09810
 C2125 C 0.80491 0.31199 -0.10605
 C2126 C 0.79157 0.31727 -0.10200
 C2127 C 0.81097 0.28532 -0.07865
 C2128 C 0.80451 0.27982 -0.06697
 C2129 C 0.79126 0.28502 -0.06222
 C2130 C 0.78461 0.29634 -0.06967
 C2131 C 0.77173 0.30206 -0.06455
 C2132 C 0.76531 0.29668 -0.05284
 C2133 C 0.77137 0.28535 -0.04573
 C2134 C 0.78443 0.27932 -0.05025
 C2135 C 0.78995 0.26772 -0.04267
 C2136 C 0.78274 0.26234 -0.03126
 C2137 C 0.76980 0.26831 -0.02692
 C2138 C 0.76428 0.27992 -0.03417
 H2139 H 0.77450 0.31680 -0.08810
 H2140 H 0.82150 0.29700 -0.10107
 H2141 H 0.78613 0.32529 -0.10797
 H2142 H 0.82117 0.28100 -0.08184
 H2143 H 0.81033 0.27155 -0.06179
 H2144 H 0.76631 0.31088 -0.06926
 H2145 H 0.75540 0.30140 -0.04936
 H2146 H 0.79970 0.26236 -0.04538
 H2147 H 0.78727 0.25332 -0.02590
 H2148 H 0.75424 0.28462 -0.03097
 C2149 C 0.79100 0.81133 0.40964
 C2150 C 0.79685 0.79927 0.41630
 C2151 C 0.80924 0.79307 0.41045
 C2152 C 0.81525 0.79862 0.39840
 C2153 C 0.80924 0.81046 0.39188
 C2154 C 0.79712 0.81678 0.39768
 C2155 C 0.81562 0.78133 0.41662
 C2156 C 0.80994 0.77541 0.42843
 C2157 C 0.79750 0.78097 0.43461
 C2158 C 0.79085 0.79312 0.42846
 C2159 C 0.77836 0.79862 0.43459
 C2160 C 0.77245 0.79243 0.44618
 C2161 C 0.77869 0.78054 0.45221
 C2162 C 0.79137 0.77467 0.44663
 C2163 C 0.79727 0.76263 0.45327
 C2164 C 0.79064 0.75654 0.46465
 C2165 C 0.77796 0.76222 0.46992
 C2166 C 0.77216 0.77436 0.46373
 H2167 H 0.78170 0.81683 0.41334
 H2168 H 0.82475 0.79372 0.39418
 H2169 H 0.79217 0.82591 0.39287
 H2170 H 0.82514 0.77660 0.41222
 H2171 H 0.81559 0.76634 0.43240
 H2172 H 0.77272 0.80768 0.43060
 H2173 H 0.76277 0.79698 0.45043
 H2174 H 0.80693 0.75751 0.44991
 H2175 H 0.79542 0.74721 0.46926
 H2176 H 0.76236 0.77889 0.46771
 C2177 C 0.68794 0.29077 0.58721
 C2178 C 0.70063 0.29548 0.58088
 C2179 C 0.70792 0.30697 0.58714
 C2180 C 0.70260 0.31338 0.59922
 C2181 C 0.69002 0.30850 0.60537
 C2182 C 0.68281 0.29715 0.59915
 C2183 C 0.72054 0.31197 0.58138
 C2184 C 0.72625 0.30570 0.56965
 C2185 C 0.71948 0.29414 0.56306
 C2186 C 0.70635 0.28908 0.56868
 C2187 C 0.69938 0.27774 0.56194
 C2188 C 0.70516 0.27130 0.55039
 C2189 C 0.71809 0.27583 0.54500
 C2190 C 0.72544 0.28738 0.55112
 C2191 C 0.73852 0.29149 0.54507
 C2192 C 0.74412 0.28421 0.53373
 C2193 C 0.73690 0.27263 0.52796
 C2194 C 0.72378 0.26866 0.53357
 H2195 H 0.68169 0.28208 0.58332
 H2196 H 0.70838 0.32210 0.60385
 H2197 H 0.67306 0.29302 0.60344
 H2198 H 0.72615 0.32079 0.58606
 H2199 H 0.73606 0.31020 0.56600
 H2200 H 0.68937 0.27348 0.56531
 H2201 H 0.69945 0.26255 0.54568
 H2202 H 0.74483 0.30016 0.54893
 H2203 H 0.75428 0.28755 0.52960
 H2204 H 0.71804 0.25975 0.52919
 C2205 C 0.68774 0.78527 1.09104
 C2206 C 0.69830 0.79151 1.08262
 C2207 C 0.70371 0.80494 1.08670
 C2208 C 0.69853 0.81179 1.09856
 C2209 C 0.68798 0.80548 1.10670
 C2210 C 0.68272 0.79215 1.10280
 C2211 C 0.71429 0.81148 1.07894
 C2212 C 0.71986 0.80492 1.06731
 C2213 C 0.71494 0.79151 1.06283
 C2214 C 0.70376 0.78484 1.07046
 C2215 C 0.69839 0.77173 1.06564
 C2216 C 0.70399 0.76513 1.05408
 C2217 C 0.71518 0.77123 1.04682
 C2218 C 0.72082 0.78453 1.05100
 C2219 C 0.73227 0.79012 1.04324
 C2220 C 0.73791 0.78270 1.03203
 C2221 C 0.73237 0.76950 1.02808
 C2222 C 0.72087 0.76393 1.03546
 H2223 H 0.68321 0.77499 1.08898
 H2224 H 0.70272 0.82211 1.10137
 H2225 H 0.67476 0.78681 1.10891
 H2226 H 0.71842 0.82177 1.08196
 H2227 H 0.72800 0.81077 1.06200
 H2228 H 0.68974 0.76623 1.07053
 H2229 H 0.69955 0.75503 1.05085
 H2230 H 0.73731 0.80008 1.04565
 H2231 H 0.74681 0.78728 1.02653
 H2232 H 0.71648 0.75371 1.03254
 C2233 C 0.19005 0.28531 1.08965
 C2234 C 0.20024 0.29184 1.08106
 C2235 C 0.20540 0.30539 1.08504
 C2236 C 0.20011 0.31221 1.09688
 C2237 C 0.18976 0.30568 1.10510
 C2238 C 0.18495 0.29211 1.10138
 C2239 C 0.21585 0.31206 1.07721
 C2240 C 0.22151 0.30549 1.06561
 C2241 C 0.21673 0.29200 1.06120
 C2242 C 0.20561 0.28528 1.06882
 C2243 C 0.20010 0.27227 1.06390
 C2244 C 0.20564 0.26572 1.05231
 C2245 C 0.21692 0.27176 1.04515
 C2246 C 0.22265 0.28500 1.04940
 C2247 C 0.23423 0.29049 1.04175
 C2248 C 0.23989 0.28304 1.03056
 C2249 C 0.23421 0.26992 1.02654
 C2250 C 0.22260 0.26446 1.03381
 H2251 H 0.18595 0.27481 1.08780
 H2252 H 0.20403 0.32266 1.09963
 H2253 H 0.17728 0.28651 1.10761
 H2254 H 0.21982 0.32244 1.08015
 H2255 H 0.22955 0.31141 1.06021
 H2256 H 0.19131 0.26688 1.06867
 H2257 H 0.20111 0.25569 1.04899
 H2258 H 0.23939 0.30036 1.04429
 H2259 H 0.24889 0.28751 1.02515
 H2260 H 0.21812 0.25429 1.03084
 C2261 C 0.18559 0.78519 0.58984
 C2262 C 0.19655 0.79096 0.58159
 C2263 C 0.20241 0.80418 0.58573
 C2264 C 0.19733 0.81123 0.59753
 C2265 C 0.18643 0.80537 0.60554
 C2266 C 0.18067 0.79227 0.60153
 C2267 C 0.21333 0.81031 0.57811
 C2268 C 0.21878 0.80357 0.56654
 C2269 C 0.21346 0.79033 0.56200
 C2270 C 0.20198 0.78404 0.56952
 C2271 C 0.19631 0.77106 0.56470
 C2272 C 0.20183 0.76425 0.55320
 C2273 C 0.21325 0.77001 0.54601
 C2274 C 0.21924 0.78314 0.55023
 C2275 C 0.23091 0.78840 0.54256
 C2276 C 0.23643 0.78083 0.53140
 C2277 C 0.23055 0.76780 0.52738
 C2278 C 0.21883 0.76255 0.53467
 H2279 H 0.18063 0.77513 0.58767
 H2280 H 0.20192 0.82136 0.60039
 H2281 H 0.17237 0.78728 0.60751
 H2282 H 0.21781 0.82044 0.58118
 H2283 H 0.22719 0.80912 0.56133
 H2284 H 0.18749 0.76581 0.56957
 H2285 H 0.19715 0.75426 0.54997
 H2286 H 0.23621 0.79821 0.54500
 H2287 H 0.24549 0.78517 0.52597
 H2288 H 0.21420 0.75245 0.53171
 C2289 C 0.31366 0.71214 0.59065
 C2290 C 0.30306 0.70542 0.58261
 C2291 C 0.29780 0.69218 0.58731
 C2292 C 0.30311 0.68598 0.59941
 C2293 C 0.31367 0.69275 0.60720
 C2294 C 0.31882 0.70590 0.60266
 C2295 C 0.28723 0.68515 0.57995
 C2296 C 0.28155 0.69100 0.56808
 C2297 C 0.28631 0.70420 0.56296
 C2298 C 0.29742 0.71142 0.57022
 C2299 C 0.30251 0.72438 0.56483
 C2300 C 0.29677 0.73028 0.55301
 C2301 C 0.28568 0.72362 0.54605
 C2302 C 0.28029 0.71046 0.55085
 C2303 C 0.26892 0.70426 0.54342
 C2304 C 0.26305 0.71099 0.53198
 C2305 C 0.26830 0.72407 0.52741
 C2306 C 0.27978 0.73022 0.53440
 H2307 H 0.31814 0.72230 0.58806
 H2308 H 0.29899 0.67580 0.60267
 H2309 H 0.32682 0.71157 0.60845
 H2310 H 0.28320 0.67499 0.58345
 H2311 H 0.27343 0.68480 0.56312
 H2312 H 0.31103 0.73029 0.56949
 H2313 H 0.30100 0.74029 0.54934
 H2314 H 0.26408 0.69434 0.54627
 H2315 H 0.25420 0.70596 0.52679
 H2316 H 0.28390 0.74038 0.53102
 C2317 C 0.28777 0.18513 1.09034
 C2318 C 0.29444 0.19531 1.08183
 C2319 C 0.30791 0.20052 1.08602
 C2320 C 0.31440 0.19548 1.09807
 C2321 C 0.30768 0.18528 1.10628
 C2322 C 0.29429 0.18024 1.10229
 C2323 C 0.31484 0.21078 1.07821
 C2324 C 0.30866 0.21619 1.06637
 C2325 C 0.29525 0.21143 1.06175
 C2326 C 0.28816 0.20060 1.06945
 C2327 C 0.27505 0.19536 1.06450
 C2328 C 0.26883 0.20078 1.05272
 C2329 C 0.27532 0.21167 1.04539
 C2330 C 0.28864 0.21716 1.04970
 C2331 C 0.29463 0.22832 1.04185
 C2332 C 0.28753 0.23388 1.03046
 C2333 C 0.27429 0.22851 1.02642
 C2334 C 0.26837 0.21725 1.03384
 H2335 H 0.27740 0.18082 1.08823
 H2336 H 0.32476 0.19950 1.10096
 H2337 H 0.28864 0.17258 1.10848
 H2338 H 0.32516 0.21478 1.08133
 H2339 H 0.31479 0.22408 1.06102
 H2340 H 0.26928 0.18694 1.06944
 H2341 H 0.25871 0.19648 1.04940
 H2342 H 0.30463 0.23323 1.04435
 H2343 H 0.29236 0.24260 1.02492
 H2344 H 0.25811 0.21301 1.03085
 C2345 C 0.78696 0.68682 1.09251
 C2346 C 0.79377 0.69662 1.08370
 C2347 C 0.80736 0.70170 1.08767
 C2348 C 0.81396 0.69668 1.09970
 C2349 C 0.80717 0.68668 1.10810
 C2350 C 0.79357 0.68197 1.10442
 C2351 C 0.81430 0.71176 1.07962
 C2352 C 0.80800 0.71709 1.06779
 C2353 C 0.79450 0.71236 1.06335
 C2354 C 0.78745 0.70167 1.07126
 C2355 C 0.77438 0.69626 1.06639
 C2356 C 0.76810 0.70147 1.05455
 C2357 C 0.77449 0.71231 1.04708
 C2358 C 0.78780 0.71792 1.05127
 C2359 C 0.79366 0.72904 1.04329
 C2360 C 0.78646 0.73443 1.03186
 C2361 C 0.77325 0.72892 1.02792
 C2362 C 0.76745 0.71770 1.03549
 H2363 H 0.77642 0.68281 1.09067
 H2364 H 0.82445 0.70050 1.10242
 H2365 H 0.78780 0.67457 1.11081
 H2366 H 0.82471 0.71568 1.08256
 H2367 H 0.81413 0.72484 1.06224
 H2368 H 0.76873 0.68780 1.07140
 H2369 H 0.75801 0.69703 1.05129
 H2370 H 0.80363 0.73406 1.04572
 H2371 H 0.79120 0.74313 1.02622
 H2372 H 0.75720 0.71336 1.03260
 C2373 C 0.81801 0.21142 0.59055
 C2374 C 0.80618 0.20601 0.58322
 C2375 C 0.79933 0.19385 0.58865
 C2376 C 0.80421 0.18747 0.60082
 C2377 C 0.81594 0.19297 0.60796
 C2378 C 0.82275 0.20501 0.60264
 C2379 C 0.78757 0.18809 0.58195
 C2380 C 0.78230 0.19418 0.57002
 C2381 C 0.78861 0.20637 0.56420
 C2382 C 0.80087 0.21229 0.57082
 C2383 C 0.80737 0.22430 0.56484
 C2384 C 0.80196 0.23052 0.55303
 C2385 C 0.78987 0.22510 0.54664
 C2386 C 0.78303 0.21290 0.55204
 C2387 C 0.77076 0.20792 0.54509
 C2388 C 0.76542 0.21495 0.53358
 C2389 C 0.77209 0.22712 0.52845
 C2390 C 0.78445 0.23201 0.53496
 H2391 H 0.82384 0.22065 0.58733
 H2392 H 0.79874 0.17821 0.60469
 H2393 H 0.83181 0.20962 0.60781
 H2394 H 0.78231 0.17876 0.58603
 H2395 H 0.77318 0.18899 0.56561
 H2396 H 0.81672 0.22924 0.56904
 H2397 H 0.80728 0.23979 0.54890
 H2398 H 0.76487 0.19874 0.54836
 H2399 H 0.75586 0.21089 0.52877
 H2400 H 0.78972 0.24145 0.53113
 C2401 C 0.68799 0.71217 0.40951
 C2402 C 0.69837 0.70484 0.41733
 C2403 C 0.70274 0.69124 0.41259
 C2404 C 0.69681 0.68531 0.40066
 C2405 C 0.68657 0.69273 0.39302
 C2406 C 0.68223 0.70619 0.39761
 C2407 C 0.71308 0.68360 0.41971
 C2408 C 0.71950 0.68926 0.43131
 C2409 C 0.71573 0.70284 0.43639
 C2410 C 0.70471 0.71059 0.42950
 C2411 C 0.70039 0.72382 0.43502
 C2412 C 0.70691 0.72954 0.44655
 C2413 C 0.71805 0.72241 0.45302
 C2414 C 0.72264 0.70895 0.44810
 C2415 C 0.73416 0.70233 0.45499
 C2416 C 0.74087 0.70892 0.46608
 C2417 C 0.73634 0.72226 0.47078
 C2418 C 0.72478 0.72885 0.46429
 H2419 H 0.68421 0.72265 0.41212
 H2420 H 0.70026 0.67485 0.39738
 H2421 H 0.67447 0.71231 0.39193
 H2422 H 0.71638 0.67315 0.41619
 H2423 H 0.72736 0.68259 0.43613
 H2424 H 0.69189 0.73007 0.43073
 H2425 H 0.70328 0.73978 0.45035
 H2426 H 0.73850 0.69220 0.45193
 H2427 H 0.74979 0.70358 0.47089
 H2428 H 0.72120 0.73922 0.46779
 C2429 C 0.71244 0.18679 -0.08930
 C2430 C 0.70574 0.19689 -0.08058
 C2431 C 0.69211 0.20193 -0.08451
 C2432 C 0.68559 0.19701 -0.09658
 C2433 C 0.69239 0.18708 -0.10512
 C2434 C 0.70585 0.18200 -0.10131
 C2435 C 0.68502 0.21194 -0.07644
 C2436 C 0.69122 0.21736 -0.06463
 C2437 C 0.70487 0.21292 -0.06032
 C2438 C 0.71213 0.20228 -0.06825
 C2439 C 0.72553 0.19743 -0.06360
 C2440 C 0.73184 0.20306 -0.05190
 C2441 C 0.72516 0.21378 -0.04436
 C2442 C 0.71155 0.21884 -0.04839
 C2443 C 0.70534 0.22987 -0.04044
 C2444 C 0.71249 0.23577 -0.02926
 C2445 C 0.72600 0.23087 -0.02547
 C2446 C 0.73218 0.21968 -0.03294
 H2447 H 0.72285 0.18248 -0.08728
 H2448 H 0.67512 0.20096 -0.09924
 H2449 H 0.71148 0.17443 -0.10771
 H2450 H 0.67455 0.21576 -0.07936
 H2451 H 0.68491 0.22503 -0.05909
 H2452 H 0.73149 0.18922 -0.06878
 H2453 H 0.74220 0.19907 -0.04883
 H2454 H 0.69511 0.23448 -0.04270
 H2455 H 0.70743 0.24438 -0.02367
 H2456 H 0.74268 0.21586 -0.03014
 C2457 C 0.18596 0.71558 -0.09346
 C2458 C 0.19612 0.70868 -0.08504
 C2459 C 0.20072 0.69492 -0.08912
 C2460 C 0.19526 0.68845 -0.10103
 C2461 C 0.18515 0.69543 -0.10920
 C2462 C 0.18061 0.70905 -0.10527
 C2463 C 0.21078 0.68764 -0.08131
 C2464 C 0.21657 0.69371 -0.06959
 C2465 C 0.21247 0.70743 -0.06508
 C2466 C 0.20193 0.71496 -0.07283
 C2467 C 0.19754 0.72850 -0.06810
 C2468 C 0.20341 0.73462 -0.05642
 C2469 C 0.21393 0.72759 -0.04895
 C2470 C 0.21861 0.71388 -0.05312
 C2471 C 0.22942 0.70732 -0.04521
 C2472 C 0.23540 0.71418 -0.03390
 C2473 C 0.23085 0.72779 -0.02993
 C2474 C 0.21994 0.73435 -0.03743
 H2475 H 0.18195 0.72609 -0.09133
 H2476 H 0.19883 0.67787 -0.10383
 H2477 H 0.17297 0.71485 -0.11140
 H2478 H 0.21429 0.67709 -0.08434
 H2479 H 0.22424 0.68727 -0.06425
 H2480 H 0.18950 0.73473 -0.07318
 H2481 H 0.19974 0.74507 -0.05326
 H2482 H 0.23371 0.69697 -0.04755
 H2483 H 0.24380 0.70881 -0.02830
 H2484 H 0.21635 0.74490 -0.03451
 C2485 C 0.18955 0.21041 0.41361
 C2486 C 0.20000 0.20298 0.42125
 C2487 C 0.20441 0.18949 0.41627
 C2488 C 0.19841 0.18373 0.40430
 C2489 C 0.18810 0.19126 0.39685
 C2490 C 0.18374 0.20462 0.40166
 C2491 C 0.21487 0.18179 0.42317
 C2492 C 0.22139 0.18731 0.43478
 C2493 C 0.21759 0.20079 0.44008
 C2494 C 0.20640 0.20855 0.43346
 C2495 C 0.20195 0.22159 0.43928
 C2496 C 0.20853 0.22715 0.45084
 C2497 C 0.21987 0.22006 0.45701
 C2498 C 0.22460 0.20678 0.45178
 C2499 C 0.23638 0.20024 0.45834
 C2500 C 0.24316 0.20672 0.46945
 C2501 C 0.23844 0.21987 0.47447
 C2502 C 0.22665 0.22638 0.46829
 H2503 H 0.18578 0.22085 0.41639
 H2504 H 0.20187 0.17334 0.40082
 H2505 H 0.17595 0.21083 0.39611
 H2506 H 0.21819 0.17142 0.41946
 H2507 H 0.22933 0.18062 0.43943
 H2508 H 0.19328 0.22779 0.43523
 H2509 H 0.20479 0.23725 0.45488
 H2510 H 0.24087 0.19028 0.45497
 H2511 H 0.25228 0.20148 0.47400
 H2512 H 0.22294 0.23661 0.47203
 C2513 C 0.28722 0.40895 0.68927
 C2514 C 0.29417 0.41748 0.69920
 C2515 C 0.30787 0.41308 0.70362
 C2516 C 0.31433 0.40084 0.69807
 C2517 C 0.30735 0.39263 0.68813
 C2518 C 0.29372 0.39681 0.68388
 C2519 C 0.31510 0.42088 0.71357
 C2520 C 0.30898 0.43287 0.71947
 C2521 C 0.29531 0.43767 0.71556
 C2522 C 0.28794 0.43007 0.70499
 C2523 C 0.27464 0.43534 0.70053
 C2524 C 0.26848 0.44730 0.70648
 C2525 C 0.27524 0.45447 0.71717
 C2526 C 0.28876 0.44981 0.72187
 C2527 C 0.29501 0.45738 0.73290
 C2528 C 0.28803 0.46884 0.73905
 C2529 C 0.27462 0.47328 0.73445
 C2530 C 0.26838 0.46616 0.72334
 H2531 H 0.27667 0.41120 0.68556
 H2532 H 0.32487 0.39780 0.70148
 H2533 H 0.28787 0.39061 0.67641
 H2534 H 0.32562 0.41763 0.71693
 H2535 H 0.31538 0.43821 0.72704
 H2536 H 0.26867 0.43053 0.69232
 H2537 H 0.25821 0.45087 0.70276
 H2538 H 0.30515 0.45458 0.73728
 H2539 H 0.29313 0.47415 0.74762
 H2540 H 0.25797 0.46946 0.71972
 C2541 C 0.28976 0.91241 0.18648
 C2542 C 0.29503 0.91836 0.19884
 C2543 C 0.30688 0.91159 0.20506
 C2544 C 0.31304 0.89941 0.19909
 C2545 C 0.30761 0.89363 0.18687
 C2546 C 0.29594 0.90032 0.18067
 C2547 C 0.31250 0.91694 0.21726
 C2548 C 0.30654 0.92879 0.22360
 C2549 C 0.29464 0.93586 0.21794
 C2550 C 0.28890 0.93065 0.20526
 C2551 C 0.27716 0.93785 0.19945
 C2552 C 0.27102 0.94951 0.20588
 C2553 C 0.27627 0.95452 0.21835
 C2554 C 0.28821 0.94791 0.22457
 C2555 C 0.29303 0.95359 0.23725
 C2556 C 0.28607 0.96507 0.24351
 C2557 C 0.27413 0.97132 0.23737
 C2558 C 0.26943 0.96606 0.22469
 H2559 H 0.28080 0.91672 0.18101
 H2560 H 0.32201 0.89441 0.20411
 H2561 H 0.29146 0.89628 0.17121
 H2562 H 0.32160 0.91185 0.22204
 H2563 H 0.31156 0.93212 0.23300
 H2564 H 0.27234 0.93477 0.18989
 H2565 H 0.26195 0.95460 0.20106
 H2566 H 0.30203 0.94934 0.24272
 H2567 H 0.28995 0.96893 0.25330
 H2568 H 0.26023 0.97082 0.21979
 C2569 C 0.78694 0.40966 0.18510
 C2570 C 0.79211 0.41656 0.19703
 C2571 C 0.80440 0.41076 0.20335
 C2572 C 0.81110 0.39864 0.19789
 C2573 C 0.80581 0.39190 0.18609
 C2574 C 0.79368 0.39758 0.17977
 C2575 C 0.80996 0.41700 0.21517
 C2576 C 0.80352 0.42881 0.22106
 C2577 C 0.79116 0.43496 0.21533
 C2578 C 0.78549 0.42888 0.20298
 C2579 C 0.77337 0.43528 0.19703
 C2580 C 0.76681 0.44698 0.20304
 C2581 C 0.77196 0.45279 0.21523
 C2582 C 0.78424 0.44696 0.22155
 C2583 C 0.78893 0.45330 0.23398
 C2584 C 0.78159 0.46471 0.23987
 C2585 C 0.76938 0.47028 0.23364
 C2586 C 0.76474 0.46434 0.22121
 H2587 H 0.77763 0.41319 0.17963
 H2588 H 0.82045 0.39449 0.20298
 H2589 H 0.78925 0.39271 0.17067
 H2590 H 0.81941 0.41265 0.22000
 H2591 H 0.80858 0.43287 0.23017
 H2592 H 0.76861 0.43153 0.18765
 H2593 H 0.75747 0.45146 0.19812
 H2594 H 0.79810 0.44962 0.23956
 H2595 H 0.78544 0.46908 0.24948
 H2596 H 0.75529 0.46854 0.21627
 C2597 C 0.78397 0.91082 0.68499
 C2598 C 0.79065 0.91903 0.69535
 C2599 C 0.80424 0.91450 0.69995
 C2600 C 0.81077 0.90239 0.69430
 C2601 C 0.80400 0.89438 0.68409
 C2602 C 0.79056 0.89876 0.67950
 C2603 C 0.81128 0.92203 0.71022
 C2604 C 0.80504 0.93384 0.71632
 C2605 C 0.79143 0.93870 0.71232
 C2606 C 0.78426 0.93140 0.70142
 C2607 C 0.77096 0.93670 0.69697
 C2608 C 0.76465 0.94843 0.70319
 C2609 C 0.77122 0.95531 0.71416
 C2610 C 0.78472 0.95060 0.71889
 C2611 C 0.79078 0.95786 0.73022
 C2612 C 0.78365 0.96909 0.73660
 C2613 C 0.77028 0.97359 0.73196
 C2614 C 0.76422 0.96676 0.72059
 H2615 H 0.77357 0.91326 0.68101
 H2616 H 0.82121 0.89926 0.69793
 H2617 H 0.78493 0.89277 0.67173
 H2618 H 0.82172 0.91868 0.71369
 H2619 H 0.81130 0.93897 0.72413
 H2620 H 0.76510 0.93207 0.68859
 H2621 H 0.75439 0.95204 0.69947
 H2622 H 0.80087 0.95499 0.73464
 H2623 H 0.78862 0.97416 0.74537
 H2624 H 0.75384 0.97011 0.71694
 C2625 C 0.71391 0.59407 0.68547
 C2626 C 0.70747 0.58555 0.69569
 C2627 C 0.69394 0.58986 0.70066
 C2628 C 0.68716 0.60204 0.69539
 C2629 C 0.69366 0.61026 0.68515
 C2630 C 0.70712 0.60614 0.68035
 C2631 C 0.68720 0.58203 0.71090
 C2632 C 0.69363 0.57006 0.71649
 C2633 C 0.70712 0.56530 0.71195
 C2634 C 0.71405 0.57304 0.70122
 C2635 C 0.72731 0.56802 0.69633
 C2636 C 0.73380 0.55613 0.70196
 C2637 C 0.72742 0.54872 0.71267
 C2638 C 0.71396 0.55308 0.71781
 C2639 C 0.70804 0.54509 0.72872
 C2640 C 0.71533 0.53352 0.73436
 C2641 C 0.72871 0.52944 0.72934
 C2642 C 0.73459 0.53701 0.71836
 H2643 H 0.72428 0.59185 0.68125
 H2644 H 0.67677 0.60503 0.69925
 H2645 H 0.71261 0.61230 0.67264
 H2646 H 0.67683 0.58524 0.71472
 H2647 H 0.68765 0.56473 0.72436
 H2648 H 0.73303 0.57299 0.68807
 H2649 H 0.74403 0.55276 0.69791
 H2650 H 0.69791 0.54756 0.73332
 H2651 H 0.71049 0.52786 0.74283
 H2652 H 0.74495 0.53398 0.71437
 C2653 C 0.68499 0.09270 0.21334
 C2654 C 0.69628 0.08421 0.20819
 C2655 C 0.70241 0.08822 0.19546
 C2656 C 0.69720 0.10004 0.18819
 C2657 C 0.68584 0.10814 0.19334
 C2658 C 0.67990 0.10439 0.20603
 C2659 C 0.71369 0.08040 0.18998
 C2660 C 0.71912 0.06866 0.19684
 C2661 C 0.71340 0.06414 0.20952
 C2662 C 0.70168 0.07197 0.21522
 C2663 C 0.69570 0.06723 0.22771
 C2664 C 0.70105 0.05543 0.23452
 C2665 C 0.71259 0.04786 0.22926
 C2666 C 0.71897 0.05205 0.21670
 C2667 C 0.73076 0.04399 0.21194
 C2668 C 0.73598 0.03245 0.21940
 C2669 C 0.72966 0.02844 0.23183
 C2670 C 0.71787 0.03614 0.23663
 H2671 H 0.67986 0.09072 0.22303
 H2672 H 0.70190 0.10278 0.17838
 H2673 H 0.67131 0.11054 0.21047
 H2674 H 0.71843 0.08340 0.18026
 H2675 H 0.72781 0.06328 0.19180
 H2676 H 0.68674 0.07235 0.23255
 H2677 H 0.69609 0.05225 0.24409
 H2678 H 0.73635 0.04637 0.20257
 H2679 H 0.74511 0.02671 0.21543
 H2680 H 0.71292 0.03319 0.24627
 C2681 C 0.20756 0.58847 0.18578
 C2682 C 0.20225 0.58236 0.19804
 C2683 C 0.19087 0.58948 0.20477
 C2684 C 0.18525 0.60219 0.19943
 C2685 C 0.19081 0.60817 0.18740
 C2686 C 0.20194 0.60110 0.18063
 C2687 C 0.18523 0.58397 0.21688
 C2688 C 0.19079 0.57169 0.22269
 C2689 C 0.20229 0.56431 0.21657
 C2690 C 0.20798 0.56962 0.20392
 C2691 C 0.21929 0.56210 0.19765
 C2692 C 0.22517 0.55012 0.20366
 C2693 C 0.22006 0.54506 0.21614
 C2694 C 0.20844 0.55190 0.22275
 C2695 C 0.20367 0.54612 0.23537
 C2696 C 0.21044 0.53437 0.24127
 C2697 C 0.22214 0.52795 0.23483
 C2698 C 0.22673 0.53325 0.22215
 H2699 H 0.21612 0.58387 0.17991
 H2700 H 0.17671 0.60755 0.20486
 H2701 H 0.20637 0.60529 0.17122
 H2702 H 0.17647 0.58931 0.22202
 H2703 H 0.18583 0.56831 0.23209
 H2704 H 0.22399 0.56522 0.18804
 H2705 H 0.23396 0.54483 0.19851
 H2706 H 0.19487 0.55049 0.24109
 H2707 H 0.20664 0.53048 0.25107
 H2708 H 0.23573 0.52833 0.21700
 C2709 C 0.20919 0.09189 0.69047
 C2710 C 0.20296 0.08445 0.70155
 C2711 C 0.19010 0.08997 0.70709
 C2712 C 0.18370 0.10221 0.70144
 C2713 C 0.18994 0.10928 0.69028
 C2714 C 0.20280 0.10399 0.68500
 C2715 C 0.18370 0.08326 0.71825
 C2716 C 0.18980 0.07124 0.72415
 C2717 C 0.20256 0.06528 0.71900
 C2718 C 0.20911 0.07187 0.70735
 C2719 C 0.22155 0.06560 0.70182
 C2720 C 0.22761 0.05358 0.70761
 C2721 C 0.22162 0.04726 0.71916
 C2722 C 0.20901 0.05293 0.72506
 C2723 C 0.20352 0.04603 0.73686
 C2724 C 0.21039 0.03419 0.74253
 C2725 C 0.22291 0.02876 0.73667
 C2726 C 0.22835 0.03533 0.72488
 H2727 H 0.21913 0.08879 0.68581
 H2728 H 0.17380 0.10613 0.70574
 H2729 H 0.20815 0.10923 0.67659
 H2730 H 0.17387 0.08739 0.72254
 H2731 H 0.18412 0.06680 0.73272
 H2732 H 0.22689 0.06963 0.69287
 H2733 H 0.23719 0.04921 0.70300
 H2734 H 0.19407 0.04960 0.74211
 H2735 H 0.20594 0.02938 0.75167
 H2736 H 0.23804 0.03128 0.72022
 C2737 C 0.30904 0.59235 0.28886
 C2738 C 0.29822 0.58400 0.29492
 C2739 C 0.29334 0.58805 0.30817
 C2740 C 0.29924 0.59983 0.31500
 C2741 C 0.31014 0.60777 0.30893
 C2742 C 0.31486 0.60395 0.29578
 C2743 C 0.28264 0.58029 0.31459
 C2744 C 0.27665 0.56852 0.30823
 C2745 C 0.28116 0.56394 0.29508
 C2746 C 0.29213 0.57182 0.28831
 C2747 C 0.29668 0.56722 0.27519
 C2748 C 0.29069 0.55547 0.26882
 C2749 C 0.27995 0.54775 0.27520
 C2750 C 0.27503 0.55179 0.28844
 C2751 C 0.26411 0.54348 0.29441
 C2752 C 0.25823 0.53194 0.28741
 C2753 C 0.26302 0.52816 0.27426
 C2754 C 0.27401 0.53606 0.26829
 H2755 H 0.31332 0.59027 0.27880
 H2756 H 0.29550 0.60264 0.32520
 H2757 H 0.32308 0.61000 0.29067
 H2758 H 0.27885 0.58333 0.32471
 H2759 H 0.26846 0.56322 0.31399
 H2760 H 0.30491 0.57247 0.26945
 H2761 H 0.29451 0.55242 0.25871
 H2762 H 0.25974 0.54562 0.30443
 H2763 H 0.24978 0.52602 0.29232
 H2764 H 0.27780 0.53326 0.25810
 C2765 C 0.30855 0.09281 0.78775
 C2766 C 0.29900 0.08368 0.79466
 C2767 C 0.29489 0.08746 0.80821
 C2768 C 0.30056 0.09962 0.81463
 C2769 C 0.31030 0.10831 0.80772
 C2770 C 0.31407 0.10482 0.79419
 C2771 C 0.28515 0.07910 0.81533
 C2772 C 0.27920 0.06714 0.80925
 C2773 C 0.28292 0.06288 0.79578
 C2774 C 0.29329 0.07108 0.78852
 C2775 C 0.29773 0.06634 0.77542
 C2776 C 0.29189 0.05435 0.76936
 C2777 C 0.28133 0.04662 0.77601
 C2778 C 0.27667 0.05070 0.78932
 C2779 C 0.26575 0.04251 0.79545
 C2780 C 0.25967 0.03099 0.78855
 C2781 C 0.26427 0.02715 0.77536
 C2782 C 0.27526 0.03492 0.76925
 H2783 H 0.31185 0.09115 0.77727
 H2784 H 0.29748 0.10218 0.82507
 H2785 H 0.32126 0.11148 0.78839
 H2786 H 0.28199 0.08189 0.82571
 H2787 H 0.27179 0.06132 0.81552
 H2788 H 0.30589 0.07156 0.76955
 H2789 H 0.29560 0.05119 0.75924
 H2790 H 0.26140 0.04488 0.80544
 H2791 H 0.25117 0.02520 0.79353
 H2792 H 0.27887 0.03211 0.75901
 C2793 C 0.81221 0.59398 0.78818
 C2794 C 0.80133 0.58534 0.79371
 C2795 C 0.79580 0.58911 0.80679
 C2796 C 0.80132 0.60080 0.81409
 C2797 C 0.81241 0.60894 0.80859
 C2798 C 0.81762 0.60549 0.79552
 C2799 C 0.78484 0.58115 0.81258
 C2800 C 0.77920 0.56949 0.80571
 C2801 C 0.78441 0.56518 0.79272
 C2802 C 0.79577 0.57315 0.78669
 C2803 C 0.80132 0.56859 0.77392
 C2804 C 0.79587 0.55684 0.76714
 C2805 C 0.78465 0.54914 0.77270
 C2806 C 0.77871 0.55312 0.78556
 C2807 C 0.76722 0.54489 0.79059
 C2808 C 0.76188 0.53339 0.78309
 C2809 C 0.76779 0.52961 0.77038
 C2810 C 0.77927 0.53749 0.76533
 H2811 H 0.81678 0.59227 0.77817
 H2812 H 0.79715 0.60338 0.82418
 H2813 H 0.82590 0.61177 0.79078
 H2814 H 0.78055 0.58397 0.82257
 H2815 H 0.77079 0.56399 0.81097
 H2816 H 0.81003 0.57379 0.76884
 H2817 H 0.80049 0.55379 0.75734
 H2818 H 0.76198 0.54712 0.80020
 H2819 H 0.75298 0.52751 0.78725
 H2820 H 0.78392 0.53473 0.75547
 C2821 C 0.81340 0.08960 0.29219
 C2822 C 0.80133 0.08242 0.29738
 C2823 C 0.79457 0.08827 0.30915
 C2824 C 0.79960 0.10090 0.31520
 C2825 C 0.81137 0.10802 0.30970
 C2826 C 0.81826 0.10212 0.29824
 C2827 C 0.78272 0.08159 0.31479
 C2828 C 0.77717 0.06937 0.30885
 C2829 C 0.78324 0.06330 0.29690
 C2830 C 0.79566 0.06981 0.29119
 C2831 C 0.80189 0.06360 0.27938
 C2832 C 0.79603 0.05171 0.27313
 C2833 C 0.78373 0.04548 0.27832
 C2834 C 0.77720 0.05106 0.29034
 C2835 C 0.76471 0.04425 0.29511
 C2836 C 0.75886 0.03275 0.28804
 C2837 C 0.76522 0.02751 0.27602
 C2838 C 0.77780 0.03382 0.27135
 H2839 H 0.81936 0.08594 0.28341
 H2840 H 0.79413 0.10531 0.32404
 H2841 H 0.82754 0.10714 0.29383
 H2842 H 0.77758 0.08592 0.32386
 H2843 H 0.76799 0.06500 0.31390
 H2844 H 0.81132 0.06771 0.27456
 H2845 H 0.80112 0.04746 0.26400
 H2846 H 0.75902 0.04764 0.30415
 H2847 H 0.74915 0.02806 0.29194
 H2848 H 0.78284 0.02987 0.26206
 C2849 C 0.70872 0.40824 0.31676
 C2850 C 0.70355 0.41495 0.30475
 C2851 C 0.69168 0.40870 0.29812
 C2852 C 0.68533 0.39633 0.30341
 C2853 C 0.69060 0.38984 0.31534
 C2854 C 0.70236 0.39598 0.32189
 C2855 C 0.68619 0.41477 0.28619
 C2856 C 0.69228 0.42686 0.28056
 C2857 C 0.70417 0.43349 0.28668
 C2858 C 0.70980 0.42752 0.29907
 C2859 C 0.72151 0.43429 0.30536
 C2860 C 0.72772 0.44625 0.29966
 C2861 C 0.72259 0.45201 0.28747
 C2862 C 0.71070 0.44583 0.28079
 C2863 C 0.70599 0.45222 0.26842
 C2864 C 0.71300 0.46398 0.26287
 C2865 C 0.72487 0.46984 0.26943
 C2866 C 0.72947 0.46388 0.28184
 H2867 H 0.71773 0.41209 0.32246
 H2868 H 0.67629 0.39177 0.29812
 H2869 H 0.70680 0.39136 0.33110
 H2870 H 0.67709 0.41007 0.28108
 H2871 H 0.68734 0.43076 0.27133
 H2872 H 0.72622 0.43064 0.31479
 H2873 H 0.73676 0.45099 0.30483
 H2874 H 0.69706 0.44832 0.26263
 H2875 H 0.70918 0.46836 0.25328
 H2876 H 0.73865 0.46831 0.28705
 C2877 C 0.71371 0.90624 0.81201
 C2878 C 0.70690 0.91512 0.80232
 C2879 C 0.69317 0.91108 0.79772
 C2880 C 0.68644 0.89895 0.80310
 C2881 C 0.69322 0.89053 0.81301
 C2882 C 0.70697 0.89424 0.81722
 C2883 C 0.68620 0.91917 0.78780
 C2884 C 0.69257 0.93115 0.78221
 C2885 C 0.70619 0.93570 0.78650
 C2886 C 0.71331 0.92774 0.79697
 C2887 C 0.72651 0.93275 0.80190
 C2888 C 0.73281 0.94482 0.79651
 C2889 C 0.72630 0.95238 0.78595
 C2890 C 0.71291 0.94799 0.78075
 C2891 C 0.70695 0.95602 0.76987
 C2892 C 0.71407 0.96774 0.76442
 C2893 C 0.72730 0.97195 0.76961
 C2894 C 0.73327 0.96427 0.78049
 H2895 H 0.72435 0.90808 0.81567
 H2896 H 0.67584 0.89620 0.79965
 H2897 H 0.71274 0.88782 0.82455
 H2898 H 0.67570 0.91617 0.78424
 H2899 H 0.68640 0.93675 0.77464
 H2900 H 0.73226 0.92771 0.81012
 H2901 H 0.74298 0.94821 0.80060
 H2902 H 0.69695 0.95340 0.76514
 H2903 H 0.70921 0.97344 0.75598
 H2904 H 0.74354 0.96737 0.78456
 C2905 C 0.21558 0.40491 0.81019
 C2906 C 0.20875 0.41477 0.80146
 C2907 C 0.19456 0.41179 0.79739
 C2908 C 0.18738 0.39980 0.80256
 C2909 C 0.19416 0.39053 0.81173
 C2910 C 0.20840 0.39309 0.81521
 C2911 C 0.18760 0.42085 0.78828
 C2912 C 0.19440 0.43276 0.78301
 C2913 C 0.20844 0.43632 0.78689
 C2914 C 0.21558 0.42736 0.79656
 C2915 C 0.22921 0.43143 0.80123
 C2916 C 0.23589 0.44350 0.79629
 C2917 C 0.22938 0.45200 0.78643
 C2918 C 0.21558 0.44857 0.78154
 C2919 C 0.20962 0.45749 0.77134
 C2920 C 0.21712 0.46914 0.76622
 C2921 C 0.23075 0.47241 0.77111
 C2922 C 0.23673 0.46386 0.78135
 H2923 H 0.22655 0.40585 0.81323
 H2924 H 0.17642 0.39787 0.79965
 H2925 H 0.21417 0.38589 0.82183
 H2926 H 0.17676 0.41867 0.78512
 H2927 H 0.18819 0.43915 0.77606
 H2928 H 0.23499 0.42563 0.80895
 H2929 H 0.24637 0.44614 0.80018
 H2930 H 0.19933 0.45563 0.76685
 H2931 H 0.21223 0.47553 0.75827
 H2932 H 0.24731 0.46621 0.78514
 C2933 C 0.18768 0.90543 0.28901
 C2934 C 0.19749 0.91460 0.29561
 C2935 C 0.20176 0.91102 0.30914
 C2936 C 0.19645 0.89880 0.31561
 C2937 C 0.18682 0.88982 0.30891
 C2938 C 0.18246 0.89331 0.29557
 C2939 C 0.21134 0.91961 0.31620
 C2940 C 0.21702 0.93163 0.31012
 C2941 C 0.21335 0.93561 0.29659
 C2942 C 0.20329 0.92706 0.28927
 C2943 C 0.19942 0.93123 0.27584
 C2944 C 0.20535 0.94311 0.26966
 C2945 C 0.21540 0.95136 0.27652
 C2946 C 0.21951 0.94780 0.29011
 C2947 C 0.22982 0.95652 0.29655
 C2948 C 0.23592 0.96797 0.28969
 C2949 C 0.23198 0.97130 0.27620
 C2950 C 0.22153 0.96304 0.26975
 H2951 H 0.18384 0.90721 0.27874
 H2952 H 0.19981 0.89639 0.32599
 H2953 H 0.17511 0.88657 0.29004
 H2954 H 0.21456 0.91697 0.32658
 H2955 H 0.22432 0.93757 0.31639
 H2956 H 0.19180 0.92549 0.26973
 H2957 H 0.20211 0.94579 0.25930
 H2958 H 0.23362 0.95473 0.30682
 H2959 H 0.24392 0.97419 0.29498
 H2960 H 0.21840 0.96549 0.25930
 C2961 C 0.40710 0.29242 0.68937
 C2962 C 0.41443 0.29873 0.70050
 C2963 C 0.40874 0.31150 0.70606
 C2964 C 0.39646 0.31775 0.70039
 C2965 C 0.38947 0.31143 0.68921
 C2966 C 0.39492 0.29867 0.68388
 C2967 C 0.41531 0.31796 0.71728
 C2968 C 0.42733 0.31198 0.72327
 C2969 C 0.43344 0.29929 0.71813
 C2970 C 0.42705 0.29273 0.70637
 C2971 C 0.43354 0.28043 0.70079
 C2972 C 0.44553 0.27445 0.70671
 C2973 C 0.45158 0.28038 0.71844
 C2974 C 0.44573 0.29291 0.72434
 C2975 C 0.45235 0.29836 0.73632
 C2976 C 0.46409 0.29152 0.74219
 C2977 C 0.46967 0.27908 0.73634
 C2978 C 0.46342 0.27369 0.72436
 H2979 H 0.41033 0.28253 0.68472
 H2980 H 0.39242 0.32757 0.70474
 H2981 H 0.38979 0.29330 0.67542
 H2982 H 0.41105 0.32773 0.72158
 H2983 H 0.43166 0.31769 0.73189
 H2984 H 0.42970 0.27516 0.69170
 H2985 H 0.45007 0.26496 0.70208
 H2986 H 0.44863 0.30774 0.74158
 H2987 H 0.46868 0.29591 0.75147
 H2988 H 0.46763 0.26406 0.71971
 C2989 C 0.40412 0.81186 0.20775
 C2990 C 0.41267 0.80129 0.20144
 C2991 C 0.40835 0.79617 0.18837
 C2992 C 0.39618 0.80175 0.18187
 C2993 C 0.38799 0.81240 0.18820
 C2994 C 0.39207 0.81727 0.20123
 C2995 C 0.41617 0.78551 0.18183
 C2996 C 0.42809 0.77959 0.18803
 C2997 C 0.43284 0.78424 0.20105
 C2998 C 0.42521 0.79552 0.20771
 C2999 C 0.43043 0.80075 0.22035
 C3000 C 0.44237 0.79488 0.22653
 C3001 C 0.44958 0.78352 0.22048
 C3002 C 0.44498 0.77801 0.20765
 C3003 C 0.45261 0.76630 0.20211
 C3004 C 0.46411 0.76032 0.20911
 C3005 C 0.46853 0.76578 0.22180
 C3006 C 0.46131 0.77752 0.22733
 H3007 H 0.40627 0.81608 0.21782
 H3008 H 0.39320 0.79783 0.17181
 H3009 H 0.38588 0.82525 0.20660
 H3010 H 0.41297 0.78160 0.17182
 H3011 H 0.43345 0.77144 0.18220
 H3012 H 0.42562 0.80953 0.22575
 H3013 H 0.44591 0.79922 0.23627
 H3014 H 0.44983 0.76128 0.19254
 H3015 H 0.46949 0.75125 0.20457
 H3016 H 0.46457 0.78180 0.23719
 C3017 C 0.90474 0.31423 0.21408
 C3018 C 0.91432 0.30457 0.20772
 C3019 C 0.91115 0.30009 0.19414
 C3020 C 0.89898 0.30513 0.18734
 C3021 C 0.88963 0.31466 0.19379
 C3022 C 0.89266 0.31915 0.20720
 C3023 C 0.92011 0.29058 0.18735
 C3024 C 0.93207 0.28511 0.19379
 C3025 C 0.93562 0.28897 0.20739
 C3026 C 0.92677 0.29910 0.21438
 C3027 C 0.93067 0.30337 0.22779
 C3028 C 0.94252 0.29770 0.23430
 C3029 C 0.95097 0.28748 0.22783
 C3030 C 0.94770 0.28298 0.21426
 C3031 C 0.95653 0.27244 0.20826
 C3032 C 0.96785 0.26651 0.21550
 C3033 C 0.97091 0.27086 0.22893
 C3034 C 0.96254 0.28153 0.23497
 H3035 H 0.90613 0.31811 0.22440
 H3036 H 0.89688 0.30165 0.17693
 H3037 H 0.88558 0.32639 0.21255
 H3038 H 0.91780 0.28722 0.17692
 H3039 H 0.93834 0.27786 0.18771
 H3040 H 0.92476 0.31115 0.23360
 H3041 H 0.94501 0.30125 0.24463
 H3042 H 0.95489 0.26828 0.19808
 H3043 H 0.97416 0.25831 0.21053
 H3044 H 0.96478 0.28494 0.24540
 C3045 C 0.90476 0.81799 0.70708
 C3046 C 0.91245 0.80612 0.70201
 C3047 C 0.90711 0.79922 0.69012
 C3048 C 0.89476 0.80426 0.68355
 C3049 C 0.88736 0.81613 0.68867
 C3050 C 0.89251 0.82285 0.70052
 C3051 C 0.91407 0.78729 0.68484
 C3052 C 0.92611 0.78183 0.69121
 C3053 C 0.93183 0.78822 0.70313
 C3054 C 0.92508 0.80077 0.70842
 C3055 C 0.93120 0.80760 0.71991
 C3056 C 0.94318 0.80215 0.72633
 C3057 C 0.94954 0.78965 0.72166
 C3058 C 0.94406 0.78248 0.70998
 C3059 C 0.95094 0.76974 0.70583
 C3060 C 0.96255 0.76434 0.71312
 C3061 C 0.96778 0.77143 0.72472
 C3062 C 0.96130 0.78419 0.72881
 H3063 H 0.90777 0.82371 0.71621
 H3064 H 0.89095 0.79883 0.67446
 H3065 H 0.88709 0.83193 0.70492
 H3066 H 0.91009 0.78201 0.67571
 H3067 H 0.93075 0.77259 0.68642
 H3068 H 0.92707 0.81732 0.72422
 H3069 H 0.94742 0.80773 0.73517
 H3070 H 0.94749 0.76350 0.69718
 H3071 H 0.96734 0.75444 0.70973
 H3072 H 0.96521 0.78978 0.73780
 C3073 C 0.59054 0.29059 0.31175
 C3074 C 0.58367 0.29680 0.30031
 C3075 C 0.58984 0.30919 0.29461
 C3076 C 0.60218 0.31518 0.30043
 C3077 C 0.60873 0.30896 0.31191
 C3078 C 0.60276 0.29657 0.31739
 C3079 C 0.58371 0.31552 0.28310
 C3080 C 0.57167 0.30976 0.27697
 C3081 C 0.56509 0.29744 0.28223
 C3082 C 0.57103 0.29103 0.29428
 C3083 C 0.56410 0.27911 0.29995
 C3084 C 0.55211 0.27333 0.29389
 C3085 C 0.54648 0.27911 0.28192
 C3086 C 0.55276 0.29128 0.27589
 C3087 C 0.54650 0.29658 0.26366
 C3088 C 0.53473 0.28989 0.25768
 C3089 C 0.52875 0.27777 0.26365
 C3090 C 0.53463 0.27258 0.27588
 H3091 H 0.58691 0.28097 0.31657
 H3092 H 0.60664 0.32469 0.29595
 H3093 H 0.60749 0.29130 0.32612
 H3094 H 0.58835 0.32501 0.27869
 H3095 H 0.56771 0.31533 0.26811
 H3096 H 0.56759 0.27396 0.30922
 H3097 H 0.54725 0.26410 0.29860
 H3098 H 0.55056 0.30571 0.25831
 H3099 H 0.53044 0.29413 0.24820
 H3100 H 0.53012 0.26321 0.28065
 C3101 C 0.59387 0.79072 0.81115
 C3102 C 0.58635 0.79758 0.80044
 C3103 C 0.59156 0.81090 0.79590
 C3104 C 0.60364 0.81702 0.80199
 C3105 C 0.61093 0.81010 0.81263
 C3106 C 0.60588 0.79689 0.81709
 C3107 C 0.58471 0.81809 0.78529
 C3108 C 0.57285 0.81233 0.77890
 C3109 C 0.56724 0.79907 0.78292
 C3110 C 0.57396 0.79167 0.79402
 C3111 C 0.56805 0.77864 0.79836
 C3112 C 0.55620 0.77287 0.79195
 C3113 C 0.54976 0.77974 0.78092
 C3114 C 0.55513 0.79294 0.77621
 C3115 C 0.54822 0.79933 0.76485
 C3116 C 0.53665 0.79280 0.75845
 C3117 C 0.53147 0.77973 0.76311
 C3118 C 0.53802 0.77335 0.77447
 H3119 H 0.59089 0.78049 0.81514
 H3120 H 0.60729 0.82727 0.79841
 H3121 H 0.61127 0.79113 0.82517
 H3122 H 0.58861 0.82831 0.78182
 H3123 H 0.56828 0.81868 0.77085
 H3124 H 0.57228 0.77257 0.80678
 H3125 H 0.55210 0.76281 0.79563
 H3126 H 0.55157 0.80926 0.76046
 H3127 H 0.53183 0.79799 0.74968
 H3128 H 0.53416 0.76320 0.77817
 C3129 C 0.09464 0.28994 0.81351
 C3130 C 0.08611 0.29659 0.80341
 C3131 C 0.09054 0.31008 0.79857
 C3132 C 0.10281 0.31664 0.80390
 C3133 C 0.11100 0.30997 0.81406
 C3134 C 0.10680 0.29652 0.81869
 C3135 C 0.08272 0.31701 0.78843
 C3136 C 0.07066 0.31081 0.78281
 C3137 C 0.06578 0.29737 0.78720
 C3138 C 0.07348 0.29026 0.79787
 C3139 C 0.06826 0.27711 0.80268
 C3140 C 0.05621 0.27090 0.79705
 C3141 C 0.04887 0.27743 0.78636
 C3142 C 0.05348 0.29078 0.78128
 C3143 C 0.04567 0.29683 0.77031
 C3144 C 0.03405 0.28981 0.76455
 C3145 C 0.02967 0.27655 0.76950
 C3146 C 0.03703 0.27052 0.78057
 H3147 H 0.09237 0.27956 0.81757
 H3148 H 0.10587 0.32703 0.80017
 H3149 H 0.11295 0.29088 0.82632
 H3150 H 0.08601 0.32735 0.78472
 H3151 H 0.06533 0.31697 0.77505
 H3152 H 0.07318 0.27130 0.81092
 H3153 H 0.05269 0.26075 0.80105
 H3154 H 0.04837 0.30686 0.76571
 H3155 H 0.02857 0.29476 0.75602
 H3156 H 0.03379 0.26023 0.78445
 C3157 C 0.09186 0.78669 0.31572
 C3158 C 0.08484 0.79181 0.30384
 C3159 C 0.09046 0.80413 0.29752
 C3160 C 0.10255 0.81091 0.30292
 C3161 C 0.10941 0.80567 0.31467
 C3162 C 0.10386 0.79350 0.32098
 C3163 C 0.08405 0.80966 0.28578
 C3164 C 0.07224 0.80317 0.28001
 C3165 C 0.06626 0.79078 0.28577
 C3166 C 0.07256 0.78509 0.29798
 C3167 C 0.06641 0.77287 0.30390
 C3168 C 0.05472 0.76626 0.29802
 C3169 C 0.04864 0.77147 0.28599
 C3170 C 0.05423 0.78384 0.27969
 C3171 C 0.04759 0.78860 0.26746
 C3172 C 0.03613 0.78127 0.26173
 C3173 C 0.03080 0.76897 0.26793
 C3174 C 0.03705 0.76423 0.28016
 H3175 H 0.08844 0.77739 0.32121
 H3176 H 0.10659 0.82029 0.29785
 H3177 H 0.10879 0.78910 0.33006
 H3178 H 0.08827 0.81912 0.28093
 H3179 H 0.06804 0.80820 0.27096
 H3180 H 0.07037 0.76805 0.31316
 H3181 H 0.05045 0.75685 0.30291
 H3182 H 0.05105 0.79786 0.26193
 H3183 H 0.03152 0.78521 0.25227
 H3184 H 0.03304 0.75472 0.28508
 C3185 C 0.59389 0.69064 0.70900
 C3186 C 0.58560 0.70137 0.70263
 C3187 C 0.58989 0.70595 0.68940
 C3188 C 0.60186 0.69994 0.68293
 C3189 C 0.60998 0.68938 0.68940
 C3190 C 0.60582 0.68480 0.70248
 C3191 C 0.58227 0.71656 0.68265
 C3192 C 0.57060 0.72301 0.68880
 C3193 C 0.56595 0.71904 0.70204
 C3194 C 0.57337 0.70781 0.70895
 C3195 C 0.56829 0.70340 0.72191
 C3196 C 0.55663 0.70991 0.72808
 C3197 C 0.54959 0.72116 0.72171
 C3198 C 0.55411 0.72592 0.70860
 C3199 C 0.54669 0.73755 0.70273
 C3200 C 0.53543 0.74414 0.70964
 C3201 C 0.53106 0.73940 0.72258
 C3202 C 0.53813 0.72778 0.72849
 H3203 H 0.59160 0.68662 0.71911
 H3204 H 0.60479 0.70357 0.67277
 H3205 H 0.61188 0.67676 0.70786
 H3206 H 0.58544 0.72002 0.67248
 H3207 H 0.56539 0.73106 0.68279
 H3208 H 0.57305 0.69482 0.72760
 H3209 H 0.55318 0.70617 0.73807
 H3210 H 0.54942 0.74203 0.69292
 H3211 H 0.53018 0.75310 0.70481
 H3212 H 0.53490 0.72405 0.73855
 C3213 C 0.59316 0.19048 0.21043
 C3214 C 0.58472 0.20119 0.20425
 C3215 C 0.58877 0.20591 0.19099
 C3216 C 0.60066 0.19997 0.18425
 C3217 C 0.60868 0.18919 0.19045
 C3218 C 0.60485 0.18462 0.20362
 C3219 C 0.58091 0.21648 0.18443
 C3220 C 0.56905 0.22251 0.19069
 C3221 C 0.56449 0.21819 0.20387
 C3222 C 0.57245 0.20733 0.21076
 C3223 C 0.56785 0.20295 0.22390
 C3224 C 0.55603 0.20900 0.23018
 C3225 C 0.54824 0.21966 0.22368
 C3226 C 0.55228 0.22440 0.21042
 C3227 C 0.54392 0.23526 0.20435
 C3228 C 0.53234 0.24125 0.21128
 C3229 C 0.52856 0.23664 0.22445
 C3230 C 0.53649 0.22570 0.23052
 H3231 H 0.59108 0.18633 0.22052
 H3232 H 0.60346 0.20358 0.17405
 H3233 H 0.61097 0.17649 0.20882
 H3234 H 0.58395 0.22014 0.17430
 H3235 H 0.56368 0.23059 0.18483
 H3236 H 0.57315 0.19480 0.22972
 H3237 H 0.55298 0.20531 0.24030
 H3238 H 0.54606 0.23950 0.19430
 H3239 H 0.52639 0.24965 0.20629
 H3240 H 0.53370 0.22204 0.24072
 C3241 C 0.09223 0.70898 0.18315
 C3242 C 0.08525 0.70353 0.19492
 C3243 C 0.09109 0.69115 0.20103
 C3244 C 0.10329 0.68461 0.19549
 C3245 C 0.11008 0.69018 0.18386
 C3246 C 0.10438 0.70240 0.17777
 C3247 C 0.08481 0.68534 0.21269
 C3248 C 0.07289 0.69159 0.21861
 C3249 C 0.06665 0.70398 0.21304
 C3250 C 0.07282 0.70995 0.20090
 C3251 C 0.06637 0.72214 0.19514
 C3252 C 0.05455 0.72848 0.20117
 C3253 C 0.04861 0.72300 0.21315
 C3254 C 0.05447 0.71063 0.21925
 C3255 C 0.04794 0.70555 0.23141
 C3256 C 0.03635 0.71263 0.23731
 C3257 C 0.03077 0.72496 0.23133
 C3258 C 0.03689 0.72998 0.21914
 H3259 H 0.08870 0.71840 0.17789
 H3260 H 0.10742 0.67510 0.20031
 H3261 H 0.10939 0.70709 0.16886
 H3262 H 0.08921 0.67586 0.21738
 H3263 H 0.06883 0.68637 0.22761
 H3264 H 0.07018 0.72710 0.18591
 H3265 H 0.05005 0.73788 0.19640
 H3266 H 0.05158 0.69624 0.23678
 H3267 H 0.03184 0.70847 0.24672
 H3268 H 0.03269 0.73953 0.21439
 C3269 C 0.09429 0.21418 0.68936
 C3270 C 0.08560 0.20824 0.69971
 C3271 C 0.08954 0.19471 0.70492
 C3272 C 0.10144 0.18738 0.69959
 C3273 C 0.10971 0.19333 0.68909
 C3274 C 0.10604 0.20686 0.68419
 C3275 C 0.08159 0.18856 0.71542
 C3276 C 0.06990 0.19557 0.72103
 C3277 C 0.06549 0.20904 0.71620
 C3278 C 0.07329 0.21533 0.70515
 C3279 C 0.06845 0.22843 0.69980
 C3280 C 0.05673 0.23540 0.70529
 C3281 C 0.04932 0.22970 0.71637
 C3282 C 0.05353 0.21644 0.72200
 C3283 C 0.04564 0.21127 0.73334
 C3284 C 0.03425 0.21899 0.73881
 C3285 C 0.03021 0.23211 0.73322
 C3286 C 0.03775 0.23732 0.72189
 H3287 H 0.09247 0.22458 0.68510
 H3288 H 0.10415 0.17697 0.70355
 H3289 H 0.11234 0.21202 0.67637
 H3290 H 0.08450 0.17821 0.71944
 H3291 H 0.06443 0.19000 0.72910
 H3292 H 0.07340 0.23359 0.69119
 H3293 H 0.05348 0.24546 0.70085
 H3294 H 0.04810 0.20140 0.73839
 H3295 H 0.02864 0.21468 0.74758
 H3296 H 0.03477 0.24748 0.71748
 C3297 C 0.40554 0.68412 0.28558
 C3298 C 0.41392 0.69549 0.29058
 C3299 C 0.41003 0.70156 0.30341
 C3300 C 0.39841 0.69623 0.31090
 C3301 C 0.39041 0.68481 0.30587
 C3302 C 0.39406 0.67891 0.29310
 C3303 C 0.41778 0.71289 0.30878
 C3304 C 0.42930 0.71845 0.30169
 C3305 C 0.43366 0.71283 0.28888
 C3306 C 0.42592 0.70106 0.28329
 C3307 C 0.43049 0.69520 0.27065
 C3308 C 0.44203 0.70073 0.26358
 C3309 C 0.44951 0.71234 0.26873
 C3310 C 0.44549 0.71857 0.28145
 C3311 C 0.45346 0.73040 0.28612
 C3312 C 0.46473 0.73580 0.27840
 C3313 C 0.46855 0.72963 0.26580
 C3314 C 0.46094 0.71781 0.26110
 H3315 H 0.40745 0.67900 0.27585
 H3316 H 0.39576 0.70090 0.32076
 H3317 H 0.38796 0.67027 0.28876
 H3318 H 0.41488 0.71755 0.31859
 H3319 H 0.43462 0.72717 0.30666
 H3320 H 0.42542 0.68622 0.26587
 H3321 H 0.44509 0.69589 0.25389
 H3322 H 0.45124 0.73587 0.29560
 H3323 H 0.47042 0.74495 0.28232
 H3324 H 0.46376 0.71297 0.25134
 C3325 C 0.40804 0.18879 0.78765
 C3326 C 0.41652 0.19913 0.79434
 C3327 C 0.41244 0.20334 0.80778
 C3328 C 0.40052 0.19728 0.81417
 C3329 C 0.39227 0.18706 0.80739
 C3330 C 0.39619 0.18290 0.79408
 C3331 C 0.42022 0.21362 0.81481
 C3332 C 0.43185 0.22011 0.80873
 C3333 C 0.43629 0.21649 0.79530
 C3334 C 0.42872 0.20556 0.78812
 C3335 C 0.43361 0.20140 0.77498
 C3336 C 0.44520 0.20794 0.76887
 C3337 C 0.45233 0.21896 0.77549
 C3338 C 0.44804 0.22342 0.78880
 C3339 C 0.45559 0.23482 0.79491
 C3340 C 0.46675 0.24149 0.78802
 C3341 C 0.47086 0.23704 0.77487
 C3342 C 0.46367 0.22565 0.76873
 H3343 H 0.41010 0.18513 0.77734
 H3344 H 0.39774 0.20058 0.82450
 H3345 H 0.38997 0.17518 0.78846
 H3346 H 0.41721 0.21680 0.82513
 H3347 H 0.43721 0.22791 0.81494
 H3348 H 0.42879 0.19299 0.76911
 H3349 H 0.44851 0.20442 0.75874
 H3350 H 0.45301 0.23908 0.80488
 H3351 H 0.47210 0.25028 0.79301
 H3352 H 0.46670 0.22214 0.75852
 C3353 C 0.90814 0.68682 0.78888
 C3354 C 0.91514 0.69919 0.79367
 C3355 C 0.90988 0.70563 0.80585
 C3356 C 0.89832 0.69970 0.81296
 C3357 C 0.89164 0.68735 0.80814
 C3358 C 0.89666 0.68105 0.79601
 C3359 C 0.91616 0.71799 0.81090
 C3360 C 0.92751 0.72423 0.80410
 C3361 C 0.93320 0.71827 0.79194
 C3362 C 0.92705 0.70541 0.78675
 C3363 C 0.93307 0.69913 0.77489
 C3364 C 0.94448 0.70529 0.76815
 C3365 C 0.95036 0.71797 0.77285
 C3366 C 0.94486 0.72470 0.78479
 C3367 C 0.95123 0.73766 0.78896
 C3368 C 0.96245 0.74360 0.78152
 C3369 C 0.96776 0.73688 0.76973
 C3370 C 0.96170 0.72399 0.76553
 H3371 H 0.91112 0.68135 0.77958
 H3372 H 0.89463 0.70472 0.82234
 H3373 H 0.89164 0.67166 0.79183
 H3374 H 0.91221 0.72295 0.82023
 H3375 H 0.93166 0.73374 0.80877
 H3376 H 0.92930 0.68931 0.77053
 H3377 H 0.94871 0.70006 0.75907
 H3378 H 0.94773 0.74360 0.79781
 H3379 H 0.96691 0.75358 0.78501
 H3380 H 0.96567 0.71869 0.75639
 C3381 C 0.90585 0.18684 0.28524
 C3382 C 0.91503 0.19676 0.29162
 C3383 C 0.91140 0.20146 0.30504
 C3384 C 0.89914 0.19641 0.31163
 C3385 C 0.89009 0.18668 0.30512
 C3386 C 0.89365 0.18193 0.29189
 C3387 C 0.91997 0.21126 0.31184
 C3388 C 0.93192 0.21686 0.30554
 C3389 C 0.93586 0.21286 0.29206
 C3390 C 0.92751 0.20234 0.28512
 C3391 C 0.93190 0.19781 0.27193
 C3392 C 0.94373 0.20364 0.26553
 C3393 C 0.95161 0.21431 0.27190
 C3394 C 0.94783 0.21907 0.28527
 C3395 C 0.95604 0.23013 0.29114
 C3396 C 0.96730 0.23622 0.28397
 C3397 C 0.97091 0.23154 0.27075
 C3398 C 0.96312 0.22043 0.26484
 H3399 H 0.90764 0.18275 0.27505
 H3400 H 0.89666 0.20022 0.32185
 H3401 H 0.88696 0.17444 0.28649
 H3402 H 0.91734 0.21475 0.32216
 H3403 H 0.93789 0.22431 0.31163
 H3404 H 0.92644 0.18969 0.26620
 H3405 H 0.94662 0.19987 0.25536
 H3406 H 0.95390 0.23459 0.30112
 H3407 H 0.97312 0.24480 0.28882
 H3408 H 0.96576 0.21677 0.25457
 C3409 C 0.29071 0.31049 0.59270
 C3410 C 0.29795 0.29976 0.58520
 C3411 C 0.31134 0.29515 0.59022
 C3412 C 0.31723 0.30128 0.60208
 C3413 C 0.30994 0.31195 0.60934
 C3414 C 0.29663 0.31644 0.60451
 C3415 C 0.31880 0.28439 0.58344
 C3416 C 0.31315 0.27780 0.57192
 C3417 C 0.29978 0.28185 0.56656
 C3418 C 0.29226 0.29331 0.57306
 C3419 C 0.27934 0.29799 0.56719
 C3420 C 0.27365 0.29138 0.55572
 C3421 C 0.28048 0.27980 0.54966
 C3422 C 0.29366 0.27483 0.55491
 C3423 C 0.29996 0.26286 0.54842
 C3424 C 0.29333 0.25610 0.53736
 C3425 C 0.28028 0.26103 0.53234
 C3426 C 0.27402 0.27302 0.53846
 H3427 H 0.28033 0.31440 0.58992
 H3428 H 0.32755 0.29768 0.60560
 H3429 H 0.29057 0.32448 0.60994
 H3430 H 0.32909 0.28089 0.58718
 H3431 H 0.31965 0.26961 0.56736
 H3432 H 0.27335 0.30688 0.57113
 H3433 H 0.26364 0.29530 0.55164
 H3434 H 0.30984 0.25821 0.55178
 H3435 H 0.29839 0.24683 0.53285
 H3436 H 0.26388 0.27693 0.53470
 C3437 C 0.28478 0.81073 0.09409
 C3438 C 0.29180 0.80105 0.08521
 C3439 C 0.30574 0.79664 0.08887
 C3440 C 0.31239 0.80207 0.10073
 C3441 C 0.30536 0.81190 0.10923
 C3442 C 0.29146 0.81602 0.10581
 C3443 C 0.31303 0.78686 0.08067
 C3444 C 0.30677 0.78118 0.06898
 C3445 C 0.29291 0.78518 0.06485
 C3446 C 0.28542 0.79552 0.07294
 C3447 C 0.27187 0.80007 0.06843
 C3448 C 0.26565 0.79449 0.05669
 C3449 C 0.27255 0.78406 0.04896
 C3450 C 0.28628 0.77922 0.05289
 C3451 C 0.29267 0.76844 0.04475
 C3452 C 0.28564 0.76268 0.03341
 C3453 C 0.27205 0.76744 0.02966
 C3454 C 0.26566 0.77829 0.03741
 H3455 H 0.27405 0.81435 0.09242
 H3456 H 0.32312 0.79874 0.10322
 H3457 H 0.28555 0.82330 0.11228
 H3458 H 0.32371 0.78349 0.08337
 H3459 H 0.31321 0.77373 0.06329
 H3460 H 0.26575 0.80810 0.07369
 H3461 H 0.25520 0.79830 0.05369
 H3462 H 0.30297 0.76397 0.04698
 H3463 H 0.29086 0.75429 0.02764
 H3464 H 0.25510 0.78202 0.03468
 C3465 C 0.81250 0.28621 0.09571
 C3466 C 0.80284 0.29305 0.08670
 C3467 C 0.79862 0.30713 0.09003
 C3468 C 0.80387 0.31392 0.10184
 C3469 C 0.81336 0.30698 0.11067
 C3470 C 0.81764 0.29308 0.10744
 C3471 C 0.78914 0.31443 0.08160
 C3472 C 0.78349 0.30802 0.06999
 C3473 C 0.78711 0.29394 0.06627
 C3474 C 0.79712 0.28639 0.07464
 C3475 C 0.80103 0.27245 0.07069
 C3476 C 0.79513 0.26594 0.05922
 C3477 C 0.78507 0.27298 0.05120
 C3478 C 0.78095 0.28710 0.05452
 C3479 C 0.77063 0.29369 0.04605
 C3480 C 0.76449 0.28644 0.03506
 C3481 C 0.76842 0.27242 0.03198
 C3482 C 0.77891 0.26582 0.03998
 H3483 H 0.81624 0.27550 0.09412
 H3484 H 0.80056 0.32473 0.10407
 H3485 H 0.82486 0.28734 0.11408
 H3486 H 0.78596 0.32523 0.08405
 H3487 H 0.77625 0.31450 0.06415
 H3488 H 0.80866 0.26617 0.07628
 H3489 H 0.79839 0.25518 0.05669
 H3490 H 0.76682 0.30436 0.04771
 H3491 H 0.75645 0.29184 0.02903
 H3492 H 0.78201 0.25495 0.03773
 C3493 C 0.78833 0.80990 0.59108
 C3494 C 0.79578 0.79964 0.58320
 C3495 C 0.80929 0.79513 0.58804
 C3496 C 0.81519 0.80113 0.59999
 C3497 C 0.80776 0.81154 0.60749
 C3498 C 0.79424 0.81570 0.60294
 C3499 C 0.81684 0.78464 0.58095
 C3500 C 0.81121 0.77831 0.56925
 C3501 C 0.79781 0.78240 0.56400
 C3502 C 0.79019 0.79357 0.57085
 C3503 C 0.77730 0.79843 0.56504
 C3504 C 0.77170 0.79224 0.55332
 C3505 C 0.77860 0.78089 0.54693
 C3506 C 0.79175 0.77577 0.55210
 C3507 C 0.79810 0.76402 0.54527
 C3508 C 0.79152 0.75762 0.53397
 C3509 C 0.77849 0.76272 0.52903
 C3510 C 0.77221 0.77450 0.53547
 H3511 H 0.77777 0.81352 0.58857
 H3512 H 0.82563 0.79772 0.60337
 H3513 H 0.78800 0.82341 0.60861
 H3514 H 0.82720 0.78118 0.58455
 H3515 H 0.81778 0.77033 0.56444
 H3516 H 0.77130 0.80722 0.56920
 H3517 H 0.76173 0.79629 0.54931
 H3518 H 0.80795 0.75927 0.54856
 H3519 H 0.79660 0.74848 0.52923
 H3520 H 0.76208 0.77852 0.53179
 C3521 C 0.31305 0.70886 0.40556
 C3522 C 0.30176 0.70276 0.41314
 C3523 C 0.29576 0.68999 0.40802
 C3524 C 0.30110 0.68360 0.39597
 C3525 C 0.31240 0.68972 0.38866
 C3526 C 0.31823 0.70245 0.39361
 C3527 C 0.28445 0.68363 0.41492
 C3528 C 0.27877 0.68972 0.42673
 C3529 C 0.28427 0.70246 0.43227
 C3530 C 0.29614 0.70895 0.42550
 C3531 C 0.30203 0.72136 0.43135
 C3532 C 0.29636 0.72747 0.44314
 C3533 C 0.28456 0.72156 0.44960
 C3534 C 0.27832 0.70895 0.44435
 C3535 C 0.26625 0.70355 0.45133
 C3536 C 0.26059 0.71050 0.46283
 C3537 C 0.26675 0.72302 0.46785
 C3538 C 0.27886 0.72836 0.46124
 H3539 H 0.31809 0.71868 0.40846
 H3540 H 0.29639 0.67379 0.39236
 H3541 H 0.32683 0.70764 0.38823
 H3542 H 0.27985 0.67383 0.41108
 H3543 H 0.27006 0.68405 0.43134
 H3544 H 0.31116 0.72667 0.42711
 H3545 H 0.30123 0.73704 0.44717
 H3546 H 0.26073 0.69412 0.44808
 H3547 H 0.25121 0.70613 0.46769
 H3548 H 0.28372 0.73807 0.46497
 C3549 C 0.31326 0.21001 0.90349
 C3550 C 0.30308 0.20341 0.91206
 C3551 C 0.29783 0.18994 0.90794
 C3552 C 0.30299 0.18327 0.89596
 C3553 C 0.31331 0.18986 0.88775
 C3554 C 0.31824 0.20334 0.89162
 C3555 C 0.28745 0.18318 0.91578
 C3556 C 0.28198 0.18955 0.92756
 C3557 C 0.28684 0.20295 0.93213
 C3558 C 0.29784 0.20981 0.92444
 C3559 C 0.30335 0.22278 0.92944
 C3560 C 0.29796 0.22915 0.94120
 C3561 C 0.28684 0.22295 0.94847
 C3562 C 0.28110 0.20975 0.94413
 C3563 C 0.26969 0.20409 0.95190
 C3564 C 0.26418 0.21135 0.96328
 C3565 C 0.26986 0.22444 0.96738
 C3566 C 0.28133 0.23006 0.96000
 H3567 H 0.31747 0.22044 0.90547
 H3568 H 0.29901 0.17288 0.89312
 H3569 H 0.32593 0.20895 0.88542
 H3570 H 0.28340 0.17287 0.91271
 H3571 H 0.27402 0.18355 0.93297
 H3572 H 0.31201 0.22830 0.92459
 H3573 H 0.30248 0.23917 0.94456
 H3574 H 0.26454 0.19422 0.94932
 H3575 H 0.25528 0.20677 0.96877
 H3576 H 0.28580 0.24021 0.96302
 C3577 C 0.81145 0.71144 0.90413
 C3578 C 0.80154 0.70462 0.91283
 C3579 C 0.79658 0.69101 0.90878
 C3580 C 0.80176 0.68446 0.89674
 C3581 C 0.81183 0.69128 0.88841
 C3582 C 0.81645 0.70488 0.89221
 C3583 C 0.78648 0.68400 0.91675
 C3584 C 0.78100 0.69024 0.92859
 C3585 C 0.78558 0.70376 0.93311
 C3586 C 0.79629 0.71090 0.92527
 C3587 C 0.80150 0.72403 0.93019
 C3588 C 0.79614 0.73025 0.94204
 C3589 C 0.78532 0.72374 0.94948
 C3590 C 0.77986 0.71039 0.94521
 C3591 C 0.76874 0.70442 0.95315
 C3592 C 0.76324 0.71152 0.96463
 C3593 C 0.76863 0.72475 0.96868
 C3594 C 0.77981 0.73068 0.96112
 H3595 H 0.81546 0.72196 0.90608
 H3596 H 0.79800 0.67396 0.89396
 H3597 H 0.82393 0.71067 0.88591
 H3598 H 0.78267 0.67358 0.91375
 H3599 H 0.77324 0.68406 0.93408
 H3600 H 0.80991 0.72980 0.92520
 H3601 H 0.80044 0.74038 0.94535
 H3602 H 0.76382 0.69442 0.95065
 H3603 H 0.75456 0.70668 0.97025
 H3604 H 0.78406 0.74095 0.96409
 C3605 C 0.81862 0.20739 0.40823
 C3606 C 0.80626 0.20269 0.41516
 C3607 C 0.79897 0.19086 0.40952
 C3608 C 0.80385 0.18424 0.39739
 C3609 C 0.81605 0.18915 0.39060
 C3610 C 0.82337 0.20074 0.39624
 C3611 C 0.78679 0.18569 0.41597
 C3612 C 0.78154 0.19207 0.42783
 C3613 C 0.78824 0.20403 0.43377
 C3614 C 0.80089 0.20936 0.42739
 C3615 C 0.80768 0.22123 0.43338
 C3616 C 0.80225 0.22784 0.44502
 C3617 C 0.78983 0.22297 0.45121
 C3618 C 0.78266 0.21095 0.44579
 C3619 C 0.77007 0.20653 0.45257
 C3620 C 0.76475 0.21395 0.46393
 C3621 C 0.77176 0.22598 0.46903
 C3622 C 0.78443 0.23028 0.46271
 H3623 H 0.82493 0.21622 0.41171
 H3624 H 0.79801 0.17530 0.39326
 H3625 H 0.83288 0.20484 0.39145
 H3626 H 0.78120 0.17660 0.41177
 H3627 H 0.77210 0.18734 0.43208
 H3628 H 0.81724 0.22584 0.42929
 H3629 H 0.80780 0.23699 0.44914
 H3630 H 0.76393 0.19750 0.44929
 H3631 H 0.75495 0.21034 0.46862
 H3632 H 0.78998 0.23957 0.46654
 C3633 C 0.68629 0.28877 0.41010
 C3634 C 0.69891 0.29370 0.41644
 C3635 C 0.70585 0.30548 0.41036
 C3636 C 0.70030 0.31192 0.39848
 C3637 C 0.68780 0.30686 0.39231
 C3638 C 0.68090 0.29524 0.39831
 C3639 C 0.71834 0.31077 0.41612
 C3640 C 0.72426 0.30457 0.42771
 C3641 C 0.71789 0.29273 0.43413
 C3642 C 0.70491 0.28730 0.42848
 C3643 C 0.69838 0.27564 0.43504
 C3644 C 0.70441 0.26929 0.44649
 C3645 C 0.71718 0.27423 0.45193
 C3646 C 0.72411 0.28606 0.44593
 C3647 C 0.73708 0.29056 0.45195
 C3648 C 0.74295 0.28343 0.46319
 C3649 C 0.73613 0.27162 0.46890
 C3650 C 0.72313 0.26721 0.46329
 H3651 H 0.68029 0.27988 0.41389
 H3652 H 0.70586 0.32086 0.39404
 H3653 H 0.67122 0.29101 0.39395
 H3654 H 0.72367 0.31981 0.41155
 H3655 H 0.73392 0.30937 0.43139
 H3656 H 0.68853 0.27106 0.43159
 H3657 H 0.69903 0.26029 0.45109
 H3658 H 0.74311 0.29944 0.44816
 H3659 H 0.75299 0.28711 0.46731
 H3660 H 0.71771 0.25809 0.46761
 C3661 C 0.71257 0.81098 0.90758
 C3662 C 0.70604 0.80050 0.91583
 C3663 C 0.69256 0.79534 0.91161
 C3664 C 0.68581 0.80089 0.89988
 C3665 C 0.69234 0.81151 0.89201
 C3666 C 0.70583 0.81634 0.89596
 C3667 C 0.68590 0.78463 0.91911
 C3668 C 0.69240 0.77874 0.93059
 C3669 C 0.70581 0.78350 0.93522
 C3670 C 0.71254 0.79485 0.92793
 C3671 C 0.72550 0.80028 0.93305
 C3672 C 0.73198 0.79450 0.94452
 C3673 C 0.72592 0.78304 0.95137
 C3674 C 0.71274 0.77736 0.94692
 C3675 C 0.70722 0.76560 0.95426
 C3676 C 0.71461 0.75974 0.96535
 C3677 C 0.72769 0.76537 0.96956
 C3678 C 0.73316 0.77715 0.96259
 H3679 H 0.72302 0.81514 0.90962
 H3680 H 0.67542 0.79696 0.89696
 H3681 H 0.71143 0.82422 0.89000
 H3682 H 0.67558 0.78066 0.91598
 H3683 H 0.68650 0.77051 0.93571
 H3684 H 0.73090 0.80919 0.92853
 H3685 H 0.74197 0.79899 0.94800
 H3686 H 0.69738 0.76048 0.95156
 H3687 H 0.71013 0.75060 0.97052
 H3688 H 0.74329 0.78161 0.96572
 C3689 C 0.21335 0.31278 0.90739
 C3690 C 0.20696 0.30214 0.91555
 C3691 C 0.19338 0.29711 0.91150
 C3692 C 0.18646 0.30283 0.89995
 C3693 C 0.19291 0.31349 0.89209
 C3694 C 0.20644 0.31830 0.89593
 C3695 C 0.18677 0.28636 0.91896
 C3696 C 0.19342 0.28025 0.93023
 C3697 C 0.20697 0.28481 0.93467
 C3698 C 0.21368 0.29620 0.92742
 C3699 C 0.22684 0.30135 0.93231
 C3700 C 0.23351 0.29529 0.94355
 C3701 C 0.22744 0.28382 0.95037
 C3702 C 0.21407 0.27840 0.94612
 C3703 C 0.20853 0.26663 0.95342
 C3704 C 0.21604 0.26052 0.96429
 C3705 C 0.22928 0.26590 0.96831
 C3706 C 0.23482 0.27767 0.96138
 H3707 H 0.22380 0.31695 0.90936
 H3708 H 0.17602 0.29894 0.89714
 H3709 H 0.21192 0.32629 0.89000
 H3710 H 0.17636 0.28250 0.91596
 H3711 H 0.18753 0.27201 0.93534
 H3712 H 0.23230 0.31021 0.92778
 H3713 H 0.24365 0.29957 0.94686
 H3714 H 0.19855 0.26169 0.95087
 H3715 H 0.21151 0.25140 0.96945
 H3716 H 0.24507 0.28193 0.96437
 C3717 C 0.21406 0.81097 0.40580
 C3718 C 0.20729 0.80090 0.41440
 C3719 C 0.19337 0.79655 0.41071
 C3720 C 0.18666 0.80206 0.39898
 C3721 C 0.19354 0.81197 0.39056
 C3722 C 0.20729 0.81636 0.39414
 C3723 C 0.18615 0.78667 0.41873
 C3724 C 0.19247 0.78076 0.43025
 C3725 C 0.20638 0.78453 0.43433
 C3726 C 0.21385 0.79493 0.42639
 C3727 C 0.22761 0.79897 0.43069
 C3728 C 0.23401 0.79289 0.44212
 C3729 C 0.22704 0.78250 0.44975
 C3730 C 0.21311 0.77819 0.44603
 C3731 C 0.20659 0.76752 0.45411
 C3732 C 0.21371 0.76131 0.46515
 C3733 C 0.22754 0.76548 0.46865
 C3734 C 0.23407 0.77624 0.46098
 H3735 H 0.22465 0.81484 0.40768
 H3736 H 0.17598 0.79862 0.39648
 H3737 H 0.21299 0.82389 0.38783
 H3738 H 0.17546 0.78337 0.41601
 H3739 H 0.18605 0.77322 0.43576
 H3740 H 0.23382 0.80686 0.42543
 H3741 H 0.24463 0.79629 0.44494
 H3742 H 0.19607 0.76353 0.45212
 H3743 H 0.20835 0.75305 0.47089
 H3744 H 0.24479 0.77954 0.46355
 C3745 C 0.68954 0.71167 0.59156
 C3746 C 0.70012 0.70466 0.58364
 C3747 C 0.70477 0.69112 0.58819
 C3748 C 0.69899 0.68497 0.60007
 C3749 C 0.68856 0.69207 0.60782
 C3750 C 0.68391 0.70546 0.60340
 C3751 C 0.71524 0.68375 0.58093
 C3752 C 0.72146 0.68956 0.56932
 C3753 C 0.71738 0.70307 0.56438
 C3754 C 0.70633 0.71064 0.57150
 C3755 C 0.70188 0.72391 0.56624
 C3756 C 0.70818 0.72976 0.55466
 C3757 C 0.71923 0.72274 0.54787
 C3758 C 0.72400 0.70929 0.55258
 C3759 C 0.73538 0.70274 0.54535
 C3760 C 0.74177 0.70937 0.53413
 C3761 C 0.73706 0.72269 0.52961
 C3762 C 0.72566 0.72924 0.53646
 H3763 H 0.68547 0.72205 0.58904
 H3764 H 0.70268 0.67456 0.60320
 H3765 H 0.67598 0.71133 0.60918
 H3766 H 0.71878 0.67335 0.58433
 H3767 H 0.72943 0.68307 0.56442
 H3768 H 0.69346 0.73010 0.57080
 H3769 H 0.70443 0.74001 0.55107
 H3770 H 0.73983 0.69261 0.54819
 H3771 H 0.75056 0.70404 0.52905
 H3772 H 0.72195 0.73959 0.53311
 C3773 C 0.71051 0.18581 0.09455
 C3774 C 0.70475 0.19753 0.08731
 C3775 C 0.69210 0.20377 0.09256
 C3776 C 0.68553 0.19832 0.10442
 C3777 C 0.69134 0.18663 0.11142
 C3778 C 0.70391 0.18052 0.10632
 C3779 C 0.68605 0.21546 0.08597
 C3780 C 0.69232 0.22126 0.07435
 C3781 C 0.70495 0.21552 0.06870
 C3782 C 0.71116 0.20332 0.07518
 C3783 C 0.72354 0.19730 0.06929
 C3784 C 0.72984 0.20310 0.05770
 C3785 C 0.72415 0.21516 0.05147
 C3786 C 0.71162 0.22157 0.05680
 C3787 C 0.70642 0.23386 0.05003
 C3788 C 0.71349 0.23954 0.03866
 C3789 C 0.72593 0.23320 0.03356
 C3790 C 0.73110 0.22091 0.03998
 H3791 H 0.72017 0.18049 0.09151
 H3792 H 0.67585 0.20326 0.10814
 H3793 H 0.70884 0.17159 0.11143
 H3794 H 0.67635 0.22026 0.08990
 H3795 H 0.68690 0.23027 0.06999
 H3796 H 0.72869 0.18798 0.07334
 H3797 H 0.73937 0.19811 0.05362
 H3798 H 0.69703 0.23950 0.05333
 H3799 H 0.70923 0.24906 0.03394
 H3800 H 0.74074 0.21589 0.03617
 C3801 C 0.21531 0.68559 0.09327
 C3802 C 0.20868 0.69562 0.08453
 C3803 C 0.19499 0.70065 0.08838
 C3804 C 0.18834 0.69573 0.10040
 C3805 C 0.19508 0.68581 0.10895
 C3806 C 0.20862 0.68082 0.10520
 C3807 C 0.18800 0.71066 0.08029
 C3808 C 0.19430 0.71596 0.06848
 C3809 C 0.20794 0.71140 0.06417
 C3810 C 0.21519 0.70093 0.07224
 C3811 C 0.22871 0.69617 0.06777
 C3812 C 0.23513 0.70169 0.05610
 C3813 C 0.22840 0.71215 0.04833
 C3814 C 0.21464 0.71707 0.05214
 C3815 C 0.20829 0.72764 0.04381
 C3816 C 0.21548 0.73335 0.03258
 C3817 C 0.22919 0.72870 0.02908
 C3818 C 0.23549 0.71788 0.03688
 H3819 H 0.22572 0.68124 0.09130
 H3820 H 0.17792 0.69982 0.10313
 H3821 H 0.21417 0.67312 0.11146
 H3822 H 0.17753 0.71454 0.08317
 H3823 H 0.18811 0.72371 0.06297
 H3824 H 0.23471 0.68813 0.07309
 H3825 H 0.24558 0.69779 0.05319
 H3826 H 0.19785 0.73194 0.04574
 H3827 H 0.21027 0.74162 0.02669
 H3828 H 0.24611 0.71419 0.03428
 C3829 C 0.19069 0.20821 0.59383
 C3830 C 0.20156 0.20127 0.58626
 C3831 C 0.20628 0.18784 0.59106
 C3832 C 0.20014 0.18165 0.60278
 C3833 C 0.18931 0.18865 0.61009
 C3834 C 0.18472 0.20200 0.60547
 C3835 C 0.21715 0.18063 0.58418
 C3836 C 0.22365 0.18652 0.57272
 C3837 C 0.21944 0.19990 0.56755
 C3838 C 0.20799 0.20725 0.57425
 C3839 C 0.20331 0.22031 0.56870
 C3840 C 0.20980 0.22621 0.55727
 C3841 C 0.22126 0.21945 0.55091
 C3842 C 0.22628 0.20620 0.55589
 C3843 C 0.23809 0.19995 0.54908
 C3844 C 0.24461 0.20665 0.53795
 C3845 C 0.23960 0.21977 0.53316
 C3846 C 0.22781 0.22602 0.53963
 H3847 H 0.18663 0.21856 0.59120
 H3848 H 0.20384 0.17132 0.60615
 H3849 H 0.17657 0.20787 0.61091
 H3850 H 0.22076 0.17033 0.58775
 H3851 H 0.23192 0.18018 0.56808
 H3852 H 0.19452 0.22628 0.57287
 H3853 H 0.20585 0.23629 0.55343
 H3854 H 0.24276 0.19000 0.55219
 H3855 H 0.25372 0.20157 0.53317
 H3856 H 0.22385 0.23620 0.53606
   
