data_POSCAR
  _audit_creation_date              2014-09-24
  _audit_creation_method            'ToBaCCo'
  _symmetry_space_group_name_H-M    'P1'
  _symmetry_Int_Tables_number       1
  _symmetry_cell_setting            triclinic
  loop_
  _symmetry_equiv_pos_as_xyz
 x,y,z
_cell_length_a 73.2907
_cell_length_b 73.2728
_cell_length_c 73.1620
_cell_angle_alpha 89.280900
_cell_angle_beta 89.223000
_cell_angle_gamma 89.448200
loop_
  _atom_site_label
  _atom_site_type_symbol
  _atom_site_fract_x
  _atom_site_fract_y
  _atom_site_fract_z
C1 C 0.74788 0.61196 1.02430
 C2 C 0.75707 0.61923 1.00894
 C3 C 0.77444 0.62684 1.01099
 C4 C 0.78243 0.62735 1.02827
 C5 C 0.77325 0.61991 1.04351
 C6 C 0.75601 0.61214 1.04152
 C7 C 0.74844 0.61901 0.99082
 C8 C 0.73084 0.62637 0.98852
 C9 C 0.72266 0.62626 0.97134
 C10 C 0.73190 0.61846 0.95644
 C11 C 0.74938 0.61095 0.95867
 C12 C 0.75771 0.61139 0.97577
 H13 H 0.73452 0.60597 1.02276
 H14 H 0.78150 0.63267 0.99920
 H15 H 0.72366 0.63245 1.00002
 H16 H 0.77123 0.60553 0.97747
 H17 H 0.77946 0.62024 1.05689
 H18 H 0.72552 0.61827 0.94316
 C19 C 0.74562 0.39061 0.47617
 C20 C 0.75485 0.38334 0.49135
 C21 C 0.77262 0.37629 0.48901
 C22 C 0.78097 0.37636 0.47168
 C23 C 0.77173 0.38377 0.45665
 C24 C 0.75409 0.39096 0.45890
 C25 C 0.74591 0.38302 0.50959
 C26 C 0.72831 0.37581 0.51185
 C27 C 0.71994 0.37529 0.52917
 C28 C 0.72899 0.38226 0.54427
 C29 C 0.74646 0.38959 0.54209
 C30 C 0.75496 0.38983 0.52483
 H31 H 0.73195 0.39621 0.47785
 H32 H 0.77978 0.37043 0.50059
 H33 H 0.72130 0.37030 0.50022
 H34 H 0.76849 0.39555 0.52321
 H35 H 0.77822 0.38387 0.44324
 H36 H 0.72249 0.38191 0.55767
 C37 C 0.24490 -0.11075 -0.02540
 C38 C 0.25416 -0.11807 -0.01026
 C39 C 0.27195 -0.12504 -0.01262
 C40 C 0.28033 -0.12484 -0.02996
 C41 C 0.27105 -0.11737 -0.04495
 C42 C 0.25338 -0.11026 -0.04266
 C43 C 0.24523 -0.11846 0.00799
 C44 C 0.22763 -0.12567 0.01027
 C45 C 0.21928 -0.12622 0.02762
 C46 C 0.22838 -0.11927 0.04271
 C47 C 0.24584 -0.11193 0.04050
 C48 C 0.25430 -0.11166 0.02323
 H49 H 0.23123 -0.10520 -0.02369
 H50 H 0.27910 -0.13091 -0.00103
 H51 H 0.22063 -0.13115 -0.00140
 H52 H 0.26782 -0.10592 0.02159
 H53 H 0.27751 -0.11712 -0.05839
 H54 H 0.22194 -0.11961 0.05615
 C55 C 0.24774 0.11103 0.52278
 C56 C 0.25697 0.11804 0.50731
 C57 C 0.27448 0.12537 0.50923
 C58 C 0.28256 0.12586 0.52646
 C59 C 0.27333 0.11870 0.54178
 C60 C 0.25596 0.11121 0.53993
 C61 C 0.24824 0.11782 0.48923
 C62 C 0.23062 0.12519 0.48702
 C63 C 0.22236 0.12507 0.46988
 C64 C 0.23152 0.11727 0.45494
 C65 C 0.24901 0.10976 0.45708
 C66 C 0.25743 0.11020 0.47414
 H67 H 0.23428 0.10523 0.52141
 H68 H 0.28161 0.13103 0.49741
 H69 H 0.22350 0.13128 0.49854
 H70 H 0.27096 0.10433 0.47576
 H71 H 0.27960 0.11902 0.55511
 H72 H 0.22508 0.11708 0.44169
 C73 C 0.11253 0.52465 0.24759
 C74 C 0.11966 0.50928 0.25679
 C75 C 0.12705 0.51129 0.27426
 C76 C 0.12749 0.52850 0.28235
 C77 C 0.12021 0.54374 0.27317
 C78 C 0.11265 0.54181 0.25582
 C79 C 0.11948 0.49120 0.24807
 C80 C 0.12667 0.48902 0.23032
 C81 C 0.12656 0.47189 0.22206
 C82 C 0.11895 0.45692 0.23137
 C83 C 0.11162 0.45902 0.24900
 C84 C 0.11204 0.47608 0.25740
 H85 H 0.10668 0.52316 0.23416
 H86 H 0.13279 0.49954 0.28137
 H87 H 0.13261 0.50057 0.22309
 H88 H 0.10630 0.47767 0.27103
 H89 H 0.12051 0.55705 0.27949
 H90 H 0.11876 0.44367 0.22493
 C91 C -0.10840 -0.02327 0.24423
 C92 C -0.11586 -0.00817 0.25343
 C93 C -0.12294 -0.01049 0.27124
 C94 C -0.12271 -0.02776 0.27970
 C95 C -0.11509 -0.04271 0.27049
 C96 C -0.10789 -0.04046 0.25280
 C97 C -0.11624 0.01001 0.24443
 C98 C -0.12345 0.01220 0.22683
 C99 C -0.12398 0.02949 0.21842
 C100 C -0.11700 0.04460 0.22745
 C101 C -0.10966 0.04248 0.24492
 C102 C -0.10942 0.02527 0.25345
 H103 H -0.10276 -0.02159 0.23054
 H104 H -0.12891 0.00108 0.27834
 H105 H -0.12893 0.00051 0.21987
 H106 H -0.10368 0.02369 0.26696
 H107 H -0.11483 -0.05609 0.27701
 H108 H -0.11731 0.05800 0.22096
 C109 C 0.39197 0.47594 0.74463
 C110 C 0.38485 0.49105 0.75406
 C111 C 0.37785 0.48863 0.77189
 C112 C 0.37781 0.47126 0.78013
 C113 C 0.38510 0.45629 0.77069
 C114 C 0.39224 0.45864 0.75298
 C115 C 0.38462 0.50932 0.74526
 C116 C 0.37690 0.51184 0.72793
 C117 C 0.37631 0.52924 0.71979
 C118 C 0.38376 0.54413 0.72879
 C119 C 0.39163 0.54168 0.74599
 C120 C 0.39192 0.52435 0.75427
 H121 H 0.39752 0.47770 0.73091
 H122 H 0.37211 0.50021 0.77916
 H123 H 0.37099 0.50037 0.72099
 H124 H 0.39799 0.52251 0.76761
 H125 H 0.38516 0.44283 0.77705
 H126 H 0.38332 0.55761 0.72249
 C127 C 0.61331 1.02381 0.74807
 C128 C 0.62047 1.00845 0.75724
 C129 C 0.62782 1.01043 0.77474
 C130 C 0.62817 1.02764 0.78288
 C131 C 0.62084 1.04287 0.77369
 C132 C 0.61335 1.04094 0.75634
 C133 C 0.62036 0.99040 0.74846
 C134 C 0.62765 0.98828 0.73074
 C135 C 0.62757 0.97118 0.72242
 C136 C 0.61992 0.95618 0.73163
 C137 C 0.61249 0.95822 0.74923
 C138 C 0.61287 0.97525 0.75770
 H139 H 0.60749 1.02238 0.73462
 H140 H 0.63357 0.99865 0.78180
 H141 H 0.63362 0.99986 0.72358
 H142 H 0.60706 0.97679 0.77130
 H143 H 0.62102 1.05620 0.77997
 H144 H 0.61976 0.94296 0.72514
 C145 C -0.02433 0.24448 -0.10894
 C146 C -0.00917 0.25365 -0.11641
 C147 C -0.01144 0.27138 -0.12365
 C148 C -0.02871 0.27977 -0.12354
 C149 C -0.04372 0.27058 -0.11592
 C150 C -0.04153 0.25298 -0.10856
 C151 C 0.00901 0.24472 -0.11667
 C152 C 0.01122 0.22701 -0.12360
 C153 C 0.02850 0.21865 -0.12401
 C154 C 0.04359 0.22785 -0.11720
 C155 C 0.04146 0.24541 -0.11013
 C156 C 0.02425 0.25388 -0.11000
 H157 H -0.02270 0.23087 -0.10318
 H158 H 0.00016 0.27846 -0.12963
 H159 H -0.00045 0.21993 -0.12897
 H160 H 0.02266 0.26747 -0.10447
 H161 H -0.05710 0.27706 -0.11575
 H162 H 0.05699 0.22139 -0.11742
 C163 C 0.52143 0.24759 0.11155
 C164 C 0.50604 0.25668 0.11879
 C165 C 0.50805 0.27405 0.12640
 C166 C 0.52529 0.28211 0.12695
 C167 C 0.54052 0.27302 0.11957
 C168 C 0.53859 0.25580 0.11181
 C169 C 0.48795 0.24796 0.11847
 C170 C 0.48573 0.23010 0.12532
 C171 C 0.46859 0.22183 0.12506
 C172 C 0.45366 0.23125 0.11765
 C173 C 0.45580 0.24898 0.11066
 C174 C 0.47286 0.25739 0.11123
 H175 H 0.51999 0.23424 0.10552
 H176 H 0.49630 0.28108 0.13222
 H177 H 0.49725 0.22278 0.13111
 H178 H 0.47448 0.27110 0.10575
 H179 H 0.55386 0.27929 0.11994
 H180 H 0.44041 0.22480 0.11733
 C181 C 1.02208 0.74858 0.61301
 C182 C 1.00669 0.75755 0.62037
 C183 C 1.00860 0.77496 0.62793
 C184 C 1.02578 0.78320 0.62829
 C185 C 1.04103 0.77422 0.62077
 C186 C 1.03917 0.75696 0.61307
 C187 C 0.98866 0.74870 0.62014
 C188 C 0.98656 0.73088 0.62713
 C189 C 0.96948 0.72248 0.62688
 C190 C 0.95450 0.73173 0.61935
 C191 C 0.95653 0.74943 0.61223
 C192 C 0.97353 0.75796 0.61279
 H193 H 1.02070 0.73522 0.60701
 H194 H 0.99680 0.78187 0.63380
 H195 H 0.99812 0.72369 0.63297
 H196 H 0.97507 0.77164 0.60719
 H197 H 1.05434 0.78058 0.62095
 H198 H 0.94131 0.72517 0.61903
 C199 C 0.47691 0.74427 0.39091
 C200 C 0.49209 0.75346 0.38350
 C201 C 0.48981 0.77116 0.37619
 C202 C 0.47252 0.77948 0.37615
 C203 C 0.45750 0.77028 0.38369
 C204 C 0.45969 0.75272 0.39114
 C205 C 0.51031 0.74459 0.38340
 C206 C 0.51262 0.72687 0.37656
 C207 C 0.52991 0.71857 0.37631
 C208 C 0.54493 0.72781 0.38317
 C209 C 0.54270 0.74541 0.39014
 C210 C 0.52547 0.75383 0.39012
 H211 H 0.47856 0.73068 0.39673
 H212 H 0.50139 0.77829 0.37024
 H213 H 0.50105 0.71970 0.37114
 H214 H 0.52381 0.76745 0.39557
 H215 H 0.44412 0.77675 0.38373
 H216 H 0.55831 0.72136 0.38304
 C217 C 0.40666 -0.01612 0.27116
 H218 H 0.40706 -0.00204 0.27539
 C219 C 0.41676 -0.02944 0.28057
 H220 H 0.42504 -0.02561 0.29203
 C221 C 0.39472 -0.03854 0.25162
 H222 H 0.38574 -0.04217 0.24071
 C223 C 0.40458 -0.05224 0.26063
 H224 H 0.40330 -0.06630 0.25647
 N225 N 0.39590 -0.02088 0.25699
 C226 C 0.38510 0.02849 0.22487
 H227 H 0.37039 0.02761 0.22434
 C228 C 0.39407 0.04276 0.21589
 H229 H 0.38626 0.05296 0.20842
 C230 C 0.41325 0.01626 0.23528
 H231 H 0.42065 0.00582 0.24274
 C232 C 0.42279 0.03037 0.22646
 H233 H 0.43753 0.03085 0.22725
 Zn234 Zn 0.38080 -0.00272 0.24621
 N235 N 0.39471 0.01575 0.23452
 C236 C 0.36711 0.02564 0.26875
 N237 N 0.36627 0.00748 0.26517
 C238 C 0.35591 -0.00394 0.27572
 C239 C 0.34565 0.00287 0.29041
 C240 C 0.35708 0.03299 0.28329
 C241 C 0.37489 -0.01962 0.21297
 C242 C 0.36506 -0.02739 0.19889
 C243 C 0.33720 -0.02131 0.21591
 C244 C 0.34757 -0.01365 0.22971
 N245 N 0.36609 -0.01314 0.22808
 H246 H 0.37578 0.03443 0.26056
 H247 H 0.35576 -0.01838 0.27279
 H248 H 0.33748 -0.00631 0.29879
 H249 H 0.35790 0.04744 0.28610
 H250 H 0.38960 -0.01881 0.21193
 H251 H 0.37219 -0.03262 0.18697
 H252 H 0.32248 -0.02176 0.21730
 H253 H 0.34081 -0.00807 0.24162
 C254 C 0.41307 0.04377 0.21676
 C255 C 0.41558 -0.04767 0.27531
 C256 C 0.34606 -0.02829 0.20041
 C257 C 0.34628 0.02151 0.29422
 C258 C 0.09168 1.01442 0.77442
 H259 H 0.09094 1.00030 0.77887
 C260 C 0.08186 1.02786 0.78387
 H261 H 0.07344 1.02410 0.79557
 C262 C 0.10421 1.03676 0.75427
 H263 H 0.11331 1.04029 0.74308
 C264 C 0.09462 1.05058 0.76330
 H265 H 0.09624 1.06465 0.75889
 N266 N 0.10260 1.01907 0.75993
 C267 C 0.11236 0.96977 0.72831
 H268 H 0.12710 0.97026 0.72749
 C269 C 0.10306 0.95592 0.71959
 H270 H 0.11065 0.94565 0.71205
 C271 C 0.08445 0.98264 0.73908
 H272 H 0.07728 0.99319 0.74654
 C273 C 0.07459 0.96897 0.73053
 H274 H 0.05983 0.96892 0.73153
 Zn275 Zn 0.11732 1.00070 0.74901
 N276 N 0.10302 0.98264 0.73798
 C277 C 0.13065 0.97187 0.77159
 N278 N 0.13171 0.99005 0.76771
 C279 C 0.14234 1.00122 0.77769
 C280 C 0.15271 0.99411 0.79205
 C281 C 0.14080 0.96421 0.78581
 C282 C 0.12359 1.01782 0.71534
 C283 C 0.13361 1.02550 0.70088
 C284 C 0.16131 1.01862 0.71725
 C285 C 0.15076 1.01104 0.73143
 N286 N 0.13223 1.01098 0.73031
 H287 H 0.12179 0.96329 0.76384
 H288 H 0.14266 1.01568 0.77454
 H289 H 0.16114 1.00308 0.79994
 H290 H 0.13985 0.94974 0.78884
 H291 H 0.10886 1.01734 0.71470
 H292 H 0.12660 1.03102 0.68906
 H293 H 0.17605 1.01871 0.71824
 H294 H 0.15741 1.00518 0.74324
 C295 C 0.08402 0.95547 0.72076
 C296 C 0.08346 1.04612 0.77831
 C297 C 0.15263 1.02596 0.70187
 C298 C 0.15192 0.97543 0.79612
 C299 C 0.59307 0.51332 0.27435
 H300 H 0.59236 0.49922 0.27886
 C301 C 0.58329 0.52679 0.28379
 H302 H 0.57493 0.52308 0.29555
 C303 C 0.60551 0.53558 0.25406
 H304 H 0.61456 0.53907 0.24282
 C305 C 0.59595 0.54944 0.26308
 H306 H 0.59754 0.56349 0.25861
 N307 N 0.60394 0.51791 0.25980
 C308 C 0.61359 0.46842 0.22845
 H309 H 0.62834 0.46883 0.22765
 C310 C 0.60424 0.45458 0.21976
 H311 H 0.61179 0.44424 0.21228
 C312 C 0.58573 0.48149 0.23908
 H313 H 0.57860 0.49212 0.24647
 C314 C 0.57582 0.46784 0.23056
 H315 H 0.56105 0.46789 0.23151
 Zn316 Zn 0.61863 0.49950 0.24894
 N317 N 0.60430 0.48140 0.23803
 C318 C 0.63205 0.47081 0.27168
 N319 N 0.63305 0.48897 0.26768
 C320 C 0.64362 0.50024 0.27761
 C321 C 0.65396 0.49327 0.29205
 C322 C 0.64216 0.46329 0.28600
 C323 C 0.62484 0.51650 0.21519
 C324 C 0.63483 0.52419 0.20071
 C325 C 0.66256 0.51737 0.21705
 C326 C 0.65204 0.50979 0.23125
 N327 N 0.63351 0.50971 0.23017
 H328 H 0.62323 0.46214 0.26398
 H329 H 0.64390 0.51468 0.27435
 H330 H 0.66232 0.50233 0.29991
 H331 H 0.64124 0.44883 0.28914
 H332 H 0.61011 0.51601 0.21458
 H333 H 0.62779 0.52970 0.18891
 H334 H 0.67730 0.51750 0.21803
 H335 H 0.65871 0.50396 0.24306
 C336 C 0.58520 0.45425 0.22087
 C337 C 0.58486 0.54503 0.27815
 C338 C 0.65385 0.52469 0.20169
 C339 C 0.65321 0.47462 0.29627
 C340 C 0.90719 0.48446 0.77309
 H341 H 0.90769 0.49851 0.77741
 C342 C 0.91712 0.47100 0.78248
 H343 H 0.92539 0.47468 0.79400
 C344 C 0.89513 0.46226 0.75338
 H345 H 0.88616 0.45878 0.74240
 C346 C 0.90483 0.44843 0.76235
 H347 H 0.90344 0.43440 0.75811
 N348 N 0.89645 0.47988 0.75886
 C349 C 0.88608 0.52949 0.72695
 H350 H 0.87137 0.52870 0.72637
 C351 C 0.89517 0.54375 0.71805
 H352 H 0.88744 0.55403 0.71061
 C353 C 0.91414 0.51704 0.73737
 H354 H 0.92145 0.50652 0.74481
 C355 C 0.92379 0.53113 0.72864
 H356 H 0.93852 0.53151 0.72947
 Zn357 Zn 0.88152 0.49821 0.74811
 N358 N 0.89559 0.51664 0.73656
 C359 C 0.86797 0.52656 0.77074
 N360 N 0.86699 0.50843 0.76707
 C361 C 0.85649 0.49705 0.77752
 C362 C 0.84622 0.50388 0.79220
 C363 C 0.85793 0.53393 0.78526
 C364 C 0.87562 0.48156 0.71474
 C365 C 0.86580 0.47395 0.70057
 C366 C 0.83792 0.48006 0.71753
 C367 C 0.84828 0.48757 0.73142
 N368 N 0.86681 0.48798 0.72987
 H369 H 0.87675 0.53531 0.76263
 H370 H 0.85623 0.48263 0.77453
 H371 H 0.83794 0.49474 0.80050
 H372 H 0.85887 0.54836 0.78814
 H373 H 0.89034 0.48230 0.71376
 H374 H 0.87294 0.46877 0.68863
 H375 H 0.82319 0.47969 0.71887
 H376 H 0.84151 0.49310 0.74336
 C377 C 0.91417 0.54464 0.71898
 C378 C 0.91581 0.45281 0.77711
 C379 C 0.84678 0.47315 0.70200
 C380 C 0.84699 0.52249 0.79610
 C381 C 0.27179 0.40778 -0.01560
 H382 H 0.27582 0.40836 -0.00145
 C383 C 0.28148 0.41761 -0.02898
 H384 H 0.29295 0.42589 -0.02515
 C385 C 0.25250 0.39560 -0.03810
 H386 H 0.24157 0.38663 -0.04171
 C387 C 0.26179 0.40521 -0.05187
 H388 H 0.25783 0.40374 -0.06598
 N389 N 0.25762 0.39702 -0.02036
 C390 C 0.22477 0.38698 0.02882
 H391 H 0.22408 0.37226 0.02811
 C392 C 0.21572 0.39615 0.04290
 H393 H 0.20806 0.38849 0.05312
 C394 C 0.23563 0.41495 0.01636
 H395 H 0.24331 0.42220 0.00591
 C396 C 0.22677 0.42469 0.03028
 H397 H 0.22773 0.43942 0.03061
 Zn398 Zn 0.24648 0.38221 -0.00206
 N399 N 0.23467 0.39641 0.01606
 C400 C 0.26847 0.36886 0.02687
 N401 N 0.26516 0.36777 0.00865
 C402 C 0.27579 0.35722 -0.00247
 C403 C 0.29028 0.34702 0.00472
 C404 C 0.28280 0.35888 0.03460
 C405 C 0.21351 0.37610 -0.01932
 C406 C 0.19949 0.36616 -0.02705
 C407 C 0.21621 0.33837 -0.02018
 C408 C 0.22995 0.34885 -0.01257
 N409 N 0.22844 0.36739 -0.01247
 H410 H 0.26023 0.37766 0.03542
 H411 H 0.27307 0.35688 -0.01696
 H412 H 0.29872 0.33870 -0.00422
 H413 H 0.28540 0.35990 0.04909
 H414 H 0.21255 0.39083 -0.01882
 H415 H 0.18770 0.37322 -0.03258
 H416 H 0.21751 0.32363 -0.02029
 H417 H 0.24172 0.34216 -0.00669
 C418 C 0.21681 0.41515 0.04371
 C419 C 0.27649 0.41619 -0.04729
 C420 C 0.20088 0.34713 -0.02753
 C421 C 0.29381 0.34789 0.02342
 C422 C 0.77302 0.09305 1.01507
 H423 H 0.77755 0.09248 1.00095
 C424 C 0.78235 0.08311 1.02850
 H425 H 0.79406 0.07477 1.02474
 C426 C 0.75278 0.10529 1.03743
 H427 H 0.74161 0.11434 1.04098
 C428 C 0.76170 0.09558 1.05125
 H429 H 0.75722 0.09704 1.06533
 N430 N 0.75855 0.10389 1.01973
 C431 C 0.72749 0.11419 0.97017
 H432 H 0.72678 0.12893 0.97069
 C433 C 0.71882 0.10501 0.95619
 H434 H 0.71145 0.11270 0.94586
 C435 C 0.73786 0.08615 0.98306
 H436 H 0.74514 0.07888 0.99368
 C437 C 0.72936 0.07641 0.96928
 H438 H 0.73022 0.06164 0.96920
 Zn439 Zn 0.74788 0.11882 1.00137
 N440 N 0.73693 0.10472 0.98312
 C441 C 0.77077 0.13238 0.97278
 N442 N 0.76673 0.13325 0.99097
 C443 C 0.77673 0.14366 1.00234
 C444 C 0.79128 0.15395 0.99545
 C445 C 0.78520 0.14245 0.96534
 C446 C 0.71419 0.12497 1.01835
 C447 C 0.69975 0.13493 1.02602
 C448 C 0.71625 0.16269 1.01939
 C449 C 0.73042 0.15220 1.01183
 N450 N 0.72923 0.13367 1.01165
 H451 H 0.76302 0.12368 0.96404
 H452 H 0.77344 0.14383 1.01680
 H453 H 0.79920 0.16217 1.00459
 H454 H 0.78837 0.14163 0.95087
 H455 H 0.71350 0.11025 1.01779
 H456 H 0.68789 0.12788 1.03144
 H457 H 0.71731 0.17742 1.01958
 H458 H 0.74229 0.15888 1.00608
 C459 C 0.71981 0.08597 0.95570
 C460 C 0.77670 0.08451 1.04677
 C461 C 0.70082 0.15395 1.02660
 C462 C 0.79555 0.15332 0.97678
 C463 C 0.27255 0.59483 0.51588
 H464 H 0.27735 0.59380 0.50188
 C465 C 0.28154 0.58522 0.52979
 H466 H 0.29323 0.57665 0.52651
 C467 C 0.25203 0.60794 0.53748
 H468 H 0.24089 0.61719 0.54055
 C469 C 0.26059 0.59857 0.55174
 H470 H 0.25586 0.60050 0.56569
 N471 N 0.25810 0.60595 0.51994
 C472 C 0.22787 0.61532 0.46969
 H473 H 0.22725 0.63008 0.46994
 C474 C 0.21928 0.60594 0.45582
 H475 H 0.21205 0.61347 0.44529
 C476 C 0.23794 0.58747 0.48323
 H477 H 0.24506 0.58036 0.49405
 C478 C 0.22950 0.57752 0.46954
 H479 H 0.23026 0.56275 0.46977
 Zn480 Zn 0.24784 0.62049 0.50105
 N481 N 0.23711 0.60605 0.48292
 C482 C 0.27123 0.63333 0.47255
 N483 N 0.26690 0.63463 0.49065
 C484 C 0.27673 0.64528 0.50194
 C485 C 0.29142 0.65539 0.49504
 C486 C 0.28580 0.64322 0.46511
 C487 C 0.21389 0.62703 0.51726
 C488 C 0.19944 0.63711 0.52475
 C489 C 0.21621 0.66474 0.51822
 C490 C 0.23038 0.65412 0.51083
 N491 N 0.22907 0.63560 0.51073
 H492 H 0.26360 0.62445 0.46388
 H493 H 0.27321 0.64579 0.51633
 H494 H 0.29920 0.66381 0.50412
 H495 H 0.28920 0.64205 0.45072
 H496 H 0.21312 0.61231 0.51677
 H497 H 0.18750 0.63015 0.53009
 H498 H 0.21738 0.67946 0.51842
 H499 H 0.24237 0.66070 0.50522
 C500 C 0.22014 0.58688 0.45571
 C501 C 0.27555 0.58723 0.54790
 C502 C 0.20066 0.65612 0.52532
 C503 C 0.29598 0.65433 0.47646
 C504 C 0.77296 0.90785 0.48445
 H505 H 0.77712 0.90839 0.49856
 C506 C 0.78251 0.91776 0.47101
 H507 H 0.79399 0.92605 0.47478
 C508 C 0.75350 0.89572 0.46208
 H509 H 0.74255 0.88673 0.45854
 C510 C 0.76263 0.90540 0.44827
 H511 H 0.75854 0.90398 0.43418
 N512 N 0.75877 0.89708 0.47978
 C513 C 0.72634 0.88689 0.52918
 H514 H 0.72570 0.87217 0.52846
 C515 C 0.71735 0.89601 0.54332
 H516 H 0.70977 0.88831 0.55358
 C517 C 0.73703 0.91491 0.51668
 H518 H 0.74461 0.92220 0.50618
 C519 C 0.72821 0.92460 0.53065
 H520 H 0.72911 0.93934 0.53099
 Zn521 Zn 0.74780 0.88222 0.49813
 N522 N 0.73613 0.89636 0.51637
 C523 C 0.77002 0.86877 0.52684
 N524 N 0.76657 0.86776 0.50865
 C525 C 0.77708 0.85721 0.49742
 C526 C 0.79157 0.84692 0.50447
 C527 C 0.78436 0.85870 0.53444
 C528 C 0.71466 0.87614 0.48117
 C529 C 0.70054 0.86620 0.47361
 C530 C 0.71735 0.83841 0.48026
 C531 C 0.73118 0.84888 0.48771
 N532 N 0.72968 0.86742 0.48785
 H533 H 0.76186 0.87757 0.53548
 H534 H 0.77426 0.85692 0.48295
 H535 H 0.79991 0.83859 0.49545
 H536 H 0.78705 0.85965 0.54892
 H537 H 0.71371 0.89087 0.48171
 H538 H 0.68868 0.87326 0.46825
 H539 H 0.71864 0.82367 0.48013
 H540 H 0.74302 0.84218 0.49345
 C541 C 0.71836 0.91502 0.54413
 C542 C 0.77735 0.91641 0.45275
 C543 C 0.70193 0.84717 0.47311
 C544 C 0.79523 0.84770 0.52316
 C545 C -0.01400 0.27214 0.40669
 H546 H 0.00009 0.27636 0.40726
 C547 C -0.02742 0.28149 0.41671
 H548 H -0.02369 0.29290 0.42512
 C549 C -0.03628 0.25270 0.39436
 H550 H -0.03980 0.24185 0.38525
 C551 C -0.05009 0.26165 0.40415
 H552 H -0.06414 0.25751 0.40267
 N553 N -0.01863 0.25806 0.39576
 C554 C 0.03083 0.22618 0.38508
 H555 H 0.03016 0.22581 0.37032
 C556 C 0.04494 0.21709 0.39410
 H557 H 0.05522 0.20972 0.38628
 C558 C 0.01823 0.23622 0.41329
 H559 H 0.00769 0.24357 0.42069
 C560 C 0.03216 0.22729 0.42289
 H561 H 0.03242 0.22787 0.43767
 Zn562 Zn -0.00030 0.24742 0.38071
 N563 N 0.01798 0.23568 0.39470
 C564 C 0.02823 0.27007 0.36734
 N565 N 0.01008 0.26647 0.36638
 C566 C -0.00124 0.27705 0.35602
 C567 C 0.00568 0.29179 0.34588
 C568 C 0.03569 0.28465 0.35742
 C569 C -0.01714 0.21425 0.37438
 C570 C -0.02469 0.20021 0.36433
 C571 C -0.01816 0.21736 0.33661
 C572 C -0.01072 0.23113 0.34719
 N573 N -0.01053 0.22941 0.36574
 H574 H 0.03693 0.26184 0.37600
 H575 H -0.01567 0.27409 0.35578
 H576 H -0.00342 0.30019 0.33772
 H577 H 0.05013 0.28747 0.35833
 H578 H -0.01656 0.21314 0.38912
 H579 H -0.03000 0.18823 0.37133
 H580 H -0.01833 0.21881 0.32186
 H581 H -0.00504 0.24308 0.34056
 C582 C 0.04567 0.21772 0.41315
 C583 C -0.04565 0.27626 0.41530
 C584 C -0.02524 0.20180 0.34529
 C585 C 0.02431 0.29561 0.34663
 C586 C 1.01423 0.77413 0.09296
 H587 H 1.00017 0.77874 0.09254
 C588 C 1.02765 0.78351 0.08297
 H589 H 1.02394 0.79533 0.07474
 C590 C 1.03647 0.75368 0.10491
 H591 H 1.03999 0.74241 0.11387
 C592 C 1.05027 0.76263 0.09514
 H593 H 1.06431 0.75808 0.09647
 N594 N 1.01884 0.75953 0.10369
 C595 C 0.96926 0.72849 0.11445
 H596 H 0.97004 0.72756 0.12919
 C597 C 0.95501 0.72013 0.10542
 H598 H 0.94472 0.71275 0.11322
 C599 C 0.98173 0.73926 0.08627
 H600 H 0.99226 0.74661 0.07888
 C601 C 0.96766 0.73107 0.07668
 H602 H 0.96729 0.73223 0.06191
 Zn603 Zn 1.00057 0.74883 0.11879
 N604 N 0.98212 0.73801 0.10485
 C605 C 0.97225 0.77166 0.13267
 N606 N 0.99041 0.76765 0.13336
 C607 C 1.00188 0.77764 0.14366
 C608 C 0.99512 0.79218 0.15401
 C609 C 0.96495 0.78606 0.14282
 C610 C 1.01739 0.71507 0.12482
 C611 C 1.02522 0.70068 0.13473
 C612 C 1.01904 0.71722 0.16255
 C613 C 1.01132 0.73134 0.15210
 N614 N 1.01087 0.73011 0.13356
 H615 H 0.96342 0.76391 0.12406
 H616 H 1.01631 0.77438 0.14369
 H617 H 1.00434 0.80011 0.16213
 H618 H 0.95050 0.78920 0.14213
 H619 H 1.01661 0.71435 0.11009
 H620 H 1.03053 0.68883 0.12764
 H621 H 1.01949 0.71832 0.17729
 H622 H 1.00571 0.74320 0.15883
 C623 C 0.95414 0.72150 0.08639
 C624 C 1.04585 0.77777 0.08420
 C625 C 1.02612 0.70180 0.15376
 C626 C 0.97648 0.79641 0.15356
 C627 C 0.51415 0.27341 0.59256
 H628 H 0.50004 0.27781 0.59185
 C629 C 0.52761 0.28293 0.58277
 H630 H 0.52389 0.29464 0.57439
 C631 C 0.53645 0.25336 0.60506
 H632 H 0.53996 0.24220 0.61416
 C633 C 0.55030 0.26246 0.59550
 H634 H 0.56437 0.25813 0.59713
 N635 N 0.51877 0.25895 0.60347
 C636 C 0.46941 0.22738 0.61352
 H637 H 0.46984 0.22668 0.62829
 C638 C 0.45561 0.21854 0.60427
 H639 H 0.44532 0.21103 0.61192
 C640 C 0.48240 0.23792 0.58549
 H641 H 0.49298 0.24534 0.57825
 C642 C 0.46878 0.22924 0.57567
 H643 H 0.46881 0.23010 0.56088
 Zn644 Zn 0.50038 0.24810 0.61830
 N645 N 0.48233 0.23698 0.60409
 C646 C 0.47164 0.27075 0.63169
 N647 N 0.48981 0.26686 0.63265
 C648 C 0.50106 0.27694 0.64309
 C649 C 0.49407 0.29144 0.65333
 C650 C 0.46410 0.28512 0.64172
 C651 C 0.51748 0.21456 0.62468
 C652 C 0.52522 0.20024 0.63474
 C653 C 0.51836 0.21672 0.66245
 C654 C 0.51074 0.23078 0.65185
 N655 N 0.51064 0.22954 0.63330
 H656 H 0.46299 0.26292 0.62297
 H657 H 0.51551 0.27377 0.64332
 H658 H 0.50312 0.29944 0.66157
 H659 H 0.44965 0.28818 0.64083
 H660 H 0.51698 0.21384 0.60993
 H661 H 0.53075 0.18843 0.62775
 H662 H 0.51850 0.21781 0.67720
 H663 H 0.50488 0.24259 0.65848
 C664 C 0.45525 0.21951 0.58519
 C665 C 0.54587 0.27746 0.58438
 C666 C 0.52573 0.20136 0.65378
 C667 C 0.47542 0.29556 0.65261
 C668 C 0.48580 0.77252 0.90728
 H669 H 0.49986 0.77682 0.90790
 C670 C 0.47226 0.78194 0.91709
 H671 H 0.47589 0.79347 0.92538
 C672 C 0.46368 0.75284 0.89503
 H673 H 0.46027 0.74187 0.88603
 C674 C 0.44977 0.76186 0.90461
 H675 H 0.43575 0.75763 0.90310
 N676 N 0.48131 0.75829 0.89649
 C677 C 0.53087 0.72638 0.88637
 H678 H 0.53021 0.72582 0.87163
 C679 C 0.54498 0.71742 0.89552
 H680 H 0.55527 0.70995 0.88780
 C681 C 0.51824 0.73679 0.91444
 H682 H 0.50771 0.74423 0.92174
 C683 C 0.53218 0.72798 0.92416
 H684 H 0.53244 0.72877 0.93893
 Zn685 Zn 0.49976 0.74752 0.88167
 N686 N 0.51801 0.73600 0.89586
 C687 C 0.52830 0.77005 0.86818
 N688 N 0.51017 0.76641 0.86714
 C689 C 0.49892 0.77683 0.85656
 C690 C 0.50588 0.79145 0.84627
 C691 C 0.53581 0.78452 0.85812
 C692 C 0.48306 0.71421 0.87571
 C693 C 0.47556 0.70001 0.86584
 C694 C 0.48215 0.71681 0.83791
 C695 C 0.48953 0.73073 0.84832
 N696 N 0.48965 0.72927 0.86689
 H697 H 0.53696 0.76197 0.87701
 H698 H 0.48449 0.77386 0.85626
 H699 H 0.49684 0.79973 0.83793
 H700 H 0.55024 0.78737 0.85909
 H701 H 0.48358 0.71330 0.89046
 H702 H 0.47024 0.68813 0.87298
 H703 H 0.48201 0.71806 0.82314
 H704 H 0.49520 0.74261 0.84155
 C705 C 0.54570 0.71829 0.91456
 C706 C 0.45407 0.77662 0.91562
 C707 C 0.47506 0.70135 0.84678
 C708 C 0.52450 0.79532 0.84709
 C709 C 0.47003 -0.20273 0.36794
 C710 C 0.46761 -0.18797 0.36087
 C711 C 0.46426 -0.17055 0.35220
 C712 C 0.44984 -0.15947 0.35835
 C713 C 0.44586 -0.14302 0.34931
 C714 C 0.45623 -0.13745 0.33394
 C715 C 0.47091 -0.14853 0.32806
 C716 C 0.47488 -0.16498 0.33714
 C717 C 0.45121 -0.12057 0.32364
 C718 C 0.45149 -0.12035 0.30440
 C719 C 0.44554 -0.10492 0.29468
 C720 C 0.43929 -0.08948 0.30402
 C721 C 0.43936 -0.08939 0.32315
 C722 C 0.44530 -0.10481 0.33291
 C723 C 0.43169 -0.07426 0.29400
 C724 C 0.42469 -0.06190 0.28551
 H725 H 0.44147 -0.16370 0.36993
 H726 H 0.43430 -0.13495 0.35401
 H727 H 0.47927 -0.14451 0.31640
 H728 H 0.48607 -0.17346 0.33226
 H729 H 0.45570 -0.13233 0.29687
 H730 H 0.44540 -0.10519 0.27988
 H731 H 0.43451 -0.07752 0.33052
 H732 H 0.44514 -0.10448 0.34770
 C733 C 0.96895 0.29665 0.86877
 C734 C 0.96659 0.31146 0.86178
 C735 C 0.96332 0.32896 0.85323
 C736 C 0.97412 0.33468 0.83834
 C737 C 0.97025 0.35121 0.82938
 C738 C 0.95550 0.36224 0.83519
 C739 C 0.94494 0.35650 0.85037
 C740 C 0.94882 0.33997 0.85930
 C741 C 0.95063 0.37924 0.82504
 C742 C 0.94464 0.39490 0.83442
 C743 C 0.93886 0.41045 0.82477
 C744 C 0.93903 0.41059 0.80564
 C745 C 0.94534 0.39524 0.79618
 C746 C 0.95113 0.37968 0.80580
 C747 C 0.93159 0.42595 0.79570
 C748 C 0.92475 0.43843 0.78727
 H749 H 0.98537 0.32625 0.83352
 H750 H 0.97876 0.35535 0.81787
 H751 H 0.93333 0.36453 0.85502
 H752 H 0.94030 0.33562 0.87074
 H753 H 0.94430 0.39506 0.84922
 H754 H 0.93395 0.42224 0.83223
 H755 H 0.94538 0.39514 0.78138
 H756 H 0.95541 0.36778 0.79817
 C757 C 0.03078 1.20180 0.86858
 C758 C 0.03312 1.18701 0.86184
 C759 C 0.03637 1.16955 0.85356
 C760 C 0.02526 1.16368 0.83942
 C761 C 0.02910 1.14719 0.83068
 C762 C 0.04413 1.13635 0.83598
 C763 C 0.05502 1.14223 0.85043
 C764 C 0.05116 1.15872 0.85913
 C765 C 0.04896 1.11940 0.82601
 C766 C 0.05536 1.10382 0.83547
 C767 C 0.06109 1.08832 0.82593
 C768 C 0.06046 1.08817 0.80682
 C769 C 0.05373 1.10343 0.79731
 C770 C 0.04799 1.11894 0.80682
 C771 C 0.06782 1.07287 0.79691
 C772 C 0.07461 1.06044 0.78848
 H773 H 0.01378 1.17196 0.83499
 H774 H 0.02036 1.14293 0.81974
 H775 H 0.06684 1.13435 0.85465
 H776 H 0.05991 1.16319 0.86999
 H777 H 0.05607 1.10368 0.85025
 H778 H 0.06632 1.07660 0.83343
 H779 H 0.05333 1.10352 0.78251
 H780 H 0.04338 1.13078 0.79911
 C781 C 0.53241 0.70074 0.36856
 C782 C 0.53480 0.68595 0.36184
 C783 C 0.53807 0.66849 0.35356
 C784 C 0.52689 0.66258 0.33949
 C785 C 0.53071 0.64609 0.33074
 C786 C 0.54581 0.63530 0.33596
 C787 C 0.55676 0.64122 0.35034
 C788 C 0.55291 0.65771 0.35906
 C789 C 0.55061 0.61835 0.32597
 C790 C 0.55715 0.60281 0.33540
 C791 C 0.56283 0.58731 0.32583
 C792 C 0.56203 0.58713 0.30673
 C793 C 0.55517 0.60236 0.29726
 C794 C 0.54947 0.61786 0.30679
 C795 C 0.56934 0.57183 0.29678
 C796 C 0.57607 0.55939 0.28833
 H797 H 0.51536 0.67083 0.33513
 H798 H 0.52191 0.64180 0.31987
 H799 H 0.56863 0.63338 0.35450
 H800 H 0.56172 0.66221 0.36986
 H801 H 0.55798 0.60268 0.35017
 H802 H 0.56817 0.57561 0.33330
 H803 H 0.55462 0.60242 0.28246
 H804 H 0.54475 0.62967 0.29911
 C805 C 0.52752 0.29948 0.13557
 C806 C 0.52981 0.31387 0.14299
 C807 C 0.53306 0.33082 0.15205
 C808 C 0.53871 0.33066 0.17025
 C809 C 0.54289 0.34699 0.17884
 C810 C 0.54151 0.36375 0.16933
 C811 C 0.53551 0.36380 0.15113
 C812 C 0.53132 0.34744 0.14256
 C813 C 0.54713 0.38093 0.17813
 C814 C 0.55739 0.39395 0.16824
 C815 C 0.56384 0.40949 0.17684
 C816 C 0.56011 0.41229 0.19541
 C817 C 0.54955 0.39965 0.20527
 C818 C 0.54307 0.38409 0.19670
 C819 C 0.56813 0.42747 0.20453
 C820 C 0.57553 0.43987 0.21206
 H821 H 0.54019 0.31786 0.17769
 H822 H 0.54773 0.34644 0.19276
 H823 H 0.53412 0.37650 0.14352
 H824 H 0.52696 0.34772 0.12847
 H825 H 0.56097 0.39181 0.15402
 H826 H 0.57213 0.41911 0.16911
 H827 H 0.54661 0.40166 0.21966
 H828 H 0.53502 0.37444 0.20462
 C829 C 0.02780 0.79971 0.63635
 C830 C 0.02994 0.81418 0.64366
 C831 C 0.03301 0.83125 0.65258
 C832 C 0.03837 0.83131 0.67086
 C833 C 0.04237 0.84776 0.67933
 C834 C 0.04109 0.86440 0.66960
 C835 C 0.03537 0.86423 0.65131
 C836 C 0.03137 0.84775 0.64287
 C837 C 0.04653 0.88171 0.67829
 C838 C 0.05690 0.89464 0.66840
 C839 C 0.06321 0.91029 0.67691
 C840 C 0.05921 0.91328 0.69539
 C841 C 0.04853 0.90074 0.70525
 C842 C 0.04220 0.88507 0.69675
 C843 C 0.06711 0.92856 0.70447
 C844 C 0.07443 0.94102 0.71197
 H845 H 0.03978 0.81861 0.67847
 H846 H 0.04700 0.84738 0.69332
 H847 H 0.03406 0.87683 0.64353
 H848 H 0.02722 0.84786 0.62871
 H849 H 0.06070 0.89234 0.65425
 H850 H 0.07159 0.91983 0.66920
 H851 H 0.04538 0.90290 0.71957
 H852 H 0.03406 0.87549 0.70467
 C853 C 0.96721 0.70448 0.63462
 C854 C 0.96504 0.68951 0.64127
 C855 C 0.96204 0.67178 0.64939
 C856 C 0.97120 0.66657 0.66532
 C857 C 0.96754 0.64974 0.67375
 C858 C 0.95464 0.63790 0.66636
 C859 C 0.94574 0.64315 0.65016
 C860 C 0.94942 0.65998 0.64176
 C861 C 0.94985 0.62053 0.67586
 C862 C 0.94644 0.60467 0.66585
 C863 C 0.94064 0.58871 0.67475
 C864 C 0.93821 0.58836 0.69376
 C865 C 0.94199 0.60392 0.70388
 C866 C 0.94780 0.61989 0.69502
 C867 C 0.93060 0.57253 0.70272
 C868 C 0.92351 0.55960 0.71018
 H869 H 0.98101 0.67561 0.67134
 H870 H 0.97476 0.64601 0.68608
 H871 H 0.93554 0.63448 0.64427
 H872 H 0.94218 0.66392 0.62949
 H873 H 0.94811 0.60466 0.65112
 H874 H 0.93770 0.57676 0.66677
 H875 H 0.94000 0.60385 0.71858
 H876 H 0.95006 0.63192 0.70309
 C877 C 0.46620 0.20381 0.13271
 C878 C 0.46393 0.18883 0.13930
 C879 C 0.46083 0.17110 0.14737
 C880 C 0.47017 0.16568 0.16312
 C881 C 0.46643 0.14884 0.17150
 C882 C 0.45328 0.13720 0.16422
 C883 C 0.44419 0.14267 0.14820
 C884 C 0.44794 0.15950 0.13986
 C885 C 0.44847 0.11980 0.17365
 C886 C 0.44477 0.10406 0.16356
 C887 C 0.43899 0.08807 0.17242
 C888 C 0.43687 0.08758 0.19146
 C889 C 0.44093 0.10302 0.20165
 C890 C 0.44672 0.11902 0.19283
 C891 C 0.42932 0.07172 0.20042
 C892 C 0.42230 0.05877 0.20790
 H893 H 0.48017 0.17455 0.16905
 H894 H 0.47380 0.14493 0.18369
 H895 H 0.43380 0.13416 0.14241
 H896 H 0.44056 0.16361 0.12773
 H897 H 0.44621 0.10416 0.14882
 H898 H 0.43583 0.07621 0.16440
 H899 H 0.43918 0.10284 0.21638
 H900 H 0.44921 0.13096 0.20096
 C901 C 0.37021 0.46879 -0.20293
 C902 C 0.36325 0.46634 -0.18808
 C903 C 0.35464 0.46304 -0.17057
 C904 C 0.35981 0.44785 -0.16001
 C905 C 0.35075 0.44399 -0.14350
 C906 C 0.33634 0.45526 -0.13733
 C907 C 0.33146 0.47069 -0.14790
 C908 C 0.34055 0.47453 -0.16442
 C909 C 0.32598 0.45047 -0.12038
 C910 C 0.30684 0.45219 -0.11977
 C911 C 0.29695 0.44649 -0.10429
 C912 C 0.30603 0.43907 -0.08919
 C913 C 0.32509 0.43769 -0.08948
 C914 C 0.33502 0.44337 -0.10496
 C915 C 0.29572 0.43175 -0.07395
 C916 C 0.28699 0.42501 -0.06157
 H917 H 0.37062 0.43880 -0.16471
 H918 H 0.35466 0.43186 -0.13584
 H919 H 0.32057 0.47974 -0.14342
 H920 H 0.33643 0.48632 -0.17249
 H921 H 0.29945 0.45735 -0.13149
 H922 H 0.28219 0.44749 -0.10427
 H923 H 0.33226 0.43191 -0.07788
 H924 H 0.34975 0.44208 -0.10492
 C925 C 0.86971 0.96985 0.29666
 C926 C 0.86280 0.96743 0.31153
 C927 C 0.85429 0.96411 0.32908
 C928 C 0.85979 0.94910 0.33974
 C929 C 0.85085 0.94519 0.35630
 C930 C 0.83624 0.95623 0.36242
 C931 C 0.83103 0.97148 0.35176
 C932 C 0.84000 0.97538 0.33519
 C933 C 0.82601 0.95134 0.37943
 C934 C 0.80684 0.95263 0.38006
 C935 C 0.79710 0.94681 0.39558
 C936 C 0.80637 0.93968 0.41071
 C937 C 0.82545 0.93873 0.41040
 C938 C 0.83523 0.94454 0.39488
 C939 C 0.79624 0.93221 0.42600
 C940 C 0.78766 0.92535 0.43842
 H941 H 0.87076 0.94023 0.33508
 H942 H 0.85501 0.93320 0.36404
 H943 H 0.81997 0.98035 0.35620
 H944 H 0.83563 0.98703 0.32704
 H945 H 0.79934 0.95755 0.36831
 H946 H 0.78233 0.94746 0.39562
 H947 H 0.83276 0.93319 0.42202
 H948 H 0.84998 0.94359 0.39490
 C949 C 0.86834 0.03174 1.20167
 C950 C 0.86136 0.03404 1.18698
 C951 C 0.85281 0.03723 1.16963
 C952 C 0.83816 0.02647 1.16434
 C953 C 0.82919 0.03028 1.14796
 C954 C 0.83477 0.04493 1.13665
 C955 C 0.84972 0.05546 1.14195
 C956 C 0.85865 0.05164 1.15834
 C957 C 0.82462 0.04975 1.11980
 C958 C 0.83395 0.05557 1.10386
 C959 C 0.82429 0.06133 1.08845
 C960 C 0.80519 0.06131 1.08874
 C961 C 0.79579 0.05515 1.10437
 C962 C 0.80542 0.04938 1.11979
 C963 C 0.79523 0.06874 1.07350
 C964 C 0.78681 0.07558 1.06110
 H965 H 0.83352 0.01529 1.17299
 H966 H 0.81787 0.02180 1.14415
 H967 H 0.85417 0.06700 1.13370
 H968 H 0.86990 0.06012 1.16236
 H969 H 0.84872 0.05580 1.10337
 H970 H 0.83170 0.06612 1.07643
 H971 H 0.78101 0.05522 1.10479
 H972 H 0.79783 0.04522 1.13191
 C973 C 0.36743 0.53201 0.70254
 C974 C 0.35967 0.53464 0.68831
 C975 C 0.35005 0.53820 0.67160
 C976 C 0.35966 0.54227 0.65543
 C977 C 0.35021 0.54672 0.63946
 C978 C 0.33101 0.54721 0.63952
 C979 C 0.32149 0.54274 0.65578
 C980 C 0.33096 0.53829 0.67170
 C981 C 0.32094 0.55305 0.62293
 C982 C 0.30564 0.56470 0.62447
 C983 C 0.29643 0.57072 0.60890
 C984 C 0.30234 0.56520 0.59156
 C985 C 0.31746 0.55349 0.58983
 C986 C 0.32671 0.54744 0.60542
 C987 C 0.29316 0.57215 0.57563
 C988 C 0.28524 0.57865 0.56272
 H989 H 0.37444 0.54231 0.65522
 H990 H 0.35793 0.55030 0.62724
 H991 H 0.30672 0.54274 0.65620
 H992 H 0.32338 0.53515 0.68414
 H993 H 0.30103 0.56951 0.63770
 H994 H 0.28483 0.57989 0.61039
 H995 H 0.32216 0.54915 0.57646
 H996 H 0.33833 0.53834 0.60381
 C997 C 0.13588 0.53070 0.29984
 C998 C 0.14314 0.53290 0.31433
 C999 C 0.15202 0.53601 0.33142
 C1000 C 0.14235 0.53419 0.34796
 C1001 C 0.15079 0.53815 0.36447
 C1002 C 0.16902 0.54400 0.36462
 C1003 C 0.17870 0.54548 0.34793
 C1004 C 0.17025 0.54152 0.33147
 C1005 C 0.17770 0.54936 0.38196
 C1006 C 0.19615 0.54512 0.38525
 C1007 C 0.20465 0.55140 0.40095
 C1008 C 0.19481 0.56194 0.41358
 C1009 C 0.17634 0.56583 0.41066
 C1010 C 0.16783 0.55958 0.39498
 C1011 C 0.20390 0.56984 0.42885
 C1012 C 0.21139 0.57720 0.44130
 H1013 H 0.12824 0.52992 0.34808
 H1014 H 0.14304 0.53669 0.37710
 H1015 H 0.19265 0.55022 0.34755
 H1016 H 0.17783 0.54306 0.31873
 H1017 H 0.20406 0.53710 0.37560
 H1018 H 0.21897 0.54835 0.40305
 H1019 H 0.16864 0.57411 0.42027
 H1020 H 0.15369 0.56329 0.39274
 C1021 C 0.63609 0.02973 0.79945
 C1022 C 0.64330 0.03193 0.81397
 C1023 C 0.65214 0.03507 0.83108
 C1024 C 0.64240 0.03334 0.84759
 C1025 C 0.65078 0.03739 0.86410
 C1026 C 0.66902 0.04324 0.86429
 C1027 C 0.67877 0.04460 0.84764
 C1028 C 0.67036 0.04056 0.83116
 C1029 C 0.67763 0.04870 0.88163
 C1030 C 0.69605 0.04443 0.88504
 C1031 C 0.70448 0.05076 0.90075
 C1032 C 0.69461 0.06138 0.91328
 C1033 C 0.67617 0.06533 0.91023
 C1034 C 0.66772 0.05902 0.89454
 C1035 C 0.70361 0.06924 0.92862
 C1036 C 0.71107 0.07649 0.94116
 H1037 H 0.62829 0.02909 0.84768
 H1038 H 0.64299 0.03601 0.87672
 H1039 H 0.69272 0.04933 0.84728
 H1040 H 0.67800 0.04203 0.81845
 H1041 H 0.70398 0.03633 0.87548
 H1042 H 0.71877 0.04765 0.90296
 H1043 H 0.66844 0.07367 0.91976
 H1044 H 0.65361 0.06276 0.89220
 C1045 C 0.63570 0.96889 0.70457
 C1046 C 0.64270 0.96669 0.68974
 C1047 C 0.65126 0.96367 0.67221
 C1048 C 0.64113 0.96537 0.65619
 C1049 C 0.64931 0.96159 0.63924
 C1050 C 0.66773 0.95605 0.63814
 C1051 C 0.67784 0.95466 0.65432
 C1052 C 0.66965 0.95844 0.67122
 C1053 C 0.67620 0.95097 0.62033
 C1054 C 0.69439 0.95560 0.61614
 C1055 C 0.70273 0.94964 0.59994
 C1056 C 0.69299 0.93904 0.58771
 C1057 C 0.67476 0.93475 0.59155
 C1058 C 0.66640 0.94068 0.60772
 C1059 C 0.70200 0.93147 0.57190
 C1060 C 0.70950 0.92439 0.55902
 H1061 H 0.62689 0.96943 0.65680
 H1062 H 0.64122 0.96298 0.62702
 H1063 H 0.69195 0.95016 0.65397
 H1064 H 0.67758 0.95699 0.68355
 H1065 H 0.70221 0.96368 0.62545
 H1066 H 0.71686 0.95300 0.59713
 H1067 H 0.66715 0.92641 0.58225
 H1068 H 0.65247 0.93667 0.61065
 C1069 C 0.13459 0.46953 0.20418
 C1070 C 0.14151 0.46728 0.18933
 C1071 C 0.14999 0.46421 0.17176
 C1072 C 0.13975 0.46568 0.15579
 C1073 C 0.14785 0.46187 0.13883
 C1074 C 0.16632 0.45651 0.13764
 C1075 C 0.17655 0.45535 0.15376
 C1076 C 0.16842 0.45916 0.17069
 C1077 C 0.17473 0.45138 0.11982
 C1078 C 0.19285 0.45616 0.11547
 C1079 C 0.20115 0.45014 0.09928
 C1080 C 0.19145 0.43933 0.08721
 C1081 C 0.17329 0.43489 0.09119
 C1082 C 0.16496 0.44088 0.10736
 C1083 C 0.20044 0.43170 0.07142
 C1084 C 0.20794 0.42456 0.05856
 H1085 H 0.12546 0.46960 0.15647
 H1086 H 0.13967 0.46307 0.12665
 H1087 H 0.19071 0.45099 0.15335
 H1088 H 0.17645 0.45789 0.18297
 H1089 H 0.20064 0.46441 0.12467
 H1090 H 0.21523 0.45361 0.09636
 H1091 H 0.16570 0.42639 0.08202
 H1092 H 0.15109 0.43676 0.11041
 C1093 C -0.20119 0.36834 0.46914
 C1094 C -0.18639 0.36138 0.46671
 C1095 C -0.16893 0.35280 0.46339
 C1096 C -0.16327 0.33799 0.47423
 C1097 C -0.14680 0.32897 0.47030
 C1098 C -0.13578 0.33467 0.45543
 C1099 C -0.14145 0.34980 0.44483
 C1100 C -0.15792 0.35877 0.44877
 C1101 C -0.11886 0.32444 0.45048
 C1102 C -0.10316 0.33372 0.44434
 C1103 C -0.08769 0.32400 0.43848
 C1104 C -0.08768 0.30490 0.43872
 C1105 C -0.10307 0.29555 0.44519
 C1106 C -0.11855 0.30524 0.45106
 C1107 C -0.07240 0.29489 0.43122
 C1108 C -0.05998 0.28642 0.42431
 H1109 H -0.17170 0.33325 0.48557
 H1110 H -0.14271 0.31752 0.47884
 H1111 H -0.13342 0.35435 0.43313
 H1112 H -0.16222 0.37016 0.44022
 H1113 H -0.10290 0.34850 0.44394
 H1114 H -0.07586 0.33138 0.43345
 H1115 H -0.10327 0.28076 0.44529
 H1116 H -0.13048 0.29769 0.45546
 C1117 C 0.29728 0.86770 0.96763
 C1118 C 0.31215 0.86088 0.96525
 C1119 C 0.32972 0.85249 0.96203
 C1120 C 0.34043 0.85804 0.94703
 C1121 C 0.35704 0.84924 0.94326
 C1122 C 0.36315 0.83472 0.95443
 C1123 C 0.35243 0.82944 0.96966
 C1124 C 0.33582 0.83827 0.97342
 C1125 C 0.38023 0.82465 0.94971
 C1126 C 0.38097 0.80548 0.95111
 C1127 C 0.39659 0.79589 0.94547
 C1128 C 0.41170 0.80529 0.93841
 C1129 C 0.41127 0.82437 0.93735
 C1130 C 0.39566 0.83400 0.94298
 C1131 C 0.42711 0.79530 0.93113
 C1132 C 0.43963 0.78683 0.92441
 H1133 H 0.33579 0.86896 0.93806
 H1134 H 0.36483 0.85346 0.93128
 H1135 H 0.35686 0.81845 0.97864
 H1136 H 0.32763 0.83386 0.98507
 H1137 H 0.36926 0.79786 0.95598
 H1138 H 0.39672 0.78111 0.94620
 H1139 H 0.42287 0.83179 0.93187
 H1140 H 0.39559 0.84876 0.94195
 C1141 C 1.20256 0.86606 0.02994
 C1142 C 1.18789 0.85901 0.03226
 C1143 C 1.17058 0.85034 0.03544
 C1144 C 1.15466 0.86087 0.03746
 C1145 C 1.13802 0.85243 0.04149
 C1146 C 1.13710 0.83334 0.04357
 C1147 C 1.15314 0.82287 0.04121
 C1148 C 1.16976 0.83133 0.03719
 C1149 C 1.11970 0.82439 0.04895
 C1150 C 1.11487 0.80754 0.04144
 C1151 C 1.09912 0.79855 0.04748
 C1152 C 1.08797 0.80628 0.06106
 C1153 C 1.09244 0.82322 0.06831
 C1154 C 1.10817 0.83223 0.06229
 C1155 C 1.07265 0.79635 0.06844
 C1156 C 1.06020 0.78792 0.07526
 H1157 H 1.15515 0.87560 0.03613
 H1158 H 1.12588 0.86084 0.04302
 H1159 H 1.15296 0.80818 0.04299
 H1160 H 1.18201 0.82306 0.03575
 H1161 H 1.12334 0.80126 0.03099
 H1162 H 1.09582 0.78541 0.04181
 H1163 H 1.08399 0.82926 0.07894
 H1164 H 1.11163 0.84504 0.06854
 C1165 C 0.70229 0.36711 0.53160
 C1166 C 0.68765 0.36001 0.53388
 C1167 C 0.67038 0.35123 0.53697
 C1168 C 0.66962 0.33219 0.53836
 C1169 C 0.65304 0.32361 0.54224
 C1170 C 0.63697 0.33398 0.54481
 C1171 C 0.63782 0.35311 0.54310
 C1172 C 0.65443 0.36167 0.53921
 C1173 C 0.61960 0.32488 0.55003
 C1174 C 0.60806 0.33243 0.56353
 C1175 C 0.59236 0.32325 0.56939
 C1176 C 0.58795 0.30645 0.56181
 C1177 C 0.59911 0.29901 0.54808
 C1178 C 0.61483 0.30816 0.54220
 C1179 C 0.57265 0.29635 0.56899
 C1180 C 0.56022 0.28778 0.57565
 H1181 H 0.68190 0.32399 0.53673
 H1182 H 0.65291 0.30889 0.54374
 H1183 H 0.62566 0.36145 0.54480
 H1184 H 0.65486 0.37642 0.53815
 H1185 H 0.61148 0.34513 0.57002
 H1186 H 0.58389 0.32906 0.58013
 H1187 H 0.59585 0.28598 0.54216
 H1188 H 0.62332 0.30211 0.53163
 C1189 C 0.30006 0.13425 0.52861
 C1190 C 0.31455 0.14150 0.53082
 C1191 C 0.33162 0.15039 0.53397
 C1192 C 0.34804 0.14049 0.53321
 C1193 C 0.36448 0.14897 0.53730
 C1194 C 0.36471 0.16748 0.54223
 C1195 C 0.34816 0.17737 0.54264
 C1196 C 0.33175 0.16887 0.53854
 C1197 C 0.38194 0.17625 0.54776
 C1198 C 0.38564 0.19446 0.54273
 C1199 C 0.40123 0.20309 0.54909
 C1200 C 0.41334 0.19362 0.56049
 C1201 C 0.41000 0.17538 0.56521
 C1202 C 0.39444 0.16673 0.55888
 C1203 C 0.42852 0.20289 0.56836
 C1204 C 0.44090 0.21055 0.57564
 H1205 H 0.34810 0.12618 0.52969
 H1206 H 0.37701 0.14104 0.53667
 H1207 H 0.34781 0.19154 0.54665
 H1208 H 0.31911 0.17664 0.53927
 H1209 H 0.37641 0.20208 0.53401
 H1210 H 0.40366 0.21723 0.54539
 H1211 H 0.41921 0.16797 0.57415
 H1212 H 0.39186 0.15280 0.56321
 C1213 C 0.79887 0.63554 0.03042
 C1214 C 0.81325 0.64298 0.03264
 C1215 C 0.83022 0.65208 0.03578
 C1216 C 0.84511 0.64232 0.04281
 C1217 C 0.86122 0.65137 0.04695
 C1218 C 0.86263 0.67034 0.04415
 C1219 C 0.84770 0.67997 0.03673
 C1220 C 0.83161 0.67089 0.03260
 C1221 C 0.87927 0.68014 0.04973
 C1222 C 0.87777 0.69703 0.05859
 C1223 C 0.89331 0.70578 0.06483
 C1224 C 0.91057 0.69782 0.06229
 C1225 C 0.91227 0.68119 0.05318
 C1226 C 0.89673 0.67240 0.04692
 C1227 C 0.92632 0.70625 0.06997
 C1228 C 0.93920 0.71325 0.07708
 H1229 H 0.84415 0.62777 0.04542
 H1230 H 0.87236 0.64360 0.05288
 H1231 H 0.84844 0.69454 0.03421
 H1232 H 0.82016 0.67859 0.02716
 H1233 H 0.86453 0.70322 0.06121
 H1234 H 0.89182 0.71858 0.07199
 H1235 H 0.92556 0.67489 0.05118
 H1236 H 0.89835 0.65952 0.03997
 C1237 C 0.70495 0.63451 0.96885
 C1238 C 0.69026 0.64162 0.96653
 C1239 C 0.67288 0.65035 0.96339
 C1240 C 0.67219 0.66859 0.95755
 C1241 C 0.65543 0.67695 0.95374
 C1242 C 0.63909 0.66714 0.95570
 C1243 C 0.63990 0.64886 0.96183
 C1244 C 0.65670 0.64053 0.96564
 C1245 C 0.62141 0.67576 0.95062
 C1246 C 0.60846 0.66589 0.94084
 C1247 C 0.59240 0.67436 0.93488
 C1248 C 0.58902 0.69277 0.93867
 C1249 C 0.60159 0.70259 0.94878
 C1250 C 0.61767 0.69414 0.95475
 C1251 C 0.57331 0.70184 0.93106
 C1252 C 0.56050 0.70939 0.92396
 H1253 H 0.68464 0.67629 0.95569
 H1254 H 0.65530 0.69093 0.94878
 H1255 H 0.62755 0.64102 0.96366
 H1256 H 0.65708 0.62640 0.97018
 H1257 H 0.61104 0.65181 0.93722
 H1258 H 0.58284 0.66667 0.92693
 H1259 H 0.59913 0.71686 0.95174
 H1260 H 0.62726 0.70203 0.96246
 C1261 C 0.20465 0.13332 0.46747
 C1262 C 0.18995 0.14045 0.46517
 C1263 C 0.17258 0.14918 0.46204
 C1264 C 0.15645 0.13916 0.46346
 C1265 C 0.13968 0.14751 0.45958
 C1266 C 0.13884 0.16601 0.45421
 C1267 C 0.15512 0.17602 0.45310
 C1268 C 0.17185 0.16764 0.45698
 C1269 C 0.12121 0.17468 0.44903
 C1270 C 0.11718 0.19284 0.45381
 C1271 C 0.10115 0.20137 0.44781
 C1272 C 0.08893 0.19185 0.43702
 C1273 C 0.09260 0.17366 0.43255
 C1274 C 0.10861 0.16511 0.43853
 C1275 C 0.07325 0.20104 0.42948
 C1276 C 0.06047 0.20869 0.42244
 H1277 H 0.15685 0.12485 0.46739
 H1278 H 0.12737 0.13950 0.46076
 H1279 H 0.15498 0.19019 0.44873
 H1280 H 0.18427 0.17550 0.45575
 H1281 H 0.12650 0.20050 0.46207
 H1282 H 0.09847 0.21547 0.45131
 H1283 H 0.08331 0.16621 0.42407
 H1284 H 0.11142 0.15121 0.43440
 C1285 C 0.60554 0.05650 0.74703
 C1286 C 0.59885 0.06944 0.73919
 C1287 C 0.59073 0.08478 0.72978
 C1288 C 0.57936 0.09695 0.73928
 C1289 C 0.57122 0.11169 0.73008
 C1290 C 0.57434 0.11442 0.71122
 C1291 C 0.58586 0.10213 0.70182
 C1292 C 0.59399 0.08742 0.71105
 C1293 C 0.56553 0.12992 0.70137
 C1294 C 0.55841 0.12752 0.68381
 C1295 C 0.55017 0.14211 0.67449
 C1296 C 0.54893 0.15929 0.68257
 C1297 C 0.55593 0.16183 0.70005
 C1298 C 0.56417 0.14724 0.70941
 C1299 C 0.54065 0.17430 0.67279
 C1300 C 0.53379 0.18673 0.66430
 H1301 H 0.57668 0.09499 0.75377
 H1302 H 0.56224 0.12077 0.73764
 H1303 H 0.58873 0.10401 0.68736
 H1304 H 0.60280 0.07809 0.70358
 H1305 H 0.55902 0.11430 0.67736
 H1306 H 0.54477 0.13999 0.66098
 H1307 H 0.55511 0.17510 0.70640
 H1308 H 0.56971 0.14957 0.72281
 C1309 C 1.10532 0.55656 0.24698
 C1310 C 1.09871 0.56952 0.23909
 C1311 C 1.09068 0.58484 0.22958
 C1312 C 1.08911 0.60179 0.23809
 C1313 C 1.08116 0.61662 0.22886
 C1314 C 1.07469 0.61467 0.21097
 C1315 C 1.07636 0.59756 0.20254
 C1316 C 1.08429 0.58276 0.21180
 C1317 C 1.06622 0.63037 0.20112
 C1318 C 1.06993 0.63337 0.18241
 C1319 C 1.06180 0.64802 0.17308
 C1320 C 1.04986 0.65986 0.18230
 C1321 C 1.04612 0.65705 0.20092
 C1322 C 1.05426 0.64241 0.21030
 C1323 C 1.04137 0.67478 0.17255
 C1324 C 1.03436 0.68717 0.16413
 H1325 H 1.09404 0.60355 0.25184
 H1326 H 1.08028 0.62966 0.23562
 H1327 H 1.07129 0.59555 0.18889
 H1328 H 1.08538 0.56967 0.20511
 H1329 H 1.07927 0.62451 0.17503
 H1330 H 1.06482 0.65010 0.15867
 H1331 H 1.03685 0.66611 0.20817
 H1332 H 1.05095 0.64033 0.22464
 C1333 C 0.90016 0.94420 0.24349
 C1334 C 0.90695 0.93133 0.23578
 C1335 C 0.91510 0.91593 0.22665
 C1336 C 0.90643 0.90821 0.21172
 C1337 C 0.91429 0.89319 0.20291
 C1338 C 0.93094 0.88569 0.20893
 C1339 C 0.93956 0.89358 0.22393
 C1340 C 0.93167 0.90860 0.23273
 C1341 C 0.93926 0.86970 0.19960
 C1342 C 0.95821 0.86876 0.19632
 C1343 C 0.96598 0.85378 0.18734
 C1344 C 0.95493 0.83955 0.18156
 C1345 C 0.93608 0.84032 0.18484
 C1346 C 0.92829 0.85528 0.19380
 C1347 C 0.96282 0.82432 0.17195
 C1348 C 0.96919 0.81158 0.16370
 H1349 H 0.89362 0.91382 0.20687
 H1350 H 0.90744 0.88758 0.19125
 H1351 H 0.95227 0.88798 0.22902
 H1352 H 0.93847 0.91444 0.24431
 H1353 H 0.96698 0.87974 0.20042
 H1354 H 0.98057 0.85336 0.18479
 H1355 H 0.92741 0.82936 0.18044
 H1356 H 0.91370 0.85548 0.19634
 C1357 C 0.39999 0.44329 0.74346
 C1358 C 0.40658 0.43040 0.73560
 C1359 C 0.41453 0.41499 0.72633
 C1360 C 0.40469 0.40595 0.71298
 C1361 C 0.41239 0.39092 0.70404
 C1362 C 0.43008 0.38474 0.70835
 C1363 C 0.43987 0.39394 0.72178
 C1364 C 0.43213 0.40896 0.73071
 C1365 C 0.43828 0.36879 0.69885
 C1366 C 0.45678 0.36881 0.69344
 C1367 C 0.46445 0.35385 0.68435
 C1368 C 0.45374 0.33868 0.68058
 C1369 C 0.43536 0.33848 0.68597
 C1370 C 0.42766 0.35343 0.69505
 C1371 C 0.46153 0.32342 0.67093
 C1372 C 0.46794 0.31069 0.66268
 H1373 H 0.39107 0.41054 0.70945
 H1374 H 0.40460 0.38429 0.69360
 H1375 H 0.45341 0.38938 0.72557
 H1376 H 0.43985 0.41582 0.74106
 H1377 H 0.46526 0.38051 0.69596
 H1378 H 0.47868 0.35417 0.68017
 H1379 H 0.42695 0.32679 0.68314
 H1380 H 0.41345 0.35289 0.69926
 C1381 C 0.39940 0.55696 0.75516
 C1382 C 0.40597 0.56971 0.76287
 C1383 C 0.41387 0.58487 0.77214
 C1384 C 0.41341 0.60234 0.76420
 C1385 C 0.42107 0.61706 0.77324
 C1386 C 0.42928 0.61448 0.79037
 C1387 C 0.42971 0.59685 0.79820
 C1388 C 0.42205 0.58215 0.78914
 C1389 C 0.43732 0.63011 0.80007
 C1390 C 0.43500 0.63179 0.81909
 C1391 C 0.44265 0.64642 0.82826
 C1392 C 0.45273 0.65955 0.81856
 C1393 C 0.45509 0.65805 0.79963
 C1394 C 0.44743 0.64343 0.79042
 C1395 C 0.46070 0.67448 0.82814
 C1396 C 0.46730 0.68682 0.83646
 H1397 H 0.40708 0.60460 0.75106
 H1398 H 0.42033 0.63050 0.76696
 H1399 H 0.43615 0.59437 0.81124
 H1400 H 0.42255 0.56867 0.79538
 H1401 H 0.42708 0.62191 0.82686
 H1402 H 0.44070 0.64748 0.84292
 H1403 H 0.46291 0.66811 0.79200
 H1404 H 0.44964 0.64239 0.77581
 C1405 C -0.10216 0.05793 0.25404
 C1406 C -0.09572 0.07078 0.26170
 C1407 C -0.08786 0.08600 0.27089
 C1408 C -0.08345 0.10192 0.26110
 C1409 C -0.07554 0.11660 0.26999
 C1410 C -0.07190 0.11551 0.28881
 C1411 C -0.07646 0.09946 0.29854
 C1412 C -0.08438 0.08482 0.28963
 C1413 C -0.06333 0.13099 0.29826
 C1414 C -0.04984 0.12776 0.31145
 C1415 C -0.04194 0.14230 0.32053
 C1416 C -0.04737 0.16025 0.31656
 C1417 C -0.06069 0.16364 0.30339
 C1418 C -0.06862 0.14911 0.29427
 C1419 C -0.03952 0.17512 0.32632
 C1420 C -0.03298 0.18740 0.33479
 H1421 H -0.08603 0.10295 0.24657
 H1422 H -0.07199 0.12867 0.26208
 H1423 H -0.07407 0.09830 0.31308
 H1424 H -0.08777 0.07257 0.29735
 H1425 H -0.04530 0.11399 0.31464
 H1426 H -0.03162 0.13953 0.33070
 H1427 H -0.06506 0.17749 0.30028
 H1428 H -0.07911 0.15202 0.28435
 C1429 C 0.10340 0.44370 0.25833
 C1430 C 0.09639 0.43085 0.26599
 C1431 C 0.08792 0.41549 0.27500
 C1432 C 0.06941 0.41628 0.27991
 C1433 C 0.06112 0.40132 0.28853
 C1434 C 0.07124 0.38534 0.29234
 C1435 C 0.08985 0.38469 0.28734
 C1436 C 0.09812 0.39967 0.27873
 C1437 C 0.06246 0.36944 0.30154
 C1438 C 0.06661 0.35155 0.29597
 C1439 C 0.05851 0.33659 0.30479
 C1440 C 0.04616 0.33931 0.31927
 C1441 C 0.04187 0.35705 0.32486
 C1442 C 0.04995 0.37203 0.31606
 C1443 C 0.03821 0.32389 0.32867
 C1444 C 0.03174 0.31099 0.33673
 H1445 H 0.06137 0.42844 0.27701
 H1446 H 0.04673 0.40216 0.29200
 H1447 H 0.09807 0.37268 0.29031
 H1448 H 0.11246 0.39892 0.27501
 H1449 H 0.07600 0.34912 0.28469
 H1450 H 0.06192 0.32291 0.30035
 H1451 H 0.03240 0.35930 0.33613
 H1452 H 0.04665 0.38561 0.32082
 C1453 C 0.60422 0.94287 0.75846
 C1454 C 0.59716 0.93001 0.76605
 C1455 C 0.58863 0.91464 0.77499
 C1456 C 0.59924 0.90170 0.78436
 C1457 C 0.59096 0.88672 0.79297
 C1458 C 0.57193 0.88449 0.79231
 C1459 C 0.56139 0.89758 0.78285
 C1460 C 0.56970 0.91254 0.77424
 C1461 C 0.56312 0.86860 0.80150
 C1462 C 0.54652 0.87076 0.81116
 C1463 C 0.53837 0.85585 0.82002
 C1464 C 0.54667 0.83859 0.81932
 C1465 C 0.56313 0.83628 0.80966
 C1466 C 0.57130 0.85117 0.80080
 C1467 C 0.53857 0.82333 0.82885
 C1468 C 0.53201 0.81056 0.83704
 H1469 H 0.61391 0.90321 0.78505
 H1470 H 0.59942 0.87701 0.80035
 H1471 H 0.54674 0.89613 0.78190
 H1472 H 0.56137 0.92245 0.76696
 H1473 H 0.54000 0.88405 0.81215
 H1474 H 0.52569 0.85781 0.82755
 H1475 H 0.56967 0.82297 0.80902
 H1476 H 0.58395 0.84902 0.79327
 C1477 C 0.74719 0.60465 0.05627
 C1478 C 0.73936 0.59791 0.06924
 C1479 C 0.72997 0.58973 0.08463
 C1480 C 0.71184 0.59461 0.08854
 C1481 C 0.70259 0.58646 0.10330
 C1482 C 0.71136 0.57329 0.11435
 C1483 C 0.72962 0.56854 0.11036
 C1484 C 0.73884 0.57670 0.09558
 C1485 C 0.70145 0.56447 0.12989
 C1486 C 0.71021 0.56113 0.14663
 C1487 C 0.70081 0.55290 0.16126
 C1488 C 0.68257 0.54787 0.15935
 C1489 C 0.67376 0.55107 0.14275
 C1490 C 0.68313 0.55931 0.12811
 C1491 C 0.67277 0.53958 0.17442
 C1492 C 0.66430 0.53273 0.18692
 H1493 H 0.70485 0.60470 0.08017
 H1494 H 0.68863 0.59059 0.10617
 H1495 H 0.73667 0.55829 0.11846
 H1496 H 0.75285 0.57277 0.09262
 H1497 H 0.72424 0.56514 0.14849
 H1498 H 0.70773 0.55054 0.17408
 H1499 H 0.65966 0.54720 0.14111
 H1500 H 0.67609 0.56145 0.11534
 C1501 C 0.24659 1.10361 0.55563
 C1502 C 0.23872 1.09712 0.56871
 C1503 C 0.22927 1.08926 0.58422
 C1504 C 0.23767 1.07557 0.59474
 C1505 C 0.22838 1.06772 0.60964
 C1506 C 0.21053 1.07345 0.61420
 C1507 C 0.20225 1.08729 0.60359
 C1508 C 0.21157 1.09513 0.58870
 C1509 C 0.20053 1.06493 0.62984
 C1510 C 0.18188 1.06086 0.62844
 C1511 C 0.17244 1.05284 0.64315
 C1512 C 0.18148 1.04879 0.65944
 C1513 C 0.20003 1.05276 0.66098
 C1514 C 0.20951 1.06077 0.64628
 C1515 C 0.17163 1.04065 0.67456
 C1516 C 0.16312 1.03391 0.68709
 H1517 H 0.25135 1.07088 0.59134
 H1518 H 0.23504 1.05695 0.61740
 H1519 H 0.18862 1.09217 0.60690
 H1520 H 0.20495 1.10575 0.58067
 H1521 H 0.17464 1.06365 0.61589
 H1522 H 0.15809 1.04978 0.64179
 H1523 H 0.20715 1.04973 0.67356
 H1524 H 0.22380 1.06393 0.64785
 C1525 C 0.24399 0.89769 0.94199
 C1526 C 0.23618 0.90446 0.92915
 C1527 C 0.22688 0.91262 0.91385
 C1528 C 0.21155 0.90421 0.90666
 C1529 C 0.20249 0.91215 0.89182
 C1530 C 0.20866 0.92866 0.88399
 C1531 C 0.22409 0.93701 0.89133
 C1532 C 0.23313 0.92903 0.90616
 C1533 C 0.19901 0.93713 0.86825
 C1534 C 0.19617 0.95614 0.86730
 C1535 C 0.18691 0.96406 0.85256
 C1536 C 0.18040 0.95310 0.83859
 C1537 C 0.18323 0.93420 0.83937
 C1538 C 0.19247 0.92625 0.85409
 C1539 C 0.17057 0.96119 0.82360
 C1540 C 0.16217 0.96779 0.81105
 H1541 H 0.20656 0.89153 0.91255
 H1542 H 0.19051 0.90552 0.88664
 H1543 H 0.22930 0.94959 0.88547
 H1544 H 0.24501 0.93564 0.91161
 H1545 H 0.20084 0.96485 0.87809
 H1546 H 0.18473 0.97870 0.85213
 H1547 H 0.17827 0.92560 0.82861
 H1548 H 0.19465 0.91161 0.85430
 C1549 C 0.74473 0.39880 0.44348
 C1550 C 0.73695 0.40544 0.43056
 C1551 C 0.72772 0.41344 0.41513
 C1552 C 0.71614 0.40285 0.40464
 C1553 C 0.70717 0.41062 0.38966
 C1554 C 0.70966 0.42913 0.38498
 C1555 C 0.72135 0.43966 0.39562
 C1556 C 0.73031 0.43185 0.41059
 C1557 C 0.70007 0.43741 0.36911
 C1558 C 0.69251 0.45510 0.37019
 C1559 C 0.68330 0.46280 0.35532
 C1560 C 0.68155 0.45296 0.33918
 C1561 C 0.68910 0.43540 0.33793
 C1562 C 0.69830 0.42766 0.35279
 C1563 C 0.67175 0.46075 0.32400
 C1564 C 0.66339 0.46715 0.31133
 H1565 H 0.71399 0.38859 0.40807
 H1566 H 0.69808 0.40222 0.38189
 H1567 H 0.72373 0.45387 0.39223
 H1568 H 0.73929 0.44017 0.41859
 H1569 H 0.69344 0.46286 0.38264
 H1570 H 0.67743 0.47638 0.35646
 H1571 H 0.68784 0.42767 0.32549
 H1572 H 0.70418 0.41412 0.35145
 C1573 C 0.75562 0.39703 0.55756
 C1574 C 0.76328 0.40337 0.57047
 C1575 C 0.77242 0.41106 0.58582
 C1576 C 0.76401 0.42497 0.59591
 C1577 C 0.77299 0.43264 0.61066
 C1578 C 0.79055 0.42649 0.61549
 C1579 C 0.79884 0.41243 0.60531
 C1580 C 0.78983 0.40478 0.59058
 C1581 C 0.80024 0.43481 0.63097
 C1582 C 0.81903 0.43843 0.62958
 C1583 C 0.82817 0.44628 0.64412
 C1584 C 0.81868 0.45063 0.66023
 C1585 C 0.79999 0.44712 0.66176
 C1586 C 0.79081 0.43927 0.64722
 C1587 C 0.82822 0.45865 0.67516
 C1588 C 0.83651 0.46530 0.68750
 H1589 H 0.75056 0.42997 0.59230
 H1590 H 0.76634 0.44358 0.61808
 H1591 H 0.81224 0.40723 0.60884
 H1592 H 0.79645 0.39398 0.58288
 H1593 H 0.82662 0.43540 0.61717
 H1594 H 0.84264 0.44899 0.64277
 H1595 H 0.79252 0.45039 0.67419
 H1596 H 0.77639 0.43646 0.64879
 C1597 C 0.25505 -0.10453 0.05595
 C1598 C 0.26278 -0.09822 0.06883
 C1599 C 0.27205 -0.09055 0.08411
 C1600 C 0.28982 -0.08402 0.08189
 C1601 C 0.29882 -0.07643 0.09666
 C1602 C 0.29013 -0.07526 0.11388
 C1603 C 0.27225 -0.08188 0.11598
 C1604 C 0.26328 -0.08948 0.10118
 C1605 C 0.29969 -0.06715 0.12955
 C1606 C 0.29032 -0.05553 0.14173
 C1607 C 0.29943 -0.04770 0.15632
 C1608 C 0.31799 -0.05140 0.15894
 C1609 C 0.32739 -0.06302 0.14697
 C1610 C 0.31832 -0.07084 0.13237
 C1611 C 0.32750 -0.04317 0.17376
 C1612 C 0.33578 -0.03634 0.18601
 H1613 H 0.29671 -0.08472 0.06871
 H1614 H 0.31247 -0.07124 0.09454
 H1615 H 0.26529 -0.08138 0.12912
 H1616 H 0.24953 -0.09452 0.10306
 H1617 H 0.27604 -0.05224 0.13980
 H1618 H 0.29204 -0.03867 0.16548
 H1619 H 0.34175 -0.06601 0.14890
 H1620 H 0.32584 -0.07992 0.12339
 C1621 C 0.25819 0.10136 0.44179
 C1622 C 0.26573 0.09421 0.42897
 C1623 C 0.27460 0.08557 0.41364
 C1624 C 0.26430 0.07987 0.39883
 C1625 C 0.27286 0.07141 0.38395
 C1626 C 0.29188 0.06854 0.38370
 C1627 C 0.30211 0.07431 0.39867
 C1628 C 0.29351 0.08278 0.41353
 C1629 C 0.30101 0.05964 0.36785
 C1630 C 0.31526 0.04692 0.37055
 C1631 C 0.32404 0.03877 0.35561
 C1632 C 0.31871 0.04322 0.33780
 C1633 C 0.30449 0.05576 0.33497
 C1634 C 0.29567 0.06392 0.34988
 C1635 C 0.32816 0.03527 0.32242
 C1636 C 0.33628 0.02885 0.30955
 H1637 H 0.24964 0.08191 0.39881
 H1638 H 0.26459 0.06692 0.37274
 H1639 H 0.31679 0.07252 0.39877
 H1640 H 0.30162 0.08718 0.42491
 H1641 H 0.31952 0.04316 0.38421
 H1642 H 0.33504 0.02907 0.35796
 H1643 H 0.30032 0.05938 0.32123
 H1644 H 0.28492 0.07383 0.34735
 C1645 C 0.75863 0.60254 0.94343
 C1646 C 0.76622 0.59537 0.93064
 C1647 C 0.77513 0.58672 0.91534
 C1648 C 0.76495 0.58155 0.90024
 C1649 C 0.77355 0.57309 0.88538
 C1650 C 0.79247 0.56966 0.88544
 C1651 C 0.80258 0.57489 0.90071
 C1652 C 0.79395 0.58337 0.91555
 C1653 C 0.80165 0.56077 0.86962
 C1654 C 0.81548 0.54760 0.87236
 C1655 C 0.82428 0.53943 0.85744
 C1656 C 0.81938 0.54430 0.83960
 C1657 C 0.80557 0.55730 0.83672
 C1658 C 0.79674 0.56548 0.85162
 C1659 C 0.82884 0.53631 0.82426
 C1660 C 0.83698 0.52986 0.81141
 H1661 H 0.75036 0.58403 0.89998
 H1662 H 0.76536 0.56902 0.87395
 H1663 H 0.81720 0.57267 0.90106
 H1664 H 0.80197 0.58734 0.92715
 H1665 H 0.81939 0.54351 0.88604
 H1666 H 0.83495 0.52938 0.85983
 H1667 H 0.80175 0.56124 0.82297
 H1668 H 0.78633 0.57573 0.84905
 C1669 C 0.05476 0.74786 0.60505
 C1670 C 0.06771 0.74019 0.59820
 C1671 C 0.08305 0.73093 0.58991
 C1672 C 0.08090 0.71349 0.58272
 C1673 C 0.09575 0.70445 0.57461
 C1674 C 0.11297 0.71276 0.57357
 C1675 C 0.11499 0.73032 0.58080
 C1676 C 0.10011 0.73933 0.58893
 C1677 C 0.12875 0.70309 0.56503
 C1678 C 0.14118 0.71253 0.55363
 C1679 C 0.15593 0.70333 0.54548
 C1680 C 0.15846 0.68461 0.54866
 C1681 C 0.14622 0.67512 0.56003
 C1682 C 0.13147 0.68428 0.56817
 C1683 C 0.17352 0.67501 0.54023
 C1684 C 0.18598 0.66661 0.53333
 H1685 H 0.06774 0.70689 0.58334
 H1686 H 0.09370 0.69106 0.56894
 H1687 H 0.12812 0.73698 0.58041
 H1688 H 0.10193 0.75282 0.59448
 H1689 H 0.13933 0.72696 0.55078
 H1690 H 0.16530 0.71079 0.53666
 H1691 H 0.14808 0.66064 0.56263
 H1692 H 0.12230 0.67669 0.57708
 C1693 C 0.55419 0.24655 1.10401
 C1694 C 0.56719 0.23875 1.09738
 C1695 C 0.58259 0.22935 1.08936
 C1696 C 0.58031 0.21218 1.08160
 C1697 C 0.59523 0.20301 1.07378
 C1698 C 0.61266 0.21091 1.07361
 C1699 C 0.61480 0.22821 1.08141
 C1700 C 0.59985 0.23735 1.08925
 C1701 C 0.62852 0.20112 1.06536
 C1702 C 0.64156 0.21059 1.05471
 C1703 C 0.65639 0.20129 1.04683
 C1704 C 0.65839 0.18244 1.04953
 C1705 C 0.64553 0.17292 1.06015
 C1706 C 0.63070 0.18218 1.06802
 C1707 C 0.67353 0.17276 1.04134
 C1708 C 0.68606 0.16436 1.03456
 H1709 H 0.56699 0.20590 1.08156
 H1710 H 0.59309 0.18984 1.06766
 H1711 H 0.62808 0.23455 1.08169
 H1712 H 0.60177 0.25063 1.09525
 H1713 H 0.64014 0.22513 1.05223
 H1714 H 0.66624 0.20878 1.03858
 H1715 H 0.64698 0.15833 1.06236
 H1716 H 0.62104 0.17455 1.07635
 C1717 C 0.94308 0.24370 0.89951
 C1718 C 0.93018 0.23600 0.90635
 C1719 C 0.91478 0.22687 0.91458
 C1720 C 0.91693 0.20945 0.92234
 C1721 C 0.90199 0.20059 0.93040
 C1722 C 0.88467 0.20906 0.93079
 C1723 C 0.88266 0.22659 0.92294
 C1724 C 0.89763 0.23542 0.91490
 C1725 C 0.86878 0.19963 0.93928
 C1726 C 0.85155 0.20054 0.93102
 C1727 C 0.83665 0.19147 0.93890
 C1728 C 0.83874 0.18139 0.95512
 C1729 C 0.85578 0.18046 0.96348
 C1730 C 0.87071 0.18952 0.95563
 C1731 C 0.82348 0.17171 0.96296
 C1732 C 0.81073 0.16343 0.96937
 H1733 H 0.93014 0.20269 0.92213
 H1734 H 0.90393 0.18701 0.93610
 H1735 H 0.86957 0.23356 0.92322
 H1736 H 0.89583 0.24894 0.90898
 H1737 H 0.84967 0.20801 0.91831
 H1738 H 0.82353 0.19220 0.93226
 H1739 H 0.85755 0.17270 0.97605
 H1740 H 0.88373 0.18875 0.96244
 C1741 C 0.44427 0.74345 0.39917
 C1742 C 0.43134 0.73579 0.40599
 C1743 C 0.41588 0.72675 0.41421
 C1744 C 0.39997 0.73668 0.41832
 C1745 C 0.38496 0.72794 0.42638
 C1746 C 0.38568 0.70913 0.43046
 C1747 C 0.40175 0.69927 0.42627
 C1748 C 0.41674 0.70804 0.41820
 C1749 C 0.36974 0.69982 0.43899
 C1750 C 0.37222 0.68651 0.45280
 C1751 C 0.35721 0.67761 0.46068
 C1752 C 0.33955 0.68187 0.45488
 C1753 C 0.33692 0.69514 0.44122
 C1754 C 0.35190 0.70408 0.43333
 C1755 C 0.32415 0.67238 0.46269
 C1756 C 0.31128 0.66426 0.46907
 H1757 H 0.39919 0.75119 0.41535
 H1758 H 0.37289 0.73595 0.42965
 H1759 H 0.40264 0.68474 0.42902
 H1760 H 0.42897 0.70022 0.41504
 H1761 H 0.38575 0.68311 0.45762
 H1762 H 0.35940 0.66736 0.47125
 H1763 H 0.32331 0.69848 0.43657
 H1764 H 0.34956 0.71408 0.42258
 C1765 C 0.55807 0.75477 0.39750
 C1766 C 0.57089 0.76260 0.40382
 C1767 C 0.58609 0.77197 0.41150
 C1768 C 0.60167 0.76219 0.41682
 C1769 C 0.61633 0.77127 0.42454
 C1770 C 0.61556 0.79028 0.42706
 C1771 C 0.59986 0.79998 0.42159
 C1772 C 0.58523 0.79088 0.41386
 C1773 C 0.63102 0.79994 0.43543
 C1774 C 0.62774 0.81394 0.44808
 C1775 C 0.64227 0.82316 0.45585
 C1776 C 0.66026 0.81852 0.45111
 C1777 C 0.66370 0.80456 0.43861
 C1778 C 0.64918 0.79530 0.43082
 C1779 C 0.67515 0.82830 0.45889
 C1780 C 0.68745 0.83675 0.46539
 H1781 H 0.60244 0.74754 0.41511
 H1782 H 0.62813 0.76339 0.42881
 H1783 H 0.59896 0.81465 0.42311
 H1784 H 0.57324 0.79859 0.40976
 H1785 H 0.61394 0.81765 0.45211
 H1786 H 0.63946 0.83393 0.46553
 H1787 H 0.67758 0.80091 0.43479
 H1788 H 0.65214 0.78474 0.42097
 C1789 C 0.05691 0.25469 -0.10282
 C1790 C 0.06981 0.26242 -0.09656
 C1791 C 0.08514 0.27163 -0.08896
 C1792 C 0.08985 0.26846 -0.07071
 C1793 C 0.10465 0.27751 -0.06322
 C1794 C 0.11492 0.28989 -0.07391
 C1795 C 0.11011 0.29293 -0.09226
 C1796 C 0.09532 0.28385 -0.09972
 C1797 C 0.13047 0.29972 -0.06589
 C1798 C 0.13329 0.31829 -0.07003
 C1799 C 0.14777 0.32762 -0.06230
 C1800 C 0.15963 0.31853 -0.05035
 C1801 C 0.15700 0.30004 -0.04619
 C1802 C 0.14251 0.29068 -0.05390
 C1803 C 0.17435 0.32828 -0.04224
 C1804 C 0.18654 0.33672 -0.03549
 H1805 H 0.08203 0.25907 -0.06224
 H1806 H 0.10785 0.27506 -0.04899
 H1807 H 0.11789 0.30220 -0.10090
 H1808 H 0.09182 0.28637 -0.11388
 H1809 H 0.12412 0.32569 -0.07900
 H1810 H 0.14965 0.34195 -0.06555
 H1811 H 0.16612 0.29287 -0.03698
 H1812 H 0.14082 0.27634 -0.05062
 C1813 C 0.44052 0.25843 0.10264
 C1814 C 0.42771 0.26621 0.09578
 C1815 C 0.41242 0.27539 0.08749
 C1816 C 0.39643 0.27856 0.09766
 C1817 C 0.38152 0.28737 0.08957
 C1818 C 0.38242 0.29310 0.07114
 C1819 C 0.39857 0.28982 0.06103
 C1820 C 0.41346 0.28103 0.06916
 C1821 C 0.36662 0.30251 0.06254
 C1822 C 0.36167 0.29853 0.04451
 C1823 C 0.34684 0.30748 0.03642
 C1824 C 0.33679 0.32051 0.04622
 C1825 C 0.34159 0.32454 0.06416
 C1826 C 0.35640 0.31561 0.07228
 C1827 C 0.32162 0.32988 0.03790
 C1828 C 0.30893 0.33795 0.03115
 H1829 H 0.39545 0.27418 0.11184
 H1830 H 0.36921 0.28947 0.09764
 H1831 H 0.39977 0.29428 0.04690
 H1832 H 0.42578 0.27866 0.06116
 H1833 H 0.36912 0.28835 0.03674
 H1834 H 0.34321 0.30424 0.02253
 H1835 H 0.33394 0.33466 0.07185
 H1836 H 0.36001 0.31915 0.08608
 C1837 C 0.94125 0.75867 0.60400
 C1838 C 0.92847 0.76630 0.59693
 C1839 C 0.91323 0.77528 0.58834
 C1840 C 0.91471 0.79339 0.58224
 C1841 C 0.89997 0.80206 0.57373
 C1842 C 0.88352 0.79272 0.57121
 C1843 C 0.88217 0.77451 0.57740
 C1844 C 0.89693 0.76587 0.58590
 C1845 C 0.86783 0.80195 0.56223
 C1846 C 0.84994 0.79936 0.56893
 C1847 C 0.83520 0.80827 0.56064
 C1848 C 0.83813 0.81984 0.54555
 C1849 C 0.85585 0.82241 0.53870
 C1850 C 0.87061 0.81353 0.54698
 C1851 C 0.82300 0.82941 0.53738
 C1852 C 0.81033 0.83762 0.53075
 H1853 H 0.92726 0.80081 0.58408
 H1854 H 0.90135 0.81615 0.56934
 H1855 H 0.86978 0.76688 0.57545
 H1856 H 0.89567 0.75182 0.59050
 H1857 H 0.84737 0.79073 0.58079
 H1858 H 0.82154 0.80626 0.56611
 H1859 H 0.85827 0.83134 0.52702
 H1860 H 0.88418 0.81561 0.54135
   
