data_POSCAR
  _audit_creation_date              2014-09-24
  _audit_creation_method            'ToBaCCo'
  _symmetry_space_group_name_H-M    'P1'
  _symmetry_Int_Tables_number       1
  _symmetry_cell_setting            triclinic
  loop_
  _symmetry_equiv_pos_as_xyz
 x,y,z
_cell_length_a 43.2628
_cell_length_b 43.1472
_cell_length_c 42.9745
_cell_angle_alpha 89.802800
_cell_angle_beta 90.093300
_cell_angle_gamma 90.080100
loop_
  _atom_site_label
  _atom_site_type_symbol
  _atom_site_fract_x
  _atom_site_fract_y
  _atom_site_fract_z
C1 C 0.18912 0.22137 0.23088
 N2 N 0.20720 0.19665 0.23808
 C3 C 0.23221 0.18961 0.22038
 N4 N 0.23898 0.20747 0.19519
 C5 C 0.22104 0.23224 0.18772
 N6 N 0.19611 0.23903 0.20562
 C7 C 0.67994 0.71382 0.72330
 N8 N 0.69721 0.68848 0.73044
 C9 C 0.72171 0.68046 0.71246
 N10 N 0.72888 0.69801 0.68719
 C11 C 0.71180 0.72337 0.67978
 N12 N 0.68736 0.73118 0.69793
 C13 C 0.30945 0.78961 0.73527
 N14 N 0.28868 0.81306 0.73745
 C15 C 0.26460 0.81510 0.71720
 N16 N 0.26148 0.79336 0.69457
 C17 C 0.28208 0.76975 0.69221
 N18 N 0.30603 0.76805 0.71260
 C19 C 0.81879 0.29259 0.22627
 N20 N 0.81642 0.27202 0.20249
 C21 C 0.79279 0.27399 0.18172
 N22 N 0.77135 0.29672 0.18489
 C23 C 0.77346 0.31743 0.20853
 N24 N 0.79720 0.31523 0.22911
 C25 C 0.81512 0.71074 0.26232
 N26 N 0.81215 0.73139 0.28587
 C27 C 0.78855 0.72891 0.30650
 N28 N 0.76780 0.70547 0.30345
 C29 C 0.77048 0.68466 0.27995
 N30 N 0.79423 0.68738 0.25947
 C31 C 0.31665 0.20968 -0.23156
 N32 N 0.31416 0.23035 -0.20791
 C33 C 0.29117 0.22771 -0.18661
 N34 N 0.27047 0.20417 -0.18909
 C35 C 0.27259 0.18329 -0.21259
 N36 N 0.29576 0.18620 -0.23375
 C37 C 0.68408 0.28425 -0.23074
 N38 N 0.68739 0.26311 -0.20744
 C39 C 0.71137 0.26529 -0.18708
 N40 N 0.73207 0.28875 -0.19021
 C41 C 0.72910 0.31003 -0.21339
 N42 N 0.70498 0.30764 -0.23355
 C43 C 0.18106 0.78794 0.28168
 N44 N 0.19907 0.81301 0.27558
 C45 C 0.22347 0.82011 0.29424
 N46 N 0.22980 0.80166 0.31916
 C47 C 0.21190 0.77652 0.32555
 N48 N 0.18759 0.76977 0.30670
 C49 C 0.45997 0.43257 0.47234
 N50 N 0.43671 0.45272 0.47891
 C51 C 0.43217 0.47820 0.46075
 N52 N 0.45088 0.48320 0.43593
 C53 C 0.47408 0.46329 0.42912
 N54 N 0.47862 0.43809 0.44749
 C55 C -0.03512 -0.06832 0.97582
 N56 N -0.06039 -0.05085 0.98233
 C57 C -0.06811 -0.02631 0.96394
 N58 N -0.05024 -0.01943 0.93885
 C59 C -0.02498 -0.03677 0.93207
 N60 N -0.01755 -0.06116 0.95064
 C61 C 1.04023 0.56257 0.97966
 N62 N 1.01876 0.55969 0.95672
 C63 C 1.02010 0.53578 0.93628
 N64 N 1.04318 0.51459 0.93888
 C65 C 1.06475 0.51718 0.96173
 N66 N 1.06314 0.54119 0.98199
 C67 C 0.54329 0.06159 0.48003
 N68 N 0.56821 0.04307 0.48448
 C69 C 0.57401 0.01891 0.46525
 N70 N 0.55431 0.01322 0.44129
 C71 C 0.52926 0.03162 0.43638
 N72 N 0.52389 0.05589 0.45579
 C73 C -0.03623 0.06364 0.51444
 N74 N -0.05918 0.04225 0.51172
 C75 C -0.06176 0.01873 0.53275
 N76 N -0.04116 0.01691 0.55660
 C77 C -0.01820 0.03817 0.55956
 N78 N -0.01585 0.06146 0.53840
 C79 C 0.46273 0.57277 0.02096
 N80 N 0.43777 0.55477 0.01437
 C81 C 0.43100 0.52972 0.03239
 N82 N 0.44936 0.52279 0.05708
 C83 C 0.47434 0.54061 0.06388
 N84 N 0.48091 0.56553 0.04572
 C85 C 0.53642 -0.06069 0.02497
 N86 N 0.56018 -0.04017 0.02327
 C87 C 0.56330 -0.01725 0.04455
 N88 N 0.54229 -0.01476 0.06785
 C89 C 0.51833 -0.03508 0.06990
 N90 N 0.51554 -0.05804 0.04844
 C91 C 1.03248 0.43169 0.52777
 N92 N 1.01403 0.43849 0.55241
 C93 C 1.02007 0.46348 0.57060
 N94 N 1.04484 0.48173 0.56405
 C95 C 1.06345 0.47524 0.53951
 N96 N 1.05714 0.45023 0.52148
 C97 C 0.41940 0.01358 0.21263
 H98 H 0.42229 0.03443 0.22625
 C99 C 0.43828 0.00835 0.18685
 H100 H 0.45573 0.02535 0.18085
 C101 C 0.39409 -0.03444 0.20492
 H102 H 0.37750 -0.05155 0.21255
 C103 C 0.41248 -0.04063 0.17900
 H104 H 0.40953 -0.06268 0.16762
 N105 N 0.39751 -0.00750 0.22088
 C106 C 0.32914 0.04348 0.27489
 H107 H 0.32872 0.02931 0.29571
 C108 C 0.30904 0.06862 0.27206
 H109 H 0.29410 0.07359 0.29144
 C110 C 0.35015 0.05367 0.22508
 H111 H 0.36585 0.04752 0.20660
 C112 C 0.33047 0.07905 0.22127
 H113 H 0.33168 0.09249 0.19997
 Zn114 Zn 0.37348 0.00038 0.25687
 N115 N 0.34914 0.03648 0.25162
 C116 C 0.40212 0.03154 0.30767
 N117 N 0.40120 0.00502 0.29071
 C118 C 0.42118 -0.01858 0.29649
 C119 C 0.44324 -0.01610 0.32012
 C120 C 0.42379 0.03500 0.33154
 C121 C 0.32349 -0.03729 0.24193
 C122 C 0.30170 -0.06093 0.24529
 C123 C 0.32539 -0.07460 0.29434
 C124 C 0.34681 -0.05070 0.28997
 N125 N 0.34560 -0.03277 0.26394
 H126 H 0.38633 0.05023 0.30254
 H127 H 0.41998 -0.03942 0.28260
 H128 H 0.45800 -0.03577 0.32441
 H129 H 0.42395 0.05622 0.34493
 H130 H 0.32303 -0.02259 0.22149
 H131 H 0.28534 -0.06419 0.22666
 H132 H 0.32695 -0.08890 0.31504
 H133 H 0.36428 -0.04651 0.30744
 C134 C 0.30898 0.08657 0.24461
 C135 C 0.43469 -0.01882 0.16916
 C136 C 0.30209 -0.07989 0.27204
 C137 C 0.44532 0.01133 0.33771
 C138 C 0.07777 -0.00859 0.70487
 H139 H 0.07487 -0.02967 0.71827
 C140 C 0.05915 -0.00307 0.67895
 H141 H 0.04183 -0.02006 0.67257
 C142 C 0.10332 0.03943 0.69762
 H143 H 0.12007 0.05629 0.70540
 C144 C 0.08517 0.04592 0.67150
 H145 H 0.08849 0.06794 0.66005
 N146 N 0.09970 0.01230 0.71337
 C147 C 0.16805 -0.04228 0.76410
 H148 H 0.16941 -0.02952 0.78570
 C149 C 0.18657 -0.06835 0.75964
 H150 H 0.20239 -0.07531 0.77791
 C151 C 0.14685 -0.04758 0.71359
 H152 H 0.13201 -0.03892 0.69532
 C153 C 0.16494 -0.07375 0.70814
 H154 H 0.16380 -0.08428 0.68542
 Zn155 Zn 0.12373 0.00273 0.74892
 N156 N 0.14823 -0.03279 0.74145
 C157 C 0.09581 -0.03141 0.79839
 N158 N 0.09579 -0.00442 0.78201
 C159 C 0.07508 0.01836 0.78828
 C160 C 0.05353 0.01473 0.81215
 C161 C 0.07470 -0.03602 0.82251
 C162 C 0.17281 0.04389 0.73784
 C163 C 0.19271 0.06867 0.74382
 C164 C 0.16760 0.07578 0.79339
 C165 C 0.14815 0.05091 0.78641
 N166 N 0.15061 0.03597 0.75874
 H167 H 0.11215 -0.04945 0.79286
 H168 H 0.07557 0.03960 0.77482
 H169 H 0.03830 0.03387 0.81699
 H170 H 0.07548 -0.05746 0.83565
 H171 H 0.17482 0.03109 0.71633
 H172 H 0.21012 0.07474 0.72676
 H173 H 0.16512 0.08654 0.81584
 H174 H 0.13121 0.04350 0.80330
 C175 C 0.18460 -0.08513 0.73167
 C176 C 0.06298 0.02424 0.66138
 C177 C 0.18986 0.08562 0.77159
 C178 C 0.05276 -0.01301 0.82950
 C179 C 0.57638 0.48394 0.20566
 H180 H 0.57647 0.46279 0.21926
 C181 C 0.55490 0.48774 0.18174
 H182 H 0.53941 0.46875 0.17696
 C183 C 0.59785 0.53344 0.19548
 H184 H 0.61437 0.55134 0.20114
 C185 C 0.57674 0.53825 0.17133
 H186 H 0.57769 0.55970 0.15822
 N187 N 0.59734 0.50653 0.21199
 C188 C 0.66961 0.45513 0.26035
 H189 H 0.67074 0.46745 0.28221
 C190 C 0.68914 0.42997 0.25503
 H191 H 0.70543 0.42321 0.27295
 C192 C 0.64807 0.45015 0.20995
 H193 H 0.63274 0.45868 0.19202
 C194 C 0.66718 0.42493 0.20363
 H195 H 0.66620 0.41498 0.18064
 Zn196 Zn 0.62387 0.49907 0.24613
 N197 N 0.64923 0.46437 0.23810
 C198 C 0.59770 0.46500 0.29704
 N199 N 0.59773 0.49194 0.28057
 C200 C 0.57751 0.51505 0.28712
 C201 C 0.55624 0.51175 0.31120
 C202 C 0.57662 0.46063 0.32129
 C203 C 0.66978 0.54278 0.23118
 C204 C 0.68906 0.56833 0.23588
 C205 C 0.66801 0.57359 0.28756
 C206 C 0.64912 0.54800 0.28184
 N207 N 0.64980 0.53359 0.25377
 H208 H 0.61372 0.44674 0.29123
 H209 H 0.57808 0.53623 0.27359
 H210 H 0.54149 0.53122 0.31626
 H211 H 0.57709 0.43914 0.33436
 H212 H 0.67061 0.53028 0.20942
 H213 H 0.70490 0.57516 0.21761
 H214 H 0.66737 0.58380 0.31044
 H215 H 0.63421 0.53947 0.30009
 C216 C 0.68766 0.41391 0.22661
 C217 C 0.55437 0.51552 0.16447
 C218 C 0.68774 0.58482 0.26405
 C219 C 0.55492 0.48389 0.32828
 C220 C 0.91671 0.51633 0.71271
 H221 H 0.91592 0.53734 0.72637
 C222 C 0.93811 0.51359 0.68859
 H223 H 0.95283 0.53320 0.68378
 C224 C 0.89730 0.46604 0.70267
 H225 H 0.88166 0.44737 0.70844
 C226 C 0.91829 0.46232 0.67832
 H227 H 0.91810 0.44091 0.66523
 N228 N 0.89684 0.49280 0.71925
 C229 C 0.81999 0.53582 0.76848
 H230 H 0.81973 0.52167 0.78931
 C231 C 0.79837 0.55956 0.76478
 H232 H 0.78222 0.56336 0.78343
 C233 C 0.84262 0.54780 0.71978
 H234 H 0.85975 0.54303 0.70219
 C235 C 0.82146 0.57177 0.71512
 H236 H 0.82288 0.58552 0.69404
 Zn237 Zn 0.87006 0.49799 0.75365
 N238 N 0.84173 0.53061 0.74632
 C239 C 0.89181 0.53407 0.80447
 N240 N 0.89522 0.50713 0.78855
 C241 C 0.91779 0.48658 0.79617
 C242 C 0.93744 0.49236 0.82127
 C243 C 0.91100 0.54081 0.82974
 C244 C 0.82614 0.45262 0.73868
 C245 C 0.80764 0.42647 0.74323
 C246 C 0.83079 0.41979 0.79394
 C247 C 0.84887 0.44605 0.78839
 N248 N 0.84661 0.46160 0.76092
 H249 H 0.87449 0.55066 0.79739
 H250 H 0.92050 0.46566 0.78264
 H251 H 0.95531 0.47569 0.82690
 H252 H 0.90780 0.56273 0.84122
 H253 H 0.82409 0.46598 0.71742
 H254 H 0.79123 0.41999 0.72535
 H255 H 0.83257 0.40876 0.81645
 H256 H 0.86426 0.45429 0.80636
 C257 C 0.79870 0.57795 0.73764
 C258 C 0.93960 0.48598 0.67125
 C259 C 0.81023 0.40910 0.77089
 C260 C 0.93404 0.51959 0.83886
 C261 C 0.20699 0.41887 0.01080
 H262 H 0.22050 0.42188 0.03179
 C263 C 0.18093 0.43718 0.00562
 H264 H 0.17459 0.45434 0.02278
 C265 C 0.19998 0.39397 -0.03769
 H266 H 0.20802 0.37779 -0.05498
 C267 C 0.17373 0.41179 -0.04384
 H268 H 0.16245 0.40887 -0.06604
 N269 N 0.21581 0.39754 -0.01058
 C270 C 0.27184 0.32982 0.03980
 H271 H 0.29263 0.33034 0.02585
 C272 C 0.26960 0.30935 0.06496
 H273 H 0.28933 0.29499 0.07014
 C274 C 0.22160 0.34905 0.04964
 H275 H 0.20277 0.36427 0.04343
 C276 C 0.21840 0.32903 0.07502
 H277 H 0.19721 0.32951 0.08839
 Zn278 Zn 0.25261 0.37517 -0.00264
 N279 N 0.24809 0.34919 0.03269
 C280 C 0.30192 0.40469 0.02987
 N281 N 0.28435 0.40469 0.00364
 C282 C 0.28854 0.42636 -0.01899
 C283 C 0.31159 0.44884 -0.01611
 C284 C 0.32526 0.42672 0.03371
 C285 C 0.24259 0.32615 -0.04402
 C286 C 0.24865 0.30670 -0.06915
 C287 C 0.29602 0.33487 -0.07838
 C288 C 0.28901 0.35380 -0.05308
 N289 N 0.26239 0.34952 -0.03686
 H290 H 0.29799 0.38757 0.04783
 H291 H 0.27411 0.42588 -0.03957
 H292 H 0.31465 0.46490 -0.03512
 H293 H 0.33938 0.42598 0.05453
 H294 H 0.22192 0.32278 -0.03027
 H295 H 0.23248 0.28831 -0.07459
 H296 H 0.31758 0.33892 -0.09024
 H297 H 0.30504 0.37177 -0.04635
 C298 C 0.24234 0.30833 0.08282
 C299 C 0.16350 0.43357 -0.02181
 C300 C 0.27541 0.31117 -0.08721
 C301 C 0.33034 0.44946 0.01069
 C302 C 0.70731 0.07622 -0.00691
 H303 H 0.71999 0.07254 -0.02826
 C304 C 0.68160 0.05795 -0.00008
 H305 H 0.67465 0.04012 -0.01635
 C306 C 0.70154 0.10351 0.04041
 H307 H 0.70976 0.12087 0.05645
 C308 C 0.67560 0.08577 0.04818
 H309 H 0.66467 0.09009 0.07025
 N310 N 0.71646 0.09882 0.01300
 C311 C 0.76492 0.16581 -0.04550
 H312 H 0.78697 0.16725 -0.03368
 C313 C 0.75919 0.18429 -0.07162
 H314 H 0.77699 0.20007 -0.07960
 C315 C 0.71449 0.14468 -0.04830
 H316 H 0.69675 0.12992 -0.03863
 C317 C 0.70778 0.16272 -0.07448
 H318 H 0.68470 0.16153 -0.08397
 Zn319 Zn 0.75158 0.12238 0.00149
 N320 N 0.74284 0.14615 -0.03465
 C321 C 0.79975 0.09332 -0.03314
 N322 N 0.78409 0.09397 -0.00576
 C323 C 0.79080 0.07370 0.01755
 C324 C 0.81443 0.05200 0.01411
 C325 C 0.82359 0.07200 -0.03759
 C326 C 0.74225 0.17273 0.04147
 C327 C 0.74883 0.19296 0.06588
 C328 C 0.79784 0.16724 0.07305
 C329 C 0.79029 0.14749 0.04851
 N330 N 0.76258 0.15006 0.03378
 H331 H 0.79390 0.10937 -0.05156
 H332 H 0.77795 0.07473 0.03911
 H333 H 0.81970 0.03723 0.03370
 H334 H 0.83620 0.07230 -0.05933
 H335 H 0.72066 0.17476 0.02890
 H336 H 0.73213 0.21063 0.07191
 H337 H 0.82017 0.16442 0.08383
 H338 H 0.80667 0.13009 0.04133
 C339 C 0.73050 0.18249 -0.08703
 C340 C 0.66492 0.06281 0.02756
 C341 C 0.77664 0.19001 0.08267
 C342 C 0.83107 0.05056 -0.01398
 C343 C 0.20688 0.57704 0.48794
 H344 H 0.22053 0.57786 0.46687
 C345 C 0.18253 0.55594 0.49053
 H346 H 0.17749 0.54148 0.47074
 C347 C 0.19704 0.59618 0.53851
 H348 H 0.20296 0.61161 0.55732
 C349 C 0.17244 0.57549 0.54207
 H350 H 0.15932 0.57572 0.56351
 N351 N 0.21364 0.59663 0.51169
 C352 C 0.26417 0.67299 0.46861
 H353 H 0.28488 0.67257 0.48276
 C354 C 0.26101 0.69512 0.44506
 H355 H 0.27999 0.71089 0.44124
 C356 C 0.21527 0.65151 0.45643
 H357 H 0.19740 0.63462 0.46106
 C358 C 0.21114 0.67323 0.43261
 H359 H 0.19020 0.67244 0.41879
 Zn360 Zn 0.24819 0.62306 0.50659
 N361 N 0.24160 0.65165 0.47372
 C362 C 0.29762 0.60026 0.47011
 N363 N 0.28263 0.59753 0.49774
 C364 C 0.29093 0.57555 0.51889
 C365 C 0.31622 0.55627 0.51327
 C366 C 0.32286 0.58134 0.46344
 C367 C 0.23336 0.66718 0.55173
 C368 C 0.23804 0.68620 0.57751
 C369 C 0.28849 0.66331 0.58431
 C370 C 0.28281 0.64469 0.55842
 N371 N 0.25544 0.64663 0.54295
 H372 H 0.28977 0.61679 0.45292
 H373 H 0.27790 0.57310 0.54023
 H374 H 0.32225 0.53881 0.53036
 H375 H 0.33353 0.58353 0.44084
 H376 H 0.21219 0.66898 0.53841
 H377 H 0.22031 0.70271 0.58380
 H378 H 0.31093 0.66180 0.59519
 H379 H 0.30066 0.62928 0.55029
 C380 C 0.23395 0.69583 0.42680
 C381 C 0.16518 0.55443 0.51820
 C382 C 0.26570 0.68413 0.59467
 C383 C 0.33331 0.55964 0.48564
 C384 C 0.71575 0.91752 0.51351
 H385 H 0.72904 0.91652 0.53484
 C386 C 0.69156 0.93867 0.51060
 H387 H 0.68614 0.95293 0.53043
 C388 C 0.70634 0.89851 0.46276
 H389 H 0.71230 0.88298 0.44407
 C390 C 0.68200 0.91939 0.45880
 H391 H 0.66904 0.91913 0.43723
 N392 N 0.72258 0.89791 0.48986
 C393 C 0.77052 0.82136 0.53545
 H394 H 0.79168 0.82103 0.52206
 C395 C 0.76612 0.79993 0.55946
 H396 H 0.78462 0.78394 0.56442
 C397 C 0.72171 0.84398 0.54526
 H398 H 0.70430 0.86097 0.53953
 C399 C 0.71635 0.82302 0.56947
 H400 H 0.69500 0.82459 0.58249
 Zn401 Zn 0.75653 0.87102 0.49593
 N402 N 0.74861 0.84299 0.52900
 C403 C 0.80694 0.89311 0.53233
 N404 N 0.79122 0.89622 0.50509
 C405 C 0.79896 0.91852 0.48410
 C406 C 0.82408 0.93807 0.48962
 C407 C 0.83221 0.91222 0.53885
 C408 C 0.74166 0.82701 0.45057
 C409 C 0.74618 0.80849 0.42442
 C410 C 0.79692 0.83105 0.41839
 C411 C 0.79139 0.84915 0.44465
 N412 N 0.76393 0.84722 0.45984
 H413 H 0.79971 0.87608 0.54930
 H414 H 0.78557 0.92104 0.46296
 H415 H 0.82981 0.95571 0.47259
 H416 H 0.84350 0.90937 0.56105
 H417 H 0.72037 0.82524 0.46364
 H418 H 0.72824 0.79235 0.41761
 H419 H 0.81938 0.83262 0.40764
 H420 H 0.80935 0.86435 0.45313
 C421 C 0.73848 0.80024 0.57676
 C422 C 0.67469 0.94047 0.48259
 C423 C 0.77385 0.81078 0.40738
 C424 C 0.84160 0.93480 0.51704
 C425 C 0.01329 0.20765 0.41783
 H426 H 0.03423 0.22099 0.42118
 C427 C 0.00784 0.18132 0.43594
 H428 H 0.02476 0.17459 0.45328
 C429 C -0.03476 0.20129 0.39223
 H430 H -0.05177 0.20965 0.37584
 C431 C -0.04116 0.17477 0.40983
 H432 H -0.06325 0.16364 0.40650
 N433 N -0.00773 0.21691 0.39622
 C434 C 0.04321 0.27311 0.32888
 H435 H 0.02956 0.29410 0.32932
 C436 C 0.06814 0.27069 0.30842
 H437 H 0.07353 0.29049 0.29404
 C438 C 0.05246 0.22254 0.34822
 H439 H 0.04611 0.20365 0.36347
 C440 C 0.07762 0.21916 0.32823
 H441 H 0.09069 0.19777 0.32879
 Zn442 Zn 0.00061 0.25390 0.37388
 N443 N 0.03587 0.24926 0.34826
 C444 C 0.03276 0.30325 0.40394
 N445 N 0.00670 0.28564 0.40356
 C446 C -0.01607 0.28990 0.42486
 C447 C -0.01353 0.31307 0.44731
 C448 C 0.03628 0.32670 0.42599
 C449 C -0.04018 0.24417 0.32414
 C450 C -0.06512 0.25031 0.30444
 C451 C -0.07421 0.29782 0.33244
 C452 C -0.04912 0.29072 0.35164
 N453 N -0.03310 0.26397 0.34762
 H454 H 0.05081 0.29930 0.38709
 H455 H -0.03653 0.27548 0.42405
 H456 H -0.03268 0.31623 0.46297
 H457 H 0.05696 0.34087 0.42554
 H458 H -0.02658 0.22341 0.32095
 H459 H -0.07054 0.23410 0.28602
 H460 H -0.08591 0.31949 0.33631
 H461 H -0.04242 0.30679 0.36965
 C462 C 0.08553 0.24313 0.30740
 C463 C -0.01950 0.16408 0.43187
 C464 C -0.08307 0.27713 0.30875
 C465 C 0.01310 0.33186 0.44834
 C466 C -0.00422 0.70622 0.07479
 H467 H -0.02488 0.71995 0.07152
 C468 C 0.00145 0.68091 0.05553
 H469 H -0.01501 0.67534 0.03737
 C470 C 0.04239 0.69717 0.10224
 H471 H 0.05857 0.70389 0.12016
 C472 C 0.04902 0.67167 0.08348
 H473 H 0.07043 0.65962 0.08762
 N474 N 0.01583 0.71344 0.09803
 C475 C -0.04004 0.76002 0.16776
 H476 H -0.02701 0.78123 0.17072
 C477 C -0.06634 0.75459 0.18571
 H478 H -0.07334 0.77177 0.20259
 C479 C -0.04580 0.71139 0.14309
 H480 H -0.03724 0.69419 0.12711
 C481 C -0.07224 0.70499 0.16056
 H482 H -0.08310 0.68267 0.15759
 Zn483 Zn 0.00581 0.74743 0.12380
 N484 N -0.03058 0.73875 0.14660
 C485 C -0.02739 0.79786 0.09727
 N486 N -0.00010 0.78230 0.09759
 C487 C 0.02322 0.79022 0.07797
 C488 C 0.01962 0.81468 0.05689
 C489 C -0.03196 0.82250 0.07666
 C490 C 0.04268 0.73219 0.17479
 C491 C 0.06546 0.73589 0.19752
 C492 C 0.07739 0.78604 0.17552
 C493 C 0.05437 0.78135 0.15320
 N494 N 0.03771 0.75463 0.15311
 H495 H -0.04587 0.79101 0.11269
 H496 H 0.04467 0.77737 0.07863
 H497 H 0.03901 0.82059 0.04230
 H498 H -0.05381 0.83471 0.07696
 H499 H 0.02900 0.71119 0.17423
 H500 H 0.06918 0.71700 0.21357
 H501 H 0.09071 0.80730 0.17493
 H502 H 0.04984 0.79912 0.13603
 C503 C -0.08331 0.72700 0.18192
 C504 C 0.02808 0.66273 0.06000
 C505 C 0.08307 0.76335 0.19846
 C506 C -0.00860 0.83090 0.05550
 C507 C 0.48696 0.20481 0.57547
 H508 H 0.46510 0.21683 0.57372
 C509 C 0.49280 0.17923 0.55655
 H510 H 0.47532 0.17190 0.54007
 C511 C 0.53665 0.20077 0.59820
 H512 H 0.55405 0.20975 0.61382
 C513 C 0.54353 0.17525 0.57962
 H514 H 0.56649 0.16557 0.58114
 N515 N 0.50847 0.21452 0.59638
 C516 C 0.45429 0.26193 0.66723
 H517 H 0.46617 0.28398 0.66825
 C518 C 0.42900 0.25625 0.68657
 H519 H 0.42172 0.27408 0.70262
 C520 C 0.45045 0.21149 0.64608
 H521 H 0.45945 0.19372 0.63099
 C522 C 0.42508 0.20482 0.66499
 H523 H 0.41549 0.18174 0.66410
 Zn524 Zn 0.49877 0.24895 0.62177
 N525 N 0.46412 0.23986 0.64707
 C526 C 0.46270 0.29748 0.59462
 N527 N 0.49038 0.28259 0.59469
 C528 C 0.51310 0.29065 0.57444
 C529 C 0.50863 0.31475 0.55322
 C530 C 0.45717 0.32167 0.57363
 C531 C 0.54115 0.23670 0.66970
 C532 C 0.56635 0.24205 0.68932
 C533 C 0.57226 0.29271 0.66613
 C534 C 0.54695 0.28637 0.64694
 N535 N 0.53243 0.25845 0.64850
 H536 H 0.44479 0.29060 0.61071
 H537 H 0.53493 0.27845 0.57505
 H538 H 0.52773 0.32131 0.53841
 H539 H 0.43522 0.33363 0.57448
 H540 H 0.52871 0.21497 0.67106
 H541 H 0.57301 0.22432 0.70591
 H542 H 0.58270 0.31537 0.66445
 H543 H 0.53890 0.30391 0.63089
 C544 C 0.41340 0.22764 0.68513
 C545 C 0.52104 0.16330 0.55915
 C546 C 0.58298 0.27003 0.68718
 C547 C 0.48000 0.33018 0.55190
 C548 C 0.51788 0.71696 0.92126
 H549 H 0.53910 0.73027 0.92094
 C550 C 0.51452 0.69238 0.94218
 H551 H 0.53388 0.68683 0.95700
 C552 C 0.46773 0.70817 0.90102
 H553 H 0.44937 0.71458 0.88523
 C554 C 0.46337 0.68340 0.92152
 H555 H 0.44182 0.67064 0.92079
 N556 N 0.49473 0.72430 0.90117
 C557 C 0.53982 0.77389 0.82506
 H558 H 0.52649 0.79510 0.82499
 C559 C 0.56327 0.76968 0.80318
 H560 H 0.56781 0.78835 0.78710
 C561 C 0.54985 0.72466 0.84728
 H562 H 0.54438 0.70699 0.86425
 C563 C 0.57352 0.71949 0.82588
 H564 H 0.58635 0.69798 0.82705
 Zn565 Zn 0.50089 0.75897 0.87484
 N566 N 0.53369 0.75164 0.84664
 C567 C 0.53681 0.80919 0.89792
 N568 N 0.50993 0.79312 0.90084
 C569 C 0.48915 0.80020 0.92339
 C570 C 0.49447 0.82508 0.94336
 C571 C 0.54313 0.83422 0.91747
 C572 C 0.45592 0.74523 0.83009
 C573 C 0.42963 0.74996 0.81186
 C574 C 0.42305 0.79991 0.83606
 C575 C 0.44947 0.79420 0.85385
 N576 N 0.46498 0.76698 0.85100
 H577 H 0.55359 0.80247 0.88065
 H578 H 0.46830 0.78652 0.92573
 H579 H 0.47758 0.83034 0.96113
 H580 H 0.56504 0.84582 0.91473
 H581 H 0.46916 0.72412 0.82768
 H582 H 0.42283 0.73233 0.79531
 H583 H 0.41191 0.82209 0.83862
 H584 H 0.45772 0.81176 0.86967
 C585 C 0.58040 0.74193 0.80307
 C586 C 0.48666 0.67545 0.94301
 C587 C 0.41229 0.77733 0.81507
 C588 C 0.52147 0.84303 0.94025
 C589 C 0.16117 0.22833 0.25053
 C590 C 0.13722 0.20205 0.25011
 C591 C 0.11203 0.20748 0.26819
 C592 C 0.11293 0.23868 0.28555
 C593 C 0.14386 0.23843 0.30326
 C594 C 0.16896 0.23309 0.28503
 C595 C 0.14280 0.25742 0.24115
 C596 C 0.11757 0.26280 0.25927
 H597 H 0.13955 0.18123 0.23620
 H598 H 0.09284 0.19129 0.26947
 H599 H 0.14584 0.24246 0.32810
 H600 H 0.19230 0.23252 0.29433
 H601 H 0.14829 0.27196 0.22124
 H602 H 0.10181 0.28147 0.25369
 C603 C 0.65297 0.72237 0.74368
 C604 C 0.66238 0.72837 0.77756
 C605 C 0.63828 0.73531 0.79657
 C606 C 0.60662 0.73573 0.78021
 C607 C 0.61083 0.75856 0.75271
 C608 C 0.63507 0.75159 0.73379
 C609 C 0.62827 0.69685 0.74545
 C610 C 0.60406 0.70384 0.76435
 H611 H 0.68607 0.72748 0.78588
 H612 H 0.64147 0.74037 0.82109
 H613 H 0.59548 0.77752 0.74700
 H614 H 0.64011 0.76508 0.71305
 H615 H 0.62941 0.67536 0.73244
 H616 H 0.58451 0.68830 0.76726
 C617 C 0.33635 0.78737 0.75740
 C618 C 0.33699 0.75676 0.77569
 C619 C 0.36161 0.75399 0.79526
 C620 C 0.38376 0.78199 0.79474
 C621 C 0.39237 0.78624 0.76029
 C622 C 0.36770 0.78905 0.74086
 C623 C 0.33793 0.81264 0.78253
 C624 C 0.36254 0.80982 0.80212
 H625 H 0.31924 0.73904 0.77391
 H626 H 0.36469 0.73392 0.81025
 H627 H 0.41602 0.78725 0.75191
 H628 H 0.37029 0.79241 0.71595
 H629 H 0.32054 0.83046 0.78568
 H630 H 0.36493 0.82502 0.82197
 C631 C -0.15646 0.28977 0.24817
 C632 C -0.15586 0.31407 0.27439
 C633 C -0.13208 0.31044 0.29484
 C634 C -0.11060 0.28287 0.28730
 C635 C -0.13273 0.25491 0.28574
 C636 C -0.15653 0.25846 0.26531
 C637 C -0.12439 0.29209 0.23306
 C638 C -0.10055 0.28848 0.25342
 H639 H -0.17314 0.33201 0.27748
 H640 H -0.13035 0.32515 0.31510
 H641 H -0.13023 0.23424 0.30000
 H642 H -0.17414 0.24079 0.26213
 H643 H -0.12070 0.29650 0.20845
 H644 H -0.07657 0.28986 0.24613
 C645 C -0.15837 0.71399 0.23993
 C646 C -0.12677 0.71206 0.25605
 C647 C -0.10241 0.71588 0.23647
 C648 C -0.11155 0.72130 0.20230
 C649 C -0.13264 0.69352 0.19410
 C650 C -0.15695 0.68968 0.21386
 C651 C -0.15824 0.74526 0.22278
 C652 C -0.13393 0.74904 0.20306
 H653 H -0.12379 0.70779 0.28079
 H654 H -0.07864 0.71483 0.24455
 H655 H -0.13041 0.67916 0.17363
 H656 H -0.17427 0.67182 0.21024
 H657 H -0.17613 0.76268 0.22540
 H658 H -0.13128 0.76966 0.18876
 C659 C 0.34094 0.21319 0.74621
 C660 C 0.33963 0.24440 0.72890
 C661 C 0.36306 0.24872 0.70824
 C662 C 0.38613 0.22158 0.70674
 C663 C 0.39670 0.21656 0.74053
 C664 C 0.37323 0.21214 0.76107
 C665 C 0.34203 0.18881 0.72009
 C666 C 0.36546 0.19327 0.69941
 H667 H 0.32135 0.26134 0.73198
 H668 H 0.36452 0.26926 0.69366
 H669 H 0.42079 0.21622 0.74766
 H670 H 0.37734 0.20803 0.78568
 H671 H 0.32507 0.17051 0.71699
 H672 H 0.36724 0.17908 0.67876
 C673 C 0.65748 0.28139 0.74671
 C674 C 0.65766 0.25074 0.72869
 C675 C 0.63352 0.24750 0.70859
 C676 C 0.61092 0.27511 0.70833
 C677 C 0.60151 0.27924 0.74256
 C678 C 0.62573 0.28253 0.76253
 C679 C 0.65603 0.30657 0.72129
 C680 C 0.63191 0.30327 0.70118
 H681 H 0.67562 0.23333 0.73104
 H682 H 0.63110 0.22735 0.69371
 H683 H 0.57767 0.27978 0.75039
 H684 H 0.62256 0.28585 0.78735
 H685 H 0.67321 0.32468 0.71831
 H686 H 0.62979 0.31832 0.68110
 C687 C 0.15439 0.78044 0.26038
 C688 C 0.16462 0.77408 0.22685
 C689 C 0.14089 0.76801 0.20700
 C690 C 0.10875 0.76876 0.22222
 C691 C 0.11117 0.74586 0.24989
 C692 C 0.13505 0.75192 0.26964
 C693 C 0.13078 0.80685 0.25775
 C694 C 0.10693 0.80075 0.23797
 H695 H 0.18859 0.77411 0.21938
 H696 H 0.14465 0.76284 0.18260
 H697 H 0.09475 0.72766 0.25521
 H698 H 0.13878 0.73840 0.29065
 H699 H 0.13234 0.82829 0.27081
 H700 H 0.08810 0.81699 0.23437
 C701 C 0.25201 0.16186 0.22791
 C702 C 0.24255 0.14356 0.25719
 C703 C 0.26072 0.11850 0.26321
 C704 C 0.28715 0.11390 0.23948
 C705 C 0.27030 0.11262 0.20788
 C706 C 0.25214 0.13766 0.20182
 C707 C 0.28615 0.17004 0.23316
 C708 C 0.30444 0.14508 0.23916
 H709 H 0.22259 0.14897 0.27142
 H710 H 0.25509 0.10287 0.28211
 H711 H 0.27204 0.09331 0.19184
 H712 H 0.23859 0.13974 0.18063
 H713 H 0.29516 0.19353 0.23243
 H714 H 0.32905 0.14733 0.24358
 C715 C 0.74125 0.65263 0.72027
 C716 C 0.74224 0.62867 0.69397
 C717 C 0.76051 0.60375 0.70024
 C718 C 0.77652 0.60491 0.73227
 C719 C 0.79350 0.63625 0.73271
 C720 C 0.77516 0.66107 0.72646
 C721 C 0.73120 0.63400 0.74912
 C722 C 0.74946 0.60904 0.75539
 H723 H 0.72920 0.63082 0.67246
 H724 H 0.76287 0.58462 0.68408
 H725 H 0.81795 0.63872 0.73785
 H726 H 0.78396 0.68464 0.72623
 H727 H 0.71083 0.63915 0.76287
 H728 H 0.74360 0.59324 0.77408
 C729 C 0.75077 0.33488 0.78333
 C730 C 0.77791 0.33483 0.80665
 C731 C 0.79803 0.35879 0.80272
 C732 C 0.78923 0.38114 0.77600
 C733 C 0.78656 0.35974 0.74746
 C734 C 0.76644 0.33573 0.75125
 C735 C 0.73584 0.36692 0.78696
 C736 C 0.75584 0.39096 0.78312
 H737 H 0.78214 0.31669 0.82370
 H738 H 0.81930 0.35986 0.81602
 H739 H 0.80002 0.36267 0.72636
 H740 H 0.76266 0.31846 0.73330
 H741 H 0.71157 0.37045 0.79231
 H742 H 0.74860 0.41494 0.78519
 C743 C 0.24275 -0.15370 0.28772
 C744 C 0.24532 -0.13100 0.31512
 C745 C 0.26428 -0.10638 0.30951
 C746 C 0.27929 -0.10648 0.27702
 C747 C 0.29518 -0.13825 0.27464
 C748 C 0.27620 -0.16280 0.28020
 C749 C 0.23253 -0.13329 0.26006
 C750 C 0.25142 -0.10865 0.25455
 H751 H 0.23282 -0.13369 0.33685
 H752 H 0.26774 -0.08811 0.32647
 H753 H 0.31940 -0.14117 0.26878
 H754 H 0.28429 -0.18659 0.27909
 H755 H 0.21144 -0.13676 0.24680
 H756 H 0.24525 -0.09153 0.23718
 C757 C 0.24315 -0.15990 0.71998
 C758 C 0.22703 -0.15913 0.75181
 C759 C 0.20719 -0.13494 0.75533
 C760 C 0.20527 -0.11327 0.72681
 C761 C 0.23887 -0.10376 0.72020
 C762 C 0.25858 -0.12798 0.71659
 C763 C 0.21640 -0.15948 0.69624
 C764 C 0.19655 -0.13530 0.69990
 H765 H 0.23024 -0.17662 0.76976
 H766 H 0.19340 -0.13210 0.77620
 H767 H 0.24647 -0.07984 0.71825
 H768 H 0.28295 -0.12467 0.71155
 H769 H 0.21227 -0.17740 0.67904
 H770 H 0.17554 -0.13379 0.68623
 C771 C 0.74975 0.34261 0.21243
 C772 C 0.73332 0.34123 0.24406
 C773 C 0.71231 0.36427 0.24837
 C774 C 0.70966 0.38701 0.22075
 C775 C 0.74287 0.39836 0.21499
 C776 C 0.76373 0.37525 0.21063
 C777 C 0.72334 0.34274 0.18841
 C778 C 0.70231 0.36575 0.19281
 H779 H 0.73729 0.32321 0.26129
 H780 H 0.69826 0.36566 0.26922
 H781 H 0.74937 0.42266 0.21419
 H782 H 0.78800 0.37982 0.20613
 H783 H 0.72038 0.32535 0.17046
 H784 H 0.68142 0.36677 0.17893
 C785 C 0.74763 0.65855 0.27644
 C786 C 0.76260 0.62646 0.27927
 C787 C 0.74249 0.60252 0.27543
 C788 C 0.70898 0.61256 0.26912
 C789 C 0.70082 0.63437 0.29635
 C790 C 0.72110 0.65819 0.30025
 C791 C 0.73133 0.65847 0.24467
 C792 C 0.71106 0.63460 0.24087
 H793 H 0.78699 0.62285 0.28405
 H794 H 0.74974 0.57848 0.27694
 H795 H 0.67985 0.63305 0.31003
 H796 H 0.71744 0.67600 0.31763
 H797 H 0.73482 0.67615 0.22698
 H798 H 0.69714 0.63219 0.21998
 C799 C 0.25065 0.15866 0.78442
 C800 C 0.26553 0.12638 0.78576
 C801 C 0.24512 0.10266 0.78203
 C802 C 0.21144 0.11302 0.77729
 C803 C 0.20452 0.13398 0.80554
 C804 C 0.22502 0.15763 0.80930
 C805 C 0.23307 0.15953 0.75333
 C806 C 0.21259 0.13586 0.74967
 H807 H 0.29004 0.12246 0.78958
 H808 H 0.25227 0.07856 0.78270
 H809 H 0.18442 0.13222 0.82038
 H810 H 0.22220 0.17469 0.82758
 H811 H 0.23599 0.17760 0.73592
 H812 H 0.19801 0.13393 0.72918
 C813 C 0.22792 0.25179 0.15944
 C814 C 0.20186 0.25082 0.13518
 C815 C 0.20720 0.26881 0.10968
 C816 C 0.23810 0.28661 0.11059
 C817 C 0.23749 0.30438 0.14156
 C818 C 0.23222 0.28626 0.16697
 C819 C 0.25715 0.24284 0.14120
 C820 C 0.26246 0.26087 0.11567
 H821 H 0.18124 0.23665 0.13755
 H822 H 0.19113 0.26977 0.09027
 H823 H 0.24123 0.32919 0.14334
 H824 H 0.23143 0.29561 0.19038
 H825 H 0.27189 0.22334 0.14706
 H826 H 0.28132 0.25562 0.10006
 C827 C 0.71977 0.74299 0.65185
 C828 C 0.74783 0.73199 0.63289
 C829 C 0.75438 0.75018 0.60779
 C830 C 0.73241 0.77815 0.60386
 C831 C 0.70001 0.76324 0.60290
 C832 C 0.69341 0.74505 0.62798
 C833 C 0.72722 0.77670 0.66028
 C834 C 0.73378 0.79499 0.63532
 H835 H 0.76067 0.71094 0.63777
 H836 H 0.77223 0.74354 0.59153
 H837 H 0.68387 0.76619 0.58376
 H838 H 0.67164 0.73270 0.63027
 H839 H 0.72752 0.78541 0.68395
 H840 H 0.73970 0.81932 0.63775
 C841 C 0.78538 0.75156 0.33287
 C842 C 0.80956 0.77775 0.33348
 C843 C 0.80604 0.79785 0.35755
 C844 C 0.77875 0.78987 0.37932
 C845 C 0.75072 0.78852 0.35715
 C846 C 0.75415 0.76844 0.33303
 C847 C 0.78779 0.73610 0.36496
 C848 C 0.78433 0.75603 0.38914
 H849 H 0.82696 0.78134 0.31566
 H850 H 0.82011 0.81857 0.35904
 H851 H 0.73020 0.80273 0.35975
 H852 H 0.73653 0.76540 0.31528
 H853 H 0.79205 0.71153 0.36840
 H854 H 0.78565 0.74843 0.41321
 C855 C 0.28809 0.25072 -0.16056
 C856 C 0.31250 0.27668 -0.16002
 C857 C 0.30892 0.29714 -0.13626
 C858 C 0.28119 0.28978 -0.11477
 C859 C 0.25345 0.28825 -0.13723
 C860 C 0.25701 0.26783 -0.16100
 C861 C 0.29003 0.23571 -0.12821
 C862 C 0.28646 0.25604 -0.10437
 H863 H 0.33051 0.27949 -0.17736
 H864 H 0.32381 0.31721 -0.13451
 H865 H 0.23290 0.30248 -0.13494
 H866 H 0.23951 0.26457 -0.17883
 H867 H 0.29417 0.21118 -0.12436
 H868 H 0.28759 0.24880 -0.08017
 C869 C 0.71539 0.24225 -0.16098
 C870 C 0.71484 0.25749 -0.12878
 C871 C 0.71946 0.23738 -0.10482
 C872 C 0.72420 0.20357 -0.11488
 C873 C 0.69566 0.19601 -0.13522
 C874 C 0.69102 0.21631 -0.15913
 C875 C 0.74642 0.22507 -0.16239
 C876 C 0.75098 0.20480 -0.13847
 H877 H 0.71094 0.28206 -0.12512
 H878 H 0.71949 0.24483 -0.08071
 H879 H 0.68142 0.17547 -0.13285
 H880 H 0.67258 0.21314 -0.17599
 H881 H 0.76306 0.22801 -0.18105
 H882 H 0.77145 0.19035 -0.13698
 C883 C 0.21874 0.75590 0.35308
 C884 C 0.24654 0.76564 0.37319
 C885 C 0.25195 0.74650 0.39787
 C886 C 0.22919 0.71892 0.40024
 C887 C 0.19717 0.73453 0.40073
 C888 C 0.19171 0.75368 0.37609
 C889 C 0.22557 0.72231 0.34376
 C890 C 0.23099 0.70308 0.36830
 H891 H 0.26001 0.78654 0.36936
 H892 H 0.26954 0.75221 0.41485
 H893 H 0.18044 0.73133 0.41927
 H894 H 0.17033 0.76660 0.37357
 H895 H 0.22631 0.71436 0.31984
 H896 H 0.23637 0.67871 0.36524
 C897 C 0.27842 0.74608 0.66679
 C898 C 0.30228 0.71964 0.66714
 C899 C 0.29835 0.69865 0.64390
 C900 C 0.27102 0.70604 0.62191
 C901 C 0.24315 0.70854 0.64408
 C902 C 0.24699 0.72952 0.66738
 C903 C 0.28082 0.76025 0.63411
 C904 C 0.27695 0.73942 0.61076
 H905 H 0.31974 0.71657 0.68505
 H906 H 0.31214 0.67774 0.64319
 H907 H 0.22244 0.69444 0.64209
 H908 H 0.22952 0.73342 0.68504
 H909 H 0.28535 0.78462 0.62969
 H910 H 0.27822 0.74606 0.58640
 C911 C 0.78970 0.25096 0.15565
 C912 C 0.81526 0.22627 0.15398
 C913 C 0.81161 0.20571 0.13029
 C914 C 0.78265 0.21169 0.11000
 C915 C 0.75588 0.21178 0.13361
 C916 C 0.75952 0.23231 0.15729
 C917 C 0.78951 0.26612 0.12330
 C918 C 0.78584 0.24569 0.09953
 H919 H 0.83417 0.22437 0.17051
 H920 H 0.82738 0.18646 0.12781
 H921 H 0.73595 0.19653 0.13212
 H922 H 0.74268 0.23464 0.17583
 H923 H 0.79231 0.29084 0.11939
 H924 H 0.78556 0.25301 0.07534
 C925 C 0.46538 0.40470 0.49288
 C926 C 0.43654 0.38442 0.49757
 C927 C 0.44129 0.35947 0.51652
 C928 C 0.47453 0.35704 0.52942
 C929 C 0.49473 0.35713 0.49985
 C930 C 0.49013 0.38206 0.48098
 C931 C 0.47592 0.41336 0.52581
 C932 C 0.48069 0.38855 0.54483
 H933 H 0.41454 0.38875 0.48619
 H934 H 0.42332 0.34243 0.52084
 H935 H 0.50962 0.33824 0.49280
 H936 H 0.50175 0.38424 0.45872
 H937 H 0.47941 0.43704 0.53353
 H938 H 0.48825 0.39109 0.56879
 C939 C -0.02704 0.90450 -0.00364
 C940 C -0.05228 0.87949 -0.00311
 C941 C -0.04567 0.85496 0.01574
 C942 C -0.01442 0.85758 0.03285
 C943 C 0.00915 0.86244 0.00627
 C944 C 0.00259 0.88697 -0.01261
 C945 C -0.02225 0.91344 0.03056
 C946 C -0.01572 0.88902 0.04955
 H947 H -0.07328 0.88063 -0.01694
 H948 H -0.06103 0.83513 0.01775
 H949 H 0.02827 0.84720 0.00103
 H950 H 0.01663 0.89243 -0.03281
 H951 H -0.02368 0.93705 0.03910
 H952 H -0.01154 0.89184 0.07430
 C953 C 0.03832 0.58784 0.00100
 C954 C 0.00792 0.58807 0.01942
 C955 C 0.00524 0.61237 0.03931
 C956 C 0.03308 0.63468 0.03910
 C957 C 0.06103 0.61343 0.04604
 C958 C 0.06376 0.58912 0.02614
 C959 C 0.03981 0.61965 -0.01508
 C960 C 0.03709 0.64400 0.00475
 H961 H -0.00978 0.57031 0.01745
 H962 H -0.01472 0.61518 0.05430
 H963 H 0.07691 0.61592 0.06533
 H964 H 0.08200 0.57206 0.02879
 H965 H 0.04308 0.62282 -0.03994
 H966 H 0.03809 0.66787 -0.00325
 C967 C 0.53747 0.08838 0.50168
 C968 C 0.50495 0.08849 0.51595
 C969 C 0.49965 0.11283 0.53536
 C970 C 0.52732 0.13521 0.53869
 C971 C 0.55395 0.11388 0.54933
 C972 C 0.55935 0.08969 0.52995
 C973 C 0.54082 0.12012 0.48586
 C974 C 0.53555 0.14451 0.50514
 H975 H 0.48782 0.07057 0.51177
 H976 H 0.47805 0.11535 0.54789
 H977 H 0.56598 0.11566 0.57139
 H978 H 0.57637 0.07207 0.53556
 H979 H 0.54690 0.12317 0.46154
 H980 H 0.53714 0.16838 0.49723
 C981 C -0.03296 0.08980 0.49141
 C982 C -0.05696 0.09067 0.46495
 C983 C -0.05299 0.11471 0.44468
 C984 C -0.02540 0.13608 0.45277
 C985 C -0.03118 0.14584 0.48664
 C986 C -0.03513 0.12177 0.50673
 C987 C -0.00161 0.08971 0.47471
 C988 C 0.00230 0.11372 0.45448
 H989 H -0.07474 0.07324 0.46155
 H990 H -0.06719 0.11662 0.42400
 H991 H -0.03238 0.16981 0.49414
 H992 H -0.03966 0.12521 0.53132
 H993 H 0.01577 0.07187 0.47800
 H994 H 0.02299 0.11617 0.44043
 C995 C 0.46996 0.60052 1.00089
 C996 C 0.44378 0.62449 1.00017
 C997 C 0.44974 0.64949 0.98172
 C998 C 0.48134 0.64835 0.96522
 C999 C 0.50463 0.64415 0.99221
 C1000 C 0.49874 0.61914 1.01065
 C1001 C 0.47560 0.59219 0.96670
 C1002 C 0.48151 0.61709 0.94813
 H1003 H 0.42264 0.62232 1.01358
 H1004 H 0.43369 0.66870 0.97963
 H1005 H 0.52292 0.66023 0.99816
 H1006 H 0.51256 0.61414 1.03116
 H1007 H 0.47518 0.56865 0.95786
 H1008 H 0.48616 0.61474 0.92343
 C1009 C 0.53336 0.91508 1.00253
 C1010 C 0.50212 0.91541 0.98545
 C1011 C 0.49870 0.89208 0.96445
 C1012 C 0.52671 0.87014 0.96235
 C1013 C 0.55403 0.89210 0.95521
 C1014 C 0.55756 0.91536 0.97619
 C1015 C 0.53577 0.88255 1.01689
 C1016 C 0.53231 0.85919 0.99599
 H1017 H 0.48443 0.93286 0.98906
 H1018 H 0.47812 0.88983 0.95014
 H1019 H 0.56831 0.89134 0.93458
 H1020 H 0.57511 0.93312 0.97316
 H1021 H 0.54008 0.87820 1.04143
 H1022 H 0.53370 0.83496 1.00274
 C1023 C 0.02640 0.40553 0.50837
 C1024 C 0.05352 0.38258 0.50721
 C1025 C 0.04862 0.35798 0.48808
 C1026 C 0.01705 0.35836 0.47144
 C1027 C -0.00649 0.36077 0.49837
 C1028 C -0.00166 0.38542 0.51750
 C1029 C 0.02043 0.41463 0.47432
 C1030 C 0.01559 0.39011 0.45514
 H1031 H 0.07455 0.38508 0.52081
 H1032 H 0.06545 0.33953 0.48555
 H1033 H -0.02428 0.34393 0.50366
 H1034 H -0.01583 0.38923 0.53795
 H1035 H 0.01975 0.43842 0.46599
 H1036 H 0.01078 0.39304 0.43050
 C1037 C 0.40624 0.50047 0.46759
 C1038 C 0.40486 0.51119 0.50162
 C1039 C 0.38119 0.53112 0.50765
 C1040 C 0.36073 0.53849 0.47910
 C1041 C 0.38401 0.55070 0.45481
 C1042 C 0.40752 0.53082 0.44866
 C1043 C 0.37417 0.48687 0.46087
 C1044 C 0.35047 0.50667 0.46683
 H1045 H 0.42155 0.50439 0.51925
 H1046 H 0.37807 0.54149 0.53040
 H1047 H 0.38384 0.57390 0.44504
 H1048 H 0.42634 0.53722 0.43325
 H1049 H 0.37040 0.46360 0.45210
 H1050 H 0.32647 0.50027 0.46315
 C1051 C 0.90550 -0.00757 -0.02937
 C1052 C 0.91396 0.02647 -0.02340
 C1053 C 0.88919 0.04503 -0.01799
 C1054 C 0.85788 0.02817 -0.01887
 C1055 C 0.85714 0.01186 -0.05071
 C1056 C 0.88198 -0.00664 -0.05622
 C1057 C 0.88628 -0.01732 -0.00078
 C1058 C 0.86139 0.00117 0.00461
 H1059 H 0.93750 0.03525 -0.02319
 H1060 H 0.89168 0.06960 -0.01317
 H1061 H 0.83825 0.01403 -0.06723
 H1062 H 0.88426 -0.02001 -0.07746
 H1063 H 0.89071 -0.03785 0.01319
 H1064 H 0.84488 -0.00473 0.02259
 C1065 C 0.58989 0.00505 0.04159
 C1066 C 0.58912 0.02324 0.01086
 C1067 C 0.61345 0.04283 0.00698
 C1068 C 0.63680 0.04251 0.03408
 C1069 C 0.61683 0.04972 0.06301
 C1070 C 0.59240 0.03008 0.06689
 C1071 C 0.62138 -0.01124 0.04197
 C1072 C 0.64579 0.00824 0.03807
 H1073 H 0.57064 0.02134 -0.00616
 H1074 H 0.61559 0.05770 -0.01333
 H1075 H 0.62030 0.06899 0.07867
 H1076 H 0.57606 0.03272 0.08583
 H1077 H 0.62428 -0.03601 0.04541
 H1078 H 0.66950 0.00005 0.03822
 C1079 C 0.09097 0.49562 0.53283
 C1080 C 0.11020 0.48650 0.50420
 C1081 C 0.13499 0.50526 0.49896
 C1082 C 0.13836 0.53189 0.52272
 C1083 C 0.10695 0.54852 0.52199
 C1084 C 0.08228 0.52964 0.52722
 C1085 C 0.11437 0.49628 0.55970
 C1086 C 0.13914 0.51503 0.55440
 H1087 H 0.10569 0.46624 0.48999
 H1088 H 0.15141 0.49985 0.48081
 H1089 H 0.10435 0.57315 0.51745
 H1090 H 0.05868 0.53815 0.52717
 H1091 H 0.11202 0.48260 0.58082
 H1092 H 0.15797 0.51711 0.57100
 C1093 C 0.09045 0.49391 -0.03499
 C1094 C 0.09039 0.47744 -0.00327
 C1095 C 0.11398 0.45694 0.00059
 C1096 C 0.13591 0.45479 -0.02754
 C1097 C 0.11413 0.44691 -0.05497
 C1098 C 0.09052 0.46744 -0.05889
 C1099 C 0.12259 0.50869 -0.03768
 C1100 C 0.14624 0.48835 -0.03378
 H1101 H 0.07286 0.48105 0.01440
 H1102 H 0.11637 0.44298 0.02152
 H1103 H 0.11542 0.42617 -0.06901
 H1104 H 0.07284 0.46418 -0.07653
 H1105 H 0.12645 0.53311 -0.04249
 H1106 H 0.17028 0.49545 -0.03531
 C1107 C 0.60034 0.99949 0.47017
 C1108 C 0.59168 0.96590 0.47820
 C1109 C 0.61643 0.94693 0.48243
 C1110 C 0.64790 0.96300 0.47832
 C1111 C 0.64633 0.97820 0.44582
 C1112 C 0.62148 0.99711 0.44154
 C1113 C 0.62220 1.00972 0.49663
 C1114 C 0.64702 0.99087 0.50073
 H1115 H 0.56804 0.95770 0.48052
 H1116 H 0.61386 0.92258 0.48834
 H1117 H 0.66379 0.97517 0.42798
 H1118 H 0.61773 1.00986 0.42004
 H1119 H 0.61969 1.03098 0.50982
 H1120 H 0.66538 0.99717 0.51668
 C1121 C 0.91396 0.99642 0.52964
 C1122 C 0.91448 0.97940 0.49829
 C1123 C 0.89106 0.95860 0.49466
 C1124 C 0.86883 0.95662 0.52260
 C1125 C 0.89035 0.94941 0.55042
 C1126 C 0.91372 0.97021 0.55415
 C1127 C 0.88161 1.01087 0.53163
 C1128 C 0.85816 0.99016 0.52795
 H1129 H 0.93213 0.98289 0.48068
 H1130 H 0.88894 0.94434 0.47401
 H1131 H 0.88915 0.92891 0.56494
 H1132 H 0.93117 0.96719 0.57209
 H1133 H 0.87744 1.03531 0.53583
 H1134 H 0.83405 0.99700 0.52906
 C1135 C 0.40359 0.50936 0.02541
 C1136 C 0.38396 0.51882 -0.00295
 C1137 C 0.35941 0.49974 -0.00833
 C1138 C 0.35669 0.47255 0.01509
 C1139 C 0.38837 0.45648 0.01383
 C1140 C 0.41276 0.47562 0.01919
 C1141 C 0.38046 0.50771 0.05242
 C1142 C 0.35596 0.48865 0.04702
 H1143 H 0.38816 0.53938 -0.01695
 H1144 H 0.34294 0.50509 -0.02654
 H1145 H 0.39136 0.43202 0.00878
 H1146 H 0.43650 0.46751 0.01876
 H1147 H 0.38281 0.52093 0.07375
 H1148 H 0.33739 0.48578 0.06374
 C1149 C 0.49496 0.46923 0.40174
 C1150 C 0.52844 0.47613 0.41126
 C1151 C 0.54774 0.48121 0.38680
 C1152 C 0.53202 0.47897 0.35477
 C1153 C 0.51637 0.44684 0.35465
 C1154 C 0.49713 0.44175 0.37922
 C1155 C 0.48542 0.49676 0.38103
 C1156 C 0.50454 0.50175 0.35645
 H1157 H 0.53630 0.47707 0.43524
 H1158 H 0.57208 0.48651 0.38996
 H1159 H 0.51953 0.42982 0.33640
 H1160 H 0.48413 0.42038 0.38198
 H1161 H 0.46436 0.51005 0.38408
 H1162 H 0.49857 0.51862 0.33874
 C1163 C -0.00516 -0.02943 0.90423
 C1164 C -0.00364 -0.05620 0.88084
 C1165 C 0.01477 -0.05034 0.85585
 C1166 C 0.03044 -0.01824 0.85644
 C1167 C 0.00307 0.00453 0.85969
 C1168 C -0.01536 -0.00127 0.88471
 C1169 C 0.02858 -0.02269 0.91291
 C1170 C 0.04711 -0.01690 0.88803
 H1171 H -0.01654 -0.07766 0.88335
 H1172 H 0.01735 -0.06680 0.83699
 H1173 H -0.00302 0.02236 0.84300
 H1174 H -0.03607 0.01216 0.88917
 H1175 H 0.03715 -0.02230 0.93666
 H1176 H 0.07151 -0.01153 0.89062
 C1177 C 0.00426 0.03560 0.58622
 C1178 C 0.02940 0.06083 0.58754
 C1179 C 0.04932 0.05768 0.61192
 C1180 C 0.04226 0.02954 0.63314
 C1181 C 0.00823 0.03374 0.64253
 C1182 C -0.01155 0.03689 0.61811
 C1183 C 0.02223 0.00496 0.58624
 C1184 C 0.04213 0.00184 0.61060
 H1185 H 0.03215 0.07902 0.57026
 H1186 H 0.06895 0.07306 0.61425
 H1187 H 0.00039 0.03450 0.66651
 H1188 H -0.03621 0.04028 0.62124
 H1189 H 0.01996 -0.01254 0.56829
 H1190 H 0.05691 -0.01831 0.61325
 C1191 C 0.49484 0.53304 0.09116
 C1192 C 0.48491 0.50474 0.11062
 C1193 C 0.50388 0.49861 0.13516
 C1194 C 0.53153 0.52119 0.13803
 C1195 C 0.54741 0.52009 0.10607
 C1196 C 0.52831 0.52624 0.08167
 C1197 C 0.49714 0.55956 0.11478
 C1198 C 0.51615 0.55336 0.13929
 H1199 H 0.46393 0.49153 0.10657
 H1200 H 0.49792 0.48074 0.15184
 H1201 H 0.57170 0.51466 0.10290
 H1202 H 0.53628 0.52609 0.05773
 H1203 H 0.48437 0.58112 0.11277
 H1204 H 0.51938 0.56964 0.15823
 C1205 C 0.49517 -0.03173 0.09583
 C1206 C 0.50979 -0.03462 0.12824
 C1207 C 0.48945 -0.03079 0.15201
 C1208 C 0.45605 -0.02439 0.14151
 C1209 C 0.45853 0.00373 0.11945
 C1210 C 0.47900 -0.00006 0.09575
 C1211 C 0.46855 -0.05542 0.09584
 C1212 C 0.44804 -0.05156 0.11952
 H1213 H 0.53410 -0.03949 0.13219
 H1214 H 0.49645 -0.03243 0.17623
 H1215 H 0.44482 0.02464 0.12187
 H1216 H 0.48283 0.01763 0.07814
 H1217 H 0.46514 -0.07285 0.07800
 H1218 H 0.42721 -0.06544 0.12065
 C1219 C 0.99936 0.47049 0.59784
 C1220 C 0.96551 0.47554 0.58842
 C1221 C 0.94633 0.48110 0.61281
 C1222 C 0.96249 0.48122 0.64471
 C1223 C 0.97944 0.44986 0.64651
 C1224 C 0.99851 0.44423 0.62201
 C1225 C 1.00804 0.49952 0.61666
 C1226 C 0.98896 0.50509 0.64118
 H1227 H 0.95735 0.47499 0.56452
 H1228 H 0.92179 0.48532 0.60967
 H1229 H 0.97715 0.43369 0.66579
 H1230 H 1.01227 0.42328 0.62035
 H1231 H 1.02820 0.51381 0.61209
 H1232 H 0.99400 0.52366 0.65728
 C1233 C 0.99638 0.53250 0.91080
 C1234 C 0.97085 0.55730 0.91036
 C1235 C 0.94977 0.55360 0.88710
 C1236 C 0.95612 0.52540 0.86595
 C1237 C 0.98958 0.53007 0.85478
 C1238 C 1.01052 0.53374 0.87812
 C1239 C 0.97883 0.50157 0.91215
 C1240 C 0.95778 0.49790 0.88887
 H1241 H 0.96869 0.57558 0.92751
 H1242 H 0.92983 0.56864 0.88560
 H1243 H 0.99620 0.53072 0.83042
 H1244 H 1.03495 0.53747 0.87368
 H1245 H 0.98225 0.48426 0.93022
 H1246 H 0.94320 0.47748 0.88724
 C1247 C 0.50753 0.02541 0.40963
 C1248 C 0.51592 -0.00267 0.38934
 C1249 C 0.49603 -0.00765 0.36530
 C1250 C 0.46906 0.01575 0.36366
 C1251 C 0.45413 0.01432 0.39608
 C1252 C 0.47414 0.01933 0.42001
 C1253 C 0.50534 0.05257 0.38656
 C1254 C 0.48543 0.04751 0.36252
 H1255 H 0.53654 -0.01664 0.39251
 H1256 H 0.50086 -0.02531 0.34816
 H1257 H 0.42978 0.00953 0.39989
 H1258 H 0.46688 0.01883 0.44418
 H1259 H 0.51883 0.07370 0.38857
 H1260 H 0.48219 0.06434 0.34397
   
