data_POSCAR
  _audit_creation_date              2014-09-24
  _audit_creation_method            'ToBaCCo'
  _symmetry_space_group_name_H-M    'P1'
  _symmetry_Int_Tables_number       1
  _symmetry_cell_setting            triclinic
  loop_
  _symmetry_equiv_pos_as_xyz
 x,y,z
_cell_length_a 73.4457
_cell_length_b 74.1876
_cell_length_c 77.3021
_cell_angle_alpha 90.619000
_cell_angle_beta 90.779300
_cell_angle_gamma 89.473100
loop_
  _atom_site_label
  _atom_site_type_symbol
  _atom_site_fract_x
  _atom_site_fract_y
  _atom_site_fract_z
C1 C 0.30525 0.42922 0.91611
 C2 C 0.30722 0.41605 0.92888
 C3 C 0.32246 0.41582 0.93965
 C4 C 0.33599 0.42904 0.93773
 C5 C 0.33394 0.44186 0.92503
 C6 C 0.31855 0.44198 0.91423
 C7 C 0.29254 0.43196 0.90311
 N8 N 0.29791 0.44608 0.89335
 C9 C 0.31385 0.45226 0.90018
 C10 C 0.34904 0.45252 0.92545
 N11 N 0.36059 0.44681 0.93824
 C12 C 0.35256 0.43234 0.94582
 C13 C 0.32100 0.40079 0.94998
 N14 N 0.30536 0.39196 0.94560
 C15 C 0.29689 0.40137 0.93278
 H16 H 0.28047 0.42399 0.90081
 H17 H 0.32200 0.46287 0.89485
 H18 H 0.35097 0.46395 0.91715
 H19 H 0.35835 0.42433 0.95615
 H20 H 0.33096 0.39625 0.95945
 H21 H 0.28416 0.39775 0.92650
 C22 C 0.43738 0.81827 0.45084
 C23 C 0.42240 0.80715 0.44816
 C24 C 0.42062 0.79690 0.43315
 C25 C 0.43441 0.79765 0.42056
 C26 C 0.44922 0.80886 0.42338
 C27 C 0.45058 0.81935 0.43851
 C28 C 0.44074 0.83139 0.46305
 N29 N 0.45561 0.84091 0.45836
 C30 C 0.46182 0.83333 0.44334
 C31 C 0.45974 0.80819 0.40888
 N32 N 0.45198 0.79681 0.39712
 C33 C 0.43644 0.79027 0.40413
 C34 C 0.40342 0.78927 0.43362
 N35 N 0.39505 0.79502 0.44836
 C36 C 0.40669 0.80579 0.45727
 H37 H 0.43174 0.83471 0.47359
 H38 H 0.47320 0.83793 0.43591
 H39 H 0.47224 0.81552 0.40707
 H40 H 0.42705 0.78123 0.39761
 H41 H 0.39709 0.78112 0.42357
 H42 H 0.40366 0.81275 0.46929
 C43 C 0.94168 0.93341 0.79941
 C44 C 0.92835 0.94709 0.79951
 C45 C 0.92969 0.96123 0.81125
 C46 C 0.94432 0.96185 0.82307
 C47 C 0.95742 0.94845 0.82290
 C48 C 0.95606 0.93410 0.81103
 C49 C 0.94322 0.91739 0.79039
 N50 N 0.95822 0.90813 0.79627
 C51 C 0.96607 0.91852 0.80896
 C52 C 0.96900 0.95161 0.83666
 N53 N 0.96323 0.96659 0.84550
 C54 C 0.94808 0.97293 0.83701
 C55 C 0.91430 0.97173 0.80933
 N56 N 0.90356 0.96435 0.79672
 C57 C 0.91211 0.94925 0.79065
 H58 H 0.93344 0.91270 0.78084
 H59 H 0.97817 0.91524 0.81642
 H60 H 0.98005 0.94271 0.84044
 H61 H 0.93996 0.98454 0.84066
 H62 H 0.91111 0.98375 0.81679
 H63 H 0.90662 0.94002 0.78103
 C64 C 0.43043 -0.08244 0.31091
 C65 C 0.41561 -0.07073 0.31318
 C66 C 0.41488 -0.05928 0.32741
 C67 C 0.42928 -0.05946 0.33965
 C68 C 0.44393 -0.07109 0.33728
 C69 C 0.44444 -0.08269 0.32286
 C70 C 0.43371 -0.09595 0.29905
 N71 N 0.44945 -0.10477 0.30350
 C72 C 0.45608 -0.09647 0.31812
 C73 C 0.45530 -0.06927 0.35140
 N74 N 0.44804 -0.05689 0.36249
 C75 C 0.43210 -0.05078 0.35535
 C76 C 0.39829 -0.05033 0.32648
 N77 N 0.38909 -0.05627 0.31213
 C78 C 0.39971 -0.06868 0.30397
 H79 H 0.42447 -0.09955 0.28861
 H80 H 0.46830 -0.10014 0.32524
 H81 H 0.46794 -0.07661 0.35344
 H82 H 0.42288 -0.04122 0.36137
 H83 H 0.39308 -0.04068 0.33582
 H84 H 0.39611 -0.07582 0.29214
 C85 C 0.79993 0.31371 0.33398
 C86 C 0.80053 0.32733 0.32168
 C87 C 0.81525 0.32862 0.31085
 C88 C 0.82955 0.31595 0.31209
 C89 C 0.82894 0.30246 0.32432
 C90 C 0.81405 0.30143 0.33548
 C91 C 0.78816 0.31077 0.34724
 N92 N 0.79483 0.29710 0.35710
 C93 C 0.81065 0.29120 0.34986
 C94 C 0.84489 0.29267 0.32308
 N95 N 0.85517 0.29978 0.31037
 C96 C 0.84588 0.31411 0.30368
 C97 C 0.81287 0.34428 0.30157
 N98 N 0.79714 0.35248 0.30670
 C99 C 0.78950 0.34203 0.31890
 H100 H 0.77593 0.31853 0.34976
 H101 H 0.81968 0.28103 0.35522
 H102 H 0.84856 0.28108 0.33080
 H103 H 0.85072 0.32283 0.29363
 H104 H 0.82240 0.34978 0.29253
 H105 H 0.77704 0.34509 0.32568
 C106 C -0.19776 0.82022 0.79765
 C107 C -0.18575 0.80552 0.79599
 C108 C -0.18711 0.79106 0.80695
 C109 C -0.20031 0.79113 0.81982
 C110 C -0.21198 0.80565 0.82163
 C111 C -0.21076 0.82032 0.81036
 C112 C -0.19866 0.83665 0.78964
 N113 N -0.21199 0.84698 0.79705
 C114 C -0.21934 0.83688 0.80986
 C115 C -0.22153 0.80304 0.83659
 N116 N -0.21583 0.78730 0.84408
 C117 C -0.20289 0.77998 0.83358
 C118 C -0.17255 0.77981 0.80391
 N119 N -0.16215 0.78715 0.79145
 C120 C -0.17026 0.80286 0.78646
 H121 H -0.18959 0.84071 0.77954
 H122 H -0.23011 0.84099 0.81846
 H123 H -0.23138 0.81250 0.84173
 H124 H -0.19471 0.76810 0.83616
 H125 H -0.16941 0.76756 0.81085
 H126 H -0.16464 0.81237 0.77750
 C127 C 0.95476 0.32333 0.43468
 C128 C 0.95517 0.30964 0.42199
 C129 C 0.94330 0.29541 0.42301
 C130 C 0.93065 0.29481 0.43628
 C131 C 0.92980 0.30848 0.44848
 C132 C 0.94220 0.32278 0.44780
 C133 C 0.96410 0.33920 0.43657
 N134 N 0.95778 0.34846 0.45068
 C135 C 0.94418 0.33834 0.45745
 C136 C 0.91431 0.30566 0.45798
 N137 N 0.90580 0.29066 0.45166
 C138 C 0.91600 0.28389 0.43855
 C139 C 0.94479 0.28538 0.40812
 N140 N 0.95713 0.29324 0.39778
 C141 C 0.96376 0.30802 0.40626
 H142 H 0.97479 0.34336 0.42806
 H143 H 0.93582 0.34193 0.46836
 H144 H 0.90897 0.31465 0.46783
 H145 H 0.91269 0.27228 0.43058
 H146 H 0.93675 0.27368 0.40477
 H147 H 0.97303 0.31766 0.40088
 C148 C 0.45037 0.43542 0.82653
 C149 C 0.45150 0.42113 0.81453
 C150 C 0.43890 0.41991 0.80116
 C151 C 0.42505 0.43286 0.79954
 C152 C 0.42387 0.44690 0.81136
 C153 C 0.43664 0.44815 0.82501
 C154 C 0.46003 0.43940 0.84143
 N155 N 0.45256 0.45430 0.84921
 C156 C 0.43818 0.45964 0.83902
 C157 C 0.40837 0.45663 0.80721
 N158 N 0.40017 0.44879 0.79317
 C159 C 0.41039 0.43425 0.78842
 C160 C 0.44229 0.40411 0.79235
 N161 N 0.45673 0.39559 0.79995
 C162 C 0.46247 0.40600 0.81355
 H163 H 0.47120 0.43131 0.84638
 H164 H 0.42921 0.47099 0.84137
 H165 H 0.40309 0.46810 0.81438
 H166 H 0.40732 0.42515 0.77777
 H167 H 0.43416 0.39886 0.78170
 H168 H 0.47357 0.40273 0.82234
 C169 C 0.80214 0.92281 0.92548
 C170 C 0.80446 0.93415 0.91144
 C171 C 0.81906 0.94574 0.91094
 C172 C 0.83167 0.94604 0.92488
 C173 C 0.82942 0.93455 0.93868
 C174 C 0.81450 0.92282 0.93897
 C175 C 0.78974 0.90955 0.92840
 N176 N 0.79413 0.90108 0.94347
 C177 C 0.80937 0.90935 0.95002
 C178 C 0.84399 0.93695 0.94978
 N179 N 0.85519 0.94978 0.94335
 C180 C 0.84758 0.95536 0.92804
 C181 C 0.81810 0.95414 0.89501
 N182 N 0.80340 0.94762 0.88605
 C183 C 0.79500 0.93552 0.89615
 H184 H 0.77895 0.90592 0.91943
 H185 H 0.81662 0.90587 0.96179
 H186 H 0.84585 0.92994 0.96187
 H187 H 0.85336 0.96502 0.91934
 H188 H 0.82773 0.96370 0.89007
 H189 H 0.78293 0.92802 0.89257
 C190 C 0.30869 0.83203 0.31976
 C191 C 0.30721 0.81830 0.33215
 C192 C 0.31948 0.80406 0.33194
 C193 C 0.33339 0.80334 0.31987
 C194 C 0.33512 0.81686 0.30795
 C195 C 0.32260 0.83129 0.30785
 C196 C 0.29904 0.84777 0.31669
 N197 N 0.30669 0.85668 0.30322
 C198 C 0.32123 0.84651 0.29794
 C199 C 0.35086 0.81323 0.29893
 N200 N 0.35865 0.79788 0.30527
 C201 C 0.34788 0.79175 0.31802
 C202 C 0.31605 0.79337 0.34578
 N203 N 0.30208 0.80069 0.35483
 C204 C 0.29639 0.81590 0.34649
 H205 H 0.28754 0.85239 0.32417
 H206 H 0.33013 0.84947 0.28734
 H207 H 0.35663 0.82164 0.28909
 H208 H 0.35050 0.77988 0.32570
 H209 H 0.32359 0.78130 0.34921
 H210 H 0.28585 0.82503 0.35098
 C211 C 0.79526 0.42044 0.43726
 C212 C 0.79406 0.43264 0.42346
 C213 C 0.80604 0.44689 0.42283
 C214 C 0.81935 0.44920 0.43576
 C215 C 0.82036 0.43740 0.44933
 C216 C 0.80828 0.42298 0.45011
 C217 C 0.78690 0.40426 0.44057
 N218 N 0.79460 0.39701 0.45509
 C219 C 0.80758 0.40856 0.46100
 C220 C 0.83555 0.44172 0.45895
 N221 N 0.84409 0.45591 0.45153
 C222 C 0.83397 0.46056 0.43730
 C223 C 0.80286 0.45572 0.40761
 N224 N 0.78908 0.44740 0.39887
 C225 C 0.78366 0.43317 0.40848
 H226 H 0.77669 0.39784 0.43244
 H227 H 0.81630 0.40652 0.47221
 H228 H 0.84045 0.43400 0.46986
 H229 H 0.83703 0.47109 0.42827
 H230 H 0.81063 0.46697 0.40298
 H231 H 0.77309 0.42376 0.40483
 C232 C 0.92718 0.84102 -0.06710
 C233 C 0.91438 0.82725 -0.06723
 C234 C 0.91397 0.81447 -0.08042
 C235 C 0.92702 0.81535 -0.09374
 C236 C 0.93964 0.82911 -0.09345
 C237 C 0.93968 0.84209 -0.08011
 C238 C 0.92939 0.85583 -0.05653
 N239 N 0.94291 0.86615 -0.06284
 C240 C 0.94940 0.85773 -0.07727
 C241 C 0.95011 0.82729 -0.10789
 N242 N 0.94453 0.81268 -0.11737
 C243 C 0.93029 0.80532 -0.10865
 C244 C 0.89886 0.80381 -0.07740
 N245 N 0.89033 0.81013 -0.06291
 C246 C 0.89999 0.82430 -0.05666
 H247 H 0.92143 0.85894 -0.04519
 H248 H 0.95982 0.86295 -0.08557
 H249 H 0.96125 0.83610 -0.11082
 H250 H 0.92245 0.79377 -0.11283
 H251 H 0.89401 0.79287 -0.08555
 H252 H 0.89661 0.83227 -0.04531
 C253 C 0.30170 0.33328 0.82717
 C254 C 0.30156 0.32003 0.83995
 C255 C 0.31471 0.30668 0.84008
 C256 C 0.32813 0.30627 0.82740
 C257 C 0.32841 0.31932 0.81474
 C258 C 0.31503 0.33307 0.81466
 C259 C 0.29122 0.34846 0.82473
 N260 N 0.29776 0.35772 0.81110
 C261 C 0.31231 0.34832 0.80480
 C262 C 0.34357 0.31580 0.80480
 N263 N 0.35238 0.30099 0.81120
 C264 C 0.34291 0.29516 0.82500
 C265 C 0.31224 0.29662 0.85468
 N266 N 0.29784 0.30353 0.86353
 C267 C 0.29119 0.31785 0.85447
 H268 H 0.27972 0.35249 0.83252
 H269 H 0.32078 0.35258 0.79427
 H270 H 0.34809 0.32373 0.79404
 H271 H 0.34643 0.28358 0.83280
 H272 H 0.32097 0.28567 0.85894
 H273 H 0.27989 0.32640 0.85825
 C274 C 0.16355 0.57734 0.56354
 C275 C 0.17802 0.58936 0.56246
 C276 C 0.19188 0.58895 0.57460
 C277 C 0.19140 0.57660 0.58818
 C278 C 0.17702 0.56477 0.58945
 C279 C 0.16294 0.56507 0.57688
 C280 C 0.14818 0.57515 0.55354
 N281 N 0.13806 0.56181 0.56032
 C282 C 0.14699 0.55555 0.57465
 C283 C 0.17978 0.55526 0.60456
 N284 N 0.19540 0.56112 0.61244
 C285 C 0.20255 0.57410 0.60235
 C286 C 0.20346 0.60282 0.57091
 N287 N 0.19683 0.61184 0.55686
 C288 C 0.18124 0.60352 0.55163
 H289 H 0.14479 0.58262 0.54197
 H290 H 0.14214 0.54505 0.58299
 H291 H 0.17067 0.54533 0.60970
 H292 H 0.21496 0.58141 0.60507
 H293 H 0.21561 0.60617 0.57825
 H294 H 0.17227 0.60786 0.54124
 C295 C 0.57883 0.68807 0.05798
 C296 C 0.56452 0.67554 0.05654
 C297 C 0.55091 0.67577 0.06875
 C298 C 0.55142 0.68809 0.08256
 C299 C 0.56551 0.70015 0.08413
 C300 C 0.57922 0.70022 0.07174
 C301 C 0.59434 0.69105 0.04852
 N302 N 0.60397 0.70462 0.05624
 C303 C 0.59477 0.71019 0.07047
 C304 C 0.56343 0.70920 0.09964
 N305 N 0.54840 0.70283 0.10757
 C306 C 0.54094 0.68999 0.09705
 C307 C 0.53958 0.66160 0.06517
 N308 N 0.54588 0.65241 0.05116
 C309 C 0.56110 0.66095 0.04567
 H310 H 0.59843 0.68366 0.03704
 H311 H 0.59896 0.72090 0.07923
 H312 H 0.57281 0.71894 0.10513
 H313 H 0.52899 0.68217 0.09983
 H314 H 0.52778 0.65807 0.07260
 H315 H 0.56962 0.65639 0.03515
 C316 C 0.68238 0.19907 0.66678
 C317 C 0.66891 0.19780 0.67930
 C318 C 0.66862 0.18321 0.69026
 C319 C 0.68207 0.16971 0.68889
 C320 C 0.69544 0.17103 0.67653
 C321 C 0.69554 0.18577 0.66535
 C322 C 0.68457 0.21072 0.65330
 N323 N 0.69872 0.20477 0.64357
 C324 C 0.70558 0.18954 0.65095
 C325 C 0.70596 0.15565 0.67741
 N326 N 0.69938 0.14495 0.69000
 C327 C 0.68471 0.15347 0.69705
 C328 C 0.65297 0.18481 0.69985
 N329 N 0.64382 0.19996 0.69485
 C330 C 0.65362 0.20799 0.68235
 H331 H 0.67606 0.22233 0.65050
 H332 H 0.71632 0.18115 0.64566
 H333 H 0.71756 0.15254 0.66939
 H334 H 0.67619 0.14807 0.70702
 H335 H 0.64817 0.17516 0.70911
 H336 H 0.64974 0.22017 0.67561
 C337 C 1.06862 0.06288 0.19354
 C338 C 1.05323 0.07405 0.19476
 C339 C 1.03931 0.07247 0.18276
 C340 C 1.04061 0.05977 0.16931
 C341 C 1.05586 0.04887 0.16782
 C342 C 1.07010 0.05036 0.18020
 C343 C 1.08451 0.06236 0.20301
 N344 N 1.09587 0.04986 0.19592
 C345 C 1.08715 0.04240 0.18192
 C346 C 1.05381 0.03926 0.15249
 N347 N 1.03766 0.04409 0.14466
 C348 C 1.02967 0.05668 0.15514
 C349 C 1.02706 0.08620 0.18593
 N350 N 1.03333 0.09630 0.19950
 C351 C 1.04932 0.08880 0.20503
 H352 H 1.08750 0.07057 0.21433
 H353 H 1.09293 0.03232 0.17333
 H354 H 1.06367 0.02972 0.14748
 H355 H 1.01726 0.06411 0.15245
 H356 H 1.01488 0.08898 0.17837
 H357 H 1.05820 0.09437 0.21497
 C358 C 0.07836 0.17383 1.06228
 C359 C 0.09160 0.18726 1.06355
 C360 C 0.09016 0.20060 1.07600
 C361 C 0.07548 0.20070 1.08735
 C362 C 0.06250 0.18737 1.08637
 C363 C 0.06391 0.17374 1.07359
 C364 C 0.07665 0.15910 1.05155
 N365 N 0.06157 0.14978 1.05597
 C366 C 0.05368 0.15870 1.06949
 C367 C 0.05050 0.19065 1.09968
 N368 N 0.05584 0.20574 1.10866
 C369 C 0.07121 0.21180 1.10098
 C370 C 0.10527 0.21132 1.07481
 N371 N 0.11599 0.20473 1.06195
 C372 C 0.10763 0.19000 1.05498
 H373 H 0.08577 0.15561 1.04114
 H374 H 0.04161 0.15445 1.07614
 H375 H 0.03872 0.18256 1.10236
 H376 H 0.07946 0.22301 1.10528
 H377 H 0.10824 0.22297 1.08286
 H378 H 0.11307 0.18141 1.04486
 C379 C 0.16069 0.69235 0.66963
 C380 C 0.17404 0.69251 0.65660
 C381 C 0.18844 0.68034 0.65737
 C382 C 0.18981 0.66792 0.67084
 C383 C 0.17675 0.66763 0.68343
 C384 C 0.16216 0.67991 0.68285
 C385 C 0.14478 0.70208 0.67249
 N386 N 0.13672 0.69572 0.68698
 C387 C 0.14736 0.68219 0.69331
 C388 C 0.18098 0.65348 0.69421
 N389 N 0.19638 0.64513 0.68845
 C390 C 0.20185 0.65405 0.67415
 C391 C 0.19881 0.68265 0.64297
 N392 N 0.19124 0.69589 0.63317
 C393 C 0.17611 0.70214 0.64147
 H394 H 0.13933 0.71272 0.66441
 H395 H 0.14465 0.67456 0.70484
 H396 H 0.17294 0.64922 0.70502
 H397 H 0.21365 0.65069 0.66649
 H398 H 0.21100 0.67506 0.63983
 H399 H 0.16694 0.71246 0.63660
 C400 C 1.19246 0.17726 0.19699
 C401 C 1.17849 0.19029 0.19673
 C402 C 1.17943 0.20464 0.18554
 C403 C 1.19420 0.20613 0.17442
 C404 C 1.20789 0.19333 0.17463
 C405 C 1.20709 0.17882 0.18606
 C406 C 1.19448 0.16114 0.20544
 N407 N 1.21001 0.15284 0.19996
 C408 C 1.21777 0.16365 0.18808
 C409 C 1.21922 0.19703 0.16115
 N410 N 1.21270 0.21175 0.15248
 C411 C 1.19739 0.21740 0.16086
 C412 C 1.16354 0.21437 0.18700
 N413 N 1.15284 0.20630 0.19880
 C414 C 1.16194 0.19154 0.20483
 H415 H 1.18484 0.15555 0.21434
 H416 H 1.23016 0.16068 0.18115
 H417 H 1.23094 0.18889 0.15778
 H418 H 1.18826 0.22814 0.15692
 H419 H 1.15999 0.22634 0.17979
 H420 H 1.15663 0.18196 0.21390
 C421 C 0.67869 1.04637 0.55899
 C422 C 0.69193 1.04669 0.57226
 C423 C 0.70648 1.05833 0.57127
 C424 C 0.70799 1.06982 0.55708
 C425 C 0.69508 1.06933 0.54401
 C426 C 0.68032 1.05762 0.54497
 C427 C 0.66215 1.03790 0.55726
 N428 N 0.65373 1.04385 0.54258
 C429 C 0.66482 1.05589 0.53500
 C430 C 0.69874 1.08310 0.53293
 N431 N 0.71353 1.09233 0.53898
 C432 C 0.71929 1.08405 0.55380
 C433 C 0.71622 1.05697 0.58650
 N434 N 0.70798 1.04482 0.59679
 C435 C 0.69309 1.03846 0.58813
 H436 H 0.65629 1.02881 0.56647
 H437 H 0.66169 1.06321 0.52328
 H438 H 0.69014 1.08681 0.52206
 H439 H 0.73054 1.08816 0.56204
 H440 H 0.72829 1.06456 0.58989
 H441 H 0.68331 1.02918 0.59326
 C442 C 0.56501 0.54898 0.16529
 C443 C 0.57761 0.54852 0.17893
 C444 C 0.57818 0.56234 0.19103
 C445 C 0.56567 0.57675 0.18971
 C446 C 0.55313 0.57716 0.17615
 C447 C 0.55293 0.56323 0.16372
 C448 C 0.56351 0.53858 0.15062
 N449 N 0.55095 0.54622 0.13990
 C450 C 0.54422 0.56125 0.14790
 C451 C 0.54357 0.59312 0.17746
 N452 N 0.54985 0.60245 0.19153
 C453 C 0.56346 0.59254 0.19901
 C454 C 0.59340 0.55930 0.20132
 N455 N 0.60200 0.54408 0.19554
 C456 C 0.59223 0.53738 0.18196
 H457 H 0.57165 0.52673 0.14768
 H458 H 0.53473 0.57076 0.14215
 H459 H 0.53277 0.59753 0.16880
 H460 H 0.57153 0.59666 0.21016
 H461 H 0.59847 0.56817 0.21146
 H462 H 0.59581 0.52560 0.17433
 C463 C 0.67586 0.68429 0.18657
 C464 C 0.68847 0.67001 0.18646
 C465 C 0.70114 0.66876 0.17351
 C466 C 0.70128 0.68153 0.16035
 C467 C 0.68882 0.69561 0.16029
 C468 C 0.67600 0.69707 0.17367
 C469 C 0.66169 0.68847 0.19735
 N470 N 0.65312 0.70362 0.19154
 C471 C 0.66184 0.70892 0.17699
 C472 C 0.69162 0.70510 0.14526
 N473 N 0.70536 0.69697 0.13631
 C474 C 0.71135 0.68261 0.14559
 C475 C 0.71116 0.65333 0.17618
 N476 N 0.70484 0.64497 0.19044
 C477 C 0.69093 0.65518 0.19683
 H478 H 0.65771 0.68061 0.20835
 H479 H 0.65828 0.72053 0.16927
 H480 H 0.68374 0.71662 0.14089
 H481 H 0.72214 0.67341 0.14183
 H482 H 0.72223 0.64860 0.16818
 H483 H 0.68273 0.65185 0.20784
 C484 C 0.17836 0.06138 1.05422
 C485 C 0.19051 0.07579 1.05595
 C486 C 0.20306 0.07630 1.06952
 C487 C 0.20357 0.06218 1.08163
 C488 C 0.19183 0.04783 1.07949
 C489 C 0.17922 0.04745 1.06581
 C490 C 0.16318 0.05858 1.04387
 N491 N 0.15477 0.04328 1.04903
 C492 C 0.16477 0.03634 1.06235
 C493 C 0.19371 0.03700 1.09361
 N494 N 0.20612 0.04434 1.10470
 C495 C 0.21244 0.05970 1.09739
 C496 C 0.21229 0.09239 1.06820
 N497 N 0.20566 0.10150 1.05420
 C498 C 0.19229 0.09139 1.04677
 H499 H 0.15800 0.06778 1.03418
 H500 H 0.16146 0.02447 1.06962
 H501 H 0.18600 0.02491 1.09586
 H502 H 0.22185 0.06899 1.10354
 H503 H 0.22282 0.09721 1.07697
 H504 H 0.18446 0.09496 1.03533
 C505 C 0.58626 0.18892 0.57552
 C506 C 0.57286 0.18864 0.58822
 C507 C 0.56069 0.17456 0.58879
 C508 C 0.56168 0.16058 0.57639
 C509 C 0.57490 0.16096 0.56381
 C510 C 0.58736 0.17516 0.56344
 C511 C 0.60069 0.20018 0.57291
 N512 N 0.61077 0.19354 0.55960
 C513 C 0.60258 0.17823 0.55368
 C514 C 0.57310 0.14557 0.55394
 N515 N 0.55915 0.13569 0.56015
 C516 C 0.55211 0.14483 0.57394
 C517 C 0.55020 0.17733 0.60329
 N518 N 0.55582 0.19270 0.61149
 C519 C 0.56962 0.19968 0.60220
 H520 H 0.60371 0.21216 0.58046
 H521 H 0.60773 0.16941 0.54360
 H522 H 0.58137 0.14198 0.54294
 H523 H 0.54111 0.14023 0.58190
 H524 H 0.53981 0.16839 0.60789
 H525 H 0.57702 0.21182 0.60543
 C526 C 0.06998 0.56167 0.70391
 C527 C 0.05942 0.57733 0.70148
 C528 C 0.04647 0.57800 0.68830
 C529 C 0.04385 0.56292 0.67738
 C530 C 0.05395 0.54740 0.68020
 C531 C 0.06705 0.54679 0.69343
 C532 C 0.08567 0.55827 0.71337
 N533 N 0.09234 0.54177 0.70868
 C534 C 0.08078 0.53461 0.69666
 C535 C 0.05066 0.53582 0.66667
 N536 N 0.03898 0.54387 0.65535
 C537 C 0.03452 0.56042 0.66191
 C538 C 0.03932 0.59522 0.68830
 N539 N 0.04742 0.60497 0.70126
 C540 C 0.05986 0.59408 0.70924
 H541 H 0.09257 0.56784 0.72178
 H542 H 0.08275 0.52193 0.68987
 H543 H 0.05713 0.52279 0.66481
 H544 H 0.02633 0.57046 0.65527
 H545 H 0.02916 0.60030 0.67928
 H546 H 0.06850 0.59790 0.72010
 C547 C 0.67486 0.55988 0.07396
 C548 C 0.68874 0.56023 0.08668
 C549 C 0.70229 0.57297 0.08587
 C550 C 0.70211 0.58563 0.07255
 C551 C 0.68835 0.58547 0.06024
 C552 C 0.67471 0.57246 0.06088
 C553 C 0.65968 0.54934 0.07148
 N554 N 0.65034 0.55522 0.05723
 C555 C 0.65949 0.56945 0.05078
 C556 C 0.69088 0.60003 0.04971
 N557 N 0.70592 0.60910 0.05530
 C558 C 0.71288 0.60021 0.06926
 C559 C 0.71327 0.57097 0.10025
 N560 N 0.70672 0.55741 0.11003
 C561 C 0.69171 0.55071 0.10171
 H562 H 0.65587 0.53814 0.07946
 H563 H 0.65526 0.57739 0.03976
 H564 H 0.68187 0.60405 0.03924
 H565 H 0.72477 0.60405 0.07676
 H566 H 0.72504 0.57909 0.10339
 H567 H 0.68304 0.54024 0.10654
 C568 C 0.05550 0.70163 0.57502
 C569 C 0.06970 0.70309 0.56327
 C570 C 0.07158 0.69054 0.55005
 C571 C 0.05925 0.67622 0.54852
 C572 C 0.04522 0.67485 0.56016
 C573 C 0.04332 0.68765 0.57349
 C574 C 0.05128 0.71118 0.58974
 N575 N 0.03673 0.70340 0.59725
 C576 C 0.03177 0.68897 0.58730
 C577 C 0.03623 0.65910 0.55647
 N578 N 0.04438 0.65077 0.54283
 C579 C 0.05849 0.66122 0.53787
 C580 C 0.08711 0.69487 0.54129
 N581 N 0.09462 0.70971 0.54891
 C582 C 0.08403 0.71478 0.56239
 H583 H 0.05888 0.72247 0.59497
 H584 H 0.02076 0.67986 0.58998
 H585 H 0.02511 0.65372 0.56380
 H586 H 0.06779 0.65803 0.52752
 H587 H 0.09282 0.68741 0.53051
 H588 H 0.08659 0.72611 0.57100
 C589 C 0.55172 1.03761 0.67950
 C590 C 0.56573 1.03979 0.69195
 C591 C 0.56425 1.05319 0.70447
 C592 C 0.54895 1.06462 0.70472
 C593 C 0.53529 1.06245 0.69255
 C594 C 0.53661 1.04878 0.68000
 C595 C 0.54991 1.02694 0.66485
 N596 N 0.53399 1.03133 0.65644
 C597 C 0.52590 1.04475 0.66588
 C598 C 0.52323 1.07655 0.69456
 N599 N 0.52923 1.08755 0.70767
 C600 C 0.54498 1.08003 0.71401
 C601 C 0.58017 1.05317 0.71400
 N602 N 0.59144 1.04014 0.70764
 C603 C 0.58267 1.03188 0.69412
 H604 H 0.55974 1.01692 0.66070
 H605 H 0.51365 1.05210 0.66239
 H606 H 0.51128 1.07866 0.68652
 H607 H 0.55388 1.08582 0.72379
 H608 H 0.58331 1.06220 0.72469
 H609 H 0.58841 1.02137 0.68600
 C610 C 0.45988 0.32784 0.93554
 C611 C 0.46046 0.31555 0.92162
 C612 C 0.44865 0.30119 0.92111
 C613 C 0.43615 0.29886 0.93436
 C614 C 0.43547 0.31101 0.94797
 C615 C 0.44742 0.32563 0.94854
 C616 C 0.46875 0.34375 0.93889
 N617 N 0.46199 0.35146 0.95363
 C618 C 0.44888 0.34023 0.95952
 C619 C 0.42097 0.30631 0.95800
 N620 N 0.41287 0.29155 0.95081
 C621 C 0.42221 0.28690 0.93634
 C622 C 0.45095 0.29240 0.90562
 N623 N 0.46400 0.30093 0.89656
 C624 C 0.46992 0.31516 0.90632
 H625 H 0.47871 0.34954 0.93047
 H626 H 0.44074 0.34229 0.97093
 H627 H 0.41617 0.31372 0.96921
 H628 H 0.41895 0.27587 0.92761
 H629 H 0.44293 0.28113 0.90100
 H630 H 0.48005 0.32478 0.90252
 C631 C 0.95020 0.43456 0.33731
 C632 C 0.95306 0.42156 0.32425
 C633 C 0.94139 0.42082 0.31012
 C634 C 0.92677 0.43297 0.30875
 C635 C 0.92395 0.44577 0.32155
 C636 C 0.93579 0.44655 0.33597
 C637 C 0.95873 0.43785 0.35296
 N638 N 0.94995 0.45165 0.36137
 C639 C 0.93584 0.45695 0.35080
 C640 C 0.90823 0.45504 0.31716
 N641 N 0.90150 0.44811 0.30203
 C642 C 0.91284 0.43460 0.29683
 C643 C 0.94649 0.40628 0.30014
 N644 N 0.96109 0.39804 0.30776
 C645 C 0.96521 0.40739 0.32256
 H646 H 0.97051 0.43045 0.35762
 H647 H 0.92578 0.46723 0.35364
 H648 H 0.90186 0.46561 0.32478
 H649 H 0.91108 0.42643 0.28526
 H650 H 0.93941 0.40161 0.28860
 H651 H 0.97601 0.40402 0.33164
 C652 C 0.29320 0.94515 0.42246
 C653 C 0.29374 0.93045 0.43362
 C654 C 0.30790 0.92848 0.44543
 C655 C 0.32174 0.94149 0.44628
 C656 C 0.32107 0.95602 0.43529
 C657 C 0.30673 0.95783 0.42326
 C658 C 0.28208 0.94927 0.40863
 N659 N 0.28852 0.96422 0.40068
 C660 C 0.30361 0.96956 0.40986
 C661 C 0.33658 0.96584 0.43815
 N662 N 0.34697 0.95782 0.45074
 C663 C 0.33777 0.94279 0.45570
 C664 C 0.30546 0.91216 0.45347
 N665 N 0.29021 0.90427 0.44672
 C666 C 0.28299 0.91550 0.43463
 H667 H 0.27043 0.94140 0.40464
 H668 H 0.31258 0.98044 0.40660
 H669 H 0.33990 0.97778 0.43104
 H670 H 0.34222 0.93314 0.46525
 H671 H 0.31455 0.90618 0.46297
 H672 H 0.27088 0.91296 0.42690
 O673 O 0.29831 0.50427 0.77169
 O674 O 0.29093 0.53523 0.77098
 O675 O 0.25287 0.48227 0.79874
 O676 O 0.22282 0.48069 0.79538
 O677 O 0.27304 0.45607 0.75278
 O678 O 0.26910 0.46185 0.72267
 O679 O 0.20018 0.52637 0.75488
 O680 O 0.20827 0.52511 0.78393
 O681 O 0.24376 0.55009 0.72959
 O682 O 0.27708 0.54427 0.72917
 O683 O 0.22096 0.50380 0.70891
 O684 O 0.22257 0.47250 0.71445
 O685 O 0.19885 0.50462 0.73398
 O686 O 0.20724 0.47087 0.73606
 O687 O 0.24220 0.52575 0.70732
 O688 O 0.27622 0.52412 0.71144
 O689 O 0.22335 0.55053 0.75141
 O690 O 0.22963 0.54561 0.78314
 O691 O 0.29741 0.48169 0.75152
 O692 O 0.28814 0.48301 0.72099
 O693 O 0.25318 0.45649 0.77509
 O694 O 0.21959 0.46276 0.77321
 O695 O 0.27455 0.50390 0.79746
 O696 O 0.27149 0.53581 0.79058
 Zr697 Zr 0.27157 0.51442 0.77228
 O698 O 0.25427 0.53121 0.75754
 Zr699 Zr 0.24059 0.48214 0.77415
 O700 O 0.22159 0.49789 0.76021
 Zr701 Zr 0.27027 0.48202 0.74217
 O702 O 0.25226 0.49711 0.72638
 Zr703 Zr 0.22720 0.52545 0.76357
 O704 O 0.24454 0.50978 0.77962
 Zr705 Zr 0.25645 0.52468 0.73113
 O706 O 0.27577 0.50963 0.74569
 Zr707 Zr 0.22515 0.49287 0.73366
 O708 O 0.24308 0.47567 0.74772
 O709 O 0.26762 0.48698 0.76848
 O710 O 0.22929 0.52038 0.73711
 C711 C 0.30576 0.49140 0.76299
 C712 C 0.26603 0.49140 0.80538
 C713 C 0.26545 0.44874 0.76582
 C714 C 0.19167 0.51738 0.74310
 C715 C 0.23091 0.55763 0.73824
 C716 C 0.22870 0.51678 0.70105
 H717 H 0.25727 0.54397 0.75984
 H718 H 0.25417 0.49384 0.71411
 H719 H 0.27616 0.47971 0.77560
 H720 H 0.20915 0.49505 0.76400
 H721 H 0.21438 0.51900 0.79377
 H722 H 0.21241 0.48885 0.79291
 H723 H 0.27367 0.51366 0.70378
 H724 H 0.29432 0.49479 0.72176
 H725 H 0.23869 0.55453 0.77951
 H726 H 0.26017 0.53467 0.79728
 H727 H 0.23441 0.47148 0.70857
 H728 H 0.25719 0.45588 0.72383
 H729 H 0.29507 0.53543 0.75885
 H730 H 0.27618 0.55245 0.73931
 H731 H 0.22189 0.45486 0.76305
 H732 H 0.19865 0.47381 0.74545
 O733 O 0.19671 0.02204 0.24337
 O734 O 0.19746 0.02027 0.27456
 O735 O 0.24600 0.04898 0.23219
 O736 O 0.27589 0.04486 0.23742
 O737 O 0.23022 0.00168 0.20405
 O738 O 0.23309 -0.03030 0.21026
 O739 O 0.28809 0.00149 0.28387
 O740 O 0.28192 0.03259 0.27980
 O741 O 0.23956 -0.02201 0.29818
 O742 O 0.20773 -0.02161 0.28587
 O743 O 0.27032 -0.04530 0.25926
 O744 O 0.27402 -0.03923 0.22793
 O745 O 0.29242 -0.02065 0.26374
 O746 O 0.29205 -0.01892 0.23123
 O747 O 0.24512 -0.04598 0.27591
 O748 O 0.21249 -0.04132 0.26820
 O749 O 0.26032 0.00025 0.30187
 O750 O 0.25730 0.03277 0.29599
 O751 O 0.20103 -0.00040 0.22351
 O752 O 0.20943 -0.03149 0.22542
 O753 O 0.25109 0.02388 0.20795
 O754 O 0.28191 0.02178 0.21996
 O755 O 0.22089 0.04810 0.24909
 O756 O 0.21610 0.04102 0.27861
 Zr757 Zr 0.22066 0.02177 0.25875
 O758 O 0.23419 0.00661 0.27792
 Zr759 Zr 0.25768 0.02306 0.23450
 O760 O 0.27289 0.00792 0.25267
 Zr761 Zr 0.22766 -0.00981 0.22875
 O762 O 0.24148 -0.02653 0.24664
 Zr763 Zr 0.26223 0.01205 0.27745
 O764 O 0.24838 0.02891 0.25965
 Zr765 Zr 0.23222 -0.02094 0.27176
 O766 O 0.21675 -0.00585 0.25358
 Zr767 Zr 0.26919 -0.01974 0.24758
 O768 O 0.25572 -0.00453 0.22809
 O769 O 0.22999 0.01763 0.23380
 O770 O 0.25995 -0.01551 0.27261
 C771 C 0.19143 0.01228 0.23040
 C772 C 0.23177 0.05626 0.23898
 C773 C 0.23995 0.01471 0.19848
 C774 C 0.29734 -0.01159 0.27725
 C775 C 0.25096 -0.01293 0.30747
 C776 C 0.25999 -0.05297 0.27024
 H777 H 0.22886 0.00941 0.28930
 H778 H 0.23973 -0.03931 0.24339
 H779 H 0.22327 0.02519 0.22535
 H780 H 0.28586 0.01132 0.25239
 H781 H 0.27703 0.04312 0.27341
 H782 H 0.28561 0.04113 0.24565
 H783 H 0.21645 -0.04922 0.25855
 H784 H 0.20197 -0.03174 0.23598
 H785 H 0.24568 0.03028 0.30178
 H786 H 0.22791 0.04698 0.28086
 H787 H 0.26333 -0.04722 0.22726
 H788 H 0.24589 -0.02877 0.20674
 H789 H 0.19226 0.00814 0.27261
 H790 H 0.20762 -0.01112 0.29386
 H791 H 0.28179 0.01018 0.21351
 H792 H 0.29942 -0.00835 0.23470
 O793 O 0.55647 0.72523 0.25389
 O794 O 0.54816 0.72513 0.28462
 O795 O 0.50994 0.70363 0.22867
 O796 O 0.47969 0.70948 0.22782
 O797 O 0.53367 0.75251 0.21030
 O798 O 0.53234 0.78366 0.22053
 O799 O 0.45937 0.75092 0.27395
 O800 O 0.46435 0.71904 0.26734
 O801 O 0.50309 0.76853 0.30194
 O802 O 0.53798 0.76470 0.29770
 O803 O 0.48573 0.79695 0.26000
 O804 O 0.49002 0.79349 0.22765
 O805 O 0.46109 0.77388 0.25483
 O806 O 0.46950 0.77583 0.22476
 O807 O 0.50668 0.79434 0.28171
 O808 O 0.53839 0.78741 0.28303
 O809 O 0.48159 0.74695 0.29829
 O810 O 0.48306 0.71599 0.28990
 O811 O 0.55763 0.74867 0.23519
 O812 O 0.55225 0.78017 0.24036
 O813 O 0.51207 0.73089 0.20727
 O814 O 0.47958 0.73406 0.21148
 O815 O 0.53027 0.70106 0.25102
 O816 O 0.52835 0.70507 0.28143
 Zr817 Zr 0.52957 0.72634 0.26352
 O818 O 0.51244 0.74076 0.28056
 Zr819 Zr 0.49930 0.72999 0.23134
 O820 O 0.48113 0.74502 0.24677
 Zr821 Zr 0.53172 0.76070 0.23647
 O822 O 0.51524 0.77686 0.25256
 Zr823 Zr 0.48504 0.73801 0.27277
 O824 O 0.50197 0.72146 0.25717
 Zr825 Zr 0.51758 0.76837 0.27840
 O826 O 0.53616 0.75386 0.26260
 Zr827 Zr 0.48783 0.77254 0.24587
 O828 O 0.50442 0.75771 0.22855
 O829 O 0.52656 0.73328 0.23771
 O830 O 0.49019 0.76552 0.27182
 C831 C 0.56470 0.73482 0.24263
 C832 C 0.52183 0.69475 0.23762
 C833 C 0.52504 0.74048 0.20140
 C834 C 0.45259 0.76464 0.26601
 C835 C 0.48952 0.75930 0.30726
 C836 C 0.49410 0.80299 0.27357
 H837 H 0.51456 0.73660 0.29252
 H838 H 0.51867 0.78963 0.25135
 H839 H 0.53444 0.72594 0.23005
 H840 H 0.46846 0.74280 0.24291
 H841 H 0.47031 0.70842 0.26189
 H842 H 0.46827 0.71371 0.23323
 H843 H 0.54013 0.79398 0.27213
 H844 H 0.55773 0.77785 0.25190
 H845 H 0.49444 0.71534 0.29684
 H846 H 0.51602 0.69989 0.28018
 H847 H 0.49987 0.80161 0.23163
 H848 H 0.52091 0.78360 0.21360
 H849 H 0.55498 0.73658 0.28468
 H850 H 0.53375 0.75542 0.30578
 H851 H 0.48181 0.74611 0.20658
 H852 H 0.46233 0.76465 0.22362
 O853 O -0.01022 0.77759 0.78772
 O854 O 0.02217 0.77611 0.78234
 O855 O -0.03163 0.80404 0.74347
 O856 O -0.03183 0.80040 0.71492
 O857 O -0.05609 0.75512 0.76140
 O858 O -0.04779 0.72366 0.75887
 O859 O 0.01556 0.75846 0.69538
 O860 O 0.01176 0.78954 0.70279
 O861 O 0.04048 0.73365 0.73679
 O862 O 0.03466 0.73503 0.76948
 O863 O -0.00519 0.71045 0.71599
 O864 O -0.03798 0.71651 0.71680
 O865 O -0.00483 0.73560 0.69436
 O866 O -0.03843 0.73685 0.69983
 O867 O 0.01695 0.70963 0.73679
 O868 O 0.01633 0.71461 0.76809
 O869 O 0.03995 0.75698 0.71799
 O870 O 0.03359 0.78910 0.72273
 O871 O -0.03125 0.75531 0.78618
 O872 O -0.02768 0.72393 0.77867
 O873 O -0.05668 0.77787 0.74192
 O874 O -0.04936 0.77700 0.71125
 O875 O -0.00981 0.80355 0.76462
 O876 O 0.02237 0.79706 0.76408
 Zr877 Zr 0.00167 0.77745 0.76292
 O878 O 0.01976 0.76275 0.74694
 Zr879 Zr -0.03023 0.77830 0.73197
 O880 O -0.01360 0.76380 0.71470
 Zr881 Zr -0.02918 0.74519 0.76071
 O882 O -0.01263 0.72906 0.74463
 Zr883 Zr 0.01389 0.76839 0.72086
 O884 O -0.00272 0.78473 0.73688
 Zr885 Zr 0.01498 0.73501 0.74919
 O886 O -0.00158 0.74963 0.76691
 Zr887 Zr -0.01723 0.73608 0.71866
 O888 O -0.03545 0.75063 0.73462
 O889 O -0.02573 0.77274 0.75793
 O890 O 0.01032 0.74070 0.72322
 C891 C -0.02300 0.76815 0.79430
 C892 C -0.02260 0.81147 0.75596
 C893 C -0.06428 0.76783 0.75311
 C894 C 0.00753 0.74531 0.68760
 C895 C 0.04766 0.74316 0.72486
 C896 C 0.00796 0.70255 0.72409
 H897 H 0.03247 0.76567 0.75010
 H898 H -0.01527 0.71623 0.74671
 H899 H -0.03385 0.78005 0.76539
 H900 H -0.01650 0.76737 0.70268
 H901 H 0.00601 0.79992 0.70884
 H902 H -0.02420 0.79740 0.70482
 H903 H 0.00483 0.70779 0.76729
 H904 H -0.01574 0.72497 0.78468
 H905 H 0.04159 0.78674 0.73286
 H906 H 0.02205 0.80321 0.75278
 H907 H -0.03672 0.70857 0.72695
 H908 H -0.05405 0.72477 0.74750
 H909 H 0.02208 0.76364 0.78676
 H910 H 0.04371 0.74443 0.76705
 H911 H -0.05567 0.76532 0.71212
 H912 H -0.03640 0.74734 0.69233
 O913 O 0.00189 0.05346 0.02249
 O914 O -0.02966 0.04650 0.02066
 O915 O 0.02616 0.00354 0.03847
 O916 O 0.02649 -0.02504 0.02921
 O917 O 0.04946 0.03266 -0.00359
 O918 O 0.04131 0.03688 -0.03301
 O919 O -0.02113 -0.03723 -0.01540
 O920 O -0.01760 -0.03691 0.01510
 O921 O -0.04652 0.01022 -0.02937
 O922 O -0.04152 0.04246 -0.02244
 O923 O -0.00071 -0.00644 -0.05491
 O924 O 0.03247 -0.00539 -0.04894
 O925 O 0.00046 -0.03385 -0.03589
 O926 O 0.03353 -0.02700 -0.03342
 O927 O -0.02294 0.01476 -0.05169
 O928 O -0.02169 0.04653 -0.03988
 O929 O -0.04550 -0.01459 -0.01242
 O930 O -0.03904 -0.01624 0.01952
 O931 O 0.02368 0.05690 0.00216
 O932 O 0.02012 0.05571 -0.02929
 O933 O 0.05058 0.00843 0.01418
 O934 O 0.04411 -0.02338 0.00650
 O935 O 0.00361 0.02437 0.04228
 O936 O -0.02889 0.02315 0.03588
 Zr937 Zr -0.00839 0.02743 0.01748
 O938 O -0.02601 0.01403 -0.00008
 Zr939 Zr 0.02449 -0.00310 0.01202
 O940 O 0.00812 -0.01819 -0.00532
 Zr941 Zr 0.02250 0.03311 -0.01295
 O942 O 0.00658 0.01952 -0.03170
 Zr943 Zr -0.01960 -0.01360 -0.00034
 O944 O -0.00321 -0.00051 0.01867
 Zr945 Zr -0.02103 0.02244 -0.02543
 O946 O -0.00518 0.03772 -0.00760
 Zr947 Zr 0.01176 -0.00838 -0.03042
 O948 O 0.02955 0.00553 -0.01328
 O949 O 0.01913 0.02440 0.01222
 O950 O -0.01589 -0.00518 -0.02561
 C951 C 0.01462 0.06243 0.01536
 C952 C 0.01697 0.01460 0.04792
 C953 C 0.05784 0.02213 0.00699
 C954 C -0.01241 -0.04266 -0.02881
 C955 C -0.05344 -0.00436 -0.02361
 C956 C -0.01406 0.00311 -0.06074
 H957 H -0.03880 0.01630 0.00313
 H958 H 0.00920 0.02436 -0.04325
 H959 H 0.02702 0.03089 0.02063
 H960 H 0.01123 -0.03115 -0.00445
 H961 H -0.01144 -0.03325 0.02604
 H962 H 0.01902 -0.03489 0.02425
 H963 H -0.01144 0.04606 -0.04805
 H964 H 0.00833 0.06163 -0.02664
 H965 H -0.04814 -0.00639 0.01842
 H966 H -0.02761 0.01046 0.03956
 H967 H 0.03041 0.00624 -0.05480
 H968 H 0.04705 0.02497 -0.03522
 H969 H -0.03033 0.05346 0.00981
 H970 H -0.04898 0.03920 -0.01240
 H971 H 0.05082 -0.01943 -0.00379
 H972 H 0.03213 -0.03656 -0.02473
 O973 O -0.00793 0.54685 0.52697
 O974 O -0.03954 0.53936 0.52359
 O975 O 0.01278 0.50212 0.55607
 O976 O 0.01384 0.47192 0.55312
 O977 O 0.04152 0.52140 0.51258
 O978 O 0.03762 0.51671 0.48159
 O979 O -0.02874 0.44980 0.50752
 O980 O -0.02722 0.45693 0.53777
 O981 O -0.05218 0.49331 0.48296
 O982 O -0.04580 0.52642 0.48262
 O983 O -0.00324 0.47080 0.46458
 O984 O 0.02905 0.47318 0.47364
 O985 O -0.00537 0.44874 0.48858
 O986 O 0.02776 0.45547 0.49322
 O987 O -0.02600 0.49150 0.46161
 O988 O -0.02573 0.52445 0.46532
 O989 O -0.05307 0.47349 0.50511
 O990 O -0.04929 0.47733 0.53594
 O991 O 0.01576 0.54565 0.50833
 O992 O 0.01695 0.53660 0.47847
 O993 O 0.04040 0.50095 0.53426
 O994 O 0.03463 0.46881 0.53280
 O995 O -0.00931 0.52356 0.55284
 O996 O -0.04053 0.52106 0.54392
 Zr997 Zr -0.01814 0.52042 0.52701
 O998 O -0.03396 0.50306 0.51144
 Zr999 Zr 0.01449 0.48940 0.53168
 O1000 O 0.00004 0.47060 0.51630
 Zr1001 Zr 0.01623 0.51872 0.49955
 O1002 O 0.00183 0.50131 0.48265
 Zr1003 Zr -0.02792 0.47615 0.51776
 O1004 O -0.01369 0.49358 0.53488
 Zr1005 Zr -0.02635 0.50538 0.48549
 O1006 O -0.01188 0.52444 0.50084
 Zr1007 Zr 0.00630 0.47447 0.49014
 O1008 O 0.02251 0.49183 0.50577
 O1009 O 0.00975 0.51622 0.52544
 O1010 O -0.02173 0.47848 0.49166
 C1011 C 0.00534 0.55411 0.51896
 C1012 C 0.00284 0.51517 0.56185
 C1013 C 0.04845 0.51331 0.52581
 C1014 C -0.01909 0.44169 0.49603
 C1015 C -0.06018 0.48125 0.49188
 C1016 C -0.01612 0.47843 0.45584
 H1017 H -0.04695 0.50610 0.51306
 H1018 H 0.00570 0.50334 0.47065
 H1019 H 0.01661 0.52466 0.53302
 H1020 H 0.00280 0.45817 0.52007
 H1021 H -0.02252 0.46318 0.54828
 H1022 H 0.00790 0.46064 0.54923
 H1023 H -0.01399 0.52298 0.45933
 H1024 H 0.00462 0.54200 0.47744
 H1025 H -0.05646 0.48846 0.53387
 H1026 H -0.03997 0.50972 0.55055
 H1027 H 0.02826 0.48362 0.46580
 H1028 H 0.04407 0.50520 0.48396
 H1029 H -0.03811 0.54444 0.51190
 H1030 H -0.05469 0.52536 0.49204
 H1031 H 0.04182 0.46963 0.52210
 H1032 H 0.02499 0.44791 0.50330
 O1033 O 0.50033 0.03590 0.53482
 O1034 O 0.46835 0.02842 0.53315
 O1035 O 0.52502 -0.01341 0.55151
 O1036 O 0.52512 -0.04235 0.54262
 O1037 O 0.54737 0.01518 0.50898
 O1038 O 0.53866 0.01794 0.47885
 O1039 O 0.47884 -0.05641 0.49916
 O1040 O 0.48278 -0.05465 0.53005
 O1041 O 0.45084 -0.00895 0.48573
 O1042 O 0.45658 0.02399 0.49202
 O1043 O 0.49575 -0.02598 0.45874
 O1044 O 0.52980 -0.02262 0.46373
 O1045 O 0.49956 -0.05239 0.47803
 O1046 O 0.53176 -0.04463 0.47883
 O1047 O 0.47360 -0.00471 0.46210
 O1048 O 0.47412 0.02665 0.47239
 O1049 O 0.45310 -0.03367 0.50272
 O1050 O 0.45968 -0.03591 0.53307
 O1051 O 0.52140 0.03919 0.51379
 O1052 O 0.51797 0.03744 0.48292
 O1053 O 0.54905 -0.00905 0.52671
 O1054 O 0.54327 -0.04051 0.52004
 O1055 O 0.50218 0.00716 0.55509
 O1056 O 0.47005 0.00608 0.54948
 Zr1057 Zr 0.49002 0.00970 0.53043
 O1058 O 0.47238 -0.00464 0.51366
 Zr1059 Zr 0.52311 -0.02063 0.52514
 O1060 O 0.50701 -0.03618 0.50803
 Zr1061 Zr 0.52034 0.01502 0.49946
 O1062 O 0.50395 0.00117 0.48122
 Zr1063 Zr 0.47938 -0.03220 0.51364
 O1064 O 0.49555 -0.01818 0.53217
 Zr1065 Zr 0.47644 0.00353 0.48811
 O1066 O 0.49268 0.01944 0.50511
 Zr1067 Zr 0.50972 -0.02652 0.48270
 O1068 O 0.52765 -0.01244 0.49956
 O1069 O 0.51747 0.00681 0.52486
 O1070 O 0.48212 -0.02403 0.48814
 C1071 C 0.51271 0.04489 0.52713
 C1072 C 0.51564 -0.00237 0.56084
 C1073 C 0.55604 0.00471 0.51948
 C1074 C 0.48762 -0.06177 0.48573
 C1075 C 0.44435 -0.02346 0.49211
 C1076 C 0.48198 -0.01680 0.45316
 H1077 H 0.45966 -0.00254 0.51719
 H1078 H 0.50608 0.00586 0.46952
 H1079 H 0.52537 0.01356 0.53308
 H1080 H 0.51059 -0.04901 0.50900
 H1081 H 0.48828 -0.05011 0.54101
 H1082 H 0.51864 -0.05270 0.53732
 H1083 H 0.48515 0.02719 0.46522
 H1084 H 0.50565 0.04260 0.48468
 H1085 H 0.45277 -0.02452 0.53450
 H1086 H 0.47111 -0.00663 0.55317
 H1087 H 0.52609 -0.01214 0.45666
 H1088 H 0.54498 0.00618 0.47747
 H1089 H 0.46838 0.03602 0.52270
 H1090 H 0.44872 0.02025 0.50160
 H1091 H 0.54927 -0.03709 0.50918
 H1092 H 0.53173 -0.05342 0.48836
 O1093 O 0.55289 0.53128 -0.00619
 O1094 O 0.54680 0.52731 -0.03742
 O1095 O 0.50323 0.55332 0.01208
 O1096 O 0.47307 0.54610 0.00871
 O1097 O 0.52750 0.50958 0.03832
 O1098 O 0.52970 0.47734 0.03269
 O1099 O 0.45979 0.49672 -0.03185
 O1100 O 0.46255 0.52999 -0.02976
 O1101 O 0.50868 0.47903 -0.05298
 O1102 O 0.54143 0.48459 -0.04579
 O1103 O 0.48848 0.45524 -0.00931
 O1104 O 0.48951 0.46379 0.02276
 O1105 O 0.46195 0.47653 -0.01005
 O1106 O 0.46718 0.47976 0.02070
 O1107 O 0.51099 0.45639 -0.02910
 O1108 O 0.54301 0.46603 -0.02693
 O1109 O 0.48433 0.49805 -0.05429
 O1110 O 0.48234 0.52864 -0.05165
 O1111 O 0.55374 0.51097 0.01565
 O1112 O 0.55097 0.47912 0.01488
 O1113 O 0.50354 0.52916 0.03663
 O1114 O 0.47230 0.52440 0.02867
 O1115 O 0.52548 0.55419 -0.00809
 O1116 O 0.52567 0.54650 -0.03824
 Zr1117 Zr 0.52689 0.52766 -0.01792
 O1118 O 0.51266 0.50972 -0.03447
 Zr1119 Zr 0.49398 0.52643 0.01102
 O1120 O 0.47860 0.50794 -0.00394
 Zr1121 Zr 0.52888 0.49755 0.01360
 O1122 O 0.51545 0.47810 -0.00169
 Zr1123 Zr 0.48445 0.51127 -0.03017
 O1124 O 0.49846 0.53128 -0.01541
 Zr1125 Zr 0.51983 0.48316 -0.02801
 O1126 O 0.53548 0.50113 -0.01257
 Zr1127 Zr 0.48731 0.48143 0.00146
 O1128 O 0.50084 0.49981 0.01815
 O1129 O 0.52194 0.52405 0.00817
 O1130 O 0.49173 0.48474 -0.02485
 C1131 C 0.56072 0.52374 0.00694
 C1132 C 0.51572 0.56155 0.00378
 C1133 C 0.51671 0.52149 0.04490
 C1134 C 0.45355 0.48358 -0.02296
 C1135 C 0.49470 0.48580 -0.06081
 C1136 C 0.49844 0.44806 -0.02113
 H1137 H 0.51546 0.51240 -0.04664
 H1138 H 0.51969 0.46594 0.00166
 H1139 H 0.52866 0.53261 0.01572
 H1140 H 0.46547 0.50976 -0.00177
 H1141 H 0.46774 0.54185 -0.02649
 H1142 H 0.46265 0.54037 0.00264
 H1143 H 0.54233 0.45892 -0.01621
 H1144 H 0.55694 0.47944 0.00348
 H1145 H 0.49431 0.53443 -0.05280
 H1146 H 0.51358 0.55249 -0.03765
 H1147 H 0.49992 0.45552 0.02073
 H1148 H 0.51769 0.47760 0.03834
 H1149 H 0.55452 0.51650 -0.03540
 H1150 H 0.53860 0.49444 -0.05395
 H1151 H 0.47419 0.51297 0.03497
 H1152 H 0.45888 0.49024 0.01933
 O1153 O 0.75469 0.26415 0.45418
 O1154 O 0.72285 0.25903 0.45978
 O1155 O 0.77209 0.29482 0.49777
 O1156 O 0.77134 0.29217 0.52680
 O1157 O 0.80367 0.24989 0.48070
 O1158 O 0.80105 0.21773 0.48386
 O1159 O 0.73156 0.24355 0.54620
 O1160 O 0.73062 0.27483 0.53936
 O1161 O 0.71094 0.21619 0.50313
 O1162 O 0.71761 0.21592 0.47212
 O1163 O 0.75969 0.19937 0.52639
 O1164 O 0.79184 0.20986 0.52495
 O1165 O 0.75622 0.22493 0.54791
 O1166 O 0.78873 0.22985 0.54248
 O1167 O 0.73856 0.19527 0.50503
 O1168 O 0.73971 0.19993 0.47306
 O1169 O 0.70821 0.23870 0.52311
 O1170 O 0.70945 0.27141 0.51905
 O1171 O 0.77880 0.24475 0.45586
 O1172 O 0.78163 0.21399 0.46416
 O1173 O 0.80069 0.27267 0.50042
 O1174 O 0.79327 0.27187 0.53075
 O1175 O 0.75034 0.29080 0.47688
 O1176 O 0.71973 0.28034 0.47767
 Zr1177 Zr 0.74312 0.26357 0.47897
 O1178 O 0.72754 0.24687 0.49476
 Zr1179 Zr 0.77426 0.26965 0.51000
 O1180 O 0.76005 0.25322 0.52721
 Zr1181 Zr 0.77888 0.23597 0.48159
 O1182 O 0.76493 0.21803 0.49746
 Zr1183 Zr 0.73218 0.25363 0.52091
 O1184 O 0.74605 0.27193 0.50502
 Zr1185 Zr 0.73681 0.22014 0.49240
 O1186 O 0.75098 0.23651 0.47495
 Zr1187 Zr 0.76808 0.22618 0.52343
 O1188 O 0.78388 0.24292 0.50765
 O1189 O 0.77095 0.26279 0.48405
 O1190 O 0.74013 0.22671 0.51851
 C1191 C 0.76846 0.25584 0.44759
 C1192 C 0.76201 0.30051 0.48517
 C1193 C 0.80976 0.26368 0.48910
 C1194 C 0.74198 0.23240 0.55434
 C1195 C 0.70232 0.22457 0.51519
 C1196 C 0.74804 0.18971 0.51802
 H1197 H 0.71455 0.24798 0.49145
 H1198 H 0.76960 0.20566 0.49543
 H1199 H 0.77785 0.27079 0.47640
 H1200 H 0.76220 0.25739 0.53925
 H1201 H 0.73478 0.28587 0.53356
 H1202 H 0.76503 0.28805 0.53725
 H1203 H 0.75111 0.19316 0.47553
 H1204 H 0.76962 0.21248 0.45838
 H1205 H 0.70218 0.26805 0.50867
 H1206 H 0.71895 0.28662 0.48901
 H1207 H 0.79125 0.20088 0.51542
 H1208 H 0.80676 0.22003 0.49533
 H1209 H 0.72535 0.24694 0.45477
 H1210 H 0.70895 0.22620 0.47219
 H1211 H 0.80114 0.26097 0.53030
 H1212 H 0.78574 0.24090 0.54918
 O1213 O 0.77292 0.79991 -0.00575
 O1214 O 0.77497 0.79206 0.02355
 O1215 O 0.79338 0.75264 -0.03162
 O1216 O 0.78567 0.72190 -0.03115
 O1217 O 0.74514 0.77843 -0.05060
 O1218 O 0.71455 0.77967 -0.04242
 O1219 O 0.74505 0.70621 0.01492
 O1220 O 0.77685 0.70960 0.01293
 O1221 O 0.72744 0.75308 0.04081
 O1222 O 0.72828 0.78430 0.03597
 O1223 O 0.69853 0.73309 -0.00330
 O1224 O 0.70260 0.73452 -0.03406
 O1225 O 0.72158 0.70780 -0.00445
 O1226 O 0.72230 0.71553 -0.03659
 O1227 O 0.70146 0.75266 0.01936
 O1228 O 0.70940 0.78685 0.01652
 O1229 O 0.74714 0.72941 0.03872
 O1230 O 0.78117 0.73061 0.02982
 O1231 O 0.74968 0.80249 -0.02531
 O1232 O 0.71681 0.79752 -0.02133
 O1233 O 0.76533 0.75519 -0.05354
 O1234 O 0.76275 0.72276 -0.04761
 O1235 O 0.79641 0.77385 -0.01030
 O1236 O 0.79248 0.76951 0.02144
 Zr1237 Zr 0.77135 0.77340 0.00296
 O1238 O 0.75529 0.75853 0.02001
 Zr1239 Zr 0.76665 0.74331 -0.02879
 O1240 O 0.75140 0.72641 -0.01285
 Zr1241 Zr 0.73673 0.77710 -0.02489
 O1242 O 0.71955 0.76125 -0.00981
 Zr1243 Zr 0.75783 0.73117 0.01344
 O1244 O 0.77527 0.74590 -0.00274
 Zr1245 Zr 0.72741 0.76439 0.01619
 O1246 O 0.74375 0.78152 0.00124
 Zr1247 Zr 0.72384 0.73369 -0.01530
 O1248 O 0.73890 0.74970 -0.03236
 O1249 O 0.76419 0.77058 -0.02297
 O1250 O 0.73016 0.73696 0.01090
 C1251 C 0.76356 0.80883 -0.01693
 C1252 C 0.80241 0.76489 -0.02346
 C1253 C 0.75621 0.76874 -0.05953
 C1254 C 0.73093 0.69964 0.00734
 C1255 C 0.73555 0.73920 0.04706
 C1256 C 0.69254 0.74085 0.01040
 H1257 H 0.75928 0.76104 0.03205
 H1258 H 0.70673 0.76491 -0.01182
 H1259 H 0.77154 0.77814 -0.03064
 H1260 H 0.75358 0.71368 -0.01618
 H1261 H 0.77709 0.70490 0.00093
 H1262 H 0.79228 0.72123 -0.01992
 H1263 H 0.69848 0.78374 0.00953
 H1264 H 0.71993 0.80382 -0.01035
 H1265 H 0.77911 0.73924 0.03946
 H1266 H 0.79899 0.75828 0.01809
 H1267 H 0.69647 0.74639 -0.03299
 H1268 H 0.71302 0.76770 -0.04800
 H1269 H 0.76312 0.79834 0.02498
 H1270 H 0.74087 0.78443 0.04065
 H1271 H 0.75084 0.72520 -0.05331
 H1272 H 0.73137 0.70580 -0.03467
 O1273 O 0.99828 0.20030 0.23170
 O1274 O 0.96693 0.20939 0.23361
 O1275 O 1.02163 0.24413 0.20458
 O1276 O 1.02425 0.27389 0.20787
 O1277 O 1.04827 0.22325 0.25028
 O1278 O 1.04300 0.22663 0.28047
 O1279 O 0.98090 0.29830 0.25099
 O1280 O 0.98212 0.29091 0.22096
 O1281 O 0.95529 0.25622 0.27510
 O1282 O 0.95905 0.22340 0.27534
 O1283 O 1.00456 0.27526 0.29545
 O1284 O 1.03656 0.27163 0.28773
 O1285 O 1.00324 0.29773 0.27163
 O1286 O 1.03636 0.28925 0.26796
 O1287 O 0.98091 0.25587 0.29705
 O1288 O 0.98014 0.22215 0.29218
 O1289 O 0.95520 0.27615 0.25299
 O1290 O 0.95933 0.27186 0.22203
 O1291 O 1.02101 0.19989 0.25198
 O1292 O 1.02131 0.20866 0.28213
 O1293 O 1.04844 0.24326 0.22821
 O1294 O 1.04352 0.27615 0.22950
 O1295 O 0.99903 0.22350 0.20635
 O1296 O 0.96733 0.22842 0.21342
 Zr1297 Zr 0.98906 0.22723 0.23161
 O1298 O 0.97341 0.24520 0.24671
 Zr1299 Zr 1.02292 0.25635 0.22920
 O1300 O 1.00860 0.27582 0.24384
 Zr1301 Zr 1.02235 0.22666 0.26115
 O1302 O 1.00840 0.24488 0.27737
 Zr1303 Zr 0.98046 0.27185 0.24101
 O1304 O 0.99471 0.25390 0.22441
 Zr1305 Zr 0.98026 0.24232 0.27301
 O1306 O 0.99417 0.22259 0.25809
 Zr1307 Zr 1.01414 0.27147 0.27023
 O1308 O 1.03001 0.25320 0.25547
 O1309 O 1.01702 0.22978 0.23491
 O1310 O 0.98603 0.26899 0.26734
 C1311 C 1.01085 0.19220 0.24047
 C1312 C 1.01175 0.23142 0.19813
 C1313 C 1.05598 0.23095 0.23753
 C1314 C 0.99037 0.30570 0.26319
 C1315 C 0.94791 0.26897 0.26624
 C1316 C 0.99130 0.26815 0.30348
 H1317 H 0.96034 0.24295 0.24455
 H1318 H 1.01191 0.24250 0.28953
 H1319 H 1.02395 0.22108 0.22772
 H1320 H 1.01194 0.28808 0.24023
 H1321 H 0.98694 0.28441 0.21072
 H1322 H 1.01742 0.28498 0.21097
 H1323 H 0.99086 0.22403 0.29985
 H1324 H 1.00895 0.20346 0.28193
 H1325 H 0.95164 0.26119 0.22384
 H1326 H 0.96884 0.23972 0.20692
 H1327 H 1.03535 0.26113 0.29539
 H1328 H 1.04965 0.23809 0.27931
 H1329 H 0.96750 0.20451 0.24547
 H1330 H 0.95135 0.22410 0.26477
 H1331 H 1.05079 0.27442 0.24024
 H1332 H 1.03367 0.29751 0.25828
 O1333 O 0.69911 1.01646 0.74353
 O1334 O 0.70761 1.01642 0.77400
 O1335 O 0.74331 1.04377 0.72061
 O1336 O 0.77379 1.04073 0.71983
 O1337 O 0.72377 0.99416 0.69847
 O1338 O 0.72844 0.96289 0.70609
 O1339 O 0.79814 0.99948 0.76429
 O1340 O 0.79023 1.03072 0.75965
 O1341 O 0.75630 0.97623 0.78950
 O1342 O 0.72175 0.97626 0.78483
 O1343 O 0.77608 0.95134 0.74584
 O1344 O 0.77228 0.95648 0.71411
 O1345 O 0.79864 0.97711 0.74398
 O1346 O 0.79052 0.97641 0.71310
 O1347 O 0.75542 0.95111 0.76741
 O1348 O 0.72270 0.95530 0.76803
 O1349 O 0.77562 0.99989 0.78809
 O1350 O 0.77089 1.03117 0.78144
 O1351 O 0.69973 0.99342 0.72388
 O1352 O 0.70901 0.96263 0.72578
 O1353 O 0.74356 1.01749 0.69728
 O1354 O 0.77627 1.01701 0.70226
 O1355 O 0.72276 1.04329 0.74235
 O1356 O 0.72564 1.03809 0.77258
 Zr1357 Zr 0.72608 1.01766 0.75332
 O1358 O 0.74442 1.00393 0.76983
 Zr1359 Zr 0.75627 1.01837 0.72173
 O1360 O 0.77587 1.00445 0.73676
 Zr1361 Zr 0.72699 0.98460 0.72398
 O1362 O 0.74512 0.96925 0.73932
 Zr1363 Zr 0.77135 1.00973 0.76306
 O1364 O 0.75299 1.02538 0.74800
 Zr1365 Zr 0.74201 0.97609 0.76560
 O1366 O 0.72212 0.98972 0.75040
 Zr1367 Zr 0.77199 0.97650 0.73384
 O1368 O 0.75386 0.99046 0.71706
 O1369 O 0.72942 1.01230 0.72714
 O1370 O 0.76898 0.98188 0.76013
 C1371 C 0.69143 1.00604 0.73222
 C1372 C 0.73064 1.05105 0.72973
 C1373 C 0.73139 1.00718 0.69050
 C1374 C 0.80622 0.98673 0.75591
 C1375 C 0.76884 0.98642 0.79591
 C1376 C 0.76835 0.94383 0.75871
 H1377 H 0.74191 1.00725 0.78198
 H1378 H 0.74293 0.95631 0.73709
 H1379 H 0.72065 1.01915 0.71986
 H1380 H 0.78826 1.00809 0.73347
 H1381 H 0.78340 1.04093 0.75446
 H1382 H 0.78546 1.03751 0.72559
 H1383 H 0.72296 0.94800 0.75725
 H1384 H 0.70382 0.96324 0.73753
 H1385 H 0.75990 1.02993 0.78855
 H1386 H 0.73732 1.04456 0.77174
 H1387 H 0.76240 0.94791 0.71644
 H1388 H 0.73989 0.96437 0.69966
 H1389 H 0.70255 1.00409 0.77379
 H1390 H 0.72435 0.98628 0.79302
 H1391 H 0.77518 1.00504 0.69657
 H1392 H 0.79706 0.98800 0.71346
 O1393 O 0.79997 0.50242 0.27576
 O1394 O 0.79222 0.53330 0.27498
 O1395 O 0.75328 0.47885 0.29905
 O1396 O 0.72363 0.47688 0.29382
 O1397 O 0.77692 0.45438 0.25357
 O1398 O 0.77562 0.46106 0.22374
 O1399 O 0.70292 0.52343 0.25264
 O1400 O 0.70871 0.52114 0.28218
 O1401 O 0.74755 0.54821 0.23103
 O1402 O 0.78076 0.54341 0.23238
 O1403 O 0.72762 0.50167 0.20787
 O1404 O 0.72921 0.47014 0.21347
 O1405 O 0.70372 0.50243 0.23102
 O1406 O 0.71185 0.46862 0.23354
 O1407 O 0.74826 0.52427 0.20805
 O1408 O 0.78201 0.52337 0.21460
 O1409 O 0.72594 0.54799 0.25179
 O1410 O 0.72973 0.54213 0.28349
 O1411 O 0.80104 0.48039 0.25508
 O1412 O 0.79409 0.48270 0.22399
 O1413 O 0.75554 0.45370 0.27453
 O1414 O 0.72208 0.45960 0.27102
 O1415 O 0.77414 0.50135 0.29971
 O1416 O 0.77139 0.53330 0.29311
 Zr1417 Zr 0.77309 0.51219 0.27459
 O1418 O 0.75653 0.52895 0.25911
 Zr1419 Zr 0.74272 0.47923 0.27375
 O1420 O 0.72437 0.49496 0.25899
 Zr1421 Zr 0.77468 0.48061 0.24380
 O1422 O 0.75744 0.49558 0.22722
 Zr1423 Zr 0.72920 0.52253 0.26329
 O1424 O 0.74569 0.50683 0.28005
 Zr1425 Zr 0.76071 0.52311 0.23278
 O1426 O 0.77932 0.50821 0.24827
 Zr1427 Zr 0.72995 0.49064 0.23269
 O1428 O 0.74728 0.47353 0.24746
 O1429 O 0.77001 0.48475 0.26998
 O1430 O 0.73328 0.51814 0.23694
 C1431 C 0.80832 0.48990 0.26733
 C1432 C 0.76542 0.48845 0.30680
 C1433 C 0.76844 0.44643 0.26569
 C1434 C 0.69566 0.51491 0.23983
 C1435 C 0.73419 0.55541 0.23919
 C1436 C 0.73561 0.51492 0.20072
 H1437 H 0.75911 0.54170 0.26189
 H1438 H 0.76031 0.49260 0.21507
 H1439 H 0.77810 0.47739 0.27748
 H1440 H 0.71171 0.49186 0.26186
 H1441 H 0.71423 0.51498 0.29230
 H1442 H 0.71319 0.48484 0.29089
 H1443 H 0.78025 0.51305 0.20657
 H1444 H 0.80019 0.49444 0.22572
 H1445 H 0.73917 0.55110 0.28093
 H1446 H 0.75968 0.53184 0.29910
 H1447 H 0.74112 0.47009 0.20766
 H1448 H 0.76364 0.45506 0.22358
 H1449 H 0.79723 0.53380 0.26318
 H1450 H 0.77942 0.55088 0.24296
 H1451 H 0.72503 0.45218 0.26070
 H1452 H 0.70235 0.47155 0.24211
 O1453 O 0.49379 0.19312 0.73192
 O1454 O 0.46198 0.20124 0.73231
 O1455 O 0.51682 0.23760 0.70503
 O1456 O 0.51690 0.26787 0.70795
 O1457 O 0.54214 0.21827 0.75120
 O1458 O 0.53578 0.22260 0.78144
 O1459 O 0.47213 0.29090 0.74896
 O1460 O 0.47482 0.28272 0.71895
 O1461 O 0.44734 0.24884 0.77320
 O1462 O 0.45195 0.21490 0.77225
 O1463 O 0.49387 0.26884 0.79483
 O1464 O 0.52670 0.26624 0.78849
 O1465 O 0.49346 0.29129 0.77054
 O1466 O 0.52655 0.28419 0.76909
 O1467 O 0.47215 0.24730 0.79605
 O1468 O 0.47130 0.21479 0.79079
 O1469 O 0.44712 0.26811 0.75056
 O1470 O 0.45207 0.26361 0.72013
 O1471 O 0.51584 0.19419 0.75284
 O1472 O 0.51518 0.20322 0.78264
 O1473 O 0.54215 0.23835 0.72920
 O1474 O 0.53619 0.27079 0.73004
 O1475 O 0.49467 0.21640 0.70598
 O1476 O 0.46271 0.21962 0.71176
 Zr1477 Zr 0.48357 0.21978 0.73086
 O1478 O 0.46654 0.23736 0.74506
 Zr1479 Zr 0.51619 0.25040 0.72938
 O1480 O 0.50062 0.26933 0.74345
 Zr1481 Zr 0.51582 0.22107 0.76152
 O1482 O 0.50022 0.23855 0.77704
 Zr1483 Zr 0.47283 0.26424 0.73947
 O1484 O 0.48835 0.24663 0.72360
 Zr1485 Zr 0.47238 0.23484 0.77157
 O1486 O 0.48796 0.21567 0.75754
 Zr1487 Zr 0.50511 0.26536 0.77009
 O1488 O 0.52244 0.24787 0.75591
 O1489 O 0.51122 0.22363 0.73513
 O1490 O 0.47730 0.26174 0.76604
 C1491 C 0.50634 0.18575 0.74133
 C1492 C 0.50767 0.22452 0.69833
 C1493 C 0.54981 0.22611 0.73849
 C1494 C 0.48089 0.29880 0.76135
 C1495 C 0.43990 0.26132 0.76402
 C1496 C 0.48138 0.26030 0.80272
 H1497 H 0.45364 0.23466 0.74246
 H1498 H 0.50331 0.23624 0.78931
 H1499 H 0.51871 0.21506 0.72831
 H1500 H 0.50369 0.28168 0.73989
 H1501 H 0.47984 0.27597 0.70894
 H1502 H 0.51035 0.27908 0.71121
 H1503 H 0.48267 0.21555 0.79776
 H1504 H 0.50309 0.19743 0.78223
 H1505 H 0.44537 0.25219 0.72118
 H1506 H 0.46365 0.23112 0.70547
 H1507 H 0.52531 0.25590 0.79631
 H1508 H 0.54222 0.23412 0.77990
 H1509 H 0.46202 0.19683 0.74435
 H1510 H 0.44289 0.21749 0.76300
 H1511 H 0.54278 0.26975 0.74124
 H1512 H 0.52483 0.29139 0.75849
 O1513 O 0.26818 0.80071 0.49456
 O1514 O 0.26878 0.79367 0.52382
 O1515 O 0.28936 0.75048 0.47215
 O1516 O 0.28101 0.72234 0.46896
 O1517 O 0.24261 0.77866 0.44879
 O1518 O 0.21154 0.78032 0.45545
 O1519 O 0.23789 0.70791 0.51612
 O1520 O 0.26905 0.71053 0.51433
 O1521 O 0.21873 0.75530 0.53972
 O1522 O 0.22156 0.78688 0.53452
 O1523 O 0.19251 0.73550 0.49485
 O1524 O 0.19778 0.73501 0.46502
 O1525 O 0.21517 0.70952 0.49595
 O1526 O 0.21828 0.71644 0.46325
 O1527 O 0.19438 0.75612 0.51675
 O1528 O 0.20370 0.78956 0.51434
 O1529 O 0.23791 0.73113 0.53900
 O1530 O 0.27248 0.73289 0.53315
 O1531 O 0.24614 0.80295 0.47370
 O1532 O 0.21296 0.79866 0.47626
 O1533 O 0.26342 0.75578 0.44802
 O1534 O 0.25667 0.72259 0.45427
 O1535 O 0.29167 0.77333 0.49190
 O1536 O 0.28566 0.77072 0.52345
 Zr1537 Zr 0.26576 0.77434 0.50374
 O1538 O 0.24849 0.76031 0.52040
 Zr1539 Zr 0.26189 0.74345 0.47253
 O1540 O 0.24575 0.72726 0.48833
 Zr1541 Zr 0.23273 0.77789 0.47408
 O1542 O 0.21452 0.76278 0.48878
 Zr1543 Zr 0.25081 0.73273 0.51472
 O1544 O 0.26928 0.74658 0.49890
 Zr1545 Zr 0.22099 0.76658 0.51508
 O1546 O 0.23843 0.78290 0.50042
 Zr1547 Zr 0.21850 0.73497 0.48428
 O1548 O 0.23457 0.75029 0.46739
 O1549 O 0.25997 0.77093 0.47757
 O1550 O 0.22345 0.73898 0.51060
 C1551 C 0.25948 0.80941 0.48274
 C1552 C 0.29832 0.76291 0.48004
 C1553 C 0.25485 0.76919 0.44112
 C1554 C 0.22393 0.70143 0.50820
 C1555 C 0.22580 0.74108 0.54645
 C1556 C 0.18577 0.74419 0.50770
 H1557 H 0.25177 0.76305 0.53258
 H1558 H 0.20191 0.76661 0.48598
 H1559 H 0.26817 0.77811 0.47035
 H1560 H 0.24796 0.71438 0.48557
 H1561 H 0.27975 0.71433 0.50768
 H1562 H 0.27946 0.71399 0.47870
 H1563 H 0.19375 0.78713 0.50591
 H1564 H 0.21572 0.80531 0.48714
 H1565 H 0.26912 0.74099 0.54286
 H1566 H 0.29178 0.75902 0.52107
 H1567 H 0.19317 0.74754 0.46413
 H1568 H 0.21041 0.76835 0.44976
 H1569 H 0.25671 0.79954 0.52511
 H1570 H 0.23352 0.78606 0.54049
 H1571 H 0.24695 0.72702 0.44635
 H1572 H 0.22615 0.70606 0.46640
 O1573 O 0.26524 0.26870 0.96231
 O1574 O 0.23355 0.26724 0.96918
 O1575 O 0.28842 0.29461 1.00673
 O1576 O 0.28842 0.29025 1.03545
 O1577 O 0.31373 0.24773 0.98553
 O1578 O 0.30795 0.21608 0.98709
 O1579 O 0.24404 0.24508 1.05391
 O1580 O 0.24593 0.27651 1.04875
 O1581 O 0.21872 0.22307 1.00956
 O1582 O 0.22472 0.22279 0.97895
 O1583 O 0.26641 0.19951 1.03103
 O1584 O 0.29923 0.20633 1.02874
 O1585 O 0.26656 0.22390 1.05363
 O1586 O 0.29956 0.22615 1.04678
 O1587 O 0.24311 0.19930 1.01141
 O1588 O 0.24549 0.20473 0.97873
 O1589 O 0.21903 0.24404 1.03120
 O1590 O 0.22381 0.27645 1.02918
 O1591 O 0.28728 0.24695 0.96169
 O1592 O 0.28690 0.21531 0.96839
 O1593 O 0.31408 0.26926 1.00673
 O1594 O 0.30768 0.26729 1.03760
 O1595 O 0.26617 0.29392 0.98598
 O1596 O 0.23392 0.28731 0.98883
 Zr1597 Zr 0.25511 0.26787 0.98757
 O1598 O 0.23846 0.25173 1.00287
 Zr1599 Zr 0.28793 0.26859 1.01742
 O1600 O 0.27257 0.25279 1.03428
 Zr1601 Zr 0.28763 0.23644 0.98694
 O1602 O 0.27261 0.21905 1.00260
 Zr1603 Zr 0.24462 0.25643 1.02915
 O1604 O 0.25993 0.27421 1.01385
 Zr1605 Zr 0.24474 0.22433 0.99885
 O1606 O 0.25969 0.24040 0.98169
 Zr1607 Zr 0.27758 0.22537 1.02878
 O1608 O 0.29444 0.24121 1.01313
 O1609 O 0.28284 0.26370 0.99132
 O1610 O 0.24967 0.22907 1.02507
 C1611 C 0.27773 0.25957 0.95458
 C1612 C 0.27916 0.30185 0.99432
 C1613 C 0.32159 0.26028 0.99439
 C1614 C 0.25351 0.23247 1.06105
 C1615 C 0.21130 0.23144 1.02230
 C1616 C 0.25261 0.19203 1.02363
 H1617 H 0.22557 0.25438 1.00002
 H1618 H 0.27576 0.20637 0.99986
 H1619 H 0.29028 0.27128 0.98375
 H1620 H 0.27562 0.25601 1.04642
 H1621 H 0.25114 0.28737 1.04344
 H1622 H 0.28163 0.28641 1.04572
 H1623 H 0.25468 0.19546 0.98189
 H1624 H 0.27454 0.21552 0.96315
 H1625 H 0.21661 0.27521 1.01835
 H1626 H 0.23539 0.29368 1.00007
 H1627 H 0.29757 0.19833 1.01853
 H1628 H 0.31398 0.21671 0.99861
 H1629 H 0.23424 0.25532 0.96334
 H1630 H 0.21782 0.23429 0.97906
 H1631 H 0.31471 0.25598 1.03585
 H1632 H 0.29754 0.23654 1.05467
 C1633 C 0.28151 0.38653 0.81659
 C1634 C 0.29085 0.37492 0.80515
 C1635 C 0.29317 0.38037 0.78791
 C1636 C 0.28611 0.39703 0.78222
 C1637 C 0.27652 0.40833 0.79385
 C1638 C 0.27437 0.40299 0.81100
 C1639 C 0.26941 0.42491 0.78824
 C1640 C 0.27197 0.43063 0.77117
 C1641 C 0.28163 0.41936 0.75969
 C1642 C 0.28852 0.40266 0.76513
 H1643 H 0.30024 0.37161 0.77890
 H1644 H 0.26724 0.41158 0.82014
 H1645 H 0.26225 0.43355 0.79734
 H1646 H 0.29586 0.39422 0.75601
 H1647 H 0.27985 0.38303 0.83001
 H1648 H 0.28387 0.42347 0.74650
 C1649 C 0.31195 -0.11783 0.28445
 C1650 C 0.30090 -0.12724 0.29613
 C1651 C 0.28367 -0.11965 0.30009
 C1652 C 0.27767 -0.10345 0.29249
 C1653 C 0.28895 -0.09440 0.28084
 C1654 C 0.30607 -0.10168 0.27698
 C1655 C 0.28301 -0.07817 0.27331
 C1656 C 0.26584 -0.07073 0.27729
 C1657 C 0.25467 -0.07996 0.28885
 C1658 C 0.26050 -0.09614 0.29633
 H1659 H 0.27458 -0.12642 0.30871
 H1660 H 0.31499 -0.09486 0.26818
 H1661 H 0.29188 -0.07124 0.26454
 H1662 H 0.25161 -0.10286 0.30522
 H1663 H 0.32543 -0.12254 0.28119
 H1664 H 0.24142 -0.07461 0.29227
 C1665 C 0.77056 0.87443 0.80261
 C1666 C 0.78315 0.86434 0.79264
 C1667 C 0.79052 0.87272 0.77792
 C1668 C 0.78542 0.89034 0.77333
 C1669 C 0.77276 0.89999 0.78346
 C1670 C 0.76550 0.89196 0.79808
 C1671 C 0.76744 0.91748 0.77874
 C1672 C 0.77455 0.92554 0.76388
 C1673 C 0.78733 0.91587 0.75398
 C1674 C 0.79270 0.89843 0.75865
 H1675 H 0.79998 0.86563 0.76966
 H1676 H 0.75582 0.89924 0.80606
 H1677 H 0.75766 0.92475 0.78661
 H1678 H 0.80248 0.89124 0.75072
 H1679 H 0.76458 0.86909 0.81412
 H1680 H 0.79306 0.92169 0.74251
 C1681 C 0.44926 0.87391 0.27938
 C1682 C 0.45648 0.88013 0.29542
 C1683 C 0.47079 0.86998 0.30309
 C1684 C 0.47708 0.85390 0.29542
 C1685 C 0.46928 0.84775 0.27968
 C1686 C 0.45556 0.85798 0.27167
 C1687 C 0.47514 0.83135 0.27233
 C1688 C 0.48869 0.82089 0.28061
 C1689 C 0.49654 0.82733 0.29617
 C1690 C 0.49081 0.84366 0.30348
 H1691 H 0.47678 0.87401 0.31534
 H1692 H 0.44955 0.85357 0.25948
 H1693 H 0.46893 0.82661 0.26034
 H1694 H 0.49696 0.84815 0.31558
 H1695 H 0.43875 0.88127 0.27250
 H1696 H 0.50696 0.81962 0.30291
 C1697 C -0.02223 0.88178 0.80005
 C1698 C -0.03606 0.89127 0.79091
 C1699 C -0.04393 0.88275 0.77619
 C1700 C -0.03842 0.86537 0.77099
 C1701 C -0.02476 0.85614 0.78046
 C1702 C -0.01672 0.86449 0.79490
 C1703 C -0.01945 0.83866 0.77541
 C1704 C -0.02768 0.83019 0.76095
 C1705 C -0.04117 0.83963 0.75152
 C1706 C -0.04646 0.85704 0.75647
 H1707 H -0.05422 0.88952 0.76847
 H1708 H -0.00623 0.85759 0.80235
 H1709 H -0.00906 0.83160 0.78286
 H1710 H -0.05695 0.86392 0.74901
 H1711 H -0.01575 0.88730 0.81151
 H1712 H -0.04776 0.83353 0.74033
 C1713 C -0.06371 -0.10610 -0.04598
 C1714 C -0.05153 -0.11658 -0.05589
 C1715 C -0.03393 -0.10995 -0.05877
 C1716 C -0.02853 -0.09329 -0.05162
 C1717 C -0.04082 -0.08319 -0.04138
 C1718 C -0.05840 -0.08964 -0.03876
 C1719 C -0.03539 -0.06677 -0.03393
 C1720 C -0.01784 -0.06009 -0.03669
 C1721 C -0.00579 -0.07003 -0.04716
 C1722 C -0.01104 -0.08655 -0.05447
 H1723 H -0.02435 -0.11783 -0.06630
 H1724 H -0.06807 -0.08194 -0.03113
 H1725 H -0.04493 -0.05910 -0.02612
 H1726 H -0.00144 -0.09405 -0.06234
 H1727 H -0.07748 -0.11051 -0.04389
 H1728 H 0.00779 -0.06513 -0.04952
 C1729 C -0.02298 0.37475 0.44770
 C1730 C -0.03611 0.36488 0.45681
 C1731 C -0.04268 0.37246 0.47245
 C1732 C -0.03651 0.38924 0.47862
 C1733 C -0.02345 0.39875 0.46922
 C1734 C -0.01678 0.39139 0.45383
 C1735 C -0.01744 0.41561 0.47523
 C1736 C -0.02448 0.42328 0.49051
 C1737 C -0.03740 0.41362 0.49984
 C1738 C -0.04329 0.39673 0.49400
 H1739 H -0.05251 0.36548 0.48011
 H1740 H -0.00680 0.39857 0.44641
 H1741 H -0.00761 0.42294 0.46776
 H1742 H -0.05332 0.38963 0.50142
 H1743 H -0.01744 0.36998 0.43563
 H1744 H -0.04308 0.41918 0.51163
 C1745 C 0.45565 -0.13859 0.48297
 C1746 C 0.46151 -0.14348 0.46619
 C1747 C 0.47268 -0.13132 0.45736
 C1748 C 0.47681 -0.11440 0.46456
 C1749 C 0.47020 -0.10955 0.48105
 C1750 C 0.45995 -0.12187 0.49027
 C1751 C 0.47377 -0.09238 0.48796
 C1752 C 0.48389 -0.07994 0.47857
 C1753 C 0.49056 -0.08499 0.46222
 C1754 C 0.48705 -0.10205 0.45529
 H1755 H 0.47742 -0.13439 0.44448
 H1756 H 0.45501 -0.11848 0.50306
 H1757 H 0.46864 -0.08872 0.50062
 H1758 H 0.49221 -0.10551 0.44259
 H1759 H 0.44775 -0.14764 0.49066
 H1760 H 0.49838 -0.07569 0.45466
 C1761 C 0.45631 0.37624 -0.02626
 C1762 C 0.46686 0.36784 -0.03930
 C1763 C 0.48240 0.37699 -0.04507
 C1764 C 0.48688 0.39410 -0.03853
 C1765 C 0.47587 0.40240 -0.02586
 C1766 C 0.46075 0.39327 -0.01969
 C1767 C 0.47998 0.41980 -0.01979
 C1768 C 0.49495 0.42912 -0.02635
 C1769 C 0.50605 0.42052 -0.03869
 C1770 C 0.50208 0.40318 -0.04469
 H1771 H 0.49128 0.37093 -0.05457
 H1772 H 0.45215 0.39942 -0.00995
 H1773 H 0.47126 0.42622 -0.01030
 H1774 H 0.51073 0.39699 -0.05436
 H1775 H 0.44418 0.37011 -0.02136
 H1776 H 0.51770 0.42729 -0.04397
 C1777 C 0.80424 0.37061 0.47236
 C1778 C 0.79090 0.37954 0.46228
 C1779 C 0.77408 0.37103 0.45922
 C1780 C 0.77072 0.35391 0.46604
 C1781 C 0.78424 0.34526 0.47625
 C1782 C 0.80091 0.35373 0.47935
 C1783 C 0.78104 0.32810 0.48293
 C1784 C 0.76462 0.31920 0.47927
 C1785 C 0.75121 0.32791 0.46912
 C1786 C 0.75418 0.34516 0.46268
 H1787 H 0.76359 0.37771 0.45161
 H1788 H 0.81149 0.34721 0.48700
 H1789 H 0.79160 0.32146 0.49054
 H1790 H 0.74365 0.35155 0.45488
 H1791 H 0.81749 0.37646 0.47466
 H1792 H 0.73844 0.32133 0.46611
 C1793 C 0.76892 0.88004 -0.05750
 C1794 C 0.78545 0.88629 -0.05002
 C1795 C 0.79302 0.87645 -0.03608
 C1796 C 0.78499 0.86045 -0.03055
 C1797 C 0.76895 0.85410 -0.03873
 C1798 C 0.76087 0.86419 -0.05196
 C1799 C 0.76150 0.83757 -0.03384
 C1800 C 0.77001 0.82719 -0.02090
 C1801 C 0.78569 0.83397 -0.01248
 C1802 C 0.79308 0.85040 -0.01724
 H1803 H 0.80555 0.88062 -0.02983
 H1804 H 0.74840 0.85968 -0.05824
 H1805 H 0.74942 0.83259 -0.04046
 H1806 H 0.80536 0.85506 -0.01075
 H1807 H 0.76194 0.88723 -0.06770
 H1808 H 0.79260 0.82636 -0.00243
 C1809 C 0.77594 0.30301 0.38287
 C1810 C 0.78741 0.29139 0.37334
 C1811 C 0.79189 0.27439 0.38020
 C1812 C 0.78538 0.26929 0.39641
 C1813 C 0.77393 0.28117 0.40579
 C1814 C 0.76918 0.29791 0.39884
 C1815 C 0.76781 0.27635 0.42218
 C1816 C 0.77334 0.25995 0.42959
 C1817 C 0.78459 0.24812 0.42010
 C1818 C 0.79043 0.25268 0.40360
 H1819 H 0.80053 0.26517 0.37302
 H1820 H 0.76053 0.30724 0.40592
 H1821 H 0.75932 0.28568 0.42944
 H1822 H 0.79919 0.24339 0.39662
 H1823 H 0.77246 0.31633 0.37828
 H1824 H 0.78901 0.23539 0.42552
 C1825 C 0.78539 0.76373 -0.13429
 C1826 C 0.77925 0.78083 -0.14004
 C1827 C 0.76850 0.79131 -0.12863
 C1828 C 0.76490 0.78539 -0.11186
 C1829 C 0.77180 0.76860 -0.10621
 C1830 C 0.78176 0.75777 -0.11763
 C1831 C 0.76879 0.76303 -0.08919
 C1832 C 0.75891 0.77408 -0.07771
 C1833 C 0.75183 0.79064 -0.08363
 C1834 C 0.75480 0.79623 -0.10051
 H1835 H 0.76335 0.80441 -0.13231
 H1836 H 0.78693 0.74472 -0.11363
 H1837 H 0.77425 0.75019 -0.08488
 H1838 H 0.74937 0.80916 -0.10460
 H1839 H 0.79305 0.75469 -0.14252
 H1840 H 0.74418 0.79949 -0.07512
 C1841 C 0.27790 0.44108 0.86773
 C1842 C 0.28926 0.45247 0.87766
 C1843 C 0.29275 0.46993 0.87160
 C1844 C 0.28562 0.47567 0.85565
 C1845 C 0.27442 0.46399 0.84577
 C1846 C 0.27048 0.44682 0.85200
 C1847 C 0.26766 0.46950 0.82964
 C1848 C 0.27221 0.48644 0.82299
 C1849 C 0.28329 0.49802 0.83295
 C1850 C 0.28982 0.49273 0.84922
 H1851 H 0.30119 0.47904 0.87917
 H1852 H 0.26197 0.43767 0.84452
 H1853 H 0.25930 0.46032 0.82203
 H1854 H 0.29841 0.50186 0.85663
 H1855 H 0.27512 0.42751 0.87184
 H1856 H 0.28697 0.51112 0.82813
 C1857 C 0.28903 -0.01208 0.37925
 C1858 C 0.28200 -0.02842 0.38552
 C1859 C 0.26855 -0.03727 0.37533
 C1860 C 0.26314 -0.03063 0.35912
 C1861 C 0.27090 -0.01468 0.35292
 C1862 C 0.28355 -0.00535 0.36320
 C1863 C 0.26626 -0.00857 0.33633
 C1864 C 0.25411 -0.01835 0.32566
 C1865 C 0.24605 -0.03396 0.33217
 C1866 C 0.25049 -0.04001 0.34876
 H1867 H 0.26266 -0.04977 0.37942
 H1868 H 0.28947 0.00706 0.35871
 H1869 H 0.27257 0.00354 0.33158
 H1870 H 0.24435 -0.05228 0.35332
 H1871 H 0.29883 -0.00429 0.38660
 H1872 H 0.23666 -0.04178 0.32428
 C1873 C -0.01250 -0.03330 -0.13291
 C1874 C -0.02950 -0.02690 -0.13921
 C1875 C -0.03907 -0.01415 -0.12895
 C1876 C -0.03239 -0.00884 -0.11259
 C1877 C -0.01572 -0.01598 -0.10638
 C1878 C -0.00573 -0.02790 -0.11676
 C1879 C -0.00949 -0.01146 -0.08970
 C1880 C -0.01983 -0.00002 -0.07894
 C1881 C -0.03620 0.00743 -0.08542
 C1882 C -0.04240 0.00309 -0.10211
 H1883 H -0.05215 -0.00886 -0.13308
 H1884 H 0.00723 -0.03331 -0.11226
 H1885 H 0.00321 -0.01726 -0.08497
 H1886 H -0.05523 0.00874 -0.10666
 H1887 H -0.00416 -0.04247 -0.14038
 H1888 H -0.04447 0.01626 -0.07743
 C1889 C -0.05513 0.47388 0.38424
 C1890 C -0.04580 0.45861 0.37753
 C1891 C -0.03203 0.45071 0.38807
 C1892 C -0.02791 0.45765 0.40464
 C1893 C -0.03752 0.47281 0.41101
 C1894 C -0.05105 0.48082 0.40069
 C1895 C -0.03353 0.47966 0.42763
 C1896 C -0.01998 0.47152 0.43807
 C1897 C -0.01045 0.45643 0.43153
 C1898 C -0.01437 0.44958 0.41500
 H1899 H -0.02453 0.43895 0.38376
 H1900 H -0.05853 0.49252 0.40535
 H1901 H -0.04106 0.49126 0.43243
 H1902 H -0.00685 0.43791 0.41036
 H1903 H -0.06557 0.48083 0.37689
 H1904 H -0.00001 0.44979 0.43924
 C1905 C 0.46727 -0.06397 0.38810
 C1906 C 0.45569 -0.05190 0.37917
 C1907 C 0.45187 -0.03496 0.38676
 C1908 C 0.45957 -0.03016 0.40291
 C1909 C 0.47134 -0.04238 0.41155
 C1910 C 0.47505 -0.05924 0.40405
 C1911 C 0.47902 -0.03768 0.42766
 C1912 C 0.47490 -0.02098 0.43553
 C1913 C 0.46313 -0.00891 0.42688
 C1914 C 0.45565 -0.01340 0.41066
 H1915 H 0.44309 -0.02544 0.38005
 H1916 H 0.48388 -0.06885 0.41058
 H1917 H 0.48784 -0.04725 0.43428
 H1918 H 0.44663 -0.00385 0.40428
 H1919 H 0.47018 -0.07725 0.38287
 H1920 H 0.45967 0.00400 0.43267
 C1921 C 0.44748 0.47565 -0.12720
 C1922 C 0.45807 0.46205 -0.13532
 C1923 C 0.47441 0.45653 -0.12689
 C1924 C 0.47974 0.46405 -0.11087
 C1925 C 0.46878 0.47741 -0.10299
 C1926 C 0.45276 0.48316 -0.11129
 C1927 C 0.47391 0.48470 -0.08684
 C1928 C 0.48990 0.47875 -0.07832
 C1929 C 0.50083 0.46555 -0.08640
 C1930 C 0.49582 0.45830 -0.10252
 H1931 H 0.48327 0.44652 -0.13266
 H1932 H 0.44416 0.49340 -0.10539
 H1933 H 0.46526 0.49481 -0.08082
 H1934 H 0.50444 0.44807 -0.10838
 H1935 H 0.43479 0.48041 -0.13273
 H1936 H 0.51320 0.46066 -0.08019
 C1937 C 0.46962 0.80574 0.37162
 C1938 C 0.45927 0.79279 0.38022
 C1939 C 0.45694 0.77573 0.37242
 C1940 C 0.46521 0.77156 0.35652
 C1941 C 0.47588 0.78460 0.34824
 C1942 C 0.47784 0.80170 0.35584
 C1943 C 0.48430 0.78040 0.33243
 C1944 C 0.48197 0.76336 0.32461
 C1945 C 0.47129 0.75051 0.33297
 C1946 C 0.46309 0.75452 0.34879
 H1947 H 0.44911 0.76559 0.37893
 H1948 H 0.48579 0.81195 0.34961
 H1949 H 0.49225 0.79054 0.32602
 H1950 H 0.45497 0.74433 0.35491
 H1951 H 0.47137 0.81910 0.37711
 H1952 H 0.46921 0.73729 0.32724
 C1953 C -0.03507 0.81739 0.85855
 C1954 C -0.04799 0.80679 0.86723
 C1955 C -0.05279 0.79005 0.85951
 C1956 C -0.04490 0.78419 0.84384
 C1957 C -0.03205 0.79508 0.83559
 C1958 C -0.02727 0.81162 0.84307
 C1959 C -0.02440 0.78948 0.81982
 C1960 C -0.02955 0.77309 0.81191
 C1961 C -0.04221 0.76220 0.82037
 C1962 C -0.04973 0.76764 0.83617
 H1963 H -0.06243 0.78133 0.86564
 H1964 H -0.01755 0.82024 0.83685
 H1965 H -0.01483 0.79817 0.81346
 H1966 H -0.05954 0.75902 0.84226
 H1967 H -0.03102 0.83048 0.86330
 H1968 H -0.04653 0.74953 0.81465
 C1969 C 0.38617 0.77977 0.31229
 C1970 C 0.37588 0.79002 0.30036
 C1971 C 0.38273 0.79251 0.28367
 C1972 C 0.39959 0.78498 0.27901
 C1973 C 0.40971 0.77466 0.29111
 C1974 C 0.40286 0.77211 0.30770
 C1975 C 0.42671 0.76738 0.28657
 C1976 C 0.43393 0.77064 0.27019
 C1977 C 0.42370 0.78081 0.25820
 C1978 C 0.40662 0.78780 0.26252
 H1979 H 0.37492 0.80022 0.27429
 H1980 H 0.41050 0.76439 0.31719
 H1981 H 0.43460 0.75977 0.29599
 H1982 H 0.39907 0.79566 0.25307
 H1983 H 0.38150 0.77790 0.32535
 H1984 H 0.42898 0.78348 0.24548
 C1985 C -0.13379 0.76982 0.79716
 C1986 C -0.14451 0.78068 0.78611
 C1987 C -0.13740 0.78580 0.77011
 C1988 C -0.11968 0.78070 0.76549
 C1989 C -0.10900 0.77000 0.77682
 C1990 C -0.11626 0.76446 0.79252
 C1991 C -0.09110 0.76537 0.77247
 C1992 C -0.08356 0.77160 0.75706
 C1993 C -0.09437 0.78207 0.74578
 C1994 C -0.11231 0.78648 0.74991
 H1995 H -0.14554 0.79392 0.76134
 H1996 H -0.10823 0.75631 0.80139
 H1997 H -0.08288 0.75740 0.78134
 H1998 H -0.12031 0.79468 0.74106
 H1999 H -0.13867 0.76587 0.80967
 H2000 H -0.08892 0.78695 0.73377
 C2001 C 0.87776 0.27378 0.44449
 C2002 C 0.88807 0.28421 0.45635
 C2003 C 0.88062 0.28841 0.47260
 C2004 C 0.86322 0.28228 0.47689
 C2005 C 0.85327 0.27160 0.46490
 C2006 C 0.86065 0.26744 0.44877
 C2007 C 0.83598 0.26537 0.46911
 C2008 C 0.82823 0.26992 0.48508
 C2009 C 0.83809 0.28071 0.49690
 C2010 C 0.85551 0.28673 0.49289
 H2011 H 0.88833 0.29634 0.48192
 H2012 H 0.85310 0.25944 0.43936
 H2013 H 0.82841 0.25726 0.45979
 H2014 H 0.86289 0.29495 0.50225
 H2015 H 0.88269 0.27069 0.43169
 H2016 H 0.83239 0.28438 0.50931
 C2017 C 0.86206 0.81688 -0.04713
 C2018 C 0.87337 0.80425 -0.05563
 C2019 C 0.86823 0.78601 -0.05603
 C2020 C 0.85232 0.78049 -0.04758
 C2021 C 0.84152 0.79335 -0.03864
 C2022 C 0.84643 0.81150 -0.03867
 C2023 C 0.82578 0.78795 -0.03005
 C2024 C 0.82026 0.76989 -0.03064
 C2025 C 0.83095 0.75717 -0.03966
 C2026 C 0.84694 0.76237 -0.04787
 H2027 H 0.87676 0.77614 -0.06254
 H2028 H 0.83816 0.82158 -0.03214
 H2029 H 0.81743 0.79796 -0.02349
 H2030 H 0.85494 0.75228 -0.05468
 H2031 H 0.86532 0.83107 -0.04699
 H2032 H 0.82685 0.74320 -0.04043
 C2033 C -0.12027 -0.05395 -0.03552
 C2034 C -0.12882 -0.04426 -0.04910
 C2035 C -0.12041 -0.02823 -0.05457
 C2036 C -0.10422 -0.02208 -0.04664
 C2037 C -0.09594 -0.03208 -0.03319
 C2038 C -0.10407 -0.04800 -0.02778
 C2039 C -0.07962 -0.02608 -0.02544
 C2040 C -0.07139 -0.01007 -0.03090
 C2041 C -0.07993 -0.00011 -0.04417
 C2042 C -0.09613 -0.00604 -0.05195
 H2043 H -0.12660 -0.02014 -0.06465
 H2044 H -0.09785 -0.05594 -0.01756
 H2045 H -0.07324 -0.03402 -0.01530
 H2046 H -0.10227 0.00187 -0.06223
 H2047 H -0.12566 -0.06652 -0.03102
 H2048 H -0.07394 0.01220 -0.04879
 C2049 C -0.13000 0.47521 0.44618
 C2050 C -0.13953 0.46313 0.45675
 C2051 C -0.13141 0.45823 0.47270
 C2052 C -0.11411 0.46436 0.47753
 C2053 C -0.10459 0.47598 0.46658
 C2054 C -0.11277 0.48150 0.45104
 C2055 C -0.08702 0.48171 0.47131
 C2056 C -0.07885 0.47580 0.48683
 C2057 C -0.08864 0.46438 0.49768
 C2058 C -0.10609 0.45877 0.49311
 H2059 H -0.13838 0.44965 0.48160
 H2060 H -0.10571 0.49048 0.44249
 H2061 H -0.07967 0.49052 0.46281
 H2062 H -0.11323 0.44989 0.50168
 H2063 H -0.13538 0.47952 0.43383
 H2064 H -0.08282 0.45968 0.50978
 C2065 C 0.37152 -0.02033 0.45068
 C2066 C 0.36368 -0.03637 0.45687
 C2067 C 0.37369 -0.04622 0.46945
 C2068 C 0.39089 -0.04043 0.47536
 C2069 C 0.39841 -0.02452 0.46879
 C2070 C 0.38858 -0.01456 0.45654
 C2071 C 0.41571 -0.01887 0.47446
 C2072 C 0.42573 -0.02898 0.48667
 C2073 C 0.41800 -0.04476 0.49324
 C2074 C 0.40078 -0.05041 0.48766
 H2075 H 0.36844 -0.05852 0.47472
 H2076 H 0.39412 -0.00227 0.45139
 H2077 H 0.42142 -0.00671 0.46921
 H2078 H 0.39525 -0.06267 0.49289
 H2079 H 0.36472 -0.01194 0.44127
 H2080 H 0.42533 -0.05288 0.50264
 C2081 C 0.38526 0.46713 -0.06841
 C2082 C 0.37704 0.45450 -0.05741
 C2083 C 0.38615 0.45031 -0.04174
 C2084 C 0.40260 0.45871 -0.03708
 C2085 C 0.41042 0.47140 -0.04820
 C2086 C 0.40167 0.47541 -0.06387
 C2087 C 0.42689 0.47979 -0.04352
 C2088 C 0.43570 0.47561 -0.02780
 C2089 C 0.42767 0.46300 -0.01680
 C2090 C 0.41132 0.45467 -0.02137
 H2091 H 0.38033 0.44094 -0.03278
 H2092 H 0.40754 0.48495 -0.07268
 H2093 H 0.43293 0.48936 -0.05221
 H2094 H 0.40555 0.44501 -0.01263
 H2095 H 0.37939 0.47055 -0.08083
 H2096 H 0.43406 0.45944 -0.00458
 C2097 C 0.37199 0.44147 0.77673
 C2098 C 0.38305 0.45421 0.78534
 C2099 C 0.37697 0.47221 0.78651
 C2100 C 0.35994 0.47730 0.77960
 C2101 C 0.34889 0.46431 0.77117
 C2102 C 0.35512 0.44648 0.76966
 C2103 C 0.33155 0.46923 0.76488
 C2104 C 0.32492 0.48689 0.76731
 C2105 C 0.33617 0.49979 0.77541
 C2106 C 0.35358 0.49507 0.78137
 H2107 H 0.38541 0.48223 0.79287
 H2108 H 0.34680 0.43632 0.76332
 H2109 H 0.32292 0.45912 0.75884
 H2110 H 0.36187 0.50522 0.78776
 H2111 H 0.37613 0.42747 0.77582
 H2112 H 0.33137 0.51349 0.77740
 C2113 C 0.36015 -0.06339 0.29720
 C2114 C 0.37109 -0.05098 0.30637
 C2115 C 0.36457 -0.03326 0.30895
 C2116 C 0.34771 -0.02785 0.30174
 C2117 C 0.33728 -0.04035 0.29197
 C2118 C 0.34345 -0.05814 0.29005
 C2119 C 0.32092 -0.03486 0.28407
 C2120 C 0.31459 -0.01703 0.28587
 C2121 C 0.32470 -0.00478 0.29604
 C2122 C 0.34120 -0.01012 0.30382
 H2123 H 0.37286 -0.02358 0.31599
 H2124 H 0.33548 -0.06794 0.28281
 H2125 H 0.31305 -0.04454 0.27655
 H2126 H 0.34892 -0.00035 0.31133
 H2127 H 0.36460 -0.07722 0.29541
 H2128 H 0.32001 0.00900 0.29770
 C2129 C 0.11931 0.52297 0.70173
 C2130 C 0.11001 0.53452 0.71327
 C2131 C 0.11858 0.53952 0.72893
 C2132 C 0.13630 0.53347 0.73281
 C2133 C 0.14553 0.52203 0.72102
 C2134 C 0.13684 0.51673 0.70561
 C2135 C 0.16343 0.51640 0.72464
 C2136 C 0.17239 0.52228 0.73981
 C2137 C 0.16300 0.53348 0.75156
 C2138 C 0.14510 0.53895 0.74814
 H2139 H 0.11155 0.54825 0.73801
 H2140 H 0.14374 0.50805 0.69637
 H2141 H 0.17052 0.50786 0.71541
 H2142 H 0.13824 0.54769 0.75734
 H2143 H 0.11333 0.51913 0.68940
 H2144 H 0.16953 0.53814 0.76341
 C2145 C 0.12391 0.05893 0.21163
 C2146 C 0.11403 0.04578 0.20227
 C2147 C 0.12192 0.02857 0.19986
 C2148 C 0.13913 0.02446 0.20715
 C2149 C 0.14854 0.03770 0.21696
 C2150 C 0.14090 0.05492 0.21894
 C2151 C 0.16545 0.03354 0.22466
 C2152 C 0.17336 0.01636 0.22252
 C2153 C 0.16409 0.00336 0.21246
 C2154 C 0.14708 0.00733 0.20495
 H2155 H 0.11452 0.01827 0.19274
 H2156 H 0.14803 0.06530 0.22623
 H2157 H 0.17257 0.04380 0.23214
 H2158 H 0.14014 -0.00300 0.19743
 H2159 H 0.11850 0.07243 0.21333
 H2160 H 0.16991 -0.00997 0.21056
 C2161 C 0.62606 0.72385 0.18946
 C2162 C 0.63715 0.71198 0.19914
 C2163 C 0.63205 0.70801 0.21624
 C2164 C 0.61596 0.71524 0.22326
 C2165 C 0.60502 0.72703 0.21329
 C2166 C 0.61026 0.73137 0.19649
 C2167 C 0.58875 0.73393 0.22009
 C2168 C 0.58291 0.72888 0.23662
 C2169 C 0.59391 0.71717 0.24648
 C2170 C 0.61040 0.71057 0.23994
 H2171 H 0.64043 0.69921 0.22414
 H2172 H 0.60194 0.74032 0.18864
 H2173 H 0.58029 0.74271 0.21217
 H2174 H 0.61861 0.70150 0.24777
 H2175 H 0.62930 0.72710 0.17627
 H2176 H 0.58970 0.71302 0.25919
 C2177 C 0.10902 0.68967 0.70374
 C2178 C 0.11980 0.70180 0.69454
 C2179 C 0.11408 0.71992 0.69342
 C2180 C 0.09805 0.72586 0.70163
 C2181 C 0.08755 0.71353 0.71102
 C2182 C 0.09312 0.69546 0.71190
 C2183 C 0.07152 0.71940 0.71920
 C2184 C 0.06558 0.73743 0.71787
 C2185 C 0.07618 0.74958 0.70853
 C2186 C 0.09229 0.74389 0.70059
 H2187 H 0.12227 0.72945 0.68649
 H2188 H 0.08516 0.68577 0.71888
 H2189 H 0.06339 0.70981 0.72613
 H2190 H 0.10012 0.75356 0.69346
 H2191 H 0.11284 0.67559 0.70458
 H2192 H 0.07192 0.76352 0.70722
 C2193 C 0.63822 0.21216 0.56459
 C2194 C 0.62778 0.20081 0.55370
 C2195 C 0.63437 0.19652 0.53709
 C2196 C 0.65105 0.20339 0.53153
 C2197 C 0.66118 0.21494 0.54258
 C2198 C 0.65467 0.21921 0.55906
 C2199 C 0.67775 0.22193 0.53704
 C2200 C 0.68458 0.21737 0.52065
 C2201 C 0.67453 0.20570 0.50980
 C2202 C 0.65784 0.19887 0.51515
 H2203 H 0.62653 0.18795 0.52843
 H2204 H 0.66237 0.22790 0.56775
 H2205 H 0.68546 0.23072 0.54564
 H2206 H 0.65030 0.18999 0.50651
 H2207 H 0.63389 0.21545 0.57755
 H2208 H 0.67950 0.20196 0.49712
 C2209 C 0.63340 0.71946 0.06257
 C2210 C 0.62092 0.71208 0.05051
 C2211 C 0.62502 0.71258 0.03282
 C2212 C 0.64127 0.72037 0.02725
 C2213 C 0.65366 0.72779 0.03950
 C2214 C 0.64958 0.72723 0.05713
 C2215 C 0.67006 0.73532 0.03392
 C2216 C 0.67438 0.73518 0.01626
 C2217 C 0.66181 0.72796 0.00421
 C2218 C 0.64539 0.72074 0.00963
 H2219 H 0.61546 0.70714 0.02338
 H2220 H 0.65895 0.73272 0.06673
 H2221 H 0.67975 0.74061 0.04335
 H2222 H 0.63605 0.71517 0.00005
 H2223 H 0.63074 0.71905 0.07629
 H2224 H 0.66481 0.72770 -0.00947
 C2225 C 0.12683 0.02548 0.05349
 C2226 C 0.13726 0.03679 0.04302
 C2227 C 0.12996 0.04214 0.02691
 C2228 C 0.11247 0.03669 0.02160
 C2229 C 0.10224 0.02539 0.03231
 C2230 C 0.10961 0.01975 0.04815
 C2231 C 0.08464 0.02021 0.02721
 C2232 C 0.07690 0.02651 0.01167
 C2233 C 0.08720 0.03770 0.00105
 C2234 C 0.10489 0.04262 0.00590
 H2235 H 0.13776 0.05065 0.01854
 H2236 H 0.10189 0.01119 0.05658
 H2237 H 0.07677 0.01175 0.03562
 H2238 H 0.11250 0.05131 -0.00249
 H2239 H 0.13170 0.02132 0.06609
 H2240 H 0.08157 0.04269 -0.01102
 C2241 C 0.10970 0.56726 0.54352
 C2242 C 0.12096 0.55554 0.55320
 C2243 C 0.11553 0.53757 0.55530
 C2244 C 0.09927 0.53136 0.54765
 C2245 C 0.08829 0.54323 0.53771
 C2246 C 0.09358 0.56117 0.53582
 C2247 C 0.07206 0.53705 0.53003
 C2248 C 0.06641 0.51923 0.53245
 C2249 C 0.07739 0.50753 0.54238
 C2250 C 0.09375 0.51350 0.54979
 H2251 H 0.12410 0.52836 0.56260
 H2252 H 0.08523 0.57050 0.52841
 H2253 H 0.06355 0.54628 0.52264
 H2254 H 0.10196 0.50420 0.55738
 H2255 H 0.11331 0.58125 0.54196
 H2256 H 0.07327 0.49375 0.54448
 C2257 C 0.62485 0.05177 0.52763
 C2258 C 0.63568 0.03920 0.53669
 C2259 C 0.62859 0.02210 0.54010
 C2260 C 0.61092 0.01763 0.53461
 C2261 C 0.60013 0.03039 0.52556
 C2262 C 0.60724 0.04741 0.52211
 C2263 C 0.58235 0.02600 0.52029
 C2264 C 0.57513 0.00904 0.52409
 C2265 C 0.58606 -0.00359 0.53299
 C2266 C 0.60380 0.00065 0.53815
 H2267 H 0.63688 0.01224 0.54691
 H2268 H 0.59914 0.05741 0.51528
 H2269 H 0.57406 0.03593 0.51356
 H2270 H 0.61188 -0.00931 0.54505
 H2271 H 0.62986 0.06513 0.52507
 H2272 H 0.58088 -0.01678 0.53606
 C2273 C 0.62190 0.53809 0.06088
 C2274 C 0.63354 0.54795 0.05029
 C2275 C 0.62837 0.55081 0.03288
 C2276 C 0.61184 0.54411 0.02624
 C2277 C 0.60043 0.53415 0.03705
 C2278 C 0.60556 0.53121 0.05432
 C2279 C 0.58397 0.52740 0.03049
 C2280 C 0.57849 0.53062 0.01326
 C2281 C 0.58982 0.54071 0.00263
 C2282 C 0.60644 0.54729 0.00903
 H2283 H 0.63720 0.55813 0.02440
 H2284 H 0.59686 0.52371 0.06281
 H2285 H 0.57525 0.51988 0.03897
 H2286 H 0.61500 0.55497 0.00056
 H2287 H 0.62523 0.53590 0.07437
 H2288 H 0.58588 0.54342 -0.01065
 C2289 C 0.01314 0.04328 0.12324
 C2290 C 0.03098 0.03845 0.12876
 C2291 C 0.04178 0.02818 0.11718
 C2292 C 0.03531 0.02384 0.10042
 C2293 C 0.01776 0.02957 0.09507
 C2294 C 0.00671 0.03898 0.10668
 C2295 C 0.01161 0.02608 0.07809
 C2296 C 0.02280 0.01688 0.06626
 C2297 C 0.04008 0.01075 0.07187
 C2298 C 0.04628 0.01422 0.08876
 H2299 H 0.05546 0.02405 0.12073
 H2300 H -0.00692 0.04321 0.10289
 H2301 H -0.00177 0.03080 0.07404
 H2302 H 0.05978 0.00965 0.09258
 H2303 H 0.00381 0.05038 0.13161
 H2304 H 0.04906 0.00368 0.06305
 C2305 C 0.04668 0.52522 0.62982
 C2306 C 0.03446 0.53691 0.63836
 C2307 C 0.01804 0.54177 0.63000
 C2308 C 0.01388 0.53494 0.61338
 C2309 C 0.02627 0.52308 0.60511
 C2310 C 0.04259 0.51832 0.61343
 C2311 C 0.02231 0.51635 0.58852
 C2312 C 0.00621 0.52146 0.57982
 C2313 C -0.00609 0.53323 0.58813
 C2314 C -0.00233 0.53984 0.60481
 H2315 H 0.00850 0.55072 0.63643
 H2316 H 0.05231 0.50939 0.60719
 H2317 H 0.03204 0.50744 0.58224
 H2318 H -0.01201 0.54891 0.61091
 H2319 H 0.05964 0.52159 0.63565
 H2320 H -0.01861 0.53740 0.58171
 C2321 C 0.50976 0.02868 0.63496
 C2322 C 0.52764 0.02460 0.64085
 C2323 C 0.53885 0.01398 0.62992
 C2324 C 0.53277 0.00870 0.61330
 C2325 C 0.51517 0.01374 0.60751
 C2326 C 0.50367 0.02337 0.61856
 C2327 C 0.50943 0.00947 0.59061
 C2328 C 0.52111 0.00027 0.57921
 C2329 C 0.53841 -0.00528 0.58524
 C2330 C 0.54419 -0.00109 0.60213
 H2331 H 0.55260 0.01044 0.63381
 H2332 H 0.48999 0.02706 0.61442
 H2333 H 0.49599 0.01370 0.58623
 H2334 H 0.55774 -0.00516 0.60632
 H2335 H 0.50017 0.03595 0.64293
 H2336 H 0.54771 -0.01236 0.57675
 C2337 C 0.56068 0.53129 0.11284
 C2338 C 0.54722 0.54049 0.12237
 C2339 C 0.53025 0.54414 0.11448
 C2340 C 0.52674 0.53853 0.09738
 C2341 C 0.54033 0.52910 0.08808
 C2342 C 0.55726 0.52560 0.09590
 C2343 C 0.53687 0.52340 0.07105
 C2344 C 0.52002 0.52713 0.06303
 C2345 C 0.50660 0.53663 0.07231
 C2346 C 0.50990 0.54221 0.08937
 H2347 H 0.51976 0.55114 0.12169
 H2348 H 0.56789 0.51856 0.08888
 H2349 H 0.54743 0.51628 0.06399
 H2350 H 0.49932 0.54945 0.09627
 H2351 H 0.57404 0.52870 0.11837
 H2352 H 0.49349 0.53969 0.06640
 C2353 C 0.21441 0.56681 0.63861
 C2354 C 0.20281 0.55537 0.62896
 C2355 C 0.19872 0.53831 0.63569
 C2356 C 0.20619 0.53279 0.65167
 C2357 C 0.21803 0.54438 0.66099
 C2358 C 0.22200 0.56134 0.65436
 C2359 C 0.22560 0.53891 0.67688
 C2360 C 0.22132 0.52204 0.68383
 C2361 C 0.20944 0.51064 0.67451
 C2362 C 0.20204 0.51592 0.65854
 H2363 H 0.18993 0.52925 0.62845
 H2364 H 0.23096 0.57044 0.66138
 H2365 H 0.23457 0.54796 0.68396
 H2366 H 0.19297 0.50684 0.65162
 H2367 H 0.21754 0.58017 0.63413
 H2368 H 0.20586 0.49760 0.67955
 C2369 C 0.19685 0.02772 0.13061
 C2370 C 0.21005 0.03771 0.12188
 C2371 C 0.22695 0.04086 0.13014
 C2372 C 0.23061 0.03392 0.14674
 C2373 C 0.21727 0.02365 0.15510
 C2374 C 0.20045 0.02069 0.14694
 C2375 C 0.22075 0.01678 0.17166
 C2376 C 0.23729 0.02036 0.18029
 C2377 C 0.25052 0.03058 0.17192
 C2378 C 0.24728 0.03717 0.15523
 H2379 H 0.23725 0.04851 0.12361
 H2380 H 0.18999 0.01305 0.15326
 H2381 H 0.21030 0.00919 0.17806
 H2382 H 0.25769 0.04503 0.14909
 H2383 H 0.18353 0.02546 0.12493
 H2384 H 0.26336 0.03359 0.17833
 C2385 C 0.69170 0.22160 0.61681
 C2386 C 0.70427 0.21220 0.62734
 C2387 C 0.72215 0.20959 0.62153
 C2388 C 0.72731 0.21588 0.60530
 C2389 C 0.71451 0.22515 0.59477
 C2390 C 0.69679 0.22807 0.60071
 C2391 C 0.71953 0.23102 0.57835
 C2392 C 0.73712 0.22749 0.57216
 C2393 C 0.74981 0.21843 0.58283
 C2394 C 0.74497 0.21277 0.59928
 H2395 H 0.73204 0.20258 0.62958
 H2396 H 0.68678 0.23508 0.59278
 H2397 H 0.70957 0.23788 0.57023
 H2398 H 0.75497 0.20570 0.60719
 H2399 H 0.67775 0.22357 0.62078
 H2400 H 0.76348 0.21559 0.57842
 C2401 C 0.71957 0.68884 0.10839
 C2402 C 0.71203 0.70197 0.11955
 C2403 C 0.71128 0.72000 0.11413
 C2404 C 0.71799 0.72482 0.09790
 C2405 C 0.72562 0.71150 0.08686
 C2406 C 0.72633 0.69355 0.09226
 C2407 C 0.73209 0.71631 0.07052
 C2408 C 0.73070 0.73424 0.06492
 C2409 C 0.72324 0.74737 0.07610
 C2410 C 0.71706 0.74274 0.09245
 H2411 H 0.70567 0.73028 0.12261
 H2412 H 0.73198 0.68312 0.08396
 H2413 H 0.73762 0.70603 0.06196
 H2414 H 0.71129 0.75314 0.10072
 H2415 H 0.72005 0.67480 0.11201
 H2416 H 0.72203 0.76130 0.07214
 C2417 C 0.53198 0.69539 0.13424
 C2418 C 0.54241 0.70757 0.12476
 C2419 C 0.54723 0.72418 0.13250
 C2420 C 0.54178 0.72847 0.14942
 C2421 C 0.53117 0.71613 0.15861
 C2422 C 0.52635 0.69966 0.15094
 C2423 C 0.52565 0.72032 0.17543
 C2424 C 0.53072 0.73667 0.18344
 C2425 C 0.54144 0.74883 0.17430
 C2426 C 0.54683 0.74482 0.15737
 H2427 H 0.55512 0.73380 0.12539
 H2428 H 0.51838 0.68998 0.15791
 H2429 H 0.51761 0.71066 0.18238
 H2430 H 0.55502 0.75443 0.15055
 H2431 H 0.52839 0.68235 0.12894
 H2432 H 0.54557 0.76148 0.18020
 C2433 C 0.01943 0.69634 0.62357
 C2434 C 0.02894 0.70879 0.61356
 C2435 C 0.03136 0.72643 0.62003
 C2436 C 0.02499 0.73137 0.63642
 C2437 C 0.01561 0.71869 0.64637
 C2438 C 0.01274 0.70127 0.63977
 C2439 C 0.00956 0.72350 0.66290
 C2440 C 0.01307 0.74075 0.66979
 C2441 C 0.02238 0.75330 0.65978
 C2442 C 0.02816 0.74869 0.64317
 H2443 H 0.03832 0.73632 0.61242
 H2444 H 0.00564 0.69136 0.64728
 H2445 H 0.00256 0.71363 0.67056
 H2446 H 0.03536 0.75858 0.63571
 H2447 H 0.01753 0.68261 0.61914
 H2448 H 0.02520 0.76668 0.66480
 C2449 C 0.53516 0.63201 0.18565
 C2450 C 0.54330 0.61986 0.19737
 C2451 C 0.54492 0.62497 0.21490
 C2452 C 0.53867 0.64191 0.22062
 C2453 C 0.53050 0.65396 0.20872
 C2454 C 0.52879 0.64886 0.19127
 C2455 C 0.52444 0.67100 0.21443
 C2456 C 0.52678 0.67629 0.23184
 C2457 C 0.53486 0.66414 0.24355
 C2458 C 0.54063 0.64708 0.23802
 H2459 H 0.55091 0.61572 0.22415
 H2460 H 0.52268 0.65796 0.18194
 H2461 H 0.51843 0.68033 0.20522
 H2462 H 0.54686 0.63801 0.24732
 H2463 H 0.53395 0.62861 0.17205
 H2464 H 0.53679 0.66787 0.25704
 C2465 C 0.05607 0.63397 0.71523
 C2466 C 0.04326 0.62343 0.70604
 C2467 C 0.02613 0.63107 0.70200
 C2468 C 0.02178 0.64875 0.70723
 C2469 C 0.03463 0.65902 0.71678
 C2470 C 0.05178 0.65154 0.72059
 C2471 C 0.03007 0.67655 0.72238
 C2472 C 0.01288 0.68405 0.71834
 C2473 C 0.00035 0.67377 0.70858
 C2474 C 0.00471 0.65627 0.70317
 H2475 H 0.01599 0.62317 0.69512
 H2476 H 0.06188 0.65927 0.72775
 H2477 H 0.03992 0.68438 0.72975
 H2478 H -0.00528 0.64861 0.69582
 H2479 H 0.06949 0.62868 0.71827
 H2480 H -0.01298 0.67918 0.70529
 C2481 C 0.06776 0.12242 0.03830
 C2482 C 0.05545 0.13325 0.04774
 C2483 C 0.03717 0.12773 0.04876
 C2484 C 0.03134 0.11182 0.04036
 C2485 C 0.04384 0.10143 0.03063
 C2486 C 0.06200 0.10680 0.02975
 C2487 C 0.03809 0.08566 0.02211
 C2488 C 0.02004 0.07978 0.02346
 C2489 C 0.00770 0.09005 0.03332
 C2490 C 0.01325 0.10603 0.04155
 H2491 H 0.02744 0.13584 0.05587
 H2492 H 0.07181 0.09885 0.02254
 H2493 H 0.04783 0.07769 0.01481
 H2494 H 0.00345 0.11376 0.04900
 H2495 H 0.08198 0.12588 0.03757
 H2496 H -0.00626 0.08573 0.03462
 C2497 C 0.05282 0.62218 0.52796
 C2498 C 0.03963 0.63325 0.53591
 C2499 C 0.02187 0.62663 0.53774
 C2500 C 0.01751 0.60907 0.53236
 C2501 C 0.03095 0.59800 0.52464
 C2502 C 0.04850 0.60475 0.52232
 C2503 C 0.02672 0.58023 0.51975
 C2504 C 0.00931 0.57326 0.52281
 C2505 C -0.00398 0.58448 0.53034
 C2506 C 0.00003 0.60226 0.53495
 H2507 H 0.01145 0.63506 0.54355
 H2508 H 0.05900 0.59642 0.51649
 H2509 H 0.03716 0.57169 0.51410
 H2510 H -0.01043 0.61058 0.54085
 H2511 H 0.06665 0.62677 0.52654
 H2512 H -0.01751 0.57947 0.53276
 C2513 C 0.56514 0.10759 0.54357
 C2514 C 0.55318 0.11848 0.55331
 C2515 C 0.53534 0.11234 0.55606
 C2516 C 0.52954 0.09575 0.54903
 C2517 C 0.54165 0.08525 0.53898
 C2518 C 0.55942 0.09123 0.53642
 C2519 C 0.53588 0.06887 0.53170
 C2520 C 0.51819 0.06254 0.53452
 C2521 C 0.50629 0.07288 0.54477
 C2522 C 0.51187 0.08943 0.55185
 H2523 H 0.52587 0.12052 0.56342
 H2524 H 0.56894 0.08321 0.52892
 H2525 H 0.54533 0.06087 0.52408
 H2526 H 0.50239 0.09725 0.55958
 H2527 H 0.57905 0.11159 0.54154
 H2528 H 0.49263 0.06824 0.54719
 C2529 C 0.52855 0.62438 0.05543
 C2530 C 0.53840 0.63570 0.04449
 C2531 C 0.54082 0.63034 0.02713
 C2532 C 0.53360 0.61394 0.02089
 C2533 C 0.52371 0.60282 0.03209
 C2534 C 0.52123 0.60822 0.04929
 C2535 C 0.51694 0.58622 0.02608
 C2536 C 0.52032 0.58025 0.00910
 C2537 C 0.52994 0.59151 -0.00203
 C2538 C 0.53637 0.60826 0.00375
 H2539 H 0.54826 0.63889 0.01849
 H2540 H 0.51384 0.59979 0.05811
 H2541 H 0.50982 0.57757 0.03491
 H2542 H 0.54389 0.61656 -0.00505
 H2543 H 0.52675 0.62780 0.06893
 H2544 H 0.53278 0.58721 -0.01516
 C2545 C 0.71452 0.11373 0.51555
 C2546 C 0.72009 0.10801 0.53221
 C2547 C 0.73189 0.11933 0.54194
 C2548 C 0.73690 0.13626 0.53570
 C2549 C 0.73047 0.14193 0.51934
 C2550 C 0.71964 0.13043 0.50924
 C2551 C 0.73462 0.15917 0.51347
 C2552 C 0.74503 0.17103 0.52379
 C2553 C 0.75181 0.16511 0.53988
 C2554 C 0.74779 0.14787 0.54577
 H2555 H 0.73651 0.11562 0.55475
 H2556 H 0.71484 0.13447 0.49653
 H2557 H 0.72942 0.16345 0.50096
 H2558 H 0.75289 0.14375 0.55836
 H2559 H 0.70621 0.10537 0.50716
 H2560 H 0.75987 0.17395 0.54811
 C2561 C 0.72454 0.63668 0.05826
 C2562 C 0.71260 0.62580 0.04839
 C2563 C 0.70701 0.63173 0.03184
 C2564 C 0.71300 0.64828 0.02546
 C2565 C 0.72507 0.65886 0.03554
 C2566 C 0.73081 0.65292 0.05185
 C2567 C 0.73107 0.67535 0.02929
 C2568 C 0.72494 0.68176 0.01316
 C2569 C 0.71281 0.67125 0.00322
 C2570 C 0.70700 0.65455 0.00925
 H2571 H 0.69804 0.62357 0.02386
 H2572 H 0.74001 0.66096 0.05976
 H2573 H 0.74027 0.68338 0.03723
 H2574 H 0.69769 0.64665 0.00135
 H2575 H 0.72891 0.63289 0.07113
 H2576 H 0.70786 0.67590 -0.00924
 C2577 C 0.21637 0.61821 0.68538
 C2578 C 0.20480 0.62908 0.69557
 C2579 C 0.20136 0.62380 0.71269
 C2580 C 0.20907 0.60786 0.71935
 C2581 C 0.22064 0.59719 0.70891
 C2582 C 0.22429 0.60254 0.69201
 C2583 C 0.22815 0.58115 0.71539
 C2584 C 0.22400 0.57532 0.73214
 C2585 C 0.21251 0.58606 0.74247
 C2586 C 0.20522 0.60225 0.73618
 H2587 H 0.19272 0.63202 0.72087
 H2588 H 0.23311 0.59448 0.68383
 H2589 H 0.23685 0.57298 0.70718
 H2590 H 0.19635 0.61025 0.74439
 H2591 H 0.21911 0.62156 0.67210
 H2592 H 0.20907 0.58191 0.75540
 C2593 C 0.22791 0.12495 0.19426
 C2594 C 0.21649 0.13524 0.20512
 C2595 C 0.21116 0.12789 0.22095
 C2596 C 0.21674 0.11048 0.22568
 C2597 C 0.22816 0.10029 0.21463
 C2598 C 0.23376 0.10770 0.19901
 C2599 C 0.23349 0.08275 0.21925
 C2600 C 0.22722 0.07513 0.23461
 C2601 C 0.21593 0.08543 0.24552
 C2602 C 0.21085 0.10299 0.24116
 H2603 H 0.20262 0.13566 0.22963
 H2604 H 0.24242 0.10005 0.19033
 H2605 H 0.24207 0.07487 0.21065
 H2606 H 0.20209 0.11061 0.24978
 H2607 H 0.23207 0.13003 0.18188
 H2608 H 0.21099 0.07990 0.25747
 C2609 C 0.71620 1.11685 0.68274
 C2610 C 0.70650 1.12746 0.69475
 C2611 C 0.70385 1.12074 0.71147
 C2612 C 0.71071 1.10373 0.71610
 C2613 C 0.72052 1.09328 0.70393
 C2614 C 0.72318 1.09996 0.68729
 C2615 C 0.72735 1.07624 0.70855
 C2616 C 0.72425 1.06937 0.72513
 C2617 C 0.71444 1.07989 0.73711
 C2618 C 0.70782 1.09695 0.73267
 H2619 H 0.69662 1.12880 0.72096
 H2620 H 0.73055 1.09208 0.67775
 H2621 H 0.73472 1.06819 0.69912
 H2622 H 0.70032 1.10477 0.74216
 H2623 H 0.71820 1.12148 0.66969
 H2624 H 0.71189 1.07493 0.74997
 C2625 C 0.72087 0.61583 0.18629
 C2626 C 0.71134 0.62794 0.19708
 C2627 C 0.70826 0.62311 0.21438
 C2628 C 0.71463 0.60652 0.22074
 C2629 C 0.72444 0.59473 0.20976
 C2630 C 0.72746 0.59948 0.19259
 C2631 C 0.73099 0.57828 0.21605
 C2632 C 0.72763 0.57315 0.23315
 C2633 C 0.71763 0.58480 0.24396
 C2634 C 0.71131 0.60144 0.23785
 H2635 H 0.70109 0.63227 0.22296
 H2636 H 0.73482 0.59048 0.18399
 H2637 H 0.73844 0.56929 0.20749
 H2638 H 0.70374 0.61027 0.24645
 H2639 H 0.72313 0.61881 0.17284
 H2640 H 0.71484 0.58110 0.25717
 C2641 C 0.50789 0.11226 0.70249
 C2642 C 0.52179 0.10391 0.71252
 C2643 C 0.52831 0.11326 0.72735
 C2644 C 0.52199 0.13067 0.73141
 C2645 C 0.50867 0.13901 0.72081
 C2646 C 0.50148 0.12956 0.70658
 C2647 C 0.50307 0.15680 0.72438
 C2648 C 0.51080 0.16644 0.73839
 C2649 C 0.52367 0.15773 0.74916
 C2650 C 0.52916 0.14003 0.74574
 H2651 H 0.53838 0.10723 0.73585
 H2652 H 0.49116 0.13570 0.69834
 H2653 H 0.49312 0.16327 0.71597
 H2654 H 0.53932 0.13380 0.75409
 H2655 H 0.50223 0.10594 0.69103
 H2656 H 0.52979 0.16470 0.76013
 C2657 C 1.01469 0.12379 0.19439
 C2658 C 1.02578 0.11328 0.20544
 C2659 C 1.03025 0.12012 0.22201
 C2660 C 1.02447 0.13742 0.22714
 C2661 C 1.01366 0.14793 0.21575
 C2662 C 1.00862 0.14087 0.19953
 C2663 C 1.00858 0.16553 0.22053
 C2664 C 1.01451 0.17299 0.23640
 C2665 C 1.02496 0.16230 0.24778
 C2666 C 1.02978 0.14462 0.24325
 H2667 H 1.03850 0.11214 0.23081
 H2668 H 1.00039 0.14878 0.19062
 H2669 H 1.00064 0.17365 0.21155
 H2670 H 1.03804 0.13676 0.25216
 H2671 H 1.01117 0.11914 0.18149
 H2672 H 1.02964 0.16769 0.26012
 C2673 C 0.21690 0.63847 0.55916
 C2674 C 0.20418 0.62813 0.54966
 C2675 C 0.19836 0.63429 0.53325
 C2676 C 0.20479 0.65060 0.52670
 C2677 C 0.21754 0.66070 0.53646
 C2678 C 0.22361 0.65447 0.55257
 C2679 C 0.22390 0.67701 0.53009
 C2680 C 0.21749 0.68372 0.51415
 C2681 C 0.20473 0.67364 0.50451
 C2682 C 0.19853 0.65714 0.51068
 H2683 H 0.18882 0.62652 0.52551
 H2684 H 0.23338 0.66212 0.56021
 H2685 H 0.23363 0.68464 0.53780
 H2686 H 0.18869 0.64960 0.50302
 H2687 H 0.22154 0.63449 0.57188
 H2688 H 0.19956 0.67850 0.49221
 C2689 C 0.19942 0.12993 1.03866
 C2690 C 0.21157 0.11880 1.04803
 C2691 C 0.22961 0.12461 1.05073
 C2692 C 0.23545 0.14108 1.04390
 C2693 C 0.22314 0.15188 1.03425
 C2694 C 0.20514 0.14624 1.03182
 C2695 C 0.22896 0.16824 1.02728
 C2696 C 0.24692 0.17417 1.03003
 C2697 C 0.25903 0.16337 1.03975
 C2698 C 0.25339 0.14693 1.04652
 H2699 H 0.23918 0.11619 1.05781
 H2700 H 0.19546 0.15443 1.02461
 H2701 H 0.21936 0.17653 1.02006
 H2702 H 0.26304 0.13887 1.05390
 H2703 H 0.18538 0.12606 1.03665
 H2704 H 0.27291 0.16763 1.04213
 C2705 C 0.20762 0.68915 0.60608
 C2706 C 0.19806 0.70151 0.61662
 C2707 C 0.19589 0.71939 0.61097
 C2708 C 0.20352 0.72488 0.59525
 C2709 C 0.21338 0.71235 0.58502
 C2710 C 0.21521 0.69450 0.59051
 C2711 C 0.22113 0.71781 0.56939
 C2712 C 0.21895 0.73564 0.56363
 C2713 C 0.20907 0.74797 0.57393
 C2714 C 0.20153 0.74268 0.58959
 H2715 H 0.18864 0.72908 0.61895
 H2716 H 0.22255 0.68466 0.58277
 H2717 H 0.22848 0.70807 0.56154
 H2718 H 0.19403 0.75250 0.59721
 H2719 H 0.20920 0.67521 0.60984
 H2720 H 0.20709 0.76177 0.56984
 C2721 C 0.21150 0.23432 1.12990
 C2722 C 0.21924 0.21861 1.13732
 C2723 C 0.23346 0.20981 1.12828
 C2724 C 0.23900 0.21587 1.11209
 C2725 C 0.23056 0.23116 1.10469
 C2726 C 0.21706 0.24044 1.11382
 C2727 C 0.23558 0.23677 1.08817
 C2728 C 0.24894 0.22722 1.07887
 C2729 C 0.25752 0.21220 1.08654
 C2730 C 0.25260 0.20659 1.10298
 H2731 H 0.24001 0.19786 1.13332
 H2732 H 0.21059 0.25235 1.10843
 H2733 H 0.22887 0.24841 1.08250
 H2734 H 0.25926 0.19483 1.10846
 H2735 H 0.20105 0.24210 1.13631
 H2736 H 0.26786 0.20455 1.07972
 C2737 C 0.72478 0.56371 0.13674
 C2738 C 0.71384 0.55194 0.12675
 C2739 C 0.70985 0.53486 0.13346
 C2740 C 0.71651 0.52974 0.14983
 C2741 C 0.72755 0.54169 0.15961
 C2742 C 0.73165 0.55860 0.15291
 C2743 C 0.73413 0.53663 0.17602
 C2744 C 0.72957 0.51985 0.18298
 C2745 C 0.71857 0.50806 0.17310
 C2746 C 0.71220 0.51291 0.15667
 H2747 H 0.70165 0.52549 0.12596
 H2748 H 0.74004 0.56797 0.16024
 H2749 H 0.74248 0.54593 0.18348
 H2750 H 0.70374 0.50356 0.14938
 H2751 H 0.72788 0.57707 0.13226
 H2752 H 0.71484 0.49504 0.17810
 C2753 C 0.72331 1.05285 0.62443
 C2754 C 0.71347 1.04038 0.61424
 C2755 C 0.70899 1.02363 0.62139
 C2756 C 0.71435 1.01940 0.63840
 C2757 C 0.72439 1.03203 0.64835
 C2758 C 0.72875 1.04871 0.64127
 C2759 C 0.72991 1.02784 0.66524
 C2760 C 0.72548 1.01119 0.67254
 C2761 C 0.71532 0.99874 0.66264
 C2762 C 0.70987 1.00278 0.64568
 H2763 H 0.70154 1.01381 0.61370
 H2764 H 0.73631 1.05860 0.64880
 H2765 H 0.73754 1.03771 0.67275
 H2766 H 0.70214 0.99294 0.63827
 H2767 H 0.72662 1.06598 0.61948
 H2768 H 0.71170 0.98583 0.66796
 C2769 C 0.56074 0.21057 0.63828
 C2770 C 0.54929 0.19988 0.62773
 C2771 C 0.53150 0.19636 0.63332
 C2772 C 0.52528 0.20351 0.64913
 C2773 C 0.53693 0.21442 0.65939
 C2774 C 0.55461 0.21782 0.65387
 C2775 C 0.53084 0.22158 0.67514
 C2776 C 0.51329 0.21779 0.68108
 C2777 C 0.50178 0.20685 0.67086
 C2778 C 0.50767 0.19988 0.65496
 H2779 H 0.52245 0.18824 0.62535
 H2780 H 0.56377 0.22601 0.66168
 H2781 H 0.54000 0.22975 0.68297
 H2782 H 0.49854 0.19152 0.64731
 H2783 H 0.57462 0.21319 0.63464
 H2784 H 0.48823 0.20367 0.67517
 C2785 C 1.05319 0.23050 0.12923
 C2786 C 1.04792 0.21325 0.12312
 C2787 C 1.03472 0.20388 0.13264
 C2788 C 1.02789 0.21112 0.14820
 C2789 C 1.03399 0.22805 0.15426
 C2790 C 1.04635 0.23774 0.14453
 C2791 C 1.02803 0.23491 0.17018
 C2792 C 1.01611 0.22500 0.18041
 C2793 C 1.00961 0.20838 0.17406
 C2794 C 1.01544 0.20151 0.15809
 H2795 H 1.03025 0.19065 0.12853
 H2796 H 1.05096 0.25089 0.14889
 H2797 H 1.03310 0.24779 0.17480
 H2798 H 1.01053 0.18849 0.15368
 H2799 H 1.06253 0.23876 0.12223
 H2800 H 1.00047 0.20040 0.18167
 C2801 C 0.61464 0.21575 0.68942
 C2802 C 0.62614 0.20586 0.70060
 C2803 C 0.62010 0.20189 0.71733
 C2804 C 0.60290 0.20791 0.72284
 C2805 C 0.59169 0.21805 0.71149
 C2806 C 0.59764 0.22184 0.69483
 C2807 C 0.57461 0.22416 0.71689
 C2808 C 0.56829 0.22015 0.73347
 C2809 C 0.57943 0.20994 0.74469
 C2810 C 0.59665 0.20396 0.73944
 H2811 H 0.62883 0.19435 0.72610
 H2812 H 0.58911 0.22945 0.68593
 H2813 H 0.56610 0.23179 0.70798
 H2814 H 0.60502 0.19617 0.74833
 H2815 H 0.61867 0.21864 0.67634
 H2816 H 0.57484 0.20662 0.75751
 C2817 C 1.12387 0.22195 0.19171
 C2818 C 1.13471 0.21200 0.20341
 C2819 C 1.12757 0.20772 0.21965
 C2820 C 1.10995 0.21336 0.22414
 C2821 C 1.09934 0.22352 0.21231
 C2822 C 1.10640 0.22769 0.19613
 C2823 C 1.08181 0.22930 0.21682
 C2824 C 1.07459 0.22495 0.23298
 C2825 C 1.08520 0.21472 0.24461
 C2826 C 1.10276 0.20904 0.24026
 H2827 H 1.13578 0.20022 0.22887
 H2828 H 1.09838 0.23534 0.18685
 H2829 H 1.07373 0.23704 0.20763
 H2830 H 1.11069 0.20124 0.24949
 H2831 H 1.12879 0.22514 0.17899
 H2832 H 1.07998 0.21119 0.25716
 C2833 C 0.12259 0.72650 0.55648
 C2834 C 0.11126 0.71823 0.54397
 C2835 C 0.11648 0.71817 0.52658
 C2836 C 0.13297 0.72588 0.52175
 C2837 C 0.14444 0.73389 0.53445
 C2838 C 0.13904 0.73427 0.55177
 C2839 C 0.16135 0.74086 0.52969
 C2840 C 0.16703 0.73952 0.51244
 C2841 C 0.15526 0.73198 0.49987
 C2842 C 0.13835 0.72532 0.50446
 H2843 H 0.10772 0.71207 0.51680
 H2844 H 0.14766 0.74029 0.56170
 H2845 H 0.17040 0.74648 0.53950
 H2846 H 0.12968 0.71931 0.49456
 H2847 H 0.11895 0.72658 0.57000
 H2848 H 0.15932 0.73089 0.48648
 C2849 C 0.14417 0.22164 1.06897
 C2850 C 0.13352 0.21161 1.05710
 C2851 C 0.14040 0.20811 1.04049
 C2852 C 0.15767 0.21422 1.03590
 C2853 C 0.16823 0.22425 1.04794
 C2854 C 0.16131 0.22794 1.06441
 C2855 C 0.18560 0.23021 1.04336
 C2856 C 0.19267 0.22601 1.02696
 C2857 C 0.18198 0.21603 1.01511
 C2858 C 0.16462 0.21028 1.01950
 H2859 H 0.13232 0.20066 1.03107
 H2860 H 0.16925 0.23552 1.07386
 H2861 H 0.19375 0.23775 1.05268
 H2862 H 0.15672 0.20260 1.01011
 H2863 H 0.13945 0.22435 1.08193
 H2864 H 0.18703 0.21265 1.00238
 C2865 C 0.63074 0.52766 0.18980
 C2866 C 0.61940 0.53714 0.20137
 C2867 C 0.62535 0.53980 0.21855
 C2868 C 0.64238 0.53308 0.22408
 C2869 C 0.65354 0.52349 0.21232
 C2870 C 0.64758 0.52085 0.19523
 C2871 C 0.67065 0.51701 0.21771
 C2872 C 0.67697 0.52027 0.23466
 C2873 C 0.66572 0.52971 0.24632
 C2874 C 0.64853 0.53596 0.24110
 H2875 H 0.61673 0.54698 0.22762
 H2876 H 0.65603 0.51368 0.18600
 H2877 H 0.67928 0.50994 0.20854
 H2878 H 0.64018 0.54326 0.25031
 H2879 H 0.62677 0.52575 0.17639
 H2880 H 0.67028 0.53238 0.25947
 C2881 C 0.61999 1.04992 0.72221
 C2882 C 0.60977 1.03641 0.71374
 C2883 C 0.61776 1.01927 0.71128
 C2884 C 0.63566 1.01575 0.71704
 C2885 C 0.64572 1.02946 0.72554
 C2886 C 0.63773 1.04647 0.72810
 C2887 C 0.66372 1.02604 0.73105
 C2888 C 0.67196 1.00917 0.72787
 C2889 C 0.66175 0.99559 0.71952
 C2890 C 0.64375 0.99881 0.71426
 H2891 H 0.61005 1.00864 0.70497
 H2892 H 0.64527 1.05718 0.73448
 H2893 H 0.67147 1.03670 0.73731
 H2894 H 0.63625 0.98812 0.70778
 H2895 H 0.61442 1.06334 0.72406
 H2896 H 0.66774 0.98245 0.71694
 C2897 C 0.87491 0.44099 0.28325
 C2898 C 0.88479 0.45347 0.29341
 C2899 C 0.87797 0.47115 0.29524
 C2900 C 0.86138 0.47618 0.28738
 C2901 C 0.85150 0.46345 0.27737
 C2902 C 0.85847 0.44594 0.27528
 C2903 C 0.83457 0.46828 0.27005
 C2904 C 0.82718 0.48558 0.27294
 C2905 C 0.83732 0.49825 0.28261
 C2906 C 0.85431 0.49363 0.28966
 H2907 H 0.88553 0.48098 0.30282
 H2908 H 0.85104 0.43597 0.26772
 H2909 H 0.82681 0.45833 0.26278
 H2910 H 0.86172 0.50359 0.29724
 H2911 H 0.87966 0.42722 0.28178
 H2912 H 0.83196 0.51169 0.28498
 C2913 C 0.87494 0.98100 0.80285
 C2914 C 0.88575 0.97077 0.79141
 C2915 C 0.87876 0.96657 0.77483
 C2916 C 0.86117 0.97215 0.76988
 C2917 C 0.85042 0.98232 0.78153
 C2918 C 0.85748 0.98677 0.79794
 C2919 C 0.83267 0.98756 0.77671
 C2920 C 0.82539 0.98248 0.76048
 C2921 C 0.83628 0.97249 0.74895
 C2922 C 0.85404 0.96747 0.75356
 H2923 H 0.88698 0.95895 0.76577
 H2924 H 0.84940 0.99447 0.80708
 H2925 H 0.82436 0.99510 0.78580
 H2926 H 0.86210 0.95970 0.74446
 H2927 H 0.87977 0.98424 0.81577
 H2928 H 0.83103 0.96845 0.73635
 C2929 C 0.38060 0.28335 0.81638
 C2930 C 0.36905 0.29292 0.80497
 C2931 C 0.37390 0.29413 0.78746
 C2932 C 0.38989 0.28570 0.78145
 C2933 C 0.40114 0.27591 0.79305
 C2934 C 0.39641 0.27489 0.81048
 C2935 C 0.41710 0.26749 0.78713
 C2936 C 0.42224 0.26895 0.76975
 C2937 C 0.41098 0.27875 0.75829
 C2938 C 0.39489 0.28693 0.76405
 H2939 H 0.36513 0.30134 0.77848
 H2940 H 0.40498 0.26761 0.81960
 H2941 H 0.42578 0.26023 0.79619
 H2942 H 0.38647 0.29439 0.75495
 H2943 H 0.37751 0.28249 0.82998
 H2944 H 0.41466 0.28013 0.74485
 C2945 C 0.88407 0.28335 0.31634
 C2946 C 0.87279 0.29319 0.30492
 C2947 C 0.87890 0.29631 0.28802
 C2948 C 0.89589 0.28966 0.28262
 C2949 C 0.90694 0.27961 0.29417
 C2950 C 0.90094 0.27661 0.31102
 C2951 C 0.92382 0.27276 0.28871
 C2952 C 0.92995 0.27597 0.27185
 C2953 C 0.91891 0.28616 0.26053
 C2954 C 0.90201 0.29285 0.26583
 H2955 H 0.87036 0.30366 0.27896
 H2956 H 0.90931 0.26907 0.32011
 H2957 H 0.93226 0.26511 0.29766
 H2958 H 0.89373 0.30056 0.25680
 H2959 H 0.87996 0.28098 0.32949
 H2960 H 0.92328 0.28884 0.24749
 C2961 C 0.36655 0.80626 0.46107
 C2962 C 0.37657 0.79203 0.45352
 C2963 C 0.36891 0.77478 0.45258
 C2964 C 0.35169 0.77167 0.45973
 C2965 C 0.34199 0.78604 0.46769
 C2966 C 0.34945 0.80332 0.46806
 C2967 C 0.32492 0.78296 0.47503
 C2968 C 0.31719 0.76574 0.47426
 C2969 C 0.32694 0.75153 0.46633
 C2970 C 0.34407 0.75444 0.45924
 H2971 H 0.37661 0.76374 0.44689
 H2972 H 0.34216 0.81453 0.47393
 H2973 H 0.31740 0.79408 0.48082
 H2974 H 0.35125 0.74324 0.45324
 H2975 H 0.37212 0.81971 0.46174
 H2976 H 0.32123 0.73813 0.46549
 C2977 C 0.38519 0.27357 0.94496
 C2978 C 0.39639 0.28324 0.95663
 C2979 C 0.39094 0.28520 0.97394
 C2980 C 0.37433 0.27816 0.97934
 C2981 C 0.36316 0.26863 0.96743
 C2982 C 0.36881 0.26624 0.95033
 C2983 C 0.34628 0.26212 0.97265
 C2984 C 0.34018 0.26541 0.98955
 C2985 C 0.35148 0.27469 1.00138
 C2986 C 0.36849 0.28087 0.99637
 H2987 H 0.39949 0.29235 0.98318
 H2988 H 0.36036 0.25906 0.94100
 H2989 H 0.33760 0.25515 0.96336
 H2990 H 0.37689 0.28813 1.00568
 H2991 H 0.38877 0.27202 0.93151
 H2992 H 0.34708 0.27733 1.01449
 C2993 C 0.77394 0.43973 0.37092
 C2994 C 0.78234 0.45245 0.38196
 C2995 C 0.78477 0.47012 0.37597
 C2996 C 0.77960 0.47484 0.35911
 C2997 C 0.77134 0.46189 0.34811
 C2998 C 0.76841 0.44443 0.35418
 C2999 C 0.76642 0.46655 0.33114
 C3000 C 0.76999 0.48391 0.32490
 C3001 C 0.77825 0.49666 0.33595
 C3002 C 0.78287 0.49221 0.35297
 H3003 H 0.79083 0.48025 0.38436
 H3004 H 0.76216 0.43431 0.34587
 H3005 H 0.76023 0.45652 0.32268
 H3006 H 0.78923 0.50228 0.36125
 H3007 H 0.77203 0.42599 0.37502
 H3008 H 0.78106 0.51011 0.33146
 C3009 C 0.78929 0.93852 0.85825
 C3010 C 0.79766 0.95184 0.86865
 C3011 C 0.79927 0.96938 0.86217
 C3012 C 0.79193 0.97367 0.84580
 C3013 C 0.78303 0.96024 0.83578
 C3014 C 0.78204 0.94266 0.84202
 C3015 C 0.77522 0.96457 0.81968
 C3016 C 0.77636 0.98214 0.81326
 C3017 C 0.78548 0.99537 0.82318
 C3018 C 0.79309 0.99120 0.83934
 H3019 H 0.80565 0.97975 0.87009
 H3020 H 0.77548 0.93214 0.83442
 H3021 H 0.76851 0.95417 0.81203
 H3022 H 0.79989 1.00168 0.84678
 H3023 H 0.78824 0.92481 0.86276
 H3024 H 0.78663 1.00900 0.81847
 C3025 C 0.30788 0.78426 0.38197
 C3026 C 0.29581 0.79393 0.37112
 C3027 C 0.27768 0.79648 0.37630
 C3028 C 0.27167 0.78920 0.39195
 C3029 C 0.28393 0.77921 0.40247
 C3030 C 0.30200 0.77690 0.39739
 C3031 C 0.27807 0.77198 0.41810
 C3032 C 0.26019 0.77496 0.42368
 C3033 C 0.24805 0.78490 0.41318
 C3034 C 0.25369 0.79181 0.39737
 H3035 H 0.26823 0.80388 0.36809
 H3036 H 0.31163 0.76950 0.40540
 H3037 H 0.28766 0.76463 0.42624
 H3038 H 0.24408 0.79944 0.38954
 H3039 H 0.32204 0.78247 0.37862
 H3040 H 0.23421 0.78745 0.41727
 C3041 C 0.28199 0.30942 0.89117
 C3042 C 0.29176 0.29763 0.88024
 C3043 C 0.29605 0.28017 0.88617
 C3044 C 0.29112 0.27478 0.90280
 C3045 C 0.28137 0.28682 0.91359
 C3046 C 0.27677 0.30404 0.90761
 C3047 C 0.27666 0.28156 0.93030
 C3048 C 0.28185 0.26451 0.93656
 C3049 C 0.29156 0.25262 0.92573
 C3050 C 0.29602 0.25766 0.90894
 H3051 H 0.30331 0.27076 0.87792
 H3052 H 0.26939 0.31347 0.91577
 H3053 H 0.26936 0.29096 0.93857
 H3054 H 0.30353 0.24826 0.90085
 H3055 H 0.27869 0.32302 0.88725
 H3056 H 0.29570 0.23942 0.93023
 C3057 C 0.47726 0.30900 0.86830
 C3058 C 0.46949 0.29618 0.87922
 C3059 C 0.46640 0.27868 0.87271
 C3060 C 0.47026 0.27422 0.85552
 C3061 C 0.47797 0.28719 0.84463
 C3062 C 0.48156 0.30451 0.85119
 C3063 C 0.48176 0.28262 0.82736
 C3064 C 0.47755 0.26536 0.82083
 C3065 C 0.46974 0.25267 0.83180
 C3066 C 0.46627 0.25701 0.84902
 H3067 H 0.46084 0.26846 0.88095
 H3068 H 0.48739 0.31467 0.84302
 H3069 H 0.48768 0.29254 0.81896
 H3070 H 0.46032 0.24693 0.85721
 H3071 H 0.47965 0.32263 0.87280
 H3072 H 0.46651 0.23924 0.82713
 C3073 C 0.94728 0.27888 0.37030
 C3074 C 0.96069 0.28794 0.38015
 C3075 C 0.97747 0.29174 0.37252
 C3076 C 0.98091 0.28626 0.35542
 C3077 C 0.96742 0.27683 0.34586
 C3078 C 0.95062 0.27333 0.35336
 C3079 C 0.97091 0.27099 0.32894
 C3080 C 0.98771 0.27453 0.32129
 C3081 C 1.00096 0.28420 0.33076
 C3082 C 0.99761 0.28995 0.34771
 H3083 H 0.98793 0.29868 0.37995
 H3084 H 0.94005 0.26631 0.34613
 H3085 H 0.96048 0.26376 0.32172
 H3086 H 1.00810 0.29722 0.35480
 H3087 H 0.93403 0.27621 0.37558
 H3088 H 1.01402 0.28713 0.32515
 C3089 C 0.47304 0.36720 0.80724
 C3090 C 0.46364 0.37798 0.79513
 C3091 C 0.46040 0.37098 0.77837
 C3092 C 0.46584 0.35339 0.77396
 C3093 C 0.47513 0.34269 0.78629
 C3094 C 0.47881 0.34977 0.80284
 C3095 C 0.48033 0.32500 0.78197
 C3096 C 0.47605 0.31771 0.76555
 C3097 C 0.46678 0.32847 0.75338
 C3098 C 0.46184 0.34621 0.75751
 H3099 H 0.45350 0.37914 0.76873
 H3100 H 0.48585 0.34171 0.81249
 H3101 H 0.48731 0.31678 0.79154
 H3102 H 0.45469 0.35423 0.74790
 H3103 H 0.47556 0.37201 0.82030
 H3104 H 0.46338 0.32319 0.74064
 C3105 C 0.97907 0.37018 0.31335
 C3106 C 0.96955 0.38149 0.30178
 C3107 C 0.96758 0.37594 0.28437
 C3108 C 0.97413 0.35907 0.27882
 C3109 C 0.98338 0.34772 0.29065
 C3110 C 0.98601 0.35352 0.30781
 C3111 C 0.98934 0.33057 0.28524
 C3112 C 0.98573 0.32442 0.26827
 C3113 C 0.97668 0.33589 0.25657
 C3114 C 0.97110 0.35314 0.26175
 H3115 H 0.96068 0.38457 0.27514
 H3116 H 0.99302 0.34496 0.31707
 H3117 H 0.99612 0.32176 0.29444
 H3118 H 0.96402 0.36168 0.25251
 H3119 H 0.98071 0.37389 0.32684
 H3120 H 0.97380 0.33146 0.24343
 C3121 C 0.27283 0.87697 0.43860
 C3122 C 0.28323 0.88673 0.45088
 C3123 C 0.28657 0.87913 0.46723
 C3124 C 0.27958 0.86214 0.47125
 C3125 C 0.26899 0.85263 0.45884
 C3126 C 0.26573 0.86016 0.44255
 C3127 C 0.26203 0.83563 0.46281
 C3128 C 0.26577 0.82783 0.47896
 C3129 C 0.27632 0.83741 0.49122
 C3130 C 0.28307 0.85445 0.48745
 H3131 H 0.29442 0.88650 0.47688
 H3132 H 0.25779 0.85299 0.43282
 H3133 H 0.25409 0.82831 0.45316
 H3134 H 0.29116 0.86152 0.49713
 H3135 H 0.27032 0.88221 0.42578
 H3136 H 0.27939 0.83171 0.50378
 C3137 C 0.28822 0.36359 0.94204
 C3138 C 0.29914 0.37503 0.95239
 C3139 C 0.30367 0.36968 0.96937
 C3140 C 0.29724 0.35328 0.97588
 C3141 C 0.28610 0.34213 0.96533
 C3142 C 0.28173 0.34739 0.94843
 C3143 C 0.27974 0.32574 0.97169
 C3144 C 0.28457 0.32001 0.98844
 C3145 C 0.29565 0.33119 0.99887
 C3146 C 0.30181 0.34772 0.99270
 H3147 H 0.31199 0.37833 0.97755
 H3148 H 0.27338 0.33892 0.94010
 H3149 H 0.27145 0.31718 0.96336
 H3150 H 0.31034 0.35604 1.00101
 H3151 H 0.28482 0.36703 0.92882
 H3152 H 0.29966 0.32710 1.01179
 C3153 C 0.77982 0.38048 0.31280
 C3154 C 0.79039 0.36992 0.30142
 C3155 C 0.79428 0.37667 0.28496
 C3156 C 0.78763 0.39367 0.27994
 C3157 C 0.77688 0.40400 0.29147
 C3158 C 0.77309 0.39730 0.30786
 C3159 C 0.77028 0.42099 0.28655
 C3160 C 0.77448 0.42801 0.27029
 C3161 C 0.78519 0.41766 0.25889
 C3162 C 0.79162 0.40059 0.26363
 H3163 H 0.80231 0.36867 0.27603
 H3164 H 0.76503 0.40513 0.31693
 H3165 H 0.76224 0.42891 0.29557
 H3166 H 0.79985 0.39289 0.25461
 H3167 H 0.77695 0.37589 0.32570
 H3168 H 0.78864 0.42277 0.24629
   
