data_POSCAR
  _audit_creation_date              2014-09-24
  _audit_creation_method            'ToBaCCo'
  _symmetry_space_group_name_H-M    'P1'
  _symmetry_Int_Tables_number       1
  _symmetry_cell_setting            triclinic
  loop_
  _symmetry_equiv_pos_as_xyz
 x,y,z
_cell_length_a 82.6462
_cell_length_b 83.5161
_cell_length_c 82.8576
_cell_angle_alpha 90.023100
_cell_angle_beta 90.025000
_cell_angle_gamma 89.904600
loop_
  _atom_site_label
  _atom_site_type_symbol
  _atom_site_fract_x
  _atom_site_fract_y
  _atom_site_fract_z
C1 C 0.32361 0.44312 0.92483
 C2 C 0.31749 0.44881 0.91007
 C3 C 0.30428 0.44120 0.90256
 C4 C 0.29710 0.42793 0.91013
 C5 C 0.30312 0.42209 0.92478
 C6 C 0.31639 0.42971 0.93220
 C7 C 0.33694 0.45053 0.93222
 C8 C 0.34331 0.44479 0.94700
 C9 C 0.33580 0.43134 0.95416
 C10 C 0.32255 0.42379 0.94688
 C11 C 0.31557 0.41018 0.95393
 C12 C 0.30246 0.40239 0.94650
 C13 C 0.29622 0.40854 0.93198
 H14 H 0.32325 0.45892 0.90424
 H15 H 0.28675 0.42214 0.90462
 H16 H 0.34190 0.46112 0.92657
 H17 H 0.34068 0.42604 0.96505
 H18 H 0.32032 0.40563 0.96523
 H19 H 0.28628 0.40249 0.92602
 C20 C 0.44904 0.82493 0.42854
 C21 C 0.45619 0.83870 0.43513
 C22 C 0.44947 0.84643 0.44879
 C23 C 0.43560 0.83956 0.45595
 C24 C 0.42834 0.82582 0.44946
 C25 C 0.43500 0.81853 0.43566
 C26 C 0.45552 0.81769 0.41468
 C27 C 0.44809 0.80417 0.40777
 C28 C 0.43407 0.79788 0.41499
 C29 C 0.42749 0.80494 0.42887
 C30 C 0.41333 0.79883 0.43586
 C31 C 0.40659 0.80606 0.44965
 C32 C 0.41434 0.81943 0.45648
 H33 H 0.46649 0.84377 0.42891
 H34 H 0.43049 0.84457 0.46686
 H35 H 0.46642 0.82253 0.40930
 H36 H 0.42806 0.78767 0.40960
 H37 H 0.40734 0.78869 0.43031
 H38 H 0.40942 0.82495 0.46725
 C39 C 0.94773 0.92784 0.82253
 C40 C 0.95551 0.91421 0.81640
 C41 C 0.94905 0.90557 0.80321
 C42 C 0.93477 0.91150 0.79590
 C43 C 0.92694 0.92520 0.80187
 C44 C 0.93340 0.93336 0.81528
 C45 C 0.95405 0.93587 0.83599
 C46 C 0.94612 0.94932 0.84270
 C47 C 0.93180 0.95480 0.83511
 C48 C 0.92541 0.94691 0.82157
 C49 C 0.91087 0.95210 0.81452
 C50 C 0.90423 0.94395 0.80122
 C51 C 0.91246 0.93060 0.79489
 H52 H 0.96684 0.91063 0.82187
 H53 H 0.92905 0.90506 0.78612
 H54 H 0.96542 0.93169 0.84092
 H55 H 0.92499 0.96470 0.84012
 H56 H 0.90451 0.96224 0.81967
 H57 H 0.90759 0.92436 0.78449
 C58 C 0.44693 -0.07530 0.32253
 C59 C 0.45299 -0.08979 0.31637
 C60 C 0.44580 -0.09702 0.30280
 C61 C 0.43270 -0.08933 0.29519
 C62 C 0.42643 -0.07497 0.30129
 C63 C 0.43351 -0.06793 0.31504
 C64 C 0.45387 -0.06824 0.33626
 C65 C 0.44749 -0.05396 0.34270
 C66 C 0.43404 -0.04678 0.33518
 C67 C 0.42703 -0.05365 0.32142
 C68 C 0.41340 -0.04664 0.31417
 C69 C 0.40617 -0.05366 0.30052
 C70 C 0.41294 -0.06773 0.29404
 H71 H 0.46298 -0.09568 0.32244
 H72 H 0.42727 -0.09462 0.28454
 H73 H 0.46428 -0.07382 0.34189
 H74 H 0.42879 -0.03599 0.34025
 H75 H 0.40816 -0.03593 0.31943
 H76 H 0.40764 -0.07313 0.28338
 C77 C 0.82517 0.30383 0.32237
 C78 C 0.81779 0.29683 0.33587
 C79 C 0.80370 0.30355 0.34261
 C80 C 0.79698 0.31737 0.33560
 C81 C 0.80424 0.32451 0.32210
 C82 C 0.81839 0.31774 0.31546
 C83 C 0.83933 0.29724 0.31581
 C84 C 0.84688 0.30438 0.30241
 C85 C 0.83999 0.31822 0.29555
 C86 C 0.82583 0.32495 0.30199
 C87 C 0.81909 0.33886 0.29526
 C88 C 0.80501 0.34575 0.30186
 C89 C 0.79766 0.33844 0.31528
 H90 H 0.82323 0.28634 0.34135
 H91 H 0.78603 0.32253 0.34058
 H92 H 0.84442 0.28647 0.32106
 H93 H 0.84585 0.32397 0.28539
 H94 H 0.82474 0.34427 0.28480
 H95 H 0.78699 0.34379 0.32065
 C96 C -0.19902 0.82211 0.82211
 C97 C -0.20584 0.83610 0.81570
 C98 C -0.19858 0.84422 0.80260
 C99 C -0.18432 0.83759 0.79589
 C100 C -0.17741 0.82353 0.80218
 C101 C -0.18477 0.81577 0.81536
 C102 C -0.20617 0.81451 0.83540
 C103 C -0.19923 0.80065 0.84213
 C104 C -0.18508 0.79428 0.83519
 C105 C -0.17777 0.80179 0.82190
 C106 C -0.16345 0.79566 0.81523
 C107 C -0.15588 0.80342 0.80219
 C108 C -0.16301 0.81733 0.79572
 H109 H -0.21716 0.84025 0.82077
 H110 H -0.17798 0.84365 0.78625
 H111 H -0.21690 0.81970 0.84082
 H112 H -0.17971 0.78351 0.84016
 H113 H -0.15819 0.78483 0.82018
 H114 H -0.15714 0.82356 0.78586
 C115 C 0.93032 0.32537 0.44877
 C116 C 0.93755 0.33871 0.45604
 C117 C 0.95149 0.34594 0.44936
 C118 C 0.95824 0.33902 0.43529
 C119 C 0.95119 0.32555 0.42800
 C120 C 0.93712 0.31876 0.43470
 C121 C 0.91611 0.31880 0.45519
 C122 C 0.90840 0.30581 0.44761
 C123 C 0.91540 0.29911 0.43368
 C124 C 0.92972 0.30547 0.42722
 C125 C 0.93657 0.29895 0.41321
 C126 C 0.95073 0.30552 0.40652
 C127 C 0.95795 0.31884 0.41400
 H128 H 0.93157 0.34395 0.46640
 H129 H 0.96926 0.34376 0.43014
 H130 H 0.91101 0.32386 0.46611
 H131 H 0.90950 0.28922 0.42761
 H132 H 0.93072 0.28891 0.40734
 H133 H 0.96890 0.32392 0.40898
 C134 C 0.42561 0.44474 0.82490
 C135 C 0.43101 0.45104 0.83962
 C136 C 0.44453 0.44444 0.84753
 C137 C 0.45280 0.43152 0.84038
 C138 C 0.44760 0.42516 0.82559
 C139 C 0.43397 0.43180 0.81781
 C140 C 0.41174 0.45093 0.81737
 C141 C 0.40605 0.44434 0.80282
 C142 C 0.41471 0.43170 0.79562
 C143 C 0.42850 0.42531 0.80308
 C144 C 0.43666 0.41224 0.79624
 C145 C 0.45006 0.40532 0.80407
 C146 C 0.45555 0.41197 0.81868
 H147 H 0.42466 0.46111 0.84493
 H148 H 0.46304 0.42616 0.84652
 H149 H 0.40505 0.46051 0.82317
 H150 H 0.41060 0.42669 0.78427
 H151 H 0.43246 0.40734 0.78487
 H152 H 0.46571 0.40660 0.82493
 C153 C 0.81863 0.92700 0.94694
 C154 C 0.81147 0.91349 0.95408
 C155 C 0.79767 0.90613 0.94720
 C156 C 0.79127 0.91276 0.93282
 C157 C 0.79835 0.92615 0.92551
 C158 C 0.81201 0.93333 0.93264
 C159 C 0.83255 0.93404 0.95372
 C160 C 0.84012 0.94736 0.94632
 C161 C 0.83286 0.95376 0.93227
 C162 C 0.81918 0.94674 0.92533
 C163 C 0.81282 0.95280 0.91090
 C164 C 0.79960 0.94536 0.90333
 C165 C 0.79224 0.93217 0.91086
 H166 H 0.81648 0.90914 0.96533
 H167 H 0.78123 0.90709 0.92669
 H168 H 0.83782 0.92848 0.96427
 H169 H 0.83755 0.96451 0.92670
 H170 H 0.81836 0.96320 0.90539
 H171 H 0.78210 0.92628 0.90510
 C172 C 0.32160 0.81994 0.30226
 C173 C 0.31493 0.83345 0.29470
 C174 C 0.30053 0.84064 0.30047
 C175 C 0.29289 0.83367 0.31403
 C176 C 0.29943 0.82015 0.32169
 C177 C 0.31382 0.81325 0.31578
 C178 C 0.33623 0.81329 0.29675
 C179 C 0.34314 0.79997 0.30456
 C180 C 0.33506 0.79319 0.31783
 C181 C 0.32056 0.79979 0.32355
 C182 C 0.31291 0.79334 0.33715
 C183 C 0.29862 0.80021 0.34323
 C184 C 0.29189 0.81356 0.33534
 H185 H 0.32157 0.83874 0.28479
 H186 H 0.28152 0.83835 0.31850
 H187 H 0.34244 0.81875 0.28665
 H188 H 0.34010 0.78275 0.32378
 H189 H 0.31839 0.78325 0.34332
 H190 H 0.28080 0.81885 0.33987
 C191 C 0.82335 0.42602 0.44623
 C192 C 0.81622 0.41232 0.45284
 C193 C 0.80292 0.40496 0.44532
 C194 C 0.79624 0.41202 0.43140
 C195 C 0.80310 0.42597 0.42481
 C196 C 0.81682 0.43289 0.43218
 C197 C 0.83714 0.43267 0.45337
 C198 C 0.84506 0.44602 0.44651
 C199 C 0.83811 0.45303 0.43257
 C200 C 0.82413 0.44655 0.42541
 C201 C 0.81760 0.45329 0.41132
 C202 C 0.80386 0.44657 0.40389
 C203 C 0.79668 0.43290 0.41076
 H204 H 0.82123 0.40722 0.46379
 H205 H 0.78606 0.40642 0.42542
 H206 H 0.84141 0.42744 0.46453
 H207 H 0.84390 0.46302 0.42663
 H208 H 0.82344 0.46359 0.40593
 H209 H 0.78603 0.42769 0.40524
 C210 C 0.94811 0.82513 -0.07139
 C211 C 0.95512 0.83867 -0.06416
 C212 C 0.94793 0.84591 -0.05060
 C213 C 0.93375 0.83921 -0.04411
 C214 C 0.92662 0.82571 -0.05122
 C215 C 0.93374 0.81871 -0.06498
 C216 C 0.95507 0.81820 -0.08515
 C217 C 0.94783 0.80492 -0.09294
 C218 C 0.93339 0.79867 -0.08628
 C219 C 0.92636 0.80544 -0.07245
 C220 C 0.91190 0.79925 -0.06610
 C221 C 0.90468 0.80621 -0.05241
 C222 C 0.91226 0.81935 -0.04496
 H223 H 0.96617 0.84360 -0.06912
 H224 H 0.92794 0.84482 -0.03383
 H225 H 0.96571 0.82384 -0.09019
 H226 H 0.92774 0.78817 -0.09145
 H227 H 0.90605 0.78928 -0.07209
 H228 H 0.90697 0.82468 -0.03426
 C229 C 0.32817 0.32571 0.80435
 C230 C 0.32098 0.33907 0.79697
 C231 C 0.30621 0.34527 0.80270
 C232 C 0.29864 0.33786 0.81596
 C233 C 0.30564 0.32447 0.82343
 C234 C 0.32045 0.31836 0.81760
 C235 C 0.34304 0.31970 0.79880
 C236 C 0.35034 0.30641 0.80632
 C237 C 0.34242 0.29905 0.81938
 C238 C 0.32761 0.30496 0.82509
 C239 C 0.31996 0.29777 0.83833
 C240 C 0.30524 0.30382 0.84430
 C241 C 0.29815 0.31719 0.83675
 H242 H 0.32683 0.34456 0.78667
 H243 H 0.28742 0.34271 0.82067
 H244 H 0.34911 0.32560 0.78886
 H245 H 0.34776 0.28862 0.82508
 H246 H 0.32568 0.28765 0.84423
 H247 H 0.28673 0.32185 0.84117
 C248 C 0.17780 0.55479 0.57171
 C249 C 0.16340 0.54865 0.56518
 C250 C 0.15654 0.55544 0.55121
 C251 C 0.16447 0.56830 0.54363
 C252 C 0.17871 0.57470 0.55011
 C253 C 0.18543 0.56791 0.56418
 C254 C 0.18440 0.54836 0.58593
 C255 C 0.19855 0.55489 0.59273
 C256 C 0.20616 0.56783 0.58498
 C257 C 0.19962 0.57447 0.57089
 C258 C 0.20680 0.58791 0.56371
 C259 C 0.19995 0.59497 0.54989
 C260 C 0.18605 0.58808 0.54300
 H261 H 0.15728 0.53890 0.57126
 H262 H 0.15945 0.57348 0.53272
 H263 H 0.17828 0.53857 0.59194
 H264 H 0.21718 0.57282 0.58996
 H265 H 0.21737 0.59324 0.56928
 H266 H 0.18081 0.59327 0.53221
 C267 C 0.57098 0.69826 0.07290
 C268 C 0.58506 0.70462 0.06595
 C269 C 0.59191 0.69761 0.05208
 C270 C 0.58430 0.68426 0.04505
 C271 C 0.57018 0.67783 0.05180
 C272 C 0.56352 0.68480 0.06581
 C273 C 0.56434 0.70502 0.08695
 C274 C 0.55044 0.69839 0.09412
 C275 C 0.54311 0.68497 0.08693
 C276 C 0.54952 0.67817 0.07284
 C277 C 0.54230 0.66466 0.06586
 C278 C 0.54885 0.65763 0.05188
 C279 C 0.56278 0.66436 0.04489
 H280 H 0.59068 0.71504 0.07135
 H281 H 0.58960 0.67858 0.03454
 H282 H 0.57000 0.71545 0.09229
 H283 H 0.53260 0.67956 0.09250
 H284 H 0.53176 0.65939 0.07154
 H285 H 0.56784 0.65915 0.03403
 C286 C 0.70307 0.17612 0.67705
 C287 C 0.70914 0.18217 0.66249
 C288 C 0.70171 0.19529 0.65484
 C289 C 0.68831 0.20265 0.66223
 C290 C 0.68220 0.19681 0.67688
 C291 C 0.68952 0.18341 0.68426
 C292 C 0.71010 0.16259 0.68420
 C293 C 0.70369 0.15585 0.69849
 C294 C 0.69021 0.16351 0.70569
 C295 C 0.68314 0.17714 0.69870
 C296 C 0.66959 0.18446 0.70580
 C297 C 0.66219 0.19782 0.69851
 C298 C 0.66861 0.20391 0.68405
 H299 H 0.71965 0.17657 0.65704
 H300 H 0.68234 0.21263 0.65636
 H301 H 0.71998 0.15683 0.67789
 H302 H 0.68531 0.15918 0.71699
 H303 H 0.66478 0.17974 0.71699
 H304 H 0.66279 0.21396 0.67813
 C305 C 1.07170 0.05372 0.17411
 C306 C 1.08549 0.04582 0.17999
 C307 C 1.09377 0.05161 0.19363
 C308 C 1.08779 0.06524 0.20164
 C309 C 1.07396 0.07321 0.19594
 C310 C 1.06596 0.06750 0.18205
 C311 C 1.06389 0.04824 0.16013
 C312 C 1.05033 0.05638 0.15367
 C313 C 1.04464 0.07011 0.16198
 C314 C 1.05236 0.07570 0.17598
 C315 C 1.04684 0.08958 0.18382
 C316 C 1.05478 0.09543 0.19765
 C317 C 1.06826 0.08704 0.20369
 H318 H 1.08982 0.03517 0.17387
 H319 H 1.09419 0.06998 0.21201
 H320 H 1.06913 0.03809 0.15390
 H321 H 1.03390 0.07635 0.15794
 H322 H 1.03664 0.09609 0.17885
 H323 H 1.07437 0.09128 0.21445
 C324 C 0.05105 0.17865 1.07175
 C325 C 0.04365 0.16525 1.06484
 C326 C 0.05079 0.15697 1.05177
 C327 C 0.06524 0.16328 1.04513
 C328 C 0.07267 0.17690 1.05184
 C329 C 0.06561 0.18449 1.06531
 C330 C 0.04429 0.18593 1.08541
 C331 C 0.05219 0.19868 1.09317
 C332 C 0.06653 0.20476 1.08644
 C333 C 0.07327 0.19775 1.07257
 C334 C 0.08784 0.20345 1.06619
 C335 C 0.09513 0.19590 1.05286
 C336 C 0.08740 0.18267 1.04568
 H337 H 0.03212 0.16149 1.06971
 H338 H 0.07136 0.15719 1.03535
 H339 H 0.03303 0.18136 1.09028
 H340 H 0.07284 0.21450 1.09237
 H341 H 0.09356 0.21376 1.07170
 H342 H 0.09306 0.17660 1.03559
 C343 C 0.18043 0.67680 0.70095
 C344 C 0.16667 0.68353 0.70811
 C345 C 0.15883 0.69675 0.70106
 C346 C 0.16546 0.70368 0.68708
 C347 C 0.17944 0.69722 0.67994
 C348 C 0.18685 0.68359 0.68679
 C349 C 0.18750 0.66302 0.70747
 C350 C 0.20064 0.65550 0.69979
 C351 C 0.20728 0.66255 0.68586
 C352 C 0.20048 0.67657 0.67932
 C353 C 0.20679 0.68344 0.66520
 C354 C 0.19955 0.69712 0.65835
 C355 C 0.18585 0.70388 0.66580
 H356 H 0.16187 0.67827 0.71906
 H357 H 0.15945 0.71378 0.68144
 H358 H 0.18251 0.65793 0.71843
 H359 H 0.21735 0.65682 0.67976
 H360 H 0.21737 0.67816 0.65959
 H361 H 0.17992 0.71415 0.66040
 C362 C 1.19884 0.17289 0.17510
 C363 C 1.20491 0.15853 0.18137
 C364 C 1.19770 0.15104 0.19487
 C365 C 1.18464 0.15901 0.20249
 C366 C 1.17854 0.17353 0.19638
 C367 C 1.18554 0.18039 0.18251
 C368 C 1.20574 0.17966 0.16126
 C369 C 1.19921 0.19359 0.15428
 C370 C 1.18597 0.20113 0.16183
 C371 C 1.17915 0.19465 0.17593
 C372 C 1.16579 0.20197 0.18333
 C373 C 1.15872 0.19529 0.19723
 C374 C 1.16524 0.18108 0.20370
 H375 H 1.21554 0.15344 0.17572
 H376 H 1.17850 0.15363 0.21265
 H377 H 1.21615 0.17392 0.15578
 H378 H 1.18069 0.21177 0.15651
 H379 H 1.16067 0.21271 0.17803
 H380 H 1.15998 0.17589 0.21447
 C381 C 0.67907 1.07387 0.54828
 C382 C 0.66506 1.06762 0.54102
 C383 C 0.65772 1.05368 0.54711
 C384 C 0.66457 1.04602 0.56060
 C385 C 0.67854 1.05209 0.56794
 C386 C 0.68583 1.06605 0.56177
 C387 C 0.68619 1.08799 0.54245
 C388 C 0.70005 1.09464 0.54993
 C389 C 0.70683 1.08632 0.56321
 C390 C 0.69978 1.07228 0.56920
 C391 C 0.70638 1.06451 0.58271
 C392 C 0.69902 1.05074 0.58915
 C393 C 0.68512 1.04457 0.58159
 H394 H 0.65992 1.07356 0.53058
 H395 H 0.65881 1.03549 0.56561
 H396 H 0.68025 1.09413 0.53259
 H397 H 0.71789 1.09044 0.56881
 H398 H 0.71723 1.06925 0.58827
 H399 H 0.67915 1.03414 0.58657
 C400 C 0.54849 0.57005 0.18326
 C401 C 0.54102 0.56406 0.16932
 C402 C 0.54798 0.55132 0.16062
 C403 C 0.56229 0.54423 0.16641
 C404 C 0.56984 0.55003 0.18041
 C405 C 0.56300 0.56308 0.18880
 C406 C 0.54195 0.58326 0.19142
 C407 C 0.54978 0.58974 0.20499
 C408 C 0.56419 0.58263 0.21055
 C409 C 0.57086 0.56937 0.20252
 C410 C 0.58552 0.56261 0.20772
 C411 C 0.59247 0.54963 0.19936
 C412 C 0.58440 0.54331 0.18583
 H413 H 0.52984 0.56946 0.16514
 H414 H 0.56793 0.53458 0.15970
 H415 H 0.53104 0.58885 0.18682
 H416 H 0.57025 0.58748 0.22107
 H417 H 0.59176 0.56778 0.21797
 H418 H 0.58951 0.53318 0.17942
 C419 C 0.67836 0.69912 0.17826
 C420 C 0.66462 0.70561 0.18575
 C421 C 0.65755 0.69797 0.19913
 C422 C 0.66454 0.68378 0.20510
 C423 C 0.67834 0.67719 0.19779
 C424 C 0.68528 0.68489 0.18433
 C425 C 0.68511 0.70649 0.16462
 C426 C 0.69867 0.69979 0.15689
 C427 C 0.70563 0.68574 0.16317
 C428 C 0.69901 0.67824 0.17678
 C429 C 0.70571 0.66399 0.18271
 C430 C 0.69873 0.65604 0.19595
 C431 C 0.68508 0.66281 0.20350
 H432 H 0.65944 0.71663 0.18116
 H433 H 0.65900 0.67764 0.21521
 H434 H 0.67977 0.71742 0.15997
 H435 H 0.71592 0.68032 0.15715
 H436 H 0.71639 0.65906 0.17695
 H437 H 0.67944 0.65670 0.21356
 C438 C 0.17262 0.05328 1.07190
 C439 C 0.15826 0.04769 1.06477
 C440 C 0.15174 0.05506 1.05081
 C441 C 0.16047 0.06791 1.04392
 C442 C 0.17477 0.07361 1.05096
 C443 C 0.18084 0.06633 1.06503
 C444 C 0.17867 0.04615 1.08601
 C445 C 0.19284 0.05192 1.09366
 C446 C 0.20091 0.06504 1.08648
 C447 C 0.19504 0.07221 1.07233
 C448 C 0.20297 0.08549 1.06558
 C449 C 0.19695 0.09288 1.05155
 C450 C 0.18296 0.08668 1.04421
 H451 H 0.15181 0.03815 1.07078
 H452 H 0.15647 0.07341 1.03279
 H453 H 0.17244 0.03572 1.09061
 H454 H 0.21139 0.07033 1.09218
 H455 H 0.21361 0.09029 1.07149
 H456 H 0.17834 0.09211 1.03325
 C457 C 0.57360 0.17759 0.55137
 C458 C 0.58790 0.18371 0.54478
 C459 C 0.59599 0.19658 0.55214
 C460 C 0.58911 0.20381 0.56588
 C461 C 0.57461 0.19793 0.57248
 C462 C 0.56693 0.18463 0.56530
 C463 C 0.56618 0.16420 0.54446
 C464 C 0.55240 0.15729 0.55155
 C465 C 0.54557 0.16455 0.56529
 C466 C 0.55273 0.17820 0.57219
 C467 C 0.54618 0.18528 0.58610
 C468 C 0.55368 0.19861 0.59330
 C469 C 0.56791 0.20484 0.58639
 H470 H 0.59289 0.17826 0.53400
 H471 H 0.59528 0.21367 0.57173
 H472 H 0.57134 0.15897 0.53364
 H473 H 0.53503 0.15929 0.57095
 H474 H 0.53519 0.18043 0.59128
 H475 H 0.57398 0.21487 0.59207
 C476 C 0.07042 0.55223 0.67987
 C477 C 0.08491 0.54588 0.68586
 C478 C 0.09291 0.55309 0.69896
 C479 C 0.08586 0.56655 0.70643
 C480 C 0.07125 0.57300 0.70062
 C481 C 0.06355 0.56586 0.68722
 C482 C 0.06292 0.54538 0.66636
 C483 C 0.04866 0.55201 0.65995
 C484 C 0.04178 0.56553 0.66743
 C485 C 0.04914 0.57250 0.68099
 C486 C 0.04252 0.58622 0.68818
 C487 C 0.05008 0.59346 0.70154
 C488 C 0.06441 0.58668 0.70774
 H489 H 0.09003 0.53532 0.68021
 H490 H 0.09199 0.57232 0.71642
 H491 H 0.06853 0.53517 0.66051
 H492 H 0.03070 0.57065 0.66267
 H493 H 0.03169 0.59151 0.68307
 H494 H 0.07027 0.59205 0.71811
 C495 C 0.67654 0.57423 0.05053
 C496 C 0.66215 0.56797 0.04419
 C497 C 0.65421 0.55512 0.05180
 C498 C 0.66117 0.54825 0.06569
 C499 C 0.67570 0.55425 0.07207
 C500 C 0.68337 0.56733 0.06449
 C501 C 0.68398 0.58754 0.04334
 C502 C 0.69807 0.59425 0.05005
 C503 C 0.70497 0.58708 0.06379
 C504 C 0.69772 0.57371 0.07103
 C505 C 0.70440 0.56693 0.08498
 C506 C 0.69678 0.55402 0.09279
 C507 C 0.68246 0.54768 0.08617
 H508 H 0.65707 0.57321 0.03335
 H509 H 0.65506 0.53852 0.07181
 H510 H 0.67868 0.59278 0.03260
 H511 H 0.71567 0.59226 0.06925
 H512 H 0.71556 0.57176 0.08979
 H513 H 0.67633 0.53791 0.09221
 C514 C 0.05108 0.67899 0.57369
 C515 C 0.04457 0.68634 0.58750
 C516 C 0.05204 0.69989 0.59429
 C517 C 0.06570 0.70642 0.58664
 C518 C 0.07246 0.69904 0.57304
 C519 C 0.06523 0.68521 0.56656
 C520 C 0.04400 0.66515 0.56727
 C521 C 0.05105 0.65715 0.55406
 C522 C 0.06521 0.66343 0.54705
 C523 C 0.07236 0.67739 0.55322
 C524 C 0.08687 0.68334 0.54668
 C525 C 0.09429 0.69699 0.55335
 C526 C 0.08674 0.70496 0.56626
 H527 H 0.03412 0.68109 0.59334
 H528 H 0.07136 0.71707 0.59153
 H529 H 0.03301 0.66054 0.57267
 H530 H 0.07094 0.65720 0.53710
 H531 H 0.09266 0.67704 0.53681
 H532 H 0.09219 0.71565 0.57129
 C533 C 0.54926 1.07356 0.67729
 C534 C 0.54222 1.06741 0.66320
 C535 C 0.54886 1.05395 0.65516
 C536 C 0.56252 1.04643 0.66219
 C537 C 0.56960 1.05240 0.67638
 C538 C 0.56302 1.06608 0.68388
 C539 C 0.54285 1.08728 0.68474
 C540 C 0.55023 1.09384 0.69854
 C541 C 0.56395 1.08624 0.70506
 C542 C 0.57034 1.07241 0.69787
 C543 C 0.58417 1.06506 0.70425
 C544 C 0.59085 1.05138 0.69690
 C545 C 0.58344 1.04511 0.68297
 H546 H 0.53129 1.07308 0.65882
 H547 H 0.56837 1.03642 0.65629
 H548 H 0.53216 1.09292 0.67972
 H549 H 0.56993 1.09132 0.71551
 H550 H 0.58997 1.07022 0.71476
 H551 H 0.58843 1.03451 0.67727
 C552 C 0.42648 0.32517 0.94642
 C553 C 0.43240 0.33889 0.95417
 C554 C 0.44603 0.34725 0.94820
 C555 C 0.45394 0.34094 0.93443
 C556 C 0.44818 0.32715 0.92661
 C557 C 0.43433 0.31931 0.93254
 C558 C 0.41267 0.31732 0.95226
 C559 C 0.40635 0.30386 0.94422
 C560 C 0.41427 0.29812 0.93035
 C561 C 0.42822 0.30571 0.92450
 C562 C 0.43597 0.30007 0.91055
 C563 C 0.44984 0.30777 0.90453
 C564 C 0.45589 0.32127 0.91271
 H565 H 0.42643 0.34272 0.96514
 H566 H 0.46410 0.34712 0.92907
 H567 H 0.40681 0.32173 0.96309
 H568 H 0.40939 0.28793 0.92388
 H569 H 0.43097 0.28987 0.90419
 H570 H 0.46667 0.32721 0.90830
 C571 C 0.92687 0.44647 0.32477
 C572 C 0.93274 0.45251 0.33937
 C573 C 0.94552 0.44489 0.34776
 C574 C 0.95258 0.43110 0.34069
 C575 C 0.94676 0.42489 0.32601
 C576 C 0.93386 0.43263 0.31803
 C577 C 0.91382 0.45394 0.31699
 C578 C 0.90752 0.44770 0.30254
 C579 C 0.91473 0.43402 0.29573
 C580 C 0.92776 0.42642 0.30342
 C581 C 0.93452 0.41246 0.29693
 C582 C 0.94710 0.40436 0.30495
 C583 C 0.95331 0.41078 0.31940
 H584 H 0.92752 0.46354 0.34385
 H585 H 0.96206 0.42460 0.34690
 H586 H 0.90817 0.46430 0.32251
 H587 H 0.91009 0.42920 0.28450
 H588 H 0.92985 0.40780 0.28564
 H589 H 0.96289 0.40454 0.32576
 C590 C 0.32203 0.94786 0.42552
 C591 C 0.31526 0.95327 0.41096
 C592 C 0.30167 0.94560 0.40423
 C593 C 0.29484 0.93245 0.41236
 C594 C 0.30152 0.92685 0.42685
 C595 C 0.31509 0.93466 0.43351
 C596 C 0.33580 0.95530 0.43205
 C597 C 0.34284 0.94983 0.44662
 C598 C 0.33549 0.93671 0.45453
 C599 C 0.32187 0.92909 0.44804
 C600 C 0.31524 0.91563 0.45569
 C601 C 0.30204 0.90743 0.44888
 C602 C 0.29509 0.91330 0.43455
 H603 H 0.32083 0.96319 0.40465
 H604 H 0.28427 0.92655 0.40742
 H605 H 0.34065 0.96565 0.42588
 H606 H 0.34084 0.93162 0.46529
 H607 H 0.32049 0.91145 0.46691
 H608 H 0.28504 0.90701 0.42905
 O609 O 0.20768 0.51888 0.74729
 O610 O 0.21324 0.51617 0.77566
 O611 O 0.25062 0.54156 0.72973
 O612 O 0.27732 0.53653 0.72974
 O613 O 0.23060 0.50099 0.70478
 O614 O 0.23167 0.47268 0.70950
 O615 O 0.29266 0.49543 0.76969
 O616 O 0.28826 0.52320 0.76749
 O617 O 0.25117 0.47525 0.78918
 O618 O 0.22164 0.47779 0.78321
 O619 O 0.27115 0.45590 0.74829
 O620 O 0.27006 0.46254 0.71903
 O621 O 0.29253 0.47707 0.74940
 O622 O 0.28723 0.47969 0.71979
 O623 O 0.25091 0.45512 0.76681
 O624 O 0.22158 0.46141 0.76521
 O625 O 0.27122 0.49380 0.79025
 O626 O 0.26666 0.52276 0.78700
 O627 O 0.20782 0.50045 0.72707
 O628 O 0.21340 0.47209 0.72724
 O629 O 0.25016 0.52005 0.70609
 O630 O 0.27917 0.51686 0.71274
 O631 O 0.23073 0.54082 0.74866
 O632 O 0.23136 0.53364 0.77680
 Zr633 Zr 0.23106 0.51719 0.75740
 O634 O 0.24488 0.50217 0.77247
 Zr635 Zr 0.25987 0.51805 0.72949
 O636 O 0.27498 0.50317 0.74346
 Zr637 Zr 0.23111 0.49031 0.72780
 O638 O 0.24497 0.47411 0.74154
 Zr639 Zr 0.26958 0.50589 0.76805
 O640 O 0.25584 0.52236 0.75424
 Zr641 Zr 0.24074 0.47818 0.76620
 O642 O 0.22537 0.49313 0.75239
 Zr643 Zr 0.26968 0.47909 0.73839
 O644 O 0.25582 0.49400 0.72299
 O645 O 0.23530 0.51429 0.73288
 O646 O 0.26541 0.48185 0.76294
 C647 C 0.20088 0.51143 0.73550
 C648 C 0.23915 0.54812 0.73789
 C649 C 0.23887 0.51250 0.69861
 C650 C 0.29929 0.48415 0.76142
 C651 C 0.26308 0.48217 0.79631
 C652 C 0.26292 0.44878 0.75932
 H653 H 0.24223 0.50439 0.78390
 H654 H 0.24229 0.46302 0.73837
 H655 H 0.22858 0.52157 0.72624
 H656 H 0.28644 0.50579 0.74129
 H657 H 0.28304 0.53357 0.76487
 H658 H 0.28586 0.53326 0.73742
 H659 H 0.22303 0.45488 0.75536
 H660 H 0.20786 0.47237 0.73783
 H661 H 0.27620 0.52191 0.79422
 H662 H 0.24220 0.53866 0.77677
 H663 H 0.26041 0.45563 0.72002
 H664 H 0.24262 0.47310 0.70469
 H665 H 0.20792 0.50561 0.77460
 H666 H 0.22335 0.48673 0.79086
 H667 H 0.27739 0.50719 0.70607
 H668 H 0.29447 0.48888 0.72189
 O669 O 0.27000 -0.04689 0.24784
 O670 O 0.26944 -0.04105 0.21970
 O671 O 0.29155 -0.00421 0.26735
 O672 O 0.28586 0.02199 0.26845
 O673 O 0.24929 -0.02525 0.28952
 O674 O 0.22115 -0.02442 0.28335
 O675 O 0.24744 0.03716 0.22555
 O676 O 0.27518 0.03280 0.22890
 O677 O 0.22819 -0.00394 0.20424
 O678 O 0.23020 -0.03283 0.20982
 O679 O 0.20598 0.01528 0.24444
 O680 O 0.21084 0.01463 0.27341
 O681 O 0.22744 0.03695 0.24441
 O682 O 0.22883 0.03099 0.27445
 O683 O 0.20668 -0.00410 0.22521
 O684 O 0.21317 -0.03350 0.22739
 O685 O 0.24640 0.01639 0.20461
 O686 O 0.27570 0.01161 0.20926
 O687 O 0.25023 -0.04741 0.26692
 O688 O 0.22143 -0.04181 0.26492
 O689 O 0.26842 -0.00574 0.28999
 O690 O 0.26501 0.02333 0.28342
 O691 O 0.29215 -0.02405 0.24854
 O692 O 0.28660 -0.02259 0.21984
 Zr693 Zr 0.26887 -0.02363 0.23820
 O694 O 0.25440 -0.01003 0.22241
 Zr695 Zr 0.26762 0.00438 0.26664
 O696 O 0.25352 0.01943 0.25182
 Zr697 Zr 0.23989 -0.02434 0.26599
 O698 O 0.22428 -0.01037 0.25164
 Zr699 Zr 0.25772 0.01434 0.22735
 O700 O 0.27360 0.00085 0.24213
 Zr701 Zr 0.22986 -0.01429 0.22724
 O702 O 0.24434 -0.02959 0.24156
 Zr703 Zr 0.22895 0.01413 0.25536
 O704 O 0.24301 0.00009 0.27148
 O705 O 0.26436 -0.01990 0.26256
 O706 O 0.23320 0.01012 0.23098
 C707 C 0.26184 -0.05398 0.25894
 C708 C 0.29879 -0.01550 0.25963
 C709 C 0.26042 -0.01718 0.29665
 C710 C 0.23554 0.04374 0.23303
 C711 C 0.23515 0.00820 0.19777
 C712 C 0.19962 0.00741 0.23272
 H713 H 0.25728 -0.01251 0.21109
 H714 H 0.21293 -0.01312 0.25412
 H715 H 0.27137 -0.02661 0.26950
 H716 H 0.25604 0.03074 0.25427
 H717 H 0.28550 0.02763 0.23209
 H718 H 0.28400 0.02963 0.25954
 H719 H 0.20539 -0.03162 0.23625
 H720 H 0.22267 -0.04737 0.25444
 H721 H 0.27505 0.02102 0.20198
 H722 H 0.29186 -0.01199 0.22079
 H723 H 0.20499 0.00432 0.27295
 H724 H 0.22109 -0.01364 0.28832
 H725 H 0.25865 -0.04617 0.21963
 H726 H 0.24006 -0.03149 0.20320
 H727 H 0.25518 0.02103 0.28984
 H728 H 0.23764 0.03874 0.27244
 O729 O 0.54359 0.72795 0.25204
 O730 O 0.53795 0.72943 0.28014
 O731 O 0.50119 0.70413 0.23392
 O732 O 0.47467 0.70851 0.23244
 O733 O 0.52049 0.74609 0.20976
 O734 O 0.51852 0.77411 0.21515
 O735 O 0.45806 0.74782 0.27462
 O736 O 0.46318 0.72032 0.27155
 O737 O 0.49847 0.76897 0.29464
 O738 O 0.52781 0.76809 0.28882
 O739 O 0.47805 0.78856 0.25353
 O740 O 0.47870 0.78267 0.22479
 O741 O 0.45722 0.76660 0.25475
 O742 O 0.46294 0.76421 0.22468
 O743 O 0.49772 0.78972 0.27264
 O744 O 0.52753 0.78448 0.27079
 O745 O 0.47937 0.74945 0.29515
 O746 O 0.48493 0.72081 0.29097
 O747 O 0.54308 0.74671 0.23216
 O748 O 0.53637 0.77500 0.23335
 O749 O 0.50146 0.72648 0.21022
 O750 O 0.47211 0.72854 0.21707
 O751 O 0.52139 0.70504 0.25255
 O752 O 0.52009 0.71174 0.28100
 Zr753 Zr 0.52014 0.72848 0.26186
 O754 O 0.50583 0.74275 0.27721
 Zr755 Zr 0.49157 0.72743 0.23366
 O756 O 0.47583 0.74121 0.24805
 Zr757 Zr 0.51940 0.75609 0.23303
 O758 O 0.50468 0.77141 0.24695
 Zr759 Zr 0.48135 0.73814 0.27257
 O760 O 0.49560 0.72255 0.25832
 Zr761 Zr 0.50894 0.76707 0.27156
 O762 O 0.52497 0.75289 0.25761
 Zr763 Zr 0.48016 0.76555 0.24356
 O764 O 0.49484 0.75173 0.22787
 O765 O 0.51599 0.73183 0.23736
 O766 O 0.48447 0.76246 0.26807
 C767 C 0.55027 0.73584 0.24051
 C768 C 0.51283 0.69768 0.24191
 C769 C 0.51253 0.73466 0.20308
 C770 C 0.45090 0.75903 0.26672
 C771 C 0.48699 0.76123 0.30159
 C772 C 0.48574 0.79580 0.26484
 H773 H 0.50854 0.74037 0.28858
 H774 H 0.50692 0.78265 0.24400
 H775 H 0.52296 0.72490 0.23060
 H776 H 0.46448 0.73817 0.24582
 H777 H 0.46870 0.71017 0.26872
 H778 H 0.46692 0.71023 0.24136
 H779 H 0.52553 0.79143 0.26134
 H780 H 0.54202 0.77438 0.24387
 H781 H 0.47540 0.72109 0.29823
 H782 H 0.50969 0.70592 0.28034
 H783 H 0.48880 0.78900 0.22499
 H784 H 0.50765 0.77345 0.21017
 H785 H 0.54256 0.74035 0.27980
 H786 H 0.52687 0.75856 0.29583
 H787 H 0.47385 0.73815 0.21031
 H788 H 0.45536 0.75542 0.22722
 O789 O 0.04409 0.72883 0.75211
 O790 O 0.03766 0.73000 0.78030
 O791 O 0.00121 0.70818 0.73202
 O792 O -0.02523 0.71407 0.73079
 O793 O 0.02320 0.74955 0.70986
 O794 O 0.02311 0.77741 0.71597
 O795 O -0.04077 0.75348 0.77283
 O796 O -0.03713 0.72584 0.76949
 O797 O 0.00090 0.77133 0.79469
 O798 O 0.03002 0.76891 0.78959
 O799 O -0.01740 0.79345 0.75377
 O800 O -0.01597 0.78813 0.72461
 O801 O -0.03970 0.77262 0.75333
 O802 O -0.03322 0.77120 0.72377
 O803 O 0.00192 0.79266 0.77325
 O804 O 0.03140 0.78553 0.77199
 O805 O -0.01995 0.75366 0.79414
 O806 O -0.01604 0.72468 0.78952
 O807 O 0.04539 0.74818 0.73285
 O808 O 0.04044 0.77671 0.73451
 O809 O 0.00316 0.73096 0.70920
 O810 O -0.02607 0.73459 0.71530
 O811 O 0.02072 0.70744 0.75137
 O812 O 0.01882 0.71321 0.77988
 Zr813 Zr 0.02047 0.73057 0.76140
 O814 O 0.00667 0.74530 0.77675
 Zr815 Zr -0.00726 0.73197 0.73245
 O816 O -0.02245 0.74648 0.74676
 Zr817 Zr 0.02231 0.75891 0.73335
 O818 O 0.00829 0.77479 0.74728
 Zr819 Zr -0.01796 0.74252 0.77139
 O820 O -0.00431 0.72634 0.75710
 Zr821 Zr 0.01162 0.76944 0.77181
 O822 O 0.02706 0.75467 0.75792
 Zr823 Zr -0.01644 0.77062 0.74307
 O824 O -0.00232 0.75619 0.72743
 O825 O 0.01726 0.73483 0.73692
 O826 O -0.01304 0.76667 0.76761
 C827 C 0.05161 0.73661 0.74102
 C828 C 0.01231 0.70090 0.74010
 C829 C 0.01485 0.73875 0.70263
 C830 C -0.04698 0.76514 0.76479
 C831 C -0.01145 0.76453 0.80111
 C832 C -0.00942 0.79980 0.76544
 H833 H 0.00890 0.74247 0.78813
 H834 H 0.01137 0.78593 0.74474
 H835 H 0.02400 0.72772 0.73011
 H836 H -0.03389 0.74424 0.74410
 H837 H -0.03216 0.71545 0.76649
 H838 H -0.03347 0.71662 0.73904
 H839 H 0.03003 0.79300 0.76283
 H840 H 0.04575 0.77554 0.74516
 H841 H -0.02570 0.72551 0.79657
 H842 H 0.00797 0.70829 0.77891
 H843 H -0.00584 0.79430 0.72580
 H844 H 0.01229 0.77773 0.71084
 H845 H 0.04333 0.74043 0.78005
 H846 H 0.02854 0.75908 0.79606
 H847 H -0.02368 0.74439 0.70903
 H848 H -0.04094 0.76230 0.72533
 O849 O -0.04830 0.00188 -0.02107
 O850 O -0.04296 0.03019 -0.02020
 O851 O -0.00581 -0.01655 -0.04384
 O852 O 0.02099 -0.01648 -0.03922
 O853 O -0.02467 -0.03913 -0.00093
 O854 O -0.02354 -0.03259 0.02715
 O855 O 0.03681 0.02564 -0.00075
 O856 O 0.03184 0.02186 -0.02841
 O857 O -0.00455 0.04620 0.01913
 O858 O -0.03404 0.03984 0.01772
 O859 O 0.01590 0.00662 0.04106
 O860 O 0.01534 -0.02256 0.03588
 O861 O 0.03728 0.00689 0.01914
 O862 O 0.03210 -0.02268 0.01825
 O863 O -0.00413 0.02527 0.04087
 O864 O -0.03344 0.02323 0.03540
 O865 O 0.01545 0.04605 0.00034
 O866 O 0.01021 0.04121 -0.02854
 O867 O -0.04789 -0.01726 -0.00157
 O868 O -0.04183 -0.01498 0.02689
 O869 O -0.00570 -0.03894 -0.02078
 O870 O 0.02327 -0.03203 -0.01852
 O871 O -0.02574 0.00225 -0.04382
 O872 O -0.02531 0.03034 -0.03818
 Zr873 Zr -0.02505 0.01209 -0.02051
 O874 O -0.01107 0.02797 -0.00661
 Zr875 Zr 0.00385 -0.01557 -0.02031
 O876 O 0.01916 -0.00078 -0.00649
 Zr877 Zr -0.02440 -0.01563 0.00823
 O878 O -0.01026 -0.00101 0.02341
 Zr879 Zr 0.01355 0.02339 -0.01058
 O880 O -0.00038 0.00868 -0.02604
 Zr881 Zr -0.01473 0.02316 0.01796
 O882 O -0.03031 0.00855 0.00407
 Zr883 Zr 0.01442 -0.00431 0.01817
 O884 O 0.00030 -0.02050 0.00436
 O885 O -0.02066 -0.01204 -0.01628
 O886 O 0.00991 0.01981 0.01402
 C887 C -0.05498 -0.00943 -0.01293
 C888 C -0.01734 -0.00874 -0.05074
 C889 C -0.01661 -0.04596 -0.01229
 C890 C 0.04379 0.01830 0.01098
 C891 C 0.00733 0.05281 0.01167
 C892 C 0.00778 0.01802 0.04766
 H893 H -0.01383 0.03914 -0.00947
 H894 H -0.01274 -0.00350 0.03480
 H895 H -0.02743 -0.01909 -0.02311
 H896 H 0.03058 -0.00304 -0.00924
 H897 H 0.02641 0.01866 -0.03856
 H898 H 0.02943 -0.00850 -0.03668
 H899 H -0.03199 0.01367 0.04231
 H900 H -0.04750 -0.00457 0.02592
 H901 H 0.01973 0.04842 -0.02829
 H902 H -0.01450 0.03024 -0.04332
 H903 H 0.00561 -0.02148 0.04274
 H904 H -0.01256 -0.03734 0.02689
 H905 H -0.04819 0.02966 -0.00947
 H906 H -0.03260 0.04689 0.00823
 H907 H 0.02177 -0.03797 -0.00829
 H908 H 0.03921 -0.02103 0.00879
 O909 O 0.04108 0.52360 0.50190
 O910 O 0.03468 0.52245 0.47381
 O911 O -0.00156 0.54436 0.52220
 O912 O -0.02812 0.53889 0.52298
 O913 O 0.02001 0.50305 0.54440
 O914 O 0.02010 0.47519 0.53819
 O915 O -0.04378 0.49946 0.48113
 O916 O -0.04009 0.52706 0.48453
 O917 O -0.00256 0.48085 0.45953
 O918 O 0.02678 0.48353 0.46448
 O919 O -0.02033 0.45928 0.50077
 O920 O -0.01937 0.46481 0.52964
 O921 O -0.04262 0.48010 0.50040
 O922 O -0.03643 0.48198 0.53030
 O923 O -0.00123 0.45975 0.48108
 O924 O 0.02823 0.46687 0.48221
 O925 O -0.02297 0.49908 0.46007
 O926 O -0.01894 0.52807 0.46456
 O927 O 0.04234 0.50440 0.52132
 O928 O 0.03742 0.47589 0.51969
 O929 O 0.00003 0.52180 0.54478
 O930 O -0.02913 0.51833 0.53868
 O931 O 0.01775 0.54518 0.50268
 O932 O 0.01575 0.53923 0.47406
 Zr933 Zr 0.01745 0.52198 0.49265
 O934 O 0.00362 0.50723 0.47733
 Zr935 Zr -0.01029 0.52076 0.52156
 O936 O -0.02554 0.50635 0.50731
 Zr937 Zr 0.01925 0.49371 0.52083
 O938 O 0.00517 0.47788 0.50692
 Zr939 Zr -0.02096 0.51026 0.48272
 O940 O -0.00729 0.52640 0.49694
 Zr941 Zr 0.00846 0.48303 0.48232
 O942 O 0.02393 0.49781 0.49620
 Zr943 Zr -0.01955 0.48222 0.51109
 O944 O -0.00537 0.49657 0.52670
 O945 O 0.01423 0.51778 0.51715
 O946 O -0.01616 0.48608 0.48656
 C947 C 0.04859 0.51588 0.51305
 C948 C 0.00951 0.55164 0.51415
 C949 C 0.01160 0.51393 0.55151
 C950 C -0.04989 0.48762 0.48892
 C951 C -0.01484 0.48789 0.45316
 C952 C -0.01244 0.45273 0.48914
 H953 H 0.00584 0.51000 0.46594
 H954 H 0.00822 0.46673 0.50955
 H955 H 0.02099 0.52483 0.52398
 H956 H -0.03698 0.50865 0.50992
 H957 H -0.03510 0.53742 0.48752
 H958 H -0.03656 0.53616 0.51499
 H959 H 0.02695 0.45956 0.49150
 H960 H 0.04271 0.47702 0.50903
 H961 H -0.02858 0.52727 0.45748
 H962 H 0.00503 0.54441 0.47521
 H963 H -0.00903 0.45887 0.52887
 H964 H 0.00934 0.47497 0.54342
 H965 H 0.04003 0.51184 0.47383
 H966 H 0.02499 0.49313 0.45771
 H967 H -0.02686 0.50847 0.54491
 H968 H -0.04447 0.49054 0.52829
 O969 O 0.49948 0.04598 0.51735
 O970 O 0.47110 0.03966 0.51558
 O971 O 0.51931 0.00495 0.54064
 O972 O 0.51997 -0.02160 0.53648
 O973 O 0.54200 0.02416 0.49815
 O974 O 0.53613 0.02218 0.46988
 O975 O 0.47896 -0.03937 0.49685
 O976 O 0.48214 -0.03425 0.52457
 O977 O 0.45700 0.00067 0.47633
 O978 O 0.46218 0.02977 0.47737
 O979 O 0.49838 -0.01851 0.45563
 O980 O 0.52779 -0.01639 0.46140
 O981 O 0.49873 -0.03923 0.47777
 O982 O 0.52814 -0.03295 0.47901
 O983 O 0.47893 0.00074 0.45497
 O984 O 0.47974 0.03004 0.46046
 O985 O 0.45752 -0.01863 0.49562
 O986 O 0.46189 -0.01351 0.52443
 O987 O 0.51889 0.04595 0.49791
 O988 O 0.51774 0.03967 0.46953
 O989 O 0.54227 0.00512 0.51776
 O990 O 0.53628 -0.02368 0.51616
 O991 O 0.49942 0.02379 0.54007
 O992 O 0.47109 0.02221 0.53375
 Zr993 Zr 0.48997 0.02257 0.51656
 O994 O 0.47481 0.00796 0.50242
 Zr995 Zr 0.51896 -0.00500 0.51725
 O996 O 0.50496 -0.02083 0.50325
 Zr997 Zr 0.51853 0.02264 0.48838
 O998 O 0.50466 0.00799 0.47302
 Zr999 Zr 0.48024 -0.01621 0.50671
 O1000 O 0.49420 -0.00168 0.52238
 Zr1001 Zr 0.47996 0.01150 0.47788
 O1002 O 0.49381 0.02761 0.49196
 Zr1003 Zr 0.50890 -0.01618 0.47865
 O1004 O 0.52438 -0.00152 0.49267
 O1005 O 0.51458 0.01906 0.51286
 O1006 O 0.48424 -0.01270 0.48216
 C1007 C 0.51077 0.05283 0.50919
 C1008 C 0.51081 0.01608 0.54727
 C1009 C 0.54906 0.01626 0.50947
 C1010 C 0.48719 -0.04608 0.48552
 C1011 C 0.45053 -0.01099 0.48411
 C1012 C 0.48684 -0.01091 0.44858
 H1013 H 0.46338 0.01030 0.50505
 H1014 H 0.50735 0.01043 0.46167
 H1015 H 0.52133 0.02607 0.51974
 H1016 H 0.50763 -0.03201 0.50615
 H1017 H 0.48500 -0.02876 0.53478
 H1018 H 0.51249 -0.03042 0.53374
 H1019 H 0.48935 0.02864 0.45348
 H1020 H 0.50696 0.04483 0.47009
 H1021 H 0.45496 -0.02319 0.52414
 H1022 H 0.47160 0.01162 0.53910
 H1023 H 0.52625 -0.00707 0.45420
 H1024 H 0.54144 0.01157 0.47049
 H1025 H 0.47179 0.04481 0.50484
 H1026 H 0.45543 0.02864 0.48716
 H1027 H 0.54239 -0.02223 0.50599
 H1028 H 0.52672 -0.03983 0.48862
 O1029 O 0.53868 0.52296 0.00245
 O1030 O 0.53245 0.52089 -0.02572
 O1031 O 0.49613 0.54503 0.02160
 O1032 O 0.46959 0.53986 0.02270
 O1033 O 0.51716 0.50400 0.04534
 O1034 O 0.51656 0.47585 0.03989
 O1035 O 0.45352 0.49958 -0.01808
 O1036 O 0.45768 0.52730 -0.01531
 O1037 O 0.49455 0.48004 -0.03920
 O1038 O 0.52406 0.48224 -0.03386
 O1039 O 0.47600 0.45964 0.00244
 O1040 O 0.47731 0.46579 0.03134
 O1041 O 0.45422 0.48077 0.00175
 O1042 O 0.46044 0.48323 0.03157
 O1043 O 0.49516 0.45934 -0.01719
 O1044 O 0.52469 0.46562 -0.01605
 O1045 O 0.47420 0.49836 -0.03895
 O1046 O 0.47881 0.52732 -0.03539
 O1047 O 0.53956 0.50426 0.02238
 O1048 O 0.53419 0.47582 0.02151
 O1049 O 0.49740 0.52297 0.04495
 O1050 O 0.46826 0.51985 0.03893
 O1051 O 0.51572 0.54480 0.00233
 O1052 O 0.51393 0.53811 -0.02606
 Zr1053 Zr 0.51511 0.52135 -0.00697
 O1054 O 0.50103 0.50651 -0.02195
 Zr1055 Zr 0.48717 0.52147 0.02178
 O1056 O 0.47173 0.50689 0.00794
 Zr1057 Zr 0.51628 0.49392 0.02203
 O1058 O 0.50201 0.47794 0.00842
 Zr1059 Zr 0.47649 0.51010 -0.01670
 O1060 O 0.49043 0.52637 -0.00295
 Zr1061 Zr 0.50545 0.48238 -0.01631
 O1062 O 0.52114 0.49720 -0.00270
 Zr1063 Zr 0.47734 0.48276 0.01238
 O1064 O 0.49166 0.49735 0.02765
 O1065 O 0.51166 0.51795 0.01761
 O1066 O 0.48088 0.48596 -0.01222
 C1067 C 0.54601 0.51547 0.01388
 C1068 C 0.50740 0.55182 0.01339
 C1069 C 0.50884 0.51524 0.05202
 C1070 C 0.44716 0.48807 -0.00999
 C1071 C 0.48226 0.48702 -0.04566
 C1072 C 0.48368 0.45275 -0.00912
 H1073 H 0.50333 0.50896 -0.03340
 H1074 H 0.50484 0.46680 0.01131
 H1075 H 0.51848 0.52513 0.02425
 H1076 H 0.46032 0.50943 0.01045
 H1077 H 0.46288 0.53766 -0.01271
 H1078 H 0.46112 0.53706 0.01476
 H1079 H 0.52336 0.45876 -0.00642
 H1080 H 0.53936 0.47641 0.01075
 H1081 H 0.46910 0.52655 -0.04239
 H1082 H 0.50322 0.54336 -0.02529
 H1083 H 0.48742 0.45949 0.03054
 H1084 H 0.50577 0.47607 0.04507
 H1085 H 0.53781 0.51029 -0.02514
 H1086 H 0.52236 0.49156 -0.04102
 H1087 H 0.47031 0.51009 0.04539
 H1088 H 0.45261 0.49193 0.02939
 O1089 O 0.79519 0.25265 0.47814
 O1090 O 0.79039 0.22417 0.47918
 O1091 O 0.75221 0.27036 0.45579
 O1092 O 0.72539 0.26955 0.46048
 O1093 O 0.77109 0.29284 0.49842
 O1094 O 0.76978 0.28653 0.52662
 O1095 O 0.71060 0.22711 0.49918
 O1096 O 0.71525 0.23109 0.47137
 O1097 O 0.75250 0.20735 0.51864
 O1098 O 0.78156 0.21401 0.51728
 O1099 O 0.73131 0.24658 0.54070
 O1100 O 0.73151 0.27591 0.53545
 O1101 O 0.70983 0.24609 0.51887
 O1102 O 0.71438 0.27552 0.51815
 O1103 O 0.75156 0.22817 0.54026
 O1104 O 0.78114 0.23112 0.53455
 O1105 O 0.73236 0.20713 0.49999
 O1106 O 0.73718 0.21213 0.47103
 O1107 O 0.79434 0.27134 0.49809
 O1108 O 0.78835 0.26929 0.52650
 O1109 O 0.75190 0.29259 0.47877
 O1110 O 0.72300 0.28523 0.48127
 O1111 O 0.77230 0.25172 0.45556
 O1112 O 0.77262 0.22364 0.46122
 Zr1113 Zr 0.77210 0.24190 0.47890
 O1114 O 0.75846 0.22575 0.49283
 Zr1115 Zr 0.74265 0.26906 0.47932
 O1116 O 0.72769 0.25395 0.49318
 Zr1117 Zr 0.77094 0.26948 0.50779
 O1118 O 0.75722 0.25462 0.52301
 Zr1119 Zr 0.73370 0.22986 0.48906
 O1120 O 0.74730 0.24487 0.47356
 Zr1121 Zr 0.76215 0.23057 0.51740
 O1122 O 0.77737 0.24546 0.50349
 Zr1123 Zr 0.73249 0.25757 0.51783
 O1124 O 0.74620 0.27403 0.50399
 O1125 O 0.76723 0.26590 0.48327
 O1126 O 0.73743 0.23352 0.51361
 C1127 C 0.80160 0.26395 0.48656
 C1128 C 0.76374 0.26267 0.44877
 C1129 C 0.76300 0.29960 0.48706
 C1130 C 0.70354 0.23445 0.51088
 C1131 C 0.74069 0.20053 0.51128
 C1132 C 0.73959 0.23521 0.54714
 H1133 H 0.76139 0.21463 0.48994
 H1134 H 0.75972 0.25713 0.53439
 H1135 H 0.77387 0.27303 0.47642
 H1136 H 0.71621 0.25600 0.49051
 H1137 H 0.72053 0.23447 0.46120
 H1138 H 0.71700 0.26159 0.46320
 H1139 H 0.77901 0.24008 0.54207
 H1140 H 0.79416 0.25895 0.52566
 H1141 H 0.72781 0.20473 0.47139
 H1142 H 0.76173 0.22344 0.45625
 H1143 H 0.74116 0.27481 0.54243
 H1144 H 0.75879 0.29125 0.52620
 H1145 H 0.79572 0.22490 0.48986
 H1146 H 0.78061 0.20744 0.50740
 H1147 H 0.72454 0.29125 0.49145
 H1148 H 0.70755 0.27406 0.50846
 O1149 O 0.74883 0.77033 -0.04384
 O1150 O 0.72045 0.76819 -0.03792
 O1151 O 0.76697 0.79395 -0.00154
 O1152 O 0.76709 0.78945 0.02519
 O1153 O 0.79171 0.75305 -0.02101
 O1154 O 0.78692 0.72470 -0.01930
 O1155 O 0.72719 0.74889 0.04153
 O1156 O 0.72937 0.77648 0.03661
 O1157 O 0.70686 0.72835 0.00022
 O1158 O 0.71307 0.72981 -0.02905
 O1159 O 0.74874 0.70856 0.02015
 O1160 O 0.77766 0.71531 0.01932
 O1161 O 0.74751 0.73048 0.04164
 O1162 O 0.77711 0.73277 0.03593
 O1163 O 0.72929 0.70782 0.00079
 O1164 O 0.73092 0.71332 -0.02867
 O1165 O 0.70638 0.74680 0.02036
 O1166 O 0.70960 0.77565 0.01527
 O1167 O 0.76918 0.75196 -0.04357
 O1168 O 0.76899 0.72381 -0.03743
 O1169 O 0.79057 0.77239 -0.00173
 O1170 O 0.78416 0.76979 0.02725
 O1171 O 0.74784 0.79299 -0.02124
 O1172 O 0.71966 0.78598 -0.02022
 Zr1173 Zr 0.73900 0.76938 -0.02038
 O1174 O 0.72395 0.75469 -0.00623
 Zr1175 Zr 0.76720 0.77063 0.00811
 O1176 O 0.75330 0.75609 0.02353
 Zr1177 Zr 0.76862 0.74239 -0.02010
 O1178 O 0.75487 0.72653 -0.00590
 Zr1179 Zr 0.72861 0.75880 0.01830
 O1180 O 0.74238 0.77498 0.00422
 Zr1181 Zr 0.73009 0.73059 -0.00997
 O1182 O 0.74389 0.74518 -0.02565
 Zr1183 Zr 0.75827 0.73189 0.01864
 O1184 O 0.77364 0.74650 0.00444
 O1185 O 0.76360 0.76646 -0.01631
 O1186 O 0.73359 0.73463 0.01458
 C1187 C 0.76054 0.76270 -0.05062
 C1188 C 0.75872 0.80037 -0.01302
 C1189 C 0.79797 0.76466 -0.01294
 C1190 C 0.73562 0.73786 0.04838
 C1191 C 0.69994 0.73542 0.01216
 C1192 C 0.73737 0.70144 0.01237
 H1193 H 0.71249 0.75693 -0.00884
 H1194 H 0.75801 0.71539 -0.00843
 H1195 H 0.77020 0.77358 -0.02322
 H1196 H 0.75560 0.75893 0.03489
 H1197 H 0.73197 0.78673 0.03119
 H1198 H 0.75950 0.78634 0.03385
 H1199 H 0.74071 0.70668 -0.02704
 H1200 H 0.75824 0.72387 -0.04271
 H1201 H 0.70245 0.77500 0.02487
 H1202 H 0.71974 0.79112 -0.00945
 H1203 H 0.77713 0.70878 0.00938
 H1204 H 0.79210 0.72561 -0.00856
 H1205 H 0.72146 0.75759 -0.04317
 H1206 H 0.70566 0.73903 -0.02776
 H1207 H 0.79081 0.76006 0.02561
 H1208 H 0.77514 0.74212 0.04299
 O1209 O 1.00551 0.20786 0.23199
 O1210 O 0.97696 0.21334 0.23333
 O1211 O 1.02394 0.24939 0.20807
 O1212 O 1.02415 0.27593 0.21212
 O1213 O 1.04708 0.23097 0.25084
 O1214 O 1.04113 0.23353 0.27919
 O1215 O 0.98180 0.29261 0.25107
 O1216 O 0.98576 0.28743 0.22335
 O1217 O 0.96133 0.25278 0.27197
 O1218 O 0.96744 0.22345 0.27101
 O1219 O 1.00195 0.27288 0.29283
 O1220 O 1.03129 0.27199 0.28714
 O1221 O 1.00115 0.29347 0.27058
 O1222 O 1.03106 0.28830 0.26916
 O1223 O 0.98306 0.25317 0.29341
 O1224 O 0.98455 0.22410 0.28842
 O1225 O 0.96128 0.27150 0.25208
 O1226 O 0.96620 0.26608 0.22343
 O1227 O 1.02487 0.20868 0.25149
 O1228 O 1.02327 0.21543 0.27979
 O1229 O 1.04690 0.24970 0.23093
 O1230 O 1.04015 0.27849 0.23264
 O1231 O 1.00482 0.22985 0.20889
 O1232 O 0.97647 0.23041 0.21497
 Zr1233 Zr 0.99524 0.23098 0.23230
 O1234 O 0.97946 0.24533 0.24602
 Zr1235 Zr 1.02335 0.25941 0.23143
 O1236 O 1.00867 0.27502 0.24507
 Zr1237 Zr 1.02361 0.23215 0.26064
 O1238 O 1.00909 0.24659 0.27565
 Zr1239 Zr 0.98420 0.26954 0.24138
 O1240 O 0.99877 0.25523 0.22611
 Zr1241 Zr 0.98454 0.24229 0.27063
 O1242 O 0.99908 0.22640 0.25698
 Zr1243 Zr 1.01252 0.27085 0.26978
 O1244 O 1.02865 0.25643 0.25612
 O1245 O 1.01967 0.23528 0.23610
 O1246 O 0.98805 0.26651 0.26602
 C1247 C 1.01697 0.20143 0.24029
 C1248 C 1.01583 0.23792 0.20158
 C1249 C 1.05390 0.23870 0.23928
 C1250 C 0.98932 0.29968 0.26263
 C1251 C 0.95454 0.26407 0.26385
 C1252 C 0.99061 0.26499 0.29984
 H1253 H 0.96812 0.24263 0.24332
 H1254 H 1.01177 0.24436 0.28705
 H1255 H 1.02661 0.22836 0.22930
 H1256 H 1.01093 0.28625 0.24207
 H1257 H 0.98894 0.28192 0.21325
 H1258 H 1.01636 0.28455 0.21468
 H1259 H 0.99438 0.22547 0.29508
 H1260 H 1.01272 0.20986 0.27917
 H1261 H 0.95897 0.27557 0.22346
 H1262 H 0.97658 0.24094 0.20948
 H1263 H 1.03041 0.26240 0.29408
 H1264 H 1.04631 0.24416 0.27817
 H1265 H 0.97759 0.20851 0.24423
 H1266 H 0.96023 0.22476 0.26157
 H1267 H 1.04623 0.27718 0.24285
 H1268 H 1.02917 0.29522 0.25966
 O1269 O 0.74911 1.03942 0.72537
 O1270 O 0.77717 1.03208 0.72597
 O1271 O 0.72770 0.99787 0.70333
 O1272 O 0.72605 0.97160 0.70860
 O1273 O 0.70611 1.01912 0.74571
 O1274 O 0.71255 1.01812 0.77386
 O1275 O 0.76792 0.95429 0.74779
 O1276 O 0.76408 0.95852 0.71991
 O1277 O 0.79099 0.99427 0.76646
 O1278 O 0.78642 1.02356 0.76451
 O1279 O 0.74950 0.97709 0.78879
 O1280 O 0.72020 0.97944 0.78343
 O1281 O 0.74875 0.95560 0.76743
 O1282 O 0.71916 0.96242 0.76621
 O1283 O 0.76975 0.99543 0.78808
 O1284 O 0.76931 1.02469 0.78189
 O1285 O 0.78953 0.97415 0.74807
 O1286 O 0.78484 0.97878 0.71902
 O1287 O 0.72985 1.04060 0.74492
 O1288 O 0.73129 1.03502 0.77334
 O1289 O 0.70513 0.99987 0.72632
 O1290 O 0.71032 0.97083 0.72936
 O1291 O 0.74749 1.01675 0.70301
 O1292 O 0.77598 1.01411 0.70844
 Zr1293 Zr 0.75771 1.01569 0.72622
 O1294 O 0.77288 1.00119 0.74050
 Zr1295 Zr 0.72808 0.98892 0.72709
 O1296 O 0.74205 0.97317 0.74130
 Zr1297 Zr 0.72976 1.01748 0.75500
 O1298 O 0.74364 1.00298 0.77053
 Zr1299 Zr 0.76677 0.97706 0.73714
 O1300 O 0.75278 0.99139 0.72130
 Zr1301 Zr 0.76830 1.00568 0.76500
 O1302 O 0.75451 1.02165 0.75071
 Zr1303 Zr 0.73873 0.97874 0.76581
 O1304 O 0.72328 0.99336 0.75165
 O1305 O 0.73312 1.01302 0.73058
 O1306 O 0.76335 0.98151 0.76161
 C1307 C 0.73828 1.04695 0.73356
 C1308 C 0.73599 1.00884 0.69626
 C1309 C 0.69873 1.01130 0.73454
 C1310 C 0.76005 0.94827 0.75971
 C1311 C 0.79690 0.98197 0.75921
 C1312 C 0.76161 0.98438 0.79516
 H1313 H 0.78431 1.00313 0.73759
 H1314 H 0.74127 1.00585 0.78186
 H1315 H 0.72644 1.02008 0.72365
 H1316 H 0.73910 0.96197 0.73884
 H1317 H 0.76118 0.96376 0.70958
 H1318 H 0.73363 0.96284 0.71131
 H1319 H 0.75999 1.02358 0.78928
 H1320 H 0.74226 1.03970 0.77259
 H1321 H 0.79158 0.96896 0.71953
 H1322 H 0.77490 1.00342 0.70340
 H1323 H 0.72184 0.98916 0.79004
 H1324 H 0.70696 1.00765 0.77371
 H1325 H 0.77720 1.03740 0.73665
 H1326 H 0.79323 1.02166 0.75488
 H1327 H 0.70437 0.97300 0.73950
 H1328 H 0.72052 0.95496 0.75703
 O1329 O 0.70875 0.52016 0.24570
 O1330 O 0.71426 0.51963 0.27408
 O1331 O 0.75145 0.54261 0.22690
 O1332 O 0.77825 0.53809 0.22710
 O1333 O 0.73204 0.50062 0.20438
 O1334 O 0.73401 0.47255 0.21063
 O1335 O 0.79408 0.50019 0.26966
 O1336 O 0.78902 0.52753 0.26594
 O1337 O 0.75293 0.48006 0.29029
 O1338 O 0.72346 0.48167 0.28413
 O1339 O 0.77325 0.45862 0.25040
 O1340 O 0.77283 0.46348 0.22131
 O1341 O 0.79446 0.48039 0.25079
 O1342 O 0.78918 0.48138 0.22081
 O1343 O 0.75304 0.45861 0.26896
 O1344 O 0.72360 0.46447 0.26699
 O1345 O 0.77246 0.49917 0.29029
 O1346 O 0.76731 0.52776 0.28526
 O1347 O 0.70937 0.50059 0.22661
 O1348 O 0.71568 0.47243 0.22840
 O1349 O 0.75142 0.51989 0.20461
 O1350 O 0.78053 0.51749 0.21154
 O1351 O 0.73130 0.54286 0.24558
 O1352 O 0.73215 0.53738 0.27419
 Zr1353 Zr 0.73214 0.51977 0.25585
 O1354 O 0.74611 0.50591 0.27189
 Zr1355 Zr 0.76110 0.51936 0.22808
 O1356 O 0.77640 0.50573 0.24305
 Zr1357 Zr 0.73290 0.49111 0.22794
 O1358 O 0.74701 0.47607 0.24273
 Zr1359 Zr 0.77074 0.50985 0.26738
 O1360 O 0.75684 0.52518 0.25247
 Zr1361 Zr 0.74256 0.48148 0.26710
 O1362 O 0.72700 0.49531 0.25232
 Zr1363 Zr 0.77166 0.48129 0.23945
 O1364 O 0.75757 0.49491 0.22303
 O1365 O 0.73658 0.51542 0.23159
 O1366 O 0.76718 0.48543 0.26377
 C1367 C 0.70215 0.51183 0.23442
 C1368 C 0.73977 0.54954 0.23443
 C1369 C 0.74013 0.51192 0.19759
 C1370 C 0.80102 0.48854 0.26223
 C1371 C 0.76458 0.48775 0.29704
 C1372 C 0.76501 0.45195 0.26169
 H1373 H 0.74336 0.50875 0.28315
 H1374 H 0.74454 0.46477 0.24020
 H1375 H 0.72972 0.52216 0.22454
 H1376 H 0.78781 0.50847 0.24079
 H1377 H 0.78361 0.53759 0.26261
 H1378 H 0.78662 0.53566 0.23526
 H1379 H 0.72526 0.45732 0.25762
 H1380 H 0.71000 0.47326 0.23889
 H1381 H 0.77679 0.52754 0.29260
 H1382 H 0.74282 0.54273 0.27370
 H1383 H 0.76265 0.45728 0.22175
 H1384 H 0.74484 0.47321 0.20558
 H1385 H 0.70936 0.50882 0.27391
 H1386 H 0.72491 0.49112 0.29117
 H1387 H 0.77885 0.50750 0.20533
 H1388 H 0.79652 0.49053 0.22271
 O1389 O 0.50557 0.20909 0.73088
 O1390 O 0.47743 0.21529 0.73282
 O1391 O 0.52455 0.25067 0.70737
 O1392 O 0.52586 0.27700 0.71187
 O1393 O 0.54853 0.23079 0.74904
 O1394 O 0.54362 0.23246 0.77731
 O1395 O 0.48489 0.29398 0.75237
 O1396 O 0.48722 0.28910 0.72453
 O1397 O 0.46427 0.25386 0.77339
 O1398 O 0.46949 0.22488 0.77220
 O1399 O 0.50583 0.27336 0.79277
 O1400 O 0.53479 0.27171 0.78664
 O1401 O 0.50524 0.29404 0.77087
 O1402 O 0.53506 0.28765 0.76831
 O1403 O 0.48639 0.25420 0.79393
 O1404 O 0.48797 0.22448 0.78830
 O1405 O 0.46382 0.27338 0.75431
 O1406 O 0.46733 0.26799 0.72520
 O1407 O 0.52540 0.20881 0.74992
 O1408 O 0.52509 0.21527 0.77839
 O1409 O 0.54822 0.24999 0.72960
 O1410 O 0.54187 0.27907 0.73189
 O1411 O 0.50536 0.23121 0.70817
 O1412 O 0.47685 0.23329 0.71511
 Zr1413 Zr 0.49614 0.23248 0.73187
 O1414 O 0.48121 0.24674 0.74667
 Zr1415 Zr 0.52489 0.26015 0.73086
 O1416 O 0.51096 0.27581 0.74514
 Zr1417 Zr 0.52537 0.23221 0.75944
 O1418 O 0.51193 0.24683 0.77525
 Zr1419 Zr 0.48619 0.27096 0.74234
 O1420 O 0.50003 0.25678 0.72620
 Zr1421 Zr 0.48717 0.24316 0.77106
 O1422 O 0.50061 0.22724 0.75636
 Zr1423 Zr 0.51575 0.27107 0.76956
 O1424 O 0.53098 0.25644 0.75523
 O1425 O 0.52080 0.23601 0.73509
 O1426 O 0.49106 0.26737 0.76671
 C1427 C 0.51688 0.20205 0.73885
 C1428 C 0.51634 0.23933 0.70082
 C1429 C 0.55525 0.23876 0.73759
 C1430 C 0.49328 0.30072 0.76353
 C1431 C 0.45745 0.26566 0.76613
 C1432 C 0.49433 0.26597 0.80003
 H1433 H 0.46971 0.24432 0.74441
 H1434 H 0.51494 0.24441 0.78653
 H1435 H 0.52739 0.22902 0.72802
 H1436 H 0.51340 0.28702 0.74219
 H1437 H 0.48978 0.28369 0.71420
 H1438 H 0.51730 0.28499 0.71404
 H1439 H 0.49715 0.22658 0.79567
 H1440 H 0.51437 0.21002 0.77803
 H1441 H 0.46022 0.27755 0.72577
 H1442 H 0.47773 0.24365 0.70938
 H1443 H 0.53408 0.26190 0.79326
 H1444 H 0.54861 0.24322 0.77690
 H1445 H 0.47792 0.21044 0.74371
 H1446 H 0.46255 0.22587 0.76253
 H1447 H 0.54872 0.27716 0.74150
 H1448 H 0.53275 0.29516 0.75937
 O1449 O 0.29363 0.75425 0.48225
 O1450 O 0.28826 0.72595 0.48336
 O1451 O 0.25107 0.77273 0.45960
 O1452 O 0.22442 0.77323 0.46427
 O1453 O 0.27060 0.79496 0.50244
 O1454 O 0.26886 0.78869 0.53062
 O1455 O 0.20828 0.73061 0.50273
 O1456 O 0.21316 0.73466 0.47508
 O1457 O 0.24985 0.70980 0.52226
 O1458 O 0.27877 0.71601 0.52172
 O1459 O 0.22936 0.75020 0.54447
 O1460 O 0.22979 0.77902 0.53914
 O1461 O 0.20808 0.74951 0.52249
 O1462 O 0.21327 0.77920 0.52135
 O1463 O 0.24866 0.73081 0.54426
 O1464 O 0.27847 0.73315 0.53891
 O1465 O 0.22980 0.71015 0.50350
 O1466 O 0.23475 0.71527 0.47467
 O1467 O 0.29319 0.77289 0.50226
 O1468 O 0.28697 0.77092 0.53062
 O1469 O 0.25152 0.79520 0.48267
 O1470 O 0.22227 0.78850 0.48510
 O1471 O 0.27074 0.75366 0.45955
 O1472 O 0.27052 0.72558 0.46546
 Zr1473 Zr 0.27030 0.74401 0.48297
 O1474 O 0.25616 0.72826 0.49685
 Zr1475 Zr 0.24158 0.77192 0.48315
 O1476 O 0.22611 0.75717 0.49684
 Zr1477 Zr 0.26970 0.77161 0.51180
 O1478 O 0.25542 0.75717 0.52692
 Zr1479 Zr 0.23154 0.73294 0.49281
 O1480 O 0.24563 0.74761 0.47743
 Zr1481 Zr 0.25971 0.73296 0.52149
 O1482 O 0.27546 0.74741 0.50762
 Zr1483 Zr 0.23085 0.76073 0.52148
 O1484 O 0.24512 0.77683 0.50782
 O1485 O 0.26604 0.76813 0.48724
 O1486 O 0.23512 0.73652 0.51743
 C1487 C 0.30028 0.76537 0.49071
 C1488 C 0.26235 0.76467 0.45262
 C1489 C 0.26273 0.80194 0.49105
 C1490 C 0.20147 0.73803 0.51451
 C1491 C 0.23808 0.70321 0.51462
 C1492 C 0.23707 0.73854 0.55107
 H1493 H 0.25889 0.71708 0.49396
 H1494 H 0.25786 0.75968 0.53831
 H1495 H 0.27288 0.77507 0.48037
 H1496 H 0.21471 0.75949 0.49407
 H1497 H 0.21855 0.73792 0.46493
 H1498 H 0.21608 0.76507 0.46657
 H1499 H 0.27638 0.74210 0.54645
 H1500 H 0.29244 0.76040 0.52985
 H1501 H 0.22521 0.70808 0.47489
 H1502 H 0.25974 0.72570 0.46026
 H1503 H 0.23981 0.77836 0.54564
 H1504 H 0.25809 0.79386 0.52999
 H1505 H 0.29358 0.72662 0.49405
 H1506 H 0.27822 0.70988 0.51153
 H1507 H 0.22404 0.79463 0.49518
 H1508 H 0.20597 0.77735 0.51207
 O1509 O 0.20911 0.22631 1.00070
 O1510 O 0.21412 0.22759 0.97217
 O1511 O 0.25237 0.20384 1.01831
 O1512 O 0.27905 0.20865 1.01796
 O1513 O 0.23294 0.24563 1.04192
 O1514 O 0.23432 0.27375 1.03597
 O1515 O 0.29381 0.24755 0.97564
 O1516 O 0.28922 0.22003 0.97919
 O1517 O 0.25224 0.26758 0.95605
 O1518 O 0.22286 0.26559 0.96254
 O1519 O 0.27271 0.28855 0.99619
 O1520 O 0.27285 0.28290 1.02527
 O1521 O 0.29418 0.26708 0.99479
 O1522 O 0.28969 0.26541 1.02480
 O1523 O 0.25234 0.28865 0.97778
 O1524 O 0.22305 0.28255 0.97995
 O1525 O 0.27190 0.24855 0.95548
 O1526 O 0.26720 0.21983 0.96017
 O1527 O 0.20985 0.24559 1.02008
 O1528 O 0.21571 0.27385 1.01853
 O1529 O 0.25232 0.22630 1.04111
 O1530 O 0.28133 0.22904 1.03381
 O1531 O 0.23182 0.20400 1.00004
 O1532 O 0.23218 0.20988 0.97150
 Zr1533 Zr 0.23230 0.22719 0.99012
 O1534 O 0.24593 0.24136 0.97411
 Zr1535 Zr 0.26169 0.22726 1.01750
 O1536 O 0.27664 0.24127 1.00255
 Zr1537 Zr 0.23321 0.25536 1.01846
 O1538 O 0.24694 0.27073 1.00374
 Zr1539 Zr 0.27067 0.23753 0.97824
 O1540 O 0.25710 0.22187 0.99306
 Zr1541 Zr 0.24218 0.26568 0.97934
 O1542 O 0.22696 0.25154 0.99412
 Zr1543 Zr 0.27168 0.26561 1.00662
 O1544 O 0.25798 0.25161 1.02298
 O1545 O 0.23709 0.23114 1.01439
 O1546 O 0.26688 0.26185 0.98229
 C1547 C 0.20264 0.23435 1.01228
 C1548 C 0.24055 0.19708 1.01084
 C1549 C 0.24116 0.23424 1.04842
 C1550 C 0.30065 0.25926 0.98306
 C1551 C 0.26385 0.26006 0.94902
 C1552 C 0.26425 0.29534 0.98511
 H1553 H 0.24305 0.23867 0.96285
 H1554 H 0.24437 0.28195 1.00652
 H1555 H 0.23043 0.22424 1.02145
 H1556 H 0.28812 0.23861 1.00458
 H1557 H 0.28399 0.20987 0.98244
 H1558 H 0.28730 0.21129 1.00976
 H1559 H 0.22467 0.28945 0.98952
 H1560 H 0.20984 0.27309 1.00814
 H1561 H 0.27656 0.22024 0.95270
 H1562 H 0.24291 0.20461 0.97173
 H1563 H 0.26278 0.28930 1.02485
 H1564 H 0.24522 0.27312 1.04088
 H1565 H 0.20903 0.23832 0.97273
 H1566 H 0.22431 0.25625 0.95535
 H1567 H 0.27967 0.23898 1.04012
 H1568 H 0.29703 0.25629 1.02264
 C1569 C 0.28513 0.38736 0.78175
 C1570 C 0.27510 0.37462 0.78643
 C1571 C 0.28197 0.36084 0.79308
 C1572 C 0.29880 0.35964 0.79506
 C1573 C 0.30841 0.37250 0.78984
 N1574 N 0.30144 0.38582 0.78344
 C1575 C 0.27851 0.40254 0.77526
 N1576 N 0.28803 0.41178 0.76562
 C1577 C 0.28310 0.42625 0.75990
 C1578 C 0.26785 0.43240 0.76413
 C1579 C 0.25782 0.42303 0.77400
 C1580 C 0.26306 0.40814 0.77955
 H1581 H 0.27411 0.35107 0.79655
 H1582 H 0.32143 0.37217 0.79121
 H1583 H 0.29131 0.43313 0.75246
 H1584 H 0.24601 0.42733 0.77769
 H1585 H 0.26212 0.37515 0.78485
 H1586 H 0.25530 0.40142 0.78757
 C1587 C 0.28270 -0.11665 0.27924
 C1588 C 0.29162 -0.12749 0.26985
 C1589 C 0.29735 -0.14163 0.27677
 C1590 C 0.29417 -0.14529 0.29309
 C1591 C 0.28464 -0.13423 0.30184
 N1592 N 0.27939 -0.12046 0.29484
 C1593 C 0.27698 -0.10104 0.27290
 N1594 N 0.26483 -0.09328 0.28081
 C1595 C 0.25947 -0.07855 0.27632
 C1596 C 0.26663 -0.07056 0.26323
 C1597 C 0.27910 -0.07838 0.25483
 C1598 C 0.28432 -0.09354 0.25961
 H1599 H 0.30379 -0.14987 0.26900
 H1600 H 0.28201 -0.13591 0.31449
 H1601 H 0.24988 -0.07297 0.28322
 H1602 H 0.28509 -0.07267 0.24474
 H1603 H 0.29401 -0.12531 0.25721
 H1604 H 0.29434 -0.09896 0.25325
 C1605 C 0.78135 0.88741 0.78451
 C1606 C 0.77844 0.88289 0.80052
 C1607 C 0.78501 0.86869 0.80644
 C1608 C 0.79466 0.85874 0.79657
 C1609 C 0.79741 0.86397 0.78057
 N1610 N 0.79081 0.87789 0.77511
 C1611 C 0.77496 0.90259 0.77779
 N1612 N 0.78295 0.90974 0.76537
 C1613 C 0.77816 0.92402 0.75905
 C1614 C 0.76459 0.93203 0.76535
 C1615 C 0.75590 0.92460 0.77782
 C1616 C 0.76097 0.90991 0.78400
 H1617 H 0.78305 0.86609 0.81907
 H1618 H 0.80426 0.85685 0.77210
 H1619 H 0.78521 0.92924 0.74939
 H1620 H 0.74526 0.93021 0.78296
 H1621 H 0.77160 0.89044 0.80866
 H1622 H 0.75394 0.90441 0.79349
 C1623 C 0.46225 0.85746 0.28536
 C1624 C 0.44562 0.86092 0.28567
 C1625 C 0.44033 0.87570 0.29140
 C1626 C 0.45149 0.88714 0.29685
 C1627 C 0.46801 0.88310 0.29662
 N1628 N 0.47290 0.86856 0.29099
 C1629 C 0.46836 0.84188 0.27939
 N1630 N 0.48228 0.83572 0.28565
 C1631 C 0.48825 0.82123 0.28102
 C1632 C 0.48008 0.81204 0.26938
 C1633 C 0.46594 0.81841 0.26249
 C1634 C 0.46008 0.83327 0.26743
 H1635 H 0.42745 0.87806 0.29182
 H1636 H 0.47705 0.89156 0.30067
 H1637 H 0.49925 0.81686 0.28658
 H1638 H 0.45925 0.81184 0.25341
 H1639 H 0.43673 0.85221 0.28186
 H1640 H 0.44924 0.83796 0.26181
 C1641 C -0.02989 0.86202 0.78730
 C1642 C -0.02736 0.86723 0.80318
 C1643 C -0.03410 0.88164 0.80834
 C1644 C -0.04357 0.89111 0.79782
 C1645 C -0.04572 0.88532 0.78193
 N1646 N -0.03900 0.87120 0.77724
 C1647 C -0.02366 0.84644 0.78145
 N1648 N -0.03138 0.83907 0.76898
 C1649 C -0.02682 0.82443 0.76339
 C1650 C -0.01379 0.81626 0.77052
 C1651 C -0.00537 0.82385 0.78309
 C1652 C -0.01020 0.83892 0.78853
 H1653 H -0.03253 0.88473 0.82091
 H1654 H -0.05231 0.89210 0.77298
 H1655 H -0.03361 0.81910 0.75360
 H1656 H 0.00486 0.81811 0.78886
 H1657 H -0.02078 0.86002 0.81182
 H1658 H -0.00337 0.84454 0.79811
 C1659 C -0.03445 -0.10993 -0.03102
 C1660 C -0.03989 -0.12198 -0.02053
 C1661 C -0.04530 -0.13651 -0.02686
 C1662 C -0.04527 -0.13915 -0.04360
 C1663 C -0.03924 -0.12698 -0.05362
 N1664 N -0.03411 -0.11290 -0.04718
 C1665 C -0.02933 -0.09397 -0.02517
 N1666 N -0.01922 -0.08507 -0.03451
 C1667 C -0.01464 -0.06998 -0.03043
 C1668 C -0.02058 -0.06281 -0.01627
 C1669 C -0.03098 -0.07178 -0.00642
 C1670 C -0.03536 -0.08733 -0.01079
 H1671 H -0.04948 -0.14570 -0.01865
 H1672 H -0.03908 -0.12841 -0.06659
 H1673 H -0.00667 -0.06350 -0.03846
 H1674 H -0.03594 -0.06672 0.00456
 H1675 H -0.03991 -0.12032 -0.00758
 H1676 H -0.04380 -0.09377 -0.00324
 C1677 C -0.03091 0.38919 0.46938
 C1678 C -0.03855 0.37798 0.47937
 C1679 C -0.04405 0.36359 0.47287
 C1680 C -0.04189 0.36004 0.45635
 C1681 C -0.03333 0.37136 0.44701
 N1682 N -0.02833 0.38541 0.45363
 C1683 C -0.02586 0.40516 0.47534
 N1684 N -0.01445 0.41348 0.46699
 C1685 C -0.00973 0.42848 0.47130
 C1686 C -0.01680 0.43610 0.48468
 C1687 C -0.02861 0.42774 0.49344
 C1688 C -0.03319 0.41236 0.48882
 H1689 H -0.04958 0.35512 0.48104
 H1690 H -0.03141 0.36967 0.43423
 H1691 H -0.00065 0.43449 0.46412
 H1692 H -0.03453 0.43315 0.50375
 H1693 H -0.04020 0.38012 0.49214
 H1694 H -0.04271 0.40648 0.49550
 C1695 C 0.46867 -0.10959 0.46567
 C1696 C 0.47884 -0.12056 0.45781
 C1697 C 0.47260 -0.13512 0.45239
 C1698 C 0.45619 -0.13907 0.45485
 C1699 C 0.44662 -0.12782 0.46333
 N1700 N 0.45298 -0.11366 0.46830
 C1701 C 0.47434 -0.09362 0.47102
 N1702 N 0.46576 -0.08566 0.48256
 C1703 C 0.46976 -0.07069 0.48762
 C1704 C 0.48305 -0.06270 0.48081
 C1705 C 0.49205 -0.07070 0.46888
 C1706 C 0.48774 -0.08607 0.46396
 H1707 H 0.48093 -0.14341 0.44678
 H1708 H 0.43385 -0.12969 0.46532
 H1709 H 0.46240 -0.06498 0.49677
 H1710 H 0.50231 -0.06500 0.46315
 H1711 H 0.49156 -0.11814 0.45601
 H1712 H 0.49461 -0.09166 0.45438
 C1713 C 0.46174 0.39082 -0.03056
 C1714 C 0.44568 0.38584 -0.02859
 C1715 C 0.44058 0.37145 -0.03542
 C1716 C 0.45133 0.36176 -0.04441
 C1717 C 0.46738 0.36736 -0.04604
 N1718 N 0.47202 0.38146 -0.03925
 C1719 C 0.46760 0.40633 -0.02411
 N1720 N 0.48034 0.41365 -0.03144
 C1721 C 0.48597 0.42819 -0.02663
 C1722 C 0.47861 0.43633 -0.01371
 C1723 C 0.46575 0.42877 -0.00570
 C1724 C 0.46026 0.41381 -0.01080
 H1725 H 0.42789 0.36854 -0.03427
 H1726 H 0.47652 0.36044 -0.05223
 H1727 H 0.49598 0.43349 -0.03312
 H1728 H 0.45975 0.43448 0.00441
 H1729 H 0.43690 0.39319 -0.02236
 H1730 H 0.45044 0.40822 -0.00429
 C1731 C 0.78500 0.36092 0.46481
 C1732 C 0.80170 0.36383 0.46444
 C1733 C 0.80745 0.37805 0.45788
 C1734 C 0.79666 0.38954 0.45174
 C1735 C 0.78003 0.38599 0.45196
 N1736 N 0.77469 0.37194 0.45837
 C1737 C 0.77860 0.34589 0.47169
 N1738 N 0.76538 0.33886 0.46494
 C1739 C 0.75970 0.32443 0.47006
 C1740 C 0.76755 0.31619 0.48264
 C1741 C 0.78077 0.32362 0.49018
 C1742 C 0.78629 0.33841 0.48478
 H1743 H 0.82039 0.37996 0.45747
 H1744 H 0.77128 0.39447 0.44733
 H1745 H 0.74937 0.31923 0.46399
 H1746 H 0.78717 0.31785 0.50000
 H1747 H 0.81030 0.35509 0.46888
 H1748 H 0.79657 0.34386 0.49071
 C1749 C 0.77744 0.86355 -0.03367
 C1750 C 0.76760 0.87425 -0.04227
 C1751 C 0.77418 0.88838 -0.04834
 C1752 C 0.79063 0.89220 -0.04583
 C1753 C 0.79981 0.88139 -0.03640
 N1754 N 0.79312 0.86759 -0.03084
 C1755 C 0.77145 0.84784 -0.02786
 N1756 N 0.77977 0.84014 -0.01597
 C1757 C 0.77562 0.82530 -0.01065
 C1758 C 0.76250 0.81713 -0.01760
 C1759 C 0.75367 0.82490 -0.02979
 C1760 C 0.75809 0.84017 -0.03496
 H1761 H 0.76609 0.89647 -0.05458
 H1762 H 0.81254 0.88328 -0.03417
 H1763 H 0.78285 0.81978 -0.00128
 H1764 H 0.74355 0.81904 -0.03562
 H1765 H 0.75488 0.87193 -0.04423
 H1766 H 0.75141 0.84553 -0.04479
 C1767 C 0.78376 0.28314 0.38563
 C1768 C 0.78925 0.27301 0.37324
 C1769 C 0.79552 0.27964 0.35912
 C1770 C 0.79629 0.29633 0.35723
 C1771 C 0.79021 0.30601 0.36970
 N1772 N 0.78423 0.29928 0.38338
 C1773 C 0.77784 0.27686 0.40124
 N1774 N 0.76764 0.28604 0.41027
 C1775 C 0.76249 0.28150 0.42517
 C1776 C 0.76795 0.26708 0.43199
 C1777 C 0.77838 0.25739 0.42284
 C1778 C 0.78332 0.26220 0.40751
 H1779 H 0.79971 0.27172 0.34965
 H1780 H 0.79063 0.31893 0.36882
 H1781 H 0.75454 0.28941 0.43183
 H1782 H 0.78297 0.24621 0.42763
 H1783 H 0.78863 0.26012 0.37433
 H1784 H 0.79180 0.25476 0.40097
 C1785 C 0.78047 0.78180 -0.11429
 C1786 C 0.77013 0.78693 -0.12672
 C1787 C 0.77672 0.79269 -0.14109
 C1788 C 0.79357 0.79335 -0.14317
 C1789 C 0.80345 0.78760 -0.13065
 N1790 N 0.79675 0.78211 -0.11675
 C1791 C 0.77430 0.77633 -0.09847
 N1792 N 0.78373 0.76646 -0.08937
 C1793 C 0.77936 0.76160 -0.07435
 C1794 C 0.76481 0.76699 -0.06744
 C1795 C 0.75486 0.77713 -0.07662
 C1796 C 0.75953 0.78180 -0.09211
 H1797 H 0.76862 0.79664 -0.15057
 H1798 H 0.81650 0.78797 -0.13166
 H1799 H 0.78748 0.75385 -0.06770
 H1800 H 0.74359 0.78166 -0.07176
 H1801 H 0.75711 0.78643 -0.12546
 H1802 H 0.75189 0.79003 -0.09872
 C1803 C 0.28555 0.45759 0.85722
 C1804 C 0.28665 0.44110 0.86031
 C1805 C 0.29290 0.43580 0.87499
 C1806 C 0.29806 0.44684 0.88669
 C1807 C 0.29705 0.46323 0.88300
 N1808 N 0.29094 0.46811 0.86857
 C1809 C 0.27909 0.46378 0.84178
 N1810 N 0.28453 0.47808 0.83610
 C1811 C 0.27941 0.48431 0.82182
 C1812 C 0.26805 0.47605 0.81234
 C1813 C 0.26198 0.46147 0.81819
 C1814 C 0.26745 0.45531 0.83285
 H1815 H 0.29388 0.42304 0.87708
 H1816 H 0.30082 0.47217 0.89167
 H1817 H 0.28433 0.49565 0.81785
 H1818 H 0.25319 0.45468 0.81133
 H1819 H 0.28305 0.43233 0.85139
 H1820 H 0.26248 0.44413 0.83717
 C1821 C 0.28192 -0.03877 0.35902
 C1822 C 0.28262 -0.05519 0.36259
 C1823 C 0.28909 -0.06024 0.37727
 C1824 C 0.29486 -0.04903 0.38850
 C1825 C 0.29412 -0.03271 0.38437
 N1826 N 0.28783 -0.02807 0.36993
 C1827 C 0.27543 -0.03294 0.34345
 N1828 N 0.28154 -0.01930 0.33684
 C1829 C 0.27662 -0.01373 0.32220
 C1830 C 0.26486 -0.02207 0.31328
 C1831 C 0.25802 -0.03585 0.32018
 C1832 C 0.26324 -0.04129 0.33520
 H1833 H 0.28984 -0.07296 0.37967
 H1834 H 0.29834 -0.02363 0.39268
 H1835 H 0.28213 -0.00299 0.31742
 H1836 H 0.24885 -0.04265 0.31386
 H1837 H 0.27859 -0.06410 0.35401
 H1838 H 0.25775 -0.05191 0.34027
 C1839 C -0.03695 -0.02913 -0.11417
 C1840 C -0.04580 -0.01996 -0.12527
 C1841 C -0.05128 -0.02698 -0.13955
 C1842 C -0.04788 -0.04317 -0.14309
 C1843 C -0.03846 -0.05170 -0.13172
 N1844 N -0.03347 -0.04461 -0.11784
 C1845 C -0.03148 -0.02272 -0.09840
 N1846 N -0.01949 -0.03057 -0.09034
 C1847 C -0.01441 -0.02606 -0.07540
 C1848 C -0.02174 -0.01304 -0.06753
 C1849 C -0.03403 -0.00470 -0.07569
 C1850 C -0.03895 -0.00948 -0.09104
 H1851 H -0.05769 -0.01940 -0.14799
 H1852 H -0.03573 -0.06426 -0.13325
 H1853 H -0.00493 -0.03290 -0.06958
 H1854 H -0.04013 0.00535 -0.07008
 H1855 H -0.04835 -0.00743 -0.12319
 H1856 H -0.04885 -0.00316 -0.09671
 C1857 C -0.03825 0.46405 0.39227
 C1858 C -0.05432 0.46635 0.38741
 C1859 C -0.05965 0.45991 0.37288
 C1860 C -0.04914 0.45098 0.36289
 C1861 C -0.03323 0.44847 0.36863
 N1862 N -0.02829 0.45503 0.38285
 C1863 C -0.03203 0.47090 0.40755
 N1864 N -0.01934 0.46369 0.41512
 C1865 C -0.01337 0.46909 0.42943
 C1866 C -0.02032 0.48251 0.43702
 C1867 C -0.03313 0.49035 0.42918
 C1868 C -0.03893 0.48467 0.41447
 H1869 H -0.07230 0.46148 0.36993
 H1870 H -0.02438 0.44198 0.36159
 H1871 H -0.00342 0.46270 0.43499
 H1872 H -0.03877 0.50084 0.43444
 H1873 H -0.06290 0.47273 0.39489
 H1874 H -0.04865 0.49112 0.40861
 C1875 C 0.46636 -0.03321 0.38610
 C1876 C 0.46170 -0.02322 0.37328
 C1877 C 0.45581 -0.02998 0.35905
 C1878 C 0.45457 -0.04667 0.35748
 C1879 C 0.45981 -0.05625 0.37041
 N1880 N 0.46546 -0.04938 0.38418
 C1881 C 0.47204 -0.02670 0.40172
 N1882 N 0.48200 -0.03578 0.41110
 C1883 C 0.48720 -0.03084 0.42586
 C1884 C 0.48209 -0.01604 0.43214
 C1885 C 0.47178 -0.00652 0.42268
 C1886 C 0.46677 -0.01177 0.40750
 H1887 H 0.45231 -0.02214 0.34925
 H1888 H 0.45900 -0.06916 0.36979
 H1889 H 0.49501 -0.03865 0.43279
 H1890 H 0.46744 0.00493 0.42706
 H1891 H 0.46270 -0.01033 0.37412
 H1892 H 0.45846 -0.00440 0.40066
 C1893 C 0.45958 0.46320 -0.10677
 C1894 C 0.44302 0.46162 -0.11018
 C1895 C 0.43816 0.45544 -0.12502
 C1896 C 0.44970 0.45081 -0.13654
 C1897 C 0.46615 0.45229 -0.13253
 N1898 N 0.47061 0.45834 -0.11795
 C1899 C 0.46529 0.46980 -0.09122
 N1900 N 0.47976 0.46486 -0.08511
 C1901 C 0.48556 0.47029 -0.07074
 C1902 C 0.47665 0.48145 -0.06168
 C1903 C 0.46186 0.48693 -0.06797
 C1904 C 0.45617 0.48117 -0.08268
 H1905 H 0.42534 0.45408 -0.12738
 H1906 H 0.47546 0.44892 -0.14106
 H1907 H 0.49706 0.46580 -0.06641
 H1908 H 0.45456 0.49557 -0.06147
 H1909 H 0.43388 0.46481 -0.10140
 H1910 H 0.44485 0.48575 -0.08735
 C1911 C 0.46601 0.78334 0.36401
 C1912 C 0.46044 0.77334 0.37645
 C1913 C 0.45480 0.78011 0.39078
 C1914 C 0.45472 0.79680 0.39283
 C1915 C 0.46077 0.80633 0.38025
 N1916 N 0.46616 0.79947 0.36638
 C1917 C 0.47165 0.77689 0.34834
 N1918 N 0.48222 0.78567 0.33938
 C1919 C 0.48753 0.78079 0.32464
 C1920 C 0.48196 0.76635 0.31796
 C1921 C 0.47100 0.75715 0.32697
 C1922 C 0.46584 0.76235 0.34212
 H1923 H 0.45062 0.77228 0.40031
 H1924 H 0.46085 0.81925 0.38124
 H1925 H 0.49586 0.78835 0.31807
 H1926 H 0.46627 0.74600 0.32227
 H1927 H 0.46059 0.76045 0.37527
 H1928 H 0.45706 0.75524 0.34860
 C1929 C -0.03220 0.78651 0.86374
 C1930 C -0.02208 0.79387 0.87510
 C1931 C -0.02860 0.79978 0.88943
 C1932 C -0.04528 0.79832 0.89278
 C1933 C -0.05483 0.79025 0.88120
 N1934 N -0.04817 0.78479 0.86724
 C1935 C -0.02610 0.78067 0.84797
 N1936 N -0.03479 0.76945 0.83977
 C1937 C -0.03026 0.76391 0.82500
 C1938 C -0.01626 0.76986 0.81750
 C1939 C -0.00717 0.78147 0.82572
 C1940 C -0.01203 0.78691 0.84086
 H1941 H -0.02031 0.80496 0.89807
 H1942 H -0.06775 0.78897 0.88265
 H1943 H -0.03773 0.75504 0.81908
 H1944 H 0.00362 0.78655 0.82038
 H1945 H -0.00918 0.79490 0.87318
 H1946 H -0.00503 0.79623 0.84662
 C1947 C 0.38877 0.78088 0.28917
 C1948 C 0.38518 0.78181 0.30570
 C1949 C 0.37036 0.78806 0.31067
 C1950 C 0.35901 0.79340 0.29926
 C1951 C 0.36316 0.79247 0.28284
 N1952 N 0.37774 0.78637 0.27828
 C1953 C 0.40444 0.77451 0.28338
 N1954 N 0.41074 0.78012 0.26929
 C1955 C 0.42533 0.77515 0.26354
 C1956 C 0.43450 0.76381 0.27213
 C1957 C 0.42800 0.75757 0.28646
 C1958 C 0.41302 0.76285 0.29209
 H1959 H 0.36792 0.78897 0.32347
 H1960 H 0.35477 0.79638 0.27361
 H1961 H 0.42980 0.78021 0.25239
 H1962 H 0.43456 0.74876 0.29349
 H1963 H 0.39384 0.77812 0.31477
 H1964 H 0.40823 0.75775 0.30309
 C1965 C -0.11054 0.78652 0.78363
 C1966 C -0.12238 0.79226 0.77291
 C1967 C -0.13720 0.79762 0.77892
 C1968 C -0.14034 0.79726 0.79557
 C1969 C -0.12829 0.79114 0.80583
 N1970 N -0.11394 0.78601 0.79969
 C1971 C -0.09448 0.78093 0.77803
 N1972 N -0.08610 0.77033 0.78731
 C1973 C -0.07112 0.76495 0.78323
 C1974 C -0.06355 0.77046 0.76911
 C1975 C -0.07193 0.78149 0.75942
 C1976 C -0.08735 0.78674 0.76381
 H1977 H -0.14627 0.80189 0.77052
 H1978 H -0.13010 0.79075 0.81875
 H1979 H -0.06507 0.75656 0.79116
 H1980 H -0.06654 0.78617 0.74848
 H1981 H -0.12038 0.79242 0.76001
 H1982 H -0.09336 0.79554 0.75633
 C1983 C 0.86345 0.28805 0.46613
 C1984 C 0.86657 0.30457 0.46628
 C1985 C 0.88116 0.31029 0.46021
 C1986 C 0.89278 0.29967 0.45400
 C1987 C 0.88909 0.28324 0.45385
 N1988 N 0.87471 0.27793 0.45978
 C1989 C 0.84801 0.28154 0.47227
 N1990 N 0.84170 0.26808 0.46547
 C1991 C 0.82717 0.26194 0.47010
 C1992 C 0.81809 0.26948 0.48227
 C1993 C 0.82468 0.28306 0.48978
 C1994 C 0.83958 0.28909 0.48485
 H1995 H 0.88322 0.32309 0.46013
 H1996 H 0.89769 0.27459 0.44924
 H1997 H 0.82263 0.25137 0.46406
 H1998 H 0.81822 0.28925 0.49929
 H1999 H 0.85770 0.31306 0.47067
 H2000 H 0.84441 0.29954 0.49088
 C2001 C 0.85970 0.78863 -0.03386
 C2002 C 0.86270 0.80517 -0.03410
 C2003 C 0.87729 0.81084 -0.04022
 C2004 C 0.88901 0.80014 -0.04609
 C2005 C 0.88542 0.78369 -0.04589
 N2006 N 0.87104 0.77843 -0.03991
 C2007 C 0.84429 0.78217 -0.02758
 N2008 N 0.83805 0.76854 -0.03410
 C2009 C 0.82356 0.76242 -0.02933
 C2010 C 0.81444 0.77017 -0.01732
 C2011 C 0.82096 0.78394 -0.01010
 C2012 C 0.83583 0.78993 -0.01515
 H2013 H 0.87927 0.82365 -0.04059
 H2014 H 0.89410 0.77500 -0.05024
 H2015 H 0.81908 0.75171 -0.03515
 H2016 H 0.81447 0.79029 -0.00071
 H2017 H 0.85375 0.81370 -0.02995
 H2018 H 0.84061 0.80053 -0.00935
 C2019 C -0.11656 -0.03229 -0.03546
 C2020 C -0.12046 -0.03067 -0.05181
 C2021 C -0.13460 -0.03746 -0.05776
 C2022 C -0.14524 -0.04596 -0.04755
 C2023 C -0.14053 -0.04762 -0.03122
 N2024 N -0.12658 -0.04085 -0.02572
 C2025 C -0.10146 -0.02536 -0.02888
 N2026 N -0.09364 -0.03291 -0.01656
 C2027 C -0.07914 -0.02771 -0.01079
 C2028 C -0.07160 -0.01423 -0.01763
 C2029 C -0.07983 -0.00593 -0.02987
 C2030 C -0.09472 -0.01140 -0.03545
 H2031 H -0.13663 -0.03654 -0.07061
 H2032 H -0.14810 -0.05370 -0.02256
 H2033 H -0.07331 -0.03440 -0.00123
 H2034 H -0.07465 0.00463 -0.03538
 H2035 H -0.11243 -0.02463 -0.06013
 H2036 H -0.10081 -0.00478 -0.04491
 C2037 C -0.11124 0.46345 0.46680
 C2038 C -0.11569 0.44745 0.46910
 C2039 C -0.13003 0.44177 0.46244
 C2040 C -0.14025 0.45188 0.45331
 C2041 C -0.13506 0.46784 0.45109
 N2042 N -0.12098 0.47308 0.45777
 C2043 C -0.09591 0.46991 0.47337
 N2044 N -0.08873 0.48253 0.46584
 C2045 C -0.07432 0.48865 0.47081
 C2046 C -0.06619 0.48195 0.48410
 C2047 C -0.07362 0.46924 0.49231
 C2048 C -0.08845 0.46326 0.48706
 H2049 H -0.13253 0.42915 0.46391
 H2050 H -0.14234 0.47644 0.44459
 H2051 H -0.06912 0.49852 0.46415
 H2052 H -0.06791 0.46378 0.50272
 H2053 H -0.10796 0.43916 0.47553
 H2054 H -0.09396 0.45358 0.49374
 C2055 C 0.38679 -0.03146 0.46492
 C2056 C 0.37551 -0.03821 0.47553
 C2057 C 0.36089 -0.04402 0.46957
 C2058 C 0.35719 -0.04314 0.45296
 C2059 C 0.36860 -0.03544 0.44292
 N2060 N 0.38287 -0.03006 0.44904
 C2061 C 0.40294 -0.02608 0.47047
 N2062 N 0.41103 -0.01480 0.46180
 C2063 C 0.42608 -0.00965 0.46597
 C2064 C 0.43398 -0.01611 0.47952
 C2065 C 0.42588 -0.02786 0.48852
 C2066 C 0.41045 -0.03288 0.48406
 H2067 H 0.35238 -0.04879 0.47823
 H2068 H 0.36680 -0.03449 0.43004
 H2069 H 0.43190 -0.00066 0.45859
 H2070 H 0.43150 -0.03331 0.49898
 H2071 H 0.37779 -0.03889 0.48837
 H2072 H 0.40473 -0.04227 0.49097
 C2073 C 0.38532 0.46479 -0.03171
 C2074 C 0.37385 0.45715 -0.02195
 C2075 C 0.35990 0.45080 -0.02891
 C2076 C 0.35708 0.45201 -0.04568
 C2077 C 0.36871 0.46041 -0.05485
 N2078 N 0.38228 0.46633 -0.04777
 C2079 C 0.40074 0.47108 -0.02517
 N2080 N 0.40875 0.48259 -0.03360
 C2081 C 0.42329 0.48848 -0.02878
 C2082 C 0.43081 0.48257 -0.01477
 C2083 C 0.42276 0.47070 -0.00589
 C2084 C 0.40778 0.46493 -0.01103
 H2085 H 0.35115 0.44542 -0.02088
 H2086 H 0.36765 0.46158 -0.06779
 H2087 H 0.42909 0.49753 -0.03611
 H2088 H 0.42813 0.46565 0.00489
 H2089 H 0.37541 0.45624 -0.00903
 H2090 H 0.40214 0.45542 -0.00422
 C2091 C 0.36127 0.46084 0.78271
 C2092 C 0.36512 0.44447 0.78222
 C2093 C 0.37975 0.43916 0.78863
 C2094 C 0.39065 0.45006 0.79555
 C2095 C 0.38630 0.46634 0.79587
 N2096 N 0.37190 0.47124 0.78961
 C2097 C 0.34567 0.46695 0.77648
 N2098 N 0.33899 0.48026 0.78328
 C2099 C 0.32440 0.48617 0.77852
 C2100 C 0.31563 0.47857 0.76617
 C2101 C 0.32254 0.46507 0.75874
 C2102 C 0.33750 0.45927 0.76382
 H2103 H 0.38234 0.42645 0.78854
 H2104 H 0.39436 0.47519 0.80100
 H2105 H 0.31961 0.49667 0.78452
 H2106 H 0.31631 0.45884 0.74911
 H2107 H 0.35676 0.43575 0.77737
 H2108 H 0.34261 0.44894 0.75778
 C2109 C 0.36231 -0.03410 0.28107
 C2110 C 0.37456 -0.02369 0.28635
 C2111 C 0.38894 -0.03003 0.29251
 C2112 C 0.39120 -0.04668 0.29341
 C2113 C 0.37875 -0.05662 0.28771
 N2114 N 0.36487 -0.05018 0.28178
 C2115 C 0.34658 -0.02822 0.27488
 N2116 N 0.33790 -0.03782 0.26482
 C2117 C 0.32294 -0.03375 0.25935
 C2118 C 0.31566 -0.01936 0.26432
 C2119 C 0.32443 -0.00922 0.27462
 C2120 C 0.33988 -0.01357 0.27989
 H2121 H 0.39834 -0.02189 0.29643
 H2122 H 0.37984 -0.06952 0.28832
 H2123 H 0.31660 -0.04200 0.25152
 H2124 H 0.31927 0.00194 0.27884
 H2125 H 0.37319 -0.01083 0.28559
 H2126 H 0.34616 -0.00580 0.28823
 C2127 C 0.13856 0.53411 0.71444
 C2128 C 0.13493 0.53495 0.69792
 C2129 C 0.12016 0.54128 0.69295
 C2130 C 0.10887 0.54679 0.70434
 C2131 C 0.11313 0.54610 0.72075
 N2132 N 0.12767 0.53988 0.72533
 C2133 C 0.15413 0.52741 0.72014
 N2134 N 0.16103 0.53327 0.73385
 C2135 C 0.17568 0.52807 0.73928
 C2136 C 0.18429 0.51628 0.73071
 C2137 C 0.17709 0.50973 0.71685
 C2138 C 0.16208 0.51522 0.71156
 H2139 H 0.11767 0.54205 0.68014
 H2140 H 0.10481 0.55020 0.72995
 H2141 H 0.18068 0.53337 0.75010
 H2142 H 0.18317 0.50054 0.70988
 H2143 H 0.14351 0.53105 0.68886
 H2144 H 0.15677 0.50992 0.70088
 C2145 C 0.13802 0.02984 0.20948
 C2146 C 0.13467 0.03097 0.19291
 C2147 C 0.12022 0.03794 0.18778
 C2148 C 0.10901 0.04379 0.19907
 C2149 C 0.11283 0.04243 0.21555
 N2150 N 0.12706 0.03568 0.22025
 C2151 C 0.15348 0.02317 0.21549
 N2152 N 0.15958 0.02860 0.22974
 C2153 C 0.17403 0.02349 0.23568
 C2154 C 0.18329 0.01221 0.22711
 C2155 C 0.17698 0.00612 0.21262
 C2156 C 0.16212 0.01153 0.20680
 H2157 H 0.11804 0.03912 0.17495
 H2158 H 0.10451 0.04666 0.22469
 H2159 H 0.17835 0.02843 0.24696
 H2160 H 0.18364 -0.00263 0.20561
 H2161 H 0.14329 0.02700 0.18393
 H2162 H 0.15749 0.00659 0.19565
 C2163 C 0.61375 0.71605 0.22003
 C2164 C 0.62602 0.71010 0.23014
 C2165 C 0.64036 0.70434 0.22336
 C2166 C 0.64259 0.70456 0.20657
 C2167 C 0.63017 0.71095 0.19694
 N2168 N 0.61629 0.71642 0.20381
 C2169 C 0.59801 0.72176 0.22637
 N2170 N 0.58906 0.73203 0.21723
 C2171 C 0.57410 0.73712 0.22175
 C2172 C 0.56712 0.73156 0.23614
 C2173 C 0.57619 0.72105 0.24581
 C2174 C 0.59159 0.71614 0.24099
 H2175 H 0.64977 0.69986 0.23127
 H2176 H 0.63128 0.71125 0.18393
 H2177 H 0.56753 0.74515 0.21385
 H2178 H 0.57128 0.71636 0.25696
 H2179 H 0.62473 0.71002 0.24312
 H2180 H 0.59805 0.70760 0.24841
 C2181 C 0.11401 0.71370 0.72072
 C2182 C 0.11731 0.69722 0.72040
 C2183 C 0.13189 0.69178 0.71399
 C2184 C 0.14330 0.70265 0.70792
 C2185 C 0.13945 0.71905 0.70828
 N2186 N 0.12508 0.72408 0.71452
 C2187 C 0.09847 0.71991 0.72699
 N2188 N 0.09209 0.73352 0.72055
 C2189 C 0.07743 0.73937 0.72516
 C2190 C 0.06824 0.73134 0.73691
 C2191 C 0.07490 0.71760 0.74409
 C2192 C 0.08996 0.71189 0.73921
 H2193 H 0.13405 0.67900 0.71350
 H2194 H 0.14789 0.72786 0.70377
 H2195 H 0.07286 0.75009 0.71940
 H2196 H 0.06835 0.71106 0.75328
 H2197 H 0.10859 0.68854 0.72462
 H2198 H 0.09484 0.70130 0.74495
 C2199 C 0.64162 0.21190 0.53306
 C2200 C 0.63795 0.19551 0.53376
 C2201 C 0.62316 0.19060 0.54008
 C2202 C 0.61190 0.20190 0.54573
 C2203 C 0.61617 0.21816 0.54513
 N2204 N 0.63071 0.22268 0.53893
 C2205 C 0.65725 0.21765 0.52659
 N2206 N 0.66353 0.23162 0.53227
 C2207 C 0.67807 0.23736 0.52723
 C2208 C 0.68723 0.22889 0.51575
 C2209 C 0.68076 0.21468 0.50943
 C2210 C 0.66582 0.20905 0.51478
 H2211 H 0.62064 0.17790 0.54076
 H2212 H 0.60787 0.22729 0.54934
 H2213 H 0.68250 0.24844 0.53235
 H2214 H 0.68733 0.20777 0.50051
 H2215 H 0.64651 0.18651 0.52981
 H2216 H 0.66105 0.19814 0.50961
 C2217 C 0.63685 0.71433 0.03257
 C2218 C 0.62446 0.70949 0.02206
 C2219 C 0.60973 0.70429 0.02839
 C2220 C 0.60725 0.70388 0.04515
 C2221 C 0.61986 0.70915 0.05521
 N2222 N 0.63409 0.71417 0.04876
 C2223 C 0.65282 0.71975 0.02661
 N2224 N 0.66171 0.72983 0.03598
 C2225 C 0.67661 0.73509 0.03154
 C2226 C 0.68355 0.73002 0.01693
 C2227 C 0.67466 0.71948 0.00714
 C2228 C 0.65932 0.71435 0.01191
 H2229 H 0.60023 0.70070 0.02015
 H2230 H 0.61858 0.70893 0.06820
 H2231 H 0.68307 0.74307 0.03956
 H2232 H 0.67957 0.71516 -0.00417
 H2233 H 0.62596 0.70991 0.00910
 H2234 H 0.65287 0.70597 0.00433
 C2235 C 0.10670 0.04010 0.03141
 C2236 C 0.11213 0.05576 0.02874
 C2237 C 0.12698 0.06062 0.03500
 C2238 C 0.13670 0.05002 0.04412
 C2239 C 0.13060 0.03440 0.04655
 N2240 N 0.11606 0.02998 0.04027
 C2241 C 0.09080 0.03446 0.02540
 N2242 N 0.08337 0.02208 0.03309
 C2243 C 0.06858 0.01653 0.02857
 C2244 C 0.06030 0.02357 0.01555
 C2245 C 0.06792 0.03612 0.00723
 C2246 C 0.08313 0.04153 0.01205
 H2247 H 0.13028 0.07302 0.03329
 H2248 H 0.13748 0.02541 0.05294
 H2249 H 0.06324 0.00678 0.03530
 H2250 H 0.06211 0.04185 -0.00297
 H2251 H 0.10481 0.06444 0.02237
 H2252 H 0.08878 0.05105 0.00524
 C2253 C 0.11117 0.53871 0.53274
 C2254 C 0.11463 0.55516 0.53269
 C2255 C 0.12937 0.56055 0.53874
 C2256 C 0.14078 0.54965 0.54483
 C2257 C 0.13677 0.53330 0.54488
 N2258 N 0.12225 0.52832 0.53898
 C2259 C 0.09553 0.53255 0.52672
 N2260 N 0.08913 0.51909 0.53342
 C2261 C 0.07443 0.51325 0.52896
 C2262 C 0.06522 0.52113 0.51709
 C2263 C 0.07189 0.53472 0.50967
 C2264 C 0.08699 0.54042 0.51441
 H2265 H 0.13169 0.57330 0.53891
 H2266 H 0.14520 0.52447 0.54942
 H2267 H 0.06985 0.50266 0.53491
 H2268 H 0.06534 0.54114 0.50038
 H2269 H 0.10591 0.56386 0.52842
 H2270 H 0.09188 0.55088 0.50846
 C2271 C 0.61329 0.03535 0.52806
 C2272 C 0.62572 0.02469 0.53238
 C2273 C 0.64033 0.03068 0.53822
 C2274 C 0.64267 0.04726 0.53975
 C2275 C 0.63017 0.05752 0.53470
 N2276 N 0.61599 0.05139 0.52913
 C2277 C 0.59720 0.02963 0.52275
 N2278 N 0.58796 0.03920 0.51314
 C2279 C 0.57278 0.03502 0.50840
 C2280 C 0.56592 0.02056 0.51366
 C2281 C 0.57524 0.01054 0.52360
 C2282 C 0.59084 0.01500 0.52814
 H2283 H 0.64979 0.02234 0.54156
 H2284 H 0.63143 0.07037 0.53570
 H2285 H 0.56598 0.04319 0.50084
 H2286 H 0.57043 -0.00068 0.52802
 H2287 H 0.62426 0.01187 0.53122
 H2288 H 0.59756 0.00727 0.53619
 C2289 C 0.60865 0.53840 0.03362
 C2290 C 0.61218 0.55483 0.03341
 C2291 C 0.62697 0.56022 0.03936
 C2292 C 0.63838 0.54934 0.04551
 C2293 C 0.63428 0.53300 0.04571
 N2294 N 0.61971 0.52803 0.03990
 C2295 C 0.59296 0.53223 0.02764
 N2296 N 0.58651 0.51883 0.03442
 C2297 C 0.57181 0.51297 0.02996
 C2298 C 0.56265 0.52073 0.01798
 C2299 C 0.56937 0.53427 0.01049
 C2300 C 0.58445 0.54001 0.01525
 H2301 H 0.62933 0.57297 0.03941
 H2302 H 0.64269 0.52417 0.05028
 H2303 H 0.56719 0.50243 0.03598
 H2304 H 0.56286 0.54063 0.00112
 H2305 H 0.60349 0.56353 0.02907
 H2306 H 0.58937 0.55041 0.00923
 C2307 C 0.02931 0.04081 0.10967
 C2308 C 0.02759 0.05681 0.11448
 C2309 C 0.03430 0.06189 0.12905
 C2310 C 0.04292 0.05116 0.13905
 C2311 C 0.04420 0.03514 0.13365
 N2312 N 0.03756 0.03053 0.11938
 C2313 C 0.02301 0.03492 0.09402
 N2314 N 0.03022 0.02203 0.08695
 C2315 C 0.02542 0.01622 0.07237
 C2316 C 0.01260 0.02351 0.06399
 C2317 C 0.00475 0.03658 0.07127
 C2318 C 0.00987 0.04228 0.08624
 H2319 H 0.03337 0.07450 0.13186
 H2320 H 0.05002 0.02603 0.14086
 H2321 H 0.03177 0.00606 0.06730
 H2322 H -0.00526 0.04255 0.06534
 H2323 H 0.02166 0.06554 0.10686
 H2324 H 0.00347 0.05224 0.09163
 C2325 C 0.03021 0.53280 0.61569
 C2326 C 0.03566 0.52234 0.62780
 C2327 C 0.04128 0.52856 0.64239
 C2328 C 0.04146 0.54517 0.64502
 C2329 C 0.03535 0.55517 0.63282
 N2330 N 0.03002 0.54884 0.61868
 C2331 C 0.02496 0.52701 0.59965
 N2332 N 0.01463 0.53619 0.59079
 C2333 C 0.00989 0.53206 0.57564
 C2334 C 0.01589 0.51806 0.56837
 C2335 C 0.02657 0.50842 0.57728
 C2336 C 0.03111 0.51281 0.59289
 H2337 H 0.04551 0.52037 0.65161
 H2338 H 0.03533 0.56805 0.63427
 H2339 H 0.00173 0.53993 0.56919
 H2340 H 0.03157 0.49756 0.57214
 H2341 H 0.03554 0.50949 0.62612
 H2342 H 0.03973 0.50542 0.59929
 C2343 C 0.52974 0.03770 0.61052
 C2344 C 0.52726 0.05359 0.61535
 C2345 C 0.53342 0.05887 0.63006
 C2346 C 0.54222 0.04847 0.64026
 C2347 C 0.54443 0.03257 0.63476
 N2348 N 0.53830 0.02775 0.62032
 C2349 C 0.52392 0.03173 0.59471
 N2350 N 0.53201 0.01954 0.58732
 C2351 C 0.52780 0.01400 0.57246
 C2352 C 0.51475 0.02090 0.56405
 C2353 C 0.50594 0.03312 0.57171
 C2354 C 0.51042 0.03851 0.58699
 H2355 H 0.53190 0.07143 0.63285
 H2356 H 0.55055 0.02370 0.64204
 H2357 H 0.53487 0.00447 0.56710
 H2358 H 0.49568 0.03870 0.56583
 H2359 H 0.52113 0.06210 0.60764
 H2360 H 0.50333 0.04786 0.59263
 C2361 C 0.52835 0.53617 0.11525
 C2362 C 0.52804 0.55245 0.11945
 C2363 C 0.53426 0.55732 0.13428
 C2364 C 0.54079 0.54605 0.14504
 C2365 C 0.54088 0.52987 0.14038
 N2366 N 0.53484 0.52542 0.12577
 C2367 C 0.52247 0.53057 0.09937
 N2368 N 0.52940 0.51744 0.09247
 C2369 C 0.52505 0.51209 0.07758
 C2370 C 0.51304 0.52013 0.06869
 C2371 C 0.50543 0.53340 0.07583
 C2372 C 0.51007 0.53863 0.09111
 H2373 H 0.53435 0.56998 0.13711
 H2374 H 0.54570 0.52075 0.14832
 H2375 H 0.53115 0.50172 0.07263
 H2376 H 0.49601 0.53993 0.06955
 H2377 H 0.52352 0.56145 0.11120
 H2378 H 0.50394 0.54882 0.09637
 C2379 C 0.21789 0.53688 0.63716
 C2380 C 0.21797 0.55341 0.63413
 C2381 C 0.21160 0.55922 0.61972
 C2382 C 0.20514 0.54867 0.60821
 C2383 C 0.20505 0.53222 0.61182
 N2384 N 0.21129 0.52682 0.62602
 C2385 C 0.22429 0.53027 0.65244
 N2386 N 0.21760 0.51674 0.65870
 C2387 C 0.22239 0.51052 0.67312
 C2388 C 0.23459 0.51806 0.68217
 C2389 C 0.24202 0.53170 0.67561
 C2390 C 0.23694 0.53780 0.66080
 H2391 H 0.21148 0.57203 0.61772
 H2392 H 0.20024 0.52364 0.60330
 H2393 H 0.21641 0.49991 0.67762
 H2394 H 0.25155 0.53788 0.68205
 H2395 H 0.22254 0.56184 0.64292
 H2396 H 0.24289 0.54830 0.65600
 C2397 C 0.21027 0.03123 0.13712
 C2398 C 0.19387 0.02980 0.13305
 C2399 C 0.18815 0.03654 0.11876
 C2400 C 0.19863 0.04488 0.10825
 C2401 C 0.21503 0.04607 0.11301
 N2402 N 0.22027 0.03938 0.12704
 C2403 C 0.21683 0.02455 0.15233
 N2404 N 0.22996 0.03157 0.15929
 C2405 C 0.23630 0.02637 0.17352
 C2406 C 0.22933 0.01332 0.18163
 C2407 C 0.21606 0.00565 0.17441
 C2408 C 0.20982 0.01118 0.15981
 H2409 H 0.17529 0.03578 0.11653
 H2410 H 0.22396 0.05177 0.10544
 H2411 H 0.24659 0.03261 0.17858
 H2412 H 0.21030 -0.00451 0.18013
 H2413 H 0.18536 0.02399 0.14103
 H2414 H 0.19969 0.00494 0.15446
 C2415 C 0.71895 0.21157 0.60897
 C2416 C 0.71847 0.19510 0.61231
 C2417 C 0.71282 0.18985 0.62722
 C2418 C 0.70765 0.20090 0.63890
 C2419 C 0.70809 0.21727 0.63499
 N2420 N 0.71361 0.22212 0.62032
 C2421 C 0.72484 0.21764 0.59330
 N2422 N 0.71862 0.23151 0.58724
 C2423 C 0.72327 0.23751 0.57270
 C2424 C 0.73491 0.22945 0.56337
 C2425 C 0.74172 0.21533 0.56961
 C2426 C 0.73675 0.20943 0.58451
 H2427 H 0.71225 0.17710 0.62950
 H2428 H 0.70427 0.22622 0.64363
 H2429 H 0.71777 0.24849 0.56841
 H2430 H 0.75077 0.20870 0.56291
 H2431 H 0.72207 0.18631 0.60341
 H2432 H 0.74232 0.19862 0.58911
 C2433 C 0.71704 0.71839 0.11240
 C2434 C 0.72790 0.71330 0.12440
 C2435 C 0.72194 0.70758 0.13905
 C2436 C 0.70520 0.70699 0.14186
 C2437 C 0.69479 0.71274 0.12977
 N2438 N 0.70088 0.71816 0.11555
 C2439 C 0.72260 0.72373 0.09629
 N2440 N 0.71290 0.73356 0.08743
 C2441 C 0.71690 0.73845 0.07229
 C2442 C 0.73134 0.73318 0.06509
 C2443 C 0.74147 0.72298 0.07400
 C2444 C 0.73717 0.71824 0.08954
 H2445 H 0.73042 0.70362 0.14819
 H2446 H 0.68180 0.71245 0.13138
 H2447 H 0.70864 0.74622 0.06583
 H2448 H 0.75269 0.71852 0.06892
 H2449 H 0.74085 0.71378 0.12262
 H2450 H 0.74499 0.71000 0.09593
 C2451 C 0.53157 0.71591 0.13896
 C2452 C 0.52085 0.71121 0.12670
 C2453 C 0.52698 0.70582 0.11197
 C2454 C 0.54376 0.70510 0.10937
 C2455 C 0.55403 0.71038 0.12178
 N2456 N 0.54777 0.71554 0.13604
 C2457 C 0.52581 0.72109 0.15506
 N2458 N 0.53528 0.73103 0.16401
 C2459 C 0.53111 0.73580 0.17914
 C2460 C 0.51675 0.73027 0.18628
 C2461 C 0.50682 0.71997 0.17727
 C2462 C 0.51127 0.71539 0.16169
 H2463 H 0.51858 0.70227 0.10261
 H2464 H 0.56704 0.70996 0.12037
 H2465 H 0.53922 0.74364 0.18568
 H2466 H 0.49569 0.71533 0.18231
 H2467 H 0.50788 0.71179 0.12835
 H2468 H 0.50363 0.70711 0.15517
 C2469 C 0.03590 0.71886 0.63959
 C2470 C 0.05249 0.71820 0.63610
 C2471 C 0.05765 0.71207 0.62136
 C2472 C 0.04638 0.70662 0.60993
 C2473 C 0.02987 0.70731 0.61397
 N2474 N 0.02511 0.71326 0.62852
 C2475 C 0.03007 0.72496 0.65529
 N2476 N 0.01656 0.71851 0.66207
 C2477 C 0.01117 0.72300 0.67693
 C2478 C 0.01960 0.73460 0.68589
 C2479 C 0.03322 0.74177 0.67882
 C2480 C 0.03845 0.73702 0.66358
 H2481 H 0.07053 0.71127 0.61908
 H2482 H 0.02075 0.70326 0.60554
 H2483 H 0.00051 0.71727 0.68182
 H2484 H 0.04005 0.75087 0.68515
 H2485 H 0.06147 0.72197 0.64482
 H2486 H 0.04897 0.74274 0.65839
 C2487 C 0.53133 0.63350 0.22463
 C2488 C 0.52055 0.62117 0.22055
 C2489 C 0.52657 0.60672 0.21459
 C2490 C 0.54330 0.60445 0.21274
 C2491 C 0.55369 0.61684 0.21763
 N2492 N 0.54753 0.63085 0.22328
 C2493 C 0.52564 0.64950 0.22984
 N2494 N 0.53562 0.65884 0.23890
 C2495 C 0.53162 0.67402 0.24330
 C2496 C 0.51690 0.68080 0.23821
 C2497 C 0.50642 0.67135 0.22890
 C2498 C 0.51071 0.65574 0.22472
 H2499 H 0.51814 0.59735 0.21134
 H2500 H 0.56667 0.61564 0.21637
 H2501 H 0.54012 0.68090 0.25041
 H2502 H 0.49498 0.67607 0.22465
 H2503 H 0.50761 0.62259 0.22192
 H2504 H 0.50263 0.64893 0.21709
 C2505 C 0.03089 0.63746 0.72021
 C2506 C 0.02024 0.62525 0.71546
 C2507 C 0.02647 0.61080 0.70968
 C2508 C 0.04328 0.60843 0.70858
 C2509 C 0.05347 0.62082 0.71384
 N2510 N 0.04712 0.63479 0.71942
 C2511 C 0.02507 0.65326 0.72589
 N2512 N 0.03474 0.66202 0.73582
 C2513 C 0.03066 0.67696 0.74091
 C2514 C 0.01619 0.68414 0.73568
 C2515 C 0.00599 0.67530 0.72547
 C2516 C 0.01035 0.65987 0.72060
 H2517 H 0.01813 0.60145 0.70614
 H2518 H 0.06649 0.61964 0.71311
 H2519 H 0.03897 0.68336 0.74866
 H2520 H -0.00523 0.68038 0.72106
 H2521 H 0.00727 0.62672 0.71634
 H2522 H 0.00253 0.65349 0.71234
 C2523 C 0.02997 0.11387 0.03450
 C2524 C 0.02725 0.11874 0.05043
 C2525 C 0.03408 0.13289 0.05605
 C2526 C 0.04380 0.14250 0.04593
 C2527 C 0.04645 0.13689 0.03005
 N2528 N 0.03958 0.12300 0.02488
 C2529 C 0.02322 0.09869 0.02820
 N2530 N 0.03113 0.09088 0.01612
 C2531 C 0.02605 0.07650 0.01032
 C2532 C 0.01226 0.06907 0.01683
 C2533 C 0.00366 0.07719 0.02894
 C2534 C 0.00903 0.09197 0.03457
 H2535 H 0.03228 0.13570 0.06866
 H2536 H 0.05346 0.14370 0.02146
 H2537 H 0.03302 0.07074 0.00090
 H2538 H -0.00714 0.07205 0.03422
 H2539 H 0.02035 0.11147 0.05875
 H2540 H 0.00206 0.09802 0.04380
 C2541 C 0.03053 0.61324 0.53683
 C2542 C 0.03069 0.61652 0.55344
 C2543 C 0.03740 0.63078 0.55900
 C2544 C 0.04393 0.64190 0.54810
 C2545 C 0.04369 0.63807 0.53157
 N2546 N 0.03716 0.62401 0.52644
 C2547 C 0.02396 0.59801 0.53051
 N2548 N 0.03057 0.59141 0.51700
 C2549 C 0.02574 0.57696 0.51116
 C2550 C 0.01361 0.56820 0.51911
 C2551 C 0.00623 0.57512 0.53269
 C2552 C 0.01132 0.58998 0.53839
 H2553 H 0.03776 0.63293 0.57188
 H2554 H 0.04853 0.64630 0.52273
 H2555 H 0.03169 0.57217 0.50057
 H2556 H -0.00325 0.56892 0.53917
 H2557 H 0.02610 0.60801 0.56214
 H2558 H 0.00545 0.59504 0.54889
 C2559 C 0.53362 0.11377 0.53165
 C2560 C 0.55038 0.11622 0.53235
 C2561 C 0.55640 0.13028 0.53901
 C2562 C 0.54582 0.14208 0.54492
 C2563 C 0.52910 0.13900 0.54435
 N2564 N 0.52349 0.12508 0.53786
 C2565 C 0.52696 0.09888 0.52469
 N2566 N 0.51359 0.09206 0.53135
 C2567 C 0.50772 0.07772 0.52618
 C2568 C 0.51553 0.06935 0.51366
 C2569 C 0.52890 0.07660 0.50620
 C2570 C 0.53461 0.09130 0.51165
 H2571 H 0.56938 0.13181 0.53971
 H2572 H 0.52050 0.14773 0.54879
 H2573 H 0.49728 0.07267 0.53218
 H2574 H 0.53526 0.07073 0.49642
 H2575 H 0.55880 0.10724 0.52808
 H2576 H 0.54502 0.09659 0.50580
 C2577 C 0.52782 0.61466 0.03301
 C2578 C 0.51769 0.62698 0.03859
 C2579 C 0.52451 0.64109 0.04452
 C2580 C 0.54139 0.64300 0.04489
 C2581 C 0.55105 0.63054 0.03880
 N2582 N 0.54413 0.61690 0.03314
 C2583 C 0.52141 0.59915 0.02723
 N2584 N 0.53061 0.59022 0.01698
 C2585 C 0.52608 0.57542 0.01191
 C2586 C 0.51162 0.56856 0.01750
 C2587 C 0.50187 0.57761 0.02797
 C2588 C 0.50669 0.59288 0.03283
 H2589 H 0.51658 0.65054 0.04873
 H2590 H 0.56411 0.63141 0.03895
 H2591 H 0.53406 0.56885 0.00392
 H2592 H 0.49068 0.57277 0.03268
 H2593 H 0.50465 0.62588 0.03827
 H2594 H 0.49923 0.59936 0.04134
 C2595 C 0.71981 0.13871 0.53389
 C2596 C 0.72226 0.13374 0.54985
 C2597 C 0.71585 0.11923 0.55508
 C2598 C 0.70682 0.10939 0.54455
 C2599 C 0.70457 0.11504 0.52861
 N2600 N 0.71098 0.12926 0.52384
 C2601 C 0.72601 0.15424 0.52789
 N2602 N 0.71827 0.16158 0.51540
 C2603 C 0.72293 0.17611 0.50963
 C2604 C 0.73614 0.18418 0.51656
 C2605 C 0.74453 0.17660 0.52917
 C2606 C 0.73957 0.16168 0.53480
 H2607 H 0.71740 0.11630 0.56769
 H2608 H 0.69824 0.10803 0.51966
 H2609 H 0.71613 0.18144 0.49983
 H2610 H 0.75486 0.18226 0.53482
 H2611 H 0.72859 0.14118 0.55847
 H2612 H 0.74640 0.15606 0.54440
 C2613 C 0.71786 0.63832 0.03238
 C2614 C 0.72836 0.62611 0.03754
 C2615 C 0.72196 0.61161 0.04296
 C2616 C 0.70514 0.60919 0.04328
 C2617 C 0.69512 0.62159 0.03763
 N2618 N 0.70163 0.63559 0.03242
 C2619 C 0.72381 0.65414 0.02695
 N2620 N 0.71442 0.66292 0.01675
 C2621 C 0.71868 0.67781 0.01170
 C2622 C 0.73307 0.68490 0.01720
 C2623 C 0.74293 0.67608 0.02778
 C2624 C 0.73838 0.66072 0.03264
 H2625 H 0.73019 0.60227 0.04685
 H2626 H 0.68209 0.62037 0.03778
 H2627 H 0.71062 0.68419 0.00365
 H2628 H 0.75408 0.68110 0.03240
 H2629 H 0.74135 0.62762 0.03725
 H2630 H 0.74597 0.65434 0.04112
 C2631 C 0.21782 0.61063 0.71816
 C2632 C 0.20119 0.61398 0.71807
 C2633 C 0.19569 0.62850 0.71196
 C2634 C 0.20666 0.63986 0.70596
 C2635 C 0.22320 0.63591 0.70592
 N2636 N 0.22830 0.62156 0.71190
 C2637 C 0.22398 0.59520 0.72441
 N2638 N 0.23715 0.58827 0.71742
 C2639 C 0.24265 0.57357 0.72193
 C2640 C 0.23465 0.56489 0.73409
 C2641 C 0.22146 0.57216 0.74187
 C2642 C 0.21614 0.58726 0.73711
 H2643 H 0.18278 0.63073 0.71171
 H2644 H 0.23208 0.64428 0.70139
 H2645 H 0.25297 0.56850 0.71570
 H2646 H 0.21499 0.56606 0.75141
 H2647 H 0.19244 0.60534 0.72235
 H2648 H 0.20591 0.59259 0.74325
 C2649 C 0.21473 0.10582 0.21090
 C2650 C 0.21680 0.11036 0.19478
 C2651 C 0.21116 0.12517 0.18955
 C2652 C 0.20329 0.13579 0.20025
 C2653 C 0.20107 0.13044 0.21630
 N2654 N 0.20678 0.11589 0.22110
 C2655 C 0.22072 0.09019 0.21688
 N2656 N 0.21292 0.08276 0.22926
 C2657 C 0.21755 0.06812 0.23487
 C2658 C 0.23078 0.06009 0.22789
 C2659 C 0.23923 0.06780 0.21542
 C2660 C 0.23430 0.08279 0.20996
 H2661 H 0.21242 0.12780 0.17684
 H2662 H 0.19543 0.13795 0.22530
 H2663 H 0.21075 0.06270 0.24459
 H2664 H 0.24960 0.06221 0.20975
 H2665 H 0.22237 0.10240 0.18608
 H2666 H 0.24117 0.08850 0.20046
 C2667 C 0.72214 1.11162 0.71550
 C2668 C 0.73238 1.12217 0.70724
 C2669 C 0.72644 1.13690 0.70198
 C2670 C 0.71025 1.14144 0.70494
 C2671 C 0.70070 1.13074 0.71405
 N2672 N 0.70675 1.11636 0.71883
 C2673 C 0.72736 1.09536 0.72042
 N2674 N 0.71897 1.08769 0.73224
 C2675 C 0.72245 1.07246 0.73688
 C2676 C 0.73494 1.06386 0.72928
 C2677 C 0.74379 1.07156 0.71709
 C2678 C 0.74004 1.08723 0.71261
 H2679 H 0.73483 1.14483 0.69597
 H2680 H 0.68811 1.13317 0.71659
 H2681 H 0.71525 1.06702 0.74630
 H2682 H 0.75344 1.06539 0.71079
 H2683 H 0.74492 1.11924 0.70494
 H2684 H 0.74671 1.09261 0.70280
 C2685 C 0.71834 0.61124 0.21207
 C2686 C 0.71778 0.61471 0.19551
 C2687 C 0.71134 0.62924 0.19031
 C2688 C 0.70548 0.64045 0.20151
 C2689 C 0.70607 0.63643 0.21798
 N2690 N 0.71234 0.62212 0.22277
 C2691 C 0.72480 0.59582 0.21807
 N2692 N 0.71858 0.58935 0.23181
 C2693 C 0.72347 0.57486 0.23755
 C2694 C 0.73532 0.56597 0.22930
 C2695 C 0.74225 0.57271 0.21540
 C2696 C 0.73706 0.58757 0.20978
 H2697 H 0.71070 0.63156 0.17747
 H2698 H 0.70176 0.64471 0.22706
 H2699 H 0.71788 0.57021 0.24838
 H2700 H 0.75148 0.56637 0.20866
 H2701 H 0.72188 0.60615 0.18659
 H2702 H 0.74262 0.59252 0.19907
 C2703 C 0.53407 0.13826 0.71889
 C2704 C 0.53913 0.12586 0.72918
 C2705 C 0.54411 0.11127 0.72259
 C2706 C 0.54406 0.10896 0.70580
 C2707 C 0.53852 0.12154 0.69599
 N2708 N 0.53375 0.13563 0.70268
 C2709 C 0.52919 0.15418 0.72504
 N2710 N 0.51907 0.16334 0.71593
 C2711 C 0.51463 0.17840 0.72032
 C2712 C 0.52075 0.18526 0.73455
 C2713 C 0.53120 0.17602 0.74415
 C2714 C 0.53541 0.16050 0.73948
 H2715 H 0.54793 0.10179 0.73065
 H2716 H 0.53839 0.12038 0.68298
 H2717 H 0.50665 0.18510 0.71247
 H2718 H 0.53629 0.18085 0.75517
 H2719 H 0.53911 0.12729 0.74215
 H2720 H 0.54386 0.15382 0.74684
 C2721 C 1.03909 0.13948 0.21926
 C2722 C 1.05567 0.13588 0.21851
 C2723 C 1.06074 0.12151 0.21158
 C2724 C 1.04939 0.11061 0.20542
 C2725 C 1.03290 0.11467 0.20644
 N2726 N 1.02826 0.12883 0.21313
 C2727 C 1.03319 0.15492 0.22578
 N2728 N 1.01923 0.16129 0.21983
 C2729 C 1.01352 0.17582 0.22464
 C2730 C 1.02206 0.18491 0.23610
 C2731 C 1.03619 0.17828 0.24278
 C2732 C 1.04176 0.16334 0.23769
 H2733 H 1.07360 0.11914 0.21068
 H2734 H 1.02370 0.10660 0.20199
 H2735 H 1.00251 0.18037 0.21925
 H2736 H 1.04316 0.18477 0.25171
 H2737 H 1.06471 0.14426 0.22272
 H2738 H 1.05266 0.15850 0.24304
 C2739 C 0.21905 0.63948 0.53282
 C2740 C 0.22974 0.62728 0.53764
 C2741 C 0.22356 0.61263 0.54287
 C2742 C 0.20679 0.61004 0.54327
 C2743 C 0.19656 0.62239 0.53789
 N2744 N 0.20286 0.63657 0.53291
 C2745 C 0.22478 0.65550 0.52784
 N2746 N 0.21522 0.66454 0.51803
 C2747 C 0.21932 0.67962 0.51344
 C2748 C 0.23373 0.68659 0.51902
 C2749 C 0.24374 0.67750 0.52922
 C2750 C 0.23933 0.66199 0.53363
 H2751 H 0.23191 0.60332 0.54657
 H2752 H 0.18355 0.62100 0.53811
 H2753 H 0.21116 0.68622 0.50567
 H2754 H 0.25492 0.68240 0.53390
 H2755 H 0.24271 0.62892 0.53728
 H2756 H 0.24705 0.65542 0.54185
 C2757 C 0.21919 0.13532 1.03278
 C2758 C 0.22900 0.12295 1.03884
 C2759 C 0.22181 0.10905 1.04487
 C2760 C 0.20489 0.10742 1.04487
 C2761 C 0.19558 0.12002 1.03853
 N2762 N 0.20285 0.13339 1.03273
 C2763 C 0.22591 0.15049 1.02647
 N2764 N 0.21684 0.15917 1.01591
 C2765 C 0.22158 0.17369 1.01028
 C2766 C 0.23616 0.18054 1.01558
 C2767 C 0.24581 0.17172 1.02636
 C2768 C 0.24077 0.15671 1.03179
 H2769 H 0.22949 0.09952 1.04934
 H2770 H 0.18250 0.11942 1.03847
 H2771 H 0.21368 0.18005 1.00206
 H2772 H 0.25709 0.17656 1.03086
 H2773 H 0.24206 0.12383 1.03872
 H2774 H 0.24815 0.15041 1.04051
 C2775 C 0.21678 0.71717 0.61396
 C2776 C 0.21168 0.72739 0.62643
 C2777 C 0.20630 0.72087 0.64097
 C2778 C 0.20600 0.70420 0.64319
 C2779 C 0.21159 0.69443 0.63055
 N2780 N 0.21675 0.70107 0.61648
 C2781 C 0.22217 0.72339 0.59812
 N2782 N 0.23255 0.71443 0.58909
 C2783 C 0.23768 0.71914 0.57424
 C2784 C 0.23211 0.73357 0.56751
 C2785 C 0.22130 0.74293 0.57658
 C2786 C 0.21633 0.73791 0.59185
 H2787 H 0.20249 0.72888 0.65052
 H2788 H 0.21148 0.68153 0.63166
 H2789 H 0.24589 0.71145 0.56763
 H2790 H 0.21659 0.75409 0.57184
 H2791 H 0.21200 0.74027 0.62512
 H2792 H 0.20769 0.74516 0.59841
 C2793 C 0.21922 0.21129 1.11002
 C2794 C 0.21792 0.19474 1.11255
 C2795 C 0.21126 0.18906 1.12687
 C2796 C 0.20594 0.19977 1.13882
 C2797 C 0.20716 0.21627 1.13568
 N2798 N 0.21363 0.22154 1.12153
 C2799 C 0.22604 0.21769 1.09483
 N2800 N 0.22000 0.23151 1.08852
 C2801 C 0.22507 0.23740 1.07406
 C2802 C 0.23687 0.22919 1.06503
 C2803 C 0.24369 0.21528 1.07170
 C2804 C 0.23834 0.20952 1.08654
 H2805 H 0.21007 0.17625 1.12845
 H2806 H 0.20324 0.22497 1.14454
 H2807 H 0.21957 0.24825 1.06947
 H2808 H 0.25288 0.20857 1.06528
 H2809 H 0.22167 0.18623 1.10344
 H2810 H 0.24373 0.19873 1.09139
 C2811 C 0.71720 0.53550 0.13656
 C2812 C 0.71734 0.55204 0.13362
 C2813 C 0.71054 0.55802 0.11948
 C2814 C 0.70362 0.54761 0.10811
 C2815 C 0.70342 0.53114 0.11166
 N2816 N 0.71008 0.52559 0.12561
 C2817 C 0.72421 0.52879 0.15154
 N2818 N 0.71740 0.51561 0.15841
 C2819 C 0.72269 0.50954 0.17272
 C2820 C 0.73552 0.51691 0.18104
 C2821 C 0.74310 0.53010 0.17377
 C2822 C 0.73753 0.53603 0.15908
 H2823 H 0.71052 0.57084 0.11756
 H2824 H 0.69824 0.52267 0.10325
 H2825 H 0.71655 0.49928 0.17780
 H2826 H 0.75311 0.53613 0.17960
 H2827 H 0.72234 0.56037 0.14230
 H2828 H 0.74355 0.54624 0.15376
 C2829 C 0.71636 1.02950 0.63298
 C2830 C 0.71068 1.01959 0.62051
 C2831 C 0.70525 1.02646 0.60612
 C2832 C 0.70545 1.04316 0.60409
 C2833 C 0.71151 1.05258 0.61676
 N2834 N 0.71674 1.04562 0.63063
 C2835 C 0.72191 1.02307 0.64867
 N2836 N 0.73253 1.03187 0.65754
 C2837 C 0.73757 1.02728 0.67245
 C2838 C 0.73158 1.01319 0.67949
 C2839 C 0.72066 1.00388 0.67053
 C2840 C 0.71583 1.00874 0.65513
 H2841 H 0.70103 1.01869 0.59656
 H2842 H 0.71174 1.06550 0.61585
 H2843 H 0.74592 1.03492 0.67893
 H2844 H 0.71564 0.99297 0.67550
 H2845 H 0.71060 1.00670 0.62172
 H2846 H 0.70703 1.00162 0.64866
 C2847 C 0.53538 0.21898 0.63717
 C2848 C 0.54106 0.22910 0.62488
 C2849 C 0.54685 0.22249 0.61052
 C2850 C 0.54692 0.20583 0.60827
 C2851 C 0.54070 0.19617 0.62067
 N2852 N 0.53522 0.20288 0.63459
 C2853 C 0.52981 0.22521 0.65298
 N2854 N 0.51966 0.21610 0.66209
 C2855 C 0.51474 0.22060 0.67709
 C2856 C 0.52035 0.23494 0.68394
 C2857 C 0.53075 0.24457 0.67471
 C2858 C 0.53549 0.23978 0.65929
 H2859 H 0.55116 0.23042 0.60113
 H2860 H 0.54059 0.18326 0.61951
 H2861 H 0.50681 0.21273 0.68379
 H2862 H 0.53548 0.25568 0.67951
 H2863 H 0.54094 0.24199 0.62619
 H2864 H 0.54395 0.24717 0.65272
 C2865 C 1.03456 0.21604 0.13852
 C2866 C 1.03383 0.19963 0.13497
 C2867 C 1.03955 0.19408 0.12022
 C2868 C 1.04599 0.20477 0.10885
 C2869 C 1.04674 0.22109 0.11296
 N2870 N 1.04113 0.22624 0.12752
 C2871 C 1.02879 0.22224 0.15420
 N2872 N 1.03639 0.23495 0.16116
 C2873 C 1.03219 0.24053 0.17603
 C2874 C 1.01973 0.23311 0.18481
 C2875 C 1.01139 0.22037 0.17753
 C2876 C 1.01584 0.21496 0.16229
 H2877 H 1.03924 0.18133 0.11786
 H2878 H 1.05161 0.22976 0.10458
 H2879 H 1.03884 0.25048 0.18110
 H2880 H 1.00157 0.21438 0.18369
 H2881 H 1.02926 0.19107 0.14364
 H2882 H 1.00921 0.20513 0.15693
 C2883 C 0.61856 0.21835 0.71727
 C2884 C 0.63072 0.22843 0.71123
 C2885 C 0.64507 0.22178 0.70541
 C2886 C 0.64741 0.20512 0.70561
 C2887 C 0.63515 0.19552 0.71220
 N2888 N 0.62125 0.20227 0.71774
 C2889 C 0.60279 0.22458 0.72293
 N2890 N 0.59408 0.21571 0.73362
 C2891 C 0.57915 0.22021 0.73878
 C2892 C 0.57194 0.23429 0.73289
 C2893 C 0.58073 0.24364 0.72189
 C2894 C 0.59612 0.23886 0.71690
 H2895 H 0.65436 0.22967 0.70079
 H2896 H 0.63637 0.18262 0.71252
 H2897 H 0.57280 0.21256 0.74720
 H2898 H 0.57563 0.25454 0.71695
 H2899 H 0.62929 0.24130 0.71110
 H2900 H 0.60240 0.24602 0.70803
 C2901 C 1.11627 0.21691 0.21759
 C2902 C 1.12886 0.22669 0.21194
 C2903 C 1.14278 0.21967 0.20552
 C2904 C 1.14426 0.20293 0.20470
 C2905 C 1.13155 0.19360 0.21085
 N2906 N 1.11810 0.20072 0.21702
 C2907 C 1.10092 0.22359 0.22391
 N2908 N 1.09196 0.21462 0.23430
 C2909 C 1.07729 0.21950 0.23988
 C2910 C 1.07059 0.23408 0.23467
 C2911 C 1.07967 0.24358 0.22405
 C2912 C 1.09482 0.23843 0.21869
 H2913 H 1.15244 0.22734 0.20129
 H2914 H 1.13206 0.18067 0.21037
 H2915 H 1.07066 0.21170 0.24794
 H2916 H 1.07495 0.25486 0.21964
 H2917 H 1.12810 0.23961 0.21260
 H2918 H 1.10132 0.24572 0.21009
 C2919 C 0.13996 0.71465 0.53679
 C2920 C 0.13667 0.71399 0.55338
 C2921 C 0.12192 0.70799 0.55868
 C2922 C 0.11032 0.70262 0.54756
 C2923 C 0.11429 0.70294 0.53107
 N2924 N 0.12881 0.70889 0.52616
 C2925 C 0.15536 0.72138 0.53078
 N2926 N 0.16223 0.71534 0.51714
 C2927 C 0.17671 0.72067 0.51146
 C2928 C 0.18513 0.73282 0.51967
 C2929 C 0.17797 0.73950 0.53348
 C2930 C 0.16315 0.73386 0.53903
 H2931 H 0.11964 0.70746 0.57154
 H2932 H 0.10573 0.69885 0.52210
 H2933 H 0.18171 0.71525 0.50069
 H2934 H 0.18390 0.74895 0.54019
 H2935 H 0.14546 0.71789 0.56223
 H2936 H 0.15785 0.73929 0.54965
 C2937 C 0.14070 0.21332 1.03566
 C2938 C 0.13768 0.21265 1.05230
 C2939 C 0.12294 0.20679 1.05785
 C2940 C 0.11108 0.20161 1.04691
 C2941 C 0.11473 0.20209 1.03034
 N2942 N 0.12926 0.20784 1.02520
 C2943 C 0.15618 0.21958 1.02936
 N2944 N 0.16251 0.21336 1.01553
 C2945 C 0.17706 0.21817 1.00956
 C2946 C 0.18614 0.22992 1.01765
 C2947 C 0.17951 0.23683 1.03162
 C2948 C 0.16461 0.23173 1.03748
 H2949 H 0.12091 0.20616 1.07074
 H2950 H 0.10596 0.19823 1.02147
 H2951 H 0.18162 0.21260 0.99868
 H2952 H 0.18597 0.24600 1.03825
 H2953 H 0.14670 0.21634 1.06101
 H2954 H 0.15975 0.23728 1.04824
 C2955 C 0.63863 0.53109 0.21375
 C2956 C 0.63479 0.53223 0.19729
 C2957 C 0.61976 0.53823 0.19265
 C2958 C 0.60845 0.54307 0.20431
 C2959 C 0.61281 0.54182 0.22067
 N2960 N 0.62761 0.53603 0.22491
 C2961 C 0.65461 0.52526 0.21919
 N2962 N 0.66108 0.53118 0.23307
 C2963 C 0.67603 0.52682 0.23839
 C2964 C 0.68540 0.51585 0.22954
 C2965 C 0.67871 0.50925 0.21545
 C2966 C 0.66337 0.51390 0.21026
 H2967 H 0.61716 0.53941 0.17990
 H2968 H 0.60445 0.54531 0.23008
 H2969 H 0.68063 0.53210 0.24940
 H2970 H 0.68542 0.50069 0.20825
 H2971 H 0.64344 0.52896 0.18805
 H2972 H 0.65846 0.50860 0.19939
 C2973 C 0.63505 1.03212 0.71576
 C2974 C 0.62290 1.03721 0.72644
 C2975 C 0.60836 1.04316 0.72031
 C2976 C 0.60583 1.04405 0.70357
 C2977 C 0.61810 1.03837 0.69332
 N2978 N 0.63218 1.03266 0.69958
 C2979 C 0.65097 1.02635 0.72151
 N2980 N 0.65962 1.01617 0.71199
 C2981 C 0.67463 1.01091 0.71610
 C2982 C 0.68199 1.01618 0.73044
 C2983 C 0.67329 1.02669 0.74043
 C2984 C 0.65781 1.03177 0.73604
 H2985 H 0.59908 1.04702 0.72867
 H2986 H 0.61674 1.03890 0.68035
 H2987 H 0.68092 1.00290 0.70796
 H2988 H 0.67851 1.03114 0.75155
 H2989 H 0.62450 1.03651 0.73938
 H2990 H 0.65155 1.04023 0.74371
 C2991 C 0.86411 0.46818 0.28330
 C2992 C 0.87633 0.47831 0.28914
 C2993 C 0.89067 0.47168 0.29506
 C2994 C 0.89290 0.45501 0.29513
 C2995 C 0.88059 0.44536 0.28870
 N2996 N 0.86672 0.45209 0.28307
 C2997 C 0.84836 0.47436 0.27754
 N2998 N 0.83960 0.46529 0.26707
 C2999 C 0.82470 0.46973 0.26178
 C3000 C 0.81758 0.48400 0.26730
 C3001 C 0.82638 0.49354 0.27814
 C3002 C 0.84174 0.48879 0.28326
 H3003 H 0.90000 0.47959 0.29956
 H3004 H 0.88172 0.43245 0.28862
 H3005 H 0.81833 0.46192 0.25352
 H3006 H 0.82134 0.50459 0.28280
 H3007 H 0.87496 0.49119 0.28907
 H3008 H 0.84807 0.49613 0.29197
 C3009 C 0.85870 0.95888 0.78142
 C3010 C 0.86229 0.94248 0.78268
 C3011 C 0.87712 0.93765 0.78906
 C3012 C 0.88846 0.94906 0.79422
 C3013 C 0.88435 0.96534 0.79286
 N3014 N 0.86978 0.96976 0.78665
 C3015 C 0.84299 0.96463 0.77508
 N3016 N 0.83711 0.97898 0.78023
 C3017 C 0.82261 0.98487 0.77520
 C3018 C 0.81309 0.97616 0.76424
 C3019 C 0.81910 0.96149 0.75851
 C3020 C 0.83400 0.95570 0.76386
 H3021 H 0.87955 0.92497 0.79028
 H3022 H 0.89275 0.97455 0.79658
 H3023 H 0.81852 0.99628 0.77987
 H3024 H 0.81224 0.95436 0.75001
 H3025 H 0.85361 0.93343 0.77919
 H3026 H 0.83844 0.94446 0.75911
 C3027 C 0.39618 0.28833 0.79024
 C3028 C 0.39272 0.28895 0.80682
 C3029 C 0.37786 0.29493 0.81202
 C3030 C 0.36635 0.30034 0.80080
 C3031 C 0.37041 0.29981 0.78433
 N3032 N 0.38501 0.29393 0.77954
 C3033 C 0.41177 0.28199 0.78416
 N3034 N 0.41786 0.28768 0.77001
 C3035 C 0.43225 0.28254 0.76390
 C3036 C 0.44138 0.27090 0.77211
 C3037 C 0.43511 0.26465 0.78654
 C3038 C 0.42037 0.27013 0.79257
 H3039 H 0.37549 0.29554 0.82485
 H3040 H 0.36190 0.30379 0.77525
 H3041 H 0.43656 0.28764 0.75269
 H3042 H 0.44167 0.25564 0.79330
 H3043 H 0.40149 0.28515 0.81574
 H3044 H 0.41573 0.26497 0.80361
 C3045 C 0.89132 0.28564 0.28354
 C3046 C 0.87930 0.29111 0.27288
 C3047 C 0.86477 0.29707 0.27901
 C3048 C 0.86209 0.29755 0.29573
 C3049 C 0.87426 0.29159 0.30595
 N3050 N 0.88835 0.28590 0.29970
 C3051 C 0.90721 0.27977 0.27775
 N3052 N 0.91584 0.26942 0.28712
 C3053 C 0.93075 0.26396 0.28282
 C3054 C 0.93796 0.26915 0.26840
 C3055 C 0.92928 0.27987 0.25860
 C3056 C 0.91397 0.28518 0.26321
 H3057 H 0.85557 0.30116 0.27066
 H3058 H 0.87276 0.29181 0.31892
 H3059 H 0.93705 0.25582 0.29083
 H3060 H 0.93438 0.28431 0.24743
 H3061 H 0.88094 0.29064 0.25994
 H3062 H 0.90779 0.29379 0.25564
 C3063 C 0.36215 0.78866 0.46962
 C3064 C 0.36517 0.80518 0.46923
 C3065 C 0.37962 0.81080 0.46273
 C3066 C 0.39117 0.80005 0.45663
 C3067 C 0.38760 0.78360 0.45710
 N3068 N 0.37336 0.77840 0.46342
 C3069 C 0.34679 0.78228 0.47605
 N3070 N 0.34035 0.76876 0.46950
 C3071 C 0.32582 0.76279 0.47431
 C3072 C 0.31685 0.77059 0.48640
 C3073 C 0.32361 0.78422 0.49369
 C3074 C 0.33851 0.79006 0.48859
 H3075 H 0.38158 0.82360 0.46218
 H3076 H 0.39618 0.77486 0.45262
 H3077 H 0.32115 0.75217 0.46844
 H3078 H 0.31723 0.79061 0.50313
 H3079 H 0.35632 0.81375 0.47351
 H3080 H 0.34346 0.80058 0.49440
 C3081 C 0.36248 0.28193 0.96073
 C3082 C 0.37505 0.27226 0.95477
 C3083 C 0.38939 0.27936 0.94947
 C3084 C 0.39128 0.29607 0.95008
 C3085 C 0.37845 0.30526 0.95626
 N3086 N 0.36465 0.29807 0.96137
 C3087 C 0.34699 0.27522 0.96657
 N3088 N 0.33818 0.28385 0.97739
 C3089 C 0.32362 0.27884 0.98303
 C3090 C 0.31691 0.26437 0.97757
 C3091 C 0.32575 0.25528 0.96634
 C3092 C 0.34078 0.26063 0.96085
 H3093 H 0.39908 0.27176 0.94513
 H3094 H 0.37924 0.31818 0.95678
 H3095 H 0.31720 0.28634 0.99155
 H3096 H 0.32100 0.24411 0.96170
 H3097 H 0.37402 0.25935 0.95447
 H3098 H 0.34717 0.25361 0.95192
 C3099 C 0.78573 0.46667 0.35981
 C3100 C 0.79107 0.47688 0.37219
 C3101 C 0.79681 0.47034 0.38660
 C3102 C 0.79724 0.45368 0.38880
 C3103 C 0.79145 0.44392 0.37624
 N3104 N 0.78594 0.45056 0.36230
 C3105 C 0.77996 0.47288 0.34408
 N3106 N 0.76956 0.46385 0.33517
 C3107 C 0.76419 0.46850 0.32037
 C3108 C 0.76954 0.48295 0.31355
 C3109 C 0.78031 0.49242 0.32252
 C3110 C 0.78552 0.48747 0.33774
 H3111 H 0.80077 0.47835 0.39609
 H3112 H 0.79165 0.43101 0.37732
 H3113 H 0.75601 0.46073 0.31384
 H3114 H 0.78486 0.50360 0.31771
 H3115 H 0.79064 0.48976 0.37092
 H3116 H 0.79416 0.49479 0.34418
 C3117 C 0.78378 0.96267 0.85728
 C3118 C 0.80037 0.96171 0.86074
 C3119 C 0.80544 0.95593 0.87566
 C3120 C 0.79408 0.95108 0.88725
 C3121 C 0.77759 0.95181 0.88317
 N3122 N 0.77291 0.95751 0.86848
 C3123 C 0.77796 0.96894 0.84162
 N3124 N 0.76395 0.96320 0.83519
 C3125 C 0.75829 0.96814 0.82058
 C3126 C 0.76689 0.97955 0.81155
 C3127 C 0.78112 0.98591 0.81822
 C3128 C 0.78665 0.98068 0.83319
 H3129 H 0.81830 0.95508 0.87804
 H3130 H 0.76842 0.94817 0.89172
 H3131 H 0.74720 0.96299 0.81597
 H3132 H 0.78814 0.99480 0.81180
 H3133 H 0.80940 0.96511 0.85194
 H3134 H 0.79757 0.98588 0.83811
 C3135 C 0.27989 0.78222 0.38780
 C3136 C 0.28503 0.77142 0.37584
 C3137 C 0.29073 0.77726 0.36114
 C3138 C 0.29125 0.79381 0.35824
 C3139 C 0.28535 0.80416 0.37024
 N3140 N 0.27998 0.79819 0.38453
 C3141 C 0.27483 0.77680 0.40403
 N3142 N 0.26484 0.78630 0.41295
 C3143 C 0.26036 0.78251 0.42827
 C3144 C 0.26630 0.76854 0.43563
 C3145 C 0.27661 0.75857 0.42665
 C3146 C 0.28088 0.76263 0.41090
 H3147 H 0.29479 0.76884 0.35206
 H3148 H 0.28557 0.81700 0.36854
 H3149 H 0.25247 0.79060 0.43477
 H3150 H 0.28155 0.74771 0.43183
 H3151 H 0.28467 0.75862 0.37774
 H3152 H 0.28925 0.75499 0.40446
 C3153 C 0.28498 0.28253 0.88677
 C3154 C 0.29121 0.27268 0.87449
 C3155 C 0.29751 0.27961 0.86053
 C3156 C 0.29756 0.29631 0.85864
 C3157 C 0.29065 0.30569 0.87092
 N3158 N 0.28469 0.29867 0.88449
 C3159 C 0.27905 0.27590 0.90227
 N3160 N 0.26830 0.28455 0.91119
 C3161 C 0.26292 0.27956 0.92587
 C3162 C 0.26864 0.26516 0.93256
 C3163 C 0.27972 0.25606 0.92354
 C3164 C 0.28493 0.26136 0.90846
 H3165 H 0.30234 0.27189 0.85119
 H3166 H 0.29045 0.31861 0.87000
 H3167 H 0.25448 0.28704 0.93244
 H3168 H 0.28457 0.24494 0.92823
 H3169 H 0.29118 0.25977 0.87554
 H3170 H 0.29387 0.25434 0.90206
 C3171 C 0.47178 0.29071 0.86086
 C3172 C 0.47104 0.30724 0.86390
 C3173 C 0.46402 0.31278 0.87815
 C3174 C 0.45773 0.30194 0.88947
 C3175 C 0.45875 0.28550 0.88597
 N3176 N 0.46554 0.28039 0.87193
 C3177 C 0.47851 0.28426 0.84563
 N3178 N 0.47268 0.27019 0.83972
 C3179 C 0.47782 0.26388 0.82547
 C3180 C 0.48957 0.27185 0.81624
 C3181 C 0.49608 0.28614 0.82238
 C3182 C 0.49061 0.29236 0.83702
 H3183 H 0.46314 0.32557 0.88010
 H3184 H 0.45422 0.27668 0.89439
 H3185 H 0.47253 0.25279 0.82128
 H3186 H 0.50519 0.29271 0.81575
 H3187 H 0.47536 0.31587 0.85518
 H3188 H 0.49587 0.30335 0.84151
 C3189 C 0.96965 0.28586 0.36268
 C3190 C 0.96419 0.27555 0.37490
 C3191 C 0.95822 0.28195 0.38926
 C3192 C 0.95774 0.29859 0.39157
 C3193 C 0.96378 0.30847 0.37926
 N3194 N 0.96945 0.30195 0.36532
 C3195 C 0.97539 0.27977 0.34691
 N3196 N 0.98572 0.28888 0.33800
 C3197 C 0.99102 0.28429 0.32315
 C3198 C 0.98568 0.26984 0.31632
 C3199 C 0.97498 0.26032 0.32529
 C3200 C 0.96983 0.26521 0.34052
 H3201 H 0.95408 0.27388 0.39860
 H3202 H 0.96359 0.32136 0.38050
 H3203 H 0.99915 0.29210 0.31662
 H3204 H 0.97043 0.24913 0.32049
 H3205 H 0.96464 0.26268 0.37354
 H3206 H 0.96121 0.25784 0.34693
 C3207 C 0.47185 0.36255 0.78551
 C3208 C 0.48175 0.37459 0.79205
 C3209 C 0.47470 0.38862 0.79797
 C3210 C 0.45785 0.39074 0.79733
 C3211 C 0.44846 0.37853 0.79043
 N3212 N 0.45559 0.36498 0.78479
 C3213 C 0.47843 0.34721 0.77941
 N3214 N 0.46951 0.33871 0.76859
 C3215 C 0.47423 0.32414 0.76300
 C3216 C 0.48863 0.31711 0.76858
 C3217 C 0.49806 0.32569 0.77971
 C3218 C 0.49302 0.34072 0.78514
 H3219 H 0.48243 0.39786 0.80290
 H3220 H 0.43542 0.37955 0.78984
 H3221 H 0.46651 0.31793 0.75451
 H3222 H 0.50919 0.32070 0.78445
 H3223 H 0.49477 0.37335 0.79244
 H3224 H 0.50025 0.34683 0.79411
 C3225 C 0.96477 0.36017 0.28532
 C3226 C 0.94812 0.36352 0.28507
 C3227 C 0.94243 0.37782 0.29159
 C3228 C 0.95321 0.38891 0.29840
 C3229 C 0.96974 0.38496 0.29875
 N3230 N 0.97502 0.37088 0.29232
 C3231 C 0.97129 0.34506 0.27859
 N3232 N 0.98503 0.33866 0.28500
 C3233 C 0.99128 0.32448 0.27982
 C3234 C 0.98358 0.31582 0.26746
 C3235 C 0.96969 0.32249 0.26036
 C3236 C 0.96356 0.33706 0.26584
 H3237 H 0.92953 0.38010 0.29150
 H3238 H 0.97849 0.39314 0.30387
 H3239 H 1.00208 0.31988 0.28558
 H3240 H 0.96337 0.31633 0.25074
 H3241 H 0.93949 0.35507 0.28021
 H3242 H 0.95290 0.34197 0.26008
 C3243 C 0.28498 0.86367 0.46990
 C3244 C 0.30158 0.86718 0.47003
 C3245 C 0.30706 0.88143 0.46325
 C3246 C 0.29610 0.89233 0.45636
 C3247 C 0.27958 0.88832 0.45640
 N3248 N 0.27453 0.87426 0.46298
 C3249 C 0.27878 0.84838 0.47644
 N3250 N 0.26546 0.84156 0.46964
 C3251 C 0.25974 0.82705 0.47445
 C3252 C 0.26761 0.81848 0.48678
 C3253 C 0.28099 0.82563 0.49433
 C3254 C 0.28657 0.84052 0.48924
 H3255 H 0.31995 0.88371 0.46307
 H3256 H 0.27068 0.89637 0.45131
 H3257 H 0.24929 0.82209 0.46837
 H3258 H 0.28741 0.81958 0.50396
 H3259 H 0.31035 0.85882 0.47486
 H3260 H 0.29691 0.84576 0.49525
 C3261 C 0.28331 0.35849 0.96495
 C3262 C 0.27268 0.37028 0.95910
 C3263 C 0.27889 0.38472 0.95336
 C3264 C 0.29562 0.38752 0.95352
 C3265 C 0.30578 0.37564 0.95996
 N3266 N 0.29946 0.36162 0.96539
 C3267 C 0.27756 0.34264 0.97046
 N3268 N 0.28693 0.33404 0.98084
 C3269 C 0.28281 0.31912 0.98593
 C3270 C 0.26856 0.31186 0.98030
 C3271 C 0.25874 0.32050 0.96954
 C3272 C 0.26318 0.33583 0.96461
 H3273 H 0.27059 0.39371 0.94884
 H3274 H 0.31876 0.37725 0.96025
 H3275 H 0.29082 0.31288 0.99413
 H3276 H 0.24771 0.31536 0.96478
 H3277 H 0.25972 0.36851 0.95902
 H3278 H 0.25562 0.34199 0.95593
 C3279 C 0.78550 0.38960 0.28327
 C3280 C 0.77496 0.37731 0.28805
 C3281 C 0.78131 0.36295 0.29390
 C3282 C 0.79812 0.36073 0.29499
 C3283 C 0.80823 0.37318 0.28970
 N3284 N 0.80176 0.38707 0.28407
 C3285 C 0.77948 0.40526 0.27744
 N3286 N 0.78900 0.41412 0.26746
 C3287 C 0.78452 0.42884 0.26203
 C3288 C 0.76973 0.43561 0.26686
 C3289 C 0.75976 0.42671 0.27722
 C3290 C 0.76455 0.41157 0.28250
 H3291 H 0.77306 0.35353 0.29746
 H3292 H 0.82125 0.37205 0.29040
 H3293 H 0.79268 0.43533 0.25419
 H3294 H 0.74829 0.43148 0.28136
 H3295 H 0.76197 0.37862 0.28713
 H3296 H 0.75683 0.40516 0.29081
   
