data_POSCAR
  _audit_creation_date              2014-09-24
  _audit_creation_method            'ToBaCCo'
  _symmetry_space_group_name_H-M    'P1'
  _symmetry_Int_Tables_number       1
  _symmetry_cell_setting            triclinic
  loop_
  _symmetry_equiv_pos_as_xyz
 x,y,z
_cell_length_a 79.8606
_cell_length_b 78.5938
_cell_length_c 74.7708
_cell_angle_alpha 89.745000
_cell_angle_beta 89.346900
_cell_angle_gamma 90.317900
loop_
  _atom_site_label
  _atom_site_type_symbol
  _atom_site_fract_x
  _atom_site_fract_y
  _atom_site_fract_z
C1 C 0.29651 0.44932 0.93115
 C2 C 0.28922 0.43357 0.93563
 C3 C 0.29493 0.42410 0.95021
 C4 C 0.30831 0.43042 0.96030
 C5 C 0.31602 0.44608 0.95598
 C6 C 0.30994 0.45544 0.94127
 H7 H 0.27944 0.42823 0.92744
 H8 H 0.31327 0.42286 0.97113
 H9 H 0.31569 0.46729 0.93710
 C10 C 0.42362 0.84526 0.42492
 C11 C 0.43024 0.83588 0.41036
 C12 C 0.42139 0.82171 0.40360
 C13 C 0.40618 0.81685 0.41173
 C14 C 0.39963 0.82585 0.42632
 C15 C 0.40814 0.84022 0.43241
 H16 H 0.44206 0.83949 0.40433
 H17 H 0.39934 0.80611 0.40642
 H18 H 0.40290 0.84717 0.44364
 C19 C 0.93138 0.91305 0.81411
 C20 C 0.91905 0.92197 0.80478
 C21 C 0.91383 0.93810 0.81040
 C22 C 0.92144 0.94552 0.82523
 C23 C 0.93367 0.93686 0.83507
 C24 C 0.93851 0.92044 0.82945
 H25 H 0.91372 0.91630 0.79296
 H26 H 0.91739 0.95806 0.82943
 H27 H 0.94741 0.91322 0.83704
 C28 C 0.43799 -0.09795 0.32225
 C29 C 0.44364 -0.08671 0.33531
 C30 C 0.43494 -0.07161 0.33889
 C31 C 0.42004 -0.06827 0.32987
 C32 C 0.41421 -0.07950 0.31669
 C33 C 0.42316 -0.09441 0.31310
 H34 H 0.45494 -0.08969 0.34254
 H35 H 0.41311 -0.05687 0.33311
 H36 H 0.41860 -0.10318 0.30311
 C37 C 0.81443 0.31279 0.32456
 C38 C 0.80664 0.32641 0.31583
 C39 C 0.81565 0.33691 0.30387
 C40 C 0.83259 0.33320 0.29999
 C41 C 0.84036 0.31920 0.30829
 C42 C 0.83120 0.30929 0.32061
 H43 H 0.79354 0.32906 0.31835
 H44 H 0.83962 0.34107 0.29064
 H45 H 0.83723 0.29868 0.32723
 C46 C -0.19227 0.82317 0.79564
 C47 C -0.17540 0.81619 0.79030
 C48 C -0.16882 0.80127 0.79762
 C49 C -0.17807 0.79208 0.81059
 C50 C -0.19395 0.79736 0.81657
 C51 C -0.20123 0.81196 0.80946
 H52 H -0.16814 0.82334 0.78047
 H53 H -0.17296 0.78059 0.81618
 H54 H -0.21348 0.81580 0.81427
 C55 C 0.93035 0.33318 0.43352
 C56 C 0.91582 0.32703 0.44237
 C57 C 0.90731 0.31256 0.43636
 C58 C 0.91343 0.30387 0.42131
 C59 C 0.92808 0.30943 0.41243
 C60 C 0.93642 0.32410 0.41862
 H61 H 0.91091 0.33309 0.45421
 H62 H 0.90667 0.29298 0.41621
 H63 H 0.94732 0.32890 0.41146
 C64 C 0.43080 0.44085 0.82317
 C65 C 0.41520 0.44439 0.81569
 C66 C 0.41026 0.43652 0.79968
 C67 C 0.42103 0.42470 0.79154
 C68 C 0.43677 0.42122 0.79890
 C69 C 0.44171 0.42969 0.81436
 H70 H 0.40680 0.45284 0.82276
 H71 H 0.41724 0.41851 0.77931
 H72 H 0.45403 0.42727 0.81967
 C73 C 0.81848 0.90228 0.94170
 C74 C 0.80900 0.91033 0.92835
 C75 C 0.81354 0.92648 0.92166
 C76 C 0.82761 0.93489 0.92876
 C77 C 0.83720 0.92703 0.94210
 C78 C 0.83261 0.91078 0.94825
 H79 H 0.79823 0.90412 0.92265
 H80 H 0.83113 0.94738 0.92391
 H81 H 0.84011 0.90476 0.95848
 C82 C 0.32067 0.83676 0.31378
 C83 C 0.31170 0.82859 0.32793
 C84 C 0.31745 0.81315 0.33528
 C85 C 0.33210 0.80587 0.32829
 C86 C 0.34119 0.81357 0.31431
 C87 C 0.33545 0.82904 0.30721
 H88 H 0.30027 0.83394 0.33313
 H89 H 0.33656 0.79399 0.33388
 H90 H 0.34261 0.83531 0.29670
 C91 C 0.79010 0.43779 0.45398
 C92 C 0.78316 0.44750 0.44015
 C93 C 0.79069 0.46281 0.43454
 C94 C 0.80478 0.46882 0.44349
 C95 C 0.81208 0.45942 0.45736
 C96 C 0.80455 0.44384 0.46264
 H97 H 0.77198 0.44290 0.43367
 H98 H 0.81054 0.48065 0.43902
 H99 H 0.80967 0.43652 0.47346
 C100 C 0.95117 0.82424 -0.03905
 C101 C 0.93561 0.81742 -0.03332
 C102 C 0.93012 0.80144 -0.03937
 C103 C 0.94042 0.79208 -0.05106
 C104 C 0.95576 0.79884 -0.05720
 C105 C 0.96111 0.81466 -0.05085
 H106 H 0.92746 0.82441 -0.02442
 H107 H 0.93670 0.77946 -0.05507
 H108 H 0.97298 0.81979 -0.05567
 C109 C 0.32345 0.33790 0.80715
 C110 C 0.33956 0.33256 0.80204
 C111 C 0.34817 0.32043 0.81220
 C112 C 0.34067 0.31391 0.82777
 C113 C 0.32440 0.31853 0.83276
 C114 C 0.31574 0.33054 0.82242
 H115 H 0.34551 0.33824 0.79036
 H116 H 0.34732 0.30462 0.83574
 H117 H 0.30319 0.33411 0.82636
 C118 C 0.14384 0.57142 0.56719
 C119 C 0.15010 0.58745 0.56231
 C120 C 0.16510 0.59367 0.56931
 C121 C 0.17387 0.58378 0.58184
 C122 C 0.16761 0.56767 0.58718
 C123 C 0.15276 0.56154 0.57953
 H124 H 0.14334 0.59508 0.55269
 H125 H 0.18544 0.58863 0.58725
 H126 H 0.14832 0.54894 0.58315
 C127 C 0.60327 0.65971 0.07144
 C128 C 0.59403 0.64555 0.06560
 C129 C 0.58095 0.63872 0.07615
 C130 C 0.57748 0.64581 0.09287
 C131 C 0.58594 0.66039 0.09853
 C132 C 0.59881 0.66743 0.08782
 H133 H 0.59722 0.63973 0.05291
 H134 H 0.56737 0.64061 0.10107
 H135 H 0.60508 0.67887 0.09224
 C136 C 0.69027 0.17989 0.66904
 C137 C 0.69869 0.16778 0.67941
 C138 C 0.69250 0.16285 0.69641
 C139 C 0.67779 0.17046 0.70289
 C140 C 0.66907 0.18237 0.69268
 C141 C 0.67526 0.18692 0.67564
 H142 H 0.71000 0.16235 0.67391
 H143 H 0.67279 0.16681 0.71592
 H144 H 0.66803 0.19534 0.66733
 C145 C 1.09282 0.06813 0.19024
 C146 C 1.08691 0.08564 0.19555
 C147 C 1.07271 0.09315 0.18810
 C148 C 1.06367 0.08453 0.17484
 C149 C 1.06807 0.06807 0.16907
 C150 C 1.08200 0.06003 0.17659
 H151 H 1.09396 0.09250 0.20552
 H152 H 1.05337 0.09102 0.16871
 H153 H 1.08551 0.04740 0.17218
 C154 C 0.07799 0.15305 1.06731
 C155 C 0.09394 0.16032 1.06529
 C156 C 0.09782 0.17591 1.07342
 C157 C 0.08566 0.18400 1.08393
 C158 C 0.06941 0.17710 1.08587
 C159 C 0.06580 0.16151 1.07762
 H160 H 0.10328 0.15366 1.05746
 H161 H 0.08915 0.19567 1.09054
 H162 H 0.05321 0.15640 1.07866
 C163 C 0.17600 0.69369 0.71102
 C164 C 0.18492 0.67915 0.71607
 C165 C 0.19946 0.67430 0.70671
 C166 C 0.20547 0.68451 0.69266
 C167 C 0.19679 0.69918 0.68741
 C168 C 0.18196 0.70356 0.69649
 H169 H 0.18038 0.67155 0.72724
 H170 H 0.21638 0.68033 0.68523
 H171 H 0.17496 0.71440 0.69181
 C172 C 1.18032 0.15281 0.18553
 C173 C 1.18818 0.15869 0.16981
 C174 C 1.18029 0.17039 0.15851
 C175 C 1.16427 0.17650 0.16332
 C176 C 1.15620 0.17051 0.17902
 C177 C 1.16418 0.15842 0.18975
 H178 H 1.20036 0.15382 0.16601
 H179 H 1.15801 0.18569 0.15500
 H180 H 1.15799 0.15376 0.20181
 C181 C 0.67667 1.06187 0.55240
 C182 C 0.68480 1.05398 0.56687
 C183 C 0.69798 1.06225 0.57566
 C184 C 0.70326 1.07836 0.56971
 C185 C 0.69533 1.08666 0.55549
 C186 C 0.68207 1.07819 0.54690
 H187 H 0.68127 1.04136 0.57119
 H188 H 0.71346 1.08464 0.57657
 H189 H 0.67560 1.08418 0.53598
 C190 C 0.57863 0.57382 0.14835
 C191 C 0.59466 0.56787 0.15228
 C192 C 0.60272 0.57265 0.16800
 C193 C 0.59494 0.58441 0.17951
 C194 C 0.57920 0.59132 0.17536
 C195 C 0.57092 0.58559 0.15989
 H196 H 0.60065 0.55885 0.14336
 H197 H 0.60132 0.58855 0.19144
 H198 H 0.55860 0.59025 0.15675
 C199 C 0.67512 0.70269 0.20153
 C200 C 0.68145 0.70769 0.18481
 C201 C 0.69375 0.69812 0.17601
 C202 C 0.69979 0.68324 0.18423
 C203 C 0.69363 0.67817 0.20120
 C204 C 0.68161 0.68819 0.20988
 H205 H 0.67639 0.71889 0.17834
 H206 H 0.70908 0.67561 0.17745
 H207 H 0.67708 0.68438 0.22302
 C208 C 0.15368 0.06973 1.07036
 C209 C 0.16300 0.08375 1.06377
 C210 C 0.17776 0.08923 1.07225
 C211 C 0.18299 0.08063 1.08773
 C212 C 0.17372 0.06684 1.09473
 C213 C 0.15907 0.06165 1.08615
 H214 H 0.15853 0.09041 1.05210
 H215 H 0.19411 0.08496 1.09454
 H216 H 0.15201 0.05134 1.09220
 C217 C 0.57107 0.19223 0.53614
 C218 C 0.56112 0.20104 0.54868
 C219 C 0.54518 0.19480 0.55379
 C220 C 0.53932 0.17969 0.54618
 C221 C 0.54937 0.17033 0.53446
 C222 C 0.56517 0.17669 0.52934
 H223 H 0.56606 0.21227 0.55493
 H224 H 0.52720 0.17459 0.55025
 H225 H 0.57287 0.16958 0.52001
 C226 C 0.10225 0.58315 0.66726
 C227 C 0.09590 0.57326 0.65330
 C228 C 0.08103 0.57778 0.64488
 C229 C 0.07284 0.59284 0.64984
 C230 C 0.07929 0.60317 0.66342
 C231 C 0.09426 0.59838 0.67181
 H232 H 0.10218 0.56168 0.64929
 H233 H 0.06130 0.59639 0.64335
 H234 H 0.09966 0.60618 0.68216
 C235 C 0.65263 0.55333 0.06192
 C236 C 0.65937 0.56758 0.05281
 C237 C 0.67559 0.57345 0.05655
 C238 C 0.68520 0.56466 0.06916
 C239 C 0.67839 0.55094 0.07892
 C240 C 0.66216 0.54530 0.07511
 H241 H 0.65195 0.57439 0.04313
 H242 H 0.69815 0.56817 0.07104
 H243 H 0.65693 0.53455 0.08244
 C244 C 0.06623 0.67627 0.59277
 C245 C 0.05931 0.66161 0.58504
 C246 C 0.06606 0.65477 0.56921
 C247 C 0.08014 0.66264 0.56135
 C248 C 0.08752 0.67715 0.56893
 C249 C 0.08046 0.68391 0.58472
 H250 H 0.04881 0.65544 0.59168
 H251 H 0.08550 0.65730 0.54924
 H252 H 0.08613 0.69478 0.59098
 C253 C 0.56616 1.06650 0.66618
 C254 C 0.58018 1.05787 0.67302
 C255 C 0.58886 1.06404 0.68790
 C256 C 0.58365 1.07932 0.69587
 C257 C 0.57004 1.08844 0.68909
 C258 C 0.56131 1.08188 0.67433
 H259 H 0.58478 1.04642 0.66678
 H260 H 0.59047 1.08457 0.70699
 H261 H 0.55044 1.08849 0.66937
 C262 C 0.43080 0.34026 0.92647
 C263 C 0.43595 0.33248 0.91036
 C264 C 0.42787 0.31774 0.90394
 C265 C 0.41423 0.31096 0.91369
 C266 C 0.40883 0.31842 0.92982
 C267 C 0.41714 0.33301 0.93600
 H268 H 0.44605 0.33824 0.90269
 H269 H 0.40774 0.30000 0.90841
 H270 H 0.41247 0.33871 0.94816
 C271 C 0.93368 0.43540 0.33833
 C272 C 0.91862 0.44238 0.33203
 C273 C 0.91040 0.43487 0.31754
 C274 C 0.91729 0.42059 0.30930
 C275 C 0.93264 0.41401 0.31478
 C276 C 0.94077 0.42143 0.32940
 H277 H 0.91320 0.45343 0.33837
 H278 H 0.91083 0.41484 0.29814
 H279 H 0.95231 0.41610 0.33433
 C280 C 0.31884 0.93768 0.42609
 C281 C 0.30957 0.92572 0.43611
 C282 C 0.31687 0.91628 0.44975
 C283 C 0.33359 0.91942 0.45424
 C284 C 0.34311 0.93188 0.44505
 C285 C 0.33573 0.94078 0.43068
 H286 H 0.29661 0.92310 0.43278
 H287 H 0.33915 0.91233 0.46510
 H288 H 0.34318 0.94969 0.42298
 O289 O 0.23701 0.46984 0.79598
 O290 O 0.20871 0.47002 0.78518
 O291 O 0.26491 0.45241 0.75063
 O292 O 0.26685 0.46001 0.72127
 O293 O 0.28226 0.49555 0.77916
 O294 O 0.27418 0.52479 0.78044
 O295 O 0.22399 0.50278 0.70263
 O296 O 0.22955 0.47266 0.70379
 O297 O 0.19666 0.51626 0.74560
 O298 O 0.19799 0.51020 0.77873
 O299 O 0.23916 0.54302 0.73364
 O300 O 0.26996 0.53800 0.73863
 O301 O 0.24338 0.52351 0.70741
 O302 O 0.27272 0.52294 0.71702
 O303 O 0.21682 0.53922 0.75241
 O304 O 0.21444 0.52922 0.78369
 O305 O 0.19994 0.49746 0.72280
 O306 O 0.20760 0.46738 0.72174
 O307 O 0.25564 0.49130 0.80086
 O308 O 0.25357 0.52147 0.79747
 O309 O 0.28618 0.47748 0.75580
 O310 O 0.28358 0.48290 0.72407
 O311 O 0.24186 0.44884 0.76851
 O312 O 0.21271 0.45336 0.76387
 Zr313 Zr 0.23039 0.47282 0.76892
 O314 O 0.21542 0.48853 0.75288
 Zr315 Zr 0.26338 0.47796 0.74198
 O316 O 0.24984 0.49402 0.72463
 Zr317 Zr 0.25755 0.50420 0.77626
 O318 O 0.24378 0.52133 0.76063
 Zr319 Zr 0.22422 0.48802 0.72628
 O320 O 0.23797 0.47051 0.74192
 Zr321 Zr 0.21847 0.51389 0.76085
 O322 O 0.23193 0.49798 0.77831
 Zr323 Zr 0.25141 0.51929 0.73373
 O324 O 0.26661 0.50351 0.74976
 O325 O 0.25574 0.47892 0.76860
 O326 O 0.22602 0.51332 0.73414
 C327 C 0.24692 0.47836 0.80605
 C328 C 0.25530 0.44341 0.76094
 C329 C 0.29121 0.48526 0.76985
 C330 C 0.23221 0.51621 0.69786
 C331 C 0.19175 0.50896 0.73124
 C332 C 0.22582 0.54823 0.74167
 H333 H 0.20361 0.48482 0.75388
 H334 H 0.24536 0.53297 0.76529
 H335 H 0.26235 0.47138 0.77642
 H336 H 0.25401 0.49291 0.71220
 H337 H 0.23469 0.46209 0.70839
 H338 H 0.26254 0.46511 0.71012
 H339 H 0.22401 0.53720 0.78456
 H340 H 0.24190 0.51968 0.80170
 H341 H 0.19942 0.46689 0.73175
 H342 H 0.21499 0.44934 0.75155
 H343 H 0.26630 0.54467 0.74915
 H344 H 0.28100 0.52599 0.76936
 H345 H 0.20758 0.48073 0.79200
 H346 H 0.19090 0.50092 0.77402
 H347 H 0.28830 0.49413 0.72733
 H348 H 0.27309 0.51343 0.70840
 O349 O 0.21752 0.03295 0.25874
 O350 O 0.22791 0.03393 0.28862
 O351 O 0.26073 0.04703 0.22733
 O352 O 0.28714 0.03782 0.22381
 O353 O 0.23036 0.00463 0.21228
 O354 O 0.22893 -0.02471 0.22295
 O355 O 0.30455 0.00003 0.27151
 O356 O 0.30288 0.02915 0.26457
 O357 O 0.26420 -0.01185 0.30462
 O358 O 0.23263 -0.00540 0.30252
 O359 O 0.27355 -0.04217 0.26090
 O360 O 0.26776 -0.03965 0.22841
 O361 O 0.29809 -0.02381 0.25400
 O362 O 0.28765 -0.02425 0.22250
 O363 O 0.25658 -0.03679 0.28480
 O364 O 0.22850 -0.02674 0.28817
 O365 O 0.28638 0.00548 0.29820
 O366 O 0.28731 0.03502 0.28840
 O367 O 0.21143 0.01102 0.24007
 O368 O 0.21321 -0.01933 0.24550
 O369 O 0.25344 0.02089 0.20623
 O370 O 0.28295 0.01421 0.20859
 O371 O 0.24396 0.05238 0.25147
 O372 O 0.24877 0.04935 0.28309
 Zr373 Zr 0.24274 0.02923 0.26558
 O374 O 0.25760 0.01411 0.28231
 Zr375 Zr 0.26697 0.02118 0.23012
 O376 O 0.28290 0.00566 0.24533
 Zr377 Zr 0.23376 -0.00328 0.23911
 O378 O 0.24827 -0.01999 0.25480
 Zr379 Zr 0.28216 0.01368 0.27201
 O380 O 0.26779 0.03048 0.25648
 Zr381 Zr 0.24939 -0.01127 0.28131
 O382 O 0.23305 0.00425 0.26615
 Zr383 Zr 0.27334 -0.01935 0.24591
 O384 O 0.25842 -0.00418 0.22885
 O385 O 0.24225 0.02170 0.23902
 O386 O 0.27420 -0.01164 0.27246
 C387 C 0.20756 0.02475 0.24846
 C388 C 0.25151 0.05687 0.23691
 C389 C 0.23949 0.01402 0.20184
 C390 C 0.30909 -0.01498 0.26430
 C391 C 0.27817 -0.00459 0.30859
 C392 C 0.26637 -0.04648 0.27574
 H393 H 0.25709 0.01857 0.29463
 H394 H 0.24349 -0.03160 0.25424
 H395 H 0.23526 0.02926 0.23162
 H396 H 0.29443 0.00618 0.24041
 H397 H 0.29835 0.03938 0.25859
 H398 H 0.29733 0.03309 0.22930
 H399 H 0.22535 -0.03310 0.27733
 H400 H 0.20947 -0.01620 0.25772
 H401 H 0.27836 0.03591 0.29758
 H402 H 0.26023 0.05317 0.27978
 H403 H 0.25713 -0.04496 0.23253
 H404 H 0.23897 -0.02625 0.21526
 H405 H 0.22113 0.02353 0.29077
 H406 H 0.23784 0.00359 0.30986
 H407 H 0.27897 0.00304 0.20423
 H408 H 0.29693 -0.01587 0.22192
 O409 O 0.45466 0.75466 0.25984
 O410 O 0.45656 0.72426 0.25816
 O411 O 0.49701 0.76718 0.29211
 O412 O 0.52451 0.76598 0.29087
 O413 O 0.48677 0.79534 0.24266
 O414 O 0.49120 0.78943 0.21197
 O415 O 0.54183 0.72028 0.25041
 O416 O 0.53141 0.72116 0.27939
 O417 O 0.50029 0.70382 0.21948
 O418 O 0.47262 0.71327 0.21502
 O419 O 0.53039 0.74483 0.20181
 O420 O 0.53286 0.77403 0.20833
 O421 O 0.54797 0.74095 0.22992
 O422 O 0.54477 0.77333 0.23194
 O423 O 0.50867 0.72650 0.19756
 O424 O 0.47682 0.73401 0.19887
 O425 O 0.51873 0.70116 0.24223
 O426 O 0.50872 0.70532 0.27509
 O427 O 0.46052 0.77511 0.23899
 O428 O 0.47133 0.77234 0.20826
 O429 O 0.50219 0.79212 0.26787
 O430 O 0.53196 0.78132 0.26908
 O431 O 0.47337 0.75150 0.28770
 O432 O 0.47266 0.72083 0.28041
 Zr433 Zr 0.47711 0.74086 0.26197
 O434 O 0.49165 0.72291 0.24773
 Zr435 Zr 0.50981 0.76648 0.26756
 O436 O 0.52589 0.74935 0.25460
 Zr437 Zr 0.48579 0.77083 0.23174
 O438 O 0.50142 0.75463 0.21677
 Zr439 Zr 0.51650 0.72431 0.25644
 O440 O 0.50170 0.74119 0.27195
 Zr441 Zr 0.49315 0.72946 0.22046
 O442 O 0.47641 0.74585 0.23422
 Zr443 Zr 0.52579 0.75505 0.22715
 O444 O 0.51074 0.77324 0.24033
 O445 O 0.48521 0.76584 0.25904
 O446 O 0.51778 0.72988 0.22924
 C447 C 0.45068 0.76771 0.25036
 C448 C 0.48272 0.76130 0.29715
 C449 C 0.49344 0.80103 0.25698
 C450 C 0.55189 0.72807 0.23964
 C451 C 0.51128 0.69550 0.22827
 C452 C 0.52263 0.73353 0.19277
 H453 H 0.48685 0.71139 0.24942
 H454 H 0.50130 0.75805 0.20404
 H455 H 0.47808 0.77388 0.26579
 H456 H 0.53714 0.75031 0.25989
 H457 H 0.52573 0.72735 0.28922
 H458 H 0.53114 0.75541 0.29035
 H459 H 0.48274 0.74142 0.19011
 H460 H 0.46354 0.76250 0.20854
 H461 H 0.50185 0.69677 0.26881
 H462 H 0.48241 0.72059 0.28847
 H463 H 0.52305 0.77622 0.20073
 H464 H 0.50288 0.79320 0.21398
 H465 H 0.45300 0.72588 0.24563
 H466 H 0.46868 0.70852 0.22660
 H467 H 0.53175 0.78958 0.25905
 H468 H 0.55125 0.76944 0.24238
 O469 O -0.01951 0.78969 0.76918
 O470 O -0.01687 0.78787 0.73721
 O471 O -0.03975 0.73987 0.78229
 O472 O -0.03209 0.71286 0.77815
 O473 O 0.00101 0.76095 0.81252
 O474 O 0.03071 0.76356 0.80677
 O475 O 0.01256 0.70674 0.73264
 O476 O -0.01780 0.70847 0.73563
 O477 O 0.02934 0.75396 0.71655
 O478 O 0.02361 0.78363 0.72678
 O479 O 0.05142 0.73038 0.75910
 O480 O 0.04400 0.72686 0.79165
 O481 O 0.03142 0.70570 0.75518
 O482 O 0.02862 0.70687 0.78782
 O483 O 0.05024 0.75396 0.74142
 O484 O 0.04043 0.78349 0.74684
 O485 O 0.01161 0.73154 0.71297
 O486 O -0.01705 0.73147 0.71550
 O487 O -0.00015 0.78836 0.79124
 O488 O 0.02932 0.78517 0.79060
 O489 O -0.01729 0.73907 0.80834
 O490 O -0.01154 0.71055 0.79697
 O491 O -0.04087 0.76378 0.76510
 O492 O -0.03345 0.76830 0.73352
 Zr493 Zr -0.01631 0.76679 0.75484
 O494 O 0.00041 0.75585 0.73614
 Zr495 Zr -0.01443 0.73276 0.78119
 O496 O 0.00251 0.72044 0.76382
 Zr497 Zr 0.01197 0.76509 0.78709
 O498 O 0.02997 0.75441 0.76980
 Zr499 Zr -0.00092 0.72921 0.73761
 O500 O -0.01942 0.74008 0.75459
 Zr501 Zr 0.02515 0.76171 0.74324
 O502 O 0.00836 0.77421 0.76088
 Zr503 Zr 0.02712 0.72783 0.77005
 O504 O 0.01027 0.73845 0.78889
 O505 O -0.01273 0.75917 0.78114
 O506 O 0.02376 0.73527 0.74362
 C507 C -0.01192 0.79587 0.78282
 C508 C -0.04765 0.75239 0.77530
 C509 C -0.01010 0.75022 0.81815
 C510 C 0.02484 0.69986 0.74089
 C511 C 0.02324 0.74165 0.70738
 C512 C 0.05803 0.74132 0.74828
 H513 H -0.00225 0.75981 0.72393
 H514 H 0.04125 0.75800 0.77361
 H515 H -0.02078 0.76454 0.78950
 H516 H 0.00088 0.70798 0.76460
 H517 H -0.02887 0.71261 0.73975
 H518 H -0.02746 0.70492 0.76917
 H519 H 0.04756 0.78139 0.75734
 H520 H 0.02907 0.79211 0.77952
 H521 H -0.02759 0.73637 0.72012
 H522 H -0.04029 0.75776 0.73380
 H523 H 0.05081 0.73741 0.79137
 H524 H 0.03083 0.75160 0.81099
 H525 H -0.00615 0.79404 0.73872
 H526 H 0.01450 0.78177 0.71814
 H527 H -0.00140 0.71227 0.80426
 H528 H 0.01913 0.69914 0.78527
 O529 O -0.00268 0.04914 0.01918
 O530 O -0.03191 0.04633 0.01413
 O531 O 0.00647 0.00921 0.05696
 O532 O 0.00209 -0.01906 0.05838
 O533 O 0.03957 0.01678 0.01277
 O534 O 0.03855 0.00926 -0.01823
 O535 O -0.03534 -0.04000 0.01109
 O536 O -0.03720 -0.02893 0.04006
 O537 O -0.04603 0.00023 -0.02387
 O538 O -0.03528 0.02909 -0.02818
 O539 O -0.00416 -0.03046 -0.03330
 O540 O 0.02392 -0.03196 -0.02134
 O541 O -0.01234 -0.04707 -0.00541
 O542 O 0.01843 -0.04429 0.00168
 O543 O -0.02063 -0.00843 -0.04178
 O544 O -0.01427 0.02320 -0.04184
 O545 O -0.05304 -0.01531 0.00086
 O546 O -0.05254 -0.00688 0.03281
 O547 O 0.02092 0.04211 0.00353
 O548 O 0.02287 0.02969 -0.02633
 O549 O 0.03298 0.00113 0.03758
 O550 O 0.02187 -0.02826 0.04004
 O551 O -0.00968 0.03162 0.04865
 O552 O -0.03805 0.03161 0.03682
 Zr553 Zr -0.01609 0.02620 0.02190
 O554 O -0.03152 0.01054 0.00629
 Zr555 Zr 0.00776 -0.00624 0.03411
 O556 O -0.00707 -0.02349 0.01956
 Zr557 Zr 0.01757 0.01615 -0.00241
 O558 O 0.00370 -0.00041 -0.01871
 Zr559 Zr -0.03157 -0.01420 0.01701
 O560 O -0.01740 0.00190 0.03384
 Zr561 Zr -0.02120 0.00792 -0.01953
 O562 O -0.00695 0.02558 -0.00466
 Zr563 Zr 0.00224 -0.02468 -0.00681
 O564 O 0.01816 -0.00869 0.00825
 O565 O 0.00856 0.01820 0.02360
 O566 O -0.02247 -0.01668 -0.00908
 C567 C 0.01165 0.05269 0.01212
 C568 C -0.00059 0.02361 0.05999
 C569 C 0.04313 0.01023 0.02803
 C570 C -0.02652 -0.05059 0.00206
 C571 C -0.05627 -0.00892 -0.01458
 C572 C -0.01345 -0.02278 -0.04462
 H573 H -0.04287 0.01543 0.00590
 H574 H 0.00889 -0.00082 -0.03075
 H575 H 0.01547 0.02598 0.03083
 H576 H -0.00710 -0.03473 0.02554
 H577 H -0.03251 -0.02272 0.05037
 H578 H -0.00557 -0.02858 0.05554
 H579 H -0.00433 0.01803 -0.04760
 H580 H 0.01313 0.03712 -0.02853
 H581 H -0.05765 0.00325 0.02727
 H582 H -0.03965 0.02209 0.04540
 H583 H 0.02650 -0.02282 -0.03009
 H584 H 0.04193 -0.00220 -0.01411
 H585 H -0.02914 0.04885 0.00145
 H586 H -0.04374 0.03156 -0.01879
 H587 H 0.03034 -0.02948 0.03037
 H588 H 0.01336 -0.04971 0.01242
 O589 O 0.02679 0.51614 0.51665
 O590 O 0.01774 0.51637 0.48566
 O591 O -0.01461 0.53712 0.54469
 O592 O -0.04212 0.53163 0.54786
 O593 O 0.00921 0.49170 0.56278
 O594 O 0.00613 0.46189 0.55441
 O595 O -0.06366 0.49300 0.50221
 O596 O -0.05798 0.52301 0.50705
 O597 O -0.02381 0.47579 0.47061
 O598 O 0.00679 0.47713 0.47286
 O599 O -0.03879 0.44892 0.51635
 O600 O -0.03341 0.45253 0.54908
 O601 O -0.06108 0.47100 0.52183
 O602 O -0.05159 0.46978 0.55283
 O603 O -0.02145 0.45113 0.49210
 O604 O 0.00937 0.45776 0.49053
 O605 O -0.04424 0.49535 0.47537
 O606 O -0.04169 0.52335 0.48126
 O607 O 0.02930 0.49311 0.53500
 O608 O 0.02288 0.46355 0.53235
 O609 O -0.01137 0.51121 0.56740
 O610 O -0.04183 0.50869 0.56439
 O611 O 0.00388 0.53889 0.52135
 O612 O -0.00042 0.53495 0.48900
 Zr613 Zr 0.00163 0.51530 0.50828
 O614 O -0.01497 0.50150 0.49205
 Zr615 Zr -0.02438 0.51222 0.54313
 O616 O -0.04199 0.49816 0.52847
 Zr617 Zr 0.00499 0.48287 0.53666
 O618 O -0.01124 0.46758 0.52157
 Zr619 Zr -0.03972 0.50437 0.50125
 O620 O -0.02339 0.52018 0.51612
 Zr621 Zr -0.01030 0.47532 0.49463
 O622 O 0.00764 0.48924 0.50937
 Zr623 Zr -0.03602 0.47216 0.52984
 O624 O -0.01960 0.48606 0.54638
 O625 O 0.00031 0.50879 0.53512
 O626 O -0.03515 0.47836 0.50273
 C627 C 0.03520 0.50640 0.52708
 C628 C -0.00348 0.54506 0.53524
 C629 C 0.00159 0.50288 0.57233
 C630 C -0.06952 0.48008 0.51091
 C631 C -0.03672 0.48424 0.46571
 C632 C -0.03234 0.44316 0.50180
 H633 H -0.01381 0.50552 0.47954
 H634 H -0.00816 0.45550 0.52301
 H635 H 0.00817 0.51563 0.54230
 H636 H -0.05340 0.50050 0.53305
 H637 H -0.05188 0.53331 0.51100
 H638 H -0.05230 0.52863 0.54115
 H639 H 0.00849 0.44893 0.49996
 H640 H 0.02669 0.46473 0.51976
 H641 H -0.03414 0.53270 0.48480
 H642 H -0.00939 0.54268 0.49315
 H643 H -0.02395 0.44528 0.54529
 H644 H -0.00390 0.46255 0.56227
 H645 H 0.02367 0.50535 0.48519
 H646 H 0.00523 0.48837 0.46713
 H647 H -0.03936 0.49753 0.56992
 H648 H -0.05857 0.48012 0.55358
 O649 O 0.56399 0.00587 0.49951
 O650 O 0.56016 0.00458 0.46751
 O651 O 0.52133 0.03466 0.51642
 O652 O 0.49333 0.03202 0.51581
 O653 O 0.53541 -0.01191 0.54421
 O654 O 0.53104 -0.04158 0.53749
 O655 O 0.47565 -0.00716 0.46867
 O656 O 0.48364 0.02138 0.47241
 O657 O 0.51757 -0.03248 0.44821
 O658 O 0.54806 -0.03352 0.45750
 O659 O 0.49147 -0.05269 0.49062
 O660 O 0.49228 -0.04716 0.52444
 O661 O 0.47191 -0.02850 0.49041
 O662 O 0.47552 -0.02763 0.52277
 O663 O 0.51392 -0.05516 0.47185
 O664 O 0.54380 -0.05252 0.47517
 O665 O 0.49924 -0.01047 0.44705
 O666 O 0.50472 0.02019 0.45301
 O667 O 0.56044 -0.01453 0.52094
 O668 O 0.55111 -0.04366 0.51914
 O669 O 0.51846 0.01121 0.54250
 O670 O 0.48874 0.01065 0.53423
 O671 O 0.54326 0.03188 0.49693
 O672 O 0.54412 0.02541 0.46602
 Zr673 Zr 0.54072 0.00727 0.48672
 O674 O 0.52576 -0.00598 0.46849
 Zr675 Zr 0.50932 0.01064 0.51611
 O676 O 0.49290 -0.00270 0.49908
 Zr677 Zr 0.53527 -0.02222 0.51823
 O678 O 0.52012 -0.03701 0.50128
 Zr679 Zr 0.50054 0.00076 0.47239
 O680 O 0.51578 0.01569 0.48917
 Zr681 Zr 0.52672 -0.03203 0.47448
 O682 O 0.54330 -0.01896 0.49151
 Zr683 Zr 0.49510 -0.02907 0.50353
 O684 O 0.51000 -0.01557 0.52215
 O685 O 0.53429 0.00382 0.51348
 O686 O 0.50153 -0.02538 0.47680
 C687 C 0.56930 -0.00331 0.51253
 C688 C 0.53438 0.04042 0.50805
 C689 C 0.52840 0.00129 0.55101
 C690 C 0.46587 -0.01926 0.47651
 C691 C 0.50671 -0.02333 0.44016
 C692 C 0.50010 -0.06060 0.47865
 H693 H 0.52974 -0.00356 0.45619
 H694 H 0.52133 -0.04919 0.50430
 H695 H 0.54160 0.01054 0.52141
 H696 H 0.48127 0.00122 0.50090
 H697 H 0.48926 0.03089 0.47865
 H698 H 0.48368 0.02918 0.50818
 H699 H 0.54191 -0.05873 0.48655
 H700 H 0.55763 -0.04361 0.50780
 H701 H 0.51423 0.01685 0.44524
 H702 H 0.53343 0.03164 0.46509
 H703 H 0.50001 -0.05668 0.52200
 H704 H 0.51954 -0.03991 0.54222
 H705 H 0.56472 -0.00702 0.46906
 H706 H 0.54742 -0.02419 0.44861
 H707 H 0.48913 -0.00020 0.54100
 H708 H 0.47044 -0.01623 0.52173
 O709 O 0.43960 0.50775 -0.02410
 O710 O 0.44804 0.53661 -0.02700
 O711 O 0.48140 0.48193 -0.04905
 O712 O 0.50906 0.47992 -0.04486
 O713 O 0.46045 0.46340 0.00051
 O714 O 0.46359 0.47227 0.03106
 O715 O 0.53013 0.52617 -0.00761
 O716 O 0.52379 0.52072 -0.03781
 O717 O 0.49124 0.55284 0.01465
 O718 O 0.45927 0.54935 0.01330
 O719 O 0.50842 0.51239 0.04112
 O720 O 0.50478 0.48107 0.03899
 O721 O 0.52956 0.50851 0.01660
 O722 O 0.52136 0.47746 0.01859
 O723 O 0.48870 0.53311 0.04015
 O724 O 0.45859 0.53356 0.03488
 O725 O 0.50979 0.54998 -0.00845
 O726 O 0.50563 0.54167 -0.03995
 O727 O 0.43879 0.48902 -0.00077
 O728 O 0.44642 0.49248 0.03017
 O729 O 0.47956 0.46033 -0.02201
 O730 O 0.51003 0.46474 -0.02012
 O731 O 0.46223 0.50324 -0.05032
 O732 O 0.46595 0.53343 -0.04717
 Zr733 Zr 0.46467 0.51582 -0.02573
 O734 O 0.48091 0.53260 -0.01254
 Zr735 Zr 0.49190 0.48402 -0.02355
 O736 O 0.50952 0.49952 -0.01046
 Zr737 Zr 0.46356 0.48891 0.00878
 O738 O 0.47993 0.50451 0.02355
 Zr739 Zr 0.50571 0.52508 -0.01747
 O740 O 0.48954 0.50941 -0.03237
 Zr741 Zr 0.47746 0.52993 0.01519
 O742 O 0.45968 0.51462 0.00196
 Zr743 Zr 0.50496 0.49849 0.01732
 O744 O 0.48849 0.48135 0.00428
 O745 O 0.46704 0.49034 -0.01872
 O746 O 0.50241 0.52389 0.01018
 C747 C 0.43189 0.49734 -0.01356
 C748 C 0.46993 0.49040 -0.05700
 C749 C 0.46768 0.45467 -0.01186
 C750 C 0.53695 0.51915 0.00598
 C751 C 0.50345 0.55817 0.00474
 C752 C 0.50096 0.52551 0.04759
 H753 H 0.47885 0.54440 -0.01650
 H754 H 0.47744 0.50317 0.03645
 H755 H 0.45906 0.48307 -0.02529
 H756 H 0.52100 0.49589 -0.01362
 H757 H 0.51803 0.51450 -0.04747
 H758 H 0.51941 0.48633 -0.04217
 H759 H 0.45888 0.52370 0.04314
 H760 H 0.44150 0.50390 0.02847
 H761 H 0.49664 0.55012 -0.03823
 H762 H 0.47678 0.53149 -0.05338
 H763 H 0.49491 0.48362 0.04661
 H764 H 0.47454 0.46641 0.03079
 H765 H 0.44379 0.53839 -0.01467
 H766 H 0.46278 0.55729 0.00364
 H767 H 0.50794 0.45956 -0.00820
 H768 H 0.52873 0.47788 0.00787
 O769 O 0.78175 0.25489 0.46907
 O770 O 0.77032 0.22725 0.46729
 O771 O 0.74125 0.28611 0.45092
 O772 O 0.71523 0.29182 0.45871
 O773 O 0.76892 0.29986 0.49827
 O774 O 0.76846 0.29020 0.52823
 O775 O 0.69234 0.24537 0.49849
 O776 O 0.69566 0.25100 0.46791
 O777 O 0.73075 0.21370 0.51371
 O778 O 0.76104 0.21409 0.51125
 O779 O 0.72041 0.25755 0.54407
 O780 O 0.72567 0.28733 0.54090
 O781 O 0.69687 0.26275 0.52218
 O782 O 0.70871 0.29319 0.52208
 O783 O 0.73515 0.23319 0.53993
 O784 O 0.76594 0.23065 0.53111
 O785 O 0.71007 0.21948 0.49398
 O786 O 0.71187 0.22902 0.46227
 O787 O 0.78714 0.27212 0.49272
 O788 O 0.78196 0.26766 0.52473
 O789 O 0.74805 0.30652 0.47904
 O790 O 0.71707 0.30471 0.48391
 O791 O 0.75739 0.26265 0.44668
 O792 O 0.75038 0.23261 0.45027
 Zr793 Zr 0.75606 0.24952 0.47130
 O794 O 0.73962 0.23429 0.48672
 Zr795 Zr 0.73319 0.28421 0.47766
 O796 O 0.71515 0.27023 0.49250
 Zr797 Zr 0.76369 0.27463 0.50586
 O798 O 0.74681 0.26111 0.52257
 Zr799 Zr 0.71546 0.24446 0.48514
 O800 O 0.73163 0.25892 0.46831
 Zr801 Zr 0.74562 0.23577 0.51398
 O802 O 0.76372 0.24893 0.49819
 Zr803 Zr 0.72227 0.27024 0.51944
 O804 O 0.73962 0.28550 0.50481
 O805 O 0.75743 0.27486 0.47898
 O806 O 0.72120 0.24470 0.51225
 C807 C 0.79164 0.26387 0.47864
 C808 C 0.75067 0.27656 0.44127
 C809 C 0.76130 0.31022 0.48791
 C810 C 0.68752 0.25292 0.51281
 C811 C 0.71743 0.20971 0.50521
 C812 C 0.72583 0.24309 0.54934
 H813 H 0.74011 0.22246 0.48234
 H814 H 0.75053 0.26201 0.53510
 H815 H 0.76541 0.28156 0.47153
 H816 H 0.70390 0.27513 0.49080
 H817 H 0.70075 0.25733 0.45773
 H818 H 0.70495 0.28514 0.46123
 H819 H 0.76561 0.23898 0.54098
 H820 H 0.78559 0.25601 0.52163
 H821 H 0.71995 0.21954 0.46267
 H822 H 0.73979 0.23660 0.44497
 H823 H 0.73678 0.28500 0.54603
 H824 H 0.75850 0.29752 0.52979
 H825 H 0.77575 0.22474 0.47883
 H826 H 0.75906 0.20925 0.49927
 H827 H 0.72121 0.30990 0.49507
 H828 H 0.69929 0.29286 0.51361
 O829 O 0.80404 0.72935 -0.03073
 O830 O 0.79770 0.69947 -0.02532
 O831 O 0.75931 0.74725 -0.05519
 O832 O 0.73150 0.74593 -0.04840
 O833 O 0.78096 0.77552 -0.01289
 O834 O 0.78125 0.77194 0.01931
 O835 O 0.71685 0.70833 0.00253
 O836 O 0.71997 0.70907 -0.03001
 O837 O 0.75982 0.68820 0.02264
 O838 O 0.79062 0.69379 0.01706
 O839 O 0.74159 0.73276 0.04287
 O840 O 0.74332 0.76368 0.03267
 O841 O 0.71797 0.73128 0.02091
 O842 O 0.72364 0.76139 0.01616
 O843 O 0.76237 0.71310 0.04359
 O844 O 0.79185 0.71329 0.03457
 O845 O 0.73853 0.68634 0.00282
 O846 O 0.73956 0.68704 -0.02760
 O847 O 0.80474 0.75190 -0.01177
 O848 O 0.80037 0.75386 0.01956
 O849 O 0.75968 0.77312 -0.03275
 O850 O 0.73056 0.76656 -0.02808
 O851 O 0.77933 0.72678 -0.05414
 O852 O 0.77949 0.69744 -0.04406
 Zr853 Zr 0.77971 0.71901 -0.02723
 O854 O 0.76556 0.70423 -0.00892
 Zr855 Zr 0.75011 0.74847 -0.02866
 O856 O 0.73488 0.73524 -0.00993
 Zr857 Zr 0.78104 0.75187 0.00059
 O858 O 0.76750 0.73833 0.02037
 Zr859 Zr 0.73988 0.70916 -0.01158
 O860 O 0.75383 0.72209 -0.03186
 Zr861 Zr 0.77118 0.71202 0.01714
 O862 O 0.78660 0.72573 -0.00112
 Zr863 Zr 0.74178 0.74186 0.01624
 O864 O 0.75541 0.75684 -0.00255
 O865 O 0.77569 0.74505 -0.02551
 O866 O 0.74554 0.71576 0.01458
 C867 C 0.81148 0.74210 -0.02347
 C868 C 0.77072 0.73797 -0.06247
 C869 C 0.77157 0.78143 -0.02531
 C870 C 0.71069 0.71800 0.01477
 C871 C 0.74713 0.68056 0.01587
 C872 C 0.75054 0.72160 0.05095
 H873 H 0.76787 0.69203 -0.01087
 H874 H 0.77098 0.74226 0.03230
 H875 H 0.78244 0.75165 -0.03432
 H876 H 0.72293 0.73754 -0.01219
 H877 H 0.72495 0.71156 -0.04193
 H878 H 0.72167 0.74032 -0.04271
 H879 H 0.79153 0.72449 0.04054
 H880 H 0.80569 0.74253 0.02019
 H881 H 0.74519 0.69010 -0.03900
 H882 H 0.76925 0.69808 -0.05135
 H883 H 0.75277 0.76209 0.04094
 H884 H 0.77022 0.77758 0.01853
 H885 H 0.80400 0.70157 -0.01422
 H886 H 0.78776 0.68489 0.00828
 H887 H 0.73206 0.77340 -0.01712
 H888 H 0.71641 0.75957 0.00568
 O889 O 0.98939 0.30847 0.24425
 O890 O 0.99155 0.30456 0.21205
 O891 O 0.96034 0.26626 0.26153
 O892 O 0.96187 0.23749 0.25901
 O893 O 1.00568 0.27950 0.28874
 O894 O 1.03489 0.27488 0.28222
 O895 O 1.00258 0.21872 0.21300
 O896 O 0.97394 0.22648 0.21649
 O897 O 1.02758 0.26127 0.19286
 O898 O 1.02925 0.29188 0.20214
 O899 O 1.04630 0.23469 0.23587
 O900 O 1.03970 0.23536 0.26941
 O901 O 1.02196 0.21501 0.23469
 O902 O 1.02047 0.21844 0.26717
 O903 O 1.04932 0.25712 0.21676
 O904 O 1.04703 0.28786 0.22043
 O905 O 1.00567 0.24273 0.19130
 O906 O 0.97561 0.24776 0.19707
 O907 O 1.00930 0.30484 0.26548
 O908 O 1.03767 0.29518 0.26402
 O909 O 0.98285 0.26216 0.28689
 O910 O 0.98237 0.23228 0.27831
 O911 O 0.96345 0.28748 0.24089
 O912 O 0.97075 0.28853 0.21024
 Zr913 Zr 0.98800 0.28488 0.23112
 O914 O 1.00125 0.26951 0.21301
 Zr915 Zr 0.98345 0.25318 0.26034
 O916 O 0.99675 0.23631 0.24345
 Zr917 Zr 1.01631 0.27923 0.26283
 O918 O 1.03099 0.26373 0.24602
 Zr919 Zr 0.99422 0.24389 0.21668
 O920 O 0.97927 0.25957 0.23333
 Zr921 Zr 1.02678 0.27043 0.21922
 O922 O 1.01375 0.28737 0.23614
 Zr923 Zr 1.02264 0.23840 0.24818
 O924 O 1.00913 0.25367 0.26665
 O925 O 0.99076 0.27844 0.25788
 O926 O 1.01984 0.24490 0.22140
 C927 C 0.99840 0.31381 0.25726
 C928 C 0.95493 0.27922 0.25272
 C929 C 0.99258 0.27225 0.29548
 C930 C 1.01364 0.20984 0.22112
 C931 C 1.01856 0.25035 0.18459
 C932 C 1.05446 0.24329 0.22392
 H933 H 0.99919 0.27353 0.20070
 H934 H 1.04291 0.26491 0.24919
 H935 H 0.98418 0.28592 0.26588
 H936 H 0.99263 0.22453 0.24522
 H937 H 0.96442 0.23216 0.22256
 H938 H 0.96494 0.22718 0.25220
 H939 H 1.05337 0.28534 0.23141
 H940 H 1.03814 0.30160 0.25261
 H941 H 0.97874 0.25789 0.18988
 H942 H 0.96458 0.27764 0.20899
 H943 H 1.04908 0.24345 0.26745
 H944 H 1.03283 0.26330 0.28706
 H945 H 1.00290 0.30927 0.21396
 H946 H 1.01974 0.29178 0.19379
 H947 H 0.99314 0.23211 0.28474
 H948 H 1.00926 0.21322 0.26585
 O949 O 0.75188 1.03780 0.72347
 O950 O 0.77872 1.02547 0.71888
 O951 O 0.71910 0.99593 0.70995
 O952 O 0.71453 0.96930 0.71960
 O953 O 0.70973 1.02606 0.75707
 O954 O 0.72147 1.02587 0.78645
 O955 O 0.76148 0.94781 0.75498
 O956 O 0.75350 0.95038 0.72481
 O957 O 0.79513 0.98728 0.76454
 O958 O 0.79455 1.01867 0.75980
 O959 O 0.75591 0.97811 0.80019
 O960 O 0.72564 0.98523 0.80054
 O961 O 0.74663 0.95377 0.78028
 O962 O 0.71829 0.96603 0.78464
 O963 O 0.77868 0.99421 0.79266
 O964 O 0.78152 1.02393 0.78209
 O965 O 0.78705 0.96513 0.74714
 O966 O 0.77560 0.96550 0.71672
 O967 O 0.73701 1.04402 0.74874
 O968 O 0.74297 1.04027 0.77999
 O969 O 0.70167 1.00431 0.73907
 O970 O 0.70265 0.97357 0.74579
 O971 O 0.74187 1.01221 0.70273
 O972 O 0.77113 1.00520 0.70284
 Zr973 Zr 0.75677 1.01164 0.72573
 O974 O 0.77272 0.99529 0.73978
 Zr975 Zr 0.72303 0.98880 0.73675
 O976 O 0.73761 0.97120 0.75111
 Zr977 Zr 0.73500 1.02075 0.76263
 O978 O 0.74992 1.00462 0.77830
 Zr979 Zr 0.76213 0.97078 0.74066
 O980 O 0.74699 0.98673 0.72478
 Zr981 Zr 0.77388 1.00283 0.76662
 O982 O 0.75955 1.02055 0.75207
 Zr983 Zr 0.74035 0.97966 0.77759
 O984 O 0.72413 0.99632 0.76371
 O985 O 0.73262 1.01341 0.73613
 O986 O 0.76462 0.97800 0.76730
 C987 C 0.74408 1.04816 0.73380
 C988 C 0.72775 1.00521 0.69902
 C989 C 0.69886 1.01826 0.74751
 C990 C 0.75498 0.94365 0.77018
 C991 C 0.79784 0.97308 0.75662
 C992 C 0.77039 0.98458 0.80349
 H993 H 0.78391 0.99540 0.73401
 H994 H 0.75038 1.00904 0.79064
 H995 H 0.72570 1.02134 0.72907
 H996 H 0.73238 0.95979 0.75057
 H997 H 0.74690 0.95546 0.71502
 H998 H 0.71999 0.95862 0.72332
 H999 H 0.77332 1.02531 0.79198
 H1000 H 0.75451 1.04335 0.77621
 H1001 H 0.78468 0.97402 0.71532
 H1002 H 0.76724 0.99381 0.69906
 H1003 H 0.73026 0.99565 0.80602
 H1004 H 0.71424 1.01582 0.78878
 H1005 H 0.78204 1.03171 0.72977
 H1006 H 0.79939 1.01454 0.74840
 H1007 H 0.69918 0.97798 0.75764
 H1008 H 0.71601 0.95782 0.77497
 O1009 O 0.75552 0.55492 0.22954
 O1010 O 0.78432 0.55140 0.23242
 O1011 O 0.74274 0.51120 0.19714
 O1012 O 0.74233 0.48323 0.19935
 O1013 O 0.71150 0.52464 0.24347
 O1014 O 0.71431 0.52213 0.27420
 O1015 O 0.78406 0.46590 0.24520
 O1016 O 0.78534 0.47412 0.21584
 O1017 O 0.79801 0.50811 0.27573
 O1018 O 0.79014 0.53676 0.27805
 O1019 O 0.75533 0.48038 0.29044
 O1020 O 0.72739 0.47798 0.28056
 O1021 O 0.76236 0.46108 0.26454
 O1022 O 0.73067 0.46458 0.25755
 O1023 O 0.77230 0.50298 0.29616
 O1024 O 0.76818 0.53505 0.29154
 O1025 O 0.80311 0.49047 0.25228
 O1026 O 0.80073 0.49700 0.21895
 O1027 O 0.73242 0.55082 0.24721
 O1028 O 0.73212 0.54097 0.27897
 O1029 O 0.71594 0.50820 0.21891
 O1030 O 0.72527 0.47720 0.22046
 O1031 O 0.75944 0.53424 0.20191
 O1032 O 0.78875 0.53373 0.21219
 Zr1033 Zr 0.76716 0.53119 0.22866
 O1034 O 0.78263 0.51658 0.24523
 Zr1035 Zr 0.74073 0.49910 0.22204
 O1036 O 0.75595 0.48258 0.23703
 Zr1037 Zr 0.73467 0.52529 0.25618
 O1038 O 0.74834 0.50921 0.27316
 Zr1039 Zr 0.78093 0.49114 0.23717
 O1040 O 0.76631 0.50592 0.21957
 Zr1041 Zr 0.77357 0.51661 0.27177
 O1042 O 0.75974 0.53360 0.25571
 Zr1043 Zr 0.74820 0.48389 0.26387
 O1044 O 0.73205 0.49955 0.24866
 O1045 O 0.74196 0.52447 0.22948
 O1046 O 0.77328 0.49120 0.26391
 C1047 C 0.74201 0.56008 0.23711
 C1048 C 0.75007 0.52497 0.19197
 C1049 C 0.70670 0.51772 0.22891
 C1050 C 0.77586 0.45651 0.25630
 C1051 C 0.80734 0.49788 0.26688
 C1052 C 0.76459 0.48920 0.30077
 H1053 H 0.79422 0.52100 0.24445
 H1054 H 0.74364 0.51009 0.28541
 H1055 H 0.73508 0.53186 0.22177
 H1056 H 0.75519 0.47090 0.23223
 H1057 H 0.77943 0.47879 0.20536
 H1058 H 0.75193 0.47559 0.20127
 H1059 H 0.75867 0.53076 0.29890
 H1060 H 0.74154 0.54922 0.27857
 H1061 H 0.80789 0.50589 0.22428
 H1062 H 0.78872 0.52395 0.20389
 H1063 H 0.72476 0.48833 0.28750
 H1064 H 0.71082 0.51006 0.27334
 H1065 H 0.78312 0.55486 0.24508
 H1066 H 0.79657 0.53959 0.26705
 H1067 H 0.71637 0.47839 0.22968
 H1068 H 0.73598 0.45684 0.24880
 O1069 O 0.50678 0.21574 0.71112
 O1070 O 0.47800 0.22171 0.71133
 O1071 O 0.52771 0.26034 0.68502
 O1072 O 0.52966 0.28785 0.68966
 O1073 O 0.55006 0.23955 0.73304
 O1074 O 0.54288 0.24159 0.76416
 O1075 O 0.48473 0.30621 0.73000
 O1076 O 0.48790 0.29978 0.69980
 O1077 O 0.46133 0.26445 0.75426
 O1078 O 0.46697 0.23306 0.75417
 O1079 O 0.50359 0.28484 0.77823
 O1080 O 0.53292 0.28463 0.77282
 O1081 O 0.50278 0.30670 0.75334
 O1082 O 0.53461 0.30042 0.75132
 O1083 O 0.48249 0.26531 0.77849
 O1084 O 0.48431 0.23390 0.77374
 O1085 O 0.46213 0.28383 0.73158
 O1086 O 0.46861 0.27987 0.69949
 O1087 O 0.52658 0.21595 0.73278
 O1088 O 0.52340 0.22318 0.76438
 O1089 O 0.55094 0.25947 0.71087
 O1090 O 0.54454 0.29031 0.71325
 O1091 O 0.50766 0.23962 0.68514
 O1092 O 0.47787 0.24058 0.69180
 Zr1093 Zr 0.49704 0.24049 0.71108
 O1094 O 0.48058 0.25579 0.72605
 Zr1095 Zr 0.52690 0.27022 0.71097
 O1096 O 0.51147 0.28710 0.72524
 Zr1097 Zr 0.52539 0.24097 0.74316
 O1098 O 0.51042 0.25692 0.75939
 Zr1099 Zr 0.48622 0.28138 0.72049
 O1100 O 0.50163 0.26610 0.70421
 Zr1101 Zr 0.48504 0.25289 0.75356
 O1102 O 0.49994 0.23562 0.73861
 Zr1103 Zr 0.51460 0.28266 0.75272
 O1104 O 0.53139 0.26677 0.73839
 O1105 O 0.52231 0.24456 0.71586
 O1106 O 0.48930 0.27852 0.74800
 C1107 C 0.51823 0.20856 0.72035
 C1108 C 0.51921 0.24858 0.67742
 C1109 C 0.55764 0.24780 0.72041
 C1110 C 0.49166 0.31352 0.74329
 C1111 C 0.45484 0.27635 0.74481
 C1112 C 0.49093 0.27744 0.78565
 H1113 H 0.46890 0.25285 0.72309
 H1114 H 0.51282 0.25467 0.77211
 H1115 H 0.52952 0.23715 0.70841
 H1116 H 0.51421 0.29895 0.72178
 H1117 H 0.49395 0.29440 0.68969
 H1118 H 0.52172 0.29722 0.69196
 H1119 H 0.49400 0.23576 0.78163
 H1120 H 0.51237 0.21750 0.76319
 H1121 H 0.46075 0.27038 0.70208
 H1122 H 0.47895 0.25147 0.68516
 H1123 H 0.53349 0.27342 0.77884
 H1124 H 0.54859 0.25279 0.76336
 H1125 H 0.47705 0.21758 0.72382
 H1126 H 0.45968 0.23448 0.74367
 H1127 H 0.55105 0.28814 0.72422
 H1128 H 0.53178 0.30917 0.74232
 O1129 O 0.20306 0.73321 0.51441
 O1130 O 0.20415 0.73841 0.48303
 O1131 O 0.24605 0.70170 0.52230
 O1132 O 0.27337 0.70313 0.51876
 O1133 O 0.23624 0.74440 0.55757
 O1134 O 0.23971 0.77417 0.55501
 O1135 O 0.28873 0.74875 0.47532
 O1136 O 0.27971 0.72050 0.47416
 O1137 O 0.24684 0.77872 0.46453
 O1138 O 0.21901 0.78090 0.47608
 O1139 O 0.27695 0.79062 0.50878
 O1140 O 0.28069 0.77928 0.53822
 O1141 O 0.29463 0.76642 0.49845
 O1142 O 0.29410 0.75840 0.53179
 O1143 O 0.25492 0.79664 0.49086
 O1144 O 0.22339 0.79363 0.49931
 O1145 O 0.26400 0.75674 0.45730
 O1146 O 0.25660 0.72532 0.45899
 O1147 O 0.20917 0.75006 0.53816
 O1148 O 0.21930 0.77946 0.53875
 O1149 O 0.25264 0.72171 0.55070
 O1150 O 0.28156 0.72210 0.53719
 O1151 O 0.22224 0.70744 0.50697
 O1152 O 0.22056 0.71833 0.47599
 Zr1153 Zr 0.22522 0.73316 0.49894
 O1154 O 0.23891 0.74923 0.48132
 Zr1155 Zr 0.25876 0.72506 0.52335
 O1156 O 0.27409 0.73991 0.50625
 Zr1157 Zr 0.23418 0.75785 0.53345
 O1158 O 0.24900 0.77443 0.51768
 Zr1159 Zr 0.26393 0.74119 0.48046
 O1160 O 0.24994 0.72409 0.49685
 Zr1161 Zr 0.24010 0.77417 0.49138
 O1162 O 0.22415 0.75867 0.50757
 Zr1163 Zr 0.27356 0.76505 0.51556
 O1164 O 0.25935 0.74991 0.53360
 O1165 O 0.23397 0.73274 0.52498
 O1166 O 0.26483 0.76621 0.48947
 C1167 C 0.19924 0.74037 0.52932
 C1168 C 0.23181 0.69744 0.51589
 C1169 C 0.24400 0.73070 0.56173
 C1170 C 0.29828 0.75922 0.48352
 C1171 C 0.25667 0.77088 0.45370
 C1172 C 0.26875 0.80057 0.49857
 H1173 H 0.23377 0.74905 0.46937
 H1174 H 0.24871 0.78594 0.52294
 H1175 H 0.22723 0.72527 0.53299
 H1176 H 0.28555 0.73522 0.50585
 H1177 H 0.27455 0.71026 0.47972
 H1178 H 0.28078 0.70571 0.50842
 H1179 H 0.22899 0.80057 0.50851
 H1180 H 0.21139 0.78053 0.52871
 H1181 H 0.24736 0.73088 0.45255
 H1182 H 0.23035 0.71080 0.47438
 H1183 H 0.27121 0.78677 0.54139
 H1184 H 0.25150 0.77197 0.55822
 H1185 H 0.20071 0.75017 0.48593
 H1186 H 0.21559 0.77069 0.46934
 H1187 H 0.28193 0.73105 0.54645
 H1188 H 0.30086 0.74983 0.52534
 O1189 O 0.29157 0.24490 0.96795
 O1190 O 0.28148 0.21671 0.96544
 O1191 O 0.24985 0.27448 0.94996
 O1192 O 0.22359 0.27889 0.95736
 O1193 O 0.27597 0.28845 0.99850
 O1194 O 0.27593 0.27750 1.02810
 O1195 O 0.20176 0.23180 0.99483
 O1196 O 0.20614 0.23709 0.96435
 O1197 O 0.24088 0.20045 1.01130
 O1198 O 0.27129 0.20172 1.00894
 O1199 O 0.22898 0.24345 1.04201
 O1200 O 0.23317 0.27358 1.03920
 O1201 O 0.20616 0.24683 1.02033
 O1202 O 0.21569 0.27841 1.02029
 O1203 O 0.24369 0.21918 1.03722
 O1204 O 0.27553 0.21862 1.02931
 O1205 O 0.22005 0.20627 0.99174
 O1206 O 0.22299 0.21550 0.95960
 O1207 O 0.29555 0.26238 0.99174
 O1208 O 0.29064 0.25575 1.02348
 O1209 O 0.25524 0.29443 0.97886
 O1210 O 0.22435 0.29116 0.98279
 O1211 O 0.26713 0.25193 0.94530
 O1212 O 0.26139 0.22135 0.94820
 Zr1213 Zr 0.26606 0.23812 0.96963
 O1214 O 0.24989 0.22186 0.98437
 Zr1215 Zr 0.24154 0.27159 0.97646
 O1216 O 0.22389 0.25667 0.99062
 Zr1217 Zr 0.27203 0.26270 1.00496
 O1218 O 0.25549 0.24811 1.02110
 Zr1219 Zr 0.22538 0.23115 0.98251
 O1220 O 0.24129 0.24655 0.96638
 Zr1221 Zr 0.25528 0.22292 1.01184
 O1222 O 0.27317 0.23717 0.99669
 Zr1223 Zr 0.23075 0.25644 1.01764
 O1224 O 0.24761 0.27266 1.00370
 O1225 O 0.26611 0.26330 0.97799
 O1226 O 0.23074 0.23114 1.00968
 C1227 C 0.30069 0.25472 0.97753
 C1228 C 0.25983 0.26568 0.94020
 C1229 C 0.26799 0.29864 0.98826
 C1230 C 0.19707 0.23764 1.01004
 C1231 C 0.22733 0.19658 1.00312
 C1232 C 0.23396 0.22867 1.04668
 H1233 H 0.25081 0.21012 0.97982
 H1234 H 0.25894 0.24884 1.03372
 H1235 H 0.27379 0.27063 0.97084
 H1236 H 0.21250 0.26120 0.98884
 H1237 H 0.21144 0.24354 0.95437
 H1238 H 0.21369 0.27147 0.95928
 H1239 H 0.27378 0.22570 1.04008
 H1240 H 0.29475 0.24441 1.01985
 H1241 H 0.23066 0.20574 0.96077
 H1242 H 0.25058 0.22482 0.94300
 H1243 H 0.24399 0.27118 1.04498
 H1244 H 0.26575 0.28447 1.02975
 H1245 H 0.28656 0.21406 0.97713
 H1246 H 0.26977 0.19720 0.99674
 H1247 H 0.22792 0.29619 0.99426
 H1248 H 0.20583 0.27705 1.01253
 C1249 C 0.31529 0.35111 0.79606
 C1250 C 0.30263 0.36181 0.80233
 C1251 C 0.29585 0.37618 0.79175
 C1252 C 0.28022 0.38286 0.79667
 C1253 C 0.27369 0.39693 0.78770
 C1254 C 0.28268 0.40471 0.77353
 C1255 C 0.29837 0.39812 0.76869
 C1256 C 0.30491 0.38401 0.77766
 C1257 C 0.27673 0.42041 0.76454
 C1258 C 0.26016 0.42592 0.76549
 H1259 H 0.29750 0.35985 0.81563
 H1260 H 0.27311 0.37728 0.80766
 H1261 H 0.26186 0.40192 0.79240
 H1262 H 0.30573 0.40407 0.75810
 H1263 H 0.31726 0.37971 0.77383
 H1264 H 0.28593 0.42837 0.75772
 H1265 H 0.32017 0.35296 0.78263
 H1266 H 0.25065 0.41790 0.77162
 C1267 C 0.31572 -0.14768 0.30583
 C1268 C 0.30154 -0.13807 0.31055
 C1269 C 0.29704 -0.12163 0.30178
 C1270 C 0.28062 -0.11550 0.30381
 C1271 C 0.27582 -0.10006 0.29599
 C1272 C 0.28742 -0.09022 0.28603
 C1273 C 0.30382 -0.09633 0.28397
 C1274 C 0.30865 -0.11173 0.29185
 C1275 C 0.28292 -0.07374 0.27749
 C1276 C 0.26960 -0.06356 0.28328
 H1277 H 0.29291 -0.14278 0.32064
 H1278 H 0.27139 -0.12278 0.31137
 H1279 H 0.26296 -0.09605 0.29759
 H1280 H 0.31304 -0.08902 0.27642
 H1281 H 0.32156 -0.11554 0.29033
 H1282 H 0.29114 -0.06886 0.26701
 H1283 H 0.32348 -0.14291 0.29496
 H1284 H 0.26208 -0.06751 0.29470
 C1285 C 0.80104 0.84055 0.78745
 C1286 C 0.78601 0.84800 0.79261
 C1287 C 0.78089 0.86474 0.78553
 C1288 C 0.76662 0.87265 0.79270
 C1289 C 0.76186 0.88879 0.78676
 C1290 C 0.77137 0.89733 0.77350
 C1291 C 0.78537 0.88921 0.76602
 C1292 C 0.79015 0.87313 0.77200
 C1293 C 0.76714 0.91455 0.76699
 C1294 C 0.75742 0.92614 0.77663
 H1295 H 0.77813 0.84187 0.80265
 H1296 H 0.75920 0.86638 0.80303
 H1297 H 0.75070 0.89440 0.79247
 H1298 H 0.79282 0.89545 0.75569
 H1299 H 0.80116 0.86736 0.76608
 H1300 H 0.77289 0.91868 0.75450
 H1301 H 0.80374 0.83163 0.79211
 H1302 H 0.75219 0.92273 0.78956
 C1303 C 0.44807 0.88692 0.31813
 C1304 C 0.45020 0.88128 0.30064
 C1305 C 0.46154 0.86726 0.29581
 C1306 C 0.46848 0.86696 0.27852
 C1307 C 0.47868 0.85353 0.27317
 C1308 C 0.48182 0.83995 0.28495
 C1309 C 0.47530 0.84051 0.30243
 C1310 C 0.46516 0.85400 0.30782
 C1311 C 0.49077 0.82456 0.27906
 C1312 C 0.48972 0.81870 0.26155
 H1313 H 0.44440 0.88830 0.28987
 H1314 H 0.46597 0.87713 0.26912
 H1315 H 0.48393 0.85375 0.25977
 H1316 H 0.47751 0.83015 0.31171
 H1317 H 0.45974 0.85368 0.32115
 H1318 H 0.49584 0.81626 0.28924
 H1319 H 0.45553 0.88149 0.32870
 H1320 H 0.48344 0.82623 0.25153
 C1321 C -0.06412 0.89584 0.80761
 C1322 C -0.04939 0.88734 0.81199
 C1323 C -0.04491 0.87044 0.80459
 C1324 C -0.02807 0.86546 0.80468
 C1325 C -0.02327 0.84971 0.79778
 C1326 C -0.03528 0.83846 0.79080
 C1327 C -0.05211 0.84342 0.79065
 C1328 C -0.05694 0.85916 0.79764
 C1329 C -0.03060 0.82163 0.78350
 C1330 C -0.01682 0.81264 0.78970
 H1331 H -0.04018 0.89371 0.82011
 H1332 H -0.01855 0.87389 0.80991
 H1333 H -0.01011 0.84653 0.79768
 H1334 H -0.06160 0.83497 0.78539
 H1335 H -0.07012 0.86221 0.79778
 H1336 H -0.03873 0.81577 0.77377
 H1337 H -0.07239 0.89015 0.79794
 H1338 H -0.00951 0.81778 0.80054
 C1339 C -0.04290 -0.15954 -0.03415
 C1340 C -0.05130 -0.14789 -0.02319
 C1341 C -0.04475 -0.13047 -0.02016
 C1342 C -0.04932 -0.12183 -0.00448
 C1343 C -0.04330 -0.10538 -0.00125
 C1344 C -0.03273 -0.09718 -0.01382
 C1345 C -0.02830 -0.10577 -0.02955
 C1346 C -0.03436 -0.12214 -0.03280
 C1347 C -0.02584 -0.07991 -0.01095
 C1348 C -0.03335 -0.06791 0.00021
 H1349 H -0.06267 -0.15146 -0.01614
 H1350 H -0.05737 -0.12792 0.00543
 H1351 H -0.04671 -0.09932 0.01122
 H1352 H -0.02027 -0.09969 -0.03949
 H1353 H -0.03107 -0.12804 -0.04539
 H1354 H -0.01489 -0.07618 -0.01875
 H1355 H -0.03077 -0.15572 -0.03944
 H1356 H -0.04495 -0.07092 0.00717
 C1357 C -0.06106 0.34804 0.43893
 C1358 C -0.06688 0.35921 0.45220
 C1359 C -0.05792 0.37463 0.45844
 C1360 C -0.06667 0.38578 0.46976
 C1361 C -0.05892 0.40023 0.47661
 C1362 C -0.04209 0.40389 0.47242
 C1363 C -0.03334 0.39300 0.46083
 C1364 C -0.04111 0.37840 0.45401
 C1365 C -0.03371 0.41925 0.47952
 C1366 C -0.03847 0.42649 0.49581
 H1367 H -0.07909 0.35723 0.45816
 H1368 H -0.07965 0.38331 0.47333
 H1369 H -0.06627 0.40865 0.48495
 H1370 H -0.02040 0.39565 0.45728
 H1371 H -0.03378 0.37011 0.44554
 H1372 H -0.02360 0.42495 0.47175
 H1373 H -0.04952 0.35123 0.43196
 H1374 H -0.04765 0.42009 0.50425
 C1375 C 0.43166 -0.14067 0.43273
 C1376 C 0.44806 -0.13516 0.42928
 C1377 C 0.45548 -0.12100 0.43963
 C1378 C 0.47243 -0.12160 0.44425
 C1379 C 0.47950 -0.10884 0.45482
 C1380 C 0.46977 -0.09499 0.46069
 C1381 C 0.45286 -0.09432 0.45586
 C1382 C 0.44580 -0.10710 0.44537
 C1383 C 0.47679 -0.08092 0.47152
 C1384 C 0.49379 -0.07677 0.47149
 H1385 H 0.45623 -0.14230 0.42051
 H1386 H 0.48013 -0.13220 0.44005
 H1387 H 0.49246 -0.11008 0.45856
 H1388 H 0.44513 -0.08374 0.46004
 H1389 H 0.43279 -0.10599 0.44166
 H1390 H 0.46810 -0.07239 0.47813
 H1391 H 0.42487 -0.13408 0.44323
 H1392 H 0.50251 -0.08423 0.46366
 C1393 C 0.43922 0.35519 -0.06791
 C1394 C 0.43616 0.36377 -0.05173
 C1395 C 0.44437 0.38005 -0.04656
 C1396 C 0.44350 0.38514 -0.02857
 C1397 C 0.45043 0.40065 -0.02310
 C1398 C 0.45833 0.41154 -0.03559
 C1399 C 0.45936 0.40640 -0.05355
 C1400 C 0.45238 0.39092 -0.05903
 C1401 C 0.46571 0.42822 -0.03053
 C1402 C 0.46133 0.43727 -0.01508
 H1403 H 0.42777 0.35830 -0.04184
 H1404 H 0.43741 0.37707 -0.01864
 H1405 H 0.44969 0.40390 -0.00908
 H1406 H 0.46535 0.41455 -0.06347
 H1407 H 0.45299 0.38781 -0.07308
 H1408 H 0.47420 0.43420 -0.04011
 H1409 H 0.44899 0.36017 -0.07663
 H1410 H 0.45203 0.43219 -0.00585
 C1411 C 0.78192 0.42133 0.45861
 C1412 C 0.79005 0.40776 0.46690
 C1413 C 0.78216 0.39080 0.46950
 C1414 C 0.78795 0.38021 0.48321
 C1415 C 0.78119 0.36391 0.48575
 C1416 C 0.76867 0.35770 0.47433
 C1417 C 0.76285 0.36834 0.46066
 C1418 C 0.76954 0.38468 0.45818
 C1419 C 0.76131 0.34037 0.47626
 C1420 C 0.76871 0.32734 0.48610
 H1421 H 0.80270 0.40939 0.47163
 H1422 H 0.79766 0.38462 0.49210
 H1423 H 0.78577 0.35643 0.49680
 H1424 H 0.75324 0.36391 0.45165
 H1425 H 0.76509 0.39223 0.44710
 H1426 H 0.74985 0.33763 0.46917
 H1427 H 0.76913 0.41957 0.45434
 H1428 H 0.78049 0.32949 0.49270
 C1429 C 0.81470 0.88602 -0.05126
 C1430 C 0.80079 0.87604 -0.05567
 C1431 C 0.79778 0.85890 -0.04792
 C1432 C 0.78135 0.85255 -0.04711
 C1433 C 0.77799 0.83639 -0.04006
 C1434 C 0.79110 0.82610 -0.03389
 C1435 C 0.80753 0.83245 -0.03460
 C1436 C 0.81090 0.84861 -0.04169
 C1437 C 0.78804 0.80880 -0.02664
 C1438 C 0.77450 0.79883 -0.03193
 H1439 H 0.79117 0.88101 -0.06424
 H1440 H 0.77103 0.86021 -0.05179
 H1441 H 0.76510 0.83213 -0.03926
 H1442 H 0.81784 0.82475 -0.02997
 H1443 H 0.82381 0.85278 -0.04260
 H1444 H 0.79725 0.80337 -0.01777
 H1445 H 0.82308 0.88102 -0.04127
 H1446 H 0.76599 0.80360 -0.04192
 C1447 C 0.80567 0.30199 0.33801
 C1448 C 0.79192 0.30744 0.34813
 C1449 C 0.78492 0.29775 0.36352
 C1450 C 0.76868 0.30152 0.36960
 C1451 C 0.76208 0.29365 0.38494
 C1452 C 0.77175 0.28201 0.39468
 C1453 C 0.78777 0.27783 0.38831
 C1454 C 0.79438 0.28569 0.37298
 C1455 C 0.76583 0.27447 0.41180
 C1456 C 0.75431 0.28255 0.42300
 H1457 H 0.78628 0.31960 0.34520
 H1458 H 0.76113 0.31071 0.36254
 H1459 H 0.74947 0.29680 0.38910
 H1460 H 0.79546 0.26890 0.39559
 H1461 H 0.80710 0.28272 0.36910
 H1462 H 0.77205 0.26313 0.41659
 H1463 H 0.81103 0.28966 0.34077
 H1464 H 0.74873 0.29444 0.41893
 C1465 C 0.79652 0.78802 -0.16935
 C1466 C 0.80413 0.77931 -0.15533
 C1467 C 0.79480 0.77247 -0.13960
 C1468 C 0.80254 0.76019 -0.12888
 C1469 C 0.79474 0.75421 -0.11324
 C1470 C 0.77893 0.76041 -0.10794
 C1471 C 0.77120 0.77271 -0.11863
 C1472 C 0.77900 0.77869 -0.13430
 C1473 C 0.77091 0.75540 -0.09071
 C1474 C 0.77520 0.74068 -0.08138
 H1475 H 0.81760 0.77787 -0.15546
 H1476 H 0.81482 0.75541 -0.13246
 H1477 H 0.80148 0.74522 -0.10510
 H1478 H 0.75920 0.77794 -0.11469
 H1479 H 0.77283 0.78859 -0.14178
 H1480 H 0.76189 0.76402 -0.08479
 H1481 H 0.78304 0.78933 -0.16932
 H1482 H 0.78350 0.73150 -0.08749
 C1483 C 0.29133 0.45890 0.91504
 C1484 C 0.27545 0.45722 0.90751
 C1485 C 0.27091 0.46425 0.88981
 C1486 C 0.25699 0.45735 0.88108
 C1487 C 0.25273 0.46284 0.86393
 C1488 C 0.26236 0.47544 0.85514
 C1489 C 0.27588 0.48282 0.86417
 C1490 C 0.28014 0.47732 0.88130
 C1491 C 0.25886 0.48130 0.83671
 C1492 C 0.24869 0.47258 0.82467
 H1493 H 0.26610 0.44951 0.91436
 H1494 H 0.24951 0.44743 0.88743
 H1495 H 0.24189 0.45718 0.85776
 H1496 H 0.28334 0.49275 0.85784
 H1497 H 0.29060 0.48344 0.88773
 H1498 H 0.26538 0.49264 0.83207
 H1499 H 0.30062 0.46709 0.90879
 H1500 H 0.24230 0.46097 0.82859
 C1501 C 0.31073 -0.05469 0.41151
 C1502 C 0.31761 -0.04283 0.39951
 C1503 C 0.30813 -0.03724 0.38361
 C1504 C 0.31008 -0.02059 0.37713
 C1505 C 0.30101 -0.01505 0.36230
 C1506 C 0.29004 -0.02624 0.35344
 C1507 C 0.28818 -0.04290 0.35993
 C1508 C 0.29720 -0.04841 0.37474
 C1509 C 0.28059 -0.02115 0.33734
 C1510 C 0.28585 -0.00802 0.32600
 H1511 H 0.32964 -0.03694 0.40192
 H1512 H 0.31841 -0.01176 0.38373
 H1513 H 0.30250 -0.00196 0.35804
 H1514 H 0.27993 -0.05181 0.35331
 H1515 H 0.29577 -0.06152 0.37902
 H1516 H 0.27006 -0.02899 0.33339
 H1517 H 0.29787 -0.05850 0.40920
 H1518 H 0.29707 -0.00088 0.32905
 C1519 C -0.06002 -0.05502 -0.14961
 C1520 C -0.04797 -0.06153 -0.13799
 C1521 C -0.04305 -0.05243 -0.12148
 C1522 C -0.02710 -0.05511 -0.11431
 C1523 C -0.02212 -0.04660 -0.09881
 C1524 C -0.03313 -0.03537 -0.09005
 C1525 C -0.04910 -0.03282 -0.09714
 C1526 C -0.05409 -0.04136 -0.11254
 C1527 C -0.02852 -0.02599 -0.07366
 C1528 C -0.01622 -0.03136 -0.06182
 H1529 H -0.04138 -0.07312 -0.14114
 H1530 H -0.01838 -0.06362 -0.12087
 H1531 H -0.00959 -0.04867 -0.09396
 H1532 H -0.05788 -0.02436 -0.09058
 H1533 H -0.06673 -0.03943 -0.11717
 H1534 H -0.03605 -0.01506 -0.07007
 H1535 H -0.06489 -0.04251 -0.14662
 H1536 H -0.00933 -0.04292 -0.06443
 C1537 C -0.05770 0.44219 0.35423
 C1538 C -0.06626 0.44968 0.36855
 C1539 C -0.05833 0.45482 0.38559
 C1540 C -0.06779 0.46440 0.39781
 C1541 C -0.06120 0.46904 0.41433
 C1542 C -0.04488 0.46423 0.41902
 C1543 C -0.03546 0.45452 0.40688
 C1544 C -0.04205 0.44986 0.39036
 C1545 C -0.03750 0.46841 0.43659
 C1546 C -0.04371 0.48103 0.44791
 H1547 H -0.07965 0.45145 0.36756
 H1548 H -0.08044 0.46820 0.39464
 H1549 H -0.06916 0.47603 0.42345
 H1550 H -0.02294 0.45043 0.41025
 H1551 H -0.03439 0.44209 0.38170
 H1552 H -0.02656 0.46135 0.44068
 H1553 H -0.04439 0.44002 0.35502
 H1554 H -0.05411 0.48884 0.44384
 C1555 C 0.44124 -0.05928 0.35205
 C1556 C 0.45840 -0.05665 0.35434
 C1557 C 0.46584 -0.04615 0.36860
 C1558 C 0.48326 -0.04679 0.37083
 C1559 C 0.49085 -0.03835 0.38499
 C1560 C 0.48111 -0.02909 0.39725
 C1561 C 0.46384 -0.02763 0.39450
 C1562 C 0.45622 -0.03613 0.38036
 C1563 C 0.48838 -0.02143 0.41339
 C1564 C 0.50215 -0.02844 0.42200
 H1565 H 0.46701 -0.06326 0.34553
 H1566 H 0.49101 -0.05420 0.36182
 H1567 H 0.50429 -0.03924 0.38636
 H1568 H 0.45613 -0.02038 0.40368
 H1569 H 0.44284 -0.03492 0.37902
 H1570 H 0.48138 -0.01142 0.41995
 H1571 H 0.43213 -0.05200 0.35949
 H1572 H 0.50862 -0.03922 0.41627
 C1573 C 0.43550 0.44885 -0.15978
 C1574 C 0.44615 0.44081 -0.14776
 C1575 C 0.45186 0.44862 -0.13098
 C1576 C 0.45188 0.46632 -0.12841
 C1577 C 0.45779 0.47323 -0.11251
 C1578 C 0.46379 0.46255 -0.09890
 C1579 C 0.46413 0.44493 -0.10166
 C1580 C 0.45821 0.43803 -0.11755
 C1581 C 0.47000 0.46932 -0.08184
 C1582 C 0.46475 0.48481 -0.07478
 H1583 H 0.45001 0.42786 -0.15036
 H1584 H 0.44772 0.47493 -0.13875
 H1585 H 0.45796 0.48692 -0.11113
 H1586 H 0.46885 0.43647 -0.09143
 H1587 H 0.45854 0.42436 -0.11933
 H1588 H 0.47803 0.46122 -0.07394
 H1589 H 0.42965 0.46077 -0.15622
 H1590 H 0.45569 0.49249 -0.08176
 C1591 C 0.42745 0.81109 0.38849
 C1592 C 0.43990 0.81576 0.37613
 C1593 C 0.44481 0.80452 0.36106
 C1594 C 0.46114 0.80562 0.35407
 C1595 C 0.46629 0.79495 0.34016
 C1596 C 0.45514 0.78294 0.33286
 C1597 C 0.43861 0.78233 0.33935
 C1598 C 0.43348 0.79296 0.35332
 C1599 C 0.46017 0.77173 0.31783
 C1600 C 0.47679 0.76719 0.31469
 H1601 H 0.44668 0.82759 0.37772
 H1602 H 0.46999 0.81468 0.35948
 H1603 H 0.47890 0.79642 0.33495
 H1604 H 0.42966 0.77356 0.33363
 H1605 H 0.42056 0.79225 0.35779
 H1606 H 0.45066 0.76766 0.30852
 H1607 H 0.42144 0.79882 0.38693
 H1608 H 0.48625 0.77083 0.32421
 C1609 C -0.03370 0.79027 0.92918
 C1610 C -0.04000 0.77876 0.91675
 C1611 C -0.03062 0.77382 0.90044
 C1612 C -0.03486 0.75860 0.89186
 C1613 C -0.02743 0.75434 0.87549
 C1614 C -0.01582 0.76546 0.86717
 C1615 C -0.01122 0.78043 0.87604
 C1616 C -0.01857 0.78464 0.89245
 C1617 C -0.00873 0.76240 0.84907
 C1618 C -0.01565 0.75099 0.83692
 H1619 H -0.05260 0.77382 0.91828
 H1620 H -0.04410 0.75006 0.89776
 H1621 H -0.03099 0.74241 0.86946
 H1622 H -0.00232 0.78923 0.86996
 H1623 H -0.01531 0.79673 0.89836
 H1624 H 0.00153 0.77049 0.84459
 H1625 H -0.02084 0.79455 0.92777
 H1626 H -0.02613 0.74298 0.84077
 C1627 C 0.35685 0.80514 0.30813
 C1628 C 0.36527 0.80860 0.29198
 C1629 C 0.38071 0.79946 0.28631
 C1630 C 0.38509 0.79892 0.26806
 C1631 C 0.39942 0.79022 0.26223
 C1632 C 0.40976 0.78196 0.27462
 C1633 C 0.40548 0.78265 0.29286
 C1634 C 0.39125 0.79141 0.29868
 C1635 C 0.42499 0.77242 0.26922
 C1636 C 0.43408 0.77543 0.25341
 H1637 H 0.35989 0.81748 0.28259
 H1638 H 0.37726 0.80506 0.25823
 H1639 H 0.40214 0.78976 0.24804
 H1640 H 0.41331 0.77655 0.30271
 H1641 H 0.38876 0.79199 0.31290
 H1642 H 0.43012 0.76367 0.27895
 H1643 H 0.36142 0.79491 0.31645
 H1644 H 0.43002 0.78510 0.24411
 C1645 C -0.15176 0.79626 0.79150
 C1646 C -0.14384 0.78091 0.79557
 C1647 C -0.12652 0.77708 0.78949
 C1648 C -0.11684 0.76577 0.79954
 C1649 C -0.10026 0.76230 0.79456
 C1650 C -0.09309 0.76993 0.77920
 C1651 C -0.10289 0.78099 0.76896
 C1652 C -0.11945 0.78444 0.77394
 C1653 C -0.07536 0.76731 0.77379
 C1654 C -0.06556 0.75386 0.77989
 H1655 H -0.14997 0.77163 0.80414
 H1656 H -0.12199 0.75989 0.81154
 H1657 H -0.09309 0.75401 0.80308
 H1658 H -0.09772 0.78698 0.75703
 H1659 H -0.12665 0.79275 0.76544
 H1660 H -0.06982 0.77636 0.76445
 H1661 H -0.14491 0.80552 0.78351
 H1662 H -0.07099 0.74411 0.78843
 C1663 C 0.89154 0.30769 0.44573
 C1664 C 0.88502 0.29117 0.44636
 C1665 C 0.86915 0.28678 0.45590
 C1666 C 0.86054 0.27191 0.45115
 C1667 C 0.84515 0.26774 0.45921
 C1668 C 0.83799 0.27847 0.47224
 C1669 C 0.84703 0.29287 0.47764
 C1670 C 0.86243 0.29698 0.46964
 C1671 C 0.82115 0.27532 0.48024
 C1672 C 0.80911 0.26502 0.47224
 H1673 H 0.89142 0.28114 0.43921
 H1674 H 0.86560 0.26360 0.44092
 H1675 H 0.83903 0.25612 0.45514
 H1676 H 0.84201 0.30116 0.48791
 H1677 H 0.86897 0.30812 0.47439
 H1678 H 0.81762 0.28248 0.49203
 H1679 H 0.88504 0.31773 0.45271
 H1680 H 0.81206 0.25837 0.46000
 C1681 C 0.91354 0.79496 -0.03321
 C1682 C 0.90410 0.78304 -0.04272
 C1683 C 0.88718 0.77711 -0.03709
 C1684 C 0.88101 0.76174 -0.04398
 C1685 C 0.86497 0.75584 -0.03931
 C1686 C 0.85467 0.76534 -0.02773
 C1687 C 0.86084 0.78076 -0.02094
 C1688 C 0.87685 0.78663 -0.02559
 C1689 C 0.83753 0.75991 -0.02230
 C1690 C 0.82880 0.74598 -0.02928
 H1691 H 0.90918 0.77772 -0.05492
 H1692 H 0.88867 0.75421 -0.05296
 H1693 H 0.86087 0.74385 -0.04478
 H1694 H 0.85317 0.78842 -0.01210
 H1695 H 0.88084 0.79880 -0.02042
 H1696 H 0.83124 0.76768 -0.01238
 H1697 H 0.90845 0.80030 -0.02102
 H1698 H 0.83439 0.73799 -0.03940
 C1699 C -0.14766 -0.06514 -0.05005
 C1700 C -0.14400 -0.04775 -0.04994
 C1701 C -0.12927 -0.04093 -0.04038
 C1702 C -0.12141 -0.02599 -0.04657
 C1703 C -0.10706 -0.01973 -0.03817
 C1704 C -0.10036 -0.02831 -0.02331
 C1705 C -0.10874 -0.04276 -0.01663
 C1706 C -0.12302 -0.04900 -0.02502
 C1707 C -0.08472 -0.02280 -0.01445
 C1708 C -0.07265 -0.01241 -0.02267
 H1709 H -0.15176 -0.03892 -0.05721
 H1710 H -0.12620 -0.01933 -0.05813
 H1711 H -0.10139 -0.00819 -0.04337
 H1712 H -0.10407 -0.04942 -0.00500
 H1713 H -0.12918 -0.06009 -0.01932
 H1714 H -0.08200 -0.02823 -0.00146
 H1715 H -0.13918 -0.07368 -0.04333
 H1716 H -0.07468 -0.00741 -0.03595
 C1717 C -0.17297 0.46582 0.46459
 C1718 C -0.16313 0.45780 0.47743
 C1719 C -0.14636 0.46445 0.48212
 C1720 C -0.13994 0.46118 0.49916
 C1721 C -0.12403 0.46713 0.50379
 C1722 C -0.11414 0.47626 0.49129
 C1723 C -0.12058 0.47952 0.47428
 C1724 C -0.13643 0.47356 0.46965
 C1725 C -0.09709 0.48247 0.49538
 C1726 C -0.08703 0.47494 0.50826
 H1727 H -0.16757 0.44661 0.48450
 H1728 H -0.14732 0.45415 0.50897
 H1729 H -0.11968 0.46471 0.51720
 H1730 H -0.11317 0.48642 0.46438
 H1731 H -0.14065 0.47580 0.45615
 H1732 H -0.09181 0.49247 0.48699
 H1733 H -0.16844 0.47791 0.45939
 H1734 H -0.09166 0.46419 0.51596
 C1735 C 0.36072 -0.06529 0.45076
 C1736 C 0.37064 -0.05122 0.44588
 C1737 C 0.38792 -0.04817 0.45259
 C1738 C 0.39520 -0.03199 0.45017
 C1739 C 0.41129 -0.02841 0.45647
 C1740 C 0.42052 -0.04100 0.46538
 C1741 C 0.41338 -0.05723 0.46761
 C1742 C 0.39735 -0.06086 0.46119
 C1743 C 0.43749 -0.03762 0.47247
 C1744 C 0.44631 -0.02269 0.46872
 H1745 H 0.36531 -0.04139 0.43759
 H1746 H 0.38835 -0.02199 0.44349
 H1747 H 0.41641 -0.01575 0.45448
 H1748 H 0.42026 -0.06721 0.47429
 H1749 H 0.39262 -0.07366 0.46292
 H1750 H 0.44346 -0.04740 0.48041
 H1751 H 0.36561 -0.07438 0.46020
 H1752 H 0.45587 -0.02124 0.47276
 C1753 C 0.33004 0.45117 -0.03402
 C1754 C 0.33884 0.46650 -0.03635
 C1755 C 0.35504 0.47020 -0.02766
 C1756 C 0.36068 0.48713 -0.02711
 C1757 C 0.37653 0.49108 -0.02054
 C1758 C 0.38717 0.47811 -0.01455
 C1759 C 0.38134 0.46126 -0.01444
 C1760 C 0.36551 0.45728 -0.02109
 C1761 C 0.40456 0.48172 -0.00905
 C1762 C 0.41398 0.49477 -0.01695
 H1763 H 0.33385 0.47644 -0.04471
 H1764 H 0.35288 0.49733 -0.03201
 H1765 H 0.38044 0.50428 -0.02030
 H1766 H 0.38933 0.45106 -0.00987
 H1767 H 0.36189 0.44402 -0.02167
 H1768 H 0.41061 0.47285 -0.00010
 H1769 H 0.33435 0.44251 -0.02377
 H1770 H 0.40839 0.50272 -0.02710
 C1771 C 0.39376 0.43984 0.79155
 C1772 C 0.38462 0.45464 0.79484
 C1773 C 0.36777 0.45805 0.78757
 C1774 C 0.36145 0.47463 0.78882
 C1775 C 0.34544 0.47843 0.78272
 C1776 C 0.33532 0.46564 0.77533
 C1777 C 0.34168 0.44911 0.77382
 C1778 C 0.35768 0.44527 0.78002
 C1779 C 0.31825 0.46920 0.76891
 C1780 C 0.30830 0.48209 0.77605
 H1781 H 0.39026 0.46463 0.80269
 H1782 H 0.36894 0.48473 0.79453
 H1783 H 0.34114 0.49143 0.78362
 H1784 H 0.33410 0.43905 0.76815
 H1785 H 0.36184 0.43224 0.77914
 H1786 H 0.31300 0.46075 0.75900
 H1787 H 0.38916 0.43064 0.78207
 H1788 H 0.31283 0.48966 0.78707
 C1789 C 0.39888 -0.07598 0.30647
 C1790 C 0.39380 -0.05943 0.30263
 C1791 C 0.37853 -0.05515 0.29260
 C1792 C 0.37674 -0.03839 0.28643
 C1793 C 0.36209 -0.03330 0.27804
 C1794 C 0.34883 -0.04489 0.27570
 C1795 C 0.35078 -0.06180 0.28130
 C1796 C 0.36544 -0.06690 0.28981
 C1797 C 0.33258 -0.03928 0.26863
 C1798 C 0.32843 -0.02219 0.26881
 H1799 H 0.40174 -0.04895 0.30666
 H1800 H 0.38662 -0.02910 0.28838
 H1801 H 0.36106 -0.02018 0.27372
 H1802 H 0.34069 -0.07092 0.27972
 H1803 H 0.36614 -0.07985 0.29464
 H1804 H 0.32313 -0.04869 0.26532
 H1805 H 0.39232 -0.08669 0.30074
 H1806 H 0.31880 -0.01940 0.26611
 C1807 C 0.11659 0.57733 0.67797
 C1808 C 0.11922 0.56004 0.68134
 C1809 C 0.13219 0.55314 0.69331
 C1810 C 0.13180 0.53564 0.69714
 C1811 C 0.14382 0.52831 0.70810
 C1812 C 0.15656 0.53838 0.71542
 C1813 C 0.15681 0.55593 0.71195
 C1814 C 0.14484 0.56327 0.70088
 C1815 C 0.16994 0.53092 0.72633
 C1816 C 0.17601 0.51457 0.72331
 H1817 H 0.11063 0.55091 0.67563
 H1818 H 0.12215 0.52755 0.69160
 H1819 H 0.14304 0.51481 0.71088
 H1820 H 0.16656 0.56392 0.71748
 H1821 H 0.14580 0.57675 0.69819
 H1822 H 0.17663 0.53925 0.73533
 H1823 H 0.12385 0.58688 0.68481
 H1824 H 0.17060 0.50673 0.71298
 C1825 C 0.10966 0.05775 0.19786
 C1826 C 0.12103 0.06437 0.20997
 C1827 C 0.13600 0.05475 0.21569
 C1828 C 0.14726 0.06234 0.22756
 C1829 C 0.16168 0.05376 0.23296
 C1830 C 0.16513 0.03725 0.22668
 C1831 C 0.15387 0.02969 0.21475
 C1832 C 0.13945 0.03828 0.20935
 C1833 C 0.18062 0.02789 0.23148
 C1834 C 0.19094 0.03236 0.24572
 H1835 H 0.11908 0.07707 0.21518
 H1836 H 0.14500 0.07506 0.23252
 H1837 H 0.17019 0.06037 0.24169
 H1838 H 0.15627 0.01709 0.20954
 H1839 H 0.13110 0.03204 0.20013
 H1840 H 0.18423 0.01722 0.22318
 H1841 H 0.10145 0.06394 0.19481
 H1842 H 0.18739 0.04260 0.25457
 C1843 C 0.66101 0.71235 0.20923
 C1844 C 0.64844 0.70461 0.21956
 C1845 C 0.63199 0.71251 0.22289
 C1846 C 0.62208 0.70649 0.23718
 C1847 C 0.60583 0.71252 0.23977
 C1848 C 0.59909 0.72451 0.22786
 C1849 C 0.60915 0.73084 0.21384
 C1850 C 0.62540 0.72484 0.21127
 C1851 C 0.58170 0.73063 0.22946
 C1852 C 0.56910 0.72176 0.23865
 H1853 H 0.65012 0.69177 0.22445
 H1854 H 0.62689 0.69698 0.24628
 H1855 H 0.59869 0.70773 0.25110
 H1856 H 0.60425 0.74010 0.20451
 H1857 H 0.63241 0.72943 0.19976
 H1858 H 0.57851 0.74221 0.22238
 H1859 H 0.65945 0.72535 0.20475
 H1860 H 0.57174 0.70985 0.24532
 C1861 C 0.15998 0.69734 0.72042
 C1862 C 0.15145 0.71276 0.71917
 C1863 C 0.13463 0.71557 0.72716
 C1864 C 0.12910 0.73231 0.72965
 C1865 C 0.11305 0.73553 0.73641
 C1866 C 0.10210 0.72198 0.74067
 C1867 C 0.10769 0.70524 0.73845
 C1868 C 0.12371 0.70202 0.73162
 C1869 C 0.08483 0.72483 0.74730
 C1870 C 0.07571 0.73937 0.74307
 H1871 H 0.15741 0.72347 0.71249
 H1872 H 0.13724 0.74297 0.72633
 H1873 H 0.10934 0.74860 0.73840
 H1874 H 0.09947 0.69460 0.74159
 H1875 H 0.12723 0.68893 0.72944
 H1876 H 0.07863 0.71455 0.75450
 H1877 H 0.15487 0.68740 0.72895
 H1878 H 0.08127 0.74917 0.73467
 C1879 C 0.58799 0.19828 0.53050
 C1880 C 0.59390 0.21494 0.53288
 C1881 C 0.61083 0.22070 0.52709
 C1882 C 0.61800 0.23500 0.53529
 C1883 C 0.63393 0.24088 0.53011
 C1884 C 0.64296 0.23257 0.51648
 C1885 C 0.63560 0.21850 0.50806
 C1886 C 0.61974 0.21263 0.51325
 C1887 C 0.65988 0.23806 0.51034
 C1888 C 0.67021 0.24971 0.51914
 H1889 H 0.58607 0.22422 0.53948
 H1890 H 0.61129 0.24160 0.54582
 H1891 H 0.63893 0.25196 0.53672
 H1892 H 0.64217 0.21198 0.49736
 H1893 H 0.61446 0.20198 0.50610
 H1894 H 0.66480 0.23186 0.49850
 H1895 H 0.59607 0.18909 0.52409
 H1896 H 0.66606 0.25588 0.53128
 C1897 C 0.61706 0.66615 0.05976
 C1898 C 0.63055 0.67581 0.06590
 C1899 C 0.64483 0.68125 0.05430
 C1900 C 0.65469 0.69509 0.05971
 C1901 C 0.66841 0.70052 0.04937
 C1902 C 0.67262 0.69220 0.03331
 C1903 C 0.66306 0.67806 0.02814
 C1904 C 0.64928 0.67264 0.03847
 C1905 C 0.68735 0.69739 0.02224
 C1906 C 0.69439 0.71366 0.02297
 H1907 H 0.63074 0.67972 0.07975
 H1908 H 0.65177 0.70172 0.07202
 H1909 H 0.67586 0.71099 0.05431
 H1910 H 0.66627 0.67117 0.01608
 H1911 H 0.64246 0.66150 0.03417
 H1912 H 0.69298 0.68801 0.01348
 H1913 H 0.61682 0.66245 0.04585
 H1914 H 0.68850 0.72335 0.03107
 C1915 C 0.13926 0.06447 0.06101
 C1916 C 0.13001 0.04961 0.06482
 C1917 C 0.11478 0.04426 0.05508
 C1918 C 0.10950 0.02723 0.05660
 C1919 C 0.09495 0.02160 0.04823
 C1920 C 0.08522 0.03296 0.03823
 C1921 C 0.09057 0.04995 0.03651
 C1922 C 0.10512 0.05561 0.04495
 C1923 C 0.06954 0.02754 0.02947
 C1924 C 0.05966 0.01395 0.03563
 H1925 H 0.13440 0.04071 0.07472
 H1926 H 0.11669 0.01819 0.06429
 H1927 H 0.09150 0.00832 0.04947
 H1928 H 0.08326 0.05896 0.02890
 H1929 H 0.10846 0.06892 0.04378
 H1930 H 0.06490 0.03542 0.01869
 H1931 H 0.13553 0.07208 0.04966
 H1932 H 0.06327 0.00690 0.04743
 C1933 C 0.12838 0.56531 0.55846
 C1934 C 0.11781 0.55273 0.56562
 C1935 C 0.10250 0.54666 0.55656
 C1936 C 0.09590 0.53067 0.56129
 C1937 C 0.08157 0.52435 0.55301
 C1938 C 0.07347 0.53395 0.53976
 C1939 C 0.07978 0.55015 0.53540
 C1940 C 0.09413 0.55647 0.54367
 C1941 C 0.05788 0.52802 0.53112
 C1942 C 0.05249 0.51110 0.53139
 H1943 H 0.12098 0.54672 0.57817
 H1944 H 0.10189 0.52300 0.57143
 H1945 H 0.07677 0.51213 0.55741
 H1946 H 0.07354 0.55799 0.52558
 H1947 H 0.09833 0.56915 0.54014
 H1948 H 0.04996 0.53751 0.52500
 H1949 H 0.12521 0.57126 0.54590
 H1950 H 0.06030 0.50129 0.53702
 C1951 C 0.66315 0.05442 0.54327
 C1952 C 0.65551 0.03877 0.54744
 C1953 C 0.64034 0.03250 0.53821
 C1954 C 0.63640 0.01506 0.53890
 C1955 C 0.62196 0.00878 0.53073
 C1956 C 0.61114 0.01990 0.52176
 C1957 C 0.61510 0.03728 0.52100
 C1958 C 0.62939 0.04357 0.52929
 C1959 C 0.59555 0.01406 0.51322
 C1960 C 0.58639 -0.00018 0.51894
 H1961 H 0.66063 0.03053 0.55756
 H1962 H 0.64455 0.00626 0.54575
 H1963 H 0.61944 -0.00475 0.53130
 H1964 H 0.60687 0.04612 0.51431
 H1965 H 0.63147 0.05716 0.52900
 H1966 H 0.59012 0.02241 0.50330
 H1967 H 0.65821 0.06151 0.53209
 H1968 H 0.59100 -0.00814 0.52963
 C1969 C 0.63557 0.54674 0.05842
 C1970 C 0.62757 0.54874 0.04204
 C1971 C 0.61092 0.54128 0.03821
 C1972 C 0.60662 0.53830 0.02035
 C1973 C 0.59101 0.53142 0.01610
 C1974 C 0.57919 0.52762 0.02966
 C1975 C 0.58352 0.53047 0.04753
 C1976 C 0.59916 0.53734 0.05180
 C1977 C 0.56229 0.52088 0.02562
 C1978 C 0.55441 0.52405 0.00940
 H1979 H 0.63425 0.55490 0.03110
 H1980 H 0.61546 0.54116 0.00964
 H1981 H 0.58836 0.52895 0.00220
 H1982 H 0.57465 0.52767 0.05821
 H1983 H 0.60181 0.53985 0.06570
 H1984 H 0.55531 0.51450 0.03623
 H1985 H 0.62976 0.53885 0.06866
 H1986 H 0.56066 0.53175 -0.00071
 C1987 C 0.05939 0.05914 0.15562
 C1988 C 0.04540 0.06490 0.14617
 C1989 C 0.03794 0.05507 0.13123
 C1990 C 0.02123 0.05800 0.12641
 C1991 C 0.01392 0.04898 0.11233
 C1992 C 0.02327 0.03689 0.10272
 C1993 C 0.03997 0.03408 0.10745
 C1994 C 0.04730 0.04316 0.12136
 C1995 C 0.01633 0.02693 0.08770
 C1996 C 0.00294 0.03213 0.07711
 H1997 H 0.03925 0.07658 0.14987
 H1998 H 0.01376 0.06719 0.13368
 H1999 H 0.00094 0.05135 0.10922
 H2000 H 0.04753 0.02499 0.10013
 H2001 H 0.06039 0.04097 0.12400
 H2002 H 0.02329 0.01577 0.08361
 H2003 H 0.06396 0.04658 0.15237
 H2004 H -0.00361 0.04380 0.08013
 C2005 C 0.07384 0.56592 0.63181
 C2006 C 0.05676 0.56220 0.63177
 C2007 C 0.04957 0.54791 0.62159
 C2008 C 0.03450 0.54054 0.62766
 C2009 C 0.02715 0.52716 0.61831
 C2010 C 0.03466 0.52107 0.60252
 C2011 C 0.04993 0.52816 0.59666
 C2012 C 0.05729 0.54155 0.60602
 C2013 C 0.02633 0.50840 0.59109
 C2014 C 0.00897 0.50798 0.58932
 H2015 H 0.04860 0.56882 0.64106
 H2016 H 0.02840 0.54515 0.63970
 H2017 H 0.01557 0.52172 0.62340
 H2018 H 0.05587 0.52378 0.58444
 H2019 H 0.06873 0.54714 0.60070
 H2020 H 0.03396 0.50205 0.58109
 H2021 H 0.08242 0.55802 0.62427
 H2022 H 0.00118 0.51537 0.59827
 C2023 C 0.55705 0.06057 0.65129
 C2024 C 0.55906 0.04450 0.64339
 C2025 C 0.55031 0.03890 0.62696
 C2026 C 0.54916 0.02140 0.62342
 C2027 C 0.54204 0.01549 0.60760
 C2028 C 0.53608 0.02701 0.59472
 C2029 C 0.53688 0.04452 0.59844
 C2030 C 0.54398 0.05043 0.61432
 C2031 C 0.52930 0.02136 0.57725
 C2032 C 0.53289 0.00556 0.56956
 H2033 H 0.56678 0.03507 0.64976
 H2034 H 0.55388 0.01221 0.63294
 H2035 H 0.54124 0.00190 0.60560
 H2036 H 0.53238 0.05369 0.58879
 H2037 H 0.54494 0.06402 0.61631
 H2038 H 0.52244 0.03057 0.56944
 H2039 H 0.54747 0.06880 0.64595
 H2040 H 0.54065 -0.00344 0.57657
 C2041 C 0.57051 0.56729 0.13204
 C2042 C 0.55325 0.56468 0.13063
 C2043 C 0.54552 0.55553 0.11545
 C2044 C 0.52840 0.55771 0.11220
 C2045 C 0.52056 0.54902 0.09828
 C2046 C 0.52973 0.53785 0.08726
 C2047 C 0.54675 0.53534 0.09082
 C2048 C 0.55458 0.54404 0.10471
 C2049 C 0.52219 0.52860 0.07200
 C2050 C 0.50689 0.53294 0.06443
 H2051 H 0.54504 0.56914 0.14121
 H2052 H 0.52104 0.56621 0.12048
 H2053 H 0.50732 0.55100 0.09649
 H2054 H 0.55405 0.52658 0.08281
 H2055 H 0.56761 0.54136 0.10716
 H2056 H 0.52959 0.51879 0.06561
 H2057 H 0.57870 0.56310 0.12134
 H2058 H 0.49966 0.54334 0.06983
 C2059 C 0.17618 0.55658 0.60035
 C2060 C 0.18715 0.56247 0.61345
 C2061 C 0.19418 0.55140 0.62771
 C2062 C 0.20822 0.55712 0.63715
 C2063 C 0.21485 0.54746 0.65115
 C2064 C 0.20753 0.53175 0.65612
 C2065 C 0.19344 0.52609 0.64675
 C2066 C 0.18681 0.53575 0.63276
 C2067 C 0.21345 0.52142 0.67155
 C2068 C 0.22839 0.52444 0.68061
 H2069 H 0.19066 0.57578 0.61353
 H2070 H 0.21402 0.56923 0.63376
 H2071 H 0.22541 0.55267 0.65820
 H2072 H 0.18734 0.51421 0.65043
 H2073 H 0.17564 0.53105 0.62638
 H2074 H 0.20529 0.51132 0.67644
 H2075 H 0.17296 0.54321 0.60012
 H2076 H 0.23700 0.53418 0.67594
 C2077 C 0.17862 0.05782 0.11132
 C2078 C 0.19525 0.05558 0.11632
 C2079 C 0.20016 0.04547 0.13221
 C2080 C 0.21605 0.03797 0.13241
 C2081 C 0.22136 0.02875 0.14731
 C2082 C 0.21099 0.02712 0.16259
 C2083 C 0.19494 0.03432 0.16226
 C2084 C 0.18958 0.04347 0.14728
 C2085 C 0.21678 0.01871 0.17924
 C2086 C 0.23368 0.01810 0.18374
 H2087 H 0.20512 0.06027 0.10752
 H2088 H 0.22438 0.03921 0.12094
 H2089 H 0.23359 0.02294 0.14675
 H2090 H 0.18671 0.03329 0.17384
 H2091 H 0.17737 0.04935 0.14779
 H2092 H 0.20750 0.01496 0.18921
 H2093 H 0.16883 0.05136 0.11888
 H2094 H 0.24296 0.02338 0.17462
 C2095 C 0.69727 0.18428 0.65111
 C2096 C 0.69331 0.19919 0.64186
 C2097 C 0.70048 0.20418 0.62417
 C2098 C 0.69597 0.22003 0.61707
 C2099 C 0.70238 0.22559 0.60061
 C2100 C 0.71372 0.21547 0.59084
 C2101 C 0.71797 0.19944 0.59770
 C2102 C 0.71146 0.19381 0.61417
 C2103 C 0.72087 0.22099 0.57332
 C2104 C 0.72067 0.23786 0.56745
 H2105 H 0.68493 0.20818 0.64815
 H2106 H 0.68736 0.22819 0.62427
 H2107 H 0.69811 0.23770 0.59560
 H2108 H 0.72643 0.19126 0.59032
 H2109 H 0.71512 0.18137 0.61880
 H2110 H 0.72639 0.21142 0.56472
 H2111 H 0.70651 0.17574 0.64562
 H2112 H 0.71574 0.24773 0.57600
 C2113 C 0.69899 0.70369 0.15785
 C2114 C 0.71377 0.69875 0.14929
 C2115 C 0.71840 0.70500 0.13117
 C2116 C 0.73537 0.70626 0.12632
 C2117 C 0.74012 0.71227 0.10938
 C2118 C 0.72793 0.71689 0.09683
 C2119 C 0.71096 0.71563 0.10169
 C2120 C 0.70621 0.70962 0.11861
 C2121 C 0.73242 0.72280 0.07857
 C2122 C 0.74712 0.71784 0.06989
 H2123 H 0.72279 0.69115 0.15643
 H2124 H 0.74498 0.70281 0.13576
 H2125 H 0.75334 0.71348 0.10629
 H2126 H 0.70134 0.71900 0.09223
 H2127 H 0.69299 0.70833 0.12165
 H2128 H 0.72318 0.72989 0.07113
 H2129 H 0.69115 0.71296 0.15130
 H2130 H 0.75578 0.70951 0.07663
 C2131 C 0.58020 0.66838 0.11523
 C2132 C 0.57398 0.68492 0.11522
 C2133 C 0.56264 0.69163 0.12935
 C2134 C 0.55967 0.70919 0.12995
 C2135 C 0.54851 0.71599 0.14253
 C2136 C 0.54005 0.70530 0.15483
 C2137 C 0.54265 0.68771 0.15394
 C2138 C 0.55381 0.68090 0.14137
 C2139 C 0.52873 0.71207 0.16891
 C2140 C 0.53089 0.72825 0.17608
 H2141 H 0.57660 0.69294 0.10368
 H2142 H 0.56597 0.71770 0.12059
 H2143 H 0.54642 0.72957 0.14239
 H2144 H 0.53613 0.67918 0.16310
 H2145 H 0.55511 0.66724 0.14099
 H2146 H 0.51992 0.70340 0.17533
 H2147 H 0.57791 0.66007 0.12656
 H2148 H 0.54081 0.73642 0.17098
 C2149 C 0.05852 0.68266 0.60961
 C2150 C 0.06120 0.69892 0.61667
 C2151 C 0.05301 0.70488 0.63344
 C2152 C 0.05171 0.72245 0.63660
 C2153 C 0.04380 0.72851 0.65212
 C2154 C 0.03710 0.71706 0.66483
 C2155 C 0.03862 0.69953 0.66180
 C2156 C 0.04662 0.69348 0.64642
 C2157 C 0.02816 0.72266 0.68121
 C2158 C 0.03059 0.73837 0.68954
 H2159 H 0.06868 0.70805 0.60920
 H2160 H 0.05661 0.73152 0.62690
 H2161 H 0.04266 0.74211 0.65390
 H2162 H 0.03370 0.69044 0.67147
 H2163 H 0.04789 0.67987 0.64496
 H2164 H 0.02025 0.71328 0.68787
 H2165 H 0.04953 0.67435 0.61619
 H2166 H 0.03935 0.74756 0.68396
 C2167 C 0.57177 0.60425 0.18760
 C2168 C 0.55957 0.61596 0.18232
 C2169 C 0.55223 0.62951 0.19389
 C2170 C 0.54018 0.64031 0.18643
 C2171 C 0.53299 0.65343 0.19644
 C2172 C 0.53764 0.65613 0.21430
 C2173 C 0.54976 0.64544 0.22178
 C2174 C 0.55691 0.63221 0.21179
 C2175 C 0.53093 0.67059 0.22496
 C2176 C 0.51587 0.67871 0.22101
 H2177 H 0.55538 0.61566 0.16862
 H2178 H 0.53639 0.63872 0.17267
 H2179 H 0.52415 0.66168 0.18989
 H2180 H 0.55374 0.64735 0.23543
 H2181 H 0.56614 0.62435 0.21820
 H2182 H 0.53844 0.67540 0.23582
 H2183 H 0.57687 0.60498 0.20089
 H2184 H 0.50789 0.67355 0.21075
 C2185 C 0.06976 0.61845 0.66892
 C2186 C 0.07095 0.62547 0.68599
 C2187 C 0.06086 0.63996 0.69244
 C2188 C 0.06668 0.64902 0.70724
 C2189 C 0.05722 0.66211 0.71465
 C2190 C 0.04147 0.66621 0.70766
 C2191 C 0.03580 0.65749 0.69253
 C2192 C 0.04535 0.64440 0.68500
 C2193 C 0.03100 0.67973 0.71568
 C2194 C 0.03250 0.68446 0.73355
 H2195 H 0.07960 0.62006 0.69544
 H2196 H 0.07864 0.64596 0.71311
 H2197 H 0.06242 0.66903 0.72577
 H2198 H 0.02380 0.66055 0.68678
 H2199 H 0.04029 0.63752 0.67378
 H2200 H 0.02205 0.68620 0.70729
 H2201 H 0.06096 0.62369 0.65951
 H2202 H 0.04077 0.67749 0.74225
 C2203 C 0.07409 0.13735 0.05733
 C2204 C 0.06113 0.12629 0.06229
 C2205 C 0.05504 0.11239 0.05078
 C2206 C 0.03855 0.10665 0.05334
 C2207 C 0.03196 0.09394 0.04253
 C2208 C 0.04177 0.08664 0.02887
 C2209 C 0.05845 0.09197 0.02664
 C2210 C 0.06506 0.10479 0.03744
 C2211 C 0.03529 0.07251 0.01792
 C2212 C 0.01820 0.06976 0.01558
 H2213 H 0.05425 0.12857 0.07459
 H2214 H 0.03068 0.11211 0.06370
 H2215 H 0.01931 0.08962 0.04529
 H2216 H 0.06638 0.08619 0.01654
 H2217 H 0.07802 0.10845 0.03546
 H2218 H 0.04415 0.06318 0.01301
 H2219 H 0.08139 0.13488 0.04536
 H2220 H 0.00931 0.07936 0.01969
 C2221 C 0.05929 0.63905 0.56089
 C2222 C 0.04325 0.63248 0.56444
 C2223 C 0.03669 0.61646 0.55661
 C2224 C 0.01936 0.61330 0.55739
 C2225 C 0.01262 0.59824 0.55054
 C2226 C 0.02313 0.58591 0.54285
 C2227 C 0.04043 0.58908 0.54198
 C2228 C 0.04719 0.60409 0.54890
 C2229 C 0.01655 0.56975 0.53551
 C2230 C 0.00157 0.56212 0.54132
 H2231 H 0.03472 0.63968 0.57276
 H2232 H 0.01098 0.62257 0.56325
 H2233 H -0.00081 0.59645 0.55109
 H2234 H 0.04880 0.57975 0.53618
 H2235 H 0.06063 0.60570 0.54844
 H2236 H 0.02449 0.56289 0.52619
 H2237 H 0.06713 0.63288 0.55102
 H2238 H -0.00584 0.56798 0.55178
 C2239 C 0.54326 0.15352 0.52868
 C2240 C 0.55368 0.13934 0.52845
 C2241 C 0.54756 0.12159 0.52670
 C2242 C 0.55932 0.10876 0.52347
 C2243 C 0.55428 0.09178 0.52215
 C2244 C 0.53727 0.08725 0.52393
 C2245 C 0.52554 0.09998 0.52771
 C2246 C 0.53059 0.11698 0.52907
 C2247 C 0.53145 0.06946 0.52191
 C2248 C 0.54007 0.05793 0.51118
 H2249 H 0.56698 0.14124 0.53043
 H2250 H 0.57250 0.11186 0.52201
 H2251 H 0.56381 0.08226 0.51997
 H2252 H 0.51241 0.09677 0.52944
 H2253 H 0.52113 0.12628 0.53226
 H2254 H 0.51959 0.06571 0.52794
 H2255 H 0.52993 0.15206 0.52687
 H2256 H 0.55122 0.06202 0.50399
 C2257 C 0.57016 0.62470 0.06992
 C2258 C 0.56601 0.62274 0.05197
 C2259 C 0.55249 0.61124 0.04591
 C2260 C 0.54522 0.61432 0.02921
 C2261 C 0.53214 0.60407 0.02314
 C2262 C 0.52616 0.59046 0.03368
 C2263 C 0.53336 0.58738 0.05039
 C2264 C 0.54652 0.59752 0.05639
 C2265 C 0.51297 0.57882 0.02740
 C2266 C 0.51170 0.57418 0.00950
 H2267 H 0.57156 0.63129 0.04215
 H2268 H 0.54955 0.62482 0.02090
 H2269 H 0.52666 0.60691 0.01031
 H2270 H 0.52906 0.57681 0.05863
 H2271 H 0.55207 0.59434 0.06908
 H2272 H 0.50612 0.57146 0.03741
 H2273 H 0.56344 0.61747 0.08006
 H2274 H 0.51975 0.58016 -0.00046
 C2275 C 0.70078 0.10322 0.55083
 C2276 C 0.69404 0.11338 0.53723
 C2277 C 0.69959 0.13112 0.53368
 C2278 C 0.69674 0.13829 0.51676
 C2279 C 0.70178 0.15498 0.51287
 C2280 C 0.70966 0.16491 0.52595
 C2281 C 0.71232 0.15782 0.54293
 C2282 C 0.70722 0.14118 0.54684
 C2283 C 0.71594 0.18232 0.52226
 C2284 C 0.71013 0.19274 0.50850
 H2285 H 0.68478 0.10832 0.52829
 H2286 H 0.69080 0.13086 0.50642
 H2287 H 0.69982 0.15986 0.49951
 H2288 H 0.71829 0.16525 0.55327
 H2289 H 0.70909 0.13643 0.56026
 H2290 H 0.72534 0.18734 0.53119
 H2291 H 0.71104 0.10848 0.55839
 H2292 H 0.69982 0.18865 0.50025
 C2293 C 0.68238 0.58858 0.04696
 C2294 C 0.69506 0.59877 0.05409
 C2295 C 0.70305 0.61329 0.04462
 C2296 C 0.71902 0.61857 0.04999
 C2297 C 0.72704 0.63238 0.04170
 C2298 C 0.71910 0.64139 0.02793
 C2299 C 0.70307 0.63613 0.02260
 C2300 C 0.69509 0.62224 0.03084
 C2301 C 0.72674 0.65645 0.01896
 C2302 C 0.74171 0.66434 0.02402
 H2303 H 0.69986 0.59580 0.06721
 H2304 H 0.72540 0.61189 0.06062
 H2305 H 0.73939 0.63580 0.04622
 H2306 H 0.69657 0.64291 0.01214
 H2307 H 0.68260 0.61887 0.02663
 H2308 H 0.71967 0.66214 0.00821
 H2309 H 0.67709 0.59173 0.03412
 H2310 H 0.74909 0.65937 0.03485
 C2311 C 0.20825 0.65826 0.71074
 C2312 C 0.19975 0.64382 0.71695
 C2313 C 0.20762 0.62696 0.71915
 C2314 C 0.19712 0.61264 0.72043
 C2315 C 0.20381 0.59647 0.72285
 C2316 C 0.22120 0.59429 0.72425
 C2317 C 0.23178 0.60850 0.72258
 C2318 C 0.22507 0.62475 0.72022
 C2319 C 0.22838 0.57735 0.72771
 C2320 C 0.21988 0.56554 0.73842
 H2321 H 0.18633 0.64449 0.71900
 H2322 H 0.18365 0.61395 0.71950
 H2323 H 0.19533 0.58568 0.72352
 H2324 H 0.24523 0.60707 0.72359
 H2325 H 0.23360 0.63546 0.71965
 H2326 H 0.24078 0.57448 0.72258
 H2327 H 0.22126 0.65736 0.70670
 H2328 H 0.20819 0.56911 0.74482
 C2329 C 0.18843 0.14045 0.19753
 C2330 C 0.20580 0.13940 0.19924
 C2331 C 0.21407 0.12632 0.21025
 C2332 C 0.23057 0.12170 0.20595
 C2333 C 0.23844 0.10859 0.21525
 C2334 C 0.22990 0.09991 0.22910
 C2335 C 0.21378 0.10521 0.23409
 C2336 C 0.20591 0.11828 0.22477
 C2337 C 0.23697 0.08489 0.23816
 C2338 C 0.24861 0.07413 0.23003
 H2339 H 0.21378 0.14794 0.19154
 H2340 H 0.23724 0.12797 0.19505
 H2341 H 0.25111 0.10527 0.21146
 H2342 H 0.20706 0.09889 0.24492
 H2343 H 0.19346 0.12197 0.22901
 H2344 H 0.23108 0.08088 0.25062
 H2345 H 0.18034 0.13213 0.20534
 H2346 H 0.25421 0.07745 0.21724
 C2347 C 0.69988 1.15016 0.70702
 C2348 C 0.71372 1.14033 0.70206
 C2349 C 0.71890 1.12501 0.71216
 C2350 C 0.73487 1.11823 0.70890
 C2351 C 0.73971 1.10304 0.71706
 C2352 C 0.72859 1.09429 0.72858
 C2353 C 0.71285 1.10128 0.73228
 C2354 C 0.70793 1.11635 0.72401
 C2355 C 0.73266 1.07760 0.73643
 C2356 C 0.74275 1.06584 0.72760
 H2357 H 0.72102 1.14344 0.69025
 H2358 H 0.74354 1.12461 0.69983
 H2359 H 0.75212 1.09817 0.71427
 H2360 H 0.70405 1.09469 0.74106
 H2361 H 0.69531 1.12068 0.72650
 H2362 H 0.72590 1.07368 0.74842
 H2363 H 0.69402 1.14752 0.71985
 H2364 H 0.74870 1.06916 0.71497
 C2365 C 0.69906 0.66237 0.21022
 C2366 C 0.70434 0.64793 0.20100
 C2367 C 0.70836 0.63170 0.21004
 C2368 C 0.71942 0.62050 0.20151
 C2369 C 0.72362 0.60508 0.20955
 C2370 C 0.71675 0.60045 0.22631
 C2371 C 0.70515 0.61129 0.23454
 C2372 C 0.70104 0.62685 0.22655
 C2373 C 0.72136 0.58421 0.23499
 C2374 C 0.73741 0.57765 0.23285
 H2375 H 0.70578 0.64845 0.18660
 H2376 H 0.72493 0.62376 0.18863
 H2377 H 0.73208 0.59669 0.20247
 H2378 H 0.69943 0.60781 0.24725
 H2379 H 0.69193 0.63484 0.23319
 H2380 H 0.71206 0.57731 0.24284
 H2381 H 0.69778 0.66180 0.22463
 H2382 H 0.74682 0.58530 0.22597
 C2383 C 0.56517 0.10458 0.69804
 C2384 C 0.55649 0.11768 0.68949
 C2385 C 0.55159 0.13404 0.69800
 C2386 C 0.54068 0.14476 0.68868
 C2387 C 0.53573 0.16036 0.69581
 C2388 C 0.54150 0.16570 0.71261
 C2389 C 0.55268 0.15519 0.72183
 C2390 C 0.55764 0.13950 0.71468
 C2391 C 0.53667 0.18242 0.72034
 C2392 C 0.52206 0.19086 0.71545
 H2393 H 0.55307 0.11600 0.67565
 H2394 H 0.53600 0.14107 0.67571
 H2395 H 0.52767 0.16832 0.68786
 H2396 H 0.55756 0.15911 0.73463
 H2397 H 0.56636 0.13196 0.72222
 H2398 H 0.54491 0.18827 0.72998
 H2399 H 0.56916 0.10625 0.71168
 H2400 H 0.51334 0.18466 0.70659
 C2401 C 1.06807 0.11054 0.19417
 C2402 C 1.05180 0.11711 0.19338
 C2403 C 1.04688 0.13425 0.20002
 C2404 C 1.03106 0.14062 0.19550
 C2405 C 1.02567 0.15648 0.20173
 C2406 C 1.03602 0.16640 0.21271
 C2407 C 1.05177 0.15998 0.21735
 C2408 C 1.05717 0.14414 0.21113
 C2409 C 1.03091 0.18320 0.21999
 C2410 C 1.01722 0.19268 0.21408
 H2411 H 1.04198 0.10932 0.18779
 H2412 H 1.02277 0.13324 0.18714
 H2413 H 1.01330 0.16068 0.19809
 H2414 H 1.05997 0.16723 0.22594
 H2415 H 1.06926 0.13972 0.21541
 H2416 H 1.03883 0.18872 0.23013
 H2417 H 1.07791 0.11808 0.20002
 H2418 H 1.00953 0.18807 0.20332
 C2419 C 0.17094 0.61063 0.56316
 C2420 C 0.18776 0.61466 0.56008
 C2421 C 0.19310 0.63049 0.55065
 C2422 C 0.20823 0.63059 0.54093
 C2423 C 0.21346 0.64513 0.53150
 C2424 C 0.20375 0.66003 0.53183
 C2425 C 0.18859 0.65991 0.54150
 C2426 C 0.18336 0.64537 0.55092
 C2427 C 0.20926 0.67598 0.52278
 C2428 C 0.22613 0.68003 0.52003
 H2429 H 0.19715 0.60512 0.56280
 H2430 H 0.21593 0.61929 0.54041
 H2431 H 0.22502 0.64455 0.52385
 H2432 H 0.18094 0.67123 0.54210
 H2433 H 0.17183 0.64597 0.55862
 H2434 H 0.20000 0.68574 0.52043
 H2435 H 0.16147 0.61933 0.55849
 H2436 H 0.23563 0.67108 0.52406
 C2437 C 0.18775 0.10418 1.06582
 C2438 C 0.18625 0.11162 1.04883
 C2439 C 0.19593 0.12682 1.04255
 C2440 C 0.19573 0.13103 1.02425
 C2441 C 0.20442 0.14531 1.01767
 C2442 C 0.21348 0.15580 1.02931
 C2443 C 0.21374 0.15161 1.04758
 C2444 C 0.20497 0.13740 1.05418
 C2445 C 0.22293 0.17105 1.02298
 C2446 C 0.21913 0.18016 1.00744
 H2447 H 0.17804 0.10576 1.03923
 H2448 H 0.18888 0.12317 1.01495
 H2449 H 0.20419 0.14789 1.00346
 H2450 H 0.22058 0.15952 1.05685
 H2451 H 0.20520 0.13502 1.06842
 H2452 H 0.23247 0.17609 1.03172
 H2453 H 0.19713 0.10904 1.07479
 H2454 H 0.20877 0.17618 0.99922
 C2455 C 0.20198 0.70921 0.67146
 C2456 C 0.21823 0.70898 0.66430
 C2457 C 0.22261 0.71623 0.64657
 C2458 C 0.23629 0.70945 0.63712
 C2459 C 0.24022 0.71513 0.61984
 C2460 C 0.23051 0.72780 0.61171
 C2461 C 0.21731 0.73513 0.62149
 C2462 C 0.21336 0.72942 0.63873
 C2463 C 0.23367 0.73382 0.59321
 C2464 C 0.24257 0.72463 0.58032
 H2465 H 0.22793 0.70212 0.67121
 H2466 H 0.24377 0.69946 0.64300
 H2467 H 0.25086 0.70959 0.61302
 H2468 H 0.20984 0.74514 0.61565
 H2469 H 0.20313 0.73543 0.64583
 H2470 H 0.22779 0.74563 0.58927
 H2471 H 0.19236 0.71638 0.66478
 H2472 H 0.24811 0.71250 0.58358
 C2473 C 0.18958 0.17574 1.14210
 C2474 C 0.18282 0.18465 1.12772
 C2475 C 0.19311 0.18931 1.11180
 C2476 C 0.18951 0.20432 1.10246
 C2477 C 0.19958 0.20954 1.08802
 C2478 C 0.21341 0.19974 1.08252
 C2479 C 0.21644 0.18424 1.09118
 C2480 C 0.20645 0.17908 1.10574
 C2481 C 0.22442 0.20527 1.06749
 C2482 C 0.22728 0.22245 1.06387
 H2483 H 0.17006 0.18913 1.12836
 H2484 H 0.17909 0.21221 1.10657
 H2485 H 0.19642 0.22120 1.08111
 H2486 H 0.22673 0.17626 1.08689
 H2487 H 0.20914 0.16704 1.11214
 H2488 H 0.23004 0.19571 1.05898
 H2489 H 0.20266 0.17224 1.14129
 H2490 H 0.22222 0.23188 1.07292
 C2491 C 0.68802 0.54217 0.09298
 C2492 C 0.70073 0.55025 0.10255
 C2493 C 0.71009 0.54220 0.11729
 C2494 C 0.72482 0.55014 0.12321
 C2495 C 0.73366 0.54351 0.13765
 C2496 C 0.72783 0.52882 0.14656
 C2497 C 0.71331 0.52070 0.14043
 C2498 C 0.70445 0.52734 0.12605
 C2499 C 0.73594 0.52180 0.16263
 C2500 C 0.74664 0.53100 0.17372
 H2501 H 0.70392 0.56332 0.09940
 H2502 H 0.72946 0.56159 0.11668
 H2503 H 0.74498 0.54995 0.14172
 H2504 H 0.70849 0.50941 0.14712
 H2505 H 0.69300 0.52098 0.12231
 H2506 H 0.73172 0.50932 0.16705
 H2507 H 0.68441 0.52924 0.09620
 H2508 H 0.75109 0.54353 0.16993
 C2509 C 0.70666 1.05454 0.59108
 C2510 C 0.69904 1.04299 0.60294
 C2511 C 0.70712 1.03673 0.61946
 C2512 C 0.70086 1.02190 0.62774
 C2513 C 0.70773 1.01592 0.64370
 C2514 C 0.72093 1.02483 0.65183
 C2515 C 0.72726 1.03956 0.64347
 C2516 C 0.72039 1.04555 0.62756
 C2517 C 0.72842 1.01940 0.66895
 C2518 C 0.72060 1.00845 0.68127
 H2519 H 0.68648 1.03848 0.60033
 H2520 H 0.69063 1.01488 0.62181
 H2521 H 0.70272 1.00431 0.64946
 H2522 H 0.73737 1.04671 0.64947
 H2523 H 0.72528 1.05731 0.62204
 H2524 H 0.74020 1.02528 0.67258
 H2525 H 0.71925 1.05895 0.59360
 H2526 H 0.70850 1.00290 0.67844
 C2527 C 0.53490 0.20244 0.56826
 C2528 C 0.53936 0.21693 0.57783
 C2529 C 0.53145 0.22134 0.59516
 C2530 C 0.53317 0.23797 0.60158
 C2531 C 0.52736 0.24218 0.61866
 C2532 C 0.51991 0.22970 0.62976
 C2533 C 0.51761 0.21323 0.62313
 C2534 C 0.52346 0.20900 0.60607
 C2535 C 0.51492 0.23333 0.64841
 C2536 C 0.52335 0.24534 0.65861
 H2537 H 0.54924 0.22522 0.57293
 H2538 H 0.53925 0.24769 0.59345
 H2539 H 0.52882 0.25517 0.62314
 H2540 H 0.51188 0.20343 0.63144
 H2541 H 0.52231 0.19591 0.60188
 H2542 H 0.50533 0.22544 0.65467
 H2543 H 0.52363 0.19564 0.57225
 H2544 H 0.53369 0.25249 0.65279
 C2545 C 1.05672 0.18512 0.09588
 C2546 C 1.05768 0.20191 0.10194
 C2547 C 1.04556 0.20935 0.11472
 C2548 C 1.04495 0.22711 0.11632
 C2549 C 1.03521 0.23464 0.12968
 C2550 C 1.02603 0.22447 0.14183
 C2551 C 1.02593 0.20676 0.13968
 C2552 C 1.03572 0.19922 0.12635
 C2553 C 1.01750 0.23178 0.15758
 C2554 C 1.02391 0.24596 0.16638
 H2555 H 1.06746 0.21030 0.09697
 H2556 H 1.05235 0.23519 0.10746
 H2557 H 1.03514 0.24837 0.13066
 H2558 H 1.01894 0.19869 0.14892
 H2559 H 1.03611 0.18548 0.12582
 H2560 H 1.00762 0.22435 0.16396
 H2561 H 1.04529 0.17804 0.09855
 H2562 H 1.03458 0.25277 0.16082
 C2563 C 0.65305 0.18891 0.69994
 C2564 C 0.64577 0.20413 0.69447
 C2565 C 0.62969 0.21025 0.70201
 C2566 C 0.62628 0.22773 0.70165
 C2567 C 0.61114 0.23392 0.70847
 C2568 C 0.59899 0.22266 0.71555
 C2569 C 0.60245 0.20520 0.71603
 C2570 C 0.61757 0.19901 0.70920
 C2571 C 0.58253 0.22860 0.72223
 C2572 C 0.57499 0.24335 0.71585
 H2573 H 0.65248 0.21238 0.68521
 H2574 H 0.63542 0.23664 0.69620
 H2575 H 0.60912 0.24751 0.70830
 H2576 H 0.59325 0.19627 0.72133
 H2577 H 0.61950 0.18540 0.70924
 H2578 H 0.57544 0.22025 0.73110
 H2579 H 0.64728 0.18183 0.71084
 H2580 H 0.58135 0.25112 0.70588
 C2581 C 1.13948 0.17648 0.18483
 C2582 C 1.13416 0.19322 0.18257
 C2583 C 1.11894 0.19989 0.19160
 C2584 C 1.11831 0.21721 0.19597
 C2585 C 1.10445 0.22388 0.20505
 C2586 C 1.09072 0.21338 0.20969
 C2587 C 1.09132 0.19606 0.20527
 C2588 C 1.10522 0.18937 0.19623
 C2589 C 1.07559 0.22010 0.21888
 C2590 C 1.07073 0.23706 0.21740
 H2591 H 1.14240 0.20221 0.17579
 H2592 H 1.12875 0.22556 0.19265
 H2593 H 1.10471 0.23719 0.20862
 H2594 H 1.08088 0.18772 0.20859
 H2595 H 1.10505 0.17604 0.19271
 H2596 H 1.06721 0.21114 0.22554
 H2597 H 1.13220 0.16803 0.19338
 H2598 H 1.07816 0.24578 0.20931
 C2599 C 0.10267 0.68443 0.55989
 C2600 C 0.11210 0.69825 0.56606
 C2601 C 0.12755 0.70454 0.55688
 C2602 C 0.13313 0.72121 0.56016
 C2603 C 0.14773 0.72753 0.55191
 C2604 C 0.15717 0.71720 0.54031
 C2605 C 0.15162 0.70054 0.53707
 C2606 C 0.13709 0.69420 0.54535
 C2607 C 0.17275 0.72320 0.53127
 C2608 C 0.18268 0.73663 0.53737
 H2609 H 0.10798 0.70518 0.57772
 H2610 H 0.12607 0.72943 0.56902
 H2611 H 0.15139 0.74055 0.55450
 H2612 H 0.15870 0.69228 0.52826
 H2613 H 0.13366 0.68110 0.54290
 H2614 H 0.17731 0.71577 0.52006
 H2615 H 0.10649 0.67849 0.54749
 H2616 H 0.17909 0.74352 0.54929
 C2617 C 0.11419 0.18448 1.07080
 C2618 C 0.12408 0.18211 1.05553
 C2619 C 0.13833 0.19332 1.05064
 C2620 C 0.14323 0.19416 1.03262
 C2621 C 0.15597 0.20519 1.02705
 C2622 C 0.16407 0.21575 1.03944
 C2623 C 0.15966 0.21444 1.05760
 C2624 C 0.14689 0.20332 1.06320
 C2625 C 0.17792 0.22725 1.03396
 C2626 C 0.18045 0.23244 1.01629
 H2627 H 0.12004 0.17313 1.04553
 H2628 H 0.13706 0.18636 1.02273
 H2629 H 0.15956 0.20508 1.01307
 H2630 H 0.16605 0.22206 1.06746
 H2631 H 0.14393 0.20256 1.07733
 H2632 H 0.18716 0.23059 1.04388
 H2633 H 0.11733 0.19457 1.07998
 H2634 H 0.17121 0.22964 1.00624
 C2635 C 0.61924 0.56506 0.17179
 C2636 C 0.62436 0.56089 0.18904
 C2637 C 0.63971 0.55094 0.19268
 C2638 C 0.64047 0.54141 0.20855
 C2639 C 0.65475 0.53202 0.21265
 C2640 C 0.66879 0.53222 0.20110
 C2641 C 0.66792 0.54146 0.18503
 C2642 C 0.65359 0.55081 0.18088
 C2643 C 0.68468 0.52365 0.20586
 C2644 C 0.68950 0.52172 0.22362
 H2645 H 0.61602 0.56358 0.20018
 H2646 H 0.62992 0.54115 0.21779
 H2647 H 0.65469 0.52463 0.22489
 H2648 H 0.67856 0.54186 0.17591
 H2649 H 0.65363 0.55825 0.16868
 H2650 H 0.69374 0.52102 0.19533
 H2651 H 0.62656 0.56064 0.16048
 H2652 H 0.68124 0.52612 0.23418
 C2653 C 0.60375 1.05449 0.69409
 C2654 C 0.61062 1.05594 0.71118
 C2655 C 0.62568 1.04645 0.71700
 C2656 C 0.63475 1.05250 0.73167
 C2657 C 0.64919 1.04414 0.73740
 C2658 C 0.65487 1.02943 0.72857
 C2659 C 0.64548 1.02312 0.71426
 C2660 C 0.63106 1.03145 0.70855
 C2661 C 0.67048 1.02037 0.73348
 C2662 C 0.68242 1.02648 0.74544
 H2663 H 0.60507 1.06464 0.72068
 H2664 H 0.63076 1.06387 0.73861
 H2665 H 0.65573 1.04934 0.74871
 H2666 H 0.64938 1.01170 0.70733
 H2667 H 0.62415 1.02592 0.69766
 H2668 H 0.67321 1.00869 0.72639
 H2669 H 0.60939 1.04583 0.68462
 H2670 H 0.68041 1.03824 0.75255
 C2671 C 0.89449 0.44134 0.31060
 C2672 C 0.89171 0.45856 0.30746
 C2673 C 0.87738 0.46464 0.29684
 C2674 C 0.87179 0.48138 0.29910
 C2675 C 0.85813 0.48738 0.28946
 C2676 C 0.84978 0.47670 0.27735
 C2677 C 0.85589 0.46026 0.27446
 C2678 C 0.86955 0.45427 0.28405
 C2679 C 0.83456 0.48208 0.26779
 C2680 C 0.82380 0.49441 0.27456
 H2681 H 0.90047 0.46786 0.31259
 H2682 H 0.87790 0.48976 0.30850
 H2683 H 0.85424 0.50039 0.29152
 H2684 H 0.84989 0.45190 0.26495
 H2685 H 0.87398 0.44159 0.28121
 H2686 H 0.83084 0.47493 0.25612
 H2687 H 0.88561 0.43199 0.30586
 H2688 H 0.82680 0.50089 0.28686
 C2689 C 0.90030 0.94755 0.80140
 C2690 C 0.88755 0.93966 0.79175
 C2691 C 0.87263 0.94881 0.78526
 C2692 C 0.86330 0.94169 0.77135
 C2693 C 0.84857 0.94941 0.76557
 C2694 C 0.84276 0.96435 0.77383
 C2695 C 0.85224 0.97157 0.78757
 C2696 C 0.86694 0.96387 0.79332
 C2697 C 0.82683 0.97267 0.76898
 C2698 C 0.81430 0.96506 0.75881
 H2699 H 0.88811 0.92614 0.78922
 H2700 H 0.86740 0.93006 0.76496
 H2701 H 0.84190 0.94357 0.75469
 H2702 H 0.84803 0.98303 0.79422
 H2703 H 0.87342 0.96951 0.80446
 H2704 H 0.82439 0.98506 0.77474
 H2705 H 0.89982 0.96114 0.80356
 H2706 H 0.81605 0.95259 0.75310
 C2707 C 0.36493 0.31413 0.80706
 C2708 C 0.37065 0.31365 0.78937
 C2709 C 0.38637 0.30515 0.78390
 C2710 C 0.38825 0.30006 0.76604
 C2711 C 0.40272 0.29172 0.76033
 C2712 C 0.41569 0.28846 0.77239
 C2713 C 0.41385 0.29348 0.79026
 C2714 C 0.39941 0.30193 0.79596
 C2715 C 0.43133 0.28010 0.76667
 C2716 C 0.43803 0.28231 0.74954
 H2717 H 0.36260 0.31821 0.77887
 H2718 H 0.37839 0.30235 0.75651
 H2719 H 0.40361 0.28767 0.74654
 H2720 H 0.42375 0.29119 0.79974
 H2721 H 0.39872 0.30608 0.80970
 H2722 H 0.43866 0.27362 0.77671
 H2723 H 0.37210 0.30793 0.81737
 H2724 H 0.43169 0.29031 0.73997
 C2725 C 0.85806 0.31446 0.30498
 C2726 C 0.86631 0.31646 0.28855
 C2727 C 0.88273 0.30836 0.28464
 C2728 C 0.88695 0.30447 0.26686
 C2729 C 0.90193 0.29614 0.26271
 C2730 C 0.91317 0.29166 0.27629
 C2731 C 0.90903 0.29562 0.29406
 C2732 C 0.89408 0.30402 0.29821
 C2733 C 0.92927 0.28303 0.27231
 C2734 C 0.93794 0.28564 0.25623
 H2735 H 0.85971 0.32238 0.27761
 H2736 H 0.87845 0.30759 0.25615
 H2737 H 0.90449 0.29296 0.24889
 H2738 H 0.91752 0.29242 0.30475
 H2739 H 0.89161 0.30722 0.31203
 H2740 H 0.93521 0.27584 0.28286
 H2741 H 0.86397 0.30696 0.31528
 H2742 H 0.93288 0.29434 0.24643
 C2743 C 0.38406 0.82054 0.43571
 C2744 C 0.37837 0.80370 0.43612
 C2745 C 0.36385 0.79774 0.44698
 C2746 C 0.36171 0.78016 0.44963
 C2747 C 0.34833 0.77388 0.45990
 C2748 C 0.33678 0.78510 0.46770
 C2749 C 0.33889 0.80266 0.46517
 C2750 C 0.35217 0.80895 0.45475
 C2751 C 0.32237 0.77893 0.47841
 C2752 C 0.31426 0.76361 0.47480
 H2753 H 0.38558 0.79408 0.42922
 H2754 H 0.37050 0.77124 0.44384
 H2755 H 0.34721 0.76027 0.46192
 H2756 H 0.33005 0.81152 0.47099
 H2757 H 0.35298 0.82255 0.45273
 H2758 H 0.31685 0.78754 0.48808
 H2759 H 0.37795 0.82996 0.44396
 H2760 H 0.31855 0.75570 0.46386
 C2761 C 0.39415 0.31197 0.94033
 C2762 C 0.38662 0.29599 0.93808
 C2763 C 0.37161 0.29012 0.94842
 C2764 C 0.36753 0.27270 0.94856
 C2765 C 0.35326 0.26667 0.95768
 C2766 C 0.34263 0.27801 0.96679
 C2767 C 0.34680 0.29537 0.96687
 C2768 C 0.36099 0.30142 0.95767
 C2769 C 0.32701 0.27235 0.97604
 C2770 C 0.31790 0.25796 0.97098
 H2771 H 0.39220 0.28704 0.92888
 H2772 H 0.37544 0.26369 0.94158
 H2773 H 0.35069 0.25315 0.95764
 H2774 H 0.33879 0.30439 0.97371
 H2775 H 0.36326 0.31498 0.95757
 H2776 H 0.32149 0.28087 0.98580
 H2777 H 0.38951 0.32012 0.95086
 H2778 H 0.32251 0.25006 0.96020
 C2779 C 0.78496 0.47245 0.41874
 C2780 C 0.77705 0.46473 0.40433
 C2781 C 0.77517 0.47314 0.38677
 C2782 C 0.76273 0.46722 0.37527
 C2783 C 0.76150 0.47372 0.35795
 C2784 C 0.77298 0.48607 0.35163
 C2785 C 0.78511 0.49238 0.36330
 C2786 C 0.78630 0.48593 0.38068
 C2787 C 0.77266 0.49245 0.33299
 C2788 C 0.76604 0.48283 0.31913
 H2789 H 0.77277 0.45169 0.40545
 H2790 H 0.75399 0.45742 0.37967
 H2791 H 0.75151 0.46902 0.34964
 H2792 H 0.79403 0.50195 0.35877
 H2793 H 0.79635 0.49051 0.38898
 H2794 H 0.77827 0.50474 0.33002
 H2795 H 0.78877 0.48564 0.41760
 H2796 H 0.76122 0.47017 0.32178
 C2797 C 0.80310 0.93392 0.90731
 C2798 C 0.80860 0.94651 0.89531
 C2799 C 0.79853 0.95239 0.87989
 C2800 C 0.80218 0.96829 0.87215
 C2801 C 0.79349 0.97400 0.85715
 C2802 C 0.78106 0.96374 0.84934
 C2803 C 0.77724 0.94794 0.85724
 C2804 C 0.78592 0.94225 0.87225
 C2805 C 0.77201 0.96893 0.83297
 C2806 C 0.77846 0.98073 0.82065
 H2807 H 0.82079 0.95230 0.89699
 H2808 H 0.81181 0.97637 0.87776
 H2809 H 0.79651 0.98647 0.85185
 H2810 H 0.76776 0.93977 0.85151
 H2811 H 0.78300 0.92970 0.87741
 H2812 H 0.76049 0.96229 0.82983
 H2813 H 0.79071 0.92856 0.90572
 H2814 H 0.79049 0.98666 0.82296
 C2815 C 0.30869 0.80373 0.35001
 C2816 C 0.29638 0.81038 0.36143
 C2817 C 0.28923 0.80059 0.37689
 C2818 C 0.28212 0.80945 0.39134
 C2819 C 0.27603 0.80073 0.40649
 C2820 C 0.27678 0.78285 0.40745
 C2821 C 0.28357 0.77397 0.39287
 C2822 C 0.28954 0.78267 0.37769
 C2823 C 0.27153 0.77317 0.42374
 C2824 C 0.26000 0.77930 0.43631
 H2825 H 0.29281 0.82357 0.36003
 H2826 H 0.28165 0.82323 0.39112
 H2827 H 0.27125 0.80810 0.41759
 H2828 H 0.28426 0.76021 0.39321
 H2829 H 0.29431 0.77523 0.36665
 H2830 H 0.27699 0.76075 0.42589
 H2831 H 0.31319 0.79104 0.35275
 H2832 H 0.25365 0.79118 0.43376
 C2833 C 0.31712 0.31046 0.84893
 C2834 C 0.30035 0.30559 0.85048
 C2835 C 0.29408 0.29494 0.86554
 C2836 C 0.27715 0.29583 0.87059
 C2837 C 0.27102 0.28633 0.88514
 C2838 C 0.28177 0.27569 0.89489
 C2839 C 0.29846 0.27410 0.88921
 C2840 C 0.30458 0.28360 0.87470
 C2841 C 0.27619 0.26650 0.91126
 C2842 C 0.26333 0.27252 0.92222
 H2843 H 0.29157 0.30958 0.84038
 H2844 H 0.26871 0.30412 0.86346
 H2845 H 0.25789 0.28737 0.88865
 H2846 H 0.30691 0.26575 0.89627
 H2847 H 0.31751 0.28189 0.87068
 H2848 H 0.28365 0.25592 0.91589
 H2849 H 0.32577 0.30681 0.85928
 H2850 H 0.25656 0.28382 0.91837
 C2851 C 0.43282 0.30942 0.88678
 C2852 C 0.44843 0.31169 0.87832
 C2853 C 0.45346 0.30365 0.86108
 C2854 C 0.46739 0.31035 0.85180
 C2855 C 0.47293 0.30318 0.83572
 C2856 C 0.46481 0.28882 0.82855
 C2857 C 0.45075 0.28220 0.83773
 C2858 C 0.44516 0.28943 0.85384
 C2859 C 0.47034 0.28079 0.81145
 C2860 C 0.48605 0.28376 0.80350
 H2861 H 0.45758 0.31995 0.88442
 H2862 H 0.47399 0.32133 0.85695
 H2863 H 0.48342 0.30919 0.82893
 H2864 H 0.44415 0.27124 0.83251
 H2865 H 0.43456 0.28361 0.86063
 H2866 H 0.46170 0.27226 0.80485
 H2867 H 0.42374 0.30100 0.88082
 H2868 H 0.49507 0.29179 0.81010
 C2869 C 0.93366 0.30029 0.39609
 C2870 C 0.95003 0.30111 0.38923
 C2871 C 0.95541 0.29305 0.37220
 C2872 C 0.97259 0.29070 0.36894
 C2873 C 0.97831 0.28394 0.35272
 C2874 C 0.96692 0.27955 0.33927
 C2875 C 0.94972 0.28161 0.34262
 C2876 C 0.94400 0.28839 0.35884
 C2877 C 0.97247 0.27304 0.32158
 C2878 C 0.98824 0.27656 0.31411
 H2879 H 0.95956 0.30750 0.39691
 H2880 H 0.98165 0.29414 0.37899
 H2881 H 0.99162 0.28212 0.35088
 H2882 H 0.94069 0.27836 0.33248
 H2883 H 0.93070 0.29036 0.36056
 H2884 H 0.96326 0.26660 0.31346
 H2885 H 0.92460 0.29215 0.38965
 H2886 H 0.99718 0.28414 0.32143
 C2887 C 0.44835 0.40864 0.79115
 C2888 C 0.44282 0.39378 0.78301
 C2889 C 0.45423 0.37977 0.77815
 C2890 C 0.44936 0.36846 0.76476
 C2891 C 0.45957 0.35482 0.76006
 C2892 C 0.47490 0.35220 0.76874
 C2893 C 0.47955 0.36318 0.78254
 C2894 C 0.46935 0.37690 0.78719
 C2895 C 0.48565 0.33757 0.76419
 C2896 C 0.48571 0.33069 0.74709
 H2897 H 0.42962 0.39211 0.78034
 H2898 H 0.43759 0.37015 0.75792
 H2899 H 0.45518 0.34614 0.74992
 H2900 H 0.49109 0.36114 0.78970
 H2901 H 0.47318 0.38492 0.79814
 H2902 H 0.49298 0.33169 0.77462
 H2903 H 0.46158 0.41041 0.79356
 H2904 H 0.47905 0.33713 0.73652
 C2905 C 0.93930 0.39921 0.30495
 C2906 C 0.95593 0.39388 0.30535
 C2907 C 0.96206 0.37961 0.29424
 C2908 C 0.97917 0.37872 0.28986
 C2909 C 0.98524 0.36562 0.27901
 C2910 C 0.97423 0.35320 0.27241
 C2911 C 0.95719 0.35403 0.27685
 C2912 C 0.95117 0.36692 0.28787
 C2913 C 0.98005 0.33892 0.26132
 C2914 C 0.99532 0.33095 0.26417
 H2915 H 0.96503 0.40108 0.31285
 H2916 H 0.98782 0.38828 0.29466
 H2917 H 0.99845 0.36536 0.27563
 H2918 H 0.94854 0.34442 0.27212
 H2919 H 0.93804 0.36664 0.29151
 H2920 H 0.97097 0.33284 0.25275
 H2921 H 0.93081 0.39305 0.29583
 H2922 H 1.00393 0.33603 0.27390
 C2923 C 0.30659 0.90300 0.45863
 C2924 C 0.31293 0.88701 0.46289
 C2925 C 0.30216 0.87228 0.46793
 C2926 C 0.30952 0.85830 0.47640
 C2927 C 0.29999 0.84392 0.48085
 C2928 C 0.28279 0.84320 0.47693
 C2929 C 0.27551 0.85696 0.46801
 C2930 C 0.28505 0.87138 0.46357
 C2931 C 0.27247 0.82801 0.48135
 C2932 C 0.27638 0.81739 0.49563
 H2933 H 0.32631 0.88497 0.46187
 H2934 H 0.32274 0.85846 0.47951
 H2935 H 0.30626 0.83325 0.48699
 H2936 H 0.26239 0.85655 0.46447
 H2937 H 0.27899 0.88153 0.45635
 H2938 H 0.26173 0.82508 0.47316
 H2939 H 0.29328 0.90528 0.45977
 H2940 H 0.28653 0.82087 0.50439
 C2941 C 0.28742 0.40711 0.95350
 C2942 C 0.28818 0.39844 0.96981
 C2943 C 0.28172 0.38090 0.97225
 C2944 C 0.28849 0.37071 0.98577
 C2945 C 0.28326 0.35383 0.98801
 C2946 C 0.27107 0.34682 0.97670
 C2947 C 0.26382 0.35724 0.96367
 C2948 C 0.26903 0.37410 0.96146
 C2949 C 0.26537 0.32891 0.97817
 C2950 C 0.27412 0.31627 0.98723
 H2951 H 0.29441 0.40427 0.98101
 H2952 H 0.29805 0.37575 0.99447
 H2953 H 0.28874 0.34650 0.99868
 H2954 H 0.25416 0.35227 0.95504
 H2955 H 0.26295 0.38173 0.95139
 H2956 H 0.25400 0.32542 0.97127
 H2957 H 0.28120 0.40118 0.94235
 H2958 H 0.28577 0.31916 0.99379
 C2959 C 0.80669 0.35152 0.29588
 C2960 C 0.81429 0.36711 0.29169
 C2961 C 0.80468 0.38258 0.28674
 C2962 C 0.81303 0.39595 0.27784
 C2963 C 0.80459 0.41092 0.27342
 C2964 C 0.78751 0.41292 0.27784
 C2965 C 0.77926 0.39973 0.28713
 C2966 C 0.78769 0.38472 0.29152
 C2967 C 0.77827 0.42880 0.27361
 C2968 C 0.78311 0.43959 0.25959
 H2969 H 0.82778 0.36821 0.29241
 H2970 H 0.82618 0.39484 0.27435
 H2971 H 0.81166 0.42103 0.26694
 H2972 H 0.76622 0.40105 0.29103
 H2973 H 0.78090 0.37509 0.29904
 H2974 H 0.76737 0.43200 0.28164
 H2975 H 0.79324 0.35031 0.29482
 H2976 H 0.79339 0.43591 0.25091
   
