data_POSCAR
  _audit_creation_date              2014-09-24
  _audit_creation_method            'ToBaCCo'
  _symmetry_space_group_name_H-M    'P1'
  _symmetry_Int_Tables_number       1
  _symmetry_cell_setting            triclinic
  loop_
  _symmetry_equiv_pos_as_xyz
 x,y,z
_cell_length_a 45.5958
_cell_length_b 46.1672
_cell_length_c 44.5481
_cell_angle_alpha 90.200600
_cell_angle_beta 89.719800
_cell_angle_gamma 90.150700
loop_
  _atom_site_label
  _atom_site_type_symbol
  _atom_site_fract_x
  _atom_site_fract_y
  _atom_site_fract_z
C1 C 1.20393 0.26165 0.29165
 H2 H 1.19964 0.23864 0.29006
 C3 C 1.18602 0.27921 0.30955
 H4 H 1.16772 0.26956 0.32148
 C5 C 1.23280 0.30220 0.27757
 H6 H 1.25129 0.31100 0.26535
 C7 C 1.21544 0.32053 0.29515
 H8 H 1.22084 0.34336 0.29634
 N9 N 1.22680 0.27335 0.27614
 C10 C 1.22958 0.19508 0.22928
 H11 H 1.24592 0.18542 0.24345
 C12 C 1.21212 0.17711 0.21151
 H13 H 1.21589 0.15397 0.21178
 C14 C 1.20462 0.23659 0.21187
 H15 H 1.20113 0.25970 0.21278
 C16 C 1.18658 0.21939 0.19378
 H17 H 1.16956 0.22958 0.18069
 Zn18 Zn 1.25070 0.24878 0.25239
 N19 N 1.22607 0.22435 0.22873
 C20 C 1.29460 0.20782 0.26465
 N21 N 1.27474 0.22582 0.27767
 C22 C 1.27258 0.22798 0.30799
 C23 C 1.29073 0.21154 0.32647
 C24 C 1.31337 0.19121 0.28213
 C25 C 1.26302 0.28882 0.20565
 C26 C 1.28063 0.30627 0.18736
 C27 C 1.32318 0.28880 0.21363
 C28 C 1.30476 0.27199 0.23162
 N29 N 1.27525 0.27191 0.22717
 H30 H 1.29588 0.20641 0.24042
 H31 H 1.25705 0.24282 0.31800
 H32 H 1.28885 0.21531 0.35035
 H33 H 1.32761 0.17638 0.27024
 H34 H 1.23955 0.28929 0.20297
 H35 H 1.27032 0.31998 0.17084
 H36 H 1.34661 0.28796 0.21730
 H37 H 1.31424 0.25935 0.24939
 C38 C 1.19039 0.18921 0.19325
 C39 C 1.19168 0.30910 0.31146
 C40 C 1.31120 0.30636 0.19116
 C41 C 1.31200 0.19262 0.31390
 C42 C 0.70373 -0.23825 0.28847
 H43 H 0.69951 -0.26118 0.28580
 C44 C 0.68504 -0.22143 0.30623
 H45 H 0.66648 -0.23145 0.31739
 C46 C 0.73295 -0.19713 0.27707
 H47 H 0.75141 -0.18765 0.26542
 C48 C 0.71520 -0.17965 0.29515
 H49 H 0.72014 -0.15678 0.29735
 N50 N 0.72708 -0.22592 0.27421
 C51 C 0.73693 -0.29703 0.21150
 H52 H 0.75906 -0.30398 0.21590
 C53 C 0.71907 -0.31375 0.19285
 H54 H 0.72757 -0.33366 0.18333
 C55 C 0.69882 -0.26282 0.21847
 H56 H 0.69123 -0.24259 0.22792
 C57 C 0.68014 -0.27902 0.20019
 H58 H 0.65817 -0.27124 0.19591
 Zn59 Zn 0.75104 -0.24973 0.24948
 N60 N 0.72651 -0.27223 0.22416
 C61 C 0.79754 -0.28826 0.26116
 N62 N 0.77435 -0.27424 0.27382
 C63 C 0.76810 -0.27708 0.30356
 C64 C 0.78504 -0.29508 0.32162
 C65 C 0.81506 -0.30654 0.27840
 C66 C 0.76997 -0.22380 0.19562
 C67 C 0.78746 -0.20621 0.17742
 C68 C 0.81711 -0.19462 0.22065
 C69 C 0.79907 -0.21251 0.23804
 N70 N 0.77590 -0.22647 0.22537
 H71 H 0.80263 -0.28504 0.23767
 H72 H 0.74991 -0.26551 0.31343
 H73 H 0.77935 -0.29741 0.34512
 H74 H 0.83355 -0.31732 0.26797
 H75 H 0.75139 -0.23500 0.18602
 H76 H 0.78201 -0.20393 0.15392
 H77 H 0.83552 -0.18375 0.23108
 H78 H 0.80338 -0.21516 0.26173
 C79 C 0.69022 -0.30488 0.18721
 C80 C 0.69087 -0.19181 0.30980
 C81 C 0.81132 -0.19122 0.18991
 C82 C 0.80883 -0.31019 0.30907
 C83 C 0.70211 0.25939 -0.20901
 H84 H 0.69838 0.23635 -0.21139
 C85 C 0.68343 0.27593 -0.19093
 H86 H 0.66538 0.26557 -0.17921
 C87 C 0.72997 0.30110 -0.22155
 H88 H 0.74779 0.31099 -0.23383
 C89 C 0.71225 0.31830 -0.20316
 H90 H 0.71665 0.34130 -0.20130
 N91 N 0.72486 0.27212 -0.22392
 C92 C 0.73517 0.20143 -0.28730
 H93 H 0.75750 0.19485 -0.28335
 C94 C 0.71740 0.18466 -0.30599
 H95 H 0.72617 0.16508 -0.31599
 C96 C 0.69650 0.23478 -0.27921
 H97 H 0.68863 0.25471 -0.26931
 C98 C 0.67789 0.21852 -0.29753
 H99 H 0.65573 0.22597 -0.30139
 Zn100 Zn 0.74896 0.24852 -0.24888
 N101 N 0.72445 0.22584 -0.27410
 C102 C 0.79590 0.21046 -0.23783
 N103 N 0.77266 0.22410 -0.22481
 C104 C 0.76675 0.22091 -0.19503
 C105 C 0.78408 0.20293 -0.17733
 C106 C 0.81380 0.19223 -0.22096
 C107 C 0.76936 0.27268 -0.30320
 C108 C 0.78678 0.29027 -0.32147
 C109 C 0.81304 0.30601 -0.27740
 C110 C 0.79534 0.28772 -0.26011
 N111 N 0.77369 0.27192 -0.27310
 H112 H 0.80074 0.21397 -0.26133
 H113 H 0.74853 0.23220 -0.18486
 H114 H 0.77865 0.20032 -0.15380
 H115 H 0.83233 0.18178 -0.23169
 H116 H 0.75191 0.26005 -0.31311
 H117 H 0.78108 0.29105 -0.34496
 H118 H 0.83049 0.31728 -0.26587
 H119 H 0.79875 0.28624 -0.23614
 C120 C 0.68830 0.19309 -0.31113
 C121 C 0.68864 0.30568 -0.18773
 C122 C 0.80910 0.30792 -0.30891
 C123 C 0.80792 0.18821 -0.19027
 C124 C 1.20671 -0.23860 -0.21094
 H125 H 1.20216 -0.26158 -0.21210
 C126 C 1.18924 -0.22062 -0.19304
 H127 H 1.17102 -0.22992 -0.18070
 C128 C 1.23584 -0.19857 -0.22601
 H129 H 1.25431 -0.19015 -0.23855
 C130 C 1.21891 -0.17981 -0.20845
 H131 H 1.22457 -0.15703 -0.20764
 N132 N 1.22947 -0.22736 -0.22695
 C133 C 1.22919 -0.30685 -0.27054
 H134 H 1.24469 -0.31649 -0.25541
 C135 C 1.21122 -0.32491 -0.28769
 H136 H 1.21388 -0.34815 -0.28605
 C137 C 1.20657 -0.26524 -0.29076
 H138 H 1.20416 -0.24200 -0.29124
 C139 C 1.18806 -0.28251 -0.30824
 H140 H 1.17178 -0.27224 -0.32222
 Zn141 Zn 1.25265 -0.25287 -0.25038
 N142 N 1.22715 -0.27752 -0.27286
 C143 C 1.29488 -0.29551 -0.23696
 N144 N 1.27670 -0.27534 -0.22463
 C145 C 1.27621 -0.27049 -0.19449
 C146 C 1.29436 -0.28637 -0.17551
 C147 C 1.31328 -0.31192 -0.21883
 C148 C 1.26477 -0.21275 -0.29707
 C149 C 1.28233 -0.19580 -0.31589
 C150 C 1.32517 -0.21639 -0.29271
 C151 C 1.30681 -0.23270 -0.27416
 N152 N 1.27714 -0.23088 -0.27672
 H153 H 1.29515 -0.29874 -0.26103
 H154 H 1.26199 -0.25407 -0.18511
 H155 H 1.29394 -0.28188 -0.15164
 H156 H 1.32716 -0.32818 -0.22912
 H157 H 1.24125 -0.21072 -0.29819
 H158 H 1.27196 -0.18099 -0.33132
 H159 H 1.34869 -0.21859 -0.29045
 H160 H 1.31651 -0.24645 -0.25743
 C161 C 1.19048 -0.31280 -0.30711
 C162 C 1.19527 -0.19078 -0.19162
 C163 C 1.31301 -0.19746 -0.31383
 C164 C 1.31323 -0.30743 -0.18764
 C165 C 0.26346 0.21296 0.70095
 H166 H 0.23996 0.21161 0.69873
 C167 C 0.28124 0.19597 0.68234
 H168 H 0.27105 0.18176 0.66605
 C169 C 0.30514 0.23134 0.72617
 H170 H 0.31456 0.24448 0.74372
 C171 C 0.32372 0.21500 0.70786
 H172 H 0.34718 0.21660 0.71112
 N173 N 0.27555 0.23027 0.72239
 C174 C 0.20599 0.23838 0.78932
 H175 H 0.20259 0.26156 0.78936
 C176 C 0.18854 0.22061 0.80739
 H177 H 0.17127 0.23075 0.82037
 C178 C 0.23203 0.19775 0.77088
 H179 H 0.24946 0.18897 0.75711
 C180 C 0.21487 0.17909 0.78829
 H181 H 0.22015 0.15627 0.78775
 Zn182 Zn 0.25090 0.25224 0.74862
 N183 N 0.22736 0.22678 0.77172
 C184 C 0.20464 0.26430 0.70867
 N185 N 0.22566 0.27677 0.72607
 C186 C 0.22819 0.30612 0.72786
 C187 C 0.21026 0.32398 0.71068
 C188 C 0.18614 0.28137 0.69118
 C189 C 0.27428 0.27001 0.80480
 C190 C 0.29246 0.28590 0.82393
 C191 C 0.31190 0.31114 0.78078
 C192 C 0.29345 0.29473 0.76249
 N193 N 0.27494 0.27475 0.77467
 H194 H 0.20186 0.24108 0.70866
 H195 H 0.24407 0.31594 0.74257
 H196 H 0.21330 0.34722 0.71188
 H197 H 0.16948 0.27096 0.67764
 H198 H 0.25995 0.25363 0.81407
 H199 H 0.29188 0.28152 0.84778
 H200 H 0.32606 0.32725 0.77061
 H201 H 0.29397 0.29778 0.73843
 C202 C 0.19270 0.19028 0.80728
 C203 C 0.31185 0.19680 0.68571
 C204 C 0.31160 0.30681 0.81196
 C205 C 0.18902 0.31166 0.69179
 C206 C 0.76493 0.72423 0.69609
 H207 H 0.74736 0.73624 0.68594
 C208 C 0.78210 0.70610 0.67811
 H209 H 0.77708 0.70406 0.65447
 C210 C 0.79293 0.71229 0.73890
 H211 H 0.79763 0.71545 0.76243
 C212 C 0.81066 0.69388 0.72173
 H213 H 0.82875 0.68282 0.73235
 N214 N 0.77028 0.72674 0.72602
 C215 C 0.69306 0.73468 0.77800
 H216 H 0.68368 0.75232 0.76550
 C217 C 0.67488 0.71797 0.79638
 H218 H 0.65187 0.72356 0.79753
 C219 C 0.73467 0.70830 0.79341
 H220 H 0.75798 0.70458 0.79226
 C221 C 0.71741 0.69132 0.81246
 H222 H 0.72810 0.67415 0.82466
 Zn223 Zn 0.74671 0.75159 0.75031
 N224 N 0.72232 0.72923 0.77628
 C225 C 0.70086 0.76244 0.70949
 N226 N 0.72293 0.77510 0.72537
 C227 C 0.72801 0.80412 0.72371
 C228 C 0.71075 0.82150 0.70531
 C229 C 0.68267 0.77912 0.69137
 C230 C 0.76542 0.77917 0.80348
 C231 C 0.78318 0.79694 0.82118
 C232 C 0.81336 0.80655 0.77760
 C233 C 0.79505 0.78852 0.76072
 N234 N 0.77157 0.77535 0.77383
 H235 H 0.69728 0.73932 0.71111
 H236 H 0.74548 0.81386 0.73655
 H237 H 0.71506 0.84455 0.70407
 H238 H 0.66512 0.76882 0.67895
 H239 H 0.74649 0.76871 0.81338
 H240 H 0.77763 0.80005 0.84463
 H241 H 0.83209 0.81668 0.76686
 H242 H 0.79946 0.78506 0.73710
 C243 C 0.68679 0.69562 0.81403
 C244 C 0.80528 0.69054 0.69089
 C245 C 0.80750 0.81095 0.80828
 C246 C 0.68771 0.80896 0.68907
 C247 C 0.76820 0.22319 0.19412
 H248 H 0.74979 0.23442 0.18446
 C249 C 0.78537 0.20535 0.17580
 H250 H 0.77999 0.20324 0.15225
 C251 C 0.79655 0.21096 0.23657
 H252 H 0.80065 0.21269 0.26030
 C253 C 0.81426 0.19285 0.21908
 H254 H 0.83219 0.18143 0.22956
 N255 N 0.77404 0.22584 0.22395
 C256 C 0.70729 0.23918 0.29322
 H257 H 0.70606 0.26257 0.29373
 C258 C 0.68905 0.22274 0.31183
 H259 H 0.67376 0.23345 0.32685
 C260 C 0.72844 0.19653 0.27271
 H261 H 0.74349 0.18641 0.25711
 C262 C 0.71112 0.17931 0.29146
 H263 H 0.71299 0.15594 0.29037
 Zn264 Zn 0.74881 0.24949 0.24806
 N265 N 0.72612 0.22589 0.27383
 C266 C 0.69393 0.26585 0.22340
 N267 N 0.72341 0.27046 0.22229
 C268 C 0.73534 0.28960 0.20251
 C269 C 0.71737 0.30595 0.18383
 C270 C 0.67516 0.28165 0.20504
 C271 C 0.78757 0.26422 0.29482
 C272 C 0.80416 0.28227 0.31342
 C273 C 0.78459 0.32362 0.28740
 C274 C 0.76855 0.30476 0.26915
 N275 N 0.77077 0.27556 0.27263
 H276 H 0.68482 0.24985 0.23840
 H277 H 0.75888 0.29244 0.20157
 H278 H 0.72728 0.32173 0.16897
 H279 H 0.65178 0.27763 0.20627
 H280 H 0.78781 0.24114 0.29849
 H281 H 0.81797 0.27260 0.33033
 H282 H 0.78227 0.34674 0.28430
 H283 H 0.75408 0.31368 0.25253
 C284 C 0.69098 0.19250 0.31097
 C285 C 0.80875 0.18984 0.18825
 C286 C 0.80299 0.31245 0.30972
 C287 C 0.68680 0.30228 0.18518
 C288 C 0.26258 0.70869 0.20711
 H289 H 0.23898 0.70655 0.20580
 C290 C 0.28050 0.69147 0.18892
 H291 H 0.27046 0.67590 0.17391
 C292 C 0.30417 0.73090 0.22912
 H293 H 0.31342 0.74603 0.24501
 C294 C 0.32290 0.71425 0.21123
 H295 H 0.34636 0.71727 0.21322
 N296 N 0.27457 0.72809 0.22661
 C297 C 0.20338 0.73729 0.29236
 H298 H 0.19940 0.76027 0.29259
 C299 C 0.18615 0.71927 0.31042
 H300 H 0.16866 0.72867 0.32374
 C301 C 0.23108 0.69715 0.27530
 H302 H 0.24910 0.68854 0.26228
 C303 C 0.21437 0.67835 0.29300
 H304 H 0.21967 0.65550 0.29315
 Zn305 Zn 0.24914 0.75106 0.25090
 N306 N 0.22523 0.72606 0.27497
 C307 C 0.20833 0.79569 0.23902
 N308 N 0.22583 0.77534 0.22597
 C309 C 0.22808 0.77337 0.19555
 C310 C 0.21157 0.79142 0.17712
 C311 C 0.19122 0.81402 0.22143
 C312 C 0.27258 0.77111 0.30609
 C313 C 0.29038 0.78843 0.32424
 C314 C 0.30646 0.81404 0.27993
 C315 C 0.28801 0.79648 0.26281
 N316 N 0.27191 0.77525 0.27596
 H317 H 0.20797 0.79813 0.26311
 H318 H 0.24299 0.75813 0.18533
 H319 H 0.21406 0.78960 0.15301
 H320 H 0.17693 0.82951 0.23241
 H321 H 0.25982 0.75385 0.31606
 H322 H 0.29113 0.78299 0.34779
 H323 H 0.31789 0.83118 0.26823
 H324 H 0.28670 0.79957 0.23878
 C325 C 0.19151 0.68934 0.31086
 C326 C 0.31113 0.69420 0.19076
 C327 C 0.30835 0.81033 0.31145
 C328 C 0.19255 0.81193 0.18998
 N329 N 0.97044 -0.03142 0.05088
 N330 N 0.95143 -0.03807 0.07224
 N331 N 1.03206 -0.05148 0.03020
 N332 N 1.05101 -0.07205 0.03666
 N333 N 1.03207 -0.03138 0.05113
 N334 N 1.05112 -0.03777 0.07234
 N335 N 0.97050 -0.05141 0.02983
 N336 N 0.95153 -0.07212 0.03634
 C337 C 0.93948 -0.06334 0.06267
 C338 C 1.06305 -0.06306 0.06281
 N339 N 1.03318 -0.03151 -0.05543
 N340 N 1.05266 -0.03799 -0.07643
 N341 N 0.97120 -0.05140 -0.03494
 N342 N 0.95190 -0.07181 -0.04137
 N343 N 0.97157 -0.03150 -0.05594
 N344 N 0.95255 -0.03794 -0.07723
 N345 N 1.03280 -0.05149 -0.03451
 N346 N 1.05201 -0.07199 -0.04071
 Mn347 Mn 1.00162 -0.05165 -0.00237
 C348 C 1.06453 -0.06315 -0.06674
 C349 C 0.94015 -0.06299 -0.06764
 N350 N 1.03212 0.03122 0.05136
 N351 N 1.05079 0.03783 0.07289
 N352 N 0.97076 0.05112 0.03009
 N353 N 0.95153 0.07159 0.03640
 N354 N 0.97054 0.03116 0.05102
 N355 N 0.95116 0.03760 0.07213
 N356 N 1.03236 0.05127 0.03051
 N357 N 1.05123 0.07197 0.03732
 Mn358 Mn 1.00130 -0.00010 0.05135
 C359 C 1.06287 0.06313 0.06365
 C360 C 0.93918 0.06272 0.06250
 N361 N 0.97172 0.03114 -0.05575
 N362 N 0.95262 0.03748 -0.07693
 N363 N 1.03301 0.05122 -0.03424
 N364 N 1.05199 0.07195 -0.04054
 N365 N 1.03336 0.03117 -0.05524
 N366 N 1.05268 0.03780 -0.07634
 N367 N 0.97145 0.05107 -0.03464
 N368 N 0.95217 0.07140 -0.04087
 Mn369 Mn 1.00248 -0.00017 -0.05587
 Mn370 Mn 1.00189 0.05138 -0.00207
 Cl371 Cl 1.00182 -0.00014 -0.00224
 C372 C 0.94031 0.06251 -0.06715
 C373 C 1.06442 0.06315 -0.06666
 N374 N 1.02718 0.44784 0.53309
 N375 N 1.04610 0.42722 0.53956
 N376 N 0.96574 0.46855 0.55366
 N377 N 0.94689 0.46192 0.57518
 N378 N 0.96553 0.44860 0.53256
 N379 N 0.94640 0.42804 0.53912
 N380 N 1.02724 0.46794 0.55402
 N381 N 1.04614 0.46145 0.57530
 C382 C 1.05804 0.43616 0.56580
 C383 C 0.93464 0.43681 0.56558
 N384 N 0.96702 0.55113 0.53278
 N385 N 0.94808 0.57186 0.53914
 N386 N 1.02809 0.53055 0.55418
 N387 N 1.04700 0.53686 0.57560
 N388 N 1.02862 0.55052 0.53327
 N389 N 1.04797 0.57084 0.53987
 N390 N 0.96652 0.53115 0.55369
 N391 N 0.94725 0.53782 0.57482
 Mn392 Mn 0.99690 0.49955 0.55413
 C393 C 0.93562 0.56312 0.56524
 C394 C 1.05954 0.56188 0.56617
 N395 N 0.96638 0.44858 0.46780
 N396 N 0.94652 0.42865 0.46148
 N397 N 1.02871 0.46775 0.44748
 N398 N 1.04820 0.46112 0.42654
 N399 N 1.02801 0.44772 0.46834
 N400 N 1.04702 0.42701 0.46215
 N401 N 0.96714 0.46847 0.44681
 N402 N 0.94789 0.46250 0.42560
 Mn403 Mn 0.99676 0.44795 0.50044
 C404 C 0.93492 0.43777 0.43524
 C405 C 1.05973 0.43580 0.43619
 N406 N 1.02950 0.55045 0.46858
 N407 N 1.04893 0.57083 0.46241
 N408 N 0.96801 0.53105 0.44693
 N409 N 0.94922 0.53763 0.42556
 N410 N 0.96790 0.55104 0.46798
 N411 N 0.94903 0.57168 0.46148
 N412 N 1.02960 0.53041 0.44758
 N413 N 1.04908 0.53674 0.42653
 Mn414 Mn 0.99825 0.55100 0.50065
 Mn415 Mn 0.99838 0.49941 0.44693
 Cl416 Cl 0.99757 0.49948 0.50054
 C417 C 1.06127 0.56185 0.43630
 C418 C 0.93725 0.56289 0.43513
 N419 N 0.55155 0.03061 0.53148
 N420 N 0.57189 0.05008 0.53756
 N421 N 0.53145 -0.03053 0.55191
 N422 N 0.53777 -0.04985 0.57268
 N423 N 0.55189 -0.03006 0.53106
 N424 N 0.57274 -0.04883 0.53719
 N425 N 0.53125 0.03043 0.55248
 N426 N 0.53727 0.04986 0.57341
 C427 C 0.56256 0.06218 0.56361
 C428 C 0.56347 -0.06132 0.56299
 N429 N 0.44805 -0.03092 0.53105
 N430 N 0.42788 -0.05071 0.53684
 N431 N 0.46798 0.02994 0.55249
 N432 N 0.46196 0.04950 0.57328
 N433 N 0.44785 0.02999 0.53152
 N434 N 0.42768 0.04968 0.53740
 N435 N 0.46823 -0.03081 0.55197
 N436 N 0.46227 -0.05044 0.57258
 Mn437 Mn 0.49972 -0.00025 0.55252
 C438 C 0.43720 -0.06292 0.56268
 C439 C 0.43691 0.06187 0.56339
 N440 N 0.55215 -0.02979 0.46645
 N441 N 0.57300 -0.04860 0.46019
 N442 N 0.53179 0.03098 0.44599
 N443 N 0.53837 0.05029 0.42516
 N444 N 0.55193 0.03079 0.46694
 N445 N 0.57278 0.04972 0.46087
 N446 N 0.53200 -0.03005 0.44550
 N447 N 0.53857 -0.04927 0.42448
 Mn448 Mn 0.55207 0.00039 0.49898
 C449 C 0.56409 -0.06088 0.43417
 C450 C 0.56388 0.06203 0.43499
 N451 N 0.44812 0.03026 0.46691
 N452 N 0.42787 0.04985 0.46129
 N453 N 0.46858 -0.03029 0.44534
 N454 N 0.46231 -0.04932 0.42411
 N455 N 0.44835 -0.03062 0.46642
 N456 N 0.42793 -0.05000 0.46020
 N457 N 0.46846 0.03048 0.44595
 N458 N 0.46252 0.05015 0.42545
 Mn459 Mn 0.44782 -0.00033 0.49898
 Mn460 Mn 0.50021 0.00028 0.44537
 Cl461 Cl 0.49994 0.00001 0.49895
 C462 C 0.43728 0.06231 0.43550
 C463 C 0.43707 -0.06174 0.43390
 N464 N 0.55236 0.53053 0.03335
 N465 N 0.57282 0.55003 0.03891
 N466 N 0.53187 0.47005 0.05490
 N467 N 0.53753 0.45030 0.07541
 N468 N 0.55201 0.46974 0.03375
 N469 N 0.57186 0.44974 0.03924
 N470 N 0.53212 0.53093 0.05440
 N471 N 0.53828 0.55078 0.07484
 C472 C 0.56362 0.56274 0.06468
 C473 C 0.56242 0.43759 0.06517
 N474 N 0.44838 0.46985 0.03443
 N475 N 0.42800 0.45041 0.04068
 N476 N 0.46884 0.53093 0.05483
 N477 N 0.46275 0.55044 0.07565
 N478 N 0.44854 0.53074 0.03401
 N479 N 0.42819 0.55020 0.04008
 N480 N 0.46859 0.47020 0.05533
 N481 N 0.46240 0.45110 0.07642
 Mn482 Mn 0.50036 0.50054 0.05517
 C483 C 0.43719 0.43866 0.06679
 C484 C 0.43750 0.56255 0.06597
 N485 N 0.55214 0.46922 -0.03080
 N486 N 0.57277 0.45012 -0.03690
 N487 N 0.53210 0.52984 -0.05201
 N488 N 0.53816 0.54940 -0.07272
 N489 N 0.55236 0.52988 -0.03118
 N490 N 0.57275 0.54934 -0.03717
 N491 N 0.53185 0.46884 -0.05161
 N492 N 0.53809 0.44923 -0.07235
 Mn493 Mn 0.55245 0.49984 0.00129
 C494 C 0.56356 0.43752 -0.06265
 C495 C 0.56348 0.56159 -0.06297
 N496 N 0.44850 0.53002 -0.03063
 N497 N 0.42831 0.54958 -0.03647
 N498 N 0.46858 0.46900 -0.05125
 N499 N 0.46249 0.44925 -0.07182
 N500 N 0.44829 0.46925 -0.03024
 N501 N 0.42786 0.44975 -0.03598
 N502 N 0.46878 0.52988 -0.05167
 N503 N 0.46289 0.54938 -0.07237
 Mn504 Mn 0.44816 0.49996 0.00189
 Mn505 Mn 0.50032 0.49939 -0.05197
 Cl506 Cl 0.50031 0.49993 0.00159
 C507 C 0.43770 0.56172 -0.06242
 C508 C 0.43716 0.43719 -0.06182
 C509 C 1.13747 0.13453 0.13709
 C510 C 1.14720 0.16139 0.12615
 C511 C 1.16441 0.17923 0.14462
 C512 C 1.17183 0.17041 0.17388
 C513 C 1.16175 0.14338 0.18446
 C514 C 1.14462 0.12535 0.16615
 C515 C 1.11924 0.11574 0.11783
 C516 C 1.10933 0.08898 0.12887
 C517 C 1.09150 0.07146 0.11070
 C518 C 1.08341 0.08068 0.08181
 C519 C 1.09390 0.10741 0.07093
 C520 C 1.11181 0.12506 0.08889
 C521 C 1.13441 0.09836 0.17635
 C522 C 1.11709 0.08047 0.15802
 C523 C 1.13954 0.16984 0.09695
 C524 C 1.12211 0.15200 0.07865
 H525 H 1.13981 0.09102 0.19873
 H526 H 1.10957 0.05988 0.16681
 H527 H 1.14695 0.19049 0.08822
 H528 H 1.11655 0.15943 0.05635
 H529 H 1.17235 0.19978 0.13609
 H530 H 1.16694 0.13653 0.20706
 H531 H 1.08350 0.05095 0.11928
 H532 H 1.08778 0.11467 0.04872
 C533 C 1.13627 0.63253 0.63802
 C534 C 1.14738 0.65850 0.62616
 C535 C 1.16506 0.67628 0.64419
 C536 C 1.17155 0.66834 0.67396
 C537 C 1.16013 0.64219 0.68546
 C538 C 1.14254 0.62418 0.66756
 C539 C 1.11751 0.61384 0.61921
 C540 C 1.10623 0.58796 0.63114
 C541 C 1.08790 0.57057 0.61336
 C542 C 1.08061 0.57909 0.58401
 C543 C 1.09245 0.60492 0.57227
 C544 C 1.11091 0.62239 0.58980
 C545 C 1.13098 0.59806 0.67866
 C546 C 1.11316 0.58024 0.66074
 C547 C 1.14055 0.66616 0.59651
 C548 C 1.12259 0.64844 0.57865
 H549 H 1.13568 0.59136 0.70141
 H550 H 1.10460 0.56034 0.67022
 H551 H 1.14903 0.68612 0.58708
 H552 H 1.11770 0.65526 0.55598
 H553 H 1.17405 0.69610 0.63494
 H554 H 1.16460 0.63602 0.70843
 H555 H 1.07884 0.55076 0.62260
 H556 H 1.08699 0.61162 0.54969
 C557 C 0.63296 0.14048 0.63353
 C558 C 0.62200 0.15134 0.66084
 C559 C 0.64005 0.16895 0.67866
 C560 C 0.66895 0.17538 0.66947
 C561 C 0.67949 0.16445 0.64193
 C562 C 0.66156 0.14703 0.62383
 C563 C 0.61431 0.12147 0.61499
 C564 C 0.62539 0.11043 0.58783
 C565 C 0.60792 0.09173 0.57068
 C566 C 0.57972 0.08373 0.58073
 C567 C 0.56873 0.09533 0.60780
 C568 C 0.58598 0.11426 0.62505
 C569 C 0.67175 0.13582 0.59636
 C570 C 0.65395 0.11786 0.57863
 C571 C 0.59337 0.14402 0.66994
 C572 C 0.57569 0.12575 0.65237
 H573 H 0.69374 0.14080 0.58859
 H574 H 0.66272 0.10948 0.55769
 H575 H 0.58466 0.15227 0.69095
 H576 H 0.55386 0.12041 0.66036
 H577 H 0.63191 0.17709 0.69997
 H578 H 0.70159 0.16961 0.63459
 H579 H 0.61656 0.08288 0.54989
 H580 H 0.54702 0.08930 0.61565
 C581 C 0.63446 0.64211 0.13276
 C582 C 0.62351 0.65370 0.15975
 C583 C 0.64169 0.67149 0.17723
 C584 C 0.67071 0.67736 0.16804
 C585 C 0.68124 0.66573 0.14081
 C586 C 0.66318 0.64814 0.12303
 C587 C 0.61570 0.62287 0.11462
 C588 C 0.62677 0.61108 0.08779
 C589 C 0.60919 0.59212 0.07108
 C590 C 0.58090 0.58459 0.08125
 C591 C 0.56992 0.59695 0.10795
 C592 C 0.58727 0.61615 0.12475
 C593 C 0.67335 0.63620 0.09588
 C594 C 0.65543 0.61802 0.07852
 C595 C 0.59479 0.64689 0.16891
 C596 C 0.57699 0.62837 0.15174
 H597 H 0.69543 0.64077 0.08810
 H598 H 0.66420 0.60906 0.05784
 H599 H 0.58609 0.65570 0.18968
 H600 H 0.55508 0.62342 0.15977
 H601 H 0.63357 0.68017 0.19833
 H602 H 0.70344 0.67046 0.13348
 H603 H 0.61782 0.58268 0.05056
 H604 H 0.54814 0.59129 0.11588
 C605 C 0.86431 -0.13558 0.13482
 C606 C 0.85513 -0.16253 0.12352
 C607 C 0.83790 -0.18065 0.14167
 C608 C 0.82986 -0.17203 0.17095
 C609 C 0.83931 -0.14490 0.18191
 C610 C 0.85653 -0.12658 0.16392
 C611 C 0.88262 -0.11652 0.11589
 C612 C 0.89200 -0.08966 0.12725
 C613 C 0.90998 -0.07192 0.10941
 C614 C 0.91873 -0.08102 0.08051
 C615 C 0.90872 -0.10783 0.06931
 C616 C 0.89071 -0.12570 0.08693
 C617 C 0.86613 -0.09944 0.17442
 C618 C 0.88357 -0.08130 0.15640
 C619 C 0.86347 -0.17086 0.09434
 C620 C 0.88097 -0.15276 0.07636
 H621 H 0.86022 -0.09221 0.19680
 H622 H 0.89064 -0.06062 0.16543
 H623 H 0.85651 -0.19159 0.08536
 H624 H 0.88705 -0.16008 0.05406
 H625 H 0.83106 -0.20162 0.13316
 H626 H 0.83293 -0.13790 0.20424
 H627 H 0.91761 -0.05134 0.11823
 H628 H 0.91533 -0.11501 0.04709
 C629 C 0.86021 0.36370 0.63757
 C630 C 0.84647 0.33970 0.62438
 C631 C 0.82934 0.32121 0.64225
 C632 C 0.82590 0.32606 0.67364
 C633 C 0.84040 0.35057 0.68619
 C634 C 0.85723 0.36936 0.66834
 C635 C 0.87831 0.38315 0.61883
 C636 C 0.89190 0.40733 0.63203
 C637 C 0.90952 0.42545 0.61423
 C638 C 0.91403 0.41916 0.58360
 C639 C 0.90001 0.39498 0.57065
 C640 C 0.88201 0.37696 0.58816
 C641 C 0.87103 0.39389 0.68072
 C642 C 0.88800 0.41259 0.66286
 C643 C 0.85043 0.33438 0.59352
 C644 C 0.86796 0.35264 0.57574
 H645 H 0.86879 0.39864 0.70445
 H646 H 0.89837 0.43116 0.67335
 H647 H 0.84000 0.31585 0.58302
 H648 H 0.87059 0.34762 0.55210
 H649 H 0.82026 0.30218 0.63152
 H650 H 0.83755 0.35638 0.70955
 H651 H 0.92037 0.44393 0.62440
 H652 H 0.90332 0.39004 0.54707
 C653 C 0.36795 -0.14286 0.63193
 C654 C 0.34246 -0.15491 0.61945
 C655 C 0.32474 -0.17306 0.63711
 C656 C 0.33221 -0.17891 0.66717
 C657 C 0.35794 -0.16660 0.67922
 C658 C 0.37593 -0.14868 0.66169
 C659 C 0.38641 -0.12339 0.61365
 C660 C 0.41176 -0.11115 0.62626
 C661 C 0.42883 -0.09206 0.60908
 C662 C 0.42042 -0.08485 0.57967
 C663 C 0.39516 -0.09762 0.56720
 C664 C 0.37806 -0.11696 0.58412
 C665 C 0.40158 -0.13620 0.67344
 C666 C 0.41924 -0.11780 0.65600
 C667 C 0.33508 -0.14837 0.58964
 C668 C 0.35254 -0.12966 0.57230
 H669 H 0.40798 -0.14058 0.69637
 H670 H 0.43875 -0.10849 0.66597
 H671 H 0.31549 -0.15757 0.57973
 H672 H 0.34590 -0.12494 0.54952
 H673 H 0.30524 -0.18269 0.62744
 H674 H 0.36369 -0.17046 0.70244
 H675 H 0.44820 -0.08227 0.61886
 H676 H 0.38860 -0.09223 0.54455
 C677 C 0.36665 0.36064 0.13704
 C678 C 0.34204 0.34736 0.12402
 C679 C 0.32412 0.32943 0.14171
 C680 C 0.33045 0.32504 0.17231
 C681 C 0.35523 0.33868 0.18493
 C682 C 0.37347 0.35635 0.16738
 C683 C 0.38543 0.37971 0.11864
 C684 C 0.40999 0.39305 0.13171
 C685 C 0.42742 0.41164 0.11431
 C686 C 0.42012 0.41729 0.08423
 C687 C 0.39560 0.40350 0.07137
 C688 C 0.37820 0.38459 0.08848
 C689 C 0.39830 0.36997 0.17963
 C690 C 0.41630 0.38795 0.16206
 C691 C 0.33578 0.35240 0.09363
 C692 C 0.35350 0.37078 0.07618
 H693 H 0.40381 0.36678 0.20301
 H694 H 0.43517 0.39814 0.17241
 H695 H 0.31688 0.34225 0.08331
 H696 H 0.34774 0.37432 0.05292
 H697 H 0.30541 0.31876 0.13158
 H698 H 0.36010 0.33598 0.20854
 H699 H 0.44619 0.42227 0.12439
 H700 H 0.38990 0.40770 0.04819
 C701 C 0.86239 0.13315 -0.13682
 C702 C 0.85256 0.15963 -0.12492
 C703 C 0.83471 0.17748 -0.14248
 C704 C 0.82671 0.16907 -0.17177
 C705 C 0.83675 0.14237 -0.18330
 C706 C 0.85460 0.12432 -0.16590
 C707 C 0.88147 0.11446 -0.11857
 C708 C 0.89155 0.08811 -0.13054
 C709 C 0.91025 0.07074 -0.11333
 C710 C 0.91899 0.07974 -0.08447
 C711 C 0.90829 0.10604 -0.07267
 C712 C 0.88957 0.12352 -0.08965
 C713 C 0.86490 0.09768 -0.17702
 C714 C 0.88305 0.07988 -0.15964
 C715 C 0.86094 0.16781 -0.09579
 C716 C 0.87914 0.15007 -0.07845
 H717 H 0.85900 0.09058 -0.19940
 H718 H 0.89065 0.05959 -0.16915
 H719 H 0.85348 0.18818 -0.08635
 H720 H 0.88523 0.15728 -0.05616
 H721 H 0.82747 0.19813 -0.13353
 H722 H 0.83043 0.13552 -0.20565
 H723 H 0.91841 0.05055 -0.12260
 H724 H 0.91487 0.11313 -0.05048
 C725 C 0.86170 0.63440 0.36375
 C726 C 0.85228 0.66119 0.37522
 C727 C 0.83500 0.67919 0.35725
 C728 C 0.82714 0.67060 0.32796
 C729 C 0.83678 0.64360 0.31686
 C730 C 0.85406 0.62541 0.33467
 C731 C 0.88015 0.61553 0.38246
 C732 C 0.88979 0.58883 0.37092
 C733 C 0.90789 0.57127 0.38856
 C734 C 0.91649 0.58040 0.41742
 C735 C 0.90624 0.60704 0.42879
 C736 C 0.88811 0.62472 0.41138
 C737 C 0.86391 0.59843 0.32400
 C738 C 0.88147 0.58046 0.34181
 C739 C 0.86050 0.66953 0.40436
 C740 C 0.87812 0.65161 0.42213
 H741 H 0.85812 0.59121 0.30163
 H742 H 0.88874 0.55992 0.33264
 H743 H 0.85337 0.69015 0.41346
 H744 H 0.88410 0.65894 0.44441
 H745 H 0.82805 0.70006 0.36586
 H746 H 0.83056 0.63663 0.29451
 H747 H 0.91570 0.55082 0.37961
 H748 H 0.91273 0.61423 0.45098
 C749 C 0.36717 0.14124 0.36701
 C750 C 0.34112 0.15212 0.37936
 C751 C 0.32298 0.16970 0.36179
 C752 C 0.33027 0.17635 0.33149
 C753 C 0.35716 0.16520 0.31999
 C754 C 0.37545 0.14780 0.33750
 C755 C 0.38594 0.12218 0.38516
 C756 C 0.41196 0.11113 0.37266
 C757 C 0.42923 0.09227 0.38964
 C758 C 0.42040 0.08414 0.41875
 C759 C 0.39453 0.09584 0.43117
 C760 C 0.37720 0.11488 0.41444
 C761 C 0.40190 0.13673 0.32592
 C762 C 0.41986 0.11872 0.34321
 C763 C 0.33333 0.14470 0.40895
 C764 C 0.35103 0.12637 0.42617
 H765 H 0.40866 0.14179 0.30318
 H766 H 0.43990 0.11040 0.33331
 H767 H 0.31322 0.15293 0.41880
 H768 H 0.34406 0.12096 0.44875
 H769 H 0.30234 0.17638 0.37161
 H770 H 0.36499 0.17088 0.29783
 H771 H 0.44910 0.08334 0.37991
 H772 H 0.38763 0.08976 0.45360
 C773 C 0.36832 0.64047 -0.13189
 C774 C 0.34000 0.64769 -0.12192
 C775 C 0.32222 0.66506 -0.14004
 C776 C 0.33258 0.67520 -0.16796
 C777 C 0.36128 0.66810 -0.17733
 C778 C 0.37917 0.65062 -0.15946
 C779 C 0.38675 0.62143 -0.11338
 C780 C 0.41481 0.61362 -0.12369
 C781 C 0.43180 0.59462 -0.10653
 C782 C 0.42082 0.58345 -0.07932
 C783 C 0.39291 0.59205 -0.06899
 C784 C 0.37570 0.61090 -0.08604
 C785 C 0.40756 0.64278 -0.16877
 C786 C 0.42506 0.62455 -0.15121
 C787 C 0.32985 0.63701 -0.09425
 C788 C 0.34742 0.61896 -0.07658
 H789 H 0.41621 0.65054 -0.18998
 H790 H 0.44670 0.61876 -0.15938
 H791 H 0.30806 0.64247 -0.08629
 H792 H 0.33867 0.61099 -0.05551
 H793 H 0.30009 0.67005 -0.13276
 H794 H 0.36967 0.67616 -0.19853
 H795 H 0.45328 0.58815 -0.11459
 H796 H 0.38429 0.58355 -0.04808
 C797 C 1.14209 -0.13477 -0.13700
 C798 C 1.15037 -0.16197 -0.12594
 C799 C 1.16787 -0.18012 -0.14383
 C800 C 1.17708 -0.17126 -0.17263
 C801 C 1.16873 -0.14377 -0.18325
 C802 C 1.15118 -0.12546 -0.16555
 C803 C 1.12322 -0.11581 -0.11850
 C804 C 1.11453 -0.08880 -0.12975
 C805 C 1.09590 -0.07122 -0.11238
 C806 C 1.08589 -0.08062 -0.08407
 C807 C 1.09528 -0.10756 -0.07293
 C808 C 1.11387 -0.12529 -0.09010
 C809 C 1.14228 -0.09815 -0.17592
 C810 C 1.12427 -0.08014 -0.15833
 C811 C 1.14083 -0.17055 -0.09727
 C812 C 1.12289 -0.15252 -0.07965
 H813 H 1.14916 -0.09071 -0.19790
 H814 H 1.11774 -0.05935 -0.16727
 H815 H 1.14713 -0.19145 -0.08845
 H816 H 1.11584 -0.16005 -0.05777
 H817 H 1.17452 -0.20103 -0.13527
 H818 H 1.17541 -0.13688 -0.20550
 H819 H 1.08877 -0.05053 -0.12113
 H820 H 1.08771 -0.11498 -0.05117
 C821 C 1.13746 0.36435 0.36589
 C822 C 1.14555 0.33701 0.37674
 C823 C 1.16331 0.31904 0.35888
 C824 C 1.17297 0.32825 0.33035
 C825 C 1.16471 0.35584 0.31992
 C826 C 1.14693 0.37396 0.33758
 C827 C 1.11846 0.38317 0.38440
 C828 C 1.11003 0.41036 0.37338
 C829 C 1.09136 0.42786 0.39075
 C830 C 1.08103 0.41824 0.41887
 C831 C 1.09011 0.39111 0.42977
 C832 C 1.10875 0.37344 0.41258
 C833 C 1.13825 0.40141 0.32743
 C834 C 1.12012 0.41929 0.34501
 C835 C 1.13563 0.32815 0.40518
 C836 C 1.11754 0.34605 0.42279
 H837 H 1.14543 0.40908 0.30563
 H838 H 1.11379 0.44022 0.33625
 H839 H 1.14177 0.30713 0.41384
 H840 H 1.11022 0.33830 0.44451
 H841 H 1.16986 0.29805 0.36730
 H842 H 1.17171 0.36300 0.29787
 H843 H 1.08449 0.44870 0.38218
 H844 H 1.08228 0.38352 0.45138
 C845 C 0.63596 -0.13816 0.36438
 C846 C 0.62337 -0.15453 0.34111
 C847 C 0.64138 -0.17256 0.32360
 C848 C 0.67177 -0.17363 0.32886
 C849 C 0.68405 -0.15703 0.35216
 C850 C 0.66619 -0.13944 0.37020
 C851 C 0.61721 -0.11905 0.38277
 C852 C 0.62980 -0.10295 0.40621
 C853 C 0.61200 -0.08460 0.42343
 C854 C 0.58197 -0.08173 0.41691
 C855 C 0.56962 -0.09801 0.39336
 C856 C 0.58715 -0.11696 0.37633
 C857 C 0.67795 -0.12300 0.39386
 C858 C 0.66003 -0.10517 0.41167
 C859 C 0.59313 -0.15225 0.33565
 C860 C 0.57535 -0.13366 0.35286
 H861 H 0.70121 -0.12390 0.39863
 H862 H 0.66997 -0.09280 0.42967
 H863 H 0.58317 -0.16473 0.31775
 H864 H 0.55220 -0.13233 0.34772
 H865 H 0.63199 -0.18525 0.30550
 H866 H 0.70744 -0.15805 0.35631
 H867 H 0.62170 -0.07197 0.44140
 H868 H 0.54648 -0.09594 0.38833
 C869 C 0.63432 0.35913 -0.13232
 C870 C 0.62145 0.34271 -0.15539
 C871 C 0.63924 0.32463 -0.17309
 C872 C 0.66970 0.32360 -0.16824
 C873 C 0.68225 0.34020 -0.14509
 C874 C 0.66461 0.35782 -0.12685
 C875 C 0.61583 0.37841 -0.11384
 C876 C 0.62872 0.39462 -0.09066
 C877 C 0.61118 0.41324 -0.07344
 C878 C 0.58113 0.41627 -0.07974
 C879 C 0.56846 0.39983 -0.10300
 C880 C 0.58572 0.38062 -0.12001
 C881 C 0.67667 0.37432 -0.10340
 C882 C 0.65899 0.39230 -0.08549
 C883 C 0.59115 0.34506 -0.16053
 C884 C 0.57362 0.36382 -0.14324
 H885 H 0.69998 0.37339 -0.09890
 H886 H 0.66917 0.40475 -0.06768
 H887 H 0.58097 0.33254 -0.17827
 H888 H 0.55043 0.36523 -0.14817
 H889 H 0.62965 0.31194 -0.19109
 H890 H 0.70570 0.33922 -0.14128
 H891 H 0.62112 0.42598 -0.05569
 H892 H 0.54530 0.40202 -0.10785
 C893 C 1.14058 0.13523 -0.13791
 C894 C 1.14565 0.16394 -0.12892
 C895 C 1.16283 0.18205 -0.14713
 C896 C 1.17534 0.17176 -0.17432
 C897 C 1.17008 0.14251 -0.18260
 C898 C 1.15264 0.12435 -0.16464
 C899 C 1.12202 0.11629 -0.11909
 C900 C 1.11629 0.08776 -0.12846
 C901 C 1.09787 0.07014 -0.11092
 C902 C 1.08538 0.08091 -0.08416
 C903 C 1.09189 0.10937 -0.07480
 C904 C 1.11001 0.12723 -0.09229
 C905 C 1.14670 0.09556 -0.17313
 C906 C 1.12878 0.07761 -0.15539
 C907 C 1.13344 0.17402 -0.10181
 C908 C 1.11597 0.15597 -0.08378
 H909 H 1.15582 0.08688 -0.19377
 H910 H 1.12459 0.05564 -0.16288
 H911 H 1.13730 0.19612 -0.09453
 H912 H 1.10683 0.16466 -0.06315
 H913 H 1.16724 0.20382 -0.13926
 H914 H 1.17829 0.13399 -0.20367
 H915 H 1.09301 0.04824 -0.11825
 H916 H 1.08231 0.11789 -0.05428
 C917 C 1.13876 0.63322 0.36576
 C918 C 1.14701 0.62416 0.33682
 C919 C 1.16443 0.64249 0.31904
 C920 C 1.17352 0.66976 0.32998
 C921 C 1.16518 0.67835 0.35920
 C922 C 1.14778 0.66019 0.37715
 C923 C 1.11997 0.61429 0.38435
 C924 C 1.11139 0.62355 0.41312
 C925 C 1.09282 0.60588 0.43035
 C926 C 1.08269 0.57920 0.41891
 C927 C 1.09197 0.56997 0.39022
 C928 C 1.11055 0.58751 0.37279
 C929 C 1.13905 0.66854 0.40621
 C930 C 1.12115 0.65054 0.42388
 C931 C 1.13741 0.59709 0.32615
 C932 C 1.11949 0.57908 0.34382
 H933 H 1.14592 0.68926 0.41528
 H934 H 1.11471 0.65791 0.44606
 H935 H 1.14364 0.58982 0.30387
 H936 H 1.11239 0.55847 0.33464
 H937 H 1.17043 0.63580 0.29649
 H938 H 1.17241 0.69907 0.36802
 H939 H 1.08582 0.61315 0.45240
 H940 H 1.08427 0.54949 0.38124
 C941 C 0.63606 0.13932 0.36569
 C942 C 0.66646 0.13986 0.37077
 C943 C 0.68436 0.15738 0.35271
 C944 C 0.67193 0.17464 0.33024
 C945 C 0.64142 0.17437 0.32573
 C946 C 0.62335 0.15638 0.34320
 C947 C 0.61725 0.12022 0.38399
 C948 C 0.58701 0.11878 0.37819
 C949 C 0.56939 0.09981 0.39506
 C950 C 0.58186 0.08287 0.41788
 C951 C 0.61208 0.08509 0.42380
 C952 C 0.62996 0.10343 0.40666
 C953 C 0.59295 0.15479 0.33841
 C954 C 0.57510 0.13618 0.35549
 C955 C 0.67833 0.12275 0.39367
 C956 C 0.66036 0.10496 0.41144
 H957 H 0.58290 0.16780 0.32110
 H958 H 0.55181 0.13536 0.35086
 H959 H 0.70172 0.12307 0.39787
 H960 H 0.67039 0.09205 0.42886
 H961 H 0.70789 0.15776 0.35612
 H962 H 0.63199 0.18761 0.30822
 H963 H 0.54611 0.09822 0.39052
 H964 H 0.62185 0.07194 0.44119
 C965 C 0.63310 0.64166 -0.13178
 C966 C 0.66225 0.64686 -0.12341
 C967 C 0.67987 0.66485 -0.14128
 C968 C 0.66863 0.67800 -0.16749
 C969 C 0.63891 0.67275 -0.17503
 C970 C 0.62124 0.65447 -0.15747
 C971 C 0.61476 0.62204 -0.11352
 C972 C 0.58584 0.61608 -0.12242
 C973 C 0.56884 0.59662 -0.10551
 C974 C 0.58060 0.58338 -0.07984
 C975 C 0.60941 0.59012 -0.07089
 C976 C 0.62667 0.60925 -0.08780
 C977 C 0.59207 0.64834 -0.16543
 C978 C 0.57469 0.62941 -0.14825
 C979 C 0.67329 0.63387 -0.09733
 C980 C 0.65578 0.61544 -0.07978
 H981 H 0.58265 0.65806 -0.18526
 H982 H 0.55241 0.62506 -0.15533
 H983 H 0.69573 0.63784 -0.09053
 H984 H 0.66521 0.60570 -0.05996
 H985 H 0.70205 0.66923 -0.13398
 H986 H 0.62968 0.68154 -0.19539
 H987 H 0.54665 0.59159 -0.11247
 H988 H 0.61866 0.57997 -0.05120
 C989 C 0.86241 -0.13401 -0.13805
 C990 C 0.85221 -0.16034 -0.12620
 C991 C 0.83429 -0.17822 -0.14387
 C992 C 0.82659 -0.16999 -0.17323
 C993 C 0.83705 -0.14346 -0.18473
 C994 C 0.85495 -0.12538 -0.16722
 C995 C 0.88148 -0.11524 -0.11963
 C996 C 0.89187 -0.08900 -0.13153
 C997 C 0.91051 -0.07153 -0.11414
 C998 C 0.91890 -0.08032 -0.08517
 C999 C 0.90791 -0.10652 -0.07347
 C1000 C 0.88923 -0.12409 -0.09062
 C1001 C 0.86559 -0.09885 -0.17826
 C1002 C 0.88373 -0.08098 -0.16072
 C1003 C 0.86026 -0.16834 -0.09698
 C1004 C 0.87847 -0.15053 -0.07950
 H1005 H 0.85995 -0.09191 -0.20070
 H1006 H 0.89158 -0.06078 -0.17017
 H1007 H 0.85252 -0.18859 -0.08759
 H1008 H 0.88429 -0.15758 -0.05714
 H1009 H 0.82669 -0.19874 -0.13494
 H1010 H 0.83095 -0.13676 -0.20714
 H1011 H 0.91890 -0.05143 -0.12334
 H1012 H 0.91422 -0.11346 -0.05120
 C1013 C 0.85610 0.36827 0.36459
 C1014 C 0.84315 0.34357 0.37735
 C1015 C 0.82541 0.32567 0.35949
 C1016 C 0.82088 0.33210 0.32892
 C1017 C 0.83396 0.35714 0.31661
 C1018 C 0.85151 0.37532 0.33436
 C1019 C 0.87524 0.38686 0.38312
 C1020 C 0.88841 0.41143 0.37028
 C1021 C 0.90722 0.42859 0.38776
 C1022 C 0.91322 0.42103 0.41771
 C1023 C 0.89950 0.39654 0.43035
 C1024 C 0.88044 0.37939 0.41315
 C1025 C 0.86487 0.40022 0.32237
 C1026 C 0.88295 0.41800 0.34004
 C1027 C 0.84845 0.33709 0.40764
 C1028 C 0.86684 0.35465 0.42522
 H1029 H 0.86146 0.40592 0.29908
 H1030 H 0.89298 0.43689 0.32986
 H1031 H 0.83854 0.31811 0.41778
 H1032 H 0.87061 0.34870 0.44838
 H1033 H 0.81510 0.30680 0.36942
 H1034 H 0.83104 0.36215 0.29307
 H1035 H 0.91775 0.44735 0.37783
 H1036 H 0.90395 0.39062 0.45341
 C1037 C 0.36462 -0.13822 0.36396
 C1038 C 0.34045 -0.15179 0.37748
 C1039 C 0.32187 -0.16918 0.35999
 C1040 C 0.32677 -0.17297 0.32866
 C1041 C 0.35157 -0.15883 0.31583
 C1042 C 0.37043 -0.14172 0.33328
 C1043 C 0.38403 -0.11968 0.38224
 C1044 C 0.40832 -0.10617 0.36868
 C1045 C 0.42630 -0.08800 0.38598
 C1046 C 0.41974 -0.08290 0.41646
 C1047 C 0.39553 -0.09692 0.42980
 C1048 C 0.37764 -0.11542 0.41279
 C1049 C 0.39512 -0.12808 0.32055
 C1050 C 0.41377 -0.11065 0.33796
 C1051 C 0.33500 -0.14733 0.40826
 C1052 C 0.35323 -0.12939 0.42558
 H1053 H 0.39998 -0.13074 0.29687
 H1054 H 0.43243 -0.10037 0.32721
 H1055 H 0.31635 -0.15763 0.41901
 H1056 H 0.34808 -0.12633 0.44915
 H1057 H 0.30269 -0.17814 0.37093
 H1058 H 0.35754 -0.16207 0.29254
 H1059 H 0.44482 -0.07718 0.37553
 H1060 H 0.39041 -0.09317 0.45328
 C1061 C 0.36706 0.35866 -0.13177
 C1062 C 0.33853 0.35182 -0.12205
 C1063 C 0.32062 0.33454 -0.14035
 C1064 C 0.33105 0.32414 -0.16820
 C1065 C 0.35992 0.33087 -0.17732
 C1066 C 0.37796 0.34823 -0.15926
 C1067 C 0.38565 0.37759 -0.11307
 C1068 C 0.41392 0.38501 -0.12314
 C1069 C 0.43107 0.40393 -0.10583
 C1070 C 0.42006 0.41544 -0.07873
 C1071 C 0.39194 0.40721 -0.06863
 C1072 C 0.37455 0.38843 -0.08582
 C1073 C 0.40656 0.35569 -0.16832
 C1074 C 0.42422 0.37381 -0.15058
 C1075 C 0.32834 0.36277 -0.09446
 C1076 C 0.34607 0.38074 -0.07662
 H1077 H 0.41524 0.34771 -0.18946
 H1078 H 0.44601 0.37931 -0.15855
 H1079 H 0.30640 0.35760 -0.08669
 H1080 H 0.33727 0.38894 -0.05562
 H1081 H 0.29835 0.32981 -0.13326
 H1082 H 0.36835 0.32260 -0.19845
 H1083 H 0.45272 0.41012 -0.11373
 H1084 H 0.38329 0.41598 -0.04780
 C1085 C 1.13944 -0.13354 0.13435
 C1086 C 1.14473 -0.16231 0.12563
 C1087 C 1.16204 -0.17997 0.14391
 C1088 C 1.17432 -0.16903 0.17067
 C1089 C 1.16895 -0.13997 0.17889
 C1090 C 1.15139 -0.12219 0.16090
 C1091 C 1.12076 -0.11505 0.11548
 C1092 C 1.11493 -0.08644 0.12450
 C1093 C 1.09644 -0.06923 0.10689
 C1094 C 1.08397 -0.08047 0.08041
 C1095 C 1.09055 -0.10901 0.07142
 C1096 C 1.10875 -0.12647 0.08899
 C1097 C 1.14541 -0.09333 0.16898
 C1098 C 1.12742 -0.07580 0.15114
 C1099 C 1.13242 -0.17292 0.09890
 C1100 C 1.11479 -0.15528 0.08085
 H1101 H 1.15452 -0.08429 0.18939
 H1102 H 1.12317 -0.05375 0.15833
 H1103 H 1.13637 -0.19507 0.09190
 H1104 H 1.10564 -0.16434 0.06047
 H1105 H 1.16554 -0.20237 0.13752
 H1106 H 1.17859 -0.13109 0.19912
 H1107 H 1.09152 -0.04727 0.11393
 H1108 H 1.08099 -0.11788 0.05113
 C1109 C 1.13459 0.36575 0.63721
 C1110 C 1.14155 0.37460 0.66651
 C1111 C 1.15920 0.35678 0.68430
 C1112 C 1.17001 0.33030 0.67295
 C1113 C 1.16282 0.32183 0.64344
 C1114 C 1.14506 0.33944 0.62551
 C1115 C 1.11579 0.38428 0.61851
 C1116 C 1.10852 0.37525 0.58934
 C1117 C 1.09008 0.39263 0.57191
 C1118 C 1.07895 0.41884 0.58350
 C1119 C 1.08688 0.42780 0.61262
 C1120 C 1.10519 0.41051 0.63029
 C1121 C 1.13755 0.33127 0.59611
 C1122 C 1.11956 0.34885 0.57835
 C1123 C 1.13063 0.40106 0.67746
 C1124 C 1.11279 0.41873 0.65965
 H1125 H 1.14553 0.31105 0.58679
 H1126 H 1.11414 0.34166 0.55587
 H1127 H 1.13586 0.40815 0.70002
 H1128 H 1.10474 0.43891 0.66900
 H1129 H 1.16420 0.36335 0.70709
 H1130 H 1.17133 0.30174 0.63430
 H1131 H 1.08411 0.38559 0.54952
 H1132 H 1.07838 0.44790 0.62175
 C1133 C 0.63407 -0.13798 0.63352
 C1134 C 0.66455 -0.13855 0.62875
 C1135 C 0.68202 -0.15591 0.64714
 C1136 C 0.66910 -0.17301 0.66969
 C1137 C 0.63850 -0.17265 0.67388
 C1138 C 0.62086 -0.15483 0.65606
 C1139 C 0.61569 -0.11911 0.61480
 C1140 C 0.58535 -0.11769 0.62026
 C1141 C 0.56815 -0.09891 0.60303
 C1142 C 0.58111 -0.08212 0.58021
 C1143 C 0.61143 -0.08435 0.57458
 C1144 C 0.62890 -0.10252 0.59208
 C1145 C 0.59037 -0.15325 0.66051
 C1146 C 0.57294 -0.13486 0.64302
 C1147 C 0.67694 -0.12165 0.60578
 C1148 C 0.65938 -0.10405 0.58763
 H1149 H 0.57993 -0.16611 0.67785
 H1150 H 0.54956 -0.13405 0.64740
 H1151 H 0.70040 -0.12200 0.60181
 H1152 H 0.66980 -0.09130 0.57019
 H1153 H 0.70559 -0.15640 0.64382
 H1154 H 0.62862 -0.18572 0.69141
 H1155 H 0.54479 -0.09733 0.60735
 H1156 H 0.62156 -0.07130 0.55718
 C1157 C 0.63115 0.35635 0.13214
 C1158 C 0.65711 0.34535 0.11948
 C1159 C 0.67497 0.32723 0.13670
 C1160 C 0.66715 0.32031 0.16648
 C1161 C 0.64083 0.33132 0.17867
 C1162 C 0.62276 0.34935 0.16160
 C1163 C 0.61270 0.37606 0.11443
 C1164 C 0.58700 0.38748 0.12728
 C1165 C 0.57006 0.40697 0.11069
 C1166 C 0.57890 0.41527 0.08164
 C1167 C 0.60445 0.40321 0.06890
 C1168 C 0.62147 0.38361 0.08522
 C1169 C 0.59671 0.36091 0.17356
 C1170 C 0.57911 0.37963 0.15667
 C1171 C 0.66487 0.35299 0.08999
 C1172 C 0.64737 0.37183 0.07316
 H1173 H 0.58998 0.35563 0.19626
 H1174 H 0.55933 0.38826 0.16683
 H1175 H 0.68481 0.34458 0.07994
 H1176 H 0.65431 0.37744 0.05062
 H1177 H 0.69493 0.31855 0.12696
 H1178 H 0.63480 0.32649 0.20168
 H1179 H 0.55045 0.41620 0.12065
 H1180 H 0.61136 0.40944 0.04651
 C1181 C 0.86203 0.13413 0.13340
 C1182 C 0.85362 0.12503 0.16222
 C1183 C 0.83613 0.14328 0.18004
 C1184 C 0.82709 0.17048 0.16922
 C1185 C 0.83564 0.17916 0.14016
 C1186 C 0.85313 0.16108 0.12217
 C1187 C 0.88080 0.11523 0.11474
 C1188 C 0.88955 0.12455 0.08608
 C1189 C 0.90805 0.10686 0.06876
 C1190 C 0.91791 0.08014 0.07999
 C1191 C 0.90849 0.07088 0.10856
 C1192 C 0.88999 0.08842 0.12609
 C1193 C 0.86211 0.16952 0.09327
 C1194 C 0.88001 0.15156 0.07553
 C1195 C 0.86299 0.09792 0.17269
 C1196 C 0.88087 0.07993 0.15493
 H1197 H 0.85537 0.19025 0.08434
 H1198 H 0.88660 0.15897 0.05345
 H1199 H 0.85660 0.09061 0.19486
 H1200 H 0.88778 0.05929 0.16395
 H1201 H 0.82933 0.13621 0.20219
 H1202 H 0.82911 0.20016 0.13175
 H1203 H 0.91517 0.11416 0.04680
 H1204 H 0.91599 0.05036 0.11738
 C1205 C 0.85898 0.63495 0.63633
 C1206 C 0.85047 0.62583 0.66512
 C1207 C 0.83293 0.64408 0.68291
 C1208 C 0.82389 0.67127 0.67205
 C1209 C 0.83264 0.67999 0.64305
 C1210 C 0.85018 0.66193 0.62511
 C1211 C 0.87770 0.61601 0.61766
 C1212 C 0.88653 0.62532 0.58902
 C1213 C 0.90491 0.60756 0.57165
 C1214 C 0.91457 0.58073 0.58281
 C1215 C 0.90511 0.57151 0.61138
 C1216 C 0.88674 0.58913 0.62896
 C1217 C 0.85926 0.67039 0.59625
 C1218 C 0.87713 0.65240 0.57851
 C1219 C 0.85974 0.59868 0.67556
 C1220 C 0.87756 0.58064 0.65779
 H1221 H 0.85260 0.69115 0.58734
 H1222 H 0.88377 0.65982 0.55645
 H1223 H 0.85328 0.59135 0.69771
 H1224 H 0.88437 0.55995 0.66677
 H1225 H 0.82604 0.63701 0.70503
 H1226 H 0.82617 0.70101 0.63463
 H1227 H 0.91207 0.61483 0.54969
 H1228 H 0.91246 0.55091 0.62016
 C1229 C 0.36728 0.14195 0.63216
 C1230 C 0.37436 0.14715 0.66233
 C1231 C 0.35621 0.16514 0.67964
 C1232 C 0.33123 0.17816 0.66696
 C1233 C 0.32469 0.17292 0.63651
 C1234 C 0.34254 0.15469 0.61907
 C1235 C 0.38587 0.12240 0.61409
 C1236 C 0.37837 0.11658 0.58413
 C1237 C 0.39555 0.09717 0.56737
 C1238 C 0.42010 0.08379 0.58039
 C1239 C 0.42770 0.09040 0.61023
 C1240 C 0.41050 0.10952 0.62728
 C1241 C 0.33602 0.14873 0.58886
 C1242 C 0.35359 0.12993 0.57171
 C1243 C 0.39928 0.13401 0.67468
 C1244 C 0.41710 0.11558 0.65742
 H1245 H 0.31702 0.15846 0.57848
 H1246 H 0.34762 0.12567 0.54860
 H1247 H 0.40499 0.13792 0.69793
 H1248 H 0.43603 0.10576 0.66785
 H1249 H 0.36124 0.16850 0.70315
 H1250 H 0.30580 0.18310 0.62636
 H1251 H 0.38963 0.09224 0.54437
 H1252 H 0.44651 0.08011 0.62043
 C1253 C 0.36703 0.64086 0.13611
 C1254 C 0.37515 0.64716 0.16579
 C1255 C 0.35687 0.66469 0.18350
 C1256 C 0.33067 0.67603 0.17170
 C1257 C 0.32308 0.66971 0.14173
 C1258 C 0.34111 0.65202 0.12390
 C1259 C 0.38582 0.62185 0.11763
 C1260 C 0.37736 0.61501 0.08817
 C1261 C 0.39478 0.59611 0.07105
 C1262 C 0.42045 0.58413 0.08323
 C1263 C 0.42896 0.59174 0.11257
 C1264 C 0.41160 0.61044 0.12996
 C1265 C 0.33361 0.64508 0.09416
 C1266 C 0.35140 0.62683 0.07662
 C1267 C 0.40124 0.63554 0.17726
 C1268 C 0.41918 0.61754 0.15962
 H1269 H 0.31369 0.65360 0.08446
 H1270 H 0.34468 0.62178 0.05390
 H1271 H 0.40776 0.64028 0.20011
 H1272 H 0.43902 0.60888 0.16939
 H1273 H 0.36275 0.66901 0.20663
 H1274 H 0.30324 0.67865 0.13225
 H1275 H 0.38812 0.59041 0.04845
 H1276 H 0.44866 0.58256 0.12213
   
