data_POSCAR
  _audit_creation_date              2014-09-24
  _audit_creation_method            'ToBaCCo'
  _symmetry_space_group_name_H-M    'P1'
  _symmetry_Int_Tables_number       1
  _symmetry_cell_setting            triclinic
  loop_
  _symmetry_equiv_pos_as_xyz
 x,y,z
_cell_length_a 44.0665
_cell_length_b 43.6523
_cell_length_c 37.0906
_cell_angle_alpha 90.378500
_cell_angle_beta 92.932300
_cell_angle_gamma 90.519000
loop_
  _atom_site_label
  _atom_site_type_symbol
  _atom_site_fract_x
  _atom_site_fract_y
  _atom_site_fract_z
C1 C 0.31566 -0.02251 0.24065
 C2 C 0.33516 0.00135 0.23081
 C3 C 0.35929 -0.00505 0.20901
 C4 C 0.36610 -0.03515 0.19965
 C5 C 0.34808 -0.05911 0.21151
 C6 C 0.32234 -0.05299 0.23127
 C7 C 0.33707 0.03063 0.25070
 C8 C 0.36029 0.03348 0.27775
 C9 C 0.36903 0.06210 0.29266
 C10 C 0.35349 0.08816 0.28000
 C11 C 0.33026 0.08565 0.25251
 C12 C 0.32179 0.05677 0.23821
 H13 H 0.29747 -0.01780 0.25842
 H14 H 0.37423 0.01348 0.20147
 H15 H 0.37228 0.01295 0.28627
 H16 H 0.30492 0.05491 0.21597
 H17 H 0.35399 -0.08252 0.20508
 H18 H 0.36040 0.11070 0.28985
 C19 C 0.19624 -0.03932 0.78112
 C20 C 0.17974 -0.01206 0.78100
 C21 C 0.15585 -0.00851 0.80394
 C22 C 0.14556 -0.03318 0.82398
 C23 C 0.16303 -0.05980 0.82562
 C24 C 0.18836 -0.06328 0.80407
 C25 C 0.17997 0.00903 0.75052
 C26 C 0.15923 0.00301 0.72149
 C27 C 0.14916 0.02647 0.69805
 C28 C 0.16204 0.05580 0.70328
 C29 C 0.18478 0.06162 0.73093
 C30 C 0.19294 0.03811 0.75506
 H31 H 0.21325 -0.04265 0.76143
 H32 H 0.14346 0.01280 0.80298
 H33 H 0.14810 -0.01923 0.72052
 H34 H 0.20761 0.04258 0.77881
 H35 H 0.15546 -0.07879 0.84165
 H36 H 0.15478 0.07397 0.68514
 C37 C 0.69230 0.44694 0.29154
 C38 C 0.67462 0.47304 0.29894
 C39 C 0.65313 0.47140 0.32542
 C40 C 0.64934 0.44483 0.34516
 C41 C 0.66818 0.42004 0.33988
 C42 C 0.68859 0.41984 0.31178
 C43 C 0.67291 0.50044 0.27571
 C44 C 0.64587 0.50490 0.25472
 C45 C 0.63926 0.53332 0.23919
 C46 C 0.66017 0.55738 0.24379
 C47 C 0.68775 0.55318 0.26365
 C48 C 0.69418 0.52467 0.27983
 H49 H 0.70687 0.44709 0.26890
 H50 H 0.63808 0.49054 0.32940
 H51 H 0.62954 0.48625 0.25110
 H52 H 0.71494 0.52171 0.29630
 H53 H 0.66461 0.39959 0.35561
 H54 H 0.65567 0.57899 0.23036
 C55 C 0.81296 0.48453 0.73671
 C56 C 0.83228 0.50890 0.72775
 C57 C 0.85527 0.50362 0.70385
 C58 C 0.86072 0.47419 0.69048
 C59 C 0.84166 0.44997 0.69973
 C60 C 0.81741 0.45500 0.72229
 C61 C 0.83433 0.53786 0.74874
 C62 C 0.85907 0.54111 0.77379
 C63 C 0.86691 0.56953 0.79000
 C64 C 0.84867 0.59484 0.78124
 C65 C 0.82458 0.59237 0.75498
 C66 C 0.81704 0.56373 0.73906
 H67 H 0.79568 0.48812 0.75602
 H68 H 0.87023 0.52245 0.69736
 H69 H 0.87286 0.52113 0.77976
 H70 H 0.79932 0.56202 0.71778
 H71 H 0.84640 0.42702 0.69047
 H72 H 0.85460 0.61728 0.79219
 C73 C 0.24411 0.39489 1.03897
 C74 C 0.26182 0.40020 1.00920
 C75 C 0.29225 0.40888 1.01475
 C76 C 0.30478 0.41403 1.04968
 C77 C 0.28651 0.41100 1.07926
 C78 C 0.25619 0.40018 1.07439
 C79 C 0.24837 0.39838 0.97210
 C80 C 0.22403 0.41739 0.96203
 C81 C 0.21148 0.41720 0.92648
 C82 C 0.22408 0.39784 0.90078
 C83 C 0.24826 0.37841 0.91083
 C84 C 0.26042 0.37881 0.94647
 H85 H 0.22079 0.38708 1.03441
 H86 H 0.30609 0.41235 0.99174
 H87 H 0.21467 0.43213 0.98223
 H88 H 0.27891 0.36365 0.95435
 H89 H 0.29711 0.41414 1.10603
 H90 H 0.21465 0.39712 0.87324
 C91 C 0.74594 0.10067 1.05732
 C92 C 0.74111 0.08604 1.02351
 C93 C 0.71778 0.06429 1.01792
 C94 C 0.69867 0.05674 1.04567
 C95 C 0.70374 0.07152 1.07926
 C96 C 0.72623 0.09456 1.08512
 C97 C 0.75727 0.09601 0.99190
 C98 C 0.78302 0.08021 0.98162
 C99 C 0.79711 0.08816 0.94987
 C100 C 0.78438 0.11124 0.92777
 C101 C 0.75834 0.12681 0.93761
 C102 C 0.74498 0.11936 0.96989
 H103 H 0.76304 0.11861 1.06064
 H104 H 0.71388 0.05480 0.99110
 H105 H 0.79244 0.06228 0.99878
 H106 H 0.72494 0.13145 0.97771
 H107 H 0.68943 0.06549 1.10105
 H108 H 0.79515 0.11766 0.90325
 C109 C 0.24242 0.60601 0.55697
 C110 C 0.23212 0.58513 0.53004
 C111 C 0.20538 0.56819 0.53415
 C112 C 0.18814 0.57232 0.56468
 C113 C 0.19924 0.59283 0.59195
 C114 C 0.22604 0.60996 0.58798
 C115 C 0.24653 0.58446 0.49514
 C116 C 0.26780 0.56196 0.48752
 C117 C 0.28271 0.56241 0.45472
 C118 C 0.27523 0.58554 0.42953
 C119 C 0.25389 0.60807 0.43720
 C120 C 0.23970 0.60745 0.47001
 H121 H 0.26218 0.62030 0.55286
 H122 H 0.19706 0.55331 0.51225
 H123 H 0.27375 0.54535 0.50816
 H124 H 0.22396 0.62539 0.47646
 H125 H 0.18671 0.59658 0.61588
 H126 H 0.28709 0.58704 0.40470
 C127 C 0.74067 0.89911 0.54838
 C128 C 0.75949 0.90773 0.52115
 C129 C 0.78852 0.91901 0.52997
 C130 C 0.79858 0.92374 0.56623
 C131 C 0.77925 0.91550 0.59383
 C132 C 0.75102 0.90111 0.58462
 C133 C 0.74854 0.90501 0.48336
 C134 C 0.72416 0.92296 0.47131
 C135 C 0.71214 0.92067 0.43573
 C136 C 0.72533 0.89983 0.41207
 C137 C 0.74995 0.88126 0.42414
 C138 C 0.76159 0.88428 0.45991
 H139 H 0.71868 0.88880 0.54122
 H140 H 0.80293 0.92519 0.50824
 H141 H 0.71415 0.93835 0.49036
 H142 H 0.78067 0.87062 0.46963
 H143 H 0.78759 0.91663 0.62181
 H144 H 0.71632 0.89772 0.38447
 C145 C -0.04074 0.22538 0.34938
 C146 C -0.01287 0.22759 0.36887
 C147 C -0.00346 0.20410 0.39222
 C148 C -0.02339 0.17978 0.39956
 C149 C -0.05260 0.17927 0.38202
 C150 C -0.06096 0.20108 0.35517
 C151 C 0.00393 0.25677 0.36886
 C152 C -0.00906 0.28279 0.38408
 C153 C 0.00607 0.31102 0.38374
 C154 C 0.03452 0.31316 0.36871
 C155 C 0.04772 0.28724 0.35381
 C156 C 0.03232 0.25900 0.35369
 H157 H -0.04735 0.24426 0.33200
 H158 H 0.01827 0.20638 0.40710
 H159 H -0.03103 0.28108 0.39584
 H160 H 0.04248 0.23885 0.34228
 H161 H -0.06805 0.16064 0.38764
 H162 H 0.04653 0.33496 0.36888
 C163 C -0.02321 0.75521 0.13525
 C164 C 0.00340 0.75739 0.11580
 C165 C 0.01012 0.78448 0.09743
 C166 C -0.00917 0.80955 0.09877
 C167 C -0.03572 0.80717 0.11756
 C168 C -0.04381 0.77979 0.13503
 C169 C 0.02468 0.73170 0.11354
 C170 C 0.02072 0.71012 0.08518
 C171 C 0.04481 0.69091 0.07626
 C172 C 0.07184 0.69222 0.09834
 C173 C 0.07599 0.71343 0.12674
 C174 C 0.05217 0.73300 0.13444
 H175 H -0.02852 0.73396 0.14860
 H176 H 0.03062 0.78615 0.08256
 H177 H -0.00005 0.71034 0.06822
 H178 H 0.05572 0.75068 0.15492
 H179 H -0.04990 0.82726 0.11882
 H180 H 0.09008 0.67642 0.09389
 C181 C 0.47625 0.26448 0.65550
 C182 C 0.49414 0.26562 0.62524
 C183 C 0.49217 0.29092 0.60198
 C184 C 0.47341 0.31581 0.60960
 C185 C 0.45804 0.31534 0.64193
 C186 C 0.45784 0.28936 0.66388
 C187 C 0.51433 0.24001 0.61713
 C188 C 0.50472 0.21722 0.59215
 C189 C 0.52459 0.19388 0.58270
 C190 C 0.55437 0.19365 0.59841
 C191 C 0.56409 0.21605 0.62425
 C192 C 0.54370 0.23903 0.63351
 H193 H 0.47614 0.24404 0.67193
 H194 H 0.50500 0.29091 0.57783
 H195 H 0.48185 0.21776 0.57994
 H196 H 0.55092 0.25677 0.65275
 H197 H 0.44443 0.33447 0.64935
 H198 H 0.56949 0.17535 0.59148
 C199 C 0.44792 0.72795 0.88238
 C200 C 0.47870 0.73029 0.89369
 C201 C 0.49126 0.70878 0.91780
 C202 C 0.47290 0.68614 0.93292
 C203 C 0.44165 0.68501 0.92251
 C204 C 0.42919 0.70509 0.89614
 C205 C 0.49685 0.75738 0.88410
 C206 C 0.48669 0.78646 0.89365
 C207 C 0.50439 0.81251 0.88796
 C208 C 0.53240 0.80956 0.87187
 C209 C 0.54351 0.78048 0.86313
 C210 C 0.52538 0.75439 0.86920
 H211 H 0.43840 0.74453 0.86344
 H212 H 0.51492 0.71135 0.92686
 H213 H 0.46541 0.78873 0.90682
 H214 H 0.53338 0.73175 0.86258
 H215 H 0.42753 0.66709 0.93307
 H216 H 0.54647 0.82974 0.86854
 C217 C -0.27601 0.55709 0.99087
 C218 C -0.24727 0.57072 0.99763
 C219 C -0.24063 0.58656 1.03005
 C220 C -0.26307 0.59110 1.05482
 C221 C -0.29201 0.57848 1.04735
 C222 C -0.29895 0.56105 1.01554
 C223 C -0.22808 0.57766 0.96749
 C224 C -0.23565 0.60335 0.94682
 C225 C -0.21489 0.61674 0.92375
 C226 C -0.18779 0.60073 0.91819
 C227 C -0.18039 0.57424 0.93824
 C228 C -0.20019 0.56344 0.96379
 H229 H -0.28113 0.54653 0.96476
 H230 H -0.21892 0.59834 1.03397
 H231 H -0.25772 0.61309 0.95043
 H232 H -0.19382 0.54429 0.98094
 H233 H -0.30918 0.58252 1.06671
 H234 H -0.17138 0.60979 0.90016
 C235 C -0.30714 0.41307 0.51252
 C236 C -0.27798 0.40123 0.50986
 C237 C -0.27397 0.37421 0.49061
 C238 C -0.29848 0.35883 0.47277
 C239 C -0.32797 0.36956 0.47750
 C240 C -0.33266 0.39675 0.49764
 C241 C -0.25194 0.41273 0.53246
 C242 C -0.24269 0.39491 0.56210
 C243 C -0.21453 0.39989 0.58021
 C244 C -0.19616 0.42421 0.57000
 C245 C -0.20493 0.44213 0.53997
 C246 C -0.23275 0.43615 0.52081
 H247 H -0.31004 0.43353 0.52867
 H248 H -0.25132 0.36475 0.49069
 H249 H -0.25683 0.37578 0.56976
 H250 H -0.23868 0.44851 0.49625
 H251 H -0.34693 0.35768 0.46376
 H252 H -0.17397 0.42764 0.58354
 C253 C 0.19943 -0.08894 0.01545
 C254 C 0.22761 -0.10308 0.01381
 C255 C 0.22980 -0.13108 -0.00418
 C256 C 0.20391 -0.14663 -0.01942
 C257 C 0.17553 -0.13211 -0.01719
 C258 C 0.17322 -0.10342 0.00028
 C259 C 0.25393 -0.09256 0.03678
 C260 C 0.26330 -0.11114 0.06572
 C261 C 0.28880 -0.10351 0.08821
 C262 C 0.30499 -0.07655 0.08132
 C263 C 0.29749 -0.05929 0.05022
 C264 C 0.27157 -0.06700 0.02826
 H265 H 0.19766 -0.06765 0.03039
 H266 H 0.25240 -0.14009 -0.00565
 H267 H 0.25016 -0.13164 0.07096
 H268 H 0.26604 -0.05415 0.00394
 H269 H 0.15508 -0.14307 -0.02874
 H270 H 0.32565 -0.07111 0.09732
 C271 C 0.21882 1.06806 0.46832
 C272 C 0.24635 1.08458 0.47315
 C273 C 0.24984 1.10660 0.50059
 C274 C 0.22610 1.11299 0.52298
 C275 C 0.19869 1.09676 0.51805
 C276 C 0.19469 1.07383 0.49102
 C277 C 0.26987 1.08329 0.44636
 C278 C 0.26973 1.10599 0.41992
 C279 C 0.29294 1.10799 0.39542
 C280 C 0.31644 1.08637 0.39773
 C281 C 0.31814 1.06504 0.42601
 C282 C 0.29469 1.06344 0.45027
 H283 H 0.21597 1.05191 0.44612
 H284 H 0.27087 1.11970 0.50361
 H285 H 0.25126 1.12229 0.41867
 H286 H 0.29617 1.04753 0.47257
 H287 H 0.18071 1.10173 0.53601
 H288 H 0.33527 1.08814 0.38018
 C289 C 0.12961 0.50888 0.19895
 C290 C 0.14701 0.52038 0.22866
 C291 C 0.16701 0.54489 0.22443
 C292 C 0.16946 0.55867 0.19057
 C293 C 0.15222 0.54666 0.16058
 C294 C 0.13219 0.52184 0.16484
 C295 C 0.14419 0.50667 0.26425
 C296 C 0.16088 0.48052 0.27301
 C297 C 0.15599 0.46449 0.30484
 C298 C 0.13510 0.47599 0.32883
 C299 C 0.11850 0.50254 0.32029
 C300 C 0.12295 0.51773 0.28782
 H301 H 0.11359 0.49028 0.20254
 H302 H 0.17977 0.55391 0.24798
 H303 H 0.17624 0.47157 0.25366
 H304 H 0.10913 0.53732 0.28028
 H305 H 0.15342 0.55719 0.13433
 H306 H 0.13059 0.46356 0.35320
 C307 C -0.13534 1.00482 0.17424
 C308 C -0.14223 0.98822 0.20494
 C309 C -0.15811 0.96065 0.20100
 C310 C -0.16892 0.94966 0.16689
 C311 C -0.16374 0.96749 0.13627
 C312 C -0.14526 0.99442 0.13939
 C313 C -0.13627 1.00073 0.24169
 C314 C -0.15653 1.02252 0.25413
 C315 C -0.15538 1.03204 0.29051
 C316 C -0.13322 1.01880 0.31414
 C317 C -0.11292 0.99656 0.30240
 C318 C -0.11437 0.98768 0.26586
 H319 H -0.12232 1.02592 0.17765
 H320 H -0.16298 0.94814 0.22526
 H321 H -0.17361 1.03159 0.23512
 H322 H -0.09969 0.96978 0.25665
 H323 H -0.17050 0.95805 0.11004
 H324 H -0.13221 1.02450 0.34252
 C325 C 0.38106 0.50783 -0.30056
 C326 C 0.36173 0.49659 -0.27490
 C327 C 0.33968 0.47468 -0.28475
 C328 C 0.33633 0.46375 -0.32028
 C329 C 0.35454 0.47630 -0.34672
 C330 C 0.37736 0.49834 -0.33696
 C331 C 0.36268 0.50909 -0.23808
 C332 C 0.34148 0.53133 -0.22954
 C333 C 0.34069 0.54337 -0.19434
 C334 C 0.36068 0.53100 -0.16746
 C335 C 0.38166 0.50817 -0.17557
 C336 C 0.38289 0.49758 -0.21125
 H337 H 0.39782 0.52519 -0.29241
 H338 H 0.32562 0.46544 -0.26417
 H339 H 0.32622 0.53975 -0.25101
 H340 H 0.39861 0.47974 -0.21796
 H341 H 0.35214 0.46766 -0.37419
 H342 H 0.35984 0.53850 -0.13974
 C343 C 0.62774 0.01067 -0.28512
 C344 C 0.64790 0.02208 -0.25780
 C345 C 0.66957 0.04417 -0.26577
 C346 C 0.67157 0.05498 -0.30115
 C347 C 0.65356 0.04085 -0.32919
 C348 C 0.63090 0.01928 -0.32117
 C349 C 0.64580 0.01150 -0.22055
 C350 C 0.66406 -0.01264 -0.20799
 C351 C 0.66003 -0.02538 -0.17388
 C352 C 0.63871 -0.01232 -0.15160
 C353 C 0.62063 0.01219 -0.16398
 C354 C 0.62400 0.02380 -0.19864
 H355 H 0.61035 -0.00578 -0.27842
 H356 H 0.68359 0.05419 -0.24381
 H357 H 0.67987 -0.02289 -0.22590
 H358 H 0.60910 0.04171 -0.20892
 H359 H 0.65528 0.04855 -0.35673
 H360 H 0.63482 -0.02236 -0.12557
 C361 C 0.01068 0.22009 0.87912
 C362 C 0.00616 0.24706 0.85891
 C363 C -0.02332 0.25523 0.84667
 C364 C -0.04831 0.23702 0.85467
 C365 C -0.04363 0.21014 0.87463
 C366 C -0.01434 0.20142 0.88694
 C367 C 0.03177 0.26708 0.84972
 C368 C 0.05210 0.25771 0.82398
 C369 C 0.07371 0.27843 0.81121
 C370 C 0.07476 0.30856 0.82478
 C371 C 0.05481 0.31807 0.85101
 C372 C 0.03347 0.29711 0.86339
 H373 H 0.03346 0.21345 0.88804
 H374 H -0.02678 0.27591 0.83100
 H375 H 0.05025 0.23468 0.81296
 H376 H 0.01730 0.30445 0.88266
 H377 H -0.06290 0.19559 0.88015
 H378 H 0.09172 0.32440 0.81556
 C379 C 0.49551 0.20142 0.13485
 C380 C 0.49686 0.23128 0.14884
 C381 C 0.51938 0.23951 0.17513
 C382 C 0.54001 0.21769 0.18838
 C383 C 0.53820 0.18760 0.17500
 C384 C 0.51642 0.17950 0.14761
 C385 C 0.47480 0.25415 0.13619
 C386 C 0.44478 0.25199 0.14632
 C387 C 0.42418 0.27536 0.13766
 C388 C 0.43384 0.30079 0.11775
 C389 C 0.46422 0.30325 0.10813
 C390 C 0.48451 0.27974 0.11736
 H391 H 0.47839 0.19537 0.11393
 H392 H 0.52073 0.26284 0.18536
 H393 H 0.43776 0.23252 0.16199
 H394 H 0.50817 0.28180 0.11092
 H395 H 0.55498 0.17104 0.18429
 H396 H 0.41850 0.31962 0.11214
 C397 C -0.00464 0.69947 0.62492
 C398 C -0.00401 0.72756 0.64359
 C399 C 0.01648 0.73208 0.67352
 C400 C 0.03546 0.70828 0.68558
 C401 C 0.03477 0.68052 0.66669
 C402 C 0.01487 0.67586 0.63644
 C403 C -0.02767 0.75051 0.63601
 C404 C -0.05587 0.74618 0.65104
 C405 C -0.07594 0.77075 0.65448
 C406 C -0.06778 0.79948 0.64040
 C407 C -0.04090 0.80309 0.62150
 C408 C -0.02065 0.77856 0.62008
 H409 H -0.02095 0.69570 0.60242
 H410 H 0.01683 0.75367 0.68816
 H411 H -0.06047 0.72447 0.66381
 H412 H 0.00128 0.78185 0.60862
 H413 H 0.05057 0.66272 0.67501
 H414 H -0.08278 0.81882 0.64305
 C415 C 0.51930 0.71825 0.38988
 C416 C 0.51649 0.74448 0.36813
 C417 C 0.48764 0.75341 0.35414
 C418 C 0.46166 0.73673 0.36251
 C419 C 0.46475 0.71079 0.38437
 C420 C 0.49326 0.70142 0.39804
 C421 C 0.54278 0.76492 0.36353
 C422 C 0.56290 0.76022 0.33580
 C423 C 0.58578 0.78203 0.32972
 C424 C 0.58873 0.80793 0.35275
 C425 C 0.56875 0.81286 0.38061
 C426 C 0.54585 0.79103 0.38561
 H427 H 0.54149 0.71112 0.40045
 H428 H 0.48538 0.77387 0.33784
 H429 H 0.56001 0.74033 0.31830
 H430 H 0.52976 0.79455 0.40636
 H431 H 0.44486 0.69713 0.38996
 H432 H 0.60632 0.82464 0.34832
 B433 B -0.03278 0.01511 0.99554
 B434 B -0.04714 0.00193 0.95548
 B435 B -0.01946 0.02903 0.95703
 B436 B 0.00490 0.02180 0.99282
 B437 B -0.00797 -0.01068 1.01281
 B438 B -0.04040 -0.02272 0.98962
 B439 B 0.00592 -0.02562 0.94396
 B440 B 0.02019 -0.01255 0.98405
 B441 B -0.00743 -0.03951 0.98215
 B442 B -0.03178 -0.03233 0.94657
 B443 B -0.01890 -0.00000 0.92664
 B444 B 0.01356 0.01215 0.94991
 B445 B 0.46273 0.51414 0.49210
 B446 B 0.44885 0.50240 0.45078
 B447 B 0.47863 0.52714 0.45462
 B448 B 0.50085 0.51754 0.49130
 B449 B 0.48472 0.48595 0.50972
 B450 B 0.45222 0.47718 0.48472
 B451 B 0.50013 0.47057 0.44173
 B452 B 0.51373 0.48223 0.48300
 B453 B 0.48414 0.45744 0.47869
 B454 B 0.46184 0.46692 0.44232
 B455 B 0.47800 0.49819 0.42384
 B456 B 0.51055 0.50744 0.44892
 B457 B 0.54169 0.99714 0.49627
 B458 B 0.55767 1.00329 0.45641
 B459 B 0.53122 0.97529 0.46054
 B460 B 0.50458 0.98783 0.48820
 B461 B 0.51491 1.02395 0.50153
 B462 B 0.54809 1.03324 0.48219
 B463 B 0.50466 1.02423 0.42818
 B464 B 0.48844 1.01830 0.46761
 B465 B 0.51485 1.04611 0.46437
 B466 B 0.54141 1.03368 0.43635
 B467 B 0.53123 0.99725 0.42312
 B468 B 0.49809 0.98815 0.44242
 B469 B 0.04377 0.50021 0.97998
 B470 B 0.06048 0.50893 0.94148
 B471 B 0.03411 0.48091 0.94193
 B472 B 0.00697 0.49105 0.97003
 B473 B 0.01684 0.52648 0.98679
 B474 B 0.05043 0.53702 0.96942
 B475 B 0.00783 0.53164 0.91381
 B476 B -0.00900 0.52270 0.95219
 B477 B 0.01733 0.55104 0.95199
 B478 B 0.04462 0.54078 0.92379
 B479 B 0.03468 0.50551 0.90692
 B480 B 0.00118 0.49449 0.92440
 B481 B 0.01113 0.51023 0.47813
 B482 B 0.02693 0.49679 0.51709
 B483 B 0.00237 0.52592 0.51737
 B484 B -0.02517 0.52031 0.48469
 B485 B -0.01744 0.48653 0.46398
 B486 B 0.01527 0.47216 0.48400
 B487 B -0.02735 0.47427 0.53456
 B488 B -0.04318 0.48788 0.49574
 B489 B -0.01869 0.45855 0.49524
 B490 B 0.00895 0.46426 0.52803
 B491 B 0.00109 0.49794 0.54868
 B492 B -0.03136 0.51241 0.52875
 B493 B 0.51236 0.01462 -0.00954
 B494 B 0.52841 -0.00049 0.02851
 B495 B 0.50308 0.02787 0.03064
 B496 B 0.47577 0.02310 -0.00256
 B497 B 0.48455 -0.00921 -0.02564
 B498 B 0.51771 -0.02351 -0.00645
 B499 B 0.47476 -0.02555 0.04371
 B500 B 0.45864 -0.01040 0.00597
 B501 B 0.48405 -0.03884 0.00336
 B502 B 0.51129 -0.03403 0.03679
 B503 B 0.50231 -0.00170 0.05981
 B504 B 0.46966 0.01275 0.04078
 B505 B 0.47353 0.49304 0.00904
 B506 B 0.46667 0.49021 0.05332
 B507 B 0.49327 0.46843 0.03516
 B508 B 0.51137 0.48920 0.00406
 B509 B 0.49497 0.52440 0.00323
 B510 B 0.46689 0.52450 0.03341
 B511 B 0.52117 0.51563 0.07098
 B512 B 0.52803 0.51912 0.02711
 B513 B 0.50060 0.54068 0.04443
 B514 B 0.48346 0.51989 0.07589
 B515 B 0.49963 0.48447 0.07669
 B516 B 0.52727 0.48388 0.04604
 B517 B -0.02549 0.97902 0.48875
 B518 B -0.03701 0.98059 0.53164
 B519 B -0.00642 0.95985 0.52264
 B520 B 0.01319 0.97820 0.49061
 B521 B -0.00584 1.01128 0.48072
 B522 B -0.03744 1.01224 0.50591
 B523 B 0.01282 1.01391 0.55216
 B524 B 0.02481 1.01211 0.50996
 B525 B -0.00642 1.03294 0.51843
 B526 B -0.02574 1.01455 0.55043
 B527 B -0.00647 0.98201 0.56038
 B528 B 0.02467 0.98010 0.53496
 B529 B 0.74100 0.18967 0.26678
 B530 B 0.73599 0.16940 0.30454
 B531 B 0.76334 0.19667 0.30444
 B532 B 0.75031 0.22626 0.27825
 B533 B 0.71408 0.21670 0.26341
 B534 B 0.70561 0.18127 0.27988
 B535 B 0.71520 0.22004 0.33701
 B536 B 0.71989 0.24018 0.29912
 B537 B 0.69302 0.21242 0.29988
 B538 B 0.70609 0.18325 0.32584
 B539 B 0.74178 0.19313 0.34074
 B540 B 0.75067 0.22836 0.32403
 B541 B 0.72559 0.80865 0.75330
 B542 B 0.73778 0.81841 0.79589
 B543 B 0.70983 0.79223 0.78865
 B544 B 0.71734 0.77074 0.75217
 B545 B 0.75076 0.78394 0.73655
 B546 B 0.76281 0.81408 0.76346
 B547 B 0.76259 0.76277 0.80458
 B548 B 0.75017 0.75270 0.76272
 B549 B 0.77828 0.77946 0.76915
 B550 B 0.77069 0.80052 0.80612
 B551 B 0.73734 0.78709 0.82182
 B552 B 0.72497 0.75750 0.79480
 B553 B 0.26906 0.28437 0.73578
 B554 B 0.27072 0.29659 0.69266
 B555 B 0.29004 0.26533 0.70699
 B556 B 0.26891 0.24557 0.73573
 B557 B 0.23611 0.26509 0.73948
 B558 B 0.23750 0.29716 0.71333
 B559 B 0.23898 0.24699 0.66905
 B560 B 0.23712 0.23465 0.71144
 B561 B 0.21770 0.26607 0.69865
 B562 B 0.23866 0.28562 0.66916
 B563 B 0.27194 0.26592 0.66541
 B564 B 0.27046 0.23440 0.69206
 B565 B 0.24905 0.72596 0.28007
 B566 B 0.25834 0.71118 0.24024
 B567 B 0.23151 0.73825 0.24180
 B568 B 0.24166 0.76377 0.27482
 B569 B 0.27575 0.75202 0.29356
 B570 B 0.28576 0.71905 0.27220
 B571 B 0.28375 0.76478 0.22269
 B572 B 0.27450 0.77986 0.26254
 B573 B 0.30124 0.75254 0.26089
 B574 B 0.29098 0.72710 0.22804
 B575 B 0.25702 0.73899 0.20936
 B576 B 0.24697 0.77192 0.23052
 B577 B 0.24609 0.71033 0.76014
 B578 B 0.23799 0.68762 0.79495
 B579 B 0.26416 0.71574 0.80057
 B580 B 0.25275 0.74646 0.77608
 B581 B 0.21883 0.73682 0.75521
 B582 B 0.20980 0.69998 0.76661
 B583 B 0.21192 0.73454 0.82811
 B584 B 0.21998 0.75775 0.79374
 B585 B 0.19388 0.72953 0.78706
 B586 B 0.20520 0.69880 0.81200
 B587 B 0.23942 0.70856 0.83303
 B588 B 0.24838 0.74521 0.82147
 B589 B 0.21940 0.29391 0.22192
 B590 B 0.23095 0.30662 0.26325
 B591 B 0.20330 0.27991 0.25814
 B592 B 0.21130 0.25591 0.22411
 B593 B 0.24463 0.26838 0.20804
 B594 B 0.25669 0.30002 0.23233
 B595 B 0.25564 0.25199 0.27858
 B596 B 0.24420 0.23907 0.23719
 B597 B 0.27172 0.26591 0.24179
 B598 B 0.26383 0.28969 0.27615
 B599 B 0.23013 0.27747 0.29212
 B600 B 0.21829 0.24567 0.26818
 B601 B 0.77820 0.77496 0.25683
 B602 B 0.77726 0.78143 0.21196
 B603 B 0.80118 0.75477 0.22918
 B604 B 0.78459 0.73709 0.26371
 B605 B 0.74900 0.75222 0.26630
 B606 B 0.74473 0.77991 0.23402
 B607 B 0.75159 0.72540 0.20009
 B608 B 0.75389 0.71885 0.24476
 B609 B 0.72931 0.74496 0.22700
 B610 B 0.74604 0.76336 0.19270
 B611 B 0.78104 0.74776 0.18985
 B612 B 0.78580 0.72015 0.22201
 B613 B 0.73944 0.23259 0.77361
 B614 B 0.74989 0.21542 0.73548
 B615 B 0.72252 0.24209 0.73375
 B616 B 0.73164 0.26983 0.76476
 B617 B 0.76548 0.25976 0.78554
 B618 B 0.77643 0.22576 0.76748
 B619 B 0.77488 0.26815 0.71412
 B620 B 0.76457 0.28558 0.75223
 B621 B 0.79170 0.25863 0.75386
 B622 B 0.78256 0.23111 0.72295
 B623 B 0.74873 0.24122 0.70210
 B624 B 0.73775 0.27529 0.72006
 C625 C 0.44002 1.04065 0.33963
 C626 C 0.44308 1.06223 0.36771
 N627 N 0.42243 1.08514 0.36914
 C628 C 0.39863 1.08698 0.34414
 C629 C 0.39439 1.06384 0.31743
 N630 N 0.41574 1.04163 0.31602
 N631 N 0.46056 1.01806 0.33719
 C632 C 0.48338 1.01499 0.36263
 C633 C 0.48509 1.03462 0.39309
 N634 N 0.46525 1.05849 0.39435
 H635 H 0.38234 1.10514 0.34667
 H636 H 0.49857 0.99587 0.36012
 C637 C -0.05799 0.55117 0.82854
 C638 C -0.05422 0.57193 0.85740
 N639 N -0.07563 0.59372 0.86167
 C640 C -0.10104 0.59495 0.83906
 C641 C -0.10607 0.57223 0.81197
 N642 N -0.08377 0.55146 0.80731
 N643 N -0.03692 0.52948 0.82361
 C644 C -0.01313 0.52613 0.84771
 C645 C -0.01117 0.54421 0.87945
 N646 N -0.03116 0.56770 0.88276
 H647 H -0.11795 0.61200 0.84421
 H648 H 0.00237 0.50754 0.84345
 C649 C 0.08052 -0.05089 0.88147
 C650 C 0.05886 -0.02988 0.86846
 N651 N 0.06481 -0.01195 0.84004
 C652 C 0.09202 -0.01319 0.82472
 C653 C 0.11499 -0.03254 0.83928
 N654 N 0.10817 -0.05168 0.86678
 N655 N 0.07409 -0.06889 0.90987
 C656 C 0.04781 -0.06531 0.92723
 C657 C 0.02779 -0.04161 0.91685
 N658 N 0.03341 -0.02556 0.88656
 H659 H 0.09534 0.00089 0.80139
 H660 H 0.04404 -0.07917 0.95052
 C661 C 0.56949 0.44604 0.37132
 C662 C 0.57265 0.43895 0.40801
 N663 N 0.60038 0.43170 0.42300
 C664 C 0.62542 0.43218 0.40313
 C665 C 0.62265 0.44138 0.36695
 N666 N 0.59458 0.44749 0.35169
 N667 N 0.54175 0.45360 0.35659
 C668 C 0.51740 0.45628 0.37750
 C669 C 0.52131 0.45271 0.41523
 N670 N 0.54874 0.44298 0.42891
 H671 H 0.64738 0.42673 0.41578
 H672 H 0.49605 0.46395 0.36517
 C673 C 0.59511 0.52343 0.15347
 C674 C 0.56677 0.53621 0.16023
 N675 N 0.56280 0.54894 0.19329
 C676 C 0.58579 0.54911 0.21954
 C677 C 0.61379 0.53568 0.21240
 N678 N 0.61759 0.52336 0.17947
 N679 N 0.59969 0.51033 0.12137
 C680 C 0.57725 0.50894 0.09543
 C681 C 0.54824 0.52143 0.10130
 N682 N 0.54371 0.53481 0.13405
 H683 H 0.58217 0.55911 0.24573
 H684 H 0.58241 0.49758 0.07058
 C685 C 0.08215 1.03802 0.63621
 C686 C 0.07802 1.00846 0.62228
 N687 N 0.09727 0.98587 0.63254
 C688 C 0.12066 0.99123 0.65681
 C689 C 0.12551 1.02090 0.67149
 N690 N 0.10609 1.04382 0.66027
 N691 N 0.06190 1.06015 0.62556
 C692 C 0.03830 1.05395 0.60088
 C693 C 0.03546 1.02448 0.58535
 N694 N 0.05532 1.00274 0.59754
 H695 H 0.13588 0.97255 0.66328
 H696 H 0.02284 1.07197 0.59249
 C697 C -0.09178 0.45234 0.61422
 C698 C -0.06502 0.46889 0.62335
 N699 N -0.06184 0.48368 0.65554
 C700 C -0.08474 0.48378 0.67858
 C701 C -0.11254 0.46917 0.66862
 N702 N -0.11514 0.45299 0.63693
 N703 N -0.09477 0.43804 0.58152
 C704 C -0.07291 0.44089 0.55695
 C705 C -0.04745 0.45999 0.56486
 N706 N -0.04391 0.47256 0.59849
 H707 H -0.08167 0.49619 0.70389
 H708 H -0.07662 0.43034 0.53062
 C709 C 0.41260 -0.05423 0.12259
 C710 C 0.43968 -0.03859 0.13275
 N711 N 0.44354 -0.02613 0.16622
 C712 C 0.42093 -0.02734 0.18960
 C713 C 0.39288 -0.04088 0.17864
 N714 N 0.38959 -0.05480 0.14565
 N715 N 0.40866 -0.06576 0.08855
 C716 C 0.42984 -0.06083 0.06366
 C717 C 0.45551 -0.04240 0.07284
 N718 N 0.46011 -0.03282 0.10767
 H719 H 0.42413 -0.01624 0.21573
 H720 H 0.42541 -0.06922 0.03642
 C721 C 0.37657 0.45634 0.07292
 C722 C 0.39758 0.43810 0.05567
 N723 N 0.38836 0.41148 0.03942
 C724 C 0.35878 0.40259 0.03876
 C725 C 0.33738 0.42130 0.05477
 N726 N 0.34686 0.44757 0.07212
 N727 N 0.38584 0.48362 0.08770
 C728 C 0.41490 0.49393 0.08490
 C729 C 0.43555 0.47633 0.06589
 N730 N 0.42625 0.44859 0.05254
 H731 H 0.35183 0.38154 0.02497
 H732 H 0.42122 0.51632 0.09565
 C733 C -0.12182 0.93323 0.55123
 C734 C -0.11383 0.95940 0.57175
 N735 N -0.13423 0.97067 0.59482
 C736 C -0.16250 0.95760 0.59684
 C737 C -0.17129 0.93347 0.57295
 N738 N -0.15019 0.92172 0.55155
 N739 N -0.10200 0.92090 0.52902
 C740 C -0.07469 0.93415 0.52504
 C741 C -0.06707 0.96228 0.54256
 N742 N -0.08673 0.97389 0.56653
 H743 H -0.17866 0.96767 0.61435
 H744 H -0.06068 0.92419 0.50521
 C745 C -0.14027 0.03193 0.94346
 C746 C -0.11611 0.05140 0.93568
 N747 N -0.12108 0.08157 0.92985
 C748 C -0.14924 0.09347 0.93215
 C749 C -0.17341 0.07449 0.94183
 N750 N -0.16836 0.04395 0.94702
 N751 N -0.13476 0.00170 0.94939
 C752 C -0.10597 -0.00959 0.94910
 C753 C -0.08137 0.01051 0.94387
 N754 N -0.08757 0.04036 0.93693
 H755 H -0.15232 0.11782 0.92837
 H756 H -0.10214 -0.03344 0.95547
 C757 C 0.35851 0.53680 0.42729
 C758 C 0.36287 0.51017 0.44770
 N759 N 0.33966 0.49891 0.46650
 C760 C 0.31270 0.51383 0.46709
 C761 C 0.30898 0.54195 0.44894
 N762 N 0.33190 0.55212 0.42858
 N763 N 0.38190 0.54845 0.40915
 C764 C 0.41002 0.53585 0.41238
 C765 C 0.41541 0.51122 0.43606
 N766 N 0.39116 0.49812 0.45178
 H767 H 0.29483 0.50424 0.48257
 H768 H 0.42805 0.54607 0.39800
 C769 C 0.12161 0.52146 0.53970
 C770 C 0.09855 0.53494 0.55879
 N771 N 0.10530 0.55889 0.58133
 C772 C 0.13405 0.57042 0.58530
 C773 C 0.15738 0.55765 0.56541
 N774 N 0.15032 0.53316 0.54329
 N775 N 0.11457 0.49809 0.51628
 C776 C 0.08532 0.48815 0.51037
 C777 C 0.06187 0.50267 0.52821
 N778 N 0.06940 0.52535 0.55253
 H779 H 0.13795 0.59031 0.60242
 H780 H 0.08035 0.47016 0.49070
 C781 C 0.62149 0.02489 0.05814
 C782 C 0.61430 0.01029 0.02504
 N783 N 0.63592 0.00803 0.00039
 C784 C 0.66405 0.02074 0.00682
 C785 C 0.67073 0.03736 0.03916
 N786 N 0.64917 0.03812 0.06418
 N787 N 0.60007 0.02747 0.08284
 C788 C 0.57125 0.01736 0.07530
 C789 C 0.56310 0.00501 0.04093
 N790 N 0.58527 0.00072 0.01708
 H791 H 0.68042 0.01833 -0.01364
 H792 H 0.55473 0.02018 0.09558
 C793 C 0.65123 0.97787 0.44360
 C794 C 0.62794 0.96531 0.42095
 N795 N 0.63389 0.94105 0.39940
 C796 C 0.66173 0.92768 0.40087
 C797 C 0.68455 0.93873 0.42571
 N798 N 0.67874 0.96423 0.44559
 N799 N 0.64515 1.00149 0.46602
 C800 C 0.61635 1.01196 0.46832
 C801 C 0.59228 0.99709 0.44858
 N802 N 0.59907 0.97522 0.42394
 H803 H 0.66504 0.90735 0.38480
 H804 H 0.61212 1.03010 0.48739
 C805 C 0.15237 0.47664 0.93458
 C806 C 0.12872 0.46472 0.91191
 N807 N 0.13342 0.43939 0.89163
 C808 C 0.16057 0.42481 0.89373
 C809 C 0.18397 0.43565 0.91793
 N810 N 0.17926 0.46171 0.93734
 N811 N 0.14731 0.50154 0.95554
 C812 C 0.11923 0.51428 0.95594
 C813 C 0.09486 0.50079 0.93536
 N814 N 0.10066 0.47693 0.91302
 H815 H 0.16303 0.40393 0.87834
 H816 H 0.11563 0.53335 0.97396
 C817 C -0.01861 0.36772 0.45062
 C818 C -0.02353 0.39337 0.42860
 N819 N -0.02139 0.39083 0.39238
 C820 C -0.01362 0.36389 0.37711
 C821 C -0.00742 0.33847 0.39909
 N822 N -0.01057 0.34076 0.43539
 N823 N -0.01901 0.37102 0.48709
 C824 C -0.02285 0.39905 0.50255
 C825 C -0.02589 0.42506 0.48051
 N826 N -0.02680 0.42115 0.44404
 H827 H -0.01118 0.36260 0.34824
 H828 H -0.02127 0.40125 0.53166
 C829 C 0.48326 -0.12859 -0.04576
 C830 C 0.48351 -0.10197 -0.06661
 N831 N 0.48915 -0.10383 -0.10219
 C832 C 0.49509 -0.13120 -0.11787
 C833 C 0.49532 -0.15789 -0.09701
 N834 N 0.48900 -0.15597 -0.06145
 N835 N 0.47968 -0.12632 -0.00966
 C836 C 0.47711 -0.09851 0.00673
 C837 C 0.47808 -0.07169 -0.01399
 N838 N 0.48091 -0.07441 -0.05029
 H839 H 0.50002 -0.13208 -0.14615
 H840 H 0.47616 -0.09739 0.03578
 C841 C -0.00383 -0.13086 1.02821
 C842 C 0.00224 -0.10463 1.04950
 N843 N 0.00657 -0.10730 1.08581
 C844 C 0.00460 -0.13502 1.10199
 C845 C -0.00211 -0.16131 1.08098
 N846 N -0.00601 -0.15865 1.04440
 N847 N -0.00919 -0.12781 0.99198
 C848 C -0.00915 -0.09969 0.97617
 C849 C -0.00353 -0.07329 0.99756
 N850 N 0.00204 -0.07669 1.03379
 H851 H 0.00736 -0.13647 1.13110
 H852 H -0.01413 -0.09794 0.94739
 C853 C 0.48591 0.37008 0.53374
 C854 C 0.46412 0.39232 0.53987
 N855 N 0.44405 0.38810 0.56569
 C856 C 0.44549 0.36312 0.58703
 C857 C 0.46922 0.34179 0.58375
 N858 N 0.48837 0.34549 0.55614
 N859 N 0.50466 0.37396 0.50604
 C860 C 0.50334 0.39982 0.48547
 C861 C 0.48367 0.42363 0.49446
 N862 N 0.46391 0.41845 0.52075
 H863 H 0.42800 0.36052 0.60605
 H864 H 0.51851 0.40223 0.46373
 C865 C 0.52063 1.13738 0.50670
 C866 C 0.49775 1.11740 0.51746
 N867 N 0.48246 1.12420 0.54731
 C868 C 0.48954 1.14969 0.56745
 C869 C 0.51380 1.16871 0.55817
 N870 N 0.52856 1.16225 0.52760
 N871 N 0.53596 1.13038 0.47693
 C872 C 0.53065 1.10353 0.45864
 C873 C 0.51002 1.08183 0.47164
 N874 N 0.49347 1.09002 0.50021
 H875 H 0.47739 1.15424 0.59153
 H876 H 0.54458 1.09805 0.43633
 C877 C 0.01344 0.63782 1.00619
 C878 C 0.04013 0.62766 0.99127
 N879 N 0.06711 0.64062 1.00187
 C880 C 0.06901 0.66231 1.02817
 C881 C 0.04265 0.67135 1.04555
 N882 N 0.01517 0.65962 1.03282
 N883 N -0.01333 0.62364 0.99613
 C884 C -0.01419 0.59857 0.97382
 C885 C 0.01312 0.58644 0.96188
 N886 N 0.03927 0.60250 0.96979
 H887 H 0.09108 0.67233 1.03514
 H888 H -0.03571 0.58746 0.96739
 C889 C 0.47955 0.62992 0.00573
 C890 C 0.50780 0.61722 -0.00052
 N891 N 0.52523 0.62947 -0.02588
 C892 C 0.51529 0.65347 -0.04619
 C893 C 0.48556 0.66453 -0.04269
 N894 N 0.46858 0.65255 -0.01623
 N895 N 0.46280 0.61804 0.03215
 C896 C 0.47229 0.59283 0.05098
 C897 C 0.49862 0.57729 0.04102
 N898 N 0.51590 0.59082 0.01604
 H899 H 0.52957 0.66183 -0.06693
 H900 H 0.45748 0.58295 0.07029
 C901 C -0.02664 1.12006 0.46858
 C902 C 0.00246 1.10775 0.46751
 N903 N 0.02307 1.12080 0.44631
 C904 C 0.01572 1.14543 0.42551
 C905 C -0.01434 1.15645 0.42393
 N906 N -0.03479 1.14336 0.44589
 N907 N -0.04649 1.10786 0.49155
 C908 C -0.03888 1.08313 0.51235
 C909 C -0.01069 1.06857 0.50851
 N910 N 0.00911 1.08179 0.48604
 H911 H 0.03267 1.15477 0.40845
 H912 H -0.05576 1.07330 0.52916
 C913 C 0.79271 0.68403 0.86561
 C914 C 0.76869 0.70215 0.87629
 N915 N 0.75140 0.69268 0.90315
 C916 C 0.75638 0.66540 0.91946
 C917 C 0.77967 0.64590 0.90799
 N918 N 0.79768 0.65642 0.88163
 N919 N 0.80983 0.69383 0.83841
 C920 C 0.80323 0.72042 0.82069
 C921 C 0.77789 0.73766 0.83007
 N922 N 0.76178 0.72817 0.85827
 H923 H 0.74244 0.66003 0.94163
 H924 H 0.81659 0.72694 0.79833
 C925 C 0.27955 0.18402 0.35838
 C926 C 0.29002 0.18107 0.32354
 N927 N 0.30321 0.15448 0.31378
 C928 C 0.30576 0.13053 0.33708
 C929 C 0.29328 0.13268 0.37123
 N930 N 0.28076 0.15975 0.38089
 N931 N 0.26723 0.21071 0.36879
 C932 C 0.26333 0.23415 0.34526
 C933 C 0.27060 0.23022 0.30887
 N934 N 0.28468 0.20390 0.29932
 H935 H 0.31536 0.10937 0.32804
 H936 H 0.25266 0.25474 0.35455
 C937 C 0.69308 0.28509 0.42014
 C938 C 0.72153 0.28387 0.40521
 N939 N 0.74197 0.30673 0.41118
 C940 C 0.73563 0.33098 0.43210
 C941 C 0.70762 0.33234 0.44876
 N942 N 0.68665 0.30930 0.44198
 N943 N 0.67221 0.26257 0.41135
 C944 C 0.67846 0.23954 0.38753
 C945 C 0.70686 0.23924 0.37178
 N946 N 0.72752 0.26122 0.38212
 H947 H 0.75230 0.34926 0.43481
 H948 H 0.66107 0.22283 0.37961
 C949 C 0.18675 0.78849 0.91883
 C950 C 0.21550 0.77542 0.91760
 N951 N 0.23814 0.78464 0.94115
 C952 C 0.23412 0.80809 0.96437
 C953 C 0.20659 0.82472 0.96253
 N954 N 0.18296 0.81321 0.94082
 N955 N 0.16391 0.77770 0.89588
 C956 C 0.16948 0.75627 0.86998
 C957 C 0.19965 0.74756 0.86489
 N958 N 0.22132 0.75599 0.89051
 H959 H 0.25279 0.81344 0.98331
 H960 H 0.15112 0.74846 0.85162
 C961 C 0.29945 0.82455 0.13529
 C962 C 0.30746 0.83453 0.17045
 N963 N 0.31322 0.86481 0.17672
 C964 C 0.30995 0.88565 0.14958
 C965 C 0.29835 0.87594 0.11527
 N966 N 0.29420 0.84540 0.10903
 N967 N 0.29453 0.79437 0.12848
 C968 C 0.29500 0.77388 0.15579
 C969 C 0.29828 0.78438 0.19183
 N970 N 0.30586 0.81439 0.19810
 H971 H 0.31353 0.90971 0.15564
 H972 H 0.28973 0.75014 0.14941
 C973 C 0.79574 0.32608 0.62647
 C974 C 0.80324 0.33571 0.66196
 N975 N 0.80918 0.36583 0.66886
 C976 C 0.80628 0.38697 0.64213
 C977 C 0.79606 0.37763 0.60740
 N978 N 0.79189 0.34724 0.60020
 N979 N 0.78890 0.29622 0.61959
 C980 C 0.78697 0.27593 0.64695
 C981 C 0.79044 0.28636 0.68297
 N982 N 0.80001 0.31573 0.68936
 H983 H 0.80936 0.41101 0.64840
 H984 H 0.78002 0.25260 0.64056
 C985 C 0.21635 0.18135 0.58242
 C986 C 0.24253 0.17924 0.60515
 N987 N 0.26209 0.15585 0.60137
 C988 C 0.25684 0.13424 0.57542
 C989 C 0.23075 0.13596 0.55222
 N990 N 0.21082 0.15950 0.55633
 N991 N 0.19728 0.20546 0.58669
 C992 C 0.20328 0.22733 0.61285
 C993 C 0.22943 0.22473 0.63598
 N994 N 0.24815 0.20064 0.63093
 H995 H 0.27291 0.11582 0.57293
 H996 H 0.18770 0.24607 0.61597
 C997 C 0.72691 0.65456 0.12075
 C998 C 0.75540 0.65529 0.13928
 N999 N 0.77662 0.63427 0.13150
 C1000 C 0.77088 0.61272 0.10540
 C1001 C 0.74262 0.61219 0.08597
 N1002 N 0.72113 0.63305 0.09449
 N1003 N 0.70600 0.67612 0.12838
 C1004 C 0.71244 0.69851 0.15355
 C1005 C 0.74118 0.69944 0.17184
 N1006 N 0.76178 0.67759 0.16408
 H1007 H 0.78833 0.59639 0.09960
 H1008 H 0.69553 0.71557 0.15876
 C1009 C 0.22645 0.61898 0.21601
 C1010 C 0.21575 0.64377 0.19541
 N1011 N 0.19221 0.63955 0.17077
 C1012 C 0.17826 0.61174 0.16649
 C1013 C 0.18786 0.58712 0.18849
 N1014 N 0.21213 0.59144 0.21234
 N1015 N 0.24949 0.62336 0.24127
 C1016 C 0.26168 0.65171 0.24773
 C1017 C 0.24965 0.67704 0.22875
 N1018 N 0.22744 0.67214 0.20239
 H1019 H 0.15872 0.60954 0.14776
 H1020 H 0.27938 0.65457 0.26882
 C1021 C 0.72466 0.11994 0.71861
 C1022 C 0.71224 0.14269 0.69601
 N1023 N 0.68947 0.13528 0.67140
 C1024 C 0.67781 0.10631 0.66918
 C1025 C 0.68892 0.08377 0.69337
 N1026 N 0.71254 0.09127 0.71706
 N1027 N 0.74697 0.12743 0.74376
 C1028 C 0.75680 0.15688 0.74813
 C1029 C 0.74302 0.18020 0.72709
 N1030 N 0.72154 0.17223 0.70091
 H1031 H 0.65862 0.10169 0.65053
 H1032 H 0.77410 0.16210 0.76906
 C1033 C 0.77843 0.08242 0.29029
 C1034 C 0.78411 0.09929 0.32209
 N1035 N 0.80849 0.09253 0.34418
 C1036 C 0.82801 0.07005 0.33563
 C1037 C 0.82354 0.05380 0.30254
 N1038 N 0.79829 0.06044 0.28111
 N1039 N 0.75423 0.08970 0.26796
 C1040 C 0.73691 0.11454 0.27484
 C1041 C 0.74521 0.13401 0.30429
 N1042 N 0.76751 0.12457 0.32813
 H1043 H 0.84764 0.06683 0.35371
 H1044 H 0.71838 0.12020 0.25594
 C1045 C 0.27932 0.59872 0.79238
 C1046 C 0.28528 0.61880 0.82146
 N1047 N 0.30783 0.61251 0.84639
 C1048 C 0.32533 0.58730 0.84325
 C1049 C 0.32078 0.56769 0.81285
 N1050 N 0.29737 0.57404 0.78851
 N1051 N 0.25675 0.60521 0.76735
 C1052 C 0.24079 0.63168 0.76931
 C1053 C 0.24876 0.65319 0.79668
 N1054 N 0.27017 0.64558 0.82271
 H1055 H 0.34376 0.58431 0.86316
 H1056 H 0.22377 0.63682 0.74821
 C1057 C 0.31374 0.38280 0.66503
 C1058 C 0.28550 0.38220 0.68089
 N1059 N 0.27251 0.40889 0.69046
 C1060 C 0.28707 0.43612 0.68630
 C1061 C 0.31637 0.43673 0.67281
 N1062 N 0.32873 0.40995 0.66178
 N1063 N 0.32669 0.35602 0.65559
 C1064 C 0.31319 0.32865 0.66240
 C1065 C 0.28602 0.32787 0.68084
 N1066 N 0.27242 0.35488 0.68855
 H1067 H 0.27680 0.45695 0.69569
 H1068 H 0.32395 0.30777 0.65412
 C1069 C 0.81800 0.87112 0.19232
 C1070 C 0.79434 0.86086 0.16848
 N1071 N 0.78415 0.88018 0.14177
 C1072 C 0.79628 0.90913 0.13872
 C1073 C 0.81853 0.91980 0.16484
 N1074 N 0.82869 0.89987 0.19035
 N1075 N 0.82979 0.85267 0.21797
 C1076 C 0.81856 0.82436 0.22203
 C1077 C 0.79310 0.81357 0.20026
 N1078 N 0.78171 0.83231 0.17328
 H1079 H 0.78742 0.92404 0.11758
 H1080 H 0.82865 0.81135 0.24407
 C1081 C 0.71466 0.91068 0.82476
 C1082 C 0.69633 0.88601 0.83466
 N1083 N 0.66830 0.89148 0.84665
 C1084 C 0.65723 0.92043 0.84778
 C1085 C 0.67455 0.94498 0.83504
 N1086 N 0.70318 0.93944 0.82450
 N1087 N 0.74246 0.90516 0.81211
 C1088 C 0.75204 0.87601 0.80693
 C1089 C 0.73225 0.85122 0.81300
 N1090 N 0.70538 0.85694 0.82818
 H1091 H 0.63423 0.92382 0.85579
 H1092 H 0.77380 0.87246 0.79538
 C1093 C 0.20767 0.39955 0.29169
 C1094 C 0.18967 0.37472 0.30172
 N1095 N 0.16282 0.37991 0.31692
 C1096 C 0.15261 0.40890 0.32146
 C1097 C 0.16968 0.43386 0.30932
 N1098 N 0.19712 0.42841 0.29527
 N1099 N 0.23430 0.39431 0.27599
 C1100 C 0.24329 0.36529 0.26880
 C1101 C 0.22424 0.34036 0.27656
 N1102 N 0.19823 0.34588 0.29364
 H1103 H 0.13042 0.41216 0.33202
 H1104 H 0.26436 0.36190 0.25564
 C1105 C 0.12913 0.28130 0.73835
 C1106 C 0.14369 0.25326 0.74333
 N1107 N 0.13358 0.23298 0.76761
 C1108 C 0.10982 0.23978 0.78803
 C1109 C 0.09610 0.26866 0.78494
 N1110 N 0.10594 0.28867 0.75966
 N1111 N 0.14006 0.30160 0.71433
 C1112 C 0.16567 0.29553 0.69629
 C1113 C 0.18185 0.26837 0.70363
 N1114 N 0.16973 0.24804 0.72675
 H1115 H 0.10299 0.22347 0.80798
 H1116 H 0.17476 0.31291 0.67907
 C1117 C 0.63971 0.74733 0.26641
 C1118 C 0.65313 0.77373 0.25278
 N1119 N 0.64168 0.80159 0.26029
 C1120 C 0.61834 0.80448 0.28250
 C1121 C 0.60668 0.77843 0.29953
 N1122 N 0.61700 0.75018 0.28991
 N1123 N 0.65138 0.71952 0.25818
 C1124 C 0.67717 0.71724 0.23939
 C1125 C 0.69317 0.74400 0.23052
 N1126 N 0.67954 0.77145 0.23589
 H1127 H 0.60983 0.82714 0.28781
 H1128 H 0.68614 0.69485 0.23386
 C1129 C 0.59968 0.21306 0.26155
 C1130 C 0.61999 0.23580 0.25095
 N1131 N 0.61196 0.25460 0.22320
 C1132 C 0.58485 0.25094 0.20458
 C1133 C 0.56551 0.22662 0.21326
 N1134 N 0.57317 0.20853 0.24200
 N1135 N 0.60800 0.19411 0.28910
 C1136 C 0.63631 0.19593 0.30542
 C1137 C 0.65767 0.21684 0.29253
 N1138 N 0.64854 0.23661 0.26601
 H1139 H 0.57944 0.26546 0.18163
 H1140 H 0.64264 0.17962 0.32625
 C1141 C 0.10410 0.73764 0.73509
 C1142 C 0.11004 0.71449 0.76061
 N1143 N 0.08931 0.69161 0.76393
 C1144 C 0.06355 0.69034 0.74205
 C1145 C 0.05841 0.71281 0.71540
 N1146 N 0.07861 0.73624 0.71319
 N1147 N 0.12544 0.75920 0.72958
 C1148 C 0.15281 0.75845 0.74770
 C1149 C 0.15944 0.73514 0.77323
 N1150 N 0.13758 0.71366 0.77900
 H1151 H 0.04793 0.67123 0.74423
 H1152 H 0.16972 0.77512 0.74059
 C1153 C 0.86445 0.78578 0.71745
 C1154 C 0.84670 0.75906 0.71381
 N1155 N 0.85514 0.73644 0.69127
 C1156 C 0.88051 0.73938 0.67209
 C1157 C 0.89760 0.76696 0.67400
 N1158 N 0.88886 0.78955 0.69679
 N1159 N 0.85706 0.80746 0.74175
 C1160 C 0.83213 0.80409 0.76164
 C1161 C 0.81251 0.77849 0.75583
 N1162 N 0.82079 0.75657 0.73203
 H1163 H 0.88641 0.72088 0.65428
 H1164 H 0.82666 0.82236 0.77999
 C1165 C 0.36210 0.26240 0.20043
 C1166 C 0.33675 0.27174 0.17927
 N1167 N 0.34008 0.28191 0.14521
 C1168 C 0.36789 0.28335 0.13116
 C1169 C 0.39356 0.27399 0.15207
 N1170 N 0.38996 0.26352 0.18630
 N1171 N 0.35844 0.25316 0.23499
 C1172 C 0.33048 0.25307 0.24935
 C1173 C 0.30504 0.26242 0.22799
 N1174 N 0.30918 0.27137 0.19344
 H1175 H 0.36988 0.29142 0.10385
 H1176 H 0.32831 0.24624 0.27707
 C1177 C 0.39579 0.75430 0.29953
 C1178 C 0.37196 0.75259 0.32307
 N1179 N 0.37802 0.74871 0.35889
 C1180 C 0.40697 0.74555 0.37233
 C1181 C 0.43100 0.74569 0.34883
 N1182 N 0.42490 0.75062 0.31286
 N1183 N 0.38915 0.75774 0.26352
 C1184 C 0.35976 0.75903 0.25006
 C1185 C 0.33592 0.75633 0.27369
 N1186 N 0.34296 0.75322 0.30960
 H1187 H 0.41113 0.74193 0.40100
 H1188 H 0.35513 0.76101 0.22125
 C1189 C 0.88585 0.25839 0.79337
 C1190 C 0.86192 0.25598 0.81667
 N1191 N 0.86777 0.24916 0.85193
 C1192 C 0.89658 0.24399 0.86497
 C1193 C 0.92069 0.24553 0.84167
 N1194 N 0.91478 0.25318 0.80637
 N1195 N 0.87948 0.26395 0.75773
 C1196 C 0.85021 0.26649 0.74424
 C1197 C 0.82617 0.26316 0.76749
 N1198 N 0.83298 0.25830 0.80321
 H1199 H 0.90059 0.23826 0.89315
 H1200 H 0.84586 0.26965 0.71557
 C1201 C 0.59991 0.99107 0.59170
 C1202 C 0.56900 0.99727 0.59457
 N1203 N 0.55886 1.00682 0.62666
 C1204 C 0.57852 1.01150 0.65569
 C1205 C 0.61002 1.00893 0.65161
 N1206 N 0.61991 0.99831 0.61963
 N1207 N 0.60945 0.97885 0.56055
 C1208 C 0.58983 0.97497 0.53129
 C1209 C 0.56020 0.98664 0.53207
 N1210 N 0.55016 0.99608 0.56448
 H1211 H 0.56983 1.01979 0.68070
 H1212 H 0.59800 0.96471 0.50715
 C1213 C 0.09973 0.49140 1.07710
 C1214 C 0.06991 0.50216 1.07788
 N1215 N 0.06057 0.51664 1.10772
 C1216 C 0.08005 0.52169 1.13667
 C1217 C 0.11046 0.51276 1.13526
 N1218 N 0.11964 0.49733 1.10566
 N1219 N 0.10865 0.47690 1.04687
 C1220 C 0.08970 0.47459 1.01666
 C1221 C 0.06120 0.48891 1.01605
 N1222 N 0.05176 0.50103 1.04744
 H1223 H 0.07226 0.53380 1.15998
 H1224 H 0.09768 0.46355 0.99281
 C1225 C -0.08972 0.02999 1.08276
 C1226 C -0.10233 0.02309 1.04830
 N1227 N -0.13086 0.01128 1.04442
 C1228 C -0.14680 0.00410 1.07364
 C1229 C -0.13328 0.00823 1.10869
 N1230 N -0.10549 0.02255 1.11208
 N1231 N -0.06034 0.03984 1.08651
 C1232 C -0.04244 0.04106 1.05759
 C1233 C -0.05419 0.03087 1.02354
 N1234 N -0.08430 0.02359 1.01990
 H1235 H -0.16940 -0.00548 1.06923
 H1236 H -0.01856 0.04667 1.06197
 C1237 C 0.40483 0.52544 0.57728
 C1238 C 0.43625 0.52583 0.58495
 N1239 N 0.44729 0.52046 0.61909
 C1240 C 0.42829 0.51366 0.64571
 C1241 C 0.39687 0.50973 0.63727
 N1242 N 0.38589 0.51629 0.60310
 N1243 N 0.39397 0.53313 0.54367
 C1244 C 0.41327 0.53791 0.51665
 C1245 C 0.44435 0.53142 0.52242
 N1246 N 0.45517 0.52788 0.55731
 H1247 H 0.43803 0.50878 0.67241
 H1248 H 0.40409 0.54477 0.49060
 C1249 C 0.40970 0.48921 -0.08288
 C1250 C 0.44061 0.48383 -0.08716
 N1251 N 0.45122 0.48330 -0.12094
 C1252 C 0.43245 0.48888 -0.15049
 C1253 C 0.40178 0.49604 -0.14592
 N1254 N 0.39125 0.49534 -0.11211
 N1255 N 0.39916 0.49141 -0.04937
 C1256 C 0.41826 0.48952 -0.01968
 C1257 C 0.44966 0.48554 -0.02350
 N1258 N 0.45990 0.48235 -0.05744
 H1259 H 0.44181 0.48951 -0.17688
 H1260 H 0.40903 0.49375 0.00618
 C1261 C -0.08541 0.97115 0.39268
 C1262 C -0.05397 0.96886 0.38965
 N1263 N -0.04253 0.97171 0.35632
 C1264 C -0.06106 0.97786 0.32648
 C1265 C -0.09241 0.98203 0.33031
 N1266 N -0.10353 0.97765 0.36335
 N1267 N -0.09708 0.97151 0.42550
 C1268 C -0.07893 0.97050 0.45586
 C1269 C -0.04697 0.96844 0.45405
 N1270 N -0.03539 0.96758 0.42037
 H1271 H -0.05120 0.98147 0.30070
 H1272 H -0.08969 0.97522 0.48058
 C1273 C 0.07495 0.52840 0.39759
 C1274 C 0.04640 0.51535 0.38823
 N1275 N 0.04126 0.50179 0.35548
 C1276 C 0.06378 0.49971 0.33199
 C1277 C 0.09296 0.51076 0.34221
 N1278 N 0.09787 0.52532 0.37465
 N1279 N 0.07986 0.54169 0.43065
 C1280 C 0.05814 0.54078 0.45553
 C1281 C 0.03093 0.52438 0.44764
 N1282 N 0.02547 0.51324 0.41353
 H1283 H 0.05945 0.48792 0.30644
 H1284 H 0.06314 0.55063 0.48200
 C1285 C 0.57580 0.03783 -0.08794
 C1286 C 0.54725 0.02541 -0.09859
 N1287 N 0.54246 0.01321 -0.13212
 C1288 C 0.56541 0.01160 -0.15505
 C1289 C 0.59470 0.02138 -0.14330
 N1290 N 0.59919 0.03485 -0.11017
 N1291 N 0.58028 0.04994 -0.05421
 C1292 C 0.55822 0.04804 -0.02985
 C1293 C 0.53143 0.03132 -0.03890
 N1294 N 0.52615 0.02193 -0.07373
 H1295 H 0.56137 0.00069 -0.18118
 H1296 H 0.56292 0.05670 -0.00274
 C1297 C 0.61935 0.55634 0.02202
 C1298 C 0.61062 0.53154 -0.00042
 N1299 N 0.63227 0.51742 -0.01935
 C1300 C 0.66205 0.52681 -0.01621
 C1301 C 0.67084 0.55082 0.00816
 N1302 N 0.64872 0.56482 0.02601
 N1303 N 0.59881 0.57066 0.04142
 C1304 C 0.56973 0.56103 0.04037
 C1305 C 0.56017 0.53518 0.01921
 N1306 N 0.58120 0.52104 -0.00104
 H1307 H 0.67861 0.51456 -0.03110
 H1308 H 0.55541 0.57180 0.05930
 C1309 C 0.11292 1.05778 0.50146
 C1310 C 0.10801 1.02895 0.48528
 N1311 N 0.13170 1.01513 0.46966
 C1312 C 0.15983 1.02883 0.46989
 C1313 C 0.16463 1.05773 0.48678
 N1314 N 0.14062 1.07117 0.50176
 N1315 N 0.09038 1.07161 0.51823
 C1316 C 0.06291 1.05804 0.51984
 C1317 C 0.05689 1.02910 0.50358
 N1318 N 0.08006 1.01502 0.48671
 H1319 H 0.17824 1.01686 0.45795
 H1320 H 0.04636 1.06988 0.53480
 C1321 C 0.11198 -0.04531 0.99893
 C1322 C 0.08737 -0.06263 1.01034
 N1323 N 0.09127 -0.09254 1.01897
 C1324 C 0.11868 -0.10613 1.01621
 C1325 C 0.14337 -0.08904 1.00428
 N1326 N 0.13950 -0.05878 0.99647
 N1327 N 0.10745 -0.01591 0.98824
 C1328 C 0.07916 -0.00350 0.98698
 C1329 C 0.05410 -0.02144 0.99646
 N1330 N 0.05929 -0.05024 1.00899
 H1331 H 0.12117 -0.13004 1.02320
 H1332 H 0.07608 0.01944 0.97663
 C1333 C 0.60494 0.45033 0.50729
 C1334 C 0.57995 0.43033 0.50728
 N1335 N 0.58430 0.39967 0.50581
 C1336 C 0.61253 0.38795 0.50321
 C1337 C 0.63791 0.40784 0.50257
 N1338 N 0.63334 0.43866 0.50571
 N1339 N 0.60016 0.48100 0.50489
 C1340 C 0.57149 0.49237 0.50077
 C1341 C 0.54640 0.47210 0.49880
 N1342 N 0.55155 0.44176 0.50370
 H1343 H 0.61498 0.36334 0.50223
 H1344 H 0.56849 0.51673 0.49695
 C1345 C -0.13854 0.46590 0.49116
 C1346 C -0.12653 0.48903 0.51426
 N1347 N -0.14314 0.49974 0.54136
 C1348 C -0.17078 0.48739 0.54747
 C1349 C -0.18200 0.46281 0.52598
 N1350 N -0.16586 0.45307 0.49779
 N1351 N -0.12110 0.45408 0.46539
 C1352 C -0.09163 0.46312 0.46298
 C1353 C -0.07874 0.48414 0.48836
 N1354 N -0.09702 0.49737 0.51243
 H1355 H -0.18279 0.49501 0.57060
 H1356 H -0.07804 0.45254 0.44301
 C1357 C 0.36366 -0.03374 0.00185
 C1358 C 0.37558 -0.01093 0.02542
 N1359 N 0.35922 -0.00115 0.05322
 C1360 C 0.33188 -0.01410 0.05952
 C1361 C 0.32066 -0.03824 0.03735
 N1362 N 0.33656 -0.04703 0.00851
 N1363 N 0.38102 -0.04486 -0.02445
 C1364 C 0.41037 -0.03536 -0.02703
 C1365 C 0.42314 -0.01450 -0.00140
 N1366 N 0.40489 -0.00205 0.02327
 H1367 H 0.32004 -0.00715 0.08306
 H1368 H 0.42404 -0.04561 -0.04720
 C1369 C 0.39289 1.04220 0.46720
 C1370 C 0.40460 1.02511 0.43908
 N1371 N 0.38699 1.01914 0.40871
 C1372 C 0.35826 1.03012 0.40478
 C1373 C 0.34657 1.04788 0.43249
 N1374 N 0.36414 1.05324 0.46330
 N1375 N 0.41118 1.04920 0.49682
 C1376 C 0.44093 1.04071 0.49906
 C1377 C 0.45313 1.02494 0.47004
 N1378 N 0.43418 1.01684 0.44130
 H1379 H 0.34506 1.02600 0.37977
 H1380 H 0.45500 1.04694 0.52277
 C1381 C -0.10385 0.54449 0.96371
 C1382 C -0.09287 0.53741 0.92987
 N1383 N -0.11115 0.54086 0.89964
 C1384 C -0.13973 0.55198 0.90157
 C1385 C -0.15055 0.55983 0.93533
 N1386 N -0.13245 0.55540 0.96572
 N1387 N -0.08519 0.54185 0.99379
 C1388 C -0.05568 0.53348 0.99142
 C1389 C -0.04409 0.52814 0.95726
 N1390 N -0.06345 0.52928 0.92754
 H1391 H -0.15370 0.55505 0.87702
 H1392 H -0.04121 0.53228 1.01582
 C1393 C 0.01247 0.61611 0.56441
 C1394 C 0.01524 0.58949 0.58520
 N1395 N 0.01729 0.59138 0.62163
 C1396 C 0.01685 0.61889 0.63855
 C1397 C 0.01424 0.64584 0.61809
 N1398 N 0.01199 0.64383 0.58131
 N1399 N 0.00953 0.61361 0.52780
 C1400 C 0.00855 0.58559 0.51121
 C1401 C 0.01046 0.55897 0.53233
 N1402 N 0.01401 0.56192 0.56875
 H1403 H 0.01815 0.61962 0.66777
 H1404 H 0.00506 0.58412 0.48216
 C1405 C 0.51302 0.11823 0.07782
 C1406 C 0.51676 0.09189 0.09892
 N1407 N 0.52074 0.09450 0.13532
 C1408 C 0.52102 0.12242 0.15171
 C1409 C 0.51664 0.14888 0.13077
 N1410 N 0.51282 0.14609 0.09420
 N1411 N 0.50891 0.11544 0.04141
 C1412 C 0.50776 0.08737 0.02518
 C1413 C 0.51053 0.06087 0.04643
 N1414 N 0.51504 0.06401 0.08283
 H1415 H 0.52398 0.12387 0.18082
 H1416 H 0.50355 0.08579 -0.00378
 C1417 C -0.02416 0.11888 0.90614
 C1418 C -0.00952 0.11573 0.94038
 N1419 N 0.00479 0.14059 0.95607
 C1420 C 0.00476 0.16835 0.93918
 C1421 C -0.01075 0.17154 0.90530
 N1422 N -0.02477 0.14654 0.88980
 N1423 N -0.03715 0.09418 0.88931
 C1424 C -0.03646 0.06633 0.90513
 C1425 C -0.02312 0.06279 0.94033
 N1426 N -0.00937 0.08779 0.95685
 H1427 H 0.01593 0.18786 0.95242
 H1428 H -0.04626 0.04710 0.88997
 C1429 C 0.48990 0.61808 0.40948
 C1430 C 0.48610 0.61490 0.44665
 N1431 N 0.48721 0.64043 0.46798
 C1432 C 0.49152 0.66879 0.45361
 C1433 C 0.49502 0.67170 0.41629
 N1434 N 0.49399 0.64616 0.39529
 N1435 N 0.48870 0.59318 0.38777
 C1436 C 0.48401 0.56499 0.40130
 C1437 C 0.47984 0.56110 0.43862
 N1438 N 0.48131 0.58643 0.46056
 H1439 H 0.49122 0.68890 0.47081
 H1440 H 0.48386 0.54589 0.38262
 C1441 C 0.54151 0.87945 0.43299
 C1442 C 0.56669 0.89926 0.43394
 N1443 N 0.59314 0.88949 0.42087
 C1444 C 0.59525 0.86124 0.40550
 C1445 C 0.56936 0.84197 0.40207
 N1446 N 0.54333 0.85155 0.41691
 N1447 N 0.51502 0.88921 0.44592
 C1448 C 0.51220 0.91837 0.45834
 C1449 C 0.53673 0.93926 0.45670
 N1450 N 0.56361 0.92868 0.44533
 H1451 H 0.61683 0.85439 0.39563
 H1452 H 0.49036 0.92558 0.46725
 C1453 C 0.04731 0.38604 0.91130
 C1454 C 0.05136 0.41007 0.88717
 N1455 N 0.05763 0.40391 0.85249
 C1456 C 0.05981 0.37460 0.84056
 C1457 C 0.05504 0.35019 0.86425
 N1458 N 0.04891 0.35660 0.89926
 N1459 N 0.04095 0.39261 0.94603
 C1460 C 0.03806 0.42218 0.95750
 C1461 C 0.04126 0.44624 0.93293
 N1462 N 0.04786 0.43927 0.89838
 H1463 H 0.06412 0.37050 0.81249
 H1464 H 0.03247 0.42676 0.98508
 C1465 C 0.47384 0.37281 0.05190
 C1466 C 0.49678 0.38839 0.07241
 N1467 N 0.50967 0.37526 0.10234
 C1468 C 0.50022 0.34736 0.11328
 C1469 C 0.47618 0.33220 0.09401
 N1470 N 0.46362 0.34518 0.06341
 N1471 N 0.46129 0.38633 0.02181
 C1472 C 0.46956 0.41532 0.01246
 C1473 C 0.49027 0.43208 0.03527
 N1474 N 0.50402 0.41749 0.06391
 H1475 H 0.51058 0.33761 0.13765
 H1476 H 0.45821 0.42581 -0.01074
 C1477 C -0.01751 0.86533 0.55896
 C1478 C -0.01741 0.89055 0.58229
 N1479 N -0.02448 0.88700 0.61715
 C1480 C -0.03200 0.85912 0.63002
 C1481 C -0.03235 0.83343 0.60709
 N1482 N -0.02474 0.83703 0.57190
 N1483 N -0.01144 0.86997 0.52358
 C1484 C -0.00592 0.89879 0.51057
 C1485 C -0.00669 0.92421 0.53405
 N1486 N -0.01193 0.91870 0.56937
 H1487 H -0.03753 0.85699 0.65800
 H1488 H -0.00225 0.90192 0.48221
 C1489 C 0.21157 0.35141 0.13105
 C1490 C 0.21956 0.36362 0.16527
 N1491 N 0.23537 0.39035 0.16826
 C1492 C 0.24544 0.40450 0.13864
 C1493 C 0.23986 0.39106 0.10423
 N1494 N 0.22164 0.36555 0.10131
 N1495 N 0.19817 0.32323 0.12844
 C1496 C 0.19454 0.30582 0.15834
 C1497 C 0.20578 0.31675 0.19228
 N1498 N 0.21637 0.34609 0.19472
 H1499 H 0.25855 0.42548 0.14219
 H1500 H 0.18621 0.28252 0.15506
 C1501 C 0.71945 0.87327 0.66950
 C1502 C 0.71606 0.84190 0.66160
 N1503 N 0.72082 0.83142 0.62798
 C1504 C 0.72999 0.85074 0.60220
 C1505 C 0.73578 0.88181 0.61074
 N1506 N 0.72983 0.89256 0.64416
 N1507 N 0.71471 0.88341 0.70334
 C1508 C 0.70961 0.86330 0.73026
 C1509 C 0.71140 0.83151 0.72368
 N1510 N 0.71257 0.82192 0.68880
 H1511 H 0.73463 0.84149 0.57591
 H1512 H 0.70623 0.87235 0.75665
 C1513 C 0.25907 0.65588 0.66584
 C1514 C 0.23955 0.68107 0.66471
 N1515 N 0.21836 0.68378 0.63715
 C1516 C 0.21504 0.66188 0.61110
 C1517 C 0.23332 0.63573 0.61300
 N1518 N 0.25542 0.63350 0.64006
 N1519 N 0.27941 0.65296 0.69448
 C1520 C 0.27981 0.67303 0.72295
 C1521 C 0.25789 0.69630 0.72356
 N1522 N 0.23936 0.70029 0.69344
 H1523 H 0.19742 0.66418 0.58988
 H1524 H 0.29483 0.66878 0.74631
 C1525 C 0.75154 0.14187 0.16426
 C1526 C 0.72342 0.14830 0.17820
 N1527 N 0.69750 0.13763 0.16152
 C1528 C 0.69813 0.12010 0.13147
 C1529 C 0.72613 0.11309 0.11659
 N1530 N 0.75239 0.12489 0.13310
 N1531 N 0.77733 0.15185 0.18305
 C1532 C 0.77597 0.16756 0.21517
 C1533 C 0.74745 0.17380 0.22891
 N1534 N 0.72226 0.16418 0.20924
 H1535 H 0.67665 0.11278 0.11866
 H1536 H 0.79671 0.17467 0.22984
 C1537 C 0.72549 0.17034 0.85970
 C1538 C 0.73869 0.19924 0.86665
 N1539 N 0.75436 0.20473 0.89851
 C1540 C 0.75846 0.18221 0.92332
 C1541 C 0.74728 0.15261 0.91541
 N1542 N 0.73058 0.14740 0.88392
 N1543 N 0.71027 0.16499 0.82740
 C1544 C 0.70946 0.18656 0.80091
 C1545 C 0.72617 0.21399 0.80622
 N1546 N 0.73911 0.21998 0.83972
 H1547 H 0.77203 0.18682 0.94796
 H1548 H 0.69825 0.18112 0.77501
 C1549 C 0.23133 0.65822 0.35987
 C1550 C 0.24866 0.68457 0.36867
 N1551 N 0.26544 0.68608 0.40030
 C1552 C 0.26630 0.66205 0.42333
 C1553 C 0.25029 0.63502 0.41389
 N1554 N 0.23275 0.63376 0.38249
 N1555 N 0.21487 0.65694 0.32784
 C1556 C 0.21626 0.68013 0.30348
 C1557 C 0.23604 0.70517 0.31086
 N1558 N 0.25084 0.70699 0.34395
 H1559 H 0.28022 0.66358 0.44820
 H1560 H 0.20398 0.67777 0.27761
 C1561 C 0.77155 0.84605 0.33838
 C1562 C 0.78146 0.81677 0.34868
 N1563 N 0.78286 0.80959 0.38436
 C1564 C 0.77425 0.83015 0.40977
 C1565 C 0.76313 0.85910 0.39894
 N1566 N 0.76257 0.86617 0.36342
 N1567 N 0.76816 0.85314 0.30324
 C1568 C 0.77340 0.83222 0.27749
 C1569 C 0.78299 0.80212 0.28674
 N1570 N 0.78675 0.79533 0.32269
 H1571 H 0.77479 0.82342 0.43781
 H1572 H 0.76689 0.83872 0.25029
 C1573 C 0.27852 0.34315 0.82890
 C1574 C 0.26771 0.31302 0.83173
 N1575 N 0.25378 0.30425 0.86181
 C1576 C 0.24931 0.32460 0.88884
 C1577 C 0.25820 0.35531 0.88505
 N1578 N 0.27304 0.36387 0.85530
 N1579 N 0.29246 0.35165 0.79865
 C1580 C 0.29427 0.33197 0.77019
 C1581 C 0.28016 0.30294 0.77126
 N1582 N 0.26834 0.29398 0.80282
 H1583 H 0.23740 0.31731 0.91217
 H1584 H 0.30524 0.33968 0.74657
 C1585 C 0.79609 0.37995 0.76016
 C1586 C 0.76997 0.37235 0.73862
 N1587 N 0.75781 0.39357 0.71558
 C1588 C 0.77119 0.42163 0.71223
 C1589 C 0.79847 0.42850 0.73203
 N1590 N 0.81004 0.40752 0.75592
 N1591 N 0.80840 0.35878 0.78302
 C1592 C 0.79680 0.32984 0.78399
 C1593 C 0.77260 0.32102 0.75972
 N1594 N 0.75912 0.34301 0.73846
 H1595 H 0.76176 0.43764 0.69262
 H1596 H 0.80743 0.31361 0.80234
 C1597 C 0.30677 0.87297 0.26959
 C1598 C 0.27753 0.86678 0.25456
 N1599 N 0.26201 0.88939 0.23679
 C1600 C 0.27502 0.91749 0.23223
 C1601 C 0.30562 0.92234 0.24372
 N1602 N 0.32051 0.89997 0.26261
 N1603 N 0.32175 0.85118 0.28899
 C1604 C 0.30974 0.82265 0.29184
 C1605 C 0.28271 0.81476 0.27198
 N1606 N 0.26651 0.83756 0.25506
 H1607 H 0.26262 0.93475 0.21685
 H1608 H 0.32216 0.80616 0.30792
 C1609 C 0.19206 0.85269 0.80371
 C1610 C 0.22139 0.84630 0.79302
 N1611 N 0.24043 0.87015 0.78639
 C1612 C 0.23115 0.89983 0.78987
 C1613 C 0.20151 0.90582 0.80072
 N1614 N 0.18308 0.88179 0.80722
 N1615 N 0.17254 0.82982 0.81002
 C1616 C 0.18085 0.80047 0.80638
 C1617 C 0.21019 0.79301 0.79588
 N1618 N 0.23005 0.81646 0.78948
 H1619 H 0.24670 0.91836 0.78451
 H1620 H 0.16398 0.78353 0.81115
 C1621 C 0.69097 0.33569 0.30453
 C1622 C 0.71930 0.32929 0.29107
 N1623 N 0.73748 0.35337 0.28219
 C1624 C 0.72854 0.38320 0.28686
 C1625 C 0.70020 0.38915 0.30145
 N1626 N 0.68238 0.36483 0.30907
 N1627 N 0.67288 0.31290 0.31510
 C1628 C 0.68153 0.28352 0.31290
 C1629 C 0.70973 0.27582 0.29893
 N1630 N 0.72827 0.29931 0.28841
 H1631 H 0.74364 0.40183 0.28041
 H1632 H 0.66654 0.26684 0.32369
 C1633 C 0.71911 0.63107 0.27927
 C1634 C 0.73940 0.63294 0.25144
 N1635 N 0.74558 0.60743 0.23211
 C1636 C 0.73158 0.58027 0.23857
 C1637 C 0.70976 0.57874 0.26480
 N1638 N 0.70421 0.60423 0.28478
 N1639 N 0.71297 0.65669 0.29849
 C1640 C 0.72535 0.68432 0.29025
 C1641 C 0.74355 0.68673 0.26026
 N1642 N 0.75078 0.66064 0.24237
 H1643 H 0.73577 0.56062 0.22163
 H1644 H 0.71946 0.70442 0.30553
 C1645 C 0.19553 0.14463 0.71748
 C1646 C 0.22245 0.15141 0.73787
 N1647 N 0.23678 0.12865 0.75659
 C1648 C 0.22536 0.09951 0.75567
 C1649 C 0.19820 0.09280 0.73505
 N1650 N 0.18420 0.11589 0.71672
 N1651 N 0.18180 0.16641 0.69716
 C1652 C 0.19376 0.19489 0.69603
 C1653 C 0.22063 0.20248 0.71674
 N1654 N 0.23450 0.18021 0.73709
 H1655 H 0.23794 0.08192 0.77010
 H1656 H 0.18255 0.21100 0.67809
 C1657 C 0.27371 0.14591 0.23053
 C1658 C 0.29276 0.17017 0.22095
 N1659 N 0.32289 0.16537 0.21823
 C1660 C 0.33514 0.13763 0.22597
 C1661 C 0.31650 0.11372 0.23751
 N1662 N 0.28600 0.11819 0.23868
 N1663 N 0.24391 0.15141 0.23541
 C1664 C 0.23265 0.18032 0.23298
 C1665 C 0.25231 0.20502 0.22630
 N1666 N 0.28163 0.19894 0.21922
 H1667 H 0.35941 0.13460 0.22461
 H1668 H 0.20920 0.18418 0.23894
 C1669 C 0.77111 0.65712 0.74668
 C1670 C 0.79034 0.68017 0.73433
 N1671 N 0.81851 0.67287 0.72422
 C1672 C 0.82880 0.64374 0.72726
 C1673 C 0.81044 0.62098 0.74199
 N1674 N 0.78168 0.62808 0.75073
 N1675 N 0.74328 0.66478 0.75766
 C1676 C 0.73446 0.69456 0.75862
 C1677 C 0.75491 0.71810 0.74959
 N1678 N 0.78190 0.70989 0.73650
 H1679 H 0.85185 0.63876 0.72044
 H1680 H 0.71249 0.69974 0.76872
 C1681 C 0.89443 0.75800 0.19388
 C1682 C 0.87052 0.77417 0.17721
 N1683 N 0.87487 0.79114 0.14765
 C1684 C 0.90252 0.79327 0.13383
 C1685 C 0.92733 0.77718 0.14988
 N1686 N 0.92245 0.75926 0.17946
 N1687 N 0.88898 0.74152 0.22417
 C1688 C 0.86066 0.74072 0.23817
 C1689 C 0.83665 0.75704 0.22090
 N1690 N 0.84281 0.77255 0.19047
 H1691 H 0.90448 0.80641 0.10943
 H1692 H 0.85678 0.72698 0.26169
 C1693 C 0.38749 0.25922 0.69933
 C1694 C 0.37479 0.28598 0.71315
 N1695 N 0.39248 0.31143 0.71790
 C1696 C 0.42158 0.31187 0.70722
 C1697 C 0.43308 0.28615 0.68927
 N1698 N 0.41600 0.26006 0.68728
 N1699 N 0.36995 0.23389 0.69398
 C1700 C 0.33987 0.23448 0.69977
 C1701 C 0.32616 0.26217 0.70996
 N1702 N 0.34436 0.28699 0.71785
 H1703 H 0.43470 0.33290 0.71000
 H1704 H 0.32674 0.21380 0.69426
 C1705 C 0.35963 0.70968 0.83463
 C1706 C 0.33686 0.70023 0.85718
 N1707 N 0.34444 0.69176 0.89159
 C1708 C 0.37385 0.69247 0.90467
 C1709 C 0.39690 0.70247 0.88245
 N1710 N 0.38901 0.71076 0.84777
 N1711 N 0.35184 0.71862 0.80037
 C1712 C 0.32221 0.71904 0.78785
 C1713 C 0.29920 0.71034 0.81074
 N1714 N 0.30737 0.70107 0.84489
 H1715 H 0.37891 0.68621 0.93247
 H1716 H 0.31667 0.72708 0.76080
 C1717 C 0.85852 0.18446 0.33882
 C1718 C 0.85096 0.20075 0.30717
 N1719 N 0.87337 0.21571 0.29044
 C1720 C 0.90261 0.21572 0.30448
 C1721 C 0.91004 0.19985 0.33700
 N1722 N 0.88751 0.18411 0.35247
 N1723 N 0.83649 0.17162 0.35755
 C1724 C 0.80707 0.17423 0.34637
 C1725 C 0.79866 0.18949 0.31373
 N1726 N 0.82120 0.20286 0.29511
 H1727 H 0.91970 0.22766 0.28995
 H1728 H 0.79064 0.16551 0.36436
 C1729 C 0.11108 0.28512 0.29191
 C1730 C 0.13596 0.29183 0.31585
 N1731 N 0.13149 0.29788 0.35106
 C1732 C 0.10311 0.29722 0.36363
 C1733 C 0.07825 0.28947 0.34009
 N1734 N 0.08274 0.28370 0.30462
 N1735 N 0.11582 0.27948 0.25657
 C1736 C 0.14442 0.27966 0.24425
 C1737 C 0.16946 0.28515 0.26858
 N1738 N 0.16436 0.29113 0.30378
 H1739 H 0.10002 0.30196 0.39189
 H1740 H 0.14759 0.27445 0.21613
 C1741 C 0.61571 0.79886 0.81894
 C1742 C 0.63421 0.77448 0.83027
 N1743 N 0.62276 0.75214 0.85103
 C1744 C 0.59355 0.75306 0.86115
 C1745 C 0.57482 0.77766 0.85030
 N1746 N 0.58659 0.80008 0.82943
 N1747 N 0.62724 0.82095 0.79776
 C1748 C 0.65648 0.81979 0.78750
 C1749 C 0.67540 0.79569 0.79945
 N1750 N 0.66343 0.77357 0.82046
 H1751 H 0.58543 0.73521 0.87842
 H1752 H 0.66474 0.83766 0.77054
 C1753 C 0.62936 0.22788 0.69162
 C1754 C 0.65410 0.22041 0.67117
 N1755 N 0.64919 0.21048 0.63659
 C1756 C 0.62055 0.20791 0.62128
 C1757 C 0.59550 0.21615 0.64121
 N1758 N 0.60068 0.22591 0.67614
 N1759 N 0.63451 0.23780 0.72628
 C1760 C 0.66335 0.24103 0.74119
 C1761 C 0.68830 0.23447 0.72032
 N1762 N 0.68276 0.22426 0.68575
 H1763 H 0.61754 0.20056 0.59341
 H1764 H 0.66673 0.24945 0.76862
 C1765 C 0.13902 0.72502 0.19724
 C1766 C 0.16426 0.72437 0.17580
 N1767 N 0.16042 0.72048 0.13965
 C1768 C 0.13230 0.71698 0.12366
 C1769 C 0.10662 0.71741 0.14471
 N1770 N 0.11057 0.72171 0.18124
 N1771 N 0.14354 0.72910 0.23360
 C1772 C 0.17216 0.73264 0.24927
 C1773 C 0.19739 0.73210 0.22753
 N1774 N 0.19240 0.72811 0.19132
 H1775 H 0.13003 0.71430 0.09461
 H1776 H 0.17513 0.73619 0.27814
   
