data_POSCAR
  _audit_creation_date              2014-09-24
  _audit_creation_method            'ToBaCCo'
  _symmetry_space_group_name_H-M    'P1'
  _symmetry_Int_Tables_number       1
  _symmetry_cell_setting            triclinic
  loop_
  _symmetry_equiv_pos_as_xyz
 x,y,z
_cell_length_a 52.2435
_cell_length_b 52.2808
_cell_length_c 52.3255
_cell_angle_alpha 89.642500
_cell_angle_beta 90.440700
_cell_angle_gamma 89.822900
loop_
  _atom_site_label
  _atom_site_type_symbol
  _atom_site_fract_x
  _atom_site_fract_y
  _atom_site_fract_z
C1 C 0.08833 0.02218 0.22069
 H2 H 0.08804 0.03729 0.23472
 C3 C 0.07535 0.02537 0.19739
 H4 H 0.06479 0.04288 0.19430
 C5 C 0.10325 -0.01862 0.20813
 H6 H 0.11470 -0.03544 0.21195
 C7 C 0.09039 -0.01635 0.18480
 H8 H 0.09178 -0.03178 0.17116
 N9 N 0.10226 0.00063 0.22543
 C10 C 0.11834 -0.00464 0.30712
 H11 H 0.13902 -0.00443 0.30625
 C12 C 0.10625 -0.00735 0.33059
 H13 H 0.11789 -0.00848 0.34776
 C14 C 0.07836 -0.00239 0.28556
 H15 H 0.06766 -0.00044 0.26789
 C16 C 0.06541 -0.00525 0.30871
 H17 H 0.04474 -0.00458 0.30849
 Zn18 Zn 0.12347 -0.00068 0.25490
 N19 N 0.10436 -0.00220 0.28526
 C20 C 0.14073 0.04697 0.27308
 N21 N 0.14383 0.02919 0.25452
 C22 C 0.15922 0.03373 0.23417
 C23 C 0.17277 0.05667 0.23228
 C24 C 0.15376 0.07016 0.27188
 C25 C 0.13006 -0.05275 0.25874
 C26 C 0.14241 -0.07635 0.25875
 C27 C 0.18242 -0.05464 0.25129
 C28 C 0.16920 -0.03131 0.25162
 N29 N 0.14339 -0.03089 0.25463
 H30 H 0.12743 0.04364 0.28843
 H31 H 0.16044 0.01976 0.21905
 H32 H 0.18414 0.06007 0.21543
 H33 H 0.15013 0.08431 0.28643
 H34 H 0.10963 -0.05179 0.26185
 H35 H 0.13116 -0.09340 0.26214
 H36 H 0.20297 -0.05400 0.24935
 H37 H 0.17960 -0.01361 0.24949
 C38 C 0.07940 -0.00848 0.33167
 C39 C 0.07680 0.00616 0.17869
 C40 C 0.16891 -0.07793 0.25392
 C41 C 0.17060 0.07515 0.25162
 C42 C 0.41056 0.02134 0.78070
 H43 H 0.41146 0.03679 0.76688
 C44 C 0.42345 0.02344 0.80413
 H45 H 0.43459 0.04043 0.80752
 C46 C 0.39444 -0.01927 0.79251
 H47 H 0.38253 -0.03558 0.78839
 C48 C 0.40719 -0.01810 0.81596
 H49 H 0.40534 -0.03389 0.82932
 N50 N 0.39616 0.00037 0.77549
 C51 C 0.38159 0.00043 0.69340
 H52 H 0.36090 0.00089 0.69406
 C53 C 0.39391 -0.00083 0.66996
 H54 H 0.38246 -0.00070 0.65263
 C55 C 0.42134 0.00049 0.71547
 H56 H 0.43186 0.00096 0.73334
 C57 C 0.43452 -0.00103 0.69233
 H58 H 0.45519 -0.00082 0.69284
 Zn59 Zn 0.37562 0.00045 0.74550
 N60 N 0.39534 0.00103 0.71551
 C61 C 0.35953 0.04951 0.72989
 N62 N 0.35474 0.03015 0.74662
 C63 C 0.33752 0.03308 0.76575
 C64 C 0.32390 0.05602 0.76823
 C65 C 0.34657 0.07274 0.73179
 C66 C 0.37102 -0.05167 0.74084
 C67 C 0.35948 -0.07551 0.73848
 C68 C 0.31820 -0.05488 0.74120
 C69 C 0.33060 -0.03131 0.74368
 N70 N 0.35659 -0.03021 0.74357
 H71 H 0.37414 0.04739 0.71558
 H72 H 0.33484 0.01779 0.77949
 H73 H 0.31097 0.05787 0.78410
 H74 H 0.35128 0.08806 0.71865
 H75 H 0.39167 -0.05021 0.74078
 H76 H 0.37159 -0.09228 0.73739
 H77 H 0.29754 -0.05535 0.74221
 H78 H 0.31947 -0.01400 0.74568
 C79 C 0.42074 -0.00248 0.66909
 C80 C 0.42133 0.00378 0.82253
 C81 C 0.33266 -0.07744 0.73793
 C82 C 0.32815 0.07629 0.75090
 C83 C 0.90881 0.52241 0.28470
 H84 H 0.90919 0.53822 0.27126
 C85 C 0.92092 0.52470 0.30853
 H86 H 0.93135 0.54209 0.31221
 C87 C 0.89476 0.48071 0.29513
 H88 H 0.88411 0.46377 0.29017
 C89 C 0.90662 0.48209 0.31904
 H90 H 0.90535 0.46575 0.33181
 N91 N 0.89563 0.50087 0.27867
 C92 C 0.88066 0.49588 0.19670
 H93 H 0.86043 0.49168 0.19780
 C94 C 0.89279 0.49580 0.17312
 H95 H 0.88173 0.49129 0.15615
 C96 C 0.91955 0.50604 0.21777
 H97 H 0.92992 0.50961 0.23534
 C98 C 0.93248 0.50641 0.19443
 H99 H 0.95282 0.50990 0.19472
 Zn100 Zn 0.87476 0.50069 0.24883
 N101 N 0.89401 0.50128 0.21838
 C102 C 0.85301 0.54665 0.23001
 N103 N 0.85362 0.53007 0.25010
 C104 C 0.84123 0.53542 0.27220
 C105 C 0.82819 0.55862 0.27502
 C106 C 0.84003 0.56987 0.23190
 C107 C 0.86802 0.44869 0.24209
 C108 C 0.85518 0.42546 0.24060
 C109 C 0.81583 0.44736 0.25081
 C110 C 0.82945 0.47033 0.25182
 N111 N 0.85514 0.47046 0.24795
 H112 H 0.86319 0.54231 0.21270
 H113 H 0.84220 0.52195 0.28797
 H114 H 0.81891 0.56221 0.29298
 H115 H 0.84013 0.58295 0.21577
 H116 H 0.88838 0.44946 0.23859
 H117 H 0.86587 0.40835 0.23594
 H118 H 0.79545 0.44808 0.25386
 H119 H 0.81950 0.48801 0.25575
 C120 C 0.91892 0.50183 0.17148
 C121 C 0.91905 0.50475 0.32682
 C122 C 0.82881 0.42429 0.24568
 C123 C 0.82799 0.57660 0.25486
 C124 C 0.59043 0.52383 0.71936
 H125 H 0.59002 0.53910 0.73321
 C126 C 0.57781 0.52685 0.69584
 H127 H 0.56732 0.54435 0.69243
 C128 C 0.60521 0.48278 0.70750
 H129 H 0.61644 0.46588 0.71173
 C130 C 0.59275 0.48489 0.68393
 H131 H 0.59415 0.46925 0.67052
 N132 N 0.60408 0.50221 0.72457
 C133 C 0.61914 0.49797 0.80658
 H134 H 0.63983 0.49787 0.80590
 C135 C 0.60681 0.49570 0.82996
 H136 H 0.61826 0.49451 0.84725
 C137 C 0.57939 0.50048 0.78462
 H138 H 0.56888 0.50233 0.76682
 C139 C 0.56619 0.49806 0.80769
 H140 H 0.54554 0.49898 0.80722
 Zn141 Zn 0.62485 0.50111 0.75437
 N142 N 0.60539 0.50030 0.78455
 C143 C 0.64256 0.54871 0.77217
 N144 N 0.64555 0.53071 0.75380
 C145 C 0.66123 0.53478 0.73358
 C146 C 0.67526 0.55742 0.73165
 C147 C 0.65604 0.57163 0.77091
 C148 C 0.63114 0.44898 0.75955
 C149 C 0.64352 0.42538 0.76039
 C150 C 0.68352 0.44684 0.75227
 C151 C 0.67034 0.47019 0.75191
 N152 N 0.64452 0.47072 0.75489
 H153 H 0.62908 0.54575 0.78743
 H154 H 0.66237 0.52065 0.71861
 H155 H 0.68686 0.56039 0.71490
 H156 H 0.65267 0.58596 0.78536
 H157 H 0.61070 0.45003 0.76252
 H158 H 0.63240 0.40834 0.76416
 H159 H 0.70403 0.44717 0.75006
 H160 H 0.68079 0.48778 0.74923
 C161 C 0.57994 0.49492 0.83081
 C162 C 0.57939 0.50743 0.67736
 C163 C 0.66995 0.42383 0.75581
 C164 C 0.67316 0.57613 0.75078
 C165 C 0.28441 0.09059 0.97502
 H166 H 0.27051 0.09113 0.95959
 C167 C 0.30763 0.07765 0.97186
 H168 H 0.31081 0.06796 0.95404
 C169 C 0.29668 0.10327 1.01670
 H170 H 0.29275 0.11379 1.03391
 C171 C 0.31993 0.09043 1.01447
 H172 H 0.33341 0.09088 1.03029
 N173 N 0.27955 0.10332 0.99704
 C174 C 0.19820 0.11804 1.00474
 H175 H 0.19928 0.13845 1.00780
 C176 C 0.17477 0.10563 1.00641
 H177 H 0.15782 0.11671 1.01077
 C178 C 0.21931 0.07893 0.99603
 H179 H 0.23688 0.06863 0.99244
 C180 C 0.19609 0.06570 0.99722
 H181 H 0.19647 0.04526 0.99462
 Zn182 Zn 0.25003 0.12417 0.99877
 N183 N 0.21980 0.10467 0.99941
 C184 C 0.23073 0.14322 0.95203
 N185 N 0.24993 0.14557 0.96951
 C186 C 0.27047 0.16076 0.96490
 C187 C 0.27208 0.17464 0.94204
 C188 C 0.23164 0.15657 0.92893
 C189 C 0.24625 0.12904 1.05098
 C190 C 0.24593 0.14078 1.07475
 C191 C 0.25341 0.18136 1.05385
 C192 C 0.25340 0.16875 1.03035
 N193 N 0.25045 0.14296 1.02945
 H194 H 0.21508 0.13024 0.95552
 H195 H 0.28601 0.16146 0.97867
 H196 H 0.28914 0.18572 0.93855
 H197 H 0.21659 0.15352 0.91496
 H198 H 0.24312 0.10864 1.04960
 H199 H 0.24216 0.12911 1.09147
 H200 H 0.25514 0.20195 1.05365
 H201 H 0.25559 0.17961 1.01287
 C202 C 0.17323 0.07917 1.00208
 C203 C 0.32612 0.07795 0.99159
 C204 C 0.25064 0.16726 1.07684
 C205 C 0.25227 0.17298 0.92372
 C206 C 0.71504 0.40853 0.97648
 H207 H 0.72817 0.40871 0.96059
 C208 C 0.69120 0.42065 0.97412
 H209 H 0.68688 0.43049 0.95645
 C210 C 0.70521 0.39472 1.01842
 H211 H 0.71035 0.38408 1.03545
 C212 C 0.68136 0.40667 1.01697
 H213 H 0.66863 0.40541 1.03317
 N214 N 0.72143 0.39563 0.99826
 C215 C 0.80370 0.38309 1.00420
 H216 H 0.80330 0.36276 1.00814
 C217 C 0.82686 0.39616 1.00496
 H218 H 0.84423 0.38569 1.00957
 C219 C 0.78130 0.42133 0.99417
 H220 H 0.76337 0.43107 0.99041
 C221 C 0.80420 0.43519 0.99443
 H222 H 0.80319 0.45554 0.99105
 Zn223 Zn 0.75163 0.37544 0.99889
 N224 N 0.78157 0.39569 0.99861
 C225 C 0.77045 0.35521 0.95268
 N226 N 0.75069 0.35452 0.96941
 C227 C 0.72888 0.34146 0.96390
 C228 C 0.72598 0.32914 0.94038
 C229 C 0.76846 0.34300 0.92914
 C230 C 0.75849 0.36957 1.05094
 C231 C 0.75935 0.35753 1.07472
 C232 C 0.74932 0.31755 1.05412
 C233 C 0.74888 0.33045 1.03057
 N234 N 0.75281 0.35610 1.02955
 H235 H 0.78753 0.36590 0.95716
 H236 H 0.71334 0.34139 0.97745
 H237 H 0.70833 0.31912 0.93675
 H238 H 0.78436 0.34405 0.91601
 H239 H 0.76217 0.38988 1.04949
 H240 H 0.76401 0.36887 1.09137
 H241 H 0.74657 0.29709 1.05395
 H242 H 0.74525 0.31998 1.01317
 C243 C 0.82759 0.42250 0.99942
 C244 C 0.67362 0.41933 0.99439
 C245 C 0.75360 0.33125 1.07703
 C246 C 0.74571 0.33041 0.92220
 C247 C 0.21610 0.90923 0.47607
 H248 H 0.22976 0.91095 0.46072
 C249 C 0.19227 0.92142 0.47404
 H250 H 0.18846 0.93285 0.45722
 C251 C 0.20497 0.89157 0.51621
 H252 H 0.20951 0.87931 0.53228
 C253 C 0.18111 0.90348 0.51507
 H254 H 0.16786 0.90066 0.53065
 N255 N 0.22191 0.89453 0.49684
 C256 C 0.30421 0.88197 0.50082
 H257 H 0.30348 0.86146 0.50356
 C258 C 0.32763 0.89449 0.50162
 H259 H 0.34487 0.88342 0.50512
 C260 C 0.28231 0.92114 0.49378
 H261 H 0.26447 0.93140 0.49123
 C262 C 0.30551 0.93450 0.49411
 H263 H 0.30488 0.95503 0.49202
 Zn264 Zn 0.25246 0.87496 0.49699
 N265 N 0.28220 0.89529 0.49672
 C266 C 0.26955 0.85818 0.44904
 N267 N 0.25176 0.85431 0.46747
 C268 C 0.23196 0.83790 0.46382
 C269 C 0.22970 0.82428 0.44100
 C270 C 0.26794 0.84514 0.42594
 C271 C 0.25726 0.86923 0.54911
 C272 C 0.25958 0.85701 0.57270
 C273 C 0.25724 0.81634 0.55119
 C274 C 0.25477 0.82942 0.52789
 N275 N 0.25468 0.85541 0.52736
 H276 H 0.28457 0.87206 0.45182
 H277 H 0.21752 0.83592 0.47840
 H278 H 0.21322 0.81214 0.43842
 H279 H 0.28188 0.84920 0.41128
 H280 H 0.25715 0.88991 0.54806
 H281 H 0.26051 0.86859 0.58975
 H282 H 0.25631 0.79569 0.55119
 H283 H 0.25285 0.81881 0.51033
 C284 C 0.32875 0.92105 0.49759
 C285 C 0.17409 0.91822 0.49356
 C286 C 0.26025 0.83016 0.57406
 C287 C 0.24809 0.82752 0.42169
 C288 C 0.78093 0.58835 0.48003
 H289 H 0.76662 0.58743 0.46501
 C290 C 0.80366 0.57434 0.47794
 H291 H 0.80644 0.56292 0.46106
 C292 C 0.79522 0.60650 0.51892
 H293 H 0.79232 0.61972 0.53441
 C294 C 0.81824 0.59308 0.51749
 H295 H 0.83271 0.59622 0.53204
 N296 N 0.77708 0.60388 0.50039
 C297 C 0.69564 0.62041 0.50637
 H298 H 0.69698 0.64089 0.50882
 C299 C 0.67196 0.60841 0.50809
 H300 H 0.65515 0.61988 0.51197
 C301 C 0.71628 0.58068 0.49955
 H302 H 0.73373 0.56991 0.49693
 C303 C 0.69286 0.56788 0.50084
 H304 H 0.69296 0.54729 0.49940
 Zn305 Zn 0.74790 0.62534 0.50089
 N306 N 0.71712 0.60655 0.50177
 C307 C 0.72912 0.64592 0.45430
 N308 N 0.74904 0.64585 0.47113
 C309 C 0.77114 0.65840 0.46587
 C310 C 0.77416 0.67113 0.44253
 C311 C 0.73121 0.65855 0.43088
 C312 C 0.74370 0.63214 0.55271
 C313 C 0.74314 0.64483 0.57596
 C314 C 0.75196 0.68443 0.55371
 C315 C 0.75205 0.67093 0.53071
 N316 N 0.74837 0.64521 0.53075
 H317 H 0.71182 0.63558 0.45864
 H318 H 0.78676 0.65787 0.47958
 H319 H 0.79204 0.68075 0.43913
 H320 H 0.71521 0.65813 0.41762
 H321 H 0.74038 0.61174 0.55207
 H322 H 0.73935 0.63400 0.59323
 H323 H 0.75481 0.70483 0.55292
 H324 H 0.75507 0.68099 0.51288
 C325 C 0.67007 0.58186 0.50445
 C326 C 0.82268 0.57634 0.49704
 C327 C 0.74791 0.67126 0.57692
 C328 C 0.75422 0.67077 0.42427
 C329 C 0.01991 0.21931 0.08963
 H330 H 0.03550 0.23289 0.08953
 C331 C 0.02267 0.19577 0.07739
 H332 H 0.04028 0.19210 0.06742
 C333 C -0.02161 0.20805 0.10346
 H334 H -0.03854 0.21242 0.11429
 C335 C -0.01979 0.18451 0.09130
 H336 H -0.03570 0.17132 0.09247
 N337 N -0.00180 0.22481 0.10268
 C338 C -0.00689 0.30640 0.11736
 H339 H -0.01040 0.30513 0.13768
 C340 C -0.00725 0.33012 0.10521
 H341 H -0.01134 0.34694 0.11648
 C342 C 0.00152 0.28556 0.07829
 H343 H 0.00438 0.26800 0.06788
 C344 C 0.00154 0.30903 0.06526
 H345 H 0.00391 0.30868 0.04478
 Zn346 Zn -0.00229 0.25433 0.12342
 N347 N -0.00210 0.28480 0.10396
 C348 C 0.04467 0.27219 0.14348
 N349 N 0.02745 0.25278 0.14427
 C350 C 0.03268 0.23075 0.15726
 C351 C 0.05644 0.22720 0.16931
 C352 C 0.06848 0.26956 0.15543
 C353 C -0.05456 0.25895 0.12902
 C354 C -0.07802 0.26081 0.14128
 C355 C -0.05609 0.25545 0.18176
 C356 C -0.03293 0.25349 0.16863
 N357 N -0.03266 0.25524 0.14271
 H358 H 0.04042 0.28944 0.13281
 H359 H 0.01870 0.21551 0.15743
 H360 H 0.05984 0.20939 0.17930
 H361 H 0.08201 0.28517 0.15427
 H362 H -0.05373 0.26027 0.10840
 H363 H -0.09520 0.26283 0.12976
 H364 H -0.05589 0.25317 0.20231
 H365 H -0.01525 0.25054 0.17912
 C366 C -0.00197 0.33211 0.07885
 C367 C 0.00289 0.17757 0.07877
 C368 C -0.07909 0.25982 0.16811
 C369 C 0.07514 0.24650 0.16782
 C370 C 0.02010 0.77997 0.41448
 H371 H 0.03366 0.76454 0.41752
 C372 C 0.02266 0.80274 0.42816
 H373 H 0.03841 0.80430 0.44150
 C374 C -0.01557 0.79675 0.39173
 H375 H -0.02989 0.79475 0.37689
 C376 C -0.01360 0.81982 0.40474
 H377 H -0.02672 0.83521 0.39990
 N378 N 0.00100 0.77729 0.39692
 C379 C -0.00308 0.69539 0.38210
 H380 H -0.00192 0.69650 0.36149
 C381 C -0.00574 0.67172 0.39408
 H382 H -0.00594 0.65465 0.38248
 C383 C -0.00342 0.71652 0.42200
 H384 H -0.00266 0.73410 0.43273
 C385 C -0.00630 0.69314 0.43483
 H386 H -0.00672 0.69317 0.45546
 Zn387 Zn -0.00027 0.74757 0.37656
 N388 N -0.00187 0.71715 0.39609
 C389 C 0.04798 0.72971 0.36057
 N390 N 0.02947 0.74757 0.35626
 C391 C 0.03305 0.76707 0.33937
 C392 C 0.05571 0.76873 0.32545
 C393 C 0.07094 0.73073 0.34723
 C394 C -0.05247 0.74750 0.37036
 C395 C -0.07612 0.74619 0.35806
 C396 C -0.05422 0.74524 0.31757
 C397 C -0.03090 0.74673 0.33077
 N398 N -0.03051 0.74772 0.35670
 H399 H 0.04534 0.71509 0.37498
 H400 H 0.01845 0.78165 0.33712
 H401 H 0.05824 0.78493 0.31282
 H402 H 0.08567 0.71673 0.35161
 H403 H -0.05154 0.74840 0.39100
 H404 H -0.09323 0.74685 0.36958
 H405 H -0.05377 0.74537 0.29692
 H406 H -0.01316 0.74688 0.32028
 C407 C -0.00812 0.67026 0.42078
 C408 C 0.00545 0.82309 0.42356
 C409 C -0.07750 0.74399 0.33121
 C410 C 0.07496 0.75008 0.32890
 C411 C 0.52455 0.28320 0.90963
 H412 H 0.54008 0.26947 0.90950
 C413 C 0.52746 0.30634 0.92263
 H414 H 0.54515 0.30958 0.93282
 C415 C 0.48302 0.29531 0.89567
 H416 H 0.46603 0.29146 0.88452
 C417 C 0.48500 0.31845 0.90854
 H418 H 0.46915 0.33184 0.90755
 N419 N 0.50270 0.27826 0.89628
 C420 C 0.49629 0.19689 0.88065
 H421 H 0.49235 0.19844 0.86037
 C422 C 0.49549 0.17309 0.89264
 H423 H 0.49078 0.15640 0.88141
 C424 C 0.50629 0.21709 0.91984
 H425 H 0.50998 0.23442 0.93037
 C426 C 0.50597 0.19349 0.93264
 H427 H 0.50918 0.19335 0.95303
 Zn428 Zn 0.50151 0.24900 0.87515
 N429 N 0.50190 0.21823 0.89422
 C430 C 0.54764 0.23074 0.85419
 N431 N 0.53060 0.25042 0.85394
 C432 C 0.53551 0.27247 0.84099
 C433 C 0.55876 0.27570 0.82829
 C434 C 0.57092 0.23305 0.84161
 C435 C 0.44908 0.24533 0.86986
 C436 C 0.42538 0.24357 0.85769
 C437 C 0.44656 0.24828 0.81708
 C438 C 0.46996 0.25019 0.83012
 N439 N 0.47073 0.24866 0.85605
 H440 H 0.54363 0.21349 0.86486
 H441 H 0.52170 0.28793 0.84130
 H442 H 0.56199 0.29358 0.81847
 H443 H 0.58436 0.21724 0.84238
 H444 H 0.45030 0.24418 0.89048
 H445 H 0.40845 0.24193 0.86934
 H446 H 0.44633 0.25022 0.79650
 H447 H 0.48746 0.25279 0.81953
 C448 C 0.50103 0.17089 0.91890
 C449 C 0.50766 0.32469 0.92174
 C450 C 0.42383 0.24419 0.83085
 C451 C 0.57723 0.25602 0.82904
 C452 C 0.52444 0.71568 0.59204
 H453 H 0.54029 0.72895 0.59182
 C454 C 0.52668 0.69202 0.57989
 H455 H 0.54420 0.68792 0.56994
 C456 C 0.48264 0.70543 0.60583
 H457 H 0.46572 0.71034 0.61646
 C458 C 0.48396 0.68178 0.59381
 H459 H 0.46773 0.66899 0.59497
 N460 N 0.50280 0.72176 0.60495
 C461 C 0.49745 0.80368 0.61730
 H462 H 0.49425 0.80303 0.63770
 C463 C 0.49664 0.82698 0.60437
 H464 H 0.49269 0.84424 0.61501
 C465 C 0.50579 0.78169 0.57880
 H466 H 0.50895 0.76385 0.56896
 C467 C 0.50547 0.80475 0.56506
 H468 H 0.50816 0.80401 0.54467
 Zn469 Zn 0.50231 0.75182 0.62485
 N470 N 0.50222 0.78169 0.60450
 C471 C 0.54991 0.76989 0.64250
 N472 N 0.53209 0.75129 0.64571
 C473 C 0.53662 0.73094 0.66141
 C474 C 0.55972 0.72895 0.67499
 C475 C 0.57326 0.76857 0.65550
 C476 C 0.45018 0.75788 0.63060
 C477 C 0.42660 0.75889 0.64277
 C478 C 0.44810 0.75040 0.68296
 C479 C 0.47141 0.74977 0.66997
 N480 N 0.47191 0.75293 0.64418
 H481 H 0.54648 0.78537 0.62914
 H482 H 0.52257 0.71584 0.66280
 H483 H 0.56307 0.71206 0.68654
 H484 H 0.58744 0.78318 0.65186
 H485 H 0.45120 0.76085 0.61016
 H486 H 0.40954 0.76276 0.63150
 H487 H 0.44851 0.74797 0.70343
 H488 H 0.48902 0.74667 0.68052
 C489 C 0.50132 0.82799 0.57797
 C490 C 0.50643 0.67433 0.58121
 C491 C 0.42508 0.75438 0.66922
 C492 C 0.57839 0.74818 0.67245
 C493 C 0.91349 0.98001 0.71762
 H494 H 0.91460 0.96376 0.73049
 C495 C 0.92678 0.97996 0.69578
 H496 H 0.93814 0.96328 0.69138
 C497 C 0.89441 1.02040 0.70795
 H498 H 0.88126 1.03573 0.71207
 C499 C 0.90839 1.02108 0.68368
 H500 H 0.90447 1.03681 0.67065
 N501 N 0.89706 1.00119 0.72371
 C502 C 0.88264 1.00644 0.80683
 H503 H 0.86270 1.01204 0.80570
 C504 C 0.89427 1.00441 0.82953
 H505 H 0.88363 1.00890 0.84661
 C506 C 0.92058 0.99530 0.78434
 H507 H 0.93058 0.99138 0.76681
 C508 C 0.93436 0.99316 0.80903
 H509 H 0.95463 0.98913 0.80850
 Zn510 Zn 0.87643 1.00042 0.75351
 N511 N 0.89629 1.00084 0.78381
 C512 C 0.85738 0.95454 0.77447
 N513 N 0.85670 0.96997 0.75345
 C514 C 0.84355 0.96302 0.73209
 C515 C 0.83093 0.93945 0.73114
 C516 C 0.84487 0.93106 0.77445
 C517 C 0.86785 1.05230 0.75926
 C518 C 0.85485 1.07554 0.75773
 C519 C 0.81664 1.05276 0.74530
 C520 C 0.83042 1.02982 0.74720
 N521 N 0.85568 1.03010 0.75358
 H522 H 0.86801 0.96009 0.79127
 H523 H 0.84330 0.97559 0.71558
 H524 H 0.82055 0.93478 0.71391
 H525 H 0.84575 0.91917 0.79146
 H526 H 0.88794 1.05194 0.76443
 H527 H 0.86502 1.09300 0.76217
 H528 H 0.79660 1.05174 0.74032
 H529 H 0.82106 1.01189 0.74310
 C530 C 0.92154 0.99619 0.83118
 C531 C 0.92471 1.00205 0.67760
 C532 C 0.82905 1.07623 0.74993
 C533 C 0.83205 0.92268 0.75236
 C534 C 0.41144 0.48030 0.21817
 H535 H 0.41361 0.46482 0.23184
 C536 C 0.42530 0.47995 0.19533
 H537 H 0.43774 0.46385 0.19181
 C538 C 0.39072 0.51869 0.20553
 H539 H 0.37665 0.53338 0.20895
 C540 C 0.40398 0.51902 0.18255
 H541 H 0.39979 0.53401 0.16877
 N542 N 0.39470 0.49964 0.22294
 C543 C 0.38028 0.50424 0.30508
 H544 H 0.35992 0.50791 0.30386
 C545 C 0.39233 0.50290 0.32889
 H546 H 0.38112 0.50612 0.34590
 C547 C 0.41946 0.49605 0.28416
 H548 H 0.42996 0.49360 0.26665
 C549 C 0.43230 0.49442 0.30768
 H550 H 0.45275 0.49140 0.30760
 Zn551 Zn 0.37411 0.49945 0.25282
 N552 N 0.39377 0.50021 0.28336
 C553 C 0.35750 0.45221 0.27271
 N554 N 0.35410 0.46909 0.25308
 C555 C 0.33822 0.46357 0.23317
 C556 C 0.32459 0.44054 0.23283
 C557 C 0.34439 0.42905 0.27309
 C558 C 0.36667 0.55160 0.25638
 C559 C 0.35421 0.57510 0.25411
 C560 C 0.31496 0.55274 0.24456
 C561 C 0.32821 0.52955 0.24716
 N562 N 0.35374 0.52946 0.25235
 H563 H 0.37097 0.45624 0.28788
 H564 H 0.33655 0.47681 0.21728
 H565 H 0.31288 0.43639 0.21628
 H566 H 0.34813 0.41569 0.28858
 H567 H 0.38693 0.55096 0.26078
 H568 H 0.36496 0.59246 0.25739
 H569 H 0.29464 0.55209 0.24074
 H570 H 0.31815 0.51172 0.24463
 C571 C 0.41853 0.49692 0.33062
 C572 C 0.42190 0.49974 0.17718
 C573 C 0.32817 0.57607 0.24720
 C574 C 0.32723 0.42298 0.25326
 C575 C 0.57749 1.00127 0.27822
 H576 H 0.56684 0.99902 0.26059
 C577 C 0.56503 1.00251 0.30050
 H578 H 0.54439 1.00161 0.30006
 C579 C 0.61796 1.00807 0.29835
 H580 H 0.63851 1.01022 0.29736
 C581 C 0.60511 1.00997 0.32315
 H582 H 0.61676 1.01370 0.33994
 N583 N 0.60489 1.00346 0.27765
 C584 C 0.60849 1.01666 0.19825
 H585 H 0.62258 1.03157 0.20038
 C586 C 0.59549 1.01416 0.17506
 H587 H 0.59966 1.02744 0.15970
 C588 C 0.58772 0.98002 0.21482
 H589 H 0.58554 0.96626 0.23017
 C590 C 0.57407 0.97694 0.19194
 H591 H 0.56162 0.96060 0.19019
 Zn592 Zn 0.62467 1.00184 0.24760
 N593 N 0.60427 0.99984 0.21766
 C594 C 0.66160 0.96772 0.22865
 N595 N 0.64554 0.97216 0.24845
 C596 C 0.64207 0.95435 0.26712
 C597 C 0.65514 0.93107 0.26640
 C598 C 0.67523 0.94470 0.22725
 C599 C 0.63024 1.05431 0.24728
 C600 C 0.64240 1.07791 0.24896
 C601 C 0.68309 1.05590 0.25049
 C602 C 0.67006 1.03263 0.24860
 N603 N 0.64409 1.03230 0.24724
 H604 H 0.66326 0.98180 0.21351
 H605 H 0.62842 0.95775 0.28214
 H606 H 0.65133 0.91688 0.28102
 H607 H 0.68705 0.94145 0.21074
 H608 H 0.60957 1.05346 0.24611
 H609 H 0.63076 1.09507 0.24826
 H610 H 0.70377 1.05542 0.25077
 H611 H 0.68071 1.01487 0.24853
 C612 C 0.57763 0.99437 0.17165
 C613 C 0.57965 1.00613 0.32489
 C614 C 0.66923 1.07913 0.25170
 C615 C 0.67242 0.92601 0.24653
 C616 C 0.08018 0.50048 0.78102
 H617 H 0.06919 0.49843 0.76359
 C618 C 0.06758 0.50181 0.80451
 H619 H 0.04693 0.50096 0.80453
 C620 C 0.12028 0.50588 0.80163
 H621 H 0.14084 0.50775 0.80027
 C622 C 0.10851 0.50769 0.82534
 H623 H 0.12025 0.51115 0.84209
 N624 N 0.10613 0.50199 0.78012
 C625 C 0.10782 0.51752 0.70097
 H626 H 0.12185 0.53247 0.70322
 C627 C 0.09429 0.51562 0.67800
 H628 H 0.09808 0.52935 0.66293
 C629 C 0.08778 0.48019 0.71685
 H630 H 0.08610 0.46592 0.73180
 C631 C 0.07364 0.47768 0.69419
 H632 H 0.06139 0.46122 0.69214
 Zn633 Zn 0.12528 0.50116 0.74958
 N634 N 0.10423 0.50006 0.71995
 C635 C 0.16205 0.46780 0.72898
 N636 N 0.14615 0.47149 0.74908
 C637 C 0.14293 0.45305 0.76717
 C638 C 0.15607 0.42986 0.76550
 C639 C 0.17577 0.44491 0.72667
 C640 C 0.13107 0.55360 0.75048
 C641 C 0.14338 0.57709 0.75243
 C642 C 0.18397 0.55488 0.75321
 C643 C 0.17082 0.53170 0.75101
 N644 N 0.14482 0.53153 0.74978
 H645 H 0.16354 0.48242 0.71434
 H646 H 0.12947 0.45591 0.78247
 H647 H 0.15252 0.41517 0.77971
 H648 H 0.18751 0.44234 0.70998
 H649 H 0.11039 0.55287 0.74955
 H650 H 0.13193 0.59438 0.75221
 H651 H 0.20465 0.55449 0.75349
 H652 H 0.18137 0.51390 0.75060
 C653 C 0.07651 0.49579 0.67438
 C654 C 0.08185 0.50475 0.82729
 C655 C 0.17020 0.57806 0.75468
 C656 C 0.17314 0.42553 0.74528
 C657 C 0.79788 0.89123 0.01826
 H658 H 0.79482 0.87717 0.03312
 C659 C 0.82105 0.90436 0.01746
 H660 H 0.83544 0.90027 0.03193
 C661 C 0.78384 0.91177 -0.01979
 H662 H 0.76955 0.91379 -0.03476
 C663 C 0.80675 0.92548 -0.02125
 H664 H 0.80962 0.93776 -0.03763
 N665 N 0.77981 0.89513 -0.00019
 C666 C 0.69817 0.87742 -0.00035
 H667 H 0.70000 0.85683 -0.00141
 C668 C 0.67405 0.88853 0.00190
 H669 H 0.65741 0.87626 0.00169
 C670 C 0.71798 0.91810 0.00030
 H671 H 0.73522 0.92946 -0.00014
 C672 C 0.69412 0.93006 0.00271
 H673 H 0.69336 0.95072 0.00311
 Zn674 Zn 0.75063 0.87376 -0.00093
 N675 N 0.71950 0.89219 -0.00100
 C676 C 0.74477 0.86766 0.05055
 N677 N 0.74974 0.85389 0.02923
 C678 C 0.75242 0.82804 0.03025
 C679 C 0.75118 0.81517 0.05376
 C680 C 0.74300 0.85563 0.07422
 C681 C 0.73566 0.85782 -0.05001
 C682 C 0.73814 0.84510 -0.07316
 C683 C 0.77620 0.82429 -0.05670
 C684 C 0.77310 0.83765 -0.03384
 N685 N 0.75288 0.85375 -0.03081
 H686 H 0.74215 0.88815 0.04907
 H687 H 0.75545 0.81735 0.01292
 H688 H 0.75319 0.79463 0.05385
 H689 H 0.73893 0.86706 0.09091
 H690 H 0.72039 0.87155 -0.04773
 H691 H 0.72447 0.84907 -0.08835
 H692 H 0.79281 0.81216 -0.05857
 H693 H 0.78714 0.83559 -0.01865
 C694 C 0.67171 0.91517 0.00441
 C695 C 0.82577 0.92208 -0.00227
 C696 C 0.75835 0.82769 -0.07676
 C697 C 0.74700 0.82911 0.07636
 C698 C 0.28439 0.40598 0.52006
 H699 H 0.27089 0.40702 0.53560
 C700 C 0.30805 0.41840 0.52206
 H701 H 0.31190 0.42947 0.53899
 C702 C 0.29515 0.39044 0.47916
 H703 H 0.29058 0.37911 0.46262
 C704 C 0.31872 0.40274 0.48020
 H705 H 0.33147 0.40122 0.46405
 N706 N 0.27841 0.39227 0.49885
 C707 C 0.19586 0.38309 0.48984
 H708 H 0.19622 0.36324 0.48413
 C709 C 0.17260 0.39600 0.49133
 H710 H 0.15515 0.38603 0.48628
 C711 C 0.21826 0.41984 0.50373
 H712 H 0.23614 0.42894 0.50868
 C713 C 0.19526 0.43352 0.50564
 H714 H 0.19622 0.45321 0.51157
 Zn715 Zn 0.24729 0.37349 0.49723
 N716 N 0.21803 0.39492 0.49646
 C717 C 0.22535 0.35622 0.54303
 N718 N 0.24521 0.35239 0.52683
 C719 C 0.26440 0.33575 0.53289
 C720 C 0.26401 0.32218 0.55605
 C721 C 0.22422 0.34317 0.56627
 C722 C 0.24478 0.36859 0.44479
 C723 C 0.24551 0.35687 0.42100
 C724 C 0.24912 0.31590 0.44230
 C725 C 0.24868 0.32852 0.46583
 N726 N 0.24671 0.35443 0.46658
 H727 H 0.21068 0.37013 0.53851
 H728 H 0.28044 0.33366 0.52011
 H729 H 0.28015 0.31005 0.56076
 H730 H 0.20871 0.34742 0.57918
 H731 H 0.24343 0.38920 0.44597
 H732 H 0.24500 0.36879 0.40402
 H733 H 0.25158 0.29538 0.44228
 H734 H 0.25030 0.31764 0.48339
 C735 C 0.17182 0.42137 0.50003
 C736 C 0.32593 0.41642 0.50210
 C737 C 0.24708 0.33008 0.41935
 C738 C 0.24354 0.32563 0.57312
 C739 C 0.21342 0.59215 0.01667
 H740 H 0.22615 0.59027 0.03299
 C741 C 0.18999 0.57926 0.01641
 H742 H 0.18507 0.56804 0.03307
 C743 C 0.20379 0.61145 -0.02325
 H744 H 0.20868 0.62468 -0.03833
 C745 C 0.18026 0.59904 -0.02432
 H746 H 0.16754 0.60331 -0.04023
 N747 N 0.22003 0.60759 -0.00317
 C748 C 0.30279 0.61620 -0.00706
 H749 H 0.30307 0.63639 -0.01167
 C750 C 0.32567 0.60259 -0.00521
 H751 H 0.34349 0.61240 -0.00893
 C752 C 0.27908 0.57909 0.00336
 H753 H 0.26084 0.57004 0.00664
 C754 C 0.30164 0.56472 0.00563
 H755 H 0.30005 0.54461 0.01008
 Zn756 Zn 0.25114 0.62622 -0.00210
 N757 N 0.28014 0.60448 -0.00231
 C758 C 0.27182 0.64162 0.04509
 N759 N 0.25218 0.64572 0.02834
 C760 C 0.23280 0.66210 0.03398
 C761 C 0.23301 0.67552 0.05704
 C762 C 0.27274 0.65450 0.06828
 C763 C 0.25709 0.63468 -0.05389
 C764 C 0.25621 0.64785 -0.07707
 C765 C 0.24723 0.68675 -0.05413
 C766 C 0.24848 0.67279 -0.03125
 N767 N 0.25271 0.64713 -0.03164
 H768 H 0.28659 0.62784 0.04089
 H769 H 0.21689 0.66432 0.02079
 H770 H 0.21684 0.68764 0.06133
 H771 H 0.28817 0.65019 0.08156
 H772 H 0.26063 0.61428 -0.05361
 H773 H 0.25954 0.63746 -0.09458
 H774 H 0.24390 0.70708 -0.05306
 H775 H 0.24558 0.68242 -0.01331
 C776 C 0.32551 0.57665 0.00205
 C777 C 0.17310 0.58187 -0.00475
 C778 C 0.25036 0.67411 -0.07762
 C779 C 0.25349 0.67217 0.07446
 C780 C 0.71365 0.09424 0.51984
 H781 H 0.72572 0.09383 0.53673
 C782 C 0.68984 0.08208 0.52005
 H783 H 0.68445 0.07182 0.53712
 C784 C 0.70680 0.10789 0.47711
 H785 H 0.71317 0.11818 0.46042
 C786 C 0.68308 0.09587 0.47642
 H787 H 0.67180 0.09675 0.45898
 N788 N 0.72154 0.10703 0.49864
 C789 C 0.80405 0.11508 0.49426
 H790 H 0.80451 0.13504 0.48871
 C791 C 0.82675 0.10123 0.49625
 H792 H 0.84463 0.11060 0.49171
 C793 C 0.78006 0.07886 0.50695
 H794 H 0.76175 0.07032 0.51115
 C795 C 0.80245 0.06425 0.50940
 H796 H 0.80068 0.04444 0.51494
 Zn797 Zn 0.75251 0.12573 0.49946
 N798 N 0.78135 0.10389 0.49992
 C799 C 0.77317 0.14234 0.54623
 N800 N 0.75332 0.14581 0.52959
 C801 C 0.73350 0.16163 0.53532
 C802 C 0.73346 0.17512 0.55835
 C803 C 0.77383 0.15526 0.56941
 C804 C 0.76008 0.13362 0.44755
 C805 C 0.75842 0.14620 0.42406
 C806 C 0.74551 0.18455 0.44603
 C807 C 0.74753 0.17120 0.46920
 N808 N 0.75403 0.14602 0.46945
 H809 H 0.78831 0.12900 0.54197
 H810 H 0.71740 0.16328 0.52229
 H811 H 0.71699 0.18679 0.56274
 H812 H 0.78943 0.15138 0.58260
 H813 H 0.76535 0.11360 0.44830
 H814 H 0.76302 0.13583 0.40683
 H815 H 0.74044 0.20455 0.44663
 H816 H 0.74329 0.18086 0.48685
 C817 C 0.82638 0.07562 0.50460
 C818 C 0.67379 0.08338 0.49828
 C819 C 0.75004 0.17176 0.42286
 C820 C 0.75411 0.17240 0.57566
 C821 C 0.98449 0.71746 0.91092
 H822 H 0.96782 0.72975 0.91192
 C823 C 0.98470 0.69484 0.92312
 H824 H 0.96781 0.68922 0.93352
 C825 C 1.02558 0.71009 0.89293
 H826 H 1.04111 0.71545 0.88056
 C827 C 1.02660 0.68500 0.90581
 H828 H 1.04282 0.67270 0.90199
 N829 N 1.00592 0.72516 0.89566
 C830 C 1.00986 0.80926 0.88514
 H831 H 1.01604 0.80944 0.86546
 C832 C 1.00707 0.83122 0.89769
 H833 H 1.01148 0.84903 0.88804
 C834 C 0.99770 0.78435 0.92138
 H835 H 0.99354 0.76619 0.93032
 C836 C 0.99468 0.80818 0.93616
 H837 H 0.98975 0.80630 0.95607
 Zn838 Zn 1.00443 0.75605 0.87635
 N839 N 1.00422 0.78533 0.89744
 C840 C 0.95851 0.77707 0.85664
 N841 N 0.97396 0.75610 0.85654
 C842 C 0.96718 0.73467 0.84361
 C843 C 0.94373 0.73357 0.83061
 C844 C 0.93507 0.77688 0.84377
 C845 C 1.05621 0.76336 0.86699
 C846 C 1.07908 0.76174 0.85358
 C847 C 1.05513 0.74911 0.81610
 C848 C 1.03262 0.75112 0.83025
 N849 N 1.03366 0.75754 0.85536
 H850 H 0.96408 0.79396 0.86699
 H851 H 0.97984 0.71826 0.84375
 H852 H 0.93925 0.71634 0.82029
 H853 H 0.92315 0.79385 0.84412
 H854 H 1.05647 0.76849 0.88699
 H855 H 1.09688 0.76617 0.86332
 H856 H 1.05350 0.74402 0.79622
 H857 H 1.01443 0.74688 0.82131
 C858 C 0.99802 0.83113 0.92462
 C859 C 1.00740 0.67752 0.92122
 C860 C 1.07897 0.75363 0.82800
 C861 C 0.92683 0.75465 0.83124
 C862 C 0.48189 0.21652 0.40914
 H863 H 0.46590 0.22947 0.41148
 C864 C 0.48235 0.19309 0.42225
 H865 H 0.46630 0.18833 0.43423
 C866 C 0.52090 0.20643 0.38879
 H867 H 0.53559 0.21120 0.37521
 C868 C 0.52206 0.18289 0.40133
 H869 H 0.53762 0.16993 0.39703
 N870 N 0.50120 0.22289 0.39307
 C871 C 0.50507 0.30573 0.38439
 H872 H 0.50854 0.30639 0.36404
 C873 C 0.50395 0.32833 0.39825
 H874 H 0.50699 0.34636 0.38844
 C875 C 0.49700 0.28130 0.42170
 H876 H 0.49445 0.26289 0.43078
 C877 C 0.49551 0.30355 0.43634
 H878 H 0.49231 0.30155 0.45659
 Zn879 Zn 0.50007 0.25410 0.37436
 N880 N 0.50107 0.28285 0.39611
 C881 C 0.45252 0.27500 0.35891
 N882 N 0.46915 0.25534 0.35506
 C883 C 0.46307 0.23584 0.33910
 C884 C 0.43971 0.23593 0.32583
 C885 C 0.42904 0.27584 0.34610
 C886 C 0.55190 0.25975 0.36567
 C887 C 0.57495 0.25833 0.35256
 C888 C 0.55129 0.24915 0.31390
 C889 C 0.52857 0.25094 0.32779
 N890 N 0.52936 0.25552 0.35333
 H891 H 0.45707 0.28985 0.37240
 H892 H 0.47615 0.21990 0.33710
 H893 H 0.43514 0.21963 0.31408
 H894 H 0.41592 0.29134 0.35010
 H895 H 0.55197 0.26350 0.38598
 H896 H 0.59269 0.26150 0.36289
 H897 H 0.54989 0.24551 0.29367
 H898 H 0.51042 0.24807 0.31824
 C899 C 0.49828 0.32765 0.42448
 C900 C 0.50298 0.17603 0.41884
 C901 C 0.57506 0.25208 0.32647
 C902 C 0.42243 0.25644 0.32882
 C903 C 0.97936 0.28347 0.59162
 H904 H 0.96263 0.27134 0.59218
 C905 C 0.97841 0.30682 0.57839
 H906 H 0.96096 0.31144 0.56818
 C907 C 1.02235 0.29095 0.60381
 H908 H 1.03945 0.28497 0.61388
 C909 C 1.02233 0.31425 0.59077
 H910 H 1.03973 0.32548 0.59076
 N911 N 1.00095 0.27625 0.60442
 C912 C 1.00750 0.19423 0.61860
 H913 H 1.01336 0.19487 0.63846
 C914 C 1.00598 0.17081 0.60613
 H915 H 1.01111 0.15351 0.61646
 C916 C 0.99369 0.21612 0.58120
 H917 H 0.98890 0.23388 0.57160
 C918 C 0.99182 0.19303 0.56796
 H919 H 0.98618 0.19381 0.54811
 Zn920 Zn 1.00079 0.24665 0.62567
 N921 N 1.00096 0.21624 0.60619
 C922 C 0.95624 0.22558 0.64753
 N923 N 0.97067 0.24712 0.64582
 C924 C 0.96283 0.26934 0.65667
 C925 C 0.93927 0.27066 0.66919
 C926 C 0.93278 0.22597 0.66003
 C927 C 1.05282 0.23958 0.63493
 C928 C 1.07617 0.24216 0.64764
 C929 C 1.05377 0.25962 0.68380
 C930 C 1.03074 0.25666 0.67030
 N931 N 1.03076 0.24719 0.64618
 H932 H 0.96258 0.20806 0.63881
 H933 H 0.97462 0.28624 0.65507
 H934 H 0.93386 0.28862 0.67764
 H935 H 0.92166 0.20856 0.66105
 H936 H 1.05232 0.23217 0.61568
 H937 H 1.09346 0.23607 0.63809
 H938 H 1.05269 0.26694 0.70297
 H939 H 1.01292 0.26245 0.67892
 C940 C 0.99736 0.16975 0.58063
 C941 C 0.99980 0.32341 0.57877
 C942 C 1.07722 0.25303 0.67222
 C943 C 0.92343 0.24889 0.67038
 C944 C 0.47742 0.78444 0.09376
 H945 H 0.46040 0.77277 0.09501
 C946 C 0.47661 0.80778 0.08049
 H947 H 0.45888 0.81313 0.07120
 C948 C 0.52097 0.79093 0.10451
 H949 H 0.53824 0.78459 0.11408
 C950 C 0.52108 0.81418 0.09134
 H951 H 0.53857 0.82522 0.09077
 N952 N 0.49928 0.77667 0.10578
 C953 C 0.50646 0.69458 0.11956
 H954 H 0.51223 0.69514 0.13945
 C955 C 0.50508 0.67120 0.10697
 H956 H 0.51025 0.65387 0.11725
 C957 C 0.49263 0.71658 0.08224
 H958 H 0.48772 0.73438 0.07275
 C959 C 0.49090 0.69354 0.06889
 H960 H 0.48530 0.69440 0.04903
 Zn961 Zn 0.49930 0.74694 0.12689
 N962 N 0.49985 0.71662 0.10724
 C963 C 0.45472 0.72517 0.14806
 N964 N 0.46907 0.74681 0.14697
 C965 C 0.46106 0.76870 0.15835
 C966 C 0.43750 0.76954 0.17089
 C967 C 0.43124 0.72510 0.16053
 C968 C 0.55122 0.73926 0.13661
 C969 C 0.57459 0.74199 0.14926
 C970 C 0.55246 0.76174 0.18438
 C971 C 0.52940 0.75858 0.17100
 N972 N 0.52925 0.74774 0.14745
 H973 H 0.46113 0.70793 0.13886
 H974 H 0.47271 0.78573 0.15713
 H975 H 0.43198 0.78728 0.17969
 H976 H 0.42015 0.70763 0.16098
 H977 H 0.55066 0.73104 0.11770
 H978 H 0.59186 0.73527 0.14013
 H979 H 0.55171 0.77034 0.20303
 H980 H 0.51171 0.76529 0.17921
 C981 C 0.49650 0.67022 0.08146
 C982 C 0.49854 0.82346 0.07971
 C983 C 0.57567 0.75385 0.17328
 C984 C 0.42179 0.74763 0.17156
 O985 O 0.04828 0.99932 1.06109
 O986 O 0.05239 0.95917 1.04367
 O987 O 0.05574 1.05006 0.99641
 O988 O 0.03512 1.05992 0.96071
 O989 O -0.00588 1.05974 1.05189
 O990 O -0.04602 1.03934 1.05715
 O991 O -0.01272 0.98380 0.93201
 O992 O 0.02821 0.99815 0.93114
 O993 O -0.01733 0.93004 0.99204
 O994 O -0.00682 0.92943 1.03649
 O995 O -0.07277 0.98862 0.98583
 O996 O -0.07533 1.03191 0.99551
 O997 O -0.04825 1.00475 0.94579
 O998 O -0.05390 1.04807 0.96794
 O999 O -0.05824 0.95395 1.00801
 O1000 O -0.03585 0.94964 1.05078
 O1001 O 0.00272 0.94474 0.95646
 O1002 O 0.04599 0.96427 0.95682
 O1003 O 0.01189 1.01780 1.07610
 O1004 O -0.03296 1.00634 1.07552
 O1005 O 0.01390 1.07475 1.01631
 O1006 O -0.00085 1.07273 0.97072
 O1007 O 0.07119 1.01609 1.01912
 O1008 O 0.06979 0.97088 1.00565
 Zr1009 Zr 0.03943 0.99159 1.02274
 O1010 O 0.01718 0.96654 1.00050
 Zr1011 Zr 0.01652 1.04279 0.99214
 O1012 O -0.00549 1.01972 0.96774
 Zr1013 Zr -0.01257 1.02099 1.04392
 O1014 O -0.03697 0.99789 1.02167
 Zr1015 Zr 0.01087 0.98319 0.96447
 O1016 O 0.03500 1.00751 0.98586
 Zr1017 Zr -0.01951 0.96217 1.01599
 O1018 O 0.00393 0.98453 1.04031
 Zr1019 Zr -0.04118 1.01323 0.98461
 O1020 O -0.01997 1.03845 1.00822
 O1021 O 0.02327 1.02752 1.02827
 O1022 O -0.02557 0.97694 0.97935
 C1023 C 0.03474 1.00893 1.07908
 C1024 C 0.07401 1.03746 1.00722
 C1025 C 0.00428 1.07775 1.03862
 C1026 C -0.03503 0.99359 0.92841
 C1027 C -0.00772 0.92692 0.96973
 C1028 C -0.07593 0.96657 0.99620
 H1029 H 0.02628 0.94999 0.99908
 H1030 H -0.05362 0.99631 1.03036
 H1031 H 0.03436 1.03861 1.03887
 H1032 H -0.00696 1.02825 0.95087
 H1033 H 0.04426 1.00651 0.93674
 H1034 H 0.03464 1.04727 0.94677
 H1035 H -0.05114 0.96031 1.05403
 H1036 H -0.02561 0.98927 1.07943
 H1037 H 0.04421 0.95529 0.94026
 H1038 H 0.08565 0.97341 1.01588
 H1039 H -0.07745 1.02885 1.01403
 H1040 H -0.05200 1.05072 1.04312
 H1041 H 0.03783 0.95322 1.05412
 H1042 H 0.01098 0.92589 1.03124
 H1043 H -0.01619 1.07826 0.98023
 H1044 H -0.04403 1.05091 0.95211
 O1045 O 0.48466 0.48279 0.43271
 O1046 O 0.52634 0.49618 0.43144
 O1047 O 0.48476 0.42702 0.49423
 O1048 O 0.49310 0.42587 0.53576
 O1049 O 0.42536 0.48537 0.48953
 O1050 O 0.42394 0.52905 0.50046
 O1051 O 0.54911 0.49867 0.56009
 O1052 O 0.55298 0.45852 0.54360
 O1053 O 0.55296 0.55025 0.49839
 O1054 O 0.53020 0.55573 0.45807
 O1055 O 0.49460 0.55704 0.55287
 O1056 O 0.45460 0.53668 0.56057
 O1057 O 0.51297 0.51696 0.57584
 O1058 O 0.46641 0.50350 0.57610
 O1059 O 0.51285 0.57256 0.51670
 O1060 O 0.49839 0.57189 0.47119
 O1061 O 0.56970 0.51618 0.51998
 O1062 O 0.56969 0.47195 0.50307
 O1063 O 0.44919 0.50333 0.44728
 O1064 O 0.44239 0.54374 0.46849
 O1065 O 0.44154 0.45108 0.51124
 O1066 O 0.46493 0.44866 0.55278
 O1067 O 0.50259 0.44229 0.45770
 O1068 O 0.54446 0.46424 0.45512
 Zr1069 Zr 0.50890 0.48130 0.46477
 O1070 O 0.53281 0.50586 0.48571
 Zr1071 Zr 0.48051 0.45966 0.51714
 O1072 O 0.50418 0.48246 0.54037
 Zr1073 Zr 0.45674 0.51022 0.48638
 O1074 O 0.47850 0.53540 0.50908
 Zr1075 Zr 0.53904 0.49023 0.52223
 O1076 O 0.51687 0.46422 0.50054
 Zr1077 Zr 0.51438 0.54090 0.49219
 O1078 O 0.49168 0.51761 0.46824
 Zr1079 Zr 0.48701 0.51850 0.54474
 O1080 O 0.46196 0.49482 0.52336
 O1081 O 0.47325 0.47451 0.48090
 O1082 O 0.52247 0.52599 0.52840
 C1083 C 0.46245 0.49294 0.42943
 C1084 C 0.49382 0.42408 0.47167
 C1085 C 0.42304 0.46343 0.50044
 C1086 C 0.53608 0.50866 0.57824
 C1087 C 0.57163 0.53819 0.50912
 C1088 C 0.50454 0.57514 0.53957
 H1089 H 0.54906 0.50798 0.47638
 H1090 H 0.46906 0.55168 0.51098
 H1091 H 0.46244 0.46316 0.47029
 H1092 H 0.50706 0.47362 0.55691
 H1093 H 0.54916 0.44309 0.53340
 H1094 H 0.50960 0.43001 0.54407
 H1095 H 0.48298 0.57786 0.48030
 H1096 H 0.45565 0.54949 0.45634
 H1097 H 0.58529 0.47344 0.51389
 H1098 H 0.54211 0.45382 0.43949
 H1099 H 0.44683 0.54754 0.54705
 H1100 H 0.42210 0.52346 0.51846
 H1101 H 0.52017 0.51400 0.42937
 H1102 H 0.54374 0.54377 0.45250
 H1103 H 0.45053 0.46047 0.55625
 H1104 H 0.47629 0.48890 0.58320
 O1105 O 0.50849 -0.05498 0.54656
 O1106 O 0.54720 -0.03462 0.55114
 O1107 O 0.45318 0.00584 0.55362
 O1108 O 0.44402 0.04267 0.53395
 O1109 O 0.44600 -0.04819 0.49105
 O1110 O 0.46807 -0.05447 0.45250
 O1111 O 0.51652 0.07422 0.48393
 O1112 O 0.50243 0.07522 0.52460
 O1113 O 0.57353 0.01657 0.48122
 O1114 O 0.57579 -0.02808 0.49304
 O1115 O 0.51506 0.01792 0.42495
 O1116 O 0.47040 0.00570 0.42394
 O1117 O 0.49719 0.05822 0.44835
 O1118 O 0.45580 0.03551 0.44211
 O1119 O 0.55059 -0.00195 0.44063
 O1120 O 0.55739 -0.04316 0.46353
 O1121 O 0.55739 0.05168 0.50092
 O1122 O 0.53714 0.05170 0.54341
 O1123 O 0.48856 -0.07101 0.51129
 O1124 O 0.50100 -0.07125 0.46708
 O1125 O 0.42974 -0.01364 0.51154
 O1126 O 0.42964 0.03124 0.49743
 O1127 O 0.48887 -0.01396 0.56922
 O1128 O 0.53292 0.00262 0.56809
 Zr1129 Zr 0.51348 -0.01614 0.53775
 O1130 O 0.53736 0.00711 0.51542
 Zr1131 Zr 0.46089 0.01160 0.51459
 O1132 O 0.48275 0.03652 0.49185
 Zr1133 Zr 0.48490 -0.03954 0.48609
 O1134 O 0.50728 -0.01683 0.46159
 Zr1135 Zr 0.51905 0.04221 0.50825
 O1136 O 0.49592 0.01993 0.53283
 Zr1137 Zr 0.54259 -0.00901 0.47926
 O1138 O 0.52119 -0.03400 0.50268
 Zr1139 Zr 0.49027 0.01935 0.45649
 O1140 O 0.46602 -0.00471 0.47828
 O1141 O 0.47774 -0.02377 0.52165
 O1142 O 0.52625 0.02682 0.47221
 C1143 C 0.49898 -0.07349 0.53354
 C1144 C 0.46653 -0.00412 0.57191
 C1145 C 0.42741 -0.03555 0.50082
 C1146 C 0.50694 0.07664 0.46133
 C1147 C 0.57581 0.03897 0.49093
 C1148 C 0.53746 0.00813 0.42233
 H1149 H 0.55374 0.00952 0.52467
 H1150 H 0.50932 -0.02594 0.44524
 H1151 H 0.46700 -0.03491 0.53254
 H1152 H 0.47346 0.05292 0.48989
 H1153 H 0.49404 0.06957 0.54057
 H1154 H 0.45398 0.05807 0.52943
 H1155 H 0.54605 -0.04820 0.44921
 H1156 H 0.51827 -0.07395 0.47456
 H1157 H 0.54533 0.06869 0.54143
 H1158 H 0.53109 -0.00764 0.58399
 H1159 H 0.47770 -0.01119 0.41963
 H1160 H 0.45686 -0.04082 0.44542
 H1161 H 0.55381 -0.04494 0.53682
 H1162 H 0.58009 -0.02091 0.50998
 H1163 H 0.42596 0.02262 0.48102
 H1164 H 0.45104 0.04992 0.45331
 O1165 O -0.05565 0.45467 0.99314
 O1166 O -0.03504 0.44970 0.95497
 O1167 O 0.00616 0.44839 1.04866
 O1168 O 0.04129 0.46923 1.05941
 O1169 O -0.05030 0.51047 1.05419
 O1170 O -0.05663 0.54916 1.03139
 O1171 O 0.07282 0.51764 0.98470
 O1172 O 0.07429 0.47711 1.00015
 O1173 O 0.01574 0.51973 0.92736
 O1174 O -0.02896 0.50817 0.92500
 O1175 O 0.01586 0.57655 0.98507
 O1176 O 0.00417 0.57849 1.02856
 O1177 O 0.05648 0.55329 1.00333
 O1178 O 0.03283 0.55909 1.04505
 O1179 O -0.00264 0.56070 0.94911
 O1180 O -0.04425 0.53809 0.94269
 O1181 O 0.05088 0.50022 0.94449
 O1182 O 0.05110 0.45784 0.96562
 O1183 O -0.07237 0.49018 1.01178
 O1184 O -0.07287 0.53441 0.99838
 O1185 O -0.01552 0.49024 1.07119
 O1186 O 0.02951 0.50545 1.07141
 O1187 O -0.01445 0.43235 1.01390
 O1188 O 0.00247 0.43320 0.96990
 Zr1189 Zr -0.01686 0.46362 0.98841
 O1190 O 0.00624 0.48588 0.96425
 Zr1191 Zr 0.01025 0.48753 1.04063
 O1192 O 0.03520 0.50992 1.01856
 Zr1193 Zr -0.04117 0.51550 1.01540
 O1194 O -0.01842 0.53991 0.99288
 Zr1195 Zr 0.04117 0.49319 0.98276
 O1196 O 0.01905 0.46885 1.00624
 Zr1197 Zr -0.01010 0.52211 0.95801
 O1198 O -0.03501 0.49867 0.97959
 Zr1199 Zr 0.01760 0.54514 1.01022
 O1200 O -0.00660 0.52367 1.03456
 O1201 O -0.02494 0.48004 1.02360
 O1202 O 0.02552 0.52920 0.97470
 C1203 C -0.07446 0.46774 1.00199
 C1204 C -0.00378 0.42986 1.03601
 C1205 C -0.03772 0.50065 1.07305
 C1206 C 0.07505 0.54033 0.99377
 C1207 C 0.03826 0.50993 0.92561
 C1208 C 0.00707 0.57901 0.96222
 H1209 H 0.00884 0.47650 0.94812
 H1210 H -0.02760 0.55631 0.99039
 H1211 H -0.03596 0.46908 1.03439
 H1212 H 0.05156 0.51193 1.02795
 H1213 H 0.06881 0.46111 1.00869
 H1214 H 0.05636 0.47155 1.04834
 H1215 H -0.04909 0.55281 0.95343
 H1216 H -0.07520 0.52687 0.98121
 H1217 H 0.06821 0.45970 0.95774
 H1218 H -0.00747 0.41721 0.97218
 H1219 H -0.01357 0.58156 1.02255
 H1220 H -0.04329 0.55612 1.04293
 H1221 H -0.04532 0.46400 0.94776
 H1222 H -0.02188 0.49101 0.92136
 H1223 H 0.01985 0.52124 1.07534
 H1224 H 0.04834 0.54897 1.04930
 O1225 O 0.01387 0.42421 0.51281
 O1226 O 0.00135 0.42402 0.47067
 O1227 O 0.06910 0.48606 0.51588
 O1228 O 0.07000 0.52771 0.50939
 O1229 O 0.00904 0.47945 0.57310
 O1230 O -0.03500 0.49083 0.57287
 O1231 O -0.00081 0.55398 0.45164
 O1232 O 0.03944 0.53693 0.44864
 O1233 O -0.05249 0.49317 0.44338
 O1234 O -0.05793 0.45160 0.46395
 O1235 O -0.06155 0.54447 0.50435
 O1236 O -0.04168 0.55140 0.54439
 O1237 O -0.02088 0.56834 0.48728
 O1238 O -0.00871 0.56737 0.53400
 O1239 O -0.07592 0.50943 0.48322
 O1240 O -0.07508 0.46327 0.49584
 O1241 O -0.01771 0.51451 0.42869
 O1242 O 0.02642 0.49721 0.42997
 O1243 O -0.00820 0.43824 0.54740
 O1244 O -0.04859 0.45910 0.55335
 O1245 O 0.04370 0.50133 0.55885
 O1246 O 0.04630 0.54368 0.53713
 O1247 O 0.05490 0.45002 0.49631
 O1248 O 0.03348 0.44790 0.45405
 Zr1249 Zr 0.01570 0.45695 0.48924
 O1250 O -0.00825 0.47884 0.46492
 Zr1251 Zr 0.03607 0.50858 0.51991
 O1252 O 0.01376 0.53255 0.49619
 Zr1253 Zr -0.01491 0.47740 0.54067
 O1254 O -0.03966 0.50062 0.51858
 Zr1255 Zr 0.00723 0.51555 0.46049
 O1256 O 0.03265 0.49299 0.48300
 Zr1257 Zr -0.04393 0.48497 0.48193
 O1258 O -0.02118 0.46029 0.50495
 Zr1259 Zr -0.02281 0.53650 0.51206
 O1260 O 0.00039 0.51443 0.53730
 O1261 O 0.02135 0.47214 0.52551
 O1262 O -0.02909 0.52143 0.47576
 C1263 C 0.00290 0.42058 0.53448
 C1264 C 0.07272 0.46394 0.50598
 C1265 C 0.03086 0.49022 0.57655
 C1266 C -0.01131 0.57170 0.46494
 C1267 C -0.03999 0.50458 0.42560
 C1268 C -0.07919 0.53159 0.49312
 H1269 H -0.00987 0.47012 0.44826
 H1270 H -0.05621 0.50217 0.52747
 H1271 H 0.03257 0.46121 0.53636
 H1272 H 0.02259 0.54914 0.49425
 H1273 H 0.05473 0.52640 0.45275
 H1274 H 0.06630 0.53649 0.49300
 H1275 H -0.08170 0.47189 0.51123
 H1276 H -0.05422 0.44774 0.53934
 H1277 H 0.02547 0.50859 0.41474
 H1278 H 0.04399 0.43219 0.45639
 H1279 H -0.05231 0.53754 0.55159
 H1280 H -0.02878 0.50840 0.57612
 H1281 H -0.01674 0.42222 0.47585
 H1282 H -0.04547 0.44656 0.45075
 H1283 H 0.03404 0.54670 0.55114
 H1284 H 0.00629 0.57454 0.52506
 O1285 O 0.50637 1.05281 -0.05187
 O1286 O 0.54495 1.03213 -0.05564
 O1287 O 0.45087 0.99253 -0.06020
 O1288 O 0.44226 0.95521 -0.04134
 O1289 O 0.44317 1.04693 0.00007
 O1290 O 0.46303 1.05218 0.04042
 O1291 O 0.51464 0.92382 0.01155
 O1292 O 0.50117 0.92261 -0.02980
 O1293 O 0.57043 0.98201 0.01619
 O1294 O 0.57256 1.02630 0.00463
 O1295 O 0.51091 0.97930 0.06990
 O1296 O 0.46728 0.99141 0.07058
 O1297 O 0.49316 0.93946 0.04580
 O1298 O 0.45121 0.96348 0.05006
 O1299 O 0.54644 0.99977 0.05577
 O1300 O 0.55273 1.04168 0.03299
 O1301 O 0.55524 0.94650 -0.00357
 O1302 O 0.53619 0.94626 -0.04716
 O1303 O 0.48625 1.06900 -0.01702
 O1304 O 0.49692 1.06887 0.02803
 O1305 O 0.42706 1.01142 -0.01895
 O1306 O 0.42729 0.96612 -0.00511
 O1307 O 0.48674 1.01196 -0.07507
 O1308 O 0.53105 0.99470 -0.07242
 Zr1309 Zr 0.51118 1.01389 -0.04288
 O1310 O 0.53493 0.99096 -0.01948
 Zr1311 Zr 0.45847 0.98619 -0.02121
 O1312 O 0.48019 0.96123 0.00213
 Zr1313 Zr 0.48154 1.03748 0.00784
 O1314 O 0.50339 1.01478 0.03326
 Zr1315 Zr 0.51697 0.95575 -0.01286
 O1316 O 0.49390 0.97780 -0.03830
 Zr1317 Zr 0.53911 1.00720 0.01687
 O1318 O 0.51812 1.03195 -0.00758
 Zr1319 Zr 0.48663 0.97851 0.03768
 O1320 O 0.46268 1.00268 0.01515
 O1321 O 0.47523 1.02153 -0.02785
 O1322 O 0.52304 0.97129 0.02334
 C1323 C 0.49689 1.07140 -0.03900
 C1324 C 0.46415 1.00273 -0.07813
 C1325 C 0.42476 1.03409 -0.00989
 C1326 C 0.50401 0.92122 0.03349
 C1327 C 0.57325 0.95948 0.00702
 C1328 C 0.53325 0.98891 0.07334
 H1329 H 0.55157 0.98863 -0.02805
 H1330 H 0.50503 1.02380 0.04973
 H1331 H 0.46477 1.03277 -0.03912
 H1332 H 0.47101 0.94480 0.00371
 H1333 H 0.49318 0.92818 -0.04614
 H1334 H 0.45270 0.93997 -0.03705
 H1335 H 0.54180 1.04586 0.04775
 H1336 H 0.51426 1.07184 0.02116
 H1337 H 0.54458 0.92937 -0.04468
 H1338 H 0.52909 1.00462 -0.08856
 H1339 H 0.47239 1.00937 0.07343
 H1340 H 0.45144 1.03856 0.04658
 H1341 H 0.55159 1.04222 -0.04109
 H1342 H 0.57707 1.01954 -0.01236
 H1343 H 0.42243 0.97527 0.01064
 H1344 H 0.44743 0.94815 0.03972
 O1345 O 0.42610 0.50794 0.01838
 O1346 O 0.42624 0.46600 0.00591
 O1347 O 0.48686 0.51008 0.07554
 O1348 O 0.52870 0.50337 0.07747
 O1349 O 0.48246 0.56883 0.01547
 O1350 O 0.49325 0.56949 -0.02806
 O1351 O 0.55579 0.44718 0.00611
 O1352 O 0.53872 0.44373 0.04631
 O1353 O 0.49665 0.44087 -0.04677
 O1354 O 0.45456 0.46063 -0.05262
 O1355 O 0.54750 0.50114 -0.05372
 O1356 O 0.55361 0.54199 -0.03244
 O1357 O 0.57066 0.48330 -0.01317
 O1358 O 0.57062 0.52919 -0.00063
 O1359 O 0.51173 0.48203 -0.06938
 O1360 O 0.46555 0.49341 -0.06876
 O1361 O 0.51668 0.42504 -0.01132
 O1362 O 0.49890 0.42524 0.03242
 O1363 O 0.44071 0.54373 -0.00177
 O1364 O 0.46167 0.55007 -0.04221
 O1365 O 0.50293 0.55382 0.05102
 O1366 O 0.54513 0.53205 0.05455
 O1367 O 0.45088 0.49126 0.05990
 O1368 O 0.44973 0.44906 0.03865
 Zr1369 Zr 0.45885 0.48461 0.02116
 O1370 O 0.48100 0.46091 -0.00245
 Zr1371 Zr 0.51020 0.51492 0.04323
 O1372 O 0.53452 0.49177 0.02118
 Zr1373 Zr 0.47983 0.53682 -0.00836
 O1374 O 0.50335 0.51541 -0.03275
 Zr1375 Zr 0.51749 0.45622 0.01390
 O1376 O 0.49462 0.47803 0.03900
 Zr1377 Zr 0.48751 0.47891 -0.03771
 O1378 O 0.46259 0.50129 -0.01537
 Zr1379 Zr 0.53903 0.50841 -0.01515
 O1380 O 0.51665 0.53302 0.00783
 O1381 O 0.47403 0.52083 0.02756
 O1382 O 0.52377 0.47236 -0.02210
 C1383 C 0.42281 0.53016 0.00818
 C1384 C 0.46437 0.50055 0.07824
 C1385 C 0.49262 0.57189 0.03765
 C1386 C 0.57361 0.46044 -0.00434
 C1387 C 0.50764 0.42275 -0.03408
 C1388 C 0.53423 0.49138 -0.07199
 H1389 H 0.47233 0.44425 -0.00445
 H1390 H 0.50504 0.52477 -0.04911
 H1391 H 0.46300 0.53153 0.03852
 H1392 H 0.55105 0.48953 0.03028
 H1393 H 0.52803 0.44735 0.06141
 H1394 H 0.53803 0.48740 0.07359
 H1395 H 0.47368 0.50944 -0.07466
 H1396 H 0.44957 0.53655 -0.04756
 H1397 H 0.51029 0.41006 0.03160
 H1398 H 0.43382 0.45109 0.04868
 H1399 H 0.54099 0.54783 -0.04541
 H1400 H 0.51120 0.57200 -0.02243
 H1401 H 0.42489 0.47122 -0.01226
 H1402 H 0.44982 0.44671 -0.04068
 H1403 H 0.54868 0.54586 0.04205
 H1404 H 0.57671 0.52044 0.01510
 O1405 O -0.07309 0.00659 0.52044
 O1406 O -0.07281 -0.03574 0.50854
 O1407 O -0.01173 0.01016 0.57660
 O1408 O 0.03015 0.00339 0.57814
 O1409 O -0.01707 0.06769 0.51556
 O1410 O -0.00689 0.06747 0.47173
 O1411 O 0.05688 -0.05351 0.50741
 O1412 O 0.04027 -0.05629 0.54805
 O1413 O -0.00394 -0.06183 0.45602
 O1414 O -0.04552 -0.04171 0.44983
 O1415 O 0.04728 -0.00085 0.44682
 O1416 O 0.05307 0.04074 0.46745
 O1417 O 0.07109 -0.01770 0.48709
 O1418 O 0.07116 0.02815 0.49876
 O1419 O 0.01171 -0.02101 0.43204
 O1420 O -0.03450 -0.00949 0.43278
 O1421 O 0.01814 -0.07618 0.49088
 O1422 O 0.00062 -0.07562 0.53474
 O1423 O -0.05892 0.04205 0.49939
 O1424 O -0.03873 0.04778 0.45859
 O1425 O 0.00382 0.05336 0.55116
 O1426 O 0.04612 0.03206 0.55457
 O1427 O -0.04776 -0.00920 0.56176
 O1428 O -0.04886 -0.05181 0.54146
 Zr1429 Zr -0.04019 -0.01658 0.52309
 O1430 O -0.01816 -0.04059 0.49971
 Zr1431 Zr 0.01124 0.01442 0.54395
 O1432 O 0.03547 -0.00888 0.52199
 Zr1433 Zr -0.01992 0.03520 0.49234
 O1434 O 0.00333 0.01342 0.46802
 Zr1435 Zr 0.01862 -0.04467 0.51561
 O1436 O -0.00416 -0.02262 0.54059
 Zr1437 Zr -0.01231 -0.02331 0.46398
 O1438 O -0.03704 -0.00056 0.48622
 Zr1439 Zr 0.03927 0.00711 0.48530
 O1440 O 0.01710 0.03195 0.50817
 O1441 O -0.02514 0.01983 0.52861
 O1442 O 0.02421 -0.02921 0.47921
 C1443 C -0.07660 0.02863 0.50991
 C1444 C -0.03416 0.00060 0.57973
 C1445 C -0.00669 0.07115 0.53759
 C1446 C 0.07435 -0.04038 0.49622
 C1447 C 0.00792 -0.07937 0.46875
 C1448 C 0.03402 -0.01133 0.42897
 H1449 H -0.02676 -0.05735 0.49821
 H1450 H 0.00475 0.02245 0.45145
 H1451 H -0.03607 0.03069 0.53952
 H1452 H 0.05215 -0.01084 0.53086
 H1453 H 0.02962 -0.05260 0.56318
 H1454 H 0.04001 -0.01225 0.57424
 H1455 H -0.02644 0.00642 0.42648
 H1456 H -0.05056 0.03393 0.45350
 H1457 H 0.01224 -0.09064 0.53408
 H1458 H -0.06473 -0.04969 0.55153
 H1459 H 0.04057 0.04580 0.45403
 H1460 H 0.01104 0.07033 0.47723
 H1461 H -0.07492 -0.03022 0.49052
 H1462 H -0.05052 -0.05491 0.46244
 H1463 H 0.04955 0.04549 0.54163
 H1464 H 0.07727 0.01998 0.51479
 O1465 O 0.73225 0.23773 0.32127
 O1466 O 0.74449 0.27965 0.32249
 O1467 O 0.67607 0.23676 0.25963
 O1468 O 0.67483 0.24359 0.21786
 O1469 O 0.73663 0.17835 0.26430
 O1470 O 0.78020 0.17828 0.25368
 O1471 O 0.74427 0.30166 0.19335
 O1472 O 0.70501 0.30498 0.21095
 O1473 O 0.79748 0.30765 0.25476
 O1474 O 0.80383 0.28586 0.29518
 O1475 O 0.80590 0.24906 0.20100
 O1476 O 0.78633 0.20887 0.19312
 O1477 O 0.76485 0.26667 0.17788
 O1478 O 0.75290 0.21977 0.17768
 O1479 O 0.82101 0.26762 0.23721
 O1480 O 0.82040 0.25404 0.28290
 O1481 O 0.76292 0.32321 0.23302
 O1482 O 0.71892 0.32227 0.25087
 O1483 O 0.75377 0.20289 0.30660
 O1484 O 0.79440 0.19739 0.28534
 O1485 O 0.70110 0.19355 0.24392
 O1486 O 0.69839 0.21595 0.20166
 O1487 O 0.69094 0.25480 0.29626
 O1488 O 0.71208 0.29700 0.29895
 Zr1489 Zr 0.72989 0.26185 0.28919
 O1490 O 0.75363 0.28637 0.26804
 Zr1491 Zr 0.70888 0.23253 0.23703
 O1492 O 0.73082 0.25676 0.21364
 Zr1493 Zr 0.76031 0.21055 0.26754
 O1494 O 0.78468 0.23292 0.24467
 Zr1495 Zr 0.73760 0.29193 0.23158
 O1496 O 0.71242 0.26908 0.25346
 Zr1497 Zr 0.78917 0.26898 0.26146
 O1498 O 0.76670 0.24573 0.28558
 Zr1499 Zr 0.76740 0.24080 0.20903
 O1500 O 0.74459 0.21512 0.23060
 O1501 O 0.72410 0.22594 0.27323
 O1502 O 0.77390 0.27653 0.22522
 C1503 C 0.74313 0.21586 0.32448
 C1504 C 0.67287 0.24591 0.28212
 C1505 C 0.71442 0.17539 0.25412
 C1506 C 0.75470 0.28902 0.17516
 C1507 C 0.78496 0.32584 0.24376
 C1508 C 0.82390 0.25898 0.21451
 H1509 H 0.75537 0.30275 0.27724
 H1510 H 0.80121 0.22389 0.24282
 H1511 H 0.71305 0.21494 0.28395
 H1512 H 0.72169 0.25920 0.19718
 H1513 H 0.68990 0.30052 0.22137
 H1514 H 0.67815 0.26058 0.21022
 H1515 H 0.82678 0.23866 0.27403
 H1516 H 0.79954 0.21064 0.29778
 H1517 H 0.72000 0.33785 0.24002
 H1518 H 0.70176 0.29444 0.31461
 H1519 H 0.79734 0.20133 0.20666
 H1520 H 0.77478 0.17620 0.23564
 H1521 H 0.76258 0.27419 0.32431
 H1522 H 0.79129 0.29879 0.30090
 H1523 H 0.71059 0.20180 0.19852
 H1524 H 0.73764 0.22892 0.17099
 O1525 O 0.75826 0.70070 0.69363
 O1526 O 0.79756 0.69592 0.71276
 O1527 O 0.70617 0.69130 0.75738
 O1528 O 0.69741 0.71091 0.79375
 O1529 O 0.69504 0.75415 0.70284
 O1530 O 0.71582 0.79380 0.69654
 O1531 O 0.77244 0.76117 0.82236
 O1532 O 0.75784 0.72010 0.82387
 O1533 O 0.82536 0.76645 0.76329
 O1534 O 0.82561 0.75465 0.71819
 O1535 O 0.76646 0.82090 0.76712
 O1536 O 0.72188 0.82204 0.75694
 O1537 O 0.75072 0.79624 0.80782
 O1538 O 0.70781 0.80195 0.78606
 O1539 O 0.80107 0.80647 0.74541
 O1540 O 0.80625 0.78437 0.70407
 O1541 O 0.81120 0.74541 0.79859
 O1542 O 0.79193 0.70233 0.79894
 O1543 O 0.73698 0.73583 0.67853
 O1544 O 0.74825 0.78044 0.67822
 O1545 O 0.68099 0.73269 0.73792
 O1546 O 0.68286 0.74716 0.78298
 O1547 O 0.74014 0.67689 0.73460
 O1548 O 0.78500 0.67828 0.75037
 Zr1549 Zr 0.76461 0.70871 0.73233
 O1550 O 0.78944 0.73110 0.75465
 Zr1551 Zr 0.71322 0.73053 0.76219
 O1552 O 0.73601 0.75314 0.78640
 Zr1553 Zr 0.73417 0.76030 0.71031
 O1554 O 0.75734 0.78481 0.73227
 Zr1555 Zr 0.77275 0.73726 0.79040
 O1556 O 0.74881 0.71266 0.76902
 Zr1557 Zr 0.79330 0.76771 0.73859
 O1558 O 0.77095 0.74429 0.71438
 Zr1559 Zr 0.74210 0.78894 0.76910
 O1560 O 0.71694 0.76720 0.74583
 O1561 O 0.72837 0.72433 0.72619
 O1562 O 0.77859 0.77372 0.77497
 C1563 C 0.74776 0.71388 0.67556
 C1564 C 0.71868 0.67358 0.74596
 C1565 C 0.67740 0.74328 0.71598
 C1566 C 0.76238 0.78338 0.82546
 C1567 C 0.82873 0.75652 0.78561
 C1568 C 0.78834 0.82416 0.75656
 H1569 H 0.80607 0.72216 0.75642
 H1570 H 0.75870 0.80140 0.72324
 H1571 H 0.71736 0.71336 0.71537
 H1572 H 0.72759 0.75461 0.80318
 H1573 H 0.74974 0.70388 0.81852
 H1574 H 0.70890 0.71407 0.80848
 H1575 H 0.79433 0.79841 0.69942
 H1576 H 0.76553 0.77349 0.67481
 H1577 H 0.80072 0.70415 0.81570
 H1578 H 0.78263 0.66246 0.74025
 H1579 H 0.72720 0.82590 0.73924
 H1580 H 0.70497 0.80008 0.71062
 H1581 H 0.80405 0.71072 0.70289
 H1582 H 0.83117 0.73820 0.72589
 H1583 H 0.67779 0.76301 0.77379
 H1584 H 0.70435 0.79091 0.80106
 O1585 O 0.29821 0.19273 0.74475
 O1586 O 0.30216 0.21132 0.70496
 O1587 O 0.30900 0.25573 0.79653
 O1588 O 0.29095 0.29348 0.80407
 O1589 O 0.24551 0.20372 0.80754
 O1590 O 0.20549 0.19822 0.78686
 O1591 O 0.23919 0.32335 0.73044
 O1592 O 0.28074 0.32366 0.74430
 O1593 O 0.23311 0.26347 0.67705
 O1594 O 0.24282 0.21843 0.67717
 O1595 O 0.17865 0.26916 0.73691
 O1596 O 0.17842 0.25934 0.78141
 O1597 O 0.20420 0.30956 0.75217
 O1598 O 0.19902 0.28819 0.79496
 O1599 O 0.19228 0.24783 0.70182
 O1600 O 0.21337 0.20531 0.69695
 O1601 O 0.25363 0.29897 0.69126
 O1602 O 0.29720 0.29830 0.71006
 O1603 O 0.26297 0.17878 0.76604
 O1604 O 0.21826 0.17950 0.75440
 O1605 O 0.26758 0.23841 0.82148
 O1606 O 0.25444 0.28382 0.81954
 O1607 O 0.32296 0.23395 0.76179
 O1608 O 0.32075 0.24867 0.71684
 Zr1609 Zr 0.29050 0.23167 0.73778
 O1610 O 0.26798 0.25458 0.71314
 Zr1611 Zr 0.26999 0.26238 0.78914
 O1612 O 0.24736 0.28711 0.76648
 Zr1613 Zr 0.23899 0.21117 0.76849
 O1614 O 0.21444 0.23371 0.74550
 Zr1615 Zr 0.26258 0.29064 0.72964
 O1616 O 0.28729 0.26861 0.75342
 Zr1617 Zr 0.23102 0.23946 0.70947
 O1618 O 0.25447 0.21467 0.73168
 Zr1619 Zr 0.21118 0.27069 0.76073
 O1620 O 0.23298 0.24693 0.78572
 O1621 O 0.27533 0.22615 0.77406
 O1622 O 0.22575 0.27610 0.72410
 C1623 C 0.28491 0.17514 0.75563
 C1624 C 0.32656 0.24458 0.78359
 C1625 C 0.25672 0.21670 0.82511
 C1626 C 0.21718 0.32699 0.74065
 C1627 C 0.24286 0.28576 0.67361
 C1628 C 0.17486 0.25895 0.71496
 H1629 H 0.27669 0.25601 0.69648
 H1630 H 0.19767 0.22510 0.74427
 H1631 H 0.28628 0.21514 0.78509
 H1632 H 0.24630 0.30396 0.77489
 H1633 H 0.29698 0.31782 0.75232
 H1634 H 0.28686 0.30850 0.79321
 H1635 H 0.19924 0.20137 0.70880
 H1636 H 0.22508 0.17582 0.73721
 H1637 H 0.29541 0.31508 0.70126
 H1638 H 0.33643 0.23810 0.71904
 H1639 H 0.17407 0.24177 0.77607
 H1640 H 0.19965 0.21240 0.79785
 H1641 H 0.28727 0.20113 0.69921
 H1642 H 0.26007 0.22449 0.67242
 H1643 H 0.23831 0.27533 0.82457
 H1644 H 0.21044 0.30285 0.79838
 O1645 O 0.19037 0.74392 0.29671
 O1646 O 0.20986 0.70443 0.30125
 O1647 O 0.25355 0.79654 0.30580
 O1648 O 0.28980 0.80601 0.28617
 O1649 O 0.19890 0.80630 0.24245
 O1650 O 0.19282 0.78524 0.20310
 O1651 O 0.32000 0.73219 0.23665
 O1652 O 0.32085 0.74580 0.27777
 O1653 O 0.26064 0.67715 0.23214
 O1654 O 0.21581 0.67643 0.24288
 O1655 O 0.26404 0.73618 0.17657
 O1656 O 0.25355 0.78054 0.17519
 O1657 O 0.30498 0.75314 0.20130
 O1658 O 0.28238 0.79515 0.19509
 O1659 O 0.24379 0.70081 0.19153
 O1660 O 0.20169 0.69566 0.21297
 O1661 O 0.29645 0.69208 0.25188
 O1662 O 0.29643 0.71124 0.29510
 O1663 O 0.17520 0.76454 0.26119
 O1664 O 0.17508 0.75246 0.21676
 O1665 O 0.23368 0.82134 0.26383
 O1666 O 0.27901 0.82020 0.24997
 O1667 O 0.23136 0.76212 0.32033
 O1668 O 0.24736 0.71764 0.31921
 Zr1669 Zr 0.22920 0.73769 0.28862
 O1670 O 0.25203 0.71327 0.26649
 Zr1671 Zr 0.25847 0.78954 0.26658
 O1672 O 0.28307 0.76710 0.24421
 Zr1673 Zr 0.20696 0.76743 0.23675
 O1674 O 0.22932 0.74468 0.21249
 Zr1675 Zr 0.28769 0.73044 0.26021
 O1676 O 0.26580 0.75407 0.28457
 Zr1677 Zr 0.23604 0.70898 0.22992
 O1678 O 0.21140 0.73087 0.25308
 Zr1679 Zr 0.26597 0.76061 0.20839
 O1680 O 0.24227 0.78535 0.22988
 O1681 O 0.22266 0.77375 0.27273
 O1682 O 0.27236 0.72425 0.22378
 C1683 C 0.17229 0.75433 0.28342
 C1684 C 0.24244 0.78375 0.32359
 C1685 C 0.21172 0.82439 0.25296
 C1686 C 0.32300 0.74243 0.21447
 C1687 C 0.28319 0.67414 0.24164
 C1688 C 0.25432 0.71383 0.17363
 H1689 H 0.25397 0.69670 0.27555
 H1690 H 0.22035 0.74307 0.19588
 H1691 H 0.21175 0.78468 0.28358
 H1692 H 0.29971 0.77593 0.24281
 H1693 H 0.31520 0.75390 0.29384
 H1694 H 0.30459 0.79452 0.28354
 H1695 H 0.19745 0.70706 0.19838
 H1696 H 0.17183 0.73527 0.22405
 H1697 H 0.31324 0.70261 0.29325
 H1698 H 0.23699 0.71965 0.33489
 H1699 H 0.23588 0.77495 0.17135
 H1700 H 0.20671 0.79638 0.19674
 H1701 H 0.19928 0.69842 0.28672
 H1702 H 0.22269 0.67171 0.25994
 H1703 H 0.26989 0.82501 0.23399
 H1704 H 0.29702 0.79925 0.20642
 O1705 O 0.23887 0.67850 0.76615
 O1706 O 0.28107 0.67744 0.75386
 O1707 O 0.23717 0.74105 0.82028
 O1708 O 0.24461 0.78268 0.82038
 O1709 O 0.17870 0.73591 0.76013
 O1710 O 0.17854 0.74519 0.71597
 O1711 O 0.30100 0.80685 0.74909
 O1712 O 0.30456 0.79034 0.78957
 O1713 O 0.30791 0.74399 0.69907
 O1714 O 0.28621 0.70323 0.69424
 O1715 O 0.24829 0.79750 0.68891
 O1716 O 0.20701 0.80468 0.70872
 O1717 O 0.26512 0.82152 0.72876
 O1718 O 0.21897 0.82209 0.74034
 O1719 O 0.26770 0.76126 0.67503
 O1720 O 0.25457 0.71562 0.67673
 O1721 O 0.32310 0.76683 0.73271
 O1722 O 0.32276 0.75018 0.77716
 O1723 O 0.20336 0.69302 0.74501
 O1724 O 0.19765 0.71268 0.70356
 O1725 O 0.19407 0.75690 0.79491
 O1726 O 0.21604 0.79881 0.79658
 O1727 O 0.25571 0.70426 0.80653
 O1728 O 0.29800 0.70153 0.78576
 Zr1729 Zr 0.26269 0.71080 0.76751
 O1730 O 0.28683 0.73176 0.74319
 Zr1731 Zr 0.23294 0.76333 0.78694
 O1732 O 0.25646 0.78650 0.76408
 Zr1733 Zr 0.21086 0.73174 0.73663
 O1734 O 0.23282 0.75405 0.71139
 Zr1735 Zr 0.29190 0.76869 0.75785
 O1736 O 0.26966 0.74696 0.78375
 Zr1737 Zr 0.26920 0.73744 0.70748
 O1738 O 0.24627 0.71369 0.73071
 Zr1739 Zr 0.24005 0.79007 0.72747
 O1740 O 0.21502 0.76894 0.75120
 O1741 O 0.22663 0.72683 0.77290
 O1742 O 0.27607 0.77406 0.72147
 C1743 C 0.21666 0.67524 0.75595
 C1744 C 0.24650 0.71857 0.82410
 C1745 C 0.17586 0.74667 0.78193
 C1746 C 0.28771 0.82461 0.73814
 C1747 C 0.32592 0.75551 0.71119
 C1748 C 0.25872 0.78388 0.67147
 H1749 H 0.30337 0.72263 0.74181
 H1750 H 0.22372 0.75550 0.69481
 H1751 H 0.21573 0.71638 0.78428
 H1752 H 0.25870 0.80322 0.77252
 H1753 H 0.30062 0.78012 0.80503
 H1754 H 0.26061 0.79174 0.81615
 H1755 H 0.23882 0.72413 0.67035
 H1756 H 0.21134 0.70059 0.69864
 H1757 H 0.33806 0.76130 0.77587
 H1758 H 0.29568 0.68595 0.79643
 H1759 H 0.20125 0.79177 0.69622
 H1760 H 0.17633 0.76337 0.72067
 H1761 H 0.27512 0.67499 0.73604
 H1762 H 0.29956 0.69806 0.70676
 H1763 H 0.20217 0.80209 0.78397
 H1764 H 0.22757 0.82864 0.75587
 O1765 O 0.25655 0.19796 0.19283
 O1766 O 0.29525 0.19434 0.21394
 O1767 O 0.20153 0.19143 0.25391
 O1768 O 0.19119 0.21230 0.28907
 O1769 O 0.19362 0.25164 0.19633
 O1770 O 0.21452 0.29138 0.18992
 O1771 O 0.26394 0.26381 0.31974
 O1772 O 0.25013 0.22262 0.32186
 O1773 O 0.32095 0.26560 0.26250
 O1774 O 0.32279 0.25312 0.21795
 O1775 O 0.26168 0.32131 0.26159
 O1776 O 0.21806 0.32237 0.24924
 O1777 O 0.24322 0.29823 0.30245
 O1778 O 0.20182 0.30316 0.27771
 O1779 O 0.29786 0.30564 0.24361
 O1780 O 0.30440 0.28286 0.20253
 O1781 O 0.30470 0.24761 0.29852
 O1782 O 0.28565 0.20439 0.29960
 O1783 O 0.23681 0.23282 0.17522
 O1784 O 0.24796 0.27731 0.17374
 O1785 O 0.17740 0.23289 0.23199
 O1786 O 0.17728 0.24804 0.27663
 O1787 O 0.23685 0.17601 0.23403
 O1788 O 0.28081 0.17808 0.25158
 Zr1789 Zr 0.26134 0.20776 0.23139
 O1790 O 0.28503 0.23103 0.25406
 Zr1791 Zr 0.20853 0.23084 0.25768
 O1792 O 0.23014 0.25442 0.28202
 Zr1793 Zr 0.23221 0.25844 0.20580
 O1794 O 0.25430 0.28383 0.22788
 Zr1795 Zr 0.26666 0.23877 0.28867
 O1796 O 0.24376 0.21332 0.26706
 Zr1797 Zr 0.28983 0.26694 0.23674
 O1798 O 0.26869 0.24257 0.21238
 Zr1799 Zr 0.23716 0.28948 0.26361
 O1800 O 0.21317 0.26681 0.24005
 O1801 O 0.22546 0.22314 0.22280
 O1802 O 0.27332 0.27456 0.27207
 C1803 C 0.24725 0.21054 0.17368
 C1804 C 0.21477 0.17317 0.24424
 C1805 C 0.17510 0.24213 0.20928
 C1806 C 0.25326 0.28591 0.32142
 C1807 C 0.32315 0.25716 0.28553
 C1808 C 0.28450 0.32391 0.25299
 H1809 H 0.30153 0.22211 0.25696
 H1810 H 0.25624 0.30009 0.21837
 H1811 H 0.21493 0.21175 0.21195
 H1812 H 0.22073 0.25652 0.29820
 H1813 H 0.24241 0.20617 0.31666
 H1814 H 0.20214 0.21573 0.30415
 H1815 H 0.29315 0.29727 0.19737
 H1816 H 0.26561 0.27067 0.17188
 H1817 H 0.29357 0.20697 0.31667
 H1818 H 0.27912 0.16191 0.24188
 H1819 H 0.22362 0.32492 0.23139
 H1820 H 0.20264 0.29791 0.20302
 H1821 H 0.30166 0.20842 0.20302
 H1822 H 0.32752 0.23654 0.22590
 H1823 H 0.17271 0.26371 0.26687
 H1824 H 0.19754 0.29297 0.29308
 O1825 O 0.79894 0.69407 0.24614
 O1826 O 0.80204 0.71296 0.20603
 O1827 O 0.80820 0.75496 0.29888
 O1828 O 0.78972 0.79209 0.30798
 O1829 O 0.74577 0.70156 0.30714
 O1830 O 0.70536 0.69720 0.28680
 O1831 O 0.73868 0.82402 0.23352
 O1832 O 0.77962 0.82460 0.24826
 O1833 O 0.73284 0.76604 0.17910
 O1834 O 0.74260 0.72176 0.17725
 O1835 O 0.67827 0.76970 0.23869
 O1836 O 0.67739 0.75909 0.28230
 O1837 O 0.70365 0.80978 0.25489
 O1838 O 0.69870 0.78680 0.29763
 O1839 O 0.69215 0.74929 0.20315
 O1840 O 0.71405 0.70673 0.19745
 O1841 O 0.75455 0.80049 0.19414
 O1842 O 0.79750 0.79979 0.21430
 O1843 O 0.76288 0.67869 0.26491
 O1844 O 0.71784 0.67984 0.25336
 O1845 O 0.76602 0.73656 0.32293
 O1846 O 0.75312 0.78231 0.32207
 O1847 O 0.82257 0.73493 0.26328
 O1848 O 0.82053 0.75027 0.21872
 Zr1849 Zr 0.79028 0.73271 0.23920
 O1850 O 0.76784 0.75608 0.21507
 Zr1851 Zr 0.76913 0.76160 0.29140
 O1852 O 0.74676 0.78700 0.26921
 Zr1853 Zr 0.73869 0.71087 0.26865
 O1854 O 0.71414 0.73414 0.24639
 Zr1855 Zr 0.76231 0.79158 0.23262
 O1856 O 0.78681 0.76906 0.25606
 Zr1857 Zr 0.73092 0.74099 0.21068
 O1858 O 0.75446 0.71561 0.23214
 Zr1859 Zr 0.71069 0.77067 0.26266
 O1860 O 0.73227 0.74603 0.28703
 O1861 O 0.77483 0.72599 0.27513
 O1862 O 0.72554 0.77717 0.22634
 C1863 C 0.78554 0.67589 0.25580
 C1864 C 0.82601 0.74465 0.28553
 C1865 C 0.75615 0.71420 0.32543
 C1866 C 0.71661 0.82742 0.24363
 C1867 C 0.74358 0.78792 0.17614
 C1868 C 0.67463 0.76002 0.21648
 H1869 H 0.77671 0.75795 0.19854
 H1870 H 0.69740 0.72551 0.24484
 H1871 H 0.78584 0.71481 0.28594
 H1872 H 0.74558 0.80362 0.27804
 H1873 H 0.79572 0.81886 0.25663
 H1874 H 0.78666 0.80724 0.29697
 H1875 H 0.69920 0.70291 0.20844
 H1876 H 0.72509 0.67633 0.23631
 H1877 H 0.79591 0.81672 0.20577
 H1878 H 0.83620 0.73962 0.22061
 H1879 H 0.67425 0.74100 0.27788
 H1880 H 0.69973 0.71085 0.29854
 H1881 H 0.78748 0.70217 0.20054
 H1882 H 0.76064 0.72643 0.17412
 H1883 H 0.73714 0.77346 0.32693
 H1884 H 0.70921 0.80217 0.30086
 O1885 O 0.76496 0.23715 0.67707
 O1886 O 0.75218 0.27910 0.67581
 O1887 O 0.82250 0.23530 0.73698
 O1888 O 0.82503 0.24315 0.77840
 O1889 O 0.76201 0.17762 0.73497
 O1890 O 0.71864 0.17775 0.74618
 O1891 O 0.75432 0.30078 0.80486
 O1892 O 0.79418 0.30357 0.78700
 O1893 O 0.70085 0.30694 0.74502
 O1894 O 0.69349 0.28565 0.70495
 O1895 O 0.69433 0.24777 0.79920
 O1896 O 0.71512 0.20669 0.80605
 O1897 O 0.73523 0.26519 0.82106
 O1898 O 0.74767 0.21896 0.82186
 O1899 O 0.67806 0.26672 0.76339
 O1900 O 0.67768 0.25337 0.71753
 O1901 O 0.73602 0.32232 0.76552
 O1902 O 0.77963 0.32137 0.74699
 O1903 O 0.74453 0.20205 0.69279
 O1904 O 0.70401 0.19710 0.71440
 O1905 O 0.79794 0.19256 0.75448
 O1906 O 0.80215 0.21508 0.79600
 O1907 O 0.80683 0.25484 0.70117
 O1908 O 0.78480 0.29668 0.69836
 Zr1909 Zr 0.76784 0.26132 0.70892
 O1910 O 0.74451 0.28567 0.73065
 Zr1911 Zr 0.79044 0.23168 0.76078
 O1912 O 0.76889 0.25567 0.78467
 Zr1913 Zr 0.73831 0.20994 0.73171
 O1914 O 0.71435 0.23209 0.75504
 Zr1915 Zr 0.76137 0.29096 0.76674
 O1916 O 0.78613 0.26833 0.74423
 Zr1917 Zr 0.70922 0.26829 0.73820
 O1918 O 0.73123 0.24522 0.71361
 Zr1919 Zr 0.73258 0.23957 0.79017
 O1920 O 0.75505 0.21418 0.76816
 O1921 O 0.77430 0.22533 0.72502
 O1922 O 0.72540 0.27540 0.77398
 C1923 C 0.75468 0.21497 0.67449
 C1924 C 0.82519 0.24518 0.71461
 C1925 C 0.78436 0.17449 0.74486
 C1926 C 0.74421 0.28797 0.82323
 C1927 C 0.71363 0.32503 0.75554
 C1928 C 0.67593 0.25797 0.78625
 H1929 H 0.74244 0.30214 0.72145
 H1930 H 0.69794 0.22304 0.75734
 H1931 H 0.78519 0.21434 0.71422
 H1932 H 0.77827 0.25811 0.80096
 H1933 H 0.80913 0.29946 0.77624
 H1934 H 0.82137 0.25941 0.78719
 H1935 H 0.67155 0.23801 0.72673
 H1936 H 0.69878 0.21039 0.70184
 H1937 H 0.77889 0.33680 0.75790
 H1938 H 0.79483 0.29425 0.68251
 H1939 H 0.70190 0.20081 0.79383
 H1940 H 0.72419 0.17572 0.76421
 H1941 H 0.73411 0.27357 0.67454
 H1942 H 0.70605 0.29825 0.69859
 H1943 H 0.78977 0.20135 0.79999
 H1944 H 0.76334 0.22782 0.82771
 C1945 C 0.06503 1.00870 1.15202
 C1946 C 0.05238 1.03441 1.14416
 C1947 C 0.04258 1.03462 1.11991
 C1948 C 0.04613 1.00928 1.10561
 C1949 C 0.07514 1.00420 1.10686
 C1950 C 0.08494 1.00404 1.13098
 C1951 C 0.04411 0.98863 1.14724
 C1952 C 0.03430 0.98893 1.12310
 H1953 H 0.05169 1.05140 1.15584
 H1954 H 0.03361 1.05147 1.11149
 H1955 H 0.08719 1.00176 1.09024
 H1956 H 0.10526 1.00147 1.13472
 H1957 H 0.03739 0.97541 1.16178
 H1958 H 0.01931 0.97591 1.11703
 C1959 C 0.56753 0.50959 0.65069
 C1960 C 0.55547 0.53542 0.64231
 C1961 C 0.54533 0.53526 0.61818
 C1962 C 0.54805 0.50947 0.60451
 C1963 C 0.57692 0.50366 0.60552
 C1964 C 0.58705 0.50386 0.62953
 C1965 C 0.54605 0.48996 0.64669
 C1966 C 0.53595 0.48989 0.62269
 H1967 H 0.55559 0.55278 0.65346
 H1968 H 0.53682 0.55215 0.60938
 H1969 H 0.58867 0.50049 0.58880
 H1970 H 0.60734 0.50086 0.63309
 H1971 H 0.53921 0.47726 0.66163
 H1972 H 0.52058 0.47708 0.61715
 C1973 C 0.43394 -0.00388 0.64328
 C1974 C 0.42013 -0.02102 0.62361
 C1975 C 0.43102 -0.02103 0.60007
 C1976 C 0.45500 -0.00431 0.59818
 C1977 C 0.44647 0.02234 0.60692
 C1978 C 0.43545 0.02253 0.63037
 C1979 C 0.46168 -0.01409 0.64333
 C1980 C 0.47269 -0.01419 0.61982
 H1981 H 0.40376 -0.03294 0.62804
 H1982 H 0.42378 -0.03264 0.58449
 H1983 H 0.44901 0.03964 0.59566
 H1984 H 0.42859 0.04002 0.63910
 H1985 H 0.47147 -0.02214 0.65986
 H1986 H 0.49183 -0.02170 0.61690
 C1987 C -0.06858 0.50230 1.14524
 C1988 C -0.04163 0.51418 1.14328
 C1989 C -0.03173 0.51362 1.11929
 C1990 C -0.04945 0.50140 1.09925
 C1991 C -0.05571 0.47484 1.11007
 C1992 C -0.06569 0.47531 1.13402
 C1993 C -0.08441 0.51728 1.12512
 C1994 C -0.07458 0.51667 1.10114
 H1995 H -0.03161 0.52377 1.15864
 H1996 H -0.01338 0.52214 1.11478
 H1997 H -0.05260 0.45716 1.09976
 H1998 H -0.07099 0.45797 1.14418
 H1999 H -0.10163 0.52803 1.12948
 H2000 H -0.08361 0.52674 1.08525
 C2001 C -0.07042 0.50623 0.35266
 C2002 C -0.06167 0.53139 0.36166
 C2003 C -0.05126 0.53083 0.38713
 C2004 C -0.05165 0.50548 0.39897
 C2005 C -0.07845 0.49750 0.39754
 C2006 C -0.08879 0.49811 0.37216
 C2007 C -0.04828 0.48928 0.35597
 C2008 C -0.03804 0.48885 0.38137
 H2009 H -0.06604 0.54956 0.35255
 H2010 H -0.04620 0.54812 0.39731
 H2011 H -0.09032 0.49342 0.41400
 H2012 H -0.10897 0.49467 0.36839
 H2013 H -0.03988 0.47818 0.34065
 H2014 H -0.02150 0.47731 0.38671
 C2015 C 0.43322 1.00514 -0.15079
 C2016 C 0.41355 0.99949 -0.12972
 C2017 C 0.42359 0.99867 -0.10570
 C2018 C 0.45254 1.00388 -0.10457
 C2019 C 0.46446 0.98435 -0.12274
 C2020 C 0.45440 0.98499 -0.14679
 C2021 C 0.44559 1.03058 -0.14228
 C2022 C 0.45563 1.02983 -0.11815
 H2023 H 0.39321 0.99701 -0.13334
 H2024 H 0.41172 0.99549 -0.08905
 H2025 H 0.47964 0.97117 -0.11717
 H2026 H 0.46110 0.97240 -0.16176
 H2027 H 0.44566 1.04815 -0.15333
 H2028 H 0.46428 1.04644 -0.10926
 C2029 C 0.56672 0.49293 -0.14342
 C2030 C 0.53859 0.48399 -0.14367
 C2031 C 0.52763 0.48340 -0.12014
 C2032 C 0.54573 0.49158 -0.09829
 C2033 C 0.56900 0.47386 -0.10074
 C2034 C 0.57988 0.47439 -0.12431
 C2035 C 0.56625 0.51883 -0.12975
 C2036 C 0.55528 0.51816 -0.10631
 H2037 H 0.52847 0.47708 -0.16040
 H2038 H 0.50821 0.47666 -0.11736
 H2039 H 0.57556 0.46102 -0.08568
 H2040 H 0.59565 0.46182 -0.12919
 H2041 H 0.57374 0.53636 -0.13799
 H2042 H 0.55340 0.53512 -0.09459
 C2043 C 0.06634 -0.01046 0.35751
 C2044 C 0.03859 -0.02052 0.35749
 C2045 C 0.02762 -0.02095 0.38104
 C2046 C 0.04538 -0.01150 0.40264
 C2047 C 0.06933 -0.02836 0.40063
 C2048 C 0.08021 -0.02800 0.37707
 C2049 C 0.06483 0.01574 0.37049
 C2050 C 0.05386 0.01523 0.39392
 H2051 H 0.02879 -0.02817 0.34089
 H2052 H 0.00849 -0.02837 0.38402
 H2053 H 0.07634 -0.04058 0.41601
 H2054 H 0.09639 -0.04016 0.37250
 H2055 H 0.07162 0.03335 0.36181
 H2056 H 0.05128 0.03241 0.40518
 C2057 C 0.14699 1.06661 1.00297
 C2058 C 0.12733 1.08073 0.98590
 C2059 C 0.10318 1.07137 0.98739
 C2060 C 0.10061 1.04831 1.00561
 C2061 C 0.12050 1.02896 0.99599
 C2062 C 0.14472 1.03842 0.99458
 C2063 C 0.13540 1.06711 1.02995
 C2064 C 0.11124 1.05756 1.03131
 H2065 H 0.13212 1.09649 0.97322
 H2066 H 0.08760 1.07936 0.97602
 H2067 H 0.11578 1.00967 0.99005
 H2068 H 0.16013 1.02691 0.98701
 H2069 H 0.14551 1.07423 1.04664
 H2070 H 0.10068 1.05662 1.04909
 C2071 C 0.64379 0.56935 0.50522
 C2072 C 0.62331 0.58449 0.49005
 C2073 C 0.59937 0.57458 0.49157
 C2074 C 0.59784 0.54999 0.50784
 C2075 C 0.61767 0.53198 0.49592
 C2076 C 0.64162 0.54201 0.49445
 C2077 C 0.63315 0.56739 0.53253
 C2078 C 0.60920 0.55726 0.53389
 H2079 H 0.62739 0.60126 0.47844
 H2080 H 0.58327 0.58318 0.48146
 H2081 H 0.61300 0.51333 0.48817
 H2082 H 0.65680 0.53182 0.48483
 H2083 H 0.64369 0.57340 0.54940
 H2084 H 0.59925 0.55469 0.55187
 C2085 C 0.64666 0.43060 -0.00695
 C2086 C 0.62600 0.41066 -0.00043
 C2087 C 0.60179 0.42024 0.00042
 C2088 C 0.60010 0.44904 -0.00557
 C2089 C 0.61866 0.46163 0.01337
 C2090 C 0.64288 0.45207 0.01264
 C2091 C 0.63725 0.44238 -0.03256
 C2092 C 0.61297 0.45196 -0.03172
 H2093 H 0.63004 0.39049 0.00270
 H2094 H 0.58538 0.40818 0.00429
 H2095 H 0.61323 0.47691 0.02622
 H2096 H 0.65811 0.45930 0.02481
 H2097 H 0.64795 0.44278 -0.05017
 H2098 H 0.60366 0.46053 -0.04829
 C2099 C 0.14723 -0.07028 0.49256
 C2100 C 0.12630 -0.09059 0.49666
 C2101 C 0.10213 -0.08094 0.49779
 C2102 C 0.10079 -0.05173 0.49452
 C2103 C 0.11892 -0.04110 0.51501
 C2104 C 0.14308 -0.05073 0.51399
 C2105 C 0.13858 -0.05611 0.46793
 C2106 C 0.11434 -0.04647 0.46905
 H2107 H 0.13014 -0.11098 0.49793
 H2108 H 0.08551 -0.09315 0.50002
 H2109 H 0.11325 -0.02704 0.52908
 H2110 H 0.15805 -0.04477 0.52715
 H2111 H 0.14972 -0.05421 0.45069
 H2112 H 0.10550 -0.03637 0.45308
 C2113 C 0.35490 -0.06611 0.49782
 C2114 C 0.37443 -0.08010 0.48092
 C2115 C 0.39846 -0.07029 0.48198
 C2116 C 0.40101 -0.04698 0.49960
 C2117 C 0.38054 -0.02813 0.48964
 C2118 C 0.35646 -0.03803 0.48867
 C2119 C 0.36713 -0.06609 0.52469
 C2120 C 0.39115 -0.05610 0.52561
 H2121 H 0.36960 -0.09602 0.46858
 H2122 H 0.41393 -0.07804 0.47063
 H2123 H 0.38477 -0.00890 0.48299
 H2124 H 0.34070 -0.02704 0.48068
 H2125 H 0.35758 -0.07324 0.54163
 H2126 H 0.40212 -0.05483 0.54325
 C2127 C -0.14651 0.43590 0.99947
 C2128 C -0.12654 0.42156 0.98341
 C2129 C -0.10271 0.43185 0.98430
 C2130 C -0.10074 0.45595 1.00095
 C2131 C -0.12141 0.47400 0.98999
 C2132 C -0.14531 0.46364 0.98918
 C2133 C -0.13460 0.43728 1.02643
 C2134 C -0.11077 0.44774 1.02719
 H2135 H -0.13093 0.40501 0.97175
 H2136 H -0.08699 0.42388 0.97345
 H2137 H -0.11744 0.49305 0.98267
 H2138 H -0.16117 0.47407 0.98066
 H2139 H -0.14424 0.43070 1.04355
 H2140 H -0.10006 0.45001 1.04489
 C2141 C -0.15141 0.56308 0.49506
 C2142 C -0.14945 0.53997 0.47689
 C2143 C -0.12554 0.52951 0.47575
 C2144 C -0.10571 0.54287 0.49299
 C2145 C -0.10673 0.57107 0.48476
 C2146 C -0.13052 0.58161 0.48593
 C2147 C -0.14141 0.55245 0.52080
 C2148 C -0.11754 0.54215 0.51973
 H2149 H -0.16546 0.53148 0.46681
 H2150 H -0.12143 0.51283 0.46422
 H2151 H -0.09019 0.58179 0.47833
 H2152 H -0.13426 0.60135 0.48048
 H2153 H -0.15247 0.55224 0.53828
 H2154 H -0.10825 0.53348 0.53629
 C2155 C 0.35258 1.06586 -0.01064
 C2156 C 0.35645 1.04381 0.00861
 C2157 C 0.38038 1.03355 0.00866
 C2158 C 0.39856 1.04609 -0.01055
 C2159 C 0.38467 1.04419 -0.03646
 C2160 C 0.36062 1.05447 -0.03660
 C2161 C 0.37402 1.08505 -0.00440
 C2162 C 0.39793 1.07477 -0.00420
 H2163 H 0.34148 1.03670 0.02102
 H2164 H 0.38585 1.01778 0.02118
 H2165 H 0.39323 1.03601 -0.05341
 H2166 H 0.34927 1.05500 -0.05398
 H2167 H 0.37070 1.10526 -0.00105
 H2168 H 0.41481 1.08632 -0.00067
 C2169 C 0.00494 1.15072 1.06777
 C2170 C 0.03108 1.14182 1.05728
 C2171 C 0.03089 1.11755 1.04788
 C2172 C 0.00478 1.10424 1.04970
 C2173 C -0.00211 1.10577 1.07818
 C2174 C -0.00187 1.12993 1.08758
 C2175 C -0.01397 1.14662 1.04552
 C2176 C -0.01404 1.12244 1.03612
 H2177 H 0.04865 1.15271 1.05803
 H2178 H 0.04799 1.10838 1.04055
 H2179 H -0.00602 1.08928 1.09023
 H2180 H -0.00554 1.13385 1.10758
 H2181 H -0.02616 1.16162 1.03767
 H2182 H -0.02636 1.11679 1.02035
 C2183 C 0.50765 0.64758 0.56984
 C2184 C 0.53336 0.63816 0.55877
 C2185 C 0.53236 0.61404 0.54902
 C2186 C 0.50593 0.60140 0.55110
 C2187 C 0.49955 0.60269 0.57971
 C2188 C 0.50060 0.62670 0.58946
 C2189 C 0.48827 0.64431 0.54784
 C2190 C 0.48738 0.62029 0.53811
 H2191 H 0.55120 0.64859 0.55932
 H2192 H 0.54906 0.60455 0.54122
 H2193 H 0.49536 0.58614 0.59157
 H2194 H 0.49732 0.63043 0.60956
 H2195 H 0.47636 0.65974 0.54039
 H2196 H 0.47464 0.61520 0.52246
 C2197 C -0.01018 0.64413 0.43360
 C2198 C 0.01600 0.63078 0.43518
 C2199 C 0.01538 0.60702 0.44578
 C2200 C -0.01143 0.59835 0.45386
 C2201 C -0.02093 0.61959 0.47180
 C2202 C -0.02039 0.64347 0.46120
 C2203 C -0.02769 0.62513 0.41931
 C2204 C -0.02816 0.60124 0.42981
 H2205 H 0.03368 0.63947 0.42872
 H2206 H 0.03253 0.59548 0.44836
 H2207 H -0.02851 0.61616 0.49076
 H2208 H -0.02814 0.65983 0.47118
 H2209 H -0.03963 0.63030 0.40300
 H2210 H -0.04032 0.58618 0.42242
 C2211 C 0.50066 1.14440 -0.06878
 C2212 C 0.47337 1.13351 -0.06707
 C2213 C 0.47220 1.10932 -0.05739
 C2214 C 0.49838 1.09795 -0.05022
 C2215 C 0.51442 1.10024 -0.07468
 C2216 C 0.51575 1.12444 -0.08419
 C2217 C 0.51171 1.14162 -0.04143
 C2218 C 0.51045 1.11739 -0.03184
 H2219 H 0.45636 1.14407 -0.07290
 H2220 H 0.45424 1.09920 -0.05504
 H2221 H 0.52451 1.08443 -0.08347
 H2222 H 0.52709 1.12906 -0.10089
 H2223 H 0.52118 1.15664 -0.03085
 H2224 H 0.51830 1.11231 -0.01321
 C2225 C 0.50958 0.35101 -0.06604
 C2226 C 0.53529 0.35913 -0.05371
 C2227 C 0.53483 0.38304 -0.04336
 C2228 C 0.50886 0.39673 -0.04615
 C2229 C 0.50316 0.39640 -0.07502
 C2230 C 0.50367 0.37264 -0.08536
 C2231 C 0.48982 0.35445 -0.04470
 C2232 C 0.48945 0.37823 -0.03438
 H2233 H 0.55274 0.34792 -0.05363
 H2234 H 0.55158 0.39164 -0.03456
 H2235 H 0.49985 0.41341 -0.08662
 H2236 H 0.50079 0.36955 -0.10568
 H2237 H 0.47731 0.33929 -0.03807
 H2238 H 0.47656 0.38337 -0.01904
 C2239 C 0.00736 -0.15117 0.43696
 C2240 C 0.01644 -0.12987 0.41875
 C2241 C 0.01711 -0.10619 0.42937
 C2242 C 0.00853 -0.10569 0.45733
 C2243 C -0.01807 -0.11804 0.45732
 C2244 C -0.01867 -0.14176 0.44691
 C2245 C 0.02530 -0.14913 0.46049
 C2246 C 0.02594 -0.12535 0.47103
 H2247 H 0.02224 -0.13326 0.39917
 H2248 H 0.02346 -0.08940 0.41889
 H2249 H -0.03493 -0.10911 0.46542
 H2250 H -0.03606 -0.15307 0.44634
 H2251 H 0.03579 -0.16488 0.46913
 H2252 H 0.03736 -0.12120 0.48791
 C2253 C 0.50132 -0.14596 0.56476
 C2254 C 0.47448 -0.13371 0.56399
 C2255 C 0.47379 -0.10973 0.55373
 C2256 C 0.49998 -0.09991 0.54512
 C2257 C 0.51741 -0.10247 0.56884
 C2258 C 0.51823 -0.12646 0.57892
 C2259 C 0.51073 -0.14444 0.53688
 C2260 C 0.50999 -0.12039 0.52671
 H2261 H 0.45739 -0.14324 0.57080
 H2262 H 0.45619 -0.09876 0.55188
 H2263 H 0.52882 -0.08704 0.57669
 H2264 H 0.53040 -0.13128 0.59517
 H2265 H 0.51864 -0.16022 0.52619
 H2266 H 0.51678 -0.11619 0.50759
 C2267 C -0.00163 0.35728 1.06686
 C2268 C -0.02742 0.36812 1.06449
 C2269 C -0.02805 0.39343 1.05395
 C2270 C -0.00282 0.40332 1.04765
 C2271 C 0.01224 0.40129 1.07129
 C2272 C 0.01311 0.37598 1.08168
 C2273 C 0.00928 0.35909 1.04110
 C2274 C 0.00847 0.38446 1.03056
 H2275 H -0.04475 0.35806 1.06989
 H2276 H -0.04577 0.40400 1.05096
 H2277 H 0.02338 0.41672 1.07954
 H2278 H 0.02527 0.37114 1.09795
 H2279 H 0.02083 0.34447 1.03213
 H2280 H 0.01804 0.38940 1.01285
 C2281 C 0.75319 0.31949 0.10233
 C2282 C 0.77898 0.31666 0.11319
 C2283 C 0.77947 0.30630 0.13858
 C2284 C 0.75414 0.30061 0.14853
 C2285 C 0.73970 0.32457 0.14630
 C2286 C 0.73896 0.33477 0.12092
 C2287 C 0.74163 0.29396 0.10439
 C2288 C 0.74231 0.28362 0.12981
 H2289 H 0.79638 0.32171 0.10311
 H2290 H 0.79714 0.30316 0.14921
 H2291 H 0.72900 0.33331 0.16168
 H2292 H 0.72728 0.35134 0.11599
 H2293 H 0.72974 0.28511 0.08989
 H2294 H 0.73229 0.26616 0.13487
 C2295 C 0.26109 0.81690 0.60002
 C2296 C 0.23425 0.81518 0.61164
 C2297 C 0.23367 0.80395 0.63508
 C2298 C 0.26003 0.79541 0.64514
 C2299 C 0.27071 0.77794 0.62412
 C2300 C 0.27139 0.78920 0.60057
 C2301 C 0.27753 0.83056 0.62042
 C2302 C 0.27677 0.81943 0.64398
 H2303 H 0.21703 0.82207 0.60205
 H2304 H 0.21597 0.80123 0.64548
 H2305 H 0.27810 0.75878 0.62752
 H2306 H 0.27988 0.77963 0.58436
 H2307 H 0.28976 0.84684 0.61648
 H2308 H 0.28794 0.82646 0.66004
 C2309 C 0.74837 0.68410 0.60295
 C2310 C 0.75727 0.71222 0.60444
 C2311 C 0.75709 0.72192 0.62855
 C2312 C 0.74808 0.70288 0.64907
 C2313 C 0.72177 0.69382 0.63974
 C2314 C 0.72191 0.68402 0.61571
 C2315 C 0.76614 0.66998 0.62198
 C2316 C 0.76588 0.67960 0.64600
 H2317 H 0.76431 0.72348 0.58858
 H2318 H 0.76353 0.74119 0.63273
 H2319 H 0.70447 0.69508 0.65105
 H2320 H 0.70466 0.67700 0.60646
 H2321 H 0.77842 0.65407 0.61683
 H2322 H 0.77790 0.67170 0.66113
 C2323 C 0.25063 0.17910 0.10191
 C2324 C 0.22462 0.18214 0.11166
 C2325 C 0.22356 0.19286 0.13671
 C2326 C 0.24867 0.19862 0.14748
 C2327 C 0.26310 0.17460 0.14649
 C2328 C 0.26440 0.16403 0.12142
 C2329 C 0.26226 0.20460 0.10372
 C2330 C 0.26101 0.21532 0.12882
 H2331 H 0.20745 0.17698 0.10105
 H2332 H 0.20564 0.19627 0.14653
 H2333 H 0.27365 0.16627 0.16246
 H2334 H 0.27642 0.14758 0.11733
 H2335 H 0.27444 0.21317 0.08936
 H2336 H 0.27095 0.23284 0.13381
 C2337 C 0.25404 0.18594 0.89764
 C2338 C 0.22813 0.19560 0.88699
 C2339 C 0.22940 0.20570 0.86303
 C2340 C 0.25643 0.20575 0.85177
 C2341 C 0.27285 0.21988 0.87175
 C2342 C 0.27152 0.20963 0.89572
 C2343 C 0.26416 0.16751 0.87724
 C2344 C 0.26548 0.17784 0.85337
 H2345 H 0.21044 0.19552 0.89772
 H2346 H 0.21278 0.21381 0.85334
 H2347 H 0.28392 0.23695 0.86769
 H2348 H 0.28096 0.21861 0.91184
 H2349 H 0.27007 0.14798 0.88135
 H2350 H 0.27253 0.16715 0.83713
 C2351 C 0.75642 0.68263 0.39770
 C2352 C 0.78272 0.69313 0.38928
 C2353 C 0.78266 0.70335 0.36524
 C2354 C 0.75652 0.70227 0.35167
 C2355 C 0.74916 0.67380 0.35254
 C2356 C 0.74925 0.66359 0.37648
 C2357 C 0.73787 0.70526 0.39390
 C2358 C 0.73793 0.71546 0.36994
 H2359 H 0.80029 0.69190 0.40031
 H2360 H 0.79983 0.71090 0.35646
 H2361 H 0.74502 0.66233 0.33580
 H2362 H 0.74522 0.64351 0.37995
 H2363 H 0.72583 0.71276 0.40893
 H2364 H 0.72587 0.73159 0.36451
 C2365 C 0.24588 0.81455 0.39576
 C2366 C 0.27172 0.80517 0.38526
 C2367 C 0.27025 0.79508 0.36142
 C2368 C 0.24308 0.79477 0.35010
 C2369 C 0.22705 0.78048 0.37021
 C2370 C 0.22859 0.79070 0.39406
 C2371 C 0.23531 0.83291 0.37512
 C2372 C 0.23378 0.82260 0.35135
 H2373 H 0.28959 0.80566 0.39598
 H2374 H 0.28685 0.78727 0.35179
 H2375 H 0.21612 0.76329 0.36636
 H2376 H 0.21949 0.78149 0.41021
 H2377 H 0.22925 0.85238 0.37899
 H2378 H 0.22645 0.83324 0.33497
 C2379 C 0.74362 0.31892 0.89550
 C2380 C 0.76233 0.29649 0.89200
 C2381 C 0.76237 0.28656 0.86805
 C2382 C 0.74370 0.29980 0.84942
 C2383 C 0.71755 0.29838 0.86260
 C2384 C 0.71740 0.30834 0.88664
 C2385 C 0.75066 0.33825 0.87434
 C2386 C 0.75085 0.32830 0.85038
 H2387 H 0.77445 0.28891 0.90722
 H2388 H 0.77458 0.27061 0.86284
 H2389 H 0.70041 0.29093 0.85348
 H2390 H 0.69981 0.30945 0.89737
 H2391 H 0.75455 0.35832 0.87785
 H2392 H 0.75493 0.33996 0.83367
 C2393 C 0.81580 0.39824 0.24553
 C2394 C 0.83037 0.37852 0.26214
 C2395 C 0.82049 0.35457 0.26138
 C2396 C 0.79648 0.35221 0.24430
 C2397 C 0.77803 0.37257 0.25460
 C2398 C 0.78801 0.39660 0.25529
 C2399 C 0.81476 0.38632 0.21869
 C2400 C 0.80466 0.36233 0.21806
 H2401 H 0.84684 0.38315 0.27400
 H2402 H 0.82876 0.33899 0.27252
 H2403 H 0.75898 0.36831 0.26157
 H2404 H 0.77721 0.41225 0.26334
 H2405 H 0.82129 0.39607 0.20158
 H2406 H 0.80266 0.35157 0.20047
 C2407 C 0.32003 0.89636 0.73674
 C2408 C 0.29266 0.89576 0.72549
 C2409 C 0.28173 0.87213 0.72581
 C2410 C 0.29918 0.85100 0.73712
 C2411 C 0.32368 0.85254 0.72126
 C2412 C 0.33449 0.87620 0.72085
 C2413 C 0.31767 0.88437 0.76347
 C2414 C 0.30679 0.86081 0.76369
 H2415 H 0.28309 0.91207 0.71672
 H2416 H 0.26284 0.86876 0.71776
 H2417 H 0.33118 0.83671 0.71027
 H2418 H 0.35099 0.88039 0.70908
 H2419 H 0.32392 0.89377 0.78087
 H2420 H 0.30373 0.85014 0.78127
 C2421 C 0.18102 0.89701 0.25291
 C2422 C 0.16667 0.87897 0.23695
 C2423 C 0.17704 0.85368 0.23705
 C2424 C 0.20023 0.85100 0.25274
 C2425 C 0.21771 0.87037 0.24284
 C2426 C 0.20719 0.89574 0.24278
 C2427 C 0.18260 0.88500 0.27824
 C2428 C 0.19313 0.85971 0.27811
 H2429 H 0.15076 0.88434 0.22451
 H2430 H 0.16918 0.83881 0.22494
 H2431 H 0.23576 0.86591 0.23368
 H2432 H 0.21657 0.91088 0.23222
 H2433 H 0.17668 0.89426 0.29577
 H2434 H 0.19558 0.84836 0.29542
 C2435 C 0.68266 0.39757 0.75523
 C2436 C 0.66741 0.37820 0.73912
 C2437 C 0.67732 0.35416 0.73940
 C2438 C 0.70200 0.35142 0.75547
 C2439 C 0.71999 0.37185 0.74447
 C2440 C 0.70998 0.39593 0.74427
 C2441 C 0.68477 0.38520 0.78195
 C2442 C 0.69490 0.36116 0.78207
 H2443 H 0.65056 0.38313 0.72784
 H2444 H 0.66867 0.33881 0.72850
 H2445 H 0.73863 0.36757 0.73650
 H2446 H 0.72022 0.41163 0.73551
 H2447 H 0.67891 0.39469 0.79936
 H2448 H 0.69760 0.35009 0.79952
 C2449 C 0.68665 0.60184 0.74889
 C2450 C 0.66867 0.62281 0.73839
 C2451 C 0.67945 0.64642 0.73703
 C2452 C 0.70733 0.64718 0.74642
 C2453 C 0.70685 0.63577 0.77349
 C2454 C 0.69628 0.61208 0.77480
 C2455 C 0.71054 0.60320 0.73174
 C2456 C 0.72124 0.62691 0.73036
 H2457 H 0.64910 0.61929 0.73227
 H2458 H 0.66911 0.66301 0.72975
 H2459 H 0.71496 0.64517 0.79012
 H2460 H 0.69574 0.60126 0.79256
 H2461 H 0.71938 0.58689 0.72262
 H2462 H 0.73854 0.63053 0.71959
 C2463 C 0.18357 0.10113 0.24942
 C2464 C 0.16596 0.12112 0.23661
 C2465 C 0.17644 0.14483 0.23454
 C2466 C 0.20367 0.14666 0.24556
 C2467 C 0.20164 0.13683 0.27316
 C2468 C 0.19139 0.11304 0.27522
 C2469 C 0.20849 0.10193 0.23378
 C2470 C 0.21889 0.12571 0.23165
 H2471 H 0.14685 0.11689 0.22955
 H2472 H 0.16632 0.16078 0.22571
 H2473 H 0.20867 0.14728 0.28964
 H2474 H 0.19017 0.10321 0.29349
 H2475 H 0.21802 0.08522 0.22613
 H2476 H 0.23674 0.12900 0.22171
 C2477 C 0.31520 0.10236 0.75316
 C2478 C 0.29146 0.10441 0.77048
 C2479 C 0.28138 0.12847 0.77172
 C2480 C 0.29571 0.14839 0.75545
 C2481 C 0.32359 0.14667 0.76473
 C2482 C 0.33375 0.12273 0.76347
 C2483 C 0.30573 0.11309 0.72726
 C2484 C 0.29579 0.13711 0.72846
 H2485 H 0.28231 0.08845 0.77997
 H2486 H 0.26435 0.13263 0.78271
 H2487 H 0.33437 0.16287 0.77193
 H2488 H 0.35322 0.11853 0.76962
 H2489 H 0.30619 0.10244 0.70953
 H2490 H 0.28801 0.14692 0.71176
 C2491 C 0.81616 0.60320 0.25683
 C2492 C 0.83560 0.62427 0.25023
 C2493 C 0.82568 0.64830 0.24987
 C2494 C 0.79704 0.64945 0.25643
 C2495 C 0.78404 0.63127 0.23749
 C2496 C 0.79397 0.60719 0.23771
 C2497 C 0.80510 0.61171 0.28279
 C2498 C 0.79517 0.63588 0.28248
 H2499 H 0.85574 0.62062 0.24671
 H2500 H 0.83746 0.66493 0.24602
 H2501 H 0.76823 0.63684 0.22504
 H2502 H 0.78653 0.59219 0.22550
 H2503 H 0.80544 0.60052 0.30025
 H2504 H 0.78716 0.64471 0.29938
 C2505 C 0.89509 0.26071 0.18139
 C2506 C 0.87506 0.27847 0.16850
 C2507 C 0.85161 0.27789 0.17962
 C2508 C 0.85014 0.26000 0.20289
 C2509 C 0.85914 0.23383 0.19324
 C2510 C 0.88248 0.23423 0.18200
 C2511 C 0.89531 0.26956 0.20947
 C2512 C 0.87186 0.26907 0.22072
 H2513 H 0.87924 0.29145 0.15283
 H2514 H 0.83592 0.29004 0.17323
 H2515 H 0.84812 0.21636 0.19524
 H2516 H 0.89134 0.21711 0.17439
 H2517 H 0.91199 0.27697 0.21937
 H2518 H 0.86903 0.27552 0.24018
 C2519 C 0.39876 0.75419 0.68160
 C2520 C 0.39698 0.74492 0.70961
 C2521 C 0.37279 0.74540 0.71910
 C2522 C 0.35239 0.75500 0.69999
 C2523 C 0.36196 0.78124 0.69107
 C2524 C 0.38611 0.78083 0.68148
 C2525 C 0.37965 0.73695 0.66724
 C2526 C 0.35549 0.73749 0.67667
 H2527 H 0.41267 0.73720 0.72089
 H2528 H 0.36844 0.73861 0.73823
 H2529 H 0.35062 0.79861 0.69198
 H2530 H 0.39544 0.79797 0.67441
 H2531 H 0.38483 0.72487 0.65128
 H2532 H 0.34027 0.72597 0.66853
 C2533 C 0.39787 0.24317 0.81747
 C2534 C 0.38597 0.26994 0.81473
 C2535 C 0.36260 0.27026 0.80316
 C2536 C 0.35291 0.24373 0.79535
 C2537 C 0.37429 0.23268 0.77852
 C2538 C 0.39775 0.23227 0.79012
 C2539 C 0.37745 0.22703 0.83133
 C2540 C 0.35399 0.22756 0.81988
 H2541 H 0.39529 0.28729 0.82121
 H2542 H 0.35202 0.28788 0.79974
 H2543 H 0.37121 0.22502 0.75951
 H2544 H 0.41430 0.22382 0.78100
 H2545 H 0.38131 0.21493 0.84784
 H2546 H 0.33799 0.21643 0.82696
 C2547 C 0.89769 0.74311 0.31850
 C2548 C 0.88640 0.76866 0.31630
 C2549 C 0.86167 0.76901 0.30453
 C2550 C 0.85257 0.74376 0.29712
 C2551 C 0.87255 0.73337 0.28060
 C2552 C 0.89738 0.73282 0.29243
 C2553 C 0.87861 0.72754 0.33196
 C2554 C 0.85376 0.72815 0.32029
 H2555 H 0.89588 0.78606 0.32250
 H2556 H 0.85108 0.78664 0.30112
 H2557 H 0.86895 0.72428 0.26233
 H2558 H 0.91294 0.72214 0.28391
 H2559 H 0.88305 0.71457 0.34770
 H2560 H 0.83815 0.71623 0.32694
 C2561 C 0.10064 0.75174 0.31543
 C2562 C 0.12134 0.76357 0.33270
 C2563 C 0.14491 0.76482 0.32191
 C2564 C 0.14592 0.75400 0.29475
 C2565 C 0.13527 0.72677 0.29701
 C2566 C 0.11162 0.72556 0.30758
 C2567 C 0.10149 0.76764 0.29047
 C2568 C 0.12516 0.76892 0.27977
 H2569 H 0.11766 0.77064 0.35179
 H2570 H 0.16131 0.77295 0.33178
 H2571 H 0.14515 0.70991 0.29005
 H2572 H 0.10132 0.70764 0.30928
 H2573 H 0.08489 0.77596 0.28100
 H2574 H 0.12844 0.77884 0.26182
 C2575 C 0.60374 0.25840 0.81730
 C2576 C 0.62518 0.25213 0.83676
 C2577 C 0.64911 0.25208 0.82676
 C2578 C 0.64976 0.25857 0.79807
 C2579 C 0.63155 0.23935 0.78549
 C2580 C 0.60762 0.23927 0.79546
 C2581 C 0.61185 0.28447 0.80582
 C2582 C 0.63590 0.28446 0.79582
 H2583 H 0.62185 0.24864 0.85694
 H2584 H 0.66600 0.24856 0.83850
 H2585 H 0.63701 0.22690 0.76990
 H2586 H 0.59264 0.22681 0.78829
 H2587 H 0.60054 0.30184 0.80613
 H2588 H 0.64451 0.30151 0.78765
 C2589 C 0.60460 0.74621 0.68533
 C2590 C 0.62503 0.73601 0.66695
 C2591 C 0.64901 0.73461 0.67720
 C2592 C 0.65067 0.74367 0.70500
 C2593 C 0.63919 0.77072 0.70470
 C2594 C 0.61514 0.77206 0.69468
 C2595 C 0.60677 0.72874 0.70916
 C2596 C 0.63084 0.72734 0.71933
 H2597 H 0.62087 0.73009 0.64751
 H2598 H 0.66528 0.72751 0.66655
 H2599 H 0.64884 0.78731 0.71255
 H2600 H 0.60429 0.78979 0.69435
 H2601 H 0.59077 0.71936 0.71831
 H2602 H 0.63505 0.71625 0.73647
 C2603 C 0.10209 0.24366 0.17894
 C2604 C 0.11059 0.21704 0.18898
 C2605 C 0.13488 0.21649 0.19870
 C2606 C 0.14865 0.24239 0.19760
 C2607 C 0.14722 0.25032 0.16927
 C2608 C 0.12300 0.25082 0.15954
 C2609 C 0.10652 0.26170 0.20161
 C2610 C 0.13073 0.26104 0.21130
 H2611 H 0.09946 0.19968 0.18754
 H2612 H 0.14381 0.19900 0.20568
 H2613 H 0.16378 0.25444 0.15756
 H2614 H 0.11911 0.25531 0.13960
 H2615 H 0.09174 0.27390 0.20950
 H2616 H 0.13659 0.27276 0.22737
 C2617 C -0.06634 0.99416 0.85601
 C2618 C -0.08316 0.98098 0.87638
 C2619 C -0.07269 0.98063 0.90030
 C2620 C -0.04621 0.99312 0.90186
 C2621 C -0.03021 0.97890 0.88180
 C2622 C -0.04074 0.97926 0.85791
 C2623 C -0.06040 1.02069 0.86701
 C2624 C -0.04992 1.02014 0.89083
 H2625 H -0.10133 0.97183 0.87223
 H2626 H -0.08202 0.97149 0.91641
 H2627 H -0.01296 0.96807 0.88619
 H2628 H -0.03245 0.96806 0.84268
 H2629 H -0.06395 1.03851 0.85679
 H2630 H -0.04456 1.03745 0.90088
 C2631 C 0.43118 0.49477 0.35691
 C2632 C 0.41527 0.47962 0.37660
 C2633 C 0.42568 0.47894 0.40055
 C2634 C 0.45123 0.49314 0.40281
 C2635 C 0.46820 0.48103 0.38214
 C2636 C 0.45772 0.48176 0.35825
 C2637 C 0.43518 0.52114 0.36907
 C2638 C 0.44565 0.52030 0.39292
 H2639 H 0.39767 0.46964 0.37195
 H2640 H 0.41688 0.46862 0.41626
 H2641 H 0.48632 0.47150 0.38602
 H2642 H 0.46694 0.47221 0.34246
 H2643 H 0.43034 0.53905 0.35956
 H2644 H 0.44971 0.53749 0.40375
 C2645 C 0.56772 0.00620 0.34978
 C2646 C 0.53983 -0.00348 0.35151
 C2647 C 0.53001 -0.00269 0.37555
 C2648 C 0.54869 0.00752 0.39587
 C2649 C 0.57246 -0.00976 0.39346
 C2650 C 0.58216 -0.01065 0.36951
 C2651 C 0.56701 0.03306 0.36176
 C2652 C 0.55708 0.03372 0.38575
 H2653 H 0.52906 -0.01207 0.33606
 H2654 H 0.51106 -0.00990 0.37990
 H2655 H 0.58053 -0.02115 0.40897
 H2656 H 0.59826 -0.02292 0.36488
 H2657 H 0.57361 0.05021 0.35206
 H2658 H 0.55530 0.05132 0.39651
 C2659 C 0.06945 0.50569 0.85359
 C2660 C 0.08481 0.49101 0.87428
 C2661 C 0.07488 0.49270 0.89813
 C2662 C 0.05004 0.50857 0.89941
 C2663 C 0.05693 0.53462 0.88777
 C2664 C 0.06710 0.53311 0.86390
 C2665 C 0.04226 0.49445 0.85578
 C2666 C 0.03221 0.49605 0.87965
 H2667 H 0.10165 0.47950 0.87043
 H2668 H 0.08360 0.48287 0.91434
 H2669 H 0.05411 0.55269 0.89748
 H2670 H 0.07288 0.54996 0.85321
 H2671 H 0.03223 0.48450 0.84064
 H2672 H 0.01366 0.48804 0.88430
 C2673 C 0.06292 0.49339 0.64861
 C2674 C 0.05304 0.51916 0.63794
 C2675 C 0.04247 0.51770 0.61418
 C2676 C 0.04222 0.49060 0.60308
 C2677 C 0.07019 0.48159 0.60427
 C2678 C 0.08097 0.48312 0.62795
 C2679 C 0.03919 0.47585 0.64719
 C2680 C 0.02848 0.47433 0.62339
 H2681 H 0.05357 0.53697 0.64848
 H2682 H 0.03427 0.53426 0.60448
 H2683 H 0.08057 0.47437 0.58791
 H2684 H 0.10058 0.47720 0.63176
 H2685 H 0.03048 0.46648 0.66346
 H2686 H 0.01135 0.46323 0.61966
 C2687 C 0.56440 0.99170 0.14574
 C2688 C 0.55392 1.01731 0.13533
 C2689 C 0.54371 1.01593 0.11144
 C2690 C 0.54437 0.98902 0.09994
 C2691 C 0.57257 0.98078 0.10132
 C2692 C 0.58301 0.98225 0.12516
 C2693 C 0.54124 0.97345 0.14376
 C2694 C 0.53087 0.97202 0.11979
 H2695 H 0.55391 1.03499 0.14612
 H2696 H 0.53522 1.03241 0.10186
 H2697 H 0.58334 0.97407 0.08499
 H2698 H 0.60271 0.97678 0.12913
 H2699 H 0.53268 0.96340 0.15969
 H2700 H 0.51422 0.96035 0.11562
 C2701 C 0.43450 0.49954 0.15098
 C2702 C 0.41548 0.49112 0.13015
 C2703 C 0.42510 0.49145 0.10611
 C2704 C 0.45316 0.50021 0.10474
 C2705 C 0.45348 0.52639 0.11785
 C2706 C 0.44398 0.52603 0.14202
 C2707 C 0.45804 0.48201 0.14747
 C2708 C 0.46765 0.48235 0.12331
 H2709 H 0.39594 0.48532 0.13404
 H2710 H 0.41361 0.48604 0.08966
 H2711 H 0.46108 0.54362 0.10912
 H2712 H 0.44380 0.54298 0.15389
 H2713 H 0.46747 0.47137 0.16270
 H2714 H 0.48463 0.47160 0.11813
 C2715 C -0.06362 0.00162 0.65262
 C2716 C -0.03995 -0.01586 0.64950
 C2717 C -0.03050 -0.01625 0.62528
 C2718 C -0.04518 0.00097 0.60628
 C2719 C -0.07319 -0.00783 0.60806
 C2720 C -0.08271 -0.00750 0.63213
 C2721 C -0.05416 0.02790 0.64281
 C2722 C -0.04486 0.02754 0.61858
 H2723 H -0.03016 -0.02570 0.66505
 H2724 H -0.01338 -0.02692 0.62038
 H2725 H -0.08475 -0.01377 0.59184
 H2726 H -0.10222 -0.01325 0.63624
 H2727 H -0.05388 0.04517 0.65423
 H2728 H -0.03712 0.04446 0.60938
 C2729 C -0.14818 0.93516 0.99649
 C2730 C -0.12707 0.91680 0.98741
 C2731 C -0.10323 0.92724 0.98690
 C2732 C -0.10239 0.95518 0.99564
 C2733 C -0.12198 0.96913 0.97830
 C2734 C -0.14588 0.95880 0.97882
 C2735 C -0.13862 0.94490 1.02261
 C2736 C -0.11473 0.95511 1.02216
 H2737 H -0.13068 0.89724 0.98157
 H2738 H -0.08655 0.91662 0.98064
 H2739 H -0.11775 0.98616 0.96716
 H2740 H -0.16168 0.96780 0.96865
 H2741 H -0.14996 0.94448 1.03990
 H2742 H -0.10570 0.96312 1.03906
 C2743 C 0.35215 0.42918 0.50278
 C2744 C 0.37391 0.41164 0.49338
 C2745 C 0.39717 0.42319 0.49212
 C2746 C 0.39698 0.45116 0.50085
 C2747 C 0.37642 0.46423 0.48405
 C2748 C 0.35312 0.45275 0.48509
 C2749 C 0.36208 0.43883 0.52886
 C2750 C 0.38541 0.45034 0.52774
 H2751 H 0.37135 0.39164 0.48856
 H2752 H 0.41425 0.41314 0.48596
 H2753 H 0.37980 0.48097 0.47219
 H2754 H 0.33674 0.45983 0.47425
 H2755 H 0.35266 0.43578 0.54699
 H2756 H 0.39517 0.45743 0.54465
 C2757 C 0.35102 0.56268 0.00481
 C2758 C 0.35108 0.53556 0.01677
 C2759 C 0.37474 0.52449 0.01808
 C2760 C 0.39630 0.54145 0.00748
 C2761 C 0.38758 0.54829 -0.01980
 C2762 C 0.36406 0.55936 -0.02118
 C2763 C 0.37057 0.57744 0.02127
 C2764 C 0.39418 0.56644 0.02251
 H2765 H 0.33458 0.52610 0.02485
 H2766 H 0.37781 0.50579 0.02671
 H2767 H 0.39887 0.54448 -0.03670
 H2768 H 0.35531 0.56496 -0.03926
 H2769 H 0.36604 0.59480 0.03160
 H2770 H 0.40975 0.57447 0.03372
 C2771 C -0.14824 0.06141 0.50722
 C2772 C -0.14814 0.03452 0.51971
 C2773 C -0.12452 0.02333 0.52082
 C2774 C -0.10308 0.03995 0.50950
 C2775 C -0.11224 0.04629 0.48224
 C2776 C -0.13570 0.05747 0.48107
 C2777 C -0.12832 0.07637 0.52303
 C2778 C -0.10477 0.06525 0.52407
 H2779 H -0.16458 0.02525 0.52811
 H2780 H -0.12140 0.00473 0.52966
 H2781 H -0.10130 0.04204 0.46522
 H2782 H -0.14476 0.06273 0.46303
 H2783 H -0.13255 0.09398 0.53307
 H2784 H -0.08896 0.07340 0.53484
 C2785 C 0.64728 0.07135 0.49717
 C2786 C 0.62675 0.08921 0.48531
 C2787 C 0.60327 0.07830 0.48263
 C2788 C 0.60206 0.05063 0.49241
 C2789 C 0.62324 0.03648 0.47785
 C2790 C 0.64677 0.04731 0.48036
 C2791 C 0.63538 0.06276 0.52272
 C2792 C 0.61189 0.05189 0.52012
 H2793 H 0.63027 0.10895 0.47986
 H2794 H 0.58699 0.08860 0.47471
 H2795 H 0.62009 0.01953 0.46639
 H2796 H 0.66359 0.03948 0.47117
 H2797 H 0.64353 0.06613 0.54147
 H2798 H 0.60083 0.04562 0.53648
 C2799 C 0.14783 0.57028 0.99479
 C2800 C 0.14473 0.54723 1.01064
 C2801 C 0.11922 0.53732 1.01035
 C2802 C 0.10158 0.55188 0.99403
 C2803 C 0.10296 0.57819 1.00326
 C2804 C 0.12835 0.58823 1.00368
 C2805 C 0.13908 0.56224 0.96931
 C2806 C 0.11351 0.55240 0.96890
 H2807 H 0.16037 0.53622 1.01896
 H2808 H 0.11435 0.51934 1.01962
 H2809 H 0.08657 0.58955 1.00898
 H2810 H 0.13243 0.60759 1.00995
 H2811 H 0.15113 0.56166 0.95250
 H2812 H 0.10467 0.54479 0.95170
 C2813 C 0.14576 0.43429 0.50265
 C2814 C 0.12697 0.41831 0.51876
 C2815 C 0.10292 0.42828 0.51999
 C2816 C 0.09961 0.45352 0.50524
 C2817 C 0.12058 0.47109 0.51616
 C2818 C 0.14466 0.46109 0.51488
 C2819 C 0.13233 0.43770 0.47659
 C2820 C 0.10834 0.44769 0.47794
 H2821 H 0.13231 0.40083 0.52880
 H2822 H 0.08779 0.41928 0.53092
 H2823 H 0.11687 0.48952 0.52485
 H2824 H 0.16082 0.47124 0.52291
 H2825 H 0.14113 0.43291 0.45851
 H2826 H 0.09670 0.45138 0.46103
 C2827 C 0.64531 0.92741 0.00642
 C2828 C 0.62532 0.91151 0.02123
 C2829 C 0.60148 0.92217 0.02159
 C2830 C 0.59967 0.94791 0.00747
 C2831 C 0.62062 0.96446 0.01999
 C2832 C 0.64438 0.95371 0.01956
 C2833 C 0.63325 0.93190 -0.02007
 C2834 C 0.60953 0.94259 -0.01954
 H2835 H 0.62971 0.89402 0.03167
 H2836 H 0.58567 0.91359 0.03187
 H2837 H 0.61701 0.98249 0.02951
 H2838 H 0.66053 0.96255 0.02916
 H2839 H 0.64268 0.92714 -0.03784
 H2840 H 0.59876 0.94696 -0.03686
 C2841 C -0.00487 0.85532 0.93753
 C2842 C 0.02129 0.86750 0.94316
 C2843 C 0.01994 0.89096 0.95403
 C2844 C -0.00745 0.90054 0.95844
 C2845 C -0.02069 0.89908 0.93222
 C2846 C -0.01951 0.87551 0.92137
 C2847 C -0.01899 0.85572 0.96347
 C2848 C -0.02016 0.87932 0.97438
 H2849 H 0.03947 0.85827 0.93919
 H2850 H 0.03694 0.90168 0.95927
 H2851 H -0.03080 0.91501 0.92331
 H2852 H -0.02888 0.87145 0.90326
 H2853 H -0.02903 0.83968 0.97189
 H2854 H -0.03047 0.88269 0.99197
 C2855 C 0.49616 0.35286 0.43875
 C2856 C 0.52218 0.36636 0.44074
 C2857 C 0.52122 0.38968 0.45199
 C2858 C 0.49428 0.39774 0.46032
 C2859 C 0.47759 0.39567 0.43619
 C2860 C 0.47843 0.37227 0.42503
 C2861 C 0.48605 0.35230 0.46645
 C2862 C 0.48515 0.37576 0.47769
 H2863 H 0.54000 0.35805 0.43413
 H2864 H 0.53819 0.40125 0.45495
 H2865 H 0.46561 0.41111 0.42887
 H2866 H 0.46701 0.36780 0.40823
 H2867 H 0.47890 0.33552 0.47625
 H2868 H 0.47779 0.37840 0.49684
 C2869 C -0.00024 0.34876 0.56704
 C2870 C -0.02531 0.35959 0.55988
 C2871 C -0.02374 0.38431 0.54809
 C2872 C 0.00236 0.39394 0.54592
 C2873 C 0.01284 0.39305 0.57184
 C2874 C 0.01115 0.36835 0.58359
 C2875 C 0.01480 0.34943 0.54354
 C2876 C 0.01628 0.37426 0.53191
 H2877 H -0.04366 0.35243 0.56619
 H2878 H -0.04070 0.39562 0.54362
 H2879 H 0.02038 0.40957 0.58186
 H2880 H 0.01669 0.36517 0.60341
 H2881 H 0.02400 0.33277 0.53529
 H2882 H 0.02681 0.37767 0.51442
 C2883 C 0.49901 0.84982 0.06695
 C2884 C 0.47323 0.86135 0.05787
 C2885 C 0.47538 0.88478 0.04662
 C2886 C 0.50290 0.89493 0.04543
 C2887 C 0.51254 0.89404 0.07319
 C2888 C 0.51034 0.87063 0.08448
 C2889 C 0.51599 0.85035 0.04304
 C2890 C 0.51805 0.87382 0.03180
 H2891 H 0.45461 0.85288 0.06081
 H2892 H 0.45882 0.89547 0.03977
 H2893 H 0.52016 0.91049 0.08324
 H2894 H 0.51591 0.86728 0.10425
 H2895 H 0.52559 0.83357 0.03555
 H2896 H 0.52953 0.87696 0.01487
 C2897 C 0.49439 0.64421 0.06854
 C2898 C 0.52081 0.63192 0.06452
 C2899 C 0.52000 0.60813 0.05420
 C2900 C 0.49282 0.59846 0.04870
 C2901 C 0.47874 0.60058 0.07421
 C2902 C 0.47944 0.62443 0.08452
 C2903 C 0.48128 0.64320 0.04200
 C2904 C 0.48057 0.61937 0.03167
 H2905 H 0.53874 0.64130 0.06920
 H2906 H 0.53721 0.59725 0.05012
 H2907 H 0.46855 0.58485 0.08310
 H2908 H 0.46972 0.62897 0.10219
 H2909 H 0.47188 0.65912 0.03247
 H2910 H 0.47113 0.61574 0.01351
 C2911 C -0.00483 0.14371 0.56783
 C2912 C 0.02157 0.13131 0.56397
 C2913 C 0.02071 0.10747 0.55381
 C2914 C -0.00648 0.09783 0.54830
 C2915 C -0.02064 0.10019 0.57376
 C2916 C -0.01989 0.12411 0.58389
 C2917 C -0.01785 0.14256 0.54124
 C2918 C -0.01861 0.11864 0.53107
 H2919 H 0.03951 0.14068 0.56862
 H2920 H 0.03790 0.09652 0.54983
 H2921 H -0.03096 0.08458 0.58269
 H2922 H -0.02969 0.12881 0.60148
 H2923 H -0.02711 0.15846 0.53154
 H2924 H -0.02795 0.11489 0.51288
 C2925 C 0.50387 0.14958 0.43121
 C2926 C 0.53083 0.14115 0.44023
 C2927 C 0.53195 0.11685 0.44973
 C2928 C 0.50603 0.10314 0.44985
 C2929 C 0.48819 0.12111 0.46458
 C2930 C 0.48711 0.14537 0.45501
 C2931 C 0.49538 0.12880 0.41235
 C2932 C 0.49648 0.10462 0.42199
 H2933 H 0.54754 0.15343 0.43979
 H2934 H 0.54955 0.10841 0.45698
 H2935 H 0.47805 0.11549 0.48175
 H2936 H 0.47653 0.16026 0.46468
 H2937 H 0.48904 0.13281 0.39292
 H2938 H 0.49119 0.08814 0.41062
 C2939 C 0.00751 0.65217 0.93249
 C2940 C 0.03400 0.64242 0.94185
 C2941 C 0.03389 0.61800 0.95107
 C2942 C 0.00735 0.60549 0.95075
 C2943 C -0.00981 0.62414 0.96544
 C2944 C -0.00962 0.64850 0.95613
 C2945 C -0.00173 0.63188 0.91336
 C2946 C -0.00181 0.60759 0.92281
 H2947 H 0.05123 0.65398 0.94220
 H2948 H 0.05098 0.60877 0.95871
 H2949 H -0.02029 0.61888 0.98252
 H2950 H -0.01939 0.66382 0.96600
 H2951 H -0.00767 0.63627 0.89388
 H2952 H -0.00773 0.59142 0.91130
 C2953 C 0.24839 0.68760 0.89656
 C2954 C 0.27455 0.68924 0.88343
 C2955 C 0.27373 0.69981 0.85966
 C2956 C 0.24679 0.70787 0.85083
 C2957 C 0.23037 0.68377 0.85361
 C2958 C 0.23106 0.67328 0.87745
 C2959 C 0.23792 0.71529 0.89580
 C2960 C 0.23718 0.72585 0.87191
 H2961 H 0.29234 0.68288 0.89229
 H2962 H 0.29081 0.70245 0.84826
 H2963 H 0.21868 0.67598 0.83829
 H2964 H 0.21978 0.65659 0.88243
 H2965 H 0.23040 0.72556 0.91201
 H2966 H 0.22959 0.74491 0.86838
 C2967 C 0.74704 0.18462 0.39680
 C2968 C 0.77309 0.18980 0.38441
 C2969 C 0.77153 0.20027 0.36062
 C2970 C 0.74402 0.20470 0.35105
 C2971 C 0.73094 0.17857 0.35332
 C2972 C 0.73237 0.16814 0.37720
 C2973 C 0.73290 0.21060 0.39573
 C2974 C 0.73144 0.22109 0.37188
 H2975 H 0.79131 0.18577 0.39374
 H2976 H 0.78841 0.20515 0.34966
 H2977 H 0.72086 0.16937 0.33768
 H2978 H 0.72331 0.15006 0.38187
 H2979 H 0.72320 0.21946 0.41161
 H2980 H 0.72115 0.23880 0.36815
 C2981 C 0.24816 0.31752 0.39316
 C2982 C 0.27514 0.31852 0.38159
 C2983 C 0.27686 0.30814 0.35785
 C2984 C 0.25144 0.29770 0.34756
 C2985 C 0.24224 0.27879 0.36816
 C2986 C 0.24047 0.28908 0.39194
 C2987 C 0.23063 0.33038 0.37299
 C2988 C 0.23250 0.32024 0.34924
 H2989 H 0.29158 0.32667 0.39137
 H2990 H 0.29468 0.30748 0.34733
 H2991 H 0.23648 0.25928 0.36418
 H2992 H 0.23265 0.27824 0.40777
 H2993 H 0.21694 0.34540 0.37719
 H2994 H 0.22063 0.32700 0.33346
 C2995 C 0.76077 0.81459 0.89743
 C2996 C 0.77994 0.79214 0.89515
 C2997 C 0.78097 0.78182 0.87131
 C2998 C 0.76269 0.79464 0.85184
 C2999 C 0.73624 0.79301 0.86425
 C3000 C 0.73526 0.80317 0.88803
 C3001 C 0.76868 0.83349 0.87626
 C3002 C 0.76975 0.82310 0.85252
 H3003 H 0.79099 0.78402 0.91081
 H3004 H 0.79327 0.76568 0.86696
 H3005 H 0.71979 0.78396 0.85533
 H3006 H 0.71797 0.80259 0.89940
 H3007 H 0.77343 0.85337 0.87978
 H3008 H 0.77541 0.83407 0.83582
 C3009 C 0.74647 0.81692 0.10286
 C3010 C 0.71944 0.81680 0.11444
 C3011 C 0.71842 0.80736 0.13874
 C3012 C 0.74449 0.79889 0.14948
 C3013 C 0.75486 0.77972 0.12991
 C3014 C 0.75594 0.78904 0.10559
 C3015 C 0.76305 0.83163 0.12227
 C3016 C 0.76187 0.82243 0.14654
 H3017 H 0.70249 0.82348 0.10426
 H3018 H 0.70068 0.80609 0.14934
 H3019 H 0.76172 0.76070 0.13492
 H3020 H 0.76423 0.77778 0.09044
 H3021 H 0.77522 0.84766 0.11724
 H3022 H 0.77291 0.83086 0.16197
 C3023 C 0.24341 0.31384 0.59984
 C3024 C 0.21679 0.30504 0.60897
 C3025 C 0.21646 0.29619 0.63353
 C3026 C 0.24276 0.29646 0.64679
 C3027 C 0.26026 0.28123 0.62892
 C3028 C 0.26056 0.29015 0.60441
 C3029 C 0.25226 0.33327 0.61996
 C3030 C 0.25194 0.32430 0.64437
 H3031 H 0.19977 0.30507 0.59695
 H3032 H 0.19920 0.28901 0.64241
 H3033 H 0.27074 0.26420 0.63482
 H3034 H 0.27084 0.28009 0.58961
 H3035 H 0.25824 0.35261 0.61532
 H3036 H 0.25751 0.33616 0.66043
 C3037 C 0.75411 0.18482 0.60193
 C3038 C 0.78077 0.19339 0.61145
 C3039 C 0.78095 0.20290 0.63561
 C3040 C 0.75448 0.20354 0.64812
 C3041 C 0.73752 0.21859 0.62916
 C3042 C 0.73737 0.20895 0.60502
 C3043 C 0.74462 0.16615 0.62255
 C3044 C 0.74478 0.17583 0.64660
 H3045 H 0.79794 0.19282 0.59992
 H3046 H 0.79824 0.20997 0.64469
 H3047 H 0.72725 0.23594 0.63408
 H3048 H 0.72742 0.21867 0.58950
 H3049 H 0.73828 0.14682 0.61853
 H3050 H 0.73866 0.16460 0.66295
 C3051 C 0.25368 0.68440 0.10080
 C3052 C 0.28043 0.69271 0.11032
 C3053 C 0.28074 0.70202 0.13458
 C3054 C 0.25431 0.70268 0.14715
 C3055 C 0.23738 0.71799 0.12838
 C3056 C 0.23710 0.70860 0.10415
 C3057 C 0.24414 0.66559 0.12126
 C3058 C 0.24445 0.67503 0.14538
 H3059 H 0.29757 0.69203 0.09876
 H3060 H 0.29809 0.70884 0.14372
 H3061 H 0.22727 0.73538 0.13348
 H3062 H 0.22723 0.71859 0.08876
 H3063 H 0.23771 0.64633 0.11707
 H3064 H 0.23838 0.66364 0.16164
 C3065 C 0.18355 0.60388 0.75623
 C3066 C 0.18629 0.61613 0.72966
 C3067 C 0.19755 0.63951 0.72980
 C3068 C 0.20508 0.64891 0.75655
 C3069 C 0.18041 0.64755 0.77219
 C3070 C 0.16926 0.62405 0.77223
 C3071 C 0.21088 0.60396 0.76769
 C3072 C 0.22215 0.62746 0.76774
 H3073 H 0.18008 0.60701 0.71210
 H3074 H 0.20095 0.65030 0.71236
 H3075 H 0.17291 0.66344 0.78314
 H3076 H 0.15244 0.61999 0.78358
 H3077 H 0.22016 0.58750 0.77645
 H3078 H 0.24101 0.63052 0.77597
 C3079 C 0.68173 0.10375 0.25338
 C3080 C 0.68440 0.11639 0.22692
 C3081 C 0.69544 0.13989 0.22735
 C3082 C 0.70290 0.14901 0.25419
 C3083 C 0.67827 0.14727 0.26984
 C3084 C 0.66733 0.12368 0.26968
 C3085 C 0.70908 0.10401 0.26492
 C3086 C 0.72013 0.12757 0.26516
 H3087 H 0.67827 0.10747 0.20922
 H3088 H 0.69871 0.15094 0.21005
 H3089 H 0.67068 0.16296 0.28102
 H3090 H 0.65062 0.11939 0.28112
 H3091 H 0.71842 0.08774 0.27398
 H3092 H 0.73886 0.13072 0.27368
 C3093 C 0.81575 0.10215 0.74756
 C3094 C 0.81250 0.11490 0.77374
 C3095 C 0.80196 0.13868 0.77264
 C3096 C 0.79550 0.14789 0.74544
 C3097 C 0.82059 0.14547 0.73061
 C3098 C 0.83109 0.12162 0.73158
 C3099 C 0.78874 0.10297 0.73535
 C3100 C 0.77820 0.12681 0.73433
 H3101 H 0.81782 0.10580 0.79173
 H3102 H 0.79833 0.14986 0.78966
 H3103 H 0.82907 0.16104 0.71980
 H3104 H 0.84850 0.11688 0.72143
 H3105 H 0.77898 0.08687 0.72683
 H3106 H 0.75964 0.13033 0.72552
 C3107 C 0.31510 0.60206 0.24444
 C3108 C 0.31090 0.61453 0.27057
 C3109 C 0.30020 0.63822 0.26931
 C3110 C 0.29457 0.64765 0.24200
 C3111 C 0.32017 0.64558 0.22800
 C3112 C 0.33083 0.62177 0.22911
 C3113 C 0.28855 0.60279 0.23126
 C3114 C 0.27783 0.62657 0.23011
 H3115 H 0.31576 0.60535 0.28864
 H3116 H 0.29596 0.64922 0.28630
 H3117 H 0.32883 0.66128 0.21753
 H3118 H 0.34853 0.61723 0.21937
 H3119 H 0.27948 0.58670 0.22197
 H3120 H 0.25969 0.63008 0.22044
 C3121 C 0.31471 0.39666 0.25303
 C3122 C 0.30506 0.38750 0.27936
 C3123 C 0.29548 0.36328 0.27945
 C3124 C 0.29592 0.35037 0.25319
 C3125 C 0.28160 0.36906 0.23533
 C3126 C 0.29125 0.39324 0.23529
 C3127 C 0.33374 0.37592 0.24470
 C3128 C 0.32404 0.35184 0.24476
 H3129 H 0.30514 0.39926 0.29638
 H3130 H 0.28777 0.35437 0.29653
 H3131 H 0.26463 0.36395 0.22441
 H3132 H 0.28185 0.40857 0.22477
 H3133 H 0.35334 0.37989 0.23923
 H3134 H 0.33554 0.33541 0.23947
 C3135 C 0.81997 0.89613 0.75256
 C3136 C 0.83835 0.87520 0.76276
 C3137 C 0.82766 0.85157 0.76469
 C3138 C 0.79960 0.85063 0.75586
 C3139 C 0.78593 0.87095 0.77195
 C3140 C 0.79658 0.89464 0.77021
 C3141 C 0.81041 0.88541 0.72679
 C3142 C 0.79975 0.86177 0.72863
 H3143 H 0.85826 0.87860 0.76774
 H3144 H 0.83833 0.83500 0.77153
 H3145 H 0.76942 0.86713 0.78384
 H3146 H 0.78901 0.91095 0.78049
 H3147 H 0.81279 0.89454 0.70834
 H3148 H 0.79275 0.85153 0.71200
 C3149 C 0.68544 0.89989 0.24514
 C3150 C 0.66727 0.87929 0.23464
 C3151 C 0.67769 0.85542 0.23371
 C3152 C 0.70543 0.85403 0.24348
 C3153 C 0.71986 0.87401 0.22738
 C3154 C 0.70954 0.89796 0.22833
 C3155 C 0.69454 0.88942 0.27128
 C3156 C 0.70474 0.86549 0.27040
 H3157 H 0.64784 0.88325 0.22823
 H3158 H 0.66719 0.83906 0.22651
 H3159 H 0.73721 0.87000 0.21682
 H3160 H 0.71878 0.91405 0.21912
 H3161 H 0.69389 0.90023 0.28891
 H3162 H 0.71244 0.85591 0.28727
 C3163 C 0.18623 0.39951 0.74308
 C3164 C 0.16759 0.37885 0.73359
 C3165 C 0.17797 0.35499 0.73225
 C3166 C 0.20615 0.35365 0.74066
 C3167 C 0.21976 0.37352 0.72375
 C3168 C 0.20946 0.39749 0.72506
 C3169 C 0.19662 0.38918 0.76878
 C3170 C 0.20677 0.36526 0.76753
 H3171 H 0.14789 0.38277 0.72805
 H3172 H 0.16714 0.33861 0.72557
 H3173 H 0.23651 0.36938 0.71232
 H3174 H 0.21818 0.41349 0.71521
 H3175 H 0.19674 0.40006 0.78639
 H3176 H 0.21526 0.35577 0.78407
 C3177 C 0.10444 0.75068 0.81432
 C3178 C 0.11730 0.77668 0.80970
 C3179 C 0.14073 0.77511 0.79874
 C3180 C 0.14952 0.74765 0.79330
 C3181 C 0.14774 0.73356 0.81902
 C3182 C 0.12423 0.73500 0.82993
 C3183 C 0.10434 0.73765 0.78788
 C3184 C 0.12787 0.73617 0.77692
 H3185 H 0.10851 0.79488 0.81441
 H3186 H 0.15192 0.79196 0.79413
 H3187 H 0.16345 0.72282 0.82762
 H3188 H 0.11993 0.72533 0.84780
 H3189 H 0.08786 0.72890 0.77887
 H3190 H 0.13080 0.72677 0.75873
 C3191 C 0.60074 0.24944 0.31308
 C3192 C 0.60089 0.23862 0.28565
 C3193 C 0.62466 0.23729 0.27513
 C3194 C 0.64625 0.24673 0.29289
 C3195 C 0.63812 0.27390 0.30034
 C3196 C 0.61447 0.27530 0.31087
 C3197 C 0.61968 0.23197 0.32779
 C3198 C 0.64342 0.23070 0.31734
 H3199 H 0.58435 0.23127 0.27555
 H3200 H 0.62776 0.22938 0.25628
 H3201 H 0.64989 0.29072 0.29735
 H3202 H 0.60610 0.29332 0.31682
 H3203 H 0.61466 0.22104 0.34472
 H3204 H 0.65860 0.21884 0.32539
 C3205 C 0.60174 0.75696 0.18617
 C3206 C 0.61394 0.73088 0.19251
 C3207 C 0.63790 0.73231 0.20262
 C3208 C 0.64784 0.75972 0.20569
 C3209 C 0.64537 0.77189 0.17904
 C3210 C 0.62134 0.77054 0.16889
 C3211 C 0.60324 0.77193 0.21153
 C3212 C 0.62731 0.77329 0.22170
 H3213 H 0.60435 0.71273 0.18957
 H3214 H 0.64870 0.71539 0.20826
 H3215 H 0.66104 0.78122 0.16921
 H3216 H 0.61656 0.77885 0.15039
 H3217 H 0.58742 0.78171 0.22049
 H3218 H 0.63136 0.78384 0.23906
 C3219 C 0.10194 0.25596 0.68456
 C3220 C 0.12158 0.26989 0.66752
 C3221 C 0.14558 0.27112 0.67773
 C3222 C 0.14805 0.25863 0.70421
 C3223 C 0.12748 0.27199 0.72033
 C3224 C 0.10342 0.27074 0.71011
 C3225 C 0.11425 0.22984 0.69066
 C3226 C 0.13818 0.23125 0.70083
 H3227 H 0.11682 0.27873 0.64924
 H3228 H 0.16115 0.28089 0.66820
 H3229 H 0.13154 0.28262 0.73764
 H3230 H 0.08779 0.28096 0.71891
 H3231 H 0.10475 0.21166 0.68757
 H3232 H 0.14900 0.21430 0.70634
 C3233 C 0.89692 0.24897 0.68248
 C3234 C 0.89633 0.23360 0.70764
 C3235 C 0.87277 0.23205 0.71849
 C3236 C 0.85161 0.24604 0.70322
 C3237 C 0.86150 0.27350 0.70007
 C3238 C 0.88504 0.27514 0.68920
 C3239 C 0.87638 0.23634 0.66541
 C3240 C 0.85289 0.23462 0.67632
 H3241 H 0.91314 0.22472 0.71625
 H3242 H 0.86961 0.22172 0.73623
 H3243 H 0.85051 0.29034 0.70522
 H3244 H 0.89333 0.29358 0.68479
 H3245 H 0.87993 0.22960 0.64618
 H3246 H 0.83661 0.22623 0.66653
 C3247 C 0.39517 0.74722 0.18345
 C3248 C 0.39407 0.73018 0.20752
 C3249 C 0.37034 0.72817 0.21796
 C3250 C 0.34956 0.74342 0.20343
 C3251 C 0.35985 0.77089 0.20228
 C3252 C 0.38353 0.77299 0.19184
 C3253 C 0.37469 0.73602 0.16533
 C3254 C 0.35103 0.73387 0.17582
 H3255 H 0.41066 0.72051 0.21570
 H3256 H 0.36680 0.71666 0.23489
 H3257 H 0.34908 0.78746 0.20860
 H3258 H 0.39214 0.79158 0.18905
 H3259 H 0.37843 0.73049 0.14574
 H3260 H 0.33479 0.72634 0.16530
 C3261 C 0.39595 0.25669 0.31635
 C3262 C 0.38670 0.28334 0.30721
 C3263 C 0.36241 0.28364 0.29749
 C3264 C 0.34954 0.25729 0.29736
 C3265 C 0.36819 0.23999 0.28284
 C3266 C 0.39242 0.23976 0.29255
 C3267 C 0.37530 0.24762 0.33507
 C3268 C 0.35114 0.24791 0.32526
 H3269 H 0.39846 0.30041 0.30770
 H3270 H 0.35343 0.30094 0.29007
 H3271 H 0.36304 0.22963 0.26563
 H3272 H 0.40773 0.22972 0.28295
 H3273 H 0.37940 0.24150 0.35455
 H3274 H 0.33474 0.24214 0.33650
 C3275 C 0.90038 0.75442 0.81874
 C3276 C 0.88966 0.72815 0.81074
 C3277 C 0.86616 0.72940 0.79947
 C3278 C 0.85510 0.75657 0.79729
 C3279 C 0.85577 0.76687 0.82469
 C3280 C 0.87929 0.76554 0.83597
 C3281 C 0.89918 0.77084 0.79423
 C3282 C 0.87559 0.77198 0.78300
 H3283 H 0.89857 0.70985 0.81484
 H3284 H 0.85587 0.71238 0.79355
 H3285 H 0.83908 0.77419 0.83455
 H3286 H 0.88247 0.77147 0.85558
 H3287 H 0.91560 0.78076 0.78638
 H3288 H 0.87194 0.78298 0.76569
   
