data_POSCAR
  _audit_creation_date              2014-09-24
  _audit_creation_method            'ToBaCCo'
  _symmetry_space_group_name_H-M    'P1'
  _symmetry_Int_Tables_number       1
  _symmetry_cell_setting            triclinic
  loop_
  _symmetry_equiv_pos_as_xyz
 x,y,z
_cell_length_a 38.3740
_cell_length_b 38.5610
_cell_length_c 38.5237
_cell_angle_alpha 89.865800
_cell_angle_beta 90.082000
_cell_angle_gamma 89.902400
loop_
  _atom_site_label
  _atom_site_type_symbol
  _atom_site_fract_x
  _atom_site_fract_y
  _atom_site_fract_z
C1 C 0.25918 0.96796 0.00889
 C2 C 0.26428 0.96947 -0.02770
 C3 C 0.26406 1.00242 -0.04382
 C4 C 0.26021 1.03375 -0.02542
 C5 C 0.25813 1.03195 0.01125
 C6 C 0.25730 0.99932 0.02748
 H7 H 0.25677 0.99834 0.05560
 H8 H 0.26373 1.00336 -0.07193
 C9 C 0.74724 0.52336 0.47151
 C10 C 0.75126 0.52269 0.50790
 C11 C 0.75375 0.49047 0.52467
 C12 C 0.75220 0.45875 0.50684
 C13 C 0.74788 0.45938 0.47021
 C14 C 0.74587 0.49183 0.45337
 H15 H 0.74339 0.49271 0.42536
 H16 H 0.75675 0.49014 0.55262
 C17 C 0.74736 1.01089 0.95879
 C18 C 0.75349 0.97445 0.95781
 C19 C 0.75886 0.95676 0.98947
 C20 C 0.75489 0.97247 1.02234
 C21 C 0.74327 1.00742 1.02291
 C22 C 0.74084 1.02587 0.99156
 H23 H 0.73311 1.05293 0.99291
 H24 H 0.76503 0.92935 0.98825
 C25 C 0.24761 0.51809 0.46143
 C26 C 0.25128 0.48159 0.46305
 C27 C 0.25072 0.46536 0.49578
 C28 C 0.24583 0.48400 0.52661
 C29 C 0.24198 0.52037 0.52495
 C30 C 0.24232 0.53660 0.49235
 H31 H 0.23822 0.56441 0.49098
 H32 H 0.25467 0.43755 0.49745
 C33 C 1.02852 0.25671 0.02588
 C34 C 1.02726 0.25290 -0.01089
 C35 C 0.99442 0.25174 -0.02712
 C36 C 0.96295 0.25395 -0.00884
 C37 C 0.96412 0.25885 0.02744
 C38 C 0.99677 0.26026 0.04406
 H39 H 0.99715 0.26188 0.07215
 H40 H 0.99310 0.25169 -0.05522
 C41 C 0.46271 0.74274 0.48568
 C42 C 0.46311 0.74271 0.52260
 C43 C 0.49576 0.74208 0.53958
 C44 C 0.52763 0.74264 0.52154
 C45 C 0.52703 0.74351 0.48486
 C46 C 0.49470 0.74344 0.46789
 H47 H 0.49448 0.74400 0.43976
 H48 H 0.49650 0.74122 0.56768
 C49 C 0.01117 0.77589 -0.02989
 C50 C -0.02443 0.78696 -0.02969
 C51 C -0.03993 0.79471 0.00265
 C52 C -0.02247 0.79074 0.03446
 C53 C 0.01271 0.77995 0.03440
 C54 C 0.02882 0.77365 0.00228
 H55 H 0.05663 0.76881 0.00234
 H56 H -0.06749 0.80089 0.00364
 C57 C 0.51584 0.24904 0.47710
 C58 C 0.47965 0.25499 0.47507
 C59 C 0.46079 0.26012 0.50581
 C60 C 0.47670 0.25921 0.53875
 C61 C 0.51331 0.25477 0.54057
 C62 C 0.53187 0.24873 0.50976
 H63 H 0.55959 0.24336 0.51130
 H64 H 0.43303 0.26511 0.50395
 C65 C 1.03869 0.02436 0.24832
 C66 C 1.03925 -0.01239 0.25142
 C67 C 1.00756 -0.03049 0.25364
 C68 C 0.97497 -0.01382 0.25317
 C69 C 0.97442 0.02276 0.25010
 C70 C 1.00591 0.04094 0.24789
 H71 H 1.00454 0.06901 0.24830
 H72 H 1.00835 -0.05860 0.25346
 C73 C 0.53151 0.51928 0.77660
 C74 C 0.53370 0.48267 0.77438
 C75 C 0.50276 0.46334 0.77671
 C76 C 0.46979 0.47902 0.77817
 C77 C 0.46746 0.51555 0.77651
 C78 C 0.49842 0.53501 0.77698
 H79 H 0.49673 0.56310 0.77728
 H80 H 0.50429 0.43525 0.77692
 C81 C 1.01921 0.96841 0.76526
 C82 C 0.98257 0.96642 0.76541
 C83 C 0.96318 0.99694 0.76889
 C84 C 0.97863 1.03003 0.77015
 C85 C 1.01550 1.03239 0.76617
 C86 C 1.03496 1.00126 0.76563
 H87 H 1.06315 1.00261 0.76638
 H88 H 0.93497 0.99499 0.76851
 C89 C 0.52746 0.47232 0.23123
 C90 C 0.49083 0.47160 0.23479
 C91 C 0.47267 0.50309 0.23737
 C92 C 0.48959 0.53541 0.23680
 C93 C 0.52649 0.53615 0.23490
 C94 C 0.54461 0.50452 0.23167
 H95 H 0.57278 0.50494 0.22946
 H96 H 0.44452 0.50239 0.23965
 O97 O 0.25450 0.16291 0.19320
 O98 O 0.29564 0.15104 0.23733
 O99 O 0.16836 0.20811 0.23918
 O100 O 0.15743 0.25109 0.27748
 O101 O 0.21373 0.25807 0.15203
 O102 O 0.26463 0.29270 0.14381
 O103 O 0.26034 0.29546 0.33482
 O104 O 0.22036 0.25307 0.34225
 O105 O 0.35017 0.24738 0.29239
 O106 O 0.35996 0.20906 0.24201
 O107 O 0.31271 0.33830 0.25086
 O108 O 0.26603 0.35369 0.20907
 O109 O 0.26383 0.33870 0.29457
 O110 O 0.22660 0.35302 0.24314
 O111 O 0.35313 0.29542 0.24608
 O112 O 0.36162 0.24642 0.20565
 O113 O 0.30724 0.24793 0.33311
 O114 O 0.25939 0.20518 0.33682
 O115 O 0.25937 0.20531 0.15209
 O116 O 0.30131 0.25188 0.14390
 O117 O 0.17203 0.26075 0.19392
 O118 O 0.16392 0.29643 0.24472
 O119 O 0.20827 0.16441 0.24122
 O120 O 0.25651 0.15413 0.28224
 Zr121 Zr 0.25663 0.18988 0.24024
 O122 O 0.29032 0.21702 0.27347
 Zr123 Zr 0.19841 0.25367 0.24092
 O124 O 0.22915 0.28303 0.27486
 Zr125 Zr 0.26044 0.25224 0.18064
 O126 O 0.29391 0.28246 0.21194
 Zr127 Zr 0.26067 0.25014 0.30488
 O128 O 0.22640 0.22037 0.27411
 Zr129 Zr 0.32305 0.24983 0.24473
 O130 O 0.29218 0.21940 0.21082
 Zr131 Zr 0.26448 0.31315 0.24621
 O132 O 0.23099 0.28643 0.21165
 O133 O 0.22616 0.22129 0.20828
 O134 O 0.29532 0.28213 0.27814
 C135 C 0.25603 0.17339 0.16156
 C136 C 0.17686 0.17582 0.23994
 C137 C 0.18204 0.26199 0.16222
 C138 C 0.26117 0.32762 0.32597
 C139 C 0.33931 0.24632 0.32394
 C140 C 0.34426 0.32731 0.24975
 H141 H 0.30365 0.20020 0.28768
 H142 H 0.30912 0.29672 0.19698
 H143 H 0.21037 0.20823 0.19277
 H144 H 0.21364 0.29729 0.28953
 H145 H 0.20326 0.23484 0.33623
 H146 H 0.16616 0.26154 0.29922
 H147 H 0.35736 0.26536 0.18880
 H148 H 0.31801 0.23381 0.15158
 H149 H 0.26458 0.21224 0.36102
 H150 H 0.24895 0.13114 0.27351
 H151 H 0.28519 0.34869 0.19268
 H152 H 0.25153 0.31258 0.15348
 H153 H 0.31375 0.15964 0.22121
 H154 H 0.35304 0.19111 0.25902
 H155 H 0.17231 0.31425 0.22821
 H156 H 0.20978 0.34939 0.26225
 O157 O 0.75214 0.85600 0.21900
 O158 O 0.71264 0.86103 0.26372
 O159 O 0.84152 0.80947 0.27168
 O160 O 0.85403 0.76137 0.30063
 O161 O 0.80744 0.77015 0.17258
 O162 O 0.76031 0.73236 0.15584
 O163 O 0.74679 0.70711 0.34539
 O164 O 0.78532 0.75069 0.36026
 O165 O 0.65993 0.75815 0.30083
 O166 O 0.65228 0.79944 0.25140
 O167 O 0.70599 0.67197 0.25380
 O168 O 0.75192 0.66178 0.21602
 O169 O 0.75351 0.66969 0.30024
 O170 O 0.79459 0.66530 0.24779
 O171 O 0.66315 0.71268 0.25137
 O172 O 0.65399 0.76358 0.21422
 O173 O 0.69877 0.75091 0.34492
 O174 O 0.74244 0.79643 0.35729
 O175 O 0.75728 0.81800 0.17403
 O176 O 0.72070 0.76995 0.15691
 O177 O 0.84603 0.76497 0.21722
 O178 O 0.85075 0.72127 0.26411
 O179 O 0.80000 0.85153 0.26787
 O180 O 0.74993 0.85342 0.30917
 Zr181 Zr 0.75310 0.82360 0.26303
 O182 O 0.71862 0.79096 0.29020
 Zr183 Zr 0.81491 0.76306 0.26201
 O184 O 0.78345 0.72849 0.29004
 Zr185 Zr 0.75820 0.76833 0.19712
 O186 O 0.72422 0.73305 0.22190
 Zr187 Zr 0.74741 0.75574 0.32056
 O188 O 0.78216 0.79066 0.29603
 Zr189 Zr 0.69048 0.75996 0.25535
 O190 O 0.72201 0.79561 0.22771
 Zr191 Zr 0.75268 0.70026 0.25503
 O192 O 0.78717 0.73224 0.22640
 O193 O 0.78801 0.79792 0.23071
 O194 O 0.71740 0.72544 0.28730
 C195 C 0.75403 0.84880 0.18649
 C196 C 0.83162 0.84129 0.27197
 C197 C 0.83855 0.76755 0.18487
 C198 C 0.75080 0.67654 0.33275
 C199 C 0.66769 0.75426 0.33312
 C200 C 0.67380 0.68108 0.25247
 H201 H 0.70318 0.80545 0.30475
 H202 H 0.71122 0.71953 0.20440
 H203 H 0.80359 0.81405 0.21813
 H204 H 0.79875 0.71355 0.30437
 H205 H 0.80072 0.77119 0.35841
 H206 H 0.84284 0.75260 0.32199
 H207 H 0.66133 0.74729 0.19584
 H208 H 0.70132 0.78460 0.16545
 H209 H 0.73663 0.78595 0.38009
 H210 H 0.75751 0.87747 0.30399
 H211 H 0.74598 0.67353 0.19398
 H212 H 0.77716 0.71417 0.16287
 H213 H 0.69461 0.85301 0.24721
 H214 H 0.65463 0.81456 0.27199
 H215 H 0.84723 0.70731 0.24287
 H216 H 0.80870 0.66540 0.26931
 O217 O 0.75508 0.16127 0.79687
 O218 O 0.71877 0.15085 0.75126
 O219 O 0.84536 0.20884 0.74522
 O220 O 0.85832 0.25759 0.71800
 O221 O 0.80017 0.25399 0.84154
 O222 O 0.75179 0.28790 0.85295
 O223 O 0.75234 0.29861 0.65888
 O224 O 0.79125 0.25463 0.65033
 O225 O 0.66233 0.25235 0.70426
 O226 O 0.65075 0.21690 0.75175
 O227 O 0.70567 0.34315 0.74890
 O228 O 0.75060 0.35728 0.78349
 O229 O 0.75441 0.34096 0.69999
 O230 O 0.79440 0.35004 0.75453
 O231 O 0.66406 0.30124 0.74788
 O232 O 0.65647 0.25031 0.79238
 O233 O 0.70355 0.25774 0.66232
 O234 O 0.74880 0.20984 0.65516
 O235 O 0.75427 0.20274 0.83892
 O236 O 0.71191 0.25179 0.84779
 O237 O 0.84269 0.25129 0.80052
 O238 O 0.84929 0.29717 0.75249
 O239 O 0.80587 0.16520 0.75063
 O240 O 0.75668 0.15800 0.70673
 Zr241 Zr 0.75664 0.19070 0.75094
 O242 O 0.72218 0.22013 0.71984
 Zr243 Zr 0.81578 0.25363 0.75250
 O244 O 0.78553 0.28411 0.71867
 Zr245 Zr 0.75412 0.25101 0.81254
 O246 O 0.72236 0.28437 0.78278
 Zr247 Zr 0.75176 0.25336 0.68862
 O248 O 0.78665 0.22237 0.71805
 Zr249 Zr 0.69153 0.25369 0.75012
 O250 O 0.72172 0.22001 0.78162
 Zr251 Zr 0.75242 0.31499 0.74873
 O252 O 0.78446 0.28605 0.78320
 O253 O 0.78762 0.22004 0.78379
 O254 O 0.71954 0.28613 0.71708
 C255 C 0.75452 0.17084 0.82880
 C256 C 0.83724 0.17673 0.74706
 C257 C 0.83216 0.25227 0.83226
 C258 C 0.75427 0.33043 0.66817
 C259 C 0.67166 0.25622 0.67260
 C260 C 0.67385 0.33317 0.74804
 H261 H 0.70762 0.20447 0.70560
 H262 H 0.70817 0.29895 0.79844
 H263 H 0.80273 0.20501 0.79826
 H264 H 0.80144 0.29786 0.70390
 H265 H 0.80775 0.23570 0.65611
 H266 H 0.84832 0.25672 0.69436
 H267 H 0.65598 0.27309 0.80413
 H268 H 0.69706 0.23158 0.84225
 H269 H 0.74197 0.21840 0.63183
 H270 H 0.76668 0.13522 0.71350
 H271 H 0.74260 0.34790 0.80601
 H272 H 0.76483 0.30842 0.84465
 H273 H 0.69861 0.15989 0.76446
 H274 H 0.65877 0.19633 0.73871
 H275 H 0.84556 0.30953 0.77469
 H276 H 0.80809 0.34960 0.73279
 O277 O 0.24563 0.82481 0.81171
 O278 O 0.28665 0.83611 0.76878
 O279 O 0.15478 0.79197 0.75473
 O280 O 0.14119 0.75002 0.71710
 O281 O 0.19081 0.73331 0.84375
 O282 O 0.23798 0.69232 0.85198
 O283 O 0.24657 0.69978 0.66252
 O284 O 0.20626 0.74528 0.65595
 O285 O 0.33394 0.74074 0.71021
 O286 O 0.34496 0.77211 0.76518
 O287 O 0.28650 0.64758 0.75016
 O288 O 0.23417 0.63691 0.78597
 O289 O 0.24136 0.65473 0.70054
 O290 O 0.19985 0.64122 0.74702
 O291 O 0.33006 0.68753 0.75067
 O292 O 0.34269 0.73096 0.79647
 O293 O 0.29334 0.74264 0.66721
 O294 O 0.24953 0.78993 0.66437
 O295 O 0.24133 0.77961 0.84977
 O296 O 0.27767 0.72963 0.85683
 O297 O 0.15050 0.74194 0.80123
 O298 O 0.14277 0.70375 0.75019
 O299 O 0.19885 0.83116 0.75953
 O300 O 0.25012 0.83926 0.72276
 Zr301 Zr 0.24458 0.80118 0.76231
 O302 O 0.27677 0.77271 0.72858
 Zr303 Zr 0.18024 0.74366 0.75541
 O304 O 0.20987 0.71288 0.72125
 Zr305 Zr 0.23920 0.73537 0.81792
 O306 O 0.27148 0.70414 0.78658
 Zr307 Zr 0.24581 0.74378 0.69430
 O308 O 0.21332 0.77530 0.72543
 Zr309 Zr 0.30487 0.73547 0.75662
 O310 O 0.27548 0.76644 0.79123
 Zr311 Zr 0.24068 0.67795 0.74997
 O312 O 0.20789 0.70607 0.78416
 O313 O 0.20962 0.77161 0.79087
 O314 O 0.27581 0.70731 0.72097
 C315 C 0.24436 0.81207 0.84267
 C316 C 0.16659 0.82310 0.75598
 C317 C 0.15924 0.73711 0.83307
 C318 C 0.24456 0.66729 0.66976
 C319 C 0.32498 0.74270 0.67801
 C320 C 0.31882 0.65623 0.74946
 H321 H 0.29213 0.78897 0.71593
 H322 H 0.28461 0.68780 0.80146
 H323 H 0.19492 0.78623 0.80606
 H324 H 0.19425 0.70072 0.70490
 H325 H 0.19086 0.76500 0.66194
 H326 H 0.14977 0.73890 0.69566
 H327 H 0.33623 0.71104 0.81131
 H328 H 0.29766 0.74408 0.84951
 H329 H 0.25424 0.78329 0.63996
 H330 H 0.24388 0.86234 0.73230
 H331 H 0.25227 0.63937 0.80409
 H332 H 0.22054 0.67599 0.84247
 H333 H 0.30385 0.82462 0.78417
 H334 H 0.34125 0.79152 0.74874
 H335 H 0.14805 0.68618 0.76823
 H336 H 0.18289 0.64960 0.72954
 O337 O 0.23131 0.35194 0.70616
 O338 O 0.19196 0.35685 0.75288
 O339 O 0.32505 0.31615 0.75479
 O340 O 0.34261 0.27086 0.78678
 O341 O 0.28591 0.26241 0.66270
 O342 O 0.23843 0.22398 0.65242
 O343 O 0.24465 0.21288 0.84313
 O344 O 0.28116 0.25968 0.85119
 O345 O 0.15116 0.25108 0.80296
 O346 O 0.13596 0.29232 0.75488
 O347 O 0.19691 0.16869 0.75288
 O348 O 0.24854 0.16278 0.71286
 O349 O 0.24710 0.17230 0.80029
 O350 O 0.28299 0.16220 0.75094
 O351 O 0.15217 0.20730 0.75522
 O352 O 0.13769 0.25659 0.71675
 O353 O 0.19368 0.25414 0.84401
 O354 O 0.23537 0.30248 0.84914
 O355 O 0.23230 0.31014 0.66438
 O356 O 0.19899 0.25964 0.65324
 O357 O 0.32850 0.26832 0.70336
 O358 O 0.34040 0.22829 0.75122
 O359 O 0.28021 0.35475 0.75155
 O360 O 0.23386 0.35680 0.79595
 Zr361 Zr 0.23565 0.32318 0.75244
 O362 O 0.20603 0.29070 0.78513
 Zr363 Zr 0.30129 0.26709 0.75062
 O364 O 0.27441 0.23238 0.78304
 Zr365 Zr 0.23890 0.26291 0.69097
 O366 O 0.20919 0.22806 0.72079
 Zr367 Zr 0.23958 0.25953 0.81499
 O368 O 0.26949 0.29489 0.78522
 Zr369 Zr 0.17714 0.25567 0.75521
 O370 O 0.20375 0.29061 0.72225
 Zr371 Zr 0.24254 0.19948 0.75322
 O372 O 0.27278 0.23155 0.72031
 O373 O 0.26943 0.29716 0.71912
 O374 O 0.20875 0.22494 0.78678
 C375 C 0.22975 0.34183 0.67442
 C376 C 0.31269 0.34718 0.75387
 C377 C 0.31808 0.26433 0.67197
 C378 C 0.24816 0.18152 0.83231
 C379 C 0.16180 0.25093 0.83459
 C380 C 0.16423 0.17632 0.75364
 H381 H 0.19097 0.30501 0.80021
 H382 H 0.19563 0.21303 0.70504
 H383 H 0.28296 0.31295 0.70398
 H384 H 0.29160 0.21926 0.79702
 H385 H 0.29511 0.28070 0.84629
 H386 H 0.33482 0.25930 0.80833
 H387 H 0.14339 0.23860 0.69939
 H388 H 0.17895 0.27293 0.66246
 H389 H 0.23241 0.29342 0.87308
 H390 H 0.23775 0.38093 0.78784
 H391 H 0.22806 0.16478 0.69735
 H392 H 0.25514 0.20593 0.66010
 H393 H 0.17416 0.34644 0.73750
 H394 H 0.13926 0.30805 0.77485
 H395 H 0.33434 0.21145 0.73282
 H396 H 0.30244 0.17086 0.76536
 O397 O 0.76230 0.64907 0.69426
 O398 O 0.80561 0.64208 0.73800
 O399 O 0.67399 0.68598 0.75022
 O400 O 0.65935 0.73276 0.78193
 O401 O 0.70821 0.73780 0.65389
 O402 O 0.75409 0.77747 0.64173
 O403 O 0.76060 0.78693 0.83173
 O404 O 0.72781 0.73867 0.84374
 O405 O 0.85379 0.74256 0.78426
 O406 O 0.86306 0.70537 0.73350
 O407 O 0.80517 0.82964 0.74673
 O408 O 0.75461 0.83800 0.70247
 O409 O 0.75749 0.82860 0.78980
 O410 O 0.71833 0.83802 0.74140
 O411 O 0.84917 0.79063 0.74010
 O412 O 0.85879 0.74296 0.69717
 O413 O 0.81416 0.74837 0.82777
 O414 O 0.77344 0.69769 0.83778
 O415 O 0.75928 0.69066 0.65212
 O416 O 0.79497 0.74112 0.64035
 O417 O 0.66892 0.73219 0.69778
 O418 O 0.66079 0.77431 0.74628
 O419 O 0.71761 0.64654 0.74328
 O420 O 0.76750 0.64291 0.78408
 Zr421 Zr 0.76304 0.67701 0.74096
 O422 O 0.79582 0.70847 0.77131
 Zr423 Zr 0.69871 0.73448 0.74368
 O424 O 0.72852 0.76820 0.77451
 Zr425 Zr 0.75673 0.73787 0.67966
 O426 O 0.78915 0.77205 0.70767
 Zr427 Zr 0.76542 0.74026 0.80363
 O428 O 0.73240 0.70583 0.77607
 Zr429 Zr 0.82310 0.74284 0.73906
 O430 O 0.79331 0.70874 0.70821
 Zr431 Zr 0.75880 0.80074 0.74278
 O432 O 0.72568 0.76966 0.71157
 O433 O 0.72773 0.70414 0.71025
 O434 O 0.79454 0.77380 0.77310
 C435 C 0.76054 0.65887 0.66234
 C436 C 0.68549 0.65469 0.74791
 C437 C 0.67698 0.73441 0.66546
 C438 C 0.75778 0.81874 0.82171
 C439 C 0.84558 0.74681 0.81623
 C440 C 0.83762 0.82136 0.74540
 H441 H 0.81171 0.69363 0.78513
 H442 H 0.80197 0.78735 0.69156
 H443 H 0.71280 0.68846 0.69645
 H444 H 0.71246 0.78138 0.78960
 H445 H 0.71290 0.71825 0.83910
 H446 H 0.67036 0.73992 0.80397
 H447 H 0.85337 0.76310 0.68214
 H448 H 0.81431 0.72566 0.64755
 H449 H 0.78055 0.70707 0.86066
 H450 H 0.76202 0.61902 0.77630
 H451 H 0.77741 0.83960 0.69063
 H452 H 0.73973 0.79623 0.65185
 H453 H 0.82147 0.65099 0.71982
 H454 H 0.85957 0.68751 0.75163
 H455 H 0.66498 0.78992 0.72628
 H456 H 0.70024 0.83027 0.75794
 O457 O 0.25503 0.65992 0.29049
 O458 O 0.21448 0.65113 0.24770
 O459 O 0.34394 0.70362 0.23972
 O460 O 0.35722 0.75035 0.20834
 O461 O 0.30211 0.75143 0.33390
 O462 O 0.25477 0.78738 0.34530
 O463 O 0.25031 0.79689 0.15191
 O464 O 0.28858 0.75371 0.14233
 O465 O 0.16144 0.75671 0.19919
 O466 O 0.14901 0.71829 0.24406
 O467 O 0.20735 0.84227 0.24396
 O468 O 0.25650 0.85438 0.27756
 O469 O 0.24927 0.83896 0.19331
 O470 O 0.29596 0.84795 0.24245
 O471 O 0.16501 0.80138 0.24898
 O472 O 0.15681 0.74737 0.28730
 O473 O 0.20157 0.75224 0.15597
 O474 O 0.24867 0.70704 0.14939
 O475 O 0.25625 0.70159 0.33239
 O476 O 0.21469 0.75046 0.34258
 O477 O 0.34369 0.74835 0.29202
 O478 O 0.35027 0.79275 0.24258
 O479 O 0.30187 0.66203 0.23911
 O480 O 0.24983 0.65537 0.20102
 Zr481 Zr 0.25420 0.68906 0.24432
 O482 O 0.22026 0.71935 0.21380
 Zr483 Zr 0.31578 0.75001 0.24436
 O484 O 0.28531 0.78139 0.21112
 Zr485 Zr 0.25551 0.74949 0.30575
 O486 O 0.22367 0.78332 0.27680
 Zr487 Zr 0.25027 0.75147 0.18176
 O488 O 0.28472 0.71962 0.21071
 Zr489 Zr 0.19119 0.75353 0.24484
 O490 O 0.22121 0.71939 0.27592
 Zr491 Zr 0.25341 0.81304 0.24174
 O492 O 0.28591 0.78348 0.27539
 O493 O 0.28722 0.71746 0.27617
 O494 O 0.21916 0.78495 0.21086
 C495 C 0.25609 0.66974 0.32234
 C496 C 0.33384 0.67199 0.23752
 C497 C 0.33388 0.74933 0.32404
 C498 C 0.24886 0.82870 0.16148
 C499 C 0.17003 0.75468 0.16709
 C500 C 0.17556 0.83297 0.24794
 H501 H 0.20503 0.70401 0.19994
 H502 H 0.21052 0.79796 0.29327
 H503 H 0.30265 0.70217 0.29002
 H504 H 0.30067 0.79510 0.19576
 H505 H 0.30588 0.73543 0.14782
 H506 H 0.34666 0.75503 0.18539
 H507 H 0.15980 0.76768 0.30266
 H508 H 0.19942 0.73042 0.33754
 H509 H 0.24136 0.71463 0.12586
 H510 H 0.25840 0.63202 0.20781
 H511 H 0.24450 0.84666 0.29891
 H512 H 0.26885 0.80707 0.33665
 H513 H 0.19587 0.66100 0.26248
 H514 H 0.15736 0.69687 0.23273
 H515 H 0.34637 0.80636 0.26398
 H516 H 0.30664 0.84809 0.21909
 O517 O 0.72818 0.32743 0.28496
 O518 O 0.76346 0.33572 0.23484
 O519 O 0.63999 0.27188 0.25097
 O520 O 0.62925 0.22251 0.22166
 O521 O 0.69725 0.24023 0.33996
 O522 O 0.74949 0.20524 0.34780
 O523 O 0.73277 0.17640 0.16103
 O524 O 0.68598 0.21463 0.15256
 O525 O 0.81838 0.23913 0.18751
 O526 O 0.83124 0.28085 0.23264
 O527 O 0.79250 0.14955 0.24973
 O528 O 0.74774 0.13804 0.29353
 O529 O 0.74509 0.14055 0.20657
 O530 O 0.70784 0.13083 0.25983
 O531 O 0.82812 0.19417 0.23464
 O532 O 0.83850 0.24742 0.27215
 O533 O 0.77353 0.22552 0.15136
 O534 O 0.72218 0.26513 0.14635
 O535 O 0.74186 0.29052 0.32927
 O536 O 0.78426 0.24673 0.34011
 O537 O 0.65132 0.22963 0.30407
 O538 O 0.64283 0.18316 0.26078
 O539 O 0.67711 0.31667 0.24034
 O540 O 0.72090 0.32500 0.19507
 Zr541 Zr 0.72719 0.29477 0.24083
 O542 O 0.75915 0.26506 0.20797
 Zr543 Zr 0.67336 0.22836 0.25407
 O544 O 0.70315 0.19598 0.22145
 Zr545 Zr 0.74075 0.24095 0.30695
 O546 O 0.77338 0.20897 0.27710
 Zr547 Zr 0.72964 0.22576 0.18426
 O548 O 0.69645 0.25794 0.21421
 Zr549 Zr 0.79655 0.23855 0.23751
 O550 O 0.76718 0.27139 0.27015
 Zr551 Zr 0.74282 0.17230 0.25081
 O552 O 0.71053 0.20160 0.28430
 O553 O 0.70204 0.26641 0.27905
 O554 O 0.76838 0.20022 0.21219
 C555 C 0.73520 0.32087 0.31712
 C556 C 0.64650 0.30405 0.24480
 C557 C 0.66462 0.23555 0.33412
 C558 C 0.74034 0.14656 0.17411
 C559 C 0.80568 0.23266 0.15734
 C560 C 0.82220 0.16204 0.24104
 H561 H 0.76982 0.28058 0.19050
 H562 H 0.79088 0.19786 0.29235
 H563 H 0.68719 0.28147 0.29363
 H564 H 0.68799 0.17871 0.21005
 H565 H 0.66840 0.23279 0.15747
 H566 H 0.63673 0.20885 0.20130
 H567 H 0.84028 0.22728 0.28800
 H568 H 0.80118 0.26133 0.32739
 H569 H 0.72550 0.25455 0.12315
 H570 H 0.71245 0.34844 0.20157
 H571 H 0.76594 0.14749 0.30903
 H572 H 0.73273 0.18603 0.34445
 H573 H 0.78307 0.33098 0.25090
 H574 H 0.82071 0.29740 0.21598
 H575 H 0.65396 0.16940 0.27948
 H576 H 0.69105 0.13008 0.24034
 C577 C 0.28639 0.08820 0.02888
 C578 C 0.26043 0.06300 0.03404
 C579 C 0.23784 0.06620 0.06248
 C580 C 0.24164 0.09351 0.08603
 C581 C 0.26762 0.11895 0.08057
 C582 C 0.28961 0.11624 0.05165
 C583 C 0.27172 0.14598 0.10468
 C584 C 0.25107 0.14682 0.13472
 C585 C 0.22542 0.12139 0.13982
 C586 C 0.22043 0.09521 0.11549
 H587 H 0.21773 0.04691 0.06666
 H588 H 0.30986 0.13527 0.04714
 H589 H 0.29167 0.16548 0.10082
 H590 H 0.20046 0.07590 0.12007
 H591 H 0.30452 0.08590 0.00750
 H592 H 0.20903 0.12190 0.16271
 C593 C 0.77594 0.58205 0.52174
 C594 C 0.75361 0.55430 0.52996
 C595 C 0.73605 0.55459 0.56190
 C596 C 0.74258 0.58040 0.58631
 C597 C 0.76438 0.60865 0.57776
 C598 C 0.78045 0.60955 0.54504
 C599 C 0.77029 0.63481 0.60247
 C600 C 0.75644 0.63152 0.63611
 C601 C 0.73647 0.60229 0.64460
 C602 C 0.72875 0.57746 0.61971
 H603 H 0.71850 0.53358 0.56852
 H604 H 0.79767 0.63070 0.53812
 H605 H 0.78617 0.65710 0.59593
 H606 H 0.71261 0.55554 0.62685
 H607 H 0.79061 0.58208 0.49777
 H608 H 0.72618 0.59902 0.67046
 C609 C 0.78890 0.92709 0.05146
 C610 C 0.76172 0.95192 0.05239
 C611 C 0.74076 0.95331 0.08254
 C612 C 0.74574 0.92938 0.10983
 C613 C 0.77171 0.90351 0.10700
 C614 C 0.79366 0.90317 0.07817
 C615 C 0.77476 0.87774 0.13256
 C616 C 0.75260 0.87775 0.16145
 C617 C 0.72804 0.90453 0.16520
 C618 C 0.72438 0.92997 0.13941
 H619 H 0.71887 0.97093 0.08396
 H620 H 0.81422 0.88400 0.07595
 H621 H 0.79408 0.85736 0.12981
 H622 H 0.70448 0.94971 0.14231
 H623 H 0.80678 0.92598 0.02976
 H624 H 0.71077 0.90495 0.18741
 C625 C 0.26679 0.47116 0.58733
 C626 C 0.24434 0.46399 0.55943
 C627 C 0.22146 0.43574 0.56164
 C628 C 0.22176 0.41402 0.59070
 C629 C 0.24443 0.42121 0.61875
 C630 C 0.26649 0.45018 0.61703
 C631 C 0.24558 0.39847 0.64726
 C632 C 0.22545 0.36809 0.64714
 C633 C 0.20288 0.36141 0.61929
 C634 C 0.20064 0.38446 0.59150
 H635 H 0.20413 0.43011 0.54011
 H636 H 0.28422 0.45596 0.63815
 H637 H 0.26335 0.40340 0.66858
 H638 H 0.18322 0.37861 0.57015
 H639 H 0.28495 0.49257 0.58584
 H640 H 0.18718 0.33808 0.61894
 C641 C 0.73229 0.02590 0.89752
 C642 C 0.74800 0.03372 0.92968
 C643 C 0.76294 0.06697 0.93377
 C644 C 0.76101 0.09208 0.90764
 C645 C 0.74517 0.08403 0.87564
 C646 C 0.73126 0.05067 0.87068
 C647 C 0.74315 0.10972 0.84958
 C648 C 0.75597 0.14346 0.85580
 C649 C 0.77141 0.15091 0.88798
 C650 C 0.77423 0.12541 0.91350
 H651 H 0.77630 0.07356 0.95770
 H652 H 0.71864 0.04407 0.84642
 H653 H 0.73114 0.10369 0.82484
 H654 H 0.78643 0.13189 0.93802
 H655 H 0.71911 0.00146 0.89353
 H656 H 0.78190 0.17643 0.89326
 C657 C 0.22749 0.53197 0.40050
 C658 C 0.24938 0.53876 0.42894
 C659 C 0.27034 0.56858 0.42854
 C660 C 0.26775 0.59266 0.40154
 C661 C 0.24538 0.58606 0.37315
 C662 C 0.22597 0.55519 0.37248
 C663 C 0.24205 0.61101 0.34667
 C664 C 0.25968 0.64286 0.34926
 C665 C 0.28172 0.64902 0.37767
 C666 C 0.28611 0.62394 0.40336
 H667 H 0.28737 0.57393 0.45038
 H668 H 0.20856 0.54973 0.35102
 H669 H 0.22497 0.60622 0.32476
 H670 H 0.30326 0.62935 0.42505
 H671 H 0.21073 0.50941 0.40054
 H672 H 0.29594 0.67318 0.37978
 C673 C 0.29157 0.94232 0.92199
 C674 C 0.26826 0.94020 0.95030
 C675 C 0.24710 0.91039 0.95322
 C676 C 0.24766 0.88476 0.92712
 C677 C 0.26969 0.88886 0.89798
 C678 C 0.29217 0.91717 0.89621
 C679 C 0.26845 0.86499 0.87061
 C680 C 0.24600 0.83645 0.87211
 C681 C 0.22518 0.83153 0.90172
 C682 C 0.22574 0.85568 0.92887
 H683 H 0.22840 0.90822 0.97414
 H684 H 0.30974 0.92033 0.87442
 H685 H 0.28499 0.86860 0.84808
 H686 H 0.20877 0.85184 0.95099
 H687 H 0.30924 0.96408 0.91941
 H688 H 0.20777 0.80951 0.90340
 C689 C 0.77156 0.40105 0.45181
 C690 C 0.74697 0.42783 0.44781
 C691 C 0.72402 0.42679 0.41922
 C692 C 0.72697 0.40092 0.39392
 C693 C 0.75175 0.37416 0.39818
 C694 C 0.77348 0.37410 0.42755
 C695 C 0.75467 0.34829 0.37272
 C696 C 0.73389 0.34947 0.34255
 C697 C 0.70994 0.37669 0.33826
 C698 C 0.70620 0.40197 0.36392
 H699 H 0.70466 0.44705 0.41589
 H700 H 0.79281 0.35389 0.43112
 H701 H 0.77330 0.32739 0.37622
 H702 H 0.68722 0.42249 0.36019
 H703 H 0.79012 0.40155 0.47298
 H704 H 0.69333 0.37782 0.31551
 C705 C 0.08598 0.23013 0.03752
 C706 C 0.05980 0.25465 0.04540
 C707 C 0.06492 0.27676 0.07398
 C708 C 0.09526 0.27468 0.09405
 C709 C 0.12137 0.25014 0.08577
 C710 C 0.11651 0.22810 0.05732
 C711 C 0.15121 0.24735 0.10685
 C712 C 0.15444 0.26819 0.13651
 C713 C 0.12866 0.29292 0.14399
 C714 C 0.09949 0.29641 0.12277
 H715 H 0.04557 0.29628 0.08027
 H716 H 0.13599 0.20883 0.05078
 H717 H 0.17085 0.22790 0.10133
 H718 H 0.07977 0.31542 0.12940
 H719 H 0.08249 0.21176 0.01660
 H720 H 0.13081 0.30916 0.16681
 C721 C 0.58651 0.76802 0.53605
 C722 C 0.56037 0.74329 0.54238
 C723 C 0.56403 0.72068 0.57083
 C724 C 0.59250 0.72350 0.59341
 C725 C 0.61881 0.74826 0.58678
 C726 C 0.61578 0.77008 0.55771
 C727 C 0.64709 0.75130 0.60989
 C728 C 0.64839 0.73087 0.64015
 C729 C 0.62193 0.70658 0.64650
 C730 C 0.59448 0.70258 0.62312
 H731 H 0.54409 0.70145 0.57595
 H732 H 0.63550 0.78944 0.55234
 H733 H 0.66737 0.77022 0.60500
 H734 H 0.57446 0.68356 0.62861
 H735 H 0.58394 0.78627 0.51481
 H736 H 0.62272 0.69035 0.66949
 C737 C 0.02793 0.79075 0.90966
 C738 C 0.03125 0.76983 0.93961
 C739 C 0.05762 0.74415 0.93994
 C740 C 0.08130 0.74094 0.91256
 C741 C 0.07800 0.76244 0.88306
 C742 C 0.05078 0.78678 0.88156
 C743 C 0.10273 0.76000 0.85625
 C744 C 0.13134 0.73725 0.85939
 C745 C 0.13415 0.71592 0.88880
 C746 C 0.10906 0.71735 0.91492
 H747 H 0.06015 0.72674 0.96195
 H748 H 0.04800 0.80371 0.85924
 H749 H 0.10063 0.77684 0.83377
 H750 H 0.11195 0.70074 0.93747
 H751 H 0.00895 0.81150 0.90852
 H752 H 0.15590 0.69818 0.89161
 C753 C 0.52993 0.21859 0.42091
 C754 C 0.53828 0.24336 0.44629
 C755 C 0.56993 0.26139 0.44390
 C756 C 0.59342 0.25429 0.41721
 C757 C 0.58466 0.22986 0.39135
 C758 C 0.55270 0.21232 0.39328
 C759 C 0.60817 0.22329 0.36426
 C760 C 0.64062 0.24013 0.36349
 C761 C 0.64930 0.26369 0.38987
 C762 C 0.62576 0.27097 0.41632
 H763 H 0.57659 0.28056 0.46337
 H764 H 0.54568 0.19326 0.37389
 H765 H 0.60137 0.20506 0.34398
 H766 H 0.63286 0.28963 0.43608
 H767 H 0.50612 0.20371 0.42274
 H768 H 0.67395 0.27734 0.38946
 C769 C 0.93498 0.82456 0.06987
 C770 C 0.95617 0.79496 0.06635
 C771 C 0.95178 0.76713 0.08953
 C772 C 0.92495 0.76792 0.11438
 C773 C 0.90232 0.79692 0.11605
 C774 C 0.90826 0.82552 0.09440
 C775 C 0.87369 0.79651 0.13877
 C776 C 0.86801 0.76786 0.16049
 C777 C 0.89140 0.73986 0.15986
 C778 C 0.91943 0.73967 0.13669
 H779 H 0.96773 0.74407 0.08676
 H780 H 0.89150 0.84813 0.09560
 H781 H 0.85600 0.81845 0.13977
 H782 H 0.93658 0.71734 0.13602
 H783 H 0.93798 0.84626 0.05223
 H784 H 0.88751 0.71779 0.17687
 C785 C 0.45969 0.28537 0.59666
 C786 C 0.45338 0.26194 0.56949
 C787 C 0.42211 0.24296 0.56942
 C788 C 0.39666 0.24855 0.59469
 C789 C 0.40313 0.27197 0.62208
 C790 C 0.43500 0.28988 0.62312
 C791 C 0.37735 0.27732 0.64746
 C792 C 0.34489 0.26048 0.64484
 C793 C 0.33865 0.23797 0.61695
 C794 C 0.36446 0.23170 0.59236
 H795 H 0.41700 0.22462 0.54873
 H796 H 0.44035 0.30816 0.64376
 H797 H 0.38228 0.29484 0.66888
 H798 H 0.35910 0.21386 0.57133
 H799 H 0.48316 0.30089 0.59695
 H800 H 0.31405 0.22442 0.61470
 C801 C 0.90508 0.27965 0.97306
 C802 C 0.93043 0.25348 0.96999
 C803 C 0.92838 0.23028 0.94191
 C804 C 0.90424 0.23549 0.91523
 C805 C 0.87923 0.26224 0.91807
 C806 C 0.87913 0.28344 0.94768
 C807 C 0.85559 0.26789 0.89074
 C808 C 0.85804 0.24828 0.86009
 C809 C 0.88345 0.22227 0.85734
 C810 C 0.90601 0.21552 0.88494
 H811 H 0.94764 0.20981 0.93940
 H812 H 0.86024 0.30419 0.95023
 H813 H 0.83583 0.28789 0.89293
 H814 H 0.92526 0.19509 0.88233
 H815 H 0.90640 0.29832 0.99395
 H816 H 0.88513 0.20646 0.83418
 C817 C 0.40459 0.76852 0.46803
 C818 C 0.43079 0.74344 0.46345
 C819 C 0.43015 0.72285 0.43326
 C820 C 0.40643 0.72962 0.40647
 C821 C 0.38047 0.75518 0.41097
 C822 C 0.37912 0.77378 0.44232
 C823 C 0.35695 0.76209 0.38371
 C824 C 0.36028 0.74488 0.35162
 C825 C 0.38683 0.72025 0.34730
 C826 C 0.40936 0.71227 0.37465
 H827 H 0.45000 0.70316 0.42951
 H828 H 0.35948 0.79359 0.44620
 H829 H 0.33637 0.78105 0.38725
 H830 H 0.42937 0.69281 0.37077
 H831 H 0.40476 0.78513 0.49064
 H832 H 0.38936 0.70622 0.32311
 C833 C 0.09872 0.03815 0.26758
 C834 C 0.06892 0.04556 0.24734
 C835 C 0.06842 0.07677 0.22806
 C836 C 0.09546 0.10080 0.23059
 C837 C 0.12495 0.09313 0.25112
 C838 C 0.12662 0.06145 0.26900
 C839 C 0.15181 0.11763 0.25396
 C840 C 0.14876 0.15007 0.23746
 C841 C 0.11914 0.15747 0.21736
 C842 C 0.09290 0.13286 0.21357
 H843 H 0.04665 0.08274 0.21108
 H844 H 0.14891 0.05528 0.28518
 H845 H 0.17464 0.11183 0.26955
 H846 H 0.07035 0.13911 0.19778
 H847 H 0.09987 0.01543 0.28404
 H848 H 0.11659 0.18213 0.20404
 C849 C 0.56425 0.56647 0.80604
 C850 C 0.56211 0.54269 0.77851
 C851 C 0.58633 0.54472 0.75131
 C852 C 0.61162 0.57113 0.75106
 C853 C 0.61262 0.59574 0.77830
 C854 C 0.58923 0.59272 0.80598
 C855 C 0.63660 0.62327 0.77713
 C856 C 0.66011 0.62606 0.74944
 C857 C 0.65939 0.60119 0.72291
 C858 C 0.63530 0.57406 0.72357
 H859 H 0.58453 0.52676 0.72978
 H860 H 0.58972 0.61112 0.82719
 H861 H 0.63718 0.64234 0.79776
 H862 H 0.63496 0.55560 0.70240
 H863 H 0.54569 0.56532 0.82718
 H864 H 0.67690 0.60335 0.70115
 C865 C 0.92829 0.05551 0.79857
 C866 C 0.95551 0.05832 0.77407
 C867 C 0.95498 0.08631 0.75051
 C868 C 0.92614 0.10906 0.74965
 C869 C 0.89814 0.10426 0.77311
 C870 C 0.90007 0.07815 0.79814
 C871 C 0.86844 0.12544 0.77106
 C872 C 0.86656 0.15205 0.74639
 C873 C 0.89474 0.15738 0.72369
 C874 C 0.92411 0.13583 0.72502
 H875 H 0.97526 0.08872 0.73111
 H876 H 0.87921 0.07449 0.81673
 H877 H 0.84719 0.12187 0.78927
 H878 H 0.94522 0.14014 0.70688
 H879 H 0.92831 0.03471 0.81755
 H880 H 0.89395 0.17827 0.70486
 C881 C 0.47268 0.59329 0.26273
 C882 C 0.46705 0.56685 0.23830
 C883 C 0.43703 0.56821 0.21733
 C884 C 0.41205 0.59425 0.22186
 C885 C 0.41793 0.62087 0.24629
 C886 C 0.44864 0.62048 0.26620
 C887 C 0.39252 0.64676 0.25094
 C888 C 0.36083 0.64528 0.23258
 C889 C 0.35509 0.61834 0.20889
 C890 C 0.38071 0.59332 0.20314
 H891 H 0.43241 0.54800 0.19835
 H892 H 0.45344 0.64049 0.28531
 H893 H 0.39692 0.66742 0.26946
 H894 H 0.37577 0.57290 0.18451
 H895 H 0.49510 0.59243 0.27978
 H896 H 0.33093 0.61700 0.19436
 C897 C 0.03473 0.90921 0.78847
 C898 C 0.04185 0.93704 0.76588
 C899 C 0.07189 0.93579 0.74512
 C900 C 0.09488 0.90765 0.74735
 C901 C 0.08712 0.87946 0.76957
 C902 C 0.05683 0.88039 0.78984
 C903 C 0.11022 0.85127 0.77170
 C904 C 0.14156 0.85176 0.75298
 C905 C 0.14931 0.88011 0.73146
 C906 C 0.12591 0.90762 0.72825
 H907 H 0.07767 0.95702 0.72756
 H908 H 0.05069 0.85925 0.80737
 H909 H 0.10442 0.82954 0.78863
 H910 H 0.13234 0.92912 0.71127
 H911 H 0.01232 0.90996 0.80548
 H912 H 0.17337 0.88071 0.71679
 C913 C 0.57393 0.43928 0.20045
 C914 C 0.54901 0.44051 0.22710
 C915 C 0.54627 0.41235 0.25028
 C916 C 0.56869 0.38363 0.24716
 C917 C 0.59455 0.38356 0.22105
 C918 C 0.59658 0.41119 0.19754
 C919 C 0.61876 0.35644 0.21955
 C920 C 0.61747 0.32905 0.24354
 C921 C 0.59063 0.32815 0.26825
 C922 C 0.56648 0.35540 0.27019
 H923 H 0.52740 0.41320 0.27117
 H924 H 0.61608 0.41134 0.17721
 H925 H 0.63932 0.35709 0.20025
 H926 H 0.54668 0.35483 0.29020
 H927 H 0.57622 0.46049 0.18211
 H928 H 0.58940 0.30729 0.28709
 C929 C 0.91497 0.97258 0.23427
 C930 C 0.94452 0.96552 0.25498
 C931 C 0.94395 0.93606 0.27673
 C932 C 0.91518 0.91393 0.27738
 C933 C 0.88577 0.92141 0.25658
 C934 C 0.88578 0.95098 0.23539
 C935 C 0.85747 0.89845 0.25638
 C936 C 0.85891 0.86763 0.27582
 C937 C 0.88808 0.86068 0.29673
 C938 C 0.91582 0.88388 0.29787
 H939 H 0.96592 0.93036 0.29356
 H940 H 0.86365 0.95683 0.21888
 H941 H 0.83517 0.90364 0.23982
 H942 H 0.93821 0.87782 0.31397
 H943 H 0.91484 0.99388 0.21596
 H944 H 0.88954 0.83703 0.31190
 C945 C 0.43922 0.42987 0.80674
 C946 C 0.43923 0.45564 0.78087
 C947 C 0.41245 0.45609 0.75594
 C948 C 0.38660 0.43029 0.75628
 C949 C 0.38805 0.40347 0.78142
 C950 C 0.41403 0.40391 0.80691
 C951 C 0.36387 0.37630 0.78033
 C952 C 0.33753 0.37610 0.75514
 C953 C 0.33517 0.40350 0.73119
 C954 C 0.35979 0.43022 0.73147
 H955 H 0.41249 0.47562 0.73566
 H956 H 0.41527 0.38382 0.82658
 H957 H 0.36537 0.35539 0.79916
 H958 H 0.35803 0.45064 0.71217
 H959 H 0.45958 0.42921 0.82624
 H960 H 0.31482 0.40370 0.71169
 C961 C 0.08502 0.27649 0.97315
 C962 C 0.05694 0.25364 0.96718
 C963 C 0.05742 0.23325 0.93685
 C964 C 0.08390 0.23680 0.91235
 C965 C 0.11187 0.25968 0.91868
 C966 C 0.11249 0.27898 0.94946
 C967 C 0.13805 0.26359 0.89358
 C968 C 0.13552 0.24602 0.86178
 C969 C 0.10741 0.22367 0.85573
 C970 C 0.08211 0.21858 0.88103
 H971 H 0.03678 0.21469 0.93197
 H972 H 0.13350 0.29700 0.95456
 H973 H 0.15961 0.28114 0.89820
 H974 H 0.06068 0.20108 0.87573
 H975 H 0.08512 0.29371 0.99530
 H976 H 0.10517 0.20996 0.83144
 C977 C 0.58592 0.71948 0.46765
 C978 C 0.55881 0.74356 0.46261
 C979 C 0.55994 0.76559 0.43347
 C980 C 0.58642 0.76243 0.40877
 C981 C 0.61375 0.73843 0.41414
 C982 C 0.61354 0.71742 0.44397
 C983 C 0.64040 0.73557 0.38927
 C984 C 0.63910 0.75547 0.35860
 C985 C 0.61125 0.77849 0.35323
 C986 C 0.58539 0.78231 0.37830
 H987 H 0.53931 0.78442 0.42933
 H988 H 0.63411 0.69862 0.44839
 H989 H 0.66179 0.71764 0.39348
 H990 H 0.56442 0.80063 0.37373
 H991 H 0.58529 0.70162 0.48937
 H992 H 0.61003 0.79434 0.32999
 C993 C 0.92687 0.81225 0.93750
 C994 C 0.95320 0.78677 0.94083
 C995 C 0.95397 0.75954 0.91637
 C996 C 0.92826 0.75714 0.89041
 C997 C 0.90110 0.78193 0.88899
 C998 C 0.90112 0.80976 0.91212
 C999 C 0.87402 0.77823 0.86481
 C1000 C 0.87420 0.75055 0.84133
 C1001 C 0.90198 0.72683 0.84173
 C1002 C 0.92862 0.72983 0.86639
 H1003 H 0.97312 0.73899 0.91869
 H1004 H 0.88090 0.82938 0.91093
 H1005 H 0.85289 0.79695 0.86406
 H1006 H 0.94933 0.71070 0.86682
 H1007 H 0.92596 0.83427 0.95490
 H1008 H 0.90256 0.70549 0.82350
 C1009 C 0.46914 0.27713 0.41431
 C1010 C 0.46005 0.25508 0.44192
 C1011 C 0.43050 0.23400 0.43899
 C1012 C 0.40938 0.23571 0.40950
 C1013 C 0.41833 0.25809 0.38176
 C1014 C 0.44861 0.27835 0.38423
 C1015 C 0.39618 0.26056 0.35273
 C1016 C 0.36480 0.24184 0.35206
 C1017 C 0.35652 0.21949 0.37963
 C1018 C 0.37879 0.21613 0.40793
 H1019 H 0.42347 0.21687 0.46022
 H1020 H 0.45587 0.29577 0.36336
 H1021 H 0.40246 0.27804 0.33157
 H1022 H 0.37164 0.19888 0.42899
 H1023 H 0.49171 0.29383 0.41631
 H1024 H 0.33257 0.20466 0.37932
 C1025 C 0.03462 0.80215 0.09237
 C1026 C 0.03482 0.77665 0.06630
 C1027 C 0.06013 0.75015 0.06801
 C1028 C 0.08662 0.75086 0.09303
 C1029 C 0.08645 0.77676 0.11888
 C1030 C 0.05977 0.80177 0.11884
 C1031 C 0.11356 0.77772 0.14353
 C1032 C 0.14154 0.75415 0.14140
 C1033 C 0.14168 0.72900 0.11518
 C1034 C 0.11415 0.72695 0.09157
 H1035 H 0.06043 0.72996 0.04846
 H1036 H 0.05933 0.82200 0.13830
 H1037 H 0.11347 0.79730 0.16369
 H1038 H 0.11477 0.70712 0.07170
 H1039 H 0.01608 0.82331 0.09146
 H1040 H 0.16284 0.71044 0.11343
 C1041 C 0.52818 0.23439 0.60123
 C1042 C 0.53439 0.25646 0.57287
 C1043 C 0.56495 0.27650 0.57232
 C1044 C 0.59058 0.27218 0.59770
 C1045 C 0.58467 0.24949 0.62590
 C1046 C 0.55289 0.23147 0.62798
 C1047 C 0.61114 0.24444 0.65070
 C1048 C 0.64379 0.26061 0.64656
 C1049 C 0.64929 0.28265 0.61811
 C1050 C 0.62277 0.28886 0.59419
 H1051 H 0.56989 0.29364 0.55050
 H1052 H 0.54792 0.21385 0.64933
 H1053 H 0.60674 0.22729 0.67259
 H1054 H 0.62770 0.30613 0.57251
 H1055 H 0.50510 0.21829 0.60190
 H1056 H 0.67399 0.29560 0.61473
 C1057 C 0.93062 0.28830 0.07421
 C1058 C 0.93257 0.26154 0.04959
 C1059 C 0.90656 0.23584 0.04913
 C1060 C 0.87989 0.23605 0.07419
 C1061 C 0.87951 0.26215 0.09994
 C1062 C 0.90444 0.28857 0.09920
 C1063 C 0.85480 0.26096 0.12661
 C1064 C 0.82988 0.23442 0.12774
 C1065 C 0.82919 0.20947 0.10126
 C1066 C 0.85424 0.21009 0.07480
 H1067 H 0.90801 0.21497 0.03039
 H1068 H 0.90423 0.30896 0.11851
 H1069 H 0.85508 0.28057 0.14676
 H1070 H 0.85391 0.18999 0.05520
 H1071 H 0.95022 0.30848 0.07478
 H1072 H 0.81004 0.18887 0.10173
 C1073 C 0.40305 0.72003 0.53835
 C1074 C 0.43124 0.74233 0.54507
 C1075 C 0.43106 0.76165 0.57615
 C1076 C 0.40481 0.75709 0.60101
 C1077 C 0.37655 0.73484 0.59391
 C1078 C 0.37560 0.71690 0.56220
 C1079 C 0.35024 0.73043 0.61900
 C1080 C 0.35281 0.74660 0.65168
 C1081 C 0.38155 0.76794 0.65864
 C1082 C 0.40700 0.77363 0.63335
 H1083 H 0.45228 0.77932 0.58170
 H1084 H 0.35430 0.69942 0.55643
 H1085 H 0.32822 0.71395 0.61340
 H1086 H 0.42870 0.79056 0.63929
 H1087 H 0.40273 0.70411 0.51526
 H1088 H 0.38387 0.78095 0.68343
 C1089 C 0.23337 0.09154 0.96524
 C1090 C 0.25700 0.06519 0.95543
 C1091 C 0.27577 0.06962 0.92430
 C1092 C 0.26994 0.09826 0.90276
 C1093 C 0.24592 0.12422 0.91265
 C1094 C 0.22822 0.12086 0.94429
 C1095 C 0.23940 0.15239 0.89020
 C1096 C 0.25582 0.15388 0.85763
 C1097 C 0.27983 0.12800 0.84839
 C1098 C 0.28715 0.10068 0.87088
 H1099 H 0.29512 0.05063 0.91657
 H1100 H 0.20944 0.14029 0.95224
 H1101 H 0.22076 0.17227 0.89739
 H1102 H 0.30568 0.08100 0.86296
 H1103 H 0.21731 0.08879 0.98813
 H1104 H 0.29310 0.12895 0.82360
 C1105 C 0.72025 0.58189 0.45945
 C1106 C 0.74462 0.55595 0.45113
 C1107 C 0.76582 0.56012 0.42182
 C1108 C 0.76235 0.58928 0.40053
 C1109 C 0.73811 0.61558 0.40912
 C1110 C 0.71735 0.61174 0.43885
 C1111 C 0.73471 0.64476 0.38739
 C1112 C 0.75442 0.64705 0.35675
 C1113 C 0.77813 0.62056 0.34850
 C1114 C 0.78237 0.59213 0.37037
 H1115 H 0.78472 0.54024 0.41529
 H1116 H 0.69843 0.63143 0.44575
 H1117 H 0.71620 0.66506 0.39371
 H1118 H 0.80096 0.57214 0.36343
 H1119 H 0.70325 0.57886 0.48166
 H1120 H 0.79378 0.62206 0.32515
 C1121 C 0.70270 0.04382 0.05739
 C1122 C 0.73552 0.02783 0.05460
 C1123 C 0.76187 0.03638 0.07841
 C1124 C 0.75594 0.06212 0.10360
 C1125 C 0.72341 0.07953 0.10468
 C1126 C 0.69669 0.06947 0.08212
 C1127 C 0.71840 0.10727 0.12769
 C1128 C 0.74513 0.11718 0.15035
 C1129 C 0.77678 0.09884 0.15034
 C1130 C 0.78232 0.07175 0.12688
 H1131 H 0.78732 0.02437 0.07613
 H1132 H 0.67151 0.08221 0.08283
 H1133 H 0.69379 0.12115 0.12806
 H1134 H 0.80731 0.05865 0.12667
 H1135 H 0.68218 0.03759 0.03910
 H1136 H 0.79757 0.10616 0.16792
 C1137 C 0.21457 0.53580 0.58256
 C1138 C 0.23874 0.54279 0.55608
 C1139 C 0.25924 0.57284 0.55811
 C1140 C 0.25531 0.59600 0.58562
 C1141 C 0.23172 0.58840 0.61272
 C1142 C 0.21158 0.55809 0.61105
 C1143 C 0.22840 0.61156 0.64062
 C1144 C 0.24731 0.64276 0.64074
 C1145 C 0.26977 0.65039 0.61309
 C1146 C 0.27421 0.62698 0.58603
 H1147 H 0.27797 0.57850 0.53781
 H1148 H 0.19301 0.55204 0.63133
 H1149 H 0.21071 0.60575 0.66175
 H1150 H 0.29214 0.63330 0.56525
 H1151 H 0.19778 0.51332 0.58109
 H1152 H 0.28441 0.67427 0.61278
 C1153 C 0.77807 0.95926 0.89843
 C1154 C 0.75499 0.95249 0.92593
 C1155 C 0.73599 0.92126 0.92572
 C1156 C 0.74115 0.89642 0.89980
 C1157 C 0.76360 0.90372 0.87176
 C1158 C 0.78155 0.93552 0.87103
 C1159 C 0.76833 0.87867 0.84562
 C1160 C 0.75290 0.84562 0.84864
 C1161 C 0.73147 0.83851 0.87725
 C1162 C 0.72505 0.86389 0.90221
 H1163 H 0.71838 0.91552 0.94697
 H1164 H 0.79935 0.94138 0.85001
 H1165 H 0.78444 0.88463 0.82343
 H1166 H 0.70802 0.85783 0.92379
 H1167 H 0.79383 0.98252 0.89847
 H1168 H 0.71896 0.81348 0.87986
 C1169 C 0.28009 0.46585 0.40609
 C1170 C 0.25539 0.45892 0.43211
 C1171 C 0.23630 0.42789 0.43064
 C1172 C 0.24283 0.40336 0.40485
 C1173 C 0.26733 0.41057 0.37848
 C1174 C 0.28552 0.44215 0.37907
 C1175 C 0.27349 0.38579 0.35245
 C1176 C 0.25647 0.35350 0.35359
 C1177 C 0.23290 0.34645 0.38050
 C1178 C 0.22575 0.37133 0.40563
 H1179 H 0.21704 0.42229 0.45045
 H1180 H 0.30469 0.44802 0.35930
 H1181 H 0.29175 0.39132 0.33174
 H1182 H 0.20708 0.36538 0.42586
 H1183 H 0.29580 0.48912 0.40707
 H1184 H 0.21920 0.32193 0.38154
 C1185 C 0.28494 0.91009 0.02704
 C1186 C 0.25879 0.93549 0.03014
 C1187 C 0.23444 0.93252 0.05730
 C1188 C 0.23742 0.90622 0.08227
 C1189 C 0.26375 0.88079 0.07900
 C1190 C 0.28692 0.88254 0.05082
 C1191 C 0.26704 0.85485 0.10460
 C1192 C 0.24541 0.85525 0.13409
 C1193 C 0.21972 0.88094 0.13719
 C1194 C 0.21536 0.90589 0.11124
 H1195 H 0.21417 0.95195 0.06004
 H1196 H 0.30747 0.86346 0.04803
 H1197 H 0.28704 0.83510 0.10224
 H1198 H 0.19520 0.92536 0.11421
 H1199 H 0.30453 0.91215 0.00695
 H1200 H 0.20263 0.88134 0.15952
 C1201 C 0.72771 0.40083 0.52558
 C1202 C 0.75320 0.42676 0.52878
 C1203 C 0.77597 0.42569 0.55753
 C1204 C 0.77079 0.40201 0.58458
 C1205 C 0.74481 0.37636 0.58144
 C1206 C 0.72413 0.37529 0.55130
 C1207 C 0.73942 0.35295 0.60892
 C1208 C 0.75830 0.35619 0.64013
 C1209 C 0.78337 0.38240 0.64323
 C1210 C 0.79004 0.40473 0.61544
 H1211 H 0.79613 0.44520 0.56014
 H1212 H 0.70393 0.35589 0.54854
 H1213 H 0.72021 0.33265 0.60632
 H1214 H 0.80983 0.42453 0.61832
 H1215 H 0.70942 0.40131 0.50416
 H1216 H 0.79859 0.38488 0.66680
 C1217 C 0.03031 0.09269 0.78826
 C1218 C 0.03597 0.06539 0.76477
 C1219 C 0.06489 0.06731 0.74228
 C1220 C 0.08904 0.09437 0.74482
 C1221 C 0.08304 0.12175 0.76829
 C1222 C 0.05319 0.12103 0.78941
 C1223 C 0.10747 0.14880 0.77077
 C1224 C 0.13865 0.14776 0.75151
 C1225 C 0.14463 0.11991 0.72893
 C1226 C 0.11977 0.09376 0.72513
 H1227 H 0.06959 0.04661 0.72385
 H1228 H 0.04835 0.14164 0.80786
 H1229 H 0.10264 0.17021 0.78815
 H1230 H 0.12487 0.07272 0.70723
 H1231 H 0.00899 0.09163 0.80657
 H1232 H 0.16823 0.11882 0.71357
 C1233 C 0.54096 0.59693 0.21431
 C1234 C 0.54763 0.56854 0.23634
 C1235 C 0.57688 0.56963 0.25832
 C1236 C 0.59990 0.59775 0.25748
 C1237 C 0.59305 0.62630 0.23539
 C1238 C 0.56318 0.62580 0.21423
 C1239 C 0.61672 0.65423 0.23428
 C1240 C 0.64766 0.65303 0.25397
 C1241 C 0.65405 0.62436 0.27563
 C1242 C 0.63023 0.59721 0.27771
 H1243 H 0.58229 0.54792 0.27547
 H1244 H 0.55756 0.64727 0.19691
 H1245 H 0.61172 0.67621 0.21739
 H1246 H 0.63586 0.57547 0.29470
 H1247 H 0.51902 0.59645 0.19661
 H1248 H 0.67750 0.62312 0.29130
 C1249 C 0.09509 0.96977 0.22181
 C1250 C 0.07118 0.96585 0.24915
 C1251 C 0.07497 0.93779 0.27216
 C1252 C 0.10043 0.91253 0.26658
 C1253 C 0.12440 0.91648 0.23904
 C1254 C 0.12201 0.94564 0.21726
 C1255 C 0.14953 0.89064 0.23323
 C1256 C 0.14959 0.86032 0.25353
 C1257 C 0.12528 0.85646 0.28039
 C1258 C 0.10125 0.88263 0.28727
 H1259 H 0.05666 0.93460 0.29336
 H1260 H 0.13998 0.94898 0.19585
 H1261 H 0.16828 0.89356 0.21244
 H1262 H 0.08284 0.87917 0.30830
 H1263 H 0.09228 0.99083 0.20338
 H1264 H 0.12536 0.83340 0.29650
 C1265 C 0.59584 0.46741 0.79095
 C1266 C 0.56666 0.46275 0.76939
 C1267 C 0.56677 0.43520 0.74545
 C1268 C 0.59397 0.41101 0.74493
 C1269 C 0.62300 0.41551 0.76701
 C1270 C 0.62409 0.44432 0.78931
 C1271 C 0.64968 0.39042 0.76724
 C1272 C 0.64671 0.36027 0.74686
 C1273 C 0.61762 0.35608 0.72522
 C1274 C 0.59173 0.38150 0.72383
 H1275 H 0.54451 0.43145 0.72849
 H1276 H 0.64605 0.44810 0.80658
 H1277 H 0.67203 0.39364 0.78418
 H1278 H 0.56950 0.37765 0.70690
 H1279 H 0.59620 0.48792 0.81008
 H1280 H 0.61511 0.33322 0.70911
 C1281 C 0.91868 0.03977 0.27984
 C1282 C 0.94222 0.04388 0.25224
 C1283 C 0.93641 0.06996 0.22744
 C1284 C 0.90785 0.09222 0.23042
 C1285 C 0.88390 0.08764 0.25791
 C1286 C 0.88937 0.06114 0.28232
 C1287 C 0.85539 0.11016 0.26091
 C1288 C 0.85144 0.13786 0.23756
 C1289 C 0.87553 0.14242 0.21058
 C1290 C 0.90333 0.11950 0.20677
 H1291 H 0.95465 0.07331 0.20622
 H1292 H 0.87146 0.05747 0.30373
 H1293 H 0.83689 0.10680 0.28190
 H1294 H 0.92155 0.12338 0.18565
 H1295 H 0.92319 0.02024 0.29959
 H1296 H 0.87255 0.16352 0.19218
 C1297 C 0.40670 0.53018 0.79727
 C1298 C 0.43399 0.53479 0.77342
 C1299 C 0.43069 0.56020 0.74743
 C1300 C 0.40149 0.58194 0.74616
 C1301 C 0.37425 0.57756 0.77047
 C1302 C 0.37684 0.55112 0.79552
 C1303 C 0.34582 0.60070 0.77017
 C1304 C 0.34533 0.62879 0.74682
 C1305 C 0.37230 0.63251 0.72257
 C1306 C 0.39989 0.60898 0.72187
 H1307 H 0.45161 0.56384 0.72888
 H1308 H 0.35635 0.54745 0.81449
 H1309 H 0.32522 0.59809 0.78922
 H1310 H 0.42060 0.61267 0.70314
 H1311 H 0.40890 0.51108 0.81779
 H1312 H 0.37221 0.65403 0.70443
 C1313 C 0.97009 0.91203 0.73162
 C1314 C 0.96297 0.93369 0.76006
 C1315 C 0.93408 0.92654 0.78115
 C1316 C 0.91114 0.89978 0.77269
 C1317 C 0.91796 0.87841 0.74366
 C1318 C 0.94801 0.88425 0.72378
 C1319 C 0.89407 0.85232 0.73461
 C1320 C 0.86307 0.84851 0.75357
 C1321 C 0.85690 0.86966 0.78245
 C1322 C 0.88080 0.89492 0.79214
 H1323 H 0.92856 0.94300 0.80328
 H1324 H 0.95368 0.86823 0.70142
 H1325 H 0.89906 0.83568 0.71252
 H1326 H 0.87530 0.91095 0.81456
 H1327 H 0.99196 0.91740 0.71473
 H1328 H 0.83384 0.86596 0.79802
 C1329 C 0.47310 0.41428 0.20871
 C1330 C 0.47001 0.43911 0.23520
 C1331 C 0.44444 0.43463 0.26087
 C1332 C 0.42115 0.40680 0.25932
 C1333 C 0.42429 0.38194 0.23257
 C1334 C 0.45080 0.38559 0.20775
 C1335 C 0.39999 0.35478 0.23038
 C1336 C 0.37189 0.35332 0.25368
 C1337 C 0.36916 0.37806 0.28017
 C1338 C 0.39388 0.40429 0.28332
 H1339 H 0.44187 0.45368 0.28139
 H1340 H 0.45346 0.36697 0.18690
 H1341 H 0.40190 0.33584 0.20970
 H1342 H 0.39108 0.42321 0.30390
 H1343 H 0.49213 0.41755 0.18826
 H1344 H 0.34773 0.37707 0.29842
   
