data_POSCAR
  _audit_creation_date              2014-09-24
  _audit_creation_method            'ToBaCCo'
  _symmetry_space_group_name_H-M    'P1'
  _symmetry_Int_Tables_number       1
  _symmetry_cell_setting            triclinic
  loop_
  _symmetry_equiv_pos_as_xyz
 x,y,z
_cell_length_a 71.3477
_cell_length_b 71.3811
_cell_length_c 61.2706
_cell_angle_alpha 90.001500
_cell_angle_beta 89.828400
_cell_angle_gamma 90.055900
loop_
  _atom_site_label
  _atom_site_type_symbol
  _atom_site_fract_x
  _atom_site_fract_y
  _atom_site_fract_z
C1 C 0.33929 -0.02543 0.25319
 C2 C 0.34824 -0.00938 0.24495
 C3 C 0.35783 -0.01028 0.22495
 C4 C 0.35864 -0.02716 0.21336
 C5 C 0.34953 -0.04307 0.22148
 C6 C 0.33978 -0.04222 0.24133
 C7 C 0.34808 0.00821 0.25749
 C8 C 0.35772 0.00934 0.27738
 C9 C 0.35824 0.02627 0.28895
 C10 C 0.34875 0.04196 0.28089
 C11 C 0.33895 0.04084 0.26117
 C12 C 0.33877 0.02404 0.24935
 H13 H 0.33188 -0.02475 0.26865
 H14 H 0.36499 0.00202 0.21871
 H15 H 0.36514 -0.00282 0.28351
 H16 H 0.33131 0.02322 0.23399
 H17 H 0.35016 -0.05611 0.21240
 H18 H 0.34908 0.05507 0.28985
 C19 C 0.16139 -0.02451 0.74760
 C20 C 0.15181 -0.00878 0.75565
 C21 C 0.14206 -0.00995 0.77552
 C22 C 0.14173 -0.02681 0.78719
 C23 C 0.15145 -0.04240 0.77924
 C24 C 0.16134 -0.04125 0.75952
 C25 C 0.15150 0.00876 0.74305
 C26 C 0.14099 0.00985 0.72377
 C27 C 0.14002 0.02675 0.71219
 C28 C 0.14988 0.04245 0.71964
 C29 C 0.16051 0.04136 0.73876
 C30 C 0.16119 0.02459 0.75058
 H31 H 0.16892 -0.02365 0.73223
 H32 H 0.13444 0.00211 0.78161
 H33 H 0.13328 -0.00233 0.71814
 H34 H 0.16929 0.02380 0.76550
 H35 H 0.15123 -0.05545 0.78832
 H36 H 0.14918 0.05555 0.71068
 C37 C 0.66169 0.47625 0.24799
 C38 C 0.65168 0.49211 0.25492
 C39 C 0.64105 0.49137 0.27421
 C40 C 0.64029 0.47481 0.28642
 C41 C 0.65042 0.45910 0.27959
 C42 C 0.66118 0.45981 0.26047
 C43 C 0.65210 0.50944 0.24194
 C44 C 0.64226 0.51044 0.22219
 C45 C 0.64198 0.52718 0.21028
 C46 C 0.65183 0.54281 0.21787
 C47 C 0.66181 0.54183 0.23747
 C48 C 0.66182 0.52521 0.24962
 H49 H 0.66997 0.47680 0.23314
 H50 H 0.63319 0.50356 0.27949
 H51 H 0.63451 0.49835 0.21640
 H52 H 0.66939 0.52450 0.26491
 H53 H 0.64992 0.44631 0.28915
 H54 H 0.65161 0.55577 0.20863
 C55 C 0.83861 0.47516 0.75321
 C56 C 0.84794 0.49100 0.74500
 C57 C 0.85757 0.48986 0.72504
 C58 C 0.85803 0.47295 0.71347
 C59 C 0.84854 0.45727 0.72158
 C60 C 0.83876 0.45837 0.74138
 C61 C 0.84804 0.50863 0.75745
 C62 C 0.85786 0.50977 0.77722
 C63 C 0.85855 0.52672 0.78872
 C64 C 0.84906 0.54243 0.78072
 C65 C 0.83909 0.54130 0.76112
 C66 C 0.83872 0.52448 0.74937
 H67 H 0.83114 0.47599 0.76862
 H68 H 0.86500 0.50200 0.71879
 H69 H 0.86527 0.49758 0.78331
 H70 H 0.83111 0.52364 0.73411
 H71 H 0.84884 0.44419 0.71256
 H72 H 0.84950 0.55556 0.78964
 C73 C 0.24559 0.39108 1.02739
 C74 C 0.25458 0.39960 1.00954
 C75 C 0.27250 0.40731 1.01221
 C76 C 0.28134 0.40667 1.03255
 C77 C 0.27244 0.39799 1.05027
 C78 C 0.25459 0.39008 1.04766
 C79 C 0.24537 0.40022 0.98803
 C80 C 0.22737 0.40790 0.98598
 C81 C 0.21860 0.40850 0.96559
 C82 C 0.22764 0.40111 0.94720
 C83 C 0.24555 0.39327 0.94918
 C84 C 0.25447 0.39300 0.96950
 H85 H 0.23186 0.38481 1.02529
 H86 H 0.27948 0.41397 0.99850
 H87 H 0.22029 0.41357 1.00020
 H88 H 0.26826 0.38676 0.97103
 H89 H 0.27949 0.39722 1.06591
 H90 H 0.22070 0.40128 0.93148
 C91 C 0.75469 0.10789 1.02977
 C92 C 0.74560 0.09955 1.01195
 C93 C 0.72774 0.09169 1.01480
 C94 C 0.71907 0.09202 1.03531
 C95 C 0.72807 0.10053 1.05301
 C96 C 0.74585 0.10858 1.05022
 C97 C 0.75458 0.09939 0.99025
 C98 C 0.77246 0.09158 0.98754
 C99 C 0.78109 0.09159 0.96699
 C100 C 0.77202 0.09974 0.94913
 C101 C 0.75423 0.10773 0.95179
 C102 C 0.74544 0.10736 0.97225
 H103 H 0.76835 0.11430 1.02752
 H104 H 0.72067 0.08523 1.00108
 H105 H 0.77957 0.08538 1.00139
 H106 H 0.73176 0.11374 0.97432
 H107 H 0.72113 0.10110 1.06878
 H108 H 0.77888 0.10009 0.93331
 C109 C 0.25353 0.60746 0.52878
 C110 C 0.24440 0.59934 0.51085
 C111 C 0.22651 0.59153 0.51362
 C112 C 0.21787 0.59169 0.53416
 C113 C 0.22693 0.59998 0.55195
 C114 C 0.24473 0.60797 0.54923
 C115 C 0.25340 0.59933 0.48916
 C116 C 0.27131 0.59159 0.48644
 C117 C 0.28002 0.59182 0.46596
 C118 C 0.27101 0.60011 0.44814
 C119 C 0.25319 0.60803 0.45080
 C120 C 0.24431 0.60745 0.47121
 H121 H 0.26722 0.61384 0.52665
 H122 H 0.21940 0.58522 0.49983
 H123 H 0.27839 0.58529 0.50026
 H124 H 0.23062 0.61380 0.47330
 H125 H 0.22007 0.60045 0.56776
 H126 H 0.27794 0.60065 0.43238
 C127 C 0.74579 0.89157 0.52613
 C128 C 0.75478 0.90009 0.50829
 C129 C 0.77266 0.90793 0.51102
 C130 C 0.78143 0.90739 0.53143
 C131 C 0.77249 0.89869 0.54912
 C132 C 0.75470 0.89069 0.54643
 C133 C 0.74561 0.90065 0.48676
 C134 C 0.72756 0.90820 0.48467
 C135 C 0.71881 0.90873 0.46427
 C136 C 0.72793 0.90141 0.44590
 C137 C 0.74588 0.89368 0.44791
 C138 C 0.75479 0.89349 0.46825
 H139 H 0.73211 0.88521 0.52404
 H140 H 0.77961 0.91459 0.49729
 H141 H 0.72043 0.91383 0.49888
 H142 H 0.76861 0.88734 0.46980
 H143 H 0.77939 0.89795 0.56486
 H144 H 0.72100 0.90153 0.43017
 C145 C -0.02339 0.24187 0.37150
 C146 C -0.00666 0.24114 0.38346
 C147 C -0.00213 0.22488 0.39522
 C148 C -0.01437 0.20948 0.39519
 C149 C -0.03099 0.21024 0.38305
 C150 C -0.03548 0.22637 0.37112
 C151 C 0.00620 0.25731 0.38337
 C152 C 0.00162 0.27364 0.39500
 C153 C 0.01385 0.28904 0.39479
 C154 C 0.03049 0.28823 0.38261
 C155 C 0.03502 0.27203 0.37081
 C156 C 0.02296 0.25653 0.37136
 H157 H -0.02681 0.25439 0.36232
 H158 H 0.01079 0.22435 0.40449
 H159 H -0.01130 0.27427 0.40432
 H160 H 0.02646 0.24398 0.36225
 H161 H -0.04042 0.19829 0.38289
 H162 H 0.03989 0.30017 0.38231
 C163 C -0.02252 0.75714 0.12785
 C164 C -0.00554 0.75782 0.11625
 C165 C -0.00052 0.77421 0.10497
 C166 C -0.01250 0.78976 0.10511
 C167 C -0.02936 0.78907 0.11689
 C168 C -0.03435 0.77281 0.12837
 C169 C 0.00710 0.74150 0.11625
 C170 C 0.00231 0.72521 0.10468
 C171 C 0.01439 0.70971 0.10472
 C172 C 0.03109 0.71039 0.11671
 C173 C 0.03582 0.72655 0.12845
 C174 C 0.02392 0.74214 0.12804
 H175 H -0.02632 0.74452 0.13670
 H176 H 0.01258 0.77476 0.09597
 H177 H -0.01066 0.72474 0.09551
 H178 H 0.02759 0.75467 0.13709
 H179 H -0.03853 0.80118 0.11713
 H180 H 0.04043 0.69840 0.11691
 C181 C 0.47764 0.25765 0.62804
 C182 C 0.49454 0.25832 0.61629
 C183 C 0.49946 0.27469 0.60491
 C184 C 0.48745 0.29022 0.60511
 C185 C 0.47067 0.28952 0.61704
 C186 C 0.46580 0.27329 0.62861
 C187 C 0.50719 0.24202 0.61627
 C188 C 0.50245 0.22575 0.60463
 C189 C 0.51450 0.21025 0.60474
 C190 C 0.53112 0.21087 0.61685
 C191 C 0.53582 0.22699 0.62867
 C192 C 0.52395 0.24261 0.62820
 H193 H 0.47389 0.24508 0.63699
 H194 H 0.51250 0.27524 0.59579
 H195 H 0.48954 0.22527 0.59536
 H196 H 0.52758 0.25511 0.63732
 H197 H 0.46145 0.30159 0.61736
 H198 H 0.54038 0.19883 0.61707
 C199 C 0.47623 0.74241 0.87192
 C200 C 0.49302 0.74160 0.88375
 C201 C 0.49759 0.72527 0.89534
 C202 C 0.48533 0.70988 0.89527
 C203 C 0.46866 0.71074 0.88324
 C204 C 0.46414 0.72694 0.87149
 C205 C 0.50590 0.75775 0.88367
 C206 C 0.50137 0.77409 0.89533
 C207 C 0.51362 0.78946 0.89512
 C208 C 0.53025 0.78863 0.88290
 C209 C 0.53473 0.77244 0.87107
 C210 C 0.52265 0.75696 0.87163
 H211 H 0.47273 0.75496 0.86284
 H212 H 0.51056 0.72466 0.90451
 H213 H 0.48846 0.77473 0.90467
 H214 H 0.52610 0.74442 0.86248
 H215 H 0.45919 0.69883 0.88300
 H216 H 0.53967 0.80056 0.88260
 C217 C -0.27553 0.58952 0.99718
 C218 C -0.25962 0.59887 1.00510
 C219 C -0.26061 0.60862 1.02496
 C220 C -0.27745 0.60920 1.03672
 C221 C -0.29322 0.59971 1.02891
 C222 C -0.29227 0.58978 1.00921
 C223 C -0.24206 0.59885 0.99244
 C224 C -0.24100 0.60864 0.97261
 C225 C -0.22411 0.60921 0.96089
 C226 C -0.20840 0.59965 0.96875
 C227 C -0.20945 0.58972 0.98841
 C228 C -0.22621 0.58946 1.00038
 H229 H -0.27476 0.58196 0.98185
 H230 H -0.24840 0.61605 1.03097
 H231 H -0.25319 0.61610 0.96663
 H232 H -0.22698 0.58189 1.01569
 H233 H -0.30623 0.60014 1.03813
 H234 H -0.19531 0.60001 0.95967
 C235 C -0.27613 0.41138 0.50364
 C236 C -0.26023 0.40177 0.49607
 C237 C -0.26126 0.39117 0.47683
 C238 C -0.27814 0.39002 0.46532
 C239 C -0.29392 0.39976 0.47276
 C240 C -0.29292 0.41051 0.49186
 C241 C -0.24265 0.40233 0.50853
 C242 C -0.24135 0.39278 0.52849
 C243 C -0.22440 0.39258 0.53994
 C244 C -0.20885 0.40224 0.53172
 C245 C -0.21012 0.41193 0.51192
 C246 C -0.22695 0.41185 0.50021
 H247 H -0.27533 0.41957 0.51852
 H248 H -0.24906 0.38355 0.47112
 H249 H -0.25337 0.38517 0.53477
 H250 H -0.22789 0.41919 0.48476
 H251 H -0.30696 0.39888 0.46374
 H252 H -0.19573 0.40209 0.54062
 C253 C 0.22575 -0.08889 0.00110
 C254 C 0.24147 -0.09876 -0.00650
 C255 C 0.24028 -0.10923 -0.02582
 C256 C 0.22339 -0.10999 -0.03740
 C257 C 0.20779 -0.09998 -0.02989
 C258 C 0.20898 -0.08939 -0.01071
 C259 C 0.25898 -0.09873 0.00610
 C260 C 0.26016 -0.10914 0.02547
 C261 C 0.27704 -0.10985 0.03706
 C262 C 0.29264 -0.09983 0.02951
 C263 C 0.29147 -0.08930 0.01029
 C264 C 0.27470 -0.08887 -0.00153
 H265 H 0.22662 -0.08085 0.01608
 H266 H 0.25237 -0.11708 -0.03149
 H267 H 0.24806 -0.11698 0.03116
 H268 H 0.27385 -0.08087 -0.01654
 H269 H 0.19470 -0.10052 -0.03883
 H270 H 0.30574 -0.10034 0.03846
 C271 C 0.22485 1.09046 0.49688
 C272 C 0.24091 1.09939 0.50504
 C273 C 0.24001 1.10896 0.52502
 C274 C 0.22311 1.10979 0.53665
 C275 C 0.20719 1.10071 0.52859
 C276 C 0.20806 1.09097 0.50878
 C277 C 0.25852 1.09916 0.49247
 C278 C 0.25972 1.10881 0.47256
 C279 C 0.27665 1.10921 0.46092
 C280 C 0.29228 1.09961 0.46894
 C281 C 0.29108 1.08980 0.48868
 C282 C 0.27429 1.08973 0.50057
 H283 H 0.22548 1.08303 0.48147
 H284 H 0.25232 1.11609 0.53122
 H285 H 0.24760 1.11631 0.46645
 H286 H 0.27341 1.08225 0.51594
 H287 H 0.19412 1.10130 0.53765
 H288 H 0.30539 1.09983 0.45992
 C289 C 0.14228 0.49529 0.22111
 C290 C 0.15055 0.50427 0.23905
 C291 C 0.15849 0.52210 0.23639
 C292 C 0.15833 0.53083 0.21594
 C293 C 0.14989 0.52193 0.19813
 C294 C 0.14176 0.50419 0.20075
 C295 C 0.15053 0.49520 0.26066
 C296 C 0.15828 0.47730 0.26324
 C297 C 0.15806 0.46856 0.28368
 C298 C 0.14976 0.47754 0.30158
 C299 C 0.14184 0.49535 0.29905
 C300 C 0.14242 0.50426 0.27870
 H301 H 0.13579 0.48166 0.22316
 H302 H 0.16490 0.52910 0.25019
 H303 H 0.16459 0.47025 0.24937
 H304 H 0.13607 0.51795 0.27671
 H305 H 0.14942 0.52887 0.18239
 H306 H 0.14924 0.47059 0.31731
 C307 C -0.14167 1.00448 0.22094
 C308 C -0.14985 0.99534 0.23888
 C309 C -0.15762 0.97745 0.23619
 C310 C -0.15737 0.96878 0.21569
 C311 C -0.14902 0.97784 0.19785
 C312 C -0.14106 0.99566 0.20051
 C313 C -0.14994 1.00433 0.26054
 C314 C -0.15780 1.02219 0.26322
 C315 C -0.15769 1.03087 0.28372
 C316 C -0.14939 1.02185 0.30156
 C317 C -0.14137 1.00408 0.29891
 C318 C -0.14183 0.99526 0.27851
 H319 H -0.13534 1.01817 0.22308
 H320 H -0.16397 0.97038 0.25004
 H321 H -0.16409 1.02921 0.24936
 H322 H -0.13541 0.98161 0.27644
 H323 H -0.14848 0.97096 0.18206
 H324 H -0.14893 1.02871 0.31736
 C325 C 0.35839 0.50497 -0.27664
 C326 C 0.34993 0.49593 -0.25879
 C327 C 0.34225 0.47800 -0.26153
 C328 C 0.34288 0.46921 -0.28193
 C329 C 0.35150 0.47816 -0.29964
 C330 C 0.35936 0.49602 -0.29697
 C331 C 0.34932 0.50509 -0.23722
 C332 C 0.34165 0.52307 -0.23502
 C333 C 0.34104 0.53180 -0.21455
 C334 C 0.34844 0.52270 -0.19625
 C335 C 0.35629 0.50480 -0.19840
 C336 C 0.35655 0.49594 -0.21879
 H337 H 0.36463 0.51871 -0.27450
 H338 H 0.33563 0.47098 -0.24782
 H339 H 0.33598 0.53014 -0.24922
 H340 H 0.36279 0.48217 -0.22043
 H341 H 0.35226 0.47115 -0.31533
 H342 H 0.34829 0.52955 -0.18044
 C343 C 0.64171 -0.00448 -0.27988
 C344 C 0.65001 0.00457 -0.26200
 C345 C 0.65789 0.02241 -0.26475
 C346 C 0.65765 0.03110 -0.28522
 C347 C 0.64919 0.02213 -0.30298
 C348 C 0.64110 0.00437 -0.30028
 C349 C 0.65011 -0.00445 -0.24035
 C350 C 0.65789 -0.02234 -0.23777
 C351 C 0.65780 -0.03103 -0.21729
 C352 C 0.64962 -0.02200 -0.19936
 C353 C 0.64167 -0.00419 -0.20189
 C354 C 0.64211 0.00465 -0.22228
 H355 H 0.63528 -0.01814 -0.27769
 H356 H 0.66433 0.02946 -0.25099
 H357 H 0.66411 -0.02943 -0.25167
 H358 H 0.63575 0.01834 -0.22426
 H359 H 0.64869 0.02908 -0.31872
 H360 H 0.64920 -0.02890 -0.18360
 C361 C -0.00701 0.22716 0.87877
 C362 C -0.00779 0.24396 0.86690
 C363 C -0.02410 0.24852 0.85528
 C364 C -0.03947 0.23627 0.85538
 C365 C -0.03866 0.21960 0.86743
 C366 C -0.02249 0.21508 0.87922
 C367 C 0.00838 0.25681 0.86688
 C368 C 0.02474 0.25222 0.85526
 C369 C 0.04012 0.26446 0.85534
 C370 C 0.03928 0.28113 0.86739
 C371 C 0.02305 0.28568 0.87918
 C372 C 0.00756 0.27361 0.87874
 H373 H 0.00552 0.22366 0.88786
 H374 H -0.02473 0.26146 0.84605
 H375 H 0.02539 0.23927 0.84604
 H376 H -0.00502 0.27713 0.88784
 H377 H -0.05059 0.21017 0.86764
 H378 H 0.05122 0.29054 0.86759
 C379 C 0.50843 0.22690 0.12191
 C380 C 0.50917 0.24364 0.13389
 C381 C 0.52537 0.24810 0.14578
 C382 C 0.54067 0.23578 0.14585
 C383 C 0.53990 0.21916 0.13370
 C384 C 0.52384 0.21475 0.12164
 C385 C 0.49305 0.25652 0.13379
 C386 C 0.47666 0.25201 0.14542
 C387 C 0.46130 0.26424 0.14520
 C388 C 0.46220 0.28083 0.13302
 C389 C 0.47844 0.28531 0.12122
 C390 C 0.49391 0.27324 0.12177
 H391 H 0.49597 0.22348 0.11262
 H392 H 0.52596 0.26099 0.15510
 H393 H 0.47597 0.23911 0.15474
 H394 H 0.50650 0.27669 0.11265
 H395 H 0.55177 0.20968 0.13363
 H396 H 0.45027 0.29024 0.13272
 C397 C 0.00663 0.72653 0.62164
 C398 C 0.00746 0.74332 0.63353
 C399 C 0.02379 0.74787 0.64513
 C400 C 0.03913 0.73561 0.64500
 C401 C 0.03827 0.71895 0.63294
 C402 C 0.02208 0.71443 0.62116
 C403 C -0.00868 0.75619 0.63359
 C404 C -0.02504 0.75159 0.64523
 C405 C -0.04040 0.76385 0.64522
 C406 C -0.03950 0.78055 0.63320
 C407 C -0.02328 0.78510 0.62139
 C408 C -0.00783 0.77300 0.62176
 H409 H -0.00592 0.72305 0.61256
 H410 H 0.02445 0.76080 0.65438
 H411 H -0.02567 0.73861 0.65441
 H412 H 0.00474 0.77652 0.61264
 H413 H 0.05018 0.70951 0.63271
 H414 H -0.05139 0.79002 0.63301
 C415 C 0.49319 0.72712 0.37833
 C416 C 0.49255 0.74378 0.36620
 C417 C 0.47632 0.74831 0.35441
 C418 C 0.46089 0.73613 0.35459
 C419 C 0.46155 0.71959 0.36688
 C420 C 0.47764 0.71511 0.37884
 C421 C 0.50874 0.75661 0.36620
 C422 C 0.52507 0.75206 0.35449
 C423 C 0.54047 0.76428 0.35462
 C424 C 0.53967 0.78089 0.36678
 C425 C 0.52347 0.78540 0.37865
 C426 C 0.50797 0.77334 0.37819
 H427 H 0.50565 0.72366 0.38757
 H428 H 0.47580 0.76117 0.34502
 H429 H 0.52569 0.73916 0.34518
 H430 H 0.49542 0.77682 0.38735
 H431 H 0.44957 0.71023 0.36716
 H432 H 0.55162 0.79029 0.36701
 B433 B -0.01546 0.01373 1.01270
 B434 B -0.02309 0.00871 0.98772
 B435 B -0.00638 0.02473 0.99117
 B436 B 0.00775 0.01803 1.01175
 B437 B -0.00069 -0.00306 1.02091
 B438 B -0.02013 -0.00865 1.00593
 B439 B 0.00973 -0.00715 0.97830
 B440 B 0.01739 -0.00213 1.00328
 B441 B 0.00066 -0.01815 0.99983
 B442 B -0.01346 -0.01143 0.97926
 B443 B -0.00502 0.00963 0.97009
 B444 B 0.01442 0.01524 0.98506
 B445 B 0.48378 0.51434 0.51363
 B446 B 0.47602 0.50958 0.48862
 B447 B 0.49280 0.52552 0.49219
 B448 B 0.50700 0.51856 0.51259
 B449 B 0.49852 0.49742 0.52152
 B450 B 0.47900 0.49203 0.50659
 B451 B 0.50875 0.49371 0.47880
 B452 B 0.51654 0.49845 0.50380
 B453 B 0.49973 0.48252 0.50023
 B454 B 0.48555 0.48949 0.47984
 B455 B 0.49402 0.51062 0.47091
 B456 B 0.51354 0.51602 0.48583
 B457 B 0.51510 0.98646 0.51261
 B458 B 0.52272 0.99133 0.48753
 B459 B 0.50602 0.97532 0.49124
 B460 B 0.49189 0.98214 0.51187
 B461 B 0.50033 1.00329 0.52079
 B462 B 0.51975 1.00881 0.50562
 B463 B 0.48988 1.00711 0.47823
 B464 B 0.48224 1.00225 0.50331
 B465 B 0.49896 1.01826 0.49959
 B466 B 0.51307 1.01142 0.47897
 B467 B 0.50464 0.99029 0.47005
 B468 B 0.48521 0.98476 0.48521
 B469 B 0.01497 0.48699 1.01272
 B470 B 0.02274 0.49192 0.98772
 B471 B 0.00599 0.47592 0.99125
 B472 B -0.00824 0.48271 1.01180
 B473 B 0.00018 0.50382 1.02086
 B474 B 0.01970 0.50934 1.00585
 B475 B -0.01004 0.50777 0.97824
 B476 B -0.01782 0.50284 1.00324
 B477 B -0.00106 0.51884 0.99971
 B478 B 0.01316 0.51204 0.97917
 B479 B 0.00474 0.49095 0.97010
 B480 B -0.01477 0.48540 0.98510
 B481 B 0.01491 0.51311 0.48749
 B482 B 0.02237 0.50812 0.51255
 B483 B 0.00569 0.52412 0.50892
 B484 B -0.00830 0.51736 0.48821
 B485 B 0.00020 0.49629 0.47916
 B486 B 0.01953 0.49074 0.49433
 B487 B -0.01053 0.49222 0.52167
 B488 B -0.01801 0.49720 0.49661
 B489 B -0.00131 0.48120 0.50025
 B490 B 0.01267 0.48797 0.52094
 B491 B 0.00417 0.50903 0.53000
 B492 B -0.01516 0.51459 0.51484
 B493 B 0.51617 0.01357 -0.01223
 B494 B 0.52363 0.00856 0.01282
 B495 B 0.50700 0.02461 0.00921
 B496 B 0.49297 0.01791 -0.01147
 B497 B 0.50138 -0.00321 -0.02053
 B498 B 0.52071 -0.00882 -0.00539
 B499 B 0.49069 -0.00723 0.02200
 B500 B 0.48320 -0.00222 -0.00305
 B501 B 0.49985 -0.01828 0.00056
 B502 B 0.51387 -0.01155 0.02123
 B503 B 0.50545 0.00954 0.03029
 B504 B 0.48613 0.01517 0.01517
 B505 B 0.48450 0.48614 -0.01368
 B506 B 0.47679 0.49108 0.01133
 B507 B 0.49365 0.47525 0.00780
 B508 B 0.50775 0.48211 -0.01286
 B509 B 0.49912 0.50309 -0.02199
 B510 B 0.47961 0.50847 -0.00691
 B511 B 0.50945 0.50732 0.02056
 B512 B 0.51718 0.50238 -0.00445
 B513 B 0.50030 0.51821 -0.00092
 B514 B 0.48621 0.51134 0.01973
 B515 B 0.49485 0.49037 0.02886
 B516 B 0.51436 0.48498 0.01379
 B517 B -0.01606 0.98652 0.48775
 B518 B -0.02404 0.99161 0.51262
 B519 B -0.00727 0.97562 0.50943
 B520 B 0.00713 0.98230 0.48898
 B521 B -0.00120 1.00333 0.47962
 B522 B -0.02085 1.00892 0.49435
 B523 B 0.00865 1.00760 0.52232
 B524 B 0.01664 1.00252 0.49745
 B525 B -0.00015 1.01851 0.50064
 B526 B -0.01454 1.01181 0.52108
 B527 B -0.00620 0.99081 0.53045
 B528 B 0.01344 0.98520 0.51573
 B529 B 0.76415 0.23375 0.23843
 B530 B 0.75928 0.22560 0.26328
 B531 B 0.77526 0.24240 0.26005
 B532 B 0.76840 0.25694 0.23989
 B533 B 0.74727 0.24865 0.23077
 B534 B 0.74180 0.22890 0.24533
 B535 B 0.74341 0.25817 0.27367
 B536 B 0.74826 0.26635 0.24882
 B537 B 0.73228 0.24953 0.25205
 B538 B 0.73916 0.23501 0.27219
 B539 B 0.76027 0.24330 0.28132
 B540 B 0.76576 0.26303 0.26677
 B541 B 0.73595 0.76542 0.73619
 B542 B 0.74074 0.77315 0.76120
 B543 B 0.72478 0.75639 0.75765
 B544 B 0.73171 0.74220 0.73714
 B545 B 0.75286 0.75068 0.72814
 B546 B 0.75827 0.77018 0.74313
 B547 B 0.75662 0.74042 0.77079
 B548 B 0.75184 0.73266 0.74578
 B549 B 0.76779 0.74945 0.74934
 B550 B 0.76085 0.76361 0.76983
 B551 B 0.73972 0.75514 0.77884
 B552 B 0.73429 0.73564 0.76386
 B553 B 0.26448 0.26553 0.76310
 B554 B 0.25955 0.27331 0.73815
 B555 B 0.27553 0.25658 0.74155
 B556 B 0.26873 0.24234 0.76206
 B557 B 0.24762 0.25073 0.77124
 B558 B 0.24211 0.27025 0.75633
 B559 B 0.24364 0.24056 0.72858
 B560 B 0.24856 0.23276 0.75353
 B561 B 0.23258 0.24951 0.75013
 B562 B 0.23941 0.26374 0.72963
 B563 B 0.26049 0.25534 0.72045
 B564 B 0.26601 0.23583 0.73534
 B565 B 0.23690 0.73418 0.26213
 B566 B 0.24212 0.72636 0.23724
 B567 B 0.22603 0.74302 0.24046
 B568 B 0.23257 0.75735 0.26097
 B569 B 0.25361 0.74908 0.27033
 B570 B 0.25936 0.72955 0.25553
 B571 B 0.25798 0.75917 0.22766
 B572 B 0.25277 0.76701 0.25255
 B573 B 0.26886 0.75032 0.24933
 B574 B 0.26231 0.73600 0.22883
 B575 B 0.24128 0.74428 0.21947
 B576 B 0.23552 0.76380 0.23425
 B577 B 0.26315 0.73400 0.73756
 B578 B 0.25806 0.72633 0.76255
 B579 B 0.27409 0.74306 0.75908
 B580 B 0.26742 0.75720 0.73846
 B581 B 0.24636 0.74874 0.72931
 B582 B 0.24074 0.72929 0.74433
 B583 B 0.24213 0.75912 0.77189
 B584 B 0.24721 0.76680 0.74690
 B585 B 0.23119 0.75006 0.75038
 B586 B 0.23788 0.73593 0.77098
 B587 B 0.25892 0.74438 0.78014
 B588 B 0.26455 0.76383 0.76514
 B589 B 0.23640 0.26518 0.23628
 B590 B 0.24118 0.27288 0.26131
 B591 B 0.22527 0.25608 0.25772
 B592 B 0.23222 0.24195 0.23717
 B593 B 0.25334 0.25049 0.22818
 B594 B 0.25871 0.26998 0.24322
 B595 B 0.25716 0.24016 0.27080
 B596 B 0.25238 0.23244 0.24577
 B597 B 0.26828 0.24926 0.24937
 B598 B 0.26132 0.26337 0.26990
 B599 B 0.24022 0.25483 0.27890
 B600 B 0.23483 0.23535 0.26387
 B601 B 0.76489 0.76623 0.26174
 B602 B 0.75989 0.77392 0.23677
 B603 B 0.77588 0.75721 0.24017
 B604 B 0.76914 0.74303 0.26077
 B605 B 0.74806 0.75145 0.27001
 B606 B 0.74251 0.77092 0.25505
 B607 B 0.74394 0.74114 0.22742
 B608 B 0.74895 0.73342 0.25238
 B609 B 0.73296 0.75016 0.24898
 B610 B 0.73971 0.76432 0.22839
 B611 B 0.76077 0.75589 0.21915
 B612 B 0.76634 0.73643 0.23410
 B613 B 0.73644 0.23361 0.76320
 B614 B 0.74149 0.22626 0.73807
 B615 B 0.72544 0.24288 0.74186
 B616 B 0.73213 0.25681 0.76267
 B617 B 0.75323 0.24833 0.77162
 B618 B 0.75885 0.22907 0.75629
 B619 B 0.75733 0.25921 0.72920
 B620 B 0.75230 0.26658 0.75432
 B621 B 0.76834 0.24994 0.75052
 B622 B 0.76163 0.23603 0.72973
 B623 B 0.74056 0.24451 0.72077
 B624 B 0.73492 0.26376 0.73610
 C625 C 0.36851 1.02771 0.30757
 C626 C 0.37789 1.02913 0.32382
 C627 C 0.38946 1.03078 0.34290
 C628 C 0.40417 1.04376 0.34328
 C629 C 0.41614 1.04464 0.36127
 C630 C 0.41353 1.03252 0.37913
 C631 C 0.39843 1.01982 0.37880
 C632 C 0.38649 1.01895 0.36078
 C633 C 0.42711 1.03226 0.39743
 C634 C 0.42095 1.02969 0.41907
 C635 C 0.43390 1.02737 0.43593
 C636 C 0.45314 1.02766 0.43139
 C637 C 0.45940 1.03093 0.41007
 C638 C 0.44649 1.03327 0.39320
 C639 C 0.46628 1.02233 0.44797
 C640 C 0.47700 1.01654 0.46151
 H641 H 0.40656 1.05301 0.32952
 H642 H 0.42752 1.05469 0.36115
 H643 H 0.39623 1.01010 0.39214
 H644 H 0.37519 1.00880 0.36061
 H645 H 0.40613 1.02907 0.42286
 H646 H 0.42891 1.02471 0.45236
 H647 H 0.47426 1.03092 0.40635
 H648 H 0.45168 1.03497 0.37669
 C649 C -0.13107 0.52816 0.80726
 C650 C -0.12162 0.52960 0.82345
 C651 C -0.11002 0.53129 0.84251
 C652 C -0.09517 0.54412 0.84273
 C653 C -0.08322 0.54506 0.86073
 C654 C -0.08598 0.53315 0.87876
 C655 C -0.10120 0.52059 0.87857
 C656 C -0.11312 0.51967 0.86054
 C657 C -0.07243 0.53294 0.89710
 C658 C -0.07865 0.53063 0.91875
 C659 C -0.06576 0.52834 0.93568
 C660 C -0.04652 0.52840 0.93118
 C661 C -0.04018 0.53143 0.90985
 C662 C -0.05304 0.53374 0.89291
 C663 C -0.03346 0.52306 0.94785
 C664 C -0.02281 0.51725 0.96145
 H665 H -0.09267 0.55321 0.82886
 H666 H -0.07174 0.55499 0.86050
 H667 H -0.10353 0.51104 0.89203
 H668 H -0.12453 0.50964 0.86050
 H669 H -0.09349 0.53018 0.92251
 H670 H -0.07081 0.52586 0.95213
 H671 H -0.02532 0.53125 0.90616
 H672 H -0.04780 0.53525 0.87640
 C673 C 0.13087 -0.02838 0.80691
 C674 C 0.12148 -0.02982 0.82320
 C675 C 0.10993 -0.03149 0.84237
 C676 C 0.11300 -0.01975 0.86029
 C677 C 0.10109 -0.02061 0.87841
 C678 C 0.08591 -0.03322 0.87881
 C679 C 0.08319 -0.04525 0.86091
 C680 C 0.09514 -0.04437 0.84281
 C681 C 0.07234 -0.03291 0.89721
 C682 C 0.05296 -0.03377 0.89311
 C683 C 0.04006 -0.03133 0.91008
 C684 C 0.04636 -0.02811 0.93135
 C685 C 0.06559 -0.02800 0.93576
 C686 C 0.07852 -0.03041 0.91881
 C687 C 0.03326 -0.02263 0.94800
 C688 C 0.02257 -0.01671 0.96157
 H689 H 0.12437 -0.00968 0.86008
 H690 H 0.10338 -0.01097 0.89178
 H691 H 0.07174 -0.05522 0.86084
 H692 H 0.09266 -0.05354 0.82902
 H693 H 0.04775 -0.03541 0.87664
 H694 H 0.02521 -0.03120 0.90645
 H695 H 0.07060 -0.02537 0.95216
 H696 H 0.09334 -0.02991 0.92250
 C697 C 0.62887 0.47370 0.30575
 C698 C 0.61917 0.47252 0.32182
 C699 C 0.60743 0.47103 0.34086
 C700 C 0.59234 0.45848 0.34107
 C701 C 0.58047 0.45753 0.35923
 C702 C 0.58357 0.46913 0.37743
 C703 C 0.59899 0.48145 0.37720
 C704 C 0.61082 0.48239 0.35902
 C705 C 0.57023 0.46922 0.39606
 C706 C 0.57673 0.47107 0.41762
 C707 C 0.56405 0.47319 0.43489
 C708 C 0.54477 0.47341 0.43083
 C709 C 0.53816 0.47085 0.40957
 C710 C 0.55079 0.46871 0.39229
 C711 C 0.53195 0.47861 0.44790
 C712 C 0.52145 0.48432 0.46179
 H713 H 0.58964 0.44958 0.32710
 H714 H 0.56884 0.44778 0.35901
 H715 H 0.60157 0.49077 0.39081
 H716 H 0.62244 0.49218 0.35900
 H717 H 0.59160 0.47127 0.42106
 H718 H 0.56931 0.47532 0.45128
 H719 H 0.52326 0.47126 0.40622
 H720 H 0.54535 0.46756 0.37587
 C721 C 0.63097 0.52862 0.19073
 C722 C 0.62147 0.53003 0.17459
 C723 C 0.60978 0.53170 0.15561
 C724 C 0.59479 0.54433 0.15559
 C725 C 0.58276 0.54523 0.13766
 C726 C 0.58558 0.53348 0.11951
 C727 C 0.60095 0.52113 0.11949
 C728 C 0.61296 0.52025 0.13745
 C729 C 0.57195 0.53320 0.10126
 C730 C 0.57808 0.53111 0.07955
 C731 C 0.56513 0.52872 0.06270
 C732 C 0.54591 0.52847 0.06734
 C733 C 0.53965 0.53128 0.08874
 C734 C 0.55257 0.53368 0.10560
 C735 C 0.53284 0.52297 0.05075
 C736 C 0.52219 0.51701 0.03723
 H737 H 0.59224 0.55328 0.16956
 H738 H 0.57116 0.55500 0.13805
 H739 H 0.60333 0.51170 0.10593
 H740 H 0.62448 0.51037 0.13733
 H741 H 0.59290 0.53090 0.07568
 H742 H 0.57012 0.52640 0.04620
 H743 H 0.52482 0.53084 0.09254
 H744 H 0.54740 0.53501 0.12216
 C745 C 0.12895 1.02813 0.69421
 C746 C 0.11885 1.02941 0.67855
 C747 C 0.10642 1.03081 0.66020
 C748 C 0.08802 1.02423 0.66207
 C749 C 0.07590 1.02520 0.64426
 C750 C 0.08204 1.03278 0.62427
 C751 C 0.10052 1.03954 0.62259
 C752 C 0.11263 1.03857 0.64048
 C753 C 0.06940 1.03273 0.60507
 C754 C 0.07620 1.02751 0.58436
 C755 C 0.06389 1.02530 0.56685
 C756 C 0.04468 1.02836 0.56978
 C757 C 0.03788 1.03434 0.59004
 C758 C 0.05016 1.03658 0.60757
 C759 C 0.03180 1.02304 0.55290
 C760 C 0.02128 1.01720 0.53917
 H761 H 0.08308 1.01817 0.67725
 H762 H 0.06188 1.01956 0.64597
 H763 H 0.10559 1.04559 0.60748
 H764 H 0.12684 1.04376 0.63890
 H765 H 0.09088 1.02425 0.58196
 H766 H 0.06925 1.02045 0.55128
 H767 H 0.02301 1.03661 0.59251
 H768 H 0.04456 1.04088 0.62323
 C769 C -0.13121 0.47143 0.69367
 C770 C -0.12191 0.47001 0.67730
 C771 C -0.11046 0.46834 0.65804
 C772 C -0.09586 0.45527 0.65739
 C773 C -0.08402 0.45436 0.63920
 C774 C -0.08666 0.46653 0.62142
 C775 C -0.10165 0.47933 0.62203
 C776 C -0.11345 0.48023 0.64025
 C777 C -0.07317 0.46678 0.60292
 C778 C -0.07943 0.46946 0.58139
 C779 C -0.06655 0.47179 0.56435
 C780 C -0.04730 0.47140 0.56863
 C781 C -0.04095 0.46799 0.58983
 C782 C -0.05379 0.46564 0.60687
 C783 C -0.03420 0.47680 0.55192
 C784 C -0.02348 0.48267 0.53834
 H785 H -0.09345 0.44598 0.67108
 H786 H -0.07272 0.44424 0.63910
 H787 H -0.10387 0.48909 0.60876
 H788 H -0.12467 0.49045 0.64063
 H789 H -0.09426 0.47018 0.57781
 H790 H -0.07161 0.47456 0.54801
 H791 H -0.02607 0.46791 0.59335
 H792 H -0.04853 0.46385 0.62330
 C793 C 0.36944 -0.02844 0.19356
 C794 C 0.37879 -0.02969 0.17722
 C795 C 0.39031 -0.03121 0.15801
 C796 C 0.40479 -0.04441 0.15721
 C797 C 0.41669 -0.04522 0.13908
 C798 C 0.41425 -0.03280 0.12149
 C799 C 0.39940 -0.01985 0.12224
 C800 C 0.38753 -0.01906 0.14041
 C801 C 0.42777 -0.03252 0.10303
 C802 C 0.42158 -0.02955 0.08152
 C803 C 0.43451 -0.02723 0.06454
 C804 C 0.45375 -0.02791 0.06884
 C805 C 0.46003 -0.03160 0.09002
 C806 C 0.44713 -0.03394 0.10700
 C807 C 0.46693 -0.02255 0.05221
 C808 C 0.47771 -0.01672 0.03867
 H809 H 0.40704 -0.05390 0.17075
 H810 H 0.42788 -0.05545 0.13887
 H811 H 0.39733 -0.00991 0.10913
 H812 H 0.37641 -0.00873 0.14090
 H813 H 0.40676 -0.02861 0.07792
 H814 H 0.42951 -0.02425 0.04822
 H815 H 0.47490 -0.03191 0.09356
 H816 H 0.45235 -0.03596 0.12341
 C817 C 0.29963 0.41485 0.03501
 C818 C 0.31494 0.42188 0.03641
 C819 C 0.33317 0.43044 0.03728
 C820 C 0.34929 0.41931 0.03658
 C821 C 0.36700 0.42768 0.03584
 C822 C 0.36878 0.44731 0.03572
 C823 C 0.35250 0.45837 0.03688
 C824 C 0.33481 0.44997 0.03764
 C825 C 0.38749 0.45619 0.03341
 C826 C 0.38997 0.47164 0.01942
 C827 C 0.40774 0.47945 0.01631
 C828 C 0.42323 0.47198 0.02719
 C829 C 0.42090 0.45677 0.04135
 C830 C 0.40313 0.44892 0.04447
 C831 C 0.44164 0.47921 0.02276
 C832 C 0.45708 0.48484 0.01831
 H833 H 0.34816 0.40417 0.03615
 H834 H 0.37926 0.41880 0.03467
 H835 H 0.35344 0.47351 0.03708
 H836 H 0.32241 0.45871 0.03815
 H837 H 0.37827 0.47735 0.01039
 H838 H 0.40945 0.49107 0.00511
 H839 H 0.43285 0.45083 0.04974
 H840 H 0.40163 0.43714 0.05547
 C841 C -0.20131 0.91525 0.53387
 C842 C -0.18605 0.92236 0.53547
 C843 C -0.16787 0.93099 0.53660
 C844 C -0.15170 0.91993 0.53604
 C845 C -0.13402 0.92837 0.53559
 C846 C -0.13231 0.94801 0.53562
 C847 C -0.14865 0.95900 0.53663
 C848 C -0.16631 0.95053 0.53710
 C849 C -0.11361 0.95697 0.53362
 C850 C -0.11103 0.97250 0.51978
 C851 C -0.09325 0.98032 0.51689
 C852 C -0.07783 0.97279 0.52787
 C853 C -0.08027 0.95754 0.54194
 C854 C -0.09805 0.94967 0.54482
 C855 C -0.05938 0.97998 0.52361
 C856 C -0.04387 0.98554 0.51932
 H857 H -0.15276 0.90479 0.53551
 H858 H -0.12172 0.91954 0.53452
 H859 H -0.14777 0.97414 0.53693
 H860 H -0.17875 0.95921 0.53750
 H861 H -0.12267 0.97824 0.51066
 H862 H -0.09145 0.99199 0.50577
 H863 H -0.06838 0.95156 0.55041
 H864 H -0.09963 0.93784 0.55574
 C865 C -0.20063 0.08341 0.96450
 C866 C -0.18531 0.07644 0.96304
 C867 C -0.16704 0.06801 0.96210
 C868 C -0.15098 0.07925 0.96291
 C869 C -0.13323 0.07100 0.96357
 C870 C -0.13134 0.05138 0.96350
 C871 C -0.14757 0.04021 0.96223
 C872 C -0.16530 0.04849 0.96155
 C873 C -0.11259 0.04263 0.96572
 C874 C -0.11009 0.02709 0.97955
 C875 C -0.09227 0.01946 0.98264
 C876 C -0.07677 0.02719 0.97191
 C877 C -0.07913 0.04246 0.95787
 C878 C -0.09694 0.05014 0.95477
 C879 C -0.05832 0.02017 0.97637
 C880 C -0.04284 0.01472 0.98082
 H881 H -0.15219 0.09437 0.96348
 H882 H -0.12103 0.07996 0.96484
 H883 H -0.14654 0.02508 0.96189
 H884 H -0.17765 0.03967 0.96096
 H885 H -0.12180 0.02120 0.98848
 H886 H -0.09054 0.00777 0.99374
 H887 H -0.06717 0.04860 0.94958
 H888 H -0.09846 0.06198 0.94387
 C889 C 0.29837 0.58377 0.46350
 C890 C 0.31374 0.57691 0.46216
 C891 C 0.33208 0.56861 0.46141
 C892 C 0.34804 0.57995 0.46263
 C893 C 0.36583 0.57182 0.46358
 C894 C 0.36785 0.55221 0.46338
 C895 C 0.35173 0.54094 0.46167
 C896 C 0.33396 0.54911 0.46071
 C897 C 0.38662 0.54356 0.46594
 C898 C 0.38900 0.52796 0.47969
 C899 C 0.40680 0.52039 0.48306
 C900 C 0.42242 0.52825 0.47269
 C901 C 0.42019 0.54360 0.45875
 C902 C 0.40240 0.55122 0.45537
 C903 C 0.44083 0.52120 0.47732
 C904 C 0.45628 0.51571 0.48183
 H905 H 0.34672 0.59506 0.46333
 H906 H 0.37795 0.58085 0.46518
 H907 H 0.35287 0.52582 0.46122
 H908 H 0.32168 0.54021 0.45980
 H909 H 0.37719 0.52195 0.48833
 H910 H 0.40843 0.50862 0.49407
 H911 H 0.43223 0.54983 0.45072
 H912 H 0.40097 0.56313 0.44454
 C913 C 0.19958 0.58350 0.53672
 C914 C 0.18427 0.57649 0.53821
 C915 C 0.16601 0.56799 0.53918
 C916 C 0.14993 0.57916 0.53822
 C917 C 0.13221 0.57084 0.53752
 C918 C 0.13036 0.55121 0.53769
 C919 C 0.14660 0.54012 0.53914
 C920 C 0.16431 0.54847 0.53985
 C921 C 0.11165 0.54237 0.53536
 C922 C 0.10927 0.52679 0.52157
 C923 C 0.09149 0.51908 0.51834
 C924 C 0.07590 0.52677 0.52890
 C925 C 0.07813 0.54208 0.54292
 C926 C 0.09590 0.54984 0.54615
 C927 C 0.05750 0.51968 0.52426
 C928 C 0.04206 0.51418 0.51965
 H929 H 0.15112 0.59428 0.53754
 H930 H 0.11999 0.57974 0.53612
 H931 H 0.14561 0.52498 0.53956
 H932 H 0.17668 0.53970 0.54057
 H933 H 0.12105 0.52092 0.51275
 H934 H 0.08986 0.50736 0.50726
 H935 H 0.06611 0.54818 0.55108
 H936 H 0.09733 0.56172 0.55702
 C937 C 0.70080 0.08381 0.03791
 C938 C 0.68549 0.07679 0.03938
 C939 C 0.66724 0.06828 0.04028
 C940 C 0.66553 0.04876 0.04088
 C941 C 0.64783 0.04041 0.04004
 C942 C 0.63159 0.05150 0.03855
 C943 C 0.63344 0.07113 0.03846
 C944 C 0.65116 0.07945 0.03928
 C945 C 0.61289 0.04267 0.03607
 C946 C 0.59710 0.05012 0.04679
 C947 C 0.57934 0.04237 0.04342
 C948 C 0.57717 0.02710 0.02934
 C949 C 0.59281 0.01943 0.01885
 C950 C 0.61057 0.02713 0.02221
 C951 C 0.55878 0.02003 0.02459
 C952 C 0.54335 0.01455 0.01992
 H953 H 0.67790 0.03999 0.04161
 H954 H 0.64683 0.02527 0.04041
 H955 H 0.62123 0.08004 0.03702
 H956 H 0.65234 0.09458 0.03864
 H957 H 0.59848 0.06197 0.05770
 H958 H 0.56729 0.04846 0.05153
 H959 H 0.59122 0.00774 0.00772
 H960 H 0.62239 0.02128 0.01345
 C961 C 0.70042 0.91678 0.46238
 C962 C 0.68504 0.92367 0.46136
 C963 C 0.66673 0.93204 0.46086
 C964 C 0.65072 0.92074 0.46193
 C965 C 0.63295 0.92892 0.46286
 C966 C 0.63099 0.94854 0.46281
 C967 C 0.64716 0.95976 0.46132
 C968 C 0.66492 0.95155 0.46037
 C969 C 0.61222 0.95723 0.46520
 C970 C 0.60970 0.97279 0.47901
 C971 C 0.59189 0.98044 0.48218
 C972 C 0.57639 0.97270 0.47155
 C973 C 0.57875 0.95739 0.45755
 C974 C 0.59656 0.94970 0.45437
 C975 C 0.55795 0.97978 0.47604
 C976 C 0.54247 0.98528 0.48054
 H977 H 0.65199 0.90562 0.46246
 H978 H 0.62078 0.91992 0.46429
 H979 H 0.64608 0.97489 0.46099
 H980 H 0.67723 0.96041 0.45957
 H981 H 0.62141 0.97871 0.48785
 H982 H 0.59015 0.99215 0.49325
 H983 H 0.56681 0.95125 0.44934
 H984 H 0.59810 0.93783 0.44350
 C985 C 0.20027 0.41668 0.96371
 C986 C 0.18494 0.42367 0.96267
 C987 C 0.16669 0.43215 0.96212
 C988 C 0.16499 0.45168 0.96193
 C989 C 0.14727 0.45998 0.96278
 C990 C 0.13102 0.44884 0.96386
 C991 C 0.13287 0.42921 0.96362
 C992 C 0.15060 0.42094 0.96279
 C993 C 0.11227 0.45761 0.96611
 C994 C 0.09670 0.45028 0.95493
 C995 C 0.07890 0.45804 0.95796
 C996 C 0.07646 0.47320 0.97215
 C997 C 0.09188 0.48073 0.98313
 C998 C 0.10968 0.47303 0.98011
 C999 C 0.05801 0.48032 0.97649
 C1000 C 0.04252 0.48585 0.98087
 H1001 H 0.17736 0.46048 0.96143
 H1002 H 0.14628 0.47512 0.96267
 H1003 H 0.12064 0.42027 0.96474
 H1004 H 0.15178 0.40581 0.96308
 H1005 H 0.09829 0.43854 0.94390
 H1006 H 0.06701 0.45205 0.94948
 H1007 H 0.09008 0.49233 0.99435
 H1008 H 0.12133 0.47878 0.98921
 C1009 C 0.00954 0.30565 0.40722
 C1010 C 0.00643 0.31970 0.41758
 C1011 C 0.00332 0.33667 0.42985
 C1012 C -0.01463 0.34448 0.43140
 C1013 C -0.01736 0.36134 0.44267
 C1014 C -0.00216 0.37060 0.45256
 C1015 C 0.01577 0.36248 0.45110
 C1016 C 0.01847 0.34566 0.43984
 C1017 C -0.00473 0.38901 0.46358
 C1018 C 0.00533 0.39339 0.48266
 C1019 C 0.00427 0.41131 0.49183
 C1020 C -0.00692 0.42508 0.48217
 C1021 C -0.01749 0.42068 0.46365
 C1022 C -0.01644 0.40278 0.45443
 C1023 C -0.00606 0.44414 0.48983
 C1024 C -0.00452 0.46032 0.49523
 H1025 H -0.02647 0.33764 0.42375
 H1026 H -0.03137 0.36712 0.44366
 H1027 H 0.02784 0.36938 0.45817
 H1028 H 0.03245 0.33981 0.43867
 H1029 H 0.01425 0.38305 0.49029
 H1030 H 0.01260 0.41457 0.50610
 H1031 H -0.02605 0.43128 0.45589
 H1032 H -0.02419 0.39996 0.43962
 C1033 C 0.50937 -0.19393 -0.09243
 C1034 C 0.50634 -0.17987 -0.08205
 C1035 C 0.50337 -0.16289 -0.06976
 C1036 C 0.51860 -0.15399 -0.05982
 C1037 C 0.51605 -0.13716 -0.04856
 C1038 C 0.49817 -0.12892 -0.04704
 C1039 C 0.48288 -0.13808 -0.05687
 C1040 C 0.48548 -0.15496 -0.06815
 C1041 C 0.49576 -0.11048 -0.03603
 C1042 C 0.48411 -0.09664 -0.04515
 C1043 C 0.48322 -0.07872 -0.03595
 C1044 C 0.49388 -0.07438 -0.01748
 C1045 C 0.50501 -0.08821 -0.00785
 C1046 C 0.50591 -0.10615 -0.01701
 C1047 C 0.49489 -0.05532 -0.00983
 C1048 C 0.49653 -0.03915 -0.00444
 H1049 H 0.53254 -0.15994 -0.06104
 H1050 H 0.52817 -0.13034 -0.04153
 H1051 H 0.46892 -0.13221 -0.05583
 H1052 H 0.47357 -0.16172 -0.07575
 H1053 H 0.47630 -0.09941 -0.05992
 H1054 H 0.47470 -0.06807 -0.04367
 H1055 H 0.51340 -0.08500 0.00638
 H1056 H 0.51479 -0.11655 -0.00940
 C1057 C -0.00767 -0.19357 1.09305
 C1058 C -0.00404 -0.17947 1.08300
 C1059 C -0.00022 -0.16246 1.07110
 C1060 C 0.00618 -0.14653 1.08213
 C1061 C 0.00874 -0.12966 1.07088
 C1062 C 0.00488 -0.12846 1.04840
 C1063 C -0.00118 -0.14466 1.03737
 C1064 C -0.00372 -0.16153 1.04865
 C1065 C 0.00621 -0.11016 1.03686
 C1066 C -0.00767 -0.10483 1.02181
 C1067 C -0.00740 -0.08700 1.01237
 C1068 C 0.00677 -0.07425 1.01773
 C1069 C 0.02098 -0.07960 1.03215
 C1070 C 0.02073 -0.09744 1.04163
 C1071 C 0.00565 -0.05519 1.01014
 C1072 C 0.00396 -0.03902 1.00480
 H1073 H 0.00884 -0.14705 1.09952
 H1074 H 0.01315 -0.11741 1.07994
 H1075 H -0.00407 -0.14426 1.02004
 H1076 H -0.00868 -0.17376 1.03993
 H1077 H -0.01918 -0.11416 1.01801
 H1078 H -0.01858 -0.08294 1.00143
 H1079 H 0.03196 -0.06981 1.03652
 H1080 H 0.03174 -0.10119 1.05293
 C1081 C 0.49217 0.30689 0.59298
 C1082 C 0.49570 0.32099 0.58288
 C1083 C 0.49938 0.33802 0.57094
 C1084 C 0.50604 0.35389 0.58186
 C1085 C 0.50848 0.37077 0.57060
 C1086 C 0.50423 0.37204 0.54822
 C1087 C 0.49791 0.35589 0.53729
 C1088 C 0.49550 0.33901 0.54859
 C1089 C 0.50545 0.39036 0.53670
 C1090 C 0.49135 0.39579 0.52199
 C1091 C 0.49154 0.41364 0.51259
 C1092 C 0.50586 0.42631 0.51767
 C1093 C 0.52028 0.42087 0.53175
 C1094 C 0.52011 0.40301 0.54118
 C1095 C 0.50470 0.44540 0.51018
 C1096 C 0.50299 0.46160 0.50496
 H1097 H 0.50900 0.35333 0.59918
 H1098 H 0.51309 0.38299 0.57959
 H1099 H 0.49472 0.35634 0.52003
 H1100 H 0.49033 0.32682 0.53995
 H1101 H 0.47973 0.38652 0.51842
 H1102 H 0.48019 0.41777 0.50192
 H1103 H 0.53137 0.43060 0.53591
 H1104 H 0.53129 0.39919 0.55222
 C1105 C 0.51004 1.19371 0.59226
 C1106 C 0.50683 1.17972 0.58185
 C1107 C 0.50364 1.16282 0.56952
 C1108 C 0.48566 1.15506 0.56805
 C1109 C 0.48285 1.13824 0.55674
 C1110 C 0.49802 1.12895 0.54675
 C1111 C 0.51599 1.13702 0.54812
 C1112 C 0.51876 1.15380 0.55942
 C1113 C 0.49539 1.11054 0.53575
 C1114 C 0.50546 1.10614 0.51663
 C1115 C 0.50440 1.08820 0.50752
 C1116 C 0.49320 1.07444 0.51729
 C1117 C 0.48259 1.07887 0.53585
 C1118 C 0.48364 1.09680 0.54500
 C1119 C 0.49411 1.05535 0.50974
 C1120 C 0.49569 1.03916 0.50445
 H1121 H 0.47384 1.16192 0.57579
 H1122 H 0.46882 1.13250 0.55582
 H1123 H 0.52803 1.13009 0.54098
 H1124 H 0.53276 1.15961 0.56054
 H1125 H 0.51441 1.11647 0.50892
 H1126 H 0.51275 1.08491 0.49322
 H1127 H 0.47402 1.06827 0.54368
 H1128 H 0.47589 1.09963 0.55985
 C1129 C 0.01015 0.69406 1.09292
 C1130 C 0.00690 0.68009 1.08249
 C1131 C 0.00369 0.66321 1.07013
 C1132 C -0.01429 0.65545 1.06867
 C1133 C -0.01712 0.63866 1.05731
 C1134 C -0.00196 0.62941 1.04724
 C1135 C 0.01601 0.63747 1.04861
 C1136 C 0.01879 0.65422 1.05996
 C1137 C -0.00460 0.61103 1.03618
 C1138 C 0.00545 0.60668 1.01702
 C1139 C 0.00438 0.58877 1.00784
 C1140 C -0.00680 0.57498 1.01758
 C1141 C -0.01738 0.57935 1.03617
 C1142 C -0.01633 0.59725 1.04540
 C1143 C -0.00589 0.55591 1.00996
 C1144 C -0.00431 0.53973 1.00462
 H1145 H -0.02610 0.66228 1.07646
 H1146 H -0.03114 0.63292 1.05639
 H1147 H 0.02804 0.63057 1.04141
 H1148 H 0.03280 0.66003 1.06107
 H1149 H 0.01438 0.61705 1.00933
 H1150 H 0.01271 0.58553 0.99352
 H1151 H -0.02594 0.56873 1.04399
 H1152 H -0.02406 0.60004 1.06027
 C1153 C 0.48941 0.69415 -0.09302
 C1154 C 0.49252 0.68008 -0.08271
 C1155 C 0.49558 0.66308 -0.07052
 C1156 C 0.48035 0.65391 -0.06080
 C1157 C 0.48301 0.63705 -0.04963
 C1158 C 0.50098 0.62906 -0.04799
 C1159 C 0.51626 0.63849 -0.05761
 C1160 C 0.51356 0.65538 -0.06879
 C1161 C 0.50351 0.61060 -0.03709
 C1162 C 0.51545 0.59697 -0.04619
 C1163 C 0.51648 0.57901 -0.03711
 C1164 C 0.50566 0.57443 -0.01877
 C1165 C 0.49423 0.58807 -0.00915
 C1166 C 0.49320 0.60603 -0.01819
 C1167 C 0.50484 0.55533 -0.01124
 C1168 C 0.50337 0.53913 -0.00591
 H1169 H 0.46635 0.65967 -0.06212
 H1170 H 0.47089 0.63003 -0.04277
 H1171 H 0.53029 0.63280 -0.05648
 H1172 H 0.52547 0.66235 -0.07624
 H1173 H 0.52341 0.59993 -0.06087
 H1174 H 0.52523 0.56852 -0.04483
 H1175 H 0.48572 0.58467 0.00498
 H1176 H 0.48409 0.61627 -0.01058
 C1177 C -0.01033 1.19383 0.40707
 C1178 C -0.00724 1.17984 0.41754
 C1179 C -0.00418 1.16294 0.42991
 C1180 C 0.01371 1.15498 0.43123
 C1181 C 0.01638 1.13815 0.44255
 C1182 C 0.00116 1.12905 0.45272
 C1183 C -0.01671 1.13732 0.45151
 C1184 C -0.01934 1.15411 0.44019
 C1185 C 0.00364 1.11063 0.46373
 C1186 C -0.00633 1.10636 0.48298
 C1187 C -0.00536 1.08845 0.49217
 C1188 C 0.00565 1.07457 0.48236
 C1189 C 0.01612 1.07885 0.46365
 C1190 C 0.01517 1.09675 0.45442
 C1191 C 0.00471 1.05554 0.49010
 C1192 C 0.00312 1.03938 0.49556
 H1193 H 0.02556 1.16169 0.42334
 H1194 H 0.03034 1.13226 0.44335
 H1195 H -0.02878 1.13055 0.45880
 H1196 H -0.03327 1.16008 0.43920
 H1197 H -0.01512 1.11680 0.49073
 H1198 H -0.01361 1.08528 0.50659
 H1199 H 0.02454 1.06817 0.45578
 H1200 H 0.02283 1.09948 0.43948
 C1201 C 0.77727 0.61957 0.94229
 C1202 C 0.77865 0.62900 0.92604
 C1203 C 0.78029 0.64059 0.90694
 C1204 C 0.76873 0.63739 0.88892
 C1205 C 0.76961 0.64930 0.87084
 C1206 C 0.78206 0.66461 0.87058
 C1207 C 0.79391 0.66747 0.88859
 C1208 C 0.79302 0.65553 0.90664
 C1209 C 0.78179 0.67814 0.85219
 C1210 C 0.78245 0.69753 0.85631
 C1211 C 0.78012 0.71036 0.83932
 C1212 C 0.77721 0.70401 0.81800
 C1213 C 0.77728 0.68478 0.81358
 C1214 C 0.77959 0.67190 0.83056
 C1215 C 0.77187 0.71704 0.80128
 C1216 C 0.76607 0.72766 0.78763
 H1217 H 0.75878 0.62592 0.88902
 H1218 H 0.76010 0.64690 0.85739
 H1219 H 0.80376 0.67901 0.88876
 H1220 H 0.80206 0.65810 0.92050
 H1221 H 0.78387 0.70278 0.87280
 H1222 H 0.77984 0.72522 0.84295
 H1223 H 0.77489 0.67971 0.79714
 H1224 H 0.77925 0.65708 0.82685
 C1225 C 0.27815 0.11946 0.44225
 C1226 C 0.27961 0.12880 0.42595
 C1227 C 0.28128 0.14033 0.40679
 C1228 C 0.29404 0.15523 0.40643
 C1229 C 0.29491 0.16716 0.38835
 C1230 C 0.28301 0.16431 0.37039
 C1231 C 0.27054 0.14901 0.37071
 C1232 C 0.26968 0.13712 0.38881
 C1233 C 0.28268 0.17785 0.35201
 C1234 C 0.28039 0.17162 0.33039
 C1235 C 0.27799 0.18450 0.31344
 C1236 C 0.27794 0.20374 0.31788
 C1237 C 0.28094 0.21008 0.33918
 C1238 C 0.28336 0.19723 0.35615
 C1239 C 0.27251 0.21677 0.30120
 C1240 C 0.26666 0.22740 0.28759
 H1241 H 0.30311 0.15782 0.42026
 H1242 H 0.30478 0.17869 0.38849
 H1243 H 0.26099 0.14661 0.35729
 H1244 H 0.25971 0.12567 0.38896
 H1245 H 0.28003 0.15680 0.32667
 H1246 H 0.27554 0.17945 0.29701
 H1247 H 0.28067 0.22493 0.34283
 H1248 H 0.28484 0.20247 0.37264
 C1249 C 0.72052 0.37834 0.44626
 C1250 C 0.71934 0.36831 0.43051
 C1251 C 0.71807 0.35604 0.41195
 C1252 C 0.72126 0.33684 0.41456
 C1253 C 0.72073 0.32490 0.39651
 C1254 C 0.71699 0.33203 0.37555
 C1255 C 0.71348 0.35132 0.37315
 C1256 C 0.71402 0.36324 0.39126
 C1257 C 0.71787 0.31951 0.35622
 C1258 C 0.72685 0.32553 0.33698
 C1259 C 0.72952 0.31314 0.31961
 C1260 C 0.72316 0.29464 0.32114
 C1261 C 0.71360 0.28870 0.33987
 C1262 C 0.71092 0.30107 0.35730
 C1263 C 0.72831 0.28143 0.30450
 C1264 C 0.73399 0.27076 0.29079
 H1265 H 0.72445 0.33113 0.43051
 H1266 H 0.72380 0.31019 0.39886
 H1267 H 0.71040 0.35719 0.35727
 H1268 H 0.71146 0.37808 0.38908
 H1269 H 0.73259 0.33953 0.33574
 H1270 H 0.73718 0.31781 0.30531
 H1271 H 0.70873 0.27436 0.34127
 H1272 H 0.70375 0.29611 0.37179
 C1273 C 0.22191 0.87898 0.94456
 C1274 C 0.22053 0.86893 0.92884
 C1275 C 0.21904 0.85656 0.91040
 C1276 C 0.22554 0.83815 0.91210
 C1277 C 0.22451 0.82611 0.89419
 C1278 C 0.21693 0.83232 0.87428
 C1279 C 0.21023 0.85081 0.87280
 C1280 C 0.21127 0.86285 0.89078
 C1281 C 0.21696 0.81976 0.85496
 C1282 C 0.22220 0.82665 0.83431
 C1283 C 0.22441 0.81442 0.81668
 C1284 C 0.22134 0.79520 0.81944
 C1285 C 0.21532 0.78833 0.83965
 C1286 C 0.21308 0.80053 0.85730
 C1287 C 0.22668 0.78240 0.80245
 C1288 C 0.23254 0.77188 0.78868
 H1289 H 0.23161 0.83315 0.92720
 H1290 H 0.23010 0.81208 0.89575
 H1291 H 0.20419 0.85595 0.85775
 H1292 H 0.20613 0.87707 0.88933
 H1293 H 0.22549 0.84133 0.83203
 H1294 H 0.22929 0.81985 0.80114
 H1295 H 0.21303 0.77345 0.84200
 H1296 H 0.20875 0.79486 0.87292
 C1297 C 0.27851 0.87917 0.05513
 C1298 C 0.27985 0.86915 0.07088
 C1299 C 0.28131 0.85679 0.08932
 C1300 C 0.28875 0.86319 0.10908
 C1301 C 0.28975 0.85116 0.12706
 C1302 C 0.28333 0.83256 0.12546
 C1303 C 0.27607 0.82624 0.10543
 C1304 C 0.27508 0.83828 0.08751
 C1305 C 0.28326 0.81999 0.14476
 C1306 C 0.28739 0.80081 0.14246
 C1307 C 0.28512 0.78856 0.16006
 C1308 C 0.27883 0.79534 0.18021
 C1309 C 0.27552 0.81451 0.18295
 C1310 C 0.27776 0.82679 0.16536
 C1311 C 0.27347 0.78246 0.19712
 C1312 C 0.26760 0.77190 0.21085
 H1313 H 0.29367 0.87749 0.11062
 H1314 H 0.29555 0.85638 0.14220
 H1315 H 0.27069 0.81213 0.10376
 H1316 H 0.26926 0.83320 0.07230
 H1317 H 0.29192 0.79520 0.12689
 H1318 H 0.28760 0.77372 0.15773
 H1319 H 0.27044 0.81986 0.19843
 H1320 H 0.27427 0.84142 0.16762
 C1321 C 0.77734 0.38178 0.55964
 C1322 C 0.77896 0.37240 0.57588
 C1323 C 0.78087 0.36080 0.59492
 C1324 C 0.79390 0.34616 0.59503
 C1325 C 0.79497 0.33409 0.61296
 C1326 C 0.78298 0.33654 0.63101
 C1327 C 0.77025 0.35160 0.63095
 C1328 C 0.76920 0.36362 0.61300
 C1329 C 0.78282 0.32278 0.64916
 C1330 C 0.78037 0.32871 0.67089
 C1331 C 0.77805 0.31559 0.68762
 C1332 C 0.77822 0.29641 0.68285
 C1333 C 0.78141 0.29038 0.66144
 C1334 C 0.78375 0.30346 0.64470
 C1335 C 0.77278 0.28311 0.69928
 C1336 C 0.76689 0.27225 0.71267
 H1337 H 0.80302 0.34387 0.58112
 H1338 H 0.80503 0.32275 0.61262
 H1339 H 0.76064 0.35368 0.64444
 H1340 H 0.75901 0.37487 0.61304
 H1341 H 0.77981 0.34348 0.67485
 H1342 H 0.77545 0.32040 0.70413
 H1343 H 0.78131 0.27557 0.65754
 H1344 H 0.78536 0.29845 0.62812
 C1345 C 0.22184 0.12054 0.55645
 C1346 C 0.22060 0.12984 0.57281
 C1347 C 0.21914 0.14129 0.59204
 C1348 C 0.20617 0.15598 0.59279
 C1349 C 0.20543 0.16780 0.61096
 C1350 C 0.21767 0.16506 0.62863
 C1351 C 0.23037 0.14999 0.62792
 C1352 C 0.23110 0.13820 0.60972
 C1353 C 0.21805 0.17847 0.64713
 C1354 C 0.22075 0.17213 0.66864
 C1355 C 0.22315 0.18493 0.68567
 C1356 C 0.22282 0.20419 0.68143
 C1357 C 0.21943 0.21063 0.66025
 C1358 C 0.21700 0.19787 0.64320
 C1359 C 0.22825 0.21720 0.69814
 C1360 C 0.23412 0.22781 0.71178
 H1361 H 0.19683 0.15846 0.57919
 H1362 H 0.19539 0.17916 0.61114
 H1363 H 0.24018 0.14769 0.64110
 H1364 H 0.24124 0.12691 0.60926
 H1365 H 0.22140 0.15729 0.67220
 H1366 H 0.22591 0.17981 0.70200
 H1367 H 0.21940 0.22551 0.65675
 H1368 H 0.21520 0.20319 0.62680
 C1369 C 0.72121 0.62008 0.05642
 C1370 C 0.71997 0.62948 0.07270
 C1371 C 0.71854 0.64106 0.09184
 C1372 C 0.73033 0.63788 0.10965
 C1373 C 0.72970 0.64981 0.12773
 C1374 C 0.71728 0.66512 0.12818
 C1375 C 0.70519 0.66794 0.11039
 C1376 C 0.70584 0.65598 0.09233
 C1377 C 0.71781 0.67868 0.14653
 C1378 C 0.71713 0.69806 0.14238
 C1379 C 0.71970 0.71092 0.15930
 C1380 C 0.72287 0.70461 0.18057
 C1381 C 0.72284 0.68538 0.18504
 C1382 C 0.72030 0.67248 0.16813
 C1383 C 0.72841 0.71767 0.19718
 C1384 C 0.73435 0.72833 0.21072
 H1385 H 0.74027 0.62641 0.10939
 H1386 H 0.73939 0.64743 0.14101
 H1387 H 0.69536 0.67949 0.11036
 H1388 H 0.69663 0.65854 0.07863
 H1389 H 0.71551 0.70328 0.12590
 H1390 H 0.71995 0.72577 0.15563
 H1391 H 0.72543 0.68035 0.20145
 H1392 H 0.72066 0.65766 0.17187
 C1393 C 0.16666 0.54906 0.21349
 C1394 C 0.17376 0.56433 0.21210
 C1395 C 0.18236 0.58254 0.21124
 C1396 C 0.20190 0.58417 0.21122
 C1397 C 0.21030 0.60186 0.21200
 C1398 C 0.19923 0.61814 0.21283
 C1399 C 0.17959 0.61636 0.21236
 C1400 C 0.17122 0.59866 0.21160
 C1401 C 0.20807 0.63685 0.21515
 C1402 C 0.20094 0.65245 0.20386
 C1403 C 0.20870 0.67023 0.20703
 C1404 C 0.22366 0.67263 0.22148
 C1405 C 0.23101 0.65717 0.23255
 C1406 C 0.22331 0.63939 0.22939
 C1407 C 0.23073 0.69106 0.22597
 C1408 C 0.23618 0.70655 0.23042
 H1409 H 0.21065 0.57177 0.21097
 H1410 H 0.22545 0.60279 0.21207
 H1411 H 0.17069 0.62862 0.21328
 H1412 H 0.15608 0.59754 0.21177
 H1413 H 0.18934 0.65090 0.19265
 H1414 H 0.20285 0.68215 0.19847
 H1415 H 0.24246 0.65893 0.24396
 H1416 H 0.22890 0.62772 0.23858
 C1417 C 0.66592 0.04935 0.71226
 C1418 C 0.67298 0.06464 0.71084
 C1419 C 0.68153 0.08287 0.70999
 C1420 C 0.70107 0.08452 0.70938
 C1421 C 0.70946 0.10220 0.71027
 C1422 C 0.69840 0.11846 0.71180
 C1423 C 0.67876 0.11666 0.71190
 C1424 C 0.67039 0.09896 0.71104
 C1425 C 0.70728 0.13713 0.71434
 C1426 C 0.69989 0.15293 0.70366
 C1427 C 0.70767 0.17066 0.70709
 C1428 C 0.72291 0.17281 0.72120
 C1429 C 0.73052 0.15716 0.73164
 C1430 C 0.72279 0.13943 0.72821
 C1431 C 0.72999 0.19118 0.72603
 C1432 C 0.73548 0.20659 0.73080
 H1433 H 0.70981 0.07214 0.70861
 H1434 H 0.72461 0.10316 0.70990
 H1435 H 0.66987 0.12888 0.71338
 H1436 H 0.65525 0.09782 0.71167
 H1437 H 0.68806 0.15157 0.69274
 H1438 H 0.70162 0.18272 0.69902
 H1439 H 0.74218 0.15873 0.74278
 H1440 H 0.72859 0.12760 0.73694
 C1441 C 0.83453 0.04815 0.28606
 C1442 C 0.82752 0.06345 0.28750
 C1443 C 0.81902 0.08169 0.28837
 C1444 C 0.79948 0.08337 0.28845
 C1445 C 0.79117 0.10108 0.28766
 C1446 C 0.80232 0.11733 0.28674
 C1447 C 0.82195 0.11549 0.28713
 C1448 C 0.83023 0.09777 0.28790
 C1449 C 0.79355 0.13606 0.28444
 C1450 C 0.80077 0.15164 0.29571
 C1451 C 0.79305 0.16942 0.29261
 C1452 C 0.77803 0.17184 0.27826
 C1453 C 0.77060 0.15641 0.26718
 C1454 C 0.77828 0.13862 0.27027
 C1455 C 0.77091 0.19027 0.27395
 C1456 C 0.76538 0.20576 0.26972
 H1457 H 0.79068 0.07100 0.28877
 H1458 H 0.77603 0.10206 0.28765
 H1459 H 0.83090 0.12772 0.28614
 H1460 H 0.84537 0.09661 0.28767
 H1461 H 0.81241 0.15007 0.30686
 H1462 H 0.79894 0.18132 0.30118
 H1463 H 0.75911 0.15819 0.25585
 H1464 H 0.77262 0.12696 0.26109
 C1465 C 0.33330 0.54914 0.78737
 C1466 C 0.32631 0.56447 0.78853
 C1467 C 0.31783 0.58271 0.78917
 C1468 C 0.29830 0.58441 0.78967
 C1469 C 0.28997 0.60210 0.78879
 C1470 C 0.30111 0.61834 0.78736
 C1471 C 0.32074 0.61650 0.78731
 C1472 C 0.32904 0.59878 0.78818
 C1473 C 0.29231 0.63704 0.78497
 C1474 C 0.29972 0.65274 0.79584
 C1475 C 0.29196 0.67050 0.79263
 C1476 C 0.27671 0.67276 0.77857
 C1477 C 0.26909 0.65721 0.76791
 C1478 C 0.27680 0.63945 0.77111
 C1479 C 0.26960 0.69116 0.77402
 C1480 C 0.26410 0.70660 0.76951
 H1481 H 0.28950 0.57204 0.79041
 H1482 H 0.27483 0.60309 0.78911
 H1483 H 0.32968 0.62871 0.78593
 H1484 H 0.34417 0.59761 0.78764
 H1485 H 0.31153 0.65129 0.80676
 H1486 H 0.29801 0.68249 0.80087
 H1487 H 0.25743 0.65887 0.75680
 H1488 H 0.27099 0.62769 0.76225
 C1489 C 0.33476 0.45090 0.71556
 C1490 C 0.32780 0.43557 0.71412
 C1491 C 0.31932 0.41732 0.71319
 C1492 C 0.33054 0.40126 0.71354
 C1493 C 0.32226 0.38351 0.71420
 C1494 C 0.30263 0.38163 0.71461
 C1495 C 0.29147 0.39786 0.71381
 C1496 C 0.29978 0.41558 0.71312
 C1497 C 0.29386 0.36287 0.71681
 C1498 C 0.27854 0.36022 0.73100
 C1499 C 0.27085 0.34240 0.73399
 C1500 C 0.27829 0.32704 0.72278
 C1501 C 0.29336 0.32955 0.70840
 C1502 C 0.30110 0.34736 0.70541
 C1503 C 0.27118 0.30858 0.72705
 C1504 C 0.26565 0.29308 0.73137
 H1505 H 0.34568 0.40246 0.71375
 H1506 H 0.33121 0.37130 0.71510
 H1507 H 0.27633 0.39684 0.71384
 H1508 H 0.29098 0.42794 0.71289
 H1509 H 0.27286 0.37182 0.74028
 H1510 H 0.25933 0.34055 0.74535
 H1511 H 0.29928 0.31770 0.69974
 H1512 H 0.31277 0.34901 0.69423
 C1513 C 0.83490 0.95146 0.21332
 C1514 C 0.82792 0.93614 0.21185
 C1515 C 0.81947 0.91787 0.21092
 C1516 C 0.83071 0.90183 0.21135
 C1517 C 0.82245 0.88408 0.21207
 C1518 C 0.80282 0.88218 0.21243
 C1519 C 0.79165 0.89839 0.21153
 C1520 C 0.79994 0.91612 0.21079
 C1521 C 0.79407 0.86342 0.21476
 C1522 C 0.77874 0.86082 0.22895
 C1523 C 0.77108 0.84301 0.23208
 C1524 C 0.77856 0.82759 0.22101
 C1525 C 0.79363 0.83004 0.20662
 C1526 C 0.80135 0.84785 0.20349
 C1527 C 0.77147 0.80915 0.22543
 C1528 C 0.76596 0.79367 0.22986
 H1529 H 0.84584 0.90305 0.21161
 H1530 H 0.83141 0.87188 0.21305
 H1531 H 0.77650 0.89735 0.21152
 H1532 H 0.79111 0.92846 0.21050
 H1533 H 0.77304 0.87247 0.23813
 H1534 H 0.75955 0.84121 0.24344
 H1535 H 0.79958 0.81815 0.19808
 H1536 H 0.81303 0.84945 0.19232
 C1537 C 0.66593 0.95067 0.78507
 C1538 C 0.67287 0.93534 0.78641
 C1539 C 0.68127 0.91706 0.78722
 C1540 C 0.70078 0.91527 0.78791
 C1541 C 0.70904 0.89754 0.78713
 C1542 C 0.69784 0.88135 0.78562
 C1543 C 0.67822 0.88329 0.78540
 C1544 C 0.67000 0.90104 0.78616
 C1545 C 0.70658 0.86260 0.78332
 C1546 C 0.69894 0.84693 0.79409
 C1547 C 0.70662 0.82913 0.79092
 C1548 C 0.72203 0.82679 0.77700
 C1549 C 0.72988 0.84231 0.76646
 C1550 C 0.72224 0.86011 0.76962
 C1551 C 0.72910 0.80836 0.77251
 C1552 C 0.73462 0.79290 0.76805
 H1553 H 0.70963 0.92760 0.78870
 H1554 H 0.72417 0.89648 0.78759
 H1555 H 0.66924 0.87112 0.78394
 H1556 H 0.65488 0.90228 0.78547
 H1557 H 0.68699 0.84844 0.80489
 H1558 H 0.70040 0.81716 0.79907
 H1559 H 0.74168 0.84060 0.75546
 H1560 H 0.72824 0.87185 0.76083
 C1561 C 0.16617 0.45024 0.28603
 C1562 C 0.17310 0.43490 0.28733
 C1563 C 0.18149 0.41662 0.28808
 C1564 C 0.20100 0.41483 0.28886
 C1565 C 0.20926 0.39710 0.28798
 C1566 C 0.19808 0.38093 0.28628
 C1567 C 0.17846 0.38285 0.28597
 C1568 C 0.17023 0.40060 0.28683
 C1569 C 0.20684 0.36219 0.28387
 C1570 C 0.19916 0.34645 0.29445
 C1571 C 0.20688 0.32867 0.29119
 C1572 C 0.22235 0.32642 0.27735
 C1573 C 0.23023 0.34202 0.26698
 C1574 C 0.22256 0.35980 0.27024
 C1575 C 0.22947 0.30803 0.27276
 C1576 C 0.23501 0.29259 0.26823
 H1577 H 0.20984 0.42716 0.28979
 H1578 H 0.22439 0.39605 0.28851
 H1579 H 0.16949 0.37069 0.28436
 H1580 H 0.15511 0.40184 0.28606
 H1581 H 0.18717 0.34788 0.30520
 H1582 H 0.20063 0.31665 0.29921
 H1583 H 0.24208 0.34038 0.25604
 H1584 H 0.22859 0.37158 0.26158
 C1585 C 0.05675 0.26013 0.84291
 C1586 C 0.07081 0.25702 0.83253
 C1587 C 0.08779 0.25392 0.82023
 C1588 C 0.09553 0.23595 0.81860
 C1589 C 0.11241 0.23321 0.80730
 C1590 C 0.12175 0.24843 0.79747
 C1591 C 0.11370 0.26638 0.79901
 C1592 C 0.09686 0.26908 0.81030
 C1593 C 0.14020 0.24587 0.78647
 C1594 C 0.14468 0.25601 0.76744
 C1595 C 0.16264 0.25500 0.75833
 C1596 C 0.17636 0.24375 0.76799
 C1597 C 0.17187 0.23308 0.78645
 C1598 C 0.15391 0.23409 0.79561
 C1599 C 0.19547 0.24467 0.76041
 C1600 C 0.21167 0.24625 0.75508
 H1601 H 0.08863 0.22410 0.82621
 H1602 H 0.11814 0.21920 0.80625
 H1603 H 0.12067 0.27845 0.79199
 H1604 H 0.09106 0.28306 0.81154
 H1605 H 0.13437 0.26499 0.75981
 H1606 H 0.16599 0.26340 0.74411
 H1607 H 0.18243 0.22448 0.79421
 H1608 H 0.15101 0.22627 0.81039
 C1609 C 0.55709 0.76001 0.34212
 C1610 C 0.57115 0.75697 0.33171
 C1611 C 0.58815 0.75398 0.31940
 C1612 C 0.59602 0.73607 0.31776
 C1613 C 0.61291 0.73345 0.30647
 C1614 C 0.62217 0.74873 0.29666
 C1615 C 0.61399 0.76662 0.29821
 C1616 C 0.59713 0.76921 0.30948
 C1617 C 0.64063 0.74629 0.28565
 C1618 C 0.64505 0.75648 0.26663
 C1619 C 0.66301 0.75554 0.25748
 C1620 C 0.67679 0.74434 0.26710
 C1621 C 0.67236 0.73364 0.28556
 C1622 C 0.65441 0.73457 0.29476
 C1623 C 0.69587 0.74529 0.25945
 C1624 C 0.71206 0.74690 0.25404
 H1625 H 0.58919 0.72417 0.32535
 H1626 H 0.61874 0.71947 0.30541
 H1627 H 0.62088 0.77874 0.29120
 H1628 H 0.59124 0.78315 0.31073
 H1629 H 0.63470 0.76541 0.25903
 H1630 H 0.66630 0.76396 0.24326
 H1631 H 0.68296 0.72507 0.29329
 H1632 H 0.65156 0.72672 0.30953
 C1633 C 0.55714 0.23996 0.15856
 C1634 C 0.57106 0.24296 0.16915
 C1635 C 0.58790 0.24594 0.18166
 C1636 C 0.59597 0.26378 0.18304
 C1637 C 0.61276 0.26638 0.19446
 C1638 C 0.62169 0.25114 0.20464
 C1639 C 0.61329 0.23332 0.20339
 C1640 C 0.59654 0.23076 0.19198
 C1641 C 0.64011 0.25353 0.21568
 C1642 C 0.64426 0.24358 0.23491
 C1643 C 0.66217 0.24449 0.24411
 C1644 C 0.67615 0.25542 0.23431
 C1645 C 0.67198 0.26586 0.21561
 C1646 C 0.65409 0.26497 0.20637
 C1647 C 0.69518 0.25441 0.24199
 C1648 C 0.71136 0.25280 0.24731
 H1649 H 0.58940 0.27565 0.17514
 H1650 H 0.61875 0.28030 0.19529
 H1651 H 0.61994 0.22123 0.21069
 H1652 H 0.59048 0.21687 0.19094
 H1653 H 0.63375 0.23486 0.24265
 H1654 H 0.66525 0.23626 0.25851
 H1655 H 0.68274 0.27421 0.20773
 H1656 H 0.65146 0.27262 0.19143
 C1657 C 0.05573 0.73987 0.65743
 C1658 C 0.06977 0.74293 0.66780
 C1659 C 0.08671 0.74593 0.68008
 C1660 C 0.09445 0.76389 0.68199
 C1661 C 0.11129 0.76653 0.69328
 C1662 C 0.12062 0.75122 0.70283
 C1663 C 0.11257 0.73327 0.70102
 C1664 C 0.09577 0.73067 0.68974
 C1665 C 0.13902 0.75370 0.71386
 C1666 C 0.14342 0.74335 0.73272
 C1667 C 0.16133 0.74435 0.74187
 C1668 C 0.17508 0.75577 0.73240
 C1669 C 0.17066 0.76663 0.71411
 C1670 C 0.15275 0.76565 0.70491
 C1671 C 0.19414 0.75486 0.74001
 C1672 C 0.21031 0.75329 0.74538
 H1673 H 0.08756 0.77582 0.67461
 H1674 H 0.11701 0.78055 0.69456
 H1675 H 0.11952 0.72114 0.70782
 H1676 H 0.08998 0.71669 0.68829
 H1677 H 0.13309 0.73424 0.74020
 H1678 H 0.16461 0.73580 0.75597
 H1679 H 0.18124 0.77538 0.70650
 H1680 H 0.14992 0.77363 0.69027
 C1681 C 0.94387 0.75977 0.65701
 C1682 C 0.92980 0.75666 0.66741
 C1683 C 0.91281 0.75362 0.67971
 C1684 C 0.90370 0.76885 0.68941
 C1685 C 0.88683 0.76623 0.70067
 C1686 C 0.87878 0.74827 0.70242
 C1687 C 0.88817 0.73298 0.69284
 C1688 C 0.90507 0.73565 0.68157
 C1689 C 0.86030 0.74577 0.71338
 C1690 C 0.84663 0.73386 0.70434
 C1691 C 0.82865 0.73287 0.71346
 C1692 C 0.82408 0.74371 0.73175
 C1693 C 0.83776 0.75510 0.74132
 C1694 C 0.85575 0.75610 0.73224
 C1695 C 0.80495 0.74464 0.73925
 C1696 C 0.78872 0.74622 0.74451
 H1697 H 0.90950 0.78284 0.68799
 H1698 H 0.87984 0.77835 0.70750
 H1699 H 0.88245 0.71897 0.69408
 H1700 H 0.91200 0.72374 0.67415
 H1701 H 0.84958 0.72590 0.68969
 H1702 H 0.81812 0.72415 0.70578
 H1703 H 0.83436 0.76363 0.75541
 H1704 H 0.86601 0.76519 0.73979
 C1705 C 0.44462 0.25997 0.15760
 C1706 C 0.43052 0.25690 0.16792
 C1707 C 0.41347 0.25386 0.18013
 C1708 C 0.40425 0.26911 0.18965
 C1709 C 0.38735 0.26646 0.20084
 C1710 C 0.37937 0.24848 0.20269
 C1711 C 0.38887 0.23318 0.19328
 C1712 C 0.40581 0.23587 0.18208
 C1713 C 0.36086 0.24595 0.21358
 C1714 C 0.34729 0.23390 0.20459
 C1715 C 0.32930 0.23286 0.21365
 C1716 C 0.32462 0.24377 0.23185
 C1717 C 0.33820 0.25530 0.24136
 C1718 C 0.35620 0.25636 0.23235
 C1719 C 0.30547 0.24460 0.23930
 C1720 C 0.28923 0.24611 0.24453
 H1721 H 0.40999 0.28311 0.18817
 H1722 H 0.38027 0.27859 0.20754
 H1723 H 0.38321 0.21915 0.19459
 H1724 H 0.41283 0.22394 0.17480
 H1725 H 0.35033 0.22588 0.19000
 H1726 H 0.31884 0.22402 0.20600
 H1727 H 0.33471 0.26388 0.25538
 H1728 H 0.36639 0.26555 0.23986
 C1729 C 0.44436 0.74041 0.34205
 C1730 C 0.43037 0.74349 0.33162
 C1731 C 0.41345 0.74656 0.31932
 C1732 C 0.40474 0.73146 0.30887
 C1733 C 0.38791 0.73410 0.29766
 C1734 C 0.37950 0.75191 0.29672
 C1735 C 0.38850 0.76707 0.30703
 C1736 C 0.40536 0.76440 0.31825
 C1737 C 0.36104 0.75437 0.28583
 C1738 C 0.34708 0.76565 0.29538
 C1739 C 0.32914 0.76657 0.28626
 C1740 C 0.32492 0.75629 0.26745
 C1741 C 0.33888 0.74553 0.25741
 C1742 C 0.35683 0.74460 0.26648
 C1743 C 0.30588 0.75530 0.25980
 C1744 C 0.28972 0.75367 0.25440
 H1745 H 0.41081 0.71757 0.30968
 H1746 H 0.38122 0.72206 0.29025
 H1747 H 0.38249 0.78098 0.30644
 H1748 H 0.41198 0.77619 0.32626
 H1749 H 0.34976 0.77315 0.31041
 H1750 H 0.31840 0.77479 0.29431
 H1751 H 0.33576 0.73743 0.24290
 H1752 H 0.36733 0.73601 0.25855
 C1753 C 0.94396 0.24054 0.84294
 C1754 C 0.92993 0.24358 0.83256
 C1755 C 0.91299 0.24654 0.82028
 C1756 C 0.90408 0.23130 0.81036
 C1757 C 0.88726 0.23385 0.79913
 C1758 C 0.87904 0.25172 0.79764
 C1759 C 0.88821 0.26703 0.80744
 C1760 C 0.90508 0.26444 0.81869
 C1761 C 0.86059 0.25412 0.78671
 C1762 C 0.84675 0.26577 0.79591
 C1763 C 0.82881 0.26663 0.78681
 C1764 C 0.82446 0.25593 0.76835
 C1765 C 0.83830 0.24480 0.75863
 C1766 C 0.85625 0.24394 0.76769
 C1767 C 0.80539 0.25489 0.76081
 C1768 C 0.78921 0.25323 0.75549
 H1769 H 0.91001 0.21738 0.81158
 H1770 H 0.88042 0.22172 0.79212
 H1771 H 0.88235 0.28098 0.80642
 H1772 H 0.91185 0.27635 0.82629
 H1773 H 0.84954 0.27360 0.81068
 H1774 H 0.81816 0.27515 0.79460
 H1775 H 0.83507 0.23639 0.74442
 H1776 H 0.86665 0.23505 0.76003
 C1777 C 0.63161 0.99626 0.68293
 C1778 C 0.62266 0.98953 0.66823
 C1779 C 0.61127 0.98227 0.65084
 C1780 C 0.59178 0.98390 0.65220
 C1781 C 0.58058 0.97858 0.63462
 C1782 C 0.58873 0.97153 0.61535
 C1783 C 0.60833 0.96932 0.61442
 C1784 C 0.61953 0.97470 0.63206
 C1785 C 0.57690 0.96828 0.59579
 C1786 C 0.58312 0.97425 0.57510
 C1787 C 0.57090 0.97425 0.55733
 C1788 C 0.55237 0.96822 0.55995
 C1789 C 0.54636 0.96120 0.58011
 C1790 C 0.55858 0.96113 0.59791
 C1791 C 0.53898 0.97215 0.54310
 C1792 C 0.52808 0.97725 0.52938
 H1793 H 0.58525 0.98984 0.66661
 H1794 H 0.56560 0.98081 0.63576
 H1795 H 0.61500 0.96378 0.59991
 H1796 H 0.63462 0.97338 0.63085
 H1797 H 0.59702 0.98007 0.57294
 H1798 H 0.57561 0.97994 0.54186
 H1799 H 0.53200 0.95665 0.58235
 H1800 H 0.55348 0.95617 0.61353
 C1801 C 0.13173 0.49571 1.18297
 C1802 C 0.12271 0.48909 1.16826
 C1803 C 0.11124 0.48197 1.15087
 C1804 C 0.11940 0.47434 1.13207
 C1805 C 0.10812 0.46907 1.11444
 C1806 C 0.08854 0.47146 1.11541
 C1807 C 0.08049 0.47859 1.13469
 C1808 C 0.09176 0.48379 1.15226
 C1809 C 0.07666 0.46831 1.09587
 C1810 C 0.05827 0.46136 1.09804
 C1811 C 0.04603 0.46154 1.08026
 C1812 C 0.05208 0.46846 1.06008
 C1813 C 0.07068 0.47428 1.05741
 C1814 C 0.08291 0.47419 1.07517
 C1815 C 0.03872 0.47250 1.04324
 C1816 C 0.02785 0.47769 1.02953
 H1817 H 0.13447 0.47287 1.13083
 H1818 H 0.11473 0.46346 1.09992
 H1819 H 0.06553 0.48096 1.13587
 H1820 H 0.08531 0.48978 1.16669
 H1821 H 0.05313 0.45648 1.11368
 H1822 H 0.03161 0.45715 1.08254
 H1823 H 0.07543 0.47990 1.04192
 H1824 H 0.09687 0.47985 1.07297
 C1825 C -0.13167 0.00387 1.18366
 C1826 C -0.12280 0.01071 1.16890
 C1827 C -0.11147 0.01808 1.15145
 C1828 C -0.09197 0.01652 1.15262
 C1829 C -0.08081 0.02192 1.13496
 C1830 C -0.08902 0.02901 1.11580
 C1831 C -0.10862 0.03116 1.11506
 C1832 C -0.11978 0.02569 1.13278
 C1833 C -0.07723 0.03231 1.09614
 C1834 C -0.08346 0.02633 1.07551
 C1835 C -0.07125 0.02631 1.05764
 C1836 C -0.05271 0.03230 1.06013
 C1837 C -0.04669 0.03935 1.08023
 C1838 C -0.05891 0.03946 1.09811
 C1839 C -0.03932 0.02827 1.04322
 C1840 C -0.02841 0.02307 1.02948
 H1841 H -0.08540 0.01054 1.16695
 H1842 H -0.06583 0.01973 1.13596
 H1843 H -0.11534 0.03672 1.10063
 H1844 H -0.13488 0.02697 1.13171
 H1845 H -0.09737 0.02052 1.07345
 H1846 H -0.07597 0.02060 1.04221
 H1847 H -0.03232 0.04388 1.08237
 H1848 H -0.05380 0.04442 1.11370
 C1849 C 0.36887 0.50418 0.68623
 C1850 C 0.37779 0.51094 0.67146
 C1851 C 0.38908 0.51822 0.65391
 C1852 C 0.40856 0.51626 0.65476
 C1853 C 0.41962 0.52160 0.63699
 C1854 C 0.41134 0.52901 0.61804
 C1855 C 0.39177 0.53152 0.61761
 C1856 C 0.38071 0.52612 0.63545
 C1857 C 0.42297 0.53234 0.59825
 C1858 C 0.41644 0.52671 0.57762
 C1859 C 0.42844 0.52678 0.55956
 C1860 C 0.44708 0.53254 0.56185
 C1861 C 0.45341 0.53922 0.58199
 C1862 C 0.44140 0.53923 0.60007
 C1863 C 0.46022 0.52863 0.54465
 C1864 C 0.47096 0.52354 0.53066
 H1865 H 0.41517 0.51005 0.66892
 H1866 H 0.43457 0.51913 0.63773
 H1867 H 0.38500 0.53733 0.60335
 H1868 H 0.36563 0.52769 0.63462
 H1869 H 0.40243 0.52110 0.57569
 H1870 H 0.42347 0.52134 0.54411
 H1871 H 0.46786 0.54356 0.58398
 H1872 H 0.44676 0.54392 0.61566
 C1873 C 0.36507 0.49602 -0.17995
 C1874 C 0.37299 0.48914 -0.16457
 C1875 C 0.38313 0.48172 -0.14626
 C1876 C 0.39677 0.46789 -0.14944
 C1877 C 0.40829 0.46241 -0.13215
 C1878 C 0.40633 0.47078 -0.11146
 C1879 C 0.39205 0.48410 -0.10825
 C1880 C 0.38056 0.48953 -0.12554
 C1881 C 0.42023 0.46722 -0.09395
 C1882 C 0.41467 0.46670 -0.07190
 C1883 C 0.42808 0.46669 -0.05530
 C1884 C 0.44718 0.46705 -0.06055
 C1885 C 0.45284 0.46643 -0.08241
 C1886 C 0.43947 0.46646 -0.09902
 C1887 C 0.46069 0.47130 -0.04393
 C1888 C 0.47162 0.47664 -0.03036
 H1889 H 0.39891 0.46178 -0.16545
 H1890 H 0.41903 0.45201 -0.13508
 H1891 H 0.39037 0.49105 -0.09266
 H1892 H 0.37015 0.50036 -0.12294
 H1893 H 0.39996 0.46706 -0.06749
 H1894 H 0.42354 0.46739 -0.03842
 H1895 H 0.46759 0.46701 -0.08665
 H1896 H 0.44424 0.46712 -0.11579
 C1897 C -0.13151 0.99548 0.31672
 C1898 C -0.12262 0.98875 0.33145
 C1899 C -0.11129 0.98150 0.34888
 C1900 C -0.11959 0.97367 0.36750
 C1901 C -0.10845 0.96830 0.38519
 C1902 C -0.08887 0.97077 0.38447
 C1903 C -0.08067 0.97809 0.36536
 C1904 C -0.09180 0.98340 0.34773
 C1905 C -0.07714 0.96754 0.40412
 C1906 C -0.05871 0.96070 0.40209
 C1907 C -0.04659 0.96088 0.41997
 C1908 C -0.05281 0.96770 0.44013
 C1909 C -0.07145 0.97339 0.44266
 C1910 C -0.08356 0.97329 0.42480
 C1911 C -0.03956 0.97182 0.45709
 C1912 C -0.02880 0.97709 0.47088
 H1913 H -0.13467 0.97214 0.36855
 H1914 H -0.11516 0.96255 0.39958
 H1915 H -0.06571 0.98053 0.36439
 H1916 H -0.08524 0.98954 0.33345
 H1917 H -0.05345 0.95592 0.38646
 H1918 H -0.03214 0.95659 0.41780
 H1919 H -0.07632 0.97893 0.45814
 H1920 H -0.09756 0.97887 0.42690
 C1921 C 0.13194 0.50393 0.31693
 C1922 C 0.12302 0.51063 0.33171
 C1923 C 0.11162 0.51785 0.34919
 C1924 C 0.11986 0.52531 0.36799
 C1925 C 0.10863 0.53064 0.38570
 C1926 C 0.08902 0.52850 0.38480
 C1927 C 0.08090 0.52156 0.36552
 C1928 C 0.09212 0.51628 0.34787
 C1929 C 0.07715 0.53171 0.40442
 C1930 C 0.05886 0.53891 0.40237
 C1931 C 0.04657 0.53877 0.42019
 C1932 C 0.05246 0.53165 0.44029
 C1933 C 0.07097 0.52559 0.44285
 C1934 C 0.08325 0.52564 0.42506
 C1935 C 0.03898 0.52762 0.45712
 C1936 C 0.02800 0.52244 0.47080
 H1937 H 0.13496 0.52658 0.36916
 H1938 H 0.11529 0.53609 0.40023
 H1939 H 0.06591 0.51938 0.36440
 H1940 H 0.08561 0.51043 0.33344
 H1941 H 0.05384 0.54394 0.38678
 H1942 H 0.03223 0.54336 0.41799
 H1943 H 0.07560 0.51982 0.45828
 H1944 H 0.09713 0.51979 0.42716
 C1945 C 0.63193 0.00444 -0.18394
 C1946 C 0.62315 0.01119 -0.16906
 C1947 C 0.61193 0.01843 -0.15145
 C1948 C 0.62035 0.02574 -0.13268
 C1949 C 0.60928 0.03105 -0.11483
 C1950 C 0.58965 0.02904 -0.11554
 C1951 C 0.58134 0.02227 -0.13480
 C1952 C 0.59241 0.01701 -0.15259
 C1953 C 0.57794 0.03221 -0.09578
 C1954 C 0.55969 0.03952 -0.09759
 C1955 C 0.54752 0.03934 -0.07965
 C1956 C 0.55352 0.03207 -0.05966
 C1957 C 0.57202 0.02589 -0.05734
 C1958 C 0.58417 0.02598 -0.07526
 C1959 C 0.54015 0.02804 -0.04272
 C1960 C 0.52923 0.02286 -0.02897
 H1961 H 0.63546 0.02689 -0.13164
 H1962 H 0.61608 0.03639 -0.10032
 H1963 H 0.56634 0.02019 -0.13579
 H1964 H 0.58576 0.01127 -0.16699
 H1965 H 0.55457 0.04467 -0.11308
 H1966 H 0.53319 0.04402 -0.08167
 H1967 H 0.57673 0.02000 -0.04200
 H1968 H 0.59802 0.02004 -0.07334
 C1969 C 0.69235 0.58034 0.00205
 C1970 C 0.67842 0.57206 -0.00349
 C1971 C 0.66142 0.56234 -0.00900
 C1972 C 0.64886 0.57011 -0.02397
 C1973 C 0.63150 0.56157 -0.02762
 C1974 C 0.62649 0.54516 -0.01626
 C1975 C 0.63946 0.53718 -0.00172
 C1976 C 0.65679 0.54574 0.00189
 C1977 C 0.60740 0.53708 -0.01835
 C1978 C 0.60467 0.51754 -0.01830
 C1979 C 0.58657 0.51003 -0.01801
 C1980 C 0.57100 0.52192 -0.01787
 C1981 C 0.57356 0.54134 -0.01862
 C1982 C 0.59163 0.54889 -0.01889
 C1983 C 0.55249 0.51441 -0.01489
 C1984 C 0.53695 0.50866 -0.01117
 H1985 H 0.65230 0.58300 -0.03244
 H1986 H 0.62190 0.56793 -0.03908
 H1987 H 0.63592 0.52475 0.00754
 H1988 H 0.66635 0.53970 0.01365
 H1989 H 0.61653 0.50809 -0.01811
 H1990 H 0.58473 0.49497 -0.01730
 H1991 H 0.56158 0.55067 -0.01826
 H1992 H 0.59324 0.56397 -0.01858
 C1993 C 0.19162 1.08145 0.50099
 C1994 C 0.17750 1.07357 0.49539
 C1995 C 0.16025 1.06430 0.48987
 C1996 C 0.14393 1.07482 0.48693
 C1997 C 0.12672 1.06583 0.48397
 C1998 C 0.12563 1.04614 0.48398
 C1999 C 0.14222 1.03568 0.48624
 C2000 C 0.15942 1.04472 0.48920
 C2001 C 0.10712 1.03667 0.48322
 C2002 C 0.10332 1.02144 0.49714
 C2003 C 0.08542 1.01356 0.49797
 C2004 C 0.07109 1.02070 0.48487
 C2005 C 0.07481 1.03553 0.47056
 C2006 C 0.09273 1.04346 0.46969
 C2007 C 0.05230 1.01384 0.48759
 C2008 C 0.03657 1.00850 0.49106
 H2009 H 0.14440 1.08999 0.48762
 H2010 H 0.11418 1.07427 0.48260
 H2011 H 0.14184 1.02052 0.48608
 H2012 H 0.17197 1.03644 0.49153
 H2013 H 0.11398 1.01611 0.50803
 H2014 H 0.08261 1.00224 0.50932
 H2015 H 0.06376 1.04126 0.46047
 H2016 H 0.09527 1.05506 0.45869
 C2017 C 0.19283 -0.07914 0.99669
 C2018 C 0.17893 -0.07074 1.00208
 C2019 C 0.16194 -0.06095 1.00749
 C2020 C 0.15704 -0.04484 0.99585
 C2021 C 0.13970 -0.03629 0.99944
 C2022 C 0.12699 -0.04380 1.01473
 C2023 C 0.13228 -0.05970 1.02682
 C2024 C 0.14964 -0.06823 1.02318
 C2025 C 0.10788 -0.03580 1.01688
 C2026 C 0.09220 -0.04771 1.01840
 C2027 C 0.07408 -0.04033 1.01816
 C2028 C 0.07138 -0.02098 1.01649
 C2029 C 0.08687 -0.00896 1.01565
 C2030 C 0.10502 -0.01631 1.01589
 C2031 C 0.05280 -0.01372 1.01355
 C2032 C 0.03721 -0.00817 1.00990
 H2033 H 0.16639 -0.03919 0.98353
 H2034 H 0.13594 -0.02426 0.98963
 H2035 H 0.12287 -0.06568 1.03885
 H2036 H 0.15329 -0.08074 1.03223
 H2037 H 0.09391 -0.06278 1.01883
 H2038 H 0.06217 -0.04976 1.01855
 H2039 H 0.08491 0.00604 1.01420
 H2040 H 0.11681 -0.00679 1.01493
 C2041 C 0.69168 0.42013 0.49869
 C2042 C 0.67774 0.42853 0.50395
 C2043 C 0.66072 0.43837 0.50916
 C2044 C 0.65622 0.45477 0.49785
 C2045 C 0.63889 0.46341 0.50120
 C2046 C 0.62579 0.45571 0.51589
 C2047 C 0.63067 0.43951 0.52767
 C2048 C 0.64803 0.43088 0.52428
 C2049 C 0.60671 0.46385 0.51773
 C2050 C 0.59090 0.45206 0.51851
 C2051 C 0.57286 0.45962 0.51806
 C2052 C 0.57036 0.47903 0.51691
 C2053 C 0.58596 0.49091 0.51679
 C2054 C 0.60404 0.48338 0.51725
 C2055 C 0.55188 0.48652 0.51391
 C2056 C 0.53634 0.49225 0.51027
 H2057 H 0.66588 0.46059 0.48597
 H2058 H 0.63546 0.47569 0.49164
 H2059 H 0.62096 0.43337 0.53926
 H2060 H 0.65136 0.41815 0.53307
 H2061 H 0.59247 0.43698 0.51854
 H2062 H 0.56086 0.45030 0.51790
 H2063 H 0.58417 0.50596 0.51578
 H2064 H 0.61594 0.49281 0.51687
 C2065 C -0.19400 0.42187 0.50384
 C2066 C -0.18009 0.43004 0.49797
 C2067 C -0.16305 0.43958 0.49212
 C2068 C -0.15820 0.45621 0.50278
 C2069 C -0.14075 0.46449 0.49899
 C2070 C -0.12787 0.45620 0.48449
 C2071 C -0.13311 0.43979 0.47331
 C2072 C -0.15059 0.43152 0.47715
 C2073 C -0.10863 0.46393 0.48233
 C2074 C -0.09307 0.45183 0.48193
 C2075 C -0.07487 0.45905 0.48225
 C2076 C -0.07197 0.47842 0.48289
 C2077 C -0.08732 0.49060 0.48257
 C2078 C -0.10555 0.48341 0.48224
 C2079 C -0.05337 0.48562 0.48598
 C2080 C -0.03778 0.49114 0.48979
 H2081 H -0.16768 0.46247 0.51455
 H2082 H -0.13705 0.47694 0.50811
 H2083 H -0.12357 0.43320 0.46189
 H2084 H -0.15418 0.41861 0.46886
 H2085 H -0.09496 0.43678 0.48236
 H2086 H -0.06307 0.44951 0.48274
 H2087 H -0.08521 0.50563 0.48319
 H2088 H -0.11724 0.49307 0.48231
 C2089 C 0.30762 -0.07904 0.00287
 C2090 C 0.32152 -0.07061 -0.00253
 C2091 C 0.33852 -0.06080 -0.00792
 C2092 C 0.34351 -0.04479 0.00388
 C2093 C 0.36087 -0.03625 0.00031
 C2094 C 0.37350 -0.04364 -0.01511
 C2095 C 0.36813 -0.05943 -0.02736
 C2096 C 0.35074 -0.06796 -0.02375
 C2097 C 0.39264 -0.03566 -0.01723
 C2098 C 0.40827 -0.04758 -0.01897
 C2099 C 0.42642 -0.04024 -0.01867
 C2100 C 0.42919 -0.02091 -0.01671
 C2101 C 0.41375 -0.00887 -0.01569
 C2102 C 0.39557 -0.01619 -0.01600
 C2103 C 0.44780 -0.01372 -0.01363
 C2104 C 0.46340 -0.00822 -0.00984
 H2105 H 0.33421 -0.03923 0.01630
 H2106 H 0.36470 -0.02431 0.01026
 H2107 H 0.37747 -0.06532 -0.03950
 H2108 H 0.34702 -0.08039 -0.03293
 H2109 H 0.40651 -0.06264 -0.01959
 H2110 H 0.43830 -0.04968 -0.01921
 H2111 H 0.41577 0.00611 -0.01405
 H2112 H 0.38382 -0.00665 -0.01489
 C2113 C 0.30720 1.07975 0.49645
 C2114 C 0.32105 1.07143 0.50207
 C2115 C 0.33797 1.06166 0.50768
 C2116 C 0.35036 1.06924 0.52299
 C2117 C 0.36768 1.06068 0.52673
 C2118 C 0.37283 1.04446 0.51513
 C2119 C 0.36002 1.03666 0.50024
 C2120 C 0.34273 1.04522 0.49654
 C2121 C 0.39191 1.03640 0.51730
 C2122 C 0.39466 1.01688 0.51685
 C2123 C 0.41278 1.00942 0.51655
 C2124 C 0.42833 1.02137 0.51681
 C2125 C 0.42574 1.04077 0.51798
 C2126 C 0.40766 1.04825 0.51826
 C2127 C 0.44686 1.01398 0.51378
 C2128 C 0.46243 1.00834 0.51004
 H2129 H 0.34683 1.08200 0.53164
 H2130 H 0.37716 1.06690 0.53845
 H2131 H 0.36367 1.02437 0.49079
 H2132 H 0.33331 1.03934 0.48451
 H2133 H 0.38282 1.00740 0.51634
 H2134 H 0.41465 0.99439 0.51551
 H2135 H 0.43770 1.05014 0.51793
 H2136 H 0.40603 1.06333 0.51827
 C2137 C -0.19324 0.57976 0.99604
 C2138 C -0.17932 0.57151 1.00158
 C2139 C -0.16232 0.56183 1.00711
 C2140 C -0.14999 0.56943 1.02247
 C2141 C -0.13263 0.56095 1.02619
 C2142 C -0.12739 0.54478 1.01453
 C2143 C -0.14013 0.53698 0.99958
 C2144 C -0.15746 0.54547 0.99590
 C2145 C -0.10829 0.53679 1.01674
 C2146 C -0.10547 0.51728 1.01624
 C2147 C -0.08733 0.50988 1.01602
 C2148 C -0.07182 0.52188 1.01641
 C2149 C -0.07448 0.54127 1.01761
 C2150 C -0.09258 0.54869 1.01782
 C2151 C -0.05325 0.51454 1.01349
 C2152 C -0.03765 0.50893 1.00985
 H2153 H -0.15360 0.58214 1.03118
 H2154 H -0.12320 0.56717 1.03796
 H2155 H -0.13641 0.52474 0.99008
 H2156 H -0.16684 0.53957 0.98383
 H2157 H -0.11728 0.50776 1.01565
 H2158 H -0.08541 0.49486 1.01495
 H2159 H -0.06254 0.55068 1.01766
 H2160 H -0.09426 0.56376 1.01786
 C2161 C 0.02142 0.69746 0.60845
 C2162 C 0.02099 0.68324 0.59779
 C2163 C 0.02052 0.66622 0.58515
 C2164 C 0.01072 0.66558 0.56540
 C2165 C 0.00998 0.64894 0.55335
 C2166 C 0.01906 0.63269 0.56090
 C2167 C 0.02903 0.63355 0.58067
 C2168 C 0.02974 0.65019 0.59268
 C2169 C 0.01762 0.61474 0.54866
 C2170 C 0.03308 0.60257 0.54709
 C2171 C 0.03130 0.58512 0.53688
 C2172 C 0.01408 0.57962 0.52806
 C2173 C -0.00125 0.59181 0.52906
 C2174 C 0.00050 0.60926 0.53923
 C2175 C 0.01165 0.56089 0.51981
 C2176 C 0.00924 0.54491 0.51407
 H2177 H 0.00358 0.67791 0.55936
 H2178 H 0.00237 0.64880 0.53809
 H2179 H 0.03593 0.62124 0.58711
 H2180 H 0.03734 0.65051 0.60796
 H2181 H 0.04651 0.60646 0.55392
 H2182 H 0.04324 0.57575 0.53632
 H2183 H -0.01470 0.58761 0.52251
 H2184 H -0.01174 0.61816 0.54042
 C2185 C 0.52325 0.19780 0.10887
 C2186 C 0.52283 0.18361 0.09817
 C2187 C 0.52236 0.16661 0.08548
 C2188 C 0.51257 0.16603 0.06572
 C2189 C 0.51179 0.14941 0.05364
 C2190 C 0.52081 0.13312 0.06117
 C2191 C 0.53078 0.13392 0.08095
 C2192 C 0.53153 0.15055 0.09300
 C2193 C 0.51930 0.11519 0.04892
 C2194 C 0.53472 0.10295 0.04733
 C2195 C 0.53287 0.08552 0.03712
 C2196 C 0.51562 0.08009 0.02831
 C2197 C 0.50034 0.09234 0.02932
 C2198 C 0.50216 0.10977 0.03950
 C2199 C 0.51311 0.06137 0.02007
 C2200 C 0.51064 0.04540 0.01434
 H2201 H 0.50547 0.17839 0.05970
 H2202 H 0.50418 0.14931 0.03838
 H2203 H 0.53763 0.12158 0.08738
 H2204 H 0.53911 0.15082 0.10829
 H2205 H 0.54817 0.10680 0.05416
 H2206 H 0.54477 0.07610 0.03655
 H2207 H 0.48687 0.08819 0.02279
 H2208 H 0.48996 0.11873 0.04070
 C2209 C -0.02189 0.19810 0.89192
 C2210 C -0.02150 0.18388 0.90256
 C2211 C -0.02109 0.16685 0.91518
 C2212 C -0.01141 0.16624 0.93502
 C2213 C -0.01072 0.14959 0.94705
 C2214 C -0.01972 0.13332 0.93940
 C2215 C -0.02956 0.13415 0.91955
 C2216 C -0.03023 0.15080 0.90754
 C2217 C -0.01831 0.11536 0.95162
 C2218 C -0.03376 0.10313 0.95306
 C2219 C -0.03200 0.08567 0.96323
 C2220 C -0.01481 0.08023 0.97215
 C2221 C 0.00050 0.09248 0.97129
 C2222 C -0.00123 0.10994 0.96115
 C2223 C -0.01237 0.06150 0.98036
 C2224 C -0.00996 0.04552 0.98605
 H2225 H -0.00434 0.17860 0.94113
 H2226 H -0.00321 0.14947 0.96238
 H2227 H -0.03639 0.12182 0.91303
 H2228 H -0.03773 0.15110 0.89220
 H2229 H -0.04716 0.10699 0.94614
 H2230 H -0.04391 0.07626 0.96369
 H2231 H 0.01393 0.08833 0.97791
 H2232 H 0.01099 0.11890 0.96006
 C2233 C 0.47809 0.69828 0.39182
 C2234 C 0.47836 0.68418 0.40269
 C2235 C 0.47863 0.66730 0.41558
 C2236 C 0.46933 0.65124 0.40821
 C2237 C 0.46989 0.63472 0.42045
 C2238 C 0.47978 0.63400 0.44028
 C2239 C 0.48893 0.65029 0.44767
 C2240 C 0.48834 0.66681 0.43540
 C2241 C 0.48111 0.61615 0.45271
 C2242 C 0.49820 0.61069 0.46221
 C2243 C 0.49987 0.59328 0.47247
 C2244 C 0.48451 0.58111 0.47349
 C2245 C 0.46731 0.58660 0.46462
 C2246 C 0.46560 0.60402 0.45434
 C2247 C 0.48690 0.56236 0.48168
 C2248 C 0.48927 0.54636 0.48730
 H2249 H 0.46180 0.65144 0.39288
 H2250 H 0.46295 0.62237 0.41412
 H2251 H 0.49649 0.65026 0.46296
 H2252 H 0.49555 0.67917 0.44131
 H2253 H 0.51047 0.61957 0.46099
 H2254 H 0.51331 0.58908 0.47904
 H2255 H 0.45535 0.57725 0.46519
 H2256 H 0.45220 0.60790 0.44744
 C2257 C 0.52285 0.80232 0.39147
 C2258 C 0.52240 0.81648 0.40222
 C2259 C 0.52187 0.83343 0.41498
 C2260 C 0.53116 0.84950 0.40758
 C2261 C 0.53034 0.86610 0.41969
 C2262 C 0.52018 0.86685 0.43941
 C2263 C 0.51105 0.85055 0.44683
 C2264 C 0.51191 0.83396 0.43469
 C2265 C 0.51857 0.88476 0.45170
 C2266 C 0.50134 0.89014 0.46101
 C2267 C 0.49944 0.90756 0.47121
 C2268 C 0.51472 0.91982 0.47235
 C2269 C 0.53206 0.91441 0.46365
 C2270 C 0.53399 0.89699 0.45343
 C2271 C 0.51214 0.93854 0.48056
 C2272 C 0.50965 0.95452 0.48623
 H2273 H 0.53888 0.84927 0.39233
 H2274 H 0.53727 0.87845 0.41334
 H2275 H 0.50330 0.85060 0.46205
 H2276 H 0.50471 0.82159 0.44062
 H2277 H 0.48914 0.88118 0.45971
 H2278 H 0.48590 0.91169 0.47765
 H2279 H 0.54396 0.92383 0.46432
 H2280 H 0.54750 0.89317 0.44668
 C2281 C 0.02241 0.30265 0.89189
 C2282 C 0.02196 0.31686 0.90256
 C2283 C 0.02146 0.33386 0.91523
 C2284 C 0.01163 0.33445 0.93503
 C2285 C 0.01083 0.35107 0.94709
 C2286 C 0.01987 0.36737 0.93950
 C2287 C 0.02988 0.36657 0.91969
 C2288 C 0.03066 0.34994 0.90766
 C2289 C 0.01834 0.38531 0.95174
 C2290 C 0.03376 0.39757 0.95326
 C2291 C 0.03188 0.41501 0.96345
 C2292 C 0.01461 0.42042 0.97232
 C2293 C -0.00067 0.40814 0.97138
 C2294 C 0.00117 0.39069 0.96122
 C2295 C 0.01208 0.43914 0.98052
 C2296 C 0.00960 0.45512 0.98620
 H2297 H 0.00452 0.32207 0.94109
 H2298 H 0.00319 0.35117 0.96239
 H2299 H 0.03674 0.37892 0.91322
 H2300 H 0.03827 0.34967 0.89234
 H2301 H 0.04721 0.39374 0.94638
 H2302 H 0.04378 0.42445 0.96396
 H2303 H -0.01416 0.41227 0.97796
 H2304 H -0.01103 0.38172 0.96008
 C2305 C 0.47911 0.30222 0.10837
 C2306 C 0.47952 0.31638 0.09761
 C2307 C 0.47991 0.33335 0.08486
 C2308 C 0.48982 0.33400 0.06512
 C2309 C 0.49044 0.35058 0.05295
 C2310 C 0.48114 0.36677 0.06037
 C2311 C 0.47106 0.36590 0.08014
 C2312 C 0.47047 0.34932 0.09227
 C2313 C 0.48244 0.38466 0.04800
 C2314 C 0.46686 0.39667 0.04634
 C2315 C 0.46851 0.41408 0.03602
 C2316 C 0.48572 0.41972 0.02716
 C2317 C 0.50116 0.40769 0.02823
 C2318 C 0.49955 0.39028 0.03853
 C2319 C 0.48800 0.43844 0.01880
 C2320 C 0.49027 0.45443 0.01300
 H2321 H 0.49713 0.32171 0.05917
 H2322 H 0.49813 0.35071 0.03769
 H2323 H 0.46400 0.37817 0.08649
 H2324 H 0.46278 0.34900 0.10755
 H2325 H 0.45344 0.39267 0.05321
 H2326 H 0.45648 0.42332 0.03540
 H2327 H 0.51461 0.41200 0.02166
 H2328 H 0.51187 0.38151 0.03977
 C2329 C -0.02261 0.80210 0.60872
 C2330 C -0.02219 0.81634 0.59810
 C2331 C -0.02177 0.83339 0.58551
 C2332 C -0.01193 0.83411 0.56572
 C2333 C -0.01125 0.85078 0.55371
 C2334 C -0.02043 0.86697 0.56133
 C2335 C -0.03044 0.86602 0.58113
 C2336 C -0.03110 0.84935 0.59312
 C2337 C -0.01904 0.88494 0.54914
 C2338 C -0.03456 0.89705 0.54764
 C2339 C -0.03283 0.91452 0.53747
 C2340 C -0.01561 0.92011 0.52860
 C2341 C -0.00023 0.90799 0.52952
 C2342 C -0.00193 0.89052 0.53967
 C2343 C -0.01323 0.93885 0.52036
 C2344 C -0.01085 0.95484 0.51462
 H2345 H -0.00471 0.82182 0.55963
 H2346 H -0.00360 0.85098 0.53842
 H2347 H -0.03742 0.87829 0.58763
 H2348 H -0.03873 0.84898 0.60842
 H2349 H -0.04799 0.89308 0.55451
 H2350 H -0.04481 0.92383 0.53696
 H2351 H 0.01322 0.91225 0.52294
 H2352 H 0.01035 0.88167 0.54079
 C2353 C 0.24648 0.38051 0.06445
 C2354 C 0.23976 0.37155 0.07919
 C2355 C 0.23252 0.36020 0.09670
 C2356 C 0.23453 0.34073 0.09570
 C2357 C 0.22919 0.32962 0.11341
 C2358 C 0.22173 0.33782 0.13243
 C2359 C 0.21916 0.35738 0.13300
 C2360 C 0.22456 0.36849 0.11523
 C2361 C 0.21839 0.32614 0.15213
 C2362 C 0.22395 0.33263 0.17282
 C2363 C 0.22385 0.32059 0.19079
 C2364 C 0.21815 0.30195 0.18837
 C2365 C 0.21153 0.29566 0.16819
 C2366 C 0.21155 0.30770 0.15019
 C2367 C 0.22205 0.28878 0.20549
 C2368 C 0.22715 0.27802 0.21938
 H2369 H 0.24077 0.33418 0.08148
 H2370 H 0.23170 0.31468 0.11255
 H2371 H 0.21331 0.36409 0.14732
 H2372 H 0.22294 0.38356 0.11617
 H2373 H 0.22952 0.34664 0.17485
 H2374 H 0.22925 0.32553 0.20628
 H2375 H 0.20724 0.28120 0.16610
 H2376 H 0.20691 0.30237 0.13457
 C2377 C 0.74610 0.88061 0.56416
 C2378 C 0.73939 0.87163 0.57890
 C2379 C 0.73215 0.86028 0.59641
 C2380 C 0.73421 0.84082 0.59545
 C2381 C 0.72887 0.82972 0.61317
 C2382 C 0.72137 0.83793 0.63216
 C2383 C 0.71875 0.85748 0.63269
 C2384 C 0.72415 0.86859 0.61491
 C2385 C 0.71802 0.82627 0.65188
 C2386 C 0.72355 0.83280 0.67256
 C2387 C 0.72345 0.82078 0.69056
 C2388 C 0.71777 0.80213 0.68817
 C2389 C 0.71119 0.79580 0.66799
 C2390 C 0.71121 0.80782 0.64997
 C2391 C 0.72166 0.78899 0.70532
 C2392 C 0.72674 0.77825 0.71924
 H2393 H 0.74049 0.83426 0.58126
 H2394 H 0.73142 0.81479 0.61235
 H2395 H 0.71287 0.86420 0.64698
 H2396 H 0.72250 0.88365 0.61581
 H2397 H 0.72910 0.84681 0.67457
 H2398 H 0.72882 0.82575 0.70605
 H2399 H 0.70691 0.78134 0.66592
 H2400 H 0.70660 0.80247 0.63434
 C2401 C 0.25341 0.61783 0.56701
 C2402 C 0.26021 0.62671 0.58172
 C2403 C 0.26754 0.63805 0.59913
 C2404 C 0.27518 0.62975 0.61779
 C2405 C 0.28064 0.64092 0.63545
 C2406 C 0.27845 0.66051 0.63465
 C2407 C 0.27133 0.66869 0.61550
 C2408 C 0.26593 0.65754 0.59789
 C2409 C 0.28177 0.67229 0.65426
 C2410 C 0.28889 0.69061 0.65218
 C2411 C 0.28880 0.70282 0.67003
 C2412 C 0.28180 0.69681 0.69019
 C2413 C 0.27583 0.67826 0.69277
 C2414 C 0.27583 0.66606 0.67495
 C2415 C 0.27776 0.71018 0.70707
 C2416 C 0.27255 0.72107 0.72080
 H2417 H 0.27649 0.61466 0.61890
 H2418 H 0.28623 0.63421 0.64988
 H2419 H 0.26911 0.68367 0.61446
 H2420 H 0.25994 0.66409 0.58357
 H2421 H 0.29383 0.69573 0.63655
 H2422 H 0.29331 0.71720 0.66782
 H2423 H 0.27014 0.67354 0.70825
 H2424 H 0.27003 0.65215 0.67708
 C2425 C 0.75398 0.11813 0.06695
 C2426 C 0.76072 0.12713 0.08161
 C2427 C 0.76798 0.13857 0.09896
 C2428 C 0.77612 0.13040 0.11741
 C2429 C 0.78156 0.14162 0.13503
 C2430 C 0.77884 0.16115 0.13442
 C2431 C 0.77120 0.16923 0.11548
 C2432 C 0.76582 0.15802 0.09791
 C2433 C 0.78221 0.17293 0.15402
 C2434 C 0.78885 0.19142 0.15189
 C2435 C 0.78886 0.20353 0.16983
 C2436 C 0.78242 0.19724 0.19014
 C2437 C 0.77692 0.17855 0.19273
 C2438 C 0.77683 0.16645 0.17481
 C2439 C 0.77850 0.21043 0.20726
 C2440 C 0.77340 0.22112 0.22125
 H2441 H 0.77786 0.11534 0.11838
 H2442 H 0.78756 0.13499 0.14929
 H2443 H 0.76857 0.18415 0.11459
 H2444 H 0.75944 0.16448 0.08376
 H2445 H 0.79335 0.19674 0.13617
 H2446 H 0.79300 0.21801 0.16762
 H2447 H 0.77167 0.17362 0.20832
 H2448 H 0.77141 0.15240 0.17699
 C2449 C 0.74557 0.11746 0.93391
 C2450 C 0.73880 0.12625 0.91911
 C2451 C 0.73152 0.13749 0.90161
 C2452 C 0.73284 0.15700 0.90289
 C2453 C 0.72755 0.16809 0.88520
 C2454 C 0.72084 0.15981 0.86589
 C2455 C 0.71892 0.14019 0.86503
 C2456 C 0.72427 0.12910 0.88279
 C2457 C 0.71767 0.17156 0.84621
 C2458 C 0.72399 0.16542 0.82565
 C2459 C 0.72409 0.17762 0.80782
 C2460 C 0.71782 0.19607 0.81027
 C2461 C 0.71044 0.20198 0.83030
 C2462 C 0.71027 0.18977 0.84815
 C2463 C 0.72189 0.20950 0.79345
 C2464 C 0.72710 0.22048 0.77981
 H2465 H 0.73853 0.16364 0.91734
 H2466 H 0.72955 0.18310 0.88630
 H2467 H 0.71364 0.13341 0.85048
 H2468 H 0.72319 0.11399 0.88163
 H2469 H 0.73001 0.15161 0.82363
 H2470 H 0.73005 0.17298 0.79246
 H2471 H 0.70570 0.21628 0.83241
 H2472 H 0.70504 0.19481 0.86367
 C2473 C 0.24461 0.61795 0.43301
 C2474 C 0.23795 0.62689 0.41827
 C2475 C 0.23083 0.63829 0.40082
 C2476 C 0.23265 0.65777 0.40207
 C2477 C 0.22752 0.66898 0.38441
 C2478 C 0.22047 0.66086 0.36518
 C2479 C 0.21805 0.64129 0.36435
 C2480 C 0.22324 0.63007 0.38207
 C2481 C 0.21745 0.67267 0.34553
 C2482 C 0.22348 0.66637 0.32490
 C2483 C 0.22373 0.67856 0.30707
 C2484 C 0.21792 0.69715 0.30957
 C2485 C 0.21084 0.70324 0.32966
 C2486 C 0.21050 0.69105 0.34752
 C2487 C 0.22214 0.71047 0.29267
 C2488 C 0.22746 0.72131 0.27894
 H2489 H 0.23861 0.66426 0.41645
 H2490 H 0.22991 0.68393 0.38547
 H2491 H 0.21250 0.63463 0.34986
 H2492 H 0.22178 0.61500 0.38094
 H2493 H 0.22914 0.65242 0.32284
 H2494 H 0.22946 0.67377 0.29165
 H2495 H 0.20645 0.71765 0.33181
 H2496 H 0.20551 0.69623 0.36309
 C2497 C 0.75468 0.88496 0.42936
 C2498 C 0.76154 0.87711 0.41387
 C2499 C 0.76892 0.86705 0.39541
 C2500 C 0.78278 0.85341 0.39836
 C2501 C 0.78822 0.84200 0.38090
 C2502 C 0.77981 0.84405 0.36030
 C2503 C 0.76646 0.85833 0.35732
 C2504 C 0.76105 0.86971 0.37478
 C2505 C 0.78336 0.83027 0.34260
 C2506 C 0.78382 0.83595 0.32060
 C2507 C 0.78388 0.82264 0.30386
 C2508 C 0.78364 0.80352 0.30890
 C2509 C 0.78431 0.79774 0.33069
 C2510 C 0.78423 0.81101 0.34745
 C2511 C 0.77950 0.79007 0.29214
 C2512 C 0.77426 0.77916 0.27848
 H2513 H 0.78893 0.85120 0.41430
 H2514 H 0.79866 0.83126 0.38365
 H2515 H 0.75946 0.86008 0.34180
 H2516 H 0.75020 0.88012 0.37236
 H2517 H 0.78338 0.85067 0.31636
 H2518 H 0.78315 0.82726 0.28703
 H2519 H 0.78382 0.78298 0.33477
 H2520 H 0.78362 0.80615 0.36417
 C2521 C 0.25427 0.38450 0.93062
 C2522 C 0.26109 0.37660 0.91514
 C2523 C 0.26844 0.36648 0.89671
 C2524 C 0.28228 0.35284 0.89969
 C2525 C 0.28771 0.34138 0.88227
 C2526 C 0.27930 0.34340 0.86166
 C2527 C 0.26596 0.35769 0.85865
 C2528 C 0.26057 0.36911 0.87607
 C2529 C 0.28284 0.32959 0.84399
 C2530 C 0.28333 0.33525 0.82199
 C2531 C 0.28340 0.32191 0.80527
 C2532 C 0.28313 0.30280 0.81034
 C2533 C 0.28377 0.29705 0.83215
 C2534 C 0.28369 0.31034 0.84888
 C2535 C 0.27901 0.28934 0.79360
 C2536 C 0.27379 0.27842 0.77992
 H2537 H 0.28844 0.35065 0.91563
 H2538 H 0.29814 0.33063 0.88504
 H2539 H 0.25897 0.35942 0.84312
 H2540 H 0.24973 0.37953 0.87363
 H2541 H 0.28292 0.34996 0.81772
 H2542 H 0.28269 0.32651 0.78843
 H2543 H 0.28326 0.28229 0.83625
 H2544 H 0.28306 0.30550 0.86561
 C2545 C 0.82882 0.44218 0.74922
 C2546 C 0.82059 0.42823 0.75486
 C2547 C 0.81095 0.41119 0.76041
 C2548 C 0.81893 0.39850 0.77510
 C2549 C 0.81052 0.38106 0.77866
 C2550 C 0.79404 0.37608 0.76749
 C2551 C 0.78583 0.38918 0.75327
 C2552 C 0.79426 0.40660 0.74975
 C2553 C 0.78613 0.35690 0.76937
 C2554 C 0.76661 0.35400 0.76952
 C2555 C 0.75926 0.33584 0.76899
 C2556 C 0.77130 0.32040 0.76842
 C2557 C 0.79071 0.32312 0.76897
 C2558 C 0.79810 0.34124 0.76947
 C2559 C 0.76395 0.30187 0.76519
 C2560 C 0.75834 0.28633 0.76128
 H2561 H 0.83190 0.40190 0.78338
 H2562 H 0.81705 0.37135 0.78988
 H2563 H 0.77333 0.38568 0.74415
 H2564 H 0.78806 0.41625 0.73819
 H2565 H 0.75705 0.36577 0.76966
 H2566 H 0.74421 0.33387 0.76844
 H2567 H 0.80016 0.31125 0.76828
 H2568 H 0.81317 0.34299 0.76899
 C2569 C 0.33077 0.94223 0.24880
 C2570 C 0.32290 0.92812 0.25455
 C2571 C 0.31370 0.91085 0.26021
 C2572 C 0.32431 0.89459 0.26317
 C2573 C 0.31539 0.87734 0.26619
 C2574 C 0.29571 0.87615 0.26621
 C2575 C 0.28516 0.89269 0.26396
 C2576 C 0.29412 0.90992 0.26094
 C2577 C 0.28632 0.85759 0.26698
 C2578 C 0.27114 0.85376 0.25308
 C2579 C 0.26336 0.83582 0.25223
 C2580 C 0.27058 0.82149 0.26529
 C2581 C 0.28537 0.82524 0.27959
 C2582 C 0.29319 0.84320 0.28048
 C2583 C 0.26385 0.80268 0.26253
 C2584 C 0.25862 0.78693 0.25902
 H2585 H 0.33948 0.89513 0.26244
 H2586 H 0.32391 0.86485 0.26756
 H2587 H 0.26999 0.89223 0.26415
 H2588 H 0.28578 0.92243 0.25858
 H2589 H 0.26576 0.86442 0.24221
 H2590 H 0.25208 0.83298 0.24089
 H2591 H 0.29115 0.81420 0.28965
 H2592 H 0.30477 0.84577 0.29146
 C2593 C 0.17142 0.94262 0.75179
 C2594 C 0.17973 0.92872 0.74625
 C2595 C 0.18942 0.91169 0.74079
 C2596 C 0.20576 0.90690 0.75202
 C2597 C 0.21416 0.88948 0.74858
 C2598 C 0.20627 0.87658 0.73385
 C2599 C 0.19016 0.88177 0.72211
 C2600 C 0.18177 0.89921 0.72561
 C2601 C 0.21408 0.85737 0.73201
 C2602 C 0.20201 0.84179 0.73124
 C2603 C 0.20923 0.82362 0.73181
 C2604 C 0.22859 0.82078 0.73308
 C2605 C 0.24077 0.83615 0.73316
 C2606 C 0.23357 0.85436 0.73257
 C2607 C 0.23574 0.80219 0.73631
 C2608 C 0.24121 0.78660 0.74017
 H2609 H 0.21169 0.91639 0.76396
 H2610 H 0.22636 0.88581 0.75812
 H2611 H 0.18389 0.87222 0.71050
 H2612 H 0.16908 0.90277 0.71689
 H2613 H 0.18695 0.84362 0.73116
 H2614 H 0.19969 0.81179 0.73198
 H2615 H 0.25577 0.83409 0.73426
 H2616 H 0.24321 0.86607 0.73295
 C2617 C 0.67185 0.44360 0.25420
 C2618 C 0.68057 0.42955 0.25027
 C2619 C 0.69061 0.41230 0.24722
 C2620 C 0.68994 0.40270 0.22730
 C2621 C 0.69829 0.38504 0.22533
 C2622 C 0.70723 0.37677 0.24335
 C2623 C 0.70831 0.38680 0.26305
 C2624 C 0.70004 0.40442 0.26496
 C2625 C 0.71458 0.35739 0.24214
 C2626 C 0.71108 0.34485 0.25937
 C2627 C 0.71808 0.32665 0.25865
 C2628 C 0.72877 0.32071 0.24080
 C2629 C 0.73220 0.33297 0.22340
 C2630 C 0.72506 0.35124 0.22401
 C2631 C 0.73633 0.30207 0.24104
 C2632 C 0.74209 0.28634 0.24313
 H2633 H 0.68256 0.40864 0.21351
 H2634 H 0.69716 0.37755 0.21002
 H2635 H 0.71534 0.38088 0.27709
 H2636 H 0.70062 0.41172 0.28045
 H2637 H 0.70277 0.34909 0.27334
 H2638 H 0.71522 0.31720 0.27210
 H2639 H 0.74048 0.32847 0.20951
 H2640 H 0.72800 0.36065 0.21057
 C2641 C 0.67193 0.55801 0.24495
 C2642 C 0.68027 0.57191 0.25042
 C2643 C 0.69001 0.58889 0.25594
 C2644 C 0.68259 0.60111 0.27159
 C2645 C 0.69110 0.61846 0.27535
 C2646 C 0.70712 0.62381 0.26343
 C2647 C 0.71476 0.61119 0.24817
 C2648 C 0.70624 0.59387 0.24446
 C2649 C 0.71513 0.64291 0.26570
 C2650 C 0.73463 0.64579 0.26490
 C2651 C 0.74201 0.66394 0.26476
 C2652 C 0.73000 0.67940 0.26554
 C2653 C 0.71062 0.67669 0.26705
 C2654 C 0.70321 0.65857 0.26717
 C2655 C 0.73729 0.69800 0.26265
 C2656 C 0.74287 0.71360 0.25901
 H2657 H 0.66999 0.59741 0.28053
 H2658 H 0.68501 0.62780 0.28736
 H2659 H 0.72689 0.61500 0.23848
 H2660 H 0.71200 0.58458 0.23217
 H2661 H 0.74416 0.63402 0.26399
 H2662 H 0.75703 0.66592 0.26345
 H2663 H 0.70119 0.68859 0.26739
 H2664 H 0.68814 0.65685 0.26746
 C2665 C 0.17069 0.05758 0.74605
 C2666 C 0.17908 0.07149 0.75138
 C2667 C 0.18891 0.08846 0.75674
 C2668 C 0.18178 0.10060 0.77266
 C2669 C 0.19040 0.11791 0.77636
 C2670 C 0.20624 0.12329 0.76413
 C2671 C 0.21358 0.11075 0.74859
 C2672 C 0.20495 0.09347 0.74492
 C2673 C 0.21438 0.14233 0.76644
 C2674 C 0.23389 0.14511 0.76526
 C2675 C 0.24137 0.16322 0.76518
 C2676 C 0.22945 0.17874 0.76640
 C2677 C 0.21009 0.17611 0.76828
 C2678 C 0.20258 0.15803 0.76835
 C2679 C 0.23682 0.19731 0.76360
 C2680 C 0.24245 0.21292 0.76005
 H2681 H 0.16933 0.09687 0.78185
 H2682 H 0.18454 0.12718 0.78859
 H2683 H 0.22556 0.11459 0.73865
 H2684 H 0.21048 0.08424 0.73244
 H2685 H 0.24333 0.13329 0.76401
 H2686 H 0.25638 0.16512 0.76358
 H2687 H 0.20074 0.18806 0.76897
 H2688 H 0.18750 0.15639 0.76894
 C2689 C 0.32907 0.05703 0.25334
 C2690 C 0.32090 0.07096 0.24765
 C2691 C 0.31130 0.08797 0.24197
 C2692 C 0.31921 0.10042 0.22690
 C2693 C 0.31079 0.11780 0.22309
 C2694 C 0.29439 0.12295 0.23440
 C2695 C 0.28626 0.11007 0.24904
 C2696 C 0.29469 0.09272 0.25280
 C2697 C 0.28646 0.14207 0.23219
 C2698 C 0.26694 0.14493 0.23225
 C2699 C 0.25958 0.16307 0.23247
 C2700 C 0.27161 0.17855 0.23254
 C2701 C 0.29102 0.17587 0.23177
 C2702 C 0.29841 0.15776 0.23156
 C2703 C 0.26424 0.19710 0.23548
 C2704 C 0.25858 0.21266 0.23915
 H2705 H 0.33210 0.09689 0.21847
 H2706 H 0.31726 0.12733 0.21155
 H2707 H 0.27382 0.11371 0.25826
 H2708 H 0.28854 0.08325 0.26464
 H2709 H 0.25739 0.13314 0.23250
 H2710 H 0.24453 0.16501 0.23319
 H2711 H 0.30046 0.18778 0.23207
 H2712 H 0.31349 0.15606 0.23186
 C2713 C 0.82916 0.55750 0.75338
 C2714 C 0.82092 0.57140 0.74777
 C2715 C 0.81123 0.58838 0.74218
 C2716 C 0.81888 0.60076 0.72683
 C2717 C 0.81037 0.61809 0.72305
 C2718 C 0.79412 0.62327 0.73465
 C2719 C 0.78626 0.61048 0.74958
 C2720 C 0.79478 0.59318 0.75332
 C2721 C 0.78609 0.64235 0.73241
 C2722 C 0.76656 0.64513 0.73282
 C2723 C 0.75913 0.66324 0.73301
 C2724 C 0.77110 0.67877 0.73267
 C2725 C 0.79051 0.67616 0.73154
 C2726 C 0.79797 0.65808 0.73137
 C2727 C 0.76369 0.69730 0.73558
 C2728 C 0.75802 0.71287 0.73921
 H2729 H 0.83165 0.59720 0.71817
 H2730 H 0.81663 0.62756 0.71129
 H2731 H 0.77395 0.61415 0.75903
 H2732 H 0.78884 0.58377 0.76537
 H2733 H 0.75706 0.63330 0.73339
 H2734 H 0.74408 0.66513 0.73401
 H2735 H 0.79989 0.68811 0.73153
 H2736 H 0.81305 0.65643 0.73138
 C2737 C 0.94946 0.77236 0.14026
 C2738 C 0.93516 0.77203 0.15085
 C2739 C 0.91809 0.77167 0.16348
 C2740 C 0.90200 0.78061 0.15567
 C2741 C 0.88533 0.78000 0.16771
 C2742 C 0.88450 0.77041 0.18777
 C2743 C 0.90081 0.76162 0.19558
 C2744 C 0.91748 0.76226 0.18351
 C2745 C 0.86653 0.76905 0.20006
 C2746 C 0.86117 0.75208 0.20998
 C2747 C 0.84371 0.75038 0.22023
 C2748 C 0.83140 0.76562 0.22081
 C2749 C 0.83677 0.78271 0.21149
 C2750 C 0.85423 0.78444 0.20121
 C2751 C 0.81266 0.76319 0.22915
 C2752 C 0.79668 0.76078 0.23494
 H2753 H 0.90230 0.78791 0.14017
 H2754 H 0.87297 0.78666 0.16107
 H2755 H 0.90070 0.75430 0.21106
 H2756 H 0.92986 0.75534 0.18976
 H2757 H 0.87018 0.73990 0.20913
 H2758 H 0.83961 0.73702 0.22716
 H2759 H 0.82731 0.79457 0.21173
 H2760 H 0.85803 0.79776 0.19399
 C2761 C 0.44877 0.27279 0.64130
 C2762 C 0.43454 0.27243 0.65201
 C2763 C 0.41754 0.27198 0.66476
 C2764 C 0.40143 0.28104 0.65720
 C2765 C 0.38481 0.28031 0.66933
 C2766 C 0.38406 0.27047 0.68923
 C2767 C 0.40039 0.26157 0.69681
 C2768 C 0.41701 0.26234 0.68465
 C2769 C 0.36613 0.26896 0.70158
 C2770 C 0.36080 0.25186 0.71121
 C2771 C 0.34337 0.25002 0.72148
 C2772 C 0.33105 0.26525 0.72237
 C2773 C 0.33640 0.28246 0.71334
 C2774 C 0.35383 0.28433 0.70305
 C2775 C 0.31232 0.26269 0.73067
 C2776 C 0.29634 0.26021 0.73643
 H2777 H 0.40166 0.28852 0.64181
 H2778 H 0.37243 0.28706 0.66287
 H2779 H 0.40034 0.25408 0.71217
 H2780 H 0.42941 0.25533 0.69070
 H2781 H 0.36981 0.23970 0.71011
 H2782 H 0.33928 0.23657 0.72818
 H2783 H 0.32693 0.29431 0.71382
 H2784 H 0.35762 0.29774 0.69605
 C2785 C 0.44717 0.72758 0.85880
 C2786 C 0.43297 0.72800 0.84815
 C2787 C 0.41598 0.72844 0.83550
 C2788 C 0.39994 0.71914 0.84302
 C2789 C 0.38333 0.71982 0.83098
 C2790 C 0.38252 0.72983 0.81121
 C2791 C 0.39879 0.73898 0.80368
 C2792 C 0.41539 0.73828 0.81575
 C2793 C 0.36460 0.73124 0.79895
 C2794 C 0.35913 0.74835 0.78952
 C2795 C 0.34172 0.75007 0.77931
 C2796 C 0.32954 0.73471 0.77828
 C2797 C 0.33503 0.71749 0.78711
 C2798 C 0.35245 0.71574 0.79735
 C2799 C 0.31084 0.73712 0.77000
 C2800 C 0.29487 0.73950 0.76424
 H2801 H 0.40021 0.71152 0.85831
 H2802 H 0.37100 0.71287 0.83741
 H2803 H 0.39869 0.74662 0.78842
 H2804 H 0.42774 0.74548 0.80972
 H2805 H 0.36802 0.76061 0.79072
 H2806 H 0.33752 0.76353 0.77276
 H2807 H 0.32568 0.70553 0.78653
 H2808 H 0.35634 0.70232 0.80419
 C2809 C 0.94850 0.22691 0.35904
 C2810 C 0.93432 0.22727 0.34834
 C2811 C 0.91734 0.22766 0.33566
 C2812 C 0.90126 0.21850 0.34329
 C2813 C 0.88465 0.21914 0.33125
 C2814 C 0.88388 0.22897 0.31136
 C2815 C 0.90019 0.23798 0.30371
 C2816 C 0.91680 0.23731 0.31579
 C2817 C 0.86596 0.23037 0.29911
 C2818 C 0.86057 0.24744 0.28949
 C2819 C 0.84312 0.24917 0.27935
 C2820 C 0.83085 0.23388 0.27858
 C2821 C 0.83627 0.21670 0.28757
 C2822 C 0.85372 0.21493 0.29774
 C2823 C 0.81209 0.23635 0.27047
 C2824 C 0.79609 0.23879 0.26490
 H2825 H 0.90150 0.21101 0.35867
 H2826 H 0.87229 0.21230 0.33777
 H2827 H 0.90013 0.24549 0.28836
 H2828 H 0.92918 0.24440 0.30967
 H2829 H 0.86953 0.25965 0.29051
 H2830 H 0.83898 0.26260 0.27268
 H2831 H 0.82684 0.20480 0.28719
 H2832 H 0.85755 0.20155 0.30472
 C2833 C 0.05197 0.27143 0.35796
 C2834 C 0.06615 0.27103 0.34718
 C2835 C 0.08313 0.27060 0.33439
 C2836 C 0.08377 0.26060 0.31474
 C2837 C 0.10037 0.25989 0.30255
 C2838 C 0.11659 0.26920 0.30985
 C2839 C 0.11573 0.27938 0.32951
 C2840 C 0.09912 0.28006 0.34167
 C2841 C 0.13452 0.26778 0.29749
 C2842 C 0.14659 0.28332 0.29563
 C2843 C 0.16404 0.28156 0.28535
 C2844 C 0.16964 0.26429 0.27672
 C2845 C 0.15754 0.24888 0.27798
 C2846 C 0.14009 0.25060 0.28824
 C2847 C 0.18840 0.26190 0.26846
 C2848 C 0.20442 0.25955 0.26276
 H2849 H 0.07146 0.25328 0.30889
 H2850 H 0.10051 0.25212 0.28738
 H2851 H 0.12802 0.28646 0.33577
 H2852 H 0.09881 0.28781 0.35687
 H2853 H 0.14262 0.29679 0.30233
 H2854 H 0.17334 0.29356 0.28459
 H2855 H 0.16182 0.23538 0.27160
 H2856 H 0.13126 0.23831 0.28963
 C2857 C 0.55165 0.77182 0.85817
 C2858 C 0.56581 0.77142 0.84736
 C2859 C 0.58277 0.77099 0.83452
 C2860 C 0.58335 0.76108 0.81482
 C2861 C 0.59993 0.76038 0.80258
 C2862 C 0.61618 0.76961 0.80990
 C2863 C 0.61538 0.77970 0.82963
 C2864 C 0.59880 0.78037 0.84183
 C2865 C 0.63409 0.76820 0.79749
 C2866 C 0.64620 0.78371 0.79571
 C2867 C 0.66363 0.78196 0.78539
 C2868 C 0.66918 0.76470 0.77666
 C2869 C 0.65704 0.74932 0.77784
 C2870 C 0.63960 0.75105 0.78813
 C2871 C 0.68793 0.76230 0.76837
 C2872 C 0.70394 0.75991 0.76267
 H2873 H 0.57101 0.75382 0.80895
 H2874 H 0.60002 0.75267 0.78736
 H2875 H 0.62770 0.78671 0.83590
 H2876 H 0.59854 0.78805 0.85708
 H2877 H 0.64227 0.79716 0.80249
 H2878 H 0.67296 0.79393 0.78469
 H2879 H 0.66128 0.73584 0.77138
 H2880 H 0.63075 0.73877 0.78948
 C2881 C 0.55273 0.22742 0.64146
 C2882 C 0.56688 0.22771 0.65221
 C2883 C 0.58380 0.22805 0.66499
 C2884 C 0.58426 0.23766 0.68490
 C2885 C 0.60081 0.23834 0.69707
 C2886 C 0.61715 0.22939 0.68948
 C2887 C 0.61647 0.21959 0.66955
 C2888 C 0.59991 0.21894 0.65741
 C2889 C 0.63502 0.23082 0.70183
 C2890 C 0.64724 0.21539 0.70329
 C2891 C 0.66463 0.21718 0.71359
 C2892 C 0.67001 0.23437 0.72262
 C2893 C 0.65777 0.24965 0.72174
 C2894 C 0.64038 0.24789 0.71147
 C2895 C 0.68870 0.23684 0.73093
 C2896 C 0.70466 0.23928 0.73670
 H2897 H 0.57185 0.24472 0.69096
 H2898 H 0.60081 0.24582 0.71244
 H2899 H 0.62886 0.21280 0.66308
 H2900 H 0.59974 0.21150 0.64201
 H2901 H 0.64343 0.20200 0.69628
 H2902 H 0.67405 0.20529 0.71406
 H2903 H 0.66188 0.26308 0.72844
 H2904 H 0.63143 0.26009 0.71038
 C2905 C 0.05283 0.72704 0.14108
 C2906 C 0.06706 0.72739 0.15168
 C2907 C 0.08408 0.72779 0.16428
 C2908 C 0.08463 0.73731 0.18424
 C2909 C 0.10127 0.73804 0.19624
 C2910 C 0.11761 0.72923 0.18843
 C2911 C 0.11684 0.71953 0.16845
 C2912 C 0.10019 0.71883 0.15647
 C2913 C 0.13555 0.73069 0.20062
 C2914 C 0.14788 0.71533 0.20185
 C2915 C 0.16531 0.71716 0.21204
 C2916 C 0.17064 0.73432 0.22120
 C2917 C 0.15829 0.74953 0.22054
 C2918 C 0.14086 0.74774 0.21037
 C2919 C 0.18933 0.73683 0.22947
 C2920 C 0.20528 0.73933 0.23524
 H2921 H 0.07222 0.74425 0.19048
 H2922 H 0.10134 0.74544 0.21167
 H2923 H 0.12922 0.71285 0.16180
 H2924 H 0.09995 0.71146 0.14102
 H2925 H 0.14411 0.70196 0.19476
 H2926 H 0.17480 0.70532 0.21235
 H2927 H 0.16236 0.76294 0.22734
 H2928 H 0.13184 0.75989 0.20945
   
