data_POSCAR
  _audit_creation_date              2014-09-24
  _audit_creation_method            'ToBaCCo'
  _symmetry_space_group_name_H-M    'P1'
  _symmetry_Int_Tables_number       1
  _symmetry_cell_setting            triclinic
  loop_
  _symmetry_equiv_pos_as_xyz
 x,y,z
_cell_length_a 61.8973
_cell_length_b 61.7981
_cell_length_c 61.7828
_cell_angle_alpha 89.868700
_cell_angle_beta 90.011700
_cell_angle_gamma 90.015700
loop_
  _atom_site_label
  _atom_site_type_symbol
  _atom_site_fract_x
  _atom_site_fract_y
  _atom_site_fract_z
O1 O 0.34137 0.37162 0.02020
 O2 O 0.37172 0.34271 -0.02212
 O3 O 0.34191 0.37242 -0.02192
 O4 O 0.37135 0.34186 0.02001
 O5 O 0.34617 0.31649 0.01930
 O6 O 0.31674 0.34702 -0.02259
 O7 O 0.34652 0.31734 -0.02278
 O8 O 0.31622 0.34621 0.01948
 Cu9 Cu 0.35913 0.35971 -0.00085
 Cu10 Cu 0.32887 0.32920 -0.00169
 C11 C 0.32361 0.36385 0.02689
 C12 C 0.36422 0.32513 -0.02959
 C13 C 0.32434 0.36487 -0.02933
 C14 C 0.36378 0.32396 0.02665
 O15 O 0.65768 0.62812 0.02099
 O16 O 0.62882 0.65715 -0.02238
 O17 O 0.65878 0.62749 -0.02113
 O18 O 0.62799 0.65805 0.01973
 O19 O 0.65327 0.68335 0.01975
 O20 O 0.68398 0.65286 -0.02103
 O21 O 0.65406 0.68249 -0.02232
 O22 O 0.68292 0.65346 0.02104
 Cu23 Cu 0.64077 0.64014 -0.00071
 Cu24 Cu 0.67110 0.67059 -0.00063
 C25 C 0.67520 0.63586 0.02829
 C26 C 0.63654 0.67476 -0.02962
 C27 C 0.67661 0.63501 -0.02793
 C28 C 0.63543 0.67590 0.02659
 O29 O 0.65747 0.37217 0.97898
 O30 O 0.62858 0.34312 1.02231
 O31 O 0.65857 0.37275 1.02109
 O32 O 0.62772 0.34229 0.98019
 O33 O 0.65295 0.31695 0.98013
 O34 O 0.68372 0.34734 1.02096
 O35 O 0.65377 0.31774 1.02221
 O36 O 0.68266 0.34679 0.97889
 Cu37 Cu 0.64054 0.36015 1.00066
 Cu38 Cu 0.67081 0.32965 1.00054
 C39 C 0.67498 0.36441 0.97167
 C40 C 0.63626 0.32549 1.02953
 C41 C 0.67640 0.36519 1.02788
 C42 C 0.63513 0.32445 0.97330
 O43 O 0.34130 0.62836 0.98015
 O44 O 0.37176 0.65740 1.02233
 O45 O 0.34198 0.62763 1.02227
 O46 O 0.37126 0.65817 0.98021
 O47 O 0.34606 0.68350 0.98094
 O48 O 0.31679 0.65299 1.02296
 O49 O 0.34654 0.68273 1.02302
 O50 O 0.31613 0.65373 0.98089
 Cu51 Cu 0.35912 0.64033 1.00113
 Cu52 Cu 0.32884 0.67080 1.00200
 C53 C 0.32351 0.63610 0.97349
 C54 C 0.36428 0.67498 1.02979
 C55 C 0.32443 0.63516 1.02971
 C56 C 0.36366 0.67605 0.97356
 O57 O -0.02131 0.37453 0.34482
 O58 O 0.02070 0.34464 0.37481
 O59 O 0.02081 0.37456 0.34500
 O60 O -0.02141 0.34461 0.37463
 O61 O -0.02126 0.31941 0.34927
 O62 O 0.02089 0.34931 0.31969
 O63 O 0.02078 0.31944 0.34946
 O64 O -0.02116 0.34929 0.31951
 Cu65 Cu -0.00031 0.36214 0.36237
 Cu66 Cu -0.00018 0.33182 0.33193
 C67 C -0.02832 0.36694 0.32710
 C68 C 0.02782 0.32698 0.36719
 C69 C 0.02796 0.36698 0.32733
 C70 C -0.02845 0.32694 0.36694
 O71 O 0.02086 0.65514 0.62509
 O72 O -0.02118 0.62533 0.65513
 O73 O -0.02125 0.65517 0.62524
 O74 O 0.02093 0.62530 0.65499
 O75 O 0.02101 0.65062 0.68023
 O76 O -0.02110 0.68044 0.65052
 O77 O -0.02103 0.65065 0.68037
 O78 O 0.02095 0.68041 0.65038
 Cu79 Cu -0.00017 0.63768 0.63756
 Cu80 Cu -0.00003 0.66808 0.66792
 C81 C 0.02798 0.67282 0.63267
 C82 C -0.02819 0.63298 0.67283
 C83 C -0.02829 0.67287 0.63287
 C84 C 0.02807 0.63293 0.67265
 O85 O 1.02110 0.63146 0.33881
 O86 O 0.97929 0.66131 0.36887
 O87 O 0.97910 0.63150 0.33902
 O88 O 1.02128 0.66127 0.36865
 O89 O 1.02117 0.68661 0.34332
 O90 O 0.97901 0.65685 0.31370
 O91 O 0.97920 0.68665 0.34353
 O92 O 1.02099 0.65681 0.31349
 Cu93 Cu 1.00020 0.64382 0.35640
 Cu94 Cu 1.00008 0.67429 0.32595
 C95 C 1.02803 0.63905 0.32102
 C96 C 0.97227 0.67908 0.36133
 C97 C 0.97202 0.63910 0.32130
 C98 C 1.02827 0.67902 0.36104
 O99 O 0.97913 0.33852 0.63112
 O100 O 1.02097 0.36834 0.66123
 O101 O 1.02112 0.33854 0.63137
 O102 O 0.97897 0.36832 0.66099
 O103 O 0.97884 0.34296 0.68630
 O104 O 1.02098 0.31319 0.65669
 O105 O 1.02082 0.34298 0.68654
 O106 O 0.97900 0.31317 0.65644
 Cu107 Cu 1.00006 0.35599 0.64362
 Cu108 Cu 0.99989 0.32551 0.67404
 C109 C 0.97209 0.32075 0.63864
 C110 C 1.02787 0.36074 0.67902
 C111 C 1.02809 0.32077 0.63897
 C112 C 0.97187 0.36072 0.67870
 O113 O 0.37142 0.02209 0.34280
 O114 O 0.34258 -0.02136 0.37174
 O115 O 0.37234 -0.02001 0.34188
 O116 O 0.34143 0.02074 0.37243
 O117 O 0.31627 0.02063 0.34700
 O118 O 0.34712 -0.02006 0.31651
 O119 O 0.31739 -0.02143 0.34634
 O120 O 0.34623 0.02200 0.31741
 Cu121 Cu 0.35948 0.00037 0.35978
 Cu122 Cu 0.32922 0.00028 0.32926
 C123 C 0.36372 0.02933 0.32518
 C124 C 0.32508 -0.02868 0.36395
 C125 C 0.36495 -0.02686 0.32400
 C126 C 0.32360 0.02752 0.36488
 O127 O 0.62811 0.02192 0.65750
 O128 O 0.65851 -0.02043 0.62868
 O129 O 0.62852 -0.02020 0.65844
 O130 O 0.65791 0.02167 0.62776
 O131 O 0.68308 0.02244 0.65315
 O132 O 0.65370 -0.01939 0.68382
 O133 O 0.68366 -0.01962 0.65410
 O134 O 0.65332 0.02268 0.68287
 Cu135 Cu 0.64072 0.00062 0.64053
 Cu136 Cu 0.67098 0.00157 0.67105
 C137 C 0.63561 0.02945 0.67505
 C138 C 0.67629 -0.02708 0.63647
 C139 C 0.63609 -0.02678 0.67636
 C140 C 0.67546 0.02912 0.63528
 O141 O 0.37138 0.97801 0.65727
 O142 O 0.34247 1.02135 0.62825
 O143 O 0.37224 1.02012 0.65812
 O144 O 0.34141 0.97925 0.62762
 O145 O 0.31625 0.97934 0.65303
 O146 O 0.34702 1.02014 0.68347
 O147 O 0.31729 1.02140 0.65364
 O148 O 0.34619 0.97808 0.68265
 Cu149 Cu 0.35942 0.99967 0.64025
 Cu150 Cu 0.32915 0.99975 0.67076
 C151 C 0.36370 0.97077 0.67489
 C152 C 0.32497 1.02865 0.63602
 C153 C 0.36484 1.02698 0.67598
 C154 C 0.32359 0.97245 0.63517
 O155 O 0.65916 1.02078 0.37150
 O156 O 0.62873 0.97852 0.34252
 O157 O 0.65850 0.97867 0.37230
 O158 O 0.62917 1.02063 0.34171
 O159 O 0.65436 1.01990 0.31636
 O160 O 0.68369 0.97796 0.34693
 O161 O 0.65395 0.97783 0.31718
 O162 O 0.68432 1.02003 0.34611
 Cu163 Cu 0.64134 0.99976 0.35957
 Cu164 Cu 0.67162 0.99889 0.32909
 C165 C 0.67694 1.02745 0.36375
 C166 C 0.63623 0.97104 0.32494
 C167 C 0.67605 0.97124 0.36477
 C168 C 0.63675 1.02726 0.32381
 C169 C 0.81257 0.81202 0.51254
 C170 C 0.81276 0.81204 0.49046
 C171 C 0.82831 0.79867 0.47798
 C172 C 0.79795 0.82602 0.47766
 C173 C 0.79923 0.82762 0.52500
 C174 C 0.82626 0.79691 0.52529
 C175 C 0.85067 0.80053 0.48149
 C176 C 0.86515 0.78796 0.46954
 C177 C 0.85744 0.77360 0.45384
 C178 C 0.83520 0.77190 0.45006
 C179 C 0.82071 0.78444 0.46201
 C180 C 0.80649 0.84023 0.46210
 C181 C 0.79287 0.85395 0.45038
 C182 C 0.77056 0.85350 0.45398
 C183 C 0.76185 0.83906 0.46915
 C184 C 0.77547 0.82529 0.48087
 C185 C 0.78465 0.82002 0.54068
 C186 C 0.77189 0.83456 0.55235
 C187 C 0.77373 0.85684 0.54859
 C188 C 0.78851 0.86454 0.53325
 C189 C 0.80129 0.85002 0.52159
 C190 C 0.82541 0.77445 0.52180
 C191 C 0.83915 0.76056 0.53324
 C192 C 0.85367 0.76897 0.54843
 C193 C 0.85417 0.79125 0.55240
 C194 C 0.84049 0.80514 0.54096
 H195 H 0.85688 0.81175 0.49340
 H196 H 0.88234 0.78950 0.47250
 H197 H 0.82908 0.76090 0.43789
 H198 H 0.80355 0.78293 0.45895
 H199 H 0.82375 0.84099 0.45932
 H200 H 0.79977 0.86504 0.43867
 H201 H 0.76853 0.81417 0.49253
 H202 H 0.78297 0.80282 0.54365
 H203 H 0.76056 0.82844 0.56425
 H204 H 0.79016 0.88175 0.53031
 H205 H 0.81277 0.85623 0.50989
 H206 H 0.81430 0.76774 0.51005
 H207 H 0.83858 0.74333 0.53010
 H208 H 0.86533 0.79792 0.56413
 H209 H 0.84134 0.82239 0.54395
 H210 H 0.74459 0.83853 0.47199
 C211 C 0.18741 0.18811 0.51174
 C212 C 0.18747 0.18791 0.48966
 C213 C 0.17368 0.20286 0.47681
 C214 C 0.20077 0.17220 0.47730
 C215 C 0.20235 0.17433 0.52460
 C216 C 0.17186 0.20153 0.52416
 C217 C 0.15944 0.19445 0.46126
 C218 C 0.14573 0.20821 0.44969
 C219 C 0.14620 0.23054 0.45342
 C220 C 0.16073 0.23911 0.46852
 C221 C 0.17449 0.22536 0.48009
 C222 C 0.19877 0.14983 0.48097
 C223 C 0.21151 0.13521 0.46939
 C224 C 0.22620 0.14277 0.45389
 C225 C 0.22797 0.16501 0.44988
 C226 C 0.21525 0.17965 0.46146
 C227 C 0.22480 0.17509 0.52123
 C228 C 0.23854 0.16146 0.53298
 C229 C 0.22999 0.14713 0.54835
 C230 C 0.20770 0.14668 0.55211
 C231 C 0.19396 0.16025 0.54037
 C232 C 0.17946 0.21596 0.53995
 C233 C 0.16496 0.22856 0.55183
 C234 C 0.14272 0.22673 0.54815
 C235 C 0.13501 0.21217 0.53263
 C236 C 0.14949 0.19954 0.52076
 H237 H 0.15862 0.17718 0.45843
 H238 H 0.13457 0.20141 0.43803
 H239 H 0.16128 0.25638 0.47147
 H240 H 0.18562 0.23221 0.49174
 H241 H 0.18737 0.14373 0.49279
 H242 H 0.20991 0.11803 0.47253
 H243 H 0.21688 0.19682 0.45829
 H244 H 0.23163 0.18610 0.50941
 H245 H 0.25578 0.16199 0.53000
 H246 H 0.20091 0.13567 0.56397
 H247 H 0.17672 0.15947 0.54327
 H248 H 0.19663 0.21757 0.54293
 H249 H 0.17108 0.23971 0.56387
 H250 H 0.11782 0.21053 0.52975
 H251 H 0.14328 0.18818 0.50898
 H252 H 0.23922 0.17102 0.43785
 C253 C 0.18780 0.81156 0.48822
 C254 C 0.18786 0.81174 0.51029
 C255 C 0.17406 0.79678 0.52312
 C256 C 0.20113 0.82746 0.52267
 C257 C 0.20272 0.82538 0.47537
 C258 C 0.17225 0.79815 0.47578
 C259 C 0.15981 0.80518 0.53867
 C260 C 0.14608 0.79141 0.55021
 C261 C 0.14654 0.76909 0.54646
 C262 C 0.16107 0.76052 0.53137
 C263 C 0.17485 0.77428 0.51982
 C264 C 0.19910 0.84983 0.51903
 C265 C 0.21181 0.86446 0.53062
 C266 C 0.22651 0.85691 0.54613
 C267 C 0.22832 0.83467 0.55012
 C268 C 0.21562 0.82001 0.53851
 C269 C 0.22518 0.82466 0.47875
 C270 C 0.23890 0.83832 0.46700
 C271 C 0.23033 0.85263 0.45163
 C272 C 0.20803 0.85305 0.44786
 C273 C 0.19432 0.83945 0.45960
 C274 C 0.17984 0.78372 0.46000
 C275 C 0.16533 0.77113 0.44812
 C276 C 0.14309 0.77297 0.45178
 C277 C 0.13539 0.78754 0.46729
 C278 C 0.14988 0.80016 0.47917
 H279 H 0.15900 0.82244 0.54151
 H280 H 0.13493 0.79821 0.56187
 H281 H 0.16162 0.74326 0.52840
 H282 H 0.18598 0.76744 0.50818
 H283 H 0.18769 0.85591 0.50720
 H284 H 0.21019 0.88164 0.52751
 H285 H 0.21728 0.80285 0.54166
 H286 H 0.23202 0.81366 0.49056
 H287 H 0.25614 0.83781 0.46999
 H288 H 0.20123 0.86405 0.43600
 H289 H 0.17707 0.84020 0.45669
 H290 H 0.19701 0.78210 0.45704
 H291 H 0.17144 0.75997 0.43609
 H292 H 0.11820 0.78919 0.47015
 H293 H 0.14368 0.81153 0.49094
 H294 H 0.23958 0.82867 0.56214
 C295 C 0.81244 0.18766 0.48722
 C296 C 0.81263 0.18770 0.50930
 C297 C 0.82818 0.20110 0.52177
 C298 C 0.79778 0.17378 0.52212
 C299 C 0.79910 0.17203 0.47479
 C300 C 0.82614 0.20275 0.47444
 C301 C 0.85055 0.19926 0.51827
 C302 C 0.86503 0.21184 0.53022
 C303 C 0.85732 0.22621 0.54591
 C304 C 0.83508 0.22790 0.54967
 C305 C 0.82059 0.21535 0.53772
 C306 C 0.80628 0.15960 0.53774
 C307 C 0.79262 0.14595 0.54948
 C308 C 0.77031 0.14642 0.54585
 C309 C 0.76165 0.16083 0.53063
 C310 C 0.77531 0.17454 0.51888
 C311 C 0.78455 0.17958 0.45905
 C312 C 0.77180 0.16501 0.44739
 C313 C 0.77360 0.14274 0.45123
 C314 C 0.78835 0.13508 0.46663
 C315 C 0.80112 0.14963 0.47828
 C316 C 0.82528 0.22522 0.47789
 C317 C 0.83901 0.23910 0.46643
 C318 C 0.85354 0.23067 0.45126
 C319 C 0.85405 0.20838 0.44734
 C320 C 0.84037 0.19450 0.45880
 H321 H 0.85676 0.18802 0.50637
 H322 H 0.88221 0.21030 0.52728
 H323 H 0.82896 0.23891 0.56183
 H324 H 0.80342 0.21686 0.54077
 H325 H 0.82354 0.15883 0.54054
 H326 H 0.79948 0.13488 0.56124
 H327 H 0.76840 0.18563 0.50718
 H328 H 0.78290 0.19677 0.45601
 H329 H 0.76050 0.17110 0.43545
 H330 H 0.78997 0.11788 0.46963
 H331 H 0.81257 0.14346 0.49002
 H332 H 0.81415 0.23194 0.48961
 H333 H 0.83843 0.25633 0.46952
 H334 H 0.86521 0.20169 0.43562
 H335 H 0.84122 0.17725 0.45584
 H336 H 0.74439 0.16137 0.52776
 C337 C 0.51072 0.81180 0.81161
 C338 C 0.48870 0.81141 0.81198
 C339 C 0.47559 0.82509 0.79714
 C340 C 0.47659 0.79787 0.82775
 C341 C 0.52384 0.79698 0.82528
 C342 C 0.52283 0.82759 0.79808
 C343 C 0.45989 0.83906 0.80571
 C344 C 0.44797 0.85258 0.79207
 C345 C 0.45149 0.85219 0.76969
 C346 C 0.46677 0.83796 0.76097
 C347 C 0.47870 0.82438 0.77461
 C348 C 0.48030 0.79983 0.85011
 C349 C 0.46874 0.78707 0.86480
 C350 C 0.45321 0.77240 0.85732
 C351 C 0.44922 0.77060 0.83509
 C352 C 0.46079 0.78334 0.82038
 C353 C 0.52076 0.77444 0.82455
 C354 C 0.53274 0.76080 0.83807
 C355 C 0.54806 0.76953 0.85228
 C356 C 0.55154 0.79190 0.85270
 C357 C 0.53956 0.80555 0.83923
 C358 C 0.53863 0.82023 0.78354
 C359 C 0.55022 0.83494 0.77083
 C360 C 0.54624 0.85716 0.77265
 C361 C 0.53071 0.86463 0.78732
 C362 C 0.51914 0.84994 0.80006
 H363 H 0.45719 0.83979 0.82302
 H364 H 0.43618 0.86352 0.79898
 H365 H 0.46957 0.83748 0.74366
 H366 H 0.49046 0.81345 0.76765
 H367 H 0.49208 0.81127 0.85616
 H368 H 0.47185 0.78869 0.88198
 H369 H 0.45757 0.78173 0.80322
 H370 H 0.50897 0.76748 0.81363
 H371 H 0.52997 0.74350 0.83757
 H372 H 0.56336 0.79882 0.86362
 H373 H 0.54225 0.82285 0.83998
 H374 H 0.54184 0.80308 0.78193
 H375 H 0.56226 0.82900 0.75960
 H376 H 0.52761 0.88181 0.78896
 H377 H 0.50735 0.85597 0.81150
 H378 H 0.43718 0.75936 0.82913
 C379 C 0.51095 0.18836 0.18862
 C380 C 0.48892 0.18869 0.18823
 C381 C 0.47583 0.17498 0.20306
 C382 C 0.47679 0.20220 0.17245
 C383 C 0.52403 0.20320 0.17493
 C384 C 0.52309 0.17262 0.20218
 C385 C 0.46014 0.16101 0.19448
 C386 C 0.44821 0.14748 0.20812
 C387 C 0.45171 0.14789 0.23050
 C388 C 0.46698 0.16213 0.23924
 C389 C 0.47892 0.17571 0.22560
 C390 C 0.48050 0.20023 0.15009
 C391 C 0.46893 0.21297 0.13539
 C392 C 0.45341 0.22764 0.14286
 C393 C 0.44942 0.22945 0.16509
 C394 C 0.46099 0.21673 0.17981
 C395 C 0.52091 0.22573 0.17565
 C396 C 0.53285 0.23938 0.16209
 C397 C 0.54815 0.23067 0.14787
 C398 C 0.55167 0.20830 0.14746
 C399 C 0.53974 0.19465 0.16097
 C400 C 0.53889 0.18003 0.21669
 C401 C 0.55052 0.16536 0.22940
 C402 C 0.54659 0.14313 0.22760
 C403 C 0.53106 0.13560 0.21296
 C404 C 0.51943 0.15025 0.20022
 H405 H 0.45744 0.16026 0.17718
 H406 H 0.43642 0.13654 0.20120
 H407 H 0.46976 0.16262 0.25654
 H408 H 0.49067 0.18665 0.23257
 H409 H 0.49228 0.18879 0.14405
 H410 H 0.47205 0.21134 0.11822
 H411 H 0.45778 0.21834 0.19696
 H412 H 0.50914 0.23267 0.18658
 H413 H 0.53005 0.25667 0.16258
 H414 H 0.56348 0.20140 0.13654
 H415 H 0.54245 0.17735 0.16023
 H416 H 0.54207 0.19719 0.21828
 H417 H 0.56257 0.17135 0.24061
 H418 H 0.52799 0.11842 0.21134
 H419 H 0.50765 0.14418 0.18879
 H420 H 0.43738 0.24068 0.17104
 C421 C 0.48914 0.18845 0.81135
 C422 C 0.51117 0.18886 0.81174
 C423 C 0.52428 0.17526 0.79691
 C424 C 0.52323 0.20232 0.82756
 C425 C 0.47603 0.20326 0.82496
 C426 C 0.47708 0.17263 0.79789
 C427 C 0.53995 0.16122 0.80548
 C428 C 0.55174 0.14764 0.79184
 C429 C 0.54813 0.14807 0.76948
 C430 C 0.53292 0.16242 0.76075
 C431 C 0.52113 0.17605 0.77438
 C432 C 0.51945 0.20021 0.84990
 C433 C 0.53082 0.21302 0.86464
 C434 C 0.54621 0.22789 0.85722
 C435 C 0.55030 0.22980 0.83501
 C436 C 0.53893 0.21701 0.82025
 C437 C 0.47915 0.22579 0.82415
 C438 C 0.46731 0.23941 0.83776
 C439 C 0.45211 0.23067 0.85210
 C440 C 0.44854 0.20831 0.85256
 C441 C 0.46037 0.19468 0.83901
 C442 C 0.46134 0.17993 0.78323
 C443 C 0.44994 0.16517 0.77047
 C444 C 0.45404 0.14297 0.77238
 C445 C 0.46948 0.13556 0.78721
 C446 C 0.48087 0.15029 0.79999
 H447 H 0.54268 0.16042 0.82278
 H448 H 0.56348 0.13662 0.79876
 H449 H 0.53006 0.16293 0.74345
 H450 H 0.50938 0.18704 0.76742
 H451 H 0.50773 0.18864 0.85589
 H452 H 0.52763 0.21131 0.88180
 H453 H 0.54219 0.21873 0.80311
 H454 H 0.49088 0.23275 0.81316
 H455 H 0.47014 0.25671 0.83722
 H456 H 0.43680 0.20138 0.86359
 H457 H 0.45767 0.17738 0.83982
 H458 H 0.45808 0.19707 0.78152
 H459 H 0.43796 0.17106 0.75911
 H460 H 0.47267 0.11840 0.78892
 H461 H 0.49261 0.14431 0.81154
 H462 H 0.56225 0.24119 0.82911
 C463 C 0.48957 0.81236 0.18815
 C464 C 0.51159 0.81200 0.18776
 C465 C 0.52469 0.82562 0.20260
 C466 C 0.52367 0.79854 0.17197
 C467 C 0.47647 0.79751 0.17456
 C468 C 0.47748 0.82814 0.20163
 C469 C 0.54034 0.83970 0.19405
 C470 C 0.55213 0.85327 0.20771
 C471 C 0.54854 0.85281 0.23007
 C472 C 0.53335 0.83843 0.23878
 C473 C 0.52155 0.82481 0.22513
 C474 C 0.51988 0.80058 0.14962
 C475 C 0.53125 0.78775 0.13491
 C476 C 0.54666 0.77292 0.14237
 C477 C 0.55078 0.77108 0.16458
 C478 C 0.53940 0.78389 0.17931
 C479 C 0.47962 0.77498 0.17539
 C480 C 0.46779 0.76131 0.16182
 C481 C 0.45254 0.77000 0.14748
 C482 C 0.44895 0.79235 0.14699
 C483 C 0.46078 0.80603 0.16051
 C484 C 0.46176 0.82077 0.21629
 C485 C 0.45034 0.83548 0.22908
 C486 C 0.45440 0.85769 0.22722
 C487 C 0.46981 0.86517 0.21240
 C488 C 0.48122 0.85048 0.19958
 H489 H 0.54306 0.84052 0.17675
 H490 H 0.56387 0.86432 0.20080
 H491 H 0.53050 0.83789 0.25607
 H492 H 0.50982 0.81379 0.23208
 H493 H 0.50815 0.81211 0.14360
 H494 H 0.52804 0.78941 0.11775
 H495 H 0.54267 0.78222 0.19645
 H496 H 0.49138 0.76806 0.18638
 H497 H 0.47064 0.74403 0.16238
 H498 H 0.43717 0.79924 0.13598
 H499 H 0.45804 0.82332 0.15968
 H500 H 0.45853 0.80362 0.21796
 H501 H 0.43838 0.82953 0.24043
 H502 H 0.47297 0.88234 0.21072
 H503 H 0.49295 0.85652 0.18805
 H504 H 0.56273 0.75972 0.17051
 C505 C 0.81195 0.51110 0.81220
 C506 C 0.81203 0.48903 0.81199
 C507 C 0.79714 0.47615 0.82582
 C508 C 0.82756 0.47663 0.79853
 C509 C 0.82571 0.52395 0.79722
 C510 C 0.79867 0.52345 0.82793
 C511 C 0.80559 0.46040 0.83988
 C512 C 0.79190 0.44862 0.85347
 C513 C 0.76960 0.45235 0.85307
 C514 C 0.76099 0.46770 0.83877
 C515 C 0.77468 0.47948 0.82511
 C516 C 0.84993 0.48003 0.80048
 C517 C 0.86439 0.46815 0.78783
 C518 C 0.85666 0.45262 0.77329
 C519 C 0.83441 0.44895 0.77150
 C520 C 0.81993 0.46083 0.78412
 C521 C 0.82487 0.52068 0.77472
 C522 C 0.83863 0.53223 0.76095
 C523 C 0.85319 0.54731 0.76951
 C524 C 0.85369 0.55104 0.79184
 C525 C 0.83997 0.53950 0.80561
 C526 C 0.78414 0.53926 0.82050
 C527 C 0.77142 0.55081 0.83517
 C528 C 0.77323 0.54680 0.85741
 C529 C 0.78795 0.53132 0.86495
 C530 C 0.80070 0.51978 0.85031
 H531 H 0.82283 0.45752 0.84061
 H532 H 0.79872 0.43677 0.86446
 H533 H 0.74375 0.47066 0.83827
 H534 H 0.76781 0.49129 0.81412
 H535 H 0.85616 0.49181 0.81183
 H536 H 0.88158 0.47102 0.78945
 H537 H 0.80276 0.45785 0.78254
 H538 H 0.81372 0.50904 0.76789
 H539 H 0.83806 0.52927 0.74368
 H540 H 0.86487 0.56269 0.79863
 H541 H 0.84082 0.54232 0.82289
 H542 H 0.78248 0.54243 0.80333
 H543 H 0.76014 0.56281 0.82917
 H544 H 0.78958 0.52819 0.88213
 H545 H 0.81213 0.50798 0.85639
 H546 H 0.82827 0.43691 0.76037
 C547 C 0.18783 0.51046 0.18787
 C548 C 0.18798 0.48839 0.18789
 C549 C 0.20130 0.47591 0.17229
 C550 C 0.17423 0.47564 0.20297
 C551 C 0.17226 0.52295 0.20121
 C552 C 0.20270 0.52323 0.17394
 C553 C 0.19926 0.47934 0.14988
 C554 C 0.21199 0.46764 0.13535
 C555 C 0.22670 0.45223 0.14305
 C556 C 0.22852 0.44845 0.16533
 C557 C 0.21581 0.46017 0.17988
 C558 C 0.16002 0.45999 0.19471
 C559 C 0.14632 0.44854 0.20858
 C560 C 0.14679 0.45249 0.23088
 C561 C 0.16130 0.46768 0.23931
 C562 C 0.17505 0.47913 0.22544
 C563 C 0.17983 0.53890 0.21547
 C564 C 0.16532 0.55084 0.22800
 C565 C 0.14308 0.54707 0.22625
 C566 C 0.13540 0.53140 0.21184
 C567 C 0.14989 0.51946 0.19929
 C568 C 0.22517 0.51996 0.17472
 C569 C 0.23885 0.53165 0.16098
 C570 C 0.23023 0.54685 0.14652
 C571 C 0.20792 0.55051 0.14604
 C572 C 0.19424 0.53883 0.15972
 H573 H 0.18783 0.49108 0.14367
 H574 H 0.21036 0.47059 0.11814
 H575 H 0.23980 0.43651 0.17145
 H576 H 0.21747 0.45717 0.19708
 H577 H 0.15919 0.45700 0.17746
 H578 H 0.13517 0.43681 0.20189
 H579 H 0.18617 0.49087 0.23218
 H580 H 0.19700 0.54194 0.21703
 H581 H 0.17142 0.56299 0.23903
 H582 H 0.11821 0.52845 0.21027
 H583 H 0.14370 0.50756 0.18804
 H584 H 0.23205 0.50827 0.18584
 H585 H 0.25611 0.52875 0.16154
 H586 H 0.20109 0.56225 0.13493
 H587 H 0.17699 0.54165 0.15893
 H588 H 0.16185 0.47080 0.25655
 C589 C 0.81178 0.48893 0.18790
 C590 C 0.81189 0.51100 0.18809
 C591 C 0.79703 0.52388 0.17424
 C592 C 0.82743 0.52339 0.20155
 C593 C 0.82554 0.47607 0.20288
 C594 C 0.79849 0.47658 0.17217
 C595 C 0.80551 0.53963 0.16019
 C596 C 0.79185 0.55142 0.14658
 C597 C 0.76955 0.54772 0.14696
 C598 C 0.76090 0.53237 0.16125
 C599 C 0.77456 0.52057 0.17492
 C600 C 0.84980 0.51998 0.19959
 C601 C 0.86428 0.53185 0.21223
 C602 C 0.85657 0.54737 0.22678
 C603 C 0.83433 0.55105 0.22859
 C604 C 0.81983 0.53918 0.21597
 C605 C 0.82471 0.47935 0.22538
 C606 C 0.83848 0.46781 0.23915
 C607 C 0.85302 0.45272 0.23059
 C608 C 0.85350 0.44899 0.20826
 C609 C 0.83978 0.46053 0.19449
 C610 C 0.78394 0.46079 0.17960
 C611 C 0.77122 0.44924 0.16492
 C612 C 0.77305 0.45323 0.14268
 C613 C 0.78780 0.46869 0.13514
 C614 C 0.80055 0.48023 0.14979
 H615 H 0.82276 0.54249 0.15948
 H616 H 0.79871 0.56327 0.13561
 H617 H 0.74365 0.52944 0.16172
 H618 H 0.76766 0.50877 0.18590
 H619 H 0.85601 0.50821 0.18822
 H620 H 0.88147 0.52897 0.21061
 H621 H 0.80266 0.54216 0.21756
 H622 H 0.81357 0.49100 0.23222
 H623 H 0.83792 0.47077 0.25642
 H624 H 0.86467 0.43734 0.20147
 H625 H 0.84062 0.45770 0.17721
 H626 H 0.78226 0.45764 0.19677
 H627 H 0.75992 0.43725 0.17092
 H628 H 0.78945 0.47180 0.11796
 H629 H 0.81200 0.49202 0.14372
 H630 H 0.82821 0.56309 0.23973
 C631 C 0.18743 0.48940 0.81262
 C632 C 0.18759 0.51147 0.81262
 C633 C 0.20091 0.52395 0.82824
 C634 C 0.17388 0.52422 0.79751
 C635 C 0.17188 0.47690 0.79924
 C636 C 0.20230 0.47663 0.82655
 C637 C 0.19888 0.52049 0.85065
 C638 C 0.21162 0.53219 0.86519
 C639 C 0.22634 0.54761 0.85751
 C640 C 0.22814 0.55141 0.83523
 C641 C 0.21543 0.53970 0.82067
 C642 C 0.15966 0.53987 0.80574
 C643 C 0.14601 0.55133 0.79183
 C644 C 0.14654 0.54741 0.76954
 C645 C 0.16105 0.53221 0.76114
 C646 C 0.17476 0.52074 0.77504
 C647 C 0.17948 0.46095 0.78500
 C648 C 0.16498 0.44901 0.77243
 C649 C 0.14274 0.45278 0.77411
 C650 C 0.13504 0.46846 0.78850
 C651 C 0.14951 0.48039 0.80109
 C652 C 0.22477 0.47991 0.82578
 C653 C 0.23846 0.46824 0.83952
 C654 C 0.22984 0.45303 0.85397
 C655 C 0.20753 0.44935 0.85445
 C656 C 0.19385 0.46102 0.84076
 H657 H 0.18746 0.50874 0.85684
 H658 H 0.21000 0.52921 0.88240
 H659 H 0.23942 0.56336 0.82912
 H660 H 0.21708 0.54271 0.80347
 H661 H 0.15880 0.54285 0.82298
 H662 H 0.13486 0.56308 0.79849
 H663 H 0.18588 0.50901 0.76833
 H664 H 0.19664 0.45791 0.78349
 H665 H 0.17111 0.43686 0.76142
 H666 H 0.11785 0.47141 0.79003
 H667 H 0.14330 0.49229 0.81232
 H668 H 0.23165 0.49161 0.81466
 H669 H 0.25571 0.47115 0.83897
 H670 H 0.20070 0.43760 0.86555
 H671 H 0.17659 0.45818 0.84154
 H672 H 0.16165 0.52910 0.74390
 C673 C 0.25981 0.41756 0.07553
 C674 C 0.28415 0.42154 0.07125
 C675 C 0.28797 0.39698 0.07195
 C676 C 0.26383 0.39283 0.07601
 C677 C 0.26425 0.41840 0.09998
 C678 C 0.26807 0.39385 0.10070
 C679 C 0.28839 0.42257 0.09594
 C680 C 0.29242 0.39782 0.09640
 C681 C 0.30098 0.38509 0.05615
 C682 C 0.31146 0.37536 0.04292
 C683 C 0.25093 0.43039 0.11546
 C684 C 0.23991 0.44030 0.12808
 H685 H 0.24626 0.42580 0.06712
 H686 H 0.29091 0.43279 0.05897
 H687 H 0.25387 0.38046 0.06764
 H688 H 0.26130 0.38259 0.11298
 H689 H 0.29834 0.43493 0.10431
 H690 H 0.30597 0.38957 0.10481
 C691 C 0.73792 0.58376 0.08000
 C692 C 0.71436 0.57850 0.07344
 C693 C 0.70886 0.60269 0.07498
 C694 C 0.73224 0.60811 0.08131
 C695 C 0.73155 0.58121 0.10391
 C696 C 0.72605 0.60540 0.10546
 C697 C 0.70817 0.57576 0.09759
 C698 C 0.70245 0.60016 0.09888
 C699 C 0.69653 0.61461 0.05860
 C700 C 0.68666 0.62435 0.04488
 C701 C 0.74458 0.56925 0.11969
 C702 C 0.75573 0.55942 0.13233
 H703 H 0.75264 0.57688 0.07241
 H704 H 0.70942 0.56757 0.06009
 H705 H 0.74200 0.62154 0.07444
 H706 H 0.73100 0.61632 0.11881
 H707 H 0.69842 0.56233 0.10447
 H708 H 0.68773 0.60704 0.10645
 C709 C 0.73659 0.41831 0.92043
 C710 C 0.71236 0.42214 0.92533
 C711 C 0.70872 0.39754 0.92501
 C712 C 0.73276 0.39356 0.92034
 C713 C 0.73149 0.41896 0.89610
 C714 C 0.72785 0.39437 0.89577
 C715 C 0.70744 0.42297 0.90075
 C716 C 0.70359 0.39817 0.90068
 C717 C 0.69635 0.38565 0.94138
 C718 C 0.68646 0.37592 0.95509
 C719 C 0.74456 0.43088 0.88032
 C720 C 0.75574 0.44068 0.86770
 H721 H 0.75030 0.42672 0.92838
 H722 H 0.70586 0.43342 0.93767
 H723 H 0.74304 0.38134 0.92858
 H724 H 0.73436 0.38308 0.88344
 H725 H 0.69718 0.43520 0.89250
 H726 H 0.68988 0.38975 0.89275
 C727 C 0.26785 0.57432 0.92409
 C728 C 0.29218 0.57952 0.92132
 C729 C 0.28775 0.60287 0.92854
 C730 C 0.26362 0.59785 0.93155
 C731 C 0.26395 0.58143 0.90057
 C732 C 0.25952 0.60478 0.90779
 C733 C 0.28808 0.58644 0.89754
 C734 C 0.28386 0.60999 0.90502
 C735 C 0.30081 0.61478 0.94431
 C736 C 0.31132 0.62454 0.95750
 C737 C 0.25060 0.56944 0.88511
 C738 C 0.23956 0.55952 0.87249
 H739 H 0.26112 0.55953 0.93177
 H740 H 0.30576 0.56926 0.92705
 H741 H 0.25369 0.60267 0.94571
 H742 H 0.24595 0.61504 0.90206
 H743 H 0.29799 0.58161 0.88338
 H744 H 0.29059 0.62479 0.89735
 C745 C 0.10405 0.27483 0.39683
 C746 C 0.07984 0.26895 0.39452
 C747 C 0.07389 0.29239 0.40022
 C748 C 0.09786 0.29848 0.40236
 C749 C 0.10282 0.26911 0.42101
 C750 C 0.09689 0.29255 0.42673
 C751 C 0.07885 0.26303 0.41886
 C752 C 0.07267 0.28666 0.42440
 C753 C 0.05760 0.30506 0.38855
 C754 C 0.04406 0.31520 0.37886
 C755 C 0.11868 0.25579 0.43256
 C756 C 0.13141 0.24448 0.44206
 H757 H 0.11713 0.26982 0.38562
 H758 H 0.07264 0.25937 0.38115
 H759 H 0.10550 0.31321 0.39544
 H760 H 0.10410 0.30210 0.44011
 H761 H 0.07120 0.24831 0.42577
 H762 H 0.05958 0.29166 0.43561
 C763 C 0.08467 0.71802 0.56787
 C764 C 0.08972 0.69828 0.58254
 C765 C 0.07412 0.70731 0.59962
 C766 C 0.06882 0.72684 0.58513
 C767 C 0.10310 0.73054 0.57883
 C768 C 0.08749 0.73955 0.59591
 C769 C 0.10842 0.71102 0.59331
 C770 C 0.09256 0.71984 0.61058
 C771 C 0.05780 0.69467 0.61129
 C772 C 0.04424 0.68456 0.62099
 C773 C 0.11898 0.74384 0.56728
 C774 C 0.13173 0.75514 0.55780
 H775 H 0.08160 0.71742 0.55017
 H776 H 0.09045 0.68117 0.57717
 H777 H 0.05237 0.73321 0.58188
 H778 H 0.08674 0.75666 0.60129
 H779 H 0.12488 0.70467 0.59655
 H780 H 0.09562 0.72045 0.62827
 C781 C 0.89826 0.73274 0.39416
 C782 C 0.92263 0.73788 0.39165
 C783 C 0.92781 0.71395 0.39600
 C784 C 0.90368 0.70860 0.39832
 C785 C 0.90016 0.73703 0.41857
 C786 C 0.90533 0.71310 0.42293
 C787 C 0.92429 0.74237 0.41625
 C788 C 0.92970 0.71825 0.42042
 C789 C 0.94339 0.70126 0.38350
 C790 C 0.95644 0.69102 0.37331
 C791 C 0.88487 0.74999 0.43115
 C792 C 0.87235 0.76072 0.44150
 H793 H 0.88516 0.73885 0.38350
 H794 H 0.92992 0.74793 0.37864
 H795 H 0.89538 0.69458 0.39080
 H796 H 0.89805 0.70306 0.43594
 H797 H 0.93260 0.75639 0.42376
 H798 H 0.94280 0.71214 0.43108
 C799 C 0.89428 0.28372 0.59331
 C800 C 0.90713 0.27543 0.61320
 C801 C 0.92765 0.28588 0.60387
 C802 C 0.91505 0.29438 0.58418
 C803 C 0.90003 0.26279 0.58124
 C804 C 0.92055 0.27324 0.57192
 C805 C 0.91263 0.25430 0.60093
 C806 C 0.93338 0.26494 0.59180
 C807 C 0.94322 0.29857 0.61641
 C808 C 0.95626 0.30882 0.62663
 C809 C 0.88475 0.24983 0.56863
 C810 C 0.87223 0.23909 0.55826
 H811 H 0.87803 0.29130 0.59379
 H812 H 0.90178 0.27648 0.63032
 H813 H 0.91622 0.31100 0.57744
 H814 H 0.92590 0.27219 0.55480
 H815 H 0.91147 0.23767 0.60768
 H816 H 0.94962 0.25735 0.59131
 C817 C 0.42208 0.10025 0.29267
 C818 C 0.39732 0.10035 0.29646
 C819 C 0.39672 0.07603 0.29137
 C820 C 0.42128 0.07568 0.28778
 C821 C 0.41813 0.10493 0.26856
 C822 C 0.41751 0.08061 0.26349
 C823 C 0.39357 0.10528 0.27214
 C824 C 0.39278 0.08072 0.26726
 C825 C 0.38485 0.05966 0.30376
 C826 C 0.37516 0.04594 0.31367
 C827 C 0.43008 0.12069 0.25548
 C828 C 0.43993 0.13329 0.24431
 H829 H 0.43427 0.10847 0.30296
 H830 H 0.38888 0.10827 0.31017
 H831 H 0.43255 0.06333 0.29434
 H832 H 0.42594 0.07266 0.24979
 H833 H 0.38231 0.11764 0.26557
 H834 H 0.38061 0.07251 0.25694
 C835 C 0.57936 0.10243 0.70673
 C836 C 0.60430 0.10039 0.70553
 C837 C 0.60215 0.07581 0.70862
 C838 C 0.57742 0.07758 0.70962
 C839 C 0.58105 0.10481 0.73142
 C840 C 0.57892 0.08023 0.73449
 C841 C 0.60579 0.10304 0.73042
 C842 C 0.60382 0.07822 0.73331
 C843 C 0.61398 0.05945 0.69626
 C844 C 0.62380 0.04582 0.68642
 C845 C 0.56932 0.12066 0.74451
 C846 C 0.55968 0.13336 0.75567
 H847 H 0.56917 0.11258 0.69596
 H848 H 0.61487 0.10850 0.69347
 H849 H 0.56588 0.06693 0.70093
 H850 H 0.56836 0.07211 0.74655
 H851 H 0.61732 0.11368 0.73912
 H852 H 0.61400 0.06808 0.74410
 C853 C 0.39977 0.90946 0.74054
 C854 C 0.41001 0.92926 0.72908
 C855 C 0.39666 0.92410 0.70876
 C856 C 0.38624 0.90453 0.72004
 C857 C 0.41801 0.89519 0.73160
 C858 C 0.40467 0.88999 0.71129
 C859 C 0.42842 0.91476 0.72032
 C860 C 0.41490 0.90984 0.69980
 C861 C 0.38482 0.94047 0.69635
 C862 C 0.37514 0.95419 0.68642
 C863 C 0.42992 0.87942 0.74470
 C864 C 0.43974 0.86680 0.75588
 H865 H 0.39367 0.90914 0.75744
 H866 H 0.41207 0.94558 0.73626
 H867 H 0.36876 0.90051 0.71979
 H868 H 0.40262 0.87366 0.70413
 H869 H 0.44590 0.91879 0.72058
 H870 H 0.42099 0.91018 0.68291
 C871 C 0.59228 0.91630 0.25879
 C872 C 0.58255 0.92978 0.27749
 C873 C 0.60270 0.92485 0.29116
 C874 C 0.61260 0.91160 0.27264
 C875 C 0.58154 0.89595 0.26824
 C876 C 0.60169 0.89100 0.28191
 C877 C 0.57163 0.90919 0.28677
 C878 C 0.59197 0.90451 0.30065
 C879 C 0.61456 0.94114 0.30359
 C880 C 0.62440 0.95472 0.31350
 C881 C 0.56979 0.88015 0.25510
 C882 C 0.56011 0.86749 0.24390
 H883 H 0.59229 0.92097 0.24143
 H884 H 0.57481 0.94590 0.27580
 H885 H 0.62958 0.91277 0.26696
 H886 H 0.60942 0.87488 0.28358
 H887 H 0.55465 0.90802 0.29243
 H888 H 0.59198 0.89985 0.31802
 C889 C 0.39676 0.27905 0.89135
 C890 C 0.38930 0.27059 0.91376
 C891 C 0.39776 0.29150 0.92415
 C892 C 0.40504 0.30018 0.90200
 C893 C 0.41899 0.26871 0.89523
 C894 C 0.42747 0.28962 0.90561
 C895 C 0.41170 0.26005 0.91739
 C896 C 0.42000 0.28115 0.92802
 C897 C 0.38588 0.30386 0.94047
 C898 C 0.37604 0.31373 0.95406
 C899 C 0.43079 0.25563 0.87943
 C900 C 0.44050 0.24447 0.86677
 H901 H 0.38734 0.27805 0.87609
 H902 H 0.37347 0.26289 0.91729
 H903 H 0.40216 0.31683 0.89586
 H904 H 0.44330 0.29729 0.90207
 H905 H 0.41457 0.24341 0.92355
 H906 H 0.42942 0.28214 0.94327
 C907 C 0.57141 0.71888 0.91379
 C908 C 0.58616 0.69932 0.90858
 C909 C 0.60341 0.70864 0.92383
 C910 C 0.58883 0.72800 0.92928
 C911 C 0.58185 0.73146 0.89505
 C912 C 0.59910 0.74077 0.91031
 C913 C 0.59642 0.71212 0.88956
 C914 C 0.61386 0.72123 0.90509
 C915 C 0.61534 0.69624 0.94014
 C916 C 0.62507 0.68630 0.95382
 C917 C 0.56982 0.74455 0.87936
 C918 C 0.55990 0.75571 0.86681
 H919 H 0.55382 0.71805 0.91720
 H920 H 0.58098 0.68213 0.90805
 H921 H 0.58584 0.73440 0.94578
 H922 H 0.60429 0.75795 0.91085
 H923 H 0.59940 0.70573 0.87305
 H924 H 0.63145 0.72206 0.90169
 C925 C 0.40765 0.74132 0.08477
 C926 C 0.41753 0.72324 0.07058
 C927 C 0.39798 0.70883 0.07582
 C928 C 0.38792 0.72673 0.08978
 C929 C 0.41930 0.73177 0.10457
 C930 C 0.39975 0.71737 0.10982
 C931 C 0.42937 0.71387 0.09061
 C932 C 0.40962 0.69925 0.09560
 C933 C 0.38604 0.69638 0.05959
 C934 C 0.37614 0.68646 0.04606
 C935 C 0.43115 0.74493 0.12028
 C936 C 0.44090 0.75615 0.13288
 H937 H 0.40696 0.75876 0.08049
 H938 H 0.42470 0.72552 0.05427
 H939 H 0.37075 0.73189 0.08926
 H940 H 0.39259 0.71511 0.12614
 H941 H 0.44654 0.70873 0.09113
 H942 H 0.41030 0.68180 0.09986
 C943 C 0.60648 0.26871 0.10260
 C944 C 0.60379 0.26680 0.07776
 C945 C 0.60321 0.29160 0.07613
 C946 C 0.60608 0.29372 0.10074
 C947 C 0.58177 0.26876 0.10498
 C948 C 0.58117 0.29357 0.10337
 C949 C 0.57892 0.26666 0.08037
 C950 C 0.57850 0.29165 0.07851
 C951 C 0.61510 0.30401 0.05979
 C952 C 0.62481 0.31395 0.04609
 C953 C 0.56980 0.25567 0.12071
 C954 C 0.55994 0.24449 0.13330
 H955 H 0.61784 0.25913 0.11269
 H956 H 0.61322 0.25592 0.06705
 H957 H 0.61739 0.30499 0.10892
 H958 H 0.57173 0.30442 0.11409
 H959 H 0.56762 0.25540 0.07216
 H960 H 0.56713 0.30122 0.06841
 C961 C 0.27329 0.10534 0.60594
 C962 C 0.26754 0.08103 0.60807
 C963 C 0.29113 0.07528 0.60296
 C964 C 0.29710 0.09934 0.60101
 C965 C 0.26826 0.10416 0.58162
 C966 C 0.29185 0.09842 0.57649
 C967 C 0.26231 0.08009 0.58359
 C968 C 0.28609 0.07410 0.57864
 C969 C 0.30355 0.05892 0.61482
 C970 C 0.31347 0.04522 0.62453
 C971 C 0.25512 0.11992 0.56974
 C972 C 0.24389 0.13252 0.55998
 H973 H 0.26788 0.11836 0.61703
 H974 H 0.25767 0.07371 0.62118
 H975 H 0.31155 0.10706 0.60832
 H976 H 0.30170 0.10575 0.56337
 H977 H 0.24787 0.07234 0.57629
 H978 H 0.29149 0.06108 0.56754
 C979 C 0.74382 0.07739 0.40989
 C980 C 0.72258 0.06716 0.41833
 C981 C 0.71205 0.07162 0.39624
 C982 C 0.73310 0.08161 0.38763
 C983 C 0.73588 0.09963 0.41759
 C984 C 0.72535 0.10410 0.39550
 C985 C 0.71483 0.08964 0.42621
 C986 C 0.70409 0.09386 0.40393
 C987 C 0.69898 0.05582 0.38438
 C988 C 0.68848 0.04259 0.37466
 C989 C 0.74926 0.11511 0.42951
 C990 C 0.76034 0.12774 0.43938
 H991 H 0.76030 0.07079 0.41247
 H992 H 0.72129 0.05181 0.42760
 H993 H 0.74046 0.07814 0.37163
 H994 H 0.72665 0.11946 0.38624
 H995 H 0.70747 0.09311 0.44221
 H996 H 0.68761 0.10045 0.40135
 C997 C 0.71355 0.89486 0.59169
 C998 C 0.72027 0.90635 0.61292
 C999 C 0.71209 0.92787 0.60350
 C1000 C 0.70516 0.91664 0.58245
 C1001 C 0.73596 0.89987 0.58221
 C1002 C 0.72777 0.92139 0.57280
 C1003 C 0.74288 0.91111 0.60326
 C1004 C 0.73449 0.93286 0.59402
 C1005 C 0.69899 0.94366 0.61532
 C1006 C 0.68847 0.95689 0.62500
 C1007 C 0.74936 0.88441 0.57031
 C1008 C 0.76045 0.87180 0.56045
 H1009 H 0.70510 0.87906 0.59059
 H1010 H 0.71703 0.90034 0.62956
 H1011 H 0.68950 0.91908 0.57403
 H1012 H 0.73101 0.92741 0.55617
 H1013 H 0.75853 0.90867 0.61168
 H1014 H 0.74296 0.94865 0.59511
 C1015 C 0.27107 0.89615 0.39360
 C1016 C 0.26698 0.92087 0.39390
 C1017 C 0.29133 0.92460 0.39698
 C1018 C 0.29563 0.90012 0.39650
 C1019 C 0.26852 0.89567 0.41834
 C1020 C 0.29287 0.89937 0.42144
 C1021 C 0.26424 0.92015 0.41880
 C1022 C 0.28878 0.92411 0.42172
 C1023 C 0.30371 0.94098 0.38512
 C1024 C 0.31361 0.95471 0.37542
 C1025 C 0.25542 0.87989 0.43023
 C1026 C 0.24421 0.86726 0.44000
 H1027 H 0.26365 0.88447 0.38218
 H1028 H 0.25647 0.92989 0.38245
 H1029 H 0.30868 0.89207 0.38720
 H1030 H 0.30336 0.89035 0.43290
 H1031 H 0.25120 0.92823 0.42809
 H1032 H 0.29619 0.93579 0.43315
 C1033 C 0.08834 0.39717 0.74535
 C1034 C 0.06696 0.40608 0.73582
 C1035 C 0.07236 0.39518 0.71416
 C1036 C 0.09350 0.38607 0.72349
 C1037 C 0.10001 0.41763 0.73738
 C1038 C 0.10543 0.40674 0.71572
 C1039 C 0.07887 0.42673 0.72805
 C1040 C 0.08403 0.41565 0.70619
 C1041 C 0.05677 0.38275 0.70138
 C1042 C 0.04371 0.37264 0.69106
 C1043 C 0.11531 0.43015 0.75041
 C1044 C 0.12783 0.44047 0.76119
 H1045 H 0.09027 0.38971 0.76159
 H1046 H 0.05097 0.40567 0.74395
 H1047 H 0.09935 0.36922 0.72146
 H1048 H 0.12142 0.40715 0.70760
 H1049 H 0.07302 0.44358 0.73007
 H1050 H 0.08210 0.42310 0.68994
 C1051 C 0.10476 0.60481 0.27212
 C1052 C 0.08213 0.61218 0.26432
 C1053 C 0.07256 0.60462 0.28600
 C1054 C 0.09494 0.59744 0.29401
 C1055 C 0.10027 0.58220 0.26286
 C1056 C 0.09071 0.57463 0.28454
 C1057 C 0.07789 0.58938 0.25486
 C1058 C 0.06809 0.58201 0.27673
 C1059 C 0.05694 0.61704 0.29873
 C1060 C 0.04387 0.62716 0.30902
 C1061 C 0.11560 0.56968 0.24988
 C1062 C 0.12815 0.55938 0.23914
 H1063 H 0.12001 0.61404 0.27008
 H1064 H 0.07844 0.62777 0.25614
 H1065 H 0.10178 0.60090 0.31025
 H1066 H 0.09441 0.55905 0.29271
 H1067 H 0.07105 0.58593 0.23862
 H1068 H 0.05284 0.57277 0.27877
 C1069 C 0.91496 0.40684 0.25974
 C1070 C 0.93078 0.41759 0.27588
 C1071 C 0.92551 0.39980 0.29247
 C1072 C 0.90993 0.38888 0.27651
 C1073 C 0.89649 0.42048 0.26919
 C1074 C 0.89121 0.40269 0.28577
 C1075 C 0.91208 0.43140 0.28515
 C1076 C 0.90705 0.41343 0.30195
 C1077 C 0.94185 0.38820 0.30515
 C1078 C 0.95542 0.37855 0.31530
 C1079 C 0.88060 0.43197 0.25587
 C1080 C 0.86784 0.44141 0.24455
 H1081 H 0.91804 0.40425 0.24223
 H1082 H 0.94722 0.42360 0.27195
 H1083 H 0.90923 0.37127 0.27309
 H1084 H 0.87476 0.39669 0.28969
 H1085 H 0.91277 0.44902 0.28856
 H1086 H 0.90399 0.41600 0.31946
 C1087 C 0.92118 0.57634 0.73295
 C1088 C 0.92289 0.57548 0.70796
 C1089 C 0.92564 0.60019 0.70753
 C1090 C 0.92417 0.60121 0.73233
 C1091 C 0.89665 0.57954 0.73087
 C1092 C 0.89941 0.60424 0.73045
 C1093 C 0.89810 0.57849 0.70607
 C1094 C 0.90112 0.60339 0.70544
 C1095 C 0.94197 0.61177 0.69483
 C1096 C 0.95554 0.62139 0.68465
 C1097 C 0.88076 0.56806 0.74421
 C1098 C 0.86801 0.55861 0.75555
 H1099 H 0.92926 0.56510 0.74441
 H1100 H 0.93273 0.56378 0.69857
 H1101 H 0.93507 0.61067 0.74300
 H1102 H 0.88957 0.61594 0.73983
 H1103 H 0.88719 0.56902 0.69543
 H1104 H 0.89305 0.61465 0.69398
 C1105 C 0.71458 0.57164 0.91075
 C1106 C 0.72237 0.57970 0.93316
 C1107 C 0.71175 0.60171 0.92857
 C1108 C 0.70376 0.59384 0.90640
 C1109 C 0.73557 0.58028 0.90065
 C1110 C 0.72496 0.60228 0.89605
 C1111 C 0.74355 0.58815 0.92282
 C1112 C 0.73274 0.61034 0.91846
 C1113 C 0.69868 0.61372 0.94424
 C1114 C 0.68817 0.62369 0.95726
 C1115 C 0.74894 0.56836 0.88517
 C1116 C 0.76000 0.55855 0.87249
 H1117 H 0.70727 0.55559 0.90741
 H1118 H 0.72115 0.57055 0.94860
 H1119 H 0.68724 0.59631 0.89983
 H1120 H 0.72618 0.61144 0.88062
 H1121 H 0.76006 0.58569 0.92940
 H1122 H 0.74006 0.62639 0.92180
 C1123 C 0.27056 0.42631 0.92081
 C1124 C 0.26658 0.40250 0.92756
 C1125 C 0.29095 0.39819 0.92569
 C1126 C 0.29513 0.42183 0.91918
 C1127 C 0.26805 0.41973 0.89698
 C1128 C 0.29242 0.41544 0.89508
 C1129 C 0.26388 0.39609 0.90350
 C1130 C 0.28845 0.39159 0.90186
 C1131 C 0.30340 0.38613 0.94187
 C1132 C 0.31336 0.37616 0.95535
 C1133 C 0.25492 0.43166 0.88126
 C1134 C 0.24371 0.44143 0.86864
 H1135 H 0.26306 0.44072 0.92843
 H1136 H 0.25609 0.39705 0.94109
 H1137 H 0.30812 0.43228 0.92582
 H1138 H 0.30289 0.42090 0.88154
 H1139 H 0.25090 0.38563 0.89687
 H1140 H 0.29595 0.37718 0.89425
 C1141 C 0.26856 0.57537 0.07914
 C1142 C 0.26645 0.59990 0.07448
 C1143 C 0.29120 0.60181 0.07478
 C1144 C 0.29350 0.57744 0.07920
 C1145 C 0.26838 0.58022 0.10351
 C1146 C 0.29312 0.58210 0.10384
 C1147 C 0.26608 0.60458 0.09909
 C1148 C 0.29103 0.60667 0.09916
 C1149 C 0.30359 0.61389 0.05857
 C1150 C 0.31351 0.62387 0.04506
 C1151 C 0.25528 0.56825 0.11924
 C1152 C 0.24409 0.55846 0.13186
 H1153 H 0.25918 0.56236 0.07108
 H1154 H 0.25562 0.60735 0.06223
 H1155 H 0.30491 0.56642 0.07083
 H1156 H 0.30393 0.57464 0.11610
 H1157 H 0.25467 0.61561 0.10745
 H1158 H 0.30041 0.61968 0.10720
 C1159 C 0.73968 0.39636 0.09232
 C1160 C 0.71530 0.39136 0.09501
 C1161 C 0.71157 0.39839 0.07144
 C1162 C 0.73575 0.40321 0.06851
 C1163 C 0.73539 0.41978 0.09941
 C1164 C 0.73166 0.42681 0.07584
 C1165 C 0.71122 0.41497 0.10235
 C1166 C 0.70727 0.42181 0.07853
 C1167 C 0.69849 0.38641 0.05575
 C1168 C 0.68797 0.37647 0.04271
 C1169 C 0.74876 0.43168 0.11491
 C1170 C 0.75982 0.44148 0.12759
 H1171 H 0.75316 0.38603 0.09815
 H1172 H 0.70843 0.37665 0.10273
 H1173 H 0.74569 0.39825 0.05442
 H1174 H 0.73853 0.44152 0.06812
 H1175 H 0.70129 0.41994 0.11645
 H1176 H 0.69380 0.43213 0.07269
 C1177 C 0.89209 0.71447 0.59900
 C1178 C 0.90698 0.69738 0.58833
 C1179 C 0.92626 0.70680 0.60083
 C1180 C 0.91163 0.72368 0.61167
 C1181 C 0.89717 0.73015 0.58034
 C1182 C 0.91646 0.73954 0.59285
 C1183 C 0.91180 0.71327 0.56949
 C1184 C 0.93132 0.72248 0.58218
 C1185 C 0.94265 0.69412 0.61234
 C1186 C 0.95627 0.68399 0.62194
 C1187 C 0.88125 0.74352 0.56897
 C1188 C 0.86848 0.75491 0.55962
 H1189 H 0.87578 0.71133 0.60578
 H1190 H 0.90328 0.67989 0.58660
 H1191 H 0.91175 0.72783 0.62915
 H1192 H 0.92018 0.75702 0.59459
 H1193 H 0.91168 0.70913 0.55201
 H1194 H 0.94762 0.72563 0.57538
 C1195 C 0.92155 0.26724 0.42243
 C1196 C 0.92445 0.26814 0.39756
 C1197 C 0.92610 0.29291 0.39889
 C1198 C 0.92343 0.29220 0.42360
 C1199 C 0.89702 0.26951 0.41934
 C1200 C 0.89864 0.29428 0.42069
 C1201 C 0.89969 0.27022 0.39463
 C1202 C 0.90157 0.29520 0.39578
 C1203 C 0.94248 0.30562 0.38740
 C1204 C 0.95610 0.31578 0.37784
 C1205 C 0.88111 0.25612 0.43071
 C1206 C 0.86835 0.24472 0.44006
 H1207 H 0.92959 0.25560 0.43352
 H1208 H 0.93525 0.25753 0.38794
 H1209 H 0.93338 0.30138 0.43538
 H1210 H 0.88784 0.30487 0.43032
 H1211 H 0.88975 0.26104 0.38285
 H1212 H 0.89355 0.30685 0.38469
 C1213 C 0.07810 0.27152 0.57429
 C1214 C 0.06717 0.26424 0.59565
 C1215 C 0.07205 0.28656 0.60539
 C1216 C 0.08274 0.29404 0.58422
 C1217 C 0.09987 0.26344 0.58310
 C1218 C 0.10477 0.28576 0.59283
 C1219 C 0.08917 0.25596 0.60427
 C1220 C 0.09382 0.27849 0.61421
 C1221 C 0.05635 0.29926 0.61773
 C1222 C 0.04318 0.30949 0.62778
 C1223 C 0.11524 0.25045 0.57065
 C1224 C 0.12779 0.23967 0.56040
 H1225 H 0.07180 0.26850 0.55774
 H1226 H 0.05153 0.25552 0.59694
 H1227 H 0.07993 0.30984 0.57612
 H1228 H 0.12041 0.29446 0.59153
 H1229 H 0.09198 0.24016 0.61237
 H1230 H 0.10011 0.28151 0.63075
 C1231 C 0.08065 0.74570 0.40474
 C1232 C 0.08630 0.73137 0.38501
 C1233 C 0.07231 0.71318 0.39459
 C1234 C 0.06642 0.72733 0.41414
 C1235 C 0.10019 0.73628 0.41686
 C1236 C 0.08619 0.71809 0.42644
 C1237 C 0.10609 0.72214 0.39731
 C1238 C 0.09184 0.70374 0.40670
 C1239 C 0.05658 0.70051 0.38226
 C1240 C 0.04339 0.69029 0.37222
 C1241 C 0.11558 0.74926 0.42929
 C1242 C 0.12815 0.76003 0.43954
 H1243 H 0.07622 0.76310 0.40408
 H1244 H 0.08618 0.73668 0.36783
 H1245 H 0.04994 0.72932 0.42092
 H1246 H 0.08632 0.71279 0.44362
 H1247 H 0.12258 0.72016 0.39054
 H1248 H 0.09626 0.68635 0.40736
 C1249 C 0.60518 0.90215 0.73512
 C1250 C 0.60441 0.90377 0.71010
 C1251 C 0.60230 0.92846 0.71200
 C1252 C 0.60326 0.92708 0.73682
 C1253 C 0.58042 0.90049 0.73550
 C1254 C 0.57832 0.92519 0.73740
 C1255 C 0.57945 0.90187 0.71069
 C1256 C 0.57754 0.92681 0.71239
 C1257 C 0.61445 0.94420 0.69906
 C1258 C 0.62438 0.95734 0.68859
 C1259 C 0.56822 0.88500 0.74868
 C1260 C 0.55820 0.87230 0.75959
 H1261 H 0.61641 0.89184 0.74463
 H1262 H 0.61528 0.89514 0.69873
 H1263 H 0.61319 0.93761 0.74743
 H1264 H 0.56745 0.93382 0.74877
 H1265 H 0.56952 0.89133 0.70009
 H1266 H 0.56630 0.93712 0.70289
 C1267 C 0.42960 0.92312 0.27190
 C1268 C 0.40773 0.93351 0.26552
 C1269 C 0.39924 0.92889 0.28843
 C1270 C 0.42093 0.91874 0.29502
 C1271 C 0.42086 0.90099 0.26475
 C1272 C 0.41237 0.89635 0.28767
 C1273 C 0.39917 0.91115 0.25818
 C1274 C 0.39049 0.90676 0.28129
 C1275 C 0.38711 0.94453 0.30143
 C1276 C 0.37704 0.95752 0.31187
 C1277 C 0.43285 0.88551 0.25145
 C1278 C 0.44268 0.87282 0.24043
 H1279 H 0.44582 0.92968 0.26788
 H1280 H 0.40569 0.94897 0.25655
 H1281 H 0.42973 0.92203 0.31032
 H1282 H 0.41441 0.88090 0.29662
 H1283 H 0.39036 0.90786 0.24288
 H1284 H 0.37428 0.90020 0.28530
 C1285 C 0.57445 0.07615 0.26813
 C1286 C 0.59818 0.06938 0.26395
 C1287 C 0.60291 0.07200 0.28822
 C1288 C 0.57936 0.07853 0.29259
 C1289 C 0.58093 0.09991 0.26474
 C1290 C 0.58565 0.10255 0.28900
 C1291 C 0.60447 0.09338 0.26036
 C1292 C 0.60939 0.09577 0.28483
 C1293 C 0.61509 0.05629 0.30115
 C1294 C 0.62504 0.04316 0.31160
 C1295 C 0.56868 0.11537 0.25157
 C1296 C 0.55860 0.12803 0.24067
 H1297 H 0.55995 0.06825 0.26111
 H1298 H 0.60346 0.05557 0.25379
 H1299 H 0.56917 0.07226 0.30599
 H1300 H 0.58036 0.11636 0.29916
 H1301 H 0.61466 0.09966 0.24696
 H1302 H 0.62390 0.10366 0.29185
 C1303 C 0.42851 0.07655 0.72966
 C1304 C 0.40573 0.06768 0.73507
 C1305 C 0.39901 0.07143 0.71141
 C1306 C 0.42161 0.08005 0.70580
 C1307 C 0.42057 0.09948 0.73499
 C1308 C 0.41386 0.10323 0.71134
 C1309 C 0.39797 0.09085 0.74060
 C1310 C 0.39107 0.09436 0.71675
 C1311 C 0.38692 0.05571 0.69848
 C1312 C 0.37689 0.04266 0.68807
 C1313 C 0.43253 0.11503 0.74824
 C1314 C 0.44234 0.12778 0.75922
 H1315 H 0.44404 0.06940 0.73512
 H1316 H 0.40226 0.05289 0.74469
 H1317 H 0.43119 0.07544 0.69134
 H1318 H 0.41734 0.11803 0.70173
 H1319 H 0.38839 0.09545 0.75506
 H1320 H 0.37554 0.10150 0.71128
 C1321 C 0.57918 0.73846 0.07432
 C1322 C 0.60407 0.73610 0.07353
 C1323 C 0.60138 0.71152 0.07098
 C1324 C 0.57666 0.71367 0.07152
 C1325 C 0.57995 0.73527 0.09897
 C1326 C 0.57724 0.71069 0.09643
 C1327 C 0.60467 0.73310 0.09842
 C1328 C 0.60216 0.70832 0.09564
 C1329 C 0.61341 0.69849 0.05529
 C1330 C 0.62341 0.68803 0.04226
 C1331 C 0.56806 0.74861 0.11449
 C1332 C 0.55831 0.75967 0.12722
 H1333 H 0.56960 0.75100 0.06572
 H1334 H 0.61524 0.74640 0.06395
 H1335 H 0.56528 0.70553 0.06029
 H1336 H 0.56607 0.70039 0.10602
 H1337 H 0.61605 0.74125 0.10965
 H1338 H 0.61174 0.69578 0.10423
 C1339 C 0.42577 0.26800 0.07568
 C1340 C 0.40197 0.26404 0.06902
 C1341 C 0.39753 0.28837 0.07148
 C1342 C 0.42115 0.29253 0.07791
 C1343 C 0.41934 0.26485 0.09950
 C1344 C 0.41491 0.28918 0.10197
 C1345 C 0.39573 0.26069 0.09307
 C1346 C 0.39110 0.28523 0.09530
 C1347 C 0.38542 0.30131 0.05572
 C1348 C 0.37550 0.31177 0.04256
 C1349 C 0.43149 0.25166 0.11501
 C1350 C 0.44149 0.24073 0.12772
 H1351 H 0.44016 0.26077 0.06778
 H1352 H 0.39652 0.25384 0.05530
 H1353 H 0.43147 0.30577 0.07150
 H1354 H 0.42037 0.29937 0.11570
 H1355 H 0.38541 0.24745 0.09947
 H1356 H 0.37671 0.29246 0.10319
 C1357 C 0.57014 0.28501 0.91268
 C1358 C 0.58021 0.27647 0.93401
 C1359 C 0.60102 0.28901 0.92881
 C1360 C 0.59113 0.29776 0.90772
 C1361 C 0.57954 0.26538 0.90073
 C1362 C 0.60035 0.27792 0.89552
 C1363 C 0.58943 0.25664 0.92181
 C1364 C 0.61041 0.26937 0.91685
 C1365 C 0.61307 0.30196 0.94455
 C1366 C 0.62308 0.31237 0.95761
 C1367 C 0.56764 0.25210 0.88516
 C1368 C 0.55787 0.24109 0.87240
 H1369 H 0.55344 0.29129 0.91079
 H1370 H 0.57206 0.27602 0.95001
 H1371 H 0.59197 0.31482 0.90211
 H1372 H 0.60849 0.27836 0.87952
 H1373 H 0.58860 0.23958 0.92744
 H1374 H 0.62711 0.26309 0.91873
 C1375 C 0.40029 0.72013 0.89471
 C1376 C 0.41011 0.70238 0.90949
 C1377 C 0.39733 0.71164 0.92867
 C1378 C 0.38732 0.72918 0.91414
 C1379 C 0.41914 0.73516 0.90066
 C1380 C 0.40636 0.74441 0.91984
 C1381 C 0.42915 0.71763 0.91519
 C1382 C 0.41618 0.72668 0.93461
 C1383 C 0.38523 0.69870 0.94444
 C1384 C 0.37533 0.68824 0.95762
 C1385 C 0.43129 0.74837 0.88515
 C1386 C 0.44129 0.75930 0.87245
 H1387 H 0.39389 0.71759 0.87812
 H1388 H 0.41151 0.68495 0.90541
 H1389 H 0.36999 0.73378 0.91387
 H1390 H 0.40496 0.76184 0.92393
 H1391 H 0.44648 0.71303 0.91546
 H1392 H 0.42259 0.72923 0.95119
 C1393 C 0.73720 0.90345 0.39703
 C1394 C 0.71275 0.90162 0.39197
 C1395 C 0.70987 0.92532 0.39883
 C1396 C 0.73412 0.92739 0.40370
 C1397 C 0.73259 0.89657 0.42049
 C1398 C 0.72970 0.92028 0.42733
 C1399 C 0.70834 0.89448 0.41563
 C1400 C 0.70525 0.91845 0.42229
 C1401 C 0.69751 0.94153 0.38671
 C1402 C 0.68760 0.95502 0.37671
 C1403 C 0.74562 0.88083 0.43250
 C1404 C 0.75676 0.86819 0.44232
 H1405 H 0.75048 0.89710 0.38677
 H1406 H 0.70564 0.89413 0.37729
 H1407 H 0.74458 0.94109 0.39866
 H1408 H 0.73681 0.92778 0.44201
 H1409 H 0.69789 0.88076 0.42068
 H1410 H 0.69197 0.92481 0.43254
 C1411 C 0.27030 0.89776 0.60371
 C1412 C 0.29379 0.90420 0.59789
 C1413 C 0.28781 0.92808 0.60125
 C1414 C 0.26452 0.92188 0.60725
 C1415 C 0.26405 0.90014 0.57975
 C1416 C 0.25807 0.92402 0.58312
 C1417 C 0.28733 0.90634 0.57374
 C1418 C 0.28155 0.93046 0.57730
 C1419 C 0.30085 0.94376 0.61328
 C1420 C 0.31137 0.95678 0.62323
 C1421 C 0.25072 0.88466 0.56779
 C1422 C 0.23970 0.87198 0.55794
 H1423 H 0.26552 0.88414 0.61443
 H1424 H 0.30863 0.89623 0.60409
 H1425 H 0.25529 0.92845 0.62117
 H1426 H 0.24323 0.93200 0.57692
 H1427 H 0.29655 0.89977 0.55982
 H1428 H 0.28633 0.94408 0.56657
 C1429 C 0.27974 0.08366 0.43085
 C1430 C 0.27088 0.06551 0.41604
 C1431 C 0.28769 0.07175 0.39883
 C1432 C 0.29676 0.08966 0.41345
 C1433 C 0.26385 0.09961 0.42031
 C1434 C 0.28066 0.10586 0.40310
 C1435 C 0.25480 0.08170 0.40568
 C1436 C 0.27181 0.08771 0.38829
 C1437 C 0.30079 0.05612 0.38680
 C1438 C 0.31134 0.04314 0.37683
 C1439 C 0.25048 0.11506 0.43226
 C1440 C 0.23942 0.12771 0.44210
 H1441 H 0.28284 0.08216 0.44849
 H1442 H 0.26701 0.04874 0.42123
 H1443 H 0.31416 0.09275 0.41651
 H1444 H 0.28452 0.12263 0.39792
 H1445 H 0.23740 0.07860 0.40262
 H1446 H 0.26869 0.08921 0.37066
 C1447 C 0.71513 0.08861 0.56929
 C1448 C 0.72462 0.06938 0.58231
 C1449 C 0.70939 0.07488 0.60113
 C1450 C 0.69968 0.09387 0.58831
 C1451 C 0.73220 0.10353 0.57942
 C1452 C 0.71697 0.10905 0.59824
 C1453 C 0.74188 0.08453 0.59224
 C1454 C 0.72646 0.08981 0.61125
 C1455 C 0.69698 0.05873 0.61327
 C1456 C 0.68703 0.04528 0.62331
 C1457 C 0.74529 0.11920 0.56738
 C1458 C 0.75647 0.13179 0.55754
 H1459 H 0.71061 0.08830 0.55191
 H1460 H 0.72764 0.05289 0.57589
 H1461 H 0.68218 0.09752 0.58684
 H1462 H 0.71398 0.12555 0.60465
 H1463 H 0.75937 0.08086 0.59373
 H1464 H 0.73099 0.09012 0.62863
 C1465 C 0.91291 0.60132 0.25469
 C1466 C 0.90732 0.61445 0.27527
 C1467 C 0.92721 0.60475 0.28656
 C1468 C 0.93304 0.59180 0.26617
 C1469 C 0.89940 0.58238 0.26347
 C1470 C 0.91930 0.57268 0.27476
 C1471 C 0.89356 0.59531 0.28385
 C1472 C 0.91371 0.58581 0.29534
 C1473 C 0.94290 0.61713 0.29922
 C1474 C 0.95606 0.62723 0.30943
 C1475 C 0.88404 0.56990 0.25049
 C1476 C 0.87149 0.55963 0.23972
 H1477 H 0.91242 0.60755 0.23784
 H1478 H 0.90257 0.63177 0.27563
 H1479 H 0.94945 0.59050 0.25904
 H1480 H 0.92405 0.55536 0.27439
 H1481 H 0.87715 0.59661 0.29097
 H1482 H 0.91421 0.57958 0.31220
 C1483 C 0.91690 0.40272 0.74616
 C1484 C 0.91082 0.38518 0.72935
 C1485 C 0.92715 0.39514 0.71348
 C1486 C 0.93346 0.41249 0.73010
 C1487 C 0.89941 0.41756 0.73659
 C1488 C 0.91575 0.42752 0.72071
 C1489 C 0.89309 0.40021 0.71997
 C1490 C 0.90967 0.40998 0.70389
 C1491 C 0.94281 0.38273 0.70080
 C1492 C 0.95593 0.37261 0.69058
 C1493 C 0.88409 0.43006 0.74957
 C1494 C 0.87156 0.44035 0.76035
 H1495 H 0.91970 0.39987 0.76369
 H1496 H 0.90896 0.36763 0.73276
 H1497 H 0.95024 0.41740 0.73413
 H1498 H 0.91761 0.44506 0.71731
 H1499 H 0.87630 0.39531 0.71596
 H1500 H 0.90688 0.41282 0.68636
 C1501 C 0.08307 0.59063 0.73988
 C1502 C 0.08773 0.61051 0.72532
 C1503 C 0.07426 0.60009 0.70724
 C1504 C 0.06937 0.58038 0.72161
 C1505 C 0.10323 0.57948 0.73063
 C1506 C 0.08977 0.56904 0.71255
 C1507 C 0.10814 0.59919 0.71626
 C1508 C 0.09441 0.58895 0.69796
 C1509 C 0.05794 0.61167 0.69453
 C1510 C 0.04437 0.62131 0.68439
 C1511 C 0.11907 0.56804 0.74404
 C1512 C 0.13179 0.55864 0.75545
 H1513 H 0.07857 0.59120 0.75726
 H1514 H 0.08671 0.62769 0.73044
 H1515 H 0.05325 0.57276 0.72367
 H1516 H 0.09079 0.55186 0.70745
 H1517 H 0.12426 0.60680 0.71421
 H1518 H 0.09889 0.58839 0.68057
 C1519 C 0.10434 0.41787 0.29435
 C1520 C 0.08005 0.42386 0.29567
 C1521 C 0.07427 0.39984 0.29292
 C1522 C 0.09828 0.39366 0.29182
 C1523 C 0.10332 0.42045 0.26963
 C1524 C 0.09753 0.39644 0.26690
 C1525 C 0.07931 0.42663 0.27075
 C1526 C 0.07328 0.40245 0.26821
 C1527 C 0.05790 0.38826 0.30556
 C1528 C 0.04428 0.37862 0.31565
 C1529 C 0.11923 0.43189 0.25629
 C1530 C 0.13199 0.44127 0.24492
 H1531 H 0.11729 0.42434 0.30494
 H1532 H 0.07268 0.43501 0.30763
 H1533 H 0.10590 0.37997 0.30063
 H1534 H 0.10489 0.38529 0.25493
 H1535 H 0.07168 0.44031 0.26194
 H1536 H 0.06034 0.39599 0.25759
   
