data_POSCAR
  _audit_creation_date              2014-09-24
  _audit_creation_method            'ToBaCCo'
  _symmetry_space_group_name_H-M    'P1'
  _symmetry_Int_Tables_number       1
  _symmetry_cell_setting            triclinic
  loop_
  _symmetry_equiv_pos_as_xyz
 x,y,z
_cell_length_a 64.3311
_cell_length_b 64.3350
_cell_length_c 64.3269
_cell_angle_alpha 90.000100
_cell_angle_beta 90.000000
_cell_angle_gamma 89.999800
loop_
  _atom_site_label
  _atom_site_type_symbol
  _atom_site_fract_x
  _atom_site_fract_y
  _atom_site_fract_z
N1 N 0.32876 0.32883 0.32884
 N2 N 0.32882 0.82880 -0.17121
 N3 N 0.82879 0.32877 -0.17117
 N4 N 0.82881 0.82882 0.32883
 N5 N 0.67117 0.67121 0.32882
 N6 N 0.67122 0.17127 -0.17118
 N7 N 0.17116 0.67122 -0.17123
 N8 N 0.17123 0.17119 0.32880
 N9 N 0.67118 0.32878 0.67118
 N10 N 0.67117 0.82882 1.17120
 N11 N 0.17119 0.32885 1.17116
 N12 N 0.17115 0.82879 0.67123
 N13 N 0.32882 0.67122 0.67122
 N14 N 0.32876 0.17118 1.17120
 N15 N 0.82881 0.67117 1.17118
 N16 N 0.82882 0.17120 0.67113
 N17 N 0.32877 0.32882 0.67124
 N18 N 0.32880 0.82881 0.17118
 N19 N 0.82878 0.32879 0.17129
 N20 N 0.82874 0.82884 0.67123
 N21 N 0.67124 0.67118 0.67125
 N22 N 0.67120 0.17123 0.17128
 N23 N 0.17118 0.67120 0.17118
 N24 N 0.17119 0.17118 0.67124
 N25 N 0.32877 0.67121 0.32882
 N26 N 0.32882 0.17115 0.82881
 N27 N 0.82874 0.67117 0.82877
 N28 N 0.82883 0.17119 0.32876
 N29 N 0.67110 0.32888 0.32882
 N30 N 0.67118 0.82889 0.82884
 N31 N 0.17121 0.32882 0.82877
 N32 N 0.17122 0.82875 0.32877
 O33 O 0.27640 0.97964 0.24791
 O34 O 0.24791 1.02031 0.27641
 O35 O 0.24791 0.97963 0.27640
 O36 O 0.27639 1.02032 0.24792
 O37 O 0.25208 1.02032 0.22361
 O38 O 0.22360 0.97963 0.25209
 O39 O 0.22359 1.02031 0.25210
 O40 O 0.25209 0.97964 0.22360
 Cu41 Cu 0.26460 0.99997 0.26461
 Cu42 Cu 0.23539 0.99998 0.23540
 C43 C 0.26891 0.97259 0.23109
 C44 C 0.23109 1.02737 0.26892
 C45 C 0.23109 0.97257 0.26891
 C46 C 0.26890 1.02738 0.23110
 O47 O 0.25210 0.52037 0.72361
 O48 O 0.22361 0.47969 0.75210
 O49 O 0.22360 0.52037 0.75210
 O50 O 0.25210 0.47969 0.72361
 O51 O 0.27641 0.47969 0.74793
 O52 O 0.24791 0.52037 0.77641
 O53 O 0.24792 0.47969 0.77641
 O54 O 0.27640 0.52037 0.74793
 Cu55 Cu 0.23540 0.50003 0.73540
 Cu56 Cu 0.26461 0.50003 0.76462
 C57 C 0.26892 0.52743 0.73111
 C58 C 0.23110 0.47263 0.76892
 C59 C 0.23109 0.52743 0.76892
 C60 C 0.26892 0.47263 0.73111
 O61 O 0.74791 -0.02034 0.22360
 O62 O 0.77641 0.02033 0.25208
 O63 O 0.77640 -0.02035 0.25208
 O64 O 0.74791 0.02034 0.22360
 O65 O 0.72361 0.02034 0.24792
 O66 O 0.75210 -0.02034 0.27640
 O67 O 0.75211 0.02033 0.27640
 O68 O 0.72360 -0.02034 0.24791
 Cu69 Cu 0.76461 -0.00000 0.23539
 Cu70 Cu 0.73540 -0.00000 0.26461
 C71 C 0.73109 -0.02740 0.23109
 C72 C 0.76893 0.02739 0.26891
 C73 C 0.76891 -0.02741 0.26890
 C74 C 0.73110 0.02741 0.23110
 O75 O 0.72359 0.52029 0.74792
 O76 O 0.75208 0.47961 0.77641
 O77 O 0.75208 0.52029 0.77641
 O78 O 0.72359 0.47961 0.74792
 O79 O 0.74790 0.47961 0.72360
 O80 O 0.77639 0.52029 0.75209
 O81 O 0.77639 0.47961 0.75209
 O82 O 0.74790 0.52029 0.72361
 Cu83 Cu 0.73539 0.49995 0.76462
 Cu84 Cu 0.76459 0.49995 0.73540
 C85 C 0.73108 0.52735 0.73110
 C86 C 0.76890 0.47255 0.76891
 C87 C 0.76890 0.52735 0.76891
 C88 C 0.73108 0.47255 0.73110
 O89 O 0.27639 0.52036 0.25211
 O90 O 0.24792 0.47968 0.22360
 O91 O 0.24792 0.52036 0.22361
 O92 O 0.27639 0.47968 0.25211
 O93 O 0.25207 0.47968 0.27641
 O94 O 0.22359 0.52036 0.24791
 O95 O 0.22360 0.47968 0.24790
 O96 O 0.25207 0.52035 0.27641
 Cu97 Cu 0.26461 0.50002 0.23541
 Cu98 Cu 0.23538 0.50002 0.26461
 C99 C 0.26889 0.52741 0.26893
 C100 C 0.23109 0.47262 0.23108
 C101 C 0.23109 0.52742 0.23109
 C102 C 0.26889 0.47262 0.26892
 O103 O 0.75209 1.02040 0.72362
 O104 O 0.72360 0.97973 0.75214
 O105 O 0.72361 1.02041 0.75213
 O106 O 0.75208 0.97972 0.72364
 O107 O 0.77640 0.97972 0.74794
 O108 O 0.74793 1.02041 0.77643
 O109 O 0.74792 0.97973 0.77644
 O110 O 0.77641 1.02040 0.74793
 Cu111 Cu 0.73540 1.00006 0.73543
 Cu112 Cu 0.76462 1.00007 0.76463
 C113 C 0.76891 1.02745 0.73111
 C114 C 0.73110 0.97267 0.76896
 C115 C 0.73111 1.02747 0.76894
 C116 C 0.76890 0.97266 0.73112
 O117 O 0.77639 0.47967 0.24797
 O118 O 0.74791 0.52037 0.27642
 O119 O 0.74789 0.47969 0.27644
 O120 O 0.77641 0.52034 0.24794
 O121 O 0.75211 0.52034 0.22362
 O122 O 0.72359 0.47969 0.25212
 O123 O 0.72361 0.52037 0.25210
 O124 O 0.75209 0.47966 0.22364
 Cu125 Cu 0.76460 0.50002 0.26465
 Cu126 Cu 0.73540 0.50002 0.23542
 C127 C 0.76890 0.47260 0.23115
 C128 C 0.73109 0.52743 0.26892
 C129 C 0.73107 0.47264 0.26894
 C130 C 0.76893 0.52740 0.23112
 O131 O 0.22358 0.02032 0.74794
 O132 O 0.25208 -0.02036 0.77642
 O133 O 0.25208 0.02031 0.77642
 O134 O 0.22358 -0.02036 0.74794
 O135 O 0.24788 -0.02036 0.72362
 O136 O 0.27638 0.02031 0.75209
 O137 O 0.27638 -0.02036 0.75209
 O138 O 0.24788 0.02031 0.72362
 Cu139 Cu 0.23538 -0.00002 0.76463
 Cu140 Cu 0.26458 -0.00003 0.73540
 C141 C 0.23106 0.02738 0.73112
 C142 C 0.26890 -0.02742 0.76892
 C143 C 0.26890 0.02737 0.76892
 C144 C 0.23106 -0.02742 0.73112
 O145 O 0.24795 0.27640 0.97963
 O146 O 0.27641 0.24791 1.02033
 O147 O 0.27642 0.24791 0.97965
 O148 O 0.24793 0.27641 1.02031
 O149 O 0.22361 0.25211 1.02031
 O150 O 0.25211 0.22361 0.97964
 O151 O 0.25209 0.22361 1.02032
 O152 O 0.22363 0.25210 0.97963
 Cu153 Cu 0.26463 0.26461 0.99998
 Cu154 Cu 0.23541 0.23541 0.99998
 C155 C 0.23113 0.26892 0.97256
 C156 C 0.26891 0.23110 1.02739
 C157 C 0.26893 0.23109 0.97259
 C158 C 0.23111 0.26893 1.02737
 O159 O 0.22360 0.75212 0.52036
 O160 O 0.25210 0.72364 0.47968
 O161 O 0.25209 0.72364 0.52037
 O162 O 0.22360 0.75212 0.47968
 O163 O 0.24791 0.77643 0.47968
 O164 O 0.27640 0.74796 0.52037
 O165 O 0.27640 0.74795 0.47968
 O166 O 0.24790 0.77644 0.52036
 Cu167 Cu 0.23540 0.73543 0.50002
 Cu168 Cu 0.26460 0.76465 0.50002
 C169 C 0.23108 0.76894 0.52742
 C170 C 0.26891 0.73113 0.47262
 C171 C 0.26891 0.73114 0.52743
 C172 C 0.23109 0.76894 0.47261
 O173 O 0.22360 0.74791 -0.02036
 O174 O 0.25209 0.77639 0.02032
 O175 O 0.25210 0.77639 -0.02036
 O176 O 0.22360 0.74791 0.02032
 O177 O 0.24790 0.72360 0.02032
 O178 O 0.27640 0.75208 -0.02036
 O179 O 0.27640 0.75208 0.02033
 O180 O 0.24791 0.72360 -0.02036
 Cu181 Cu 0.23540 0.76460 -0.00002
 Cu182 Cu 0.26460 0.73538 -0.00002
 C183 C 0.23109 0.73109 -0.02743
 C184 C 0.26891 0.76890 0.02739
 C185 C 0.26891 0.76890 -0.02742
 C186 C 0.23108 0.73109 0.02738
 O187 O 0.22360 0.24789 0.47968
 O188 O 0.25206 0.27638 0.52038
 O189 O 0.25207 0.27639 0.47969
 O190 O 0.22359 0.24789 0.52037
 O191 O 0.24791 0.22359 0.52037
 O192 O 0.27639 0.25209 0.47970
 O193 O 0.27638 0.25208 0.52038
 O194 O 0.24792 0.22359 0.47969
 Cu195 Cu 0.23538 0.26459 0.50003
 Cu196 Cu 0.26460 0.23539 0.50003
 C197 C 0.23110 0.23108 0.47262
 C198 C 0.26889 0.26890 0.52744
 C199 C 0.26889 0.26891 0.47264
 C200 C 0.23108 0.23107 0.52743
 O201 O 0.74791 0.77641 0.97967
 O202 O 0.77640 0.74790 1.02033
 O203 O 0.77639 0.74791 0.97965
 O204 O 0.74793 0.77640 1.02035
 O205 O 0.72361 0.75210 1.02035
 O206 O 0.75207 0.72361 0.97965
 O207 O 0.75209 0.72361 1.02033
 O208 O 0.72359 0.75211 0.97967
 Cu209 Cu 0.76461 0.76461 1.00000
 Cu210 Cu 0.73539 0.73541 1.00000
 C211 C 0.73109 0.76893 0.97261
 C212 C 0.76891 0.73109 1.02739
 C213 C 0.76889 0.73110 0.97259
 C214 C 0.73111 0.76892 1.02741
 O215 O 0.74789 0.27642 0.47962
 O216 O 0.77640 0.24793 0.52028
 O217 O 0.77638 0.24794 0.47960
 O218 O 0.74790 0.27641 0.52030
 O219 O 0.72360 0.25210 0.52031
 O220 O 0.75208 0.22363 0.47960
 O221 O 0.75210 0.22362 0.52029
 O222 O 0.72358 0.25211 0.47962
 Cu223 Cu 0.76459 0.26463 0.49995
 Cu224 Cu 0.73539 0.23541 0.49996
 C225 C 0.73107 0.26893 0.47257
 C226 C 0.76892 0.23111 0.52734
 C227 C 0.76889 0.23113 0.47254
 C228 C 0.73109 0.26892 0.52737
 O229 O 0.77640 0.25210 -0.02028
 O230 O 0.74791 0.22362 0.02040
 O231 O 0.74791 0.22363 -0.02028
 O232 O 0.77640 0.25210 0.02040
 O233 O 0.75210 0.27642 0.02040
 O234 O 0.72360 0.24794 -0.02028
 O235 O 0.72361 0.24794 0.02040
 O236 O 0.75210 0.27642 -0.02028
 Cu237 Cu 0.76461 0.23541 0.00006
 Cu238 Cu 0.73540 0.26463 0.00006
 C239 C 0.76892 0.26892 -0.02734
 C240 C 0.73109 0.23112 0.02746
 C241 C 0.73109 0.23112 -0.02735
 C242 C 0.76891 0.26892 0.02746
 O243 O 0.77639 0.75210 0.47968
 O244 O 0.74791 0.72360 0.52037
 O245 O 0.74791 0.72360 0.47968
 O246 O 0.77639 0.75210 0.52036
 O247 O 0.75207 0.77640 0.52036
 O248 O 0.72359 0.74790 0.47969
 O249 O 0.72359 0.74790 0.52037
 O250 O 0.75207 0.77640 0.47968
 Cu251 Cu 0.76460 0.73540 0.50002
 Cu252 Cu 0.73538 0.76460 0.50002
 C253 C 0.76889 0.76892 0.47262
 C254 C 0.73109 0.73109 0.52743
 C255 C 0.73108 0.73109 0.47262
 C256 C 0.76889 0.76892 0.52743
 O257 O 1.02037 0.27643 0.24794
 O258 O 0.97970 0.24792 0.27643
 O259 O 1.02038 0.24793 0.27642
 O260 O 0.97969 0.27642 0.24795
 O261 O 0.97968 0.25212 0.22363
 O262 O 1.02037 0.22363 0.25210
 O263 O 0.97969 0.22362 0.25211
 O264 O 1.02036 0.25212 0.22362
 Cu265 Cu 1.00003 0.26463 0.26464
 Cu266 Cu 1.00003 0.23542 0.23541
 C267 C 1.02742 0.26894 0.23111
 C268 C 0.97263 0.23111 0.26893
 C269 C 1.02744 0.23112 0.26892
 C270 C 0.97262 0.26893 0.23113
 O271 O 0.47965 0.24791 0.77641
 O272 O 0.52031 0.27641 0.74791
 O273 O 0.47963 0.27640 0.74793
 O274 O 0.52033 0.24793 0.77641
 O275 O 0.52034 0.22362 0.75210
 O276 O 0.47964 0.25209 0.72362
 O277 O 0.52032 0.25210 0.72360
 O278 O 0.47966 0.22360 0.75210
 Cu279 Cu 0.49998 0.26461 0.76462
 Cu280 Cu 0.49999 0.23540 0.73540
 C281 C 0.47260 0.23109 0.76893
 C282 C 0.52737 0.26892 0.73109
 C283 C 0.47257 0.26891 0.73111
 C284 C 0.52740 0.23112 0.76891
 O285 O 0.02033 0.25209 0.77641
 O286 O -0.02035 0.22361 0.74792
 O287 O 0.02033 0.22361 0.74792
 O288 O -0.02035 0.25209 0.77641
 O289 O -0.02035 0.27640 0.75210
 O290 O 0.02033 0.24792 0.72361
 O291 O -0.02035 0.24792 0.72361
 O292 O 0.02033 0.27640 0.75210
 Cu293 Cu -0.00001 0.23540 0.76462
 Cu294 Cu -0.00001 0.26461 0.73540
 C295 C 0.02739 0.26891 0.76892
 C296 C -0.02741 0.23110 0.73110
 C297 C 0.02739 0.23110 0.73110
 C298 C -0.02741 0.26891 0.76892
 O299 O 0.52028 0.25211 0.27641
 O300 O 0.47962 0.22359 0.24792
 O301 O 0.52030 0.22361 0.24793
 O302 O 0.47960 0.25209 0.27640
 O303 O 0.47959 0.27639 0.25208
 O304 O 0.52029 0.24791 0.22361
 O305 O 0.47961 0.24789 0.22360
 O306 O 0.52027 0.27641 0.25209
 Cu307 Cu 0.49995 0.23540 0.26462
 Cu308 Cu 0.49994 0.26460 0.23539
 C309 C 0.52733 0.26893 0.26891
 C310 C 0.47256 0.23107 0.23110
 C311 C 0.52736 0.23110 0.23111
 C312 C 0.47253 0.26890 0.26890
 O313 O 0.97960 0.75212 0.72363
 O314 O 1.02028 0.72362 0.75210
 O315 O 0.97960 0.72362 0.75210
 O316 O 1.02028 0.75212 0.72362
 O317 O 1.02028 0.77641 0.74794
 O318 O 0.97960 0.74792 0.77642
 O319 O 1.02028 0.74792 0.77642
 O320 O 0.97960 0.77641 0.74795
 Cu321 Cu 0.99994 0.73542 0.73541
 Cu322 Cu 0.99994 0.76462 0.76464
 C323 C 0.97253 0.76893 0.73112
 C324 C 1.02734 0.73110 0.76892
 C325 C 0.97254 0.73110 0.76893
 C326 C 1.02734 0.76893 0.73112
 O327 O 0.47964 0.75211 0.22362
 O328 O 0.52031 0.72361 0.25212
 O329 O 0.47963 0.72362 0.25211
 O330 O 0.52032 0.75210 0.22362
 O331 O 0.52032 0.77641 0.24793
 O332 O 0.47963 0.74793 0.27642
 O333 O 0.52031 0.74792 0.27643
 O334 O 0.47964 0.77642 0.24793
 Cu335 Cu 0.49998 0.73541 0.23542
 Cu336 Cu 0.49998 0.76462 0.26463
 C337 C 0.47258 0.76893 0.23111
 C338 C 0.52737 0.73110 0.26894
 C339 C 0.47257 0.73111 0.26893
 C340 C 0.52738 0.76891 0.23112
 O341 O 0.02033 0.75208 0.27641
 O342 O -0.02036 0.72360 0.24792
 O343 O 0.02032 0.72360 0.24791
 O344 O -0.02035 0.75208 0.27641
 O345 O -0.02036 0.77639 0.25210
 O346 O 0.02032 0.74791 0.22361
 O347 O -0.02036 0.74791 0.22361
 O348 O 0.02032 0.77639 0.25210
 Cu349 Cu -0.00002 0.73538 0.26461
 Cu350 Cu -0.00002 0.76460 0.23540
 C351 C 0.02739 0.76889 0.26892
 C352 C -0.02742 0.73109 0.23110
 C353 C 0.02738 0.73109 0.23109
 C354 C -0.02741 0.76890 0.26892
 O355 O 0.52037 0.74792 0.72360
 O356 O 0.47969 0.77642 0.75208
 O357 O 0.52037 0.77642 0.75208
 O358 O 0.47969 0.74792 0.72360
 O359 O 0.47969 0.72362 0.74792
 O360 O 0.52037 0.75212 0.77640
 O361 O 0.47969 0.75212 0.77640
 O362 O 0.52037 0.72362 0.74792
 Cu363 Cu 0.50003 0.76462 0.73539
 Cu364 Cu 0.50003 0.73542 0.76461
 C365 C 0.52743 0.73111 0.73110
 C366 C 0.47263 0.76893 0.76890
 C367 C 0.52743 0.76893 0.76891
 C368 C 0.47263 0.73111 0.73109
 C369 C 0.40738 0.28423 0.31126
 C370 C 0.40492 0.30460 0.32390
 C371 C 0.38610 0.31037 0.31036
 C372 C 0.38829 0.29013 0.29788
 C373 C 0.42143 0.29580 0.29580
 C374 C 0.40258 0.30159 0.28232
 C375 C 0.41932 0.31605 0.30828
 C376 C 0.40014 0.32195 0.29490
 C377 C 0.36589 0.31778 0.31778
 C378 C 0.34878 0.32318 0.32319
 C379 C 0.44049 0.28700 0.28700
 C380 C 0.45551 0.27908 0.27908
 H381 H 0.41056 0.26862 0.31790
 H382 H 0.40564 0.30593 0.34109
 H383 H 0.37534 0.27953 0.29366
 H384 H 0.40181 0.30026 0.26513
 H385 H 0.43231 0.32661 0.31246
 H386 H 0.39693 0.33756 0.28826
 C387 C 0.41788 0.80215 0.81853
 C388 C 0.40690 0.82224 0.81090
 C389 C 0.38618 0.81037 0.81034
 C390 C 0.39682 0.79045 0.81811
 C391 C 0.42152 0.79583 0.79579
 C392 C 0.40077 0.78402 0.79527
 C393 C 0.41089 0.81576 0.78802
 C394 C 0.38988 0.80403 0.78762
 C395 C 0.36596 0.81777 0.81775
 C396 C 0.34885 0.82317 0.82315
 C397 C 0.44059 0.78703 0.78699
 C398 C 0.45561 0.77912 0.77908
 H399 H 0.42963 0.80129 0.83114
 H400 H 0.40917 0.83806 0.81742
 H401 H 0.39081 0.78012 0.83056
 H402 H 0.39842 0.76822 0.78875
 H403 H 0.41689 0.82607 0.77555
 H404 H 0.37817 0.80487 0.77497
 C405 C -0.08165 0.31808 0.80384
 C406 C -0.10231 0.31930 0.79149
 C407 C -0.11385 0.31034 0.81038
 C408 C -0.09354 0.30925 0.82290
 C409 C -0.07851 0.29580 0.79583
 C410 C -0.09006 0.28684 0.81472
 C411 C -0.09886 0.29692 0.78337
 C412 C -0.11065 0.28808 0.80235
 C413 C -0.13407 0.31774 0.81779
 C414 C -0.15118 0.32314 0.82319
 C415 C -0.05944 0.28700 0.78702
 C416 C -0.04443 0.27909 0.77911
 H417 H -0.06949 0.33031 0.80436
 H418 H -0.10757 0.33273 0.78202
 H419 H -0.09160 0.31442 0.83925
 H420 H -0.08481 0.27340 0.82419
 H421 H -0.10087 0.29176 0.76702
 H422 H -0.12277 0.27581 0.80181
 C423 C -0.09938 0.79477 0.28426
 C424 C -0.10998 0.78752 0.30457
 C425 C -0.11385 0.81036 0.31038
 C426 C -0.10350 0.81772 0.29016
 C427 C -0.07851 0.79579 0.29583
 C428 C -0.08232 0.81865 0.30162
 C429 C -0.08886 0.78842 0.31606
 C430 C -0.09301 0.81141 0.32202
 C431 C -0.13406 0.81777 0.31779
 C432 C -0.15117 0.82317 0.32319
 C433 C -0.05945 0.78699 0.28703
 C434 C -0.04443 0.77907 0.27911
 H435 H -0.10182 0.78784 0.26865
 H436 H -0.12156 0.77478 0.30585
 H437 H -0.10973 0.82985 0.27959
 H438 H -0.07071 0.83135 0.30032
 H439 H -0.08262 0.77628 0.32662
 H440 H -0.09064 0.81836 0.33764
 C441 C 0.59796 0.70025 0.28260
 C442 C 0.61130 0.71081 0.29957
 C443 C 0.61382 0.68966 0.31037
 C444 C 0.60074 0.67897 0.29349
 C445 C 0.57848 0.70422 0.29583
 C446 C 0.58092 0.68305 0.30662
 C447 C 0.59157 0.71489 0.31271
 C448 C 0.59437 0.69361 0.32366
 C449 C 0.63403 0.68225 0.31778
 C450 C 0.65115 0.67685 0.32318
 C451 C 0.55941 0.71301 0.28703
 C452 C 0.54439 0.72093 0.27912
 H453 H 0.59926 0.70307 0.26562
 H454 H 0.62398 0.72216 0.29674
 H455 H 0.60473 0.66412 0.28567
 H456 H 0.56819 0.67174 0.30942
 H457 H 0.58760 0.72976 0.32053
 H458 H 0.59313 0.69078 0.34064
 C459 C 0.59819 0.20083 0.78268
 C460 C 0.61123 0.21110 0.80005
 C461 C 0.61387 0.18971 0.81035
 C462 C 0.60108 0.17932 0.79307
 C463 C 0.57853 0.20426 0.79580
 C464 C 0.58109 0.18285 0.80608
 C465 C 0.59133 0.21464 0.81308
 C466 C 0.59424 0.19312 0.82352
 C467 C 0.63409 0.18231 0.81777
 C468 C 0.65120 0.17691 0.82317
 C469 C 0.55945 0.21304 0.78700
 C470 C 0.54443 0.22095 0.77909
 H471 H 0.59963 0.20409 0.76579
 H472 H 0.62383 0.22265 0.79764
 H473 H 0.60531 0.16471 0.78492
 H474 H 0.56846 0.17134 0.80846
 H475 H 0.58711 0.22927 0.82122
 H476 H 0.59286 0.18985 0.84041
 C477 C 1.08192 0.69731 0.81839
 C478 C 1.09322 0.67756 0.81034
 C479 C 1.11381 0.68966 0.81033
 C480 C 1.10286 0.70925 0.81852
 C481 C 1.07846 0.70421 0.79579
 C482 C 1.09908 0.71626 0.79582
 C483 C 1.08940 0.68462 0.78760
 C484 C 1.11027 0.69658 0.78775
 C485 C 1.13402 0.68225 0.81774
 C486 C 1.15114 0.67686 0.82313
 C487 C 1.05939 0.71301 0.78700
 C488 C 1.04436 0.72093 0.77909
 H489 H 1.07003 0.69770 0.83089
 H490 H 1.09105 0.66155 0.81640
 H491 H 1.10862 0.71930 0.83131
 H492 H 1.10132 0.73226 0.78976
 H493 H 1.08365 0.67459 0.77479
 H494 H 1.12213 0.69622 0.77521
 C495 C 1.08368 0.20196 0.31901
 C496 C 1.09251 0.17993 0.31464
 C497 C 1.11389 0.18966 0.31034
 C498 C 1.10539 0.21152 0.31484
 C499 C 1.07855 0.20422 0.29579
 C500 C 1.09997 0.21389 0.29154
 C501 C 1.08703 0.18235 0.29127
 C502 C 1.10872 0.19194 0.28713
 C503 C 1.13410 0.18225 0.31775
 C504 C 1.15122 0.17684 0.32315
 C505 C 1.05948 0.21302 0.28700
 C506 C 1.04446 0.22094 0.27909
 H507 H 1.07315 0.20617 0.33202
 H508 H 1.08969 0.16587 0.32424
 H509 H 1.11316 0.22344 0.32461
 H510 H 1.10287 0.22794 0.28195
 H511 H 1.07926 0.17045 0.28149
 H512 H 1.11922 0.18775 0.27409
 C513 C 0.60003 0.29006 0.71271
 C514 C 0.60790 0.28721 0.69018
 C515 C 0.61382 0.31034 0.68963
 C516 C 0.60620 0.31328 0.71208
 C517 C 0.57848 0.29581 0.70419
 C518 C 0.58436 0.31895 0.70367
 C519 C 0.58607 0.29285 0.68173
 C520 C 0.59230 0.31615 0.68105
 C521 C 0.63404 0.31774 0.68222
 C522 C 0.65115 0.32314 0.67682
 C523 C 0.55941 0.28702 0.71299
 C524 C 0.54439 0.27910 0.72091
 H525 H 0.60304 0.27924 0.72582
 H526 H 0.61779 0.27423 0.68456
 H527 H 0.61469 0.32176 0.72448
 H528 H 0.57445 0.33190 0.70931
 H529 H 0.57757 0.28435 0.66935
 H530 H 0.58937 0.32697 0.66793
 C531 C 0.59956 0.79384 0.21531
 C532 C 0.60962 0.78735 0.19448
 C533 C 0.61383 0.81036 0.18967
 C534 C 0.60401 0.81695 0.21041
 C535 C 0.57849 0.79580 0.20422
 C536 C 0.58264 0.81883 0.19943
 C537 C 0.58830 0.78919 0.18347
 C538 C 0.59281 0.81236 0.17851
 C539 C 0.63404 0.81777 0.18225
 C540 C 0.65115 0.82317 0.17685
 C541 C 0.55942 0.78700 0.21302
 C542 C 0.54441 0.77909 0.22094
 H543 H 0.60216 0.78613 0.23054
 H544 H 0.62091 0.77447 0.19238
 H545 H 0.61069 0.82845 0.22142
 H546 H 0.57132 0.83167 0.20156
 H547 H 0.58163 0.77768 0.17248
 H548 H 0.59028 0.82007 0.16328
 C549 C 1.08987 0.31496 0.21291
 C550 C 1.11056 0.30272 0.21201
 C551 C 1.11385 0.31039 0.18963
 C552 C 1.09345 0.32278 0.19038
 C553 C 1.07852 0.29584 0.20421
 C554 C 1.08174 0.30349 0.18181
 C555 C 1.09896 0.28351 0.20343
 C556 C 1.10250 0.29126 0.18093
 C557 C 1.13406 0.31780 0.18221
 C558 C 1.15117 0.32320 0.17681
 C559 C 1.05945 0.28704 0.21301
 C560 C 1.04444 0.27912 0.22093
 H561 H 1.08447 0.32462 0.22615
 H562 H 1.12261 0.30247 0.22437
 H563 H 1.09143 0.33902 0.18492
 H564 H 1.06966 0.30371 0.16950
 H565 H 1.10105 0.26727 0.20888
 H566 H 1.10791 0.28160 0.16770
 C567 C 1.09994 0.78667 0.70921
 C568 C 1.10571 0.78819 0.68592
 C569 C 1.11379 0.81035 0.68968
 C570 C 1.10827 0.80891 0.71287
 C571 C 1.07845 0.79582 0.70423
 C572 C 1.08651 0.81798 0.70801
 C573 C 1.08392 0.79723 0.68103
 C574 C 1.09234 0.81956 0.68465
 C575 C 1.13401 0.81776 0.68227
 C576 C 1.15112 0.82315 0.67687
 C577 C 1.05938 0.78702 0.71303
 C578 C 1.04436 0.77911 0.72095
 H579 H 1.10290 0.77306 0.71941
 H580 H 1.11382 0.77602 0.67677
 H581 H 1.11849 0.81379 0.72590
 H582 H 1.07839 0.83013 0.71718
 H583 H 1.07368 0.79233 0.66803
 H584 H 1.08945 0.83317 0.67445
 C585 C 0.40058 0.71561 0.70560
 C586 C 0.39633 0.71009 0.68258
 C587 C 0.38617 0.68966 0.68966
 C588 C 0.39018 0.69510 0.71257
 C589 C 0.42152 0.70421 0.70421
 C590 C 0.41138 0.68378 0.71130
 C591 C 0.41758 0.69879 0.68128
 C592 C 0.40708 0.67820 0.68824
 C593 C 0.36596 0.68226 0.68226
 C594 C 0.34884 0.67686 0.67686
 C595 C 0.44059 0.71301 0.71300
 C596 C 0.45561 0.72092 0.72092
 H597 H 0.39808 0.73108 0.71282
 H598 H 0.38992 0.72082 0.67069
 H599 H 0.37871 0.69351 0.72537
 H600 H 0.41778 0.67306 0.72321
 H601 H 0.42908 0.70041 0.66852
 H602 H 0.40951 0.66273 0.68100
 C603 C 0.41934 0.19163 0.18398
 C604 C 0.40491 0.17607 0.19548
 C605 C 0.38612 0.18962 0.18965
 C606 C 0.40019 0.20502 0.17803
 C607 C 0.42146 0.20417 0.20421
 C608 C 0.40264 0.21766 0.19836
 C609 C 0.40737 0.18876 0.21581
 C610 C 0.38831 0.20216 0.20986
 C611 C 0.36590 0.18221 0.18224
 C612 C 0.34879 0.17682 0.17684
 C613 C 0.44053 0.21297 0.21300
 C614 C 0.45554 0.22089 0.22092
 H615 H 0.43234 0.18740 0.17345
 H616 H 0.40560 0.15888 0.19419
 H617 H 0.39701 0.21162 0.16240
 H618 H 0.40189 0.23485 0.19964
 H619 H 0.41053 0.18216 0.23144
 H620 H 0.37536 0.20642 0.22043
 C621 C -0.08359 0.68097 0.20183
 C622 C -0.10530 0.68505 0.21146
 C623 C -0.11385 0.68964 0.18964
 C624 C -0.09248 0.68543 0.17984
 C625 C -0.07851 0.70419 0.20419
 C626 C -0.08705 0.70880 0.18236
 C627 C -0.09992 0.70835 0.21393
 C628 C -0.10872 0.71284 0.19202
 C629 C -0.13406 0.68222 0.18223
 C630 C -0.15117 0.67682 0.17683
 C631 C -0.05945 0.71299 0.21300
 C632 C -0.04443 0.72091 0.22092
 H633 H -0.07303 0.66797 0.20596
 H634 H -0.11301 0.67520 0.22335
 H635 H -0.08967 0.67591 0.16573
 H636 H -0.07932 0.71865 0.17049
 H637 H -0.10281 0.71787 0.22804
 H638 H -0.11926 0.72587 0.18791
 C639 C -0.09812 0.21736 0.70058
 C640 C -0.10095 0.20682 0.67913
 C641 C -0.11384 0.18966 0.68961
 C642 C -0.11125 0.20010 0.71093
 C643 C -0.07851 0.20421 0.70419
 C644 C -0.09141 0.18704 0.71465
 C645 C -0.08101 0.19377 0.68285
 C646 C -0.09426 0.17645 0.69319
 C647 C -0.13405 0.18225 0.68219
 C648 C -0.15116 0.17684 0.67678
 C649 C -0.05944 0.21301 0.71300
 C650 C -0.04443 0.22092 0.72092
 H651 H -0.09952 0.23427 0.70370
 H652 H -0.10510 0.21486 0.66444
 H653 H -0.12389 0.20264 0.72241
 H654 H -0.08728 0.17900 0.72935
 H655 H -0.06834 0.19126 0.67141
 H656 H -0.09292 0.15953 0.69006
 C657 C 0.30265 0.40309 0.28227
 C658 C 0.32239 0.40078 0.29585
 C659 C 0.31032 0.38618 0.31038
 C660 C 0.29071 0.38823 0.29691
 C661 C 0.29577 0.42151 0.29583
 C662 C 0.28372 0.40689 0.31036
 C663 C 0.31539 0.41954 0.30930
 C664 C 0.30345 0.40456 0.32399
 C665 C 0.31773 0.36596 0.31780
 C666 C 0.32312 0.34885 0.32320
 C667 C 0.28698 0.44058 0.28702
 C668 C 0.27906 0.45560 0.27910
 H669 H 0.30223 0.40267 0.26502
 H670 H 0.33838 0.39804 0.28997
 H671 H 0.28063 0.37516 0.29187
 H672 H 0.26773 0.40960 0.31625
 H673 H 0.32544 0.43265 0.31430
 H674 H 0.30388 0.40493 0.34124
 C675 C 0.29640 -0.08436 0.81896
 C676 C 0.28794 -0.10620 0.81335
 C677 C 0.31036 -0.11386 0.81035
 C678 C 0.31899 -0.09234 0.81609
 C679 C 0.29581 -0.07852 0.79581
 C680 C 0.31824 -0.08614 0.79278
 C681 C 0.28724 -0.10007 0.79012
 C682 C 0.30975 -0.10797 0.78721
 C683 C 0.31778 -0.13407 0.81776
 C684 C 0.32318 -0.15118 0.82316
 C685 C 0.28700 -0.05945 0.78701
 C686 C 0.27908 -0.04444 0.77909
 H687 H 0.29082 -0.07442 0.83191
 H688 H 0.27556 -0.11466 0.82189
 H689 H 0.33215 -0.08940 0.82687
 H690 H 0.33060 -0.07767 0.78423
 H691 H 0.27409 -0.10308 0.77935
 H692 H 0.31531 -0.11789 0.77423
 C693 C 0.81349 0.40895 0.78575
 C694 C 0.82338 0.40592 0.80753
 C695 C 0.81034 0.38611 0.81037
 C696 C 0.80060 0.38887 0.78873
 C697 C 0.79579 0.42145 0.79580
 C698 C 0.78281 0.40161 0.79867
 C699 C 0.80552 0.41877 0.81745
 C700 C 0.79264 0.39860 0.82042
 C701 C 0.81775 0.36590 0.81778
 C702 C 0.82315 0.34879 0.82318
 C703 C 0.78699 0.44052 0.78700
 C704 C 0.77908 0.45553 0.77909
 H705 H 0.82198 0.41341 0.77140
 H706 H 0.84016 0.40745 0.81127
 H707 H 0.79864 0.37637 0.77699
 H708 H 0.76604 0.40001 0.79494
 H709 H 0.80745 0.43130 0.82916
 H710 H 0.78415 0.39413 0.83476
 C711 C 0.80269 -0.09693 0.28225
 C712 C 0.82243 -0.09923 0.29583
 C713 C 0.81037 -0.11384 0.31037
 C714 C 0.79076 -0.11179 0.29688
 C715 C 0.79581 -0.07851 0.29580
 C716 C 0.78376 -0.09313 0.31034
 C717 C 0.81543 -0.08047 0.30928
 C718 C 0.80349 -0.09545 0.32397
 C719 C 0.81777 -0.13405 0.31778
 C720 C 0.82317 -0.15116 0.32319
 C721 C 0.78701 -0.05944 0.28700
 C722 C 0.77909 -0.04443 0.27908
 H723 H 0.80228 -0.09735 0.26500
 H724 H 0.83843 -0.10196 0.28995
 H725 H 0.78068 -0.12486 0.29185
 H726 H 0.76776 -0.09043 0.31622
 H727 H 0.82547 -0.06736 0.31428
 H728 H 0.80391 -0.09508 0.34122
 C729 C 0.31364 0.59093 0.71416
 C730 C 0.32336 0.59401 0.69231
 C731 C 0.31036 0.61387 0.68966
 C732 C 0.30080 0.61107 0.71137
 C733 C 0.29581 0.57854 0.70422
 C734 C 0.28288 0.59844 0.70154
 C735 C 0.30536 0.58126 0.68249
 C736 C 0.29253 0.60149 0.67971
 C737 C 0.31777 0.63409 0.68226
 C738 C 0.32318 0.65120 0.67686
 C739 C 0.28701 0.55947 0.71301
 C740 C 0.27910 0.54445 0.72093
 H741 H 0.32223 0.58638 0.72842
 H742 H 0.34009 0.59243 0.68842
 H743 H 0.29899 0.62353 0.72318
 H744 H 0.26615 0.60008 0.70542
 H745 H 0.30714 0.56877 0.67073
 H746 H 0.28393 0.60605 0.66547
 C747 C 0.31867 1.08519 0.20542
 C748 C 0.31754 1.09227 0.18238
 C749 C 0.31031 1.11383 0.18966
 C750 C 0.31157 1.10708 0.21253
 C751 C 0.29577 1.07849 0.20421
 C752 C 0.28860 1.10010 0.21143
 C753 C 0.29449 1.08521 0.18132
 C754 C 0.28743 1.10710 0.18846
 C755 C 0.31772 1.13405 0.18224
 C756 C 0.32312 1.15116 0.17684
 C757 C 0.28698 1.05942 0.21301
 C758 C 0.27907 1.04440 0.22093
 H759 H 0.33142 1.07595 0.21249
 H760 H 0.32954 1.08929 0.17034
 H761 H 0.31867 1.11628 0.22529
 H762 H 0.27661 1.10314 0.22346
 H763 H 0.28737 1.07600 0.16859
 H764 H 0.27466 1.11632 0.18141
 C765 C 0.81875 0.58512 0.20529
 C766 C 0.81749 0.59226 0.18227
 C767 C 0.81037 0.61383 0.18965
 C768 C 0.81177 0.60701 0.21250
 C769 C 0.79583 0.57849 0.20421
 C770 C 0.78876 0.60010 0.21154
 C771 C 0.79441 0.58528 0.18135
 C772 C 0.78746 0.60716 0.18860
 C773 C 0.81777 0.63404 0.18224
 C774 C 0.82317 0.65115 0.17683
 C775 C 0.78703 0.55942 0.21302
 C776 C 0.77911 0.54441 0.22094
 H777 H 0.83152 0.57583 0.21224
 H778 H 0.82939 0.58928 0.17014
 H779 H 0.81898 0.61615 0.22523
 H780 H 0.77687 0.60315 0.22366
 H781 H 0.78717 0.57611 0.16865
 H782 H 0.77466 0.61644 0.18166
 C783 C 0.81715 1.08105 0.69375
 C784 C 0.80680 1.09428 0.67641
 C785 C 0.81036 1.11387 0.68960
 C786 C 0.82083 1.10100 0.70679
 C787 C 0.79580 1.07854 0.70418
 C788 C 0.79939 1.09816 0.71731
 C789 C 0.78534 1.09142 0.68699
 C790 C 0.78904 1.11128 0.70004
 C791 C 0.81777 1.13407 0.68218
 C792 C 0.82318 1.15118 0.67678
 C793 C 0.78700 1.05948 0.71299
 C794 C 0.77909 1.04447 0.72092
 H795 H 0.82860 1.06839 0.69126
 H796 H 0.80995 1.09293 0.65950
 H797 H 0.83552 1.10517 0.71484
 H798 H 0.79625 1.09958 0.73423
 H799 H 0.77065 1.08727 0.67894
 H800 H 0.77754 1.12390 0.70256
 C801 C 0.71073 0.58830 0.31660
 C802 C 0.71266 0.60964 0.30564
 C803 C 0.68964 0.61388 0.31035
 C804 C 0.68754 0.59284 0.32146
 C805 C 0.70420 0.57854 0.29580
 C806 C 0.68116 0.58273 0.30049
 C807 C 0.70625 0.59962 0.28475
 C808 C 0.68312 0.60411 0.28955
 C809 C 0.68222 0.63409 0.31776
 C810 C 0.67682 0.65120 0.32317
 C811 C 0.71300 0.55947 0.28700
 C812 C 0.72092 0.54446 0.27909
 H813 H 0.72217 0.58159 0.32763
 H814 H 0.72555 0.62090 0.30782
 H815 H 0.67975 0.59030 0.33664
 H816 H 0.66830 0.57143 0.29828
 H817 H 0.71404 0.60223 0.26957
 H818 H 0.67169 0.61083 0.27851
 C819 C 0.70705 1.09980 0.78521
 C820 C 0.68382 1.10459 0.78918
 C821 C 0.68968 1.11393 0.81037
 C822 C 0.71280 1.10938 0.80649
 C823 C 0.70423 1.07859 0.79583
 C824 C 0.71010 1.08791 0.81702
 C825 C 0.68109 1.08308 0.79969
 C826 C 0.68682 1.09276 0.82105
 C827 C 0.68227 1.13414 0.81778
 C828 C 0.67686 1.15125 0.82318
 C829 C 0.71303 1.05952 0.78703
 C830 C 0.72094 1.04450 0.77912
 H831 H 0.71545 1.10251 0.77039
 H832 H 0.67293 1.11166 0.77782
 H833 H 0.72577 1.12040 0.80935
 H834 H 0.72100 1.08084 0.82837
 H835 H 0.66816 1.07203 0.79681
 H836 H 0.67841 1.09011 0.83588
 C837 C 0.21676 0.59392 0.80905
 C838 C 0.20831 0.61196 0.79559
 C839 C 0.18962 0.61387 0.81033
 C840 C 0.19795 0.59609 0.82394
 C841 C 0.20419 0.57853 0.79579
 C842 C 0.18548 0.58036 0.81054
 C843 C 0.19585 0.59634 0.78224
 C844 C 0.17702 0.59851 0.79708
 C845 C 0.18221 0.63408 0.81774
 C846 C 0.17680 0.65120 0.82314
 C847 C 0.21299 0.55946 0.78700
 C848 C 0.22091 0.54445 0.77909
 H849 H 0.23319 0.59184 0.81388
 H850 H 0.21763 0.62515 0.78951
 H851 H 0.19872 0.59623 0.84118
 H852 H 0.17620 0.56713 0.81658
 H853 H 0.19507 0.59626 0.76500
 H854 H 0.16059 0.60062 0.79225
 C855 C 0.18104 1.08422 0.29666
 C856 C 0.18414 1.09234 0.31917
 C857 C 0.18967 1.11383 0.31035
 C858 C 0.18642 1.10604 0.28800
 C859 C 0.20421 1.07849 0.29581
 C860 C 0.20968 1.10002 0.28705
 C861 C 0.20747 1.08625 0.31816
 C862 C 0.21282 1.10806 0.30948
 C863 C 0.18226 1.13405 0.31776
 C864 C 0.17687 1.15117 0.32315
 C865 C 0.21300 1.05941 0.28701
 C866 C 0.22091 1.04439 0.27910
 H867 H 0.16806 1.07418 0.29129
 H868 H 0.17355 1.08943 0.33247
 H869 H 0.17769 1.11439 0.27568
 H870 H 0.22027 1.10300 0.27375
 H871 H 0.21622 1.07789 0.33046
 H872 H 0.22583 1.11807 0.31482
 C873 C 0.70678 0.40028 0.71494
 C874 C 0.68358 0.39558 0.71072
 C875 C 0.68963 0.38612 0.68965
 C876 C 0.71273 0.39057 0.69378
 C877 C 0.70418 0.42145 0.70420
 C878 C 0.71025 0.41201 0.68312
 C879 C 0.68107 0.41705 0.70009
 C880 C 0.68700 0.40725 0.67884
 C881 C 0.68222 0.36591 0.68223
 C882 C 0.67682 0.34880 0.67683
 C883 C 0.71298 0.44052 0.71300
 C884 C 0.72090 0.45554 0.72092
 H885 H 0.71500 0.39759 0.72987
 H886 H 0.67252 0.38861 0.72200
 H887 H 0.72568 0.37948 0.69111
 H888 H 0.72132 0.41898 0.67186
 H889 H 0.66816 0.42818 0.70278
 H890 H 0.67877 0.40987 0.66390
 C891 C 0.68749 -0.08022 0.18720
 C892 C 0.70066 -0.09731 0.17640
 C893 C 0.68962 -0.11383 0.18965
 C894 C 0.67631 -0.09712 0.20031
 C895 C 0.70418 -0.07850 0.20420
 C896 C 0.69314 -0.09505 0.21741
 C897 C 0.71746 -0.09524 0.19353
 C898 C 0.70631 -0.11202 0.20664
 C899 C 0.68221 -0.13405 0.18224
 C900 C 0.67681 -0.15116 0.17684
 C901 C 0.71298 -0.05943 0.21300
 C902 C 0.72090 -0.04441 0.22091
 H903 H 0.67985 -0.06691 0.17932
 H904 H 0.70367 -0.09847 0.15945
 H905 H 0.65929 -0.09813 0.20301
 H906 H 0.69013 -0.09392 0.23437
 H907 H 0.73448 -0.09427 0.19084
 H908 H 0.71399 -0.12529 0.21457
 C909 C 0.18145 0.41787 0.19790
 C910 C 0.18904 0.40692 0.17777
 C911 C 0.18965 0.38619 0.18961
 C912 C 0.18193 0.39679 0.20958
 C913 C 0.20421 0.42152 0.20417
 C914 C 0.20478 0.40075 0.21594
 C915 C 0.21193 0.41093 0.18420
 C916 C 0.21239 0.38991 0.19590
 C917 C 0.18224 0.36598 0.18220
 C918 C 0.17684 0.34887 0.17680
 C919 C 0.21301 0.44059 0.21297
 C920 C 0.22092 0.45560 0.22090
 H921 H 0.16883 0.42960 0.19882
 H922 H 0.18247 0.40921 0.16198
 H923 H 0.16952 0.39076 0.21993
 H924 H 0.21135 0.39839 0.23173
 H925 H 0.22436 0.41696 0.17386
 H926 H 0.22505 0.37821 0.19500
 C927 C 0.18381 -0.08875 0.71146
 C928 C 0.17807 -0.09299 0.68842
 C929 C 0.18961 -0.11387 0.68969
 C930 C 0.19520 -0.10992 0.71257
 C931 C 0.20416 -0.07853 0.70424
 C932 C 0.21563 -0.09944 0.70548
 C933 C 0.19859 -0.08241 0.68134
 C934 C 0.20995 -0.10364 0.68249
 C935 C 0.18219 -0.13408 0.68228
 C936 C 0.17679 -0.15119 0.67688
 C937 C 0.21296 -0.05946 0.71304
 C938 C 0.22088 -0.04444 0.72095
 H939 H 0.17316 -0.08242 0.72346
 H940 H 0.16254 -0.09058 0.68131
 H941 H 0.19374 -0.12143 0.72535
 H942 H 0.23116 -0.10192 0.71259
 H943 H 0.20007 -0.07087 0.66861
 H944 H 0.22062 -0.10997 0.67050
 C945 C 0.29229 0.31809 0.41365
 C946 C 0.31563 0.31936 0.40768
 C947 C 0.31032 0.31037 0.38619
 C948 C 0.28715 0.30925 0.39185
 C949 C 0.29578 0.29582 0.42153
 C950 C 0.29053 0.28690 0.40001
 C951 C 0.31897 0.29692 0.41592
 C952 C 0.31380 0.28811 0.39410
 C953 C 0.31773 0.31779 0.36598
 C954 C 0.32313 0.32319 0.34886
 C955 C 0.28698 0.28701 0.44060
 C956 C 0.27907 0.27909 0.45562
 H957 H 0.28335 0.33032 0.42191
 H958 H 0.32605 0.33280 0.41058
 H959 H 0.27414 0.31439 0.38175
 H960 H 0.28011 0.27346 0.39703
 H961 H 0.33195 0.29176 0.42604
 H962 H 0.32272 0.27586 0.38585
 C963 C 0.29740 0.81900 -0.08392
 C964 C 0.31968 0.81523 -0.09241
 C965 C 0.31037 0.81034 -0.11386
 C966 C 0.28827 0.81425 -0.10570
 C967 C 0.29582 0.79579 -0.07852
 C968 C 0.28657 0.79095 -0.10000
 C969 C 0.31793 0.79187 -0.08665
 C970 C 0.30877 0.78715 -0.10841
 C971 C 0.31778 0.81775 -0.13407
 C972 C 0.32318 0.82316 -0.15118
 C973 C 0.28702 0.78699 -0.05945
 C974 C 0.27910 0.77907 -0.04443
 H975 H 0.29264 0.83200 -0.07362
 H976 H 0.33338 0.82531 -0.08953
 H977 H 0.27614 0.82353 -0.11374
 H978 H 0.27287 0.78088 -0.10295
 H979 H 0.33003 0.78257 -0.07860
 H980 H 0.31351 0.77412 -0.11868
 C981 C 0.81831 0.29301 -0.08597
 C982 C 0.80998 0.28723 -0.10781
 C983 C 0.81035 0.31034 -0.11381
 C984 C 0.81881 0.31629 -0.09228
 C985 C 0.79581 0.29581 -0.07846
 C986 C 0.79615 0.31893 -0.08441
 C987 C 0.78740 0.28991 -0.10002
 C988 C 0.78786 0.31312 -0.10627
 C989 C 0.81775 0.31775 -0.13403
 C990 C 0.82315 0.32314 -0.15114
 C991 C 0.78701 0.28701 -0.05938
 C992 C 0.77909 0.27910 -0.04436
 H993 H 0.83073 0.28466 -0.07739
 H994 H 0.81575 0.27427 -0.11763
 H995 H 0.83182 0.32724 -0.08934
 H996 H 0.79037 0.33187 -0.07457
 H997 H 0.77440 0.27897 -0.10303
 H998 H 0.77541 0.32146 -0.11483
 C999 C 0.78343 0.80967 0.40648
 C1000 C 0.80267 0.82399 0.40425
 C1001 C 0.81034 0.81038 0.38618
 C1002 C 0.79122 0.79620 0.38815
 C1003 C 0.79578 0.79582 0.42152
 C1004 C 0.80346 0.78226 0.40342
 C1005 C 0.81491 0.81000 0.41964
 C1006 C 0.82271 0.79653 0.40120
 C1007 C 0.81776 0.81779 0.36597
 C1008 C 0.82316 0.82318 0.34886
 C1009 C 0.78698 0.78702 0.44059
 C1010 C 0.77906 0.77910 0.45560
 H1011 H 0.76718 0.81498 0.40884
 H1012 H 0.80244 0.84124 0.40435
 H1013 H 0.78154 0.79059 0.37500
 H1014 H 0.80369 0.76500 0.40327
 H1015 H 0.82454 0.81557 0.43283
 H1016 H 0.83895 0.79122 0.39881
 C1017 C 0.69587 0.28223 0.59631
 C1018 C 0.70834 0.29560 0.61192
 C1019 C 0.68964 0.31033 0.61383
 C1020 C 0.67704 0.29707 0.59847
 C1021 C 0.70420 0.29579 0.57849
 C1022 C 0.68549 0.31052 0.58032
 C1023 C 0.71677 0.30905 0.59387
 C1024 C 0.69795 0.32393 0.59605
 C1025 C 0.68222 0.31774 0.63405
 C1026 C 0.67682 0.32314 0.65116
 C1027 C 0.71300 0.28700 0.55942
 C1028 C 0.72092 0.27909 0.54440
 H1029 H 0.69511 0.26499 0.59623
 H1030 H 0.71767 0.28952 0.62511
 H1031 H 0.66061 0.29223 0.60060
 H1032 H 0.67620 0.31655 0.56709
 H1033 H 0.73320 0.31389 0.59178
 H1034 H 0.69871 0.34117 0.59617
 C1035 C 0.68932 0.81439 1.08033
 C1036 C 0.67607 0.80187 1.09614
 C1037 C 0.68965 0.81036 1.11386
 C1038 C 0.70276 0.82302 1.09842
 C1039 C 0.70422 0.79581 1.07853
 C1040 C 0.71775 0.80431 1.09628
 C1041 C 0.69111 0.78317 1.09399
 C1042 C 0.70454 0.79179 1.11197
 C1043 C 0.68223 0.81777 1.13407
 C1044 C 0.67682 0.82317 1.15118
 C1045 C 0.71302 0.78701 1.05946
 C1046 C 0.72093 0.77910 1.04444
 H1047 H 0.68317 0.82358 1.06709
 H1048 H 0.65884 0.80096 1.09632
 H1049 H 0.70746 0.83950 1.10048
 H1050 H 0.73498 0.80523 1.09614
 H1051 H 0.68640 0.76669 1.09196
 H1052 H 0.71073 0.78255 1.12517
 C1053 C 0.21667 0.30940 1.09367
 C1054 C 0.19762 0.32399 1.09587
 C1055 C 0.18964 0.31039 1.11381
 C1056 C 0.20857 0.29594 1.11187
 C1057 C 0.20421 0.29583 1.07847
 C1058 C 0.19622 0.28227 1.09644
 C1059 C 0.18528 0.31027 1.08032
 C1060 C 0.17716 0.29681 1.09863
 C1061 C 0.18223 0.31780 1.13402
 C1062 C 0.17683 0.32320 1.15113
 C1063 C 0.21301 0.28703 1.05940
 C1064 C 0.22093 0.27911 1.04439
 H1065 H 0.23300 0.31449 1.09144
 H1066 H 0.19811 0.34124 1.09587
 H1067 H 0.21808 0.29011 1.12504
 H1068 H 0.19573 0.26502 1.09649
 H1069 H 0.17581 0.31606 1.06711
 H1070 H 0.16083 0.29173 1.10089
 C1071 C 0.18950 0.81457 0.58037
 C1072 C 0.17602 0.80212 0.59604
 C1073 C 0.18961 0.81036 0.61387
 C1074 C 0.20295 0.82294 0.59857
 C1075 C 0.20418 0.79582 0.57853
 C1076 C 0.21772 0.80406 0.59639
 C1077 C 0.19084 0.78326 0.59386
 C1078 C 0.20429 0.79162 0.61195
 C1079 C 0.18219 0.81776 0.63409
 C1080 C 0.17679 0.82316 0.65120
 C1081 C 0.21298 0.78703 0.55946
 C1082 C 0.22090 0.77912 0.54444
 H1083 H 0.18352 0.82391 0.56714
 H1084 H 0.15878 0.80142 0.59613
 H1085 H 0.20783 0.83935 0.60073
 H1086 H 0.23497 0.80477 0.59635
 H1087 H 0.18595 0.76685 0.59172
 H1088 H 0.21030 0.78224 0.62513
 C1089 C 0.31518 0.69041 0.58046
 C1090 C 0.32259 0.70387 0.59905
 C1091 C 0.31036 0.68969 0.61387
 C1092 C 0.30308 0.67607 0.59565
 C1093 C 0.29580 0.70425 0.57854
 C1094 C 0.28360 0.69006 0.59338
 C1095 C 0.30309 0.71781 0.59680
 C1096 C 0.29100 0.70352 0.61187
 C1097 C 0.31777 0.68227 0.63409
 C1098 C 0.32317 0.67687 0.65120
 C1099 C 0.28701 0.71305 0.55947
 C1100 C 0.27909 0.72096 0.54445
 H1101 H 0.32502 0.68512 0.56730
 H1102 H 0.33871 0.70946 0.60162
 H1103 H 0.30317 0.65882 0.59541
 H1104 H 0.26747 0.68447 0.59084
 H1105 H 0.30301 0.73506 0.59708
 H1106 H 0.28112 0.70885 0.62498
 C1107 C 0.31519 0.19041 1.08044
 C1108 C 0.32254 0.20387 1.09906
 C1109 C 0.31032 0.18964 1.11385
 C1110 C 0.30311 0.17603 1.09560
 C1111 C 0.29578 0.20420 1.07851
 C1112 C 0.28359 0.18997 1.09331
 C1113 C 0.30301 0.21776 1.09679
 C1114 C 0.29093 0.20343 1.11183
 C1115 C 0.31773 0.18223 1.13407
 C1116 C 0.32312 0.17682 1.15118
 C1117 C 0.28699 0.21300 1.05943
 C1118 C 0.27908 0.22092 1.04441
 H1119 H 0.32506 0.18516 1.06730
 H1120 H 0.33864 0.20950 1.10166
 H1121 H 0.30324 0.15878 1.09534
 H1122 H 0.26748 0.18434 1.09075
 H1123 H 0.30289 0.23502 1.09710
 H1124 H 0.28102 0.20872 1.12493
 C1125 C 0.81520 0.69037 1.08042
 C1126 C 0.82257 0.70383 1.09903
 C1127 C 0.81036 0.68962 1.11383
 C1128 C 0.80311 0.67601 1.09559
 C1129 C 0.79580 0.70418 1.07849
 C1130 C 0.78361 0.68996 1.09331
 C1131 C 0.80305 0.71774 1.09676
 C1132 C 0.79097 0.70342 1.11182
 C1133 C 0.81776 0.68221 1.13404
 C1134 C 0.82316 0.67681 1.15116
 C1135 C 0.78700 0.71298 1.05942
 C1136 C 0.77909 0.72090 1.04441
 H1137 H 0.82505 0.68511 1.06727
 H1138 H 0.83868 0.70945 1.10161
 H1139 H 0.80323 0.65875 1.09534
 H1140 H 0.76749 0.68434 1.09076
 H1141 H 0.80294 0.73499 1.09706
 H1142 H 0.78107 0.70873 1.12492
 C1143 C 0.78729 0.20993 0.60000
 C1144 C 0.78794 0.18670 0.60614
 C1145 C 0.81038 0.18966 0.61378
 C1146 C 0.80981 0.21279 0.60788
 C1147 C 0.79583 0.20421 0.57844
 C1148 C 0.81827 0.20718 0.58604
 C1149 C 0.79637 0.18106 0.58429
 C1150 C 0.81898 0.18388 0.59225
 C1151 C 0.81779 0.18224 0.63399
 C1152 C 0.82319 0.17684 0.65111
 C1153 C 0.78702 0.21302 0.55937
 C1154 C 0.77910 0.22093 0.54436
 H1155 H 0.77417 0.22074 0.60301
 H1156 H 0.77554 0.17820 0.61462
 H1157 H 0.81542 0.22576 0.61778
 H1158 H 0.83065 0.21570 0.57755
 H1159 H 0.79074 0.16812 0.57437
 H1160 H 0.83210 0.17307 0.58932
 C1161 C 0.69009 0.71644 0.40662
 C1162 C 0.70356 0.70894 0.38818
 C1163 C 0.68963 0.68964 0.38618
 C1164 C 0.67601 0.69703 0.40436
 C1165 C 0.70419 0.70420 0.42152
 C1166 C 0.69026 0.68489 0.41960
 C1167 C 0.71775 0.69680 0.40330
 C1168 C 0.70372 0.67737 0.40105
 C1169 C 0.68222 0.68224 0.36596
 C1170 C 0.67681 0.67685 0.34885
 C1171 C 0.71299 0.71299 0.44059
 C1172 C 0.72091 0.72091 0.45560
 H1173 H 0.68458 0.73260 0.40912
 H1174 H 0.70897 0.71877 0.37506
 H1175 H 0.65876 0.69703 0.40456
 H1176 H 0.68489 0.67510 0.43276
 H1177 H 0.73501 0.69680 0.40305
 H1178 H 0.70923 0.66122 0.39853
 C1179 C 0.70151 0.18104 -0.08342
 C1180 C 0.67965 0.18579 -0.09249
 C1181 C 0.68966 0.18972 -0.11382
 C1182 C 0.71135 0.18483 -0.10509
 C1183 C 0.70420 0.20425 -0.07847
 C1184 C 0.71415 0.20813 -0.09984
 C1185 C 0.68251 0.20915 -0.08718
 C1186 C 0.69237 0.21291 -0.10881
 C1187 C 0.68225 0.18231 -0.13404
 C1188 C 0.67685 0.17691 -0.15115
 C1189 C 0.71300 0.21304 -0.05939
 C1190 C 0.72091 0.22095 -0.04437
 H1191 H 0.70536 0.16804 -0.07275
 H1192 H 0.66537 0.17652 -0.08972
 H1193 H 0.72313 0.17476 -0.11267
 H1194 H 0.72842 0.21740 -0.10268
 H1195 H 0.67074 0.21924 -0.07960
 H1196 H 0.68855 0.22594 -0.11946
 C1197 C 0.21011 0.68306 -0.08790
 C1198 C 0.18683 0.67896 -0.09272
 C1199 C 0.18963 0.68968 -0.11388
 C1200 C 0.21274 0.69363 -0.10936
 C1201 C 0.20419 0.70422 -0.07854
 C1202 C 0.20694 0.71487 -0.09974
 C1203 C 0.18106 0.70029 -0.08300
 C1204 C 0.18372 0.71083 -0.10450
 C1205 C 0.18221 0.68227 -0.13409
 C1206 C 0.17681 0.67686 -0.15121
 C1207 C 0.21299 0.71301 -0.05947
 C1208 C 0.22091 0.72092 -0.04445
 H1209 H 0.22106 0.67173 -0.08086
 H1210 H 0.17847 0.66410 -0.09007
 H1211 H 0.22571 0.69082 -0.12040
 H1212 H 0.21530 0.72972 -0.10245
 H1213 H 0.16813 0.70312 -0.07193
 H1214 H 0.17279 0.72218 -0.11155
 C1215 C 0.21018 0.18304 0.41212
 C1216 C 0.18691 0.17891 0.40731
 C1217 C 0.18968 0.18964 0.38615
 C1218 C 0.21280 0.19362 0.39067
 C1219 C 0.20423 0.20418 0.42150
 C1220 C 0.20696 0.21485 0.40030
 C1221 C 0.18110 0.20022 0.41704
 C1222 C 0.18375 0.21078 0.39554
 C1223 C 0.18228 0.18223 0.36593
 C1224 C 0.17688 0.17683 0.34882
 C1225 C 0.21302 0.21298 0.44057
 C1226 C 0.22093 0.22090 0.45559
 H1227 H 0.22114 0.17173 0.41916
 H1228 H 0.17857 0.16404 0.40994
 H1229 H 0.22576 0.19084 0.37962
 H1230 H 0.21530 0.22972 0.39760
 H1231 H 0.16817 0.20303 0.42811
 H1232 H 0.17280 0.22211 0.38850
 C1233 C 0.29411 0.41459 0.68143
 C1234 C 0.31724 0.40774 0.68207
 C1235 C 0.31034 0.38617 0.68968
 C1236 C 0.28738 0.39271 0.68890
 C1237 C 0.29581 0.42152 0.70422
 C1238 C 0.28896 0.39992 0.71177
 C1239 C 0.31877 0.41502 0.70502
 C1240 C 0.31201 0.39314 0.71246
 C1241 C 0.31774 0.36596 0.68227
 C1242 C 0.32314 0.34884 0.67687
 C1243 C 0.28701 0.44060 0.71302
 C1244 C 0.27910 0.45561 0.72093
 H1245 H 0.28666 0.42363 0.66876
 H1246 H 0.32896 0.41070 0.66976
 H1247 H 0.27455 0.38333 0.68219
 H1248 H 0.27725 0.39689 0.72407
 H1249 H 0.33159 0.42443 0.71175
 H1250 H 0.31945 0.38411 0.72515
 C1251 C 0.29379 0.91440 0.18146
 C1252 C 0.31698 0.90772 0.18177
 C1253 C 0.31035 0.88616 0.18963
 C1254 C 0.28734 0.89253 0.18917
 C1255 C 0.29580 0.92150 0.20418
 C1256 C 0.28924 0.89990 0.21197
 C1257 C 0.31883 0.91516 0.20465
 C1258 C 0.31234 0.89328 0.21234
 C1259 C 0.31776 0.86595 0.18222
 C1260 C 0.32316 0.84883 0.17682
 C1261 C 0.28700 0.94056 0.21298
 C1262 C 0.27909 0.95557 0.22090
 H1263 H 0.28607 0.92332 0.16886
 H1264 H 0.32848 0.91068 0.16926
 H1265 H 0.27446 0.88301 0.18273
 H1266 H 0.27774 0.89686 0.22448
 H1267 H 0.33168 0.92470 0.21111
 H1268 H 0.32004 0.88438 0.22496
 C1269 C 0.80813 0.40560 0.21717
 C1270 C 0.79476 0.38799 0.20775
 C1271 C 0.81033 0.38613 0.18974
 C1272 C 0.82385 0.40348 0.19904
 C1273 C 0.79578 0.42147 0.20428
 C1274 C 0.81136 0.41970 0.18626
 C1275 C 0.78231 0.40410 0.19497
 C1276 C 0.79798 0.40198 0.17682
 C1277 C 0.81774 0.36592 0.18233
 C1278 C 0.82314 0.34881 0.17693
 C1279 C 0.78699 0.44055 0.21307
 C1280 C 0.77908 0.45557 0.22098
 H1281 H 0.81222 0.40729 0.23385
 H1282 H 0.78799 0.37476 0.21652
 H1283 H 0.84103 0.40299 0.20062
 H1284 H 0.81809 0.43298 0.17753
 H1285 H 0.76513 0.40454 0.19339
 H1286 H 0.79390 0.40026 0.16015
 C1287 C 0.79379 0.91447 0.68150
 C1288 C 0.81697 0.90775 0.68185
 C1289 C 0.81031 0.88620 0.68968
 C1290 C 0.78730 0.89259 0.68920
 C1291 C 0.79578 0.92154 0.70423
 C1292 C 0.78917 0.89995 0.71200
 C1293 C 0.81879 0.91518 0.70474
 C1294 C 0.81227 0.89330 0.71240
 C1295 C 0.81771 0.86598 0.68227
 C1296 C 0.82310 0.84887 0.67687
 C1297 C 0.78698 0.94062 0.71303
 C1298 C 0.77908 0.95564 0.72095
 H1299 H 0.78611 0.92339 0.66890
 H1300 H 0.82849 0.91071 0.66936
 H1301 H 0.77443 0.88310 0.68273
 H1302 H 0.77765 0.89691 0.72449
 H1303 H 0.83164 0.92470 0.71122
 H1304 H 0.81994 0.88439 0.72503
 C1305 C 0.68290 0.58767 0.70990
 C1306 C 0.69330 0.60917 0.71283
 C1307 C 0.68967 0.61382 0.68969
 C1308 C 0.67912 0.59262 0.68660
 C1309 C 0.70420 0.57847 0.70423
 C1310 C 0.70058 0.58306 0.68107
 C1311 C 0.71468 0.59971 0.70727
 C1312 C 0.71096 0.60461 0.68403
 C1313 C 0.68226 0.63404 0.68228
 C1314 C 0.67687 0.65116 0.67689
 C1315 C 0.71299 0.55940 0.71302
 C1316 C 0.72090 0.54438 0.72093
 H1317 H 0.67145 0.58049 0.72063
 H1318 H 0.69024 0.62011 0.72582
 H1319 H 0.66440 0.58995 0.67800
 H1320 H 0.70367 0.57210 0.66811
 H1321 H 0.72940 0.60245 0.71587
 H1322 H 0.72242 0.61179 0.67331
 C1323 C 0.71340 0.09028 0.18558
 C1324 C 0.69111 0.09368 0.17706
 C1325 C 0.68966 0.11388 0.18971
 C1326 C 0.71181 0.11077 0.19809
 C1327 C 0.70422 0.07853 0.20424
 C1328 C 0.70274 0.09877 0.21683
 C1329 C 0.68205 0.08157 0.19588
 C1330 C 0.68048 0.10213 0.20837
 C1331 C 0.68225 0.13410 0.18231
 C1332 C 0.67685 0.15121 0.17692
 C1333 C 0.71301 0.05946 0.21302
 C1334 C 0.72093 0.04443 0.22093
 H1335 H 0.72703 0.08520 0.17630
 H1336 H 0.68622 0.09182 0.16061
 H1337 H 0.72398 0.12297 0.19893
 H1338 H 0.70762 0.10069 0.23327
 H1339 H 0.66992 0.06933 0.19507
 H1340 H 0.66686 0.10723 0.21766
 C1341 C 0.21664 0.59369 0.19055
 C1342 C 0.19754 0.59589 0.17603
 C1343 C 0.18964 0.61386 0.18964
 C1344 C 0.20862 0.61192 0.20402
 C1345 C 0.20421 0.57853 0.20420
 C1346 C 0.19630 0.59652 0.21776
 C1347 C 0.18522 0.58039 0.18982
 C1348 C 0.17719 0.59872 0.20328
 C1349 C 0.18223 0.63407 0.18223
 C1350 C 0.17683 0.65118 0.17683
 C1351 C 0.21301 0.55946 0.21300
 C1352 C 0.22092 0.54444 0.22091
 H1353 H 0.23295 0.59142 0.18541
 H1354 H 0.19796 0.59588 0.15878
 H1355 H 0.21817 0.62507 0.20979
 H1356 H 0.19588 0.59660 0.23501
 H1357 H 0.17571 0.56719 0.18408
 H1358 H 0.16088 0.60102 0.20843
 C1359 C 0.18268 0.08745 0.70955
 C1360 C 0.19283 0.10902 0.71287
 C1361 C 0.18963 0.11383 0.68969
 C1362 C 0.17934 0.09257 0.68621
 C1363 C 0.20417 0.07849 0.70424
 C1364 C 0.20099 0.08325 0.68105
 C1365 C 0.21440 0.09979 0.70768
 C1366 C 0.21112 0.10485 0.68440
 C1367 C 0.18222 0.13405 0.68228
 C1368 C 0.17683 0.15116 0.67688
 C1369 C 0.21297 0.05942 0.71304
 C1370 C 0.22088 0.04440 0.72095
 H1371 H 0.17108 0.08008 0.71998
 H1372 H 0.18940 0.11982 0.72588
 H1373 H 0.16482 0.08984 0.67728
 H1374 H 0.20445 0.07242 0.66807
 H1375 H 0.22891 0.10259 0.71660
 H1376 H 0.22274 0.11222 0.67399
 C1377 C 0.29312 0.59970 0.28513
 C1378 C 0.28722 0.60937 0.30632
 C1379 C 0.31032 0.61386 0.31038
 C1380 C 0.31632 0.60443 0.28927
 C1381 C 0.29577 0.57852 0.29584
 C1382 C 0.31889 0.58294 0.29987
 C1383 C 0.28976 0.58793 0.31695
 C1384 C 0.31302 0.59271 0.32115
 C1385 C 0.31773 0.63407 0.31779
 C1386 C 0.32313 0.65119 0.32318
 C1387 C 0.28698 0.55945 0.28703
 C1388 C 0.27906 0.54443 0.27911
 H1389 H 0.28484 0.60240 0.27022
 H1390 H 0.27426 0.62044 0.30904
 H1391 H 0.32733 0.61143 0.27797
 H1392 H 0.33182 0.57185 0.29713
 H1393 H 0.27874 0.58093 0.32823
 H1394 H 0.32131 0.59009 0.33606
 C1395 C 0.29553 0.08471 0.81886
 C1396 C 0.31836 0.09225 0.81682
 C1397 C 0.31036 0.11381 0.81035
 C1398 C 0.28770 0.10659 0.81253
 C1399 C 0.29581 0.07847 0.79580
 C1400 C 0.28787 0.10007 0.78940
 C1401 C 0.31848 0.08566 0.79360
 C1402 C 0.31062 0.10753 0.78731
 C1403 C 0.31778 0.13402 0.81776
 C1404 C 0.32318 0.15113 0.82316
 C1405 C 0.28701 0.05940 0.78700
 C1406 C 0.27909 0.04439 0.77909
 H1407 H 0.28923 0.07510 0.83173
 H1408 H 0.33100 0.08929 0.82819
 H1409 H 0.27512 0.11540 0.82039
 H1410 H 0.27524 0.10310 0.77803
 H1411 H 0.33104 0.07683 0.78573
 H1412 H 0.31690 0.11712 0.77441
 C1413 C 0.78316 0.59869 0.79735
 C1414 C 0.79172 0.60202 0.81959
 C1415 C 0.81031 0.61382 0.81034
 C1416 C 0.80184 0.61073 0.78822
 C1417 C 0.79578 0.57847 0.79579
 C1418 C 0.81437 0.59026 0.78654
 C1419 C 0.80423 0.58148 0.81792
 C1420 C 0.82299 0.59363 0.80880
 C1421 C 0.81771 0.63403 0.81774
 C1422 C 0.82310 0.65115 0.82314
 C1423 C 0.78699 0.55939 0.78700
 C1424 C 0.77908 0.54437 0.77909
 H1425 H 0.76669 0.60058 0.79255
 H1426 H 0.78248 0.60708 0.83326
 H1427 H 0.80093 0.62295 0.77607
 H1428 H 0.82360 0.58522 0.77286
 H1429 H 0.80512 0.56923 0.83004
 H1430 H 0.83946 0.59180 0.81361
 C1431 C 0.81789 0.08670 0.29173
 C1432 C 0.80863 0.10844 0.28713
 C1433 C 0.81038 0.11384 0.31033
 C1434 C 0.81978 0.09241 0.31510
 C1435 C 0.79583 0.07849 0.29579
 C1436 C 0.79756 0.08384 0.31900
 C1437 C 0.78649 0.09996 0.29107
 C1438 C 0.78833 0.10561 0.31436
 C1439 C 0.81779 0.13405 0.31773
 C1440 C 0.82319 0.15117 0.32313
 C1441 C 0.78703 0.05942 0.28699
 C1442 C 0.77911 0.04441 0.27908
 H1443 H 0.82995 0.07871 0.28233
 H1444 H 0.81326 0.11876 0.27409
 H1445 H 0.83357 0.08955 0.32507
 H1446 H 0.79291 0.07350 0.33201
 H1447 H 0.77271 0.10290 0.28110
 H1448 H 0.77625 0.11359 0.32375
 C1449 C 0.70683 0.41409 0.31837
 C1450 C 0.68356 0.40776 0.31878
 C1451 C 0.68956 0.38622 0.31038
 C1452 C 0.71267 0.39224 0.31011
 C1453 C 0.70413 0.42156 0.29584
 C1454 C 0.71009 0.39998 0.28750
 C1455 C 0.68101 0.41558 0.29609
 C1456 C 0.68688 0.39372 0.28786
 C1457 C 0.68214 0.36601 0.31778
 C1458 C 0.67674 0.34890 0.32318
 C1459 C 0.71295 0.44062 0.28704
 C1460 C 0.72088 0.45563 0.27912
 H1461 H 0.71513 0.42269 0.33081
 H1462 H 0.67255 0.41071 0.33174
 H1463 H 0.72562 0.38244 0.31594
 H1464 H 0.72109 0.39696 0.27455
 H1465 H 0.66809 0.42540 0.29023
 H1466 H 0.67860 0.38513 0.27539
 C1467 C 0.68999 0.90676 0.78365
 C1468 C 0.70346 0.88825 0.79102
 C1469 C 0.68964 0.88624 0.81040
 C1470 C 0.67603 0.90448 0.80316
 C1471 C 0.70421 0.92157 0.79585
 C1472 C 0.69040 0.91965 0.81525
 C1473 C 0.71777 0.90330 0.80311
 C1474 C 0.70386 0.90104 0.82262
 C1475 C 0.68223 0.86603 0.81781
 C1476 C 0.67683 0.84891 0.82320
 C1477 C 0.71301 0.94064 0.78706
 C1478 C 0.72092 0.95566 0.77914
 H1479 H 0.68438 0.90931 0.76754
 H1480 H 0.70876 0.87515 0.78112
 H1481 H 0.65878 0.90472 0.80327
 H1482 H 0.68513 0.93279 0.82510
 H1483 H 0.73502 0.90300 0.80300
 H1484 H 0.70947 0.89846 0.83874
 C1485 C 0.20668 0.41417 0.81839
 C1486 C 0.18343 0.40771 0.81855
 C1487 C 0.18966 0.38617 0.81033
 C1488 C 0.21274 0.39231 0.81031
 C1489 C 0.20421 0.42151 0.79579
 C1490 C 0.21039 0.39993 0.78763
 C1491 C 0.18112 0.41541 0.79579
 C1492 C 0.18721 0.39354 0.78774
 C1493 C 0.18225 0.36595 0.81773
 C1494 C 0.17685 0.34884 0.82313
 C1495 C 0.21301 0.44058 0.78700
 C1496 C 0.22093 0.45560 0.77909
 H1497 H 0.21478 0.42288 0.83089
 H1498 H 0.17225 0.41066 0.83136
 H1499 H 0.22567 0.38261 0.81635
 H1500 H 0.22156 0.39691 0.77483
 H1501 H 0.16822 0.42513 0.78973
 H1502 H 0.17913 0.38485 0.77521
 C1503 C 0.19020 0.90651 0.28349
 C1504 C 0.20367 0.88810 0.29108
 C1505 C 0.18966 0.88610 0.31032
 C1506 C 0.17605 0.90424 0.30285
 C1507 C 0.20421 0.92144 0.29578
 C1508 C 0.19020 0.91953 0.31503
 C1509 C 0.21778 0.90327 0.30326
 C1510 C 0.20367 0.90102 0.32263
 C1511 C 0.18226 0.86589 0.31772
 C1512 C 0.17686 0.84877 0.32312
 C1513 C 0.21301 0.94052 0.28699
 C1514 C 0.22092 0.95554 0.27908
 H1515 H 0.18475 0.90896 0.26730
 H1516 H 0.20915 0.87498 0.28130
 H1517 H 0.15879 0.90441 0.30278
 H1518 H 0.18477 0.93269 0.32477
 H1519 H 0.23504 0.90306 0.30334
 H1520 H 0.20913 0.89853 0.33882
 C1521 C 0.40553 0.30804 0.71714
 C1522 C 0.40342 0.32386 0.69910
 C1523 C 0.38612 0.31035 0.68968
 C1524 C 0.38797 0.29468 0.70760
 C1525 C 0.42146 0.29579 0.70422
 C1526 C 0.40413 0.28233 0.69480
 C1527 C 0.41970 0.31147 0.68629
 C1528 C 0.40202 0.29811 0.67673
 C1529 C 0.36591 0.31777 0.68227
 C1530 C 0.34879 0.32317 0.67688
 C1531 C 0.44053 0.28699 0.71302
 C1532 C 0.45555 0.27908 0.72093
 H1533 H 0.40716 0.31203 0.73385
 H1534 H 0.40289 0.34102 0.70077
 H1535 H 0.37473 0.28784 0.71630
 H1536 H 0.40461 0.26517 0.69311
 H1537 H 0.43298 0.31827 0.67763
 H1538 H 0.40035 0.29412 0.66002
 C1539 C 0.41428 0.79357 0.18154
 C1540 C 0.39241 0.78732 0.18944
 C1541 C 0.38615 0.81037 0.18964
 C1542 C 0.40771 0.81679 0.18159
 C1543 C 0.42149 0.79582 0.20419
 C1544 C 0.41528 0.81888 0.20441
 C1545 C 0.39990 0.78946 0.21218
 C1546 C 0.39340 0.81260 0.21228
 C1547 C 0.36594 0.81778 0.18222
 C1548 C 0.34883 0.82317 0.17682
 C1549 C 0.44056 0.78702 0.21300
 C1550 C 0.45557 0.77911 0.22092
 H1551 H 0.42309 0.78565 0.16899
 H1552 H 0.38280 0.77442 0.18321
 H1553 H 0.41067 0.82812 0.16892
 H1554 H 0.42491 0.83176 0.21067
 H1555 H 0.39686 0.77814 0.22484
 H1556 H 0.38460 0.82051 0.22485
 C1557 C 0.91457 0.29415 0.18146
 C1558 C 0.89269 0.28740 0.18891
 C1559 C 0.88614 0.31035 0.18973
 C1560 C 0.90771 0.31727 0.18213
 C1561 C 0.92150 0.29582 0.20426
 C1562 C 0.91499 0.31878 0.20509
 C1563 C 0.89990 0.28895 0.21179
 C1564 C 0.89310 0.31200 0.21251
 C1565 C 0.86593 0.31776 0.18232
 C1566 C 0.84881 0.32315 0.17693
 C1567 C 0.94057 0.28702 0.21305
 C1568 C 0.95560 0.27911 0.22096
 H1569 H 0.92362 0.28672 0.16879
 H1570 H 0.88332 0.27457 0.18219
 H1571 H 0.91067 0.32901 0.16984
 H1572 H 0.92438 0.33158 0.21184
 H1573 H 0.89686 0.27722 0.22408
 H1574 H 0.88407 0.31941 0.22521
 C1575 C 0.91449 0.79413 0.68144
 C1576 C 0.89261 0.78742 0.68891
 C1577 C 0.88609 0.81038 0.68969
 C1578 C 0.90765 0.81726 0.68208
 C1579 C 0.92143 0.79583 0.70423
 C1580 C 0.91494 0.81880 0.70503
 C1581 C 0.89982 0.78900 0.71179
 C1582 C 0.89305 0.81205 0.71247
 C1583 C 0.86587 0.81779 0.68228
 C1584 C 0.84876 0.82320 0.67688
 C1585 C 0.94050 0.78703 0.71304
 C1586 C 0.95551 0.77911 0.72095
 H1587 H 0.92353 0.78667 0.66878
 H1588 H 0.88322 0.77459 0.68221
 H1589 H 0.91062 0.82898 0.66977
 H1590 H 0.92435 0.83161 0.71175
 H1591 H 0.89677 0.77729 0.72409
 H1592 H 0.88403 0.81950 0.72516
 C1593 C 0.59683 0.28230 0.30273
 C1594 C 0.61171 0.29690 0.29077
 C1595 C 0.61375 0.31042 0.31036
 C1596 C 0.59913 0.29591 0.32245
 C1597 C 0.57842 0.29585 0.29580
 C1598 C 0.58038 0.30936 0.31540
 C1599 C 0.59307 0.31036 0.28374
 C1600 C 0.59538 0.32402 0.30345
 C1601 C 0.63396 0.31783 0.31777
 C1602 C 0.65108 0.32324 0.32317
 C1603 C 0.55936 0.28704 0.28700
 C1604 C 0.54434 0.27912 0.27909
 H1605 H 0.59725 0.26505 0.30234
 H1606 H 0.62479 0.29185 0.28071
 H1607 H 0.60185 0.29006 0.33845
 H1608 H 0.56726 0.31438 0.32542
 H1609 H 0.59038 0.31621 0.26773
 H1610 H 0.59501 0.34126 0.30384
 C1611 C 0.58896 0.81597 0.78828
 C1612 C 0.59305 0.82212 0.81124
 C1613 C 0.61385 0.81041 0.81037
 C1614 C 0.61005 0.80441 0.78756
 C1615 C 0.57852 0.79585 0.79580
 C1616 C 0.59936 0.78420 0.79496
 C1617 C 0.58226 0.80183 0.81862
 C1618 C 0.60341 0.79029 0.81787
 C1619 C 0.63406 0.81784 0.81778
 C1620 C 0.65117 0.82324 0.82319
 C1621 C 0.55946 0.78704 0.78700
 C1622 C 0.54444 0.77912 0.77908
 H1623 H 0.58280 0.82644 0.77602
 H1624 H 0.59070 0.83781 0.81803
 H1625 H 0.62167 0.80554 0.77486
 H1626 H 0.60177 0.76852 0.78818
 H1627 H 0.57060 0.80068 0.83129
 H1628 H 0.60957 0.77982 0.83012
 C1629 C 0.08658 0.31795 0.79198
 C1630 C 0.09240 0.31957 0.81534
 C1631 C 0.11386 0.31035 0.81033
 C1632 C 0.10834 0.30887 0.78714
 C1633 C 0.07851 0.29580 0.79579
 C1634 C 0.10001 0.28664 0.79084
 C1635 C 0.08398 0.29726 0.81900
 C1636 C 0.10577 0.28821 0.81413
 C1637 C 0.13407 0.31777 0.81773
 C1638 C 0.15119 0.32317 0.82313
 C1639 C 0.05944 0.28700 0.78700
 C1640 C 0.04442 0.27909 0.77909
 H1641 H 0.07847 0.33009 0.78278
 H1642 H 0.08952 0.33321 0.82551
 H1643 H 0.11856 0.31372 0.77411
 H1644 H 0.10296 0.27301 0.78067
 H1645 H 0.07374 0.29238 0.83200
 H1646 H 0.11387 0.27605 0.82331
 C1647 C 0.08695 0.79134 0.31770
 C1648 C 0.10864 0.78711 0.30816
 C1649 C 0.11386 0.81031 0.31033
 C1650 C 0.09247 0.81471 0.32001
 C1651 C 0.07851 0.79577 0.29580
 C1652 C 0.08369 0.81898 0.29794
 C1653 C 0.09994 0.79141 0.28618
 C1654 C 0.10541 0.81471 0.28843
 C1655 C 0.13408 0.81771 0.31773
 C1656 C 0.15119 0.82311 0.32313
 C1657 C 0.05944 0.78698 0.28700
 C1658 C 0.04441 0.77907 0.27909
 H1659 H 0.07914 0.78164 0.32964
 H1660 H 0.11910 0.77407 0.31244
 H1661 H 0.08965 0.82439 0.33401
 H1662 H 0.07320 0.83199 0.29364
 H1663 H 0.10283 0.78174 0.27218
 H1664 H 0.11321 0.82440 0.27647
 C1665 C 0.59613 0.69535 0.71776
 C1666 C 0.59826 0.67688 0.70247
 C1667 C 0.61389 0.68965 0.68969
 C1668 C 0.61201 0.70798 0.70488
 C1669 C 0.57855 0.70421 0.70423
 C1670 C 0.59420 0.71695 0.69146
 C1671 C 0.58034 0.68587 0.68904
 C1672 C 0.59634 0.69850 0.67612
 C1673 C 0.63410 0.68224 0.68229
 C1674 C 0.65122 0.67683 0.67689
 C1675 C 0.55948 0.71301 0.71302
 C1676 C 0.54446 0.72093 0.72093
 H1677 H 0.59585 0.69415 0.73497
 H1678 H 0.60016 0.66032 0.70690
 H1679 H 0.62523 0.71701 0.71134
 H1680 H 0.59233 0.73352 0.68702
 H1681 H 0.56708 0.67688 0.68263
 H1682 H 0.59667 0.69970 0.65891
 C1683 C 0.58247 0.18128 0.19893
 C1684 C 0.59293 0.18817 0.17829
 C1685 C 0.61385 0.18968 0.18972
 C1686 C 0.60374 0.18267 0.21019
 C1687 C 0.57850 0.20423 0.20425
 C1688 C 0.59945 0.20570 0.21562
 C1689 C 0.58860 0.21125 0.18378
 C1690 C 0.60981 0.21260 0.19506
 C1691 C 0.63407 0.18227 0.18232
 C1692 C 0.65118 0.17687 0.17692
 C1693 C 0.55942 0.21302 0.21304
 C1694 C 0.54439 0.22093 0.22094
 H1695 H 0.57100 0.16851 0.20062
 H1696 H 0.59050 0.18086 0.16285
 H1697 H 0.61018 0.17084 0.22098
 H1698 H 0.60196 0.21300 0.23106
 H1699 H 0.58216 0.22309 0.17301
 H1700 H 0.62125 0.22542 0.19340
 C1701 C 0.08502 0.70508 0.18124
 C1702 C 0.10691 0.71245 0.18805
 C1703 C 0.11383 0.68966 0.18965
 C1704 C 0.09226 0.68211 0.18269
 C1705 C 0.07849 0.70420 0.20420
 C1706 C 0.08538 0.68139 0.20581
 C1707 C 0.10010 0.71169 0.21109
 C1708 C 0.10727 0.68880 0.21259
 C1709 C 0.13405 0.68224 0.18223
 C1710 C 0.15116 0.67684 0.17683
 C1711 C 0.05942 0.71300 0.21300
 C1712 C 0.04440 0.72091 0.22091
 H1713 H 0.07564 0.71187 0.16844
 H1714 H 0.11597 0.72515 0.18068
 H1715 H 0.08929 0.66985 0.17092
 H1716 H 0.07631 0.66872 0.21321
 H1717 H 0.10315 0.72394 0.22286
 H1718 H 0.11663 0.68203 0.22542
 C1719 C 0.08622 0.20737 0.68183
 C1720 C 0.10803 0.21280 0.69045
 C1721 C 0.11384 0.18965 0.68968
 C1722 C 0.09233 0.18405 0.68092
 C1723 C 0.07850 0.20421 0.70421
 C1724 C 0.08426 0.18104 0.70347
 C1725 C 0.10004 0.20975 0.71291
 C1726 C 0.10609 0.18650 0.71205
 C1727 C 0.13405 0.18224 0.68227
 C1728 C 0.15117 0.17683 0.67688
 C1729 C 0.05943 0.21301 0.71301
 C1730 C 0.04441 0.22092 0.72092
 H1731 H 0.07782 0.21605 0.66950
 H1732 H 0.11801 0.22579 0.68502
 H1733 H 0.08941 0.17339 0.66768
 H1734 H 0.07426 0.16808 0.70891
 H1735 H 0.10304 0.22041 0.72615
 H1736 H 0.11448 0.17785 0.72440
 C1737 C 0.41934 0.69169 0.31604
 C1738 C 0.40018 0.70508 0.32198
 C1739 C 0.38612 0.68966 0.31036
 C1740 C 0.40491 0.67612 0.30455
 C1741 C 0.42145 0.70422 0.29581
 C1742 C 0.40738 0.68880 0.28421
 C1743 C 0.40262 0.71771 0.30163
 C1744 C 0.38831 0.70219 0.29015
 C1745 C 0.36590 0.68225 0.31777
 C1746 C 0.34879 0.67685 0.32317
 C1747 C 0.44053 0.71302 0.28701
 C1748 C 0.45554 0.72094 0.27910
 H1749 H 0.43233 0.68748 0.32658
 H1750 H 0.39699 0.71169 0.33760
 H1751 H 0.40561 0.65893 0.30584
 H1752 H 0.41054 0.68219 0.26858
 H1753 H 0.40187 0.73490 0.30035
 H1754 H 0.37536 0.70644 0.27956
 C1755 C 0.41945 0.19131 0.81584
 C1756 C 0.40042 0.20472 0.82215
 C1757 C 0.38617 0.18960 0.81037
 C1758 C 0.40483 0.17604 0.80419
 C1759 C 0.42151 0.20417 0.79582
 C1760 C 0.40724 0.18905 0.78405
 C1761 C 0.40281 0.21768 0.80201
 C1762 C 0.38832 0.20247 0.79036
 C1763 C 0.36596 0.18219 0.81777
 C1764 C 0.34885 0.17679 0.82317
 C1765 C 0.44057 0.21298 0.78702
 C1766 C 0.45559 0.22090 0.77911
 H1767 H 0.43249 0.18682 0.82621
 H1768 H 0.39738 0.21108 0.83791
 H1769 H 0.40542 0.15882 0.80518
 H1770 H 0.41025 0.18270 0.76829
 H1771 H 0.40216 0.23490 0.80103
 H1772 H 0.37532 0.20699 0.77994
 C1773 C 0.89988 0.70979 0.78715
 C1774 C 0.89380 0.68655 0.78795
 C1775 C 0.88609 0.68964 0.81034
 C1776 C 0.89192 0.71278 0.80963
 C1777 C 0.92143 0.70419 0.79580
 C1778 C 0.91374 0.70731 0.81820
 C1779 C 0.91564 0.68103 0.79649
 C1780 C 0.90760 0.68399 0.81905
 C1781 C 0.86587 0.68222 0.81774
 C1782 C 0.84876 0.67682 0.82314
 C1783 C 0.94050 0.71300 0.78701
 C1784 C 0.95552 0.72092 0.77910
 H1785 H 0.89688 0.72049 0.77394
 H1786 H 0.88540 0.67793 0.77558
 H1787 H 0.88196 0.72577 0.81510
 H1788 H 0.92216 0.71594 0.83054
 H1789 H 0.92563 0.66808 0.79100
 H1790 H 0.91052 0.67329 0.83227
 C1791 C 0.89998 0.20980 0.28716
 C1792 C 0.89390 0.18656 0.28795
 C1793 C 0.88618 0.18964 0.31034
 C1794 C 0.89202 0.21279 0.30964
 C1795 C 0.92153 0.20420 0.29581
 C1796 C 0.91384 0.20731 0.31821
 C1797 C 0.91574 0.18104 0.29649
 C1798 C 0.90769 0.18399 0.31905
 C1799 C 0.86597 0.18223 0.31774
 C1800 C 0.84885 0.17683 0.32313
 C1801 C 0.94060 0.21301 0.28702
 C1802 C 0.95562 0.22093 0.27911
 H1803 H 0.89699 0.22051 0.27396
 H1804 H 0.88549 0.17795 0.27558
 H1805 H 0.88206 0.22577 0.31512
 H1806 H 0.92226 0.21593 0.33056
 H1807 H 0.92572 0.16809 0.29099
 H1808 H 0.91061 0.17328 0.33226
 C1809 C 0.31373 0.31143 0.58031
 C1810 C 0.30094 0.32387 0.59656
 C1811 C 0.31031 0.31036 0.61389
 C1812 C 0.32324 0.29807 0.59801
 C1813 C 0.29576 0.29580 0.57855
 C1814 C 0.30514 0.28233 0.59591
 C1815 C 0.28286 0.30809 0.59446
 C1816 C 0.29235 0.29473 0.61205
 C1817 C 0.31772 0.31777 0.63410
 C1818 C 0.32312 0.32317 0.65122
 C1819 C 0.28697 0.28700 0.55948
 C1820 C 0.27906 0.27908 0.54446
 H1821 H 0.32242 0.31820 0.56703
 H1822 H 0.29931 0.34104 0.59707
 H1823 H 0.33993 0.29404 0.59970
 H1824 H 0.30678 0.26516 0.59545
 H1825 H 0.26617 0.31213 0.59280
 H1826 H 0.28362 0.28793 0.62529
 C1827 C 0.28224 0.80388 0.09641
 C1828 C 0.29581 0.79150 0.11190
 C1829 C 0.31035 0.81035 0.11383
 C1830 C 0.29688 0.82287 0.09859
 C1831 C 0.29580 0.79579 0.07850
 C1832 C 0.31034 0.81465 0.08034
 C1833 C 0.30927 0.78329 0.09375
 C1834 C 0.32396 0.80226 0.09594
 C1835 C 0.31776 0.81776 0.13404
 C1836 C 0.32316 0.82317 0.15116
 C1837 C 0.28700 0.78699 0.05942
 C1838 C 0.27909 0.77907 0.04441
 H1839 H 0.26499 0.80446 0.09642
 H1840 H 0.28991 0.78205 0.12508
 H1841 H 0.29187 0.83923 0.10082
 H1842 H 0.31621 0.82406 0.06712
 H1843 H 0.31428 0.76693 0.09156
 H1844 H 0.34120 0.80169 0.09599
 C1845 C 0.78806 0.28916 0.10018
 C1846 C 0.81088 0.28735 0.10752
 C1847 C 0.81034 0.31034 0.11393
 C1848 C 0.78761 0.31225 0.10685
 C1849 C 0.79580 0.29580 0.07858
 C1850 C 0.79523 0.31881 0.08496
 C1851 C 0.81854 0.29388 0.08564
 C1852 C 0.81813 0.31704 0.09237
 C1853 C 0.81774 0.31775 0.13415
 C1854 C 0.82314 0.32315 0.15127
 C1855 C 0.78700 0.28701 0.05951
 C1856 C 0.77909 0.27910 0.04449
 H1857 H 0.77561 0.27760 0.10322
 H1858 H 0.81739 0.27448 0.11700
 H1859 H 0.77497 0.31987 0.11578
 H1860 H 0.78870 0.33165 0.07546
 H1861 H 0.83116 0.28623 0.07669
 H1862 H 0.83059 0.32861 0.08941
 C1863 C 0.78787 0.78935 0.60014
 C1864 C 0.81064 0.78735 0.60757
 C1865 C 0.81029 0.81038 0.61389
 C1866 C 0.78762 0.81247 0.60669
 C1867 C 0.79576 0.79582 0.57854
 C1868 C 0.79539 0.81886 0.58481
 C1869 C 0.81845 0.79370 0.58570
 C1870 C 0.81824 0.81690 0.59233
 C1871 C 0.81770 0.81779 0.63410
 C1872 C 0.82310 0.82320 0.65121
 C1873 C 0.78697 0.78702 0.55947
 C1874 C 0.77906 0.77910 0.54445
 H1875 H 0.77529 0.77793 0.60318
 H1876 H 0.81698 0.77446 0.61714
 H1877 H 0.77501 0.82027 0.61554
 H1878 H 0.78903 0.83172 0.57523
 H1879 H 0.83103 0.78589 0.57684
 H1880 H 0.83083 0.82833 0.58936
 C1881 C 0.28834 0.71115 0.39991
 C1882 C 0.31123 0.71262 0.39275
 C1883 C 0.31033 0.68968 0.38617
 C1884 C 0.28753 0.68812 0.39309
 C1885 C 0.29580 0.70423 0.42152
 C1886 C 0.29488 0.68128 0.41498
 C1887 C 0.31862 0.70581 0.41463
 C1888 C 0.31786 0.68270 0.40774
 C1889 C 0.31774 0.68226 0.36595
 C1890 C 0.32313 0.67686 0.34884
 C1891 C 0.28701 0.71304 0.44059
 C1892 C 0.27909 0.72095 0.45560
 H1893 H 0.27611 0.72295 0.39686
 H1894 H 0.31803 0.72543 0.38340
 H1895 H 0.27482 0.68077 0.38402
 H1896 H 0.28806 0.66849 0.42434
 H1897 H 0.33130 0.71317 0.42372
 H1898 H 0.33009 0.67090 0.41071
 C1899 C 0.31370 0.18843 0.91974
 C1900 C 0.30087 0.17612 0.90342
 C1901 C 0.31038 0.18960 0.88616
 C1902 C 0.32334 0.20177 0.90210
 C1903 C 0.29582 0.20417 0.92149
 C1904 C 0.30534 0.21762 0.90420
 C1905 C 0.28289 0.19200 0.90552
 C1906 C 0.29251 0.20535 0.88799
 C1907 C 0.31778 0.18219 0.86594
 C1908 C 0.32318 0.17679 0.84883
 C1909 C 0.28703 0.21298 0.94056
 C1910 C 0.27911 0.22090 0.95557
 H1911 H 0.32231 0.18157 0.93303
 H1912 H 0.29913 0.15896 0.90287
 H1913 H 0.34006 0.20570 0.90047
 H1914 H 0.30709 0.23478 0.90470
 H1915 H 0.26616 0.18808 0.90712
 H1916 H 0.28386 0.21224 0.87475
 C1917 C 0.81464 0.68969 0.91961
 C1918 C 0.80225 0.67603 0.90404
 C1919 C 0.81029 0.68963 0.88613
 C1920 C 0.82281 0.70314 0.90133
 C1921 C 0.79575 0.70420 0.92147
 C1922 C 0.80380 0.71775 0.90352
 C1923 C 0.78326 0.69068 0.90624
 C1924 C 0.79142 0.70414 0.88806
 C1925 C 0.81769 0.68222 0.86591
 C1926 C 0.82309 0.67682 0.84880
 C1927 C 0.78696 0.71300 0.94054
 C1928 C 0.77906 0.72092 0.95556
 H1929 H 0.82408 0.68385 0.93282
 H1930 H 0.80171 0.65879 0.90401
 H1931 H 0.83916 0.70818 0.89908
 H1932 H 0.80435 0.73500 0.90350
 H1933 H 0.76690 0.68565 0.90846
 H1934 H 0.78193 0.71001 0.87490
 C1935 C 0.81403 0.18892 0.41966
 C1936 C 0.80135 0.17612 0.40360
 C1937 C 0.81035 0.18966 0.38610
 C1938 C 0.82316 0.20232 0.40179
 C1939 C 0.79578 0.20423 0.42143
 C1940 C 0.80479 0.21773 0.40390
 C1941 C 0.78300 0.19158 0.40572
 C1942 C 0.79211 0.20497 0.38796
 C1943 C 0.81776 0.18225 0.36589
 C1944 C 0.82317 0.17684 0.34878
 C1945 C 0.78699 0.21303 0.44050
 C1946 C 0.77907 0.22095 0.45552
 H1947 H 0.82294 0.18242 0.43293
 H1948 H 0.80004 0.15892 0.40324
 H1949 H 0.83976 0.20664 0.39994
 H1950 H 0.80611 0.23493 0.40422
 H1951 H 0.76640 0.18725 0.40753
 H1952 H 0.78316 0.21151 0.37473
 C1953 C 0.71711 0.29874 0.40164
 C1954 C 0.69935 0.28879 0.38889
 C1955 C 0.68956 0.31040 0.38616
 C1956 C 0.70724 0.32048 0.39866
 C1957 C 0.70413 0.29583 0.42148
 C1958 C 0.69436 0.31747 0.41882
 C1959 C 0.68646 0.28576 0.40897
 C1960 C 0.67652 0.30752 0.40596
 C1961 C 0.68215 0.31782 0.36595
 C1962 C 0.67674 0.32323 0.34884
 C1963 C 0.71295 0.28703 0.44055
 C1964 C 0.72087 0.27911 0.45556
 H1965 H 0.73389 0.29505 0.40005
 H1966 H 0.70133 0.27706 0.37639
 H1967 H 0.71570 0.33484 0.39420
 H1968 H 0.69241 0.32915 0.43137
 H1969 H 0.67800 0.27139 0.41342
 H1970 H 0.65974 0.31122 0.40749
 C1971 C 0.71334 0.79090 0.90002
 C1972 C 0.69110 0.78722 0.89168
 C1973 C 0.68963 0.81041 0.88618
 C1974 C 0.71179 0.81419 0.89427
 C1975 C 0.70419 0.79585 0.92152
 C1976 C 0.70275 0.81905 0.91606
 C1977 C 0.68203 0.79205 0.91345
 C1978 C 0.68042 0.81541 0.90765
 C1979 C 0.68222 0.81783 0.86597
 C1980 C 0.67682 0.82324 0.84886
 C1981 C 0.71299 0.78704 0.94058
 C1982 C 0.72091 0.77911 0.95559
 H1983 H 0.72696 0.78072 0.89705
 H1984 H 0.68623 0.77420 0.88145
 H1985 H 0.72395 0.82336 0.88617
 H1986 H 0.70763 0.83204 0.92632
 H1987 H 0.66988 0.78286 0.92157
 H1988 H 0.66679 0.82559 0.91054
 C1989 C 0.18401 0.30832 0.91934
 C1990 C 0.19549 0.32390 0.90491
 C1991 C 0.18968 0.31036 0.88611
 C1992 C 0.17807 0.29493 0.90018
 C1993 C 0.20424 0.29581 0.92145
 C1994 C 0.19842 0.28232 0.90262
 C1995 C 0.21583 0.31123 0.90737
 C1996 C 0.20989 0.29783 0.88830
 C1997 C 0.18226 0.31777 0.86590
 C1998 C 0.17686 0.32317 0.84879
 C1999 C 0.21304 0.28701 0.94052
 C2000 C 0.22096 0.27909 0.95554
 H2001 H 0.17347 0.31254 0.93234
 H2002 H 0.19419 0.34109 0.90561
 H2003 H 0.16245 0.28832 0.89699
 H2004 H 0.19971 0.26513 0.90186
 H2005 H 0.23146 0.31784 0.91053
 H2006 H 0.22047 0.29358 0.87535
 C2007 C 0.21308 0.79045 0.39996
 C2008 C 0.19069 0.78716 0.39184
 C2009 C 0.18967 0.81032 0.38613
 C2010 C 0.21196 0.81371 0.39400
 C2011 C 0.20421 0.79580 0.42148
 C2012 C 0.20320 0.81898 0.41581
 C2013 C 0.18191 0.79239 0.41364
 C2014 C 0.18074 0.81572 0.40762
 C2015 C 0.18226 0.81772 0.36591
 C2016 C 0.17686 0.82312 0.34879
 C2017 C 0.21301 0.78701 0.44056
 C2018 C 0.22092 0.77910 0.45558
 H2019 H 0.22646 0.77997 0.39698
 H2020 H 0.18548 0.77415 0.38178
 H2021 H 0.22424 0.82256 0.38571
 H2022 H 0.20844 0.83196 0.42590
 H2023 H 0.16965 0.78353 0.42194
 H2024 H 0.16735 0.82621 0.41052
 C2025 C 0.70669 0.71501 0.59970
 C2026 C 0.68351 0.71065 0.60436
 C2027 C 0.68968 0.68964 0.61390
 C2028 C 0.71276 0.69392 0.60948
 C2029 C 0.70423 0.70419 0.57855
 C2030 C 0.71041 0.68318 0.58807
 C2031 C 0.68113 0.69994 0.58291
 C2032 C 0.68717 0.67876 0.59278
 C2033 C 0.68228 0.68223 0.63411
 C2034 C 0.67688 0.67683 0.65123
 C2035 C 0.71302 0.71299 0.55948
 C2036 C 0.72092 0.72091 0.54445
 H2037 H 0.71481 0.73000 0.60237
 H2038 H 0.67237 0.72187 0.61128
 H2039 H 0.72571 0.69137 0.62061
 H2040 H 0.72157 0.67198 0.58116
 H2041 H 0.66822 0.70251 0.57175
 H2042 H 0.67905 0.66376 0.59018
 C2043 C 0.71087 0.21195 0.10019
 C2044 C 0.68778 0.21243 0.10686
 C2045 C 0.68966 0.18970 0.11393
 C2046 C 0.71265 0.18913 0.10750
 C2047 C 0.70420 0.20424 0.07858
 C2048 C 0.70610 0.18150 0.08562
 C2049 C 0.68120 0.20483 0.08497
 C2050 C 0.68294 0.18193 0.09237
 C2051 C 0.68225 0.18229 0.13415
 C2052 C 0.67685 0.17688 0.15126
 C2053 C 0.71300 0.21304 0.05951
 C2054 C 0.72092 0.22095 0.04449
 H2055 H 0.72244 0.22439 0.10323
 H2056 H 0.68017 0.22508 0.11580
 H2057 H 0.72552 0.18260 0.11698
 H2058 H 0.71373 0.16888 0.07667
 H2059 H 0.66836 0.21138 0.07548
 H2060 H 0.67136 0.16949 0.08940
 C2061 C 0.20596 0.71540 0.09951
 C2062 C 0.18287 0.71030 0.10390
 C2063 C 0.18963 0.68966 0.11383
 C2064 C 0.21261 0.69467 0.10969
 C2065 C 0.20419 0.70420 0.07849
 C2066 C 0.21096 0.68356 0.08841
 C2067 C 0.18119 0.69920 0.08257
 C2068 C 0.18782 0.67839 0.09285
 C2069 C 0.18222 0.68225 0.13405
 C2070 C 0.17682 0.67684 0.15116
 C2071 C 0.21299 0.71300 0.05942
 C2072 C 0.22090 0.72091 0.04440
 H2073 H 0.21350 0.73071 0.10208
 H2074 H 0.17124 0.72121 0.11049
 H2075 H 0.22546 0.69274 0.12105
 H2076 H 0.22260 0.67266 0.08183
 H2077 H 0.16837 0.70116 0.07119
 H2078 H 0.18026 0.66308 0.09035
 C2079 C 0.18792 0.18678 0.58028
 C2080 C 0.20119 0.17650 0.59761
 C2081 C 0.18965 0.18962 0.61388
 C2082 C 0.17624 0.19977 0.59692
 C2083 C 0.20420 0.20418 0.57854
 C2084 C 0.19265 0.21727 0.59484
 C2085 C 0.21757 0.19402 0.59553
 C2086 C 0.20592 0.20701 0.61206
 C2087 C 0.18224 0.18222 0.63410
 C2088 C 0.17683 0.17682 0.65121
 C2089 C 0.21299 0.21297 0.55947
 C2090 C 0.22091 0.22089 0.54445
 H2091 H 0.18063 0.17857 0.56697
 H2092 H 0.20461 0.15964 0.59898
 H2093 H 0.15915 0.20205 0.59773
 H2094 H 0.18923 0.23413 0.59351
 H2095 H 0.23466 0.19175 0.59477
 H2096 H 0.21326 0.21527 0.62532
   
