data_POSCAR
  _audit_creation_date              2014-09-24
  _audit_creation_method            'ToBaCCo'
  _symmetry_space_group_name_H-M    'P1'
  _symmetry_Int_Tables_number       1
  _symmetry_cell_setting            triclinic
  loop_
  _symmetry_equiv_pos_as_xyz
 x,y,z
_cell_length_a 52.2783
_cell_length_b 52.1781
_cell_length_c 51.8761
_cell_angle_alpha 90.223700
_cell_angle_beta 90.089100
_cell_angle_gamma 90.214600
loop_
  _atom_site_label
  _atom_site_type_symbol
  _atom_site_fract_x
  _atom_site_fract_y
  _atom_site_fract_z
C1 C 0.28687 0.37370 0.01573
 C2 C 0.29597 0.36439 0.03925
 C3 C 0.31848 0.34995 0.03970
 C4 C 0.33304 0.34608 0.01710
 C5 C 0.32403 0.35701 -0.00617
 C6 C 0.30030 0.36981 -0.00744
 C7 C 0.35722 0.33039 0.01774
 C8 C 0.36665 0.31834 -0.00481
 C9 C 0.38935 0.30363 -0.00473
 C10 C 0.40172 0.30009 0.01919
 C11 C 0.39244 0.31119 0.04186
 C12 C 0.37075 0.32674 0.04100
 H13 H 0.26999 0.38565 0.01598
 H14 H 0.32416 0.34167 0.05786
 H15 H 0.33503 0.35488 -0.02354
 H16 H 0.35641 0.32074 -0.02257
 H17 H 0.41771 0.28713 0.02098
 H18 H 0.36474 0.33582 0.05872
 C19 C 0.70853 0.62950 -0.00650
 C20 C 0.69940 0.63705 0.01769
 C21 C 0.67660 0.65099 0.01904
 C22 C 0.66152 0.65553 -0.00309
 C23 C 0.67078 0.64696 -0.02721
 C24 C 0.69462 0.63473 -0.02895
 C25 C 0.63655 0.66943 -0.00055
 C26 C 0.62670 0.68450 -0.02083
 C27 C 0.60465 0.69980 -0.01737
 C28 C 0.59253 0.69942 0.00694
 C29 C 0.60211 0.68480 0.02726
 C30 C 0.62337 0.66922 0.02314
 H31 H 0.72619 0.61878 -0.00796
 H32 H 0.67093 0.65841 0.03765
 H33 H 0.65981 0.64984 -0.04465
 H34 H 0.63735 0.68592 -0.03860
 H35 H 0.57554 0.71066 0.01049
 H36 H 0.62973 0.65737 0.03893
 C37 C 0.70132 0.38251 0.99806
 C38 C 0.70163 0.36785 0.97546
 C39 C 0.68853 0.34436 0.97486
 C40 C 0.67472 0.33556 0.99656
 C41 C 0.67484 0.35080 1.01918
 C42 C 0.68832 0.37409 1.02004
 C43 C 0.66082 0.31037 0.99558
 C44 C 0.65662 0.29582 1.01814
 C45 C 0.64434 0.27167 1.01714
 C46 C 0.63741 0.26181 0.99278
 C47 C 0.64087 0.27611 0.97030
 C48 C 0.65190 0.30052 0.97186
 H49 H 0.71173 0.40050 0.99871
 H50 H 0.68995 0.33273 0.95762
 H51 H 0.66430 0.34497 1.03611
 H52 H 0.66390 0.30269 1.03641
 H53 H 0.62722 0.24378 0.99113
 H54 H 0.65350 0.31163 0.95437
 C55 C 0.30188 0.61201 0.99100
 C56 C 0.31214 0.62194 0.96827
 C57 C 0.32556 0.64517 0.96901
 C58 C 0.32789 0.65931 0.99216
 C59 C 0.31687 0.64921 1.01479
 C60 C 0.30382 0.62562 1.01429
 C61 C 0.34070 0.68499 0.99231
 C62 C 0.35358 0.69423 1.01451
 C63 C 0.36651 0.71807 1.01434
 C64 C 0.36564 0.73268 0.99159
 C65 C 0.35348 0.72365 0.96937
 C66 C 0.34077 0.70013 0.96985
 H67 H 0.29137 0.59407 0.99029
 H68 H 0.33394 0.65208 0.95128
 H69 H 0.31727 0.66015 1.03256
 H70 H 0.35493 0.68205 1.03125
 H71 H 0.37456 0.75140 0.99074
 H72 H 0.33092 0.69393 0.95255
 C73 C -0.00463 0.27528 0.35236
 C74 C 0.01777 0.28564 0.34186
 C75 C 0.01628 0.30780 0.32677
 C76 C -0.00720 0.32061 0.32324
 C77 C -0.02937 0.31016 0.33475
 C78 C -0.02831 0.28724 0.34880
 C79 C -0.00842 0.34516 0.30835
 C80 C -0.03123 0.35274 0.29597
 C81 C -0.03320 0.37680 0.28392
 C82 C -0.01106 0.39210 0.28207
 C83 C 0.01232 0.38432 0.29272
 C84 C 0.01313 0.36143 0.30678
 H85 H -0.00344 0.25852 0.36457
 H86 H 0.03363 0.31486 0.31791
 H87 H -0.04754 0.31982 0.33317
 H88 H -0.04785 0.34042 0.29667
 H89 H -0.01165 0.40942 0.27067
 H90 H 0.03068 0.35660 0.31663
 C91 C 0.00988 0.71687 0.62803
 C92 C 0.03215 0.70204 0.62952
 C93 C 0.03208 0.68001 0.64509
 C94 C 0.01027 0.67314 0.65974
 C95 C -0.01190 0.68845 0.65744
 C96 C -0.01226 0.70986 0.64130
 C97 C 0.01082 0.65067 0.67787
 C98 C -0.01212 0.63859 0.68593
 C99 C -0.01222 0.61991 0.70556
 C100 C 0.01158 0.61151 0.71500
 C101 C 0.03463 0.62227 0.70657
 C102 C 0.03416 0.64208 0.68846
 H103 H 0.00955 0.73394 0.61622
 H104 H 0.04898 0.66815 0.64526
 H105 H -0.02892 0.68450 0.66853
 H106 H -0.03007 0.64466 0.67784
 H107 H 0.01250 0.59571 0.72842
 H108 H 0.05208 0.65120 0.68354
 C109 C 1.00421 0.69206 0.39586
 C110 C 0.98019 0.68726 0.38481
 C111 C 0.97883 0.67369 0.36146
 C112 C 1.00111 0.66376 0.34985
 C113 C 1.02491 0.66781 0.36224
 C114 C 1.02695 0.68258 0.38494
 C115 C 0.99976 0.64958 0.32468
 C116 C 1.02104 0.64931 0.30793
 C117 C 1.02053 0.63576 0.28441
 C118 C 0.99753 0.62362 0.27714
 C119 C 0.97615 0.62343 0.29340
 C120 C 0.97741 0.63622 0.31718
 H121 H 1.00502 0.70493 0.41221
 H122 H 0.96037 0.67113 0.35238
 H123 H 1.04185 0.65877 0.35462
 H124 H 1.03783 0.66051 0.31267
 H125 H 0.99640 0.61291 0.25930
 H126 H 0.96115 0.63502 0.32998
 C127 C 0.99952 0.30639 0.60354
 C128 C 0.97746 0.31030 0.61813
 C129 C 0.97920 0.32334 0.64167
 C130 C 1.00266 0.33392 0.65021
 C131 C 1.02473 0.32987 0.63498
 C132 C 1.02340 0.31554 0.61196
 C133 C 1.00388 0.34828 0.67530
 C134 C 1.02661 0.34930 0.69010
 C135 C 1.02699 0.36091 0.71469
 C136 C 1.00410 0.37119 0.72440
 C137 C 0.98189 0.37219 0.70936
 C138 C 0.98192 0.36079 0.68488
 H139 H 0.99814 0.29482 0.58620
 H140 H 0.96210 0.32490 0.65329
 H141 H 1.04299 0.33780 0.64078
 H142 H 1.04375 0.33998 0.68327
 H143 H 1.00389 0.38024 0.74320
 H144 H 0.96489 0.36231 0.67313
 C145 C 0.39637 0.01034 0.29517
 C146 C 0.38624 0.03114 0.30880
 C147 C 0.36476 0.02750 0.32446
 C148 C 0.35249 0.00341 0.32579
 C149 C 0.36254 -0.01702 0.31106
 C150 C 0.38472 -0.01407 0.29583
 C151 C 0.32861 -0.00028 0.34146
 C152 C 0.32153 -0.02482 0.35060
 C153 C 0.29824 -0.02864 0.36351
 C154 C 0.28266 -0.00752 0.36882
 C155 C 0.28975 0.01716 0.36109
 C156 C 0.31234 0.02060 0.34698
 H157 H 0.41358 0.01357 0.28410
 H158 H 0.35788 0.04367 0.33551
 H159 H 0.35204 -0.03484 0.31010
 H160 H 0.33380 -0.04118 0.34755
 H161 H 0.26526 -0.01021 0.37985
 H162 H 0.31667 0.03961 0.33997
 C163 C 0.60940 0.00741 0.70561
 C164 C 0.61454 0.02908 0.69076
 C165 C 0.63536 0.02897 0.67392
 C166 C 0.65125 0.00724 0.67186
 C167 C 0.64536 -0.01469 0.68665
 C168 C 0.62456 -0.01475 0.70392
 C169 C 0.67449 0.00791 0.65515
 C170 C 0.68378 -0.01451 0.64309
 C171 C 0.70583 -0.01371 0.62761
 C172 C 0.71845 0.00980 0.62413
 C173 C 0.70923 0.03234 0.63539
 C174 C 0.68759 0.03123 0.65117
 H175 H 0.59284 0.00783 0.71813
 H176 H 0.63882 0.04580 0.66229
 H177 H 0.65798 -0.03106 0.68601
 H178 H 0.67356 -0.03247 0.64508
 H179 H 0.73538 0.01071 0.61216
 H180 H 0.68132 0.04866 0.66056
 C181 C 0.36078 1.01437 0.71795
 C182 C 0.35502 0.99007 0.70809
 C183 C 0.34129 0.98795 0.68493
 C184 C 0.33438 1.01000 0.67067
 C185 C 0.34212 1.03424 0.68035
 C186 C 0.35434 1.03643 0.70430
 C187 C 0.31844 1.00768 0.64652
 C188 C 0.30383 1.02863 0.63737
 C189 C 0.28808 1.02653 0.61524
 C190 C 0.28579 1.00209 0.60378
 C191 C 0.30029 0.98119 0.61204
 C192 C 0.31701 0.98426 0.63287
 H193 H 0.37117 1.01618 0.73598
 H194 H 0.33566 0.96896 0.67878
 H195 H 0.33860 1.05167 0.66979
 H196 H 0.30496 1.04663 0.64736
 H197 H 0.27160 0.99853 0.58903
 H198 H 0.32876 0.96813 0.63816
 C199 C 0.61093 0.97858 0.30239
 C200 C 0.62099 0.95703 0.31455
 C201 C 0.64236 0.95962 0.33045
 C202 C 0.65473 0.98349 0.33355
 C203 C 0.64449 1.00506 0.32079
 C204 C 0.62210 1.00310 0.30543
 C205 C 0.67822 0.98554 0.35010
 C206 C 0.68454 1.00845 0.36338
 C207 C 0.70585 1.00951 0.37995
 C208 C 0.72063 0.98743 0.38350
 C209 C 0.71461 0.96446 0.37086
 C210 C 0.69403 0.96392 0.35359
 H211 H 0.59524 0.97545 0.28911
 H212 H 0.64902 0.94276 0.34045
 H213 H 0.65379 1.02337 0.32332
 H214 H 0.67252 1.02519 0.36181
 H215 H 0.73665 0.98798 0.39676
 H216 H 0.69044 0.94637 0.34302
 O217 O 0.82480 0.85545 0.52965
 O218 O 0.86314 0.81212 0.48950
 O219 O 0.82887 0.84696 0.48080
 O220 O 0.86089 0.82219 0.53820
 O221 O 0.83270 0.79075 0.54082
 O222 O 0.79775 0.81867 0.48541
 O223 O 0.83230 0.78311 0.49093
 O224 O 0.79601 0.82494 0.53520
 Cu225 Cu 0.84738 0.83713 0.50924
 Cu226 Cu 0.81170 0.80132 0.51357
 C227 C 0.80380 0.84771 0.53921
 C228 C 0.85416 0.79035 0.48312
 C229 C 0.80759 0.83762 0.47359
 C230 C 0.85291 0.80187 0.54890
 O231 O 0.13718 0.18231 0.45785
 O232 O 0.16710 0.15052 0.51273
 O233 O 0.13569 0.18950 0.50696
 O234 O 0.16862 0.14509 0.46335
 O235 O 0.20119 0.17195 0.46067
 O236 O 0.16873 0.21595 0.50604
 O237 O 0.20018 0.17681 0.51069
 O238 O 0.16911 0.21001 0.45595
 Cu239 Cu 0.14888 0.16423 0.48572
 Cu240 Cu 0.18809 0.19643 0.48326
 C241 C 0.14782 0.20154 0.44746
 C242 C 0.18908 0.15745 0.52053
 C243 C 0.14625 0.21048 0.51355
 C244 C 0.19044 0.15093 0.45435
 O245 O 0.16128 0.80912 0.51801
 O246 O 0.19468 0.83744 0.46316
 O247 O 0.15987 0.80237 0.46942
 O248 O 0.19722 0.84368 0.51222
 O249 O 0.22639 0.81354 0.51675
 O250 O 0.18993 0.77280 0.47070
 O251 O 0.22561 0.80902 0.46677
 O252 O 0.18998 0.77833 0.52043
 Cu253 Cu 0.17541 0.82615 0.49048
 Cu254 Cu 0.21105 0.79043 0.49392
 C255 C 0.16904 0.78830 0.52782
 C256 C 0.21617 0.82875 0.45604
 C257 C 0.16803 0.78033 0.46324
 C258 C 0.21832 0.83602 0.52147
 O259 O 0.81728 0.14657 0.47772
 O260 O 0.85327 0.18882 0.52113
 O261 O 0.81958 0.15358 0.52655
 O262 O 0.85202 0.18251 0.47125
 O263 O 0.82175 0.21167 0.46820
 O264 O 0.78876 0.18222 0.52369
 O265 O 0.82321 0.21828 0.51793
 O266 O 0.78677 0.17543 0.47398
 Cu267 Cu 0.83870 0.16506 0.49915
 Cu268 Cu 0.80206 0.19986 0.49550
 C269 C 0.79556 0.15325 0.46913
 C270 C 0.84435 0.21059 0.52721
 C271 C 0.79857 0.16275 0.53452
 C272 C 0.84282 0.20230 0.46055
 O273 O 0.47259 0.87256 0.82257
 O274 O 0.51677 0.83288 0.85931
 O275 O 0.52184 0.86718 0.82374
 O276 O 0.46745 0.83731 0.85651
 O277 O 0.46543 0.80739 0.82639
 O278 O 0.52016 0.83764 0.79325
 O279 O 0.51503 0.80260 0.82957
 O280 O 0.47023 0.84321 0.79194
 Cu281 Cu 0.49498 0.85541 0.84352
 Cu282 Cu 0.49270 0.81971 0.80716
 C283 C 0.46348 0.86476 0.80127
 C284 C 0.52332 0.81095 0.85112
 C285 C 0.53021 0.85776 0.80280
 C286 C 0.45696 0.81739 0.84704
 O287 O 0.53139 0.17549 0.15320
 O288 O 0.48109 0.15512 0.19790
 O289 O 0.48454 0.18951 0.16249
 O290 O 0.52749 0.14114 0.18947
 O291 O 0.54234 0.16914 0.21780
 O292 O 0.49874 0.21797 0.19076
 O293 O 0.49568 0.18232 0.22723
 O294 O 0.54561 0.20386 0.18145
 Cu295 Cu 0.50483 0.16260 0.17281
 Cu296 Cu 0.52193 0.19628 0.20716
 C297 C 0.54693 0.19324 0.15940
 C298 C 0.48020 0.16468 0.22040
 C299 C 0.48435 0.21199 0.17187
 C300 C 0.54180 0.14654 0.20856
 O301 O 0.50841 0.14789 0.80619
 O302 O 0.47415 0.18665 0.85364
 O303 O 0.46104 0.15586 0.81634
 O304 O 0.52162 0.17844 0.84369
 O305 O 0.52062 0.21245 0.81857
 O306 O 0.46227 0.18658 0.78723
 O307 O 0.47162 0.21843 0.82579
 O308 O 0.51107 0.18099 0.77991
 Cu309 Cu 0.49132 0.16399 0.83266
 Cu310 Cu 0.49138 0.20298 0.80015
 C311 C 0.51557 0.15762 0.78499
 C312 C 0.46695 0.20911 0.84792
 C313 C 0.45181 0.16662 0.79653
 C314 C 0.53108 0.19967 0.83652
 O315 O 0.53104 0.82997 0.20040
 O316 O 0.48187 0.80858 0.15478
 O317 O 0.48490 0.84419 0.18946
 O318 O 0.52825 0.79500 0.16479
 O319 O 0.51288 0.76709 0.19276
 O320 O 0.46980 0.81722 0.21842
 O321 O 0.46665 0.78113 0.18322
 O322 O 0.51601 0.80314 0.22956
 Cu323 Cu 0.50806 0.82213 0.17455
 Cu324 Cu 0.49003 0.78934 0.20904
 C325 C 0.53150 0.82076 0.22298
 C326 C 0.46609 0.79108 0.16091
 C327 C 0.47009 0.83934 0.20820
 C328 C 0.52737 0.77250 0.17386
 O329 O 0.81619 0.48013 0.85420
 O330 O 0.85084 0.52987 0.81887
 O331 O 0.81420 0.52993 0.85243
 O332 O 0.85231 0.48087 0.81989
 O333 O 0.82369 0.47803 0.78870
 O334 O 0.78522 0.52796 0.82152
 O335 O 0.82281 0.52758 0.78710
 O336 O 0.78715 0.47784 0.82339
 Cu337 Cu 0.83607 0.50540 0.83956
 Cu338 Cu 0.80168 0.50272 0.80211
 C339 C 0.79579 0.47045 0.84504
 C340 C 0.84337 0.53670 0.79666
 C341 C 0.79323 0.53738 0.84270
 C342 C 0.84497 0.47146 0.79850
 O343 O 0.14876 0.53643 0.17619
 O344 O 0.17970 0.47844 0.15154
 O345 O 0.14348 0.48827 0.18504
 O346 O 0.18452 0.52728 0.14368
 O347 O 0.21306 0.53078 0.17487
 O348 O 0.17279 0.48887 0.21574
 O349 O 0.20931 0.48136 0.18174
 O350 O 0.17630 0.53811 0.20848
 Cu351 Cu 0.16131 0.50714 0.16098
 Cu352 Cu 0.19582 0.50995 0.19835
 C353 C 0.15688 0.54695 0.19673
 C354 C 0.20013 0.47030 0.16188
 C355 C 0.15083 0.48219 0.20752
 C356 C 0.20557 0.53609 0.15218
 O357 O 0.80926 0.52876 0.14496
 O358 O 0.83472 0.47201 0.17748
 O359 O 0.79940 0.48065 0.14290
 O360 O 0.84297 0.52077 0.18104
 O361 O 0.81306 0.52638 0.21046
 O362 O 0.77062 0.48230 0.17397
 O363 O 0.80698 0.47723 0.20912
 O364 O 0.77864 0.53168 0.17403
 Cu365 Cu 0.82453 0.50009 0.15863
 Cu366 Cu 0.78927 0.50469 0.19492
 C367 C 0.78915 0.53945 0.15336
 C368 C 0.82600 0.46562 0.19935
 C369 C 0.77749 0.47487 0.15168
 C370 C 0.83561 0.53042 0.20228
 O371 O 0.19917 0.51735 0.84826
 O372 O 0.15777 0.46666 0.82211
 O373 O 0.19461 0.46863 0.85551
 O374 O 0.16147 0.51594 0.81621
 O375 O 0.18862 0.50972 0.78430
 O376 O 0.22243 0.46154 0.82437
 O377 O 0.18496 0.45984 0.79038
 O378 O 0.22728 0.51023 0.81729
 Cu379 Cu 0.17547 0.49276 0.83856
 Cu380 Cu 0.20850 0.48468 0.80075
 C381 C 0.22050 0.52207 0.83759
 C382 C 0.16412 0.45458 0.80181
 C383 C 0.21434 0.45729 0.84709
 C384 C 0.16922 0.52111 0.79368
 C385 C 0.25660 0.39566 0.10396
 C386 C 0.28349 0.39438 0.10441
 C387 C 0.29641 0.38241 0.08412
 C388 C 0.28268 0.37179 0.06340
 C389 C 0.25588 0.37187 0.06459
 N390 N 0.24376 0.38395 0.08429
 C391 C 0.24178 0.41216 0.12186
 N392 N 0.21765 0.41887 0.11473
 C393 C 0.20354 0.43622 0.12804
 C394 C 0.21381 0.44855 0.14981
 C395 C 0.23815 0.44107 0.15838
 C396 C 0.25215 0.42283 0.14456
 H397 H 0.31712 0.38298 0.08377
 H398 H 0.24459 0.36353 0.04917
 H399 H 0.18471 0.44106 0.12092
 H400 H 0.24670 0.44990 0.17525
 H401 H 0.29469 0.40381 0.11920
 H402 H 0.27096 0.41772 0.15143
 C403 C 0.73761 0.60748 0.08425
 C404 C 0.71081 0.60945 0.08411
 C405 C 0.69849 0.62008 0.06284
 C406 C 0.71267 0.62880 0.04163
 C407 C 0.73945 0.62742 0.04295
 N408 N 0.75101 0.61669 0.06375
 C409 C 0.75155 0.59303 0.10438
 N410 N 0.77501 0.58347 0.09844
 C411 C 0.78801 0.56766 0.11448
 C412 C 0.77718 0.56003 0.13800
 C413 C 0.75363 0.57068 0.14519
 C414 C 0.74083 0.58728 0.12855
 H415 H 0.67778 0.62028 0.06249
 H416 H 0.75117 0.63427 0.02722
 H417 H 0.80630 0.56021 0.10827
 H418 H 0.74471 0.56555 0.16329
 H419 H 0.69922 0.60168 0.09945
 H420 H 0.72261 0.59502 0.13449
 C421 C 0.74145 0.40173 0.91215
 C422 C 0.71761 0.38984 0.90771
 C423 C 0.70497 0.37771 0.92811
 C424 C 0.71599 0.37739 0.95278
 C425 C 0.74036 0.38825 0.95601
 N426 N 0.75214 0.40007 0.93602
 C427 C 0.75518 0.41717 0.89252
 N428 N 0.77951 0.42478 0.89805
 C429 C 0.79301 0.44089 0.88272
 C430 C 0.78193 0.45089 0.86028
 C431 C 0.75710 0.44287 0.85367
 C432 C 0.74362 0.42608 0.86974
 H433 H 0.68620 0.36945 0.92486
 H434 H 0.74980 0.38791 0.97459
 H435 H 0.81218 0.44634 0.88850
 H436 H 0.74780 0.45020 0.83656
 H437 H 0.70853 0.39009 0.88899
 H438 H 0.72418 0.42110 0.86467
 C439 C 0.28432 0.58478 0.90083
 C440 C 0.30022 0.57111 0.91768
 C441 C 0.31054 0.58350 0.93924
 C442 C 0.30570 0.60958 0.94345
 C443 C 0.29124 0.62296 0.92517
 N444 N 0.28054 0.61028 0.90490
 C445 C 0.26907 0.57115 0.88109
 N446 N 0.27833 0.54954 0.86966
 C447 C 0.26366 0.53468 0.85383
 C448 C 0.23783 0.54068 0.84990
 C449 C 0.22810 0.56313 0.86094
 C450 C 0.24380 0.57868 0.87616
 H451 H 0.32148 0.57260 0.95313
 H452 H 0.28699 0.64307 0.92796
 H453 H 0.27168 0.51732 0.84576
 H454 H 0.20818 0.56821 0.85840
 H455 H 0.30322 0.55073 0.91516
 H456 H 0.23579 0.59554 0.88528
 C457 C 0.08548 0.25226 0.37246
 C458 C 0.08395 0.27908 0.37032
 C459 C 0.06259 0.29005 0.35854
 C460 C 0.04280 0.27443 0.34897
 C461 C 0.04594 0.24780 0.34983
 N462 N 0.06665 0.23758 0.36171
 C463 C 0.10453 0.23930 0.38909
 N464 N 0.09924 0.21487 0.39649
 C465 C 0.11357 0.20217 0.41404
 C466 C 0.13459 0.21424 0.42582
 C467 C 0.14133 0.23896 0.41765
 C468 C 0.12639 0.25157 0.39925
 H469 H 0.06073 0.31072 0.35847
 H470 H 0.03129 0.23510 0.34230
 H471 H 0.10794 0.18292 0.41936
 H472 H 0.15758 0.24884 0.42610
 H473 H 0.09803 0.29165 0.37897
 H474 H 0.13175 0.27076 0.39360
 C475 C 0.09684 0.73221 0.58905
 C476 C 0.10084 0.71978 0.61266
 C477 C 0.07994 0.70887 0.62558
 C478 C 0.05526 0.71014 0.61482
 C479 C 0.05258 0.72140 0.59043
 N480 N 0.07296 0.73236 0.57864
 C481 C 0.11704 0.74697 0.57581
 N482 N 0.10992 0.76834 0.56279
 C483 C 0.12661 0.78247 0.54876
 C484 C 0.15225 0.77489 0.54645
 C485 C 0.16025 0.75307 0.56003
 C486 C 0.14272 0.73917 0.57499
 H487 H 0.08289 0.70054 0.64442
 H488 H 0.03413 0.72217 0.58098
 H489 H 0.11946 0.79900 0.53853
 H490 H 0.17980 0.74645 0.55859
 H491 H 0.11956 0.71963 0.62163
 H492 H 0.14891 0.72203 0.58486
 C493 C 0.91811 0.72393 0.42348
 C494 C 0.91731 0.72190 0.39651
 C495 C 0.93695 0.70895 0.38361
 C496 C 0.95701 0.69777 0.39767
 C497 C 0.95586 0.69876 0.42472
 N498 N 0.93712 0.71213 0.43670
 C499 C 0.90072 0.74084 0.43782
 N500 N 0.91088 0.75639 0.45630
 C501 C 0.89634 0.77255 0.47058
 C502 C 0.86978 0.77315 0.46708
 C503 C 0.85872 0.75702 0.44840
 C504 C 0.87424 0.74105 0.43339
 H505 H 0.93711 0.70887 0.36275
 H506 H 0.97043 0.68975 0.43640
 H507 H 0.90548 0.78453 0.48500
 H508 H 0.83824 0.75703 0.44525
 H509 H 0.90256 0.73148 0.38552
 H510 H 0.86568 0.72868 0.41893
 C511 C 0.91101 0.27317 0.58836
 C512 C 0.91839 0.26863 0.61399
 C513 C 0.93935 0.28181 0.62433
 C514 C 0.95298 0.29923 0.60907
 C515 C 0.94424 0.30413 0.58400
 N516 N 0.92380 0.29109 0.57435
 C517 C 0.89140 0.25733 0.57536
 N518 N 0.87646 0.26791 0.55670
 C519 C 0.86012 0.25360 0.54205
 C520 C 0.85913 0.22693 0.54507
 C521 C 0.87413 0.21570 0.56436
 C522 C 0.89006 0.23084 0.57972
 H523 H 0.94563 0.27756 0.64375
 H524 H 0.95420 0.31769 0.57183
 H525 H 0.84892 0.26288 0.52723
 H526 H 0.87387 0.19515 0.56721
 H527 H 0.90844 0.25466 0.62568
 H528 H 0.90218 0.22171 0.59388
 C529 C 0.41910 0.10186 0.28511
 C530 C 0.39236 0.09910 0.28519
 C531 C 0.38140 0.07668 0.29493
 C532 C 0.39703 0.05705 0.30440
 C533 C 0.42351 0.06137 0.30568
 N534 N 0.43377 0.08326 0.29592
 C535 C 0.43192 0.12257 0.27058
 N536 N 0.45517 0.13140 0.27863
 C537 C 0.46984 0.14719 0.26389
 C538 C 0.46190 0.15368 0.23892
 C539 C 0.43774 0.14543 0.23053
 C540 C 0.42254 0.13020 0.24642
 H541 H 0.36089 0.07398 0.29354
 H542 H 0.43612 0.04674 0.31313
 H543 H 0.48855 0.15295 0.27084
 H544 H 0.43115 0.14984 0.21125
 H545 H 0.38016 0.11362 0.27689
 H546 H 0.40454 0.12291 0.23903
 C547 C 0.56804 0.09073 0.71503
 C548 C 0.55648 0.06893 0.70412
 C549 C 0.57173 0.04956 0.69401
 C550 C 0.59842 0.05202 0.69443
 C551 C 0.60915 0.07523 0.70300
 N552 N 0.59390 0.09364 0.71346
 C553 C 0.55310 0.10836 0.73142
 N554 N 0.55885 0.13386 0.73226
 C555 C 0.54669 0.15028 0.74864
 C556 C 0.52835 0.14094 0.76602
 C557 C 0.52232 0.11477 0.76545
 C558 C 0.53446 0.09852 0.74813
 H559 H 0.56281 0.03199 0.68727
 H560 H 0.62970 0.07780 0.70344
 H561 H 0.55186 0.17039 0.74864
 H562 H 0.50820 0.10684 0.77847
 H563 H 0.53594 0.06625 0.70468
 H564 H 0.52997 0.07825 0.74856
 C565 C 0.39143 0.92979 0.74895
 C566 C 0.37461 0.94623 0.76209
 C567 C 0.36151 0.96505 0.74850
 C568 C 0.36459 0.96719 0.72178
 C569 C 0.37980 0.94903 0.70902
 N570 N 0.39299 0.93124 0.72278
 C571 C 0.40894 0.91250 0.76308
 N572 N 0.41837 0.89116 0.75124
 C573 C 0.43557 0.87540 0.76294
 C574 C 0.44460 0.88111 0.78784
 C575 C 0.43523 0.90312 0.80018
 C576 C 0.41755 0.91877 0.78796
 H577 H 0.34959 0.97848 0.75893
 H578 H 0.38252 0.95005 0.68837
 H579 H 0.44237 0.85865 0.75269
 H580 H 0.44167 0.90842 0.81934
 H581 H 0.37207 0.94513 0.78275
 H582 H 0.41142 0.93603 0.79773
 C583 C 0.58862 0.88650 0.28887
 C584 C 0.57327 0.90384 0.30260
 C585 C 0.58405 0.92650 0.31210
 C586 C 0.61017 0.93148 0.30863
 C587 C 0.62521 0.91288 0.29641
 N588 N 0.61413 0.89140 0.28644
 C589 C 0.57678 0.86521 0.27415
 N590 N 0.55392 0.85517 0.28178
 C591 C 0.54036 0.83855 0.26675
 C592 C 0.54907 0.83234 0.24196
 C593 C 0.57303 0.84157 0.23416
 C594 C 0.58716 0.85764 0.25039
 H595 H 0.57190 0.94056 0.32135
 H596 H 0.64543 0.91621 0.29332
 H597 H 0.52182 0.83194 0.27329
 H598 H 0.58025 0.83729 0.21507
 H599 H 0.55287 0.90072 0.30451
 H600 H 0.60510 0.86554 0.24360
 C601 C 0.41955 0.26792 0.92826
 C602 C 0.39396 0.27563 0.92834
 C603 C 0.38388 0.28751 0.95026
 C604 C 0.39928 0.29219 0.97229
 C605 C 0.42522 0.28473 0.97061
 N606 N 0.43430 0.27275 0.94927
 C607 C 0.43068 0.25320 0.90676
 N608 N 0.44770 0.23440 0.91242
 C609 C 0.45903 0.22000 0.89390
 C610 C 0.45390 0.22455 0.86777
 C611 C 0.43671 0.24411 0.86135
 C612 C 0.42479 0.25832 0.88086
 H613 H 0.36366 0.29161 0.94996
 H614 H 0.43877 0.28881 0.98582
 H615 H 0.47243 0.20530 0.89963
 H616 H 0.43238 0.24822 0.84137
 H617 H 0.38157 0.27151 0.91208
 H618 H 0.41160 0.27344 0.87576
 C619 C 0.57683 0.74847 0.92388
 C620 C 0.57353 0.75516 0.94981
 C621 C 0.58280 0.73922 0.96903
 C622 C 0.59557 0.71625 0.96285
 C623 C 0.59874 0.71046 0.93639
 N624 N 0.58910 0.72626 0.91791
 C625 C 0.56625 0.76494 0.90332
 N626 N 0.55508 0.75420 0.88209
 C627 C 0.54247 0.76854 0.86421
 C628 C 0.54016 0.79518 0.86762
 C629 C 0.55274 0.80660 0.88865
 C630 C 0.56586 0.79164 0.90636
 H631 H 0.58062 0.74570 0.98872
 H632 H 0.60783 0.69287 0.93028
 H633 H 0.53327 0.75903 0.84809
 H634 H 0.55191 0.82711 0.89181
 H635 H 0.56349 0.77244 0.95532
 H636 H 0.57512 0.80089 0.92262
 C637 C 0.40637 0.74893 0.07832
 C638 C 0.41442 0.75458 0.05328
 C639 C 0.40172 0.74384 0.03238
 C640 C 0.38067 0.72723 0.03592
 C641 C 0.37432 0.72074 0.06156
 N642 N 0.38699 0.73178 0.08178
 C643 C 0.41912 0.76116 0.10069
 N644 N 0.42222 0.74791 0.12305
 C645 C 0.43590 0.75762 0.14325
 C646 C 0.44779 0.78175 0.14126
 C647 C 0.44367 0.79613 0.11891
 C648 C 0.42923 0.78604 0.09876
 H649 H 0.40915 0.74813 0.01343
 H650 H 0.35845 0.70808 0.06573
 H651 H 0.43847 0.74602 0.16030
 H652 H 0.45208 0.81500 0.11674
 H653 H 0.43069 0.76696 0.04974
 H654 H 0.42640 0.79751 0.08165
 C655 C 0.61502 0.23261 0.08178
 C656 C 0.62378 0.21853 0.06049
 C657 C 0.63465 0.23127 0.03966
 C658 C 0.63745 0.25816 0.03985
 C659 C 0.63091 0.27114 0.06283
 N660 N 0.61952 0.25832 0.08257
 C661 C 0.59941 0.22062 0.10241
 N662 N 0.59671 0.23294 0.12546
 C663 C 0.58092 0.22412 0.14435
 C664 C 0.56614 0.20191 0.14031
 C665 C 0.56887 0.18878 0.11685
 C666 C 0.58534 0.19801 0.09794
 H667 H 0.64094 0.21985 0.02341
 H668 H 0.63265 0.29174 0.06441
 H669 H 0.57935 0.23490 0.16213
 H670 H 0.55778 0.17165 0.11280
 H671 H 0.62195 0.19790 0.05955
 H672 H 0.58601 0.18799 0.07968
 C673 C 0.24663 0.08840 0.58269
 C674 C 0.25591 0.09087 0.60786
 C675 C 0.26965 0.07063 0.61886
 C676 C 0.27463 0.04792 0.60465
 C677 C 0.26569 0.04729 0.57887
 N678 N 0.25191 0.06689 0.56904
 C679 C 0.23047 0.10788 0.57045
 N680 N 0.20933 0.09981 0.55744
 C681 C 0.19497 0.11586 0.54296
 C682 C 0.20235 0.14155 0.53988
 C683 C 0.22387 0.15050 0.55353
 C684 C 0.23782 0.13373 0.56917
 H685 H 0.27517 0.07278 0.63880
 H686 H 0.27005 0.03171 0.56588
 H687 H 0.17863 0.10809 0.53271
 H688 H 0.23023 0.17017 0.55156
 H689 H 0.25177 0.10782 0.61920
 H690 H 0.25487 0.14048 0.57898
 C691 C 0.73488 0.07552 0.41908
 C692 C 0.73177 0.05246 0.43248
 C693 C 0.72068 0.03148 0.42017
 C694 C 0.71288 0.03318 0.39435
 C695 C 0.71471 0.05710 0.38209
 N696 N 0.72582 0.07740 0.39449
 C697 C 0.75010 0.09646 0.43084
 N698 N 0.76947 0.09018 0.44713
 C699 C 0.78447 0.10803 0.45875
 C700 C 0.78011 0.13421 0.45469
 C701 C 0.76022 0.14130 0.43795
 C702 C 0.74539 0.12240 0.42563
 H703 H 0.71903 0.01360 0.43058
 H704 H 0.70875 0.05922 0.36222
 H705 H 0.79939 0.10169 0.47171
 H706 H 0.75623 0.16133 0.43440
 H707 H 0.73853 0.05046 0.45212
 H708 H 0.73012 0.12795 0.41270
 C709 C 0.74113 0.92149 0.59176
 C710 C 0.72975 0.91847 0.61608
 C711 C 0.71725 0.93930 0.62754
 C712 C 0.71599 0.96294 0.61473
 C713 C 0.72648 0.96458 0.58988
 N714 N 0.73892 0.94431 0.57942
 C715 C 0.75711 0.90149 0.57970
 N716 N 0.77674 0.90913 0.56433
 C717 C 0.79219 0.89229 0.55197
 C718 C 0.78798 0.86583 0.55423
 C719 C 0.76779 0.85739 0.56994
 C720 C 0.75242 0.87517 0.58290
 H721 H 0.70960 0.93725 0.64681
 H722 H 0.72537 0.98216 0.57895
 H723 H 0.80735 0.89967 0.53986
 H724 H 0.76383 0.83712 0.57206
 H725 H 0.73151 0.90072 0.62664
 H726 H 0.73670 0.86843 0.59464
 C727 C 0.27053 0.89974 0.39233
 C728 C 0.29651 0.90618 0.39581
 C729 C 0.30604 0.92904 0.38540
 C730 C 0.28978 0.94548 0.37175
 C731 C 0.26440 0.93772 0.36766
 N732 N 0.25554 0.91562 0.37810
 C733 C 0.25778 0.87818 0.40591
 N734 N 0.23176 0.87828 0.40685
 C735 C 0.21811 0.86140 0.42116
 C736 C 0.23066 0.84312 0.43630
 C737 C 0.25740 0.84150 0.43456
 C738 C 0.27107 0.85897 0.41937
 H739 H 0.32573 0.93446 0.38909
 H740 H 0.25136 0.94964 0.35683
 H741 H 0.19749 0.86310 0.42161
 H742 H 0.26782 0.82763 0.44593
 H743 H 0.30916 0.89458 0.40734
 H744 H 0.29168 0.85769 0.41888
 C745 C 0.09157 0.38420 0.75670
 C746 C 0.07046 0.37398 0.76987
 C747 C 0.04965 0.36461 0.75597
 C748 C 0.04990 0.36440 0.72885
 C749 C 0.07293 0.37131 0.71657
 N750 N 0.09252 0.38169 0.73055
 C751 C 0.11136 0.39992 0.77009
 N752 N 0.13331 0.40624 0.75739
 C753 C 0.15093 0.42283 0.76742
 C754 C 0.14663 0.43467 0.79138
 C755 C 0.12441 0.42810 0.80495
 C756 C 0.10681 0.41092 0.79445
 H757 H 0.03309 0.35792 0.76655
 H758 H 0.07444 0.37118 0.69577
 H759 H 0.16786 0.42732 0.75630
 H760 H 0.12022 0.43677 0.82346
 H761 H 0.06934 0.37393 0.79066
 H762 H 0.08939 0.40748 0.80506
 C763 C 0.08610 0.61680 0.24134
 C764 C 0.06264 0.62012 0.22862
 C765 C 0.04130 0.62799 0.24250
 C766 C 0.04289 0.63264 0.26923
 C767 C 0.06737 0.63131 0.28068
 N768 N 0.08777 0.62284 0.26683
 C769 C 0.10766 0.60320 0.22886
 N770 N 0.12431 0.58996 0.24400
 C771 C 0.14187 0.57350 0.23404
 C772 C 0.14254 0.56882 0.20742
 C773 C 0.12679 0.58347 0.19136
 C774 C 0.10962 0.60093 0.20194
 H775 H 0.02346 0.63006 0.23212
 H776 H 0.07004 0.63452 0.30111
 H777 H 0.15393 0.56275 0.24704
 H778 H 0.12714 0.58079 0.17064
 H779 H 0.06010 0.61523 0.20852
 H780 H 0.09748 0.61172 0.18908
 C781 C 0.89766 0.40510 0.25344
 C782 C 0.90248 0.37878 0.25201
 C783 C 0.92499 0.36906 0.26280
 C784 C 0.94326 0.38575 0.27393
 C785 C 0.93733 0.41208 0.27482
 N786 N 0.91502 0.42085 0.26493
 C787 C 0.87520 0.41660 0.24108
 N788 N 0.87109 0.41275 0.21545
 C789 C 0.85376 0.42676 0.20199
 C790 C 0.83974 0.44612 0.21438
 C791 C 0.84262 0.44928 0.24107
 C792 C 0.86060 0.43477 0.25443
 H793 H 0.92859 0.34872 0.26105
 H794 H 0.95005 0.42575 0.28402
 H795 H 0.85193 0.42374 0.18141
 H796 H 0.83240 0.46425 0.25122
 H797 H 0.88903 0.36595 0.24262
 H798 H 0.86391 0.43844 0.27473
 C799 C 0.91966 0.59145 0.73966
 C800 C 0.91895 0.60004 0.71406
 C801 C 0.94130 0.60960 0.70263
 C802 C 0.96462 0.61039 0.71645
 C803 C 0.96402 0.60187 0.74224
 N804 N 0.94208 0.59295 0.75284
 C805 C 0.89728 0.58042 0.75329
 N806 N 0.89858 0.57878 0.77943
 C807 C 0.88061 0.56653 0.79366
 C808 C 0.85989 0.55421 0.78160
 C809 C 0.85744 0.55646 0.75473
 C810 C 0.87611 0.56954 0.74047
 H811 H 0.94026 0.61534 0.68265
 H812 H 0.98064 0.60317 0.75461
 H813 H 0.88320 0.56550 0.81434
 H814 H 0.84187 0.54703 0.74463
 H815 H 0.90145 0.59958 0.70293
 H816 H 0.87451 0.56988 0.71970
 C817 C 0.73310 0.60489 0.90565
 C818 C 0.74277 0.62683 0.91813
 C819 C 0.72921 0.63762 0.93851
 C820 C 0.70576 0.62707 0.94609
 C821 C 0.69561 0.60657 0.93179
 N822 N 0.70954 0.59584 0.91239
 C823 C 0.74908 0.58990 0.88749
 N824 N 0.73775 0.57471 0.86928
 C825 C 0.75149 0.55874 0.85376
 C826 C 0.77812 0.55678 0.85680
 C827 C 0.79011 0.57246 0.87522
 C828 C 0.77577 0.58901 0.89047
 H829 H 0.73751 0.65353 0.94914
 H830 H 0.67750 0.59801 0.93719
 H831 H 0.74151 0.54682 0.83987
 H832 H 0.81059 0.57150 0.87827
 H833 H 0.76106 0.63507 0.91289
 H834 H 0.78550 0.60000 0.90527
 C835 C 0.26810 0.39903 0.92362
 C836 C 0.29476 0.39619 0.92538
 C837 C 0.30556 0.38598 0.94782
 C838 C 0.28999 0.37884 0.96887
 C839 C 0.26331 0.38128 0.96563
 N840 N 0.25341 0.39121 0.94370
 C841 C 0.25499 0.41192 0.90186
 N842 N 0.23009 0.41859 0.90533
 C843 C 0.21659 0.43194 0.88761
 C844 C 0.22817 0.43981 0.86459
 C845 C 0.25354 0.43238 0.85994
 C846 C 0.26705 0.41842 0.87851
 H847 H 0.32619 0.38525 0.94899
 H848 H 0.25002 0.37486 0.98021
 H849 H 0.19698 0.43695 0.89191
 H850 H 0.26315 0.43804 0.84237
 H851 H 0.30737 0.40255 0.91021
 H852 H 0.28663 0.41319 0.87457
 C853 C 0.26503 0.59401 0.07947
 C854 C 0.28968 0.60449 0.08283
 C855 C 0.30229 0.61541 0.06172
 C856 C 0.29046 0.61582 0.03743
 C857 C 0.26557 0.60599 0.03518
 N858 N 0.25380 0.59546 0.05584
 C859 C 0.25053 0.58082 0.10011
 N860 N 0.22578 0.57445 0.09502
 C861 C 0.21111 0.56085 0.11160
 C862 C 0.22127 0.55239 0.13508
 C863 C 0.24661 0.55907 0.14118
 C864 C 0.26137 0.57323 0.12373
 H865 H 0.32147 0.62296 0.06421
 H866 H 0.25549 0.60651 0.01695
 H867 H 0.19160 0.55637 0.10614
 H868 H 0.25519 0.55285 0.15909
 H869 H 0.29928 0.60429 0.10128
 H870 H 0.28105 0.57739 0.12857
 C871 C 0.71017 0.41914 0.08433
 C872 C 0.69820 0.43100 0.06334
 C873 C 0.68864 0.41602 0.04325
 C874 C 0.69090 0.38927 0.04408
 C875 C 0.70051 0.37804 0.06665
 N876 N 0.71031 0.39308 0.08582
 C877 C 0.72629 0.43436 0.10206
 N878 N 0.72617 0.42980 0.12792
 C879 C 0.74195 0.44278 0.14444
 C880 C 0.75964 0.46067 0.13485
 C881 C 0.76016 0.46530 0.10829
 C882 C 0.74342 0.45241 0.09193
 H883 H 0.68105 0.42536 0.02628
 H884 H 0.70238 0.35744 0.06802
 H885 H 0.74112 0.43871 0.16487
 H886 H 0.77342 0.47908 0.10019
 H887 H 0.69772 0.45168 0.06176
 H888 H 0.74437 0.45599 0.07140
 C889 C 0.92281 0.75312 0.61837
 C890 C 0.94310 0.76550 0.63135
 C891 C 0.96379 0.75117 0.64017
 C892 C 0.96402 0.72454 0.63692
 C893 C 0.94249 0.71262 0.62602
 N894 N 0.92293 0.72703 0.61672
 C895 C 0.90275 0.76743 0.60406
 N896 N 0.88255 0.75420 0.59386
 C897 C 0.86528 0.76513 0.57762
 C898 C 0.86831 0.79075 0.57004
 C899 C 0.88834 0.80501 0.58107
 C900 C 0.90549 0.79355 0.59799
 H901 H 0.98004 0.76094 0.64877
 H902 H 0.94202 0.69204 0.62329
 H903 H 0.85007 0.75343 0.56960
 H904 H 0.89140 0.82486 0.57582
 H905 H 0.94368 0.78601 0.63409
 H906 H 0.92136 0.80497 0.60489
 C907 C 0.90800 0.25377 0.38818
 C908 C 0.91055 0.28060 0.38760
 C909 C 0.93079 0.29169 0.37399
 C910 C 0.94848 0.27615 0.36099
 C911 C 0.94465 0.24952 0.36127
 N912 N 0.92504 0.23918 0.37489
 C913 C 0.88915 0.24061 0.40486
 N914 N 0.89448 0.21636 0.41272
 C915 C 0.87940 0.20342 0.42955
 C916 C 0.85745 0.21500 0.43979
 C917 C 0.85094 0.23961 0.43118
 C918 C 0.86671 0.25248 0.41371
 H919 H 0.93324 0.31229 0.37462
 H920 H 0.95760 0.23685 0.35116
 H921 H 0.88500 0.18436 0.43541
 H922 H 0.83408 0.24919 0.43847
 H923 H 0.89795 0.29293 0.39850
 H924 H 0.86140 0.27148 0.40747
 C925 C 0.08542 0.28219 0.57072
 C926 C 0.08819 0.28662 0.59728
 C927 C 0.06873 0.29927 0.61071
 C928 C 0.04679 0.30777 0.59761
 C929 C 0.04604 0.30494 0.57067
 N930 N 0.06471 0.29182 0.55823
 C931 C 0.10224 0.26441 0.55660
 N932 N 0.09124 0.24793 0.53945
 C933 C 0.10497 0.23039 0.52603
 C934 C 0.13157 0.22904 0.52908
 C935 C 0.14351 0.24611 0.54633
 C936 C 0.12881 0.26363 0.56046
 H937 H 0.07005 0.30080 0.63149
 H938 H 0.02990 0.31182 0.55965
 H939 H 0.09511 0.21783 0.51262
 H940 H 0.16405 0.24570 0.54904
 H941 H 0.10423 0.27877 0.60782
 H942 H 0.13809 0.27664 0.57385
 C943 C 0.09538 0.71208 0.41640
 C944 C 0.09560 0.70294 0.39099
 C945 C 0.07344 0.69157 0.38078
 C946 C 0.05104 0.68934 0.39590
 C947 C 0.05301 0.69643 0.42210
 N948 N 0.07442 0.70800 0.43123
 C949 C 0.11535 0.72926 0.42665
 N950 N 0.10755 0.74963 0.44093
 C951 C 0.12417 0.76646 0.45173
 C952 C 0.15061 0.76296 0.44906
 C953 C 0.15931 0.74199 0.43447
 C954 C 0.14163 0.72523 0.42282
 H955 H 0.07346 0.68669 0.36050
 H956 H 0.03743 0.69339 0.43544
 H957 H 0.11662 0.78211 0.46314
 H958 H 0.17959 0.73858 0.43218
 H959 H 0.11195 0.70625 0.37864
 H960 H 0.14834 0.70901 0.41169
 C961 C 0.59936 0.92217 0.74763
 C962 C 0.61232 0.91761 0.72437
 C963 C 0.62215 0.93836 0.71041
 C964 C 0.61850 0.96368 0.71927
 C965 C 0.60703 0.96693 0.74362
 N966 N 0.59784 0.94653 0.75675
 C967 C 0.58554 0.90211 0.76209
 N968 N 0.57960 0.90709 0.78713
 C969 C 0.56337 0.89218 0.80089
 C970 C 0.55117 0.87115 0.78920
 C971 C 0.55781 0.86485 0.76374
 C972 C 0.57502 0.88028 0.75009
 H973 H 0.63090 0.93456 0.69190
 H974 H 0.60523 0.98568 0.75239
 H975 H 0.55913 0.89755 0.82060
 H976 H 0.54881 0.84879 0.75399
 H977 H 0.61440 0.89840 0.71675
 H978 H 0.57868 0.87600 0.73002
 C979 C 0.41580 0.92384 0.25332
 C980 C 0.41997 0.94907 0.24506
 C981 C 0.40946 0.96942 0.25880
 C982 C 0.39478 0.96514 0.28119
 C983 C 0.39089 0.93937 0.28857
 N984 N 0.40153 0.91985 0.27486
 C985 C 0.42776 0.90161 0.24020
 N986 N 0.43105 0.87941 0.25356
 C987 C 0.44343 0.85882 0.24340
 C988 C 0.45382 0.86008 0.21851
 C989 C 0.44980 0.88235 0.20406
 C990 C 0.43661 0.90299 0.21467
 H991 H 0.41244 0.98842 0.25112
 H992 H 0.38055 0.93453 0.30591
 H993 H 0.44598 0.84191 0.25513
 H994 H 0.45711 0.88396 0.18460
 H995 H 0.43169 0.95338 0.22848
 H996 H 0.43360 0.91974 0.20289
 C997 C 0.59039 0.06537 0.26421
 C998 C 0.57497 0.04453 0.27093
 C999 C 0.58522 0.02456 0.28519
 C1000 C 0.61122 0.02468 0.29269
 C1001 C 0.62567 0.04683 0.28646
 N1002 N 0.61506 0.06619 0.27253
 C1003 C 0.57994 0.08616 0.24816
 N1004 N 0.58499 0.11110 0.25416
 C1005 C 0.57396 0.13083 0.24111
 C1006 C 0.55672 0.12584 0.22085
 C1007 C 0.55226 0.10023 0.21375
 C1008 C 0.56374 0.08043 0.22735
 H1009 H 0.57224 0.00941 0.29078
 H1010 H 0.64571 0.04844 0.29127
 H1011 H 0.57810 0.15031 0.24705
 H1012 H 0.53922 0.09542 0.19821
 H1013 H 0.55497 0.04381 0.26546
 H1014 H 0.55970 0.06078 0.22188
 C1015 C 0.38020 0.10414 0.74191
 C1016 C 0.36040 0.08960 0.75298
 C1017 C 0.35100 0.06816 0.73996
 C1018 C 0.36066 0.06161 0.71568
 C1019 C 0.37869 0.07785 0.70419
 N1020 N 0.38824 0.09821 0.71762
 C1021 C 0.39467 0.12355 0.75700
 N1022 N 0.40921 0.14121 0.74436
 C1023 C 0.42600 0.15693 0.75688
 C1024 C 0.42970 0.15450 0.78356
 C1025 C 0.41424 0.13720 0.79707
 C1026 C 0.39669 0.12181 0.78397
 H1027 H 0.33681 0.05612 0.74920
 H1028 H 0.38640 0.07337 0.68536
 H1029 H 0.43768 0.16999 0.74575
 H1030 H 0.41657 0.13467 0.81766
 H1031 H 0.35282 0.09408 0.77185
 H1032 H 0.38627 0.10756 0.79483
 C1033 C 0.57368 0.70618 0.10109
 C1034 C 0.55646 0.69676 0.08249
 C1035 C 0.56570 0.68842 0.05864
 C1036 C 0.59205 0.68878 0.05364
 C1037 C 0.60871 0.69652 0.07345
 N1038 N 0.59923 0.70546 0.09613
 C1039 C 0.56426 0.72016 0.12403
 N1040 N 0.54060 0.71499 0.13374
 C1041 C 0.52959 0.73000 0.15211
 C1042 C 0.54198 0.75238 0.16060
 C1043 C 0.56672 0.75751 0.15166
 C1044 C 0.57813 0.74118 0.13375
 H1045 H 0.55229 0.68260 0.04377
 H1046 H 0.62916 0.69719 0.07025
 H1047 H 0.51031 0.72568 0.15839
 H1048 H 0.57668 0.77481 0.15758
 H1049 H 0.53601 0.69743 0.08568
 H1050 H 0.59681 0.74605 0.12617
 C1051 C 0.42764 0.28119 0.10918
 C1052 C 0.44237 0.29591 0.09211
 C1053 C 0.43067 0.30702 0.07068
 C1054 C 0.40428 0.30411 0.06674
 C1055 C 0.38995 0.29085 0.08524
 N1056 N 0.40189 0.27938 0.10541
 C1057 C 0.44015 0.26504 0.12887
 N1058 N 0.46344 0.27179 0.13870
 C1059 C 0.47704 0.25593 0.15431
 C1060 C 0.46779 0.23127 0.15974
 C1061 C 0.44359 0.22422 0.15044
 C1062 C 0.42953 0.24120 0.13538
 H1063 H 0.44231 0.31700 0.05664
 H1064 H 0.36957 0.28810 0.08268
 H1065 H 0.49575 0.26191 0.16104
 H1066 H 0.43591 0.20529 0.15420
 H1067 H 0.46292 0.29741 0.09434
 H1068 H 0.41124 0.23510 0.12763
 C1069 C 0.60732 0.24311 0.90298
 C1070 C 0.62588 0.22932 0.91675
 C1071 C 0.63765 0.24054 0.93813
 C1072 C 0.63150 0.26563 0.94547
 C1073 C 0.61446 0.27951 0.93005
 N1074 N 0.60265 0.26794 0.90970
 C1075 C 0.59093 0.23081 0.88309
 N1076 N 0.57763 0.24585 0.86638
 C1077 C 0.55972 0.23613 0.84993
 C1078 C 0.55364 0.20992 0.85040
 C1079 C 0.56768 0.19397 0.86682
 C1080 C 0.58628 0.20426 0.88311
 H1081 H 0.65110 0.22943 0.94934
 H1082 H 0.60939 0.29900 0.93507
 H1083 H 0.54927 0.24911 0.83758
 H1084 H 0.56357 0.17364 0.86786
 H1085 H 0.63091 0.20989 0.91160
 H1086 H 0.59564 0.19158 0.89653
 C1087 C 0.37921 0.76699 0.90603
 C1088 C 0.36326 0.77882 0.92432
 C1089 C 0.35266 0.76418 0.94405
 C1090 C 0.35729 0.73779 0.94510
 C1091 C 0.37068 0.72624 0.92481
 N1092 N 0.38168 0.74101 0.90633
 C1093 C 0.39617 0.78194 0.88884
 N1094 N 0.40727 0.76996 0.86835
 C1095 C 0.42586 0.78126 0.85396
 C1096 C 0.43496 0.80577 0.86053
 C1097 C 0.42339 0.81870 0.88115
 C1098 C 0.40405 0.80694 0.89529
 H1099 H 0.34217 0.77363 0.95933
 H1100 H 0.37450 0.70587 0.92498
 H1101 H 0.43419 0.77066 0.83811
 H1102 H 0.42975 0.83767 0.88685
 H1103 H 0.35999 0.79926 0.92430
 H1104 H 0.39658 0.81696 0.91191
 C1105 C 0.75331 0.89896 0.40050
 C1106 C 0.72724 0.89697 0.39397
 C1107 C 0.71489 0.91789 0.38279
 C1108 C 0.72841 0.94064 0.37785
 C1109 C 0.75480 0.94106 0.38272
 N1110 N 0.76627 0.92069 0.39404
 C1111 C 0.76692 0.87961 0.41629
 N1112 N 0.79246 0.88302 0.42022
 C1113 C 0.80606 0.86873 0.43716
 C1114 C 0.79383 0.84994 0.45204
 C1115 C 0.76779 0.84515 0.44755
 C1116 C 0.75424 0.85993 0.42976
 H1117 H 0.69449 0.91672 0.37933
 H1118 H 0.76610 0.95797 0.37859
 H1119 H 0.82621 0.87287 0.43973
 H1120 H 0.75762 0.83086 0.45867
 H1121 H 0.71612 0.88000 0.39807
 H1122 H 0.73393 0.85659 0.42780
 C1123 C 0.27834 0.91147 0.57517
 C1124 C 0.28367 0.91114 0.60171
 C1125 C 0.29261 0.93352 0.61376
 C1126 C 0.29641 0.95593 0.59931
 C1127 C 0.29292 0.95463 0.57252
 N1128 N 0.28352 0.93300 0.56143
 C1129 C 0.26376 0.89086 0.56229
 N1130 N 0.24655 0.89783 0.54399
 C1131 C 0.23171 0.88059 0.53132
 C1132 C 0.23399 0.85435 0.53645
 C1133 C 0.25191 0.84648 0.55497
 C1134 C 0.26666 0.86478 0.56824
 H1135 H 0.29492 0.93377 0.63451
 H1136 H 0.29619 0.97130 0.56059
 H1137 H 0.21845 0.88744 0.51687
 H1138 H 0.25433 0.82634 0.55927
 H1139 H 0.27925 0.89448 0.61327
 H1140 H 0.28039 0.85864 0.58257
 C1141 C 0.24381 0.07780 0.39095
 C1142 C 0.23208 0.05747 0.37747
 C1143 C 0.24714 0.03819 0.36676
 C1144 C 0.27384 0.03929 0.36893
 C1145 C 0.28492 0.06078 0.38092
 N1146 N 0.26984 0.07907 0.39176
 C1147 C 0.22881 0.09708 0.40556
 N1148 N 0.24027 0.11950 0.41277
 C1149 C 0.22830 0.13727 0.42772
 C1150 C 0.20339 0.13273 0.43675
 C1151 C 0.19118 0.10985 0.42942
 C1152 C 0.20375 0.09203 0.41397
 H1153 H 0.23792 0.02213 0.35719
 H1154 H 0.30548 0.06235 0.38290
 H1155 H 0.23845 0.15464 0.43295
 H1156 H 0.17204 0.10542 0.43603
 H1157 H 0.21155 0.05610 0.37541
 H1158 H 0.19411 0.07417 0.40962
 C1159 C 0.74490 0.10010 0.60707
 C1160 C 0.71809 0.09927 0.60942
 C1161 C 0.70643 0.07777 0.62033
 C1162 C 0.72133 0.05717 0.62886
 C1163 C 0.74800 0.05954 0.62788
 N1164 N 0.75889 0.08043 0.61687
 C1165 C 0.75856 0.11953 0.59140
 N1166 N 0.78352 0.11492 0.58566
 C1167 C 0.79699 0.12940 0.56879
 C1168 C 0.78518 0.14975 0.55588
 C1169 C 0.75989 0.15586 0.56241
 C1170 C 0.74652 0.14088 0.58022
 H1171 H 0.68574 0.07655 0.62062
 H1172 H 0.76016 0.04425 0.63471
 H1173 H 0.81662 0.12426 0.56473
 H1174 H 0.75015 0.17159 0.55307
 H1175 H 0.70596 0.11411 0.60176
 H1176 H 0.72691 0.14577 0.58440
 C1177 C 0.91084 0.58426 0.26287
 C1178 C 0.90729 0.60760 0.27599
 C1179 C 0.92842 0.62000 0.28714
 C1180 C 0.95288 0.60913 0.28525
 C1181 C 0.95520 0.58511 0.27325
 N1182 N 0.93457 0.57371 0.26220
 C1183 C 0.89036 0.57159 0.24780
 N1184 N 0.89738 0.55710 0.22716
 C1185 C 0.88018 0.54446 0.21217
 C1186 C 0.85399 0.54558 0.21784
 C1187 C 0.84617 0.56033 0.23912
 C1188 C 0.86430 0.57353 0.25407
 H1189 H 0.92587 0.63859 0.29611
 H1190 H 0.97359 0.57573 0.27191
 H1191 H 0.88713 0.53313 0.19615
 H1192 H 0.82614 0.56154 0.24425
 H1193 H 0.88879 0.61682 0.27652
 H1194 H 0.85803 0.58452 0.27061
 C1195 C 0.91792 0.41146 0.74220
 C1196 C 0.91346 0.38921 0.72751
 C1197 C 0.93419 0.37657 0.71610
 C1198 C 0.95917 0.38618 0.71924
 C1199 C 0.96246 0.40908 0.73316
 N1200 N 0.94217 0.42070 0.74437
 C1201 C 0.89763 0.42471 0.75675
 N1202 N 0.90449 0.43735 0.77867
 C1203 C 0.88769 0.45129 0.79273
 C1204 C 0.86223 0.45379 0.78458
 C1205 C 0.85451 0.44070 0.76213
 C1206 C 0.87214 0.42595 0.74823
 H1207 H 0.93082 0.35888 0.70563
 H1208 H 0.98121 0.41765 0.73547
 H1209 H 0.89458 0.46112 0.80981
 H1210 H 0.83507 0.44225 0.75510
 H1211 H 0.89445 0.38113 0.72570
 H1212 H 0.86613 0.41650 0.73062
 C1213 C 0.10168 0.58814 0.73867
 C1214 C 0.10081 0.59303 0.71200
 C1215 C 0.07943 0.60533 0.70149
 C1216 C 0.05904 0.61267 0.71743
 C1217 C 0.06133 0.60868 0.74402
 N1218 N 0.08211 0.59659 0.75372
 C1219 C 0.12207 0.57295 0.75136
 N1220 N 0.12201 0.57214 0.77756
 C1221 C 0.13776 0.55673 0.79125
 C1222 C 0.15479 0.54025 0.77856
 C1223 C 0.15606 0.54130 0.75157
 C1224 C 0.13968 0.55756 0.73784
 H1225 H 0.07835 0.60818 0.68085
 H1226 H 0.04624 0.61450 0.75703
 H1227 H 0.13636 0.55685 0.81206
 H1228 H 0.16889 0.52881 0.74106
 H1229 H 0.11605 0.58717 0.69926
 H1230 H 0.14023 0.55710 0.71703
 C1231 C 0.07811 0.42679 0.26864
 C1232 C 0.08047 0.40045 0.27328
 C1233 C 0.05938 0.38672 0.28245
 C1234 C 0.03609 0.39924 0.28737
 C1235 C 0.03529 0.42597 0.28421
 N1236 N 0.05577 0.43874 0.27449
 C1237 C 0.09783 0.44118 0.25441
 N1238 N 0.08998 0.45862 0.23671
 C1239 C 0.10665 0.47178 0.22170
 C1240 C 0.13306 0.46794 0.22426
 C1241 C 0.14175 0.45058 0.24287
 C1242 C 0.12414 0.43688 0.25782
 H1243 H 0.06091 0.36612 0.28421
 H1244 H 0.01809 0.43664 0.28845
 H1245 H 0.09923 0.48533 0.20784
 H1246 H 0.16203 0.44726 0.24545
 H1247 H 0.09778 0.39028 0.26826
 H1248 H 0.13095 0.42326 0.27192
   
