data_POSCAR
  _audit_creation_date              2014-09-24
  _audit_creation_method            'ToBaCCo'
  _symmetry_space_group_name_H-M    'P1'
  _symmetry_Int_Tables_number       1
  _symmetry_cell_setting            triclinic
  loop_
  _symmetry_equiv_pos_as_xyz
 x,y,z
_cell_length_a 56.0928
_cell_length_b 55.9387
_cell_length_c 56.4387
_cell_angle_alpha 90.015500
_cell_angle_beta 89.905700
_cell_angle_gamma 90.156600
loop_
  _atom_site_label
  _atom_site_type_symbol
  _atom_site_fract_x
  _atom_site_fract_y
  _atom_site_fract_z
N1 N 0.16892 0.22849 0.23221
 N2 N 0.17571 0.20980 0.24456
 C3 C 0.16064 0.20673 0.26292
 C4 C 0.14335 0.22441 0.26204
 C5 C 0.14928 0.23788 0.24224
 H6 H 0.16209 0.19261 0.27590
 H7 H 0.13983 0.25314 0.23529
 Cu8 Cu 0.20328 0.19106 0.23499
 Cu9 Cu 0.18565 0.23887 0.20368
 Cu10 Cu 0.23401 0.20467 0.18574
 N11 N 0.23068 0.17223 0.22509
 N12 N 0.24209 0.17720 0.20532
 C13 C 0.25965 0.16116 0.20212
 C14 C 0.25946 0.14545 0.22104
 C15 C 0.24087 0.15305 0.23533
 H16 H 0.27194 0.16121 0.18735
 H17 H 0.23504 0.14493 0.25175
 N18 N 0.22313 0.23321 0.16843
 N19 N 0.20489 0.24635 0.17531
 C20 C 0.20227 0.26470 0.16007
 C21 C 0.21975 0.26308 0.14277
 C22 C 0.23260 0.24285 0.14869
 H23 H 0.18883 0.27841 0.16164
 H24 H 0.24770 0.23558 0.13926
 H25 H 0.19819 0.20549 0.19445
 H26 H 0.21853 0.22486 0.21225
 N27 N 0.66789 0.72657 0.72999
 N28 N 0.67513 0.70835 0.74275
 C29 C 0.66022 0.70545 0.76126
 C30 C 0.64266 0.72281 0.76009
 C31 C 0.64816 0.73586 0.73992
 H32 H 0.66227 0.69195 0.77479
 H33 H 0.63864 0.75106 0.73295
 Cu34 Cu 0.70354 0.69048 0.73402
 Cu35 Cu 0.68514 0.73766 0.70213
 Cu36 Cu 0.73728 0.70770 0.68776
 N37 N 0.73248 0.67342 0.72542
 N38 N 0.74568 0.68031 0.70742
 C39 C 0.76426 0.66530 0.70512
 C40 C 0.76269 0.64795 0.72264
 C41 C 0.74223 0.65379 0.73519
 H42 H 0.77779 0.66688 0.69156
 H43 H 0.73474 0.64425 0.75008
 N44 N 0.72561 0.73567 0.66994
 N45 N 0.70520 0.74633 0.67476
 C46 C 0.70167 0.76401 0.65897
 C47 C 0.72089 0.76471 0.64365
 C48 C 0.73576 0.74655 0.65115
 H49 H 0.68653 0.77593 0.65890
 H50 H 0.75256 0.74145 0.64323
 H51 H 0.70098 0.70547 0.69353
 H52 H 0.71811 0.72592 0.71340
 N53 N 0.32807 0.77025 0.73501
 N54 N 0.32237 0.78982 0.74655
 C55 C 0.33784 0.79301 0.76450
 C56 C 0.35422 0.77446 0.76422
 C57 C 0.34733 0.76034 0.74520
 H58 H 0.33733 0.80791 0.77666
 H59 H 0.35595 0.74434 0.73880
 Cu60 Cu 0.29585 0.80961 0.73631
 Cu61 Cu 0.31102 0.75977 0.70678
 Cu62 Cu 0.26493 0.79605 0.68730
 N63 N 0.26908 0.82911 0.72610
 N64 N 0.25743 0.82392 0.70661
 C65 C 0.23995 0.84000 0.70342
 C66 C 0.24045 0.85630 0.72202
 C67 C 0.25934 0.84869 0.73606
 H68 H 0.22759 0.83941 0.68878
 H69 H 0.26562 0.85668 0.75231
 N70 N 0.27506 0.76694 0.67043
 N71 N 0.29175 0.75248 0.67849
 C72 C 0.29369 0.73364 0.66373
 C73 C 0.27770 0.73659 0.64538
 C74 C 0.26624 0.75788 0.65013
 H75 H 0.30618 0.71911 0.66580
 H76 H 0.25222 0.76591 0.63973
 H77 H 0.30057 0.79353 0.69642
 H78 H 0.27891 0.77599 0.71461
 N79 N 0.83004 0.27133 0.23194
 N80 N 0.82401 0.29058 0.24382
 C81 C 0.83940 0.29370 0.26184
 C82 C 0.85602 0.27529 0.26145
 C83 C 0.84934 0.26144 0.24208
 H84 H 0.83833 0.30827 0.27434
 H85 H 0.85792 0.24549 0.23553
 Cu86 Cu 0.79634 0.30951 0.23490
 Cu87 Cu 0.81280 0.26085 0.20386
 Cu88 Cu 0.76512 0.29561 0.18591
 N89 N 0.76947 0.32879 0.22448
 N90 N 0.75768 0.32350 0.20506
 C91 C 0.74012 0.33953 0.20194
 C92 C 0.74080 0.35571 0.22047
 C93 C 0.75967 0.34832 0.23445
 H94 H 0.72741 0.33908 0.18756
 H95 H 0.76585 0.35665 0.25061
 N96 N 0.77526 0.26666 0.16891
 N97 N 0.79323 0.25325 0.17586
 C98 C 0.79552 0.23473 0.16078
 C99 C 0.77814 0.23653 0.14343
 C100 C 0.76563 0.25703 0.14927
 H101 H 0.80900 0.22107 0.16224
 H102 H 0.75047 0.26436 0.14003
 H103 H 0.80086 0.29445 0.19468
 H104 H 0.78018 0.27563 0.21281
 N105 N 0.83026 0.72854 0.26951
 N106 N 0.82421 0.70915 0.25783
 C107 C 0.83963 0.70586 0.23984
 C108 C 0.85634 0.72420 0.24016
 C109 C 0.84973 0.73826 0.25933
 H110 H 0.83865 0.69123 0.22740
 H111 H 0.85845 0.75428 0.26562
 Cu112 Cu 0.79664 0.69020 0.26723
 Cu113 Cu 0.81271 0.73948 0.29730
 Cu114 Cu 0.76429 0.70508 0.31508
 N115 N 0.76934 0.67114 0.27719
 N116 N 0.75664 0.67720 0.29582
 C117 C 0.73859 0.66151 0.29849
 C118 C 0.74006 0.64461 0.28061
 C119 C 0.75986 0.65131 0.26745
 H120 H 0.72546 0.66231 0.31251
 H121 H 0.76658 0.64265 0.25169
 N122 N 0.77482 0.73397 0.33216
 N123 N 0.79280 0.74746 0.32502
 C124 C 0.79509 0.76613 0.33994
 C125 C 0.77789 0.76417 0.35742
 C126 C 0.76540 0.74356 0.35195
 H127 H 0.80856 0.77991 0.33851
 H128 H 0.75033 0.73631 0.36153
 H129 H 0.80030 0.70614 0.30725
 H130 H 0.78023 0.72451 0.28827
 N131 N 0.32900 0.22897 -0.23556
 N132 N 0.32369 0.20902 -0.24665
 C133 C 0.33927 0.20578 -0.26455
 C134 C 0.35541 0.22473 -0.26475
 C135 C 0.34811 0.23910 -0.24598
 H136 H 0.33890 0.19060 -0.27635
 H137 H 0.35619 0.25554 -0.23993
 Cu138 Cu 0.29716 0.18897 -0.23634
 Cu139 Cu 0.31157 0.23975 -0.20765
 Cu140 Cu 0.26460 0.20423 -0.18861
 N141 N 0.26974 0.17005 -0.22623
 N142 N 0.25725 0.17610 -0.20748
 C143 C 0.23938 0.16033 -0.20444
 C144 C 0.24060 0.14332 -0.22226
 C145 C 0.26017 0.15014 -0.23578
 H146 H 0.22631 0.16145 -0.19041
 H147 H 0.26697 0.14131 -0.25140
 N148 N 0.27465 0.23346 -0.17195
 N149 N 0.29194 0.24750 -0.17967
 C150 C 0.29415 0.26621 -0.16479
 C151 C 0.27765 0.26366 -0.14672
 C152 C 0.26562 0.24270 -0.15183
 H153 H 0.30722 0.28034 -0.16654
 H154 H 0.25120 0.23489 -0.14169
 H155 H 0.30050 0.20627 -0.19680
 H156 H 0.27964 0.22329 -0.21623
 N157 N 0.66915 0.27340 -0.23267
 N158 N 0.67587 0.29209 -0.24511
 C159 C 0.66057 0.29513 -0.26323
 C160 C 0.64319 0.27732 -0.26222
 C161 C 0.64939 0.26392 -0.24241
 H162 H 0.66209 0.30930 -0.27612
 H163 H 0.64039 0.24831 -0.23550
 Cu164 Cu 0.70408 0.31058 -0.23650
 Cu165 Cu 0.68664 0.26258 -0.20486
 Cu166 Cu 0.73619 0.29570 -0.18842
 N167 N 0.73161 0.32943 -0.22652
 N168 N 0.74404 0.32343 -0.20775
 C169 C 0.76198 0.33916 -0.20484
 C170 C 0.76087 0.35607 -0.22276
 C171 C 0.74125 0.34926 -0.23618
 H172 H 0.77478 0.33835 -0.19058
 H173 H 0.73458 0.35796 -0.25190
 N174 N 0.72547 0.26708 -0.17106
 N175 N 0.70660 0.25446 -0.17726
 C176 C 0.70394 0.23615 -0.16196
 C177 C 0.72202 0.23724 -0.14525
 C178 C 0.73531 0.25715 -0.15168
 H179 H 0.68977 0.22308 -0.16289
 H180 H 0.75108 0.26390 -0.14300
 H181 H 0.70012 0.29586 -0.19603
 H182 H 0.71943 0.27626 -0.21472
 N183 N 0.16886 0.77264 0.26893
 N184 N 0.17489 0.79205 0.25724
 C185 C 0.15938 0.79535 0.23935
 C186 C 0.14262 0.77705 0.23982
 C187 C 0.14930 0.76300 0.25894
 H188 H 0.16043 0.80987 0.22678
 H189 H 0.14072 0.74687 0.26518
 Cu190 Cu 0.20287 0.81052 0.26644
 Cu191 Cu 0.18705 0.76099 0.29596
 Cu192 Cu 0.23764 0.79329 0.31153
 N193 N 0.23092 0.82897 0.27545
 N194 N 0.24495 0.82156 0.29255
 C195 C 0.26348 0.83674 0.29463
 C196 C 0.26093 0.85496 0.27808
 C197 C 0.23990 0.84931 0.26628
 H198 H 0.27744 0.83481 0.30765
 H199 H 0.23192 0.85895 0.25174
 N200 N 0.22708 0.76429 0.32857
 N201 N 0.20778 0.75212 0.32272
 C202 C 0.20500 0.73382 0.33798
 C203 C 0.22339 0.73445 0.35431
 C204 C 0.23706 0.75403 0.34772
 H205 H 0.19061 0.72097 0.33725
 H206 H 0.25282 0.76067 0.35654
 H207 H 0.20127 0.79355 0.30612
 H208 H 0.21943 0.77511 0.28535
 N209 N 0.47978 0.42322 0.48326
 N210 N 0.46013 0.42868 0.49470
 C211 C 0.45701 0.41311 0.51263
 C212 C 0.47572 0.39692 0.51246
 C213 C 0.48982 0.40401 0.49349
 H214 H 0.44204 0.41341 0.52468
 H215 H 0.50601 0.39569 0.48725
 Cu216 Cu 0.44026 0.45518 0.48446
 Cu217 Cu 0.49031 0.44067 0.45525
 Cu218 Cu 0.45383 0.48658 0.43555
 N219 N 0.42079 0.48198 0.47427
 N220 N 0.42589 0.49378 0.45477
 C221 C 0.40982 0.51131 0.45173
 C222 C 0.39376 0.51059 0.47039
 C223 C 0.40131 0.49169 0.48435
 H224 H 0.41020 0.52403 0.43733
 H225 H 0.39320 0.48544 0.50059
 N226 N 0.48310 0.47674 0.41890
 N227 N 0.49770 0.46026 0.42716
 C228 C 0.51677 0.45872 0.41270
 C229 C 0.51382 0.47474 0.39433
 C230 C 0.49229 0.48580 0.39874
 H231 H 0.53145 0.44645 0.41495
 H232 H 0.48419 0.49972 0.38822
 H233 H 0.47365 0.47275 0.46298
 H234 H 0.45657 0.45088 0.44463
 N235 N -0.02261 -0.07922 0.98251
 N236 N -0.04323 -0.07498 0.99270
 C237 C -0.04725 -0.09166 1.00943
 C238 C -0.02806 -0.10728 1.00986
 C239 C -0.01276 -0.09869 0.99243
 H240 H -0.06283 -0.09206 1.02070
 H241 H 0.00442 -0.10578 0.98741
 Cu242 Cu -0.06222 -0.04734 0.98392
 Cu243 Cu -0.00952 -0.05831 0.95810
 Cu244 Cu -0.04928 -0.01755 0.93408
 N245 N -0.07874 -0.01800 0.97562
 N246 N -0.07359 -0.00637 0.95605
 C247 C -0.08841 0.01236 0.95384
 C248 C -0.10375 0.01255 0.97313
 C249 C -0.09698 -0.00701 0.98661
 H250 H -0.08842 0.02445 0.93890
 H251 H -0.10491 -0.01301 1.00303
 N252 N -0.01868 -0.02562 0.91905
 N253 N -0.00340 -0.04084 0.92835
 C254 C 0.01571 -0.04250 0.91399
 C255 C 0.01241 -0.02747 0.89472
 C256 C -0.00964 -0.01704 0.89865
 H257 H 0.03084 -0.05389 0.91738
 H258 H -0.01860 -0.00426 0.88745
 H259 H -0.02999 -0.02734 0.96265
 H260 H -0.04291 -0.05275 0.94545
 N261 N 1.02587 0.58150 0.97973
 N262 N 1.04232 0.57304 0.99397
 C263 C 1.04383 0.58715 1.01323
 C264 C 1.02743 0.60552 1.01099
 C265 C 1.01636 0.60129 0.98942
 H266 H 1.05601 0.58426 1.02776
 H267 H 1.00274 0.61201 0.98109
 Cu268 Cu 1.06075 0.54493 0.98546
 Cu269 Cu 1.01896 0.56683 0.94915
 Cu270 Cu 1.04206 0.50984 0.94115
 N271 N 1.07979 0.51816 0.97438
 N272 N 1.07233 0.50435 0.95708
 C273 C 1.08805 0.48652 0.95380
 C274 C 1.10652 0.48930 0.96991
 C275 C 1.10061 0.50968 0.98263
 H276 H 1.08582 0.47234 0.94098
 H277 H 1.11053 0.51766 0.99701
 N278 N 1.01679 0.52327 0.92100
 N279 N 1.00831 0.54506 0.92378
 C280 C 0.99146 0.54898 0.90728
 C281 C 0.98927 0.52871 0.89328
 C282 C 1.00572 0.51280 0.90256
 H283 H 0.98155 0.56543 0.90566
 H284 H 1.00935 0.49486 0.89647
 H285 H 1.02467 0.53418 0.96365
 H286 H 1.04901 0.54522 0.94388
 N287 N 0.52095 0.07880 0.48162
 N288 N 0.54105 0.07363 0.49235
 C289 C 0.54481 0.08959 0.50983
 C290 C 0.52602 0.10570 0.51015
 C291 C 0.51125 0.09818 0.49189
 H292 H 0.56011 0.08945 0.52142
 H293 H 0.49461 0.10610 0.48641
 Cu294 Cu 0.55998 0.04620 0.48263
 Cu295 Cu 0.50898 0.06028 0.45487
 Cu296 Cu 0.54293 0.01183 0.43689
 N297 N 0.57898 0.01908 0.47223
 N298 N 0.57159 0.00513 0.45497
 C299 C 0.58704 -0.01300 0.45219
 C300 C 0.60525 -0.01013 0.46840
 C301 C 0.59965 0.01047 0.48077
 H302 H 0.58533 -0.02709 0.43918
 H303 H 0.60963 0.01820 0.49526
 N304 N 0.51343 0.02151 0.42083
 N305 N 0.50001 0.03943 0.42812
 C306 C 0.48118 0.04149 0.41348
 C307 C 0.48315 0.02433 0.39599
 C308 C 0.50378 0.01202 0.40113
 H309 H 0.46754 0.05505 0.41479
 H310 H 0.51118 -0.00268 0.39113
 H311 H 0.52489 0.02847 0.46419
 H312 H 0.54194 0.04822 0.44350
 N313 N -0.02376 0.08027 0.52063
 N314 N -0.04454 0.07559 0.51099
 C315 C -0.04851 0.09127 0.49333
 C316 C -0.02913 0.10670 0.49180
 C317 C -0.01381 0.09906 0.50951
 H318 H -0.06430 0.09122 0.48238
 H319 H 0.00342 0.10642 0.51400
 Cu320 Cu -0.06437 0.04929 0.52206
 Cu321 Cu -0.01098 0.06158 0.54670
 Cu322 Cu -0.04051 0.00909 0.55982
 N323 N -0.07875 0.01812 0.52739
 N324 N -0.06863 0.00200 0.54102
 C325 C -0.08221 -0.01787 0.54130
 C326 C -0.10188 -0.01381 0.52729
 C327 C -0.09930 0.00918 0.51882
 H328 H -0.07864 -0.03369 0.55170
 H329 H -0.11157 0.01871 0.50750
 N330 N -0.01200 0.01980 0.57710
 N331 N -0.00096 0.04007 0.57237
 C332 C 0.01679 0.04322 0.58809
 C333 C 0.01694 0.02399 0.60362
 C334 C -0.00162 0.00951 0.59598
 H335 H 0.02839 0.05865 0.58840
 H336 H -0.00766 -0.00699 0.60394
 H337 H -0.02712 0.03098 0.53357
 H338 H -0.04247 0.04598 0.55915
 N339 N 0.47709 0.58083 0.01961
 N340 N 0.45858 0.57394 0.00712
 C341 C 0.45547 0.58926 -0.01100
 C342 C 0.47303 0.60672 -0.00985
 C343 C 0.48640 0.60073 0.00989
 H344 H 0.44164 0.58762 -0.02419
 H345 H 0.50176 0.61009 0.01679
 Cu346 Cu 0.44048 0.54552 0.01561
 Cu347 Cu 0.48811 0.56327 0.04720
 Cu348 Cu 0.45580 0.51294 0.06334
 N349 N 0.42207 0.51774 0.02540
 N350 N 0.42812 0.50505 0.04400
 C351 C 0.41252 0.48692 0.04665
 C352 C 0.39569 0.48827 0.02871
 C353 C 0.40239 0.50815 0.01560
 H354 H 0.41353 0.47369 0.06055
 H355 H 0.39356 0.51524 0.00015
 N356 N 0.48435 0.52393 0.08061
 N357 N 0.49653 0.54318 0.07452
 C358 C 0.51487 0.54603 0.08963
 C359 C 0.51430 0.52768 0.10607
 C360 C 0.49467 0.51401 0.09975
 H361 H 0.52788 0.56027 0.08855
 H362 H 0.48821 0.49812 0.10859
 H363 H 0.47487 0.53023 0.03714
 H364 H 0.45511 0.54911 0.05609
 N365 N 0.52311 -0.08085 0.02019
 N366 N 0.54184 -0.07414 0.00787
 C367 C 0.54511 -0.08956 -0.01015
 C368 C 0.52743 -0.10691 -0.00914
 C369 C 0.51382 -0.10074 0.01044
 H370 H 0.55915 -0.08806 -0.02320
 H371 H 0.49829 -0.10997 0.01720
 Cu372 Cu 0.55994 -0.04574 0.01643
 Cu373 Cu 0.51187 -0.06312 0.04766
 Cu374 Cu 0.54440 -0.01296 0.06397
 N375 N 0.57830 -0.01788 0.02609
 N376 N 0.57225 -0.00517 0.04471
 C377 C 0.58785 0.01297 0.04728
 C378 C 0.60468 0.01163 0.02926
 C379 C 0.59795 -0.00826 0.01619
 H380 H 0.58694 0.02611 0.06129
 H381 H 0.60658 -0.01519 0.00053
 N382 N 0.51564 -0.02378 0.08114
 N383 N 0.50330 -0.04287 0.07490
 C384 C 0.48474 -0.04551 0.08984
 C385 C 0.48534 -0.02720 0.10635
 C386 C 0.50522 -0.01376 0.10023
 H387 H 0.47159 -0.05960 0.08861
 H388 H 0.51176 0.00203 0.10915
 H389 H 0.52543 -0.03021 0.03770
 H390 H 0.54483 -0.04920 0.05680
 N391 N 1.02274 0.41855 0.51913
 N392 N 1.04224 0.42432 0.50754
 C393 C 1.04522 0.40899 0.48938
 C394 C 1.02660 0.39260 0.48958
 C395 C 1.01270 0.39934 0.50880
 H396 H 1.05984 0.40980 0.47693
 H397 H 0.99660 0.39079 0.51509
 Cu398 Cu 1.06184 0.45140 0.51711
 Cu399 Cu 1.01212 0.43593 0.54711
 Cu400 Cu 1.04897 0.48137 0.56718
 N401 N 1.07941 0.47995 0.52635
 N402 N 1.07423 0.49160 0.54587
 C403 C 1.08933 0.51013 0.54832
 C404 C 1.10495 0.51024 0.52924
 C405 C 1.09800 0.49076 0.51564
 H406 H 1.08898 0.52240 0.56310
 H407 H 1.10598 0.48467 0.49930
 N408 N 1.01894 0.47259 0.58299
 N409 N 1.00471 0.45551 0.57521
 C410 C 0.98570 0.45391 0.58974
 C411 C 0.98799 0.47086 0.60752
 C412 C 1.00931 0.48239 0.60256
 H413 H 0.97123 0.44134 0.58747
 H414 H 1.01740 0.49674 0.61256
 H415 H 1.02892 0.46825 0.53955
 H416 H 1.04577 0.44556 0.55708
 Si417 Si 0.37210 0.00051 0.25022
 Si418 Si 0.12622 -0.00125 0.75073
 Si419 Si 0.62705 0.49989 0.24994
 Si420 Si 0.87435 0.50174 0.75053
 Si421 Si 0.25034 0.37550 -0.00145
 Si422 Si 0.75010 0.12409 -0.00116
 Si423 Si 0.24951 0.62403 0.50077
 Si424 Si 0.74986 0.87833 0.50040
 Si425 Si -0.00168 0.24877 0.37524
 Si426 Si -0.00034 0.74955 0.12489
 Si427 Si 0.50057 0.25041 0.62399
 Si428 Si 0.50024 0.75014 0.87556
 C429 C 0.08377 0.23428 0.30896
 C430 C 0.08936 0.25208 0.29232
 C431 C 0.10887 0.24880 0.27709
 C432 C 0.12278 0.22786 0.27835
 C433 C 0.11683 0.21020 0.29522
 C434 C 0.09738 0.21333 0.31056
 C435 C 0.06324 0.23762 0.32497
 C436 C 0.05762 0.21979 0.34160
 C437 C 0.03805 0.22305 0.35676
 C438 C 0.02437 0.24401 0.35539
 C439 C 0.03004 0.26157 0.33849
 C440 C 0.04957 0.25854 0.32327
 C441 C 0.09122 0.19590 0.32744
 C442 C 0.07168 0.19907 0.34270
 C443 C 0.07530 0.27281 0.29122
 C444 C 0.05573 0.27598 0.30643
 H445 H 0.10158 0.17965 0.32888
 H446 H 0.06755 0.18520 0.35547
 H447 H 0.07944 0.28670 0.27847
 H448 H 0.04534 0.29221 0.30499
 H449 H 0.11320 0.26266 0.26442
 H450 H 0.12712 0.19392 0.29640
 H451 H 0.03354 0.20928 0.36947
 H452 H 0.01931 0.27763 0.33733
 C453 C 0.58462 0.73425 0.80842
 C454 C 0.59007 0.75178 0.79146
 C455 C 0.60910 0.74798 0.77577
 C456 C 0.62264 0.72680 0.77688
 C457 C 0.61689 0.70945 0.79412
 C458 C 0.59791 0.71308 0.80991
 C459 C 0.56452 0.73807 0.82483
 C460 C 0.55894 0.72045 0.84169
 C461 C 0.53966 0.72408 0.85710
 C462 C 0.52623 0.74520 0.85576
 C463 C 0.53192 0.76262 0.83874
 C464 C 0.55113 0.75919 0.82323
 C465 C 0.59187 0.69591 0.82710
 C466 C 0.57270 0.69953 0.84271
 C467 C 0.57635 0.77274 0.79049
 C468 C 0.55720 0.77638 0.80610
 H469 H 0.60201 0.67952 0.82846
 H470 H 0.56861 0.68583 0.85567
 H471 H 0.58041 0.78643 0.77750
 H472 H 0.54702 0.79275 0.80472
 H473 H 0.61334 0.76164 0.76285
 H474 H 0.62693 0.69299 0.79517
 H475 H 0.53511 0.71041 0.86990
 H476 H 0.52136 0.77879 0.83760
 C477 C 0.41446 0.76464 0.81009
 C478 C 0.40873 0.74687 0.79349
 C479 C 0.38899 0.75010 0.77861
 C480 C 0.37500 0.77097 0.78019
 C481 C 0.38111 0.78860 0.79703
 C482 C 0.40078 0.78552 0.81200
 C483 C 0.43517 0.76134 0.82579
 C484 C 0.44089 0.77914 0.84241
 C485 C 0.46056 0.77588 0.85734
 C486 C 0.47422 0.75493 0.85582
 C487 C 0.46851 0.73740 0.83889
 C488 C 0.44888 0.74046 0.82386
 C489 C 0.40708 0.80295 0.82882
 C490 C 0.42680 0.79981 0.84377
 C491 C 0.42289 0.72621 0.79208
 C492 C 0.44264 0.72307 0.80700
 H493 H 0.39667 0.81915 0.83046
 H494 H 0.43103 0.81367 0.85651
 H495 H 0.41868 0.71236 0.77932
 H496 H 0.45308 0.70688 0.80535
 H497 H 0.38462 0.73628 0.76592
 H498 H 0.37077 0.80482 0.79851
 H499 H 0.46514 0.78965 0.87002
 H500 H 0.47924 0.72137 0.83759
 C501 C -0.08633 0.26420 0.30842
 C502 C -0.09114 0.24718 0.29080
 C503 C -0.11023 0.25094 0.27521
 C504 C -0.12473 0.27153 0.27716
 C505 C -0.11952 0.28829 0.29522
 C506 C -0.10037 0.28477 0.31075
 C507 C -0.06614 0.26046 0.32471
 C508 C -0.06114 0.27768 0.34215
 C509 C -0.04175 0.27420 0.35739
 C510 C -0.02770 0.25354 0.35545
 C511 C -0.03288 0.23645 0.33792
 C512 C -0.05211 0.23983 0.32244
 C513 C -0.09492 0.30151 0.32852
 C514 C -0.07561 0.29805 0.34392
 C515 C -0.07672 0.22672 0.28911
 C516 C -0.05755 0.22310 0.30468
 H517 H -0.10563 0.31747 0.33051
 H518 H -0.07198 0.31144 0.35732
 H519 H -0.08026 0.21340 0.27562
 H520 H -0.04688 0.20710 0.30274
 H521 H -0.11370 0.23761 0.26176
 H522 H -0.13006 0.30432 0.29725
 H523 H -0.03766 0.28760 0.37060
 H524 H -0.02188 0.22062 0.33633
 C525 C -0.08481 0.73470 0.19238
 C526 C -0.09888 0.71403 0.19042
 C527 C -0.11803 0.71069 0.20608
 C528 C -0.12324 0.72785 0.22367
 C529 C -0.10881 0.74850 0.22533
 C530 C -0.08960 0.75200 0.20974
 C531 C -0.06464 0.73827 0.17595
 C532 C -0.05054 0.75895 0.17790
 C533 C -0.03137 0.76220 0.16225
 C534 C -0.02634 0.74495 0.14485
 C535 C -0.04046 0.72424 0.14321
 C536 C -0.05977 0.72086 0.15867
 C537 C -0.07507 0.77247 0.21116
 C538 C -0.05588 0.77589 0.19550
 C539 C -0.09351 0.69705 0.17286
 C540 C -0.07427 0.70040 0.15727
 H541 H -0.07856 0.78596 0.22449
 H542 H -0.04512 0.79191 0.19720
 H543 H -0.10425 0.68102 0.17115
 H544 H -0.07072 0.68687 0.14399
 H545 H -0.12871 0.69465 0.20450
 H546 H -0.11246 0.76194 0.23862
 H547 H -0.02030 0.77807 0.16361
 H548 H -0.03648 0.71074 0.13009
 C549 C 0.41436 0.23526 0.68943
 C550 C 0.40002 0.21487 0.68674
 C551 C 0.38044 0.21150 0.70189
 C552 C 0.37502 0.22833 0.71983
 C553 C 0.38977 0.24877 0.72207
 C554 C 0.40939 0.25228 0.70699
 C555 C 0.43503 0.23883 0.67360
 C556 C 0.44944 0.25920 0.67637
 C557 C 0.46912 0.26244 0.66134
 C558 C 0.47421 0.24562 0.64355
 C559 C 0.45974 0.22521 0.64107
 C560 C 0.44004 0.22175 0.65605
 C561 C 0.42418 0.27250 0.70916
 C562 C 0.44387 0.27589 0.69412
 C563 C 0.40560 0.19818 0.66896
 C564 C 0.42526 0.20156 0.65388
 H565 H 0.42053 0.28580 0.72263
 H566 H 0.45482 0.29171 0.69642
 H567 H 0.39468 0.18234 0.66668
 H568 H 0.42892 0.18825 0.64041
 H569 H 0.36965 0.19563 0.69957
 H570 H 0.38624 0.26210 0.73549
 H571 H 0.48043 0.27805 0.66337
 H572 H 0.46373 0.21203 0.62762
 C573 C 0.58532 0.26610 0.69093
 C574 C 0.58833 0.25078 0.71035
 C575 C 0.60750 0.25459 0.72588
 C576 C 0.62380 0.27361 0.72216
 C577 C 0.62028 0.28877 0.70241
 C578 C 0.60115 0.28510 0.68683
 C579 C 0.56515 0.26220 0.67460
 C580 C 0.56201 0.27771 0.65530
 C581 C 0.54262 0.27415 0.64002
 C582 C 0.52673 0.25504 0.64378
 C583 C 0.53018 0.23956 0.66308
 C584 C 0.54933 0.24313 0.67866
 C585 C 0.59753 0.30012 0.66719
 C586 C 0.57827 0.29651 0.65173
 C587 C 0.57207 0.23192 0.71388
 C588 C 0.55293 0.22814 0.69829
 H589 H 0.60966 0.31482 0.66377
 H590 H 0.57611 0.30854 0.63684
 H591 H 0.57415 0.21997 0.72883
 H592 H 0.54082 0.21341 0.70167
 H593 H 0.60948 0.24263 0.74078
 H594 H 0.63231 0.30349 0.69890
 H595 H 0.54002 0.28626 0.62533
 H596 H 0.51784 0.22490 0.66604
 C597 C 0.08398 0.76574 0.19210
 C598 C 0.08891 0.74858 0.20953
 C599 C 0.10807 0.75235 0.22506
 C600 C 0.12228 0.77314 0.22332
 C601 C 0.11695 0.79016 0.20566
 C602 C 0.09785 0.78654 0.19003
 C603 C 0.06385 0.76188 0.17574
 C604 C 0.05883 0.77912 0.15836
 C605 C 0.03958 0.77543 0.14294
 C606 C 0.02564 0.75460 0.14474
 C607 C 0.03076 0.73758 0.16232
 C608 C 0.04992 0.74110 0.17787
 C609 C 0.09233 0.80335 0.17238
 C610 C 0.07314 0.79971 0.15682
 C611 C 0.07458 0.72798 0.21109
 C612 C 0.05541 0.72431 0.19553
 H613 H 0.10291 0.81948 0.17057
 H614 H 0.06948 0.81313 0.14348
 H615 H 0.07820 0.71459 0.22446
 H616 H 0.04479 0.70820 0.19735
 H617 H 0.11182 0.73899 0.23839
 H618 H 0.12749 0.80629 0.20401
 H619 H 0.03548 0.78880 0.12973
 H620 H 0.01980 0.72166 0.16386
 C621 C 0.30675 0.08676 0.23305
 C622 C 0.30170 0.09380 0.20973
 C623 C 0.28631 0.11314 0.20588
 C624 C 0.27575 0.12513 0.22517
 C625 C 0.28087 0.11769 0.24843
 C626 C 0.29650 0.09861 0.25249
 C627 C 0.32296 0.06647 0.23722
 C628 C 0.32800 0.05944 0.26053
 C629 C 0.34313 0.03995 0.26440
 C630 C 0.35323 0.02754 0.24521
 C631 C 0.34798 0.03481 0.22192
 C632 C 0.33289 0.05433 0.21781
 C633 C 0.30211 0.09114 0.27558
 C634 C 0.31762 0.07191 0.27953
 C635 C 0.31206 0.08128 0.19074
 C636 C 0.32734 0.06184 0.19472
 H637 H 0.29442 0.10021 0.29072
 H638 H 0.32144 0.06669 0.29761
 H639 H 0.30824 0.08648 0.17266
 H640 H 0.33485 0.05259 0.17958
 H641 H 0.28225 0.11859 0.18791
 H642 H 0.27301 0.12697 0.26337
 H643 H 0.34672 0.03452 0.28233
 H644 H 0.35526 0.02507 0.20699
 C645 C 0.80907 0.58803 0.73416
 C646 C 0.81176 0.60188 0.71359
 C647 C 0.79665 0.62149 0.70995
 C648 C 0.77888 0.62732 0.72670
 C649 C 0.77655 0.61317 0.74728
 C650 C 0.79155 0.59351 0.75106
 C651 C 0.82485 0.56734 0.73803
 C652 C 0.82208 0.55342 0.75857
 C653 C 0.83712 0.53376 0.76212
 C654 C 0.85487 0.52817 0.74543
 C655 C 0.85725 0.54209 0.72482
 C656 C 0.84232 0.56180 0.72107
 C657 C 0.78935 0.57918 0.77141
 C658 C 0.80434 0.55946 0.77509
 C659 C 0.82947 0.59578 0.69702
 C660 C 0.84448 0.57608 0.70069
 H661 H 0.77588 0.58321 0.78460
 H662 H 0.80202 0.54887 0.79100
 H663 H 0.83173 0.60631 0.68106
 H664 H 0.85789 0.57200 0.68747
 H665 H 0.79867 0.63198 0.69396
 H666 H 0.76318 0.61738 0.76046
 H667 H 0.83508 0.52281 0.77785
 H668 H 0.87057 0.53766 0.71166
 C669 C 0.80788 0.41586 0.76611
 C670 C 0.78701 0.41388 0.75256
 C671 C 0.77169 0.39435 0.75627
 C672 C 0.77714 0.37677 0.77332
 C673 C 0.79829 0.37909 0.78667
 C674 C 0.81365 0.39860 0.78318
 C675 C 0.82398 0.43643 0.76240
 C676 C 0.84471 0.43855 0.77617
 C677 C 0.85980 0.45829 0.77276
 C678 C 0.85442 0.47554 0.75549
 C679 C 0.83375 0.47305 0.74165
 C680 C 0.81832 0.45360 0.74517
 C681 C 0.83469 0.40120 0.79645
 C682 C 0.84992 0.42087 0.79305
 C683 C 0.78189 0.43150 0.73557
 C684 C 0.79731 0.45098 0.73189
 H685 H 0.83939 0.38796 0.80964
 H686 H 0.86591 0.42223 0.80371
 H687 H 0.76583 0.43021 0.72500
 H688 H 0.79270 0.46414 0.71860
 H689 H 0.75551 0.39304 0.74593
 H690 H 0.80297 0.36574 0.79971
 H691 H 0.87567 0.46005 0.78347
 H692 H 0.82964 0.48630 0.72827
 C693 C 0.30651 -0.08578 0.26651
 C694 C 0.28416 -0.08653 0.25543
 C695 C 0.26921 -0.10634 0.25911
 C696 C 0.27619 -0.12527 0.27417
 C697 C 0.29878 -0.12397 0.28524
 C698 C 0.31402 -0.10444 0.28130
 C699 C 0.32235 -0.06505 0.26256
 C700 C 0.34486 -0.06446 0.27341
 C701 C 0.35984 -0.04470 0.26957
 C702 C 0.35225 -0.02564 0.25525
 C703 C 0.32975 -0.02652 0.24440
 C704 C 0.31467 -0.04623 0.24800
 C705 C 0.33670 -0.10321 0.29182
 C706 C 0.35189 -0.08360 0.28788
 C707 C 0.27713 -0.06737 0.24094
 C708 C 0.29210 -0.04754 0.23734
 H709 H 0.34278 -0.11756 0.30318
 H710 H 0.36923 -0.08340 0.29630
 H711 H 0.25987 -0.06766 0.23234
 H712 H 0.28596 -0.03311 0.22611
 H713 H 0.25197 -0.10654 0.25055
 H714 H 0.30488 -0.13827 0.29661
 H715 H 0.37733 -0.04417 0.27768
 H716 H 0.32399 -0.01195 0.23317
 C717 C 0.19383 -0.08554 0.73375
 C718 C 0.21150 -0.09066 0.75053
 C719 C 0.22705 -0.10987 0.74653
 C720 C 0.22501 -0.12414 0.72591
 C721 C 0.20705 -0.11847 0.70928
 C722 C 0.19151 -0.09927 0.71309
 C723 C 0.17743 -0.06538 0.73787
 C724 C 0.15984 -0.06020 0.72098
 C725 C 0.14436 -0.04099 0.72491
 C726 C 0.14626 -0.02721 0.74565
 C727 C 0.16412 -0.03242 0.76229
 C728 C 0.17974 -0.05160 0.75854
 C729 C 0.17368 -0.09353 0.69660
 C730 C 0.15812 -0.07431 0.70046
 C731 C 0.21325 -0.07647 0.77103
 C732 C 0.19764 -0.05727 0.77497
 H733 H 0.17172 -0.10398 0.68055
 H734 H 0.14463 -0.07048 0.68729
 H735 H 0.22680 -0.08023 0.78416
 H736 H 0.19960 -0.04680 0.79100
 H737 H 0.24051 -0.11361 0.75970
 H738 H 0.20498 -0.12879 0.69321
 H739 H 0.13104 -0.03680 0.71174
 H740 H 0.16584 -0.02153 0.77809
 C741 C 0.69337 0.41435 0.23268
 C742 C 0.69649 0.40568 0.20954
 C743 C 0.71200 0.38645 0.20565
 C744 C 0.72449 0.37605 0.22467
 C745 C 0.72120 0.38507 0.24775
 C746 C 0.70562 0.40420 0.25186
 C747 C 0.67706 0.43455 0.23689
 C748 C 0.67413 0.44337 0.25999
 C749 C 0.65890 0.46281 0.26384
 C750 C 0.64632 0.47313 0.24492
 C751 C 0.64963 0.46419 0.22183
 C752 C 0.66497 0.44487 0.21771
 C753 C 0.70206 0.41339 0.27476
 C754 C 0.68662 0.43269 0.27875
 C755 C 0.68412 0.41650 0.19077
 C756 C 0.66865 0.43579 0.19478
 H757 H 0.71135 0.40566 0.28972
 H758 H 0.68446 0.43930 0.29666
 H759 H 0.68646 0.41005 0.17281
 H760 H 0.65953 0.44368 0.17980
 H761 H 0.71458 0.37982 0.18779
 H762 H 0.73049 0.37705 0.26255
 H763 H 0.65720 0.46990 0.28149
 H764 H 0.64077 0.47251 0.20697
 C765 C 0.69329 0.58519 0.26790
 C766 C 0.68552 0.60413 0.28227
 C767 C 0.70091 0.62349 0.28645
 C768 C 0.72389 0.62403 0.27629
 C769 C 0.73133 0.60484 0.26190
 C770 C 0.71612 0.58538 0.25767
 C771 C 0.67721 0.56478 0.26347
 C772 C 0.68502 0.54583 0.24912
 C773 C 0.66971 0.52644 0.24502
 C774 C 0.64689 0.52593 0.25528
 C775 C 0.63917 0.54508 0.26943
 C776 C 0.65434 0.56460 0.27365
 C777 C 0.72330 0.56607 0.24344
 C778 C 0.70801 0.54663 0.23923
 C779 C 0.66250 0.60334 0.29212
 C780 C 0.64717 0.58391 0.28788
 H781 H 0.74088 0.56598 0.23548
 H782 H 0.71424 0.53209 0.22816
 H783 H 0.65627 0.61786 0.30320
 H784 H 0.62957 0.58400 0.29583
 H785 H 0.69484 0.63820 0.29734
 H786 H 0.74901 0.60485 0.25418
 H787 H 0.67558 0.51180 0.23390
 H788 H 0.62146 0.54476 0.27714
 C789 C 0.19325 0.08386 0.76668
 C790 C 0.19118 0.09756 0.78740
 C791 C 0.20676 0.11687 0.79095
 C792 C 0.22430 0.12265 0.77392
 C793 C 0.22607 0.10862 0.75322
 C794 C 0.21062 0.08920 0.74954
 C795 C 0.17694 0.06351 0.76289
 C796 C 0.17912 0.04970 0.74222
 C797 C 0.16366 0.03029 0.73878
 C798 C 0.14605 0.02490 0.75570
 C799 C 0.14410 0.03878 0.77635
 C800 C 0.15954 0.05819 0.78004
 C801 C 0.21217 0.07502 0.72903
 C802 C 0.19671 0.05558 0.72545
 C803 C 0.17357 0.09168 0.80417
 C804 C 0.15800 0.07234 0.80054
 H805 H 0.22548 0.07896 0.71564
 H806 H 0.19853 0.04508 0.70942
 H807 H 0.17179 0.10213 0.82024
 H808 H 0.14465 0.06843 0.81391
 H809 H 0.20516 0.12722 0.80706
 H810 H 0.23930 0.11276 0.73986
 H811 H 0.16525 0.01940 0.72297
 H812 H 0.13073 0.03453 0.78956
 C813 C 0.23218 0.31013 0.08398
 C814 C 0.24992 0.29385 0.09071
 C815 C 0.24576 0.27861 0.10997
 C816 C 0.22401 0.27946 0.12250
 C817 C 0.20642 0.29598 0.11548
 C818 C 0.21042 0.31135 0.09622
 C819 C 0.23646 0.32613 0.06365
 C820 C 0.21870 0.34238 0.05681
 C821 C 0.22285 0.35747 0.03736
 C822 C 0.24457 0.35630 0.02494
 C823 C 0.26206 0.33980 0.03190
 C824 C 0.25817 0.32474 0.05133
 C825 C 0.19307 0.32784 0.08887
 C826 C 0.19714 0.34309 0.06950
 C827 C 0.27147 0.29309 0.07800
 C828 C 0.27551 0.30826 0.05861
 H829 H 0.17618 0.32894 0.09814
 H830 H 0.18328 0.35551 0.06440
 H831 H 0.28530 0.28062 0.08305
 H832 H 0.29234 0.30707 0.04924
 H833 H 0.25960 0.26627 0.11524
 H834 H 0.18953 0.29675 0.12476
 H835 H 0.20915 0.36985 0.03185
 H836 H 0.27865 0.33867 0.02209
 C837 C 0.73225 0.81319 0.58604
 C838 C 0.70889 0.80640 0.59206
 C839 C 0.70525 0.79066 0.61109
 C840 C 0.72480 0.78147 0.62376
 C841 C 0.74810 0.78837 0.61741
 C842 C 0.75192 0.80436 0.59865
 C843 C 0.73620 0.82967 0.56602
 C844 C 0.75957 0.83626 0.55989
 C845 C 0.76328 0.85138 0.54045
 C846 C 0.74383 0.86011 0.52738
 C847 C 0.72050 0.85363 0.53391
 C848 C 0.71658 0.83825 0.55318
 C849 C 0.77502 0.81166 0.59219
 C850 C 0.77878 0.82734 0.57312
 C851 C 0.68969 0.81537 0.57881
 C852 C 0.69347 0.83101 0.55970
 H853 H 0.79033 0.80513 0.60189
 H854 H 0.79689 0.83244 0.56865
 H855 H 0.67160 0.81015 0.58318
 H856 H 0.67818 0.83739 0.54986
 H857 H 0.68729 0.78522 0.61574
 H858 H 0.76319 0.78157 0.62727
 H859 H 0.78132 0.85605 0.53530
 H860 H 0.70545 0.86009 0.52388
 C861 C 0.76559 0.81132 0.41593
 C862 C 0.75952 0.78704 0.41800
 C863 C 0.76344 0.77173 0.39871
 C864 C 0.77375 0.78047 0.37765
 C865 C 0.77997 0.80483 0.37597
 C866 C 0.77568 0.82040 0.39499
 C867 C 0.76135 0.82752 0.43610
 C868 C 0.76687 0.85192 0.43386
 C869 C 0.76270 0.86723 0.45310
 C870 C 0.75414 0.85804 0.47467
 C871 C 0.74855 0.83361 0.47662
 C872 C 0.75192 0.81827 0.45728
 C873 C 0.78118 0.84489 0.39349
 C874 C 0.77668 0.86041 0.41254
 C875 C 0.74975 0.77853 0.43934
 C876 C 0.74613 0.79386 0.45870
 H877 H 0.78895 0.85213 0.37743
 H878 H 0.78113 0.87918 0.41063
 H879 H 0.74499 0.75983 0.44115
 H880 H 0.73871 0.78656 0.47490
 H881 H 0.75885 0.75297 0.40026
 H882 H 0.78771 0.81175 0.35975
 H883 H 0.76667 0.88615 0.45154
 H884 H 0.74147 0.82652 0.49304
 C885 C 0.26678 0.30963 -0.08706
 C886 C 0.27543 0.31931 -0.10836
 C887 C 0.27918 0.30414 -0.12781
 C888 C 0.27397 0.27955 -0.12611
 C889 C 0.26517 0.27019 -0.10464
 C890 C 0.26167 0.28513 -0.08500
 C891 C 0.26289 0.32546 -0.06653
 C892 C 0.25428 0.31578 -0.04523
 C893 C 0.25051 0.33092 -0.02582
 C894 C 0.25552 0.35553 -0.02752
 C895 C 0.26384 0.36499 -0.04909
 C896 C 0.26768 0.35002 -0.06865
 C897 C 0.25316 0.27608 -0.06335
 C898 C 0.24953 0.29115 -0.04380
 C899 C 0.28004 0.34397 -0.10981
 C900 C 0.27617 0.35908 -0.09031
 H901 H 0.24926 0.25719 -0.06150
 H902 H 0.24294 0.28346 -0.02742
 H903 H 0.28664 0.35167 -0.12617
 H904 H 0.27989 0.37800 -0.09219
 H905 H 0.28572 0.31151 -0.14434
 H906 H 0.26138 0.25125 -0.10309
 H907 H 0.24339 0.32347 -0.00961
 H908 H 0.26719 0.38391 -0.05082
 C909 C 0.73421 0.18989 -0.08654
 C910 C 0.74809 0.21066 -0.08884
 C911 C 0.74402 0.22606 -0.10802
 C912 C 0.72625 0.22081 -0.12494
 C913 C 0.71256 0.19977 -0.12229
 C914 C 0.71644 0.18430 -0.10312
 C915 C 0.73829 0.17373 -0.06630
 C916 C 0.72420 0.15309 -0.06382
 C917 C 0.72789 0.13801 -0.04431
 C918 C 0.74564 0.14342 -0.02760
 C919 C 0.75980 0.16399 -0.03046
 C920 C 0.75611 0.17933 -0.04973
 C921 C 0.70284 0.16336 -0.10016
 C922 C 0.70663 0.14804 -0.08082
 C923 C 0.76575 0.21566 -0.07189
 C924 C 0.76972 0.20023 -0.05269
 H925 H 0.68909 0.15880 -0.11286
 H926 H 0.69569 0.13214 -0.07915
 H927 H 0.77658 0.23165 -0.07346
 H928 H 0.78349 0.20476 -0.04000
 H929 H 0.75465 0.24215 -0.10954
 H930 H 0.69893 0.19527 -0.13509
 H931 H 0.71694 0.12220 -0.04221
 H932 H 0.77347 0.16816 -0.01753
 C933 C 0.23421 0.68799 0.41385
 C934 C 0.25281 0.70301 0.40631
 C935 C 0.24923 0.71805 0.38678
 C936 C 0.22720 0.71819 0.37477
 C937 C 0.20877 0.70288 0.38258
 C938 C 0.21217 0.68778 0.40212
 C939 C 0.23782 0.67229 0.43451
 C940 C 0.21913 0.65741 0.44221
 C941 C 0.22261 0.64271 0.46205
 C942 C 0.24458 0.64287 0.47398
 C943 C 0.26312 0.65780 0.46601
 C944 C 0.25985 0.67259 0.44628
 C945 C 0.19392 0.67258 0.41028
 C946 C 0.19734 0.65767 0.42999
 C947 C 0.27463 0.70275 0.41852
 C948 C 0.27809 0.68778 0.43817
 H949 H 0.17682 0.67226 0.40138
 H950 H 0.18278 0.64628 0.43573
 H951 H 0.28913 0.71425 0.41289
 H952 H 0.29515 0.68817 0.44713
 H953 H 0.26367 0.72950 0.38093
 H954 H 0.19166 0.70287 0.37375
 H955 H 0.20818 0.63143 0.46823
 H956 H 0.28002 0.65798 0.47532
 C957 C 0.26606 0.69037 0.58616
 C958 C 0.26422 0.71522 0.58316
 C959 C 0.26785 0.73026 0.60270
 C960 C 0.27380 0.72061 0.62494
 C961 C 0.27585 0.69568 0.62760
 C962 C 0.27166 0.68043 0.60831
 C963 C 0.26195 0.67447 0.56574
 C964 C 0.26305 0.64962 0.56887
 C965 C 0.25885 0.63459 0.54943
 C966 C 0.25443 0.64422 0.52683
 C967 C 0.25298 0.66919 0.52414
 C968 C 0.25669 0.68440 0.54353
 C969 C 0.27274 0.65546 0.61072
 C970 C 0.26831 0.64030 0.59138
 C971 C 0.25879 0.72450 0.56069
 C972 C 0.25517 0.70936 0.54118
 H973 H 0.27691 0.64755 0.62774
 H974 H 0.26919 0.62114 0.59402
 H975 H 0.25738 0.74364 0.55814
 H976 H 0.25108 0.71724 0.52414
 H977 H 0.26646 0.74946 0.60054
 H978 H 0.28018 0.68818 0.64477
 H979 H 0.25850 0.61552 0.55216
 H980 H 0.24867 0.67695 0.50715
 C981 C 0.76606 0.18967 0.08434
 C982 C 0.75354 0.21130 0.08580
 C983 C 0.75757 0.22653 0.10511
 C984 C 0.77392 0.22025 0.12303
 C985 C 0.78624 0.19837 0.12124
 C986 C 0.78242 0.18306 0.10192
 C987 C 0.76202 0.17368 0.06396
 C988 C 0.77474 0.15215 0.06237
 C989 C 0.77107 0.13718 0.04278
 C990 C 0.75472 0.14362 0.02507
 C991 C 0.74184 0.16503 0.02707
 C992 C 0.74556 0.18027 0.04642
 C993 C 0.79468 0.16128 0.09981
 C994 C 0.79093 0.14610 0.08035
 C995 C 0.73725 0.21730 0.06787
 C996 C 0.73329 0.20201 0.04854
 H997 H 0.80734 0.15595 0.11328
 H998 H 0.80081 0.12951 0.07935
 H999 H 0.72749 0.23396 0.06878
 H1000 H 0.72059 0.20730 0.03510
 H1001 H 0.74804 0.24329 0.10597
 H1002 H 0.79875 0.19310 0.13483
 H1003 H 0.78088 0.12061 0.04141
 H1004 H 0.72910 0.16988 0.01349
 C1005 C 0.48608 0.33677 0.55867
 C1006 C 0.50259 0.34121 0.54049
 C1007 C 0.49919 0.36091 0.52550
 C1008 C 0.47942 0.37618 0.52856
 C1009 C 0.46310 0.37138 0.54702
 C1010 C 0.46632 0.35172 0.56207
 C1011 C 0.48950 0.31603 0.57441
 C1012 C 0.47287 0.31151 0.59250
 C1013 C 0.47614 0.29172 0.60736
 C1014 C 0.49602 0.27677 0.60440
 C1015 C 0.51241 0.28138 0.58608
 C1016 C 0.50926 0.30105 0.57102
 C1017 C 0.45012 0.34667 0.58042
 C1018 C 0.45331 0.32689 0.59536
 C1019 C 0.52216 0.32582 0.53763
 C1020 C 0.52544 0.30608 0.55265
 H1021 H 0.43480 0.35809 0.58325
 H1022 H 0.44039 0.32362 0.60928
 H1023 H 0.53504 0.32904 0.52366
 H1024 H 0.54076 0.29466 0.54983
 H1025 H 0.51197 0.36418 0.51149
 H1026 H 0.44782 0.38280 0.54978
 H1027 H 0.46319 0.28809 0.62111
 H1028 H 0.52758 0.26966 0.58362
 C1029 C -0.01698 0.83345 0.05704
 C1030 C 0.00053 0.83912 0.04015
 C1031 C -0.00324 0.85838 0.02469
 C1032 C -0.02434 0.87200 0.02599
 C1033 C -0.04178 0.86582 0.04301
 C1034 C -0.03817 0.84662 0.05856
 C1035 C -0.01302 0.81335 0.07347
 C1036 C -0.03054 0.80770 0.09038
 C1037 C -0.02667 0.78860 0.10599
 C1038 C -0.00542 0.77539 0.10480
 C1039 C 0.01185 0.78107 0.08761
 C1040 C 0.00819 0.80014 0.07192
 C1041 C -0.05533 0.84037 0.07567
 C1042 C -0.05158 0.82123 0.09130
 C1043 C 0.02150 0.82545 0.03911
 C1044 C 0.02525 0.80628 0.05471
 H1045 H -0.07179 0.85037 0.07701
 H1046 H -0.06525 0.81702 0.10424
 H1047 H 0.03514 0.82962 0.02613
 H1048 H 0.04167 0.79621 0.05331
 H1049 H 0.01039 0.86270 0.01178
 H1050 H -0.05816 0.87589 0.04433
 H1051 H -0.04025 0.78403 0.11886
 H1052 H 0.02807 0.77064 0.08650
 C1053 C 0.01557 0.66406 0.05875
 C1054 C -0.00142 0.65894 0.04122
 C1055 C 0.00248 0.63971 0.02572
 C1056 C 0.02320 0.62563 0.02766
 C1057 C 0.03997 0.63101 0.04549
 C1058 C 0.03627 0.65022 0.06103
 C1059 C 0.01169 0.68441 0.07492
 C1060 C 0.02884 0.68971 0.09226
 C1061 C 0.02521 0.70925 0.10740
 C1062 C 0.00451 0.72320 0.10538
 C1063 C -0.01247 0.71774 0.08790
 C1064 C -0.00898 0.69831 0.07258
 C1065 C 0.05295 0.65598 0.07871
 C1066 C 0.04931 0.67541 0.09404
 C1067 C -0.02194 0.67321 0.03950
 C1068 C -0.02566 0.69256 0.05492
 H1069 H 0.06899 0.64543 0.08066
 H1070 H 0.06265 0.67928 0.10737
 H1071 H -0.03521 0.66943 0.02607
 H1072 H -0.04168 0.70314 0.05295
 H1073 H -0.01071 0.63570 0.01230
 H1074 H 0.05609 0.62055 0.04713
 H1075 H 0.03855 0.71357 0.12054
 H1076 H -0.02830 0.72868 0.08621
 C1077 C 0.51566 0.16523 0.55724
 C1078 C 0.53525 0.15006 0.56058
 C1079 C 0.53854 0.13064 0.54519
 C1080 C 0.52245 0.12633 0.52645
 C1081 C 0.50291 0.14187 0.52342
 C1082 C 0.49943 0.16130 0.53875
 C1083 C 0.51208 0.18564 0.57342
 C1084 C 0.49243 0.20077 0.57011
 C1085 C 0.48908 0.22008 0.58560
 C1086 C 0.50524 0.22427 0.60416
 C1087 C 0.52497 0.20914 0.60713
 C1088 C 0.52841 0.18966 0.59185
 C1089 C 0.48004 0.17690 0.53594
 C1090 C 0.47659 0.19630 0.55137
 C1091 C 0.55118 0.15463 0.57925
 C1092 C 0.54785 0.17412 0.59459
 H1093 H 0.46740 0.17409 0.52171
 H1094 H 0.46141 0.20789 0.54858
 H1095 H 0.56638 0.14306 0.58202
 H1096 H 0.56058 0.17702 0.60872
 H1097 H 0.55361 0.11896 0.54797
 H1098 H 0.49036 0.13902 0.50916
 H1099 H 0.47399 0.23191 0.58321
 H1100 H 0.53759 0.21241 0.62125
 C1101 C -0.01800 0.16480 0.44315
 C1102 C -0.03914 0.15140 0.44182
 C1103 C -0.04274 0.13242 0.45772
 C1104 C -0.02538 0.12681 0.47491
 C1105 C -0.00429 0.14059 0.47589
 C1106 C -0.00052 0.15955 0.46010
 C1107 C -0.01409 0.18478 0.42652
 C1108 C 0.00704 0.19823 0.42796
 C1109 C 0.01060 0.21727 0.41222
 C1110 C -0.00670 0.22275 0.39512
 C1111 C -0.02785 0.20927 0.39395
 C1112 C -0.03162 0.19014 0.40961
 C1113 C 0.02040 0.17340 0.46097
 C1114 C 0.02411 0.19243 0.44518
 C1115 C -0.05626 0.15728 0.42463
 C1116 C -0.05257 0.17634 0.40881
 H1117 H 0.03401 0.16952 0.47400
 H1118 H 0.04047 0.20269 0.44648
 H1119 H -0.07267 0.14710 0.42340
 H1120 H -0.06624 0.18030 0.39586
 H1121 H -0.05907 0.12214 0.45662
 H1122 H 0.00931 0.13671 0.48887
 H1123 H 0.02677 0.22789 0.41327
 H1124 H -0.04144 0.21367 0.38110
 C1125 C 0.48419 0.66558 0.94263
 C1126 C 0.50162 0.66019 0.95959
 C1127 C 0.49789 0.64094 0.97506
 C1128 C 0.47687 0.62710 0.97372
 C1129 C 0.45958 0.63285 0.95654
 C1130 C 0.46315 0.65205 0.94096
 C1131 C 0.48801 0.68581 0.92634
 C1132 C 0.47050 0.69128 0.90944
 C1133 C 0.47416 0.71061 0.89407
 C1134 C 0.49524 0.72417 0.89542
 C1135 C 0.51252 0.71864 0.91254
 C1136 C 0.50903 0.69939 0.92805
 C1137 C 0.44607 0.65803 0.92379
 C1138 C 0.44967 0.67733 0.90830
 C1139 C 0.52244 0.67417 0.96076
 C1140 C 0.52608 0.69346 0.94526
 H1141 H 0.42976 0.64771 0.92231
 H1142 H 0.43605 0.68136 0.89532
 H1143 H 0.53603 0.67019 0.97379
 H1144 H 0.54236 0.70382 0.94676
 H1145 H 0.51149 0.63674 0.98797
 H1146 H 0.44325 0.62260 0.95529
 H1147 H 0.46056 0.71507 0.88127
 H1148 H 0.52863 0.72933 0.91374
 C1149 C 0.51636 0.83439 0.94308
 C1150 C 0.49877 0.83991 0.95989
 C1151 C 0.50249 0.85908 0.97547
 C1152 C 0.52366 0.87270 0.97439
 C1153 C 0.54114 0.86679 0.95738
 C1154 C 0.53757 0.84767 0.94169
 C1155 C 0.51252 0.81427 0.92663
 C1156 C 0.53016 0.80869 0.90984
 C1157 C 0.52645 0.78948 0.89431
 C1158 C 0.50522 0.77613 0.89545
 C1159 C 0.48782 0.78176 0.91247
 C1160 C 0.49133 0.80092 0.92809
 C1161 C 0.55481 0.84156 0.92465
 C1162 C 0.55117 0.82239 0.90900
 C1163 C 0.47778 0.82616 0.96079
 C1164 C 0.47413 0.80697 0.94517
 H1165 H 0.57127 0.85168 0.92339
 H1166 H 0.56491 0.81826 0.89613
 H1167 H 0.46406 0.83025 0.97370
 H1168 H 0.45772 0.79680 0.94647
 H1169 H 0.48876 0.86339 0.98825
 H1170 H 0.55761 0.87686 0.95635
 H1171 H 0.54013 0.78492 0.88158
 H1172 H 0.47160 0.77122 0.91351
 C1173 C 0.01502 0.33359 0.44215
 C1174 C -0.00238 0.33920 0.45913
 C1175 C 0.00146 0.35853 0.47450
 C1176 C 0.02258 0.37223 0.47309
 C1177 C 0.03984 0.36624 0.45587
 C1178 C 0.03615 0.34696 0.44039
 C1179 C 0.01106 0.31328 0.42594
 C1180 C 0.02853 0.30759 0.40902
 C1181 C 0.02470 0.28823 0.39369
 C1182 C 0.00349 0.27484 0.39510
 C1183 C -0.01371 0.28055 0.41231
 C1184 C -0.01006 0.29985 0.42776
 C1185 C 0.05322 0.34072 0.42322
 C1186 C 0.04948 0.32136 0.40781
 C1187 C -0.02329 0.32534 0.46042
 C1188 C -0.02705 0.30599 0.44501
 H1189 H 0.06962 0.35088 0.42167
 H1190 H 0.06310 0.31714 0.39484
 H1191 H -0.03684 0.32947 0.47347
 H1192 H -0.04340 0.29575 0.44662
 H1193 H -0.01210 0.36282 0.48746
 H1194 H 0.05623 0.37638 0.45450
 H1195 H 0.03828 0.28361 0.38089
 H1196 H -0.02988 0.26998 0.41362
 C1197 C 0.33460 0.55736 0.48287
 C1198 C 0.34477 0.55621 0.46016
 C1199 C 0.36411 0.54089 0.45617
 C1200 C 0.37331 0.52678 0.47471
 C1201 C 0.36285 0.52822 0.49739
 C1202 C 0.34346 0.54343 0.50155
 C1203 C 0.31420 0.57336 0.48714
 C1204 C 0.30375 0.57417 0.50972
 C1205 C 0.28414 0.58915 0.51358
 C1206 C 0.27555 0.60392 0.49536
 C1207 C 0.28600 0.60257 0.47270
 C1208 C 0.30533 0.58731 0.46848
 C1209 C 0.33270 0.54493 0.52400
 C1210 C 0.31309 0.55994 0.52798
 C1211 C 0.33530 0.57033 0.44187
 C1212 C 0.31593 0.58563 0.44597
 H1213 H 0.33942 0.53434 0.53859
 H1214 H 0.30524 0.56051 0.54553
 H1215 H 0.34293 0.56954 0.42424
 H1216 H 0.30917 0.59622 0.43139
 H1217 H 0.37177 0.53981 0.43858
 H1218 H 0.36985 0.51772 0.51190
 H1219 H 0.27554 0.58892 0.53065
 H1220 H 0.27894 0.61297 0.45818
 C1221 C 0.83701 0.05944 -0.01518
 C1222 C 0.85480 0.06600 -0.03146
 C1223 C 0.87430 0.05076 -0.03501
 C1224 C 0.87603 0.02903 -0.02247
 C1225 C 0.85806 0.02289 -0.00606
 C1226 C 0.83852 0.03801 -0.00236
 C1227 C 0.81629 0.07520 -0.01164
 C1228 C 0.79846 0.06859 0.00461
 C1229 C 0.77873 0.08356 0.00778
 C1230 C 0.77668 0.10478 -0.00536
 C1231 C 0.79468 0.11124 -0.02150
 C1232 C 0.81462 0.09651 -0.02467
 C1233 C 0.82035 0.03202 0.01378
 C1234 C 0.80068 0.04708 0.01724
 C1235 C 0.85264 0.08760 -0.04398
 C1236 C 0.83287 0.10259 -0.04067
 H1237 H 0.82131 0.01552 0.02377
 H1238 H 0.78703 0.04179 0.02981
 H1239 H 0.86629 0.09291 -0.05655
 H1240 H 0.83184 0.11903 -0.05075
 H1241 H 0.88807 0.05588 -0.04750
 H1242 H 0.85894 0.00617 0.00355
 H1243 H 0.76492 0.07868 0.02035
 H1244 H 0.79326 0.12763 -0.03156
 C1245 C 0.66411 0.05851 0.01628
 C1246 C 0.66129 0.03789 0.00240
 C1247 C 0.64189 0.02265 0.00674
 C1248 C 0.62525 0.02789 0.02479
 C1249 C 0.62841 0.04876 0.03848
 C1250 C 0.64782 0.06408 0.03433
 C1251 C 0.68458 0.07452 0.01188
 C1252 C 0.68754 0.09502 0.02594
 C1253 C 0.70719 0.11002 0.02187
 C1254 C 0.72360 0.10467 0.00380
 C1255 C 0.72032 0.08421 -0.01027
 C1256 C 0.70086 0.06895 -0.00623
 C1257 C 0.65129 0.08486 0.04792
 C1258 C 0.67084 0.10005 0.04382
 C1259 C 0.67797 0.03290 -0.01554
 C1260 C 0.69740 0.04819 -0.01981
 H1261 H 0.63882 0.08940 0.06189
 H1262 H 0.67290 0.11584 0.05475
 H1263 H 0.67599 0.01703 -0.02638
 H1264 H 0.70986 0.04367 -0.03379
 H1265 H 0.63995 0.00670 -0.00394
 H1266 H 0.61584 0.05324 0.05234
 H1267 H 0.70963 0.12577 0.03276
 H1268 H 0.73303 0.08008 -0.02416
 C1269 C 0.16373 0.55806 0.51699
 C1270 C 0.15902 0.53978 0.50062
 C1271 C 0.13967 0.52435 0.50457
 C1272 C 0.12510 0.52700 0.52481
 C1273 C 0.13010 0.54563 0.54094
 C1274 C 0.14936 0.56118 0.53711
 C1275 C 0.18420 0.57418 0.51306
 C1276 C 0.18890 0.59249 0.52945
 C1277 C 0.20845 0.60769 0.52568
 C1278 C 0.22326 0.60443 0.50586
 C1279 C 0.21831 0.58612 0.48955
 C1280 C 0.19872 0.57092 0.49303
 C1281 C 0.15459 0.57974 0.55309
 C1282 C 0.17401 0.59516 0.54930
 C1283 C 0.17384 0.53720 0.48069
 C1284 C 0.19338 0.55249 0.47697
 H1285 H 0.14361 0.58235 0.56869
 H1286 H 0.17745 0.60922 0.56206
 H1287 H 0.17037 0.52318 0.46789
 H1288 H 0.20441 0.54984 0.46142
 H1289 H 0.13619 0.51027 0.49190
 H1290 H 0.11919 0.54809 0.55656
 H1291 H 0.21198 0.62199 0.53811
 H1292 H 0.22971 0.58374 0.47420
 C1293 C 0.16620 0.44275 -0.01898
 C1294 C 0.16113 0.46062 -0.00228
 C1295 C 0.14172 0.47586 -0.00609
 C1296 C 0.12736 0.47338 -0.02645
 C1297 C 0.13287 0.45540 -0.04310
 C1298 C 0.15224 0.44001 -0.03943
 C1299 C 0.18645 0.42651 -0.01491
 C1300 C 0.19145 0.40851 -0.03155
 C1301 C 0.21063 0.39301 -0.02748
 C1302 C 0.22465 0.39556 -0.00702
 C1303 C 0.21953 0.41370 0.00940
 C1304 C 0.20037 0.42923 0.00558
 C1305 C 0.15788 0.42188 -0.05574
 C1306 C 0.17714 0.40639 -0.05185
 C1307 C 0.17550 0.46282 0.01798
 C1308 C 0.19481 0.44740 0.02183
 H1309 H 0.14727 0.41960 -0.07161
 H1310 H 0.18084 0.39262 -0.06484
 H1311 H 0.17177 0.47656 0.03099
 H1312 H 0.20543 0.44970 0.03769
 H1313 H 0.13772 0.48939 0.00701
 H1314 H 0.12221 0.45333 -0.05894
 H1315 H 0.21451 0.37902 -0.04016
 H1316 H 0.23044 0.41565 0.02513
 C1317 C 0.66515 0.94421 0.47945
 C1318 C 0.66758 0.96895 0.48305
 C1319 C 0.64782 0.98379 0.47957
 C1320 C 0.62595 0.97410 0.47203
 C1321 C 0.62389 0.94931 0.46812
 C1322 C 0.64341 0.93422 0.47209
 C1323 C 0.68575 0.92848 0.48359
 C1324 C 0.68323 0.90367 0.48062
 C1325 C 0.70277 0.88878 0.48526
 C1326 C 0.72458 0.89858 0.49282
 C1327 C 0.72709 0.92356 0.49440
 C1328 C 0.70760 0.93856 0.49042
 C1329 C 0.64162 0.90934 0.46901
 C1330 C 0.66117 0.89431 0.47331
 C1331 C 0.68972 0.97835 0.49001
 C1332 C 0.70946 0.96342 0.49345
 H1333 H 0.62492 0.90140 0.46340
 H1334 H 0.65898 0.87521 0.47092
 H1335 H 0.69182 0.99741 0.49280
 H1336 H 0.72624 0.97138 0.49882
 H1337 H 0.64954 1.00289 0.48234
 H1338 H 0.60701 0.94175 0.46252
 H1339 H 0.70101 0.86960 0.48309
 H1340 H 0.74400 0.93158 0.49879
 C1341 C 0.83845 0.94000 0.51822
 C1342 C 0.85975 0.93510 0.50603
 C1343 C 0.87948 0.95018 0.50935
 C1344 C 0.87760 0.97029 0.52411
 C1345 C 0.85617 0.97515 0.53603
 C1346 C 0.83655 0.95982 0.53341
 C1347 C 0.81767 0.92423 0.51484
 C1348 C 0.79665 0.92867 0.52760
 C1349 C 0.77692 0.91368 0.52420
 C1350 C 0.77751 0.89573 0.50679
 C1351 C 0.79889 0.89098 0.49467
 C1352 C 0.81915 0.90512 0.49876
 C1353 C 0.81511 0.96385 0.54565
 C1354 C 0.79557 0.94836 0.54301
 C1355 C 0.86077 0.91540 0.49062
 C1356 C 0.84074 0.90079 0.48688
 H1357 H 0.81343 0.97908 0.55740
 H1358 H 0.77934 0.95210 0.55275
 H1359 H 0.87710 0.91144 0.48113
 H1360 H 0.84214 0.88601 0.47454
 H1361 H 0.89611 0.94657 0.50024
 H1362 H 0.85494 0.99066 0.54751
 H1363 H 0.76072 0.91669 0.53426
 H1364 H 0.79990 0.87637 0.48216
 C1365 C 0.33605 0.44162 0.01634
 C1366 C 0.34179 0.45919 -0.00048
 C1367 C 0.36134 0.47430 0.00360
 C1368 C 0.37508 0.47207 0.02441
 C1369 C 0.36894 0.45430 0.04109
 C1370 C 0.34947 0.43905 0.03714
 C1371 C 0.31550 0.42569 0.01213
 C1372 C 0.30968 0.40820 0.02901
 C1373 C 0.29011 0.39313 0.02494
 C1374 C 0.27660 0.39529 0.00406
 C1375 C 0.28227 0.41336 -0.01232
 C1376 C 0.30189 0.42845 -0.00853
 C1377 C 0.34307 0.42133 0.05363
 C1378 C 0.32350 0.40618 0.04964
 C1379 C 0.32781 0.46135 -0.02101
 C1380 C 0.30814 0.44630 -0.02493
 H1381 H 0.35327 0.41917 0.06977
 H1382 H 0.31917 0.39276 0.06282
 H1383 H 0.33206 0.47485 -0.03413
 H1384 H 0.29779 0.44860 -0.04095
 H1385 H 0.36577 0.48768 -0.00953
 H1386 H 0.37911 0.45235 0.05725
 H1387 H 0.28543 0.38003 0.03820
 H1388 H 0.27120 0.41605 -0.02777
 C1389 C 0.56035 0.48604 0.33537
 C1390 C 0.53557 0.48699 0.33202
 C1391 C 0.52043 0.48369 0.35153
 C1392 C 0.52993 0.47879 0.37405
 C1393 C 0.55480 0.47767 0.37710
 C1394 C 0.57014 0.48165 0.35783
 C1395 C 0.57636 0.48970 0.31495
 C1396 C 0.60113 0.48957 0.31838
 C1397 C 0.61624 0.49335 0.29890
 C1398 C 0.60676 0.49597 0.27600
 C1399 C 0.58186 0.49651 0.27298
 C1400 C 0.56657 0.49348 0.29240
 C1401 C 0.59504 0.48145 0.36056
 C1402 C 0.61027 0.48559 0.34121
 C1403 C 0.52644 0.49111 0.30923
 C1404 C 0.54169 0.49417 0.28972
 H1405 H 0.60281 0.47820 0.37782
 H1406 H 0.62937 0.48540 0.34409
 H1407 H 0.50735 0.49183 0.30642
 H1408 H 0.53393 0.49714 0.27240
 H1409 H 0.50127 0.48438 0.34911
 H1410 H 0.56215 0.47415 0.39450
 H1411 H 0.63524 0.49458 0.30172
 H1412 H 0.57419 0.49954 0.25570
 C1413 C 0.05954 -0.01654 0.83562
 C1414 C 0.04014 -0.00109 0.83889
 C1415 C 0.02478 -0.00472 0.85822
 C1416 C 0.02875 -0.02361 0.87430
 C1417 C 0.04840 -0.03887 0.87069
 C1418 C 0.06380 -0.03544 0.85138
 C1419 C 0.07567 -0.01290 0.81527
 C1420 C 0.09489 -0.02857 0.81184
 C1421 C 0.11001 -0.02522 0.79232
 C1422 C 0.10626 -0.00609 0.77665
 C1423 C 0.08703 0.00955 0.78036
 C1424 C 0.07154 0.00613 0.79960
 C1425 C 0.08334 -0.05062 0.84748
 C1426 C 0.09859 -0.04728 0.82801
 C1427 C 0.03650 0.01769 0.82275
 C1428 C 0.05197 0.02127 0.80347
 H1429 H 0.08686 -0.06524 0.85956
 H1430 H 0.11342 -0.05941 0.82563
 H1431 H 0.02157 0.02973 0.82504
 H1432 H 0.04853 0.03597 0.79146
 H1433 H 0.00992 0.00731 0.86073
 H1434 H 0.05168 -0.05359 0.88267
 H1435 H 0.12463 -0.03745 0.78949
 H1436 H 0.08410 0.02425 0.76819
 C1437 C 0.06201 0.01372 0.66423
 C1438 C 0.06467 0.03440 0.65040
 C1439 C 0.05002 0.03760 0.63057
 C1440 C 0.03271 0.02031 0.62447
 C1441 C 0.03043 -0.00040 0.63859
 C1442 C 0.04500 -0.00376 0.65848
 C1443 C 0.07733 0.01032 0.68516
 C1444 C 0.07464 -0.01036 0.69903
 C1445 C 0.08932 -0.01351 0.71887
 C1446 C 0.10666 0.00371 0.72462
 C1447 C 0.10889 0.02449 0.71080
 C1448 C 0.09433 0.02784 0.69093
 C1449 C 0.04285 -0.02423 0.67277
 C1450 C 0.05742 -0.02747 0.69271
 C1451 C 0.08191 0.05152 0.65672
 C1452 C 0.09648 0.04830 0.67665
 H1453 H 0.02979 -0.03787 0.66851
 H1454 H 0.05520 -0.04352 0.70324
 H1455 H 0.08415 0.06755 0.64618
 H1456 H 0.10957 0.06192 0.68089
 H1457 H 0.05213 0.05363 0.62006
 H1458 H 0.01736 -0.01396 0.63428
 H1459 H 0.08746 -0.02941 0.72970
 H1460 H 0.12187 0.03805 0.71536
 C1461 C 0.56226 0.51604 0.16408
 C1462 C 0.54731 0.49737 0.15653
 C1463 C 0.53173 0.50126 0.13752
 C1464 C 0.53099 0.52363 0.12605
 C1465 C 0.54623 0.54212 0.13386
 C1466 C 0.56186 0.53843 0.15289
 C1467 C 0.57850 0.51211 0.18422
 C1468 C 0.59325 0.53086 0.19201
 C1469 C 0.60833 0.52714 0.21150
 C1470 C 0.60852 0.50490 0.22306
 C1471 C 0.59389 0.48622 0.21486
 C1472 C 0.57875 0.48974 0.19549
 C1473 C 0.57698 0.55673 0.16108
 C1474 C 0.59239 0.55301 0.18032
 C1475 C 0.54817 0.47520 0.16819
 C1476 C 0.56364 0.47145 0.18734
 H1477 H 0.57683 0.57410 0.15261
 H1478 H 0.60365 0.56764 0.18614
 H1479 H 0.53673 0.46066 0.16252
 H1480 H 0.56366 0.45413 0.19593
 H1481 H 0.52035 0.48678 0.13162
 H1482 H 0.54576 0.55949 0.12543
 H1483 H 0.61954 0.54158 0.21781
 H1484 H 0.59404 0.46910 0.22386
 C1485 C 0.43697 -0.01532 0.16416
 C1486 C 0.43700 -0.03754 0.15262
 C1487 C 0.45273 -0.04127 0.13363
 C1488 C 0.46846 -0.02301 0.12622
 C1489 C 0.46807 -0.00079 0.13802
 C1490 C 0.45236 0.00315 0.15698
 C1491 C 0.42067 -0.01139 0.18432
 C1492 C 0.42074 0.01082 0.19593
 C1493 C 0.40553 0.01431 0.21532
 C1494 C 0.39069 -0.00430 0.22330
 C1495 C 0.39053 -0.02635 0.21136
 C1496 C 0.40555 -0.03000 0.19179
 C1497 C 0.45182 0.02515 0.16898
 C1498 C 0.43626 0.02893 0.18811
 C1499 C 0.42144 -0.05564 0.16043
 C1500 C 0.40601 -0.05195 0.17970
 H1501 H 0.46361 0.03955 0.16361
 H1502 H 0.43649 0.04612 0.19697
 H1503 H 0.42128 -0.07287 0.15165
 H1504 H 0.39443 -0.06644 0.18526
 H1505 H 0.45289 -0.05852 0.12494
 H1506 H 0.47982 0.01352 0.13244
 H1507 H 0.40557 0.03131 0.22456
 H1508 H 0.37907 -0.04071 0.21744
 C1509 C 0.94065 0.48380 0.66598
 C1510 C 0.93786 0.46299 0.65236
 C1511 C 0.95331 0.45889 0.63323
 C1512 C 0.97150 0.47543 0.62765
 C1513 C 0.97395 0.49626 0.64155
 C1514 C 0.95860 0.50051 0.66074
 C1515 C 0.92450 0.48814 0.68617
 C1516 C 0.92739 0.50891 0.69988
 C1517 C 0.91207 0.51286 0.71913
 C1518 C 0.89396 0.49632 0.72451
 C1519 C 0.89131 0.47558 0.71071
 C1520 C 0.90657 0.47139 0.69145
 C1521 C 0.96088 0.52111 0.67482
 C1522 C 0.94555 0.52523 0.69408
 C1523 C 0.91971 0.44664 0.65820
 C1524 C 0.90433 0.45077 0.67740
 H1525 H 0.97467 0.53415 0.67096
 H1526 H 0.94795 0.54131 0.70452
 H1527 H 0.91739 0.43049 0.64784
 H1528 H 0.89058 0.43770 0.68131
 H1529 H 0.95127 0.44268 0.62295
 H1530 H 0.98764 0.50929 0.63745
 H1531 H 0.91420 0.52874 0.72995
 H1532 H 0.87752 0.46268 0.71491
 C1533 C 0.94178 0.51760 0.83463
 C1534 C 0.96038 0.50136 0.83857
 C1535 C 0.97586 0.50506 0.85774
 C1536 C 0.97285 0.52484 0.87297
 C1537 C 0.95401 0.54092 0.86867
 C1538 C 0.93846 0.53739 0.84955
 C1539 C 0.92547 0.51383 0.81449
 C1540 C 0.90693 0.53014 0.81050
 C1541 C 0.89154 0.52654 0.79126
 C1542 C 0.89446 0.50664 0.77633
 C1543 C 0.91324 0.49057 0.78041
 C1544 C 0.92880 0.49404 0.79954
 C1545 C 0.91965 0.55329 0.84503
 C1546 C 0.90417 0.54974 0.82582
 C1547 C 0.96316 0.48177 0.82320
 C1548 C 0.94764 0.47818 0.80402
 H1549 H 0.91688 0.56863 0.85642
 H1550 H 0.88991 0.56244 0.82295
 H1551 H 0.97746 0.46911 0.82603
 H1552 H 0.95041 0.46285 0.79261
 H1553 H 0.99031 0.49261 0.86059
 H1554 H 0.95123 0.55609 0.88024
 H1555 H 0.87741 0.53923 0.78803
 H1556 H 0.91572 0.47543 0.76868
 C1557 C 0.43766 0.01378 0.33632
 C1558 C 0.46249 0.01276 0.33329
 C1559 C 0.47731 0.01590 0.35302
 C1560 C 0.46742 0.02075 0.37543
 C1561 C 0.44254 0.02211 0.37814
 C1562 C 0.42752 0.01819 0.35867
 C1563 C 0.42197 0.01013 0.31571
 C1564 C 0.39715 0.01019 0.31888
 C1565 C 0.38235 0.00640 0.29924
 C1566 C 0.39215 0.00404 0.27642
 C1567 C 0.41708 0.00353 0.27364
 C1568 C 0.43210 0.00644 0.29326
 C1569 C 0.40259 0.01838 0.36111
 C1570 C 0.38766 0.01417 0.34159
 C1571 C 0.47197 0.00870 0.31059
 C1572 C 0.45702 0.00574 0.29087
 H1573 H 0.39455 0.02166 0.37827
 H1574 H 0.36853 0.01433 0.34425
 H1575 H 0.49110 0.00794 0.30801
 H1576 H 0.46505 0.00282 0.27364
 H1577 H 0.49650 0.01506 0.35090
 H1578 H 0.43495 0.02565 0.39546
 H1579 H 0.36327 0.00508 0.30182
 H1580 H 0.42496 0.00066 0.25639
   
