data_POSCAR
  _audit_creation_date              2014-09-24
  _audit_creation_method            'ToBaCCo'
  _symmetry_space_group_name_H-M    'P1'
  _symmetry_Int_Tables_number       1
  _symmetry_cell_setting            triclinic
  loop_
  _symmetry_equiv_pos_as_xyz
 x,y,z
_cell_length_a 74.8041
_cell_length_b 74.7935
_cell_length_c 74.8429
_cell_angle_alpha 89.998700
_cell_angle_beta 89.996400
_cell_angle_gamma 90.040800
loop_
  _atom_site_label
  _atom_site_type_symbol
  _atom_site_fract_x
  _atom_site_fract_y
  _atom_site_fract_z
N1 N 0.17926 0.22157 0.22606
 N2 N 0.18435 0.20760 0.23546
 C3 C 0.17296 0.20531 0.24923
 C4 C 0.16018 0.21854 0.24829
 C5 C 0.16447 0.22863 0.23350
 H6 H 0.17382 0.19483 0.25915
 H7 H 0.15737 0.24020 0.22852
 Cu8 Cu 0.20523 0.19378 0.22844
 Cu9 Cu 0.19211 0.22958 0.20485
 Cu10 Cu 0.22936 0.20491 0.19233
 N11 N 0.22609 0.17995 0.22143
 N12 N 0.23542 0.18436 0.20718
 C13 C 0.24894 0.17267 0.20511
 C14 C 0.24796 0.16038 0.21878
 C15 C 0.23338 0.16528 0.22892
 H16 H 0.25871 0.17305 0.19447
 H17 H 0.22847 0.15862 0.24077
 N18 N 0.22107 0.22613 0.17909
 N19 N 0.20688 0.23552 0.18386
 C20 C 0.20476 0.24918 0.17231
 C21 C 0.21822 0.24825 0.15980
 C22 C 0.22833 0.23358 0.16438
 H23 H 0.19427 0.25910 0.17295
 H24 H 0.24010 0.22876 0.15753
 H25 H 0.20230 0.20484 0.19796
 H26 H 0.21675 0.21948 0.21209
 N27 N 0.67943 0.72168 0.72589
 N28 N 0.68428 0.70748 0.73506
 C29 C 0.67288 0.70519 0.74882
 C30 C 0.66035 0.71867 0.74812
 C31 C 0.66480 0.72891 0.73348
 H32 H 0.67360 0.69456 0.75859
 H33 H 0.65792 0.74070 0.72872
 Cu34 Cu 0.70497 0.69339 0.72798
 Cu35 Cu 0.69239 0.72976 0.70481
 Cu36 Cu 0.72960 0.70512 0.69227
 N37 N 0.72602 0.67983 0.72098
 N38 N 0.73557 0.68449 0.70697
 C39 C 0.74925 0.67296 0.70503
 C40 C 0.74814 0.66050 0.71853
 C41 C 0.73332 0.66514 0.72844
 H42 H 0.75923 0.67356 0.69458
 H43 H 0.72828 0.65833 0.74015
 N44 N 0.72141 0.72642 0.67914
 N45 N 0.70723 0.73581 0.68391
 C46 C 0.70513 0.74950 0.67240
 C47 C 0.71860 0.74858 0.65990
 C48 C 0.72870 0.73389 0.66446
 H49 H 0.69464 0.75941 0.67302
 H50 H 0.74046 0.72906 0.65758
 H51 H 0.70249 0.70504 0.69765
 H52 H 0.71687 0.71931 0.71224
 N53 N 0.32018 0.77871 0.72600
 N54 N 0.31536 0.79293 0.73517
 C55 C 0.32681 0.79521 0.74890
 C56 C 0.33932 0.78170 0.74819
 C57 C 0.33481 0.77146 0.73356
 H58 H 0.32617 0.80586 0.75865
 H59 H 0.34168 0.75968 0.72878
 Cu60 Cu 0.29469 0.80708 0.72810
 Cu61 Cu 0.30720 0.77065 0.70491
 Cu62 Cu 0.27003 0.79530 0.69239
 N63 N 0.27359 0.82063 0.72111
 N64 N 0.26404 0.81594 0.70709
 C65 C 0.25036 0.82748 0.70512
 C66 C 0.25150 0.83996 0.71861
 C67 C 0.26632 0.83535 0.72854
 H68 H 0.24039 0.82686 0.69467
 H69 H 0.27139 0.84220 0.74021
 N70 N 0.27820 0.77399 0.67924
 N71 N 0.29237 0.76459 0.68401
 C72 C 0.29445 0.75088 0.67252
 C73 C 0.28097 0.75178 0.66002
 C74 C 0.27089 0.76649 0.66457
 H75 H 0.30493 0.74095 0.67317
 H76 H 0.25912 0.77131 0.65771
 H77 H 0.29716 0.79543 0.69778
 H78 H 0.28277 0.78116 0.71240
 N79 N 0.82122 0.27842 0.22625
 N80 N 0.81631 0.29259 0.23544
 C81 C 0.82765 0.29489 0.24926
 C82 C 0.84025 0.28147 0.24850
 C83 C 0.83587 0.27124 0.23384
 H84 H 0.82683 0.30547 0.25908
 H85 H 0.84280 0.25948 0.22909
 Cu86 Cu 0.79547 0.30644 0.22843
 Cu87 Cu 0.80828 0.27030 0.20515
 Cu88 Cu 0.77105 0.29500 0.19258
 N89 N 0.77462 0.32024 0.22136
 N90 N 0.76511 0.31565 0.20730
 C91 C 0.75148 0.32724 0.20535
 C92 C 0.75258 0.33965 0.21890
 C93 C 0.76732 0.33491 0.22887
 H94 H 0.74152 0.32670 0.19490
 H95 H 0.77231 0.34163 0.24066
 N96 N 0.77927 0.27369 0.17944
 N97 N 0.79344 0.26429 0.18423
 C98 C 0.79551 0.25056 0.17275
 C99 C 0.78203 0.25147 0.16027
 C100 C 0.77196 0.26618 0.16480
 H101 H 0.80597 0.24062 0.17342
 H102 H 0.76018 0.27099 0.15795
 H103 H 0.79814 0.29496 0.19798
 H104 H 0.78374 0.28058 0.21237
 N105 N 0.82082 0.72166 0.27423
 N106 N 0.81583 0.70758 0.26492
 C107 C 0.82727 0.70528 0.25120
 C108 C 0.83998 0.71859 0.25209
 C109 C 0.83559 0.72877 0.26678
 H110 H 0.82644 0.69478 0.24131
 H111 H 0.84257 0.74047 0.27163
 Cu112 Cu 0.79478 0.69381 0.27158
 Cu113 Cu 0.80778 0.72980 0.29521
 Cu114 Cu 0.77062 0.70511 0.30777
 N115 N 0.77411 0.67987 0.27901
 N116 N 0.76472 0.68439 0.29318
 C117 C 0.75119 0.67269 0.29528
 C118 C 0.75224 0.66029 0.28172
 C119 C 0.76685 0.66513 0.27161
 H120 H 0.74131 0.67319 0.30583
 H121 H 0.77175 0.65844 0.25978
 N122 N 0.77873 0.72649 0.32082
 N123 N 0.79289 0.73590 0.31603
 C124 C 0.79498 0.74960 0.32754
 C125 C 0.78150 0.74868 0.34002
 C126 C 0.77143 0.73395 0.33549
 H127 H 0.80550 0.75951 0.32693
 H128 H 0.75970 0.72908 0.34239
 H129 H 0.79764 0.70500 0.30200
 H130 H 0.78317 0.71957 0.28780
 N131 N 0.32085 0.22173 -0.22639
 N132 N 0.31576 0.20774 -0.23578
 C133 C 0.32717 0.20543 -0.24954
 C134 C 0.33995 0.21868 -0.24859
 C135 C 0.33565 0.22880 -0.23382
 H136 H 0.32631 0.19493 -0.25944
 H137 H 0.34275 0.24038 -0.22884
 Cu138 Cu 0.29486 0.19390 -0.22877
 Cu139 Cu 0.30795 0.22974 -0.20519
 Cu140 Cu 0.27067 0.20504 -0.19269
 N141 N 0.27396 0.18006 -0.22176
 N142 N 0.26462 0.18448 -0.20753
 C143 C 0.25108 0.17279 -0.20545
 C144 C 0.25205 0.16047 -0.21910
 C145 C 0.26665 0.16536 -0.22923
 H146 H 0.24130 0.17319 -0.19482
 H147 H 0.27156 0.15868 -0.24106
 N148 N 0.27895 0.22629 -0.17946
 N149 N 0.29314 0.23570 -0.18420
 C150 C 0.29522 0.24937 -0.17265
 C151 C 0.28172 0.24842 -0.16017
 C152 C 0.27164 0.23372 -0.16477
 H153 H 0.30570 0.25931 -0.17326
 H154 H 0.25985 0.22888 -0.15795
 H155 H 0.29773 0.20500 -0.19829
 H156 H 0.28331 0.21961 -0.21245
 N157 N 0.67927 0.27812 -0.22628
 N158 N 0.68435 0.29211 -0.23567
 C159 C 0.67296 0.29440 -0.24944
 C160 C 0.66019 0.28114 -0.24850
 C161 C 0.66449 0.27102 -0.23372
 H162 H 0.67381 0.30491 -0.25934
 H163 H 0.65740 0.25943 -0.22875
 Cu164 Cu 0.70523 0.30598 -0.22865
 Cu165 Cu 0.69217 0.27013 -0.20507
 Cu166 Cu 0.72940 0.29488 -0.19256
 N167 N 0.72610 0.31985 -0.22164
 N168 N 0.73544 0.31544 -0.20740
 C169 C 0.74896 0.32715 -0.20532
 C170 C 0.74798 0.33946 -0.21897
 C171 C 0.73339 0.33455 -0.22911
 H172 H 0.75873 0.32677 -0.19468
 H173 H 0.72848 0.34122 -0.24095
 N174 N 0.72115 0.27364 -0.17932
 N175 N 0.70698 0.26420 -0.18407
 C176 C 0.70490 0.25054 -0.17251
 C177 C 0.71839 0.25151 -0.16002
 C178 C 0.72845 0.26622 -0.16463
 H179 H 0.69443 0.24058 -0.17313
 H180 H 0.74023 0.27108 -0.15780
 H181 H 0.70236 0.29489 -0.19817
 H182 H 0.71681 0.28030 -0.21232
 N183 N 0.17932 0.77891 0.27419
 N184 N 0.18406 0.79325 0.26516
 C185 C 0.17264 0.79557 0.25143
 C186 C 0.16019 0.78198 0.25200
 C187 C 0.16474 0.77163 0.26654
 H188 H 0.17331 0.80625 0.24171
 H189 H 0.15798 0.75970 0.27114
 Cu190 Cu 0.20493 0.80709 0.27222
 Cu191 Cu 0.19240 0.77064 0.29515
 Cu192 Cu 0.22964 0.79534 0.30774
 N193 N 0.22581 0.82094 0.27927
 N194 N 0.23548 0.81616 0.29317
 C195 C 0.24920 0.82768 0.29507
 C196 C 0.24797 0.84023 0.28166
 C197 C 0.23306 0.83567 0.27183
 H198 H 0.25931 0.82694 0.30538
 H199 H 0.22797 0.84253 0.26017
 N200 N 0.22154 0.77387 0.32074
 N201 N 0.20736 0.76447 0.31594
 C202 C 0.20526 0.75075 0.32743
 C203 C 0.21873 0.75164 0.33993
 C204 C 0.22882 0.76636 0.33541
 H205 H 0.19472 0.74086 0.32681
 H206 H 0.24054 0.77123 0.34233
 H207 H 0.20254 0.79527 0.30246
 H208 H 0.21689 0.78111 0.28778
 N209 N 0.47158 0.42906 0.47605
 N210 N 0.45745 0.43398 0.48531
 C211 C 0.45517 0.42256 0.49906
 C212 C 0.46855 0.40992 0.49825
 C213 C 0.47873 0.41434 0.48355
 H214 H 0.44456 0.42330 0.50884
 H215 H 0.49037 0.40731 0.47864
 Cu216 Cu 0.44336 0.45467 0.47824
 Cu217 Cu 0.47961 0.44203 0.45494
 Cu218 Cu 0.45489 0.47918 0.44239
 N219 N 0.42971 0.47568 0.47122
 N220 N 0.43426 0.48515 0.45711
 C221 C 0.42259 0.49869 0.45505
 C222 C 0.41019 0.49761 0.46862
 C223 C 0.41500 0.48293 0.47866
 H224 H 0.42301 0.50852 0.44445
 H225 H 0.40823 0.47790 0.49039
 N226 N 0.47620 0.47102 0.42924
 N227 N 0.48562 0.45687 0.43402
 C228 C 0.49931 0.45480 0.42249
 C229 C 0.49837 0.46828 0.40999
 C230 C 0.48365 0.47833 0.41455
 H231 H 0.50924 0.44432 0.42312
 H232 H 0.47878 0.49007 0.40767
 H233 H 0.46910 0.46648 0.46230
 H234 H 0.45475 0.45203 0.44783
 N235 N -0.02841 -0.07076 0.97589
 N236 N -0.04261 -0.06593 0.98506
 C237 C -0.04488 -0.07733 0.99882
 C238 C -0.03139 -0.08984 0.99813
 C239 C -0.02115 -0.08537 0.98349
 H240 H -0.05553 -0.07666 1.00858
 H241 H -0.00937 -0.09226 0.97872
 Cu242 Cu -0.05679 -0.04531 0.97801
 Cu243 Cu -0.02039 -0.05782 0.95478
 Cu244 Cu -0.04505 -0.02064 0.94230
 N245 N -0.07029 -0.02421 0.97105
 N246 N -0.06563 -0.01465 0.95705
 C247 C -0.07715 -0.00096 0.95514
 C248 C -0.08960 -0.00208 0.96865
 C249 C -0.08496 -0.01692 0.97853
 H250 H -0.07656 0.00903 0.94470
 H251 H -0.09180 -0.02199 0.99021
 N252 N -0.02381 -0.02883 0.92910
 N253 N -0.01440 -0.04299 0.93385
 C254 C -0.00072 -0.04506 0.92230
 C255 C -0.00168 -0.03157 0.90982
 C256 C -0.01637 -0.02151 0.91442
 H257 H 0.00922 -0.05554 0.92292
 H258 H -0.02122 -0.00973 0.90758
 H259 H -0.03089 -0.03339 0.96228
 H260 H -0.04517 -0.04778 0.94768
 N261 N 1.02874 0.57098 0.97576
 N262 N 1.04307 0.56624 0.98479
 C263 C 1.04541 0.57766 0.99852
 C264 C 1.03182 0.59008 0.99795
 C265 C 1.02147 0.58555 0.98342
 H266 H 1.05608 0.57699 1.00825
 H267 H 1.00955 0.59229 0.97882
 Cu268 Cu 1.05690 0.54540 0.97777
 Cu269 Cu 1.02048 0.55787 0.95480
 Cu270 Cu 1.04518 0.52064 0.94227
 N271 N 1.07073 0.52456 0.97075
 N272 N 1.06597 0.51487 0.95687
 C273 C 1.07747 0.50116 0.95500
 C274 C 1.09001 0.50240 0.96842
 C275 C 1.08545 0.51732 0.97820
 H276 H 1.07675 0.49102 0.94472
 H277 H 1.09229 0.52242 0.98987
 N278 N 1.02376 0.52870 0.92926
 N279 N 1.01434 0.54287 0.93402
 C280 C 1.00065 0.54493 0.92250
 C281 C 1.00159 0.53144 0.91002
 C282 C 1.01630 0.52138 0.91459
 H283 H 0.99076 0.55545 0.92307
 H284 H 1.02119 0.50966 0.90770
 H285 H 1.03094 0.53339 0.96219
 H286 H 1.04512 0.54775 0.94752
 N287 N 0.52843 0.07070 0.47615
 N288 N 0.54241 0.06561 0.48553
 C289 C 0.54471 0.07698 0.49932
 C290 C 0.53148 0.08975 0.49841
 C291 C 0.52137 0.08546 0.48363
 H292 H 0.55521 0.07612 0.50921
 H293 H 0.50979 0.09256 0.47868
 Cu294 Cu 0.55626 0.04478 0.47849
 Cu295 Cu 0.52044 0.05783 0.45493
 Cu296 Cu 0.54518 0.02064 0.44235
 N297 N 0.57011 0.02395 0.47145
 N298 N 0.56573 0.01463 0.45719
 C299 C 0.57745 0.00114 0.45511
 C300 C 0.58974 0.00214 0.46877
 C301 C 0.58480 0.01670 0.47892
 H302 H 0.57710 -0.00862 0.44446
 H303 H 0.59146 0.02161 0.49077
 N304 N 0.52394 0.02890 0.42914
 N305 N 0.51452 0.04305 0.43391
 C306 C 0.50086 0.04514 0.42236
 C307 C 0.50183 0.03168 0.40985
 C308 C 0.51653 0.02162 0.41443
 H309 H 0.49090 0.05560 0.42299
 H310 H 0.52138 0.00985 0.40757
 H311 H 0.53061 0.03317 0.46212
 H312 H 0.54521 0.04766 0.44801
 N313 N -0.02872 0.07105 0.52409
 N314 N -0.04312 0.06640 0.51512
 C315 C -0.04541 0.07781 0.50137
 C316 C -0.03173 0.09014 0.50187
 C317 C -0.02137 0.08557 0.51638
 H318 H -0.05617 0.07723 0.49174
 H319 H -0.00942 0.09229 0.52097
 Cu320 Cu -0.05746 0.04590 0.52223
 Cu321 Cu -0.02060 0.05800 0.54507
 Cu322 Cu -0.04529 0.02086 0.55759
 N323 N -0.07082 0.02471 0.52917
 N324 N -0.06599 0.01497 0.54299
 C325 C -0.07743 0.00119 0.54482
 C326 C -0.09000 0.00244 0.53144
 C327 C -0.08553 0.01743 0.52173
 H328 H -0.07669 -0.00895 0.55510
 H329 H -0.09247 0.02260 0.51016
 N330 N -0.02394 0.02894 0.57066
 N331 N -0.01451 0.04311 0.56590
 C332 C -0.00082 0.04517 0.57742
 C333 C -0.00178 0.03169 0.58991
 C334 C -0.01650 0.02163 0.58533
 H335 H 0.00910 0.05568 0.57683
 H336 H -0.02139 0.00989 0.59221
 H337 H -0.03140 0.03369 0.53742
 H338 H -0.04535 0.04802 0.55240
 N339 N 0.47162 0.57074 0.02412
 N340 N 0.45740 0.56589 0.01496
 C341 C 0.45513 0.57730 0.00120
 C342 C 0.46863 0.58982 0.00189
 C343 C 0.47887 0.58537 0.01652
 H344 H 0.44450 0.57660 -0.00856
 H345 H 0.49066 0.59226 0.02128
 Cu346 Cu 0.44326 0.54523 0.02203
 Cu347 Cu 0.47966 0.55777 0.04521
 Cu348 Cu 0.45493 0.52059 0.05775
 N349 N 0.42966 0.52419 0.02903
 N350 N 0.43429 0.51463 0.04305
 C351 C 0.42271 0.50097 0.04499
 C352 C 0.41027 0.50211 0.03148
 C353 C 0.41496 0.51691 0.02157
 H354 H 0.42328 0.49100 0.05544
 H355 H 0.40815 0.52196 0.00987
 N356 N 0.47624 0.52876 0.07089
 N357 N 0.48567 0.54293 0.06612
 C358 C 0.49937 0.54500 0.07763
 C359 C 0.49841 0.53152 0.09013
 C360 C 0.48369 0.52145 0.08557
 H361 H 0.50931 0.55548 0.07700
 H362 H 0.47883 0.50969 0.09243
 H363 H 0.46915 0.53330 0.03779
 H364 H 0.45491 0.54770 0.05237
 N365 N 0.52851 -0.07076 0.02416
 N366 N 0.54274 -0.06593 0.01501
 C367 C 0.54500 -0.07733 0.00124
 C368 C 0.53149 -0.08984 0.00191
 C369 C 0.52125 -0.08537 0.01655
 H370 H 0.55566 -0.07664 -0.00851
 H371 H 0.50945 -0.09225 0.02130
 Cu372 Cu 0.55692 -0.04529 0.02209
 Cu373 Cu 0.52049 -0.05781 0.04527
 Cu374 Cu 0.54524 -0.02065 0.05782
 N375 N 0.57050 -0.02423 0.02909
 N376 N 0.56586 -0.01467 0.04311
 C377 C 0.57743 -0.00101 0.04505
 C378 C 0.58989 -0.00214 0.03154
 C379 C 0.58521 -0.01695 0.02164
 H380 H 0.57686 0.00897 0.05550
 H381 H 0.59203 -0.02201 0.00995
 N382 N 0.52393 -0.02883 0.07098
 N383 N 0.51450 -0.04298 0.06620
 C384 C 0.50080 -0.04505 0.07772
 C385 C 0.50176 -0.03158 0.09022
 C386 C 0.51648 -0.02152 0.08566
 H387 H 0.49084 -0.05552 0.07708
 H388 H 0.52135 -0.00976 0.09252
 H389 H 0.53104 -0.03336 0.03784
 H390 H 0.54527 -0.04778 0.05243
 N391 N 1.02837 0.42912 0.52401
 N392 N 1.04276 0.43377 0.51502
 C393 C 1.04503 0.42236 0.50127
 C394 C 1.03134 0.41004 0.50178
 C395 C 1.02100 0.41461 0.51630
 H396 H 1.05577 0.42293 0.49162
 H397 H 1.00905 0.40789 0.52091
 Cu398 Cu 1.05712 0.45426 0.52213
 Cu399 Cu 1.02028 0.44215 0.54500
 Cu400 Cu 1.04500 0.47928 0.55751
 N401 N 1.07051 0.47545 0.52907
 N402 N 1.06568 0.48517 0.54290
 C403 C 1.07713 0.49895 0.54474
 C404 C 1.08969 0.49772 0.53135
 C405 C 1.08521 0.48274 0.52162
 H406 H 1.07639 0.50908 0.55503
 H407 H 1.09214 0.47758 0.51004
 N408 N 1.02365 0.47119 0.57060
 N409 N 1.01422 0.45704 0.56584
 C410 C 1.00054 0.45497 0.57737
 C411 C 1.00152 0.46844 0.58986
 C412 C 1.01623 0.47850 0.58528
 H413 H 0.99061 0.44446 0.57678
 H414 H 1.02113 0.49024 0.59217
 H415 H 1.03107 0.46646 0.53735
 H416 H 1.04503 0.45211 0.55231
 C417 C 0.40154 0.00846 0.22591
 H418 H 0.40206 0.02065 0.23366
 C419 C 0.41316 0.00609 0.21149
 H420 H 0.42263 0.01651 0.20806
 C421 C 0.38874 -0.02015 0.22100
 H422 H 0.37944 -0.03047 0.22492
 C423 C 0.40014 -0.02307 0.20651
 H424 H 0.39945 -0.03555 0.19919
 N425 N 0.38949 -0.00448 0.23023
 C426 C 0.34746 0.02418 0.25881
 H427 H 0.34691 0.01646 0.27102
 C428 C 0.33597 0.03869 0.25642
 H429 H 0.32655 0.04222 0.26682
 C430 C 0.36027 0.02893 0.23020
 H431 H 0.36953 0.02493 0.21989
 C432 C 0.34900 0.04352 0.22726
 H433 H 0.34975 0.05081 0.21478
 Zn434 Zn 0.37444 -0.00024 0.25014
 N435 N 0.35946 0.01973 0.24588
 C436 C 0.38878 0.01975 0.27921
 N437 N 0.38949 0.00404 0.27005
 C438 C 0.40152 -0.00889 0.27441
 C439 C 0.41315 -0.00646 0.28881
 C440 C 0.40019 0.02272 0.29368
 C441 C 0.34738 -0.02464 0.24151
 C442 C 0.33583 -0.03913 0.24392
 C443 C 0.34886 -0.04397 0.27307
 C444 C 0.36018 -0.02940 0.27011
 N445 N 0.35941 -0.02021 0.25442
 H446 H 0.37951 0.03007 0.27525
 H447 H 0.40202 -0.02111 0.26670
 H448 H 0.42261 -0.01686 0.29227
 H449 H 0.39952 0.03524 0.30094
 H450 H 0.34683 -0.01691 0.22930
 H451 H 0.32638 -0.04264 0.23353
 H452 H 0.34960 -0.05125 0.28556
 H453 H 0.36946 -0.02540 0.28041
 C454 C 0.33678 0.04847 0.24051
 C455 C 0.41241 -0.00980 0.20168
 C456 C 0.33663 -0.04891 0.25983
 C457 C 0.41243 0.00947 0.29855
 C458 C 0.09829 -0.00892 0.72546
 H459 H 0.09779 -0.02115 0.73315
 C460 C 0.08663 -0.00647 0.71109
 H461 H 0.07716 -0.01687 0.70762
 C462 C 0.11103 0.01975 0.72071
 H463 H 0.12031 0.03007 0.72468
 C464 C 0.09960 0.02274 0.70626
 H465 H 0.10026 0.03527 0.69903
 N466 N 0.11034 0.00401 0.72983
 C467 C 0.15242 -0.02465 0.75841
 H468 H 0.15297 -0.01691 0.77062
 C469 C 0.16396 -0.03913 0.75601
 H470 H 0.17340 -0.04262 0.76641
 C471 C 0.13961 -0.02944 0.72982
 H472 H 0.13033 -0.02547 0.71952
 C473 C 0.15092 -0.04401 0.72687
 H474 H 0.15018 -0.05130 0.71439
 Zn475 Zn 0.12537 -0.00026 0.74974
 N476 N 0.14039 -0.02023 0.74550
 C477 C 0.11102 -0.02012 0.77890
 N478 N 0.11029 -0.00447 0.76963
 C479 C 0.09824 0.00847 0.77391
 C480 C 0.08663 0.00613 0.78833
 C481 C 0.09962 -0.02300 0.79340
 C482 C 0.15236 0.02422 0.74113
 C483 C 0.16384 0.03875 0.74355
 C484 C 0.15078 0.04353 0.77269
 C485 C 0.13952 0.02892 0.76973
 N486 N 0.14035 0.01973 0.75404
 H487 H 0.12032 -0.03045 0.77501
 H488 H 0.09774 0.02064 0.76612
 H489 H 0.07717 0.01655 0.79173
 H490 H 0.10031 -0.03546 0.80075
 H491 H 0.15293 0.01651 0.72891
 H492 H 0.17327 0.04231 0.73315
 H493 H 0.15001 0.05081 0.78518
 H494 H 0.13025 0.02489 0.78002
 C495 C 0.16316 -0.04892 0.74011
 C496 C 0.08734 0.00949 0.70139
 C497 C 0.16300 0.04852 0.75946
 C498 C 0.08738 -0.00973 0.79819
 C499 C 0.59857 0.49115 0.22567
 H500 H 0.59804 0.47891 0.23337
 C501 C 0.58698 0.49358 0.21124
 H502 H 0.57753 0.48317 0.20775
 C503 C 0.61134 0.51980 0.22094
 H504 H 0.62061 0.53012 0.22494
 C505 C 0.59998 0.52278 0.20644
 H506 H 0.60067 0.53530 0.19919
 N507 N 0.61059 0.50408 0.23009
 C508 C 0.65266 0.47556 0.25872
 H509 H 0.65317 0.48332 0.27091
 C510 C 0.66424 0.46112 0.25636
 H511 H 0.67368 0.45767 0.26678
 C512 C 0.63990 0.47069 0.23011
 H513 H 0.63063 0.47463 0.21979
 C514 C 0.65126 0.45617 0.22720
 H515 H 0.65057 0.44885 0.21473
 Zn516 Zn 0.62559 0.49981 0.25002
 N517 N 0.64063 0.47991 0.24578
 C518 C 0.61132 0.47985 0.27913
 N519 N 0.61056 0.49553 0.26992
 C520 C 0.59852 0.50845 0.27429
 C521 C 0.58693 0.50605 0.28873
 C522 C 0.59996 0.47690 0.29364
 C523 C 0.65261 0.52419 0.24138
 C524 C 0.66413 0.53870 0.24377
 C525 C 0.65107 0.54355 0.27291
 C526 C 0.63978 0.52897 0.26997
 N527 N 0.64058 0.51977 0.25429
 H528 H 0.62062 0.46954 0.27518
 H529 H 0.59799 0.52066 0.26655
 H530 H 0.57748 0.51645 0.29219
 H531 H 0.60067 0.46441 0.30094
 H532 H 0.65318 0.51646 0.22918
 H533 H 0.67357 0.54222 0.23337
 H534 H 0.65032 0.55085 0.28539
 H535 H 0.63051 0.52496 0.28027
 C536 C 0.66348 0.45131 0.24047
 C537 C 0.58774 0.50952 0.20152
 C538 C 0.66330 0.54849 0.25967
 C539 C 0.58770 0.49014 0.29851
 C540 C 0.90177 0.50876 0.72570
 H541 H 0.90228 0.52097 0.73343
 C542 C 0.91337 0.50637 0.71128
 H543 H 0.92284 0.51679 0.70783
 C544 C 0.88899 0.48013 0.72086
 H545 H 0.87970 0.46980 0.72481
 C546 C 0.90037 0.47719 0.70637
 H547 H 0.89969 0.46469 0.69908
 N548 N 0.88972 0.49583 0.73004
 C549 C 0.84769 0.52441 0.75861
 H550 H 0.84715 0.51668 0.77082
 C551 C 0.83617 0.53890 0.75622
 H552 H 0.82673 0.54241 0.76662
 C553 C 0.86049 0.52919 0.73000
 H554 H 0.86975 0.52520 0.71969
 C555 C 0.84919 0.54375 0.72706
 H556 H 0.84992 0.55104 0.71457
 Zn557 Zn 0.87471 0.50007 0.74994
 N558 N 0.85970 0.52000 0.74568
 C559 C 0.88902 0.52002 0.77902
 N560 N 0.88975 0.50434 0.76981
 C561 C 0.90180 0.49142 0.77413
 C562 C 0.91342 0.49381 0.78854
 C563 C 0.90042 0.52296 0.79350
 C564 C 0.84769 0.47568 0.74132
 C565 C 0.83616 0.46118 0.74374
 C566 C 0.84921 0.45636 0.77288
 C567 C 0.86052 0.47093 0.76992
 N568 N 0.85971 0.48011 0.75423
 H569 H 0.87972 0.53034 0.77509
 H570 H 0.90230 0.47922 0.76639
 H571 H 0.92288 0.48340 0.79197
 H572 H 0.89973 0.53545 0.80081
 H573 H 0.84713 0.48340 0.72911
 H574 H 0.82671 0.45766 0.73335
 H575 H 0.84996 0.44907 0.78537
 H576 H 0.86980 0.47494 0.78021
 C577 C 0.83697 0.54867 0.74031
 C578 C 0.91262 0.49046 0.70151
 C579 C 0.83697 0.45142 0.75965
 C580 C 0.91267 0.50971 0.79833
 C581 C 0.22566 0.40241 0.00856
 H582 H 0.23341 0.40294 0.02076
 C583 C 0.21120 0.41397 0.00620
 H584 H 0.20774 0.42341 0.01662
 C585 C 0.22081 0.38963 -0.02005
 H586 H 0.22477 0.38037 -0.03037
 C587 C 0.20628 0.40097 -0.02296
 H588 H 0.19897 0.40027 -0.03543
 N589 N 0.23001 0.39039 -0.00437
 C590 C 0.25846 0.34837 0.02425
 H591 H 0.27068 0.34782 0.01655
 C592 C 0.25601 0.33683 0.03872
 H593 H 0.26640 0.32738 0.04224
 C594 C 0.22984 0.36118 0.02896
 H595 H 0.21954 0.37045 0.02495
 C596 C 0.22685 0.34987 0.04351
 H597 H 0.21434 0.35060 0.05076
 Zn598 Zn 0.24988 0.37537 -0.00011
 N599 N 0.24555 0.36039 0.01981
 C600 C 0.27894 0.38968 0.01987
 N601 N 0.26978 0.39041 0.00416
 C602 C 0.27415 0.40246 -0.00875
 C603 C 0.28857 0.41408 -0.00632
 C604 C 0.29343 0.40108 0.02284
 C605 C 0.24118 0.34833 -0.02439
 C606 C 0.24354 0.33678 -0.03887
 C607 C 0.27270 0.34982 -0.04379
 C608 C 0.26979 0.36114 -0.02924
 N609 N 0.25412 0.36036 -0.02002
 H610 H 0.27497 0.38039 0.03017
 H611 H 0.26643 0.40297 -0.02096
 H612 H 0.29204 0.42355 -0.01671
 H613 H 0.30070 0.40039 0.03534
 H614 H 0.22898 0.34779 -0.01664
 H615 H 0.23312 0.32734 -0.04234
 H616 H 0.28518 0.35055 -0.05111
 H617 H 0.28011 0.37043 -0.02529
 C618 C 0.24008 0.33764 0.04845
 C619 C 0.20140 0.41318 -0.00968
 C620 C 0.25943 0.33759 -0.04868
 C621 C 0.29831 0.41334 0.00960
 C622 C 0.72600 0.09757 -0.00856
 H623 H 0.73373 0.09706 -0.02077
 C624 C 0.71160 0.08594 -0.00614
 H625 H 0.70813 0.07647 -0.01654
 C626 C 0.72120 0.11033 0.02006
 H627 H 0.72517 0.11962 0.03037
 C628 C 0.70672 0.09892 0.02303
 H629 H 0.69944 0.09960 0.03553
 N630 N 0.73036 0.10962 0.00436
 C631 C 0.75898 0.15169 -0.02420
 H632 H 0.77118 0.15223 -0.01646
 C633 C 0.75662 0.16323 -0.03868
 H634 H 0.76704 0.17267 -0.04217
 C635 C 0.73036 0.13889 -0.02903
 H636 H 0.72004 0.12960 -0.02507
 C637 C 0.72745 0.15020 -0.04359
 H638 H 0.71497 0.14947 -0.05090
 Zn639 Zn 0.75027 0.12465 0.00009
 N640 N 0.74603 0.13967 -0.01982
 C641 C 0.77931 0.11038 -0.01987
 N642 N 0.77013 0.10962 -0.00419
 C643 C 0.77447 0.09757 0.00873
 C644 C 0.78889 0.08599 0.00633
 C645 C 0.79382 0.09901 -0.02282
 C646 C 0.74172 0.15165 0.02449
 C647 C 0.74418 0.16317 0.03897
 C648 C 0.77335 0.15012 0.04371
 C649 C 0.77034 0.13882 0.02915
 N650 N 0.75461 0.13962 0.02003
 H651 H 0.77536 0.11966 -0.03018
 H652 H 0.76672 0.09705 0.02093
 H653 H 0.79235 0.07653 0.01673
 H654 H 0.80112 0.09972 -0.03530
 H655 H 0.72948 0.15221 0.01681
 H656 H 0.73380 0.17262 0.04251
 H657 H 0.78587 0.14937 0.05094
 H658 H 0.78063 0.12955 0.02512
 C659 C 0.74073 0.16243 -0.04848
 C660 C 0.70184 0.08667 0.00978
 C661 C 0.76013 0.16235 0.04868
 C662 C 0.79868 0.08677 -0.00956
 C663 C 0.22571 0.59746 0.49133
 H664 H 0.23346 0.59694 0.47914
 C665 C 0.21124 0.58589 0.49370
 H666 H 0.20776 0.57645 0.48330
 C667 C 0.22087 0.61025 0.51994
 H668 H 0.22483 0.61952 0.53026
 C669 C 0.20633 0.59890 0.52286
 H670 H 0.19901 0.59961 0.53533
 N671 N 0.23007 0.60949 0.50426
 C672 C 0.25853 0.65153 0.47559
 H673 H 0.27077 0.65209 0.48327
 C674 C 0.25606 0.66308 0.46113
 H675 H 0.26644 0.67253 0.45759
 C676 C 0.22989 0.63870 0.47094
 H677 H 0.21959 0.62943 0.47497
 C678 C 0.22687 0.65002 0.45641
 H679 H 0.21435 0.64928 0.44918
 Zn680 Zn 0.24996 0.62452 0.49999
 N681 N 0.24562 0.63950 0.48006
 C682 C 0.27905 0.61020 0.48005
 N683 N 0.26986 0.60948 0.49574
 C684 C 0.27419 0.59743 0.50866
 C685 C 0.28859 0.58580 0.50626
 C686 C 0.29353 0.59879 0.47711
 C687 C 0.24126 0.65155 0.52430
 C688 C 0.24361 0.66306 0.53880
 C689 C 0.27275 0.65002 0.54375
 C690 C 0.26985 0.63872 0.52917
 N691 N 0.25419 0.63953 0.51992
 H692 H 0.27510 0.61949 0.46974
 H693 H 0.26645 0.59692 0.52086
 H694 H 0.29203 0.57634 0.51666
 H695 H 0.30082 0.59948 0.46462
 H696 H 0.22907 0.65210 0.51654
 H697 H 0.23320 0.67250 0.54228
 H698 H 0.28521 0.64927 0.55109
 H699 H 0.28016 0.62944 0.52522
 C700 C 0.24010 0.66227 0.45144
 C701 C 0.20145 0.58668 0.50959
 C702 C 0.25948 0.66224 0.54864
 C703 C 0.29837 0.58654 0.49036
 C704 C 0.72576 0.90260 0.50861
 H705 H 0.73350 0.90311 0.52081
 C706 C 0.71136 0.91421 0.50621
 H707 H 0.70791 0.92367 0.51662
 C708 C 0.72092 0.88982 0.48000
 H709 H 0.72488 0.88054 0.46968
 C710 C 0.70644 0.90122 0.47705
 H711 H 0.69915 0.90053 0.46456
 N712 N 0.73009 0.89056 0.49569
 C713 C 0.75861 0.84858 0.52426
 H714 H 0.77082 0.84804 0.51653
 C715 C 0.75623 0.83707 0.53875
 H716 H 0.76664 0.82763 0.54226
 C717 C 0.73000 0.86138 0.52905
 H718 H 0.71968 0.87065 0.52507
 C719 C 0.72707 0.85009 0.54362
 H720 H 0.71458 0.85082 0.55092
 Zn721 Zn 0.74996 0.87557 0.49996
 N722 N 0.74568 0.86059 0.51986
 C723 C 0.77897 0.88988 0.51991
 N724 N 0.76979 0.89061 0.50422
 C725 C 0.77413 0.90266 0.49130
 C726 C 0.78854 0.91427 0.49368
 C727 C 0.79346 0.90128 0.52285
 C728 C 0.74136 0.84856 0.47565
 C729 C 0.74378 0.83702 0.46118
 C730 C 0.77295 0.85010 0.45636
 C731 C 0.76997 0.86141 0.47090
 N732 N 0.75427 0.86060 0.48006
 H733 H 0.77501 0.88060 0.53023
 H734 H 0.76638 0.90316 0.47910
 H735 H 0.79200 0.92373 0.48328
 H736 H 0.80076 0.90060 0.53533
 H737 H 0.72914 0.84800 0.48336
 H738 H 0.73339 0.82756 0.45767
 H739 H 0.78544 0.85086 0.44908
 H740 H 0.78027 0.87071 0.47489
 C741 C 0.74033 0.83788 0.54853
 C742 C 0.70160 0.91346 0.49030
 C743 C 0.75971 0.83786 0.45144
 C744 C 0.79831 0.91352 0.50959
 C745 C 0.00814 0.22578 0.40174
 H746 H 0.02038 0.23348 0.40228
 C747 C 0.00568 0.21133 0.41330
 H748 H 0.01607 0.20781 0.42275
 C749 C -0.02048 0.22106 0.38893
 H750 H -0.03078 0.22507 0.37965
 C751 C -0.02350 0.20654 0.40027
 H752 H -0.03602 0.19928 0.39955
 N753 N -0.00475 0.23020 0.38970
 C754 C 0.02399 0.25864 0.34765
 H755 H 0.01630 0.27087 0.34708
 C756 C 0.03847 0.25619 0.33614
 H757 H 0.04202 0.26657 0.32669
 C758 C 0.02867 0.23003 0.36051
 H759 H 0.02465 0.21975 0.36980
 C760 C 0.04324 0.22704 0.34922
 H761 H 0.05050 0.21453 0.34999
 Zn762 Zn -0.00038 0.25009 0.37469
 N763 N 0.01953 0.24574 0.35969
 C764 C 0.01974 0.27910 0.38892
 N765 N 0.00399 0.26999 0.38969
 C766 C -0.00891 0.27445 0.40172
 C767 C -0.00642 0.28890 0.41327
 C768 C 0.02277 0.29362 0.40026
 C769 C -0.02474 0.24154 0.34766
 C770 C -0.03921 0.24399 0.33614
 C771 C -0.04397 0.27315 0.34920
 C772 C -0.02942 0.27016 0.36050
 N773 N -0.02028 0.25444 0.35969
 H774 H 0.03003 0.27507 0.37965
 H775 H -0.02117 0.26678 0.40226
 H776 H -0.01680 0.29244 0.42272
 H777 H 0.03531 0.30085 0.39954
 H778 H -0.01705 0.22931 0.34710
 H779 H -0.04275 0.23361 0.32669
 H780 H -0.05122 0.28567 0.34995
 H781 H -0.02539 0.28045 0.36977
 C782 C 0.04820 0.24026 0.33698
 C783 C -0.01026 0.20160 0.41250
 C784 C -0.04894 0.25992 0.33698
 C785 C 0.00955 0.29859 0.41248
 C786 C -0.00851 0.72567 0.09799
 H787 H -0.02075 0.73335 0.09744
 C788 C -0.00606 0.71120 0.08645
 H789 H -0.01645 0.70766 0.07700
 C790 C 0.02012 0.72099 0.11079
 H791 H 0.03041 0.72502 0.12006
 C792 C 0.02312 0.70645 0.09948
 H793 H 0.03563 0.69921 0.10021
 N794 N 0.00439 0.73012 0.11002
 C795 C -0.02429 0.75858 0.15204
 H796 H -0.01656 0.77080 0.15260
 C797 C -0.03879 0.75617 0.16355
 H798 H -0.04231 0.76657 0.17299
 C799 C -0.02906 0.72997 0.13921
 H800 H -0.02506 0.71967 0.12993
 C801 C -0.04363 0.72701 0.15049
 H802 H -0.05093 0.71451 0.14974
 Zn803 Zn 0.00006 0.75001 0.12504
 N804 N -0.01987 0.74567 0.14002
 C805 C -0.02004 0.77901 0.11081
 N806 N -0.00430 0.76992 0.11004
 C807 C 0.00860 0.77439 0.09800
 C808 C 0.00611 0.78883 0.08644
 C809 C -0.02308 0.79353 0.09947
 C810 C 0.02438 0.74143 0.15209
 C811 C 0.03886 0.74386 0.16363
 C812 C 0.04371 0.77302 0.15058
 C813 C 0.02915 0.77004 0.13927
 N814 N 0.01997 0.75434 0.14006
 H815 H -0.03034 0.77497 0.12008
 H816 H 0.02085 0.76673 0.09746
 H817 H 0.01648 0.79238 0.07699
 H818 H -0.03562 0.80074 0.10019
 H819 H 0.01666 0.72921 0.15264
 H820 H 0.04236 0.73346 0.17308
 H821 H 0.05099 0.78552 0.14984
 H822 H 0.02516 0.78035 0.12999
 C823 C -0.04856 0.74025 0.16272
 C824 C 0.00988 0.70148 0.08726
 C825 C 0.04864 0.75978 0.16281
 C826 C -0.00986 0.79851 0.08723
 C827 C 0.49156 0.22550 0.59853
 H828 H 0.47932 0.23318 0.59800
 C829 C 0.49404 0.21108 0.58693
 H830 H 0.48366 0.20758 0.57746
 C831 C 0.52018 0.22081 0.61134
 H832 H 0.53047 0.22480 0.62063
 C833 C 0.52320 0.20631 0.59996
 H834 H 0.53572 0.19908 0.60067
 N835 N 0.50445 0.22993 0.61059
 C836 C 0.47562 0.25844 0.65263
 H837 H 0.48331 0.27068 0.65322
 C838 C 0.46109 0.25598 0.66411
 H839 H 0.45753 0.26637 0.67354
 C840 C 0.47096 0.22982 0.63979
 H841 H 0.47499 0.21953 0.63052
 C842 C 0.45635 0.22682 0.65105
 H843 H 0.44909 0.21430 0.65027
 Zn844 Zn 0.50013 0.24987 0.62562
 N845 N 0.48013 0.24554 0.64062
 C846 C 0.48013 0.27893 0.61127
 N847 N 0.49585 0.26980 0.61055
 C848 C 0.50876 0.27420 0.59851
 C849 C 0.50631 0.28861 0.58688
 C850 C 0.47713 0.29342 0.59986
 C851 C 0.52460 0.24130 0.65267
 C852 C 0.53913 0.24375 0.66415
 C853 C 0.54392 0.27289 0.65106
 C854 C 0.52931 0.26990 0.63980
 N855 N 0.52012 0.25420 0.64064
 H856 H 0.46982 0.27495 0.62055
 H857 H 0.52099 0.26651 0.59799
 H858 H 0.51670 0.29210 0.57742
 H859 H 0.46461 0.30066 0.60055
 H860 H 0.51690 0.22907 0.65325
 H861 H 0.54268 0.23335 0.67358
 H862 H 0.55120 0.28539 0.65027
 H863 H 0.52530 0.28019 0.63052
 C864 C 0.45134 0.24004 0.66328
 C865 C 0.50999 0.20138 0.58769
 C866 C 0.54890 0.25967 0.66330
 C867 C 0.49036 0.29833 0.58760
 C868 C 0.50849 0.72572 0.90186
 H869 H 0.52071 0.73344 0.90239
 C870 C 0.50606 0.71126 0.91343
 H871 H 0.51646 0.70777 0.92288
 C872 C 0.47987 0.72093 0.88906
 H873 H 0.46957 0.72491 0.87978
 C874 C 0.47689 0.70640 0.90041
 H875 H 0.46439 0.69912 0.89969
 N876 N 0.49558 0.73011 0.88982
 C877 C 0.52426 0.75862 0.84775
 H878 H 0.51656 0.77084 0.84719
 C879 C 0.53875 0.75618 0.83623
 H880 H 0.54228 0.76658 0.82679
 C881 C 0.52897 0.73000 0.86058
 H882 H 0.52496 0.71970 0.86986
 C883 C 0.54353 0.72702 0.84928
 H884 H 0.55080 0.71452 0.85003
 Zn885 Zn 0.49989 0.75003 0.87479
 N886 N 0.51981 0.74571 0.85978
 C887 C 0.51997 0.77909 0.88904
 N888 N 0.50424 0.76996 0.88981
 C889 C 0.49135 0.77438 0.90185
 C890 C 0.49383 0.78882 0.91343
 C891 C 0.52300 0.79360 0.90040
 C892 C 0.47551 0.74143 0.84774
 C893 C 0.46105 0.74386 0.83619
 C894 C 0.45625 0.77303 0.84923
 C895 C 0.47079 0.77005 0.86055
 N896 N 0.47995 0.75434 0.85977
 H897 H 0.53026 0.77508 0.87976
 H898 H 0.47910 0.76669 0.90240
 H899 H 0.48345 0.79233 0.92290
 H900 H 0.53553 0.80084 0.89968
 H901 H 0.48321 0.72920 0.84720
 H902 H 0.45753 0.73346 0.82675
 H903 H 0.44899 0.78553 0.84996
 H904 H 0.47479 0.78035 0.86984
 C905 C 0.54849 0.74026 0.83705
 C906 C 0.49013 0.70150 0.91265
 C907 C 0.45130 0.75979 0.83699
 C908 C 0.50979 0.79854 0.91265
 C909 C 0.11772 0.22664 0.28214
 C910 C 0.10933 0.20932 0.28928
 C911 C 0.09520 0.21212 0.30044
 C912 C 0.09085 0.23196 0.30336
 C913 C 0.08809 0.23963 0.28454
 C914 C 0.10222 0.23684 0.27338
 C915 C 0.12249 0.23755 0.29885
 C916 C 0.10837 0.24034 0.31000
 C917 C 0.13291 0.22365 0.27012
 C918 C 0.14538 0.22127 0.26019
 C919 C 0.07565 0.23497 0.31536
 C920 C 0.06314 0.23740 0.32522
 H921 H 0.11406 0.19603 0.28588
 H922 H 0.08784 0.20123 0.30660
 H923 H 0.07610 0.24665 0.28035
 H924 H 0.10233 0.24147 0.25964
 H925 H 0.13579 0.24264 0.30166
 H926 H 0.10958 0.24782 0.32238
 C927 C 0.61800 0.72682 0.78212
 C928 C 0.60964 0.70948 0.78926
 C929 C 0.59554 0.71225 0.80045
 C930 C 0.59116 0.73208 0.80340
 C931 C 0.58837 0.73978 0.78460
 C932 C 0.60247 0.73701 0.77341
 C933 C 0.62279 0.73771 0.79884
 C934 C 0.60868 0.74048 0.81002
 C935 C 0.63317 0.72385 0.77006
 C936 C 0.64560 0.72145 0.76008
 C937 C 0.57596 0.73504 0.81543
 C938 C 0.56345 0.73744 0.82529
 H939 H 0.61439 0.69621 0.78584
 H940 H 0.58821 0.70134 0.80661
 H941 H 0.57637 0.74681 0.78044
 H942 H 0.60256 0.74169 0.75968
 H943 H 0.63609 0.74283 0.80163
 H944 H 0.60990 0.74794 0.82240
 C945 C 0.38173 0.77341 0.78213
 C946 C 0.38974 0.75457 0.78066
 C947 C 0.40387 0.75176 0.79181
 C948 C 0.40861 0.76806 0.80334
 C949 C 0.39123 0.77286 0.81314
 C950 C 0.37710 0.77568 0.80199
 C951 C 0.39748 0.78617 0.77885
 C952 C 0.41160 0.78335 0.79000
 C953 C 0.36654 0.77644 0.77009
 C954 C 0.35410 0.77888 0.76013
 C955 C 0.42384 0.76504 0.81534
 C956 C 0.43636 0.76262 0.82520
 H957 H 0.38473 0.74434 0.77168
 H958 H 0.41097 0.73912 0.79236
 H959 H 0.39011 0.77392 0.82756
 H960 H 0.36388 0.77914 0.80687
 H961 H 0.39753 0.79649 0.76866
 H962 H 0.42376 0.79126 0.78934
 C963 C -0.11822 0.27337 0.28185
 C964 C -0.12211 0.27859 0.30130
 C965 C -0.10805 0.27583 0.31254
 C966 C -0.09149 0.26810 0.30323
 C967 C -0.08734 0.28119 0.28799
 C968 C -0.10139 0.28395 0.27674
 C969 C -0.11214 0.25379 0.28271
 C970 C -0.09809 0.25101 0.29397
 C971 C -0.13336 0.27640 0.26977
 C972 C -0.14579 0.27884 0.25982
 C973 C -0.07635 0.26514 0.31531
 C974 C -0.06386 0.26275 0.32520
 H975 H -0.13481 0.28393 0.30585
 H976 H -0.10870 0.27882 0.32672
 H977 H -0.07450 0.28772 0.28620
 H978 H -0.10057 0.29281 0.26528
 H979 H -0.11834 0.24304 0.27518
 H980 H -0.09226 0.23789 0.29610
 C981 C -0.11782 0.72677 0.21793
 C982 C -0.10006 0.71927 0.22494
 C983 C -0.08601 0.72204 0.21368
 C984 C -0.09110 0.73204 0.19651
 C985 C -0.10004 0.74936 0.20289
 C986 C -0.11409 0.74659 0.21415
 C987 C -0.12030 0.71819 0.19946
 C988 C -0.10625 0.72096 0.18820
 C989 C -0.13292 0.72379 0.23007
 C990 C -0.14529 0.72139 0.24010
 C991 C -0.07596 0.73501 0.18441
 C992 C -0.06349 0.73742 0.17451
 H993 H -0.09864 0.71241 0.23765
 H994 H -0.07255 0.71755 0.21674
 H995 H -0.09570 0.76264 0.19892
 H996 H -0.12179 0.75750 0.21983
 H997 H -0.13206 0.71062 0.19556
 H998 H -0.10597 0.71576 0.17465
 C999 C 0.38167 0.22653 0.71813
 C1000 C 0.39981 0.22189 0.72651
 C1001 C 0.41394 0.22464 0.71534
 C1002 C 0.40856 0.23177 0.69688
 C1003 C 0.39768 0.24874 0.70070
 C1004 C 0.38355 0.24599 0.71187
 C1005 C 0.38079 0.21545 0.70088
 C1006 C 0.39492 0.21820 0.68972
 C1007 C 0.36646 0.22359 0.73018
 C1008 C 0.35399 0.22124 0.74014
 C1009 C 0.42381 0.23475 0.68486
 C1010 C 0.43635 0.23718 0.67502
 H1011 H 0.40142 0.21689 0.74003
 H1012 H 0.42765 0.22199 0.71930
 H1013 H 0.40080 0.26178 0.69512
 H1014 H 0.37457 0.25666 0.71585
 H1015 H 0.37000 0.20626 0.69772
 H1016 H 0.39624 0.21137 0.67699
 C1017 C 0.61852 0.27322 0.71819
 C1018 C 0.62369 0.27295 0.69834
 C1019 C 0.60957 0.27018 0.68716
 C1020 C 0.59165 0.26794 0.69692
 C1021 C 0.58979 0.28477 0.70851
 C1022 C 0.60391 0.28755 0.71969
 C1023 C 0.60884 0.25540 0.72141
 C1024 C 0.59472 0.25263 0.71023
 C1025 C 0.63371 0.27619 0.73026
 C1026 C 0.64617 0.27856 0.74022
 C1027 C 0.57643 0.26495 0.68490
 C1028 C 0.56389 0.26252 0.67504
 H1029 H 0.63725 0.27477 0.69350
 H1030 H 0.61104 0.26962 0.67274
 H1031 H 0.57839 0.29372 0.70798
 H1032 H 0.60459 0.29888 0.72874
 H1033 H 0.61273 0.24581 0.73157
 H1034 H 0.58653 0.24065 0.71082
 C1035 C 0.11804 0.77350 0.21782
 C1036 C 0.10629 0.79008 0.21501
 C1037 C 0.09222 0.78722 0.20380
 C1038 C 0.09126 0.76807 0.19651
 C1039 C 0.09109 0.75603 0.21312
 C1040 C 0.10516 0.75888 0.22432
 C1041 C 0.12361 0.76766 0.19897
 C1042 C 0.10953 0.76480 0.18776
 C1043 C 0.13316 0.77659 0.22992
 C1044 C 0.14553 0.77909 0.23995
 C1045 C 0.07608 0.76503 0.18446
 C1046 C 0.06358 0.76260 0.17459
 H1047 H 0.10881 0.80293 0.22126
 H1048 H 0.08268 0.79764 0.20045
 H1049 H 0.08083 0.74611 0.21582
 H1050 H 0.10697 0.75140 0.23662
 H1051 H 0.13740 0.76588 0.19479
 H1052 H 0.11126 0.76059 0.17398
 C1053 C 0.28169 0.11787 0.22720
 C1054 C 0.28742 0.10845 0.20989
 C1055 C 0.29865 0.09438 0.21262
 C1056 C 0.30305 0.09108 0.23238
 C1057 C 0.28484 0.08897 0.24161
 C1058 C 0.27361 0.10305 0.23888
 C1059 C 0.29923 0.12304 0.23650
 C1060 C 0.31047 0.10896 0.23923
 C1061 C 0.26961 0.13303 0.22426
 C1062 C 0.25971 0.14550 0.22179
 C1063 C 0.31512 0.07591 0.23532
 C1064 C 0.32501 0.06341 0.23771
 H1065 H 0.28306 0.11250 0.19666
 H1066 H 0.30391 0.08636 0.20173
 H1067 H 0.28111 0.07744 0.24959
 H1068 H 0.26026 0.10358 0.24454
 H1069 H 0.30254 0.13657 0.24059
 H1070 H 0.32340 0.11043 0.24565
 C1071 C 0.78193 0.61807 0.72699
 C1072 C 0.78067 0.61011 0.74586
 C1073 C 0.79189 0.59602 0.74859
 C1074 C 0.80327 0.59128 0.73219
 C1075 C 0.81297 0.60868 0.72723
 C1076 C 0.80175 0.62276 0.72449
 C1077 C 0.77854 0.60229 0.71432
 C1078 C 0.78976 0.58820 0.71705
 C1079 C 0.76984 0.63322 0.72404
 C1080 C 0.75993 0.64567 0.72156
 C1081 C 0.81532 0.57611 0.73513
 C1082 C 0.82520 0.56361 0.73751
 H1083 H 0.77179 0.61512 0.75617
 H1084 H 0.79261 0.58896 0.76124
 H1085 H 0.82739 0.60983 0.72597
 H1086 H 0.80656 0.63599 0.72091
 H1087 H 0.76826 0.60220 0.70409
 H1088 H 0.78908 0.57605 0.70916
 C1089 C 0.78177 0.38201 0.77278
 C1090 C 0.78991 0.38258 0.75396
 C1091 C 0.80116 0.39667 0.75130
 C1092 C 0.80318 0.40880 0.76772
 C1093 C 0.80910 0.39630 0.78287
 C1094 C 0.79785 0.38221 0.78553
 C1095 C 0.77279 0.40028 0.77526
 C1096 C 0.78404 0.41437 0.77260
 C1097 C 0.76965 0.36684 0.77565
 C1098 C 0.75973 0.35436 0.77806
 C1099 C 0.81527 0.42398 0.76484
 C1100 C 0.82518 0.43648 0.76247
 H1101 H 0.78709 0.37279 0.74363
 H1102 H 0.80798 0.39895 0.73870
 H1103 H 0.82108 0.39834 0.79081
 H1104 H 0.80019 0.37217 0.79574
 H1105 H 0.75882 0.40201 0.77879
 H1106 H 0.77972 0.42817 0.77387
 C1107 C 0.28135 -0.11827 0.27317
 C1108 C 0.28477 -0.11422 0.25335
 C1109 C 0.29604 -0.10016 0.25061
 C1110 C 0.30280 -0.09153 0.26795
 C1111 C 0.31126 -0.10690 0.27858
 C1112 C 0.29999 -0.12096 0.28132
 C1113 C 0.27457 -0.10062 0.28111
 C1114 C 0.28584 -0.08656 0.27837
 C1115 C 0.26920 -0.13339 0.27616
 C1116 C 0.25921 -0.14579 0.27871
 C1117 C 0.31491 -0.07636 0.26502
 C1118 C 0.32482 -0.06386 0.26263
 H1119 H 0.27888 -0.12175 0.24243
 H1120 H 0.29981 -0.09565 0.23735
 H1121 H 0.32492 -0.10677 0.28350
 H1122 H 0.30399 -0.13287 0.28858
 H1123 H 0.26201 -0.09927 0.28826
 H1124 H 0.28294 -0.07318 0.28319
 C1125 C 0.21831 -0.11837 0.72692
 C1126 C 0.20243 -0.12276 0.73917
 C1127 C 0.19120 -0.10867 0.74187
 C1128 C 0.19694 -0.09157 0.73206
 C1129 C 0.19865 -0.09706 0.71238
 C1130 C 0.20988 -0.11115 0.70968
 C1131 C 0.22741 -0.10215 0.73560
 C1132 C 0.21618 -0.08806 0.73830
 C1133 C 0.23041 -0.13353 0.72397
 C1134 C 0.24033 -0.14599 0.72148
 C1135 C 0.18486 -0.07638 0.73497
 C1136 C 0.17496 -0.06387 0.73733
 H1137 H 0.20022 -0.13577 0.74519
 H1138 H 0.17935 -0.10963 0.75019
 H1139 H 0.19163 -0.09049 0.70151
 H1140 H 0.21248 -0.11664 0.69650
 H1141 H 0.24143 -0.10177 0.73933
 H1142 H 0.22059 -0.07561 0.74432
 C1143 C 0.71869 0.38203 0.22723
 C1144 C 0.70147 0.38105 0.21610
 C1145 C 0.69022 0.39511 0.21884
 C1146 C 0.69729 0.40877 0.23242
 C1147 C 0.71575 0.41428 0.22535
 C1148 C 0.72699 0.40022 0.22261
 C1149 C 0.71236 0.38383 0.24665
 C1150 C 0.70111 0.39790 0.24939
 C1151 C 0.73083 0.36692 0.22432
 C1152 C 0.74078 0.35449 0.22191
 C1153 C 0.68521 0.42392 0.23535
 C1154 C 0.67530 0.43640 0.23772
 H1155 H 0.69837 0.37024 0.20692
 H1156 H 0.67747 0.39634 0.21201
 H1157 H 0.71966 0.42802 0.22275
 H1158 H 0.74052 0.40192 0.21762
 H1159 H 0.71633 0.37483 0.25731
 H1160 H 0.69547 0.40096 0.26239
 C1161 C 0.71841 0.61787 0.27315
 C1162 C 0.70408 0.62149 0.25892
 C1163 C 0.69284 0.60741 0.25615
 C1164 C 0.69704 0.59110 0.26786
 C1165 C 0.69675 0.59817 0.28712
 C1166 C 0.70798 0.61225 0.28989
 C1167 C 0.72798 0.60085 0.26686
 C1168 C 0.71674 0.58677 0.26409
 C1169 C 0.73050 0.63302 0.27616
 C1170 C 0.74043 0.64546 0.27869
 C1171 C 0.68497 0.57593 0.26488
 C1172 C 0.67508 0.56343 0.26247
 H1173 H 0.70286 0.63400 0.25167
 H1174 H 0.68199 0.60786 0.24653
 H1175 H 0.68844 0.59261 0.29764
 H1176 H 0.70930 0.61875 0.30279
 H1177 H 0.74231 0.59993 0.26478
 H1178 H 0.72145 0.57378 0.25964
 C1179 C 0.21819 0.11797 0.77264
 C1180 C 0.22326 0.10632 0.75653
 C1181 C 0.21199 0.09225 0.75386
 C1182 C 0.19675 0.09119 0.76756
 C1183 C 0.18745 0.10945 0.76660
 C1184 C 0.19872 0.12353 0.76927
 C1185 C 0.21732 0.10499 0.78852
 C1186 C 0.20605 0.09091 0.78584
 C1187 C 0.23033 0.13312 0.77552
 C1188 C 0.24027 0.14558 0.77793
 C1189 C 0.18465 0.07601 0.76466
 C1190 C 0.17476 0.06349 0.76228
 H1191 H 0.23468 0.10892 0.74796
 H1192 H 0.21376 0.08278 0.74301
 H1193 H 0.17327 0.11118 0.76405
 H1194 H 0.19419 0.13732 0.76901
 H1195 H 0.22486 0.10672 0.80078
 H1196 H 0.20395 0.08059 0.79582
 C1197 C 0.22662 0.28239 0.11764
 C1198 C 0.21770 0.27616 0.10025
 C1199 C 0.22045 0.28744 0.08622
 C1200 C 0.23186 0.30384 0.09095
 C1201 C 0.24918 0.29619 0.09885
 C1202 C 0.24642 0.28491 0.11288
 C1203 C 0.21946 0.30136 0.12081
 C1204 C 0.22222 0.31264 0.10678
 C1205 C 0.22364 0.27022 0.13272
 C1206 C 0.22117 0.26020 0.14508
 C1207 C 0.23482 0.31594 0.07583
 C1208 C 0.23724 0.32585 0.06336
 H1209 H 0.20990 0.26397 0.09906
 H1210 H 0.21501 0.28492 0.07301
 H1211 H 0.26243 0.29937 0.09387
 H1212 H 0.25732 0.27843 0.11993
 H1213 H 0.21285 0.30557 0.13302
 H1214 H 0.21796 0.32651 0.10695
 C1215 C 0.72697 0.78265 0.61772
 C1216 C 0.72066 0.77505 0.59974
 C1217 C 0.72341 0.78633 0.58571
 C1218 C 0.73220 0.80410 0.59104
 C1219 C 0.74945 0.79880 0.60080
 C1220 C 0.74670 0.78751 0.61483
 C1221 C 0.71728 0.80064 0.61962
 C1222 C 0.72003 0.81192 0.60558
 C1223 C 0.72400 0.77050 0.63280
 C1224 C 0.72154 0.76050 0.64518
 C1225 C 0.73515 0.81620 0.57592
 C1226 C 0.73754 0.82610 0.56345
 H1227 H 0.71457 0.76197 0.59817
 H1228 H 0.71967 0.78291 0.57212
 H1229 H 0.76266 0.80351 0.59703
 H1230 H 0.75755 0.78255 0.62309
 H1231 H 0.70902 0.80421 0.63099
 H1232 H 0.71412 0.82515 0.60493
 C1233 C 0.77310 0.78274 0.38219
 C1234 C 0.78062 0.77570 0.39993
 C1235 C 0.77787 0.78694 0.41398
 C1236 C 0.76787 0.80412 0.40892
 C1237 C 0.75053 0.79776 0.39998
 C1238 C 0.75328 0.78651 0.38593
 C1239 C 0.78168 0.80123 0.37973
 C1240 C 0.77893 0.81248 0.39378
 C1241 C 0.77608 0.77061 0.36710
 C1242 C 0.77855 0.76061 0.35474
 C1243 C 0.76492 0.81619 0.42406
 C1244 C 0.76252 0.82608 0.43653
 H1245 H 0.78749 0.76300 0.40132
 H1246 H 0.78240 0.78388 0.42742
 H1247 H 0.73726 0.80175 0.40430
 H1248 H 0.74236 0.78087 0.37819
 H1249 H 0.78921 0.80516 0.36796
 H1250 H 0.78412 0.82603 0.39408
 C1251 C 0.27302 0.28245 -0.11796
 C1252 C 0.26298 0.29961 -0.12305
 C1253 C 0.26013 0.31084 -0.10899
 C1254 C 0.26761 0.30382 -0.09123
 C1255 C 0.28745 0.30012 -0.09490
 C1256 C 0.29030 0.28889 -0.10894
 C1257 C 0.26192 0.27407 -0.10286
 C1258 C 0.25908 0.28530 -0.08881
 C1259 C 0.27612 0.27034 -0.13306
 C1260 C 0.27869 0.26036 -0.14544
 C1261 C 0.26459 0.31589 -0.07608
 C1262 C 0.26219 0.32579 -0.06360
 H1263 H 0.25847 0.30265 -0.13650
 H1264 H 0.25320 0.32351 -0.11041
 H1265 H 0.29832 0.30584 -0.08715
 H1266 H 0.30360 0.28498 -0.11323
 H1267 H 0.25671 0.26052 -0.10320
 H1268 H 0.25144 0.28138 -0.07712
 C1269 C 0.72711 0.21752 -0.11779
 C1270 C 0.71950 0.22448 -0.10005
 C1271 C 0.72235 0.21326 -0.08600
 C1272 C 0.73253 0.19618 -0.09105
 C1273 C 0.74981 0.20272 -0.09997
 C1274 C 0.74696 0.21395 -0.11403
 C1275 C 0.71872 0.19895 -0.12025
 C1276 C 0.72157 0.18772 -0.10619
 C1277 C 0.72400 0.22962 -0.13290
 C1278 C 0.72143 0.23959 -0.14529
 C1279 C 0.73555 0.18412 -0.07589
 C1280 C 0.73796 0.17422 -0.06341
 H1281 H 0.71252 0.23712 -0.09865
 H1282 H 0.71780 0.21628 -0.07256
 H1283 H 0.76311 0.19886 -0.09564
 H1284 H 0.75783 0.21970 -0.12175
 H1285 H 0.71125 0.19494 -0.13203
 H1286 H 0.71653 0.17411 -0.10592
 C1287 C 0.22680 0.71758 0.38224
 C1288 C 0.24290 0.70510 0.37979
 C1289 C 0.24558 0.69382 0.39384
 C1290 C 0.23190 0.69612 0.40895
 C1291 C 0.21359 0.69382 0.39997
 C1292 C 0.21091 0.70510 0.38592
 C1293 C 0.23021 0.72726 0.40000
 C1294 C 0.23289 0.71598 0.41404
 C1295 C 0.22392 0.72974 0.36712
 C1296 C 0.22156 0.73973 0.35471
 C1297 C 0.23482 0.68401 0.42408
 C1298 C 0.23723 0.67408 0.43654
 H1299 H 0.25143 0.70512 0.36806
 H1300 H 0.25641 0.68417 0.39414
 H1301 H 0.20363 0.68418 0.40426
 H1302 H 0.19864 0.70512 0.37818
 H1303 H 0.23049 0.74170 0.40142
 H1304 H 0.23547 0.72076 0.42750
 C1305 C 0.27270 0.71762 0.61781
 C1306 C 0.27143 0.72716 0.59970
 C1307 C 0.26871 0.71585 0.58568
 C1308 C 0.26751 0.69611 0.59115
 C1309 C 0.25266 0.69538 0.60529
 C1310 C 0.25538 0.70669 0.61930
 C1311 C 0.28759 0.70370 0.61547
 C1312 C 0.28486 0.69239 0.60146
 C1313 C 0.27563 0.72981 0.63290
 C1314 C 0.27805 0.73983 0.64528
 C1315 C 0.26460 0.68396 0.57604
 C1316 C 0.26224 0.67404 0.56357
 H1317 H 0.27255 0.74154 0.59802
 H1318 H 0.26748 0.72054 0.57201
 H1319 H 0.24103 0.68673 0.60437
 H1320 H 0.24609 0.70774 0.63039
 H1321 H 0.29923 0.70278 0.62409
 H1322 H 0.29415 0.68177 0.59808
 C1323 C 0.77370 0.21748 0.11798
 C1324 C 0.76563 0.19939 0.12337
 C1325 C 0.76285 0.18815 0.10930
 C1326 C 0.76843 0.19610 0.09123
 C1327 C 0.78807 0.20157 0.09364
 C1328 C 0.79084 0.21281 0.10770
 C1329 C 0.76090 0.22502 0.10384
 C1330 C 0.75812 0.21378 0.08978
 C1331 C 0.77667 0.22958 0.13310
 C1332 C 0.77911 0.23955 0.14552
 C1333 C 0.76544 0.18402 0.07608
 C1334 C 0.76300 0.17413 0.06360
 H1335 H 0.76237 0.19573 0.13702
 H1336 H 0.75723 0.17486 0.11091
 H1337 H 0.79885 0.19700 0.08507
 H1338 H 0.80399 0.21789 0.11117
 H1339 H 0.75455 0.23803 0.10480
 H1340 H 0.74939 0.21716 0.07870
 C1341 C 0.47667 0.36757 0.53231
 C1342 C 0.46973 0.37074 0.55135
 C1343 C 0.47254 0.35667 0.56258
 C1344 C 0.48202 0.34080 0.55367
 C1345 C 0.49929 0.34865 0.54583
 C1346 C 0.49648 0.36272 0.53461
 C1347 C 0.46761 0.35019 0.52618
 C1348 C 0.47043 0.33612 0.53741
 C1349 C 0.47367 0.38271 0.52019
 C1350 C 0.47129 0.39513 0.51019
 C1351 C 0.48505 0.32564 0.56577
 C1352 C 0.48750 0.31319 0.57572
 H1353 H 0.46321 0.38296 0.55565
 H1354 H 0.46841 0.35684 0.57648
 H1355 H 0.51256 0.34359 0.54882
 H1356 H 0.50734 0.36972 0.52799
 H1357 H 0.45970 0.34904 0.51407
 H1358 H 0.46492 0.32292 0.53492
 C1359 C -0.02335 0.86791 0.03223
 C1360 C -0.03032 0.87107 0.05126
 C1361 C -0.02757 0.85697 0.06247
 C1362 C -0.01813 0.84110 0.05353
 C1363 C -0.00082 0.84891 0.04575
 C1364 C -0.00356 0.86300 0.03456
 C1365 C -0.03245 0.85058 0.02604
 C1366 C -0.02970 0.83649 0.03724
 C1367 C -0.02627 0.88304 0.02013
 C1368 C -0.02863 0.89544 0.01011
 C1369 C -0.01516 0.82591 0.06557
 C1370 C -0.01273 0.81342 0.07545
 H1371 H -0.03679 0.88332 0.05558
 H1372 H -0.03170 0.85713 0.07637
 H1373 H 0.01243 0.84382 0.04878
 H1374 H 0.00733 0.87001 0.02800
 H1375 H -0.04034 0.84948 0.01391
 H1376 H -0.03523 0.82330 0.03470
 C1377 C 0.02351 0.63214 0.03223
 C1378 C 0.01319 0.64762 0.02359
 C1379 C 0.01038 0.66168 0.03481
 C1380 C 0.01816 0.65889 0.05358
 C1381 C 0.03801 0.65465 0.05055
 C1382 C 0.04082 0.64058 0.03932
 C1383 C 0.01271 0.62723 0.04897
 C1384 C 0.00990 0.64130 0.06020
 C1385 C 0.02653 0.61705 0.02010
 C1386 C 0.02897 0.60471 0.01003
 C1387 C 0.01515 0.67405 0.06563
 C1388 C 0.01272 0.68654 0.07550
 H1389 H 0.00846 0.64753 0.00987
 H1390 H 0.00325 0.67364 0.03071
 H1391 H 0.04889 0.66202 0.05671
 H1392 H 0.05411 0.63590 0.03587
 H1393 H 0.00771 0.61389 0.05175
 H1394 H 0.00249 0.64000 0.07260
 C1395 C 0.52353 0.13211 0.53245
 C1396 C 0.53134 0.12931 0.55121
 C1397 C 0.52859 0.14339 0.56244
 C1398 C 0.51829 0.15890 0.55381
 C1399 C 0.50095 0.15049 0.54675
 C1400 C 0.50371 0.13641 0.53553
 C1401 C 0.53183 0.14968 0.52581
 C1402 C 0.52907 0.16376 0.53704
 C1403 C 0.52646 0.11697 0.52035
 C1404 C 0.52879 0.10454 0.51036
 C1405 C 0.51531 0.17406 0.56589
 C1406 C 0.51287 0.18651 0.57583
 H1407 H 0.53840 0.11732 0.55532
 H1408 H 0.53330 0.14347 0.57616
 H1409 H 0.48768 0.15519 0.55025
 H1410 H 0.49279 0.12905 0.52942
 H1411 H 0.53920 0.15095 0.51338
 H1412 H 0.53409 0.17709 0.53422
 C1413 C -0.02364 0.13226 0.46762
 C1414 C -0.03993 0.14459 0.46580
 C1415 C -0.03720 0.15866 0.45456
 C1416 C -0.01845 0.15902 0.44625
 C1417 C -0.01629 0.14073 0.43720
 C1418 C -0.01902 0.12665 0.44844
 C1419 C -0.00827 0.14457 0.47342
 C1420 C -0.00554 0.15864 0.46218
 C1421 C -0.02655 0.11716 0.47977
 C1422 C -0.02892 0.10480 0.48983
 C1423 C -0.01551 0.17419 0.43418
 C1424 C -0.01310 0.18668 0.42429
 H1425 H -0.05251 0.14244 0.47271
 H1426 H -0.04744 0.16858 0.45186
 H1427 H -0.01289 0.13899 0.42320
 H1428 H -0.01796 0.11285 0.44408
 H1429 H -0.00021 0.14240 0.48529
 H1430 H 0.00485 0.16854 0.46443
 C1431 C 0.47675 0.63212 0.96779
 C1432 C 0.45960 0.63894 0.95882
 C1433 C 0.46235 0.65302 0.94760
 C1434 C 0.48198 0.65892 0.94644
 C1435 C 0.49230 0.64201 0.94108
 C1436 C 0.48955 0.62792 0.95231
 C1437 C 0.48483 0.64857 0.97703
 C1438 C 0.48758 0.66265 0.96581
 C1439 C 0.47380 0.61697 0.97990
 C1440 C 0.47142 0.60456 0.98990
 C1441 C 0.48493 0.67409 0.93437
 C1442 C 0.48732 0.68658 0.92446
 H1443 H 0.44646 0.63319 0.96107
 H1444 H 0.45157 0.65935 0.94025
 H1445 H 0.50101 0.64118 0.92952
 H1446 H 0.49591 0.61502 0.95035
 H1447 H 0.48815 0.64909 0.99115
 H1448 H 0.49325 0.67524 0.97031
 C1449 C 0.52335 0.86789 0.96779
 C1450 C 0.52691 0.87229 0.94807
 C1451 C 0.52414 0.85820 0.93685
 C1452 C 0.51807 0.84109 0.94644
 C1453 C 0.50137 0.84657 0.95702
 C1454 C 0.50414 0.86065 0.96824
 C1455 C 0.53523 0.85167 0.97186
 C1456 C 0.53246 0.83758 0.96064
 C1457 C 0.52631 0.88303 0.97990
 C1458 C 0.52870 0.89542 0.98992
 C1459 C 0.51509 0.82592 0.93438
 C1460 C 0.51266 0.81344 0.92447
 H1461 H 0.53119 0.88532 0.94333
 H1462 H 0.52604 0.85917 0.92250
 H1463 H 0.48849 0.83997 0.95580
 H1464 H 0.49364 0.86613 0.97661
 H1465 H 0.54495 0.85127 0.98262
 H1466 H 0.53979 0.82512 0.96181
 C1467 C 0.02311 0.36792 0.46756
 C1468 C 0.01488 0.35153 0.47678
 C1469 C 0.01210 0.33746 0.46555
 C1470 C 0.01784 0.34115 0.44621
 C1471 C 0.03750 0.34692 0.44748
 C1472 C 0.04027 0.36099 0.45870
 C1473 C 0.01044 0.37220 0.45201
 C1474 C 0.00766 0.35813 0.44078
 C1475 C 0.02608 0.38302 0.47969
 C1476 C 0.02850 0.39537 0.48974
 C1477 C 0.01486 0.32599 0.43415
 C1478 C 0.01242 0.31351 0.42426
 H1479 H 0.01148 0.35104 0.49087
 H1480 H 0.00634 0.32491 0.47003
 H1481 H 0.04829 0.34052 0.44018
 H1482 H 0.05344 0.36666 0.46102
 H1483 H 0.00419 0.38514 0.45001
 H1484 H -0.00097 0.35900 0.42916
 C1485 C 0.36763 0.53127 0.47709
 C1486 C 0.37092 0.54515 0.49184
 C1487 C 0.35684 0.55638 0.49456
 C1488 C 0.34084 0.55263 0.48227
 C1489 C 0.33629 0.53285 0.48532
 C1490 C 0.35037 0.52162 0.48260
 C1491 C 0.36254 0.54225 0.46052
 C1492 C 0.34846 0.55347 0.46324
 C1493 C 0.38280 0.51920 0.47412
 C1494 C 0.39528 0.50933 0.47163
 C1495 C 0.32569 0.56472 0.48519
 C1496 C 0.31323 0.57466 0.48757
 H1497 H 0.38322 0.54607 0.49948
 H1498 H 0.35707 0.56691 0.50454
 H1499 H 0.32316 0.52808 0.48928
 H1500 H 0.34931 0.50724 0.48424
 H1501 H 0.36940 0.54129 0.44777
 H1502 H 0.34324 0.56212 0.45282
 C1503 C 0.86800 0.03169 -0.02278
 C1504 C 0.86553 0.04554 -0.03771
 C1505 C 0.85144 0.05675 -0.03499
 C1506 C 0.84122 0.05302 -0.01760
 C1507 C 0.85540 0.05391 -0.00280
 C1508 C 0.86949 0.04269 -0.00552
 C1509 C 0.84995 0.02202 -0.02141
 C1510 C 0.83587 0.03324 -0.01869
 C1511 C 0.88315 0.01962 -0.02576
 C1512 C 0.89559 0.00970 -0.02828
 C1513 C 0.82606 0.06507 -0.01469
 C1514 C 0.81358 0.07497 -0.01233
 H1515 H 0.87411 0.04648 -0.04937
 H1516 H 0.84795 0.06730 -0.04432
 H1517 H 0.85447 0.06260 0.00878
 H1518 H 0.88062 0.04175 0.00374
 H1519 H 0.84837 0.00762 -0.02245
 H1520 H 0.82222 0.02846 -0.01742
 C1521 C 0.63243 0.03155 0.02303
 C1522 C 0.63879 0.03217 0.00354
 C1523 C 0.65291 0.04338 0.00082
 C1524 C 0.65928 0.05286 0.01787
 C1525 C 0.66321 0.03776 0.03120
 C1526 C 0.64909 0.02656 0.03391
 C1527 C 0.62850 0.05108 0.02797
 C1528 C 0.64262 0.06228 0.02525
 C1529 C 0.61724 0.01950 0.02600
 C1530 C 0.60476 0.00962 0.02850
 C1531 C 0.67447 0.06491 0.01495
 C1532 C 0.68695 0.07482 0.01257
 H1533 H 0.63271 0.02452 -0.00720
 H1534 H 0.65893 0.04532 -0.01223
 H1535 H 0.67594 0.03604 0.03794
 H1536 H 0.64974 0.01523 0.04296
 H1537 H 0.61575 0.05571 0.03311
 H1538 H 0.64197 0.07650 0.02810
 C1539 C 0.13204 0.53159 0.52276
 C1540 C 0.13093 0.54205 0.50515
 C1541 C 0.14503 0.55328 0.50244
 C1542 C 0.15884 0.55294 0.51760
 C1543 C 0.16426 0.53323 0.51942
 C1544 C 0.15017 0.52201 0.52214
 C1545 C 0.13408 0.54591 0.53732
 C1546 C 0.14818 0.55713 0.53461
 C1547 C 0.11690 0.51951 0.52573
 C1548 C 0.10447 0.50956 0.52825
 C1549 C 0.17402 0.56499 0.51469
 C1550 C 0.18652 0.57488 0.51234
 H1551 H 0.12004 0.54076 0.49566
 H1552 H 0.14621 0.56162 0.49062
 H1553 H 0.17796 0.52851 0.51864
 H1554 H 0.15179 0.50767 0.52366
 H1555 H 0.12522 0.54714 0.54874
 H1556 H 0.15139 0.56797 0.54370
 C1557 C 0.13219 0.46840 -0.02289
 C1558 C 0.14193 0.46307 -0.04014
 C1559 C 0.15597 0.45181 -0.03740
 C1560 C 0.15889 0.44697 -0.01769
 C1561 C 0.14091 0.43937 -0.01135
 C1562 C 0.12686 0.45064 -0.01408
 C1563 C 0.14676 0.47623 -0.01074
 C1564 C 0.16080 0.46496 -0.00801
 C1565 C 0.11711 0.48054 -0.02587
 C1566 C 0.10473 0.49052 -0.02842
 C1567 C 0.17402 0.43488 -0.01477
 C1568 C 0.18649 0.42497 -0.01243
 H1569 H 0.13811 0.46772 -0.05334
 H1570 H 0.16418 0.44679 -0.04826
 H1571 H 0.13935 0.42630 -0.00523
 H1572 H 0.11327 0.44723 -0.01030
 H1573 H 0.14608 0.48943 -0.00476
 H1574 H 0.17215 0.46851 0.00031
 C1575 C 0.63232 0.96856 0.47712
 C1576 C 0.63530 0.96372 0.49683
 C1577 C 0.64940 0.95252 0.49952
 C1578 C 0.65914 0.94727 0.48225
 C1579 C 0.66435 0.96506 0.47345
 C1580 C 0.65025 0.97626 0.47075
 C1581 C 0.63049 0.95056 0.46743
 C1582 C 0.64459 0.93937 0.47013
 C1583 C 0.61714 0.98060 0.47420
 C1584 C 0.60465 0.99046 0.47175
 C1585 C 0.67429 0.93523 0.48515
 C1586 C 0.68675 0.92531 0.48752
 H1587 H 0.62706 0.96865 0.50770
 H1588 H 0.65326 0.94786 0.51271
 H1589 H 0.67793 0.96856 0.46968
 H1590 H 0.65174 0.98935 0.46467
 H1591 H 0.61911 0.94693 0.45919
 H1592 H 0.64531 0.92614 0.46419
 C1593 C 0.86764 0.96862 0.52283
 C1594 C 0.86904 0.95774 0.50549
 C1595 C 0.85494 0.94653 0.50276
 C1596 C 0.84083 0.94731 0.51763
 C1597 C 0.83548 0.96707 0.51888
 C1598 C 0.84958 0.97829 0.52160
 C1599 C 0.86522 0.95468 0.53768
 C1600 C 0.85112 0.94347 0.53495
 C1601 C 0.88279 0.98069 0.52581
 C1602 C 0.89522 0.99061 0.52835
 C1603 C 0.82567 0.93526 0.51471
 C1604 C 0.81319 0.92535 0.51235
 H1605 H 0.88013 0.95875 0.49619
 H1606 H 0.85394 0.93792 0.49112
 H1607 H 0.82183 0.97185 0.51770
 H1608 H 0.84801 0.99267 0.52275
 H1609 H 0.87385 0.95368 0.54930
 H1610 H 0.84766 0.93287 0.54424
 C1611 C 0.36773 0.46842 0.02295
 C1612 C 0.36770 0.45962 0.00442
 C1613 C 0.35358 0.44843 0.00168
 C1614 C 0.34088 0.44714 0.01774
 C1615 C 0.33537 0.46649 0.02174
 C1616 C 0.34949 0.47769 0.02447
 C1617 C 0.36690 0.45281 0.03624
 C1618 C 0.35278 0.44162 0.03351
 C1619 C 0.38292 0.48046 0.02592
 C1620 C 0.39541 0.49035 0.02843
 C1621 C 0.32568 0.43509 0.01480
 C1622 C 0.31320 0.42518 0.01241
 H1623 H 0.37788 0.46195 -0.00565
 H1624 H 0.35166 0.44117 -0.01073
 H1625 H 0.32159 0.47101 0.02237
 H1626 H 0.34781 0.49180 0.02743
 H1627 H 0.37657 0.45072 0.04685
 H1628 H 0.35035 0.42995 0.04178
 C1629 C 0.53242 0.47674 0.36774
 C1630 C 0.52471 0.48916 0.35335
 C1631 C 0.53596 0.49192 0.33929
 C1632 C 0.55383 0.48200 0.34101
 C1633 C 0.54874 0.46230 0.34372
 C1634 C 0.53749 0.45954 0.35778
 C1635 C 0.55032 0.48528 0.37308
 C1636 C 0.56157 0.48804 0.35902
 C1637 C 0.52029 0.47374 0.38285
 C1638 C 0.51029 0.47125 0.39524
 C1639 C 0.56593 0.48495 0.32587
 C1640 C 0.57586 0.48734 0.31340
 H1641 H 0.51157 0.49528 0.35414
 H1642 H 0.53246 0.50039 0.32805
 H1643 H 0.55356 0.45147 0.33536
 H1644 H 0.53268 0.44634 0.36145
 H1645 H 0.55383 0.48886 0.38669
 H1646 H 0.57473 0.49397 0.36059
 C1647 C 0.03216 -0.02307 0.86745
 C1648 C 0.02243 -0.01862 0.84994
 C1649 C 0.03366 -0.01583 0.83587
 C1650 C 0.05351 -0.01776 0.84069
 C1651 C 0.05519 -0.03647 0.84896
 C1652 C 0.04396 -0.03926 0.86302
 C1653 C 0.04528 -0.00754 0.87034
 C1654 C 0.05651 -0.00475 0.85627
 C1655 C 0.02009 -0.02610 0.88259
 C1656 C 0.01017 -0.02860 0.89503
 C1657 C 0.06559 -0.01480 0.82554
 C1658 C 0.07552 -0.01245 0.81307
 H1659 H 0.00800 -0.01771 0.84872
 H1660 H 0.02885 -0.01252 0.82260
 H1661 H 0.06441 -0.04661 0.84421
 H1662 H 0.04356 -0.05180 0.87032
 H1663 H 0.04569 0.00055 0.88237
 H1664 H 0.06655 0.00573 0.85625
 C1665 C 0.03205 0.02319 0.63228
 C1666 C 0.04961 0.01396 0.62705
 C1667 C 0.06083 0.01114 0.64111
 C1668 C 0.05339 0.01781 0.65902
 C1669 C 0.03520 0.00852 0.66103
 C1670 C 0.02398 0.01134 0.64697
 C1671 C 0.03774 0.04043 0.64184
 C1672 C 0.04896 0.03761 0.65590
 C1673 C 0.01998 0.02623 0.61714
 C1674 C 0.01006 0.02874 0.60471
 C1675 C 0.06548 0.01479 0.67414
 C1676 C 0.07544 0.01234 0.68657
 H1677 H 0.05293 0.00998 0.61350
 H1678 H 0.07377 0.00475 0.63960
 H1679 H 0.03147 0.00042 0.67248
 H1680 H 0.01063 0.00566 0.64637
 H1681 H 0.03335 0.05369 0.63791
 H1682 H 0.05419 0.04845 0.66401
 C1683 C 0.53243 0.52307 0.13239
 C1684 C 0.52655 0.53250 0.14963
 C1685 C 0.53781 0.52971 0.16367
 C1686 C 0.55385 0.51777 0.15908
 C1687 C 0.56284 0.52685 0.14303
 C1688 C 0.55158 0.52964 0.12899
 C1689 C 0.53440 0.50330 0.13753
 C1690 C 0.54566 0.50051 0.15156
 C1691 C 0.52030 0.52608 0.11729
 C1692 C 0.51032 0.52856 0.10489
 C1693 C 0.56596 0.51478 0.17420
 C1694 C 0.57589 0.51235 0.18665
 H1695 H 0.51458 0.54063 0.15073
 H1696 H 0.53550 0.53546 0.17678
 H1697 H 0.57683 0.53072 0.14270
 H1698 H 0.55591 0.53590 0.11664
 H1699 H 0.52756 0.49245 0.13073
 H1700 H 0.54849 0.48727 0.15678
 C1701 C 0.46777 -0.02316 0.13252
 C1702 C 0.45583 -0.00662 0.13034
 C1703 C 0.44457 -0.00385 0.14438
 C1704 C 0.44635 -0.01789 0.15923
 C1705 C 0.46620 -0.01763 0.16443
 C1706 C 0.47746 -0.02040 0.15039
 C1707 C 0.45478 -0.03870 0.13584
 C1708 C 0.44352 -0.03593 0.14988
 C1709 C 0.47989 -0.02615 0.11740
 C1710 C 0.48986 -0.02863 0.10499
 C1711 C 0.43423 -0.01493 0.17436
 C1712 C 0.42428 -0.01256 0.18681
 H1713 H 0.45620 0.00215 0.11878
 H1714 H 0.43528 0.00729 0.14485
 H1715 H 0.47098 -0.01542 0.17795
 H1716 H 0.49190 -0.02057 0.15188
 H1717 H 0.45444 -0.05081 0.12784
 H1718 H 0.43353 -0.04567 0.15391
 C1719 C 0.96772 0.47692 0.63225
 C1720 C 0.96199 0.45967 0.64177
 C1721 C 0.95080 0.46248 0.65585
 C1722 C 0.94643 0.48227 0.65903
 C1723 C 0.93898 0.48903 0.64115
 C1724 C 0.95019 0.48622 0.62707
 C1725 C 0.97585 0.48870 0.64697
 C1726 C 0.96465 0.49151 0.66105
 C1727 C 0.97977 0.47389 0.61711
 C1728 C 0.98968 0.47139 0.60466
 C1729 C 0.93438 0.48527 0.67418
 C1730 C 0.92447 0.48767 0.68664
 H1731 H 0.96634 0.44640 0.63779
 H1732 H 0.94554 0.45162 0.66393
 H1733 H 0.92606 0.49546 0.63968
 H1734 H 0.94687 0.49025 0.61354
 H1735 H 0.98920 0.49436 0.64637
 H1736 H 0.96841 0.49957 0.67252
 C1737 C 0.96781 0.52306 0.86760
 C1738 C 0.96880 0.53777 0.85334
 C1739 C 0.95759 0.53501 0.83925
 C1740 C 0.94650 0.51781 0.84081
 C1741 C 0.93681 0.51933 0.85883
 C1742 C 0.94801 0.52209 0.87291
 C1743 C 0.97146 0.50557 0.85750
 C1744 C 0.96026 0.50281 0.84341
 C1745 C 0.97986 0.52604 0.88276
 C1746 C 0.98977 0.52851 0.89521
 C1747 C 0.93444 0.51486 0.82566
 C1748 C 0.92452 0.51249 0.81319
 H1749 H 0.97754 0.54933 0.85422
 H1750 H 0.95673 0.54422 0.82807
 H1751 H 0.92241 0.51832 0.86038
 H1752 H 0.94322 0.52343 0.88654
 H1753 H 0.98192 0.49618 0.86110
 H1754 H 0.96111 0.49106 0.83494
 C1755 C 0.46781 0.02305 0.36763
 C1756 C 0.47563 0.02882 0.34956
 C1757 C 0.46437 0.02601 0.33553
 C1758 C 0.44639 0.01771 0.34094
 C1759 C 0.43877 0.03035 0.35519
 C1760 C 0.45003 0.03316 0.36922
 C1761 C 0.46254 0.00337 0.36513
 C1762 C 0.45127 0.00056 0.35110
 C1763 C 0.47994 0.02611 0.38273
 C1764 C 0.48992 0.02866 0.39511
 C1765 C 0.43427 0.01471 0.32583
 C1766 C 0.42432 0.01230 0.31339
 H1767 H 0.48886 0.03457 0.34793
 H1768 H 0.46794 0.02937 0.32188
 H1769 H 0.42567 0.03653 0.35434
 H1770 H 0.44658 0.04173 0.38040
 H1771 H 0.46722 -0.00741 0.37364
 H1772 H 0.44631 -0.01262 0.34758
   
