data_POSCAR
  _audit_creation_date              2014-09-24
  _audit_creation_method            'ToBaCCo'
  _symmetry_space_group_name_H-M    'P1'
  _symmetry_Int_Tables_number       1
  _symmetry_cell_setting            triclinic
  loop_
  _symmetry_equiv_pos_as_xyz
 x,y,z
_cell_length_a 57.2821
_cell_length_b 57.2212
_cell_length_c 57.1841
_cell_angle_alpha 89.106900
_cell_angle_beta 88.558300
_cell_angle_gamma 88.899700
loop_
  _atom_site_label
  _atom_site_type_symbol
  _atom_site_fract_x
  _atom_site_fract_y
  _atom_site_fract_z
C1 C 0.73056 0.65228 0.97209
 H2 H 0.74705 0.65303 0.96249
 C3 C 0.71106 0.66462 0.96385
 H4 H 0.71254 0.67504 0.94792
 C5 C 0.70807 0.63687 1.00393
 H6 H 0.70674 0.62553 1.01914
 C7 C 0.68819 0.64892 0.99631
 H8 H 0.67173 0.64699 1.00582
 N9 N 0.72873 0.63870 0.99178
 C10 C 0.79930 0.62675 1.01710
 H11 H 0.79916 0.60789 1.01864
 C12 C 0.81879 0.63893 1.02394
 H13 H 0.83374 0.62944 1.03078
 C14 C 0.77978 0.66222 1.00672
 H15 H 0.76442 0.67120 1.00029
 C16 C 0.79896 0.67511 1.01340
 H17 H 0.79837 0.69401 1.01203
 Zn18 Zn 0.75485 0.61998 1.00042
 N19 N 0.78039 0.63846 1.00852
 C20 C 0.78488 0.60246 0.96445
 N21 N 0.76313 0.60114 0.97447
 C22 C 0.74641 0.58779 0.96510
 C23 C 0.75133 0.57503 0.94485
 C24 C 0.79052 0.58998 0.94426
 C25 C 0.74274 0.61322 1.04726
 C26 C 0.73572 0.60122 1.06757
 C27 C 0.73825 0.56510 1.04612
 C28 C 0.74527 0.57784 1.02617
 N29 N 0.74690 0.60151 1.02702
 H30 H 0.79775 0.61361 0.97170
 H31 H 0.72912 0.58744 0.97314
 H32 H 0.73786 0.56473 0.93728
 H33 H 0.80777 0.59141 0.93621
 H34 H 0.74441 0.63202 1.04744
 H35 H 0.73192 0.61087 1.08343
 H36 H 0.73646 0.54631 1.04514
 H37 H 0.74906 0.56884 1.01001
 C38 C 0.81863 0.66331 1.02206
 C39 C 0.68965 0.66276 0.97599
 C40 C 0.73318 0.57696 1.06694
 C41 C 0.77358 0.57627 0.93429
 C42 C 0.72900 0.34230 0.52344
 H43 H 0.74562 0.34067 0.53195
 C44 C 0.70975 0.33003 0.53229
 H45 H 0.71155 0.31879 0.54759
 C46 C 0.70595 0.35969 0.49375
 H47 H 0.70429 0.37173 0.47914
 C48 C 0.68631 0.34776 0.50202
 H49 H 0.66974 0.35046 0.49357
 N50 N 0.72679 0.35678 0.50448
 C51 C 0.79651 0.36814 0.47429
 H52 H 0.79561 0.38701 0.47289
 C53 C 0.81649 0.35608 0.46637
 H54 H 0.83103 0.36568 0.45880
 C55 C 0.77866 0.33258 0.48589
 H56 H 0.76381 0.32353 0.49339
 C57 C 0.79839 0.31981 0.47815
 H58 H 0.79875 0.30092 0.47978
 Zn59 Zn 0.75259 0.37509 0.49468
 N60 N 0.77824 0.35635 0.48411
 C61 C 0.78350 0.39007 0.52881
 N62 N 0.76150 0.39278 0.52061
 C63 C 0.74540 0.40695 0.53153
 C64 C 0.75137 0.41936 0.55134
 C65 C 0.79016 0.40212 0.54848
 C66 C 0.73966 0.38367 0.44897
 C67 C 0.73249 0.39645 0.42940
 C68 C 0.73508 0.43188 0.45161
 C69 C 0.74228 0.41839 0.47083
 N70 N 0.74400 0.39469 0.46926
 H71 H 0.79588 0.37827 0.52040
 H72 H 0.72789 0.40842 0.52494
 H73 H 0.73849 0.43056 0.56000
 H74 H 0.80769 0.39976 0.55491
 H75 H 0.74142 0.36484 0.44816
 H76 H 0.72863 0.38746 0.41346
 H77 H 0.73329 0.45069 0.45304
 H78 H 0.74621 0.42684 0.48698
 C79 C 0.81752 0.33173 0.46844
 C80 C 0.68818 0.33292 0.52154
 C81 C 0.72997 0.42073 0.43079
 C82 C 0.77398 0.41687 0.55986
 C83 C 0.22611 -0.15614 0.02205
 H84 H 0.24256 -0.15774 0.03087
 C85 C 0.20670 -0.16838 0.03060
 H86 H 0.20822 -0.17957 0.04596
 C87 C 0.20360 -0.13883 -0.00810
 H88 H 0.20219 -0.12684 -0.02277
 C89 C 0.18383 -0.15073 -0.00015
 H90 H 0.16742 -0.14804 -0.00890
 N91 N 0.22423 -0.14171 0.00301
 C92 C 0.29432 -0.13038 -0.02624
 H93 H 0.29344 -0.11151 -0.02769
 C94 C 0.31437 -0.14246 -0.03392
 H95 H 0.32900 -0.13289 -0.04134
 C96 C 0.27631 -0.16590 -0.01479
 H97 H 0.26138 -0.17493 -0.00746
 C98 C 0.29612 -0.17870 -0.02229
 H99 H 0.29644 -0.19759 -0.02064
 Zn100 Zn 0.25014 -0.12338 -0.00643
 N101 N 0.27593 -0.14214 -0.01662
 C102 C 0.28054 -0.10840 0.02812
 N103 N 0.25866 -0.10566 0.01963
 C104 C 0.24242 -0.09153 0.03040
 C105 C 0.24811 -0.07920 0.05036
 C106 C 0.28692 -0.09643 0.04793
 C107 C 0.23802 -0.11498 -0.05237
 C108 C 0.23095 -0.10235 -0.07207
 C109 C 0.23266 -0.06682 -0.04983
 C110 C 0.23977 -0.08019 -0.03049
 N111 N 0.24186 -0.10387 -0.03201
 H112 H 0.29302 -0.12017 0.01983
 H113 H 0.22499 -0.09004 0.02359
 H114 H 0.23512 -0.06804 0.05891
 H115 H 0.30437 -0.09883 0.05458
 H116 H 0.24005 -0.13380 -0.05311
 H117 H 0.22749 -0.11155 -0.08802
 H118 H 0.23057 -0.04803 -0.04834
 H119 H 0.24331 -0.07168 -0.01427
 C120 C 0.31536 -0.16681 -0.03181
 C121 C 0.18534 -0.16551 0.01945
 C122 C 0.22800 -0.07807 -0.07076
 C123 C 0.27060 -0.08174 0.05918
 C124 C 0.23336 0.15356 0.47098
 H125 H 0.25002 0.15462 0.46172
 C126 C 0.21386 0.16568 0.46241
 H127 H 0.21551 0.17622 0.44657
 C128 C 0.21047 0.13766 0.50227
 H129 H 0.20898 0.12622 0.51740
 C130 C 0.19059 0.14947 0.49431
 H131 H 0.17398 0.14726 0.50349
 N132 N 0.23133 0.13986 0.49056
 C133 C 0.30121 0.12865 0.51789
 H134 H 0.30106 0.10980 0.51962
 C135 C 0.32051 0.14092 0.52504
 H136 H 0.33529 0.13151 0.53234
 C137 C 0.28198 0.16397 0.50654
 H138 H 0.26682 0.17287 0.49956
 C139 C 0.30099 0.17696 0.51353
 H140 H 0.30047 0.19584 0.51184
 Zn141 Zn 0.25748 0.12146 0.49979
 N142 N 0.28255 0.14023 0.50864
 C143 C 0.28884 0.10462 0.46474
 N144 N 0.26681 0.10282 0.47399
 C145 C 0.25078 0.08907 0.46402
 C146 C 0.25675 0.07635 0.44397
 C147 C 0.29551 0.09219 0.44482
 C148 C 0.24441 0.11443 0.54634
 C149 C 0.23711 0.10229 0.56646
 C150 C 0.24047 0.06627 0.54499
 C151 C 0.24775 0.07912 0.52520
 N152 N 0.24912 0.10281 0.52614
 H153 H 0.30116 0.11608 0.47243
 H154 H 0.23324 0.08833 0.47144
 H155 H 0.24384 0.06567 0.43595
 H156 H 0.31301 0.09398 0.43743
 H157 H 0.24587 0.13325 0.54661
 H158 H 0.23287 0.11177 0.58231
 H159 H 0.23887 0.04748 0.54404
 H160 H 0.25196 0.07019 0.50909
 C161 C 0.32044 0.16527 0.52279
 C162 C 0.19225 0.16345 0.47411
 C163 C 0.23489 0.07805 0.56571
 C164 C 0.27932 0.07803 0.43427
 C165 C 0.15686 0.47234 0.23491
 H166 H 0.15753 0.46321 0.25160
 C167 C 0.16957 0.46369 0.21560
 H168 H 0.18017 0.44792 0.21741
 C169 C 0.14130 0.50334 0.21171
 H170 H 0.12976 0.51836 0.20999
 C171 C 0.15371 0.49531 0.19203
 H172 H 0.15183 0.50434 0.17536
 N173 N 0.14302 0.49180 0.23263
 C174 C 0.12871 0.52005 0.30209
 H175 H 0.10992 0.52176 0.30110
 C176 C 0.13994 0.52755 0.32189
 H177 H 0.12978 0.53511 0.33621
 C178 C 0.16493 0.50835 0.28447
 H179 H 0.17456 0.50106 0.26974
 C180 C 0.17690 0.51568 0.30403
 H181 H 0.19575 0.51397 0.30437
 Zn182 Zn 0.12362 0.50116 0.25828
 N183 N 0.14122 0.51047 0.28399
 C184 C 0.10595 0.46659 0.28937
 N185 N 0.10492 0.47539 0.26716
 C186 C 0.09184 0.46509 0.25079
 C187 C 0.07895 0.44520 0.25660
 C188 C 0.09335 0.44684 0.29589
 C189 C 0.11660 0.54750 0.24505
 C190 C 0.10466 0.56736 0.23700
 C191 C 0.06888 0.54560 0.23866
 C192 C 0.08152 0.52608 0.24675
 N193 N 0.10504 0.52726 0.24926
 H194 H 0.11690 0.47453 0.30198
 H195 H 0.09171 0.47215 0.23313
 H196 H 0.06877 0.43693 0.24345
 H197 H 0.09449 0.43985 0.31355
 H198 H 0.13527 0.54796 0.24740
 H199 H 0.11414 0.58321 0.23305
 H200 H 0.05028 0.54443 0.23605
 H201 H 0.07261 0.50995 0.25057
 C202 C 0.16422 0.52529 0.32292
 C203 C 0.16779 0.47521 0.19393
 C204 C 0.08066 0.56632 0.23349
 C205 C 0.07981 0.43600 0.27938
 C206 C -0.15408 0.02489 0.23054
 H207 H -0.15543 0.03413 0.24689
 C208 C -0.16634 0.03317 0.21115
 H209 H -0.17728 0.04877 0.21264
 C210 C -0.13734 -0.00606 0.20824
 H211 H -0.12553 -0.02092 0.20689
 C212 C -0.14927 0.00159 0.18849
 H213 H -0.14674 -0.00763 0.17217
 N214 N -0.13989 0.00561 0.22875
 C215 C -0.12773 -0.02147 0.29938
 H216 H -0.10887 -0.02275 0.29832
 C217 C -0.13965 -0.02908 0.31957
 H218 H -0.12996 -0.03627 0.33413
 C219 C -0.16343 -0.01092 0.28151
 H220 H -0.17260 -0.00409 0.26652
 C221 C -0.17607 -0.01838 0.30144
 H222 H -0.19497 -0.01722 0.30180
 Zn223 Zn -0.12128 -0.00336 0.25448
 N224 N -0.13968 -0.01245 0.28095
 C225 C -0.10486 0.03191 0.28359
 N226 N -0.10292 0.02255 0.26188
 C227 C -0.08894 0.03228 0.24489
 C228 C -0.07586 0.05197 0.24964
 C229 C -0.09213 0.05153 0.28904
 C230 C -0.11391 -0.04979 0.24308
 C231 C -0.10174 -0.06990 0.23606
 C232 C -0.06583 -0.04843 0.23661
 C233 C -0.07871 -0.02863 0.24370
 N234 N -0.10237 -0.02958 0.24631
 H235 H -0.11652 0.02442 0.29667
 H236 H -0.08808 0.02478 0.22763
 H237 H -0.06476 0.05963 0.23607
 H238 H -0.09382 0.05885 0.30638
 H239 H -0.13269 -0.05007 0.24551
 H240 H -0.11117 -0.08576 0.23301
 H241 H -0.04707 -0.04749 0.23403
 H242 H -0.06983 -0.01253 0.24676
 C243 C -0.16402 -0.02751 0.32064
 C244 C -0.16376 0.02148 0.18987
 C245 C -0.07754 -0.06916 0.23255
 C246 C -0.07751 0.06165 0.27195
 C247 C 0.34700 0.52613 0.72955
 H248 H 0.34567 0.53526 0.74597
 C249 C 0.33463 0.53446 0.71026
 H250 H 0.32362 0.54999 0.71183
 C251 C 0.36374 0.49534 0.70703
 H252 H 0.37556 0.48050 0.70557
 C253 C 0.35170 0.50307 0.68737
 H254 H 0.35411 0.49398 0.67098
 N255 N 0.36121 0.50687 0.72762
 C256 C 0.37274 0.47941 0.79817
 H257 H 0.39161 0.47809 0.79731
 C258 C 0.36060 0.47183 0.81825
 H259 H 0.37012 0.46463 0.83291
 C260 C 0.33726 0.49008 0.77995
 H261 H 0.32826 0.49694 0.76488
 C262 C 0.32440 0.48266 0.79975
 H263 H 0.30551 0.48390 0.79993
 Zn264 Zn 0.37965 0.49772 0.75339
 N265 N 0.36101 0.48850 0.77963
 C266 C 0.39573 0.53285 0.78285
 N267 N 0.39794 0.52359 0.76111
 C268 C 0.41208 0.53340 0.74432
 C269 C 0.42503 0.55312 0.74929
 C270 C 0.40833 0.55248 0.78852
 C271 C 0.38713 0.45137 0.74168
 C272 C 0.39938 0.43125 0.73484
 C273 C 0.43530 0.45264 0.73614
 C274 C 0.42233 0.47245 0.74302
 N275 N 0.39863 0.47154 0.74521
 H276 H 0.38394 0.52529 0.79576
 H277 H 0.41314 0.52598 0.72703
 H278 H 0.43625 0.56086 0.73588
 H279 H 0.40642 0.55974 0.80587
 H280 H 0.36831 0.45111 0.74379
 H281 H 0.39000 0.41540 0.73160
 H282 H 0.45410 0.45354 0.73395
 H283 H 0.43117 0.48852 0.74633
 C284 C 0.33623 0.47350 0.81907
 C285 C 0.33713 0.52288 0.68894
 C286 C 0.42364 0.43193 0.73183
 C287 C 0.42310 0.56271 0.77162
 C288 C 0.65826 0.97135 0.73587
 H289 H 0.65905 0.96225 0.75257
 C290 C 0.67031 0.96230 0.71634
 H291 H 0.68052 0.94626 0.71800
 C292 C 0.64290 1.00258 0.71285
 H293 H 0.63164 1.01782 0.71128
 C294 C 0.65467 0.99417 0.69296
 H295 H 0.65258 1.00312 0.67628
 N296 N 0.64477 0.99108 0.73377
 C297 C 0.63171 1.01954 0.80335
 H298 H 0.61292 1.02148 0.80258
 C299 C 0.64325 1.02690 0.82302
 H300 H 0.63330 1.03459 0.83742
 C301 C 0.66758 1.00737 0.78534
 H302 H 0.67695 0.99993 0.77051
 C303 C 0.67988 1.01455 0.80475
 H304 H 0.69874 1.01258 0.80482
 Zn305 Zn 0.62584 1.00071 0.75966
 N306 N 0.64389 1.00980 0.78513
 C307 C 0.60805 0.96635 0.79098
 N308 N 0.60694 0.97517 0.76878
 C309 C 0.59357 0.96504 0.75253
 C310 C 0.58044 0.94535 0.75847
 C311 C 0.59521 0.94679 0.79763
 C312 C 0.61904 1.04712 0.74635
 C313 C 0.60709 1.06707 0.73848
 C314 C 0.57114 1.04561 0.74098
 C315 C 0.58379 1.02601 0.74887
 N316 N 0.60738 1.02699 0.75088
 H317 H 0.61922 0.97415 0.80349
 H318 H 0.59337 0.97211 0.73487
 H319 H 0.57001 0.93724 0.74542
 H320 H 0.59640 0.93979 0.81528
 H321 H 0.63776 1.04744 0.74832
 H322 H 0.61662 1.08282 0.73428
 H323 H 0.55246 1.04458 0.73878
 H324 H 0.57481 1.00997 0.75294
 C325 C 0.66755 1.02435 0.82378
 C326 C 0.66828 0.97372 0.69464
 C327 C 0.58298 1.06621 0.73548
 C328 C 0.58136 0.93615 0.78124
 C329 C 0.02542 0.23314 -0.15480
 H330 H 0.03403 0.24979 -0.15611
 C331 C 0.03418 0.21410 -0.16757
 H332 H 0.04949 0.21610 -0.17887
 C333 C -0.00440 0.20976 -0.13770
 H334 H -0.01902 0.20787 -0.12559
 C335 C 0.00377 0.19034 -0.15014
 H336 H -0.00477 0.17371 -0.14774
 N337 N 0.00645 0.23066 -0.14021
 C338 C -0.02349 0.30025 -0.12725
 H339 H -0.02468 0.29932 -0.10835
 C340 C -0.03167 0.32016 -0.13908
 H341 H -0.03923 0.33461 -0.12929
 C342 C -0.01235 0.28245 -0.16313
 H343 H -0.00500 0.26764 -0.17241
 C344 C -0.02036 0.30209 -0.17568
 H345 H -0.01909 0.30238 -0.19461
 Zn346 Zn -0.00323 0.25611 -0.12119
 N347 N -0.01382 0.28202 -0.13933
 C348 C 0.03096 0.28685 -0.10574
 N349 N 0.02279 0.26472 -0.10364
 C350 C 0.03388 0.24822 -0.09030
 C351 C 0.05386 0.25386 -0.07815
 C352 C 0.05079 0.29320 -0.09391
 C353 C -0.04890 0.24283 -0.11221
 C354 C -0.06815 0.23460 -0.09940
 C355 C -0.04547 0.23584 -0.06433
 C356 C -0.02660 0.24412 -0.07787
 N357 N -0.02851 0.24692 -0.10143
 H358 H 0.02240 0.29956 -0.11690
 H359 H 0.02732 0.23062 -0.08933
 H360 H 0.06267 0.24065 -0.06765
 H361 H 0.05721 0.31083 -0.09580
 H362 H -0.04995 0.24541 -0.13094
 H363 H -0.08406 0.23080 -0.10837
 H364 H -0.04358 0.23304 -0.04567
 H365 H -0.01037 0.24785 -0.06959
 C366 C -0.03001 0.32114 -0.16350
 C367 C 0.02331 0.19248 -0.16508
 C368 C -0.06634 0.23076 -0.07528
 C369 C 0.06237 0.27658 -0.08004
 C370 C 0.47099 0.23365 0.15245
 H371 H 0.46147 0.25014 0.15320
 C372 C 0.46197 0.21387 0.16387
 H373 H 0.44551 0.21514 0.17356
 C374 C 0.50342 0.21141 0.13790
 H375 H 0.51919 0.21026 0.12722
 C376 C 0.49504 0.19128 0.14905
 H377 H 0.50452 0.17483 0.14708
 N378 N 0.49134 0.23206 0.13970
 C379 C 0.51874 0.30230 0.12988
 H380 H 0.52157 0.30202 0.11111
 C381 C 0.52513 0.32174 0.14245
 H382 H 0.53297 0.33650 0.13336
 C383 C 0.50536 0.28323 0.16470
 H384 H 0.49787 0.26807 0.17327
 C385 C 0.51155 0.30240 0.17798
 H386 H 0.50878 0.30200 0.19679
 Zn387 Zn 0.50127 0.25839 0.12182
 N388 N 0.50886 0.28365 0.14105
 C389 C 0.46716 0.28940 0.10357
 N390 N 0.47652 0.26743 0.10204
 C391 C 0.46731 0.25130 0.08782
 C392 C 0.44790 0.25711 0.07435
 C393 C 0.44788 0.29592 0.09041
 C394 C 0.54815 0.24626 0.11699
 C395 C 0.56890 0.23891 0.10592
 C396 C 0.54949 0.24100 0.06888
 C397 C 0.52902 0.24839 0.08067
 N398 N 0.52863 0.25035 0.10437
 H399 H 0.47421 0.30181 0.11539
 H400 H 0.47477 0.23380 0.08730
 H401 H 0.44043 0.24412 0.06333
 H402 H 0.44038 0.31337 0.09201
 H403 H 0.54736 0.24815 0.13579
 H404 H 0.58416 0.23504 0.11621
 H405 H 0.54956 0.23878 0.05010
 H406 H 0.51342 0.25206 0.07094
 C407 C 0.52148 0.32183 0.16670
 C408 C 0.47403 0.19246 0.16196
 C409 C 0.56950 0.23597 0.08171
 C410 C 0.43808 0.27963 0.07579
 C411 C 0.96772 0.73496 0.65634
 H412 H 0.95795 0.75132 0.65667
 C413 C 0.95896 0.71531 0.66821
 H414 H 0.94246 0.71656 0.67782
 C415 C 1.00046 0.71285 0.64231
 H416 H 1.01622 0.71167 0.63162
 C417 C 0.99235 0.69285 0.65392
 H418 H 1.00204 0.67648 0.65229
 N419 N 0.98807 0.73336 0.64359
 C420 C 1.01349 0.80410 0.63144
 H421 H 1.01583 0.80356 0.61262
 C422 C 1.01992 0.82387 0.64350
 H423 H 1.02725 0.83862 0.63397
 C424 C 1.00160 0.78529 0.66692
 H425 H 0.99477 0.77008 0.67596
 C426 C 1.00786 0.80478 0.67970
 H427 H 1.00577 0.80457 0.69859
 Zn428 Zn 0.99734 0.75935 0.62484
 N429 N 1.00441 0.78539 0.64321
 C430 C 0.96215 0.78864 0.60553
 N431 N 0.97230 0.76695 0.60491
 C432 C 0.96363 0.74983 0.59153
 C433 C 0.94394 0.75424 0.57805
 C434 C 0.94252 0.79379 0.59232
 C435 C 1.04445 0.74792 0.62003
 C436 C 1.06526 0.74067 0.60899
 C437 C 1.04558 0.74160 0.57206
 C438 C 1.02508 0.74890 0.58383
 N439 N 1.02479 0.75139 0.60747
 H440 H 0.96884 0.80184 0.61672
 H441 H 0.97173 0.73259 0.59174
 H442 H 0.93688 0.74043 0.56776
 H443 H 0.93434 0.81099 0.59324
 H444 H 1.04374 0.75023 0.63878
 H445 H 1.08064 0.73729 0.61924
 H446 H 1.04558 0.73897 0.55335
 H447 H 1.00937 0.75210 0.57413
 C448 C 1.01711 0.82422 0.66784
 C449 C 0.97130 0.69401 0.66676
 C450 C 1.06576 0.73719 0.58485
 C451 C 0.93324 0.77641 0.57859
 C452 C 0.52387 0.73253 0.34206
 H453 H 0.53247 0.74917 0.34051
 C454 C 0.53272 0.71328 0.32967
 H455 H 0.54809 0.71511 0.31843
 C456 C 0.49398 0.70941 0.35941
 H457 H 0.47930 0.70771 0.37147
 C458 C 0.50224 0.68978 0.34735
 H459 H 0.49371 0.67317 0.35000
 N460 N 0.50482 0.73028 0.35659
 C461 C 0.47504 0.80014 0.36834
 H462 H 0.47373 0.79944 0.38724
 C463 C 0.46705 0.81995 0.35623
 H464 H 0.45952 0.83454 0.36586
 C465 C 0.48633 0.78186 0.33275
 H466 H 0.49368 0.76689 0.32371
 C467 C 0.47852 0.80138 0.31991
 H468 H 0.47995 0.80139 0.30098
 Zn469 Zn 0.49507 0.75605 0.37513
 N470 N 0.48470 0.78173 0.35655
 C471 C 0.52927 0.78694 0.39033
 N472 N 0.52098 0.76488 0.39272
 C473 C 0.53182 0.74857 0.40648
 C474 C 0.55165 0.75436 0.41881
 C475 C 0.54896 0.79343 0.40232
 C476 C 0.44933 0.74290 0.38409
 C477 C 0.42996 0.73511 0.39701
 C478 C 0.45233 0.73737 0.43216
 C479 C 0.47134 0.74519 0.41854
 N480 N 0.46963 0.74729 0.39489
 H481 H 0.52090 0.79949 0.37885
 H482 H 0.52517 0.73101 0.40769
 H483 H 0.56024 0.74131 0.42967
 H484 H 0.55547 0.81102 0.40021
 H485 H 0.44842 0.74493 0.36529
 H486 H 0.41407 0.73104 0.38816
 H487 H 0.45395 0.73512 0.45090
 H488 H 0.48749 0.74916 0.42684
 C489 C 0.46888 0.82065 0.33180
 C490 C 0.52186 0.69168 0.33248
 C491 C 0.43156 0.73204 0.42121
 C492 C 0.56026 0.77702 0.41665
 C493 C 0.40360 -0.01940 0.26763
 H494 H 0.40438 -0.00266 0.27610
 C495 C 0.41559 -0.03881 0.27691
 H496 H 0.42557 -0.03684 0.29256
 C497 C 0.38830 -0.04260 0.23791
 H498 H 0.37719 -0.04428 0.22309
 C499 C 0.40001 -0.06238 0.24653
 H500 H 0.39817 -0.07888 0.23781
 N501 N 0.39014 -0.02165 0.24856
 C502 C 0.37685 0.04703 0.21687
 H503 H 0.35812 0.04575 0.21545
 C504 C 0.38813 0.06691 0.20842
 H505 H 0.37787 0.08097 0.20069
 C506 C 0.41271 0.03035 0.22937
 H507 H 0.42217 0.01599 0.23748
 C508 C 0.42474 0.05004 0.22119
 H509 H 0.44349 0.05061 0.22294
 Zn510 Zn 0.37117 0.00404 0.23873
 N511 N 0.38914 0.02938 0.22733
 C512 C 0.35532 0.03596 0.27279
 N513 N 0.35294 0.01381 0.26502
 C514 C 0.33959 -0.00191 0.27712
 C515 C 0.32824 0.00440 0.29812
 C516 C 0.34436 0.04295 0.29360
 C517 C 0.36425 -0.00952 0.19341
 C518 C 0.35257 -0.01776 0.17423
 C519 C 0.31651 -0.01615 0.19707
 C520 C 0.32896 -0.00792 0.21593
 N521 N 0.35248 -0.00529 0.21388
 H522 H 0.36634 0.04811 0.26331
 H523 H 0.33837 -0.01957 0.27083
 H524 H 0.31824 -0.00848 0.30791
 H525 H 0.34668 0.06062 0.29954
 H526 H 0.38290 -0.00694 0.19220
 H527 H 0.36236 -0.02124 0.15817
 H528 H 0.29792 -0.01890 0.19913
 H529 H 0.31990 -0.00411 0.23227
 C530 C 0.41237 0.06869 0.21062
 C531 C 0.41355 -0.06077 0.26654
 C532 C 0.32847 -0.02160 0.17603
 C533 C 0.33098 0.02699 0.30679
 C534 C 0.08894 1.02918 0.77804
 H535 H 0.08686 1.01261 0.78715
 C536 C 0.07741 1.04923 0.78647
 H537 H 0.06648 1.04791 0.80214
 C538 C 0.10688 1.05123 0.74738
 H539 H 0.11880 1.05214 0.73249
 C540 C 0.09570 1.07164 0.75517
 H541 H 0.09876 1.08791 0.74577
 N542 N 0.10340 1.03054 0.75886
 C543 C 0.11345 0.96026 0.73138
 H544 H 0.13232 0.96023 0.72990
 C545 C 0.10126 0.94090 0.72426
 H546 H 0.11089 0.92612 0.71703
 C547 C 0.07812 0.97996 0.74214
 H548 H 0.06923 0.99528 0.74904
 C549 C 0.06515 0.96092 0.73507
 H550 H 0.04628 0.96165 0.73681
 Zn551 Zn 0.12105 1.00366 0.74983
 N552 N 0.10186 0.97911 0.74045
 C553 C 0.13623 0.97155 0.78454
 N554 N 0.13878 0.99361 0.77578
 C555 C 0.15331 1.00888 0.78580
 C556 C 0.16654 1.00189 0.80500
 C557 C 0.14917 0.96382 0.80356
 C558 C 0.13011 1.01623 0.70342
 C559 C 0.14328 1.02196 0.68339
 C560 C 0.17836 1.01615 0.70552
 C561 C 0.16448 1.01047 0.72516
 N562 N 0.14079 1.01098 0.72385
 H563 H 0.12405 0.95987 0.77695
 H564 H 0.15470 1.02647 0.77875
 H565 H 0.17831 1.01411 0.81255
 H566 H 0.14679 0.94621 0.81031
 H567 H 0.11124 1.01624 0.70283
 H568 H 0.13437 1.02672 0.66748
 H569 H 0.19718 1.01573 0.70685
 H570 H 0.17267 1.00569 0.74140
 C571 C 0.07679 0.94096 0.72622
 C572 C 0.08096 1.07089 0.77515
 C573 C 0.16774 1.02213 0.68431
 C574 C 0.16470 0.97898 0.81394
 C575 C 0.58910 0.52812 0.27768
 H576 H 0.58717 0.51159 0.28690
 C577 C 0.57734 0.54811 0.28594
 H578 H 0.56637 0.54679 0.30159
 C579 C 0.60690 0.55015 0.24692
 H580 H 0.61885 0.55108 0.23206
 C581 C 0.59549 0.57050 0.25454
 H582 H 0.59840 0.58673 0.24503
 N583 N 0.60361 0.52950 0.25854
 C584 C 0.61475 0.45923 0.23134
 H585 H 0.63360 0.45954 0.22986
 C586 C 0.60291 0.43963 0.22428
 H587 H 0.61280 0.42500 0.21708
 C588 C 0.57907 0.47834 0.24207
 H589 H 0.56992 0.49352 0.24895
 C590 C 0.56645 0.45904 0.23506
 H591 H 0.54759 0.45943 0.23680
 Zn592 Zn 0.62162 0.50278 0.24969
 N593 N 0.60282 0.47791 0.24037
 C594 C 0.63707 0.47098 0.28451
 N595 N 0.63941 0.49304 0.27571
 C596 C 0.65380 0.50848 0.28569
 C597 C 0.66711 0.50163 0.30489
 C598 C 0.65009 0.46340 0.30352
 C599 C 0.63056 0.51515 0.20323
 C600 C 0.64364 0.52097 0.18317
 C601 C 0.67878 0.51597 0.20536
 C602 C 0.66499 0.51017 0.22504
 N603 N 0.64131 0.51024 0.22370
 H604 H 0.62499 0.45917 0.27696
 H605 H 0.65503 0.52607 0.27861
 H606 H 0.67877 0.51398 0.31242
 H607 H 0.64788 0.44578 0.31030
 H608 H 0.61170 0.51481 0.20262
 H609 H 0.63467 0.52546 0.16723
 H610 H 0.69760 0.51592 0.20671
 H611 H 0.67324 0.50566 0.24131
 C612 C 0.57845 0.43925 0.22626
 C613 C 0.58071 0.56974 0.27448
 C614 C 0.66809 0.52160 0.18411
 C615 C 0.66550 0.47872 0.31385
 C616 C 0.90142 0.48140 0.77213
 H617 H 0.90115 0.49801 0.78091
 C618 C 0.91358 0.46224 0.78172
 H619 H 0.92264 0.46430 0.79792
 C620 C 0.88858 0.45817 0.74120
 H621 H 0.87837 0.45637 0.72576
 C622 C 0.90050 0.43866 0.75012
 H623 H 0.89973 0.42225 0.74102
 N624 N 0.88909 0.47900 0.75231
 C625 C 0.87504 0.54746 0.72039
 H626 H 0.85649 0.54563 0.71803
 C627 C 0.88612 0.56761 0.71235
 H628 H 0.87588 0.58132 0.70401
 C629 C 0.91065 0.53187 0.73468
 H630 H 0.92011 0.51780 0.74328
 C631 C 0.92248 0.55184 0.72694
 H632 H 0.94109 0.55291 0.72952
 Zn633 Zn 0.86974 0.50415 0.74185
 N634 N 0.88729 0.53021 0.73151
 C635 C 0.84947 0.53546 0.77456
 N636 N 0.84978 0.51295 0.76725
 C637 C 0.83735 0.49624 0.77895
 C638 C 0.82399 0.50193 0.79895
 C639 C 0.83626 0.54193 0.79428
 C640 C 0.86491 0.49085 0.69591
 C641 C 0.85404 0.48256 0.67625
 C642 C 0.81740 0.48265 0.69816
 C643 C 0.82903 0.49097 0.71749
 N644 N 0.85247 0.49442 0.71612
 H645 H 0.85991 0.54839 0.76550
 H646 H 0.83821 0.47838 0.77300
 H647 H 0.81434 0.48842 0.80820
 H648 H 0.83675 0.55982 0.80010
 H649 H 0.88347 0.49406 0.69525
 H650 H 0.86434 0.47967 0.66039
 H651 H 0.79889 0.47927 0.69971
 H652 H 0.81942 0.49424 0.73364
 C653 C 0.91015 0.57006 0.71562
 C654 C 0.91288 0.44039 0.77087
 C655 C 0.83004 0.47796 0.67732
 C656 C 0.82344 0.52505 0.80687
 C657 C 0.27347 0.40576 -0.01949
 H658 H 0.28233 0.40617 -0.00301
 C659 C 0.28246 0.41803 -0.03895
 H660 H 0.29829 0.42784 -0.03728
 C661 C 0.24298 0.39116 -0.04202
 H662 H 0.22796 0.38024 -0.04343
 C663 C 0.25130 0.40317 -0.06184
 H664 H 0.24216 0.40173 -0.07808
 N665 N 0.25415 0.39253 -0.02138
 C666 C 0.22432 0.37894 0.04835
 H667 H 0.22246 0.36024 0.04696
 C668 C 0.21708 0.39015 0.06881
 H669 H 0.20932 0.37996 0.08299
 C670 C 0.23648 0.41484 0.03127
 H671 H 0.24411 0.42433 0.01658
 C672 C 0.22941 0.42681 0.05148
 H673 H 0.23185 0.44550 0.05224
 Zn674 Zn 0.24455 0.37338 0.00433
 N675 N 0.23416 0.39127 0.03027
 C676 C 0.27926 0.35731 0.03482
 N677 N 0.27073 0.35473 0.01305
 C678 C 0.28203 0.34098 -0.00300
 C679 C 0.30295 0.32936 0.00260
 C680 C 0.30003 0.34616 0.04108
 C681 C 0.19883 0.36735 -0.00781
 C682 C 0.17927 0.35617 -0.01581
 C683 C 0.20131 0.31973 -0.01577
 C684 C 0.22058 0.33169 -0.00773
 N685 N 0.21910 0.35518 -0.00446
 H686 H 0.27047 0.36869 0.04721
 H687 H 0.27519 0.33963 -0.02037
 H688 H 0.31211 0.31899 -0.01051
 H689 H 0.30660 0.34867 0.05844
 H690 H 0.19810 0.38597 -0.00477
 H691 H 0.16339 0.36629 -0.01862
 H692 H 0.20293 0.30119 -0.01907
 H693 H 0.23677 0.32229 -0.00462
 C694 C 0.21984 0.41436 0.07070
 C695 C 0.27152 0.41652 -0.06060
 C696 C 0.18047 0.33215 -0.02036
 C697 C 0.31239 0.33232 0.02477
 C698 C 0.78112 0.08752 1.02745
 H699 H 0.78956 0.08576 1.01041
 C700 C 0.78972 0.07494 1.04665
 H701 H 0.80457 0.06317 1.04416
 C702 C 0.75193 0.10553 1.05150
 H703 H 0.73771 0.11803 1.05357
 C704 C 0.75991 0.09330 1.07111
 H705 H 0.75160 0.09655 1.08799
 N706 N 0.76258 0.10252 1.03020
 C707 C 0.73401 0.11689 0.96138
 H708 H 0.73362 0.13576 0.96229
 C709 C 0.72519 0.10599 0.94196
 H710 H 0.71829 0.11666 0.92785
 C711 C 0.74374 0.08023 0.97877
 H712 H 0.75071 0.07032 0.99333
 C713 C 0.73511 0.06855 0.95955
 H714 H 0.73544 0.04962 0.95950
 Zn715 Zn 0.75346 0.12166 1.00453
 N716 N 0.74312 0.10400 0.97922
 C717 C 0.78883 0.13648 0.97280
 N718 N 0.77965 0.13934 0.99475
 C719 C 0.78979 0.15357 1.01024
 C720 C 0.80980 0.16594 1.00367
 C721 C 0.80881 0.14838 0.96558
 C722 C 0.70775 0.12996 1.01906
 C723 C 0.68791 0.14253 1.02640
 C724 C 0.70964 0.17817 1.02183
 C725 C 0.72916 0.16485 1.01455
 N726 N 0.72795 0.14115 1.01373
 H727 H 0.78093 0.12469 0.96090
 H728 H 0.78244 0.15514 1.02777
 H729 H 0.81781 0.17704 1.01625
 H730 H 0.81571 0.14599 0.94795
 H731 H 0.70719 0.11114 1.01781
 H732 H 0.67202 0.13323 1.03061
 H733 H 0.71100 0.19696 1.02296
 H734 H 0.74523 0.17346 1.00975
 C735 C 0.72554 0.08150 0.94089
 C736 C 0.77921 0.07794 1.06892
 C737 C 0.68875 0.16694 1.02815
 C738 C 0.81963 0.16326 0.98111
 C739 C 0.27798 0.59027 0.52700
 H740 H 0.28610 0.58874 0.50979
 C741 C 0.28712 0.57763 0.54591
 H742 H 0.30206 0.56607 0.54302
 C743 C 0.24904 0.60771 0.55176
 H744 H 0.23470 0.62000 0.55421
 C745 C 0.25757 0.59542 0.57110
 H746 H 0.24955 0.59842 0.58816
 N747 N 0.25930 0.60499 0.53023
 C748 C 0.22882 0.61906 0.46223
 H749 H 0.22803 0.63793 0.46322
 C750 C 0.21996 0.60801 0.44293
 H751 H 0.21258 0.61856 0.42897
 C752 C 0.23978 0.58258 0.47927
 H753 H 0.24728 0.57278 0.49363
 C754 C 0.23114 0.57075 0.46015
 H755 H 0.23199 0.55183 0.45998
 Zn756 Zn 0.24938 0.62410 0.50486
 N757 N 0.23861 0.60633 0.47983
 C758 C 0.28383 0.63919 0.47225
 N759 N 0.27523 0.64195 0.49444
 C760 C 0.28581 0.65609 0.50970
 C761 C 0.30575 0.66837 0.50271
 C762 C 0.30371 0.65100 0.46459
 C763 C 0.20394 0.63210 0.52050
 C764 C 0.18420 0.64456 0.52831
 C765 C 0.20566 0.68032 0.52325
 C766 C 0.22508 0.66711 0.51553
 N767 N 0.22396 0.64341 0.51470
 H768 H 0.27558 0.62747 0.46052
 H769 H 0.27891 0.65759 0.52741
 H770 H 0.31415 0.67933 0.51513
 H771 H 0.31017 0.64864 0.44681
 H772 H 0.20344 0.61327 0.51925
 H773 H 0.16846 0.63518 0.53287
 H774 H 0.20695 0.69912 0.52436
 H775 H 0.24101 0.67580 0.51036
 C776 C 0.22098 0.58354 0.44171
 C777 C 0.27701 0.58031 0.56839
 C778 C 0.18496 0.66898 0.53003
 C779 C 0.31503 0.66570 0.47992
 C780 C 0.77321 0.90233 0.48138
 H781 H 0.78215 0.90196 0.49782
 C782 C 0.78261 0.91472 0.46217
 H783 H 0.79884 0.92382 0.46400
 C784 C 0.74201 0.88966 0.45862
 H785 H 0.72650 0.87946 0.45701
 C786 C 0.75072 0.90180 0.43907
 H787 H 0.74142 0.90119 0.42285
 N788 N 0.75333 0.89000 0.47924
 C789 C 0.72110 0.87613 0.54788
 H790 H 0.71842 0.85760 0.54597
 C791 C 0.71320 0.88729 0.56813
 H792 H 0.70461 0.87714 0.58185
 C793 C 0.73613 0.91159 0.53237
 H794 H 0.74497 0.92096 0.51831
 C795 C 0.72853 0.92350 0.55245
 H796 H 0.73146 0.94207 0.55360
 Zn797 Zn 0.74278 0.87062 0.50444
 N798 N 0.73254 0.88826 0.53062
 C799 C 0.77492 0.85022 0.53565
 N800 N 0.76797 0.85062 0.51308
 C801 C 0.77987 0.83827 0.49632
 C802 C 0.79973 0.82495 0.50204
 C803 C 0.79445 0.83702 0.54215
 C804 C 0.69682 0.86596 0.49185
 C805 C 0.67711 0.85527 0.48351
 C806 C 0.69878 0.81863 0.48232
 C807 C 0.71817 0.83008 0.49074
 N808 N 0.71695 0.85343 0.49483
 H809 H 0.76573 0.86059 0.54865
 H810 H 0.77422 0.83919 0.47842
 H811 H 0.80917 0.81539 0.48850
 H812 H 0.79998 0.83745 0.56010
 H813 H 0.69628 0.88445 0.49553
 H814 H 0.66133 0.86565 0.48107
 H815 H 0.70021 0.80021 0.47840
 H816 H 0.73428 0.82041 0.49350
 C817 C 0.71692 0.91128 0.57068
 C818 C 0.77150 0.91424 0.44054
 C819 C 0.67804 0.83140 0.47821
 C820 C 0.80725 0.82431 0.52523
 C821 C -0.01832 0.26979 0.40472
 H822 H -0.00154 0.27799 0.40593
 C823 C -0.03770 0.27885 0.41711
 H824 H -0.03558 0.29380 0.42819
 C825 C -0.04154 0.24077 0.38824
 H826 H -0.04319 0.22640 0.37643
 C827 C -0.06135 0.24925 0.40030
 H828 H -0.07800 0.24120 0.39758
 N829 N -0.02057 0.25116 0.39054
 C830 C 0.04900 0.22123 0.37714
 H831 H 0.04814 0.22011 0.35831
 C832 C 0.06906 0.21355 0.38844
 H833 H 0.08347 0.20620 0.37819
 C834 C 0.03097 0.23197 0.41325
 H835 H 0.01608 0.23920 0.42280
 C836 C 0.05076 0.22443 0.42533
 H837 H 0.05100 0.22614 0.44415
 Zn838 Zn 0.00539 0.24178 0.37152
 N839 N 0.03066 0.23062 0.38953
 C840 C 0.03669 0.27670 0.35692
 N841 N 0.01493 0.26836 0.35383
 C842 C -0.00059 0.27995 0.34000
 C843 C 0.00559 0.30090 0.32869
 C844 C 0.04353 0.29750 0.34606
 C845 C -0.00734 0.19637 0.36342
 C846 C -0.01387 0.17694 0.35093
 C847 C -0.01117 0.20014 0.31531
 C848 C -0.00452 0.21917 0.32853
 N849 N -0.00308 0.21700 0.35218
 H850 H 0.04864 0.26768 0.36837
 H851 H -0.01798 0.27324 0.33824
 H852 H -0.00711 0.31023 0.31818
 H853 H 0.06090 0.30386 0.34888
 H854 H -0.00589 0.19513 0.38223
 H855 H -0.01774 0.16085 0.36033
 H856 H -0.01239 0.20209 0.29652
 H857 H -0.00064 0.23561 0.31989
 C858 C 0.07027 0.21538 0.41283
 C859 C -0.05967 0.26874 0.41474
 C860 C -0.01599 0.17870 0.32656
 C861 C 0.02780 0.31007 0.33202
 C862 C 1.02241 0.77757 0.08790
 H863 H 1.00552 0.78627 0.08698
 C864 C 1.04157 0.78660 0.07539
 H865 H 1.03918 0.80208 0.06451
 C866 C 1.04614 0.74716 0.10371
 H867 H 1.04810 0.73224 0.11531
 C868 C 1.06571 0.75556 0.09150
 H869 H 1.08246 0.74689 0.09388
 N870 N 1.02502 0.75821 0.10177
 C871 C 0.95599 0.72920 0.11523
 H872 H 0.95684 0.72754 0.13406
 C873 C 0.93636 0.72166 0.10384
 H874 H 0.92223 0.71394 0.11405
 C875 C 0.97383 0.74072 0.07913
 H876 H 0.98857 0.74803 0.06960
 C877 C 0.95449 0.73326 0.06696
 H878 H 0.95438 0.73516 0.04810
 Zn879 Zn 0.99940 0.74835 0.12081
 N880 N 0.97407 0.73881 0.10287
 C881 C 0.96758 0.78219 0.13912
 N882 N 0.98992 0.77378 0.13985
 C883 C 1.00601 0.78395 0.15333
 C884 C 0.99969 0.80310 0.16717
 C885 C 0.96051 0.80115 0.15274
 C886 C 1.01351 0.70216 0.12764
 C887 C 1.02091 0.68214 0.13973
 C888 C 1.01706 0.70346 0.17581
 C889 C 1.00970 0.72313 0.16299
 N890 N 1.00850 0.72222 0.13929
 H891 H 0.95521 0.77443 0.12778
 H892 H 1.02377 0.77717 0.15328
 H893 H 1.01262 0.81087 0.17798
 H894 H 0.94270 0.80770 0.15171
 H895 H 1.01200 0.70185 0.10882
 H896 H 1.02490 0.66636 0.13008
 H897 H 1.01857 0.70465 0.19459
 H898 H 1.00520 0.73911 0.17197
 C899 C 0.93534 0.72375 0.07940
 C900 C 1.06365 0.77568 0.07729
 C901 C 1.02307 0.68270 0.16412
 C902 C 0.97661 0.81182 0.16706
 C903 C 0.52570 0.27692 0.59053
 H904 H 0.50910 0.28616 0.58942
 C905 C 0.54539 0.28554 0.57853
 H906 H 0.54377 0.30148 0.56821
 C907 C 0.54825 0.24572 0.60654
 H908 H 0.54954 0.23055 0.61791
 C909 C 0.56829 0.25369 0.59486
 H910 H 0.58461 0.24413 0.59697
 N911 N 0.52749 0.25740 0.60430
 C912 C 0.45789 0.22933 0.61681
 H913 H 0.45859 0.22748 0.63564
 C914 C 0.43824 0.22214 0.60523
 H915 H 0.42396 0.21449 0.61528
 C916 C 0.47607 0.24102 0.58094
 H917 H 0.49093 0.24831 0.57160
 C918 C 0.45671 0.23392 0.56858
 H919 H 0.45672 0.23603 0.54973
 Zn920 Zn 0.50137 0.24806 0.62296
 N921 N 0.47615 0.23886 0.60467
 C922 C 0.46966 0.28226 0.64066
 N923 N 0.49193 0.27370 0.64176
 C924 C 0.50790 0.28388 0.65536
 C925 C 0.50152 0.30320 0.66897
 C926 C 0.46253 0.30137 0.65404
 C927 C 0.51427 0.20160 0.63014
 C928 C 0.52159 0.18158 0.64229
 C929 C 0.51871 0.20327 0.67820
 C930 C 0.51141 0.22294 0.66532
 N931 N 0.50983 0.22185 0.64166
 H932 H 0.45739 0.27450 0.62922
 H933 H 0.52561 0.27700 0.65560
 H934 H 0.51435 0.31098 0.67988
 H935 H 0.44478 0.30803 0.65272
 H936 H 0.51250 0.20116 0.61136
 H937 H 0.52520 0.16568 0.63273
 H938 H 0.52061 0.20462 0.69691
 H939 H 0.50738 0.23909 0.67420
 C940 C 0.43737 0.22452 0.58080
 C941 C 0.56713 0.27405 0.58090
 C942 C 0.52426 0.18235 0.66660
 C943 C 0.47850 0.31205 0.66849
 C944 C 0.47995 0.77082 0.90607
 H945 H 0.49676 0.77890 0.90754
 C946 C 0.46048 0.77990 0.91830
 H947 H 0.46256 0.79474 0.92952
 C948 C 0.45676 0.74207 0.88908
 H949 H 0.45518 0.72780 0.87713
 C950 C 0.43686 0.75057 0.90098
 H951 H 0.42021 0.74265 0.89799
 N952 N 0.47776 0.75230 0.89172
 C953 C 0.54733 0.72217 0.87895
 H954 H 0.54667 0.72121 0.86009
 C955 C 0.56723 0.71434 0.89041
 H956 H 0.58173 0.70703 0.88025
 C957 C 0.52894 0.73268 0.91496
 H958 H 0.51396 0.73987 0.92441
 C959 C 0.54856 0.72496 0.92720
 H960 H 0.54861 0.72650 0.94604
 Zn961 Zn 0.50389 0.74289 0.87296
 N962 N 0.52889 0.73152 0.89122
 C963 C 0.53550 0.77777 0.85904
 N964 N 0.51379 0.76949 0.85550
 C965 C 0.49859 0.78114 0.84136
 C966 C 0.50506 0.80204 0.83016
 C967 C 0.54261 0.79853 0.84830
 C968 C 0.49106 0.69759 0.86455
 C969 C 0.48474 0.67818 0.85192
 C970 C 0.48815 0.70139 0.81636
 C971 C 0.49457 0.72040 0.82973
 N972 N 0.49558 0.71822 0.85341
 H973 H 0.54719 0.76872 0.87074
 H974 H 0.48123 0.77447 0.83925
 H975 H 0.49262 0.81140 0.81937
 H976 H 0.55995 0.80483 0.85147
 H977 H 0.49217 0.69633 0.88339
 H978 H 0.48069 0.66209 0.86123
 H979 H 0.48731 0.70335 0.79754
 H980 H 0.49867 0.73683 0.82118
 C981 C 0.56818 0.71596 0.91483
 C982 C 0.43849 0.76994 0.91559
 C983 C 0.48311 0.67995 0.82750
 C984 C 0.52723 0.81113 0.83392
 C985 C 0.44408 -0.12251 0.29814
 C986 C 0.42192 -0.12324 0.28849
 C987 C 0.41214 -0.10322 0.27808
 C988 C 0.46096 -0.16013 0.31982
 C989 C 0.44674 -0.08157 0.28678
 C990 C 0.45651 -0.10166 0.29721
 C991 C 0.45355 -0.14298 0.30971
 C992 C 0.42439 -0.08212 0.27713
 H993 H 0.41206 -0.13921 0.28928
 H994 H 0.39474 -0.10415 0.27123
 H995 H 0.45669 -0.06567 0.28616
 H996 H 0.47366 -0.10089 0.30469
 C997 C 0.94402 0.37911 0.80278
 C998 C 0.92243 0.37782 0.79205
 C999 C 0.91243 0.39771 0.78158
 C1000 C 0.96138 0.34153 0.82414
 C1001 C 0.94568 0.42037 0.79244
 C1002 C 0.95566 0.40041 0.80292
 C1003 C 0.95375 0.35869 0.81423
 C1004 C 0.92391 0.41924 0.78166
 H1005 H 0.91317 0.36149 0.79200
 H1006 H 0.89547 0.39631 0.77384
 H1007 H 0.95503 0.43663 0.79262
 H1008 H 0.97238 0.40162 0.81122
 C1009 C 0.05043 1.13401 0.80347
 C1010 C 0.07325 1.13391 0.79417
 C1011 C 0.08308 1.11345 0.78480
 C1012 C 0.03276 1.17218 0.82319
 C1013 C 0.04721 1.09305 0.79388
 C1014 C 0.03740 1.11356 0.80324
 C1015 C 0.04072 1.15487 0.81395
 C1016 C 0.07020 1.09274 0.78461
 H1017 H 0.08356 1.14958 0.79441
 H1018 H 0.10094 1.11372 0.77818
 H1019 H 0.03677 1.07747 0.79378
 H1020 H 0.01973 1.11343 0.81044
 C1021 C 0.54950 0.63286 0.30210
 C1022 C 0.57235 0.63288 0.29290
 C1023 C 0.58240 0.61241 0.28379
 C1024 C 0.53143 0.67120 0.32117
 C1025 C 0.54670 0.59174 0.29296
 C1026 C 0.53667 0.61227 0.30206
 C1027 C 0.53954 0.65379 0.31224
 C1028 C 0.56972 0.59157 0.28375
 H1029 H 0.58251 0.64865 0.29300
 H1030 H 0.60028 0.61278 0.27722
 H1031 H 0.53641 0.57606 0.29298
 H1032 H 0.51897 0.61205 0.30919
 C1033 C 0.54455 0.37861 0.20102
 C1034 C 0.53508 0.40093 0.19651
 C1035 C 0.54559 0.42071 0.20540
 C1036 C 0.52865 0.34165 0.17975
 C1037 C 0.57471 0.39579 0.22382
 C1038 C 0.56416 0.37609 0.21498
 C1039 C 0.53542 0.35847 0.18985
 C1040 C 0.56581 0.41835 0.21875
 H1041 H 0.51999 0.40310 0.18558
 H1042 H 0.53847 0.43785 0.20105
 H1043 H 0.59005 0.39341 0.23434
 H1044 H 0.57168 0.35892 0.21855
 C1045 C 0.04159 0.88099 0.70119
 C1046 C 0.03256 0.90348 0.69664
 C1047 C 0.04352 0.92305 0.70542
 C1048 C 0.02473 0.84417 0.68043
 C1049 C 0.07223 0.89760 0.72378
 C1050 C 0.06124 0.87810 0.71505
 C1051 C 0.03192 0.86098 0.69025
 C1052 C 0.06375 0.92031 0.71871
 H1053 H 0.01745 0.90592 0.68578
 H1054 H 0.03671 0.94032 0.70107
 H1055 H 0.08757 0.89493 0.73425
 H1056 H 0.06841 0.86079 0.71865
 C1057 C 0.94293 0.63353 0.69215
 C1058 C 0.92658 0.62285 0.67826
 C1059 C 0.91622 0.60206 0.68574
 C1060 C 0.96159 0.67299 0.67677
 C1061 C 0.93877 0.60226 0.72104
 C1062 C 0.94912 0.62313 0.71350
 C1063 C 0.95327 0.65508 0.68424
 C1064 C 0.92205 0.59159 0.70730
 H1065 H 0.92177 0.63065 0.66163
 H1066 H 0.90370 0.59410 0.67460
 H1067 H 0.94344 0.59475 0.73781
 H1068 H 0.96179 0.63123 0.72439
 C1069 C 0.44543 0.13191 0.18692
 C1070 C 0.42833 0.12179 0.17350
 C1071 C 0.41791 0.10104 0.18101
 C1072 C 0.46418 0.17139 0.17172
 C1073 C 0.44191 0.10015 0.21533
 C1074 C 0.45232 0.12098 0.20778
 C1075 C 0.45580 0.15346 0.17905
 C1076 C 0.42443 0.09006 0.20211
 H1077 H 0.42298 0.13001 0.15724
 H1078 H 0.40477 0.09353 0.17027
 H1079 H 0.44712 0.09225 0.23177
 H1080 H 0.46557 0.12865 0.21828
 C1081 C 0.30217 0.44800 -0.12263
 C1082 C 0.29213 0.42596 -0.12357
 C1083 C 0.28200 0.41588 -0.10346
 C1084 C 0.32359 0.46519 -0.16047
 C1085 C 0.29175 0.44995 -0.08129
 C1086 C 0.30190 0.46002 -0.10148
 C1087 C 0.31358 0.45769 -0.14321
 C1088 C 0.28174 0.42771 -0.08204
 H1089 H 0.29242 0.41641 -0.13979
 H1090 H 0.27485 0.39857 -0.10457
 H1091 H 0.29165 0.45958 -0.06514
 H1092 H 0.30969 0.47707 -0.10054
 C1093 C 0.80246 0.94636 0.37897
 C1094 C 0.79170 0.92472 0.37760
 C1095 C 0.78156 0.91440 0.39758
 C1096 C 0.82356 0.96401 0.34117
 C1097 C 0.79278 0.94743 0.42053
 C1098 C 0.80294 0.95774 0.40047
 C1099 C 0.81373 0.95632 0.35845
 C1100 C 0.78198 0.92560 0.41931
 H1101 H 0.79141 0.91565 0.36111
 H1102 H 0.77380 0.89740 0.39609
 H1103 H 0.79323 0.95658 0.43694
 H1104 H 0.81130 0.97448 0.40175
 C1105 C 0.80756 0.04677 1.13124
 C1106 C 0.78336 0.04803 1.12851
 C1107 C 0.77412 0.05768 1.10803
 C1108 C 0.82581 0.03001 1.17026
 C1109 C 0.81329 0.06448 1.09276
 C1110 C 0.82249 0.05484 1.11325
 C1111 C 0.81720 0.03757 1.15259
 C1112 C 0.78898 0.06621 1.08999
 H1113 H 0.77164 0.04176 1.14229
 H1114 H 0.75534 0.05852 1.10632
 H1115 H 0.82520 0.07119 1.07939
 H1116 H 0.84126 0.05398 1.11519
 C1117 C 0.30683 0.54874 0.62979
 C1118 C 0.28257 0.54976 0.62751
 C1119 C 0.27284 0.55954 0.60732
 C1120 C 0.32582 0.53187 0.66839
 C1121 C 0.31167 0.56697 0.59145
 C1122 C 0.32135 0.55720 0.61165
 C1123 C 0.31692 0.53946 0.65088
 C1124 C 0.28729 0.56846 0.58913
 H1125 H 0.27116 0.54319 0.64141
 H1126 H 0.25402 0.56018 0.60595
 H1127 H 0.32326 0.57398 0.57795
 H1128 H 0.34016 0.55654 0.61325
 C1129 C 0.19358 0.55096 0.38125
 C1130 C 0.21440 0.54242 0.39079
 C1131 C 0.22319 0.55269 0.41075
 C1132 C 0.17580 0.53346 0.34320
 C1133 C 0.19017 0.57982 0.41175
 C1134 C 0.18143 0.56954 0.39189
 C1135 C 0.18445 0.54100 0.36048
 C1136 C 0.21126 0.57167 0.42130
 H1137 H 0.22394 0.52802 0.38269
 H1138 H 0.23957 0.54618 0.41761
 H1139 H 0.18038 0.59414 0.41968
 H1140 H 0.16522 0.57619 0.38475
 C1141 C 0.69734 0.04931 0.88059
 C1142 C 0.71787 0.04021 0.89029
 C1143 C 0.72694 0.05037 0.91018
 C1144 C 0.67886 0.03198 0.84282
 C1145 C 0.69479 0.07854 0.91078
 C1146 C 0.68578 0.06837 0.89100
 C1147 C 0.68786 0.03942 0.85996
 C1148 C 0.71558 0.06981 0.92050
 H1149 H 0.72695 0.02542 0.88238
 H1150 H 0.74307 0.04339 0.91718
 H1151 H 0.68542 0.09322 0.91855
 H1152 H 0.66979 0.07546 0.88375
 C1153 C 0.69384 0.94442 0.63439
 C1154 C 0.67971 0.92821 0.62375
 C1155 C 0.68708 0.91772 0.60289
 C1156 C 0.67843 0.96361 0.67377
 C1157 C 0.72276 0.93981 0.60299
 C1158 C 0.71533 0.95030 0.62392
 C1159 C 0.68595 0.95501 0.65592
 C1160 C 0.70877 0.92327 0.59233
 H1161 H 0.66296 0.92366 0.63160
 H1162 H 0.67575 0.90534 0.59495
 H1163 H 0.73964 0.94426 0.59540
 H1164 H 0.72639 0.96287 0.63199
 C1165 C 0.19709 0.44760 0.13444
 C1166 C 0.19310 0.45863 0.11284
 C1167 C 0.20092 0.44811 0.09207
 C1168 C 0.17901 0.46568 0.17329
 C1169 C 0.21707 0.41564 0.11453
 C1170 C 0.20927 0.42620 0.13524
 C1171 C 0.18762 0.45758 0.15567
 C1172 C 0.21272 0.42633 0.09268
 H1173 H 0.18357 0.47515 0.11202
 H1174 H 0.19712 0.45666 0.07554
 H1175 H 0.22643 0.39906 0.11559
 H1176 H 0.21245 0.41750 0.15185
 C1177 C -0.12247 0.29928 0.44492
 C1178 C -0.10468 0.31358 0.43604
 C1179 C -0.08409 0.30365 0.42669
 C1180 C -0.16173 0.31930 0.46054
 C1181 C -0.09881 0.26497 0.43538
 C1182 C -0.11943 0.27496 0.44473
 C1183 C -0.14397 0.30976 0.45363
 C1184 C -0.08096 0.27922 0.42608
 H1185 H -0.10688 0.33243 0.43601
 H1186 H -0.07089 0.31511 0.41934
 H1187 H -0.09684 0.24611 0.43539
 H1188 H -0.13306 0.26372 0.45161
 C1189 C 0.37552 0.80061 0.94527
 C1190 C 0.39349 0.81487 0.93672
 C1191 C 0.41414 0.80490 0.92754
 C1192 C 0.33617 0.82072 0.96052
 C1193 C 0.39911 0.76624 0.93575
 C1194 C 0.37844 0.77628 0.94493
 C1195 C 0.35397 0.81114 0.95378
 C1196 C 0.41713 0.78045 0.92676
 H1197 H 0.39139 0.83373 0.93681
 H1198 H 0.42748 0.81633 0.92043
 H1199 H 0.40097 0.74738 0.93563
 H1200 H 0.36466 0.76507 0.95155
 C1201 C 1.12580 0.80481 0.04585
 C1202 C 1.12265 0.78063 0.04590
 C1203 C 1.10223 0.77115 0.05568
 C1204 C 1.16468 0.82335 0.02867
 C1205 C 1.08789 0.81009 0.06508
 C1206 C 1.10831 0.81952 0.05530
 C1207 C 1.14706 0.81463 0.03642
 C1208 C 1.08468 0.78577 0.06556
 H1209 H 1.13603 0.76908 0.03854
 H1210 H 1.10017 0.75238 0.05554
 H1211 H 1.07490 0.82180 0.07284
 H1212 H 1.11059 0.83827 0.05539
 C1213 C 0.62959 0.30250 0.54933
 C1214 C 0.63000 0.29268 0.57187
 C1215 C 0.60973 0.28335 0.58204
 C1216 C 0.66772 0.32166 0.53111
 C1217 C 0.58846 0.29357 0.54710
 C1218 C 0.60880 0.30290 0.53695
 C1219 C 0.65038 0.31274 0.53926
 C1220 C 0.58869 0.28370 0.56979
 H1221 H 0.64594 0.29244 0.58168
 H1222 H 0.61041 0.27627 0.59968
 H1223 H 0.57262 0.29391 0.53716
 H1224 H 0.60828 0.31051 0.51950
 C1225 C 0.37688 0.19897 0.54716
 C1226 C 0.37432 0.21223 0.56743
 C1227 C 0.39395 0.22112 0.57796
 C1228 C 0.34014 0.17802 0.53060
 C1229 C 0.41884 0.20408 0.54758
 C1230 C 0.39915 0.19515 0.53708
 C1231 C 0.35686 0.18794 0.53776
 C1232 C 0.41647 0.21681 0.56838
 H1233 H 0.35720 0.21528 0.57540
 H1234 H 0.39155 0.23116 0.59377
 H1235 H 0.43595 0.20030 0.53992
 H1236 H 0.40134 0.18477 0.52147
 C1237 C 0.87506 0.69719 0.04620
 C1238 C 0.87241 0.71057 0.06639
 C1239 C 0.89197 0.71975 0.07679
 C1240 C 0.83840 0.67601 0.02978
 C1241 C 0.91694 0.70274 0.04647
 C1242 C 0.89732 0.69351 0.03610
 C1243 C 0.85510 0.68600 0.03687
 C1244 C 0.91450 0.71562 0.06717
 H1245 H 0.85527 0.71351 0.07437
 H1246 H 0.88950 0.72990 0.09252
 H1247 H 0.93407 0.69909 0.03879
 H1248 H 0.89958 0.68305 0.02055
 C1249 C 0.63052 0.69203 0.94878
 C1250 C 0.63207 0.70524 0.92804
 C1251 C 0.61180 0.71338 0.91728
 C1252 C 0.66892 0.67375 0.96687
 C1253 C 0.58825 0.69551 0.94823
 C1254 C 0.60859 0.68734 0.95897
 C1255 C 0.65141 0.68236 0.95889
 C1256 C 0.58964 0.70836 0.92709
 H1257 H 0.64895 0.70898 0.92000
 H1258 H 0.61345 0.72355 0.90122
 H1259 H 0.57145 0.69120 0.95609
 H1260 H 0.60719 0.67702 0.97497
 C1261 C 0.13301 0.19203 0.44646
 C1262 C 0.13434 0.20494 0.42552
 C1263 C 0.11394 0.21286 0.41483
 C1264 C 0.17155 0.17424 0.46471
 C1265 C 0.09071 0.19537 0.44625
 C1266 C 0.11117 0.18742 0.45691
 C1267 C 0.15400 0.18264 0.45660
 C1268 C 0.09188 0.20794 0.42492
 H1269 H 0.15114 0.20862 0.41729
 H1270 H 0.11543 0.22283 0.39862
 H1271 H 0.07400 0.19112 0.45433
 H1272 H 0.10994 0.17733 0.47307
 C1273 C 0.55188 0.12254 0.70378
 C1274 C 0.53363 0.13587 0.71386
 C1275 C 0.52452 0.15535 0.70181
 C1276 C 0.57094 0.08603 0.72536
 C1277 C 0.55193 0.14809 0.66962
 C1278 C 0.56098 0.12870 0.68167
 C1279 C 0.56175 0.10269 0.71599
 C1280 C 0.53358 0.16164 0.67952
 H1281 H 0.52647 0.13124 0.73099
 H1282 H 0.51027 0.16533 0.70979
 H1283 H 0.55957 0.15270 0.65271
 H1284 H 0.57520 0.11858 0.67378
 C1285 C 1.05000 0.62265 0.20139
 C1286 C 1.03145 0.63582 0.21114
 C1287 C 1.02258 0.65538 0.19906
 C1288 C 1.06870 0.58609 0.22318
 C1289 C 1.05081 0.64853 0.16749
 C1290 C 1.05962 0.62906 0.17957
 C1291 C 1.05965 0.60275 0.21369
 C1292 C 1.03218 0.66192 0.17707
 H1293 H 1.02389 0.63100 0.22805
 H1294 H 1.00810 0.66522 0.20677
 H1295 H 1.05884 0.65334 0.15080
 H1296 H 1.07408 0.61907 0.17194
 C1297 C 0.95330 0.87217 0.20538
 C1298 C 0.97538 0.87191 0.19430
 C1299 C 0.98337 0.85199 0.18241
 C1300 C 0.93476 0.91055 0.22373
 C1301 C 0.94738 0.83244 0.19311
 C1302 C 0.93948 0.85229 0.20502
 C1303 C 0.94388 0.89319 0.21570
 C1304 C 0.96924 0.83220 0.18134
 H1305 H 0.98614 0.88727 0.19434
 H1306 H 1.00018 0.85236 0.17333
 H1307 H 0.93627 0.81735 0.19286
 H1308 H 0.92235 0.85232 0.21350
 C1309 C 0.45487 0.37293 0.70579
 C1310 C 0.47709 0.37248 0.69501
 C1311 C 0.48520 0.35238 0.68349
 C1312 C 0.43609 0.41157 0.72338
 C1313 C 0.44905 0.33304 0.69398
 C1314 C 0.44104 0.35306 0.70552
 C1315 C 0.44533 0.39411 0.71569
 C1316 C 0.47105 0.33260 0.68249
 H1317 H 0.48787 0.38783 0.69498
 H1318 H 0.50212 0.35260 0.67462
 H1319 H 0.43792 0.31796 0.69378
 H1320 H 0.42380 0.35323 0.71378
 C1321 C 0.45730 0.62041 0.79227
 C1322 C 0.44974 0.64294 0.78575
 C1323 C 0.45884 0.66246 0.79652
 C1324 C 0.43582 0.58316 0.77745
 C1325 C 0.48359 0.63693 0.81984
 C1326 C 0.47452 0.61748 0.80903
 C1327 C 0.44592 0.60024 0.78354
 C1328 C 0.47548 0.65960 0.81408
 H1329 H 0.43626 0.64539 0.77294
 H1330 H 0.45212 0.67968 0.79189
 H1331 H 0.49661 0.63422 0.83307
 H1332 H 0.48044 0.60012 0.81427
 C1333 C -0.04271 0.11922 0.29194
 C1334 C -0.02515 0.11624 0.30834
 C1335 C -0.01580 0.13567 0.31894
 C1336 C -0.06461 0.08205 0.27756
 C1337 C -0.04094 0.16126 0.29611
 C1338 C -0.05033 0.14177 0.28556
 C1339 C -0.05433 0.09908 0.28345
 C1340 C -0.02395 0.15836 0.31332
 H1341 H -0.01918 0.09887 0.31347
 H1342 H -0.00251 0.13293 0.33190
 H1343 H -0.04771 0.17850 0.29160
 H1344 H -0.06406 0.14425 0.27302
 C1345 C 0.04956 0.37585 0.30255
 C1346 C 0.03716 0.36046 0.28890
 C1347 C 0.02954 0.33918 0.29854
 C1348 C 0.06787 0.41492 0.28593
 C1349 C 0.04647 0.34892 0.33550
 C1350 C 0.05396 0.37011 0.32590
 C1351 C 0.05890 0.39712 0.29278
 C1352 C 0.03447 0.33307 0.32186
 H1353 H 0.03374 0.36472 0.27077
 H1354 H 0.02041 0.32724 0.28764
 H1355 H 0.05014 0.34488 0.35362
 H1356 H 0.06350 0.38190 0.33664
 C1357 C 0.55006 0.87657 0.80453
 C1358 C 0.53783 0.86119 0.79071
 C1359 C 0.52983 0.84004 0.80033
 C1360 C 0.56910 0.91529 0.78791
 C1361 C 0.54603 0.84990 0.83760
 C1362 C 0.55389 0.87096 0.82802
 C1363 C 0.55982 0.89766 0.79478
 C1364 C 0.53422 0.83404 0.82379
 H1365 H 0.53484 0.86534 0.77247
 H1366 H 0.52086 0.82809 0.78930
 H1367 H 0.54929 0.84595 0.85582
 H1368 H 0.56330 0.88275 0.83889
 C1369 C 0.70632 0.54565 0.12312
 C1370 C 0.68817 0.52989 0.12087
 C1371 C 0.67618 0.52149 0.14076
 C1372 C 0.72507 0.56580 0.08543
 C1373 C 0.70090 0.54412 0.16529
 C1374 C 0.71285 0.55252 0.14537
 C1375 C 0.71693 0.55618 0.10259
 C1376 C 0.68215 0.52883 0.16317
 H1377 H 0.68293 0.52452 0.10372
 H1378 H 0.66204 0.50949 0.13859
 H1379 H 0.70573 0.55030 0.18228
 H1380 H 0.72675 0.56488 0.14728
 C1381 C 0.20648 1.04575 0.62345
 C1382 C 0.18797 1.03042 0.62110
 C1383 C 0.17579 1.02217 0.64094
 C1384 C 0.22575 1.06567 0.58591
 C1385 C 0.20101 1.04408 0.66562
 C1386 C 0.21316 1.05233 0.64574
 C1387 C 0.21736 1.05614 0.60299
 C1388 C 0.18193 1.02922 0.66340
 H1389 H 0.18262 1.02527 0.60392
 H1390 H 0.16139 1.01049 0.63870
 H1391 H 0.20598 1.05003 0.68264
 H1392 H 0.22733 1.06435 0.64774
 C1393 C 0.20208 0.95337 0.87350
 C1394 C 0.19258 0.97610 0.87349
 C1395 C 0.18097 0.98481 0.85383
 C1396 C 0.22006 0.93362 0.91121
 C1397 C 0.18880 0.94820 0.83408
 C1398 C 0.20043 0.93959 0.85365
 C1399 C 0.21219 0.94334 0.89421
 C1400 C 0.17862 0.97075 0.83408
 H1401 H 0.19364 0.98686 0.88883
 H1402 H 0.17314 1.00217 0.85437
 H1403 H 0.18756 0.93711 0.81899
 H1404 H 0.20770 0.92197 0.85348
 C1405 C 0.70314 0.45338 0.37334
 C1406 C 0.69342 0.47603 0.37337
 C1407 C 0.68174 0.48466 0.35373
 C1408 C 0.72124 0.43373 0.41103
 C1409 C 0.68994 0.44816 0.33390
 C1410 C 0.70164 0.43963 0.35345
 C1411 C 0.71332 0.44340 0.39404
 C1412 C 0.67953 0.47061 0.33395
 H1413 H 0.69437 0.48677 0.38874
 H1414 H 0.67373 0.50195 0.35430
 H1415 H 0.68881 0.43709 0.31879
 H1416 H 0.70909 0.42208 0.35325
 C1417 C 0.79788 0.44805 0.61794
 C1418 C 0.78596 0.46545 0.63069
 C1419 C 0.79626 0.47516 0.65018
 C1420 C 0.78082 0.42881 0.58047
 C1421 C 0.83031 0.44995 0.64416
 C1422 C 0.82001 0.44029 0.62480
 C1423 C 0.78789 0.43802 0.59766
 C1424 C 0.81865 0.46760 0.65700
 H1425 H 0.76881 0.47159 0.62551
 H1426 H 0.78694 0.48883 0.65964
 H1427 H 0.84736 0.44345 0.64921
 H1428 H 0.82934 0.42676 0.61512
 C1429 C 0.29453 -0.05126 0.11758
 C1430 C 0.31631 -0.05989 0.12454
 C1431 C 0.32711 -0.05039 0.14369
 C1432 C 0.27721 -0.06994 0.07996
 C1433 C 0.29417 -0.02367 0.14942
 C1434 C 0.28337 -0.03322 0.13011
 C1435 C 0.28428 -0.06093 0.09726
 C1436 C 0.31630 -0.03202 0.15622
 H1437 H 0.32506 -0.07391 0.11504
 H1438 H 0.34393 -0.05749 0.14877
 H1439 H 0.28551 -0.00947 0.15868
 H1440 H 0.26650 -0.02640 0.12485
 C1441 C 0.30222 0.04861 0.37327
 C1442 C 0.28873 0.03535 0.35848
 C1443 C 0.29813 0.02786 0.33694
 C1444 C 0.28591 0.06636 0.41294
 C1445 C 0.33451 0.04669 0.34520
 C1446 C 0.32515 0.05405 0.36665
 C1447 C 0.29266 0.05764 0.39489
 C1448 C 0.32103 0.03376 0.32996
 H1449 H 0.27091 0.03110 0.36343
 H1450 H 0.28735 0.01800 0.32550
 H1451 H 0.35233 0.05112 0.34052
 H1452 H 0.33576 0.06425 0.37797
 C1453 C 0.79137 0.54668 0.87178
 C1454 C 0.78877 0.56047 0.85157
 C1455 C 0.79836 0.55297 0.83022
 C1456 C 0.77888 0.56470 0.91259
 C1457 C 0.81244 0.51733 0.84902
 C1458 C 0.80287 0.52492 0.87041
 C1459 C 0.78411 0.55594 0.89411
 C1460 C 0.81074 0.53155 0.82882
 H1461 H 0.77995 0.57737 0.85244
 H1462 H 0.79654 0.56414 0.81489
 H1463 H 0.82209 0.50088 0.84852
 H1464 H 0.80514 0.51419 0.88600
 C1465 C 0.12449 0.70658 0.55646
 C1466 C 0.13752 0.71582 0.53757
 C1467 C 0.15738 0.70376 0.52902
 C1468 C 0.08651 0.72754 0.57375
 C1469 C 0.15122 0.67334 0.55839
 C1470 C 0.13146 0.68540 0.56689
 C1471 C 0.10389 0.71851 0.56538
 C1472 C 0.16433 0.68229 0.53926
 H1473 H 0.13226 0.73222 0.52937
 H1474 H 0.16703 0.71097 0.51416
 H1475 H 0.15634 0.65707 0.56691
 H1476 H 0.12158 0.67815 0.58160
 C1477 C 0.62810 0.20492 1.05357
 C1478 C 0.64151 0.21410 1.03492
 C1479 C 0.66141 0.20190 1.02668
 C1480 C 0.59018 0.22620 1.07058
 C1481 C 0.65450 0.17145 1.05585
 C1482 C 0.63471 0.18364 1.06404
 C1483 C 0.60753 0.21704 1.06229
 C1484 C 0.66802 0.18035 1.03699
 H1485 H 0.63654 0.23058 1.02671
 H1486 H 0.67138 0.20909 1.01202
 H1487 H 0.65936 0.15512 1.06442
 H1488 H 0.62453 0.17645 1.07858
 C1489 C 0.88083 0.19942 0.95682
 C1490 C 0.87831 0.17571 0.95208
 C1491 C 0.85866 0.16387 0.96044
 C1492 C 0.91634 0.22123 0.93647
 C1493 C 0.84412 0.19928 0.97894
 C1494 C 0.86383 0.21115 0.97047
 C1495 C 0.90021 0.21172 0.94637
 C1496 C 0.84118 0.17560 0.97367
 H1497 H 0.89136 0.16646 0.94153
 H1498 H 0.85706 0.14554 0.95642
 H1499 H 0.83086 0.20878 0.98895
 H1500 H 0.86555 0.22955 0.97413
 C1501 C 0.37646 0.70094 0.45475
 C1502 C 0.37341 0.67734 0.44988
 C1503 C 0.35367 0.66581 0.45848
 C1504 C 0.41231 0.72209 0.43429
 C1505 C 0.34009 0.70133 0.47744
 C1506 C 0.35989 0.71289 0.46872
 C1507 C 0.39602 0.71290 0.44421
 C1508 C 0.33662 0.67775 0.47208
 H1509 H 0.38612 0.66792 0.43909
 H1510 H 0.35167 0.64755 0.45440
 H1511 H 0.32717 0.71099 0.48774
 H1512 H 0.36204 0.73121 0.47250
 C1513 C 0.61849 0.80016 0.44786
 C1514 C 0.62554 0.82245 0.44066
 C1515 C 0.64497 0.83244 0.45044
 C1516 C 0.58091 0.78366 0.42852
 C1517 C 0.65067 0.79774 0.47465
 C1518 C 0.63112 0.78775 0.46481
 C1519 C 0.59814 0.79048 0.43774
 C1520 C 0.65768 0.82030 0.46767
 H1521 H 0.61596 0.83215 0.42747
 H1522 H 0.65017 0.84964 0.44437
 H1523 H 0.66004 0.78805 0.48798
 H1524 H 0.62579 0.77047 0.47052
 C1525 C 0.12111 0.29976 -0.04984
 C1526 C 0.12828 0.32174 -0.05787
 C1527 C 0.14770 0.33205 -0.04842
 C1528 C 0.08322 0.28308 -0.06845
 C1529 C 0.15321 0.29826 -0.02292
 C1530 C 0.13365 0.28794 -0.03242
 C1531 C 0.10062 0.28991 -0.05952
 C1532 C 0.16028 0.32055 -0.03068
 H1533 H 0.11877 0.33100 -0.07142
 H1534 H 0.15296 0.34902 -0.05508
 H1535 H 0.16250 0.28906 -0.00920
 H1536 H 0.12822 0.27091 -0.02607
 C1537 C 0.37841 0.30275 0.04510
 C1538 C 0.37275 0.32614 0.04964
 C1539 C 0.35151 0.33578 0.04254
 C1540 C 0.41727 0.28608 0.06348
 C1541 C 0.34155 0.29880 0.02560
 C1542 C 0.36289 0.28911 0.03286
 C1543 C 0.39960 0.29290 0.05438
 C1544 C 0.33550 0.32214 0.03078
 H1545 H 0.38462 0.33686 0.05908
 H1546 H 0.34750 0.35391 0.04639
 H1547 H 0.32949 0.28792 0.01663
 H1548 H 0.36707 0.27094 0.02934
 C1549 C 0.87166 0.79282 0.54749
 C1550 C 0.87076 0.80444 0.52579
 C1551 C 0.84953 0.81374 0.51793
 C1552 C 0.91196 0.78118 0.56639
 C1553 C 0.82997 0.79911 0.55312
 C1554 C 0.85115 0.78977 0.56090
 C1555 C 0.89376 0.78600 0.55718
 C1556 C 0.82902 0.81167 0.53182
 H1557 H 0.88657 0.80705 0.51536
 H1558 H 0.84936 0.82353 0.50158
 H1559 H 0.81440 0.79702 0.56405
 H1560 H 0.85165 0.78087 0.57774
   
