data_POSCAR
  _audit_creation_date              2014-09-24
  _audit_creation_method            'ToBaCCo'
  _symmetry_space_group_name_H-M    'P1'
  _symmetry_Int_Tables_number       1
  _symmetry_cell_setting            triclinic
  loop_
  _symmetry_equiv_pos_as_xyz
 x,y,z
_cell_length_a 77.5571
_cell_length_b 77.7020
_cell_length_c 78.2867
_cell_angle_alpha 89.945100
_cell_angle_beta 89.967700
_cell_angle_gamma 89.975600
loop_
  _atom_site_label
  _atom_site_type_symbol
  _atom_site_fract_x
  _atom_site_fract_y
  _atom_site_fract_z
N1 N 0.37131 0.32399 0.33592
 N2 N 0.36956 0.33423 0.32268
 C3 C 0.38231 0.33102 0.31145
 C4 C 0.39260 0.31796 0.31794
 C5 C 0.38518 0.31387 0.33354
 H6 H 0.38357 0.33730 0.29919
 H7 H 0.38916 0.30388 0.34230
 Cu8 Cu 0.35026 0.35005 0.32071
 Cu9 Cu 0.35450 0.32319 0.35435
 Cu10 Cu 0.31962 0.35088 0.35101
 N11 N 0.33382 0.36888 0.32232
 N12 N 0.32189 0.36919 0.33421
 C13 C 0.31150 0.38280 0.33159
 C14 C 0.31720 0.39160 0.31722
 C15 C 0.33148 0.38234 0.31174
 H16 H 0.30025 0.38561 0.33924
 H17 H 0.33927 0.38480 0.30055
 N18 N 0.32256 0.33465 0.37013
 N19 N 0.33593 0.32425 0.37151
 C20 C 0.33370 0.31408 0.38528
 C21 C 0.31818 0.31829 0.39301
 C22 C 0.31156 0.33149 0.38306
 H23 H 0.34246 0.30396 0.38903
 H24 H 0.29929 0.33787 0.38466
 H25 H 0.33408 0.33108 0.34005
 H26 H 0.34601 0.34844 0.35148
 N27 N 0.37140 0.82378 -0.16442
 N28 N 0.37084 0.83538 -0.17663
 C29 C 0.38346 0.83208 -0.18799
 C30 C 0.39249 0.81755 -0.18267
 C31 C 0.38438 0.81274 -0.16756
 H32 H 0.38561 0.83953 -0.19945
 H33 H 0.38730 0.80178 -0.15958
 Cu34 Cu 0.35300 0.85303 -0.17672
 Cu35 Cu 0.35466 0.82311 -0.14585
 Cu36 Cu 0.32297 0.85465 -0.14592
 N37 N 0.33516 0.87068 -0.17679
 N38 N 0.32354 0.87126 -0.16459
 C39 C 0.31241 0.88413 -0.16783
 C40 C 0.31719 0.89215 -0.18299
 C41 C 0.33179 0.88317 -0.18824
 H42 H 0.30143 0.88706 -0.15986
 H43 H 0.33923 0.88527 -0.19972
 N44 N 0.32457 0.83668 -0.12817
 N45 N 0.33657 0.82463 -0.12820
 C46 C 0.33347 0.81361 -0.11527
 C47 C 0.31877 0.81889 -0.10665
 C48 C 0.31356 0.83363 -0.11521
 H49 H 0.34103 0.80222 -0.11275
 H50 H 0.30222 0.84126 -0.11262
 H51 H 0.33471 0.83472 -0.15904
 H52 H 0.34895 0.84899 -0.14612
 N53 N 0.87101 0.32363 -0.16375
 N54 N 0.87053 0.33529 -0.17590
 C55 C 0.88323 0.33205 -0.18720
 C56 C 0.89219 0.31754 -0.18186
 C57 C 0.88400 0.31260 -0.16688
 H58 H 0.88547 0.33944 -0.19867
 H59 H 0.88697 0.30158 -0.15898
 Cu60 Cu 0.85272 0.35294 -0.17613
 Cu61 Cu 0.85416 0.32298 -0.14529
 Cu62 Cu 0.82254 0.35460 -0.14542
 N63 N 0.83498 0.37066 -0.17616
 N64 N 0.82328 0.37126 -0.16404
 C65 C 0.81221 0.38417 -0.16733
 C66 C 0.81712 0.39218 -0.18246
 C67 C 0.83173 0.38319 -0.18761
 H68 H 0.80115 0.38710 -0.15946
 H69 H 0.83928 0.38529 -0.19902
 N70 N 0.82401 0.33655 -0.12773
 N71 N 0.83600 0.32451 -0.12772
 C72 C 0.83290 0.31352 -0.11477
 C73 C 0.81820 0.31884 -0.10617
 C74 C 0.81299 0.33355 -0.11477
 H75 H 0.84046 0.30214 -0.11221
 H76 H 0.80167 0.34121 -0.11218
 H77 H 0.83425 0.33477 -0.15853
 H78 H 0.84850 0.34901 -0.14554
 N79 N 0.87114 0.82369 0.33614
 N80 N 0.87065 0.83538 0.32400
 C81 C 0.88325 0.83206 0.31261
 C82 C 0.89213 0.81747 0.31786
 C83 C 0.88404 0.81259 0.33290
 H84 H 0.88545 0.83943 0.30111
 H85 H 0.88696 0.80153 0.34075
 Cu86 Cu 0.85308 0.85328 0.32402
 Cu87 Cu 0.85429 0.82293 0.35458
 Cu88 Cu 0.82274 0.85462 0.35457
 N89 N 0.83528 0.87097 0.32403
 N90 N 0.82356 0.87149 0.33615
 C91 C 0.81249 0.88442 0.33291
 C92 C 0.81740 0.89252 0.31783
 C93 C 0.83204 0.88357 0.31266
 H94 H 0.80142 0.88727 0.34077
 H95 H 0.83959 0.88573 0.30125
 N96 N 0.82407 0.83641 0.37209
 N97 N 0.83606 0.82437 0.37209
 C98 C 0.83294 0.81336 0.38502
 C99 C 0.81823 0.81866 0.39361
 C100 C 0.81302 0.83337 0.38502
 H101 H 0.84053 0.80200 0.38761
 H102 H 0.80171 0.84104 0.38762
 H103 H 0.83451 0.83472 0.34127
 H104 H 0.84865 0.84875 0.35451
 N105 N 0.62910 0.67619 0.33653
 N106 N 0.63038 0.66534 0.32374
 C107 C 0.61771 0.66859 0.31245
 C108 C 0.60793 0.68228 0.31842
 C109 C 0.61559 0.68671 0.33381
 H110 H 0.61608 0.66182 0.30051
 H111 H 0.61194 0.69710 0.34223
 Cu112 Cu 0.64891 0.64849 0.32243
 Cu113 Cu 0.64590 0.67679 0.35493
 Cu114 Cu 0.67764 0.64556 0.35478
 N115 N 0.66611 0.63029 0.32346
 N116 N 0.67706 0.62903 0.33619
 C117 C 0.68769 0.61564 0.33336
 C118 C 0.68322 0.60805 0.31797
 C119 C 0.66941 0.61772 0.31209
 H120 H 0.69812 0.61200 0.34175
 H121 H 0.66254 0.61606 0.30021
 N122 N 0.67608 0.66350 0.37243
 N123 N 0.66400 0.67544 0.37246
 C124 C 0.66711 0.68653 0.38529
 C125 C 0.68193 0.68140 0.39379
 C126 C 0.68719 0.66667 0.38526
 H127 H 0.65950 0.69789 0.38780
 H128 H 0.69862 0.65914 0.38775
 H129 H 0.66648 0.66572 0.34181
 H130 H 0.65164 0.65063 0.35331
 N131 N 0.62906 0.17612 -0.16394
 N132 N 0.62955 0.16445 -0.17606
 C133 C 0.61690 0.16774 -0.18739
 C134 C 0.60795 0.18228 -0.18209
 C135 C 0.61610 0.18718 -0.16711
 H136 H 0.61466 0.16034 -0.19885
 H137 H 0.61316 0.19821 -0.15924
 Cu138 Cu 0.64737 0.14675 -0.17611
 Cu139 Cu 0.64581 0.17679 -0.14540
 Cu140 Cu 0.67747 0.14522 -0.14540
 N141 N 0.66516 0.12904 -0.17611
 N142 N 0.67686 0.12853 -0.16400
 C143 C 0.68799 0.11565 -0.16723
 C144 C 0.68312 0.10754 -0.18229
 C145 C 0.66847 0.11647 -0.18750
 H146 H 0.69903 0.11277 -0.15931
 H147 H 0.66095 0.11430 -0.19890
 N148 N 0.67592 0.16327 -0.12773
 N149 N 0.66390 0.17529 -0.12777
 C150 C 0.66696 0.18630 -0.11485
 C151 C 0.68167 0.18106 -0.10624
 C152 C 0.68693 0.16634 -0.11479
 H153 H 0.65936 0.19767 -0.11233
 H154 H 0.69827 0.15872 -0.11218
 H155 H 0.66571 0.16508 -0.15858
 H156 H 0.65146 0.15087 -0.14554
 N157 N 0.12920 0.67686 -0.16398
 N158 N 0.13014 0.66563 -0.17647
 C159 C 0.11748 0.66891 -0.18778
 C160 C 0.10808 0.68299 -0.18212
 C161 C 0.11595 0.68765 -0.16691
 H162 H 0.11556 0.66181 -0.19948
 H163 H 0.11257 0.69830 -0.15871
 Cu164 Cu 0.14816 0.64818 -0.17713
 Cu165 Cu 0.14582 0.67737 -0.14539
 Cu166 Cu 0.17725 0.64574 -0.14527
 N167 N 0.16555 0.63012 -0.17638
 N168 N 0.17674 0.62913 -0.16384
 C169 C 0.18753 0.61589 -0.16674
 C170 C 0.18291 0.60807 -0.18198
 C171 C 0.16885 0.61749 -0.18770
 H172 H 0.19817 0.61249 -0.15850
 H173 H 0.16178 0.61561 -0.19943
 N174 N 0.17572 0.66368 -0.12761
 N175 N 0.16378 0.67576 -0.12768
 C176 C 0.16687 0.68679 -0.11479
 C177 C 0.18155 0.68148 -0.10615
 C178 C 0.18673 0.66671 -0.11466
 H179 H 0.15935 0.69821 -0.11233
 H180 H 0.19807 0.65908 -0.11207
 H181 H 0.16591 0.66592 -0.15844
 H182 H 0.15111 0.65134 -0.14633
 N183 N 0.12824 0.17578 0.33695
 N184 N 0.12777 0.16320 0.32578
 C185 C 0.11500 0.16625 0.31453
 C186 C 0.10700 0.18162 0.31885
 C187 C 0.11580 0.18725 0.33321
 H188 H 0.11202 0.15806 0.30379
 H189 H 0.11373 0.19911 0.34011
 Cu190 Cu 0.14451 0.14452 0.32611
 Cu191 Cu 0.14546 0.17687 0.35495
 Cu192 Cu 0.17679 0.14524 0.35502
 N193 N 0.16312 0.12769 0.32580
 N194 N 0.17567 0.12805 0.33705
 C195 C 0.18712 0.11558 0.33334
 C196 C 0.18152 0.10687 0.31893
 C197 C 0.16619 0.11496 0.31453
 H198 H 0.19895 0.11346 0.34032
 H199 H 0.15803 0.11208 0.30372
 N200 N 0.17586 0.16367 0.37221
 N201 N 0.16394 0.17577 0.37217
 C202 C 0.16723 0.18693 0.38490
 C203 C 0.18201 0.18167 0.39341
 C204 C 0.18705 0.16681 0.38498
 H205 H 0.15967 0.19832 0.38745
 H206 H 0.19831 0.15907 0.38761
 H207 H 0.16402 0.16403 0.34097
 H208 H 0.15067 0.15091 0.35604
 N209 N 0.62877 0.32366 0.66376
 N210 N 0.62916 0.33544 0.67579
 C211 C 0.61656 0.33214 0.68718
 C212 C 0.60774 0.31750 0.68203
 C213 C 0.61592 0.31253 0.66706
 H214 H 0.61427 0.33963 0.69858
 H215 H 0.61308 0.30140 0.65930
 Cu216 Cu 0.64682 0.35323 0.67572
 Cu217 Cu 0.64560 0.32296 0.64525
 Cu218 Cu 0.67708 0.35471 0.64515
 N219 N 0.66451 0.37099 0.67572
 N220 N 0.67625 0.37151 0.66363
 C221 C 0.68729 0.38445 0.66687
 C222 C 0.68230 0.39252 0.68187
 C223 C 0.66774 0.38357 0.68711
 H224 H 0.69837 0.38742 0.65903
 H225 H 0.66031 0.38573 0.69859
 N226 N 0.67573 0.33653 0.62761
 N227 N 0.66377 0.32447 0.62766
 C228 C 0.66693 0.31340 0.61482
 C229 C 0.68166 0.31864 0.60623
 C230 C 0.68681 0.33343 0.61472
 H231 H 0.65939 0.30199 0.61233
 H232 H 0.69813 0.34108 0.61210
 H233 H 0.66539 0.33481 0.65845
 H234 H 0.65115 0.34884 0.64523
 N235 N 0.62824 0.82466 1.16330
 N236 N 0.62794 0.83711 1.17462
 C237 C 0.61516 0.83407 1.18589
 C238 C 0.60697 0.81886 1.18142
 C239 C 0.61566 0.81330 1.16695
 H240 H 0.61232 0.84216 1.19675
 H241 H 0.61343 0.80158 1.15988
 Cu242 Cu 0.64482 0.85565 1.17434
 Cu243 Cu 0.64548 0.82359 1.14528
 Cu244 Cu 0.67712 0.85490 1.14534
 N245 N 0.66352 0.87234 1.17467
 N246 N 0.67604 0.87200 1.16338
 C247 C 0.68742 0.88454 1.16701
 C248 C 0.68180 0.89325 1.18142
 C249 C 0.66654 0.88510 1.18590
 H250 H 0.69918 0.88677 1.15993
 H251 H 0.65838 0.88799 1.19671
 N252 N 0.67602 0.83655 1.12807
 N253 N 0.66396 0.82461 1.12804
 C254 C 0.66708 0.81356 1.11515
 C255 C 0.68188 0.81875 1.10663
 C256 C 0.68713 0.83343 1.11522
 H257 H 0.65938 0.80231 1.11250
 H258 H 0.69846 0.84107 1.11262
 H259 H 0.66437 0.83626 1.15934
 H260 H 0.65114 0.84963 1.14438
 N261 N 0.12902 0.32400 1.16394
 N262 N 0.13033 0.33481 1.17675
 C263 C 0.11769 0.33154 1.18808
 C264 C 0.10790 0.31789 1.18208
 C265 C 0.11551 0.31350 1.16666
 H266 H 0.11608 0.33829 1.20003
 H267 H 0.11182 0.30317 1.15820
 Cu268 Cu 0.14874 0.35175 1.17795
 Cu269 Cu 0.14568 0.32342 1.14542
 Cu270 Cu 0.17722 0.35479 1.14540
 N271 N 0.16585 0.37000 1.17683
 N272 N 0.17669 0.37133 1.16400
 C273 C 0.18727 0.38476 1.16677
 C274 C 0.18290 0.39229 1.18222
 C275 C 0.16919 0.38254 1.18820
 H276 H 0.19762 0.38847 1.15830
 H277 H 0.16243 0.38413 1.20016
 N278 N 0.17569 0.33686 1.12773
 N279 N 0.16369 0.32486 1.12778
 C280 C 0.16679 0.31379 1.11491
 C281 C 0.18152 0.31902 1.10631
 C282 C 0.18674 0.33376 1.11483
 H283 H 0.15923 0.30240 1.11245
 H284 H 0.19812 0.34135 1.11227
 H285 H 0.16617 0.33447 1.15847
 H286 H 0.15117 0.34949 1.14706
 N287 N 0.12816 0.82460 0.66354
 N288 N 0.12987 0.83490 0.67673
 C289 C 0.11710 0.83174 0.68794
 C290 C 0.10684 0.81863 0.68152
 C291 C 0.11429 0.81450 0.66594
 H292 H 0.11584 0.83801 0.70019
 H293 H 0.11036 0.80443 0.65726
 Cu294 Cu 0.14929 0.85056 0.67873
 Cu295 Cu 0.14519 0.82352 0.64530
 Cu296 Cu 0.18038 0.85077 0.64892
 N297 N 0.16569 0.86942 0.67690
 N298 N 0.17784 0.86945 0.66522
 C299 C 0.18832 0.88299 0.66783
 C300 C 0.18249 0.89200 0.68200
 C301 C 0.16799 0.88299 0.68733
 H302 H 0.19979 0.88551 0.66040
 H303 H 0.16008 0.88562 0.69839
 N304 N 0.17754 0.83441 0.62996
 N305 N 0.16401 0.82426 0.62837
 C306 C 0.16626 0.81413 0.61460
 C307 C 0.18197 0.81810 0.60710
 C308 C 0.18869 0.83109 0.61721
 H309 H 0.15735 0.80423 0.61064
 H310 H 0.20109 0.83727 0.61579
 H311 H 0.16551 0.83125 0.65978
 H312 H 0.15400 0.84870 0.64804
 N313 N 0.37118 0.67692 0.66413
 N314 N 0.37037 0.66553 0.67650
 C315 C 0.38301 0.66876 0.68784
 C316 C 0.39227 0.68301 0.68234
 C317 C 0.38434 0.68779 0.66717
 H318 H 0.38501 0.66154 0.69947
 H319 H 0.38760 0.69858 0.65909
 Cu320 Cu 0.35240 0.64803 0.67711
 Cu321 Cu 0.35444 0.67753 0.64561
 Cu322 Cu 0.32311 0.64580 0.64539
 N323 N 0.33504 0.62993 0.67635
 N324 N 0.32377 0.62903 0.66387
 C325 C 0.31300 0.61578 0.66679
 C326 C 0.31769 0.60788 0.68199
 C327 C 0.33180 0.61725 0.68764
 H328 H 0.30229 0.61246 0.65862
 H329 H 0.33891 0.61530 0.69934
 N330 N 0.32451 0.66394 0.62783
 N331 N 0.33640 0.67606 0.62795
 C332 C 0.33326 0.68712 0.61506
 C333 C 0.31864 0.68176 0.60637
 C334 C 0.31351 0.66696 0.61487
 H335 H 0.34075 0.69857 0.61259
 H336 H 0.30225 0.65925 0.61222
 H337 H 0.33434 0.66582 0.65865
 H338 H 0.34911 0.65140 0.64635
 N339 N 0.37207 0.17597 1.16338
 N340 N 0.37183 0.16400 1.17524
 C341 C 0.38457 0.16712 1.18651
 C342 C 0.39326 0.18190 1.18150
 C343 C 0.38493 0.18709 1.16669
 H344 H 0.38699 0.15944 1.19776
 H345 H 0.38760 0.19843 1.15916
 Cu346 Cu 0.35410 0.14628 1.17537
 Cu347 Cu 0.35503 0.17699 1.14514
 Cu348 Cu 0.32350 0.14536 1.14503
 N349 N 0.33654 0.12839 1.17502
 N350 N 0.32457 0.12820 1.16316
 C351 C 0.31349 0.11529 1.16639
 C352 C 0.31870 0.10687 1.18113
 C353 C 0.33347 0.11556 1.18619
 H354 H 0.30212 0.11267 1.15885
 H355 H 0.34115 0.11309 1.19743
 N356 N 0.32464 0.16381 1.12778
 N357 N 0.33666 0.17580 1.12778
 C358 C 0.33352 0.18690 1.11492
 C359 C 0.31876 0.18170 1.10638
 C360 C 0.31354 0.16696 1.11494
 H361 H 0.34116 0.19822 1.11233
 H362 H 0.30219 0.15935 1.11237
 H363 H 0.33538 0.16495 1.15849
 H364 H 0.34949 0.15100 1.14498
 N365 N 0.87142 0.67593 1.16348
 N366 N 0.86978 0.66555 1.17663
 C367 C 0.88258 0.66867 1.18779
 C368 C 0.89278 0.68183 1.18137
 C369 C 0.88529 0.68605 1.16585
 H370 H 0.88389 0.66231 1.20000
 H371 H 0.88919 0.69614 1.15717
 Cu372 Cu 0.85045 0.64981 1.17871
 Cu373 Cu 0.85448 0.67692 1.14522
 Cu374 Cu 0.81973 0.64913 1.14856
 N375 N 0.83397 0.63103 1.17712
 N376 N 0.82185 0.63091 1.16543
 C377 C 0.81136 0.61741 1.16816
 C378 C 0.81720 0.60847 1.18237
 C379 C 0.83168 0.61752 1.18765
 H380 H 0.79994 0.61478 1.16071
 H381 H 0.83964 0.61489 1.19866
 N382 N 0.82247 0.66554 1.12962
 N383 N 0.83582 0.67595 1.12820
 C384 C 0.83356 0.68609 1.11443
 C385 C 0.81802 0.68190 1.10678
 C386 C 0.81141 0.66873 1.11676
 H387 H 0.84237 0.69614 1.11057
 H388 H 0.79912 0.66238 1.11520
 H389 H 0.83415 0.66887 1.15960
 H390 H 0.84619 0.65168 1.14798
 N391 N 0.87115 0.17635 0.66379
 N392 N 0.87011 0.16521 0.67637
 C393 C 0.88276 0.16845 0.68769
 C394 C 0.89226 0.18243 0.68196
 C395 C 0.88447 0.18705 0.66668
 H396 H 0.88460 0.16141 0.69946
 H397 H 0.88793 0.19765 0.65843
 Cu398 Cu 0.85203 0.14786 0.67723
 Cu399 Cu 0.85446 0.17695 0.64526
 Cu400 Cu 0.82293 0.14544 0.64537
 N401 N 0.83475 0.12969 0.67639
 N402 N 0.82354 0.12869 0.66387
 C403 C 0.81282 0.11539 0.66681
 C404 C 0.81749 0.10759 0.68207
 C405 C 0.83154 0.11705 0.68772
 H406 H 0.80217 0.11197 0.65861
 H407 H 0.83861 0.11520 0.69947
 N408 N 0.82435 0.16349 0.62771
 N409 N 0.83639 0.17545 0.62765
 C410 C 0.83336 0.18641 0.61465
 C411 C 0.81862 0.18117 0.60609
 C412 C 0.81332 0.16653 0.61477
 H413 H 0.84100 0.19772 0.61203
 H414 H 0.80194 0.15894 0.61225
 H415 H 0.83441 0.16567 0.65839
 H416 H 0.84914 0.15096 0.64638
 N417 N 0.32334 0.37116 0.66367
 N418 N 0.33497 0.37060 0.67585
 C419 C 0.33176 0.38330 0.68711
 C420 C 0.31732 0.39234 0.68171
 C421 C 0.31237 0.38421 0.66674
 H422 H 0.33914 0.38547 0.69860
 H423 H 0.30139 0.38725 0.65880
 Cu424 Cu 0.35260 0.35279 0.67614
 Cu425 Cu 0.32259 0.35431 0.64529
 Cu426 Cu 0.35415 0.32270 0.64541
 N427 N 0.37039 0.33513 0.67601
 N428 N 0.37094 0.32348 0.66387
 C429 C 0.38398 0.31252 0.66700
 C430 C 0.39211 0.31746 0.68199
 C431 C 0.38307 0.33192 0.68732
 H432 H 0.38702 0.30154 0.65910
 H433 H 0.38526 0.33931 0.69879
 N434 N 0.33602 0.32413 0.62785
 N435 N 0.32401 0.33615 0.62781
 C436 C 0.31303 0.33310 0.61485
 C437 C 0.31830 0.31840 0.60630
 C438 C 0.33299 0.31313 0.61492
 H439 H 0.30170 0.34074 0.61223
 H440 H 0.34063 0.30180 0.61237
 H441 H 0.33433 0.33447 0.65857
 H442 H 0.34866 0.34867 0.64555
 N443 N 0.32355 0.87139 0.16373
 N444 N 0.33514 0.87077 0.17595
 C445 C 0.33185 0.88335 0.18732
 C446 C 0.31740 0.89240 0.18195
 C447 C 0.31254 0.88439 0.16688
 H448 H 0.33918 0.88545 0.19885
 H449 H 0.30159 0.88748 0.15893
 Cu450 Cu 0.35285 0.85301 0.17607
 Cu451 Cu 0.32284 0.85464 0.14522
 Cu452 Cu 0.35448 0.82306 0.14527
 N453 N 0.37066 0.83534 0.17597
 N454 N 0.37126 0.82375 0.16378
 C455 C 0.38431 0.81278 0.16691
 C456 C 0.39237 0.81765 0.18196
 C457 C 0.38330 0.83208 0.18732
 H458 H 0.38739 0.80184 0.15897
 H459 H 0.38544 0.83942 0.19883
 N460 N 0.33636 0.82452 0.12766
 N461 N 0.32433 0.83652 0.12764
 C462 C 0.31332 0.83344 0.11470
 C463 C 0.31859 0.81873 0.10614
 C464 C 0.33331 0.81350 0.11474
 H465 H 0.30196 0.84105 0.11210
 H466 H 0.34095 0.80217 0.11219
 H467 H 0.33451 0.83478 0.15844
 H468 H 0.34881 0.84903 0.14547
 N469 N 0.82376 0.37134 0.16357
 N470 N 0.83532 0.37072 0.17581
 C471 C 0.83197 0.38328 0.18718
 C472 C 0.81750 0.39229 0.18178
 C473 C 0.81270 0.38429 0.16670
 H474 H 0.83924 0.38538 0.19875
 H475 H 0.80176 0.38734 0.15873
 Cu476 Cu 0.85300 0.35291 0.17599
 Cu477 Cu 0.82310 0.35466 0.14504
 Cu478 Cu 0.85470 0.32308 0.14503
 N479 N 0.87081 0.33524 0.17582
 N480 N 0.87144 0.32370 0.16358
 C481 C 0.88441 0.31266 0.16674
 C482 C 0.89241 0.31744 0.18185
 C483 C 0.88338 0.33189 0.18722
 H484 H 0.88748 0.30172 0.15879
 H485 H 0.88546 0.33915 0.19879
 N486 N 0.83661 0.32461 0.12741
 N487 N 0.82459 0.33662 0.12743
 C488 C 0.81351 0.33355 0.11456
 C489 C 0.81871 0.31882 0.10600
 C490 C 0.83347 0.31358 0.11453
 H491 H 0.80214 0.34115 0.11203
 H492 H 0.84104 0.30219 0.11199
 H493 H 0.83475 0.33473 0.15823
 H494 H 0.84910 0.34905 0.14537
 N495 N 0.82393 0.87187 0.66355
 N496 N 0.83633 0.87195 0.67499
 C497 C 0.83336 0.88468 0.68627
 C498 C 0.81829 0.89312 0.68165
 C499 C 0.81270 0.88456 0.66713
 H500 H 0.84139 0.88734 0.69722
 H501 H 0.80107 0.88699 0.65993
 Cu502 Cu 0.85441 0.85466 0.67414
 Cu503 Cu 0.82266 0.85473 0.64534
 Cu504 Cu 0.85440 0.82309 0.64526
 N505 N 0.87175 0.83664 0.67489
 N506 N 0.87167 0.82429 0.66342
 C507 C 0.88424 0.81296 0.66711
 C508 C 0.89270 0.81840 0.68175
 C509 C 0.88437 0.83354 0.68629
 H510 H 0.88659 0.80129 0.65997
 H511 H 0.88697 0.84149 0.69730
 N512 N 0.83580 0.82421 0.62805
 N513 N 0.82378 0.83625 0.62808
 C514 C 0.81272 0.83322 0.61518
 C515 C 0.81792 0.81851 0.60659
 C516 C 0.83264 0.81320 0.61515
 H517 H 0.80147 0.84096 0.61253
 H518 H 0.84028 0.80190 0.61249
 H519 H 0.83505 0.83545 0.65882
 H520 H 0.84842 0.84888 0.64421
 N521 N 0.67691 0.62866 0.66398
 N522 N 0.66530 0.62917 0.67619
 C523 C 0.66855 0.61645 0.68744
 C524 C 0.68303 0.60748 0.68203
 C525 C 0.68793 0.61565 0.66704
 H526 H 0.66119 0.61422 0.69894
 H527 H 0.69892 0.61267 0.65909
 Cu528 Cu 0.64769 0.64705 0.67667
 Cu529 Cu 0.67751 0.64546 0.64552
 Cu530 Cu 0.64589 0.67700 0.64570
 N531 N 0.62981 0.66468 0.67645
 N532 N 0.62921 0.67631 0.66428
 C533 C 0.61607 0.68718 0.66734
 C534 C 0.60788 0.68216 0.68228
 C535 C 0.61702 0.66778 0.68768
 H536 H 0.61295 0.69810 0.65937
 H537 H 0.61479 0.66034 0.69914
 N538 N 0.66389 0.67553 0.62801
 N539 N 0.67595 0.66356 0.62794
 C540 C 0.68683 0.66661 0.61487
 C541 C 0.68142 0.68125 0.60627
 C542 C 0.66677 0.68648 0.61498
 H543 H 0.69818 0.65902 0.61220
 H544 H 0.65907 0.69777 0.61243
 H545 H 0.66586 0.66533 0.65882
 H546 H 0.65146 0.65103 0.64604
 N547 N 0.67567 0.12765 0.16317
 N548 N 0.66318 0.12735 0.17450
 C549 C 0.66628 0.11466 0.18582
 C550 C 0.68157 0.10653 0.18139
 C551 C 0.68711 0.11517 0.16688
 H552 H 0.65818 0.11185 0.19671
 H553 H 0.69889 0.11299 0.15984
 Cu554 Cu 0.64460 0.14422 0.17428
 Cu555 Cu 0.67680 0.14488 0.14517
 Cu556 Cu 0.64537 0.17643 0.14527
 N557 N 0.62786 0.16291 0.17465
 N558 N 0.62819 0.17539 0.16332
 C559 C 0.61572 0.18684 0.16702
 C560 C 0.60706 0.18132 0.18153
 C561 C 0.61517 0.16604 0.18598
 H562 H 0.61354 0.19859 0.15997
 H563 H 0.61231 0.15796 0.19685
 N564 N 0.66379 0.17538 0.12800
 N565 N 0.67579 0.16336 0.12797
 C566 C 0.68699 0.16661 0.11521
 C567 C 0.68186 0.18145 0.10676
 C568 C 0.66703 0.18658 0.11525
 H569 H 0.69831 0.15895 0.11259
 H570 H 0.65941 0.19793 0.11271
 H571 H 0.66414 0.16359 0.15920
 H572 H 0.65077 0.15037 0.14427
 N573 N 0.17657 0.62898 0.16350
 N574 N 0.16556 0.63016 0.17619
 C575 C 0.16871 0.61744 0.18744
 C576 C 0.18248 0.60773 0.18153
 C577 C 0.18708 0.61548 0.16624
 H578 H 0.16177 0.61571 0.19929
 H579 H 0.19756 0.61188 0.15787
 Cu580 Cu 0.14857 0.64855 0.17740
 Cu581 Cu 0.17727 0.64571 0.14506
 Cu582 Cu 0.14575 0.67715 0.14501
 N583 N 0.13020 0.66556 0.17619
 N584 N 0.12901 0.67652 0.16347
 C585 C 0.11557 0.68711 0.16624
 C586 C 0.10786 0.68261 0.18159
 C587 C 0.11752 0.66881 0.18749
 H588 H 0.11200 0.69758 0.15787
 H589 H 0.11581 0.66194 0.19937
 N590 N 0.16385 0.67574 0.12745
 N591 N 0.17590 0.66378 0.12750
 C592 C 0.18700 0.66689 0.11463
 C593 C 0.18174 0.68158 0.10603
 C594 C 0.16695 0.68678 0.11454
 H595 H 0.19840 0.65932 0.11214
 H596 H 0.15932 0.69811 0.11196
 H597 H 0.16604 0.66597 0.15808
 H598 H 0.15113 0.65104 0.14651
 N599 N 0.17651 0.12862 0.66381
 N600 N 0.16500 0.12936 0.67610
 C601 C 0.16835 0.11688 0.68757
 C602 C 0.18274 0.10776 0.68217
 C603 C 0.18752 0.11564 0.66700
 H604 H 0.16109 0.11488 0.69918
 H605 H 0.19841 0.11246 0.65898
 Cu606 Cu 0.14726 0.14708 0.67612
 Cu607 Cu 0.17716 0.14519 0.64512
 Cu608 Cu 0.14559 0.17681 0.64509
 N609 N 0.12942 0.16468 0.67587
 N610 N 0.12883 0.17623 0.66361
 C611 C 0.11579 0.18722 0.66669
 C612 C 0.10771 0.18238 0.68175
 C613 C 0.11677 0.16798 0.68719
 H614 H 0.11274 0.19814 0.65869
 H615 H 0.11462 0.16068 0.69874
 N616 N 0.16364 0.17525 0.62746
 N617 N 0.17560 0.16317 0.62740
 C618 C 0.18658 0.16618 0.61442
 C619 C 0.18138 0.18094 0.60588
 C620 C 0.16672 0.18626 0.61453
 H621 H 0.19790 0.15853 0.61180
 H622 H 0.15920 0.19768 0.61204
 H623 H 0.16565 0.16511 0.65829
 H624 H 0.15126 0.15081 0.64550
 N625 N 0.32334 0.62896 0.33629
 N626 N 0.33495 0.62955 0.32408
 C627 C 0.33170 0.61690 0.31278
 C628 C 0.31723 0.60788 0.31816
 C629 C 0.31233 0.61596 0.33319
 H630 H 0.33905 0.61473 0.30126
 H631 H 0.30136 0.61292 0.34114
 Cu632 Cu 0.35262 0.64737 0.32379
 Cu633 Cu 0.32266 0.64566 0.35481
 Cu634 Cu 0.35424 0.67722 0.35479
 N635 N 0.37054 0.66494 0.32415
 N636 N 0.37108 0.67654 0.33633
 C637 C 0.38414 0.68751 0.33325
 C638 C 0.39232 0.68260 0.31827
 C639 C 0.38329 0.66816 0.31289
 H640 H 0.38715 0.69847 0.34118
 H641 H 0.38552 0.66080 0.30140
 N642 N 0.33611 0.67575 0.37237
 N643 N 0.32413 0.66371 0.37242
 C644 C 0.31314 0.66671 0.38540
 C645 C 0.31837 0.68142 0.39396
 C646 C 0.33304 0.68673 0.38531
 H647 H 0.30184 0.65905 0.38803
 H648 H 0.34060 0.69811 0.38784
 H649 H 0.33433 0.66553 0.34161
 H650 H 0.34870 0.65120 0.35443
 N651 N 0.32404 0.12783 0.83688
 N652 N 0.33604 0.12810 0.82504
 C653 C 0.33305 0.11532 0.81383
 C654 C 0.31830 0.10655 0.81884
 C655 C 0.31299 0.11490 0.83359
 H656 H 0.34075 0.11294 0.80257
 H657 H 0.30166 0.11218 0.84114
 Cu658 Cu 0.35369 0.14589 0.82498
 Cu659 Cu 0.32291 0.14498 0.85505
 Cu660 Cu 0.35438 0.17673 0.85492
 N661 N 0.37134 0.16368 0.82493
 N662 N 0.37150 0.17569 0.83671
 C663 C 0.38435 0.18683 0.83336
 C664 C 0.39277 0.18155 0.81864
 C665 C 0.38412 0.16674 0.81369
 H666 H 0.38697 0.19819 0.84085
 H667 H 0.38662 0.15903 0.80249
 N668 N 0.33595 0.17551 0.87226
 N669 N 0.32399 0.16344 0.87234
 C670 C 0.31294 0.16653 0.88525
 C671 C 0.31810 0.18132 0.89374
 C672 C 0.33280 0.18658 0.88512
 H673 H 0.30172 0.15879 0.88799
 H674 H 0.34042 0.19791 0.88768
 H675 H 0.33484 0.16464 0.84157
 H676 H 0.34884 0.15085 0.85529
 N677 N 0.82278 0.62966 0.83512
 N678 N 0.83378 0.63090 0.82242
 C679 C 0.83124 0.61772 0.81157
 C680 C 0.81785 0.60763 0.81776
 C681 C 0.81287 0.61565 0.83281
 H682 H 0.83820 0.61604 0.79974
 H683 H 0.80238 0.61204 0.84116
 Cu684 Cu 0.84960 0.65022 0.82047
 Cu685 Cu 0.82075 0.64751 0.85239
 Cu686 Cu 0.85212 0.67906 0.85234
 N687 N 0.86886 0.66612 0.82237
 N688 N 0.87004 0.67710 0.83506
 C689 C 0.88399 0.68711 0.83267
 C690 C 0.89201 0.68223 0.81758
 C691 C 0.88200 0.66878 0.81146
 H692 H 0.88753 0.69762 0.84098
 H693 H 0.88370 0.66187 0.79961
 N694 N 0.83473 0.67690 0.87066
 N695 N 0.82275 0.66486 0.87065
 C696 C 0.81217 0.66739 0.88406
 C697 C 0.81765 0.68181 0.89297
 C698 C 0.83209 0.68740 0.88409
 H699 H 0.80091 0.65967 0.88672
 H700 H 0.83976 0.69867 0.88678
 H701 H 0.83187 0.66786 0.83971
 H702 H 0.84679 0.65310 0.85127
 N703 N 0.82402 0.12832 0.33630
 N704 N 0.83590 0.12867 0.32434
 C705 C 0.83267 0.11605 0.31299
 C706 C 0.81795 0.10729 0.31811
 C707 C 0.81288 0.11550 0.33301
 H708 H 0.84021 0.11376 0.30161
 H709 H 0.80166 0.11272 0.34071
 Cu710 Cu 0.85362 0.14639 0.32442
 Cu711 Cu 0.82316 0.14520 0.35472
 Cu712 Cu 0.85478 0.17682 0.35471
 N713 N 0.87123 0.16421 0.32421
 N714 N 0.87160 0.17602 0.33620
 C715 C 0.88445 0.18715 0.33290
 C716 C 0.89264 0.18213 0.31796
 C717 C 0.88383 0.16748 0.31282
 H718 H 0.88727 0.19830 0.34063
 H719 H 0.88611 0.15999 0.30143
 N720 N 0.83658 0.17536 0.37228
 N721 N 0.82453 0.16338 0.37225
 C722 C 0.81348 0.16645 0.38517
 C723 C 0.81875 0.18112 0.39379
 C724 C 0.83351 0.18634 0.38523
 H725 H 0.80213 0.15884 0.38775
 H726 H 0.84117 0.19763 0.38785
 H727 H 0.83504 0.16502 0.34141
 H728 H 0.84910 0.15100 0.35483
 N729 N 0.67632 0.37165 0.33637
 N730 N 0.66448 0.37129 0.32439
 C731 C 0.66760 0.38405 0.31314
 C732 C 0.68223 0.39290 0.31832
 C733 C 0.68736 0.38460 0.33317
 H734 H 0.66003 0.38642 0.30180
 H735 H 0.69853 0.38743 0.34090
 Cu736 Cu 0.64664 0.35367 0.32438
 Cu737 Cu 0.67718 0.35478 0.35475
 Cu738 Cu 0.64561 0.32315 0.35473
 N739 N 0.62905 0.33579 0.32436
 N740 N 0.62872 0.32395 0.33634
 C741 C 0.61589 0.31280 0.33305
 C742 C 0.60765 0.31783 0.31814
 C743 C 0.61639 0.33256 0.31303
 H744 H 0.61315 0.30158 0.34073
 H745 H 0.61402 0.34011 0.30167
 N746 N 0.66383 0.32454 0.37223
 N747 N 0.67582 0.33657 0.37224
 C748 C 0.68683 0.33354 0.38519
 C749 C 0.68159 0.31883 0.39378
 C750 C 0.66691 0.31354 0.38517
 H751 H 0.69812 0.34122 0.38782
 H752 H 0.65931 0.30219 0.38776
 H753 H 0.66539 0.33506 0.34140
 H754 H 0.65132 0.34905 0.35481
 N755 N 0.67785 0.86875 0.83451
 N756 N 0.66408 0.87115 0.82504
 C757 C 0.66656 0.88504 0.81505
 C758 C 0.68279 0.89175 0.81847
 C759 C 0.68953 0.88102 0.83094
 H760 H 0.65738 0.88967 0.80573
 H761 H 0.70226 0.88159 0.83653
 Cu762 Cu 0.64497 0.85489 0.82560
 Cu763 Cu 0.68021 0.84903 0.84960
 Cu764 Cu 0.64235 0.82682 0.85809
 N765 N 0.62797 0.83644 0.82570
 N766 N 0.62706 0.82541 0.83840
 C767 C 0.61442 0.81401 0.83525
 C768 C 0.60698 0.81800 0.81962
 C769 C 0.61597 0.83237 0.81397
 H770 H 0.61114 0.80347 0.84367
 H771 H 0.61418 0.83922 0.80209
 N772 N 0.66309 0.82491 0.87244
 N773 N 0.67761 0.83300 0.86890
 C774 C 0.68957 0.82861 0.88054
 C775 C 0.68230 0.81710 0.89199
 C776 C 0.66546 0.81505 0.88640
 H777 H 0.70270 0.83328 0.88050
 H778 H 0.65566 0.80689 0.89194
 H779 H 0.66075 0.83244 0.84088
 H780 H 0.65462 0.85074 0.85508
 N781 N 0.17623 0.37143 0.83629
 N782 N 0.16446 0.37102 0.82423
 C783 C 0.16761 0.38377 0.81298
 C784 C 0.18219 0.39266 0.81823
 C785 C 0.18725 0.38441 0.83313
 H786 H 0.16012 0.38608 0.80159
 H787 H 0.19836 0.38729 0.84093
 Cu788 Cu 0.14683 0.35321 0.82402
 Cu789 Cu 0.17702 0.35459 0.85473
 Cu790 Cu 0.14547 0.32297 0.85463
 N791 N 0.12908 0.33550 0.82411
 N792 N 0.12867 0.32371 0.83615
 C793 C 0.11573 0.31266 0.83293
 C794 C 0.10751 0.31771 0.81802
 C795 C 0.11638 0.33232 0.81281
 H796 H 0.11286 0.30154 0.84071
 H797 H 0.11408 0.33984 0.80143
 N798 N 0.16358 0.32439 0.87223
 N799 N 0.17559 0.33641 0.87226
 C800 C 0.18656 0.33337 0.88525
 C801 C 0.18129 0.31866 0.89384
 C802 C 0.16661 0.31340 0.88520
 H803 H 0.19787 0.34101 0.88787
 H804 H 0.15899 0.30207 0.88778
 H805 H 0.16534 0.33485 0.84142
 H806 H 0.15108 0.34897 0.85455
 N807 N 0.17624 0.87132 0.33609
 N808 N 0.16452 0.87089 0.32399
 C809 C 0.16769 0.88367 0.31277
 C810 C 0.18222 0.89262 0.31809
 C811 C 0.18723 0.88435 0.33300
 H812 H 0.16022 0.88598 0.30135
 H813 H 0.19829 0.88727 0.34086
 Cu814 Cu 0.14687 0.85302 0.32373
 Cu815 Cu 0.17701 0.85441 0.35448
 Cu816 Cu 0.14545 0.82280 0.35443
 N817 N 0.12907 0.83530 0.32388
 N818 N 0.12862 0.82357 0.33597
 C819 C 0.11563 0.81256 0.33282
 C820 C 0.10742 0.81756 0.31789
 C821 C 0.11635 0.83211 0.31261
 H822 H 0.11270 0.80150 0.34067
 H823 H 0.11407 0.83957 0.30119
 N824 N 0.16361 0.82421 0.37199
 N825 N 0.17563 0.83621 0.37199
 C826 C 0.18663 0.83317 0.38495
 C827 C 0.18135 0.81849 0.39358
 C828 C 0.16665 0.81323 0.38497
 H829 H 0.19796 0.84079 0.38755
 H830 H 0.15900 0.80192 0.38758
 H831 H 0.16524 0.83458 0.34120
 H832 H 0.15097 0.84873 0.35428
 C833 C 0.26085 0.96397 0.23875
 C834 C 0.24998 0.95515 0.24995
 C835 C 0.23905 0.96396 0.26111
 C836 C 0.23894 0.98214 0.26123
 C837 C 0.24993 0.99127 0.24989
 C838 C 0.26092 0.98216 0.23855
 C839 C 0.27164 0.99145 0.22737
 C840 C 0.27165 1.00939 0.22738
 C841 C 0.26094 1.01867 0.23857
 C842 C 0.24994 1.00954 0.24990
 C843 C 0.22818 0.99143 0.27236
 C844 C 0.22818 1.00936 0.27236
 C845 C 0.23895 1.01866 0.26123
 C846 C 0.23906 1.03685 0.26110
 C847 C 0.25000 1.04567 0.24996
 C848 C 0.26089 1.03686 0.23877
 H849 H 0.28012 0.98491 0.21851
 H850 H 0.28013 1.01593 0.21851
 H851 H 0.21966 0.98488 0.28119
 H852 H 0.21967 1.01590 0.28120
 H853 H 0.25002 0.94118 0.24998
 H854 H 0.25003 1.05964 0.24999
 C855 C 0.26104 0.46369 0.73876
 C856 C 0.25020 0.45481 0.74994
 C857 C 0.23926 0.46356 0.76111
 C858 C 0.23911 0.48174 0.76129
 C859 C 0.25010 0.49092 0.75000
 C860 C 0.26110 0.48186 0.73864
 C861 C 0.27184 0.49120 0.72751
 C862 C 0.27181 0.50914 0.72756
 C863 C 0.26105 0.51836 0.73875
 C864 C 0.25007 0.50918 0.75005
 C865 C 0.22830 0.49096 0.77243
 C866 C 0.22828 0.50889 0.77249
 C867 C 0.23907 0.51824 0.76141
 C868 C 0.23918 0.53641 0.76135
 C869 C 0.25006 0.54529 0.75020
 C870 C 0.26094 0.53655 0.73897
 H871 H 0.28036 0.48471 0.71866
 H872 H 0.28030 0.51572 0.71874
 H873 H 0.21977 0.48437 0.78122
 H874 H 0.21972 0.51539 0.78132
 H875 H 0.25026 0.44083 0.74993
 H876 H 0.25005 0.55927 0.75027
 C877 C 0.76075 -0.03677 0.26148
 C878 C 0.74981 -0.04553 0.25032
 C879 C 0.73894 -0.03666 0.23916
 C880 C 0.73890 -0.01849 0.23899
 C881 C 0.74989 -0.00941 0.25032
 C882 C 0.76085 -0.01858 0.26166
 C883 C 0.77159 -0.00932 0.27282
 C884 C 0.77164 0.00862 0.27280
 C885 C 0.76096 0.01794 0.26161
 C886 C 0.74994 0.00886 0.25030
 C887 C 0.72819 -0.00916 0.22782
 C888 C 0.72823 0.00877 0.22780
 C889 C 0.73896 0.01802 0.23896
 C890 C 0.73906 0.03621 0.23913
 C891 C 0.75004 0.04498 0.25024
 C892 C 0.76096 0.03612 0.26137
 H893 H 0.78004 -0.01590 0.28169
 H894 H 0.78012 0.01513 0.28166
 H895 H 0.71970 -0.01567 0.21897
 H896 H 0.71978 0.01533 0.21892
 H897 H 0.74977 -0.05951 0.25031
 H898 H 0.75009 0.05895 0.25022
 C899 C 0.74000 0.53633 0.73902
 C900 C 0.75105 0.54497 0.75016
 C901 C 0.76184 0.53598 0.76130
 C902 C 0.76171 0.51781 0.76143
 C903 C 0.75057 0.50886 0.75013
 C904 C 0.73966 0.51815 0.73885
 C905 C 0.72874 0.50903 0.72776
 C906 C 0.72849 0.49110 0.72777
 C907 C 0.73916 0.48165 0.73886
 C908 C 0.75032 0.49060 0.75013
 C909 C 0.77239 0.50836 0.77252
 C910 C 0.77217 0.49044 0.77249
 C911 C 0.76125 0.48132 0.76139
 C912 C 0.76094 0.46314 0.76121
 C913 C 0.74986 0.45449 0.75012
 C914 C 0.73902 0.46347 0.73902
 H915 H 0.72030 0.51570 0.71895
 H916 H 0.71984 0.48468 0.71898
 H917 H 0.78102 0.51477 0.78132
 H918 H 0.78064 0.48377 0.78128
 H919 H 0.75123 0.55894 0.75018
 H920 H 0.74969 0.44052 0.75010
 C921 C 0.26126 0.46389 0.26109
 C922 C 0.25042 0.45499 0.24996
 C923 C 0.23943 0.46372 0.23882
 C924 C 0.23917 0.48189 0.23865
 C925 C 0.25011 0.49110 0.24993
 C926 C 0.26121 0.48207 0.26122
 C927 C 0.27193 0.49144 0.27231
 C928 C 0.27175 0.50936 0.27231
 C929 C 0.26086 0.51856 0.26122
 C930 C 0.24994 0.50935 0.24992
 C931 C 0.22830 0.49108 0.22753
 C932 C 0.22816 0.50901 0.22750
 C933 C 0.23886 0.51838 0.23860
 C934 C 0.23883 0.53655 0.23872
 C935 C 0.24960 0.54546 0.24992
 C936 C 0.26057 0.53674 0.26109
 H937 H 0.28055 0.48496 0.28109
 H938 H 0.28024 0.51597 0.28110
 H939 H 0.21981 0.48447 0.21874
 H940 H 0.21956 0.51548 0.21869
 H941 H 0.25053 0.44101 0.24997
 H942 H 0.24946 0.55944 0.24991
 C943 C 0.76094 0.96339 0.73915
 C944 C 0.75001 0.95452 0.75025
 C945 C 0.73911 0.96329 0.76147
 C946 C 0.73896 0.98148 0.76164
 C947 C 0.74998 0.99065 0.75037
 C948 C 0.76103 0.98157 0.73905
 C949 C 0.77185 0.99090 0.72800
 C950 C 0.77188 1.00883 0.72808
 C951 C 0.76108 1.01808 0.73920
 C952 C 0.75001 1.00892 0.75044
 C953 C 0.72814 0.99073 0.77275
 C954 C 0.72815 1.00867 0.77282
 C955 C 0.73899 1.01800 0.76177
 C956 C 0.73914 1.03619 0.76171
 C957 C 0.75009 1.04503 0.75061
 C958 C 0.76101 1.03626 0.73942
 H959 H 0.78040 0.98439 0.71918
 H960 H 0.78047 1.01540 0.71933
 H961 H 0.71957 0.98415 0.78151
 H962 H 0.71960 1.01518 0.78163
 H963 H 0.75002 0.94055 0.75020
 H964 H 0.75011 1.05901 0.75066
 C965 C 0.76081 0.46363 0.23859
 C966 C 0.74987 0.45484 0.24975
 C967 C 0.73905 0.46369 0.26096
 C968 C 0.73904 0.48186 0.26114
 C969 C 0.75011 0.49095 0.24986
 C970 C 0.76106 0.48180 0.23851
 C971 C 0.77192 0.49106 0.22744
 C972 C 0.77206 0.50899 0.22752
 C973 C 0.76134 0.51829 0.23868
 C974 C 0.75025 0.50920 0.24994
 C975 C 0.72829 0.49117 0.27226
 C976 C 0.72842 0.50910 0.27234
 C977 C 0.73930 0.51835 0.26128
 C978 C 0.73956 0.53652 0.26122
 C979 C 0.75054 0.54531 0.25012
 C980 C 0.76137 0.53646 0.23891
 H981 H 0.78042 0.48450 0.21861
 H982 H 0.78067 0.51551 0.21876
 H983 H 0.71967 0.48466 0.28102
 H984 H 0.71991 0.51566 0.28116
 H985 H 0.74979 0.44087 0.24972
 H986 H 0.75065 0.55929 0.25018
 C987 C 0.26084 -0.03672 0.76114
 C988 C 0.24987 -0.04548 0.75001
 C989 C 0.23897 -0.03661 0.73889
 C990 C 0.23891 -0.01842 0.73878
 C991 C 0.24999 -0.00936 0.75006
 C992 C 0.26101 -0.01854 0.76131
 C993 C 0.27187 -0.00932 0.77239
 C994 C 0.27194 0.00861 0.77241
 C995 C 0.26117 0.01797 0.76134
 C996 C 0.25007 0.00891 0.75008
 C997 C 0.22813 -0.00907 0.72772
 C998 C 0.22819 0.00886 0.72775
 C999 C 0.23905 0.01809 0.73883
 C1000 C 0.23923 0.03626 0.73900
 C1001 C 0.25023 0.04502 0.75010
 C1002 C 0.26116 0.03615 0.76120
 H1003 H 0.28041 -0.01591 0.78116
 H1004 H 0.28053 0.01511 0.78119
 H1005 H 0.21954 -0.01556 0.71894
 H1006 H 0.21965 0.01546 0.71898
 H1007 H 0.24984 -0.05945 0.75000
 H1008 H 0.25028 0.05900 0.75010
 C1009 C 0.23896 0.26123 1.03634
 C1010 C 0.25005 0.25015 1.04508
 C1011 C 0.26112 0.23907 1.03631
 C1012 C 0.26121 0.23894 1.01826
 C1013 C 0.24997 0.25013 1.00922
 C1014 C 0.23878 0.26134 1.01829
 C1015 C 0.22776 0.27232 1.00908
 C1016 C 0.22771 0.27230 0.99128
 C1017 C 0.23868 0.26131 0.98205
 C1018 C 0.24992 0.25012 0.99109
 C1019 C 0.27219 0.22796 1.00903
 C1020 C 0.27215 0.22794 0.99123
 C1021 C 0.26111 0.23891 0.98202
 C1022 C 0.26093 0.23900 0.96397
 C1023 C 0.24982 0.25006 0.95523
 C1024 C 0.23876 0.26116 0.96400
 H1025 H 0.21906 0.28103 1.01559
 H1026 H 0.21898 0.28100 0.98480
 H1027 H 0.28093 0.21927 1.01551
 H1028 H 0.28086 0.21924 0.98473
 H1029 H 0.25009 0.25016 1.05895
 H1030 H 0.24977 0.25004 0.94136
 C1031 C 0.23860 0.76114 0.53618
 C1032 C 0.24970 0.75010 0.54497
 C1033 C 0.26085 0.73906 0.53625
 C1034 C 0.26100 0.73893 0.51820
 C1035 C 0.24978 0.75011 0.50912
 C1036 C 0.23853 0.76129 0.51814
 C1037 C 0.22755 0.77228 0.50889
 C1038 C 0.22758 0.77228 0.49110
 C1039 C 0.23859 0.76128 0.48191
 C1040 C 0.24980 0.75009 0.49099
 C1041 C 0.27204 0.72797 0.50901
 C1042 C 0.27205 0.72794 0.49121
 C1043 C 0.26103 0.73889 0.48196
 C1044 C 0.26090 0.73898 0.46392
 C1045 C 0.24981 0.75003 0.45514
 C1046 C 0.23873 0.76113 0.46386
 H1047 H 0.21882 0.78099 0.51536
 H1048 H 0.21888 0.78098 0.48458
 H1049 H 0.28077 0.71929 0.51552
 H1050 H 0.28078 0.71924 0.48474
 H1051 H 0.24967 0.75010 0.55884
 H1052 H 0.24980 0.74999 0.44126
 C1053 C 0.23912 0.73920 -0.03641
 C1054 C 0.25015 0.75030 -0.04518
 C1055 C 0.26123 0.76139 -0.03646
 C1056 C 0.26138 0.76149 -0.01841
 C1057 C 0.25021 0.75026 -0.00933
 C1058 C 0.23900 0.73907 -0.01836
 C1059 C 0.22802 0.72807 -0.00912
 C1060 C 0.22805 0.72804 0.00867
 C1061 C 0.23908 0.73899 0.01787
 C1062 C 0.25025 0.75022 0.00880
 C1063 C 0.27238 0.77247 -0.00920
 C1064 C 0.27242 0.77243 0.00860
 C1065 C 0.26147 0.76141 0.01784
 C1066 C 0.26139 0.76123 0.03589
 C1067 C 0.25036 0.75011 0.04465
 C1068 C 0.23926 0.73906 0.03592
 H1069 H 0.21928 0.71939 -0.01560
 H1070 H 0.21935 0.71933 0.01518
 H1071 H 0.28107 0.78119 -0.01571
 H1072 H 0.28114 0.78112 0.01508
 H1073 H 0.25013 0.75031 -0.05905
 H1074 H 0.25039 0.75007 0.05853
 C1075 C 0.26102 0.26098 0.53622
 C1076 C 0.24989 0.24991 0.54491
 C1077 C 0.23888 0.23884 0.53610
 C1078 C 0.23886 0.23874 0.51805
 C1079 C 0.25014 0.24993 0.50906
 C1080 C 0.26127 0.26112 0.51818
 C1081 C 0.27234 0.27211 0.50902
 C1082 C 0.27249 0.27211 0.49123
 C1083 C 0.26158 0.26111 0.48194
 C1084 C 0.25029 0.24993 0.49093
 C1085 C 0.22792 0.22777 0.50877
 C1086 C 0.22806 0.22777 0.49097
 C1087 C 0.23915 0.23873 0.48181
 C1088 C 0.23945 0.23883 0.46377
 C1089 C 0.25062 0.24988 0.45508
 C1090 C 0.26162 0.26096 0.46389
 H1091 H 0.28099 0.28082 0.51557
 H1092 H 0.28125 0.28080 0.48479
 H1093 H 0.21914 0.21909 0.51521
 H1094 H 0.21938 0.21908 0.48443
 H1095 H 0.24982 0.24989 0.55878
 H1096 H 0.25074 0.24986 0.44121
 C1097 C 0.76026 0.73850 0.96384
 C1098 C 0.74910 0.74957 0.95517
 C1099 C 0.73811 0.76069 0.96399
 C1100 C 0.73815 0.76087 0.98204
 C1101 C 0.74948 0.74972 0.99102
 C1102 C 0.76058 0.73845 0.98188
 C1103 C 0.77167 0.72750 0.99103
 C1104 C 0.77193 0.72763 1.00882
 C1105 C 0.76110 0.73872 1.01811
 C1106 C 0.74975 0.74985 1.00915
 C1107 C 0.72723 0.77186 0.99135
 C1108 C 0.72749 0.77199 1.00915
 C1109 C 0.73869 0.76112 1.01829
 C1110 C 0.73915 0.76120 1.03634
 C1111 C 0.75040 0.75021 1.04500
 C1112 C 0.76129 0.73902 1.03615
 H1113 H 0.78028 0.71874 0.98448
 H1114 H 0.78073 0.71896 1.01524
 H1115 H 0.71838 0.78048 0.98492
 H1116 H 0.71884 0.78070 1.01571
 H1117 H 0.74899 0.74956 0.94130
 H1118 H 0.75066 0.75035 1.05887
 C1119 C 0.73885 0.26079 0.53603
 C1120 C 0.74989 0.24964 0.54475
 C1121 C 0.76101 0.23861 0.53597
 C1122 C 0.76117 0.23858 0.51792
 C1123 C 0.74998 0.24983 0.50889
 C1124 C 0.73876 0.26099 0.51798
 C1125 C 0.72779 0.27204 0.50878
 C1126 C 0.72786 0.27214 0.49098
 C1127 C 0.73888 0.26120 0.48173
 C1128 C 0.75004 0.24993 0.49076
 C1129 C 0.77219 0.22763 0.50867
 C1130 C 0.77223 0.22772 0.49087
 C1131 C 0.76126 0.23876 0.48168
 C1132 C 0.76119 0.23897 0.46362
 C1133 C 0.75016 0.25013 0.45490
 C1134 C 0.73908 0.26118 0.46368
 H1135 H 0.71906 0.28071 0.51529
 H1136 H 0.71918 0.28090 0.48450
 H1137 H 0.78089 0.21890 0.51514
 H1138 H 0.78096 0.21905 0.48437
 H1139 H 0.74986 0.24956 0.55862
 H1140 H 0.75020 0.25021 0.44103
 C1141 C 0.76081 0.26107 -0.03618
 C1142 C 0.74977 0.24992 -0.04486
 C1143 C 0.73880 0.23878 -0.03603
 C1144 C 0.73875 0.23869 -0.01798
 C1145 C 0.74991 0.24999 -0.00900
 C1146 C 0.76101 0.26124 -0.01814
 C1147 C 0.77197 0.27231 -0.00900
 C1148 C 0.77203 0.27237 0.00879
 C1149 C 0.76113 0.26136 0.01810
 C1150 C 0.74997 0.25006 0.00913
 C1151 C 0.72789 0.22764 -0.00867
 C1152 C 0.72794 0.22770 0.00914
 C1153 C 0.73886 0.23882 0.01827
 C1154 C 0.73902 0.23904 0.03632
 C1155 C 0.75004 0.25022 0.04498
 C1156 C 0.76105 0.26131 0.03615
 H1157 H 0.78061 0.28105 -0.01556
 H1158 H 0.78071 0.28115 0.01522
 H1159 H 0.71924 0.21884 -0.01509
 H1160 H 0.71933 0.21895 0.01570
 H1161 H 0.74972 0.24990 -0.05873
 H1162 H 0.75007 0.25029 0.05885
 C1163 C 0.76100 0.76144 0.46405
 C1164 C 0.75006 0.75032 0.45522
 C1165 C 0.73897 0.73919 0.46389
 C1166 C 0.73867 0.73906 0.48193
 C1167 C 0.74975 0.75031 0.49106
 C1168 C 0.76099 0.76155 0.48209
 C1169 C 0.77188 0.77255 0.49138
 C1170 C 0.77173 0.77255 0.50918
 C1171 C 0.76067 0.76155 0.51832
 C1172 C 0.74957 0.75032 0.50919
 C1173 C 0.72764 0.72803 0.49106
 C1174 C 0.72747 0.72805 0.50886
 C1175 C 0.73832 0.73909 0.51816
 C1176 C 0.73828 0.73924 0.53620
 C1177 C 0.74923 0.75036 0.54504
 C1178 C 0.76038 0.76144 0.53636
 H1179 H 0.78064 0.78127 0.48495
 H1180 H 0.78037 0.78127 0.51573
 H1181 H 0.71904 0.71929 0.48451
 H1182 H 0.71873 0.71932 0.51528
 H1183 H 0.75017 0.75033 0.44134
 H1184 H 0.74910 0.75036 0.55891
 C1185 C 1.03689 0.23917 0.26107
 C1186 C 1.04567 0.25010 0.24991
 C1187 C 1.03678 0.26104 0.23884
 C1188 C 1.01858 0.26113 0.23874
 C1189 C 1.00949 0.25010 0.25005
 C1190 C 1.01868 0.23909 0.26131
 C1191 C 1.00942 0.22832 0.27247
 C1192 C 0.99146 0.22830 0.27252
 C1193 C 0.98211 0.23903 0.26139
 C1194 C 0.99120 0.25007 0.25009
 C1195 C 1.00923 0.27191 0.22766
 C1196 C 0.99127 0.27186 0.22768
 C1197 C 0.98201 0.26105 0.23879
 C1198 C 0.96380 0.26087 0.23895
 C1199 C 0.95502 0.24992 0.25009
 C1200 C 0.96391 0.23904 0.26122
 H1201 H 1.01601 0.21982 0.28128
 H1202 H 0.98494 0.21978 0.28136
 H1203 H 1.01575 0.28046 0.21885
 H1204 H 0.98468 0.28038 0.21889
 H1205 H 1.05968 0.25010 0.24984
 H1206 H 0.94102 0.24985 0.25009
 C1207 C 0.53632 0.23908 0.76137
 C1208 C 0.54514 0.25003 0.75025
 C1209 C 0.53630 0.26086 0.73903
 C1210 C 0.51809 0.26088 0.73882
 C1211 C 0.50896 0.24985 0.75011
 C1212 C 0.51810 0.23888 0.76144
 C1213 C 0.50881 0.22803 0.77249
 C1214 C 0.49085 0.22796 0.77244
 C1215 C 0.48153 0.23873 0.76133
 C1216 C 0.49066 0.24978 0.75006
 C1217 C 0.50878 0.27160 0.72766
 C1218 C 0.49081 0.27154 0.72763
 C1219 C 0.48152 0.26076 0.73875
 C1220 C 0.46331 0.26063 0.73890
 C1221 C 0.45448 0.24969 0.75002
 C1222 C 0.46332 0.23878 0.76115
 H1223 H 0.51537 0.21951 0.78130
 H1224 H 0.48430 0.21939 0.78122
 H1225 H 0.51533 0.28014 0.71885
 H1226 H 0.48425 0.28003 0.71878
 H1227 H 0.55914 0.25010 0.75031
 H1228 H 0.44048 0.24968 0.75002
 C1229 C 0.03654 0.26079 0.76095
 C1230 C 0.04532 0.24989 0.74976
 C1231 C 0.03643 0.23901 0.73867
 C1232 C 0.01822 0.23888 0.73863
 C1233 C 0.00914 0.24988 0.74997
 C1234 C 0.01833 0.26088 0.76120
 C1235 C 0.00908 0.27166 0.77234
 C1236 C -0.00888 0.27167 0.77244
 C1237 C -0.01823 0.26090 0.76139
 C1238 C -0.00915 0.24988 0.75007
 C1239 C 0.00887 0.22811 0.72758
 C1240 C -0.00909 0.22811 0.72768
 C1241 C -0.01834 0.23888 0.73884
 C1242 C -0.03655 0.23898 0.73908
 C1243 C -0.04533 0.24989 0.75025
 C1244 C -0.03645 0.26081 0.76132
 H1245 H 0.01568 0.28019 0.78110
 H1246 H -0.01539 0.28020 0.78127
 H1247 H 0.01539 0.21959 0.71875
 H1248 H -0.01568 0.21959 0.71892
 H1249 H 0.05933 0.24989 0.74968
 H1250 H -0.05933 0.24990 0.75033
 C1251 C 0.46358 0.23915 0.23915
 C1252 C 0.45483 0.25007 0.25034
 C1253 C 0.46376 0.26092 0.26145
 C1254 C 0.48197 0.26094 0.26152
 C1255 C 0.49102 0.24992 0.25018
 C1256 C 0.48180 0.23897 0.23892
 C1257 C 0.49102 0.22817 0.22777
 C1258 C 0.50899 0.22808 0.22771
 C1259 C 0.51838 0.23880 0.23879
 C1260 C 0.50932 0.24984 0.25010
 C1261 C 0.49135 0.27166 0.27259
 C1262 C 0.50931 0.27161 0.27250
 C1263 C 0.51853 0.26082 0.26135
 C1264 C 0.53674 0.26065 0.26111
 C1265 C 0.54550 0.24969 0.24997
 C1266 C 0.53659 0.23880 0.23890
 H1267 H 0.48440 0.21970 0.21899
 H1268 H 0.51548 0.21954 0.21888
 H1269 H 0.48487 0.28018 0.28144
 H1270 H 0.51593 0.28010 0.28127
 H1271 H 0.44083 0.25014 0.25040
 H1272 H 0.55950 0.24963 0.24993
 C1273 C 0.96326 0.76087 0.73911
 C1274 C 0.95457 0.74978 0.75018
 C1275 C 0.96355 0.73876 0.76110
 C1276 C 0.98175 0.73874 0.76112
 C1277 C 0.99075 0.74988 0.74985
 C1278 C 0.98147 0.76098 0.73874
 C1279 C 0.99064 0.77185 0.72761
 C1280 C 1.00861 0.77189 0.72744
 C1281 C 1.01805 0.76108 0.73842
 C1282 C 1.00905 0.74996 0.74971
 C1283 C 0.99118 0.72792 0.77209
 C1284 C 1.00914 0.72805 0.77200
 C1285 C 1.01832 0.73897 0.76092
 C1286 C 1.03653 0.73923 0.76072
 C1287 C 1.04523 0.75019 0.74952
 C1288 C 1.03626 0.76108 0.73844
 H1289 H 0.98398 0.78042 0.71892
 H1290 H 1.01505 0.78049 0.71863
 H1291 H 0.98473 0.71929 0.78087
 H1292 H 1.01579 0.71950 0.78072
 H1293 H 0.94057 0.74973 0.75032
 H1294 H 1.05923 0.75028 0.74944
 C1295 C 0.53678 0.73907 0.26135
 C1296 C 0.54568 0.75000 0.25026
 C1297 C 0.53692 0.76100 0.23914
 C1298 C 0.51870 0.76110 0.23891
 C1299 C 0.50949 0.75007 0.25015
 C1300 C 0.51856 0.73902 0.26145
 C1301 C 0.50919 0.72827 0.27253
 C1302 C 0.49122 0.72834 0.27251
 C1303 C 0.48198 0.73914 0.26138
 C1304 C 0.49119 0.75012 0.25009
 C1305 C 0.50945 0.77191 0.22778
 C1306 C 0.49148 0.77192 0.22769
 C1307 C 0.48211 0.76115 0.23876
 C1308 C 0.46389 0.76109 0.23885
 C1309 C 0.45500 0.75023 0.25000
 C1310 C 0.46376 0.73931 0.26120
 H1311 H 0.51569 0.71970 0.28135
 H1312 H 0.48462 0.71984 0.28131
 H1313 H 0.51605 0.78045 0.21902
 H1314 H 0.48498 0.78046 0.21886
 H1315 H 0.55968 0.74997 0.25031
 H1316 H 0.44100 0.75027 0.24996
 C1317 C -0.03671 0.76053 0.26084
 C1318 C -0.04550 0.74961 0.24970
 C1319 C -0.03662 0.73884 0.23847
 C1320 C -0.01841 0.73884 0.23827
 C1321 C -0.00932 0.74981 0.24960
 C1322 C -0.01849 0.76072 0.26095
 C1323 C -0.00922 0.77150 0.27206
 C1324 C 0.00875 0.77157 0.27203
 C1325 C 0.01809 0.76085 0.26090
 C1326 C 0.00898 0.74987 0.24958
 C1327 C -0.00908 0.72820 0.22706
 C1328 C 0.00888 0.72826 0.22704
 C1329 C 0.01815 0.73896 0.23822
 C1330 C 0.03635 0.73908 0.23839
 C1331 C 0.04516 0.74992 0.24959
 C1332 C 0.03631 0.76078 0.26076
 H1333 H -0.01580 0.77998 0.28089
 H1334 H 0.01528 0.78010 0.28083
 H1335 H -0.01561 0.71973 0.21820
 H1336 H 0.01545 0.71983 0.21816
 H1337 H -0.05950 0.74950 0.24976
 H1338 H 0.05916 0.74991 0.24960
 C1339 C 0.46370 0.73928 0.73969
 C1340 C 0.45498 0.75025 0.75085
 C1341 C 0.46391 0.76098 0.76207
 C1342 C 0.48213 0.76075 0.76237
 C1343 C 0.49116 0.74972 0.75101
 C1344 C 0.48192 0.73898 0.73956
 C1345 C 0.49113 0.72828 0.72831
 C1346 C 0.50909 0.72807 0.72834
 C1347 C 0.51850 0.73851 0.73964
 C1348 C 0.50947 0.74945 0.75108
 C1349 C 0.49154 0.77120 0.77366
 C1350 C 0.50950 0.77090 0.77377
 C1351 C 0.51871 0.76015 0.76256
 C1352 C 0.53693 0.75980 0.76246
 C1353 C 0.54566 0.74893 0.75120
 C1354 C 0.53672 0.73835 0.73984
 H1355 H 0.48449 0.72000 0.71935
 H1356 H 0.51556 0.71963 0.71939
 H1357 H 0.48506 0.77970 0.78255
 H1358 H 0.51614 0.77917 0.78274
 H1359 H 0.44098 0.75046 0.75079
 H1360 H 0.55966 0.74875 0.75122
 C1361 C 0.43288 0.29093 0.29139
 C1362 C 0.42660 0.28457 0.30691
 C1363 C 0.41386 0.29360 0.31582
 C1364 C 0.40716 0.30911 0.30927
 C1365 C 0.41400 0.31566 0.29392
 C1366 C 0.42674 0.30660 0.28504
 C1367 C 0.44453 0.28072 0.28131
 C1368 C 0.45364 0.27186 0.27248
 H1369 H 0.43121 0.27240 0.31190
 H1370 H 0.40898 0.28810 0.32755
 H1371 H 0.40937 0.32763 0.28856
 H1372 H 0.43149 0.31162 0.27301
 C1373 C 0.43241 0.79109 0.79129
 C1374 C 0.42667 0.78521 0.80718
 C1375 C 0.41375 0.79411 0.81595
 C1376 C 0.40622 0.80909 0.80893
 C1377 C 0.41251 0.81510 0.79308
 C1378 C 0.42543 0.80613 0.78435
 C1379 C 0.44440 0.78095 0.78151
 C1380 C 0.45373 0.77206 0.77292
 H1381 H 0.43193 0.77351 0.81264
 H1382 H 0.40960 0.78894 0.82809
 H1383 H 0.40734 0.82653 0.78710
 H1384 H 0.42972 0.81075 0.77199
 C1385 C -0.06772 0.29057 0.79113
 C1386 C -0.07382 0.30633 0.78496
 C1387 C -0.08657 0.31530 0.79392
 C1388 C -0.09348 0.30858 0.80917
 C1389 C -0.08690 0.29290 0.81546
 C1390 C -0.07415 0.28397 0.80648
 C1391 C -0.05589 0.28054 0.78107
 C1392 C -0.04664 0.27175 0.77229
 H1393 H -0.06899 0.31152 0.77303
 H1394 H -0.09113 0.32734 0.78867
 H1395 H -0.09178 0.28726 0.82712
 H1396 H -0.06958 0.27172 0.81132
 C1397 C -0.06817 0.79013 0.29061
 C1398 C -0.07396 0.80609 0.28463
 C1399 C -0.08660 0.81516 0.29365
 C1400 C -0.09371 0.80835 0.30878
 C1401 C -0.08748 0.79245 0.31485
 C1402 C -0.07484 0.78341 0.30581
 C1403 C -0.05632 0.78011 0.28057
 C1404 C -0.04700 0.77138 0.27181
 H1405 H -0.06894 0.81137 0.27282
 H1406 H -0.09090 0.82737 0.28857
 H1407 H -0.09255 0.78671 0.32638
 H1408 H -0.07054 0.77101 0.31049
 C1409 C 0.56791 0.70930 0.29137
 C1410 C 0.57411 0.71573 0.30687
 C1411 C 0.58679 0.70674 0.31591
 C1412 C 0.59353 0.69119 0.30952
 C1413 C 0.58681 0.68461 0.29415
 C1414 C 0.57414 0.69363 0.28514
 C1415 C 0.55616 0.71938 0.28125
 C1416 C 0.54696 0.72816 0.27239
 H1417 H 0.56944 0.72791 0.31178
 H1418 H 0.59156 0.71228 0.32766
 H1419 H 0.59148 0.67264 0.28885
 H1420 H 0.56947 0.68855 0.27311
 C1421 C 0.56781 0.20942 0.79108
 C1422 C 0.57427 0.19395 0.78457
 C1423 C 0.58705 0.18493 0.79344
 C1424 C 0.59362 0.19129 0.80897
 C1425 C 0.58668 0.20666 0.81560
 C1426 C 0.57391 0.21566 0.80669
 C1427 C 0.55591 0.21949 0.78113
 C1428 C 0.54659 0.22823 0.77238
 H1429 H 0.56969 0.18905 0.77244
 H1430 H 0.59191 0.17314 0.78791
 H1431 H 0.59126 0.21201 0.82750
 H1432 H 0.56906 0.22768 0.81181
 C1433 C 1.06793 0.70986 0.79086
 C1434 C 1.07414 0.69416 0.78469
 C1435 C 1.08686 0.68520 0.79368
 C1436 C 1.09365 0.69187 0.80899
 C1437 C 1.08691 0.70744 0.81534
 C1438 C 1.07418 0.71638 0.80631
 C1439 C 1.05614 0.71986 0.78070
 C1440 C 1.04687 0.72851 0.77180
 H1441 H 1.06942 0.68901 0.77271
 H1442 H 1.09151 0.67321 0.78842
 H1443 H 1.09169 0.71302 0.82706
 H1444 H 1.06950 0.72856 0.81119
 C1445 C 1.06801 0.20914 0.29084
 C1446 C 1.07535 0.19423 0.28397
 C1447 C 1.08775 0.18505 0.29321
 C1448 C 1.09305 0.19071 0.30946
 C1449 C 1.08526 0.20552 0.31641
 C1450 C 1.07287 0.21466 0.30714
 C1451 C 1.05637 0.21935 0.28074
 C1452 C 1.04716 0.22821 0.27197
 H1453 H 1.07176 0.18989 0.27131
 H1454 H 1.09342 0.17379 0.28737
 H1455 H 1.08882 0.21021 0.32891
 H1456 H 1.06730 0.22623 0.31256
 C1457 C 0.56781 0.29040 0.70921
 C1458 C 0.57422 0.30594 0.71558
 C1459 C 0.58695 0.31493 0.70660
 C1460 C 0.59352 0.30846 0.69111
 C1461 C 0.58668 0.29298 0.68465
 C1462 C 0.57395 0.28403 0.69366
 C1463 C 0.55590 0.28041 0.71923
 C1464 C 0.54657 0.27171 0.72801
 H1465 H 0.56963 0.31094 0.72767
 H1466 H 0.59176 0.32678 0.71202
 H1467 H 0.59130 0.28754 0.67280
 H1468 H 0.56916 0.27194 0.68866
 C1469 C 0.56799 0.79124 0.20944
 C1470 C 0.57283 0.78578 0.19311
 C1471 C 0.58519 0.79498 0.18383
 C1472 C 0.59297 0.80978 0.19079
 C1473 C 0.58764 0.81540 0.20706
 C1474 C 0.57529 0.80617 0.21631
 C1475 C 0.55639 0.78095 0.21955
 C1476 C 0.54720 0.77203 0.22829
 H1477 H 0.56730 0.77422 0.18767
 H1478 H 0.58873 0.79032 0.17130
 H1479 H 0.59327 0.82668 0.21290
 H1480 H 0.57169 0.81048 0.22898
 C1481 C 1.06783 0.29090 0.20897
 C1482 C 1.07414 0.30648 0.21534
 C1483 C 1.08683 0.31551 0.20638
 C1484 C 1.09348 0.30902 0.19093
 C1485 C 1.08665 0.29357 0.18440
 C1486 C 1.07395 0.28458 0.19339
 C1487 C 1.05612 0.28078 0.21904
 C1488 C 1.04695 0.27196 0.22785
 H1489 H 1.06953 0.31145 0.22744
 H1490 H 1.09157 0.32740 0.21178
 H1491 H 1.09137 0.28811 0.17260
 H1492 H 1.06922 0.27247 0.18840
 C1493 C 1.06697 0.79129 0.70843
 C1494 C 1.07279 0.80718 0.71452
 C1495 C 1.08538 0.81634 0.70552
 C1496 C 1.09240 0.80968 0.69030
 C1497 C 1.08601 0.79395 0.68401
 C1498 C 1.07343 0.78482 0.69304
 C1499 C 1.05541 0.78104 0.71859
 C1500 C 1.04634 0.77211 0.72743
 H1501 H 1.06789 0.81230 0.72644
 H1502 H 1.08977 0.82847 0.71068
 H1503 H 1.09104 0.78835 0.67239
 H1504 H 1.06907 0.77250 0.68824
 C1505 C 0.43212 0.70998 0.70970
 C1506 C 0.42610 0.69411 0.71569
 C1507 C 0.41346 0.68514 0.70660
 C1508 C 0.40655 0.69196 0.69139
 C1509 C 0.41303 0.70775 0.68528
 C1510 C 0.42568 0.71668 0.69440
 C1511 C 0.44399 0.71991 0.71983
 C1512 C 0.45334 0.72855 0.72865
 H1513 H 0.43094 0.68882 0.72757
 H1514 H 0.40898 0.67301 0.71170
 H1515 H 0.40813 0.71347 0.67367
 H1516 H 0.43018 0.72900 0.68968
 C1517 C 0.43237 0.20943 0.20926
 C1518 C 0.42549 0.19421 0.21593
 C1519 C 0.41309 0.18503 0.20674
 C1520 C 0.40731 0.19100 0.19074
 C1521 C 0.41466 0.20613 0.18399
 C1522 C 0.42705 0.21529 0.19322
 C1523 C 0.44404 0.21958 0.21937
 C1524 C 0.45327 0.22833 0.22818
 H1525 H 0.42946 0.18961 0.22839
 H1526 H 0.40785 0.17348 0.21242
 H1527 H 0.41070 0.21113 0.17171
 H1528 H 0.43224 0.22711 0.18797
 C1529 C -0.06743 0.70905 0.20831
 C1530 C -0.07368 0.71548 0.19281
 C1531 C -0.08624 0.70637 0.18375
 C1532 C -0.09278 0.69073 0.19013
 C1533 C -0.08596 0.68413 0.20546
 C1534 C -0.07341 0.69326 0.21449
 C1535 C -0.05587 0.71923 0.21848
 C1536 C -0.04677 0.72801 0.22739
 H1537 H -0.06919 0.72774 0.18794
 H1538 H -0.09111 0.71191 0.17203
 H1539 H -0.09047 0.67206 0.21070
 H1540 H -0.06868 0.68819 0.22650
 C1541 C -0.06781 0.20938 0.70914
 C1542 C -0.07415 0.19377 0.71543
 C1543 C -0.08679 0.18477 0.70639
 C1544 C -0.09337 0.19132 0.69092
 C1545 C -0.08651 0.20680 0.68447
 C1546 C -0.07386 0.21577 0.69355
 C1547 C -0.05607 0.21943 0.71926
 C1548 C -0.04683 0.22815 0.72809
 H1549 H -0.06960 0.18873 0.72753
 H1550 H -0.09155 0.17286 0.71174
 H1551 H -0.09112 0.21228 0.67263
 H1552 H -0.06908 0.22789 0.68859
 C1553 C 0.29110 0.43262 0.29083
 C1554 C 0.28517 0.42711 0.30679
 C1555 C 0.29394 0.41414 0.31563
 C1556 C 0.30876 0.40642 0.30857
 C1557 C 0.31492 0.41251 0.29274
 C1558 C 0.30612 0.42547 0.28394
 C1559 C 0.28102 0.44450 0.28087
 C1560 C 0.27222 0.45374 0.27210
 H1561 H 0.27351 0.43251 0.31221
 H1562 H 0.28884 0.40999 0.32780
 H1563 H 0.32626 0.40702 0.28685
 H1564 H 0.31077 0.42960 0.27155
 C1565 C 0.29065 -0.06823 0.79067
 C1566 C 0.28463 -0.07399 0.80649
 C1567 C 0.29355 -0.08682 0.81537
 C1568 C 0.30868 -0.09423 0.80852
 C1569 C 0.31483 -0.08789 0.79273
 C1570 C 0.30586 -0.07506 0.78391
 C1571 C 0.28055 -0.05632 0.78077
 C1572 C 0.27176 -0.04700 0.77206
 H1573 H 0.27282 -0.06882 0.81182
 H1574 H 0.28827 -0.09101 0.82745
 H1575 H 0.32639 -0.09295 0.78688
 H1576 H 0.31060 -0.07073 0.77161
 C1577 C 0.79061 0.43152 0.79077
 C1578 C 0.78462 0.42598 0.80668
 C1579 C 0.79354 0.41326 0.81570
 C1580 C 0.80864 0.40574 0.80891
 C1581 C 0.81477 0.41186 0.79303
 C1582 C 0.80579 0.42457 0.78405
 C1583 C 0.78056 0.44341 0.78079
 C1584 C 0.77181 0.45276 0.77209
 H1585 H 0.77284 0.43126 0.81197
 H1586 H 0.78830 0.40925 0.82786
 H1587 H 0.82630 0.40670 0.78722
 H1588 H 0.81051 0.42873 0.77169
 C1589 C 0.79062 -0.06825 0.29108
 C1590 C 0.78456 -0.07399 0.30690
 C1591 C 0.79359 -0.08665 0.31593
 C1592 C 0.80885 -0.09393 0.30923
 C1593 C 0.81504 -0.08762 0.29345
 C1594 C 0.80596 -0.07495 0.28447
 C1595 C 0.78050 -0.05639 0.28111
 C1596 C 0.77169 -0.04707 0.27240
 H1597 H 0.77266 -0.06893 0.31212
 H1598 H 0.78828 -0.09082 0.32801
 H1599 H 0.82670 -0.09256 0.28772
 H1600 H 0.81074 -0.07065 0.27218
 C1601 C 0.29060 0.56794 0.70909
 C1602 C 0.28406 0.57429 0.69368
 C1603 C 0.29305 0.58695 0.68464
 C1604 C 0.30873 0.59354 0.69093
 C1605 C 0.31542 0.58669 0.70623
 C1606 C 0.30638 0.57402 0.71524
 C1607 C 0.28055 0.55613 0.71918
 C1608 C 0.27181 0.54684 0.72798
 H1609 H 0.27180 0.56973 0.68884
 H1610 H 0.28745 0.59179 0.67295
 H1611 H 0.32748 0.59123 0.71145
 H1612 H 0.31155 0.56924 0.72720
 C1613 C 0.29092 1.06786 0.20886
 C1614 C 0.30616 1.07470 0.21556
 C1615 C 0.31544 1.08705 0.20637
 C1616 C 0.30955 1.09283 0.19034
 C1617 C 0.29441 1.08552 0.18355
 C1618 C 0.28516 1.07318 0.19278
 C1619 C 0.28067 1.05625 0.21897
 C1620 C 0.27182 1.04708 0.22778
 H1621 H 0.31069 1.07076 0.22805
 H1622 H 0.32698 1.09227 0.21209
 H1623 H 0.28947 1.08947 0.17125
 H1624 H 0.27332 1.06803 0.18751
 C1625 C 0.79105 0.56768 0.20900
 C1626 C 0.80622 0.57466 0.21571
 C1627 C 0.81502 0.58754 0.20682
 C1628 C 0.80873 0.59372 0.19109
 C1629 C 0.79376 0.58616 0.18420
 C1630 C 0.78497 0.57327 0.19313
 C1631 C 0.78101 0.55587 0.21905
 C1632 C 0.77226 0.54665 0.22788
 H1633 H 0.81099 0.57046 0.22804
 H1634 H 0.82648 0.59291 0.21257
 H1635 H 0.78855 0.59037 0.17209
 H1636 H 0.77320 0.56799 0.18786
 C1637 C 0.79056 1.06766 0.70940
 C1638 C 0.80637 1.07378 0.71546
 C1639 C 0.81534 1.08644 0.70637
 C1640 C 0.80858 1.09325 0.69109
 C1641 C 0.79287 1.08665 0.68490
 C1642 C 0.78393 1.07399 0.69402
 C1643 C 0.78058 1.05584 0.71955
 C1644 C 0.77187 1.04655 0.72840
 H1645 H 0.81160 1.06903 0.72740
 H1646 H 0.82743 1.09101 0.71153
 H1647 H 0.78719 1.09148 0.67324
 H1648 H 0.77165 1.06941 0.68925
 C1649 C 0.71003 0.56787 0.29111
 C1650 C 0.71667 0.57429 0.30643
 C1651 C 0.70777 0.58706 0.31539
 C1652 C 0.69209 0.59365 0.30910
 C1653 C 0.68531 0.58674 0.29389
 C1654 C 0.69425 0.57398 0.28496
 C1655 C 0.72002 0.55603 0.28106
 C1656 C 0.72873 0.54676 0.27225
 H1657 H 0.72895 0.56973 0.31125
 H1658 H 0.71347 0.59200 0.32699
 H1659 H 0.67324 0.59132 0.28868
 H1660 H 0.68903 0.56914 0.27306
 C1661 C 0.70955 1.06782 0.79136
 C1662 C 0.69424 1.07457 0.78473
 C1663 C 0.68532 1.08743 0.79356
 C1664 C 0.69161 1.09390 0.80922
 C1665 C 0.70687 1.08661 0.81593
 C1666 C 0.71574 1.07375 0.80705
 C1667 C 0.71954 1.05581 0.78146
 C1668 C 0.72825 1.04644 0.77273
 H1669 H 0.68938 1.07013 0.77254
 H1670 H 0.67366 1.09239 0.78782
 H1671 H 0.71227 1.09092 0.82790
 H1672 H 0.72765 1.06868 0.81227
 C1673 C 0.20966 0.56771 0.79131
 C1674 C 0.21614 0.57394 0.80678
 C1675 C 0.20727 0.58678 0.81568
 C1676 C 0.19178 0.59364 0.80918
 C1677 C 0.18517 0.58692 0.79382
 C1678 C 0.19407 0.57409 0.78495
 C1679 C 0.21965 0.55584 0.78128
 C1680 C 0.22835 0.54658 0.77244
 H1681 H 0.22827 0.56916 0.81176
 H1682 H 0.21282 0.59153 0.82742
 H1683 H 0.17327 0.59170 0.78842
 H1684 H 0.18899 0.56941 0.77293
 C1685 C 0.20907 1.06786 0.29101
 C1686 C 0.21470 1.07285 0.30723
 C1687 C 0.20555 1.08525 0.31647
 C1688 C 0.19063 1.09292 0.30958
 C1689 C 0.18487 1.08748 0.29340
 C1690 C 0.19405 1.07508 0.28420
 C1691 C 0.21929 1.05623 0.28090
 C1692 C 0.22813 1.04705 0.27209
 H1693 H 0.22636 1.06740 0.31262
 H1694 H 0.21034 1.08891 0.32891
 H1695 H 0.17351 1.09304 0.28760
 H1696 H 0.18962 1.07138 0.27160
 C1697 C 0.70925 0.43241 0.70909
 C1698 C 0.69341 0.42635 0.71516
 C1699 C 0.68446 0.41365 0.70615
 C1700 C 0.69127 0.40676 0.69093
 C1701 C 0.70704 0.41328 0.68475
 C1702 C 0.71595 0.42598 0.69379
 C1703 C 0.71925 0.44419 0.71919
 C1704 C 0.72803 0.45339 0.72801
 H1705 H 0.68815 0.43118 0.72705
 H1706 H 0.67236 0.40912 0.71131
 H1707 H 0.71276 0.40839 0.67314
 H1708 H 0.72826 0.43050 0.68903
 C1709 C 0.70902 -0.06750 0.20916
 C1710 C 0.69399 -0.07470 0.21596
 C1711 C 0.68490 -0.08717 0.20679
 C1712 C 0.69078 -0.09268 0.19067
 C1713 C 0.70568 -0.08498 0.18376
 C1714 C 0.71474 -0.07252 0.19297
 C1715 C 0.71920 -0.05592 0.21930
 C1716 C 0.72803 -0.04681 0.22814
 H1717 H 0.68950 -0.07097 0.22853
 H1718 H 0.67354 -0.09273 0.21259
 H1719 H 0.71054 -0.08870 0.17135
 H1720 H 0.72640 -0.06706 0.18760
 C1721 C 0.20983 0.43234 0.20908
 C1722 C 0.21634 0.42606 0.19364
 C1723 C 0.20739 0.41335 0.18467
 C1724 C 0.19179 0.40666 0.19108
 C1725 C 0.18513 0.41344 0.20641
 C1726 C 0.19413 0.42615 0.21535
 C1727 C 0.21986 0.44415 0.21910
 C1728 C 0.22859 0.45342 0.22787
 H1729 H 0.22855 0.43069 0.18872
 H1730 H 0.21297 0.40852 0.17297
 H1731 H 0.17313 0.40881 0.21171
 H1732 H 0.18900 0.43088 0.22734
 C1733 C 0.20919 -0.06776 0.70895
 C1734 C 0.19393 -0.07463 0.71560
 C1735 C 0.18495 -0.08731 0.70661
 C1736 C 0.19115 -0.09341 0.69082
 C1737 C 0.20624 -0.08600 0.68400
 C1738 C 0.21520 -0.07332 0.69304
 C1739 C 0.21929 -0.05600 0.71902
 C1740 C 0.22806 -0.04679 0.72785
 H1741 H 0.18920 -0.07049 0.72796
 H1742 H 0.17341 -0.09257 0.71232
 H1743 H 0.21140 -0.09018 0.67186
 H1744 H 0.22705 -0.06815 0.68778
 C1745 C 0.29164 0.29100 0.43300
 C1746 C 0.28553 0.30699 0.42743
 C1747 C 0.29444 0.31612 0.41481
 C1748 C 0.30957 0.30934 0.40748
 C1749 C 0.31588 0.29348 0.41358
 C1750 C 0.30694 0.28438 0.42620
 C1751 C 0.28153 0.28083 0.44467
 C1752 C 0.27268 0.27197 0.45380
 H1753 H 0.27366 0.31223 0.43257
 H1754 H 0.28927 0.32835 0.41065
 H1755 H 0.32742 0.28777 0.40829
 H1756 H 0.31174 0.27195 0.43034
 C1757 C 0.29119 0.79137 -0.06745
 C1758 C 0.28478 0.80698 -0.07367
 C1759 C 0.29393 0.81616 -0.08608
 C1760 C 0.30964 0.80979 -0.09256
 C1761 C 0.31616 0.79425 -0.08587
 C1762 C 0.30697 0.78511 -0.07346
 C1763 C 0.28103 0.78121 -0.05581
 C1764 C 0.27221 0.77239 -0.04663
 H1765 H 0.27251 0.81190 -0.06917
 H1766 H 0.28845 0.82804 -0.09077
 H1767 H 0.32820 0.78891 -0.09038
 H1768 H 0.31202 0.77298 -0.06880
 C1769 C 0.79066 0.29131 -0.06700
 C1770 C 0.78404 0.30674 -0.07346
 C1771 C 0.79320 0.31595 -0.08585
 C1772 C 0.80910 0.30979 -0.09204
 C1773 C 0.81585 0.29449 -0.08505
 C1774 C 0.80667 0.28532 -0.07267
 C1775 C 0.78051 0.28105 -0.05547
 C1776 C 0.77171 0.27213 -0.04637
 H1777 H 0.77162 0.31147 -0.06919
 H1778 H 0.78754 0.32766 -0.09076
 H1779 H 0.82807 0.28934 -0.08931
 H1780 H 0.81189 0.27335 -0.06779
 C1781 C 0.79094 0.79151 0.43321
 C1782 C 0.78442 0.80701 0.42684
 C1783 C 0.79348 0.81608 0.41429
 C1784 C 0.80920 0.80970 0.40784
 C1785 C 0.81585 0.79430 0.41471
 C1786 C 0.80675 0.78527 0.42727
 C1787 C 0.78081 0.78136 0.44486
 C1788 C 0.77199 0.77250 0.45398
 H1789 H 0.77213 0.81191 0.43129
 H1790 H 0.78792 0.82787 0.40946
 H1791 H 0.82790 0.78896 0.41025
 H1792 H 0.81187 0.77322 0.43206
 C1793 C 0.70914 0.29097 0.56707
 C1794 C 0.69319 0.28496 0.57290
 C1795 C 0.68407 0.29415 0.58531
 C1796 C 0.69080 0.30949 0.59218
 C1797 C 0.70668 0.31562 0.58590
 C1798 C 0.71578 0.30640 0.57348
 C1799 C 0.71919 0.28074 0.55541
 C1800 C 0.72793 0.27185 0.54622
 H1801 H 0.68796 0.27298 0.56810
 H1802 H 0.67189 0.28899 0.58966
 H1803 H 0.71235 0.32734 0.59076
 H1804 H 0.72817 0.31114 0.56913
 C1805 C 0.70934 0.79137 1.06730
 C1806 C 0.69353 0.78515 1.07327
 C1807 C 0.68436 0.79428 1.08570
 C1808 C 0.69093 0.80975 1.09244
 C1809 C 0.70662 0.81613 1.08592
 C1810 C 0.71576 0.80698 1.07349
 C1811 C 0.71950 0.78116 1.05571
 C1812 C 0.72828 0.77227 1.04656
 H1813 H 0.68846 0.77305 1.06860
 H1814 H 0.67231 0.78895 1.09020
 H1815 H 0.71210 0.82801 1.09060
 H1816 H 0.72802 0.81190 1.06898
 C1817 C 0.20908 0.29135 1.06724
 C1818 C 0.19322 0.28521 1.07318
 C1819 C 0.18405 0.29440 1.08555
 C1820 C 0.19065 0.30987 1.09227
 C1821 C 0.20643 0.31613 1.08585
 C1822 C 0.21557 0.30691 1.07347
 C1823 C 0.21921 0.28114 1.05564
 C1824 C 0.22801 0.27226 1.04650
 H1825 H 0.18811 0.27313 1.06850
 H1826 H 0.17196 0.28914 1.09001
 H1827 H 0.21197 0.32797 1.09057
 H1828 H 0.22789 0.31175 1.06903
 C1829 C 0.20850 0.79105 0.56703
 C1830 C 0.21464 0.80697 0.57270
 C1831 C 0.20573 0.81602 0.58536
 C1832 C 0.19058 0.80922 0.59262
 C1833 C 0.18422 0.79345 0.58641
 C1834 C 0.19315 0.78442 0.57374
 C1835 C 0.21864 0.78091 0.55539
 C1836 C 0.22753 0.77210 0.54628
 H1837 H 0.22653 0.81220 0.56762
 H1838 H 0.21093 0.82820 0.58960
 H1839 H 0.17265 0.78774 0.59165
 H1840 H 0.18833 0.77205 0.56951
 C1841 C 0.29104 0.70913 0.56708
 C1842 C 0.30676 0.71547 0.57312
 C1843 C 0.31597 0.70637 0.58556
 C1844 C 0.30954 0.69079 0.59222
 C1845 C 0.29393 0.68430 0.58564
 C1846 C 0.28476 0.69342 0.57321
 C1847 C 0.28079 0.71928 0.55551
 C1848 C 0.27189 0.72811 0.54641
 H1849 H 0.31173 0.72765 0.56850
 H1850 H 0.32794 0.71180 0.59011
 H1851 H 0.28854 0.67235 0.59027
 H1852 H 0.27256 0.68841 0.56865
 C1853 C 0.29127 0.20908 1.06708
 C1854 C 0.30694 0.21546 1.07321
 C1855 C 0.31614 0.20634 1.08563
 C1856 C 0.30971 0.19073 1.09221
 C1857 C 0.29417 0.18419 1.08553
 C1858 C 0.28501 0.19334 1.07311
 C1859 C 0.28104 0.21925 1.05552
 C1860 C 0.27216 0.22809 1.04643
 H1861 H 0.31189 0.22767 1.06865
 H1862 H 0.32808 0.21178 1.09025
 H1863 H 0.28883 0.17218 1.09007
 H1864 H 0.27286 0.18830 1.06849
 C1865 C 0.79146 0.70903 1.06682
 C1866 C 0.80665 0.71579 1.07371
 C1867 C 0.81559 0.70674 1.08633
 C1868 C 0.80941 0.69079 1.09232
 C1869 C 0.79441 0.68387 1.08489
 C1870 C 0.78549 0.69296 1.07227
 C1871 C 0.78129 0.71920 1.05524
 C1872 C 0.77239 0.72805 1.04618
 H1873 H 0.81133 0.72829 1.06966
 H1874 H 0.82702 0.71255 1.09173
 H1875 H 0.78934 0.67158 1.08899
 H1876 H 0.77370 0.68764 1.06705
 C1877 C 0.79118 0.20857 0.56671
 C1878 C 0.80704 0.21474 0.57260
 C1879 C 0.81620 0.20562 0.58505
 C1880 C 0.80958 0.19019 0.59189
 C1881 C 0.79385 0.18386 0.58546
 C1882 C 0.78472 0.19301 0.57301
 C1883 C 0.78097 0.21877 0.55516
 C1884 C 0.77207 0.22762 0.54607
 H1885 H 0.81215 0.22680 0.56784
 H1886 H 0.82828 0.21091 0.58948
 H1887 H 0.78831 0.17203 0.59023
 H1888 H 0.77243 0.18813 0.56858
 C1889 C 0.70937 0.70909 0.43283
 C1890 C 0.71592 0.69356 0.42659
 C1891 C 0.70684 0.68434 0.41419
 C1892 C 0.69106 0.69058 0.40778
 C1893 C 0.68442 0.70606 0.41447
 C1894 C 0.69353 0.71524 0.42686
 C1895 C 0.71941 0.71928 0.44448
 C1896 C 0.72813 0.72815 0.45367
 H1897 H 0.72823 0.68874 0.43105
 H1898 H 0.71243 0.67252 0.40947
 H1899 H 0.67234 0.71132 0.40998
 H1900 H 0.68839 0.72732 0.43154
 C1901 C 0.70899 0.20862 -0.06694
 C1902 C 0.71564 0.19319 -0.07335
 C1903 C 0.70658 0.18401 -0.08581
 C1904 C 0.69073 0.19017 -0.09213
 C1905 C 0.68397 0.20551 -0.08525
 C1906 C 0.69307 0.21467 -0.07280
 C1907 C 0.71905 0.21883 -0.05528
 C1908 C 0.72783 0.22771 -0.04613
 H1909 H 0.72801 0.18844 -0.06898
 H1910 H 0.71226 0.17229 -0.09066
 H1911 H 0.67182 0.21070 -0.08963
 H1912 H 0.68783 0.22666 -0.06800
 C1913 C 0.20917 0.70906 -0.06714
 C1914 C 0.19350 0.71544 -0.07331
 C1915 C 0.18430 0.70627 -0.08566
 C1916 C 0.19068 0.69059 -0.09211
 C1917 C 0.20625 0.68409 -0.08545
 C1918 C 0.21543 0.69329 -0.07310
 C1919 C 0.21935 0.71926 -0.05561
 C1920 C 0.22817 0.72815 -0.04652
 H1921 H 0.18858 0.72768 -0.06885
 H1922 H 0.17238 0.71174 -0.09032
 H1923 H 0.21161 0.67208 -0.08995
 H1924 H 0.22760 0.68827 -0.06846
 C1925 C 0.20959 0.20894 0.43269
 C1926 C 0.19376 0.21518 0.42680
 C1927 C 0.18459 0.20614 0.41433
 C1928 C 0.19117 0.19071 0.40749
 C1929 C 0.20693 0.18435 0.41385
 C1930 C 0.21606 0.19343 0.42632
 C1931 C 0.21972 0.21904 0.44437
 C1932 C 0.22852 0.22785 0.45356
 H1933 H 0.18866 0.22724 0.43158
 H1934 H 0.17251 0.21147 0.40991
 H1935 H 0.21247 0.17254 0.40903
 H1936 H 0.22836 0.18852 0.43073
 C1937 C 0.29050 0.43246 0.70869
 C1938 C 0.30621 0.42623 0.71488
 C1939 C 0.31514 0.41349 0.70592
 C1940 C 0.30842 0.40669 0.69064
 C1941 C 0.29279 0.41339 0.68431
 C1942 C 0.28390 0.42615 0.69330
 C1943 C 0.28053 0.44428 0.71878
 C1944 C 0.27185 0.45352 0.72766
 H1945 H 0.31139 0.43097 0.72684
 H1946 H 0.32714 0.40882 0.71120
 H1947 H 0.28715 0.40859 0.67263
 H1948 H 0.27167 0.43081 0.68845
 C1949 C 0.29044 0.93247 0.20897
 C1950 C 0.30614 0.92624 0.21520
 C1951 C 0.31510 0.91348 0.20626
 C1952 C 0.30842 0.90669 0.19095
 C1953 C 0.29278 0.91337 0.18462
 C1954 C 0.28387 0.92613 0.19359
 C1955 C 0.28046 0.94439 0.21898
 C1956 C 0.27174 0.95372 0.22775
 H1957 H 0.31130 0.93098 0.22716
 H1958 H 0.32709 0.90882 0.21155
 H1959 H 0.28717 0.90857 0.17292
 H1960 H 0.27165 0.93078 0.18871
 C1961 C 0.79029 0.43220 0.20872
 C1962 C 0.80618 0.42629 0.21481
 C1963 C 0.81520 0.41357 0.20589
 C1964 C 0.80842 0.40651 0.19075
 C1965 C 0.79259 0.41287 0.18456
 C1966 C 0.78360 0.42558 0.19351
 C1967 C 0.78029 0.44406 0.21874
 C1968 C 0.77160 0.45337 0.22754
 H1969 H 0.81142 0.43126 0.22664
 H1970 H 0.82735 0.40916 0.21105
 H1971 H 0.78687 0.40784 0.17301
 H1972 H 0.77124 0.42998 0.18875
 C1973 C 0.79118 0.93259 0.70930
 C1974 C 0.78534 0.92738 0.69323
 C1975 C 0.79439 0.91488 0.68405
 C1976 C 0.80940 0.90731 0.69085
 C1977 C 0.81546 0.91308 0.70682
 C1978 C 0.80637 0.92559 0.71598
 C1979 C 0.78093 0.94416 0.71944
 C1980 C 0.77199 0.95325 0.72822
 H1981 H 0.77358 0.93271 0.68795
 H1982 H 0.78939 0.91101 0.67175
 H1983 H 0.82696 0.90770 0.71250
 H1984 H 0.81099 0.92951 0.72845
 C1985 C 0.71038 0.56779 0.70923
 C1986 C 0.69448 0.57370 0.71530
 C1987 C 0.68537 0.58628 0.70626
 C1988 C 0.69209 0.59323 0.69102
 C1989 C 0.70790 0.58683 0.68481
 C1990 C 0.71697 0.57425 0.69388
 C1991 C 0.72044 0.55600 0.71931
 C1992 C 0.72918 0.54670 0.72808
 H1993 H 0.68928 0.56883 0.72721
 H1994 H 0.67323 0.59069 0.71142
 H1995 H 0.71354 0.59174 0.67316
 H1996 H 0.72932 0.56982 0.68911
 C1997 C 0.70911 0.06751 0.20941
 C1998 C 0.69410 0.07476 0.21622
 C1999 C 0.68494 0.08718 0.20700
 C2000 C 0.69072 0.09262 0.19080
 C2001 C 0.70566 0.08497 0.18394
 C2002 C 0.71479 0.07255 0.19320
 C2003 C 0.71927 0.05576 0.21948
 C2004 C 0.72810 0.04649 0.22821
 H2005 H 0.68965 0.07106 0.22882
 H2006 H 0.67357 0.09274 0.21279
 H2007 H 0.71049 0.08865 0.17151
 H2008 H 0.72645 0.06710 0.18783
 C2009 C 0.20919 0.56752 0.20850
 C2010 C 0.21569 0.57367 0.19298
 C2011 C 0.20678 0.58640 0.18395
 C2012 C 0.19126 0.59324 0.19038
 C2013 C 0.18459 0.58654 0.20574
 C2014 C 0.19353 0.57382 0.21474
 C2015 C 0.21924 0.55582 0.21867
 C2016 C 0.22797 0.54667 0.22759
 H2017 H 0.22786 0.56893 0.18807
 H2018 H 0.21236 0.59113 0.17219
 H2019 H 0.17263 0.59128 0.21106
 H2020 H 0.18841 0.56919 0.22678
 C2021 C 0.20965 0.06772 0.70923
 C2022 C 0.19389 0.07386 0.71540
 C2023 C 0.18495 0.08662 0.70644
 C2024 C 0.19170 0.09348 0.69118
 C2025 C 0.20739 0.08688 0.68490
 C2026 C 0.21629 0.07412 0.69389
 C2027 C 0.21962 0.05585 0.71928
 C2028 C 0.22835 0.04654 0.72805
 H2029 H 0.18867 0.06905 0.72733
 H2030 H 0.17289 0.09121 0.71167
 H2031 H 0.21306 0.09174 0.67325
 H2032 H 0.22855 0.06952 0.68905
 C2033 C 0.29009 0.56805 0.29106
 C2034 C 0.30601 0.57394 0.28504
 C2035 C 0.31504 0.58658 0.29404
 C2036 C 0.30822 0.59360 0.30920
 C2037 C 0.29240 0.58720 0.31536
 C2038 C 0.28341 0.57456 0.30633
 C2039 C 0.28006 0.55629 0.28095
 C2040 C 0.27136 0.54703 0.27211
 H2041 H 0.31129 0.56902 0.27319
 H2042 H 0.32721 0.59099 0.28892
 H2043 H 0.28668 0.59216 0.32695
 H2044 H 0.27105 0.57013 0.31107
 C2045 C 0.29114 0.06709 0.79118
 C2046 C 0.28506 0.07260 0.80708
 C2047 C 0.29411 0.08508 0.81629
 C2048 C 0.30937 0.09234 0.80968
 C2049 C 0.31562 0.08630 0.79387
 C2050 C 0.30654 0.07381 0.78470
 C2051 C 0.28099 0.05546 0.78100
 C2052 C 0.27215 0.04632 0.77217
 H2053 H 0.27313 0.06751 0.81221
 H2054 H 0.28892 0.08919 0.82843
 H2055 H 0.32731 0.09141 0.78834
 H2056 H 0.31136 0.06967 0.77237
 C2057 C 0.79174 0.56678 0.79131
 C2058 C 0.80709 0.57351 0.78475
 C2059 C 0.81590 0.58639 0.79361
 C2060 C 0.80942 0.59282 0.80916
 C2061 C 0.79428 0.58547 0.81594
 C2062 C 0.78550 0.57258 0.80705
 C2063 C 0.78164 0.55510 0.78122
 C2064 C 0.77281 0.54600 0.77235
 H2065 H 0.81200 0.56913 0.77254
 H2066 H 0.82757 0.59151 0.78801
 H2067 H 0.78887 0.58993 0.82787
 H2068 H 0.77359 0.56749 0.81222
 C2069 C 0.79078 0.06752 0.29092
 C2070 C 0.78420 0.07390 0.30629
 C2071 C 0.79317 0.08657 0.31529
 C2072 C 0.80889 0.09313 0.30901
 C2073 C 0.81556 0.08633 0.29369
 C2074 C 0.80654 0.07365 0.28472
 C2075 C 0.78076 0.05564 0.28094
 C2076 C 0.77195 0.04634 0.27225
 H2077 H 0.77194 0.06934 0.31115
 H2078 H 0.78756 0.09138 0.32699
 H2079 H 0.82759 0.09093 0.28843
 H2080 H 0.81170 0.06888 0.27276
 C2081 C 0.70936 0.43270 0.29112
 C2082 C 0.69356 0.42666 0.28499
 C2083 C 0.68451 0.41403 0.29403
 C2084 C 0.69120 0.40719 0.30932
 C2085 C 0.70690 0.41377 0.31560
 C2086 C 0.71590 0.42640 0.30654
 C2087 C 0.71945 0.44437 0.28095
 C2088 C 0.72820 0.45353 0.27205
 H2089 H 0.68840 0.43143 0.27303
 H2090 H 0.67246 0.40947 0.28880
 H2091 H 0.71250 0.40898 0.32732
 H2092 H 0.72817 0.43096 0.31137
 C2093 C 0.70977 0.93182 0.79155
 C2094 C 0.71611 0.92573 0.80716
 C2095 C 0.70713 0.91300 0.81615
 C2096 C 0.69169 0.90612 0.80959
 C2097 C 0.68523 0.91266 0.79409
 C2098 C 0.69424 0.92536 0.78513
 C2099 C 0.71977 0.94368 0.78149
 C2100 C 0.72839 0.95300 0.77260
 H2101 H 0.72817 0.93058 0.81222
 H2102 H 0.71243 0.90844 0.82811
 H2103 H 0.67349 0.90765 0.78856
 H2104 H 0.68930 0.92985 0.77298
 C2105 C 0.20944 0.43237 0.79098
 C2106 C 0.21591 0.42612 0.80646
 C2107 C 0.20685 0.41354 0.81554
 C2108 C 0.19119 0.40693 0.80922
 C2109 C 0.18458 0.41370 0.79386
 C2110 C 0.19367 0.42628 0.78481
 C2111 C 0.21956 0.44408 0.78087
 C2112 C 0.22836 0.45330 0.77208
 H2113 H 0.22815 0.43070 0.81132
 H2114 H 0.21239 0.40880 0.82730
 H2115 H 0.17254 0.40912 0.78860
 H2116 H 0.18857 0.43100 0.77280
 C2117 C 0.20936 0.93262 0.29104
 C2118 C 0.19356 0.92657 0.28490
 C2119 C 0.18452 0.91388 0.29388
 C2120 C 0.19120 0.90697 0.30915
 C2121 C 0.20690 0.91354 0.31545
 C2122 C 0.21590 0.92622 0.30643
 C2123 C 0.21942 0.94444 0.28096
 C2124 C 0.22817 0.95371 0.27214
 H2125 H 0.18839 0.93139 0.27296
 H2126 H 0.17246 0.90935 0.28864
 H2127 H 0.21250 0.90869 0.32714
 H2128 H 0.22816 0.93076 0.31128
 C2129 C 0.43205 0.29040 0.70907
 C2130 C 0.42589 0.30611 0.71528
 C2131 C 0.41321 0.31514 0.70629
 C2132 C 0.40642 0.30851 0.69096
 C2133 C 0.41309 0.29290 0.68462
 C2134 C 0.42577 0.28392 0.69364
 C2135 C 0.44383 0.28033 0.71915
 C2136 C 0.45307 0.27154 0.72793
 H2137 H 0.43063 0.31121 0.72727
 H2138 H 0.40858 0.32713 0.71157
 H2139 H 0.40832 0.28735 0.67288
 H2140 H 0.43039 0.27171 0.68875
 C2141 C 0.43256 0.79073 0.20893
 C2142 C 0.42632 0.78428 0.19346
 C2143 C 0.41354 0.79320 0.18449
 C2144 C 0.40673 0.80872 0.19092
 C2145 C 0.41345 0.81530 0.20630
 C2146 C 0.42623 0.80634 0.21523
 C2147 C 0.44442 0.78071 0.21898
 C2148 C 0.45369 0.77197 0.22780
 H2149 H 0.43105 0.77215 0.18851
 H2150 H 0.40882 0.78768 0.17273
 H2151 H 0.40871 0.82721 0.21166
 H2152 H 0.43091 0.81142 0.22726
 C2153 C 0.93227 0.29029 0.20904
 C2154 C 0.92626 0.30611 0.21511
 C2155 C 0.91358 0.31512 0.20610
 C2156 C 0.90663 0.30838 0.19089
 C2157 C 0.91308 0.29261 0.18471
 C2158 C 0.92578 0.28364 0.19375
 C2159 C 0.94416 0.28032 0.21910
 C2160 C 0.95349 0.27166 0.22792
 H2161 H 0.93114 0.31133 0.22699
 H2162 H 0.90911 0.32722 0.21126
 H2163 H 0.90815 0.28694 0.17310
 H2164 H 0.93026 0.27133 0.18899
 C2165 C 0.93174 0.79098 0.70982
 C2166 C 0.92675 0.78532 0.69362
 C2167 C 0.91433 0.79442 0.68435
 C2168 C 0.90663 0.80931 0.69119
 C2169 C 0.91201 0.81507 0.70740
 C2170 C 0.92444 0.80593 0.71665
 C2171 C 0.94353 0.78084 0.71984
 C2172 C 0.95287 0.77195 0.72843
 H2173 H 0.93225 0.77370 0.68826
 H2174 H 0.91069 0.78960 0.67191
 H2175 H 0.90644 0.82642 0.71316
 H2176 H 0.92811 0.81036 0.72925
 C2177 C 0.56813 0.29037 0.29082
 C2178 C 0.57428 0.28402 0.30638
 C2179 C 0.58686 0.29311 0.31543
 C2180 C 0.59353 0.30870 0.30902
 C2181 C 0.58693 0.31514 0.29352
 C2182 C 0.57435 0.30601 0.28449
 C2183 C 0.55634 0.28027 0.28079
 C2184 C 0.54706 0.27151 0.27204
 H2185 H 0.56962 0.27186 0.31136
 H2186 H 0.59149 0.28768 0.32729
 H2187 H 0.59161 0.32706 0.28813
 H2188 H 0.56973 0.31099 0.27240
 C2189 C 0.56816 0.78958 0.79232
 C2190 C 0.57489 0.78310 0.80760
 C2191 C 0.58724 0.79249 0.81668
 C2192 C 0.59312 0.80849 0.81053
 C2193 C 0.58594 0.81506 0.79535
 C2194 C 0.57360 0.80564 0.78630
 C2195 C 0.55650 0.77933 0.78229
 C2196 C 0.54727 0.77055 0.77350
 H2197 H 0.57084 0.77063 0.81235
 H2198 H 0.59238 0.78696 0.82828
 H2199 H 0.58992 0.82738 0.79028
 H2200 H 0.56852 0.81075 0.77445
 C2201 C 0.06779 0.29053 0.79074
 C2202 C 0.07395 0.28411 0.80627
 C2203 C 0.08655 0.29314 0.81535
 C2204 C 0.09326 0.30872 0.80898
 C2205 C 0.08659 0.31529 0.79355
 C2206 C 0.07399 0.30623 0.78450
 C2207 C 0.05606 0.28045 0.78065
 C2208 C 0.04682 0.27167 0.77188
 H2209 H 0.06929 0.27193 0.81119
 H2210 H 0.09120 0.28764 0.82717
 H2211 H 0.09124 0.32726 0.78824
 H2212 H 0.06934 0.31129 0.77245
 C2213 C 0.06754 0.79042 0.29073
 C2214 C 0.07398 0.78382 0.30607
 C2215 C 0.08663 0.79282 0.31512
 C2216 C 0.09311 0.80857 0.30890
 C2217 C 0.08617 0.81530 0.29368
 C2218 C 0.07352 0.80627 0.28465
 C2219 C 0.05577 0.78037 0.28062
 C2220 C 0.04653 0.77164 0.27179
 H2221 H 0.06950 0.77152 0.31086
 H2222 H 0.09150 0.78717 0.32678
 H2223 H 0.09063 0.82741 0.28850
 H2224 H 0.06866 0.81147 0.27275
 C2225 C 0.56764 0.70887 0.70934
 C2226 C 0.57344 0.69287 0.71517
 C2227 C 0.58618 0.68395 0.70614
 C2228 C 0.59339 0.69096 0.69115
 C2229 C 0.58699 0.70680 0.68510
 C2230 C 0.57425 0.71569 0.69416
 C2231 C 0.55597 0.71888 0.71962
 C2232 C 0.54684 0.72757 0.72862
 H2233 H 0.56841 0.68746 0.72692
 H2234 H 0.59054 0.67172 0.71114
 H2235 H 0.59205 0.71264 0.67361
 H2236 H 0.56988 0.72810 0.68953
 C2237 C 0.56778 0.20874 0.20926
 C2238 C 0.57273 0.21427 0.19298
 C2239 C 0.58524 0.20518 0.18382
 C2240 C 0.59306 0.19042 0.19085
 C2241 C 0.58770 0.18478 0.20711
 C2242 C 0.57518 0.19390 0.21624
 C2243 C 0.55602 0.21892 0.21926
 C2244 C 0.54678 0.22778 0.22798
 H2245 H 0.56714 0.22580 0.18748
 H2246 H 0.58885 0.20988 0.17132
 H2247 H 0.59340 0.17356 0.21303
 H2248 H 0.57154 0.18958 0.22890
 C2249 C 0.06767 0.70950 0.20847
 C2250 C 0.07398 0.69389 0.21480
 C2251 C 0.08672 0.68492 0.20586
 C2252 C 0.09343 0.69149 0.19046
 C2253 C 0.08663 0.70699 0.18398
 C2254 C 0.07388 0.71593 0.19296
 C2255 C 0.05586 0.71954 0.21853
 C2256 C 0.04661 0.72826 0.22736
 H2257 H 0.06931 0.68883 0.22685
 H2258 H 0.09145 0.67300 0.21123
 H2259 H 0.09139 0.71252 0.17222
 H2260 H 0.06916 0.72807 0.18799
 C2261 C 0.06766 0.20942 0.70870
 C2262 C 0.07398 0.19383 0.71506
 C2263 C 0.08671 0.18483 0.70612
 C2264 C 0.09338 0.19136 0.69068
 C2265 C 0.08658 0.20686 0.68419
 C2266 C 0.07384 0.21582 0.69316
 C2267 C 0.05586 0.21946 0.71875
 C2268 C 0.04662 0.22818 0.72760
 H2269 H 0.06934 0.18881 0.72713
 H2270 H 0.09145 0.17294 0.71153
 H2271 H 0.09127 0.21233 0.67237
 H2272 H 0.06910 0.22794 0.68817
 C2273 C 0.43227 0.70976 0.29113
 C2274 C 0.42626 0.69395 0.28504
 C2275 C 0.41358 0.68491 0.29405
 C2276 C 0.40664 0.69160 0.30929
 C2277 C 0.41315 0.70732 0.31553
 C2278 C 0.42582 0.71633 0.30649
 C2279 C 0.44412 0.71979 0.28104
 C2280 C 0.45343 0.72849 0.27222
 H2281 H 0.43111 0.68876 0.27313
 H2282 H 0.40910 0.67283 0.28886
 H2283 H 0.40826 0.71294 0.32719
 H2284 H 0.43033 0.72860 0.31130
 C2285 C 0.43226 0.20883 0.79106
 C2286 C 0.42530 0.19368 0.78436
 C2287 C 0.41278 0.18457 0.79349
 C2288 C 0.40696 0.19054 0.80947
 C2289 C 0.41443 0.20556 0.81629
 C2290 C 0.42694 0.21465 0.80712
 C2291 C 0.44392 0.21902 0.78094
 C2292 C 0.45310 0.22784 0.77213
 H2293 H 0.42928 0.18909 0.77190
 H2294 H 0.40746 0.17308 0.78778
 H2295 H 0.41048 0.21053 0.82858
 H2296 H 0.43222 0.22640 0.81241
 C2297 C 0.93262 0.70869 0.79093
 C2298 C 0.92685 0.71481 0.80672
 C2299 C 0.91403 0.70592 0.81566
 C2300 C 0.90672 0.69081 0.80887
 C2301 C 0.91309 0.68448 0.79324
 C2302 C 0.92591 0.69339 0.78433
 C2303 C 0.94433 0.71884 0.78087
 C2304 C 0.95347 0.72772 0.77207
 H2305 H 0.93192 0.72669 0.81191
 H2306 H 0.90960 0.71123 0.82764
 H2307 H 0.90798 0.67285 0.78762
 H2308 H 0.93026 0.68858 0.77207
 C2309 C 0.93263 0.20917 0.29087
 C2310 C 0.92632 0.19357 0.28453
 C2311 C 0.91357 0.18459 0.29349
 C2312 C 0.90689 0.19113 0.30891
 C2313 C 0.91367 0.20664 0.31535
 C2314 C 0.92641 0.21558 0.30637
 C2315 C 0.94446 0.21923 0.28087
 C2316 C 0.95371 0.22805 0.27214
 H2317 H 0.93099 0.18853 0.27249
 H2318 H 0.90882 0.17270 0.28810
 H2319 H 0.90898 0.21213 0.32714
 H2320 H 0.93114 0.22770 0.31134
 C2321 C 0.29095 0.29097 0.56706
 C2322 C 0.30673 0.28473 0.57306
 C2323 C 0.31587 0.29387 0.58547
 C2324 C 0.30929 0.30937 0.59215
 C2325 C 0.29361 0.31576 0.58563
 C2326 C 0.28451 0.30659 0.57321
 C2327 C 0.28080 0.28079 0.55550
 C2328 C 0.27197 0.27195 0.54639
 H2329 H 0.31180 0.27261 0.56842
 H2330 H 0.32790 0.28853 0.59001
 H2331 H 0.28810 0.32763 0.59029
 H2332 H 0.27225 0.31150 0.56869
 C2333 C 0.29127 0.79126 0.06682
 C2334 C 0.28481 0.80686 0.07300
 C2335 C 0.29388 0.81602 0.08545
 C2336 C 0.30956 0.80966 0.09201
 C2337 C 0.31614 0.79414 0.08534
 C2338 C 0.30703 0.78501 0.07289
 C2339 C 0.28117 0.78108 0.05518
 C2340 C 0.27237 0.77224 0.04603
 H2341 H 0.27256 0.81177 0.06846
 H2342 H 0.28836 0.82789 0.09012
 H2343 H 0.32815 0.78880 0.08990
 H2344 H 0.31212 0.77289 0.06826
 C2345 C 0.79106 0.29138 0.06690
 C2346 C 0.78461 0.30693 0.07320
 C2347 C 0.79378 0.31608 0.08559
 C2348 C 0.80954 0.30974 0.09196
 C2349 C 0.81610 0.29427 0.08519
 C2350 C 0.80690 0.28516 0.07279
 C2351 C 0.78088 0.28122 0.05531
 C2352 C 0.77204 0.27236 0.04621
 H2353 H 0.77230 0.31182 0.06880
 H2354 H 0.78826 0.32791 0.09036
 H2355 H 0.82817 0.28895 0.08962
 H2356 H 0.81197 0.27307 0.06807
 C2357 C 0.79045 0.79142 0.56714
 C2358 C 0.80635 0.78524 0.57292
 C2359 C 0.81554 0.79429 0.58537
 C2360 C 0.80889 0.80964 0.59233
 C2361 C 0.79314 0.81602 0.58597
 C2362 C 0.78399 0.80694 0.57352
 C2363 C 0.78021 0.78125 0.55563
 C2364 C 0.77134 0.77241 0.54654
 H2365 H 0.81147 0.77323 0.56807
 H2366 H 0.82766 0.78900 0.58973
 H2367 H 0.78760 0.82781 0.59081
 H2368 H 0.77167 0.81184 0.56915
 C2369 C 0.29093 0.70885 0.43323
 C2370 C 0.30679 0.71500 0.42733
 C2371 C 0.31595 0.70586 0.41492
 C2372 C 0.30931 0.69045 0.40812
 C2373 C 0.29355 0.68415 0.41453
 C2374 C 0.28443 0.69332 0.42695
 C2375 C 0.28075 0.71908 0.44476
 C2376 C 0.27190 0.72796 0.45383
 H2377 H 0.31191 0.72706 0.43206
 H2378 H 0.32805 0.71113 0.41048
 H2379 H 0.28799 0.67235 0.40976
 H2380 H 0.27211 0.68848 0.43138
 C2381 C 0.29079 0.20879 0.93313
 C2382 C 0.30676 0.21480 0.92734
 C2383 C 0.31586 0.20565 0.91487
 C2384 C 0.30907 0.19036 0.90792
 C2385 C 0.29321 0.18421 0.91422
 C2386 C 0.28414 0.19338 0.92669
 C2387 C 0.28069 0.21904 0.94472
 C2388 C 0.27188 0.22795 0.95383
 H2389 H 0.31200 0.22676 0.93218
 H2390 H 0.32803 0.21082 0.91052
 H2391 H 0.28752 0.17252 0.90932
 H2392 H 0.27175 0.18865 0.93103
 C2393 C 0.79039 0.70861 0.93285
 C2394 C 0.80601 0.71509 0.92667
 C2395 C 0.81518 0.70611 0.91412
 C2396 C 0.80879 0.69053 0.90747
 C2397 C 0.79334 0.68384 0.91425
 C2398 C 0.78420 0.69285 0.92679
 C2399 C 0.78013 0.71871 0.94447
 C2400 C 0.77125 0.72752 0.95362
 H2401 H 0.81092 0.72730 0.93124
 H2402 H 0.82704 0.71167 0.90942
 H2403 H 0.78801 0.67186 0.90966
 H2404 H 0.77210 0.68772 0.93146
 C2405 C 0.79116 0.20876 0.43285
 C2406 C 0.80712 0.21479 0.42708
 C2407 C 0.81633 0.20558 0.41474
 C2408 C 0.80965 0.19021 0.40789
 C2409 C 0.79379 0.18402 0.41418
 C2410 C 0.78461 0.19326 0.42652
 C2411 C 0.78098 0.21903 0.44437
 C2412 C 0.77215 0.22793 0.45347
 H2413 H 0.81229 0.22682 0.43185
 H2414 H 0.82850 0.21076 0.41040
 H2415 H 0.78819 0.17225 0.40937
 H2416 H 0.77223 0.18850 0.43084
 C2417 C 0.70908 0.29139 0.43301
 C2418 C 0.71554 0.30697 0.42675
 C2419 C 0.70639 0.31615 0.41435
 C2420 C 0.69065 0.30982 0.40794
 C2421 C 0.68404 0.29438 0.41475
 C2422 C 0.69322 0.28523 0.42715
 C2423 C 0.71927 0.28116 0.44452
 C2424 C 0.72812 0.27225 0.45359
 H2425 H 0.72784 0.31183 0.43116
 H2426 H 0.71192 0.32798 0.40959
 H2427 H 0.67195 0.28910 0.41033
 H2428 H 0.68812 0.27315 0.43187
 C2429 C 0.70860 0.79059 0.93257
 C2430 C 0.71575 0.80546 0.92541
 C2431 C 0.70703 0.81428 0.91246
 C2432 C 0.69101 0.80832 0.90645
 C2433 C 0.68373 0.79357 0.91402
 C2434 C 0.69250 0.78476 0.92696
 C2435 C 0.71844 0.78055 0.94455
 C2436 C 0.72714 0.77174 0.95386
 H2437 H 0.72825 0.81005 0.92957
 H2438 H 0.71297 0.82565 0.90709
 H2439 H 0.67151 0.78851 0.90964
 H2440 H 0.68692 0.77316 0.93229
 C2441 C 0.20871 0.29120 0.93316
 C2442 C 0.21510 0.30685 0.92700
 C2443 C 0.20597 0.31602 0.91457
 C2444 C 0.19032 0.30962 0.90801
 C2445 C 0.18379 0.29409 0.91469
 C2446 C 0.19295 0.28495 0.92712
 C2447 C 0.21888 0.28101 0.94475
 C2448 C 0.22774 0.27216 0.95387
 H2449 H 0.22733 0.31178 0.93153
 H2450 H 0.21144 0.32793 0.90991
 H2451 H 0.17178 0.28873 0.91014
 H2452 H 0.18790 0.27280 0.93175
 C2453 C 0.20870 0.79115 0.43301
 C2454 C 0.21502 0.80685 0.42693
 C2455 C 0.20591 0.81599 0.41446
 C2456 C 0.19035 0.80949 0.40779
 C2457 C 0.18387 0.79391 0.41442
 C2458 C 0.19301 0.78481 0.42689
 C2459 C 0.21888 0.78098 0.44459
 C2460 C 0.22774 0.77212 0.45371
 H2461 H 0.22719 0.81186 0.43154
 H2462 H 0.21133 0.82794 0.40986
 H2463 H 0.17193 0.78848 0.40979
 H2464 H 0.18802 0.77263 0.43148
 C2465 C 0.70839 0.70885 0.56679
 C2466 C 0.71491 0.69322 0.57286
 C2467 C 0.70592 0.68398 0.58533
 C2468 C 0.69028 0.69030 0.59201
 C2469 C 0.68360 0.70580 0.58539
 C2470 C 0.69262 0.71501 0.57292
 C2471 C 0.71849 0.71918 0.55528
 C2472 C 0.72730 0.72814 0.54624
 H2473 H 0.72715 0.68837 0.56824
 H2474 H 0.71149 0.67210 0.58994
 H2475 H 0.67159 0.71109 0.59003
 H2476 H 0.68749 0.72714 0.56836
 C2477 C 0.70931 0.20903 0.06751
 C2478 C 0.71593 0.19359 0.07394
 C2479 C 0.70684 0.18441 0.08640
 C2480 C 0.69099 0.19059 0.09270
 C2481 C 0.68427 0.20596 0.08582
 C2482 C 0.69340 0.21510 0.07336
 C2483 C 0.71937 0.21919 0.05580
 C2484 C 0.72812 0.22803 0.04657
 H2485 H 0.72830 0.18881 0.06957
 H2486 H 0.71249 0.17267 0.09126
 H2487 H 0.67212 0.21116 0.09018
 H2488 H 0.68819 0.22710 0.06853
 C2489 C 0.20928 0.70903 0.06680
 C2490 C 0.21559 0.69332 0.07287
 C2491 C 0.20644 0.68417 0.08530
 C2492 C 0.19085 0.69066 0.09193
 C2493 C 0.18441 0.70628 0.08536
 C2494 C 0.19359 0.71539 0.07292
 C2495 C 0.21946 0.71919 0.05520
 C2496 C 0.22829 0.72804 0.04607
 H2497 H 0.22778 0.68831 0.06827
 H2498 H 0.21184 0.67220 0.08988
 H2499 H 0.17246 0.71172 0.08998
 H2500 H 0.18862 0.72759 0.06836
 C2501 C 0.20892 0.20861 0.56680
 C2502 C 0.21543 0.19304 0.57306
 C2503 C 0.20628 0.18380 0.58542
 C2504 C 0.19048 0.19005 0.59179
 C2505 C 0.18385 0.20551 0.58504
 C2506 C 0.19304 0.21472 0.57269
 C2507 C 0.21907 0.21886 0.55526
 C2508 C 0.22790 0.22778 0.54618
 H2509 H 0.22777 0.18823 0.56865
 H2510 H 0.21183 0.17197 0.59016
 H2511 H 0.17174 0.21075 0.58946
 H2512 H 0.18792 0.22681 0.56799
   
