data_POSCAR
  _audit_creation_date              2014-09-24
  _audit_creation_method            'ToBaCCo'
  _symmetry_space_group_name_H-M    'P1'
  _symmetry_Int_Tables_number       1
  _symmetry_cell_setting            triclinic
  loop_
  _symmetry_equiv_pos_as_xyz
 x,y,z
_cell_length_a 55.4383
_cell_length_b 60.8289
_cell_length_c 55.6841
_cell_angle_alpha 90.028700
_cell_angle_beta 89.973900
_cell_angle_gamma 90.146700
loop_
  _atom_site_label
  _atom_site_type_symbol
  _atom_site_fract_x
  _atom_site_fract_y
  _atom_site_fract_z
C1 C 1.21622 0.25841 0.28726
 H2 H 1.21490 0.24066 0.28732
 C3 C 1.20233 0.27077 0.30321
 H4 H 1.19046 0.26239 0.31567
 C5 C 1.23372 0.29079 0.27119
 H6 H 1.24609 0.29855 0.25883
 C7 C 1.22020 0.30379 0.28686
 H8 H 1.22201 0.32150 0.28601
 N9 N 1.23121 0.26854 0.27138
 C10 C 1.23742 0.22269 0.21154
 H11 H 1.25683 0.22133 0.21023
 C12 C 1.22269 0.21085 0.19582
 H13 H 1.23093 0.20017 0.18263
 C14 C 1.20320 0.23796 0.23077
 H15 H 1.19565 0.24878 0.24416
 C16 C 1.18780 0.22643 0.21541
 H17 H 1.16849 0.22852 0.21721
 Zn18 Zn 1.24882 0.25055 0.24987
 N19 N 1.22752 0.23558 0.22888
 C20 C 1.26292 0.20817 0.26582
 N21 N 1.26650 0.23010 0.26851
 C22 C 1.28199 0.23796 0.28531
 C23 C 1.29511 0.22359 0.29983
 C24 C 1.27562 0.19315 0.27987
 C25 C 1.25922 0.28215 0.21503
 C26 C 1.27342 0.29527 0.20006
 C27 C 1.30895 0.27823 0.21680
 C28 C 1.29405 0.26544 0.23149
 N29 N 1.26967 0.26782 0.23057
 H30 H 1.24981 0.20217 0.25305
 H31 H 1.28434 0.25554 0.28727
 H32 H 1.30802 0.23100 0.31187
 H33 H 1.27100 0.17604 0.27750
 H34 H 1.23977 0.28339 0.21432
 H35 H 1.26472 0.30649 0.18774
 H36 H 1.32832 0.27640 0.21810
 H37 H 1.30202 0.25363 0.24355
 C38 C 1.19750 0.21248 0.19780
 C39 C 1.20408 0.29381 0.30301
 C40 C 1.29866 0.29348 0.20089
 C41 C 1.29236 0.20048 0.29743
 C42 C 0.71560 -0.23806 0.28402
 H43 H 0.71244 -0.25555 0.28561
 C44 C 0.70212 -0.22340 0.29788
 H45 H 0.68854 -0.22976 0.31001
 C46 C 0.73663 -0.20854 0.26573
 H47 H 0.75001 -0.20274 0.25313
 C48 C 0.72355 -0.19331 0.27920
 H49 H 0.72735 -0.17596 0.27704
 N50 N 0.73267 -0.23048 0.26850
 C51 C 0.73961 -0.28632 0.21944
 H52 H 0.75868 -0.28964 0.22037
 C53 C 0.72491 -0.29971 0.20526
 H54 H 0.73295 -0.31318 0.19541
 C55 C 0.70619 -0.26423 0.23018
 H56 H 0.69899 -0.25015 0.23954
 C57 C 0.69083 -0.27719 0.21616
 H58 H 0.67182 -0.27320 0.21537
 Zn59 Zn 0.75107 -0.25087 0.25019
 N60 N 0.73011 -0.26904 0.23171
 C61 C 0.78888 -0.27999 0.26045
 N62 N 0.77058 -0.26842 0.27069
 C63 C 0.76707 -0.26877 0.29488
 C64 C 0.78172 -0.28165 0.30961
 C65 C 0.80395 -0.29307 0.27450
 C66 C 0.76704 -0.23466 0.20532
 C67 C 0.78203 -0.22276 0.18990
 C68 C 0.80670 -0.21273 0.22398
 C69 C 0.79124 -0.22482 0.23875
 N70 N 0.77179 -0.23534 0.22926
 H71 H 0.79210 -0.27874 0.24136
 H72 H 0.75294 -0.25910 0.30292
 H73 H 0.77828 -0.28203 0.32875
 H74 H 0.81851 -0.30198 0.26597
 H75 H 0.75145 -0.24314 0.19819
 H76 H 0.77800 -0.22244 0.17088
 H77 H 0.82178 -0.20405 0.23195
 H78 H 0.79453 -0.22562 0.25787
 C79 C 0.70015 -0.29524 0.20349
 C80 C 0.70610 -0.20068 0.29564
 C81 C 0.80210 -0.21148 0.19922
 C82 C 0.80038 -0.29413 0.29943
 C83 C 0.71687 0.25700 -0.21333
 H84 H 0.71669 0.23927 -0.21178
 C85 C 0.70210 0.26968 -0.19846
 H86 H 0.69067 0.26157 -0.18541
 C87 C 0.73265 0.28907 -0.23172
 H88 H 0.74480 0.29662 -0.24444
 C89 C 0.71824 0.30237 -0.21719
 H90 H 0.71912 0.32004 -0.21933
 N91 N 0.73154 0.26680 -0.22974
 C92 C 0.74477 0.21730 -0.28498
 H93 H 0.76425 0.21812 -0.28584
 C94 C 0.73222 0.20280 -0.29989
 H95 H 0.74219 0.19265 -0.31239
 C96 C 0.70819 0.22991 -0.26786
 H97 H 0.69887 0.24057 -0.25546
 C98 C 0.69491 0.21566 -0.28247
 H99 H 0.67546 0.21527 -0.28082
 Zn100 Zn 0.75147 0.24858 -0.24892
 N101 N 0.73270 0.23018 -0.26906
 C102 C 0.76958 0.20894 -0.22908
 N103 N 0.77041 0.23126 -0.22790
 C104 C 0.78452 0.24173 -0.21149
 C105 C 0.79932 0.22967 -0.19607
 C106 C 0.78407 0.19627 -0.21405
 C107 C 0.76099 0.27839 -0.28611
 C108 C 0.77491 0.29141 -0.30145
 C109 C 0.81065 0.27768 -0.28190
 C110 C 0.79597 0.26495 -0.26700
 N111 N 0.77160 0.26579 -0.26905
 H112 H 0.75772 0.20086 -0.24168
 H113 H 0.78456 0.25950 -0.21068
 H114 H 0.81094 0.23831 -0.18359
 H115 H 0.78316 0.17852 -0.21528
 H116 H 0.74152 0.27858 -0.28753
 H117 H 0.76516 0.30194 -0.31361
 H118 H 0.82986 0.27545 -0.27995
 H119 H 0.80419 0.25415 -0.25401
 C120 C 0.70695 0.20169 -0.29859
 C121 C 0.70265 0.29271 -0.20031
 C122 C 0.80045 0.29161 -0.29961
 C123 C 0.79942 0.20662 -0.19745
 C124 C 1.21713 -0.24192 -0.21048
 H125 H 1.21708 -0.25970 -0.21004
 C126 C 1.20293 -0.23010 -0.19429
 H127 H 1.19207 -0.23892 -0.18129
 C128 C 1.23182 -0.20887 -0.22767
 H129 H 1.24327 -0.20061 -0.24052
 C130 C 1.21797 -0.19642 -0.21179
 H131 H 1.21856 -0.17866 -0.21299
 N132 N 1.23088 -0.23121 -0.22701
 C133 C 1.23945 -0.27780 -0.28601
 H134 H 1.25888 -0.27785 -0.28785
 C135 C 1.22530 -0.29073 -0.30124
 H136 H 1.23402 -0.30095 -0.31457
 C137 C 1.20459 -0.26456 -0.26614
 H138 H 1.19652 -0.25406 -0.25275
 C139 C 1.18976 -0.27723 -0.28098
 H140 H 1.17038 -0.27632 -0.27877
 Zn141 Zn 1.24943 -0.24828 -0.24864
 N142 N 1.22899 -0.26533 -0.26863
 C143 C 1.26842 -0.28894 -0.23209
 N144 N 1.26964 -0.26668 -0.22999
 C145 C 1.28450 -0.25699 -0.21367
 C146 C 1.29930 -0.26978 -0.19898
 C147 C 1.28286 -0.30234 -0.21773
 C148 C 1.25562 -0.21660 -0.28437
 C149 C 1.26798 -0.20212 -0.29945
 C150 C 1.30553 -0.21541 -0.28301
 C151 C 1.29243 -0.22963 -0.26821
 N152 N 1.26790 -0.22971 -0.26887
 H153 H 1.25612 -0.29640 -0.24473
 H154 H 1.28476 -0.23927 -0.21202
 H155 H 1.31083 -0.26175 -0.18595
 H156 H 1.28185 -0.32001 -0.21992
 H157 H 1.23612 -0.21727 -0.28481
 H158 H 1.25785 -0.19181 -0.31164
 H159 H 1.32502 -0.21521 -0.28182
 H160 H 1.30191 -0.24047 -0.25614
 C161 C 1.20008 -0.29067 -0.29872
 C162 C 1.20314 -0.20702 -0.19491
 C163 C 1.29329 -0.20126 -0.29876
 C164 C 1.29858 -0.29280 -0.20089
 C165 C 0.25499 0.21694 0.71432
 H166 H 0.23549 0.21747 0.71382
 C167 C 0.26744 0.20252 0.69930
 H168 H 0.25735 0.19180 0.68744
 C169 C 0.29169 0.22999 0.73088
 H170 H 0.30111 0.24088 0.74301
 C171 C 0.30488 0.21580 0.71619
 H172 H 0.32438 0.21599 0.71715
 N173 N 0.26717 0.22999 0.73003
 C174 C 0.21620 0.24106 0.78840
 H175 H 0.21606 0.25883 0.78916
 C176 C 0.20166 0.22891 0.80403
 H177 H 0.19004 0.23793 0.81608
 C178 C 0.23094 0.20848 0.77056
 H179 H 0.24278 0.20051 0.75788
 C180 C 0.21672 0.19566 0.78577
 H181 H 0.21861 0.17802 0.78454
 Zn182 Zn 0.24865 0.24822 0.75049
 N183 N 0.23006 0.23076 0.77175
 C184 C 0.20382 0.26438 0.73322
 N185 N 0.22821 0.26539 0.73075
 C186 C 0.23862 0.27819 0.71360
 C187 C 0.22440 0.29122 0.69861
 C188 C 0.18893 0.27714 0.71863
 C189 C 0.28369 0.25661 0.78560
 C190 C 0.29885 0.26924 0.80017
 C191 C 0.28282 0.30198 0.78162
 C192 C 0.26796 0.28873 0.76743
 N193 N 0.26888 0.26646 0.76941
 H194 H 0.19579 0.25361 0.74640
 H195 H 0.25805 0.27842 0.71176
 H196 H 0.23308 0.30171 0.68547
 H197 H 0.16956 0.27603 0.72082
 H198 H 0.28379 0.23888 0.78707
 H199 H 0.31085 0.26106 0.81261
 H200 H 0.28167 0.31967 0.77990
 H201 H 0.25558 0.29632 0.75500
 C202 C 0.20134 0.20569 0.80278
 C203 C 0.29273 0.20164 0.70030
 C204 C 0.29863 0.29226 0.79819
 C205 C 0.19919 0.29092 0.70115
 C206 C 0.75968 0.72191 0.71247
 H207 H 0.74024 0.72177 0.71080
 C208 C 0.77371 0.70890 0.69725
 H209 H 0.76488 0.69854 0.68410
 C210 C 0.79470 0.73544 0.73192
 H211 H 0.80288 0.74609 0.74513
 C212 C 0.80941 0.72271 0.71709
 H213 H 0.82880 0.72372 0.71913
 N214 N 0.77029 0.73456 0.72965
 C215 C 0.71533 0.74303 0.78514
 H216 H 0.71508 0.76076 0.78665
 C217 C 0.70044 0.73029 0.79988
 H218 H 0.68840 0.73886 0.81192
 C219 C 0.73094 0.71113 0.76660
 H220 H 0.74331 0.70365 0.75406
 C221 C 0.71636 0.69773 0.78091
 H222 H 0.71848 0.68015 0.77910
 Zn223 Zn 0.75008 0.75168 0.74974
 N224 N 0.72997 0.73335 0.76870
 C225 C 0.70694 0.77022 0.73060
 N226 N 0.73145 0.77011 0.72957
 C227 C 0.74360 0.78311 0.71379
 C228 C 0.73112 0.79755 0.69884
 C229 C 0.69372 0.78441 0.71594
 C230 C 0.78280 0.75840 0.78750
 C231 C 0.79749 0.77037 0.80316
 C232 C 0.78269 0.80387 0.78522
 C233 C 0.76829 0.79127 0.76993
 N234 N 0.76894 0.76894 0.77099
 H235 H 0.69756 0.75946 0.74289
 H236 H 0.76309 0.78241 0.71306
 H237 H 0.74115 0.80780 0.68644
 H238 H 0.67426 0.78465 0.71745
 H239 H 0.78271 0.74062 0.78819
 H240 H 0.80890 0.76166 0.81572
 H241 H 0.78191 0.82162 0.78408
 H242 H 0.75663 0.79941 0.75723
 C243 C 0.70056 0.70711 0.79799
 C244 C 0.79894 0.70908 0.69958
 C245 C 0.79775 0.79343 0.80194
 C246 C 0.70584 0.79848 0.69994
 C247 C 0.76095 0.22319 0.20967
 H248 H 0.74147 0.22237 0.20871
 C249 C 0.77493 0.21101 0.19366
 H250 H 0.76606 0.20096 0.18025
 C251 C 0.79606 0.23765 0.22817
 H252 H 0.80424 0.24816 0.24151
 C253 C 0.81075 0.22575 0.21249
 H254 H 0.83015 0.22692 0.21431
 N255 N 0.77164 0.23582 0.22679
 C256 C 0.71863 0.23868 0.28459
 H257 H 0.71651 0.25626 0.28666
 C258 C 0.70570 0.22429 0.29935
 H259 H 0.69336 0.23094 0.31255
 C260 C 0.73722 0.20873 0.26471
 H261 H 0.74988 0.20268 0.25156
 C262 C 0.72467 0.19378 0.27906
 H263 H 0.72783 0.17635 0.27670
 Zn264 Zn 0.75111 0.25104 0.24823
 N265 N 0.73377 0.23072 0.26746
 C266 C 0.70552 0.26570 0.23081
 N267 N 0.72987 0.26811 0.22928
 C268 C 0.74001 0.28223 0.21325
 C269 C 0.72552 0.29500 0.19828
 C270 C 0.69034 0.27817 0.21619
 C271 C 0.78467 0.25925 0.28471
 C272 C 0.79892 0.27180 0.30023
 C273 C 0.78083 0.30462 0.28384
 C274 C 0.76692 0.29144 0.26865
 N275 N 0.76937 0.26920 0.26906
 H276 H 0.69779 0.25397 0.24318
 H277 H 0.75945 0.28359 0.21216
 H278 H 0.73397 0.30643 0.18596
 H279 H 0.67100 0.27590 0.21751
 H280 H 0.78601 0.24151 0.28489
 H281 H 0.81144 0.26358 0.31211
 H282 H 0.77860 0.32229 0.28328
 H283 H 0.75420 0.29904 0.25659
 C284 C 0.70856 0.20149 0.29658
 C285 C 0.80020 0.21200 0.19513
 C286 C 0.79726 0.29483 0.29976
 C287 C 0.70031 0.29309 0.19966
 C288 C 0.26753 0.73248 0.20547
 H289 H 0.25446 0.74319 0.19718
 C290 C 0.28188 0.71909 0.19101
 H291 H 0.28001 0.72003 0.17168
 C292 C 0.28568 0.71808 0.24059
 H293 H 0.28680 0.71764 0.25998
 C294 C 0.30042 0.70440 0.22680
 H295 H 0.31280 0.69336 0.23574
 N296 N 0.26982 0.73193 0.22978
 C297 C 0.23327 0.73303 0.29427
 H298 H 0.24465 0.74549 0.30221
 C299 C 0.21967 0.71928 0.30912
 H300 H 0.22079 0.72132 0.32841
 C301 C 0.21864 0.71468 0.25965
 H302 H 0.21836 0.71307 0.24030
 C303 C 0.20476 0.70057 0.27383
 H304 H 0.19359 0.68826 0.26520
 Zn305 Zn 0.24989 0.74966 0.24947
 N306 N 0.23220 0.73076 0.26999
 C307 C 0.20435 0.76384 0.23167
 N308 N 0.22868 0.76650 0.23030
 C309 C 0.23868 0.78191 0.21565
 C310 C 0.22411 0.79499 0.20111
 C311 C 0.18908 0.77660 0.21746
 C312 C 0.29296 0.76999 0.26656
 C313 C 0.30623 0.78524 0.27991
 C314 C 0.26884 0.80022 0.29480
 C315 C 0.25640 0.78465 0.28117
 N316 N 0.26852 0.76977 0.26766
 H317 H 0.19668 0.75189 0.24381
 H318 H 0.25807 0.78396 0.21527
 H319 H 0.23242 0.80725 0.18968
 H320 H 0.16979 0.77399 0.21850
 H321 H 0.30229 0.75854 0.25502
 H322 H 0.32553 0.78510 0.27734
 H323 H 0.25802 0.81070 0.30613
 H324 H 0.23689 0.78421 0.28158
 C325 C 0.20500 0.70290 0.29892
 C326 C 0.29863 0.70481 0.20163
 C327 C 0.29443 0.80093 0.29467
 C328 C 0.19894 0.79236 0.20184
 N329 N 1.04223 0.02363 0.02752
 N330 N 1.05796 0.03958 0.03124
 N331 N 1.02556 -0.02239 0.04491
 N332 N 1.02954 -0.03788 0.06100
 N333 N 1.04237 -0.02258 0.02831
 N334 N 1.05826 -0.03819 0.03266
 N335 N 1.02540 0.02381 0.04411
 N336 N 1.02923 0.03989 0.05958
 C337 C 1.04956 0.04968 0.05124
 C338 C 1.04994 -0.04770 0.05304
 N339 N 0.95700 -0.02305 0.02786
 N340 N 0.94137 -0.03904 0.03186
 N341 N 0.97345 0.02352 0.04383
 N342 N 0.96949 0.03972 0.05910
 N343 N 0.95681 0.02316 0.02708
 N344 N 0.94107 0.03910 0.03048
 N345 N 0.97363 -0.02269 0.04463
 N346 N 0.96977 -0.03842 0.06050
 Mn347 Mn 0.99950 0.00057 0.04464
 C348 C 0.94963 -0.04856 0.05224
 C349 C 0.94928 0.04937 0.05047
 N350 N 1.04267 -0.02333 -0.02341
 N351 N 1.05868 -0.03898 -0.02708
 N352 N 1.02590 0.02258 -0.04094
 N353 N 1.02988 0.03829 -0.05681
 N354 N 1.04251 0.02287 -0.02415
 N355 N 1.05822 0.03878 -0.02812
 N356 N 1.02607 -0.02365 -0.04021
 N357 N 1.03035 -0.03954 -0.05577
 Mn358 Mn 1.04271 0.00014 0.00207
 C359 C 1.05069 -0.04907 -0.04726
 C360 C 1.05005 0.04834 -0.04850
 N361 N 0.95709 0.02241 -0.02459
 N362 N 0.94134 0.03818 -0.02869
 N363 N 0.97406 -0.02393 -0.04048
 N364 N 0.97003 -0.03981 -0.05614
 N365 N 0.95727 -0.02379 -0.02385
 N366 N 0.94136 -0.03956 -0.02775
 N367 N 0.97390 0.02230 -0.04120
 N368 N 0.97002 0.03800 -0.05708
 Mn369 Mn 0.95678 -0.00033 0.00162
 Mn370 Mn 0.99998 -0.00068 -0.04099
 Cl371 Cl 0.99974 -0.00008 0.00183
 C372 C 0.94969 0.04786 -0.04897
 C373 C 0.94963 -0.04953 -0.04788
 N374 N 1.04268 0.52323 0.52772
 N375 N 1.05884 0.53875 0.53188
 N376 N 1.02571 0.47720 0.54492
 N377 N 1.02977 0.46176 0.56107
 N378 N 1.04255 0.47703 0.52834
 N379 N 1.05849 0.46148 0.53273
 N380 N 1.02584 0.52342 0.54430
 N381 N 1.03010 0.53907 0.56019
 C382 C 1.05066 0.54861 0.55211
 C383 C 1.05021 0.45198 0.55314
 N384 N 0.95709 0.47703 0.52774
 N385 N 0.94096 0.46152 0.53197
 N386 N 0.97383 0.52342 0.54394
 N387 N 0.96939 0.53904 0.55979
 N388 N 0.95725 0.52324 0.52711
 N389 N 0.94108 0.53871 0.53107
 N390 N 0.97369 0.47721 0.54455
 N391 N 0.96928 0.46181 0.56068
 Mn392 Mn 0.99977 0.50031 0.54469
 C393 C 0.94888 0.45205 0.55250
 C394 C 0.94898 0.54856 0.55144
 N395 N 1.04297 0.47639 0.47663
 N396 N 1.05922 0.46100 0.47263
 N397 N 1.02651 0.52235 0.45913
 N398 N 1.03123 0.53736 0.44266
 N399 N 1.04309 0.52258 0.47596
 N400 N 1.05953 0.53774 0.47138
 N401 N 1.02637 0.47615 0.45982
 N402 N 1.03091 0.46058 0.44392
 Mn403 Mn 1.04307 0.49982 0.50217
 C404 C 1.05137 0.45114 0.45226
 C405 C 1.05178 0.54697 0.45065
 N406 N 0.95766 0.52261 0.47535
 N407 N 0.94166 0.53808 0.47080
 N408 N 0.97434 0.47616 0.45945
 N409 N 0.97001 0.46058 0.44352
 N410 N 0.95748 0.47641 0.47601
 N411 N 0.94124 0.46099 0.47179
 N412 N 0.97451 0.52238 0.45878
 N413 N 0.97042 0.53769 0.44251
 Mn414 Mn 0.95712 0.49983 0.50155
 Mn415 Mn 1.00043 0.49925 0.45904
 Cl416 Cl 1.00010 0.49981 0.50186
 C417 C 0.94994 0.54747 0.45034
 C418 C 0.94938 0.45112 0.45156
 N419 N 0.47402 -0.02321 0.54059
 N420 N 0.45781 -0.02798 0.55720
 N421 N 0.52467 -0.03840 0.52390
 N422 N 0.54075 -0.05376 0.52857
 N423 N 0.52470 -0.02336 0.54082
 N424 N 0.54080 -0.02814 0.55749
 N425 N 0.47401 -0.03825 0.52366
 N426 N 0.45780 -0.05359 0.52828
 C427 C 0.44762 -0.04686 0.54913
 C428 C 0.55088 -0.04705 0.54946
 N429 N 0.52516 -0.02276 0.45551
 N430 N 0.54139 -0.02734 0.43889
 N431 N 0.47429 -0.03788 0.47190
 N432 N 0.45799 -0.05305 0.46693
 N433 N 0.47449 -0.02260 0.45526
 N434 N 0.45834 -0.02701 0.43850
 N435 N 0.52496 -0.03804 0.47216
 N436 N 0.54104 -0.05336 0.46733
 Mn437 Mn 0.49948 -0.03832 0.49790
 C438 C 0.55136 -0.04637 0.44665
 C439 C 0.44799 -0.04595 0.44617
 N440 N 0.52499 0.02416 0.54123
 N441 N 0.54115 0.02865 0.55796
 N442 N 0.47448 0.03953 0.52429
 N443 N 0.45820 0.05472 0.52894
 N444 N 0.47430 0.02428 0.54097
 N445 N 0.45788 0.02875 0.55746
 N446 N 0.52514 0.03941 0.52455
 N447 N 0.54142 0.05461 0.52945
 Mn448 Mn 0.49950 0.00047 0.54115
 C449 C 0.55147 0.04759 0.55021
 C450 C 0.44779 0.04769 0.54956
 N451 N 0.47477 0.02487 0.45566
 N452 N 0.45861 0.02958 0.43903
 N453 N 0.52544 0.03977 0.47285
 N454 N 0.54181 0.05500 0.46838
 N455 N 0.52547 0.02473 0.45593
 N456 N 0.54186 0.02937 0.43947
 N457 N 0.47477 0.03990 0.47258
 N458 N 0.45861 0.05520 0.46794
 Mn459 Mn 0.49998 0.00106 0.45535
 Mn460 Mn 0.49996 0.03983 0.49857
 Cl461 Cl 0.49973 0.00076 0.49825
 C462 C 0.44847 0.04845 0.44708
 C463 C 0.55211 0.04820 0.44763
 N464 N 0.54264 0.52302 0.02471
 N465 N 0.55871 0.53852 0.02927
 N466 N 0.52604 0.47656 0.04093
 N467 N 0.53031 0.46101 0.05687
 N468 N 0.54288 0.47679 0.02434
 N469 N 0.55906 0.46139 0.02857
 N470 N 0.52582 0.52276 0.04132
 N471 N 0.52998 0.53809 0.05759
 C472 C 0.55047 0.54791 0.04975
 C473 C 0.55089 0.45156 0.04884
 N474 N 0.45732 0.47625 0.02419
 N475 N 0.44113 0.46079 0.02848
 N476 N 0.47387 0.52243 0.04123
 N477 N 0.46940 0.53759 0.05758
 N478 N 0.45713 0.52247 0.02457
 N479 N 0.44080 0.53767 0.02916
 N480 N 0.47407 0.47623 0.04085
 N481 N 0.46973 0.46076 0.05690
 Mn482 Mn 0.49995 0.49949 0.04132
 C483 C 0.44921 0.45113 0.04886
 C484 C 0.44880 0.54710 0.04973
 N485 N 0.54299 0.47710 -0.02743
 N486 N 0.55914 0.46168 -0.03169
 N487 N 0.52605 0.52329 -0.04381
 N488 N 0.53036 0.53881 -0.05982
 N489 N 0.54276 0.52332 -0.02711
 N490 N 0.55889 0.53886 -0.03133
 N491 N 0.52628 0.47706 -0.04413
 N492 N 0.53063 0.46162 -0.06021
 Mn493 Mn 0.54308 0.50007 -0.00137
 C494 C 0.55111 0.45204 -0.05213
 C495 C 0.55082 0.54851 -0.05171
 N496 N 0.45726 0.52279 -0.02725
 N497 N 0.44106 0.53818 -0.03147
 N498 N 0.47424 0.47675 -0.04422
 N499 N 0.47008 0.46129 -0.06035
 N500 N 0.45745 0.47658 -0.02758
 N501 N 0.44143 0.46100 -0.03195
 N502 N 0.47404 0.52297 -0.04390
 N503 N 0.46970 0.53849 -0.05988
 Mn504 Mn 0.45703 0.49953 -0.00152
 Mn505 Mn 0.50015 0.50002 -0.04427
 Cl506 Cl 0.50005 0.49978 -0.00147
 C507 C 0.44915 0.54796 -0.05180
 C508 C 0.44962 0.45148 -0.05237
 C509 C 1.14596 0.17615 0.17670
 C510 C 1.15192 0.17299 0.15253
 C511 C 1.17246 0.18315 0.14296
 C512 C 1.18714 0.19624 0.15757
 C513 C 1.18146 0.19931 0.18198
 C514 C 1.16060 0.18923 0.19133
 C515 C 1.13742 0.15867 0.13784
 C516 C 1.12545 0.14628 0.12585
 C517 C 1.11166 0.13131 0.11218
 C518 C 1.10011 0.11812 0.10080
 C519 C 1.08666 0.10188 0.08758
 C520 C 1.09584 0.09346 0.06606
 C521 C 1.08351 0.07672 0.05395
 C522 C 1.06186 0.06819 0.06329
 C523 C 1.05252 0.07704 0.08468
 C524 C 1.06488 0.09377 0.09676
 H525 H 1.13019 0.16825 0.18433
 H526 H 1.17723 0.18080 0.12426
 H527 H 1.20290 0.20399 0.14977
 H528 H 1.15592 0.19102 0.21011
 H529 H 1.11271 0.09958 0.05883
 H530 H 1.09110 0.07024 0.03749
 H531 H 1.03587 0.07079 0.09227
 H532 H 1.05764 0.10014 0.11345
 C533 C 1.15020 0.67082 0.68073
 C534 C 1.15571 0.66830 0.65637
 C535 C 1.17559 0.67935 0.64658
 C536 C 1.18998 0.69278 0.66112
 C537 C 1.18465 0.69535 0.68568
 C538 C 1.16454 0.68425 0.69530
 C539 C 1.14122 0.65404 0.64158
 C540 C 1.12915 0.64184 0.62943
 C541 C 1.11513 0.62724 0.61548
 C542 C 1.10331 0.61447 0.60380
 C543 C 1.08943 0.59881 0.59015
 C544 C 1.09837 0.59070 0.56838
 C545 C 1.08551 0.57464 0.55573
 C546 C 1.06356 0.56647 0.56476
 C547 C 1.05449 0.57499 0.58642
 C548 C 1.06738 0.59105 0.59905
 H549 H 1.13493 0.66226 0.68853
 H550 H 1.18001 0.67752 0.62773
 H551 H 1.20514 0.70132 0.65311
 H552 H 1.16016 0.68563 0.71419
 H553 H 1.11544 0.59656 0.56135
 H554 H 1.09292 0.56839 0.53908
 H555 H 1.03762 0.56901 0.59379
 H556 H 1.06031 0.59719 0.61590
 C557 C 0.68910 0.14947 0.66844
 C558 C 0.66720 0.15567 0.65801
 C559 C 0.65833 0.17694 0.66162
 C560 C 0.67126 0.19195 0.67565
 C561 C 0.69329 0.18587 0.68626
 C562 C 0.70208 0.16446 0.68246
 C563 C 0.65373 0.14020 0.64372
 C564 C 0.64224 0.12740 0.63176
 C565 C 0.62847 0.11268 0.61772
 C566 C 0.61635 0.10044 0.60567
 C567 C 0.60136 0.08635 0.59119
 C568 C 0.59422 0.09322 0.56830
 C569 C 0.57844 0.08029 0.55472
 C570 C 0.56956 0.06033 0.56390
 C571 C 0.57724 0.05326 0.58667
 C572 C 0.59304 0.06624 0.60026
 H573 H 0.69610 0.13303 0.66583
 H574 H 0.64141 0.18193 0.65358
 H575 H 0.66416 0.20838 0.67799
 H576 H 0.71880 0.15918 0.69065
 H577 H 0.60053 0.10876 0.56111
 H578 H 0.57286 0.08614 0.53722
 H579 H 0.57067 0.03796 0.59418
 H580 H 0.59842 0.06079 0.61798
 C581 C 0.67278 0.65473 0.17308
 C582 C 0.65491 0.66432 0.15880
 C583 C 0.65158 0.68712 0.15933
 C584 C 0.66615 0.70029 0.17399
 C585 C 0.68428 0.69080 0.18829
 C586 C 0.68737 0.66785 0.18772
 C587 C 0.64017 0.65070 0.14354
 C588 C 0.62807 0.63899 0.13086
 C589 C 0.61416 0.62489 0.11621
 C590 C 0.60248 0.61250 0.10391
 C591 C 0.58876 0.59725 0.08957
 C592 C 0.56658 0.58933 0.09794
 C593 C 0.55386 0.57357 0.08472
 C594 C 0.56322 0.56552 0.06296
 C595 C 0.58529 0.57387 0.05444
 C596 C 0.59799 0.58963 0.06770
 H597 H 0.67546 0.63709 0.17287
 H598 H 0.63783 0.69472 0.14831
 H599 H 0.66352 0.71792 0.17380
 H600 H 0.70093 0.66003 0.19875
 H601 H 0.55928 0.59508 0.11486
 H602 H 0.53689 0.56745 0.09170
 H603 H 0.59292 0.56797 0.03774
 H604 H 0.61517 0.59562 0.06108
 C605 C 0.85755 -0.18445 0.17203
 C606 C 0.84721 -0.17142 0.15410
 C607 C 0.82222 -0.17182 0.15058
 C608 C 0.80759 -0.18504 0.16506
 C609 C 0.81777 -0.19804 0.18331
 C610 C 0.84294 -0.19769 0.18656
 C611 C 0.86206 -0.15709 0.13979
 C612 C 0.87419 -0.14471 0.12796
 C613 C 0.88804 -0.12976 0.11432
 C614 C 0.89954 -0.11661 0.10287
 C615 C 0.91288 -0.10042 0.08946
 C616 C 0.90380 -0.09255 0.06766
 C617 C 0.91601 -0.07591 0.05529
 C618 C 0.93742 -0.06693 0.06464
 C619 C 0.94666 -0.07521 0.08633
 C620 C 0.93442 -0.09185 0.09867
 H621 H 0.87688 -0.18426 0.17490
 H622 H 0.81402 -0.16170 0.13683
 H623 H 0.78826 -0.18470 0.16234
 H624 H 0.85133 -0.20771 0.20026
 H625 H 0.88710 -0.09904 0.06040
 H626 H 0.90850 -0.06987 0.03860
 H627 H 0.96313 -0.06861 0.09392
 H628 H 0.94157 -0.09779 0.11556
 C629 C 0.85300 0.32341 0.67741
 C630 C 0.84361 0.33215 0.65626
 C631 C 0.81997 0.32722 0.64961
 C632 C 0.80563 0.31370 0.66409
 C633 C 0.81458 0.30463 0.68586
 C634 C 0.83882 0.30987 0.69199
 C635 C 0.85811 0.34656 0.64166
 C636 C 0.87021 0.35885 0.62965
 C637 C 0.88426 0.37353 0.61584
 C638 C 0.89611 0.38634 0.60426
 C639 C 0.91001 0.40202 0.59067
 C640 C 0.90135 0.40977 0.56864
 C641 C 0.91424 0.42579 0.55598
 C642 C 0.93594 0.43429 0.56525
 C643 C 0.94472 0.42615 0.58718
 C644 C 0.93180 0.41012 0.59982
 H645 H 0.87126 0.32736 0.68289
 H646 H 0.81256 0.33376 0.63309
 H647 H 0.78792 0.30982 0.65722
 H648 H 0.84693 0.30472 0.70867
 H649 H 0.88449 0.40363 0.56140
 H650 H 0.90706 0.43174 0.53911
 H651 H 0.96139 0.43238 0.59474
 H652 H 0.93864 0.40425 0.61687
 C653 C 0.31101 -0.14919 0.66794
 C654 C 0.33258 -0.15561 0.65697
 C655 C 0.34126 -0.17697 0.66031
 C656 C 0.32848 -0.19186 0.67464
 C657 C 0.30679 -0.18556 0.68580
 C658 C 0.29818 -0.16405 0.68225
 C659 C 0.34594 -0.14024 0.64243
 C660 C 0.35734 -0.12750 0.63031
 C661 C 0.37102 -0.11279 0.61615
 C662 C 0.38306 -0.10051 0.60408
 C663 C 0.39796 -0.08626 0.58968
 C664 C 0.40532 -0.09301 0.56680
 C665 C 0.42102 -0.07988 0.55334
 C666 C 0.42960 -0.05984 0.56263
 C667 C 0.42168 -0.05292 0.58540
 C668 C 0.40597 -0.06609 0.59886
 H669 H 0.30417 -0.13267 0.66554
 H670 H 0.35792 -0.18213 0.65186
 H671 H 0.33542 -0.20837 0.67676
 H672 H 0.28173 -0.15860 0.69086
 H673 H 0.39926 -0.10860 0.55953
 H674 H 0.42679 -0.08563 0.53585
 H675 H 0.42800 -0.03756 0.59300
 H676 H 0.40042 -0.06072 0.61657
 C677 C 0.34927 0.31203 0.15947
 C678 C 0.34323 0.33409 0.15569
 C679 C 0.32269 0.34286 0.16667
 C680 C 0.30822 0.32967 0.18136
 C681 C 0.31410 0.30747 0.18529
 C682 C 0.33482 0.29880 0.17418
 C683 C 0.35810 0.34782 0.14066
 C684 C 0.37035 0.35963 0.12822
 C685 C 0.38447 0.37382 0.11387
 C686 C 0.39634 0.38629 0.10185
 C687 C 0.41028 0.40162 0.08781
 C688 C 0.43244 0.40936 0.09645
 C689 C 0.44537 0.42517 0.08351
 C690 C 0.43625 0.43346 0.06178
 C691 C 0.41421 0.42530 0.05299
 C692 C 0.40129 0.40948 0.06596
 H693 H 0.36511 0.30506 0.15102
 H694 H 0.31790 0.35994 0.16395
 H695 H 0.29260 0.33693 0.18991
 H696 H 0.33967 0.28171 0.17661
 H697 H 0.43954 0.40342 0.11336
 H698 H 0.46231 0.43114 0.09070
 H699 H 0.40676 0.43138 0.03629
 H700 H 0.38414 0.40364 0.05913
 C701 C 0.84247 0.16217 -0.17671
 C702 C 0.84573 0.16774 -0.15255
 C703 C 0.83409 0.18620 -0.14305
 C704 C 0.81913 0.19898 -0.15765
 C705 C 0.81557 0.19338 -0.18192
 C706 C 0.82752 0.17489 -0.19131
 C707 C 0.86061 0.15413 -0.13753
 C708 C 0.87289 0.14225 -0.12531
 C709 C 0.88699 0.12779 -0.11140
 C710 C 0.89874 0.11498 -0.09981
 C711 C 0.91236 0.09913 -0.08631
 C712 C 0.90340 0.09119 -0.06447
 C713 C 0.91581 0.07477 -0.05206
 C714 C 0.93733 0.06606 -0.06141
 C715 C 0.94647 0.07443 -0.08312
 C716 C 0.93402 0.09085 -0.09551
 H717 H 0.85142 0.14794 -0.18426
 H718 H 0.83642 0.19060 -0.12434
 H719 H 0.80999 0.21298 -0.14985
 H720 H 0.82546 0.17035 -0.21000
 H721 H 0.88662 0.09744 -0.05722
 H722 H 0.90838 0.06866 -0.03535
 H723 H 0.96302 0.06804 -0.09072
 H724 H 0.94108 0.09684 -0.11244
 C725 C 0.83842 0.68586 0.35173
 C726 C 0.84536 0.66503 0.34365
 C727 C 0.83772 0.65759 0.32111
 C728 C 0.82317 0.67089 0.30671
 C729 C 0.81602 0.69184 0.31468
 C730 C 0.82385 0.69920 0.33735
 C731 C 0.86006 0.65112 0.35853
 C732 C 0.87222 0.63921 0.37084
 C733 C 0.88624 0.62491 0.38506
 C734 C 0.89800 0.61238 0.39702
 C735 C 0.91173 0.59699 0.41106
 C736 C 0.93369 0.58893 0.40234
 C737 C 0.94640 0.57309 0.41537
 C738 C 0.93725 0.56510 0.43724
 C739 C 0.91540 0.57358 0.44608
 C740 C 0.90272 0.58942 0.43304
 H741 H 0.84426 0.69180 0.36914
 H742 H 0.84290 0.64145 0.31472
 H743 H 0.81719 0.66463 0.28950
 H744 H 0.81892 0.71535 0.34386
 H745 H 0.94080 0.59466 0.38533
 H746 H 0.96319 0.56687 0.40814
 H747 H 0.90794 0.56774 0.46289
 H748 H 0.88572 0.59551 0.43993
 C749 C 0.32937 0.17774 0.34726
 C750 C 0.33166 0.15586 0.34017
 C751 C 0.32088 0.14880 0.31891
 C752 C 0.30782 0.16351 0.30472
 C753 C 0.30514 0.18594 0.31139
 C754 C 0.31637 0.19259 0.33318
 C755 C 0.34537 0.14071 0.35457
 C756 C 0.35705 0.12814 0.36657
 C757 C 0.37103 0.11363 0.38057
 C758 C 0.38330 0.10150 0.39252
 C759 C 0.39845 0.08743 0.40678
 C760 C 0.40653 0.06734 0.39756
 C761 C 0.42239 0.05432 0.41091
 C762 C 0.43039 0.06132 0.43363
 C763 C 0.42178 0.08130 0.44296
 C764 C 0.40593 0.09427 0.42960
 H765 H 0.33752 0.18336 0.36387
 H766 H 0.32280 0.13189 0.31308
 H767 H 0.30107 0.15708 0.28794
 H768 H 0.31444 0.20895 0.34042
 H769 H 0.40088 0.06190 0.37990
 H770 H 0.42873 0.03901 0.40329
 H771 H 0.42762 0.08710 0.46041
 H772 H 0.39982 0.10980 0.43691
 C773 C 0.31925 0.66026 -0.16102
 C774 C 0.34310 0.66636 -0.15614
 C775 C 0.35239 0.68591 -0.16569
 C776 C 0.33791 0.69927 -0.18016
 C777 C 0.31393 0.69320 -0.18529
 C778 C 0.30476 0.67357 -0.17548
 C779 C 0.35806 0.65237 -0.14158
 C780 C 0.37037 0.64035 -0.12953
 C781 C 0.38454 0.62592 -0.11559
 C782 C 0.39641 0.61327 -0.10388
 C783 C 0.41031 0.59775 -0.09014
 C784 C 0.40138 0.58971 -0.06831
 C785 C 0.41425 0.57378 -0.05557
 C786 C 0.43621 0.56567 -0.06456
 C787 C 0.44526 0.57412 -0.08627
 C788 C 0.43236 0.59005 -0.09899
 H789 H 0.31186 0.64519 -0.15368
 H790 H 0.37086 0.69076 -0.16210
 H791 H 0.34558 0.71414 -0.18765
 H792 H 0.28629 0.66860 -0.17879
 H793 H 0.38431 0.59552 -0.06131
 H794 H 0.40685 0.56759 -0.03889
 H795 H 0.46213 0.56819 -0.09361
 H796 H 0.43943 0.59613 -0.11588
 C797 C 1.14932 -0.18791 -0.15833
 C798 C 1.15823 -0.16843 -0.14826
 C799 C 1.18198 -0.16187 -0.15291
 C800 C 1.19670 -0.17457 -0.16781
 C801 C 1.18783 -0.19403 -0.17828
 C802 C 1.16403 -0.20066 -0.17322
 C803 C 1.14286 -0.15477 -0.13376
 C804 C 1.13020 -0.14290 -0.12189
 C805 C 1.11565 -0.12850 -0.10832
 C806 C 1.10352 -0.11577 -0.09699
 C807 C 1.08943 -0.10004 -0.08376
 C808 C 1.09800 -0.09176 -0.06191
 C809 C 1.08512 -0.07546 -0.04976
 C810 C 1.06352 -0.06721 -0.05937
 C811 C 1.05477 -0.07593 -0.08108
 C812 C 1.06769 -0.09224 -0.09321
 H813 H 1.13092 -0.19309 -0.15492
 H814 H 1.18907 -0.14683 -0.14519
 H815 H 1.21504 -0.16919 -0.17109
 H816 H 1.15659 -0.21541 -0.18124
 H817 H 1.11484 -0.09765 -0.05446
 H818 H 1.09226 -0.06907 -0.03305
 H819 H 1.03817 -0.06990 -0.08889
 H820 H 1.06092 -0.09849 -0.11015
 C821 C 1.15018 0.31489 0.33819
 C822 C 1.15981 0.33374 0.34900
 C823 C 1.18400 0.33933 0.34516
 C824 C 1.19849 0.32625 0.33041
 C825 C 1.18894 0.30737 0.31928
 C826 C 1.16464 0.30177 0.32344
 C827 C 1.14475 0.34763 0.36358
 C828 C 1.13221 0.35952 0.37556
 C829 C 1.11767 0.37377 0.38934
 C830 C 1.10545 0.38627 0.40091
 C831 C 1.09115 0.40161 0.41446
 C832 C 1.09957 0.40958 0.43651
 C833 C 1.08635 0.42540 0.44908
 C834 C 1.06457 0.43347 0.43969
 C835 C 1.05599 0.42508 0.41776
 C836 C 1.06924 0.40926 0.40521
 H837 H 1.13144 0.31046 0.34095
 H838 H 1.19165 0.35387 0.35347
 H839 H 1.21719 0.33084 0.32782
 H840 H 1.15666 0.28751 0.31488
 H841 H 1.11652 0.40381 0.44382
 H842 H 1.09338 0.43156 0.46594
 H843 H 1.03926 0.43099 0.41012
 H844 H 1.06258 0.40323 0.38814
 C845 C 0.67440 -0.17412 0.34864
 C846 C 0.66638 -0.15439 0.33852
 C847 C 0.67123 -0.14981 0.31437
 C848 C 0.68409 -0.16487 0.30039
 C849 C 0.69226 -0.18475 0.31040
 C850 C 0.68725 -0.18920 0.33470
 C851 C 0.65295 -0.13899 0.35286
 C852 C 0.64152 -0.12625 0.36490
 C853 C 0.62783 -0.11161 0.37905
 C854 C 0.61579 -0.09941 0.39117
 C855 C 0.60091 -0.08532 0.40570
 C856 C 0.59307 -0.06504 0.39679
 C857 C 0.57739 -0.05202 0.41038
 C858 C 0.56934 -0.05921 0.43301
 C859 C 0.57774 -0.07936 0.44204
 C860 C 0.59341 -0.09233 0.42844
 H861 H 0.67077 -0.17782 0.36733
 H862 H 0.66499 -0.13465 0.30632
 H863 H 0.68737 -0.16109 0.28168
 H864 H 0.69357 -0.20421 0.34301
 H865 H 0.59873 -0.05947 0.37919
 H866 H 0.57120 -0.03657 0.40299
 H867 H 0.57186 -0.08531 0.45942
 H868 H 0.59935 -0.10801 0.43550
 C869 C 0.64859 0.31371 -0.16525
 C870 C 0.65768 0.33336 -0.15573
 C871 C 0.68152 0.33958 -0.16054
 C872 C 0.69618 0.32631 -0.17490
 C873 C 0.68718 0.30660 -0.18469
 C874 C 0.66324 0.30039 -0.17961
 C875 C 0.64254 0.34736 -0.14135
 C876 C 0.63008 0.35940 -0.12944
 C877 C 0.61578 0.37387 -0.11567
 C878 C 0.60383 0.38656 -0.10406
 C879 C 0.58991 0.40213 -0.09040
 C880 C 0.59867 0.41002 -0.06845
 C881 C 0.58581 0.42600 -0.05575
 C882 C 0.56403 0.43430 -0.06490
 C883 C 0.55513 0.42601 -0.08675
 C884 C 0.56802 0.41003 -0.09943
 H885 H 0.63014 0.30877 -0.16171
 H886 H 0.68876 0.35473 -0.15322
 H887 H 0.71462 0.33139 -0.17817
 H888 H 0.65570 0.28545 -0.18710
 H889 H 0.61561 0.40405 -0.06131
 H890 H 0.59308 0.43207 -0.03895
 H891 H 0.53839 0.43210 -0.09422
 H892 H 0.56109 0.40407 -0.11642
 C893 C 1.16262 0.18832 -0.14512
 C894 C 1.15564 0.16724 -0.15230
 C895 C 1.16367 0.15890 -0.17423
 C896 C 1.17866 0.17149 -0.18898
 C897 C 1.18608 0.19288 -0.18212
 C898 C 1.17762 0.20104 -0.15983
 C899 C 1.14046 0.15394 -0.13718
 C900 C 1.12793 0.14228 -0.12490
 C901 C 1.11355 0.12802 -0.11092
 C902 C 1.10159 0.11534 -0.09930
 C903 C 1.08775 0.09961 -0.08576
 C904 C 1.06619 0.09118 -0.09513
 C905 C 1.05360 0.07478 -0.08275
 C906 C 1.06249 0.06659 -0.06089
 C907 C 1.08389 0.07547 -0.05136
 C908 C 1.09644 0.09187 -0.06376
 H909 H 1.15666 0.19487 -0.12803
 H910 H 1.15819 0.14263 -0.18006
 H911 H 1.18351 0.16452 -0.20617
 H912 H 1.18320 0.21690 -0.15302
 H913 H 1.05935 0.09702 -0.11219
 H914 H 1.03715 0.06825 -0.09049
 H915 H 1.09113 0.06949 -0.03454
 H916 H 1.11315 0.09823 -0.05639
 C917 C 1.16323 0.68370 0.34876
 C918 C 1.16076 0.66135 0.34333
 C919 C 1.17285 0.65251 0.32349
 C920 C 1.18731 0.66598 0.30908
 C921 C 1.18987 0.68849 0.31435
 C922 C 1.17769 0.69720 0.33438
 C923 C 1.14580 0.64747 0.35807
 C924 C 1.13331 0.63573 0.37034
 C925 C 1.11879 0.62180 0.38457
 C926 C 1.10654 0.60967 0.39660
 C927 C 1.09214 0.59483 0.41077
 C928 C 1.10056 0.58754 0.43307
 C929 C 1.08716 0.57227 0.44631
 C930 C 1.06520 0.56409 0.43735
 C931 C 1.05664 0.57181 0.41515
 C932 C 1.07007 0.58708 0.40193
 H933 H 1.15390 0.69071 0.36404
 H934 H 1.17112 0.63521 0.31918
 H935 H 1.19668 0.65874 0.29397
 H936 H 1.17903 0.71451 0.33872
 H937 H 1.11763 0.59342 0.44007
 H938 H 1.09418 0.56663 0.46337
 H939 H 1.03978 0.56579 0.40782
 H940 H 1.06340 0.59260 0.38467
 C941 C 0.67852 0.17514 0.35076
 C942 C 0.66905 0.15588 0.34070
 C943 C 0.67245 0.15154 0.31626
 C944 C 0.68528 0.16636 0.30192
 C945 C 0.69488 0.18578 0.31185
 C946 C 0.69135 0.19001 0.33645
 C947 C 0.65553 0.14073 0.35532
 C948 C 0.64397 0.12811 0.36744
 C949 C 0.63007 0.11353 0.38152
 C950 C 0.61781 0.10133 0.39348
 C951 C 0.60264 0.08719 0.40770
 C952 C 0.59451 0.06710 0.39839
 C953 C 0.57850 0.05406 0.41165
 C954 C 0.57041 0.06103 0.43433
 C955 C 0.57910 0.08098 0.44376
 C956 C 0.59510 0.09397 0.43050
 H957 H 0.67600 0.17867 0.36967
 H958 H 0.66508 0.13674 0.30825
 H959 H 0.68739 0.16278 0.28299
 H960 H 0.69877 0.20467 0.34469
 H961 H 0.60020 0.06171 0.38073
 H962 H 0.57210 0.03877 0.40395
 H963 H 0.57320 0.08675 0.46120
 H964 H 0.60124 0.10950 0.43786
 C965 C 0.66231 0.68798 -0.15027
 C966 C 0.65603 0.66680 -0.15773
 C967 C 0.66425 0.65900 -0.17984
 C968 C 0.67878 0.67222 -0.19443
 C969 C 0.68552 0.69371 -0.18724
 C970 C 0.67682 0.70132 -0.16480
 C971 C 0.64137 0.65291 -0.14267
 C972 C 0.62924 0.64095 -0.13028
 C973 C 0.61522 0.62657 -0.11604
 C974 C 0.60342 0.61394 -0.10415
 C975 C 0.58955 0.59843 -0.09028
 C976 C 0.56751 0.59055 -0.09907
 C977 C 0.55464 0.57459 -0.08627
 C978 C 0.56371 0.56628 -0.06453
 C979 C 0.58564 0.57457 -0.05559
 C980 C 0.59849 0.59053 -0.06842
 H981 H 0.65619 0.69413 -0.13305
 H982 H 0.65932 0.64267 -0.18591
 H983 H 0.68385 0.66563 -0.21173
 H984 H 0.68190 0.71720 -0.15771
 H985 H 0.56044 0.59651 -0.11599
 H986 H 0.53779 0.56853 -0.09358
 H987 H 0.59305 0.56848 -0.03888
 H988 H 0.61555 0.59648 -0.06147
 C989 C 0.83198 -0.18655 -0.14310
 C990 C 0.84388 -0.16806 -0.15230
 C991 C 0.84089 -0.16230 -0.17643
 C992 C 0.82598 -0.17488 -0.19130
 C993 C 0.81380 -0.19342 -0.18222
 C994 C 0.81705 -0.19919 -0.15796
 C995 C 0.85882 -0.15466 -0.13703
 C996 C 0.87120 -0.14297 -0.12461
 C997 C 0.88549 -0.12874 -0.11049
 C998 C 0.89745 -0.11612 -0.09877
 C999 C 0.91139 -0.10049 -0.08518
 C1000 C 0.93329 -0.09256 -0.09428
 C1001 C 0.94605 -0.07627 -0.08187
 C1002 C 0.93699 -0.06770 -0.06023
 C1003 C 0.91525 -0.07609 -0.05095
 C1004 C 0.90252 -0.09237 -0.06339
 H1005 H 0.83410 -0.19110 -0.12441
 H1006 H 0.85005 -0.14805 -0.18376
 H1007 H 0.82414 -0.17021 -0.20997
 H1008 H 0.80773 -0.21323 -0.15039
 H1009 H 0.94028 -0.09868 -0.11117
 H1010 H 0.96276 -0.07013 -0.08942
 H1011 H 0.90786 -0.06981 -0.03430
 H1012 H 0.88555 -0.09835 -0.05621
 C1013 C 0.83194 0.31529 0.35424
 C1014 C 0.84214 0.33472 0.34536
 C1015 C 0.83768 0.34111 0.32165
 C1016 C 0.82308 0.32816 0.30684
 C1017 C 0.81271 0.30859 0.31558
 C1018 C 0.81733 0.30228 0.33945
 C1019 C 0.85702 0.34827 0.36055
 C1020 C 0.86941 0.35994 0.37300
 C1021 C 0.88377 0.37399 0.38726
 C1022 C 0.89586 0.38636 0.39917
 C1023 C 0.91003 0.40161 0.41306
 C1024 C 0.93218 0.40920 0.40424
 C1025 C 0.94529 0.42500 0.41704
 C1026 C 0.93633 0.43343 0.43879
 C1027 C 0.91430 0.42539 0.44776
 C1028 C 0.90122 0.40959 0.43494
 H1029 H 0.83520 0.31023 0.37260
 H1030 H 0.84552 0.35611 0.31458
 H1031 H 0.82016 0.33330 0.28846
 H1032 H 0.80939 0.28745 0.34678
 H1033 H 0.93915 0.40317 0.38730
 H1034 H 0.96221 0.43088 0.40971
 H1035 H 0.90697 0.43157 0.46448
 H1036 H 0.88407 0.40386 0.44191
 C1037 C 0.30896 -0.14952 0.33116
 C1038 C 0.33323 -0.15308 0.33636
 C1039 C 0.34465 -0.17182 0.32757
 C1040 C 0.33191 -0.18705 0.31367
 C1041 C 0.30711 -0.18400 0.30813
 C1042 C 0.29605 -0.16466 0.31730
 C1043 C 0.34644 -0.13762 0.35090
 C1044 C 0.35774 -0.12491 0.36314
 C1045 C 0.37134 -0.11035 0.37754
 C1046 C 0.38334 -0.09827 0.38989
 C1047 C 0.39822 -0.08433 0.40465
 C1048 C 0.40542 -0.09151 0.42741
 C1049 C 0.42115 -0.07872 0.44120
 C1050 C 0.42992 -0.05859 0.43235
 C1051 C 0.42216 -0.05122 0.40971
 C1052 C 0.40641 -0.06406 0.39592
 H1053 H 0.29998 -0.13488 0.33770
 H1054 H 0.36345 -0.17486 0.33172
 H1055 H 0.34164 -0.20167 0.30857
 H1056 H 0.27769 -0.16025 0.31308
 H1057 H 0.39921 -0.10719 0.43431
 H1058 H 0.42681 -0.08480 0.45858
 H1059 H 0.42863 -0.03578 0.40245
 H1060 H 0.40099 -0.05837 0.37831
 C1061 C 0.34090 0.33799 -0.18202
 C1062 C 0.34451 0.33275 -0.15782
 C1063 C 0.33335 0.31414 -0.14802
 C1064 C 0.31854 0.30087 -0.16233
 C1065 C 0.31466 0.30609 -0.18665
 C1066 C 0.32609 0.32477 -0.19634
 C1067 C 0.35932 0.34674 -0.14303
 C1068 C 0.37155 0.35876 -0.13082
 C1069 C 0.38564 0.37321 -0.11676
 C1070 C 0.39745 0.38589 -0.10494
 C1071 C 0.41125 0.40145 -0.09108
 C1072 C 0.40232 0.40918 -0.06914
 C1073 C 0.41505 0.42519 -0.05628
 C1074 C 0.43687 0.43369 -0.06527
 C1075 C 0.44594 0.42555 -0.08711
 C1076 C 0.43318 0.40954 -0.09994
 H1077 H 0.34947 0.35234 -0.18980
 H1078 H 0.33594 0.30998 -0.12928
 H1079 H 0.30978 0.28676 -0.15426
 H1080 H 0.32375 0.32905 -0.21507
 H1081 H 0.38534 0.40307 -0.06214
 H1082 H 0.40765 0.43114 -0.03950
 H1083 H 0.46271 0.43178 -0.09445
 H1084 H 0.44023 0.40370 -0.11693
 C1085 C 1.17497 -0.17583 0.14837
 C1086 C 1.15349 -0.16731 0.15765
 C1087 C 1.14668 -0.17215 0.18127
 C1088 C 1.16137 -0.18538 0.19562
 C1089 C 1.18311 -0.19391 0.18651
 C1090 C 1.18970 -0.18905 0.16269
 C1091 C 1.13874 -0.15316 0.14313
 C1092 C 1.12660 -0.14104 0.13107
 C1093 C 1.11268 -0.12650 0.11710
 C1094 C 1.10105 -0.11374 0.10533
 C1095 C 1.08750 -0.09808 0.09152
 C1096 C 1.06563 -0.08994 0.10034
 C1097 C 1.05313 -0.07381 0.08757
 C1098 C 1.06242 -0.06560 0.06585
 C1099 C 1.08417 -0.07415 0.05689
 C1100 C 1.09665 -0.09029 0.06969
 H1101 H 1.18040 -0.17219 0.13010
 H1102 H 1.13014 -0.16553 0.18867
 H1103 H 1.15596 -0.18859 0.21397
 H1104 H 1.20615 -0.19561 0.15507
 H1105 H 1.05843 -0.09583 0.11725
 H1106 H 1.03640 -0.06753 0.09488
 H1107 H 1.09173 -0.06815 0.04019
 H1108 H 1.11359 -0.09645 0.06273
 C1109 C 1.17445 0.32145 0.64705
 C1110 C 1.15454 0.33218 0.65708
 C1111 C 1.14911 0.32930 0.68141
 C1112 C 1.16356 0.31581 0.69571
 C1113 C 1.18369 0.30501 0.68584
 C1114 C 1.18895 0.30795 0.66132
 C1115 C 1.13994 0.34649 0.64257
 C1116 C 1.12780 0.35872 0.63061
 C1117 C 1.11377 0.37336 0.61683
 C1118 C 1.10201 0.38616 0.60523
 C1119 C 1.08830 0.40183 0.59155
 C1120 C 1.06651 0.40999 0.60057
 C1121 C 1.05383 0.42605 0.58785
 C1122 C 1.06286 0.43417 0.56598
 C1123 C 1.08454 0.42561 0.55684
 C1124 C 1.09719 0.40955 0.56958
 H1125 H 1.17881 0.32356 0.62822
 H1126 H 1.13382 0.33762 0.68939
 H1127 H 1.15923 0.31413 0.71458
 H1128 H 1.20412 0.29966 0.65313
 H1129 H 1.05950 0.40415 0.61758
 H1130 H 1.03716 0.43234 0.59529
 H1131 H 1.09191 0.43154 0.54003
 H1132 H 1.11405 0.40337 0.56246
 C1133 C 0.68802 -0.14943 0.66690
 C1134 C 0.66619 -0.15578 0.65634
 C1135 C 0.65738 -0.17713 0.65986
 C1136 C 0.67029 -0.19205 0.67395
 C1137 C 0.69223 -0.18581 0.68471
 C1138 C 0.70097 -0.16432 0.68098
 C1139 C 0.65272 -0.14039 0.64204
 C1140 C 0.64124 -0.12763 0.63010
 C1141 C 0.62747 -0.11291 0.61613
 C1142 C 0.61537 -0.10063 0.60419
 C1143 C 0.60043 -0.08641 0.58989
 C1144 C 0.59242 -0.06630 0.59916
 C1145 C 0.57672 -0.05315 0.58576
 C1146 C 0.56882 -0.06003 0.56296
 C1147 C 0.57738 -0.08002 0.55359
 C1148 C 0.59306 -0.09312 0.56700
 H1149 H 0.69497 -0.13293 0.66436
 H1150 H 0.64053 -0.18224 0.65172
 H1151 H 0.66323 -0.20853 0.67622
 H1152 H 0.71762 -0.15892 0.68928
 H1153 H 0.59797 -0.06097 0.61688
 H1154 H 0.57041 -0.03784 0.59341
 H1155 H 0.57162 -0.08572 0.53608
 H1156 H 0.59913 -0.10865 0.55966
 C1157 C 0.67632 0.32360 0.14523
 C1158 C 0.65526 0.33300 0.15449
 C1159 C 0.64871 0.32910 0.17839
 C1160 C 0.66323 0.31598 0.19304
 C1161 C 0.68456 0.30660 0.18396
 C1162 C 0.69087 0.31048 0.15984
 C1163 C 0.64071 0.34708 0.13965
 C1164 C 0.62870 0.35913 0.12734
 C1165 C 0.61484 0.37357 0.11314
 C1166 C 0.60316 0.38622 0.10124
 C1167 C 0.58942 0.40173 0.08737
 C1168 C 0.56724 0.40935 0.09599
 C1169 C 0.55445 0.42528 0.08319
 C1170 C 0.56374 0.43382 0.06162
 C1171 C 0.58582 0.42580 0.05285
 C1172 C 0.59859 0.40986 0.06568
 H1173 H 0.68155 0.32649 0.12675
 H1174 H 0.63251 0.33639 0.18577
 H1175 H 0.65803 0.31352 0.21159
 H1176 H 0.70698 0.30326 0.15223
 H1177 H 0.55999 0.40319 0.11277
 H1178 H 0.53748 0.43114 0.09037
 H1179 H 0.59339 0.43208 0.03628
 H1180 H 0.61576 0.40411 0.05887
 C1181 C 0.85154 0.19355 0.15472
 C1182 C 0.84472 0.17186 0.14971
 C1183 C 0.82324 0.16343 0.15920
 C1184 C 0.80868 0.17656 0.17377
 C1185 C 0.81542 0.19834 0.17908
 C1186 C 0.83699 0.20673 0.16933
 C1187 C 0.85990 0.15798 0.13528
 C1188 C 0.87232 0.14586 0.12349
 C1189 C 0.88651 0.13109 0.11004
 C1190 C 0.89830 0.11800 0.09885
 C1191 C 0.91195 0.10180 0.08588
 C1192 C 0.90301 0.09320 0.06432
 C1193 C 0.91543 0.07640 0.05251
 C1194 C 0.93691 0.06797 0.06219
 C1195 C 0.94604 0.07700 0.08359
 C1196 C 0.93358 0.09380 0.09538
 H1197 H 0.86814 0.20023 0.14745
 H1198 H 0.81786 0.14663 0.15553
 H1199 H 0.79240 0.16951 0.18130
 H1200 H 0.84252 0.22350 0.17287
 H1201 H 0.88624 0.09923 0.05685
 H1202 H 0.90801 0.06977 0.03603
 H1203 H 0.96256 0.07084 0.09143
 H1204 H 0.94062 0.10030 0.11210
 C1205 C 0.82313 0.67871 0.64502
 C1206 C 0.84309 0.66789 0.65479
 C1207 C 0.84872 0.67064 0.67910
 C1208 C 0.83444 0.68409 0.69362
 C1209 C 0.81427 0.69500 0.68402
 C1210 C 0.80879 0.69218 0.65953
 C1211 C 0.85759 0.65364 0.64005
 C1212 C 0.86971 0.64147 0.62797
 C1213 C 0.88382 0.62691 0.61413
 C1214 C 0.89574 0.61418 0.60256
 C1215 C 0.90978 0.59859 0.58906
 C1216 C 0.93167 0.59086 0.59825
 C1217 C 0.94471 0.57485 0.58577
 C1218 C 0.93595 0.56637 0.56395
 C1219 C 0.91416 0.57451 0.55463
 C1220 C 0.90115 0.59051 0.56714
 H1221 H 0.81862 0.67671 0.62622
 H1222 H 0.86406 0.66225 0.68688
 H1223 H 0.83893 0.68566 0.71247
 H1224 H 0.79357 0.70056 0.65153
 H1225 H 0.93850 0.59697 0.61522
 H1226 H 0.96144 0.56890 0.59336
 H1227 H 0.90699 0.56828 0.53786
 H1228 H 0.88421 0.59635 0.55988
 C1229 C 0.31203 0.16662 0.64719
 C1230 C 0.33180 0.15540 0.65680
 C1231 C 0.33889 0.15936 0.68052
 C1232 C 0.32625 0.17446 0.69463
 C1233 C 0.30632 0.18582 0.68517
 C1234 C 0.29934 0.18173 0.66128
 C1235 C 0.34504 0.14001 0.64227
 C1236 C 0.35641 0.12726 0.63019
 C1237 C 0.37014 0.11259 0.61612
 C1238 C 0.38229 0.10039 0.60412
 C1239 C 0.39737 0.08632 0.58979
 C1240 C 0.40542 0.06619 0.59893
 C1241 C 0.42138 0.05325 0.58557
 C1242 C 0.42952 0.06038 0.56296
 C1243 C 0.42090 0.08037 0.55369
 C1244 C 0.40495 0.09325 0.56705
 H1245 H 0.30646 0.16376 0.62881
 H1246 H 0.35416 0.15075 0.68814
 H1247 H 0.33186 0.17700 0.71305
 H1248 H 0.28426 0.19040 0.65340
 H1249 H 0.39970 0.06068 0.61655
 H1250 H 0.42773 0.03793 0.59314
 H1251 H 0.42684 0.08627 0.53631
 H1252 H 0.39887 0.10882 0.55982
 C1253 C 0.35275 0.67334 0.17795
 C1254 C 0.34296 0.66310 0.15764
 C1255 C 0.31870 0.66641 0.15177
 C1256 C 0.30428 0.67992 0.16609
 C1257 C 0.31394 0.69033 0.18653
 C1258 C 0.33834 0.68686 0.19232
 C1259 C 0.35769 0.64907 0.14290
 C1260 C 0.36984 0.63717 0.13054
 C1261 C 0.38386 0.62301 0.11613
 C1262 C 0.39568 0.61067 0.10396
 C1263 C 0.40960 0.59558 0.08969
 C1264 C 0.40058 0.58790 0.06774
 C1265 C 0.41356 0.57241 0.05444
 C1266 C 0.43571 0.56440 0.06301
 C1267 C 0.44485 0.57249 0.08485
 C1268 C 0.43184 0.58797 0.09811
 H1269 H 0.37151 0.67090 0.18265
 H1270 H 0.31091 0.65848 0.13615
 H1271 H 0.28549 0.68199 0.16134
 H1272 H 0.34638 0.69484 0.20777
 H1273 H 0.38336 0.59366 0.06106
 H1274 H 0.40611 0.56648 0.03767
 H1275 H 0.46187 0.56662 0.09187
 H1276 H 0.43898 0.59378 0.11508
   
