data_POSCAR
  _audit_creation_date              2014-09-24
  _audit_creation_method            'ToBaCCo'
  _symmetry_space_group_name_H-M    'P1'
  _symmetry_Int_Tables_number       1
  _symmetry_cell_setting            triclinic
  loop_
  _symmetry_equiv_pos_as_xyz
 x,y,z
_cell_length_a 68.3141
_cell_length_b 68.1667
_cell_length_c 67.6556
_cell_angle_alpha 90.063700
_cell_angle_beta 89.988600
_cell_angle_gamma 89.572000
loop_
  _atom_site_label
  _atom_site_type_symbol
  _atom_site_fract_x
  _atom_site_fract_y
  _atom_site_fract_z
N1 N 0.35736 0.30285 0.31927
 N2 N 0.36322 0.31959 0.31179
 C3 C 0.37954 0.31647 0.30106
 C4 C 0.38409 0.29668 0.30181
 C5 C 0.36969 0.28847 0.31350
 H6 H 0.38761 0.32777 0.29344
 H7 H 0.36867 0.27334 0.31812
 Cu8 Cu 0.34916 0.34392 0.31683
 Cu9 Cu 0.33551 0.30132 0.33758
 Cu10 Cu 0.30720 0.34312 0.34295
 N11 N 0.32981 0.36484 0.31494
 N12 N 0.31297 0.36408 0.32430
 C13 C 0.30207 0.37985 0.31927
 C14 C 0.31277 0.39114 0.30622
 C15 C 0.33031 0.38116 0.30380
 H16 H 0.28751 0.38296 0.32479
 H17 H 0.34231 0.38512 0.29421
 N18 N 0.30253 0.31902 0.35829
 N19 N 0.31298 0.30286 0.35564
 C20 C 0.30726 0.28929 0.36880
 C21 C 0.29267 0.29733 0.38047
 C22 C 0.29007 0.31623 0.37347
 H23 H 0.31411 0.27506 0.37063
 H24 H 0.28030 0.32730 0.37945
 H25 H 0.32069 0.32416 0.32377
 H26 H 0.33460 0.33040 0.34678
 N27 N 0.36264 0.80962 -0.17081
 N28 N 0.36245 0.82103 -0.18646
 C29 C 0.37834 0.81676 -0.19765
 C30 C 0.38910 0.80208 -0.18824
 C31 C 0.37863 0.79809 -0.17122
 H32 H 0.38178 0.82368 -0.21159
 H33 H 0.38170 0.78682 -0.16043
 Cu34 Cu 0.34115 0.84012 -0.19017
 Cu35 Cu 0.34090 0.80784 -0.15249
 Cu36 Cu 0.30040 0.83695 -0.16209
 N37 N 0.31871 0.85778 -0.19415
 N38 N 0.30251 0.85530 -0.18399
 C39 C 0.28923 0.86888 -0.18943
 C40 C 0.29755 0.88097 -0.20353
 C41 C 0.31636 0.87347 -0.20616
 H42 H 0.27501 0.87050 -0.18263
 H43 H 0.32750 0.87915 -0.21592
 N44 N 0.30135 0.81782 -0.14029
 N45 N 0.31729 0.80767 -0.13597
 C46 C 0.31395 0.79688 -0.11969
 C47 C 0.29498 0.80026 -0.11350
 C48 C 0.28737 0.81365 -0.12688
 H49 H 0.32444 0.78703 -0.11290
 H50 H 0.27291 0.82017 -0.12660
 H51 H 0.32030 0.81674 -0.17307
 H52 H 0.32991 0.83613 -0.15614
 N53 N 0.86433 0.30927 -0.18041
 N54 N 0.86475 0.32477 -0.19193
 C55 C 0.87927 0.32242 -0.20529
 C56 C 0.88807 0.30431 -0.20206
 C57 C 0.87822 0.29644 -0.18616
 H58 H 0.88291 0.33286 -0.21671
 H59 H 0.88116 0.28252 -0.17907
 Cu60 Cu 0.84562 0.34605 -0.18890
 Cu61 Cu 0.84639 0.30685 -0.15841
 Cu62 Cu 0.80735 0.33883 -0.15785
 N63 N 0.82178 0.36201 -0.19015
 N64 N 0.80656 0.35821 -0.17892
 C65 C 0.79198 0.37085 -0.18324
 C66 C 0.79843 0.38354 -0.19781
 C67 C 0.81748 0.37750 -0.20180
 H68 H 0.77806 0.37121 -0.17567
 H69 H 0.82740 0.38383 -0.21245
 N70 N 0.81116 0.31840 -0.13761
 N71 N 0.82661 0.30670 -0.13745
 C72 C 0.82598 0.29528 -0.12126
 C73 C 0.80922 0.29994 -0.11077
 C74 C 0.80010 0.31457 -0.12160
 H75 H 0.83682 0.28429 -0.11747
 H76 H 0.78667 0.32217 -0.11779
 H77 H 0.82481 0.32104 -0.17500
 H78 H 0.83724 0.33615 -0.15544
 N79 N 0.85635 0.80656 0.32246
 N80 N 0.85677 0.82110 0.30972
 C81 C 0.87121 0.81763 0.29652
 C82 C 0.87999 0.79983 0.30117
 C83 C 0.87020 0.79328 0.31773
 H84 H 0.87503 0.82728 0.28447
 H85 H 0.87330 0.78015 0.32616
 Cu86 Cu 0.83819 0.84297 0.31170
 Cu87 Cu 0.83935 0.80680 0.34536
 Cu88 Cu 0.79779 0.83518 0.33957
 N89 N 0.81468 0.85923 0.30923
 N90 N 0.79870 0.85507 0.31914
 C91 C 0.78455 0.86800 0.31446
 C92 C 0.79203 0.88129 0.30102
 C93 C 0.81127 0.87526 0.29803
 H94 H 0.77022 0.86823 0.32121
 H95 H 0.82195 0.88205 0.28847
 N96 N 0.80021 0.81464 0.35982
 N97 N 0.81640 0.80433 0.36248
 C98 C 0.81418 0.79266 0.37833
 C99 C 0.79570 0.79580 0.38603
 C100 C 0.78722 0.80983 0.37395
 H101 H 0.82525 0.78273 0.38397
 H102 H 0.77299 0.81661 0.37581
 H103 H 0.81848 0.81724 0.32637
 H104 H 0.82701 0.83519 0.34534
 N105 N 0.63830 0.69036 0.32341
 N106 N 0.63844 0.67488 0.31181
 C107 C 0.62320 0.67605 0.29924
 C108 C 0.61311 0.69328 0.30314
 C109 C 0.62311 0.70201 0.31851
 H110 H 0.62006 0.66542 0.28782
 H111 H 0.61955 0.71581 0.32560
 Cu112 Cu 0.65895 0.65511 0.31328
 Cu113 Cu 0.65767 0.69425 0.34404
 Cu114 Cu 0.69847 0.66436 0.34146
 N115 N 0.68344 0.64091 0.30987
 N116 N 0.69897 0.64500 0.32049
 C117 C 0.71362 0.63269 0.31554
 C118 C 0.70688 0.62014 0.30104
 C119 C 0.68765 0.62577 0.29778
 H120 H 0.72780 0.63237 0.32260
 H121 H 0.67739 0.61905 0.28771
 N122 N 0.69507 0.68461 0.36178
 N123 N 0.67919 0.69563 0.36327
 C124 C 0.68047 0.70671 0.37972
 C125 C 0.69809 0.70241 0.38890
 C126 C 0.70697 0.68846 0.37708
 H127 H 0.66932 0.71687 0.38476
 H128 H 0.72075 0.68109 0.37993
 H129 H 0.67856 0.68171 0.32599
 H130 H 0.66838 0.66586 0.34620
 N131 N 0.63412 0.19195 -0.17980
 N132 N 0.63608 0.17793 -0.19304
 C133 C 0.62120 0.17934 -0.20611
 C134 C 0.60954 0.19523 -0.20076
 C135 C 0.61825 0.20285 -0.18409
 H136 H 0.61905 0.16964 -0.21857
 H137 H 0.61313 0.21524 -0.17548
 Cu138 Cu 0.65805 0.15941 -0.19173
 Cu139 Cu 0.65149 0.19484 -0.15738
 Cu140 Cu 0.68917 0.16118 -0.15303
 N141 N 0.67917 0.14017 -0.18841
 N142 N 0.69073 0.14074 -0.17290
 C143 C 0.70335 0.12555 -0.17355
 C144 C 0.69974 0.11484 -0.19053
 C145 C 0.68433 0.12463 -0.19970
 H146 H 0.71446 0.12276 -0.16253
 H147 H 0.67719 0.12048 -0.21333
 N148 N 0.68526 0.18290 -0.13435
 N149 N 0.67053 0.19544 -0.13568
 C150 C 0.67138 0.20808 -0.12038
 C151 C 0.68756 0.20332 -0.10908
 C152 C 0.69607 0.18739 -0.11838
 H153 H 0.66121 0.22003 -0.11783
 H154 H 0.70906 0.17955 -0.11365
 H155 H 0.67582 0.18217 -0.17053
 H156 H 0.65937 0.16550 -0.15627
 N157 N 0.13660 0.69349 -0.17874
 N158 N 0.13821 0.68104 -0.19352
 C159 C 0.12506 0.68590 -0.20756
 C160 C 0.11490 0.70242 -0.20127
 C161 C 0.12257 0.70678 -0.18289
 H162 H 0.12290 0.67794 -0.22122
 H163 H 0.11786 0.71830 -0.17292
 Cu164 Cu 0.15697 0.65938 -0.19246
 Cu165 Cu 0.15163 0.69045 -0.15457
 Cu166 Cu 0.19562 0.66622 -0.16231
 N167 N 0.17925 0.64143 -0.19242
 N168 N 0.19451 0.64444 -0.18099
 C169 C 0.20807 0.63046 -0.18453
 C170 C 0.20084 0.61789 -0.19883
 C171 C 0.18249 0.62527 -0.20345
 H172 H 0.22198 0.62939 -0.17696
 H173 H 0.17237 0.61944 -0.21423
 N174 N 0.19059 0.68331 -0.13919
 N175 N 0.17351 0.69189 -0.13599
 C176 C 0.17410 0.70165 -0.11874
 C177 C 0.19250 0.69908 -0.11056
 C178 C 0.20259 0.68740 -0.12394
 H179 H 0.16206 0.71016 -0.11278
 H180 H 0.21744 0.68196 -0.12247
 H181 H 0.17377 0.68466 -0.17343
 H182 H 0.16649 0.66330 -0.15788
 N183 N 0.13623 0.18928 0.32331
 N184 N 0.13551 0.17489 0.31040
 C185 C 0.11879 0.17619 0.30004
 C186 C 0.10858 0.19246 0.30659
 C187 C 0.12007 0.20056 0.32128
 H188 H 0.11460 0.16632 0.28828
 H189 H 0.11672 0.21342 0.33007
 Cu190 Cu 0.15685 0.15649 0.30757
 Cu191 Cu 0.15732 0.19109 0.34274
 Cu192 Cu 0.19235 0.15366 0.34137
 N193 N 0.17489 0.13465 0.30790
 N194 N 0.18935 0.13390 0.32069
 C195 C 0.20038 0.11788 0.31692
 C196 C 0.19217 0.10804 0.30110
 C197 C 0.17599 0.11906 0.29577
 H198 H 0.21336 0.11366 0.32507
 H199 H 0.16609 0.11627 0.28364
 N200 N 0.19263 0.17507 0.36101
 N201 N 0.17971 0.18960 0.36117
 C202 C 0.18367 0.20156 0.37649
 C203 C 0.19964 0.19408 0.38657
 C204 C 0.20500 0.17733 0.37632
 H205 H 0.17514 0.21437 0.38053
 H206 H 0.21688 0.16740 0.37988
 H207 H 0.17899 0.17682 0.32699
 H208 H 0.16289 0.16124 0.34261
 N209 N 0.63855 0.30110 0.68387
 N210 N 0.63411 0.31771 0.69275
 C211 C 0.61814 0.31511 0.70409
 C212 C 0.61230 0.29580 0.70231
 C213 C 0.62561 0.28732 0.68935
 H214 H 0.61122 0.32644 0.71291
 H215 H 0.62552 0.27245 0.68379
 Cu216 Cu 0.64950 0.34119 0.68860
 Cu217 Cu 0.65964 0.29921 0.66453
 Cu218 Cu 0.69043 0.33914 0.66074
 N219 N 0.66953 0.36118 0.69034
 N220 N 0.68563 0.36030 0.67971
 C221 C 0.69710 0.37559 0.68452
 C222 C 0.68761 0.38668 0.69883
 C223 C 0.67014 0.37706 0.70215
 H224 H 0.71133 0.37841 0.67815
 H225 H 0.65888 0.38100 0.71270
 N226 N 0.69272 0.31584 0.64342
 N227 N 0.68157 0.30025 0.64563
 C228 C 0.68657 0.28678 0.63192
 C229 C 0.70143 0.29428 0.62039
 C230 C 0.70492 0.31278 0.62801
 H231 H 0.67930 0.27290 0.62985
 H232 H 0.71544 0.32326 0.62260
 H233 H 0.67650 0.31984 0.67924
 H234 H 0.66223 0.32873 0.65732
 N235 N 0.64436 0.80556 1.17639
 N236 N 0.64214 0.82085 1.18807
 C237 C 0.62734 0.81748 1.20073
 C238 C 0.62002 0.79901 1.19689
 C239 C 0.63117 0.79184 1.18136
 H240 H 0.62223 0.82769 1.21187
 H241 H 0.62926 0.77808 1.17367
 Cu242 Cu 0.65887 0.84366 1.18605
 Cu243 Cu 0.66244 0.80549 1.15411
 Cu244 Cu 0.69187 0.84628 1.14965
 N245 N 0.68147 0.86081 1.18788
 N246 N 0.69480 0.86105 1.17389
 C247 C 0.70867 0.87412 1.17854
 C248 C 0.70374 0.88266 1.19641
 C249 C 0.68631 0.87397 1.20190
 H250 H 0.72090 0.87781 1.16912
 H251 H 0.67767 0.87719 1.21492
 N252 N 0.69181 0.82500 1.13025
 N253 N 0.68141 0.80892 1.13235
 C254 C 0.68504 0.79697 1.11687
 C255 C 0.69817 0.80615 1.10443
 C256 C 0.70219 0.82387 1.11341
 H257 H 0.67827 0.78287 1.11450
 H258 H 0.71213 0.83501 1.10824
 H259 H 0.68230 0.82396 1.16744
 H260 H 0.66326 0.83513 1.15104
 N261 N 0.13225 0.31528 1.17969
 N262 N 0.13327 0.32965 1.19260
 C263 C 0.11865 0.32798 1.20573
 C264 C 0.10781 0.31169 1.20087
 C265 C 0.11689 0.30381 1.18431
 H266 H 0.11593 0.33800 1.21783
 H267 H 0.11220 0.29124 1.17582
 Cu268 Cu 0.15273 0.35000 1.19046
 Cu269 Cu 0.14975 0.31447 1.15683
 Cu270 Cu 0.19272 0.34108 1.16318
 N271 N 0.17381 0.36866 1.18901
 N272 N 0.18998 0.36497 1.17910
 C273 C 0.20264 0.37980 1.18214
 C274 C 0.19360 0.39359 1.19424
 C275 C 0.17539 0.38597 1.19829
 H276 H 0.21721 0.38057 1.17593
 H277 H 0.16435 0.39230 1.20785
 N278 N 0.18924 0.32110 1.14217
 N279 N 0.17268 0.31158 1.13940
 C280 C 0.17422 0.30056 1.12295
 C281 C 0.19262 0.30324 1.11491
 C282 C 0.20180 0.31624 1.12755
 H283 H 0.16270 0.29142 1.11716
 H284 H 0.21624 0.32236 1.12571
 H285 H 0.17117 0.32303 1.17538
 H286 H 0.16351 0.34207 1.15712
 N287 N 0.14159 0.80357 0.67548
 N288 N 0.13793 0.81841 0.68738
 C289 C 0.12217 0.81409 0.69856
 C290 C 0.11585 0.79548 0.69348
 C291 C 0.12852 0.78931 0.67877
 H292 H 0.11586 0.82366 0.70966
 H293 H 0.12806 0.77560 0.67075
 Cu294 Cu 0.15433 0.84178 0.68730
 Cu295 Cu 0.16253 0.80385 0.65611
 Cu296 Cu 0.19554 0.84162 0.65940
 N297 N 0.17464 0.86157 0.69050
 N298 N 0.19082 0.86102 0.67997
 C299 C 0.20224 0.87615 0.68517
 C300 C 0.19275 0.88690 0.69964
 C301 C 0.17523 0.87722 0.70272
 H302 H 0.21631 0.87936 0.67864
 H303 H 0.16380 0.88121 0.71306
 N304 N 0.19767 0.82068 0.63940
 N305 N 0.18466 0.80658 0.63781
 C306 C 0.18931 0.79521 0.62219
 C307 C 0.20615 0.80238 0.61363
 C308 C 0.21109 0.81855 0.62492
 H309 H 0.18102 0.78266 0.61727
 H310 H 0.22320 0.82836 0.62242
 H311 H 0.18009 0.82052 0.67454
 H312 H 0.16680 0.83397 0.65436
 N313 N 0.36043 0.69146 0.67351
 N314 N 0.36098 0.67939 0.68866
 C315 C 0.37641 0.68392 0.70015
 C316 C 0.38615 0.69948 0.69164
 C317 C 0.37562 0.70389 0.67473
 H318 H 0.38053 0.67629 0.71355
 H319 H 0.37862 0.71543 0.66423
 Cu320 Cu 0.34198 0.65842 0.69153
 Cu321 Cu 0.33975 0.69050 0.65368
 Cu322 Cu 0.30556 0.65352 0.65847
 N323 N 0.32337 0.63698 0.69320
 N324 N 0.30885 0.63550 0.68054
 C325 C 0.29800 0.61978 0.68521
 C326 C 0.30626 0.61075 0.70152
 C327 C 0.32237 0.62205 0.70622
 H328 H 0.28519 0.61503 0.67718
 H329 H 0.33247 0.61966 0.71829
 N330 N 0.30466 0.67308 0.63705
 N331 N 0.31768 0.68717 0.63518
 C332 C 0.31311 0.69804 0.61917
 C333 C 0.29649 0.69038 0.61050
 C334 C 0.29154 0.67456 0.62225
 H335 H 0.32128 0.71058 0.61407
 H336 H 0.27928 0.66486 0.62022
 H337 H 0.31903 0.67745 0.67143
 H338 H 0.33487 0.66078 0.65629
 N339 N 0.36891 0.18706 1.18257
 N340 N 0.36764 0.17242 1.19512
 C341 C 0.38257 0.17352 1.20811
 C342 C 0.39364 0.18982 1.20344
 C343 C 0.38451 0.19806 1.18721
 H344 H 0.38493 0.16357 1.22033
 H345 H 0.38894 0.21111 1.17936
 Cu346 Cu 0.34568 0.15445 1.19360
 Cu347 Cu 0.35030 0.19087 1.16108
 Cu348 Cu 0.31022 0.15977 1.15966
 N349 N 0.32350 0.13675 1.19289
 N350 N 0.30924 0.13946 1.18008
 C351 C 0.29541 0.12579 1.18307
 C352 C 0.30139 0.11382 1.19849
 C353 C 0.31929 0.12116 1.20431
 H354 H 0.28223 0.12439 1.17434
 H355 H 0.32845 0.11557 1.21609
 N356 N 0.31433 0.18112 1.14029
 N357 N 0.32996 0.19241 1.14053
 C358 C 0.32943 0.20443 1.12478
 C359 C 0.31263 0.20066 1.11414
 C360 C 0.30330 0.18591 1.12444
 H361 H 0.34044 0.21519 1.12130
 H362 H 0.28980 0.17882 1.12029
 H363 H 0.32660 0.17911 1.17591
 H364 H 0.34018 0.16227 1.15895
 N365 N 0.85610 0.69943 1.17686
 N366 N 0.85892 0.68542 1.18994
 C367 C 0.87352 0.69069 1.20220
 C368 C 0.88007 0.70904 1.19660
 C369 C 0.86866 0.71412 1.18047
 H370 H 0.87914 0.68177 1.21417
 H371 H 0.87006 0.72708 1.17140
 Cu372 Cu 0.84340 0.66154 1.18990
 Cu373 Cu 0.83834 0.69669 1.15446
 Cu374 Cu 0.81217 0.65371 1.15280
 N375 N 0.82192 0.64285 1.19236
 N376 N 0.80910 0.64107 1.17803
 C377 C 0.79562 0.62780 1.18305
 C378 C 0.80023 0.62059 1.20150
 C379 C 0.81718 0.63028 1.20701
 H380 H 0.78385 0.62306 1.17352
 H381 H 0.82542 0.62828 1.22052
 N382 N 0.81093 0.67326 1.13194
 N383 N 0.81999 0.69024 1.13279
 C384 C 0.81527 0.70071 1.11653
 C385 C 0.80277 0.68958 1.10498
 C386 C 0.80032 0.67233 1.11529
 H387 H 0.82068 0.71519 1.11315
 H388 H 0.79104 0.66018 1.11130
 H389 H 0.81954 0.67819 1.16897
 H390 H 0.83996 0.66715 1.15420
 N391 N 0.86290 0.19462 0.67962
 N392 N 0.86321 0.18126 0.69362
 C393 C 0.87903 0.18401 0.70511
 C394 C 0.88913 0.20004 0.69806
 C395 C 0.87842 0.20653 0.68194
 H396 H 0.88300 0.17496 0.71762
 H397 H 0.88209 0.21851 0.67219
 Cu398 Cu 0.84321 0.16124 0.69551
 Cu399 Cu 0.84354 0.19412 0.65835
 Cu400 Cu 0.80998 0.15610 0.65944
 N401 N 0.82354 0.14082 0.69647
 N402 N 0.81108 0.13838 0.68190
 C403 C 0.79941 0.12311 0.68606
 C404 C 0.80469 0.11574 0.70432
 C405 C 0.82009 0.12729 0.71052
 H406 H 0.78765 0.11801 0.67672
 H407 H 0.82828 0.12581 0.72412
 N408 N 0.81093 0.17561 0.63808
 N409 N 0.82296 0.19068 0.63810
 C410 C 0.81916 0.20185 0.62208
 C411 C 0.80422 0.19323 0.61145
 C412 C 0.79936 0.17666 0.62203
 H413 H 0.82686 0.21512 0.61823
 H414 H 0.78791 0.16637 0.61852
 H415 H 0.82169 0.18013 0.67385
 H416 H 0.83925 0.16427 0.65984
 N417 N 0.29942 0.35712 0.68285
 N418 N 0.31379 0.35924 0.69558
 C419 C 0.30941 0.37431 0.70780
 C420 C 0.29122 0.38178 0.70254
 C421 C 0.28535 0.37047 0.68668
 H422 H 0.31885 0.37975 0.71938
 H423 H 0.27233 0.37256 0.67783
 Cu424 Cu 0.33704 0.34242 0.69424
 Cu425 Cu 0.30099 0.33943 0.66031
 Cu426 Cu 0.34358 0.31213 0.65545
 N427 N 0.36003 0.32528 0.69224
 N428 N 0.36274 0.31433 0.67646
 C429 C 0.37959 0.30424 0.67829
 C430 C 0.38792 0.30890 0.69625
 C431 C 0.37508 0.32225 0.70484
 H432 H 0.38501 0.29368 0.66764
 H433 H 0.37665 0.32920 0.71913
 N434 N 0.32238 0.31156 0.63590
 N435 N 0.30563 0.32103 0.63832
 C436 C 0.29375 0.31686 0.62301
 C437 C 0.30361 0.30436 0.61029
 C438 C 0.32169 0.30129 0.61892
 H439 H 0.27916 0.32277 0.62097
 H440 H 0.33333 0.29196 0.61340
 H441 H 0.31985 0.31926 0.67306
 H442 H 0.33109 0.33978 0.65880
 N443 N 0.30607 0.85670 0.17871
 N444 N 0.32139 0.86169 0.18928
 C445 C 0.31665 0.87691 0.20097
 C446 C 0.29733 0.88186 0.19758
 C447 C 0.29097 0.86873 0.18334
 H448 H 0.32665 0.88412 0.21096
 H449 H 0.27672 0.86830 0.17643
 Cu450 Cu 0.34647 0.84870 0.18668
 Cu451 Cu 0.30758 0.83586 0.15894
 Cu452 Cu 0.34987 0.80762 0.15953
 N453 N 0.36796 0.83039 0.19000
 N454 N 0.36896 0.81400 0.17980
 C455 C 0.38483 0.80374 0.18559
 C456 C 0.39433 0.81438 0.20007
 C457 C 0.38322 0.83124 0.20252
 H458 H 0.38923 0.78964 0.17966
 H459 H 0.38574 0.84301 0.21291
 N460 N 0.32880 0.80369 0.14021
 N461 N 0.31244 0.81413 0.14020
 C462 C 0.30124 0.80829 0.12492
 C463 C 0.31118 0.79369 0.11475
 C464 C 0.32857 0.79112 0.12488
 H465 H 0.28723 0.81465 0.12101
 H466 H 0.34029 0.78102 0.12123
 H467 H 0.32756 0.82077 0.17594
 H468 H 0.33746 0.83532 0.15468
 N469 N 0.80481 0.36129 0.17835
 N470 N 0.81903 0.36440 0.19102
 C471 C 0.81442 0.38004 0.20227
 C472 C 0.79634 0.38704 0.19641
 C473 C 0.79060 0.37480 0.18117
 H474 H 0.82356 0.38603 0.21378
 H475 H 0.77740 0.37597 0.17240
 Cu476 Cu 0.84209 0.34771 0.19180
 Cu477 Cu 0.80652 0.34083 0.15829
 Cu478 Cu 0.84789 0.31102 0.15919
 N479 N 0.86501 0.33081 0.19231
 N480 N 0.86676 0.31589 0.18011
 C481 C 0.88302 0.30562 0.18468
 C482 C 0.89204 0.31480 0.20040
 C483 C 0.88028 0.33075 0.20486
 H484 H 0.88793 0.29242 0.17720
 H485 H 0.88230 0.34102 0.21684
 N486 N 0.82717 0.30849 0.13918
 N487 N 0.81116 0.31945 0.13919
 C488 C 0.79999 0.31435 0.12364
 C489 C 0.80955 0.29971 0.11326
 C490 C 0.82673 0.29630 0.12352
 H491 H 0.78619 0.32119 0.11974
 H492 H 0.83808 0.28581 0.11979
 H493 H 0.82414 0.32217 0.17452
 H494 H 0.83674 0.33932 0.15728
 N495 N 0.80933 0.86713 0.67489
 N496 N 0.82126 0.86706 0.69012
 C497 C 0.81723 0.88284 0.70153
 C498 C 0.80214 0.89333 0.69273
 C499 C 0.79751 0.88292 0.67590
 H500 H 0.82474 0.88653 0.71508
 H501 H 0.78604 0.88629 0.66541
 Cu502 Cu 0.84112 0.84654 0.69285
 Cu503 Cu 0.80890 0.84630 0.65546
 Cu504 Cu 0.84212 0.80817 0.66122
 N505 N 0.86071 0.82574 0.69503
 N506 N 0.86062 0.81057 0.68300
 C507 C 0.87591 0.79878 0.68726
 C508 C 0.88631 0.80706 0.70264
 C509 C 0.87622 0.82416 0.70726
 H510 H 0.87970 0.78555 0.67925
 H511 H 0.88007 0.83482 0.71841
 N512 N 0.82236 0.80884 0.63996
 N513 N 0.81041 0.82392 0.63737
 C514 C 0.79972 0.82099 0.62098
 C515 C 0.80509 0.80319 0.61287
 C516 C 0.81938 0.79575 0.62531
 H517 H 0.78872 0.83100 0.61540
 H518 H 0.82740 0.78214 0.62343
 H519 H 0.82016 0.82468 0.67394
 H520 H 0.83815 0.83787 0.65803
 N521 N 0.69149 0.63763 0.68085
 N522 N 0.67751 0.63691 0.69420
 C523 C 0.68083 0.62126 0.70604
 C524 C 0.69794 0.61204 0.69984
 C525 C 0.70417 0.62279 0.68380
 H526 H 0.67202 0.61735 0.71870
 H527 H 0.71718 0.62018 0.67507
 Cu528 Cu 0.65780 0.65790 0.69570
 Cu529 Cu 0.69340 0.65826 0.66128
 Cu530 Cu 0.66018 0.69649 0.66450
 N531 N 0.63849 0.67928 0.69655
 N532 N 0.64036 0.69466 0.68499
 C533 C 0.62612 0.70773 0.68910
 C534 C 0.61454 0.70022 0.70396
 C535 C 0.62270 0.68204 0.70830
 H536 H 0.62406 0.72153 0.68150
 H537 H 0.61768 0.67182 0.71938
 N538 N 0.68115 0.69552 0.64456
 N539 N 0.69321 0.68042 0.64282
 C540 C 0.70501 0.68332 0.62719
 C541 C 0.70030 0.70118 0.61882
 C542 C 0.68512 0.70857 0.63018
 H543 H 0.71630 0.67326 0.62223
 H544 H 0.67721 0.72216 0.62780
 H545 H 0.68074 0.67960 0.67901
 H546 H 0.66412 0.66668 0.66138
 N547 N 0.69425 0.13838 0.17761
 N548 N 0.67973 0.13541 0.18999
 C549 C 0.68409 0.11996 0.20155
 C550 C 0.70235 0.11293 0.19628
 C551 C 0.70844 0.12496 0.18101
 H552 H 0.67475 0.11420 0.21302
 H553 H 0.72191 0.12374 0.17269
 Cu554 Cu 0.65680 0.15233 0.19041
 Cu555 Cu 0.69302 0.15869 0.15729
 Cu556 Cu 0.65171 0.18865 0.15745
 N557 N 0.63398 0.16943 0.19057
 N558 N 0.63254 0.18416 0.17813
 C559 C 0.61650 0.19484 0.18253
 C560 C 0.60730 0.18621 0.19843
 C561 C 0.61872 0.17008 0.20317
 H562 H 0.61198 0.20808 0.17494
 H563 H 0.61657 0.16019 0.21544
 N564 N 0.67265 0.19089 0.13770
 N565 N 0.68867 0.17995 0.13791
 C566 C 0.70002 0.18506 0.12247
 C567 C 0.69051 0.19969 0.11197
 C568 C 0.67325 0.20305 0.12207
 H569 H 0.71390 0.17827 0.11873
 H570 H 0.66195 0.21357 0.11829
 H571 H 0.67532 0.17750 0.17318
 H572 H 0.66291 0.16022 0.15589
 N573 N 0.18594 0.63380 0.17794
 N574 N 0.17039 0.63174 0.18920
 C575 C 0.17263 0.61572 0.20056
 C576 C 0.19056 0.60725 0.19629
 C577 C 0.19875 0.61917 0.18197
 H578 H 0.16211 0.61064 0.21129
 H579 H 0.21268 0.61702 0.17466
 Cu580 Cu 0.14897 0.65046 0.18808
 Cu581 Cu 0.18751 0.65466 0.15797
 Cu582 Cu 0.14922 0.68883 0.15781
 N583 N 0.12855 0.67027 0.18968
 N584 N 0.12905 0.68567 0.17802
 C585 C 0.11389 0.69762 0.18243
 C586 C 0.10326 0.68916 0.19754
 C587 C 0.11299 0.67182 0.20182
 H588 H 0.11074 0.71140 0.17513
 H589 H 0.10926 0.66137 0.21319
 N590 N 0.17097 0.68935 0.13864
 N591 N 0.18580 0.67678 0.13893
 C592 C 0.19774 0.68074 0.12358
 C593 C 0.18988 0.69630 0.11304
 C594 C 0.17298 0.70142 0.12306
 H595 H 0.21078 0.67245 0.11981
 H596 H 0.16275 0.71293 0.11912
 H597 H 0.17085 0.67446 0.17368
 H598 H 0.15793 0.65971 0.15460
 N599 N 0.19778 0.14079 0.67943
 N600 N 0.18464 0.13923 0.69356
 C601 C 0.18968 0.12404 0.70536
 C602 C 0.20701 0.11592 0.69838
 C603 C 0.21169 0.12696 0.68193
 H604 H 0.18134 0.11913 0.71799
 H605 H 0.22385 0.12451 0.67197
 Cu606 Cu 0.16227 0.15729 0.69489
 Cu607 Cu 0.19492 0.15891 0.65730
 Cu608 Cu 0.15288 0.18741 0.65674
 N609 N 0.13934 0.17473 0.69486
 N610 N 0.13556 0.18566 0.67931
 C611 C 0.11938 0.19644 0.68263
 C612 C 0.11260 0.19236 0.70134
 C613 C 0.12559 0.17844 0.70880
 H614 H 0.11336 0.20712 0.67247
 H615 H 0.12520 0.17173 0.72327
 N616 N 0.17214 0.18761 0.63531
 N617 N 0.18886 0.17781 0.63601
 C618 C 0.19955 0.18240 0.61990
 C619 C 0.18886 0.19549 0.60851
 C620 C 0.17162 0.19845 0.61873
 H621 H 0.21393 0.17655 0.61656
 H622 H 0.15985 0.20833 0.61469
 H623 H 0.17822 0.17963 0.67185
 H624 H 0.16497 0.15935 0.65905
 N625 N 0.31666 0.63610 0.32243
 N626 N 0.33243 0.63360 0.31155
 C627 C 0.33152 0.61625 0.30224
 C628 C 0.31410 0.60742 0.30722
 C629 C 0.30485 0.62049 0.31995
 H630 H 0.34237 0.61078 0.29194
 H631 H 0.29071 0.61875 0.32691
 Cu632 Cu 0.35178 0.65391 0.30851
 Cu633 Cu 0.31331 0.65964 0.33880
 Cu634 Cu 0.35645 0.68580 0.34549
 N635 N 0.37212 0.67349 0.30826
 N636 N 0.37357 0.68649 0.32251
 C637 C 0.38900 0.69812 0.31888
 C638 C 0.39775 0.69184 0.30152
 C639 C 0.38666 0.67619 0.29517
 H640 H 0.39384 0.70985 0.32844
 H641 H 0.38901 0.66744 0.28203
 N642 N 0.33381 0.68812 0.36328
 N643 N 0.31713 0.67885 0.36045
 C644 C 0.30462 0.68386 0.37508
 C645 C 0.31399 0.69677 0.38771
 C646 C 0.33241 0.69916 0.37969
 H647 H 0.28997 0.67817 0.37672
 H648 H 0.34396 0.70840 0.38527
 H649 H 0.33395 0.67920 0.32715
 H650 H 0.34256 0.65848 0.34296
 N651 N 0.30252 0.13871 0.82031
 N652 N 0.31554 0.13935 0.80602
 C653 C 0.31208 0.12455 0.79324
 C654 C 0.29586 0.11437 0.79977
 C655 C 0.29019 0.12377 0.81698
 H656 H 0.32060 0.12143 0.78012
 H657 H 0.27828 0.11974 0.82665
 Cu658 Cu 0.33542 0.15975 0.80559
 Cu659 Cu 0.30288 0.15670 0.84265
 Cu660 Cu 0.33884 0.19229 0.84299
 N661 N 0.35562 0.17981 0.80595
 N662 N 0.35722 0.19210 0.82087
 C663 C 0.37268 0.20385 0.81774
 C664 C 0.38105 0.19887 0.79979
 C665 C 0.36984 0.18356 0.79270
 H666 H 0.37741 0.21532 0.82767
 H667 H 0.37214 0.17553 0.77911
 N668 N 0.31884 0.19003 0.86398
 N669 N 0.30550 0.17612 0.86402
 C670 C 0.29438 0.17798 0.88035
 C671 C 0.30086 0.19394 0.89105
 C672 C 0.31631 0.20132 0.88020
 H673 H 0.28220 0.16865 0.88405
 H674 H 0.32514 0.21387 0.88401
 H675 H 0.31578 0.17996 0.82798
 H676 H 0.33256 0.16282 0.84140
 N677 N 0.81247 0.63325 0.81675
 N678 N 0.82852 0.63234 0.80604
 C679 C 0.82791 0.61629 0.79444
 C680 C 0.81049 0.60664 0.79801
 C681 C 0.80106 0.61785 0.81223
 H682 H 0.83911 0.61227 0.78386
 H683 H 0.78687 0.61507 0.81869
 Cu684 Cu 0.84837 0.65262 0.80736
 Cu685 Cu 0.80741 0.65454 0.83537
 Cu686 Cu 0.83760 0.69472 0.83110
 N687 N 0.86344 0.67634 0.80306
 N688 N 0.85869 0.69289 0.81188
 C689 C 0.87135 0.70689 0.80644
 C690 C 0.88484 0.69870 0.79352
 C691 C 0.87939 0.67925 0.79174
 H692 H 0.87109 0.72176 0.81199
 H693 H 0.88658 0.66805 0.78296
 N694 N 0.81571 0.69369 0.84993
 N695 N 0.80477 0.67799 0.85232
 C696 C 0.79243 0.68112 0.86758
 C697 C 0.79563 0.69977 0.87491
 C698 C 0.81047 0.70730 0.86338
 H699 H 0.78202 0.67059 0.87310
 H700 H 0.81755 0.72131 0.86528
 H701 H 0.82110 0.67370 0.81653
 H702 H 0.83553 0.66523 0.83855
 N703 N 0.81253 0.13127 0.32289
 N704 N 0.82756 0.13160 0.31078
 C705 C 0.82634 0.11641 0.29815
 C706 C 0.80963 0.10601 0.30254
 C707 C 0.80113 0.11588 0.31828
 H708 H 0.83665 0.11333 0.28642
 H709 H 0.78776 0.11206 0.32586
 Cu710 Cu 0.84695 0.15213 0.31213
 Cu711 Cu 0.80930 0.15066 0.34385
 Cu712 Cu 0.84273 0.18890 0.34520
 N713 N 0.86573 0.17320 0.31329
 N714 N 0.86372 0.18811 0.32549
 C715 C 0.87875 0.20057 0.32270
 C716 C 0.89085 0.19277 0.30819
 C717 C 0.88207 0.17550 0.30255
 H718 H 0.88109 0.21390 0.33104
 H719 H 0.88725 0.16539 0.29136
 N720 N 0.82060 0.18665 0.36398
 N721 N 0.80845 0.17166 0.36388
 C722 C 0.79622 0.17326 0.37941
 C723 C 0.80074 0.19013 0.38974
 C724 C 0.81616 0.19835 0.37948
 H725 H 0.78487 0.16289 0.38301
 H726 H 0.82401 0.21148 0.38351
 H727 H 0.82296 0.17314 0.32867
 H728 H 0.83845 0.15899 0.34644
 N729 N 0.69486 0.36773 0.32295
 N730 N 0.68174 0.36822 0.30877
 C731 C 0.68630 0.38274 0.29608
 C732 C 0.70330 0.39155 0.30264
 C733 C 0.70826 0.38169 0.31975
 H734 H 0.67813 0.38645 0.28290
 H735 H 0.72062 0.38452 0.32928
 Cu736 Cu 0.66071 0.34912 0.30818
 Cu737 Cu 0.69394 0.34902 0.34438
 Cu738 Cu 0.65806 0.31332 0.34273
 N739 N 0.63991 0.32985 0.30797
 N740 N 0.63942 0.31533 0.32077
 C741 C 0.62372 0.30407 0.31685
 C742 C 0.61377 0.31217 0.30097
 C743 C 0.62448 0.32846 0.29571
 H744 H 0.61947 0.29135 0.32531
 H745 H 0.62128 0.33850 0.28377
 N746 N 0.67821 0.31460 0.36386
 N747 N 0.69102 0.32898 0.36478
 C748 C 0.70159 0.32722 0.38139
 C749 C 0.69539 0.31089 0.39148
 C750 C 0.68064 0.30302 0.37992
 H751 H 0.71318 0.33698 0.38583
 H752 H 0.67198 0.29024 0.38330
 H753 H 0.68050 0.32679 0.32818
 H754 H 0.66395 0.34267 0.34342
 N755 N 0.68826 0.86433 0.81735
 N756 N 0.67654 0.86214 0.80213
 C757 C 0.68017 0.87635 0.78885
 C758 C 0.69490 0.88809 0.79621
 C759 C 0.69962 0.88012 0.81437
 H760 H 0.67251 0.87815 0.77499
 H761 H 0.71083 0.88517 0.82441
 Cu762 Cu 0.65733 0.84132 0.80107
 Cu763 Cu 0.68899 0.84557 0.83892
 Cu764 Cu 0.65526 0.80782 0.83782
 N765 N 0.63662 0.82203 0.80261
 N766 N 0.63616 0.80850 0.81641
 C767 C 0.62021 0.79728 0.81370
 C768 C 0.61002 0.80440 0.79752
 C769 C 0.62088 0.82008 0.79085
 H770 H 0.61593 0.78529 0.82319
 H771 H 0.61753 0.82944 0.77839
 N772 N 0.67562 0.81011 0.85837
 N773 N 0.68773 0.82508 0.85927
 C774 C 0.69919 0.82310 0.87532
 C775 C 0.69416 0.80601 0.88495
 C776 C 0.67923 0.79807 0.87378
 H777 H 0.71069 0.83310 0.87946
 H778 H 0.67145 0.78466 0.87684
 H779 H 0.67782 0.82191 0.82338
 H780 H 0.65968 0.83771 0.83681
 N781 N 0.19692 0.35705 0.82019
 N782 N 0.18292 0.35810 0.80690
 C783 C 0.18639 0.37350 0.79490
 C784 C 0.20361 0.38230 0.80090
 C785 C 0.20986 0.37146 0.81698
 H786 H 0.17714 0.37803 0.78275
 H787 H 0.22259 0.37418 0.82604
 Cu788 Cu 0.16156 0.33920 0.80687
 Cu789 Cu 0.19712 0.33772 0.84131
 Cu790 Cu 0.15927 0.30430 0.84195
 N791 N 0.14044 0.32004 0.80730
 N792 N 0.13939 0.30695 0.82152
 C793 C 0.12311 0.29624 0.81914
 C794 C 0.11348 0.30278 0.80241
 C795 C 0.12493 0.31782 0.79516
 H796 H 0.11870 0.28440 0.82874
 H797 H 0.12190 0.32672 0.78228
 N798 N 0.18074 0.30395 0.86137
 N799 N 0.19485 0.31707 0.86149
 C800 C 0.20679 0.31345 0.87693
 C801 C 0.20005 0.29710 0.88677
 C802 C 0.18353 0.29143 0.87652
 H803 H 0.21959 0.32191 0.88069
 H804 H 0.17404 0.27933 0.88011
 H805 H 0.18186 0.31655 0.82597
 H806 H 0.16722 0.33348 0.84201
 N807 N 0.19373 0.85947 0.32019
 N808 N 0.17876 0.86463 0.30910
 C809 C 0.18394 0.87990 0.29766
 C810 C 0.20322 0.88449 0.30172
 C811 C 0.20898 0.87120 0.31610
 H812 H 0.17435 0.88727 0.28729
 H813 H 0.22296 0.87054 0.32356
 Cu814 Cu 0.15373 0.85130 0.31078
 Cu815 Cu 0.19178 0.83913 0.34029
 Cu816 Cu 0.14982 0.81126 0.33967
 N817 N 0.13227 0.83290 0.30778
 N818 N 0.13112 0.81704 0.31874
 C819 C 0.11538 0.80666 0.31317
 C820 C 0.10604 0.81661 0.29803
 C821 C 0.11716 0.83324 0.29497
 H822 H 0.11096 0.79291 0.31971
 H823 H 0.11469 0.84453 0.28402
 N824 N 0.17052 0.80776 0.35964
 N825 N 0.18683 0.81801 0.35952
 C826 C 0.19804 0.81234 0.37490
 C827 C 0.18821 0.79802 0.38531
 C828 C 0.17081 0.79545 0.37521
 H829 H 0.21209 0.81853 0.37863
 H830 H 0.15922 0.78541 0.37893
 H831 H 0.17227 0.82349 0.32326
 H832 H 0.16172 0.83900 0.34362
 C833 C 0.26549 1.01609 0.24702
 C834 C 0.24791 1.01700 0.25796
 C835 C 0.23779 0.99967 0.26215
 C836 C 0.24531 0.98128 0.25653
 C837 C 0.26342 0.98032 0.24645
 C838 C 0.27318 0.99774 0.24166
 H839 H 0.28658 0.99703 0.23308
 H840 H 0.22439 1.00045 0.27074
 C841 C 0.25188 0.51851 0.74274
 C842 C 0.23413 0.51820 0.75346
 C843 C 0.22601 0.50013 0.75879
 C844 C 0.23550 0.48236 0.75422
 C845 C 0.25376 0.48269 0.74430
 C846 C 0.26173 0.50081 0.73871
 H847 H 0.27521 0.50110 0.73025
 H848 H 0.21253 0.49989 0.76725
 C849 C 0.75626 -0.01984 0.25645
 C850 C 0.73802 -0.02016 0.24657
 C851 C 0.72866 -0.00243 0.24180
 C852 C 0.73682 0.01560 0.24711
 C853 C 0.75441 0.01593 0.25802
 C854 C 0.76425 -0.00175 0.26207
 H855 H 0.77768 -0.00151 0.27061
 H856 H 0.71522 -0.00265 0.23327
 C857 C 0.75918 0.47925 0.75365
 C858 C 0.74168 0.47824 0.74256
 C859 C 0.73101 0.49553 0.73883
 C860 C 0.73766 0.51385 0.74546
 C861 C 0.75529 0.51485 0.75641
 C862 C 0.76591 0.49755 0.76018
 H863 H 0.77910 0.49821 0.76907
 H864 H 0.71786 0.49482 0.72990
 C865 C 0.26232 0.48234 0.25699
 C866 C 0.24903 0.48252 0.24097
 C867 C 0.24200 0.50054 0.23381
 C868 C 0.24824 0.51838 0.24189
 C869 C 0.26158 0.51820 0.25789
 C870 C 0.26873 0.50017 0.26495
 H871 H 0.27870 0.49997 0.27743
 H872 H 0.23190 0.50070 0.22144
 C873 C 0.75425 1.02032 0.74231
 C874 C 0.74197 1.02140 0.75904
 C875 C 0.73728 1.00422 0.76931
 C876 C 0.74432 0.98588 0.76294
 C877 C 0.75680 0.98484 0.74631
 C878 C 0.76142 1.00205 0.73605
 H879 H 0.77129 1.00130 0.72351
 H880 H 0.72733 1.00503 0.78178
 C881 C 0.76235 0.52184 0.24515
 C882 C 0.74310 0.52205 0.25293
 C883 C 0.73335 0.50429 0.25599
 C884 C 0.74237 0.48631 0.25165
 C885 C 0.76147 0.48603 0.24370
 C886 C 0.77128 0.50378 0.24062
 H887 H 0.78565 0.50354 0.23382
 H888 H 0.71899 0.50440 0.26281
 C889 C 0.26692 -0.02002 0.74782
 C890 C 0.24891 -0.02034 0.73750
 C891 C 0.23900 -0.00264 0.73364
 C892 C 0.24702 0.01550 0.73915
 C893 C 0.26543 0.01585 0.74875
 C894 C 0.27515 -0.00191 0.75296
 H895 H 0.28875 -0.00166 0.76121
 H896 H 0.22531 -0.00293 0.72555
 C897 C 0.24973 0.26431 1.02191
 C898 C 0.26274 0.24809 1.02136
 C899 C 0.26980 0.24128 1.00311
 C900 C 0.26393 0.25013 0.98535
 C901 C 0.25058 0.26605 0.98588
 C902 C 0.24368 0.27301 1.00414
 H903 H 0.23345 0.28526 1.00452
 H904 H 0.27992 0.22894 1.00273
 C905 C 0.24060 0.75397 0.51435
 C906 C 0.25715 0.74149 0.51455
 C907 C 0.26488 0.73450 0.49666
 C908 C 0.25666 0.74012 0.47850
 C909 C 0.24085 0.75366 0.47826
 C910 C 0.23260 0.75993 0.49619
 H911 H 0.22035 0.77014 0.49605
 H912 H 0.27714 0.72431 0.49692
 C913 C 0.26324 0.74919 -0.01502
 C914 C 0.24763 0.73569 -0.01599
 C915 C 0.23908 0.72895 0.00161
 C916 C 0.24599 0.73518 0.02007
 C917 C 0.26116 0.74911 0.02098
 C918 C 0.26986 0.75566 0.00347
 H919 H 0.28138 0.76649 0.00422
 H920 H 0.22747 0.71821 0.00094
 C921 C 0.24668 0.26646 0.48173
 C922 C 0.23406 0.25013 0.48127
 C923 C 0.22888 0.24083 0.49895
 C924 C 0.23595 0.24753 0.51717
 C925 C 0.24818 0.26416 0.51770
 C926 C 0.25354 0.27333 0.50000
 H927 H 0.26331 0.28578 0.50045
 H928 H 0.21935 0.22818 0.49851
 C929 C 0.73723 0.74949 1.01159
 C930 C 0.75192 0.73479 1.01159
 C931 C 0.75716 0.72570 0.99374
 C932 C 0.74897 0.73186 0.97573
 C933 C 0.73530 0.74755 0.97565
 C934 C 0.72955 0.75613 0.99360
 H935 H 0.71851 0.76765 0.99361
 H936 H 0.76837 0.71435 0.99375
 C937 C 0.74682 0.26221 0.51877
 C938 C 0.76078 0.24679 0.51872
 C939 C 0.76640 0.23818 0.50071
 C940 C 0.75857 0.24479 0.48273
 C941 C 0.74387 0.25951 0.48284
 C942 C 0.73850 0.26833 0.50082
 H943 H 0.72728 0.27966 0.50093
 H944 H 0.77765 0.22687 0.50061
 C945 C 0.75651 0.25948 -0.01665
 C946 C 0.74173 0.24511 -0.01664
 C947 C 0.73462 0.23788 0.00132
 C948 C 0.74237 0.24435 0.01931
 C949 C 0.75702 0.25886 0.01932
 C950 C 0.76420 0.26604 0.00135
 H951 H 0.77528 0.27735 0.00139
 H952 H 0.72355 0.22655 0.00126
 C953 C 0.77021 0.74400 0.48583
 C954 C 0.75513 0.73000 0.48492
 C955 C 0.74751 0.72219 0.50240
 C956 C 0.75451 0.72829 0.52087
 C957 C 0.76939 0.74252 0.52181
 C958 C 0.77716 0.75012 0.50427
 H959 H 0.78848 0.76117 0.50498
 H960 H 0.73590 0.71145 0.50164
 C961 C 1.01697 0.24813 0.26543
 C962 C 1.01701 0.26196 0.24992
 C963 C 0.99920 0.26944 0.24289
 C964 C 0.98136 0.26275 0.25043
 C965 C 0.98129 0.24879 0.26585
 C966 C 0.99913 0.24148 0.27304
 H967 H 0.99916 0.23089 0.28499
 H968 H 0.99920 0.27982 0.23074
 C969 C 0.51420 0.25045 0.76638
 C970 C 0.51336 0.26584 0.75246
 C971 C 0.49504 0.27304 0.74639
 C972 C 0.47759 0.26557 0.75423
 C973 C 0.47849 0.25046 0.76852
 C974 C 0.49682 0.24299 0.77432
 H975 H 0.49758 0.23134 0.78521
 H976 H 0.49435 0.28464 0.73546
 C977 C -0.01521 0.27176 0.74454
 C978 C -0.01650 0.25612 0.73087
 C979 C 0.00067 0.24701 0.72403
 C980 C 0.01916 0.25308 0.73055
 C981 C 0.02050 0.26852 0.74439
 C982 C 0.00331 0.27769 0.75122
 H983 H 0.00436 0.28943 0.76199
 H984 H -0.00034 0.23506 0.71349
 C985 C 0.48483 0.26228 0.25807
 C986 C 0.48434 0.24569 0.24548
 C987 C 0.50192 0.23662 0.23978
 C988 C 0.51998 0.24392 0.24608
 C989 C 0.52051 0.25992 0.25933
 C990 C 0.50296 0.26912 0.26493
 H991 H 0.50339 0.28132 0.27522
 H992 H 0.50157 0.22443 0.22947
 C993 C 1.01869 0.73558 0.74537
 C994 C 1.01760 0.75412 0.73605
 C995 C 0.99915 0.76185 0.73094
 C996 C 0.98192 0.75153 0.73499
 C997 C 0.98299 0.73339 0.74508
 C998 C 1.00141 0.72551 0.74984
 H999 H 1.00232 0.71183 0.75797
 H1000 H 0.99822 0.77563 0.72300
 C1001 C 0.52323 0.75127 0.26120
 C1002 C 0.52251 0.76760 0.24835
 C1003 C 0.50429 0.77464 0.24178
 C1004 C 0.48689 0.76565 0.24773
 C1005 C 0.48763 0.74989 0.26121
 C1006 C 0.50577 0.74257 0.26745
 H1007 H 0.50629 0.73047 0.27785
 H1008 H 0.50370 0.78659 0.23123
 C1009 C -0.02162 0.76616 0.25168
 C1010 C -0.02170 0.74830 0.24098
 C1011 C -0.00384 0.73986 0.23503
 C1012 C 0.01403 0.74848 0.24000
 C1013 C 0.01418 0.76537 0.25212
 C1014 C -0.00362 0.77443 0.25723
 H1015 H -0.00348 0.78737 0.26656
 H1016 H -0.00389 0.72674 0.22595
 C1017 C 0.47947 0.75494 0.75992
 C1018 C 0.47859 0.73869 0.74704
 C1019 C 0.49593 0.72901 0.74147
 C1020 C 0.51418 0.73512 0.74867
 C1021 C 0.51499 0.75132 0.76175
 C1022 C 0.49765 0.76109 0.76713
 H1023 H 0.49828 0.77348 0.77717
 H1024 H 0.49518 0.71667 0.73136
 C1025 C 0.43296 0.28968 0.27892
 C1026 C 0.43482 0.26917 0.27868
 N1027 N 0.41997 0.25798 0.28556
 C1028 C 0.40336 0.26638 0.29285
 C1029 C 0.40149 0.28695 0.29329
 N1030 N 0.41638 0.29808 0.28616
 N1031 N 0.44790 0.30088 0.27221
 C1032 C 0.46469 0.29247 0.26535
 C1033 C 0.46663 0.27192 0.26512
 N1034 N 0.45155 0.26078 0.27181
 H1035 H 0.39181 0.25704 0.29824
 H1036 H 0.47636 0.30172 0.26000
 C1037 C 0.42905 0.78568 0.77955
 C1038 C 0.43918 0.77272 0.79209
 N1039 N 0.43270 0.76989 0.81077
 C1040 C 0.41647 0.77931 0.81757
 C1041 C 0.40618 0.79248 0.80518
 N1042 N 0.41292 0.79539 0.78640
 N1043 N 0.43539 0.78810 0.76067
 C1044 C 0.45141 0.77818 0.75383
 C1045 C 0.46167 0.76544 0.76651
 N1046 N 0.45530 0.76307 0.78538
 H1047 H 0.41197 0.77661 0.83262
 H1048 H 0.45625 0.78035 0.73876
 C1049 C -0.06559 0.29849 0.76966
 C1050 C -0.06330 0.27799 0.76946
 N1051 N -0.07709 0.26658 0.77799
 C1052 C -0.09300 0.27471 0.78692
 C1053 C -0.09535 0.29523 0.78729
 N1054 N -0.08159 0.30665 0.77846
 N1055 N -0.05149 0.30988 0.76152
 C1056 C -0.03519 0.30169 0.75327
 C1057 C -0.03291 0.28117 0.75301
 N1058 N -0.04712 0.26984 0.76113
 H1059 H -0.10371 0.26520 0.79365
 H1060 H -0.02415 0.31107 0.74689
 C1061 C -0.07352 0.79294 0.27341
 C1062 C -0.07017 0.77272 0.27569
 N1063 N -0.08336 0.76171 0.28562
 C1064 C -0.09967 0.77002 0.29362
 C1065 C -0.10304 0.79031 0.29156
 N1066 N -0.08988 0.80127 0.28132
 N1067 N -0.06006 0.80399 0.26383
 C1068 C -0.04335 0.79574 0.25652
 C1069 C -0.03997 0.77549 0.25878
 N1070 N -0.05356 0.76448 0.26833
 H1071 H -0.10989 0.76084 0.30150
 H1072 H -0.03281 0.80488 0.24902
 C1073 C 0.57510 0.72848 0.28641
 C1074 C 0.56267 0.71641 0.27533
 N1075 N 0.56713 0.69709 0.27312
 C1076 C 0.58345 0.68925 0.28159
 C1077 C 0.59572 0.70122 0.29304
 N1078 N 0.59120 0.72059 0.29512
 N1079 N 0.57076 0.74783 0.28849
 C1080 C 0.55443 0.75566 0.28007
 C1081 C 0.54179 0.74356 0.26924
 N1082 N 0.54620 0.72415 0.26718
 H1083 H 0.58655 0.67377 0.27972
 H1084 H 0.55109 0.77107 0.28218
 C1085 C 0.56802 0.22855 0.78801
 C1086 C 0.55658 0.21715 0.77524
 N1087 N 0.56296 0.19897 0.76991
 C1088 C 0.58020 0.19159 0.77691
 C1089 C 0.59144 0.20282 0.79008
 N1090 N 0.58500 0.22108 0.79522
 N1091 N 0.56188 0.24682 0.79320
 C1092 C 0.54470 0.25422 0.78626
 C1093 C 0.53303 0.24276 0.77376
 N1094 N 0.53924 0.22443 0.76851
 H1095 H 0.58482 0.17699 0.77260
 H1096 H 0.54007 0.26883 0.79057
 C1097 C 1.07110 0.71034 0.76724
 C1098 C 1.06572 0.72964 0.77224
 N1099 N 1.07681 0.73988 0.78522
 C1100 C 1.09294 0.73162 0.79365
 C1101 C 1.09827 0.71222 0.78887
 N1102 N 1.08727 0.70211 0.77558
 N1103 N 1.05966 0.69990 0.75471
 C1104 C 1.04296 0.70782 0.74711
 C1105 C 1.03747 0.72709 0.75220
 N1106 N 1.04909 0.73757 0.76460
 H1107 H 1.10144 0.74012 0.80403
 H1108 H 1.03394 0.69915 0.73733
 C1109 C 1.06915 0.22674 0.29127
 C1110 C 1.05553 0.21384 0.28284
 N1111 N 1.05933 0.19430 0.28264
 C1112 C 1.07623 0.18702 0.29036
 C1113 C 1.08987 0.19986 0.29887
 N1114 N 1.08592 0.21946 0.29921
 N1115 N 1.06553 0.24634 0.29102
 C1116 C 1.04891 0.25364 0.28269
 C1117 C 1.03525 0.24074 0.27433
 N1118 N 1.03884 0.22110 0.27474
 H1119 H 1.07891 0.17136 0.28995
 H1120 H 1.04627 0.26932 0.28269
 C1121 C 0.56453 0.29081 0.72792
 C1122 C 0.56200 0.27040 0.72806
 N1123 N 0.57595 0.25861 0.71995
 C1124 C 0.59231 0.26631 0.71161
 C1125 C 0.59493 0.28677 0.71145
 N1126 N 0.58091 0.29849 0.71973
 N1127 N 0.55046 0.30263 0.73576
 C1128 C 0.53391 0.29497 0.74370
 C1129 C 0.53132 0.27452 0.74396
 N1130 N 0.54553 0.26272 0.73612
 H1131 H 0.60316 0.25652 0.70529
 H1132 H 0.52294 0.30472 0.74992
 C1133 C 0.57351 0.79322 0.22449
 C1134 C 0.57051 0.77291 0.22323
 N1135 N 0.58379 0.76146 0.21365
 C1136 C 0.59993 0.76941 0.20514
 C1137 C 0.60301 0.78975 0.20637
 N1138 N 0.58970 0.80114 0.21616
 N1139 N 0.55998 0.80474 0.23364
 C1140 C 0.54350 0.79687 0.24154
 C1141 C 0.54050 0.77653 0.24038
 N1142 N 0.55415 0.76503 0.23126
 H1143 H 0.61025 0.75991 0.19759
 H1144 H 0.53288 0.80635 0.24872
 C1145 C 1.06851 0.27969 0.22041
 C1146 C 1.05623 0.29348 0.22977
 N1147 N 1.06095 0.31275 0.22942
 C1148 C 1.07745 0.31890 0.22020
 C1149 C 1.08973 0.30521 0.21066
 N1150 N 1.08489 0.28586 0.21092
 N1151 N 1.06394 0.26035 0.22116
 C1152 C 1.04762 0.25420 0.23082
 C1153 C 1.03523 0.26803 0.24002
 N1154 N 1.03982 0.28738 0.23914
 H1155 H 1.08079 0.33439 0.22013
 H1156 H 1.04419 0.23873 0.23111
 C1157 C 1.06827 0.78489 0.71790
 C1158 C 1.06661 0.76461 0.71476
 N1159 N 1.08113 0.75476 0.70525
 C1160 C 1.09721 0.76429 0.69853
 C1161 C 1.09892 0.78466 0.70144
 N1162 N 1.08438 0.79445 0.71124
 N1163 N 1.05354 0.79473 0.72717
 C1164 C 1.03718 0.78522 0.73334
 C1165 C 1.03546 0.76490 0.73017
 N1166 N 1.05034 0.75512 0.72095
 H1167 H 1.10851 0.75597 0.69102
 H1168 H 1.02566 0.79342 0.74069
 C1169 C 0.42559 0.71505 0.72583
 C1170 C 0.43805 0.72544 0.71315
 N1171 N 0.43311 0.72760 0.69384
 C1172 C 0.41633 0.71975 0.68657
 C1173 C 0.40403 0.70895 0.69912
 N1174 N 0.40903 0.70690 0.71851
 N1175 N 0.43035 0.71315 0.74523
 C1176 C 0.44709 0.72106 0.75250
 C1177 C 0.45978 0.73109 0.73976
 N1178 N 0.45495 0.73303 0.72033
 H1179 H 0.41289 0.72157 0.67108
 H1180 H 0.45067 0.71926 0.76798
 C1181 C 0.43270 0.22389 0.21926
 C1182 C 0.44427 0.21188 0.23148
 N1183 N 0.43892 0.19300 0.23465
 C1184 C 0.42255 0.18553 0.22611
 C1185 C 0.41112 0.19742 0.21357
 N1186 N 0.41655 0.21636 0.21050
 N1187 N 0.43788 0.24284 0.21625
 C1188 C 0.45420 0.25032 0.22484
 C1189 C 0.46596 0.23827 0.23688
 N1190 N 0.46073 0.21926 0.23983
 H1191 H 0.41874 0.17040 0.22880
 H1192 H 0.45815 0.26542 0.22208
 C1193 C -0.07330 0.71937 0.22270
 C1194 C -0.07059 0.73934 0.21855
 N1195 N -0.08426 0.74918 0.20781
 C1196 C -0.10042 0.73992 0.20083
 C1197 C -0.10312 0.71985 0.20480
 N1198 N -0.08948 0.71013 0.21582
 N1199 N -0.05943 0.70940 0.23305
 C1200 C -0.04288 0.71845 0.23932
 C1201 C -0.04006 0.73843 0.23513
 N1202 N -0.05409 0.74843 0.22487
 H1203 H -0.11101 0.74816 0.19226
 H1204 H -0.03199 0.71015 0.24746
 C1205 C -0.07029 0.23442 0.70915
 C1206 C -0.05731 0.22226 0.71967
 N1207 N -0.06205 0.20327 0.72302
 C1208 C -0.07922 0.19583 0.71634
 C1209 C -0.09221 0.20786 0.70558
 N1210 N -0.08735 0.22692 0.70219
 N1211 N -0.06563 0.25353 0.70613
 C1212 C -0.04856 0.26100 0.71315
 C1213 C -0.03546 0.24878 0.72352
 N1214 N -0.04017 0.22964 0.72644
 H1215 H -0.08250 0.18059 0.71916
 H1216 H -0.04510 0.27625 0.71050
 C1217 C 0.28073 0.43036 0.28580
 C1218 C 0.29446 0.44331 0.27771
 N1219 N 0.31384 0.43907 0.27912
 C1220 C 0.32016 0.42240 0.28820
 C1221 C 0.30647 0.40943 0.29643
 N1222 N 0.28704 0.41382 0.29507
 N1223 N 0.26133 0.43446 0.28415
 C1224 C 0.25501 0.45095 0.27475
 C1225 C 0.26872 0.46398 0.26668
 N1226 N 0.28817 0.45989 0.26851
 H1227 H 0.33571 0.41946 0.28913
 H1228 H 0.23947 0.45400 0.27374
 C1229 C 0.29255 -0.07268 0.76956
 C1230 C 0.27263 -0.06842 0.77240
 N1231 N 0.26135 -0.08105 0.78271
 C1232 C 0.26905 -0.09773 0.79054
 C1233 C 0.28909 -0.10222 0.78786
 N1234 N 0.30031 -0.08952 0.77719
 N1235 N 0.30388 -0.05965 0.75964
 C1236 C 0.29615 -0.04258 0.75247
 C1237 C 0.27612 -0.03841 0.75516
 N1238 N 0.26490 -0.05155 0.76510
 H1239 H 0.25942 -0.10735 0.79860
 H1240 H 0.30546 -0.03244 0.74462
 C1241 C 0.78873 0.42856 0.77455
 C1242 C 0.76879 0.43168 0.77854
 N1243 N 0.75901 0.41874 0.79000
 C1244 C 0.76824 0.40284 0.79783
 C1245 C 0.78829 0.39951 0.79390
 N1246 N 0.79796 0.41251 0.78215
 N1247 N 0.79865 0.44191 0.76361
 C1248 C 0.78952 0.45830 0.75656
 C1249 C 0.76951 0.46135 0.76041
 N1250 N 0.75963 0.44788 0.77131
 H1251 H 0.75984 0.39292 0.80687
 H1252 H 0.79773 0.46881 0.74799
 C1253 C 0.78426 -0.07208 0.27562
 C1254 C 0.76428 -0.06871 0.27920
 N1255 N 0.75381 -0.08209 0.28942
 C1256 C 0.76241 -0.09866 0.29650
 C1257 C 0.78254 -0.10216 0.29316
 N1258 N 0.79290 -0.08873 0.28257
 N1259 N 0.79476 -0.05841 0.26570
 C1260 C 0.78618 -0.04149 0.25927
 C1261 C 0.76614 -0.03815 0.26280
 N1262 N 0.75571 -0.05194 0.27270
 H1263 H 0.75344 -0.10890 0.30455
 H1264 H 0.79484 -0.03079 0.25141
 C1265 C 0.27325 0.57046 0.71649
 C1266 C 0.28526 0.55927 0.72907
 N1267 N 0.30384 0.56524 0.73270
 C1268 C 0.31098 0.58186 0.72430
 C1269 C 0.29906 0.59294 0.71146
 N1270 N 0.28045 0.58687 0.70790
 N1271 N 0.25461 0.56470 0.71299
 C1272 C 0.24740 0.54822 0.72148
 C1273 C 0.25938 0.53686 0.73398
 N1274 N 0.27815 0.54262 0.73739
 H1275 H 0.32588 0.58615 0.72737
 H1276 H 0.23252 0.54386 0.71833
 C1277 C 0.29323 1.06701 0.22516
 C1278 C 0.27317 1.06397 0.22208
 N1279 N 0.26266 1.07721 0.21141
 C1280 C 0.27132 1.09336 0.20360
 C1281 C 0.29140 1.09654 0.20674
 N1282 N 0.30183 1.08324 0.21756
 N1283 N 0.30384 1.05353 0.23543
 C1284 C 0.29530 1.03708 0.24271
 C1285 C 0.27519 1.03405 0.23976
 N1286 N 0.26460 1.04766 0.22951
 H1287 H 0.26254 1.10367 0.19521
 H1288 H 0.30407 1.02652 0.25080
 C1289 C 0.79121 0.57413 0.22839
 C1290 C 0.77112 0.57160 0.22492
 N1291 N 0.76081 0.58569 0.21529
 C1292 C 0.76975 0.60207 0.20854
 C1293 C 0.78998 0.60448 0.21145
 N1294 N 0.80023 0.59051 0.22156
 N1295 N 0.80150 0.55975 0.23773
 C1296 C 0.79263 0.54290 0.24358
 C1297 C 0.77254 0.54025 0.23987
 N1298 N 0.76234 0.55479 0.23063
 H1299 H 0.76121 0.61293 0.20059
 H1300 H 0.80116 0.53169 0.25103
 C1301 C 0.77669 1.07023 0.71340
 C1302 C 0.77914 1.06768 0.73384
 N1303 N 0.78975 1.08087 0.74428
 C1304 C 0.79814 1.09648 0.73520
 C1305 C 0.79570 1.09911 0.71473
 N1306 N 0.78490 1.08591 0.70435
 N1307 N 0.76656 1.05672 0.70286
 C1308 C 0.75887 1.04068 0.71183
 C1309 C 0.76127 1.03813 0.73229
 N1310 N 0.77133 1.05178 0.74282
 H1311 H 0.80647 1.10675 0.74394
 H1312 H 0.75102 1.02998 0.70312
 C1313 C 0.71557 0.57399 0.27337
 C1314 C 0.73531 0.57006 0.27763
 N1315 N 0.74561 0.58282 0.28888
 C1316 C 0.73700 0.59928 0.29628
 C1317 C 0.71711 0.60313 0.29234
 N1318 N 0.70693 0.59037 0.28082
 N1319 N 0.70524 0.56115 0.26221
 C1320 C 0.71376 0.54446 0.25521
 C1321 C 0.73351 0.54040 0.25959
 N1322 N 0.74378 0.55339 0.27073
 H1323 H 0.74562 0.60910 0.30525
 H1324 H 0.70524 0.53446 0.24631
 C1325 C 0.71448 1.07384 0.77801
 C1326 C 0.72790 1.06396 0.79023
 N1327 N 0.73199 1.07125 0.80839
 C1328 C 0.72323 1.08797 0.81499
 C1329 C 0.70939 1.09780 0.80299
 N1330 N 0.70541 1.09036 0.78472
 N1331 N 0.71073 1.06676 0.75965
 C1332 C 0.71974 1.05015 0.75301
 C1333 C 0.73288 1.04003 0.76539
 N1334 N 0.73661 1.04719 0.78377
 H1335 H 0.72688 1.09316 0.82962
 H1336 H 0.71644 1.04466 0.73837
 C1337 C 0.20751 0.57028 0.77515
 C1338 C 0.22767 0.56690 0.77742
 N1339 N 0.23872 0.58019 0.78724
 C1340 C 0.23052 0.59672 0.79500
 C1341 C 0.21032 0.60022 0.79277
 N1342 N 0.19933 0.58687 0.78277
 N1343 N 0.19641 0.55678 0.76566
 C1344 C 0.20455 0.53997 0.75840
 C1345 C 0.22476 0.53655 0.76060
 N1346 N 0.23582 0.55021 0.77007
 H1347 H 0.23975 0.60704 0.80271
 H1348 H 0.19539 0.52942 0.75091
 C1349 C 0.22622 1.06872 0.28483
 C1350 C 0.21400 1.05701 0.27310
 N1351 N 0.19493 1.06215 0.27071
 C1352 C 0.18750 1.07852 0.27950
 C1353 C 0.19965 1.09018 0.29142
 N1354 N 0.21875 1.08492 0.29381
 N1355 N 0.24532 1.06366 0.28711
 C1356 C 0.25278 1.04737 0.27821
 C1357 C 0.24056 1.03553 0.26656
 N1358 N 0.22137 1.04061 0.26440
 H1359 H 0.17222 1.08221 0.27739
 H1360 H 0.26798 1.04345 0.28055
 C1361 C 0.72109 0.42610 0.71564
 C1362 C 0.70849 0.43808 0.72684
 N1363 N 0.68940 0.43306 0.72879
 C1364 C 0.68231 0.41660 0.72005
 C1365 C 0.69484 0.40460 0.70867
 N1366 N 0.71399 0.40974 0.70675
 N1367 N 0.74019 0.43111 0.71372
 C1368 C 0.74727 0.44755 0.72251
 C1369 C 0.73468 0.45963 0.73373
 N1370 N 0.71550 0.45460 0.73547
 H1371 H 0.66700 0.41311 0.72184
 H1372 H 0.76247 0.45139 0.72042
 C1373 C 0.71169 -0.07221 0.22581
 C1374 C 0.73148 -0.06834 0.22191
 N1375 N 0.74201 -0.08091 0.21049
 C1376 C 0.73357 -0.09708 0.20251
 C1377 C 0.71368 -0.10088 0.20613
 N1378 N 0.70326 -0.08840 0.21790
 N1379 N 0.70103 -0.05935 0.23681
 C1380 C 0.70922 -0.04266 0.24394
 C1381 C 0.72900 -0.03867 0.23994
 N1382 N 0.73967 -0.05172 0.22907
 H1383 H 0.74230 -0.10679 0.19335
 H1384 H 0.70040 -0.03254 0.25256
 C1385 C 0.22836 0.43094 0.21312
 C1386 C 0.21542 0.44581 0.21937
 N1387 N 0.19591 0.44364 0.21672
 C1388 C 0.18865 0.42715 0.20829
 C1389 C 0.20147 0.41208 0.20217
 N1390 N 0.22112 0.41442 0.20460
 N1391 N 0.24790 0.43316 0.21601
 C1392 C 0.25504 0.44952 0.22497
 C1393 C 0.24205 0.46433 0.23139
 N1394 N 0.22253 0.46211 0.22821
 H1395 H 0.17298 0.42588 0.20642
 H1396 H 0.27068 0.45102 0.22692
 C1397 C 0.22644 -0.07290 0.71330
 C1398 C 0.21458 -0.06085 0.72521
 N1399 N 0.19581 -0.06621 0.72891
 C1400 C 0.18835 -0.08305 0.72117
 C1401 C 0.20016 -0.09503 0.70903
 N1402 N 0.21896 -0.08954 0.70545
 N1403 N 0.24521 -0.06770 0.70961
 C1404 C 0.25273 -0.05098 0.71734
 C1405 C 0.24096 -0.03881 0.72930
 N1406 N 0.22203 -0.04400 0.73284
 H1407 H 0.17333 -0.08685 0.72429
 H1408 H 0.26771 -0.04709 0.71402
 C1409 C 0.26816 0.29223 0.42917
 C1410 C 0.26852 0.27181 0.43180
 N1411 N 0.27627 0.26013 0.41752
 C1412 C 0.28386 0.26794 0.40075
 C1413 C 0.28364 0.28840 0.39805
 N1414 N 0.27565 0.30006 0.41235
 N1415 N 0.26072 0.30390 0.44366
 C1416 C 0.25366 0.29605 0.46070
 C1417 C 0.25395 0.27559 0.46333
 N1418 N 0.26140 0.26399 0.44872
 H1419 H 0.28998 0.25823 0.38967
 H1420 H 0.24777 0.30565 0.47203
 C1421 C 0.28892 0.77390 -0.06605
 C1422 C 0.26859 0.77480 -0.06319
 N1423 N 0.25717 0.78407 -0.07677
 C1424 C 0.26517 0.79251 -0.09308
 C1425 C 0.28554 0.79152 -0.09604
 N1426 N 0.29687 0.78215 -0.08238
 N1427 N 0.30042 0.76498 -0.05235
 C1428 C 0.29251 0.75691 -0.03584
 C1429 C 0.27214 0.75763 -0.03298
 N1430 N 0.26064 0.76659 -0.04679
 H1431 H 0.25569 0.79971 -0.10366
 H1432 H 0.30197 0.74987 -0.02512
 C1433 C 0.77651 0.28505 -0.06977
 C1434 C 0.78955 0.27515 -0.05713
 N1435 N 0.80870 0.27350 -0.06221
 C1436 C 0.81543 0.28125 -0.07940
 C1437 C 0.80246 0.29131 -0.09204
 N1438 N 0.78327 0.29300 -0.08682
 N1439 N 0.75728 0.28641 -0.06487
 C1440 C 0.75048 0.27827 -0.04789
 C1441 C 0.76351 0.26842 -0.03518
 N1442 N 0.78281 0.26721 -0.04007
 H1443 H 0.83080 0.27976 -0.08299
 H1444 H 0.73509 0.27955 -0.04427
 C1445 C 0.79290 0.76949 0.43383
 C1446 C 0.77279 0.77040 0.43799
 N1447 N 0.76051 0.77962 0.42519
 C1448 C 0.76743 0.78799 0.40838
 C1449 C 0.78755 0.78694 0.40405
 N1450 N 0.79978 0.77766 0.41695
 N1451 N 0.80524 0.76058 0.44679
 C1452 C 0.79834 0.75247 0.46375
 C1453 C 0.77818 0.75310 0.46780
 N1454 N 0.76587 0.76211 0.45478
 H1455 H 0.75727 0.79519 0.39845
 H1456 H 0.80842 0.74535 0.47384
 C1457 C 0.72581 0.28843 0.57158
 C1458 C 0.72559 0.26798 0.56910
 N1459 N 0.71792 0.25653 0.58350
 C1460 C 0.71029 0.26460 0.60023
 C1461 C 0.71042 0.28508 0.60279
 N1462 N 0.71834 0.29651 0.58838
 N1463 N 0.73302 0.29990 0.55692
 C1464 C 0.73995 0.29184 0.53986
 C1465 C 0.73982 0.27136 0.53737
 N1466 N 0.73265 0.25992 0.55215
 H1467 H 0.70423 0.25508 0.61142
 H1468 H 0.74557 0.30129 0.52837
 C1469 C 0.71322 0.77161 1.06479
 C1470 C 0.72123 0.78435 1.05068
 N1471 N 0.72153 0.80391 1.05434
 C1472 C 0.71426 0.81134 1.07151
 C1473 C 0.70612 0.79864 1.08564
 N1474 N 0.70575 0.77903 1.08184
 N1475 N 0.71321 0.75201 1.06129
 C1476 C 0.72090 0.74455 1.04433
 C1477 C 0.72888 0.75727 1.03015
 N1478 N 0.72872 0.77694 1.03363
 H1479 H 0.71465 0.82702 1.07396
 H1480 H 0.72069 0.72887 1.04183
 C1481 C 0.22762 0.28786 1.07566
 C1482 C 0.21518 0.28016 1.06135
 N1483 N 0.19560 0.27989 1.06469
 C1484 C 0.18796 0.28703 1.08184
 C1485 C 0.20045 0.29500 1.09628
 N1486 N 0.22010 0.29524 1.09274
 N1487 N 0.24799 0.28766 1.07199
 C1488 C 0.25597 0.28003 1.05457
 C1489 C 0.24248 0.27259 1.04074
 N1490 N 0.22283 0.27292 1.04433
 H1491 H 0.17228 0.28674 1.08398
 H1492 H 0.25781 0.28684 1.06871
 C1493 C 0.21426 0.77510 0.56683
 C1494 C 0.23352 0.78026 0.56199
 N1495 N 0.24354 0.79256 0.57405
 C1496 C 0.23515 0.79997 0.59074
 C1497 C 0.21589 0.79472 0.59572
 N1498 N 0.20597 0.78232 0.58358
 N1499 N 0.20405 0.76318 0.55457
 C1500 C 0.21223 0.75618 0.53763
 C1501 C 0.23156 0.76116 0.53282
 N1502 N 0.24178 0.77312 0.54516
 H1503 H 0.24352 0.80969 0.60008
 H1504 H 0.20381 0.74674 0.52803
 C1505 C 0.28386 0.72159 0.56723
 C1506 C 0.26841 0.71113 0.55864
 N1507 N 0.26230 0.69422 0.56713
 C1508 C 0.27093 0.68725 0.58385
 C1509 C 0.28650 0.69761 0.59250
 N1510 N 0.29255 0.71459 0.58388
 N1511 N 0.29002 0.73847 0.55869
 C1512 C 0.28149 0.74532 0.54186
 C1513 C 0.26611 0.73481 0.53319
 N1514 N 0.25991 0.71792 0.54181
 H1515 H 0.26575 0.67367 0.59012
 H1516 H 0.28668 0.75875 0.53523
 C1517 C 0.28082 0.21907 1.07356
 C1518 C 0.29450 0.22818 1.06115
 N1519 N 0.31371 0.22807 1.06617
 C1520 C 0.31991 0.21932 1.08311
 C1521 C 0.30631 0.21009 1.09558
 N1522 N 0.28704 0.21012 1.09039
 N1523 N 0.26154 0.21955 1.06869
 C1524 C 0.25532 0.22879 1.05199
 C1525 C 0.26900 0.23787 1.03954
 N1526 N 0.28832 0.23722 1.04439
 H1527 H 0.33535 0.21942 1.08666
 H1528 H 0.23988 0.22900 1.04841
 C1529 C 0.78262 0.71945 1.06376
 C1530 C 0.77450 0.70494 1.05155
 N1531 N 0.77616 0.68581 1.05674
 C1532 C 0.78540 0.68048 1.07370
 C1533 C 0.79342 0.69495 1.08609
 N1534 N 0.79194 0.71414 1.08069
 N1535 N 0.78081 0.73861 1.05862
 C1536 C 0.77109 0.74392 1.04190
 C1537 C 0.76270 0.72944 1.02978
 N1538 N 0.76485 0.71023 1.03483
 H1539 H 0.78651 0.66508 1.07736
 H1540 H 0.76994 0.75930 1.03806
 C1541 C 0.78821 0.22646 0.57097
 C1542 C 0.77770 0.21362 0.55876
 N1543 N 0.77612 0.19447 0.56388
 C1544 C 0.78451 0.18753 0.58071
 C1545 C 0.79514 0.20030 0.59297
 N1546 N 0.79679 0.21950 0.58770
 N1547 N 0.78953 0.24569 0.56596
 C1548 C 0.78077 0.25266 0.54931
 C1549 C 0.77026 0.23982 0.53705
 N1550 N 0.76912 0.22053 0.54205
 H1551 H 0.78304 0.17216 0.58432
 H1552 H 0.78209 0.26803 0.54557
 C1553 C 0.73237 0.71149 0.43013
 C1554 C 0.72052 0.72170 0.44367
 N1555 N 0.70164 0.72591 0.43893
 C1556 C 0.69401 0.72026 0.42126
 C1557 C 0.70578 0.70977 0.40779
 N1558 N 0.72471 0.70568 0.41264
 N1559 N 0.75131 0.70746 0.43470
 C1560 C 0.75898 0.71321 0.45228
 C1561 C 0.74713 0.72331 0.46592
 N1562 N 0.72812 0.72728 0.46131
 H1563 H 0.67887 0.72366 0.41797
 H1564 H 0.77415 0.70992 0.45563
 C1565 C 0.72084 0.21927 -0.06916
 C1566 C 0.70823 0.23026 -0.05697
 N1567 N 0.68917 0.23258 -0.06219
 C1568 C 0.68211 0.22434 -0.07904
 C1569 C 0.69464 0.21303 -0.09107
 N1570 N 0.71373 0.21079 -0.08576
 N1571 N 0.73999 0.21724 -0.06418
 C1572 C 0.74710 0.22567 -0.04749
 C1573 C 0.73446 0.23642 -0.03512
 N1574 N 0.71525 0.23842 -0.04012
 H1575 H 0.66683 0.22630 -0.08277
 H1576 H 0.76241 0.22381 -0.04374
 C1577 C 0.22650 0.71293 -0.07013
 C1578 C 0.21371 0.72161 -0.05638
 N1579 N 0.19431 0.72281 -0.06051
 C1580 C 0.18708 0.71575 -0.07781
 C1581 C 0.19983 0.70696 -0.09164
 N1582 N 0.21929 0.70575 -0.08737
 N1583 N 0.24593 0.71182 -0.06601
 C1584 C 0.25314 0.71907 -0.04877
 C1585 C 0.24037 0.72786 -0.03500
 N1586 N 0.22088 0.72875 -0.03913
 H1587 H 0.17153 0.71687 -0.08056
 H1588 H 0.26866 0.71785 -0.04575
 C1589 C 0.21111 0.22806 0.42776
 C1590 C 0.22307 0.21630 0.43985
 N1591 N 0.22747 0.19769 0.43419
 C1592 C 0.22041 0.19023 0.41699
 C1593 C 0.20819 0.20186 0.40495
 N1594 N 0.20384 0.22054 0.41071
 N1595 N 0.20693 0.24678 0.43328
 C1596 C 0.21418 0.25428 0.45039
 C1597 C 0.22602 0.24248 0.46259
 N1598 N 0.23013 0.22370 0.45703
 H1599 H 0.22405 0.17528 0.41301
 H1600 H 0.21067 0.26925 0.45452
 C1601 C 0.28252 0.43021 0.72646
 C1602 C 0.26239 0.43294 0.72325
 N1603 N 0.25200 0.41879 0.71397
 C1604 C 0.26087 0.40206 0.70752
 C1605 C 0.28108 0.39927 0.71052
 N1606 N 0.29141 0.41344 0.72009
 N1607 N 0.29292 0.44458 0.73548
 C1608 C 0.28409 0.46158 0.74139
 C1609 C 0.26390 0.46432 0.73825
 N1610 N 0.25358 0.44984 0.72920
 H1611 H 0.25218 0.39108 0.70011
 H1612 H 0.29269 0.47277 0.74859
 C1613 C 0.28912 0.92770 0.22566
 C1614 C 0.26935 0.93190 0.22181
 N1615 N 0.25878 0.91936 0.21050
 C1616 C 0.26715 0.90289 0.20269
 C1617 C 0.28704 0.89881 0.20635
 N1618 N 0.29742 0.91135 0.21789
 N1619 N 0.29987 0.94030 0.23665
 C1620 C 0.29180 0.95711 0.24383
 C1621 C 0.27207 0.96152 0.23985
 N1622 N 0.26125 0.94871 0.22898
 H1623 H 0.25841 0.89324 0.19364
 H1624 H 0.30071 0.96701 0.25246
 C1625 C 0.78813 0.43359 0.22345
 C1626 C 0.76862 0.43804 0.21871
 N1627 N 0.75835 0.42568 0.20695
 C1628 C 0.76677 0.40906 0.19960
 C1629 C 0.78636 0.40458 0.20427
 N1630 N 0.79649 0.41699 0.21620
 N1631 N 0.79852 0.44610 0.23493
 C1632 C 0.79029 0.46298 0.24182
 C1633 C 0.77074 0.46751 0.23708
 N1634 N 0.76037 0.45484 0.22564
 H1635 H 0.75823 0.39949 0.19027
 H1636 H 0.79886 0.47275 0.25094
 C1637 C 0.78452 0.93277 0.72632
 C1638 C 0.77404 0.94489 0.71323
 N1639 N 0.77300 0.94005 0.69383
 C1640 C 0.78193 0.92357 0.68687
 C1641 C 0.79256 0.91142 0.69988
 N1642 N 0.79364 0.91639 0.71935
 N1643 N 0.78539 0.93760 0.74577
 C1644 C 0.77627 0.95402 0.75272
 C1645 C 0.76586 0.96623 0.73960
 N1646 N 0.76513 0.96137 0.72011
 H1647 H 0.78089 0.92017 0.67129
 H1648 H 0.77745 0.95773 0.76823
 C1649 C 0.70748 0.56475 0.72571
 C1650 C 0.72783 0.56277 0.72335
 N1651 N 0.73797 0.57698 0.71393
 C1652 C 0.72868 0.59305 0.70654
 C1653 C 0.70827 0.59511 0.70871
 N1654 N 0.69815 0.58091 0.71844
 N1655 N 0.69736 0.55020 0.73474
 C1656 C 0.70666 0.53375 0.74141
 C1657 C 0.72704 0.53178 0.73908
 N1658 N 0.73710 0.54645 0.73010
 H1659 H 0.73721 0.60411 0.69909
 H1660 H 0.69827 0.52234 0.74850
 C1661 C 0.71009 0.06689 0.22428
 C1662 C 0.73008 0.06315 0.22123
 N1663 N 0.74076 0.07574 0.21011
 C1664 C 0.73231 0.09190 0.20183
 C1665 C 0.71229 0.09572 0.20491
 N1666 N 0.70173 0.08307 0.21618
 N1667 N 0.69928 0.05409 0.23499
 C1668 C 0.70754 0.03760 0.24271
 C1669 C 0.72756 0.03382 0.23973
 N1670 N 0.73839 0.04677 0.22908
 H1671 H 0.74118 0.10169 0.19307
 H1672 H 0.69861 0.02755 0.25110
 C1673 C 0.22608 0.57007 0.21505
 C1674 C 0.21345 0.55562 0.22238
 N1675 N 0.19382 0.55819 0.22088
 C1676 C 0.18616 0.57461 0.21248
 C1677 C 0.19869 0.58913 0.20503
 N1678 N 0.21844 0.58644 0.20641
 N1679 N 0.24574 0.56754 0.21687
 C1680 C 0.25333 0.55123 0.22569
 C1681 C 0.24069 0.53672 0.23295
 N1682 N 0.22102 0.53928 0.23095
 H1683 H 0.17042 0.57619 0.21145
 H1684 H 0.26905 0.54946 0.22681
 C1685 C 0.21723 0.06778 0.72238
 C1686 C 0.23716 0.06501 0.71801
 N1687 N 0.24689 0.07899 0.70779
 C1688 C 0.23760 0.09556 0.70156
 C1689 C 0.21762 0.09843 0.70582
 N1690 N 0.20794 0.08444 0.71630
 N1691 N 0.20742 0.05354 0.73222
 C1692 C 0.21661 0.03664 0.73783
 C1693 C 0.23659 0.03386 0.73355
 N1694 N 0.24636 0.04823 0.72373
 H1695 H 0.24578 0.10641 0.69340
 H1696 H 0.20845 0.02552 0.74565
 C1697 C 0.28059 0.56938 0.28760
 C1698 C 0.29400 0.55514 0.28090
 N1699 N 0.31343 0.55782 0.28371
 C1700 C 0.32015 0.57427 0.29266
 C1701 C 0.30685 0.58875 0.29917
 N1702 N 0.28729 0.58586 0.29664
 N1703 N 0.26115 0.56667 0.28455
 C1704 C 0.25454 0.55044 0.27497
 C1705 C 0.26800 0.53630 0.26801
 N1706 N 0.28742 0.53896 0.27141
 H1707 H 0.33576 0.57605 0.29458
 H1708 H 0.23896 0.54850 0.27295
 C1709 C 0.29001 0.06843 0.77075
 C1710 C 0.27059 0.06340 0.77511
 N1711 N 0.25974 0.07517 0.78709
 C1712 C 0.26746 0.09172 0.79506
 C1713 C 0.28692 0.09684 0.79079
 N1714 N 0.29770 0.08506 0.77857
 N1715 N 0.30098 0.05636 0.75914
 C1716 C 0.29344 0.03943 0.75177
 C1717 C 0.27397 0.03440 0.75606
 N1718 N 0.26302 0.04660 0.76764
 H1719 H 0.25842 0.10080 0.80454
 H1720 H 0.30249 0.03002 0.74261
 C1721 C 0.77665 0.56710 0.78242
 C1722 C 0.78895 0.55503 0.77098
 N1723 N 0.80798 0.56003 0.76846
 C1724 C 0.81531 0.57657 0.77685
 C1725 C 0.80308 0.58866 0.78847
 N1726 N 0.78399 0.58353 0.79095
 N1727 N 0.75761 0.56213 0.78491
 C1728 C 0.75028 0.54562 0.77648
 C1729 C 0.76255 0.53345 0.76501
 N1730 N 0.78169 0.53845 0.76268
 H1731 H 0.83056 0.58006 0.77463
 H1732 H 0.73512 0.54184 0.77897
 C1733 C 0.77585 0.06717 0.28555
 C1734 C 0.78819 0.05544 0.27378
 N1735 N 0.80724 0.06046 0.27152
 C1736 C 0.81452 0.07670 0.28049
 C1737 C 0.80225 0.08838 0.29246
 N1738 N 0.78317 0.08325 0.29470
 N1739 N 0.75677 0.06226 0.28772
 C1740 C 0.74946 0.04610 0.27867
 C1741 C 0.76179 0.03422 0.26697
 N1742 N 0.78096 0.03915 0.26492
 H1743 H 0.82979 0.08026 0.27846
 H1744 H 0.73426 0.04230 0.28092
 C1745 C 0.71372 0.43561 0.27236
 C1746 C 0.73315 0.43958 0.27770
 N1747 N 0.74256 0.42766 0.29065
 C1748 C 0.73338 0.41198 0.29870
 C1749 C 0.71385 0.40799 0.29354
 N1750 N 0.70454 0.41988 0.28032
 N1751 N 0.70418 0.44790 0.25978
 C1752 C 0.71316 0.46410 0.25246
 C1753 C 0.73258 0.46813 0.25789
 N1754 N 0.74211 0.45566 0.27035
 H1755 H 0.74132 0.40278 0.30899
 H1756 H 0.70521 0.47382 0.24263
 C1757 C 0.72131 0.93504 0.78984
 C1758 C 0.72004 0.93785 0.76933
 N1759 N 0.71073 0.92441 0.75800
 C1760 C 0.70250 0.90828 0.76624
 C1761 C 0.70377 0.90534 0.78678
 N1762 N 0.71328 0.91882 0.79808
 N1763 N 0.73022 0.94877 0.80121
 C1764 C 0.73787 0.96523 0.79298
 C1765 C 0.73673 0.96799 0.77243
 N1766 N 0.72783 0.95415 0.76111
 H1767 H 0.69523 0.89780 0.75681
 H1768 H 0.74484 0.97602 0.80233
 C1769 C 0.21001 0.42953 0.77435
 C1770 C 0.22966 0.43383 0.77846
 N1771 N 0.24050 0.42112 0.78941
 C1772 C 0.23256 0.40436 0.79660
 C1773 C 0.21284 0.40001 0.79263
 N1774 N 0.20207 0.41272 0.78144
 N1775 N 0.19909 0.44244 0.76368
 C1776 C 0.20692 0.45949 0.75699
 C1777 C 0.22662 0.46380 0.76104
 N1778 N 0.23751 0.45078 0.77171
 H1779 H 0.24162 0.39455 0.80527
 H1780 H 0.19792 0.46953 0.74850
 C1781 C 0.21460 0.93110 0.27597
 C1782 C 0.23483 0.93272 0.27911
 N1783 N 0.24447 0.91841 0.28919
 C1784 C 0.23478 0.90261 0.29644
 C1785 C 0.21446 0.90099 0.29347
 N1786 N 0.20493 0.91531 0.28316
 N1787 N 0.20488 0.94556 0.26620
 C1788 C 0.21445 0.96167 0.25952
 C1789 C 0.23471 0.96341 0.26270
 N1790 N 0.24441 0.94878 0.27242
 H1791 H 0.24290 0.89149 0.30444
 H1792 H 0.20635 0.97304 0.25184
 C1793 C 0.42540 0.29130 0.73211
 C1794 C 0.43968 0.28349 0.71935
 N1795 N 0.43699 0.28441 0.69954
 C1796 C 0.42057 0.29268 0.69181
 C1797 C 0.40616 0.30055 0.70446
 N1798 N 0.40899 0.29975 0.72440
 N1799 N 0.42816 0.29020 0.75197
 C1800 C 0.44458 0.28165 0.75962
 C1801 C 0.45892 0.27387 0.74683
 N1802 N 0.45608 0.27515 0.72697
 H1803 H 0.41889 0.29320 0.67592
 H1804 H 0.44661 0.28129 0.77548
 C1805 C 0.43458 0.78335 0.21948
 C1806 C 0.44598 0.79703 0.22980
 N1807 N 0.44016 0.81610 0.23049
 C1808 C 0.42348 0.82213 0.22128
 C1809 C 0.41221 0.80850 0.21068
 N1810 N 0.41811 0.78941 0.21008
 N1811 N 0.44022 0.76424 0.21892
 C1812 C 0.45680 0.75817 0.22820
 C1813 C 0.46835 0.77183 0.23840
 N1814 N 0.46270 0.79102 0.23886
 H1815 H 0.41929 0.83745 0.22198
 H1816 H 0.46113 0.74288 0.22734
 C1817 C 0.93052 0.28213 0.22074
 C1818 C 0.94246 0.29548 0.23087
 N1819 N 0.93768 0.31483 0.23095
 C1820 C 0.92146 0.32147 0.22134
 C1821 C 0.90966 0.30818 0.21093
 N1822 N 0.91453 0.28879 0.21088
 N1823 N 0.93506 0.26272 0.22099
 C1824 C 0.95110 0.25604 0.23085
 C1825 C 0.96322 0.26941 0.24073
 N1826 N 0.95865 0.28886 0.24043
 H1827 H 0.91801 0.33699 0.22161
 H1828 H 0.95458 0.24052 0.23070
 C1829 C 0.92814 0.77370 0.71310
 C1830 C 0.93989 0.78523 0.72547
 N1831 N 0.93379 0.80357 0.73050
 C1832 C 0.91650 0.81094 0.72368
 C1833 C 0.90480 0.79951 0.71108
 N1834 N 0.91101 0.78112 0.70613
 N1835 N 0.93409 0.75531 0.70814
 C1836 C 0.95128 0.74788 0.71504
 C1837 C 0.96312 0.75936 0.72742
 N1838 N 0.95717 0.77788 0.73225
 H1839 H 0.91215 0.82566 0.72784
 H1840 H 0.95574 0.73319 0.71083
 C1841 C 0.57327 0.27950 0.28535
 C1842 C 0.56103 0.29256 0.27499
 N1843 N 0.56626 0.31163 0.27321
 C1844 C 0.58318 0.31827 0.28129
 C1845 C 0.59539 0.30531 0.29191
 N1846 N 0.59004 0.28618 0.29370
 N1847 N 0.56821 0.26033 0.28680
 C1848 C 0.55146 0.25364 0.27837
 C1849 C 0.53908 0.26672 0.26816
 N1850 N 0.54416 0.28595 0.26682
 H1851 H 0.58687 0.33359 0.27969
 H1852 H 0.54769 0.23831 0.27982
 C1853 C 0.56832 0.77165 0.78581
 C1854 C 0.55636 0.78401 0.77433
 N1855 N 0.56209 0.80265 0.77064
 C1856 C 0.57928 0.80954 0.77786
 C1857 C 0.59129 0.79728 0.78949
 N1858 N 0.58541 0.77858 0.79325
 N1859 N 0.56270 0.75288 0.78920
 C1860 C 0.54567 0.74591 0.78159
 C1861 C 0.53365 0.75830 0.77016
 N1862 N 0.53928 0.77713 0.76691
 H1863 H 0.58336 0.82451 0.77474
 H1864 H 0.54147 0.73091 0.78450
 C1865 C 0.07411 0.28980 0.76688
 C1866 C 0.06021 0.28123 0.77942
 N1867 N 0.06396 0.27979 0.79905
 C1868 C 0.08101 0.28652 0.80676
 C1869 C 0.09489 0.29537 0.79433
 N1870 N 0.09104 0.29684 0.77462
 N1871 N 0.07047 0.29085 0.74716
 C1872 C 0.05352 0.28376 0.73944
 C1873 C 0.03949 0.27543 0.75203
 N1874 N 0.04319 0.27445 0.77177
 H1875 H 0.08354 0.28523 0.82249
 H1876 H 0.05086 0.28490 0.72372
 C1877 C 0.06602 0.78478 0.28003
 C1878 C 0.05459 0.79789 0.26885
 N1879 N 0.06032 0.81685 0.26710
 C1880 C 0.07693 0.82331 0.27606
 C1881 C 0.08824 0.81026 0.28752
 N1882 N 0.08241 0.79128 0.28918
 N1883 N 0.06054 0.76578 0.28163
 C1884 C 0.04410 0.75924 0.27257
 C1885 C 0.03247 0.77230 0.26146
 N1886 N 0.03796 0.79143 0.25997
 H1887 H 0.08104 0.83852 0.27450
 H1888 H 0.03996 0.74403 0.27422
 C1889 C 0.56590 0.70715 0.72785
 C1890 C 0.56381 0.72765 0.72730
 N1891 N 0.57836 0.73871 0.71964
 C1892 C 0.59489 0.73023 0.71232
 C1893 C 0.59708 0.70969 0.71274
 N1894 N 0.58251 0.69862 0.72066
 N1895 N 0.55109 0.69612 0.73517
 C1896 C 0.53428 0.70467 0.74192
 C1897 C 0.53223 0.72522 0.74149
 N1898 N 0.54713 0.73617 0.73415
 H1899 H 0.60621 0.73948 0.70630
 H1900 H 0.52272 0.69557 0.74773
 C1901 C 0.57007 0.22103 0.21748
 C1902 C 0.55788 0.20871 0.22855
 N1903 N 0.56215 0.18926 0.22977
 C1904 C 0.57806 0.18157 0.22038
 C1905 C 0.59007 0.19384 0.20900
 N1906 N 0.58572 0.21331 0.20785
 N1907 N 0.56607 0.24052 0.21651
 C1908 C 0.55033 0.24828 0.22605
 C1909 C 0.53791 0.23596 0.23690
 N1910 N 0.54194 0.21639 0.23782
 H1911 H 0.58110 0.16602 0.22153
 H1912 H 0.54726 0.26383 0.22485
 C1913 C 0.06534 0.72473 0.21404
 C1914 C 0.05245 0.71269 0.22460
 N1915 N 0.05647 0.69323 0.22632
 C1916 C 0.07279 0.68526 0.21795
 C1917 C 0.08560 0.69724 0.20713
 N1918 N 0.08147 0.71674 0.20544
 N1919 N 0.06149 0.74422 0.21251
 C1920 C 0.04529 0.75224 0.22104
 C1921 C 0.03223 0.74021 0.23146
 N1922 N 0.03611 0.72063 0.23289
 H1923 H 0.07554 0.66969 0.21948
 H1924 H 0.04243 0.76779 0.21942
 C1925 C 0.06812 0.22323 0.70662
 C1926 C 0.06421 0.22219 0.72694
 N1927 N 0.07599 0.21101 0.73868
 C1928 C 0.09153 0.20088 0.73100
 C1929 C 0.09557 0.20212 0.71065
 N1930 N 0.08366 0.21333 0.69906
 N1931 N 0.05629 0.23404 0.69470
 C1932 C 0.04060 0.24388 0.70218
 C1933 C 0.03664 0.24303 0.72251
 N1934 N 0.04859 0.23219 0.73450
 H1935 H 0.10073 0.19223 0.74070
 H1936 H 0.03128 0.25232 0.69237
 C1937 C 0.43660 0.72667 0.28715
 C1938 C 0.44868 0.71488 0.27515
 N1939 N 0.44378 0.69592 0.27176
 C1940 C 0.42734 0.68818 0.27987
 C1941 C 0.41541 0.69984 0.29218
 N1942 N 0.42040 0.71885 0.29554
 N1943 N 0.44123 0.74576 0.29016
 C1944 C 0.45744 0.75361 0.28174
 C1945 C 0.46971 0.74177 0.26999
 N1946 N 0.46507 0.72261 0.26702
 H1947 H 0.42386 0.67299 0.27700
 H1948 H 0.46088 0.76887 0.28435
 C1949 C 0.42776 0.22584 0.79411
 C1950 C 0.43105 0.22451 0.77365
 N1951 N 0.41803 0.21482 0.76213
 C1952 C 0.40188 0.20635 0.77012
 C1953 C 0.39842 0.20781 0.79058
 N1954 N 0.41150 0.21763 0.80205
 N1955 N 0.44103 0.23506 0.80573
 C1956 C 0.45746 0.24303 0.79783
 C1957 C 0.46068 0.24195 0.77734
 N1958 N 0.44733 0.23270 0.76571
 H1959 H 0.39175 0.19878 0.76054
 H1960 H 0.46785 0.25028 0.80739
 C1961 C 0.93223 0.70570 0.76751
 C1962 C 0.93446 0.72611 0.76867
 N1963 N 0.92042 0.73720 0.77751
 C1964 C 0.90424 0.72881 0.78541
 C1965 C 0.90194 0.70832 0.78448
 N1966 N 0.91604 0.69727 0.77540
 N1967 N 0.94643 0.69464 0.75880
 C1968 C 0.96282 0.70308 0.75126
 C1969 C 0.96512 0.72355 0.75245
 N1970 N 0.95078 0.73451 0.76118
 H1971 H 0.89334 0.73812 0.79233
 H1972 H 0.97389 0.69394 0.74435
 C1973 C 0.92923 0.22756 0.29188
 C1974 C 0.94346 0.21464 0.28424
 N1975 N 0.94044 0.19503 0.28493
 C1976 C 0.92374 0.18769 0.29278
 C1977 C 0.90940 0.20052 0.30045
 N1978 N 0.91256 0.22023 0.29993
 N1979 N 0.93219 0.24721 0.29082
 C1980 C 0.94871 0.25451 0.28242
 C1981 C 0.96296 0.24156 0.27476
 N1982 N 0.95998 0.22190 0.27603
 H1983 H 0.92176 0.17196 0.29309
 H1984 H 0.95081 0.27022 0.28188
 C1985 C 0.26939 0.28796 0.57118
 C1986 C 0.28234 0.28081 0.55671
 N1987 N 0.30191 0.28135 0.56000
 C1988 C 0.30917 0.28873 0.57715
 C1989 C 0.29627 0.29610 0.59161
 N1990 N 0.27663 0.29557 0.58820
 N1991 N 0.24979 0.28710 0.56801
 C1992 C 0.24255 0.27939 0.55099
 C1993 C 0.25550 0.27236 0.53644
 N1994 N 0.27513 0.27333 0.53963
 H1995 H 0.32485 0.28905 0.57929
 H1996 H 0.22687 0.27888 0.54874
 C1997 C 0.27937 0.77559 0.07436
 C1998 C 0.29293 0.76602 0.06200
 N1999 N 0.31210 0.76540 0.06720
 C2000 C 0.31837 0.77395 0.08420
 C2001 C 0.30487 0.78378 0.09650
 N2002 N 0.28565 0.78436 0.09119
 N2003 N 0.26016 0.77605 0.06927
 C2004 C 0.25389 0.76737 0.05235
 C2005 C 0.26745 0.75790 0.03987
 N2006 N 0.28672 0.75756 0.04498
 H2007 H 0.33377 0.77334 0.08782
 H2008 H 0.23852 0.76810 0.04849
 C2009 C 0.77699 0.28412 0.07253
 C2010 C 0.79003 0.27408 0.05997
 N2011 N 0.80915 0.27231 0.06516
 C2012 C 0.81585 0.28016 0.08234
 C2013 C 0.80288 0.29044 0.09483
 N2014 N 0.78373 0.29216 0.08952
 N2015 N 0.75781 0.28564 0.06755
 C2016 C 0.75104 0.27756 0.05054
 C2017 C 0.76407 0.26764 0.03787
 N2018 N 0.78333 0.26621 0.04284
 H2019 H 0.83120 0.27863 0.08600
 H2020 H 0.73568 0.27895 0.04683
 C2021 C 0.79131 0.76639 0.57496
 C2022 C 0.78295 0.77841 0.56032
 N2023 N 0.78197 0.79807 0.56308
 C2024 C 0.78895 0.80636 0.57988
 C2025 C 0.79749 0.79446 0.59455
 N2026 N 0.79853 0.77469 0.59168
 N2027 N 0.79202 0.74666 0.57218
 C2028 C 0.78479 0.73842 0.55538
 C2029 C 0.77660 0.75050 0.54067
 N2030 N 0.77598 0.77023 0.54353
 H2031 H 0.78806 0.82212 0.58157
 H2032 H 0.78570 0.72269 0.55337
 C2033 C 0.27900 0.71386 0.42628
 C2034 C 0.29158 0.72268 0.44003
 N2035 N 0.31111 0.72287 0.43651
 C2036 C 0.31869 0.71469 0.41983
 C2037 C 0.30618 0.70577 0.40599
 N2038 N 0.28656 0.70554 0.40966
 N2039 N 0.25943 0.71381 0.42976
 C2040 C 0.25187 0.72224 0.44634
 C2041 C 0.26442 0.73113 0.46014
 N2042 N 0.28405 0.73097 0.45667
 H2043 H 0.33435 0.71502 0.41757
 H2044 H 0.23623 0.72184 0.44886
 C2045 C 0.28798 0.22817 0.93194
 C2046 C 0.27736 0.21593 0.94465
 N2047 N 0.27465 0.19686 0.93968
 C2048 C 0.28201 0.18944 0.92254
 C2049 C 0.29280 0.20158 0.90981
 N2050 N 0.29558 0.22071 0.91492
 N2051 N 0.29039 0.24734 0.93677
 C2052 C 0.28265 0.25483 0.95373
 C2053 C 0.27212 0.24257 0.96655
 N2054 N 0.26985 0.22333 0.96170
 H2055 H 0.27964 0.17415 0.91905
 H2056 H 0.28486 0.27013 0.95732
 C2057 C 0.77055 0.70569 0.92325
 C2058 C 0.77086 0.72613 0.92578
 N2059 N 0.77882 0.73757 0.91155
 C2060 C 0.78666 0.72950 0.89493
 C2061 C 0.78645 0.70903 0.89233
 N2062 N 0.77824 0.69762 0.90658
 N2063 N 0.76303 0.69422 0.93774
 C2064 C 0.75587 0.70227 0.95469
 C2065 C 0.75611 0.72273 0.95724
 N2066 N 0.76360 0.73418 0.94264
 H2067 H 0.79294 0.73901 0.88386
 H2068 H 0.75000 0.69283 0.96607
 C2069 C 0.78430 0.22384 0.42974
 C2070 C 0.77488 0.21091 0.44273
 N2071 N 0.77391 0.19157 0.43812
 C2072 C 0.78193 0.18453 0.42110
 C2073 C 0.79163 0.19737 0.40816
 N2074 N 0.79260 0.21677 0.41289
 N2075 N 0.78491 0.24326 0.43414
 C2076 C 0.77653 0.25034 0.45096
 C2077 C 0.76727 0.23742 0.46410
 N2078 N 0.76677 0.21793 0.45970
 H2079 H 0.78101 0.16901 0.41791
 H2080 H 0.77725 0.26587 0.45418
 C2081 C 0.71397 0.27798 0.43112
 C2082 C 0.72158 0.29165 0.44460
 N2083 N 0.71967 0.31109 0.44091
 C2084 C 0.71076 0.31755 0.42420
 C2085 C 0.70333 0.30397 0.41049
 N2086 N 0.70495 0.28442 0.41438
 N2087 N 0.71618 0.25851 0.43479
 C2088 C 0.72577 0.25211 0.45123
 C2089 C 0.73361 0.26579 0.46461
 N2090 N 0.73107 0.28527 0.46100
 H2091 H 0.70959 0.33318 0.42159
 H2092 H 0.72710 0.23651 0.45392
 C2093 C 0.70947 0.77051 0.92369
 C2094 C 0.71986 0.78261 0.93674
 N2095 N 0.72166 0.80199 0.93270
 C2096 C 0.71358 0.80988 0.91614
 C2097 C 0.70303 0.79787 0.90306
 N2098 N 0.70119 0.77841 0.90724
 N2099 N 0.70791 0.75106 0.92767
 C2100 C 0.71626 0.74317 0.94413
 C2101 C 0.72659 0.75530 0.95725
 N2102 N 0.72801 0.77479 0.95324
 H2103 H 0.71521 0.82541 0.91340
 H2104 H 0.71468 0.72766 0.94710
 C2105 C 0.22763 0.29126 0.93366
 C2106 C 0.22432 0.27146 0.93819
 N2107 N 0.21317 0.26043 0.92593
 C2108 C 0.20511 0.26830 0.90933
 C2109 C 0.20854 0.28807 0.90462
 N2110 N 0.21983 0.29905 0.91694
 N2111 N 0.23832 0.30244 0.94623
 C2112 C 0.24584 0.29471 0.96316
 C2113 C 0.24275 0.27485 0.96758
 N2114 N 0.23205 0.26368 0.95494
 H2115 H 0.19632 0.25914 0.89980
 H2116 H 0.25428 0.30389 0.97300
 C2117 C 0.22089 0.78037 0.42546
 C2118 C 0.20778 0.77051 0.43790
 N2119 N 0.18858 0.76957 0.43284
 C2120 C 0.18187 0.77805 0.41592
 C2121 C 0.19492 0.78816 0.40354
 N2122 N 0.21416 0.78905 0.40871
 N2123 N 0.24013 0.78115 0.43033
 C2124 C 0.24689 0.77249 0.44710
 C2125 C 0.23382 0.76268 0.45967
 N2126 N 0.21448 0.76205 0.45480
 H2127 H 0.16646 0.77715 0.41239
 H2128 H 0.26228 0.77343 0.45074
 C2129 C 0.72819 0.70500 0.57209
 C2130 C 0.72687 0.72515 0.56796
 N2131 N 0.71672 0.73712 0.58038
 C2132 C 0.70782 0.72986 0.59679
 C2133 C 0.70934 0.70973 0.60110
 N2134 N 0.71956 0.69783 0.58858
 N2135 N 0.73792 0.69291 0.55946
 C2136 C 0.74644 0.70006 0.54284
 C2137 C 0.74540 0.72024 0.53882
 N2138 N 0.73561 0.73235 0.55150
 H2139 H 0.69990 0.73976 0.60648
 H2140 H 0.75410 0.69016 0.53294
 C2141 C 0.72305 0.21717 0.07187
 C2142 C 0.70974 0.22681 0.05932
 N2143 N 0.69049 0.22753 0.06421
 C2144 C 0.68391 0.21906 0.08111
 C2145 C 0.69716 0.20922 0.09365
 N2146 N 0.71646 0.20849 0.08863
 N2147 N 0.74235 0.21670 0.06713
 C2148 C 0.74895 0.22547 0.05040
 C2149 C 0.73564 0.23504 0.03776
 N2150 N 0.71628 0.23537 0.04249
 H2151 H 0.66846 0.21978 0.08451
 H2152 H 0.76440 0.22483 0.04686
 C2153 C 0.22386 0.70984 0.07248
 C2154 C 0.21152 0.72064 0.05985
 N2155 N 0.19247 0.72340 0.06485
 C2156 C 0.18516 0.71587 0.08191
 C2157 C 0.19741 0.70488 0.09453
 N2158 N 0.21651 0.70210 0.08939
 N2159 N 0.24302 0.70742 0.06770
 C2160 C 0.25043 0.71537 0.05089
 C2161 C 0.23810 0.72610 0.03818
 N2162 N 0.21886 0.72840 0.04294
 H2163 H 0.16987 0.71825 0.08538
 H2164 H 0.26578 0.71333 0.04742
 C2165 C 0.21973 0.21659 0.56876
 C2166 C 0.20550 0.22436 0.55592
 N2167 N 0.18626 0.22224 0.56026
 C2168 C 0.18055 0.21283 0.57696
 C2169 C 0.19471 0.20504 0.58991
 N2170 N 0.21404 0.20703 0.58539
 N2171 N 0.23899 0.21901 0.56452
 C2172 C 0.24466 0.22893 0.54806
 C2173 C 0.23042 0.23677 0.53524
 N2174 N 0.21115 0.23412 0.53945
 H2175 H 0.16508 0.21139 0.57999
 H2176 H 0.26009 0.23059 0.54494
   
