data_POSCAR
  _audit_creation_date              2014-09-24
  _audit_creation_method            'ToBaCCo'
  _symmetry_space_group_name_H-M    'P1'
  _symmetry_Int_Tables_number       1
  _symmetry_cell_setting            triclinic
  loop_
  _symmetry_equiv_pos_as_xyz
 x,y,z
_cell_length_a 76.4968
_cell_length_b 76.7782
_cell_length_c 76.1085
_cell_angle_alpha 89.972500
_cell_angle_beta 90.078500
_cell_angle_gamma 89.868900
loop_
  _atom_site_label
  _atom_site_type_symbol
  _atom_site_fract_x
  _atom_site_fract_y
  _atom_site_fract_z
C1 C 0.31493 0.43377 0.91313
 C2 C 0.32964 0.44150 0.92095
 C3 C 0.33584 0.43621 0.93764
 C4 C 0.32680 0.42246 0.94601
 C5 C 0.31303 0.41358 0.93774
 C6 C 0.30697 0.41953 0.92141
 H7 H 0.33644 0.45124 0.91338
 H8 H 0.32992 0.41870 0.95931
 H9 H 0.29603 0.41312 0.91514
 C10 C 0.44348 0.83030 0.44437
 C11 C 0.42870 0.82191 0.45156
 C12 C 0.41976 0.80870 0.44245
 C13 C 0.42643 0.80300 0.42627
 C14 C 0.44184 0.81010 0.41932
 C15 C 0.45019 0.82371 0.42840
 H16 H 0.42424 0.82531 0.46458
 H17 H 0.41934 0.79336 0.41874
 H18 H 0.46156 0.82949 0.42244
 C19 C 0.92519 0.90201 0.82451
 C20 C 0.93217 0.90876 0.84019
 C21 C 0.92484 0.92363 0.84834
 C22 C 0.90967 0.93098 0.84071
 C23 C 0.90266 0.92459 0.82492
 C24 C 0.91060 0.91017 0.81690
 H25 H 0.94383 0.90275 0.84546
 H26 H 0.90283 0.94145 0.84727
 H27 H 0.90580 0.90561 0.80433
 C28 C 0.44215 -0.08108 0.30684
 C29 C 0.45125 -0.07196 0.32000
 C30 C 0.44355 -0.05790 0.32893
 C31 C 0.42726 -0.05164 0.32313
 C32 C 0.41834 -0.05983 0.30924
 C33 C 0.42565 -0.07484 0.30160
 H34 H 0.46432 -0.07596 0.32364
 H35 H 0.42137 -0.04056 0.32962
 H36 H 0.41812 -0.08196 0.29196
 C37 C 0.80907 0.30979 0.32851
 C38 C 0.82425 0.30184 0.32182
 C39 C 0.83273 0.30851 0.30690
 C40 C 0.82571 0.32328 0.29854
 C41 C 0.81063 0.33156 0.30502
 C42 C 0.80235 0.32460 0.31993
 H43 H 0.82967 0.29057 0.32843
 H44 H 0.83222 0.32856 0.28712
 H45 H 0.79079 0.33092 0.32507
 C46 C -0.18761 0.83793 0.81155
 C47 C -0.17148 0.83114 0.80582
 C48 C -0.16445 0.81587 0.81310
 C49 C -0.17326 0.80763 0.82698
 C50 C -0.18940 0.81405 0.83334
 C51 C -0.19658 0.82881 0.82486
 H52 H -0.16378 0.83805 0.79618
 H53 H -0.16712 0.79641 0.83289
 H54 H -0.20985 0.83259 0.82774
 C55 C 0.94246 0.32954 0.44269
 C56 C 0.92799 0.32110 0.45016
 C57 C 0.91914 0.30779 0.44116
 C58 C 0.92579 0.30205 0.42497
 C59 C 0.94098 0.30946 0.41777
 C60 C 0.94908 0.32335 0.42664
 H61 H 0.92341 0.32513 0.46298
 H62 H 0.91879 0.29223 0.41760
 H63 H 0.96039 0.32954 0.42087
 C64 C 0.42691 0.42563 0.84611
 C65 C 0.43375 0.41036 0.83833
 C66 C 0.42568 0.40253 0.82375
 C67 C 0.41038 0.40997 0.81687
 C68 C 0.40340 0.42532 0.82400
 C69 C 0.41164 0.43296 0.83861
 H70 H 0.44611 0.40508 0.84276
 H71 H 0.40385 0.40378 0.80590
 H72 H 0.40584 0.44454 0.84419
 C73 C 0.81489 0.91312 0.93446
 C74 C 0.83052 0.91983 0.94141
 C75 C 0.83810 0.93501 0.93448
 C76 C 0.83003 0.94327 0.92011
 C77 C 0.81476 0.93646 0.91249
 C78 C 0.80714 0.92158 0.91999
 H79 H 0.83709 0.91299 0.95196
 H80 H 0.83553 0.95520 0.91495
 H81 H 0.79521 0.91647 0.91438
 C82 C 0.31103 0.83397 0.30944
 C83 C 0.32729 0.82712 0.30386
 C84 C 0.33460 0.81216 0.31171
 C85 C 0.32591 0.80432 0.32589
 C86 C 0.30987 0.81087 0.33188
 C87 C 0.30225 0.82503 0.32306
 H88 H 0.33496 0.83378 0.29406
 H89 H 0.33173 0.79319 0.33238
 H90 H 0.28914 0.82870 0.32681
 C91 C 0.80785 0.42007 0.44218
 C92 C 0.82120 0.42891 0.45118
 C93 C 0.82997 0.44327 0.44371
 C94 C 0.82350 0.44985 0.42760
 C95 C 0.80969 0.44162 0.41862
 C96 C 0.80229 0.42651 0.42584
 H97 H 0.82447 0.42465 0.46431
 H98 H 0.82957 0.46096 0.42147
 H99 H 0.79257 0.41942 0.41840
 C100 C 0.93148 0.84134 -0.06800
 C101 C 0.91661 0.83317 -0.06071
 C102 C 0.90838 0.81908 -0.06908
 C103 C 0.91530 0.81281 -0.08490
 C104 C 0.93043 0.82012 -0.09217
 C105 C 0.93830 0.83441 -0.08380
 H106 H 0.91181 0.83709 -0.04796
 H107 H 0.90878 0.80231 -0.09175
 H108 H 0.94956 0.84023 -0.08999
 C109 C 0.32204 0.34477 0.81956
 C110 C 0.31425 0.33728 0.83447
 C111 C 0.32176 0.32273 0.84280
 C112 C 0.33750 0.31589 0.83621
 C113 C 0.34535 0.32295 0.82113
 C114 C 0.33750 0.33739 0.81291
 H115 H 0.30219 0.34270 0.83949
 H116 H 0.34373 0.30510 0.84291
 H117 H 0.34310 0.34253 0.80093
 C118 C 0.16350 0.56441 0.56246
 C119 C 0.17154 0.57847 0.55386
 C120 C 0.18651 0.58645 0.56087
 C121 C 0.19393 0.57964 0.57631
 C122 C 0.18636 0.56536 0.58498
 C123 C 0.17101 0.55799 0.57806
 H124 H 0.16620 0.58315 0.54155
 H125 H 0.20556 0.58559 0.58170
 H126 H 0.16461 0.54756 0.58512
 C127 C 0.59705 0.67349 0.07449
 C128 C 0.58975 0.68112 0.08959
 C129 C 0.57482 0.67400 0.09757
 C130 C 0.56734 0.65889 0.09036
 C131 C 0.57443 0.65106 0.07528
 C132 C 0.58937 0.65840 0.06754
 H133 H 0.59547 0.69286 0.09494
 H134 H 0.55570 0.65344 0.09626
 H135 H 0.59480 0.65257 0.05580
 C136 C 0.69352 0.19266 0.66761
 C137 C 0.67780 0.19904 0.67457
 C138 C 0.67009 0.19123 0.68935
 C139 C 0.67828 0.17667 0.69705
 C140 C 0.69428 0.17006 0.69053
 C141 C 0.70194 0.17876 0.67613
 H142 H 0.67136 0.20993 0.66825
 H143 H 0.67140 0.16993 0.70739
 H144 H 0.71477 0.17505 0.67152
 C145 C 1.07949 0.05654 0.19414
 C146 C 1.07285 0.05063 0.17798
 C147 C 1.05782 0.05823 0.17025
 C148 C 1.05007 0.07261 0.17894
 C149 C 1.05663 0.07881 0.19503
 C150 C 1.07077 0.07010 0.20284
 H151 H 1.08022 0.04088 0.17091
 H152 H 1.03878 0.07902 0.17341
 H153 H 1.07528 0.07419 0.21567
 C154 C 0.06114 0.16618 1.05899
 C155 C 0.05365 0.17343 1.07423
 C156 C 0.06020 0.18895 1.08174
 C157 C 0.07438 0.19713 1.07324
 C158 C 0.08260 0.18967 1.05860
 C159 C 0.07566 0.17440 1.05135
 H160 H 0.04344 0.16619 1.08075
 H161 H 0.07901 0.20967 1.07766
 H162 H 0.08178 0.16873 1.03989
 C163 C 0.16783 0.69170 0.69077
 C164 C 0.17673 0.67849 0.69993
 C165 C 0.19111 0.66980 0.69249
 C166 C 0.19762 0.67569 0.67626
 C167 C 0.18955 0.68957 0.66728
 C168 C 0.17440 0.69716 0.67445
 H169 H 0.17230 0.67478 0.71289
 H170 H 0.20887 0.66934 0.67049
 H171 H 0.16741 0.70696 0.66699
 C172 C 1.19332 0.16879 0.19206
 C173 C 1.17926 0.17770 0.19983
 C174 C 1.17014 0.19085 0.19077
 C175 C 1.17632 0.19611 0.17422
 C176 C 1.19122 0.18833 0.16672
 C177 C 1.19942 0.17446 0.17560
 H178 H 1.17522 0.17419 0.21297
 H179 H 1.16922 0.20590 0.16684
 H180 H 1.21043 0.16796 0.16958
 C181 C 0.66542 1.06364 0.55997
 C182 C 0.67424 1.05585 0.57428
 C183 C 0.69042 1.06211 0.58018
 C184 C 0.69815 1.07614 0.57134
 C185 C 0.68943 1.08509 0.55769
 C186 C 0.67306 1.07852 0.55218
 H187 H 0.66880 1.04462 0.58078
 H188 H 0.71129 1.07971 0.57507
 H189 H 0.66544 1.08585 0.54280
 C190 C 0.57671 0.57560 0.15317
 C191 C 0.56909 0.59053 0.16062
 C192 C 0.57628 0.59832 0.17567
 C193 C 0.59152 0.59114 0.18310
 C194 C 0.59940 0.57626 0.17584
 C195 C 0.59192 0.56863 0.16083
 H196 H 0.55727 0.59588 0.15490
 H197 H 0.59707 0.59696 0.19479
 H198 H 0.59773 0.55700 0.15527
 C199 C 0.65308 0.67456 0.17504
 C200 C 0.66008 0.68210 0.15978
 C201 C 0.67509 0.67517 0.15176
 C202 C 0.68296 0.66027 0.15909
 C203 C 0.67619 0.65249 0.17435
 C204 C 0.66120 0.65972 0.18218
 H205 H 0.65402 0.69365 0.15430
 H206 H 0.69460 0.65490 0.15308
 H207 H 0.65600 0.65398 0.19406
 C208 C 0.16888 0.05859 1.05818
 C209 C 0.17615 0.05278 1.07425
 C210 C 0.19118 0.06053 1.08148
 C211 C 0.19866 0.07490 1.07292
 C212 C 0.19157 0.08127 1.05717
 C213 C 0.17730 0.07258 1.04960
 H214 H 0.16970 0.04285 1.08190
 H215 H 0.20989 0.08130 1.07864
 H216 H 0.17319 0.07673 1.03669
 C217 C 0.58200 0.18987 0.55682
 C218 C 0.57329 0.19822 0.57068
 C219 C 0.55973 0.18997 0.57991
 C220 C 0.55399 0.17355 0.57404
 C221 C 0.56159 0.16552 0.55925
 C222 C 0.57577 0.17372 0.55090
 H223 H 0.57733 0.21119 0.57441
 H224 H 0.54397 0.16671 0.58127
 H225 H 0.58213 0.16742 0.53991
 C226 C 0.08036 0.55830 0.69210
 C227 C 0.07150 0.57205 0.70046
 C228 C 0.05803 0.58125 0.69195
 C229 C 0.05247 0.57555 0.67530
 C230 C 0.06021 0.56098 0.66722
 C231 C 0.07434 0.55265 0.67561
 H232 H 0.07528 0.57578 0.71363
 H233 H 0.04248 0.58278 0.66832
 H234 H 0.08079 0.54188 0.66914
 C235 C 0.65170 0.57628 0.07396
 C236 C 0.65940 0.59118 0.06660
 C237 C 0.67444 0.59863 0.07411
 C238 C 0.68167 0.59102 0.08927
 C239 C 0.67424 0.57604 0.09676
 C240 C 0.65919 0.56887 0.08909
 H241 H 0.65385 0.59680 0.05479
 H242 H 0.69334 0.59655 0.09504
 H243 H 0.65350 0.55724 0.09472
 C244 C 0.06236 0.68540 0.58347
 C245 C 0.07796 0.69249 0.57687
 C246 C 0.08686 0.68451 0.56281
 C247 C 0.08008 0.66906 0.55560
 C248 C 0.06437 0.66193 0.56182
 C249 C 0.05544 0.67047 0.57543
 H250 H 0.08328 0.70414 0.58279
 H251 H 0.08732 0.66229 0.54546
 H252 H 0.04297 0.66545 0.57980
 C253 C 0.55864 1.06005 0.66715
 C254 C 0.57422 1.05342 0.67453
 C255 C 0.58232 1.06159 0.68891
 C256 C 0.57462 1.07656 0.69617
 C257 C 0.55879 1.08336 0.68951
 C258 C 0.55081 1.07454 0.67538
 H259 H 0.58065 1.04231 0.66871
 H260 H 0.58170 1.08345 0.70630
 H261 H 0.53783 1.07840 0.67136
 C262 C 0.43242 0.33970 0.93264
 C263 C 0.43946 0.33359 0.91672
 C264 C 0.43292 0.31851 0.90866
 C265 C 0.41892 0.30966 0.91653
 C266 C 0.41127 0.31580 0.93212
 C267 C 0.41825 0.33073 0.94015
 H268 H 0.44989 0.34075 0.91040
 H269 H 0.41421 0.29770 0.91068
 H270 H 0.41260 0.33540 0.95230
 C271 C 0.94296 0.43909 0.33067
 C272 C 0.92834 0.44698 0.32248
 C273 C 0.92231 0.44154 0.30591
 C274 C 0.93106 0.42780 0.29747
 C275 C 0.94463 0.41869 0.30581
 C276 C 0.95074 0.42464 0.32216
 H277 H 0.92085 0.45667 0.32949
 H278 H 0.92716 0.42389 0.28439
 H279 H 0.96171 0.41795 0.32800
 C280 C 0.30904 0.93999 0.41915
 C281 C 0.30104 0.92602 0.42801
 C282 C 0.30768 0.91988 0.44412
 C283 C 0.32212 0.92843 0.45159
 C284 C 0.33088 0.94177 0.44258
 C285 C 0.32419 0.94748 0.42638
 H286 H 0.28979 0.91977 0.42219
 H287 H 0.32675 0.92452 0.46445
 H288 H 0.33114 0.95735 0.41904
 O289 O 0.20311 0.52262 0.74939
 O290 O 0.20843 0.51983 0.78010
 O291 O 0.24883 0.54975 0.73171
 O292 O 0.27759 0.54550 0.73133
 O293 O 0.22928 0.50504 0.70325
 O294 O 0.23156 0.47440 0.70775
 O295 O 0.29404 0.49891 0.77636
 O296 O 0.28997 0.52998 0.77349
 O297 O 0.25204 0.47582 0.79441
 O298 O 0.21951 0.47778 0.78797
 O299 O 0.27538 0.45791 0.75114
 O300 O 0.27354 0.46517 0.71876
 O301 O 0.29644 0.48067 0.75295
 O302 O 0.29138 0.48519 0.72031
 O303 O 0.25295 0.45519 0.77052
 O304 O 0.22057 0.46034 0.76756
 O305 O 0.27089 0.49851 0.79736
 O306 O 0.26775 0.53054 0.79279
 O307 O 0.20412 0.50292 0.72707
 O308 O 0.21192 0.47221 0.72705
 O309 O 0.24888 0.52720 0.70552
 O310 O 0.28066 0.52389 0.71283
 O311 O 0.22641 0.54752 0.75119
 O312 O 0.22763 0.53932 0.78215
 Zr313 Zr 0.22811 0.52179 0.76075
 O314 O 0.24325 0.50571 0.77723
 Zr315 Zr 0.25965 0.52458 0.73092
 O316 O 0.27658 0.50908 0.74634
 Zr317 Zr 0.22991 0.49304 0.72810
 O318 O 0.24565 0.47586 0.74289
 Zr319 Zr 0.26977 0.51124 0.77297
 O320 O 0.25457 0.52873 0.75785
 Zr321 Zr 0.24028 0.47954 0.76969
 O322 O 0.22319 0.49543 0.75478
 Zr323 Zr 0.27212 0.48279 0.74011
 O324 O 0.25649 0.49842 0.72336
 O325 O 0.23327 0.51919 0.73414
 O326 O 0.26657 0.48518 0.76665
 C327 C 0.19620 0.51453 0.73634
 C328 C 0.23562 0.55607 0.73999
 C329 C 0.23727 0.51843 0.69708
 C330 C 0.30198 0.48702 0.76756
 C331 C 0.26380 0.48436 0.80282
 C332 C 0.26699 0.44965 0.76313
 H333 H 0.23983 0.50756 0.78960
 H334 H 0.24352 0.46371 0.73920
 H335 H 0.22571 0.52690 0.72697
 H336 H 0.28891 0.51243 0.74449
 H337 H 0.28509 0.54072 0.76820
 H338 H 0.28747 0.54196 0.73893
 H339 H 0.22332 0.45298 0.75727
 H340 H 0.20561 0.47223 0.73839
 H341 H 0.25755 0.52774 0.80023
 H342 H 0.23867 0.54601 0.78165
 H343 H 0.26434 0.45628 0.72039
 H344 H 0.24370 0.47489 0.70330
 H345 H 0.20404 0.50773 0.77955
 H346 H 0.22153 0.48654 0.79727
 H347 H 0.27864 0.51381 0.70497
 H348 H 0.29932 0.49477 0.72371
 O349 O 0.20378 0.02223 0.24928
 O350 O 0.20951 0.01970 0.28016
 O351 O 0.24989 0.04765 0.23046
 O352 O 0.27866 0.04259 0.23030
 O353 O 0.22892 0.00297 0.20330
 O354 O 0.23052 -0.02779 0.20860
 O355 O 0.29511 -0.00251 0.27486
 O356 O 0.29075 0.02823 0.27202
 O357 O 0.25160 -0.02428 0.29535
 O358 O 0.21950 -0.02223 0.28883
 O359 O 0.27336 -0.04520 0.25078
 O360 O 0.27240 -0.03791 0.21915
 O361 O 0.29623 -0.02182 0.25224
 O362 O 0.29042 -0.01872 0.21994
 O363 O 0.25184 -0.04603 0.27129
 O364 O 0.21985 -0.03998 0.26924
 O365 O 0.27164 -0.00253 0.29709
 O366 O 0.26970 0.02894 0.29206
 O367 O 0.20399 0.00188 0.22754
 O368 O 0.21087 -0.02882 0.22792
 O369 O 0.24920 0.02458 0.20486
 O370 O 0.28070 0.02070 0.21166
 O371 O 0.22782 0.04643 0.25043
 O372 O 0.22901 0.03902 0.28134
 Zr373 Zr 0.22889 0.02090 0.26044
 O374 O 0.24393 0.00492 0.27707
 Zr375 Zr 0.26011 0.02219 0.23018
 O376 O 0.27675 0.00644 0.24563
 Zr377 Zr 0.22952 -0.00855 0.22843
 O378 O 0.24488 -0.02578 0.24353
 Zr379 Zr 0.27056 0.00946 0.27232
 O380 O 0.25551 0.02702 0.25707
 Zr381 Zr 0.24014 -0.02130 0.27034
 O382 O 0.22325 -0.00542 0.25517
 Zr383 Zr 0.27150 -0.01990 0.24018
 O384 O 0.25617 -0.00408 0.22328
 O385 O 0.23363 0.01762 0.23382
 O386 O 0.26671 -0.01682 0.26690
 C387 C 0.19649 0.01392 0.23658
 C388 C 0.23701 0.05449 0.23887
 C389 C 0.23728 0.01595 0.19673
 C390 C 0.30279 -0.01444 0.26589
 C391 C 0.26366 -0.01582 0.30342
 C392 C 0.26478 -0.05288 0.26305
 H393 H 0.24074 0.00720 0.28943
 H394 H 0.24222 -0.03792 0.24015
 H395 H 0.22619 0.02535 0.22656
 H396 H 0.28911 0.00945 0.24342
 H397 H 0.28578 0.03886 0.26655
 H398 H 0.28883 0.03858 0.23724
 H399 H 0.22180 -0.04731 0.25873
 H400 H 0.20490 -0.02860 0.23945
 H401 H 0.25895 0.02726 0.29904
 H402 H 0.24038 0.04513 0.28081
 H403 H 0.26188 -0.04533 0.21992
 H404 H 0.24232 -0.02706 0.20331
 H405 H 0.20428 0.00794 0.27937
 H406 H 0.22119 -0.01259 0.29727
 H407 H 0.27850 0.01031 0.20428
 H408 H 0.29817 -0.00872 0.22239
 O409 O 0.54810 0.72940 0.24823
 O410 O 0.54319 0.73306 0.27986
 O411 O 0.50315 0.70276 0.23083
 O412 O 0.47345 0.70642 0.23371
 O413 O 0.52105 0.74697 0.20331
 O414 O 0.51777 0.77838 0.20820
 O415 O 0.45674 0.75213 0.27648
 O416 O 0.46209 0.72109 0.27354
 O417 O 0.50008 0.77503 0.29561
 O418 O 0.53264 0.77320 0.28773
 O419 O 0.47691 0.79509 0.25123
 O420 O 0.47747 0.78659 0.21912
 O421 O 0.45449 0.77105 0.25359
 O422 O 0.45864 0.76841 0.22203
 O423 O 0.49902 0.79665 0.27113
 O424 O 0.53019 0.79198 0.26915
 O425 O 0.48090 0.75261 0.29814
 O426 O 0.48308 0.72178 0.29376
 O427 O 0.54572 0.74866 0.22553
 O428 O 0.53894 0.77973 0.22679
 O429 O 0.50155 0.72472 0.20599
 O430 O 0.47020 0.72773 0.21312
 O431 O 0.52572 0.70513 0.25028
 O432 O 0.52456 0.71226 0.28147
 Zr433 Zr 0.52342 0.73043 0.26061
 O434 O 0.50820 0.74595 0.27746
 Zr435 Zr 0.49108 0.72751 0.23142
 O436 O 0.47449 0.74316 0.24691
 Zr437 Zr 0.52049 0.75932 0.22808
 O438 O 0.50536 0.77626 0.24359
 Zr439 Zr 0.48155 0.74062 0.27343
 O440 O 0.49688 0.72327 0.25820
 Zr441 Zr 0.51106 0.77216 0.27032
 O442 O 0.52800 0.75683 0.25464
 Zr443 Zr 0.47886 0.76960 0.24100
 O444 O 0.49387 0.75380 0.22384
 O445 O 0.51729 0.73334 0.23432
 O446 O 0.48452 0.76695 0.26764
 C447 C 0.55387 0.73670 0.23415
 C448 C 0.51712 0.69697 0.23831
 C449 C 0.51350 0.73309 0.19763
 C450 C 0.44850 0.76374 0.26751
 C451 C 0.48857 0.76622 0.30412
 C452 C 0.48576 0.80314 0.26309
 H453 H 0.51180 0.74389 0.28976
 H454 H 0.50761 0.78841 0.23998
 H455 H 0.52466 0.72581 0.22690
 H456 H 0.46214 0.73984 0.24509
 H457 H 0.46751 0.71047 0.26853
 H458 H 0.46259 0.71090 0.23913
 H459 H 0.52958 0.79722 0.25730
 H460 H 0.54587 0.77913 0.23777
 H461 H 0.49491 0.72240 0.29895
 H462 H 0.51364 0.70539 0.28088
 H463 H 0.48704 0.79516 0.22024
 H464 H 0.50636 0.77623 0.20247
 H465 H 0.54884 0.74445 0.27772
 H466 H 0.53068 0.76458 0.29719
 H467 H 0.47166 0.73825 0.20574
 H468 H 0.45282 0.75699 0.22330
 O469 O -0.00027 0.70205 0.72876
 O470 O -0.03085 0.70788 0.73010
 O471 O 0.01891 0.74684 0.70082
 O472 O 0.01855 0.77572 0.70412
 O473 O 0.04515 0.72845 0.74716
 O474 O 0.03975 0.73155 0.77796
 O475 O -0.02722 0.79354 0.74949
 O476 O -0.02340 0.78878 0.71826
 O477 O -0.04614 0.75228 0.77305
 O478 O -0.04001 0.71978 0.77188
 O479 O -0.00360 0.77547 0.79207
 O480 O 0.02893 0.77323 0.78574
 O481 O -0.00442 0.79612 0.76851
 O482 O 0.02788 0.79096 0.76549
 O483 O -0.02290 0.75313 0.79465
 O484 O -0.02028 0.72088 0.79008
 O485 O -0.04828 0.77071 0.74975
 O486 O -0.04280 0.76679 0.71765
 O487 O 0.02168 0.70387 0.74888
 O488 O 0.02050 0.71192 0.77976
 O489 O 0.04424 0.74814 0.72480
 O490 O 0.03651 0.77952 0.72637
 O491 O -0.00075 0.72471 0.70297
 O492 O -0.03185 0.72660 0.70981
 Zr493 Zr -0.01129 0.72720 0.72839
 O494 O -0.02816 0.74275 0.74363
 Zr495 Zr 0.01863 0.75850 0.72583
 O496 O 0.00285 0.77573 0.74058
 Zr497 Zr 0.02018 0.72957 0.75844
 O498 O 0.00497 0.74558 0.77489
 Zr499 Zr -0.02363 0.76907 0.73767
 O500 O -0.00806 0.75344 0.72092
 Zr501 Zr -0.02157 0.74026 0.77032
 O502 O -0.00627 0.72284 0.75528
 Zr503 Zr 0.00814 0.77177 0.76740
 O504 O 0.02525 0.75588 0.75255
 O505 O 0.01511 0.73236 0.73181
 O506 O -0.01821 0.76634 0.76423
 C507 C 0.01270 0.69553 0.73732
 C508 C 0.01086 0.73351 0.69457
 C509 C 0.05207 0.73643 0.73406
 C510 C -0.01871 0.80163 0.76155
 C511 C -0.05417 0.76396 0.76401
 C512 C -0.01565 0.76715 0.80025
 H513 H -0.04043 0.73940 0.74142
 H514 H 0.00824 0.74364 0.78730
 H515 H 0.02256 0.72467 0.72455
 H516 H 0.00485 0.78794 0.73699
 H517 H -0.01797 0.78359 0.70767
 H518 H 0.01117 0.78581 0.70733
 H519 H -0.01004 0.72344 0.79759
 H520 H 0.00926 0.70556 0.77937
 H521 H -0.05030 0.75669 0.72044
 H522 H -0.03102 0.73751 0.70292
 H523 H 0.02682 0.76445 0.79500
 H524 H 0.04450 0.74349 0.77709
 H525 H -0.03078 0.70376 0.74242
 H526 H -0.04904 0.72180 0.76278
 H527 H 0.04367 0.77815 0.73713
 H528 H 0.02517 0.79838 0.75521
 O529 O 0.04800 0.01926 0.00138
 O530 O 0.04209 0.01692 -0.02925
 O531 O 0.00264 0.04628 0.02041
 O532 O -0.02637 0.04206 0.02031
 O533 O 0.02234 0.00130 0.04797
 O534 O 0.02045 -0.02938 0.04297
 O535 O -0.04394 -0.00321 -0.02321
 O536 O -0.03845 0.02785 -0.02090
 O537 O -0.00168 -0.02716 -0.04307
 O538 O 0.03102 -0.02447 -0.03760
 O539 O -0.02354 -0.04563 0.00023
 O540 O -0.02124 -0.03857 0.03278
 O541 O -0.04528 -0.02256 -0.00061
 O542 O -0.03956 -0.01906 0.03166
 O543 O -0.00128 -0.04789 -0.01938
 O544 O 0.03087 -0.04229 -0.01734
 O545 O -0.02164 -0.00525 -0.04495
 O546 O -0.01688 0.02474 -0.04306
 O547 O 0.04730 -0.00018 0.02393
 O548 O 0.04006 -0.03093 0.02354
 O549 O 0.00240 0.02327 0.04622
 O550 O -0.02914 0.02076 0.03907
 O551 O 0.02498 0.04410 0.00082
 O552 O 0.02326 0.03623 -0.03097
 Zr553 Zr 0.02280 0.01871 -0.00949
 O554 O 0.00733 0.00287 -0.02585
 Zr555 Zr -0.00831 0.02117 0.02078
 O556 O -0.02535 0.00560 0.00570
 Zr557 Zr 0.02167 -0.01035 0.02295
 O558 O 0.00592 -0.02744 0.00816
 Zr559 Zr -0.01912 0.00808 -0.02103
 O560 O -0.00369 0.02564 -0.00621
 Zr561 Zr 0.01075 -0.02335 -0.01870
 O562 O 0.02797 -0.00767 -0.00383
 Zr563 Zr -0.02057 -0.02077 0.01153
 O564 O -0.00488 -0.00508 0.02811
 O565 O 0.01803 0.01582 0.01719
 O566 O -0.01559 -0.01804 -0.01507
 C567 C 0.05507 0.01137 0.01449
 C568 C 0.01594 0.05253 0.01226
 C569 C 0.01412 0.01443 0.05449
 C570 C -0.05161 -0.01528 -0.01446
 C571 C -0.01435 -0.01919 -0.05077
 C572 C -0.01507 -0.05376 -0.01184
 H573 H 0.01020 0.00501 -0.03833
 H574 H 0.00830 -0.03961 0.01166
 H575 H 0.02561 0.02335 0.02447
 H576 H -0.03765 0.00893 0.00787
 H577 H -0.03254 0.03874 -0.01730
 H578 H -0.03601 0.03863 0.01239
 H579 H 0.02879 -0.04949 -0.00677
 H580 H 0.04622 -0.03070 0.01212
 H581 H -0.01108 0.03545 -0.03891
 H582 H 0.01438 0.04534 -0.02867
 H583 H -0.01214 -0.04752 0.03073
 H584 H 0.00845 -0.02883 0.04780
 H585 H 0.04660 0.00483 -0.02884
 H586 H 0.02835 -0.01587 -0.04691
 H587 H -0.02749 0.01026 0.04645
 H588 H -0.04713 -0.00892 0.02906
 O589 O -0.02219 0.45172 0.50048
 O590 O -0.02030 0.45845 0.53110
 O591 O -0.04708 0.49673 0.47902
 O592 O -0.04220 0.52521 0.47733
 O593 O -0.00159 0.47430 0.45438
 O594 O 0.02911 0.47648 0.46013
 O595 O 0.00221 0.54336 0.52303
 O596 O -0.02866 0.53928 0.51955
 O597 O 0.02375 0.50135 0.54548
 O598 O 0.02176 0.46903 0.54067
 O599 O 0.04483 0.52163 0.50145
 O600 O 0.03887 0.51852 0.46912
 O601 O 0.02197 0.54375 0.50074
 O602 O 0.01941 0.53676 0.46859
 O603 O 0.04600 0.50045 0.52231
 O604 O 0.03995 0.46835 0.52117
 O605 O 0.00168 0.52125 0.54598
 O606 O -0.03013 0.51868 0.54016
 O607 O -0.00100 0.45094 0.47952
 O608 O 0.02992 0.45785 0.48061
 O609 O -0.02270 0.49523 0.45387
 O610 O -0.01968 0.52692 0.45991
 O611 O -0.04647 0.47581 0.50020
 O612 O -0.03951 0.47821 0.53127
 Zr613 Zr -0.02100 0.47711 0.51069
 O614 O -0.00533 0.49271 0.52707
 Zr615 Zr -0.02156 0.50690 0.47896
 O616 O -0.00637 0.52415 0.49419
 Zr617 Zr 0.00942 0.47635 0.47959
 O618 O 0.02630 0.49238 0.49430
 Zr619 Zr -0.00997 0.51900 0.52104
 O620 O -0.02712 0.50347 0.50591
 Zr621 Zr 0.02120 0.48868 0.52114
 O622 O 0.00559 0.47122 0.50644
 Zr623 Zr 0.02019 0.51871 0.48962
 O624 O 0.00495 0.50264 0.47301
 O625 O -0.01701 0.48071 0.48398
 O626 O 0.01647 0.51489 0.51637
 C627 C -0.01348 0.44393 0.48835
 C628 C -0.05425 0.48448 0.48800
 C629 C -0.01404 0.48268 0.44677
 C630 C 0.01454 0.55059 0.51421
 C631 C 0.01512 0.51377 0.55277
 C632 C 0.05245 0.51360 0.51415
 H633 H -0.00789 0.49005 0.53950
 H634 H 0.03858 0.48968 0.49136
 H635 H -0.02461 0.47308 0.47682
 H636 H -0.00938 0.53637 0.49141
 H637 H -0.03922 0.53425 0.51400
 H638 H -0.03888 0.53530 0.48466
 H639 H 0.04781 0.47016 0.51103
 H640 H 0.02918 0.45216 0.49226
 H641 H -0.02801 0.50877 0.54818
 H642 H -0.04574 0.48946 0.53001
 H643 H 0.04710 0.50881 0.47135
 H644 H 0.02875 0.48817 0.45464
 H645 H -0.00835 0.45348 0.53108
 H646 H 0.01196 0.47119 0.54885
 H647 H -0.00908 0.52451 0.45286
 H648 H 0.00949 0.54477 0.47065
 O649 O 0.50004 -0.02459 0.45352
 O650 O 0.53076 -0.02318 0.46027
 O651 O 0.47833 -0.04697 0.49974
 O652 O 0.47790 -0.04112 0.52861
 O653 O 0.45457 -0.00214 0.47613
 O654 O 0.46120 0.02843 0.47698
 O655 O 0.52249 0.00128 0.54589
 O656 O 0.51985 -0.02897 0.54142
 O657 O 0.54679 0.02100 0.50076
 O658 O 0.54088 0.01878 0.46889
 O659 O 0.50238 0.04533 0.52073
 O660 O 0.47078 0.03968 0.51901
 O661 O 0.50227 0.02297 0.54448
 O662 O 0.46993 0.02098 0.53778
 O663 O 0.52445 0.04396 0.50082
 O664 O 0.52197 0.03741 0.46815
 O665 O 0.54568 0.00198 0.52360
 O666 O 0.54048 -0.03036 0.52106
 O667 O 0.47978 -0.00286 0.45211
 O668 O 0.48114 0.02789 0.45795
 O669 O 0.45433 -0.02260 0.49776
 O670 O 0.46030 -0.01843 0.52938
 O671 O 0.49968 -0.04806 0.47898
 O672 O 0.53045 -0.04180 0.48057
 Zr673 Zr 0.51046 -0.02281 0.47908
 O674 O 0.52722 -0.00709 0.49424
 Zr675 Zr 0.47924 -0.02133 0.50932
 O676 O 0.49469 -0.00579 0.52600
 Zr677 Zr 0.48005 0.00826 0.47739
 O678 O 0.49537 0.02531 0.49269
 Zr679 Zr 0.52128 -0.01035 0.52098
 O680 O 0.50585 -0.02767 0.50593
 Zr681 Zr 0.52193 0.01928 0.48913
 O682 O 0.50670 0.00353 0.47223
 Zr683 Zr 0.49075 0.02056 0.51948
 O684 O 0.47374 0.00505 0.50410
 O685 O 0.48401 -0.01799 0.48269
 O686 O 0.51727 0.01595 0.51582
 C687 C 0.48829 -0.01568 0.44536
 C688 C 0.48715 -0.05497 0.48783
 C689 C 0.44710 -0.01429 0.48501
 C690 C 0.51442 0.01445 0.55242
 C691 C 0.55331 0.01388 0.51458
 C692 C 0.51582 0.05174 0.51298
 H693 H 0.53951 -0.01005 0.49163
 H694 H 0.49274 0.03750 0.48948
 H695 H 0.47669 -0.02564 0.47527
 H696 H 0.49181 -0.00827 0.53841
 H697 H 0.51419 -0.03944 0.53639
 H698 H 0.48494 -0.03724 0.53878
 H699 H 0.51291 0.04630 0.47056
 H700 H 0.49298 0.02727 0.45277
 H701 H 0.54934 -0.02765 0.51202
 H702 H 0.52999 -0.04666 0.49261
 H703 H 0.47204 0.04641 0.50801
 H704 H 0.45538 0.02825 0.48859
 H705 H 0.53033 -0.01180 0.45416
 H706 H 0.54811 0.00821 0.47054
 H707 H 0.45372 -0.00760 0.52680
 H708 H 0.47197 0.01154 0.54639
 O709 O 0.50227 0.54634 0.02095
 O710 O 0.47090 0.54140 0.01833
 O711 O 0.52037 0.50235 0.04909
 O712 O 0.51783 0.47280 0.04642
 O713 O 0.54665 0.51908 0.00315
 O714 O 0.54099 0.51478 -0.02828
 O715 O 0.47419 0.45462 0.00153
 O716 O 0.47770 0.46097 0.03292
 O717 O 0.45405 0.49772 -0.02196
 O718 O 0.46188 0.52935 -0.02223
 O719 O 0.49702 0.47246 -0.04185
 O720 O 0.52997 0.47489 -0.03524
 O721 O 0.49687 0.45177 -0.01753
 O722 O 0.52831 0.45654 -0.01580
 O723 O 0.47751 0.49470 -0.04436
 O724 O 0.48082 0.52681 -0.04081
 O725 O 0.45280 0.47816 0.00041
 O726 O 0.45618 0.48257 0.03008
 O727 O 0.52441 0.54352 0.00111
 O728 O 0.52230 0.53577 -0.02993
 O729 O 0.54461 0.50034 0.02631
 O730 O 0.53744 0.46885 0.02471
 O731 O 0.50127 0.52500 0.04625
 O732 O 0.46933 0.52367 0.03942
 Zr733 Zr 0.49007 0.52173 0.02115
 O734 O 0.47311 0.50598 0.00636
 Zr735 Zr 0.51931 0.48973 0.02452
 O736 O 0.50369 0.47261 0.00967
 Zr737 Zr 0.52170 0.51803 -0.00869
 O738 O 0.50599 0.50233 -0.02495
 Zr739 Zr 0.47735 0.47964 0.01246
 O740 O 0.49272 0.49551 0.02926
 Zr741 Zr 0.47949 0.50813 -0.02039
 O742 O 0.49531 0.52549 -0.00576
 Zr743 Zr 0.50896 0.47623 -0.01720
 O744 O 0.52627 0.49175 -0.00221
 O745 O 0.51616 0.51563 0.01778
 O746 O 0.48256 0.48194 -0.01418
 C747 C 0.51605 0.55195 0.01308
 C748 C 0.51320 0.51652 0.05459
 C749 C 0.55264 0.51203 0.01730
 C750 C 0.48292 0.44613 -0.01012
 C751 C 0.44617 0.48590 -0.01299
 C752 C 0.48482 0.48070 -0.05002
 H753 H 0.46087 0.50937 0.00881
 H754 H 0.50922 0.50405 -0.03739
 H755 H 0.52371 0.52323 0.02493
 H756 H 0.50566 0.46042 0.01339
 H757 H 0.48188 0.46707 0.04358
 H758 H 0.51141 0.46227 0.04265
 H759 H 0.49139 0.52430 -0.04785
 H760 H 0.51111 0.54224 -0.02960
 H761 H 0.46061 0.48943 0.04011
 H762 H 0.47165 0.51507 0.04884
 H763 H 0.52730 0.48276 -0.04519
 H764 H 0.54658 0.50336 -0.02604
 H765 H 0.47268 0.54664 0.00658
 H766 H 0.45388 0.52873 -0.01205
 H767 H 0.54473 0.47009 0.01404
 H768 H 0.52722 0.45084 -0.00420
 O769 O 0.74975 0.27499 0.45136
 O770 O 0.71899 0.27306 0.45770
 O771 O 0.77116 0.29718 0.49737
 O772 O 0.77150 0.29160 0.52628
 O773 O 0.79515 0.25233 0.47426
 O774 O 0.78852 0.22185 0.47488
 O775 O 0.72704 0.24907 0.54364
 O776 O 0.72943 0.27919 0.53900
 O777 O 0.70287 0.22895 0.49836
 O778 O 0.70870 0.23085 0.46678
 O779 O 0.74745 0.20511 0.51877
 O780 O 0.77898 0.21083 0.51730
 O781 O 0.74734 0.22743 0.54243
 O782 O 0.77968 0.22960 0.53589
 O783 O 0.72606 0.20557 0.49806
 O784 O 0.72792 0.21282 0.46570
 O785 O 0.70375 0.24840 0.52085
 O786 O 0.70902 0.28050 0.51856
 O787 O 0.77010 0.25333 0.45006
 O788 O 0.76853 0.22237 0.45585
 O789 O 0.79527 0.27285 0.49582
 O790 O 0.78910 0.26891 0.52740
 O791 O 0.74979 0.29821 0.47657
 O792 O 0.71890 0.29166 0.47820
 Zr793 Zr 0.73912 0.27290 0.47675
 O794 O 0.72245 0.25707 0.49185
 Zr795 Zr 0.77027 0.27165 0.50716
 O796 O 0.75483 0.25616 0.52384
 Zr797 Zr 0.76964 0.24199 0.47530
 O798 O 0.75444 0.22493 0.49066
 Zr799 Zr 0.72824 0.26052 0.51862
 O800 O 0.74364 0.27787 0.50360
 Zr801 Zr 0.72783 0.23067 0.48691
 O802 O 0.74298 0.24654 0.47001
 Zr803 Zr 0.75891 0.22985 0.51746
 O804 O 0.77588 0.24530 0.50204
 O805 O 0.76558 0.26820 0.48054
 O806 O 0.73233 0.23416 0.51366
 C807 C 0.76167 0.26624 0.44333
 C808 C 0.76238 0.30511 0.48535
 C809 C 0.80259 0.26446 0.48319
 C810 C 0.73518 0.23598 0.55030
 C811 C 0.69614 0.23645 0.51185
 C812 C 0.73462 0.19810 0.51054
 H813 H 0.71015 0.25996 0.48913
 H814 H 0.75722 0.21275 0.48752
 H815 H 0.77296 0.27585 0.47320
 H816 H 0.75765 0.25872 0.53625
 H817 H 0.73522 0.28961 0.53404
 H818 H 0.76445 0.28777 0.53645
 H819 H 0.73756 0.20442 0.46766
 H820 H 0.75692 0.22341 0.45018
 H821 H 0.70054 0.27812 0.50905
 H822 H 0.71964 0.29690 0.49006
 H823 H 0.77785 0.20405 0.50632
 H824 H 0.79420 0.22188 0.48657
 H825 H 0.71964 0.26172 0.45155
 H826 H 0.70196 0.24180 0.46786
 H827 H 0.79574 0.25810 0.52494
 H828 H 0.77752 0.23901 0.54450
 O829 O 0.79294 0.75289 -0.02653
 O830 O 0.78676 0.72174 -0.02483
 O831 O 0.74671 0.77382 -0.04887
 O832 O 0.71775 0.77383 -0.04291
 O833 O 0.76977 0.79708 -0.00317
 O834 O 0.76860 0.78976 0.02788
 O835 O 0.70155 0.72822 0.00002
 O836 O 0.70540 0.73262 -0.03105
 O837 O 0.74590 0.70474 0.01913
 O838 O 0.77808 0.71069 0.01616
 O839 O 0.72588 0.74799 0.04389
 O840 O 0.72791 0.78023 0.03850
 O841 O 0.70315 0.74773 0.02247
 O842 O 0.70824 0.78049 0.01987
 O843 O 0.74574 0.72598 0.04187
 O844 O 0.77850 0.72923 0.03582
 O845 O 0.72314 0.70637 -0.00007
 O846 O 0.72617 0.71182 -0.03301
 O847 O 0.79339 0.77317 -0.00468
 O848 O 0.78839 0.77023 0.02651
 O849 O 0.74855 0.79741 -0.02419
 O850 O 0.71707 0.79148 -0.01988
 O851 O 0.76762 0.75270 -0.05000
 O852 O 0.76686 0.72211 -0.04412
 Zr853 Zr 0.76771 0.74174 -0.02469
 O854 O 0.75261 0.72461 -0.00931
 Zr855 Zr 0.73703 0.77258 -0.02298
 O856 O 0.72058 0.75689 -0.00741
 Zr857 Zr 0.76869 0.77156 0.00705
 O858 O 0.75387 0.75575 0.02401
 Zr859 Zr 0.72594 0.73058 -0.01253
 O860 O 0.74090 0.74622 -0.02970
 Zr861 Zr 0.75777 0.72943 0.01734
 O862 O 0.77442 0.74518 0.00191
 Zr863 Zr 0.72721 0.76038 0.01922
 O864 O 0.74212 0.77774 0.00373
 O865 O 0.76348 0.76790 -0.01947
 O866 O 0.73134 0.73425 0.01387
 C867 C 0.80029 0.76531 -0.01787
 C868 C 0.75877 0.76523 -0.05691
 C869 C 0.76128 0.80448 -0.01574
 C870 C 0.69569 0.73519 0.01421
 C871 C 0.73175 0.69880 0.01226
 C872 C 0.73325 0.73406 0.04968
 H873 H 0.75523 0.71241 -0.01249
 H874 H 0.75703 0.75811 0.03637
 H875 H 0.77064 0.77537 -0.02719
 H876 H 0.70815 0.75959 -0.00973
 H877 H 0.71045 0.73800 -0.04173
 H878 H 0.70751 0.76717 -0.03875
 H879 H 0.77568 0.73774 0.04516
 H880 H 0.79367 0.75849 0.02558
 H881 H 0.73445 0.70243 -0.02980
 H882 H 0.75473 0.72201 -0.04867
 H883 H 0.73814 0.77802 0.04615
 H884 H 0.75718 0.79584 0.02737
 H885 H 0.79309 0.72255 -0.01351
 H886 H 0.77585 0.70313 0.00589
 H887 H 0.71934 0.79751 -0.00862
 H888 H 0.69920 0.77781 0.01097
 O889 O 1.04810 0.22761 0.24912
 O890 O 1.04220 0.22994 0.27992
 O891 O 1.00238 0.20210 0.22965
 O892 O 0.97369 0.20693 0.22878
 O893 O 1.02358 0.24710 0.20331
 O894 O 1.02147 0.27782 0.20857
 O895 O 0.95635 0.25145 0.27375
 O896 O 0.96105 0.22090 0.27101
 O897 O 0.99931 0.27383 0.29477
 O898 O 1.03151 0.27186 0.28904
 O899 O 0.97786 0.29438 0.25057
 O900 O 0.97929 0.28762 0.21871
 O901 O 0.95520 0.27082 0.25116
 O902 O 0.96147 0.26828 0.21902
 O903 O 0.99986 0.29585 0.27060
 O904 O 1.03166 0.28949 0.26933
 O905 O 0.97957 0.25180 0.29624
 O906 O 0.98211 0.22016 0.29105
 O907 O 1.04794 0.24811 0.22752
 O908 O 1.04091 0.27890 0.22831
 O909 O 1.00298 0.22579 0.20389
 O910 O 0.97142 0.22899 0.21072
 O911 O 1.02418 0.20330 0.24999
 O912 O 1.02263 0.21065 0.28096
 Zr913 Zr 1.02291 0.22879 0.26005
 O914 O 1.00761 0.24460 0.27659
 Zr915 Zr 0.99202 0.22752 0.22929
 O916 O 0.97510 0.24293 0.24472
 Zr917 Zr 1.02240 0.25849 0.22834
 O918 O 1.00669 0.27548 0.24325
 Zr919 Zr 0.98108 0.23983 0.27148
 O920 O 0.99637 0.22253 0.25623
 Zr921 Zr 1.01125 0.27092 0.27006
 O922 O 1.02845 0.25521 0.25510
 Zr923 Zr 0.98014 0.26935 0.23954
 O924 O 0.99584 0.25388 0.22272
 O925 O 1.01841 0.23223 0.23340
 O926 O 0.98474 0.26619 0.26628
 C927 C 1.05542 0.23596 0.23647
 C928 C 1.01512 0.19525 0.23830
 C929 C 1.01521 0.23441 0.19623
 C930 C 0.94859 0.26329 0.26469
 C931 C 0.98726 0.26522 0.30265
 C932 C 0.98668 0.30239 0.26246
 H933 H 1.01068 0.24227 0.28898
 H934 H 1.00929 0.28764 0.23992
 H935 H 1.02590 0.22456 0.22616
 H936 H 0.96279 0.23981 0.24234
 H937 H 0.96608 0.21038 0.26542
 H938 H 0.96366 0.21051 0.23612
 H939 H 1.03005 0.29664 0.25864
 H940 H 1.04715 0.27826 0.23970
 H941 H 0.99245 0.22227 0.29854
 H942 H 1.01133 0.20443 0.28020
 H943 H 0.98965 0.29522 0.21978
 H944 H 1.00969 0.27712 0.20323
 H945 H 1.04715 0.24183 0.27946
 H946 H 1.02973 0.26216 0.29739
 H947 H 0.97355 0.23945 0.20342
 H948 H 0.95384 0.25812 0.22120
 O949 O 0.75165 1.04823 0.72608
 O950 O 0.78225 1.04066 0.72770
 O951 O 0.72958 1.00350 0.70102
 O952 O 0.72837 0.97466 0.70613
 O953 O 0.70518 1.02571 0.74677
 O954 O 0.71144 1.02362 0.77780
 O955 O 0.77197 0.95541 0.74922
 O956 O 0.76966 0.96086 0.71869
 O957 O 0.79637 0.99821 0.77153
 O958 O 0.79147 1.03068 0.76905
 O959 O 0.75182 0.97911 0.79404
 O960 O 0.71989 0.98201 0.78767
 O961 O 0.75172 0.95660 0.77103
 O962 O 0.71944 0.96341 0.76855
 O963 O 0.77396 0.99883 0.79370
 O964 O 0.77258 1.03117 0.78809
 O965 O 0.79487 0.97628 0.75152
 O966 O 0.79077 0.98108 0.71845
 O967 O 0.73061 1.04906 0.74718
 O968 O 0.73151 1.04242 0.77804
 O969 O 0.70505 1.00525 0.72512
 O970 O 0.71022 0.97366 0.72853
 O971 O 0.75071 1.02433 0.70163
 O972 O 0.78148 1.02136 0.70795
 Zr973 Zr 0.76145 1.02260 0.72701
 O974 O 0.77774 1.00663 0.74252
 Zr975 Zr 0.72966 0.99317 0.72668
 O976 O 0.74447 0.97581 0.74218
 Zr977 Zr 0.73049 1.02370 0.75772
 O978 O 0.74538 1.00777 0.77467
 Zr979 Zr 0.77119 0.98043 0.73818
 O980 O 0.75639 0.99629 0.72096
 Zr981 Zr 0.77210 1.01101 0.76912
 O982 O 0.75730 1.02857 0.75367
 Zr983 Zr 0.74031 0.98148 0.76893
 O984 O 0.72381 0.99749 0.75338
 O985 O 0.73486 1.01930 0.73118
 O986 O 0.76684 0.98487 0.76472
 C987 C 0.73960 1.05610 0.73480
 C988 C 0.73837 1.01592 0.69392
 C989 C 0.69787 1.01764 0.73389
 C990 C 0.76399 0.94886 0.76250
 C991 C 0.80229 0.98424 0.76435
 C992 C 0.76530 0.98645 0.80091
 H993 H 0.79014 1.00897 0.73985
 H994 H 0.74265 1.01061 0.78703
 H995 H 0.72779 1.02708 0.72362
 H996 H 0.74145 0.96363 0.73927
 H997 H 0.76454 0.96641 0.70811
 H998 H 0.73514 0.96434 0.70992
 H999 H 0.76283 1.02918 0.79637
 H1000 H 0.74346 1.04732 0.77784
 H1001 H 0.80054 0.98842 0.72261
 H1002 H 0.78078 1.00963 0.70262
 H1003 H 0.72185 0.99213 0.79545
 H1004 H 0.70537 1.01228 0.77702
 H1005 H 0.78187 1.04621 0.73943
 H1006 H 0.79981 1.02805 0.75949
 H1007 H 0.70373 0.97582 0.73956
 H1008 H 0.72146 0.95528 0.75868
 O1009 O 0.75542 0.47651 0.29358
 O1010 O 0.72452 0.47746 0.28707
 O1011 O 0.77724 0.45491 0.24696
 O1012 O 0.77633 0.46087 0.21782
 O1013 O 0.80025 0.49993 0.27007
 O1014 O 0.79257 0.53051 0.26985
 O1015 O 0.73072 0.50346 0.20191
 O1016 O 0.73494 0.47275 0.20556
 O1017 O 0.70717 0.52201 0.24684
 O1018 O 0.71338 0.51858 0.27917
 O1019 O 0.75035 0.54689 0.22693
 O1020 O 0.78270 0.54162 0.22880
 O1021 O 0.74993 0.52597 0.20385
 O1022 O 0.78292 0.52341 0.20881
 O1023 O 0.72837 0.54456 0.24688
 O1024 O 0.73193 0.53812 0.27975
 O1025 O 0.70882 0.50341 0.22365
 O1026 O 0.71426 0.47065 0.22653
 O1027 O 0.77610 0.49781 0.29429
 O1028 O 0.77315 0.52872 0.28960
 O1029 O 0.80057 0.47979 0.24816
 O1030 O 0.79398 0.48372 0.21695
 O1031 O 0.75578 0.45317 0.26760
 O1032 O 0.72507 0.45889 0.26690
 Zr1033 Zr 0.74463 0.47825 0.26807
 O1034 O 0.72727 0.49373 0.25321
 Zr1035 Zr 0.77537 0.48054 0.23726
 O1036 O 0.75945 0.49615 0.22096
 Zr1037 Zr 0.77445 0.50977 0.26952
 O1038 O 0.75841 0.52677 0.25483
 Zr1039 Zr 0.73310 0.49091 0.22636
 O1040 O 0.74900 0.47372 0.24108
 Zr1041 Zr 0.73203 0.52009 0.25870
 O1042 O 0.74799 0.50453 0.27515
 Zr1043 Zr 0.76287 0.52245 0.22795
 O1044 O 0.78043 0.50695 0.24272
 O1045 O 0.77091 0.48354 0.26397
 O1046 O 0.73671 0.51703 0.23209
 C1047 C 0.76773 0.48506 0.30125
 C1048 C 0.76852 0.44665 0.25875
 C1049 C 0.80785 0.48806 0.26088
 C1050 C 0.73750 0.51767 0.19619
 C1051 C 0.70120 0.51546 0.23250
 C1052 C 0.73636 0.55249 0.23439
 H1053 H 0.71505 0.49052 0.25584
 H1054 H 0.76076 0.53899 0.25816
 H1055 H 0.77858 0.47593 0.27112
 H1056 H 0.76211 0.49401 0.20844
 H1057 H 0.74033 0.46208 0.21052
 H1058 H 0.76955 0.46509 0.20759
 H1059 H 0.74032 0.54750 0.27694
 H1060 H 0.76132 0.52782 0.29478
 H1061 H 0.70473 0.47392 0.23466
 H1062 H 0.72498 0.45456 0.25466
 H1063 H 0.78052 0.54907 0.23917
 H1064 H 0.79835 0.53052 0.25822
 H1065 H 0.72480 0.48879 0.29326
 H1066 H 0.70561 0.50861 0.27665
 H1067 H 0.79969 0.49512 0.21890
 H1068 H 0.78006 0.51489 0.19950
 O1069 O 0.50149 0.20540 0.72455
 O1070 O 0.47078 0.21269 0.72609
 O1071 O 0.52383 0.25065 0.70163
 O1072 O 0.52471 0.27946 0.70744
 O1073 O 0.54737 0.22717 0.74691
 O1074 O 0.54074 0.22833 0.77786
 O1075 O 0.47991 0.29712 0.75089
 O1076 O 0.48340 0.29309 0.71998
 O1077 O 0.45569 0.25349 0.77067
 O1078 O 0.46092 0.22140 0.76791
 O1079 O 0.50033 0.27231 0.79476
 O1080 O 0.53214 0.26993 0.78874
 O1081 O 0.49945 0.29492 0.77335
 O1082 O 0.53256 0.28908 0.76954
 O1083 O 0.47758 0.25336 0.79309
 O1084 O 0.47993 0.22057 0.78710
 O1085 O 0.45745 0.27619 0.75156
 O1086 O 0.46224 0.27272 0.71839
 O1087 O 0.52191 0.20390 0.74629
 O1088 O 0.52062 0.20964 0.77729
 O1089 O 0.54786 0.24837 0.72598
 O1090 O 0.54252 0.27991 0.73028
 O1091 O 0.50216 0.23041 0.70078
 O1092 O 0.47150 0.23256 0.70704
 Zr1093 Zr 0.49144 0.23092 0.72623
 O1094 O 0.47491 0.24634 0.74198
 Zr1095 Zr 0.52319 0.26040 0.72746
 O1096 O 0.50806 0.27731 0.74318
 Zr1097 Zr 0.52192 0.22891 0.75750
 O1098 O 0.50682 0.24429 0.77469
 Zr1099 Zr 0.48143 0.27270 0.73857
 O1100 O 0.49654 0.25743 0.72114
 Zr1101 Zr 0.48020 0.24114 0.76855
 O1102 O 0.49520 0.22412 0.75278
 Zr1103 Zr 0.51192 0.27073 0.76975
 O1104 O 0.52867 0.25522 0.75410
 O1105 O 0.51795 0.23413 0.73102
 O1106 O 0.48551 0.26732 0.76493
 C1107 C 0.51328 0.19724 0.73345
 C1108 C 0.51484 0.23886 0.69371
 C1109 C 0.55488 0.23565 0.73444
 C1110 C 0.48703 0.30272 0.76510
 C1111 C 0.44983 0.26769 0.76389
 C1112 C 0.48628 0.26543 0.80083
 H1113 H 0.46255 0.24404 0.73903
 H1114 H 0.50938 0.24112 0.78701
 H1115 H 0.52512 0.22661 0.72331
 H1116 H 0.51102 0.28961 0.74077
 H1117 H 0.48857 0.28795 0.70924
 H1118 H 0.51796 0.28970 0.71146
 H1119 H 0.48855 0.22330 0.79639
 H1120 H 0.50861 0.20489 0.77688
 H1121 H 0.45252 0.26506 0.72201
 H1122 H 0.47202 0.24452 0.70220
 H1123 H 0.53043 0.25933 0.79592
 H1124 H 0.54687 0.23967 0.77748
 H1125 H 0.47118 0.20665 0.73758
 H1126 H 0.45323 0.22370 0.75771
 H1127 H 0.54886 0.27741 0.74135
 H1128 H 0.52918 0.29876 0.76165
 O1129 O 0.29642 0.75225 0.47683
 O1130 O 0.28953 0.72166 0.47706
 O1131 O 0.25089 0.77532 0.45459
 O1132 O 0.22190 0.77512 0.45981
 O1133 O 0.27348 0.79661 0.50088
 O1134 O 0.27233 0.78867 0.53155
 O1135 O 0.20416 0.72901 0.50125
 O1136 O 0.20862 0.73362 0.47068
 O1137 O 0.24847 0.70402 0.52022
 O1138 O 0.28026 0.70974 0.51865
 O1139 O 0.22905 0.74791 0.54652
 O1140 O 0.23043 0.77959 0.54138
 O1141 O 0.20563 0.74782 0.52426
 O1142 O 0.21136 0.78034 0.52278
 O1143 O 0.24845 0.72553 0.54448
 O1144 O 0.28090 0.72770 0.53821
 O1145 O 0.22613 0.70615 0.50058
 O1146 O 0.22888 0.71287 0.46840
 O1147 O 0.29708 0.77204 0.49907
 O1148 O 0.29143 0.76879 0.53009
 O1149 O 0.25176 0.79832 0.48049
 O1150 O 0.22061 0.79200 0.48336
 O1151 O 0.27113 0.75359 0.45288
 O1152 O 0.26960 0.72278 0.45805
 Zr1153 Zr 0.27084 0.74196 0.47792
 O1154 O 0.25544 0.72473 0.49284
 Zr1155 Zr 0.24069 0.77323 0.48016
 O1156 O 0.22384 0.75729 0.49504
 Zr1157 Zr 0.27206 0.77088 0.51036
 O1158 O 0.25667 0.75502 0.52674
 Zr1159 Zr 0.22888 0.73101 0.48944
 O1160 O 0.24418 0.74696 0.47283
 Zr1161 Zr 0.26023 0.72877 0.51970
 O1162 O 0.27730 0.74453 0.50469
 Zr1163 Zr 0.23010 0.76002 0.52181
 O1164 O 0.24558 0.77751 0.50704
 O1165 O 0.26711 0.76813 0.48370
 O1166 O 0.23376 0.73381 0.51616
 C1167 C 0.30413 0.76402 0.48605
 C1168 C 0.26265 0.76654 0.44633
 C1169 C 0.26452 0.80491 0.48924
 C1170 C 0.19786 0.73599 0.51523
 C1171 C 0.23485 0.69797 0.51244
 C1172 C 0.23659 0.73422 0.55263
 H1173 H 0.25802 0.71260 0.48938
 H1174 H 0.25978 0.75718 0.53916
 H1175 H 0.27452 0.77579 0.47639
 H1176 H 0.21149 0.76024 0.49257
 H1177 H 0.21377 0.73944 0.46030
 H1178 H 0.21151 0.76846 0.46356
 H1179 H 0.27879 0.73682 0.54715
 H1180 H 0.29669 0.75707 0.52883
 H1181 H 0.23804 0.70403 0.47065
 H1182 H 0.25770 0.72348 0.45299
 H1183 H 0.24121 0.77799 0.54839
 H1184 H 0.26099 0.79490 0.53123
 H1185 H 0.29548 0.72162 0.48862
 H1186 H 0.27871 0.70303 0.50767
 H1187 H 0.22240 0.79746 0.49500
 H1188 H 0.20253 0.77816 0.51354
 O1189 O 0.29486 0.24996 0.97336
 O1190 O 0.28775 0.21931 0.97357
 O1191 O 0.25023 0.27471 0.95377
 O1192 O 0.22105 0.27406 0.95929
 O1193 O 0.27439 0.29389 0.99906
 O1194 O 0.27385 0.28579 1.02972
 O1195 O 0.20325 0.22810 1.00027
 O1196 O 0.20706 0.23219 0.97006
 O1197 O 0.24828 0.20163 1.01777
 O1198 O 0.27935 0.20667 1.01621
 O1199 O 0.22978 0.24562 1.04541
 O1200 O 0.23141 0.27688 1.04112
 O1201 O 0.20557 0.24669 1.02339
 O1202 O 0.21267 0.27911 1.02247
 O1203 O 0.24869 0.22292 1.04260
 O1204 O 0.28138 0.22512 1.03518
 O1205 O 0.22523 0.20429 0.99907
 O1206 O 0.22708 0.21168 0.96683
 O1207 O 0.29730 0.26880 0.99634
 O1208 O 0.29221 0.26516 1.02772
 O1209 O 0.25184 0.29649 0.97967
 O1210 O 0.22043 0.29064 0.98346
 O1211 O 0.26980 0.25249 0.95090
 O1212 O 0.26671 0.22114 0.95532
 Zr1213 Zr 0.26942 0.23987 0.97549
 O1214 O 0.25436 0.22271 0.99077
 Zr1215 Zr 0.24015 0.27169 0.97928
 O1216 O 0.22348 0.25575 0.99428
 Zr1217 Zr 0.27250 0.26815 1.00845
 O1218 O 0.25711 0.25249 1.02503
 Zr1219 Zr 0.22784 0.22941 0.98821
 O1220 O 0.24277 0.24549 0.97131
 Zr1221 Zr 0.25997 0.22632 1.01755
 O1222 O 0.27691 0.24180 1.00209
 Zr1223 Zr 0.23049 0.25802 1.02088
 O1224 O 0.24602 0.27542 1.00605
 O1225 O 0.26648 0.26590 0.98203
 O1226 O 0.23344 0.23176 1.01487
 C1227 C 0.30329 0.26128 0.98248
 C1228 C 0.26201 0.26626 0.94520
 C1229 C 0.26529 0.30253 0.98778
 C1230 C 0.19724 0.23536 1.01420
 C1231 C 0.23446 0.19573 1.01028
 C1232 C 0.23724 0.23177 1.05118
 H1233 H 0.25670 0.21060 0.98706
 H1234 H 0.26058 0.25441 1.03739
 H1235 H 0.27388 0.27359 0.97477
 H1236 H 0.21115 0.25902 0.99216
 H1237 H 0.21179 0.23860 0.95983
 H1238 H 0.21056 0.26767 0.96326
 H1239 H 0.27910 0.23333 1.04492
 H1240 H 0.29759 0.25359 1.02570
 H1241 H 0.23616 0.20268 0.96868
 H1242 H 0.25503 0.22305 0.95003
 H1243 H 0.24288 0.27575 1.04702
 H1244 H 0.26262 0.29224 1.02981
 H1245 H 0.29444 0.21927 0.98472
 H1246 H 0.27867 0.20140 1.00437
 H1247 H 0.22309 0.29638 0.99479
 H1248 H 0.20344 0.27728 1.01355
 C1249 C 0.29837 0.38904 0.79436
 C1250 C 0.28769 0.37594 0.80138
 C1251 C 0.29548 0.36143 0.80942
 C1252 C 0.31384 0.36009 0.81077
 C1253 C 0.32433 0.37349 0.80377
 C1254 C 0.31667 0.38793 0.79546
 C1255 C 0.29023 0.40423 0.78573
 C1256 C 0.30093 0.41722 0.77851
 C1257 C 0.29313 0.43163 0.77035
 C1258 C 0.27478 0.43333 0.76977
 C1259 C 0.26424 0.42026 0.77719
 C1260 C 0.27192 0.40556 0.78502
 C1261 C 0.32693 0.40132 0.78828
 C1262 C 0.31919 0.41569 0.77988
 C1263 C 0.26943 0.37763 0.80027
 C1264 C 0.26167 0.39224 0.79233
 H1265 H 0.34106 0.40067 0.78910
 H1266 H 0.32757 0.42570 0.77448
 H1267 H 0.26105 0.36762 0.80569
 H1268 H 0.24754 0.39310 0.79187
 H1269 H 0.28724 0.35112 0.81444
 H1270 H 0.33843 0.37279 0.80496
 H1271 H 0.30133 0.44186 0.76506
 H1272 H 0.25013 0.42159 0.77693
 C1273 C 0.29006 -0.11904 0.28830
 C1274 C 0.28436 -0.12503 0.30469
 C1275 C 0.29144 -0.14040 0.31159
 C1276 C 0.30389 -0.15040 0.30210
 C1277 C 0.30917 -0.14409 0.28538
 C1278 C 0.30250 -0.12838 0.27859
 C1279 C 0.28305 -0.10251 0.28130
 C1280 C 0.28920 -0.09611 0.26517
 C1281 C 0.28295 -0.08002 0.25894
 C1282 C 0.27048 -0.07050 0.26867
 C1283 C 0.26414 -0.07745 0.28458
 C1284 C 0.27052 -0.09330 0.29104
 C1285 C 0.30807 -0.12176 0.26230
 C1286 C 0.30163 -0.10586 0.25576
 C1287 C 0.27178 -0.11544 0.31403
 C1288 C 0.26484 -0.09993 0.30723
 H1289 H 0.31766 -0.12883 0.25462
 H1290 H 0.30646 -0.10113 0.24327
 H1291 H 0.26721 -0.11998 0.32670
 H1292 H 0.25506 -0.09300 0.31479
 H1293 H 0.28761 -0.14390 0.32479
 H1294 H 0.31811 -0.15142 0.27724
 H1295 H 0.28790 -0.07485 0.24667
 H1296 H 0.25460 -0.07030 0.29225
 C1297 C 0.79115 0.88449 0.79014
 C1298 C 0.80278 0.87454 0.78005
 C1299 C 0.80976 0.85913 0.78709
 C1300 C 0.80533 0.85354 0.80428
 C1301 C 0.79370 0.86407 0.81420
 C1302 C 0.78656 0.87938 0.80719
 C1303 C 0.78368 0.90063 0.78275
 C1304 C 0.77207 0.91059 0.79291
 C1305 C 0.76515 0.92601 0.78592
 C1306 C 0.76992 0.93164 0.76896
 C1307 C 0.78154 0.92142 0.75892
 C1308 C 0.78843 0.90589 0.76575
 C1309 C 0.77497 0.88974 0.81700
 C1310 C 0.76782 0.90508 0.80997
 C1311 C 0.80716 0.88017 0.76303
 C1312 C 0.80014 0.89560 0.75603
 H1313 H 0.77137 0.88596 0.83022
 H1314 H 0.75895 0.91270 0.81797
 H1315 H 0.81614 0.87262 0.75508
 H1316 H 0.80395 0.89952 0.74290
 H1317 H 0.81807 0.85127 0.77876
 H1318 H 0.79060 0.86087 0.82769
 H1319 H 0.75645 0.93387 0.79391
 H1320 H 0.78541 0.92566 0.74591
 C1321 C 0.46223 0.87042 0.28669
 C1322 C 0.46705 0.87602 0.30354
 C1323 C 0.46034 0.89171 0.31000
 C1324 C 0.44943 0.90234 0.29950
 C1325 C 0.44513 0.89667 0.28235
 C1326 C 0.45121 0.88056 0.27604
 C1327 C 0.46865 0.85349 0.28020
 C1328 C 0.46320 0.84741 0.26367
 C1329 C 0.46887 0.83094 0.25790
 C1330 C 0.48020 0.82084 0.26843
 C1331 C 0.48588 0.82747 0.28473
 C1332 C 0.47997 0.84362 0.29076
 C1333 C 0.44636 0.87426 0.25938
 C1334 C 0.45212 0.85791 0.25337
 C1335 C 0.47843 0.86576 0.31371
 C1336 C 0.48499 0.84995 0.30731
 H1337 H 0.43784 0.88193 0.25101
 H1338 H 0.44787 0.85345 0.24056
 H1339 H 0.48238 0.87004 0.32669
 H1340 H 0.49395 0.84255 0.31544
 H1341 H 0.46340 0.89534 0.32339
 H1342 H 0.43706 0.90468 0.27389
 H1343 H 0.46452 0.82602 0.24529
 H1344 H 0.49455 0.81986 0.29299
 C1345 C -0.05066 0.85931 0.79728
 C1346 C -0.04011 0.87171 0.80570
 C1347 C -0.04804 0.88554 0.81472
 C1348 C -0.06641 0.88694 0.81554
 C1349 C -0.07677 0.87413 0.80730
 C1350 C -0.06897 0.86036 0.79807
 C1351 C -0.04238 0.84501 0.78738
 C1352 C -0.05294 0.83274 0.77879
 C1353 C -0.04500 0.81914 0.76945
 C1354 C -0.02665 0.81753 0.76901
 C1355 C -0.01625 0.82994 0.77773
 C1356 C -0.02406 0.84380 0.78683
 C1357 C -0.07910 0.84769 0.78949
 C1358 C -0.07122 0.83412 0.77999
 C1359 C -0.02183 0.87010 0.80480
 C1360 C -0.01394 0.85633 0.79560
 H1361 H -0.09324 0.84831 0.79006
 H1362 H -0.07951 0.82462 0.77356
 H1363 H -0.01355 0.87955 0.81129
 H1364 H 0.00019 0.85552 0.79531
 H1365 H -0.03990 0.89542 0.82074
 H1366 H -0.09090 0.87490 0.80806
 H1367 H -0.05313 0.80938 0.76319
 H1368 H -0.00214 0.82865 0.77763
 C1369 C -0.04533 -0.11495 -0.04294
 C1370 C -0.06307 -0.11853 -0.04020
 C1371 C -0.07066 -0.13293 -0.04856
 C1372 C -0.06069 -0.14401 -0.05962
 C1373 C -0.04277 -0.13997 -0.06212
 C1374 C -0.03513 -0.12550 -0.05392
 C1375 C -0.03731 -0.09978 -0.03422
 C1376 C -0.01960 -0.09604 -0.03718
 C1377 C -0.01215 -0.08135 -0.02923
 C1378 C -0.02228 -0.07044 -0.01833
 C1379 C -0.03997 -0.07459 -0.01528
 C1380 C -0.04757 -0.08916 -0.02330
 C1381 C -0.01740 -0.12142 -0.05646
 C1382 C -0.00979 -0.10691 -0.04827
 C1383 C -0.07295 -0.10755 -0.02924
 C1384 C -0.06533 -0.09312 -0.02092
 H1385 H -0.00936 -0.12946 -0.06492
 H1386 H 0.00388 -0.10415 -0.05070
 H1387 H -0.08670 -0.11012 -0.02707
 H1388 H -0.07343 -0.08496 -0.01263
 H1389 H -0.08456 -0.13492 -0.04687
 H1390 H -0.03440 -0.14835 -0.06984
 H1391 H 0.00142 -0.07823 -0.03180
 H1392 H -0.04800 -0.06613 -0.00722
 C1393 C -0.03759 0.37700 0.46489
 C1394 C -0.05540 0.37298 0.46654
 C1395 C -0.06168 0.35739 0.45945
 C1396 C -0.05030 0.34557 0.45101
 C1397 C -0.03235 0.34968 0.44983
 C1398 C -0.02599 0.36549 0.45655
 C1399 C -0.03108 0.39377 0.47167
 C1400 C -0.01343 0.39819 0.46934
 C1401 C -0.00751 0.41452 0.47514
 C1402 C -0.01909 0.42618 0.48347
 C1403 C -0.03664 0.42130 0.48606
 C1404 C -0.04275 0.40523 0.47998
 C1405 C -0.00831 0.37019 0.45483
 C1406 C -0.00217 0.38630 0.46102
 C1407 C -0.06666 0.38479 0.47497
 C1408 C -0.06042 0.40060 0.48167
 H1409 H 0.00079 0.36144 0.44841
 H1410 H 0.01149 0.38951 0.45918
 H1411 H -0.08043 0.38180 0.47634
 H1412 H -0.06954 0.40938 0.48801
 H1413 H -0.07557 0.35476 0.46009
 H1414 H -0.02336 0.34069 0.44361
 H1415 H 0.00601 0.41820 0.47308
 H1416 H -0.04571 0.43029 0.49219
 C1417 C 0.46373 -0.12286 0.46610
 C1418 C 0.44671 -0.12812 0.47029
 C1419 C 0.44029 -0.14381 0.46347
 C1420 C 0.45073 -0.15455 0.45248
 C1421 C 0.46813 -0.14912 0.44905
 C1422 C 0.47454 -0.13327 0.45558
 C1423 C 0.47018 -0.10590 0.47249
 C1424 C 0.48699 -0.10031 0.46775
 C1425 C 0.49274 -0.08380 0.47317
 C1426 C 0.48182 -0.07299 0.48337
 C1427 C 0.46518 -0.07906 0.48839
 C1428 C 0.45923 -0.09541 0.48284
 C1429 C 0.49148 -0.12745 0.45150
 C1430 C 0.49756 -0.11122 0.45740
 C1431 C 0.43620 -0.11732 0.48083
 C1432 C 0.44239 -0.10129 0.48707
 H1433 H 0.50000 -0.13537 0.44341
 H1434 H 0.51059 -0.10711 0.45370
 H1435 H 0.42302 -0.12124 0.48419
 H1436 H 0.43383 -0.09333 0.49508
 H1437 H 0.42674 -0.14687 0.46600
 H1438 H 0.47697 -0.15719 0.44152
 H1439 H 0.50558 -0.07929 0.46925
 H1440 H 0.45657 -0.07084 0.49610
 C1441 C 0.45433 0.38431 -0.04136
 C1442 C 0.43624 0.38141 -0.04053
 C1443 C 0.42910 0.36702 -0.04929
 C1444 C 0.43995 0.35530 -0.05853
 C1445 C 0.45812 0.35843 -0.05910
 C1446 C 0.46533 0.37300 -0.05072
 C1447 C 0.46187 0.39956 -0.03237
 C1448 C 0.47988 0.40276 -0.03366
 C1449 C 0.48687 0.41764 -0.02566
 C1450 C 0.47600 0.42923 -0.01630
 C1451 C 0.45804 0.42551 -0.01471
 C1452 C 0.45088 0.41080 -0.02290
 C1453 C 0.48334 0.37649 -0.05150
 C1454 C 0.49048 0.39118 -0.04321
 C1455 C 0.42565 0.39296 -0.03094
 C1456 C 0.43288 0.40734 -0.02220
 H1457 H 0.49198 0.36788 -0.05870
 H1458 H 0.50440 0.39351 -0.04430
 H1459 H 0.41168 0.39086 -0.03015
 H1460 H 0.42428 0.41588 -0.01493
 H1461 H 0.41508 0.36507 -0.04901
 H1462 H 0.46671 0.34943 -0.06586
 H1463 H 0.50070 0.42040 -0.02702
 H1464 H 0.44951 0.43445 -0.00778
 C1465 C 0.78718 0.37209 0.46259
 C1466 C 0.77625 0.38304 0.45267
 C1467 C 0.78286 0.39892 0.44638
 C1468 C 0.80043 0.40363 0.44951
 C1469 C 0.81118 0.39227 0.45935
 C1470 C 0.80457 0.37667 0.46613
 C1471 C 0.78039 0.35534 0.46914
 C1472 C 0.79133 0.34451 0.47917
 C1473 C 0.78501 0.32846 0.48505
 C1474 C 0.76801 0.32294 0.48062
 C1475 C 0.75712 0.33404 0.47066
 C1476 C 0.76323 0.35034 0.46500
 C1477 C 0.81510 0.36550 0.47625
 C1478 C 0.80853 0.34976 0.48280
 C1479 C 0.75901 0.37778 0.44911
 C1480 C 0.75265 0.36166 0.45506
 H1481 H 0.82852 0.36896 0.47915
 H1482 H 0.81703 0.34156 0.49063
 H1483 H 0.75043 0.38609 0.44146
 H1484 H 0.73936 0.35801 0.45180
 H1485 H 0.77430 0.40755 0.43907
 H1486 H 0.82483 0.39533 0.46151
 H1487 H 0.79360 0.31999 0.49253
 H1488 H 0.74401 0.32993 0.46719
 C1489 C 0.79107 0.86732 -0.04358
 C1490 C 0.80020 0.87873 -0.03250
 C1491 C 0.80784 0.89374 -0.03968
 C1492 C 0.80681 0.89714 -0.05790
 C1493 C 0.79791 0.88524 -0.06881
 C1494 C 0.78981 0.87050 -0.06170
 C1495 C 0.78276 0.85168 -0.03610
 C1496 C 0.77338 0.84049 -0.04719
 C1497 C 0.76563 0.82557 -0.04012
 C1498 C 0.76760 0.82149 -0.02218
 C1499 C 0.77710 0.83282 -0.01119
 C1500 C 0.78454 0.84809 -0.01808
 C1501 C 0.78044 0.85889 -0.07238
 C1502 C 0.77227 0.84420 -0.06521
 C1503 C 0.80148 0.87487 -0.01448
 C1504 C 0.79392 0.85974 -0.00742
 H1505 H 0.77935 0.86120 -0.08639
 H1506 H 0.76512 0.83561 -0.07387
 H1507 H 0.80853 0.88355 -0.00578
 H1508 H 0.79539 0.85717 0.00650
 H1509 H 0.81439 0.90283 -0.03102
 H1510 H 0.79737 0.88730 -0.08288
 H1511 H 0.75869 0.81675 -0.04877
 H1512 H 0.77878 0.82969 0.00260
 C1513 C 0.78633 0.29069 0.37642
 C1514 C 0.78622 0.30864 0.37294
 C1515 C 0.79356 0.31478 0.35725
 C1516 C 0.80074 0.30309 0.34488
 C1517 C 0.80038 0.28506 0.34850
 C1518 C 0.79341 0.27882 0.36434
 C1519 C 0.77922 0.28423 0.39321
 C1520 C 0.78000 0.26635 0.39703
 C1521 C 0.77391 0.26038 0.41335
 C1522 C 0.76680 0.27216 0.42561
 C1523 C 0.76571 0.28999 0.42135
 C1524 C 0.77212 0.29613 0.40527
 C1525 C 0.79359 0.26097 0.36845
 C1526 C 0.78710 0.25485 0.38457
 C1527 C 0.77898 0.32013 0.38533
 C1528 C 0.77196 0.31398 0.40118
 H1529 H 0.79902 0.25167 0.35924
 H1530 H 0.78772 0.24102 0.38732
 H1531 H 0.77878 0.33402 0.38278
 H1532 H 0.76658 0.32329 0.41041
 H1533 H 0.79405 0.32868 0.35492
 H1534 H 0.80556 0.27586 0.33904
 H1535 H 0.77478 0.24665 0.41657
 H1536 H 0.76051 0.29917 0.43083
 C1537 C 0.78532 0.79139 -0.12238
 C1538 C 0.78104 0.80838 -0.12751
 C1539 C 0.78943 0.81574 -0.14206
 C1540 C 0.80183 0.80617 -0.15208
 C1541 C 0.80546 0.78879 -0.14678
 C1542 C 0.79750 0.78152 -0.13187
 C1543 C 0.77725 0.78398 -0.10644
 C1544 C 0.78219 0.76728 -0.10079
 C1545 C 0.77539 0.76079 -0.08498
 C1546 C 0.76372 0.77089 -0.07486
 C1547 C 0.75828 0.78728 -0.08121
 C1548 C 0.76516 0.79396 -0.09688
 C1549 C 0.80167 0.76460 -0.12613
 C1550 C 0.79423 0.75765 -0.11079
 C1551 C 0.76864 0.81786 -0.11778
 C1552 C 0.76068 0.81069 -0.10286
 H1553 H 0.81101 0.75677 -0.13335
 H1554 H 0.79810 0.74470 -0.10662
 H1555 H 0.76509 0.83097 -0.12171
 H1556 H 0.75114 0.81840 -0.09579
 H1557 H 0.78673 0.82930 -0.14482
 H1558 H 0.81415 0.78055 -0.15427
 H1559 H 0.77962 0.74812 -0.08032
 H1560 H 0.74937 0.79522 -0.07356
 C1561 C 0.29324 0.45516 0.86576
 C1562 C 0.29996 0.46632 0.87869
 C1563 C 0.30708 0.45918 0.89403
 C1564 C 0.30774 0.44098 0.89647
 C1565 C 0.30117 0.42995 0.88322
 C1566 C 0.29382 0.43699 0.86785
 C1567 C 0.28533 0.46266 0.84978
 C1568 C 0.27835 0.45153 0.83695
 C1569 C 0.27070 0.45877 0.82186
 C1570 C 0.27031 0.47698 0.81947
 C1571 C 0.27752 0.48792 0.83240
 C1572 C 0.28492 0.48084 0.84766
 C1573 C 0.28694 0.42626 0.85458
 C1574 C 0.27932 0.43341 0.83940
 C1575 C 0.29929 0.48443 0.87610
 C1576 C 0.29197 0.49156 0.86080
 H1577 H 0.28737 0.41222 0.85599
 H1578 H 0.27412 0.42468 0.82950
 H1579 H 0.30449 0.49316 0.88599
 H1580 H 0.29175 0.50560 0.85929
 H1581 H 0.31182 0.46781 0.90423
 H1582 H 0.30182 0.41594 0.88482
 H1583 H 0.26555 0.45025 0.81175
 H1584 H 0.27737 0.50193 0.83055
 C1585 C 0.28861 -0.04099 0.37011
 C1586 C 0.28778 -0.05888 0.37383
 C1587 C 0.29459 -0.06508 0.38978
 C1588 C 0.30191 -0.05348 0.40214
 C1589 C 0.30244 -0.03553 0.39818
 C1590 C 0.29598 -0.02925 0.38213
 C1591 C 0.28172 -0.03444 0.35324
 C1592 C 0.28298 -0.01661 0.34931
 C1593 C 0.27681 -0.01052 0.33307
 C1594 C 0.26916 -0.02208 0.32094
 C1595 C 0.26770 -0.03987 0.32524
 C1596 C 0.27416 -0.04615 0.34130
 C1597 C 0.29680 -0.01147 0.37783
 C1598 C 0.29050 -0.00527 0.36166
 C1599 C 0.28022 -0.07021 0.36150
 C1600 C 0.27345 -0.06394 0.34555
 H1601 H 0.30248 -0.00228 0.38700
 H1602 H 0.29152 0.00852 0.35880
 H1603 H 0.27950 -0.08405 0.36421
 H1604 H 0.26772 -0.07311 0.33643
 H1605 H 0.29439 -0.07894 0.39243
 H1606 H 0.30776 -0.02641 0.40763
 H1607 H 0.27796 0.00319 0.32986
 H1608 H 0.26205 -0.04888 0.31589
 C1609 C -0.04946 -0.05226 -0.10861
 C1610 C -0.06032 -0.04231 -0.11956
 C1611 C -0.06904 -0.05043 -0.13351
 C1612 C -0.06709 -0.06853 -0.13675
 C1613 C -0.05634 -0.07830 -0.12515
 C1614 C -0.04749 -0.07023 -0.11119
 C1615 C -0.03986 -0.04364 -0.09423
 C1616 C -0.02893 -0.05357 -0.08328
 C1617 C -0.01989 -0.04531 -0.06959
 C1618 C -0.02195 -0.02728 -0.06666
 C1619 C -0.03294 -0.01753 -0.07782
 C1620 C -0.04188 -0.02563 -0.09165
 C1621 C -0.03661 -0.07980 -0.09979
 C1622 C -0.02748 -0.07161 -0.08608
 C1623 C -0.06202 -0.02433 -0.11656
 C1624 C -0.05299 -0.01613 -0.10282
 H1625 H -0.03506 -0.09372 -0.10154
 H1626 H -0.01921 -0.07946 -0.07762
 H1627 H -0.07040 -0.01650 -0.12493
 H1628 H -0.05472 -0.00225 -0.10093
 H1629 H -0.07652 -0.04224 -0.14233
 H1630 H -0.05508 -0.09227 -0.12655
 H1631 H -0.01178 -0.05303 -0.06085
 H1632 H -0.03476 -0.00370 -0.07558
 C1633 C -0.03788 0.45798 0.37953
 C1634 C -0.04729 0.46916 0.36844
 C1635 C -0.05348 0.46289 0.35230
 C1636 C -0.05065 0.44535 0.34711
 C1637 C -0.04118 0.43436 0.35874
 C1638 C -0.03472 0.44062 0.37478
 C1639 C -0.03131 0.46454 0.39651
 C1640 C -0.02185 0.45332 0.40757
 C1641 C -0.01577 0.45955 0.42376
 C1642 C -0.01938 0.47677 0.42907
 C1643 C -0.02888 0.48787 0.41780
 C1644 C -0.03478 0.48183 0.40143
 C1645 C -0.02525 0.42977 0.38626
 C1646 C -0.01887 0.43603 0.40235
 C1647 C -0.05029 0.48647 0.37370
 C1648 C -0.04422 0.49267 0.38995
 H1649 H -0.02274 0.41631 0.38277
 H1650 H -0.01165 0.42722 0.41081
 H1651 H -0.05753 0.49527 0.36524
 H1652 H -0.04696 0.50605 0.39355
 H1653 H -0.05994 0.47203 0.34362
 H1654 H -0.03931 0.42070 0.35587
 H1655 H -0.00869 0.45082 0.43244
 H1656 H -0.03171 0.50113 0.42177
 C1657 C 0.46563 -0.03872 0.37714
 C1658 C 0.45713 -0.02701 0.36578
 C1659 C 0.45045 -0.03311 0.34971
 C1660 C 0.45190 -0.05087 0.34517
 C1661 C 0.46056 -0.06235 0.35680
 C1662 C 0.46754 -0.05634 0.37268
 C1663 C 0.47225 -0.03252 0.39424
 C1664 C 0.48060 -0.04431 0.40562
 C1665 C 0.48644 -0.03850 0.42205
 C1666 C 0.48360 -0.02113 0.42732
 C1667 C 0.47532 -0.00943 0.41569
 C1668 C 0.46970 -0.01505 0.39906
 C1669 C 0.47607 -0.06771 0.38436
 C1670 C 0.48257 -0.06178 0.40052
 C1671 C 0.45520 -0.00952 0.37089
 C1672 C 0.46130 -0.00366 0.38728
 H1673 H 0.47765 -0.08134 0.38103
 H1674 H 0.48896 -0.07100 0.40921
 H1675 H 0.44868 -0.00033 0.36227
 H1676 H 0.45930 0.00987 0.39081
 H1677 H 0.44403 -0.02406 0.34087
 H1678 H 0.46142 -0.07612 0.35380
 H1679 H 0.49260 -0.04766 0.43098
 H1680 H 0.47312 0.00396 0.41963
 C1681 C 0.45268 0.44928 -0.11056
 C1682 C 0.45434 0.43130 -0.11322
 C1683 C 0.44574 0.42353 -0.12750
 C1684 C 0.43543 0.43356 -0.13928
 C1685 C 0.43398 0.45171 -0.13614
 C1686 C 0.44251 0.45956 -0.12188
 C1687 C 0.46167 0.45751 -0.09554
 C1688 C 0.45979 0.47549 -0.09275
 C1689 C 0.46793 0.48317 -0.07817
 C1690 C 0.47796 0.47301 -0.06647
 C1691 C 0.47997 0.45502 -0.06968
 C1692 C 0.47173 0.44719 -0.08412
 C1693 C 0.44110 0.47756 -0.11876
 C1694 C 0.44955 0.48538 -0.10442
 C1695 C 0.46448 0.42137 -0.10146
 C1696 C 0.47303 0.42918 -0.08716
 H1697 H 0.43330 0.48566 -0.12742
 H1698 H 0.44799 0.49926 -0.10241
 H1699 H 0.46581 0.40744 -0.10331
 H1700 H 0.48064 0.42104 -0.07836
 H1701 H 0.44664 0.40952 -0.12888
 H1702 H 0.42688 0.46006 -0.14512
 H1703 H 0.46622 0.49699 -0.07577
 H1704 H 0.48738 0.44700 -0.06059
 C1705 C 0.46291 0.79114 0.37057
 C1706 C 0.46387 0.80898 0.37444
 C1707 C 0.45672 0.81516 0.39021
 C1708 C 0.44899 0.80358 0.40232
 C1709 C 0.44825 0.78568 0.39820
 C1710 C 0.45503 0.77943 0.38228
 C1711 C 0.47018 0.78462 0.35388
 C1712 C 0.46877 0.76686 0.34978
 C1713 C 0.47522 0.76082 0.33365
 C1714 C 0.48324 0.77238 0.32175
 C1715 C 0.48494 0.79009 0.32628
 C1716 C 0.47823 0.79631 0.34224
 C1717 C 0.45408 0.76169 0.37783
 C1718 C 0.46075 0.75553 0.36181
 C1719 C 0.47196 0.82029 0.36244
 C1720 C 0.47911 0.81404 0.34668
 H1721 H 0.44802 0.75251 0.38675
 H1722 H 0.45960 0.74178 0.35882
 H1723 H 0.47283 0.83409 0.36528
 H1724 H 0.48528 0.82318 0.33785
 H1725 H 0.45704 0.82900 0.39292
 H1726 H 0.44257 0.77657 0.40745
 H1727 H 0.47388 0.74717 0.33031
 H1728 H 0.49092 0.79911 0.31715
 C1729 C -0.04635 0.79759 0.86184
 C1730 C -0.05346 0.78672 0.87480
 C1731 C -0.06107 0.79421 0.88973
 C1732 C -0.06178 0.81246 0.89170
 C1733 C -0.05480 0.82318 0.87841
 C1734 C -0.04698 0.81581 0.86348
 C1735 C -0.03802 0.78974 0.84628
 C1736 C -0.03069 0.80059 0.83341
 C1737 C -0.02272 0.79303 0.81870
 C1738 C -0.02238 0.77479 0.81667
 C1739 C -0.02993 0.76411 0.82961
 C1740 C -0.03763 0.77152 0.84455
 C1741 C -0.03974 0.82625 0.85018
 C1742 C -0.03169 0.81877 0.83542
 C1743 C -0.05276 0.76856 0.87264
 C1744 C -0.04505 0.76109 0.85772
 H1745 H -0.04021 0.84032 0.85123
 H1746 H -0.02623 0.82728 0.82548
 H1747 H -0.05826 0.76005 0.88255
 H1748 H -0.04485 0.74703 0.85652
 H1749 H -0.06616 0.78582 0.89996
 H1750 H -0.05552 0.83723 0.87963
 H1751 H -0.01730 0.80134 0.80856
 H1752 H -0.02983 0.75008 0.82802
 C1753 C 0.38296 0.79062 0.29282
 C1754 C 0.37087 0.79758 0.28082
 C1755 C 0.35513 0.80459 0.28708
 C1756 C 0.35149 0.80490 0.30524
 C1757 C 0.36393 0.79802 0.31710
 C1758 C 0.37961 0.79075 0.31094
 C1759 C 0.39949 0.78313 0.28627
 C1760 C 0.41155 0.77605 0.29826
 C1761 C 0.42733 0.76911 0.29198
 C1762 C 0.43121 0.76956 0.27389
 C1763 C 0.41894 0.77668 0.26206
 C1764 C 0.40301 0.78337 0.26817
 C1765 C 0.39203 0.78361 0.32254
 C1766 C 0.40770 0.77634 0.31631
 C1767 C 0.37476 0.79739 0.26278
 C1768 C 0.39059 0.79048 0.25657
 H1769 H 0.38960 0.78363 0.33657
 H1770 H 0.41692 0.77100 0.32570
 H1771 H 0.36554 0.80273 0.25339
 H1772 H 0.39314 0.79072 0.24257
 H1773 H 0.34560 0.80960 0.27779
 H1774 H 0.36150 0.79845 0.33111
 H1775 H 0.43682 0.76389 0.30119
 H1776 H 0.42184 0.77707 0.24812
 C1777 C -0.11712 0.79396 0.79222
 C1778 C -0.11977 0.79394 0.81047
 C1779 C -0.13511 0.80134 0.81732
 C1780 C -0.14785 0.80853 0.80601
 C1781 C -0.14486 0.80849 0.78773
 C1782 C -0.12949 0.80132 0.78078
 C1783 C -0.10113 0.78600 0.78492
 C1784 C -0.09842 0.78616 0.76666
 C1785 C -0.08316 0.77867 0.75979
 C1786 C -0.07083 0.77079 0.77103
 C1787 C -0.07381 0.77066 0.78931
 C1788 C -0.08888 0.77838 0.79633
 C1789 C -0.12632 0.80124 0.76259
 C1790 C -0.11101 0.79386 0.75566
 C1791 C -0.10705 0.78644 0.82149
 C1792 C -0.09189 0.77876 0.81454
 H1793 H -0.13576 0.80694 0.75364
 H1794 H -0.10906 0.79411 0.74157
 H1795 H -0.10889 0.78640 0.83561
 H1796 H -0.08244 0.77306 0.82350
 H1797 H -0.13708 0.80157 0.83141
 H1798 H -0.15463 0.81378 0.77887
 H1799 H -0.08087 0.77894 0.74574
 H1800 H -0.06419 0.76500 0.79810
 C1801 C 0.87018 0.28827 0.46056
 C1802 C 0.88141 0.27696 0.45147
 C1803 C 0.89760 0.28320 0.44548
 C1804 C 0.90238 0.30076 0.44818
 C1805 C 0.89076 0.31189 0.45721
 C1806 C 0.87481 0.30568 0.46360
 C1807 C 0.85313 0.28185 0.46680
 C1808 C 0.84203 0.29318 0.47601
 C1809 C 0.82578 0.28714 0.48177
 C1810 C 0.82036 0.27001 0.47805
 C1811 C 0.83164 0.25877 0.46876
 C1812 C 0.84815 0.26460 0.46324
 C1813 C 0.86332 0.31662 0.47284
 C1814 C 0.84725 0.31043 0.47906
 C1815 C 0.87613 0.25968 0.44842
 C1816 C 0.85975 0.25365 0.45411
 H1817 H 0.86678 0.33008 0.47531
 H1818 H 0.83880 0.31926 0.48618
 H1819 H 0.88466 0.25081 0.44141
 H1820 H 0.85612 0.24030 0.45132
 H1821 H 0.90642 0.27440 0.43876
 H1822 H 0.89392 0.32552 0.45901
 H1823 H 0.81712 0.29598 0.48869
 H1824 H 0.82758 0.24556 0.46587
 C1825 C 0.86280 0.79549 -0.04640
 C1826 C 0.86522 0.81357 -0.04499
 C1827 C 0.88004 0.82118 -0.05255
 C1828 C 0.89260 0.81085 -0.06122
 C1829 C 0.88998 0.79268 -0.06239
 C1830 C 0.87501 0.78497 -0.05515
 C1831 C 0.84710 0.78746 -0.03866
 C1832 C 0.84436 0.76945 -0.04049
 C1833 C 0.82911 0.76198 -0.03348
 C1834 C 0.81699 0.77241 -0.02436
 C1835 C 0.82014 0.79039 -0.02246
 C1836 C 0.83504 0.79801 -0.02975
 C1837 C 0.87197 0.76696 -0.05653
 C1838 C 0.85685 0.75935 -0.04942
 C1839 C 0.85275 0.82369 -0.03610
 C1840 C 0.83793 0.81604 -0.02853
 H1841 H 0.88129 0.75870 -0.06327
 H1842 H 0.85494 0.74546 -0.05091
 H1843 H 0.85446 0.83765 -0.03494
 H1844 H 0.82861 0.82431 -0.02178
 H1845 H 0.88167 0.83518 -0.05184
 H1846 H 0.89963 0.78451 -0.06877
 H1847 H 0.82668 0.74817 -0.03508
 H1848 H 0.81067 0.79860 -0.01583
 C1849 C -0.11477 -0.04387 -0.04347
 C1850 C -0.11734 -0.04337 -0.06174
 C1851 C -0.13263 -0.05050 -0.06887
 C1852 C -0.14548 -0.05786 -0.05788
 C1853 C -0.14261 -0.05829 -0.03956
 C1854 C -0.12723 -0.05142 -0.03231
 C1855 C -0.09875 -0.03630 -0.03589
 C1856 C -0.09602 -0.03704 -0.01764
 C1857 C -0.08065 -0.02996 -0.01052
 C1858 C -0.06831 -0.02187 -0.02153
 C1859 C -0.07136 -0.02115 -0.03979
 C1860 C -0.08646 -0.02849 -0.04705
 C1861 C -0.12408 -0.05187 -0.01411
 C1862 C -0.10870 -0.04489 -0.00691
 C1863 C -0.10458 -0.03569 -0.07250
 C1864 C -0.08943 -0.02832 -0.06527
 H1865 H -0.13357 -0.05770 -0.00536
 H1866 H -0.10676 -0.04556 0.00718
 H1867 H -0.10638 -0.03528 -0.08662
 H1868 H -0.07996 -0.02245 -0.07402
 H1869 H -0.13447 -0.05040 -0.08299
 H1870 H -0.15244 -0.06371 -0.03092
 H1871 H -0.07831 -0.03068 0.00351
 H1872 H -0.06175 -0.01531 -0.04841
 C1873 C -0.12260 0.46240 0.46554
 C1874 C -0.12824 0.44556 0.46970
 C1875 C -0.14409 0.43952 0.46279
 C1876 C -0.15461 0.45014 0.45172
 C1877 C -0.14874 0.46731 0.44819
 C1878 C -0.13274 0.47337 0.45488
 C1879 C -0.10551 0.46849 0.47211
 C1880 C -0.09956 0.48514 0.46746
 C1881 C -0.08295 0.49055 0.47308
 C1882 C -0.07237 0.47944 0.48337
 C1883 C -0.07879 0.46295 0.48829
 C1884 C -0.09526 0.45735 0.48255
 C1885 C -0.12654 0.49014 0.45086
 C1886 C -0.11021 0.49589 0.45699
 C1887 C -0.11769 0.43485 0.48032
 C1888 C -0.10151 0.44067 0.48670
 H1889 H -0.13425 0.49879 0.44268
 H1890 H -0.10581 0.50880 0.45334
 H1891 H -0.12190 0.42179 0.48364
 H1892 H -0.09373 0.43195 0.49475
 H1893 H -0.14748 0.42608 0.46533
 H1894 H -0.15658 0.47624 0.44050
 H1895 H -0.07818 0.50328 0.46925
 H1896 H -0.07074 0.45422 0.49606
 C1897 C 0.37981 -0.03858 0.46192
 C1898 C 0.36832 -0.02719 0.45320
 C1899 C 0.35216 -0.03351 0.44720
 C1900 C 0.34763 -0.05117 0.44957
 C1901 C 0.35948 -0.06237 0.45825
 C1902 C 0.37545 -0.05612 0.46458
 C1903 C 0.39683 -0.03207 0.46820
 C1904 C 0.40821 -0.04349 0.47701
 C1905 C 0.42438 -0.03734 0.48286
 C1906 C 0.42945 -0.02000 0.47965
 C1907 C 0.41794 -0.00870 0.47070
 C1908 C 0.40150 -0.01466 0.46508
 C1909 C 0.38723 -0.06716 0.47339
 C1910 C 0.40330 -0.06092 0.47958
 C1911 C 0.37332 -0.00977 0.45056
 C1912 C 0.38966 -0.00364 0.45631
 H1913 H 0.38400 -0.08073 0.47552
 H1914 H 0.41202 -0.06984 0.48631
 H1915 H 0.36459 -0.00084 0.44383
 H1916 H 0.39305 0.00984 0.45385
 H1917 H 0.34315 -0.02469 0.44072
 H1918 H 0.35646 -0.07607 0.45978
 H1919 H 0.43325 -0.04621 0.48949
 H1920 H 0.42177 0.00466 0.46818
 C1921 C 0.38101 0.45930 -0.03938
 C1922 C 0.37234 0.46796 -0.05303
 C1923 C 0.35710 0.46065 -0.06017
 C1924 C 0.35078 0.44420 -0.05441
 C1925 C 0.36007 0.43579 -0.04062
 C1926 C 0.37481 0.44340 -0.03290
 C1927 C 0.39710 0.46684 -0.03192
 C1928 C 0.40561 0.45821 -0.01809
 C1929 C 0.42120 0.46504 -0.01144
 C1930 C 0.42861 0.48017 -0.01880
 C1931 C 0.41968 0.48891 -0.03245
 C1932 C 0.40384 0.48232 -0.03898
 C1933 C 0.38362 0.43522 -0.01893
 C1934 C 0.39861 0.44266 -0.01146
 C1935 C 0.37916 0.48375 -0.05941
 C1936 C 0.39474 0.49071 -0.05262
 H1937 H 0.37888 0.42300 -0.01368
 H1938 H 0.40493 0.43603 -0.00060
 H1939 H 0.37258 0.49061 -0.06997
 H1940 H 0.39972 0.50272 -0.05815
 H1941 H 0.35021 0.46820 -0.06996
 H1942 H 0.35655 0.42294 -0.03611
 H1943 H 0.42786 0.45816 -0.00094
 H1944 H 0.42518 0.50061 -0.03817
 C1945 C 0.35981 0.45129 0.79980
 C1946 C 0.37247 0.44323 0.78922
 C1947 C 0.38652 0.43456 0.79723
 C1948 C 0.38793 0.43378 0.81570
 C1949 C 0.37484 0.44161 0.82609
 C1950 C 0.36081 0.45047 0.81821
 C1951 C 0.34532 0.46093 0.79143
 C1952 C 0.33282 0.46922 0.80202
 C1953 C 0.31915 0.47845 0.79402
 C1954 C 0.31772 0.47914 0.77555
 C1955 C 0.33029 0.47064 0.76512
 C1956 C 0.34423 0.46164 0.77301
 C1957 C 0.34786 0.45868 0.82836
 C1958 C 0.33411 0.46792 0.82040
 C1959 C 0.37093 0.44419 0.77084
 C1960 C 0.35701 0.45317 0.76287
 H1961 H 0.34842 0.45807 0.84257
 H1962 H 0.32441 0.47411 0.82871
 H1963 H 0.38059 0.43796 0.76254
 H1964 H 0.35630 0.45355 0.74866
 H1965 H 0.39659 0.42880 0.78907
 H1966 H 0.37559 0.44084 0.84029
 H1967 H 0.30927 0.48456 0.80217
 H1968 H 0.32914 0.47092 0.75093
 C1969 C 0.36912 -0.03999 0.29066
 C1970 C 0.38108 -0.04707 0.27865
 C1971 C 0.39715 -0.05342 0.28481
 C1972 C 0.40122 -0.05301 0.30290
 C1973 C 0.38893 -0.04600 0.31477
 C1974 C 0.37293 -0.03935 0.30870
 C1975 C 0.35225 -0.03315 0.28423
 C1976 C 0.34038 -0.02588 0.29622
 C1977 C 0.32438 -0.01938 0.29003
 C1978 C 0.32009 -0.02044 0.27205
 C1979 C 0.33211 -0.02788 0.26022
 C1980 C 0.34829 -0.03413 0.26622
 C1981 C 0.36064 -0.03210 0.32031
 C1982 C 0.34467 -0.02541 0.31417
 C1983 C 0.37673 -0.04766 0.26072
 C1984 C 0.36058 -0.04138 0.25462
 H1985 H 0.36342 -0.03153 0.33427
 H1986 H 0.33557 -0.01990 0.32356
 H1987 H 0.38586 -0.05311 0.25132
 H1988 H 0.35770 -0.04217 0.24070
 H1989 H 0.40656 -0.05852 0.27550
 H1990 H 0.39169 -0.04589 0.32873
 H1991 H 0.31508 -0.01391 0.29926
 H1992 H 0.32889 -0.02872 0.24636
 C1993 C 0.12852 0.53812 0.71325
 C1994 C 0.11765 0.52700 0.70354
 C1995 C 0.10158 0.53335 0.69720
 C1996 C 0.09663 0.55087 0.70003
 C1997 C 0.10788 0.56176 0.70980
 C1998 C 0.12364 0.55541 0.71661
 C1999 C 0.14553 0.53166 0.71971
 C2000 C 0.15628 0.54282 0.72951
 C2001 C 0.17254 0.53681 0.73536
 C2002 C 0.17835 0.51990 0.73113
 C2003 C 0.16742 0.50881 0.72129
 C2004 C 0.15086 0.51460 0.71569
 C2005 C 0.13475 0.56616 0.72651
 C2006 C 0.15073 0.55991 0.73299
 C2007 C 0.12322 0.50986 0.70012
 C2008 C 0.13959 0.50381 0.70599
 H2009 H 0.13107 0.57952 0.72926
 H2010 H 0.15889 0.56858 0.74062
 H2011 H 0.11498 0.50113 0.69263
 H2012 H 0.14348 0.49060 0.70284
 H2013 H 0.09306 0.52466 0.68999
 H2014 H 0.10469 0.57537 0.71173
 H2015 H 0.18092 0.54553 0.74272
 H2016 H 0.17178 0.49577 0.71801
 C2017 C 0.12860 0.03730 0.21386
 C2018 C 0.12391 0.05476 0.21660
 C2019 C 0.10791 0.06086 0.21012
 C2020 C 0.09629 0.04958 0.20131
 C2021 C 0.10113 0.03198 0.19893
 C2022 C 0.11738 0.02584 0.20499
 C2023 C 0.14573 0.03100 0.22017
 C2024 C 0.15078 0.01371 0.21688
 C2025 C 0.16736 0.00799 0.22242
 C2026 C 0.17864 0.01939 0.23147
 C2027 C 0.17316 0.03657 0.23495
 C2028 C 0.15683 0.04250 0.22915
 C2029 C 0.12274 0.00852 0.20223
 C2030 C 0.13919 0.00259 0.20797
 C2031 C 0.13540 0.06587 0.22562
 C2032 C 0.15153 0.05980 0.23191
 H2033 H 0.11422 -0.00048 0.19539
 H2034 H 0.14287 -0.01079 0.20538
 H2035 H 0.13189 0.07937 0.22785
 H2036 H 0.15998 0.06876 0.23884
 H2037 H 0.10472 0.07453 0.21166
 H2038 H 0.09232 0.02307 0.19236
 H2039 H 0.17148 -0.00526 0.21971
 H2040 H 0.18182 0.04551 0.24169
 C2041 C 0.61047 0.70060 0.20065
 C2042 C 0.62372 0.69297 0.21085
 C2043 C 0.63743 0.68414 0.20245
 C2044 C 0.63786 0.68278 0.18396
 C2045 C 0.62409 0.69003 0.17400
 C2046 C 0.61046 0.69908 0.18226
 C2047 C 0.59645 0.71055 0.20937
 C2048 C 0.58342 0.71847 0.19911
 C2049 C 0.57019 0.72798 0.20743
 C2050 C 0.56961 0.72921 0.22590
 C2051 C 0.58268 0.72106 0.23604
 C2052 C 0.59629 0.71187 0.22780
 C2053 C 0.59695 0.70688 0.17248
 C2054 C 0.58369 0.71647 0.18076
 C2055 C 0.62315 0.69457 0.22924
 C2056 C 0.60960 0.70377 0.23757
 H2057 H 0.59673 0.70572 0.15829
 H2058 H 0.57358 0.72238 0.17274
 H2059 H 0.63327 0.68868 0.23727
 H2060 H 0.60962 0.70463 0.25178
 H2061 H 0.64801 0.67882 0.21027
 H2062 H 0.62409 0.68879 0.15982
 H2063 H 0.55985 0.73372 0.19954
 H2064 H 0.58210 0.72169 0.25025
 C2065 C 0.11918 0.71188 0.71053
 C2066 C 0.13023 0.72294 0.70096
 C2067 C 0.14631 0.71648 0.69482
 C2068 C 0.15114 0.69896 0.69783
 C2069 C 0.13967 0.68808 0.70729
 C2070 C 0.12385 0.69451 0.71385
 C2071 C 0.10227 0.71853 0.71700
 C2072 C 0.09137 0.70746 0.72671
 C2073 C 0.07527 0.71370 0.73270
 C2074 C 0.06976 0.73078 0.72870
 C2075 C 0.08082 0.74176 0.71889
 C2076 C 0.09722 0.73572 0.71315
 C2077 C 0.11256 0.68382 0.72358
 C2078 C 0.09665 0.69024 0.73002
 C2079 C 0.12489 0.74017 0.69763
 C2080 C 0.10862 0.74641 0.70352
 H2081 H 0.11606 0.67040 0.72628
 H2082 H 0.08835 0.68162 0.73754
 H2083 H 0.13327 0.74885 0.69025
 H2084 H 0.10494 0.75971 0.70050
 H2085 H 0.15501 0.72511 0.68776
 H2086 H 0.14284 0.67447 0.70932
 H2087 H 0.06677 0.70506 0.74000
 H2088 H 0.07667 0.75491 0.71576
 C2089 C 0.62992 0.21113 0.53678
 C2090 C 0.62586 0.21287 0.55466
 C2091 C 0.61017 0.20596 0.56097
 C2092 C 0.59834 0.19757 0.54955
 C2093 C 0.60257 0.19608 0.53157
 C2094 C 0.61843 0.20273 0.52515
 C2095 C 0.64665 0.21802 0.53018
 C2096 C 0.65101 0.21587 0.51240
 C2097 C 0.66717 0.22207 0.50632
 C2098 C 0.67876 0.23059 0.51787
 C2099 C 0.67402 0.23283 0.53561
 C2100 C 0.65808 0.22643 0.54186
 C2101 C 0.62313 0.20104 0.50738
 C2102 C 0.63917 0.20743 0.50113
 C2103 C 0.63764 0.22133 0.56595
 C2104 C 0.65346 0.22806 0.55964
 H2105 H 0.61441 0.19459 0.49825
 H2106 H 0.64235 0.20570 0.48737
 H2107 H 0.63463 0.22274 0.57978
 H2108 H 0.66221 0.23447 0.56878
 H2109 H 0.60738 0.20681 0.57490
 H2110 H 0.59357 0.18980 0.52260
 H2111 H 0.67072 0.22029 0.49265
 H2112 H 0.68294 0.23912 0.54467
 C2113 C 0.63937 0.69942 0.04844
 C2114 C 0.62626 0.69145 0.03838
 C2115 C 0.61261 0.68276 0.04696
 C2116 C 0.61210 0.68185 0.06547
 C2117 C 0.62567 0.68954 0.07531
 C2118 C 0.63925 0.69845 0.06688
 C2119 C 0.65339 0.70913 0.03952
 C2120 C 0.66630 0.71736 0.04962
 C2121 C 0.67955 0.72661 0.04111
 C2122 C 0.68026 0.72729 0.02262
 C2123 C 0.66731 0.71884 0.01264
 C2124 C 0.65368 0.70991 0.02106
 C2125 C 0.65259 0.70663 0.07651
 C2126 C 0.66583 0.71600 0.06802
 C2127 C 0.62694 0.69253 0.01996
 C2128 C 0.64048 0.70152 0.01144
 H2129 H 0.65269 0.70593 0.09073
 H2130 H 0.67576 0.72227 0.07593
 H2131 H 0.61693 0.68637 0.01205
 H2132 H 0.64056 0.70196 -0.00279
 H2133 H 0.60215 0.67714 0.03922
 H2134 H 0.62560 0.68867 0.08953
 H2135 H 0.68971 0.73272 0.04889
 H2136 H 0.66794 0.71914 -0.00159
 C2137 C 0.12184 0.03692 0.03783
 C2138 C 0.12727 0.05344 0.03227
 C2139 C 0.14270 0.06050 0.03908
 C2140 C 0.15328 0.05107 0.05113
 C2141 C 0.14759 0.03419 0.05618
 C2142 C 0.13182 0.02724 0.04980
 C2143 C 0.10520 0.02979 0.03121
 C2144 C 0.09933 0.01355 0.03730
 C2145 C 0.08307 0.00722 0.03152
 C2146 C 0.07290 0.01696 0.01956
 C2147 C 0.07933 0.03297 0.01323
 C2148 C 0.09531 0.03953 0.01916
 C2149 C 0.12577 0.01082 0.05528
 C2150 C 0.10975 0.00415 0.04923
 C2151 C 0.11702 0.06276 0.02014
 C2152 C 0.10140 0.05584 0.01356
 H2153 H 0.13335 0.00316 0.06451
 H2154 H 0.10545 -0.00842 0.05400
 H2155 H 0.12111 0.07552 0.01567
 H2156 H 0.09393 0.06341 0.00415
 H2157 H 0.14577 0.07374 0.03541
 H2158 H 0.15543 0.02607 0.06472
 H2159 H 0.07828 -0.00512 0.03646
 H2160 H 0.07162 0.04069 0.00414
 C2161 C 0.11627 0.54237 0.54149
 C2162 C 0.11907 0.56039 0.54027
 C2163 C 0.13440 0.56750 0.54733
 C2164 C 0.14710 0.55672 0.55531
 C2165 C 0.14402 0.53863 0.55640
 C2166 C 0.12857 0.53142 0.54963
 C2167 C 0.10012 0.53484 0.53413
 C2168 C 0.09711 0.51686 0.53568
 C2169 C 0.08157 0.50982 0.52892
 C2170 C 0.06932 0.52061 0.52035
 C2171 C 0.07267 0.53858 0.51876
 C2172 C 0.08796 0.54579 0.52579
 C2173 C 0.12517 0.51347 0.55082
 C2174 C 0.10966 0.50633 0.54405
 C2175 C 0.10649 0.57095 0.53200
 C2176 C 0.09121 0.56376 0.52482
 H2177 H 0.13453 0.50487 0.55710
 H2178 H 0.10751 0.49244 0.54533
 H2179 H 0.10849 0.58488 0.53101
 H2180 H 0.08185 0.57236 0.51853
 H2181 H 0.13635 0.58146 0.54673
 H2182 H 0.15372 0.53013 0.56231
 H2183 H 0.07901 0.49600 0.53027
 H2184 H 0.06314 0.54704 0.51252
 C2185 C 0.61783 0.04247 0.54068
 C2186 C 0.62838 0.05240 0.52948
 C2187 C 0.64401 0.05946 0.53595
 C2188 C 0.64925 0.05685 0.55365
 C2189 C 0.63807 0.04700 0.56470
 C2190 C 0.62253 0.03972 0.55826
 C2191 C 0.60153 0.03477 0.53384
 C2192 C 0.59102 0.02473 0.54503
 C2193 C 0.57553 0.01746 0.53849
 C2194 C 0.57040 0.02037 0.52093
 C2195 C 0.58111 0.03052 0.50989
 C2196 C 0.59673 0.03768 0.51627
 C2197 C 0.61158 0.02974 0.56912
 C2198 C 0.59611 0.02233 0.56261
 C2199 C 0.62318 0.05496 0.51194
 C2200 C 0.60759 0.04779 0.50547
 H2201 H 0.61503 0.02756 0.58276
 H2202 H 0.58807 0.01469 0.57142
 H2203 H 0.63122 0.06262 0.50315
 H2204 H 0.60404 0.05014 0.49189
 H2205 H 0.65236 0.06630 0.52680
 H2206 H 0.64094 0.04535 0.57851
 H2207 H 0.56727 0.00993 0.54720
 H2208 H 0.57726 0.03291 0.49639
 C2209 C 0.60919 0.54927 0.04938
 C2210 C 0.62205 0.55704 0.03886
 C2211 C 0.63570 0.56623 0.04693
 C2212 C 0.63646 0.56779 0.06539
 C2213 C 0.62306 0.56042 0.07566
 C2214 C 0.60949 0.55102 0.06775
 C2215 C 0.59526 0.53893 0.04102
 C2216 C 0.58262 0.53089 0.05160
 C2217 C 0.56944 0.52107 0.04363
 C2218 C 0.56850 0.51965 0.02518
 C2219 C 0.58121 0.52787 0.01473
 C2220 C 0.59477 0.53738 0.02263
 C2221 C 0.59638 0.54307 0.07786
 C2222 C 0.58320 0.53312 0.06992
 C2223 C 0.62117 0.55519 0.02051
 C2224 C 0.60770 0.54562 0.01252
 H2225 H 0.59639 0.54441 0.09203
 H2226 H 0.57339 0.52711 0.07818
 H2227 H 0.63098 0.56118 0.01224
 H2228 H 0.60745 0.54460 -0.00167
 H2229 H 0.64601 0.57166 0.03888
 H2230 H 0.62331 0.56182 0.08983
 H2231 H 0.55938 0.51528 0.05177
 H2232 H 0.58035 0.52710 0.00053
 C2233 C 0.03782 0.03913 0.12182
 C2234 C 0.03463 0.05647 0.12660
 C2235 C 0.04129 0.06278 0.14255
 C2236 C 0.05106 0.05187 0.15400
 C2237 C 0.05392 0.03435 0.14879
 C2238 C 0.04746 0.02801 0.13277
 C2239 C 0.03111 0.03255 0.10490
 C2240 C 0.03462 0.01528 0.09994
 C2241 C 0.02867 0.00924 0.08360
 C2242 C 0.01916 0.02033 0.07230
 C2243 C 0.01547 0.03752 0.07767
 C2244 C 0.02154 0.04374 0.09388
 C2245 C 0.05047 0.01071 0.12750
 C2246 C 0.04422 0.00448 0.11133
 C2247 C 0.02499 0.06728 0.11522
 C2248 C 0.01852 0.06101 0.09917
 H2249 H 0.05787 0.00196 0.13586
 H2250 H 0.04699 -0.00889 0.10769
 H2251 H 0.02245 0.08072 0.11874
 H2252 H 0.01121 0.06979 0.09076
 H2253 H 0.03938 0.07643 0.14545
 H2254 H 0.06064 0.02529 0.15737
 H2255 H 0.03157 -0.00400 0.07962
 H2256 H 0.00836 0.04625 0.06902
 C2257 C 0.04096 0.54145 0.61798
 C2258 C 0.05900 0.54116 0.62135
 C2259 C 0.06529 0.54793 0.63725
 C2260 C 0.05363 0.55461 0.64994
 C2261 C 0.03555 0.55484 0.64624
 C2262 C 0.02917 0.54840 0.63024
 C2263 C 0.03426 0.53422 0.60134
 C2264 C 0.01623 0.53474 0.59784
 C2265 C 0.00995 0.52795 0.58194
 C2266 C 0.02154 0.52034 0.56980
 C2267 C 0.03957 0.51982 0.57358
 C2268 C 0.04603 0.52690 0.58925
 C2269 C 0.01121 0.54864 0.62631
 C2270 C 0.00486 0.54201 0.61034
 C2271 C 0.07039 0.53399 0.60880
 C2272 C 0.06401 0.52691 0.59305
 H2273 H 0.00199 0.55401 0.63565
 H2274 H -0.00907 0.54249 0.60781
 H2275 H 0.08435 0.53372 0.61123
 H2276 H 0.07322 0.52142 0.58376
 H2277 H 0.07924 0.54801 0.63969
 H2278 H 0.02640 0.55971 0.65593
 H2279 H -0.00393 0.52843 0.57906
 H2280 H 0.04861 0.51429 0.56412
 C2281 C 0.53817 0.03974 0.61947
 C2282 C 0.53439 0.05693 0.62432
 C2283 C 0.54101 0.06343 0.64016
 C2284 C 0.55135 0.05291 0.65148
 C2285 C 0.55470 0.03547 0.64630
 C2286 C 0.54829 0.02893 0.63033
 C2287 C 0.53163 0.03302 0.60255
 C2288 C 0.53575 0.01593 0.59748
 C2289 C 0.52987 0.00976 0.58116
 C2290 C 0.51981 0.02055 0.57005
 C2291 C 0.51561 0.03759 0.57550
 C2292 C 0.52160 0.04392 0.59166
 C2293 C 0.55193 0.01179 0.62492
 C2294 C 0.54583 0.00542 0.60874
 C2295 C 0.52431 0.06745 0.61307
 C2296 C 0.51797 0.06104 0.59703
 H2297 H 0.55972 0.00328 0.63318
 H2298 H 0.54908 -0.00781 0.60500
 H2299 H 0.52133 0.08079 0.61666
 H2300 H 0.51030 0.06960 0.58872
 H2301 H 0.53874 0.07706 0.64302
 H2302 H 0.56190 0.02668 0.65476
 H2303 H 0.53319 -0.00336 0.57710
 H2304 H 0.50808 0.04609 0.56697
 C2305 C 0.54988 0.55013 0.11089
 C2306 C 0.55128 0.56837 0.11085
 C2307 C 0.56054 0.57661 0.12440
 C2308 C 0.56818 0.56677 0.13805
 C2309 C 0.56692 0.54845 0.13765
 C2310 C 0.55784 0.54007 0.12407
 C2311 C 0.53973 0.54142 0.09698
 C2312 C 0.53851 0.52315 0.09688
 C2313 C 0.52915 0.51491 0.08337
 C2314 C 0.52077 0.52486 0.07029
 C2315 C 0.52189 0.54319 0.07081
 C2316 C 0.53153 0.55152 0.08398
 C2317 C 0.55632 0.52183 0.12355
 C2318 C 0.54690 0.51351 0.11013
 C2319 C 0.54317 0.57801 0.09740
 C2320 C 0.53342 0.56972 0.08421
 H2321 H 0.56246 0.51392 0.13362
 H2322 H 0.54612 0.49943 0.11018
 H2323 H 0.54424 0.59208 0.09715
 H2324 H 0.52731 0.57763 0.07413
 H2325 H 0.56167 0.59068 0.12441
 H2326 H 0.57253 0.54073 0.14817
 H2327 H 0.52859 0.50081 0.08285
 H2328 H 0.51596 0.55094 0.06047
 C2329 C 0.20985 0.54497 0.63203
 C2330 C 0.20209 0.53350 0.61998
 C2331 C 0.19451 0.54021 0.60461
 C2332 C 0.19438 0.55831 0.60135
 C2333 C 0.20209 0.56961 0.61374
 C2334 C 0.20996 0.56301 0.62901
 C2335 C 0.21781 0.53799 0.64824
 C2336 C 0.22558 0.54948 0.66027
 C2337 C 0.23275 0.54283 0.67585
 C2338 C 0.23179 0.52489 0.67964
 C2339 C 0.22409 0.51353 0.66734
 C2340 C 0.21717 0.52001 0.65155
 C2341 C 0.21787 0.57409 0.64135
 C2342 C 0.22561 0.56744 0.65669
 C2343 C 0.20201 0.51555 0.62360
 C2344 C 0.20934 0.50893 0.63916
 H2345 H 0.21807 0.58803 0.63916
 H2346 H 0.23150 0.57644 0.66591
 H2347 H 0.19607 0.50655 0.61441
 H2348 H 0.20880 0.49502 0.64154
 H2349 H 0.18887 0.53134 0.59511
 H2350 H 0.20179 0.58357 0.61165
 H2351 H 0.23839 0.55171 0.68537
 H2352 H 0.22329 0.49972 0.67018
 C2353 C 0.21256 0.04118 0.13002
 C2354 C 0.20544 0.02945 0.11784
 C2355 C 0.19872 0.03583 0.10193
 C2356 C 0.19871 0.05386 0.09829
 C2357 C 0.20582 0.06542 0.11079
 C2358 C 0.21290 0.05914 0.12659
 C2359 C 0.21959 0.03454 0.14680
 C2360 C 0.22680 0.04628 0.15894
 C2361 C 0.23323 0.03995 0.17497
 C2362 C 0.23207 0.02209 0.17909
 C2363 C 0.22481 0.01049 0.16677
 C2364 C 0.21870 0.01664 0.15051
 C2365 C 0.22020 0.07048 0.13908
 C2366 C 0.22711 0.06415 0.15495
 C2367 C 0.20507 0.01159 0.12186
 C2368 C 0.21149 0.00530 0.13797
 H2369 H 0.22056 0.08436 0.13658
 H2370 H 0.23258 0.07333 0.16424
 H2371 H 0.19960 0.00240 0.11257
 H2372 H 0.21077 -0.00854 0.14063
 H2373 H 0.19357 0.02673 0.09236
 H2374 H 0.20562 0.07933 0.10841
 H2375 H 0.23854 0.04900 0.18452
 H2376 H 0.22388 -0.00326 0.16987
 C2377 C 0.71275 0.21189 0.61823
 C2378 C 0.70484 0.22356 0.63000
 C2379 C 0.69898 0.21741 0.64634
 C2380 C 0.70064 0.19963 0.65078
 C2381 C 0.70856 0.18816 0.63866
 C2382 C 0.71477 0.19423 0.62249
 C2383 C 0.71884 0.21823 0.60099
 C2384 C 0.72687 0.20655 0.58932
 C2385 C 0.73258 0.21258 0.57294
 C2386 C 0.72997 0.23008 0.56802
 C2387 C 0.72180 0.24163 0.57986
 C2388 C 0.71635 0.23579 0.59645
 C2389 C 0.72279 0.18292 0.61043
 C2390 C 0.72883 0.18900 0.59416
 C2391 C 0.70280 0.24111 0.62509
 C2392 C 0.70837 0.24709 0.60857
 H2393 H 0.72443 0.16925 0.61359
 H2394 H 0.73497 0.17987 0.58526
 H2395 H 0.69670 0.25026 0.63403
 H2396 H 0.70640 0.26068 0.60525
 H2397 H 0.69313 0.22646 0.65555
 H2398 H 0.70956 0.17438 0.64160
 H2399 H 0.73865 0.20356 0.56385
 H2400 H 0.71976 0.25513 0.57619
 C2401 C 0.69963 0.70057 0.10802
 C2402 C 0.69896 0.68229 0.10852
 C2403 C 0.69053 0.67406 0.12260
 C2404 C 0.68304 0.68394 0.13627
 C2405 C 0.68367 0.70230 0.13538
 C2406 C 0.69185 0.71066 0.12124
 C2407 C 0.70880 0.70930 0.09345
 C2408 C 0.70925 0.72759 0.09278
 C2409 C 0.71767 0.73582 0.07865
 C2410 C 0.72595 0.72583 0.06557
 C2411 C 0.72561 0.70751 0.06666
 C2412 C 0.71686 0.69917 0.08043
 C2413 C 0.69260 0.72893 0.12016
 C2414 C 0.70106 0.73725 0.10612
 C2415 C 0.70695 0.67262 0.09506
 C2416 C 0.71582 0.68093 0.08130
 H2417 H 0.68659 0.73686 0.13026
 H2418 H 0.70126 0.75135 0.10575
 H2419 H 0.70648 0.65852 0.09525
 H2420 H 0.72195 0.67300 0.07129
 H2421 H 0.68986 0.65996 0.12294
 H2422 H 0.67821 0.71009 0.14591
 H2423 H 0.71771 0.74991 0.07776
 H2424 H 0.73157 0.69971 0.05641
 C2425 C 0.54872 0.69951 0.14036
 C2426 C 0.55004 0.68126 0.14027
 C2427 C 0.55902 0.67300 0.12654
 C2428 C 0.56644 0.68284 0.11280
 C2429 C 0.56520 0.70118 0.11330
 C2430 C 0.55644 0.70957 0.12709
 C2431 C 0.53893 0.70824 0.15452
 C2432 C 0.53784 0.72652 0.15479
 C2433 C 0.52886 0.73478 0.16856
 C2434 C 0.52068 0.72482 0.18170
 C2435 C 0.52164 0.70649 0.18101
 C2436 C 0.53095 0.69814 0.16760
 C2437 C 0.55505 0.72782 0.12775
 C2438 C 0.54600 0.73615 0.14143
 C2439 C 0.54215 0.67162 0.15380
 C2440 C 0.53271 0.67992 0.16721
 H2441 H 0.56101 0.73573 0.11762
 H2442 H 0.54532 0.75025 0.14150
 H2443 H 0.54315 0.65754 0.15396
 H2444 H 0.52676 0.67201 0.17735
 H2445 H 0.56015 0.65893 0.12649
 H2446 H 0.57062 0.70891 0.10272
 H2447 H 0.52843 0.74888 0.16921
 H2448 H 0.51588 0.69872 0.19139
 C2449 C 0.03785 0.70669 0.62954
 C2450 C 0.03761 0.68865 0.62667
 C2451 C 0.04563 0.68187 0.61162
 C2452 C 0.05361 0.69298 0.59922
 C2453 C 0.05350 0.71112 0.60224
 C2454 C 0.04580 0.71802 0.61748
 C2455 C 0.02994 0.71381 0.64569
 C2456 C 0.03082 0.73178 0.64898
 C2457 C 0.02404 0.73836 0.66478
 C2458 C 0.01623 0.72708 0.67709
 C2459 C 0.01501 0.70917 0.67330
 C2460 C 0.02206 0.70243 0.65775
 C2461 C 0.04605 0.73598 0.62103
 C2462 C 0.03878 0.74273 0.63655
 C2463 C 0.02955 0.67769 0.63901
 C2464 C 0.02182 0.68447 0.65425
 H2465 H 0.05214 0.74488 0.61184
 H2466 H 0.03950 0.75663 0.63889
 H2467 H 0.02926 0.66373 0.63690
 H2468 H 0.01584 0.67556 0.66349
 H2469 H 0.04596 0.66788 0.60979
 H2470 H 0.05936 0.71987 0.59277
 H2471 H 0.02505 0.75215 0.66763
 H2472 H 0.00929 0.70035 0.68282
 C2473 C 0.55068 0.64049 0.20229
 C2474 C 0.56899 0.64041 0.20097
 C2475 C 0.57727 0.62689 0.19179
 C2476 C 0.56740 0.61334 0.18421
 C2477 C 0.54900 0.61384 0.18545
 C2478 C 0.54058 0.62743 0.19438
 C2479 C 0.54192 0.65443 0.21229
 C2480 C 0.52358 0.65472 0.21337
 C2481 C 0.51531 0.66829 0.22255
 C2482 C 0.52533 0.68119 0.23094
 C2483 C 0.54373 0.68046 0.22999
 C2484 C 0.55208 0.66727 0.22048
 C2485 C 0.52226 0.62811 0.19577
 C2486 C 0.51390 0.64159 0.20500
 C2487 C 0.57868 0.65371 0.20906
 C2488 C 0.57036 0.66689 0.21872
 H2489 H 0.51432 0.61814 0.18965
 H2490 H 0.49976 0.64167 0.20567
 H2491 H 0.59281 0.65386 0.20806
 H2492 H 0.57830 0.67685 0.22485
 H2493 H 0.59139 0.62685 0.19066
 H2494 H 0.54123 0.60341 0.17990
 H2495 H 0.50116 0.66899 0.22297
 H2496 H 0.55156 0.69066 0.23591
 C2497 C 0.03736 0.62858 0.71403
 C2498 C 0.02636 0.61785 0.70399
 C2499 C 0.03296 0.60214 0.69722
 C2500 C 0.05059 0.59736 0.70001
 C2501 C 0.06138 0.60843 0.71009
 C2502 C 0.05480 0.62389 0.71728
 C2503 C 0.03061 0.64523 0.72093
 C2504 C 0.04165 0.65593 0.73095
 C2505 C 0.03539 0.67200 0.73701
 C2506 C 0.01834 0.67762 0.73276
 C2507 C 0.00734 0.66657 0.72292
 C2508 C 0.01340 0.65032 0.71704
 C2509 C 0.06540 0.63487 0.72748
 C2510 C 0.05889 0.65055 0.73433
 C2511 C 0.00907 0.62319 0.70073
 C2512 C 0.00273 0.63919 0.70705
 H2513 H 0.07886 0.63134 0.73017
 H2514 H 0.06748 0.65862 0.74215
 H2515 H 0.00043 0.61504 0.69301
 H2516 H -0.01059 0.64293 0.70400
 H2517 H 0.02438 0.59372 0.68976
 H2518 H 0.07506 0.60530 0.71203
 H2519 H 0.04404 0.68041 0.74442
 H2520 H -0.00581 0.67073 0.71960
 C2521 C 0.04135 0.11839 0.03737
 C2522 C 0.05939 0.12166 0.03703
 C2523 C 0.06577 0.13718 0.04426
 C2524 C 0.05425 0.14962 0.05149
 C2525 C 0.03614 0.14613 0.05158
 C2526 C 0.02965 0.13046 0.04470
 C2527 C 0.03462 0.10190 0.03012
 C2528 C 0.01665 0.09831 0.03103
 C2529 C 0.01043 0.08229 0.02473
 C2530 C 0.02204 0.07008 0.01732
 C2531 C 0.03996 0.07411 0.01612
 C2532 C 0.04635 0.08989 0.02272
 C2533 C 0.01170 0.12656 0.04508
 C2534 C 0.00533 0.11072 0.03846
 C2535 C 0.07072 0.10930 0.02955
 C2536 C 0.06429 0.09372 0.02243
 H2537 H 0.00253 0.13576 0.05071
 H2538 H -0.00857 0.10814 0.03921
 H2539 H 0.08467 0.11168 0.02918
 H2540 H 0.07346 0.08453 0.01682
 H2541 H 0.07975 0.13940 0.04446
 H2542 H 0.02708 0.15563 0.05688
 H2543 H -0.00337 0.07926 0.02574
 H2544 H 0.04904 0.06468 0.01071
 C2545 C 0.04341 0.61432 0.54112
 C2546 C 0.04210 0.61782 0.55917
 C2547 C 0.04929 0.63321 0.56583
 C2548 C 0.05743 0.64532 0.55457
 C2549 C 0.05873 0.64151 0.53648
 C2550 C 0.05182 0.62596 0.52971
 C2551 C 0.03575 0.59817 0.53405
 C2552 C 0.03729 0.59446 0.51604
 C2553 C 0.03013 0.57896 0.50944
 C2554 C 0.02121 0.56744 0.52069
 C2555 C 0.01971 0.57147 0.53869
 C2556 C 0.02709 0.58671 0.54546
 C2557 C 0.05305 0.62185 0.51175
 C2558 C 0.04599 0.60633 0.50505
 C2559 C 0.03355 0.60591 0.57020
 C2560 C 0.02611 0.59064 0.56345
 H2561 H 0.05955 0.63069 0.50281
 H2562 H 0.04728 0.60363 0.49114
 H2563 H 0.03251 0.60847 0.58416
 H2564 H 0.01957 0.58182 0.57239
 H2565 H 0.04858 0.63572 0.57982
 H2566 H 0.06482 0.65074 0.52764
 H2567 H 0.03144 0.57588 0.49560
 H2568 H 0.01322 0.56249 0.54753
 C2569 C 0.54195 0.11688 0.53944
 C2570 C 0.55999 0.12013 0.53901
 C2571 C 0.56639 0.13586 0.54581
 C2572 C 0.55486 0.14849 0.55271
 C2573 C 0.53677 0.14493 0.55303
 C2574 C 0.53027 0.12911 0.54655
 C2575 C 0.53515 0.10036 0.53231
 C2576 C 0.51713 0.09695 0.53307
 C2577 C 0.51077 0.08108 0.52655
 C2578 C 0.52227 0.06886 0.51898
 C2579 C 0.54028 0.07261 0.51813
 C2580 C 0.54681 0.08826 0.52495
 C2581 C 0.51231 0.12529 0.54695
 C2582 C 0.50587 0.10945 0.54042
 C2583 C 0.57128 0.10760 0.53171
 C2584 C 0.56479 0.09196 0.52474
 H2585 H 0.50316 0.13461 0.55243
 H2586 H 0.49194 0.10699 0.54108
 H2587 H 0.58523 0.10994 0.53131
 H2588 H 0.57394 0.08267 0.51920
 H2589 H 0.58035 0.13818 0.54580
 H2590 H 0.52769 0.15457 0.55805
 H2591 H 0.49691 0.07825 0.52729
 H2592 H 0.54926 0.06312 0.51263
 C2593 C 0.54925 0.60869 0.04874
 C2594 C 0.56756 0.60886 0.05009
 C2595 C 0.57571 0.62240 0.05932
 C2596 C 0.56570 0.63588 0.06692
 C2597 C 0.54731 0.63526 0.06571
 C2598 C 0.53902 0.62166 0.05670
 C2599 C 0.54062 0.59476 0.03864
 C2600 C 0.52228 0.59440 0.03754
 C2601 C 0.51412 0.58080 0.02835
 C2602 C 0.52423 0.56789 0.02002
 C2603 C 0.54262 0.56872 0.02093
 C2604 C 0.55088 0.58197 0.03043
 C2605 C 0.52072 0.62091 0.05527
 C2606 C 0.51248 0.60745 0.04594
 C2607 C 0.57736 0.59564 0.04195
 C2608 C 0.56915 0.58245 0.03223
 H2609 H 0.51268 0.63082 0.06141
 H2610 H 0.49834 0.60729 0.04525
 H2611 H 0.59149 0.59556 0.04297
 H2612 H 0.57719 0.57254 0.02609
 H2613 H 0.58983 0.62255 0.06043
 H2614 H 0.53945 0.64564 0.07128
 H2615 H 0.49998 0.58004 0.02797
 H2616 H 0.55050 0.55851 0.01505
 C2617 C 0.71015 0.13192 0.53627
 C2618 C 0.69800 0.12233 0.52649
 C2619 C 0.69150 0.10664 0.53335
 C2620 C 0.69664 0.10059 0.55024
 C2621 C 0.70893 0.11073 0.55975
 C2622 C 0.71580 0.12615 0.55279
 C2623 C 0.71691 0.14850 0.52921
 C2624 C 0.72913 0.15801 0.53904
 C2625 C 0.73527 0.17388 0.53249
 C2626 C 0.72904 0.18054 0.51638
 C2627 C 0.71688 0.17074 0.50658
 C2628 C 0.71085 0.15463 0.51291
 C2629 C 0.72808 0.13603 0.56222
 C2630 C 0.73474 0.15161 0.55539
 C2631 C 0.69250 0.12869 0.51004
 C2632 C 0.69873 0.14461 0.50342
 H2633 H 0.73260 0.13168 0.57499
 H2634 H 0.74427 0.15878 0.56303
 H2635 H 0.68313 0.12142 0.50230
 H2636 H 0.69397 0.14913 0.49080
 H2637 H 0.68277 0.09910 0.52517
 H2638 H 0.71272 0.10731 0.57300
 H2639 H 0.74457 0.18126 0.54023
 H2640 H 0.71201 0.17567 0.49415
 C2641 C 0.69925 0.64151 0.04797
 C2642 C 0.70961 0.62868 0.05602
 C2643 C 0.70145 0.61481 0.06473
 C2644 C 0.68304 0.61383 0.06563
 C2645 C 0.67290 0.62713 0.05788
 C2646 C 0.68093 0.64090 0.04890
 C2647 C 0.70776 0.65576 0.03824
 C2648 C 0.69736 0.66836 0.02990
 C2649 C 0.70546 0.68185 0.02065
 C2650 C 0.72383 0.68310 0.02006
 C2651 C 0.73411 0.67042 0.02859
 C2652 C 0.72610 0.65656 0.03753
 C2653 C 0.67098 0.65394 0.04062
 C2654 C 0.67907 0.66738 0.03119
 C2655 C 0.72792 0.62986 0.05500
 C2656 C 0.73602 0.64362 0.04600
 H2657 H 0.65683 0.65366 0.04127
 H2658 H 0.67094 0.67706 0.02482
 H2659 H 0.73606 0.62006 0.06121
 H2660 H 0.75017 0.64409 0.04561
 H2661 H 0.70943 0.60457 0.07040
 H2662 H 0.65877 0.62673 0.05875
 H2663 H 0.69743 0.69178 0.01448
 H2664 H 0.74824 0.67144 0.02837
 C2665 C 0.21137 0.62293 0.71601
 C2666 C 0.22282 0.63402 0.70696
 C2667 C 0.21636 0.64963 0.69978
 C2668 C 0.19845 0.65393 0.70117
 C2669 C 0.18722 0.64251 0.71032
 C2670 C 0.19363 0.62716 0.71791
 C2671 C 0.21796 0.60633 0.72324
 C2672 C 0.20645 0.59524 0.73221
 C2673 C 0.21259 0.57919 0.73850
 C2674 C 0.23000 0.57399 0.73546
 C2675 C 0.24146 0.58543 0.72669
 C2676 C 0.23552 0.60166 0.72062
 C2677 C 0.18255 0.61580 0.72711
 C2678 C 0.18889 0.60018 0.73426
 C2679 C 0.24043 0.62912 0.70502
 C2680 C 0.24664 0.61317 0.71164
 H2681 H 0.16884 0.61898 0.72874
 H2682 H 0.17992 0.59179 0.74125
 H2683 H 0.24942 0.63754 0.69807
 H2684 H 0.26024 0.60976 0.70958
 H2685 H 0.22526 0.65831 0.69306
 H2686 H 0.17336 0.64526 0.71115
 H2687 H 0.20360 0.57046 0.74505
 H2688 H 0.25489 0.58157 0.72431
 C2689 C 0.21343 0.12165 0.21507
 C2690 C 0.22480 0.13247 0.20561
 C2691 C 0.21843 0.14820 0.19863
 C2692 C 0.20067 0.15287 0.20061
 C2693 C 0.18952 0.14170 0.21016
 C2694 C 0.19586 0.12625 0.21757
 C2695 C 0.21991 0.10493 0.22212
 C2696 C 0.20847 0.09414 0.23153
 C2697 C 0.21447 0.07803 0.23771
 C2698 C 0.23166 0.07243 0.23414
 C2699 C 0.24306 0.08353 0.22486
 C2700 C 0.23726 0.09987 0.21891
 C2701 C 0.18485 0.11517 0.22718
 C2702 C 0.19109 0.09944 0.23417
 C2703 C 0.24222 0.12718 0.20307
 C2704 C 0.24831 0.11110 0.20950
 H2705 H 0.17127 0.11864 0.22927
 H2706 H 0.18219 0.09126 0.24149
 H2707 H 0.25115 0.13540 0.19580
 H2708 H 0.26175 0.10739 0.20698
 H2709 H 0.22728 0.15669 0.19158
 H2710 H 0.17574 0.14472 0.21144
 H2711 H 0.20552 0.06955 0.24466
 H2712 H 0.25631 0.07935 0.22207
 C2713 C 0.71629 1.12333 0.71090
 C2714 C 0.72050 1.12869 0.69384
 C2715 C 0.71333 1.14418 0.68728
 C2716 C 0.70206 1.15468 0.69765
 C2717 C 0.69838 1.14905 0.71502
 C2718 C 0.70528 1.13338 0.72158
 C2719 C 0.72322 1.10663 0.71756
 C2720 C 0.71849 1.10091 0.73441
 C2721 C 0.72439 1.08460 0.74031
 C2722 C 0.73501 1.07410 0.72949
 C2723 C 0.74007 1.08034 0.71284
 C2724 C 0.73406 1.09649 0.70675
 C2725 C 0.70120 1.12745 0.73857
 C2726 C 0.70762 1.11145 0.74484
 C2727 C 0.73154 1.11827 0.68347
 C2728 C 0.73829 1.10249 0.68985
 H2729 H 0.69275 1.13510 0.74699
 H2730 H 0.70392 1.10723 0.75790
 H2731 H 0.73492 1.12229 0.67026
 H2732 H 0.74671 1.09483 0.68142
 H2733 H 0.71594 1.14733 0.67369
 H2734 H 0.69048 1.15691 0.72374
 H2735 H 0.72044 1.07996 0.75316
 H2736 H 0.74811 1.07235 0.70432
 C2737 C 0.70216 0.60976 0.19991
 C2738 C 0.71216 0.62272 0.19172
 C2739 C 0.70362 0.63652 0.18318
 C2740 C 0.68519 0.63732 0.18260
 C2741 C 0.67541 0.62388 0.19049
 C2742 C 0.68382 0.61017 0.19929
 C2743 C 0.71108 0.59556 0.20944
 C2744 C 0.70105 0.58278 0.21789
 C2745 C 0.70956 0.56930 0.22690
 C2746 C 0.72796 0.56824 0.22710
 C2747 C 0.73784 0.58112 0.21849
 C2748 C 0.72944 0.59495 0.20981
 C2749 C 0.67425 0.59697 0.20769
 C2750 C 0.68273 0.58357 0.21692
 C2751 C 0.73050 0.62174 0.19242
 C2752 C 0.73899 0.60803 0.20122
 H2753 H 0.66009 0.59709 0.20727
 H2754 H 0.67487 0.57376 0.22336
 H2755 H 0.73836 0.63164 0.18610
 H2756 H 0.75315 0.60770 0.20135
 H2757 H 0.71133 0.64686 0.17741
 H2758 H 0.66126 0.62413 0.18986
 H2759 H 0.70184 0.55922 0.23312
 H2760 H 0.75199 0.58025 0.21841
 C2761 C 0.53714 0.13037 0.70933
 C2762 C 0.53345 0.12524 0.69206
 C2763 C 0.54055 0.10968 0.68566
 C2764 C 0.55131 0.09895 0.69636
 C2765 C 0.55466 0.10443 0.71383
 C2766 C 0.54770 0.12009 0.72029
 C2767 C 0.53010 0.14702 0.71592
 C2768 C 0.53420 0.15241 0.73305
 C2769 C 0.52812 0.16861 0.73898
 C2770 C 0.51800 0.17938 0.72790
 C2771 C 0.51363 0.17352 0.71092
 C2772 C 0.51978 0.15743 0.70481
 C2773 C 0.55121 0.12575 0.73750
 C2774 C 0.54462 0.14166 0.74375
 C2775 C 0.52295 0.13594 0.68137
 C2776 C 0.51620 0.15175 0.68765
 H2777 H 0.55931 0.11792 0.74614
 H2778 H 0.54784 0.14565 0.75702
 H2779 H 0.52001 0.13211 0.66799
 H2780 H 0.50828 0.15968 0.67893
 H2781 H 0.53828 0.10654 0.67198
 H2782 H 0.56225 0.09639 0.72271
 H2783 H 0.53155 0.17297 0.75209
 H2784 H 0.50601 0.18175 0.70220
 C2785 C 1.03770 0.12714 0.21640
 C2786 C 1.05539 0.12263 0.21826
 C2787 C 1.06133 0.10678 0.21143
 C2788 C 1.04971 0.09516 0.20307
 C2789 C 1.03187 0.09975 0.20172
 C2790 C 1.02586 0.11584 0.20815
 C2791 C 1.03159 0.14421 0.22283
 C2792 C 1.01407 0.14911 0.22027
 C2793 C 1.00855 0.16573 0.22569
 C2794 C 1.02038 0.17724 0.23384
 C2795 C 1.03777 0.17186 0.23674
 C2796 C 1.04349 0.15548 0.23106
 C2797 C 1.00832 0.12101 0.20622
 C2798 C 1.00255 0.13741 0.21208
 C2799 C 1.06688 0.13421 0.22665
 C2800 C 1.06100 0.15031 0.23305
 H2801 H 0.99902 0.11243 0.19988
 H2802 H 0.98898 0.14098 0.21008
 H2803 H 1.08056 0.13084 0.22822
 H2804 H 1.07028 0.15886 0.23941
 H2805 H 1.07516 0.10377 0.21221
 H2806 H 1.02268 0.09091 0.19560
 H2807 H 0.99513 0.16974 0.22345
 H2808 H 1.04703 0.18068 0.24280
 C2809 C 0.20762 0.63309 0.53813
 C2810 C 0.21904 0.62062 0.54527
 C2811 C 0.21216 0.60517 0.55224
 C2812 C 0.19394 0.60231 0.55246
 C2813 C 0.18272 0.61504 0.54521
 C2814 C 0.18948 0.63037 0.53794
 C2815 C 0.21475 0.64944 0.53097
 C2816 C 0.20330 0.66188 0.52381
 C2817 C 0.21011 0.67746 0.51719
 C2818 C 0.22819 0.68084 0.51807
 C2819 C 0.23951 0.66826 0.52535
 C2820 C 0.23285 0.65244 0.53169
 C2821 C 0.17844 0.64316 0.53071
 C2822 C 0.18524 0.65862 0.52369
 C2823 C 0.23710 0.62395 0.54548
 C2824 C 0.24388 0.63963 0.53890
 H2825 H 0.16441 0.64121 0.53050
 H2826 H 0.17627 0.66818 0.51828
 H2827 H 0.24606 0.61444 0.55097
 H2828 H 0.25786 0.64176 0.53949
 H2829 H 0.22098 0.59542 0.55751
 H2830 H 0.16868 0.61323 0.54560
 H2831 H 0.20128 0.68722 0.51191
 H2832 H 0.25342 0.67082 0.52611
 C2833 C 0.21048 0.12908 1.03485
 C2834 C 0.19257 0.12526 1.03419
 C2835 C 0.18658 0.10956 1.04135
 C2836 C 0.19836 0.09755 1.04899
 C2837 C 0.21635 0.10153 1.04930
 C2838 C 0.22245 0.11735 1.04239
 C2839 C 0.21676 0.14583 1.02781
 C2840 C 0.23460 0.14992 1.02899
 C2841 C 0.24041 0.16613 1.02285
 C2842 C 0.22854 0.17812 1.01541
 C2843 C 0.21074 0.17364 1.01399
 C2844 C 0.20476 0.15758 1.02034
 C2845 C 0.24025 0.12178 1.04304
 C2846 C 0.24621 0.13782 1.03653
 C2847 C 0.18096 0.13731 1.02659
 C2848 C 0.18696 0.15318 1.01972
 H2849 H 0.24963 0.11286 1.04882
 H2850 H 0.26002 0.14081 1.03748
 H2851 H 0.16709 0.13449 1.02599
 H2852 H 0.17755 0.16215 1.01406
 H2853 H 0.17267 0.10690 1.04135
 H2854 H 0.22559 0.09237 1.05492
 H2855 H 0.25413 0.16947 1.02398
 H2856 H 0.20147 0.18288 1.00852
 C2857 C 0.21040 0.70862 0.61854
 C2858 C 0.20310 0.72037 0.63061
 C2859 C 0.19642 0.71405 0.64651
 C2860 C 0.19672 0.69606 0.65032
 C2861 C 0.20397 0.68445 0.63792
 C2862 C 0.21094 0.69068 0.62208
 C2863 C 0.21758 0.71524 0.60185
 C2864 C 0.22505 0.70352 0.58984
 C2865 C 0.23180 0.70989 0.57396
 C2866 C 0.23078 0.72779 0.56995
 C2867 C 0.22320 0.73934 0.58215
 C2868 C 0.21669 0.73315 0.59818
 C2869 C 0.21841 0.67934 0.60967
 C2870 C 0.22539 0.68566 0.59385
 C2871 C 0.20261 0.73821 0.62654
 C2872 C 0.20921 0.74449 0.61056
 H2873 H 0.21889 0.66546 0.61223
 H2874 H 0.23104 0.67647 0.58465
 H2875 H 0.19698 0.74740 0.63575
 H2876 H 0.20847 0.75833 0.60788
 H2877 H 0.19116 0.72317 0.65601
 H2878 H 0.20402 0.67057 0.64048
 H2879 H 0.23735 0.70088 0.56451
 H2880 H 0.22235 0.75312 0.57915
 C2881 C 0.21169 0.20680 1.11759
 C2882 C 0.21190 0.18887 1.12117
 C2883 C 0.20498 0.18282 1.13711
 C2884 C 0.19809 0.19461 1.14955
 C2885 C 0.19805 0.21257 1.14568
 C2886 C 0.20471 0.21872 1.12969
 C2887 C 0.21884 0.21323 1.10081
 C2888 C 0.21827 0.23113 1.09711
 C2889 C 0.22468 0.23715 1.08098
 C2890 C 0.23181 0.22543 1.06867
 C2891 C 0.23259 0.20753 1.07273
 C2892 C 0.22595 0.20134 1.08874
 C2893 C 0.20455 0.23656 1.12558
 C2894 C 0.21115 0.24265 1.10953
 C2895 C 0.21904 0.17735 1.10873
 C2896 C 0.22599 0.18348 1.09281
 H2897 H 0.19919 0.24588 1.13481
 H2898 H 0.21065 0.25650 1.10682
 H2899 H 0.21929 0.16347 1.11133
 H2900 H 0.23136 0.17416 1.08358
 H2901 H 0.20482 0.16895 1.13973
 H2902 H 0.19306 0.22182 1.15520
 H2903 H 0.22404 0.25094 1.07796
 H2904 H 0.23781 0.19840 1.06321
 C2905 C 0.70089 0.55089 0.13944
 C2906 C 0.69305 0.54073 0.12631
 C2907 C 0.68410 0.54901 0.11257
 C2908 C 0.68281 0.56734 0.11197
 C2909 C 0.69035 0.57729 0.12556
 C2910 C 0.69952 0.56914 0.13925
 C2911 C 0.71089 0.54227 0.15356
 C2912 C 0.71898 0.55246 0.16650
 C2913 C 0.72846 0.54422 0.17987
 C2914 C 0.72952 0.52591 0.18063
 C2915 C 0.72124 0.51585 0.16762
 C2916 C 0.71206 0.52399 0.15391
 C2917 C 0.70757 0.57888 0.15262
 C2918 C 0.71721 0.57067 0.16597
 C2919 C 0.69453 0.52249 0.12706
 C2920 C 0.70379 0.51426 0.14068
 H2921 H 0.70656 0.59296 0.15267
 H2922 H 0.72335 0.57865 0.17593
 H2923 H 0.68848 0.51451 0.11703
 H2924 H 0.70454 0.50017 0.14082
 H2925 H 0.67859 0.54121 0.10209
 H2926 H 0.68919 0.59136 0.12541
 H2927 H 0.73443 0.55205 0.19010
 H2928 H 0.72183 0.50175 0.16829
 C2929 C 0.71349 1.04128 0.62731
 C2930 C 0.71526 1.05905 0.62341
 C2931 C 0.70785 1.06564 0.60794
 C2932 C 0.69897 1.05459 0.59612
 C2933 C 0.69770 1.03666 0.60009
 C2934 C 0.70472 1.03000 0.61579
 C2935 C 0.72064 1.03444 0.64395
 C2936 C 0.71822 1.01682 0.64827
 C2937 C 0.72439 1.01059 0.66450
 C2938 C 0.73318 1.02182 0.67617
 C2939 C 0.73586 1.03934 0.67138
 C2940 C 0.72942 1.04577 0.65541
 C2941 C 0.70291 1.01235 0.62036
 C2942 C 0.70944 1.00590 0.63637
 C2943 C 0.72416 1.06997 0.63521
 C2944 C 0.73121 1.06341 0.65089
 H2945 H 0.69616 1.00349 0.61161
 H2946 H 0.70753 0.99227 0.63949
 H2947 H 0.72563 1.08371 0.63232
 H2948 H 0.73793 1.07227 0.65966
 H2949 H 0.70864 1.07950 0.60535
 H2950 H 0.69121 1.02789 0.59107
 H2951 H 0.72224 0.99711 0.66811
 H2952 H 0.74235 1.04816 0.68038
 C2953 C 0.53908 0.21330 0.62702
 C2954 C 0.52825 0.20257 0.61682
 C2955 C 0.53483 0.19529 0.60122
 C2956 C 0.55234 0.19819 0.59611
 C2957 C 0.56301 0.20882 0.60681
 C2958 C 0.55637 0.21666 0.62200
 C2959 C 0.53232 0.22088 0.64348
 C2960 C 0.54316 0.23171 0.65357
 C2961 C 0.53696 0.23836 0.66952
 C2962 C 0.52020 0.23386 0.67570
 C2963 C 0.50933 0.22327 0.66519
 C2964 C 0.51532 0.21682 0.64901
 C2965 C 0.56677 0.22769 0.63236
 C2966 C 0.56020 0.23527 0.64776
 C2967 C 0.51112 0.19920 0.62253
 C2968 C 0.50481 0.20609 0.63843
 H2969 H 0.58011 0.23051 0.62853
 H2970 H 0.56859 0.24381 0.65529
 H2971 H 0.50260 0.19094 0.61480
 H2972 H 0.49164 0.20290 0.64250
 H2973 H 0.52629 0.18741 0.59313
 H2974 H 0.57664 0.21083 0.60357
 H2975 H 0.54549 0.24640 0.67748
 H2976 H 0.49639 0.21978 0.66975
 C2977 C 1.04009 0.20936 0.12953
 C2978 C 1.05721 0.21330 0.12442
 C2979 C 1.06373 0.20647 0.10871
 C2980 C 1.05326 0.19586 0.09766
 C2981 C 1.03594 0.19217 0.10317
 C2982 C 1.02939 0.19877 0.11908
 C2983 C 1.03334 0.21626 0.14629
 C2984 C 1.01634 0.21197 0.15171
 C2985 C 1.01021 0.21817 0.16795
 C2986 C 1.02093 0.22875 0.17857
 C2987 C 1.03783 0.23314 0.17272
 C2988 C 1.04414 0.22681 0.15671
 C2989 C 1.01233 0.19497 0.12479
 C2990 C 1.00595 0.20139 0.14085
 C2991 C 1.06764 0.22387 0.13524
 C2992 C 1.06119 0.23057 0.15108
 H2993 H 1.00389 0.18684 0.11685
 H2994 H 0.99280 0.19800 0.14483
 H2995 H 1.08091 0.22699 0.13143
 H2996 H 1.06967 0.23865 0.15906
 H2997 H 1.07732 0.20891 0.10570
 H2998 H 1.02721 0.18463 0.09498
 H2999 H 0.99720 0.21470 0.17235
 H3000 H 1.04631 0.24105 0.18087
 C3001 C 0.62102 0.21035 0.70909
 C3002 C 0.62424 0.21054 0.69094
 C3003 C 0.64014 0.20405 0.68459
 C3004 C 0.65304 0.19775 0.69624
 C3005 C 0.64956 0.19771 0.71447
 C3006 C 0.63349 0.20384 0.72094
 C3007 C 0.60421 0.21705 0.71580
 C3008 C 0.60072 0.21644 0.73392
 C3009 C 0.58453 0.22256 0.74015
 C3010 C 0.57219 0.22965 0.72838
 C3011 C 0.57605 0.23033 0.71031
 C3012 C 0.59192 0.22385 0.70393
 C3013 C 0.62963 0.20361 0.73900
 C3014 C 0.61348 0.20969 0.74536
 C3015 C 0.61150 0.21724 0.67947
 C3016 C 0.59565 0.22386 0.68587
 H3017 H 0.63913 0.19859 0.74829
 H3018 H 0.61100 0.20917 0.75936
 H3019 H 0.61382 0.21745 0.66543
 H3020 H 0.58619 0.22895 0.67661
 H3021 H 0.64235 0.20376 0.67054
 H3022 H 0.65939 0.19309 0.72363
 H3023 H 0.58158 0.22196 0.75406
 H3024 H 0.56647 0.23547 0.70116
 C3025 C 1.12213 0.21130 0.21188
 C3026 C 1.12698 0.19401 0.21538
 C3027 C 1.14255 0.18748 0.20834
 C3028 C 1.15366 0.19820 0.19824
 C3029 C 1.14866 0.21565 0.19507
 C3030 C 1.13279 0.22218 0.20167
 C3031 C 1.10543 0.21803 0.21882
 C3032 C 1.10018 0.23510 0.21475
 C3033 C 1.08393 0.24117 0.22085
 C3034 C 1.07317 0.23034 0.23117
 C3035 C 1.07893 0.21342 0.23546
 C3036 C 1.09491 0.20713 0.22915
 C3037 C 1.12726 0.23932 0.19816
 C3038 C 1.11118 0.24562 0.20449
 C3039 C 1.11609 0.18351 0.22577
 C3040 C 1.10039 0.19002 0.23266
 H3041 H 1.13533 0.24786 0.19029
 H3042 H 1.10733 0.25883 0.20128
 H3043 H 1.11974 0.17016 0.22862
 H3044 H 1.09241 0.18153 0.24067
 H3045 H 1.14580 0.17392 0.21051
 H3046 H 1.15707 0.22416 0.18752
 H3047 H 1.07962 0.25421 0.21747
 H3048 H 1.07070 0.20488 0.24319
 C3049 C 0.13408 0.70693 0.54234
 C3050 C 0.12227 0.69886 0.53083
 C3051 C 0.10686 0.69163 0.53759
 C3052 C 0.10332 0.69217 0.55577
 C3053 C 0.11551 0.70013 0.56713
 C3054 C 0.13082 0.70765 0.56047
 C3055 C 0.15020 0.71476 0.53526
 C3056 C 0.16191 0.72303 0.54676
 C3057 C 0.17719 0.73046 0.53998
 C3058 C 0.18098 0.72939 0.52189
 C3059 C 0.16914 0.72095 0.51056
 C3060 C 0.15365 0.71374 0.51717
 C3061 C 0.14294 0.71589 0.57158
 C3062 C 0.15819 0.72350 0.56483
 C3063 C 0.12610 0.69820 0.51278
 C3064 C 0.14156 0.70543 0.50608
 H3065 H 0.14059 0.71652 0.58560
 H3066 H 0.16719 0.72975 0.57384
 H3067 H 0.11710 0.69197 0.50377
 H3068 H 0.14406 0.70454 0.49210
 H3069 H 0.09752 0.68579 0.52864
 H3070 H 0.11319 0.70035 0.58117
 H3071 H 0.18638 0.73662 0.54887
 H3072 H 0.17200 0.71999 0.49664
 C3073 C 0.13075 0.21087 1.03911
 C3074 C 0.11865 0.20388 1.02717
 C3075 C 0.10273 0.19730 1.03347
 C3076 C 0.09904 0.19740 1.05162
 C3077 C 0.11145 0.20443 1.06336
 C3078 C 0.12723 0.21129 1.05719
 C3079 C 0.14755 0.21767 1.03261
 C3080 C 0.15961 0.22470 1.04458
 C3081 C 0.17564 0.23098 1.03837
 C3082 C 0.17979 0.22993 1.02038
 C3083 C 0.16755 0.22282 1.00854
 C3084 C 0.15134 0.21678 1.01458
 C3085 C 0.13963 0.21838 1.06877
 C3086 C 0.15553 0.22504 1.06256
 C3087 C 0.12280 0.20345 1.00919
 C3088 C 0.13890 0.20972 1.00301
 H3089 H 0.13704 0.21877 1.08276
 H3090 H 0.16476 0.23037 1.07193
 H3091 H 0.11359 0.19808 0.99983
 H3092 H 0.14164 0.20900 0.98907
 H3093 H 0.09327 0.19213 1.02425
 H3094 H 0.10902 0.20424 1.07739
 H3095 H 0.18509 0.23619 1.04760
 H3096 H 0.17065 0.22197 0.99467
 C3097 C 0.64315 0.55090 0.20039
 C3098 C 0.63021 0.55856 0.21092
 C3099 C 0.61609 0.56709 0.20285
 C3100 C 0.61494 0.56814 0.18437
 C3101 C 0.62837 0.56081 0.17405
 C3102 C 0.64240 0.55205 0.18198
 C3103 C 0.65765 0.54132 0.20878
 C3104 C 0.67036 0.53336 0.19820
 C3105 C 0.68404 0.52420 0.20620
 C3106 C 0.68537 0.52330 0.22465
 C3107 C 0.67261 0.53147 0.23511
 C3108 C 0.65855 0.54033 0.22721
 C3109 C 0.65557 0.54417 0.17186
 C3110 C 0.66926 0.53490 0.17984
 C3111 C 0.63152 0.55730 0.22931
 C3112 C 0.64550 0.54843 0.23731
 H3113 H 0.65519 0.54501 0.15765
 H3114 H 0.67902 0.52884 0.17157
 H3115 H 0.62165 0.56322 0.23758
 H3116 H 0.64605 0.54783 0.25152
 H3117 H 0.60576 0.57246 0.21095
 H3118 H 0.62783 0.56181 0.15986
 H3119 H 0.69404 0.51831 0.19803
 H3120 H 0.67368 0.53101 0.24931
 C3121 C 0.63151 1.04257 0.70856
 C3122 C 0.61919 1.04934 0.72039
 C3123 C 0.60307 1.05540 0.71395
 C3124 C 0.59937 1.05501 0.69578
 C3125 C 0.61209 1.04843 0.68413
 C3126 C 0.62806 1.04201 0.69045
 C3127 C 0.64839 1.03601 0.71524
 C3128 C 0.66054 1.02898 0.70339
 C3129 C 0.67650 1.02265 0.70977
 C3130 C 0.68055 1.02365 0.72780
 C3131 C 0.66834 1.03095 0.73953
 C3132 C 0.65209 1.03697 0.73331
 C3133 C 0.64065 1.03505 0.67900
 C3134 C 0.65658 1.02856 0.68537
 C3135 C 0.62327 1.04993 0.73840
 C3136 C 0.63947 1.04395 0.74474
 H3137 H 0.63812 1.03455 0.66500
 H3138 H 0.66592 1.02324 0.67611
 H3139 H 0.61389 1.05515 0.74768
 H3140 H 0.64212 1.04474 0.75870
 H3141 H 0.59338 1.06026 0.72310
 H3142 H 0.60971 1.04846 0.67009
 H3143 H 0.68597 1.01734 0.70062
 H3144 H 0.67142 1.03177 0.75341
 C3145 C 0.87489 0.46307 0.28429
 C3146 C 0.88546 0.47354 0.29500
 C3147 C 0.90127 0.46675 0.30149
 C3148 C 0.90618 0.44932 0.29797
 C3149 C 0.89517 0.43905 0.28728
 C3150 C 0.87977 0.44593 0.28015
 C3151 C 0.85818 0.47002 0.27756
 C3152 C 0.84780 0.45955 0.26666
 C3153 C 0.83175 0.46597 0.26066
 C3154 C 0.82574 0.48254 0.26587
 C3155 C 0.83640 0.49299 0.27670
 C3156 C 0.85276 0.48682 0.28245
 C3157 C 0.86905 0.43590 0.26913
 C3158 C 0.85344 0.44269 0.26230
 C3159 C 0.87985 0.49049 0.29921
 C3160 C 0.86371 0.49696 0.29317
 H3161 H 0.87276 0.42270 0.26572
 H3162 H 0.84561 0.43460 0.25372
 H3163 H 0.88787 0.49872 0.30748
 H3164 H 0.85975 0.50997 0.29699
 H3165 H 0.90963 0.47504 0.30935
 H3166 H 0.89825 0.42551 0.28477
 H3167 H 0.82366 0.45773 0.25246
 H3168 H 0.83192 0.50578 0.28074
 C3169 C 0.85966 0.95025 0.79925
 C3170 C 0.86099 0.93202 0.79848
 C3171 C 0.87480 0.92367 0.80724
 C3172 C 0.88746 0.93342 0.81645
 C3173 C 0.88579 0.95173 0.81712
 C3174 C 0.87184 0.96018 0.80869
 C3175 C 0.84529 0.95912 0.78989
 C3176 C 0.84376 0.97734 0.79089
 C3177 C 0.82991 0.98568 0.78215
 C3178 C 0.81788 0.97593 0.77221
 C3179 C 0.81977 0.95768 0.77119
 C3180 C 0.83332 0.94920 0.78016
 C3181 C 0.86993 0.97838 0.80936
 C3182 C 0.85607 0.98680 0.80070
 C3183 C 0.84857 0.92252 0.78884
 C3184 C 0.83500 0.93097 0.77978
 H3185 H 0.87923 0.98618 0.81666
 H3186 H 0.85503 1.00085 0.80161
 H3187 H 0.84942 0.90844 0.78818
 H3188 H 0.82574 0.92317 0.77243
 H3189 H 0.87569 0.90958 0.80687
 H3190 H 0.89553 0.95946 0.82388
 H3191 H 0.82842 0.99969 0.78315
 H3192 H 0.81033 0.95000 0.76393
 C3193 C 0.39056 0.29928 0.79768
 C3194 C 0.38908 0.31751 0.79792
 C3195 C 0.37451 0.32522 0.80599
 C3196 C 0.36133 0.31482 0.81355
 C3197 C 0.36321 0.29653 0.81337
 C3198 C 0.37783 0.28871 0.80553
 C3199 C 0.40559 0.29108 0.78881
 C3200 C 0.40713 0.27284 0.78865
 C3201 C 0.42148 0.26511 0.78019
 C3202 C 0.43397 0.27551 0.77163
 C3203 C 0.43215 0.29379 0.77186
 C3204 C 0.41808 0.30165 0.78057
 C3205 C 0.37984 0.27051 0.80517
 C3206 C 0.39430 0.26271 0.79696
 C3207 C 0.40208 0.32766 0.78988
 C3208 C 0.41631 0.31986 0.78130
 H3209 H 0.37014 0.26222 0.81126
 H3210 H 0.39535 0.24864 0.79698
 H3211 H 0.40116 0.34175 0.79006
 H3212 H 0.42596 0.32814 0.77513
 H3213 H 0.37339 0.33929 0.80630
 H3214 H 0.35310 0.28835 0.81890
 H3215 H 0.42292 0.25106 0.78024
 H3216 H 0.44196 0.30192 0.76569
 C3217 C 0.88152 0.28746 0.28858
 C3218 C 0.87794 0.28765 0.30666
 C3219 C 0.86193 0.29437 0.31255
 C3220 C 0.84938 0.30064 0.30049
 C3221 C 0.85311 0.29998 0.28235
 C3222 C 0.86923 0.29362 0.27634
 C3223 C 0.89855 0.28090 0.28235
 C3224 C 0.90237 0.28125 0.26430
 C3225 C 0.91877 0.27541 0.25850
 C3226 C 0.93112 0.26894 0.27061
 C3227 C 0.92697 0.26846 0.28863
 C3228 C 0.91078 0.27462 0.29460
 C3229 C 0.87340 0.29349 0.25836
 C3230 C 0.88972 0.28750 0.25245
 C3231 C 0.89054 0.28131 0.31852
 C3232 C 0.90666 0.27483 0.31258
 H3233 H 0.86403 0.29822 0.24879
 H3234 H 0.89248 0.28779 0.23850
 H3235 H 0.88794 0.28139 0.33251
 H3236 H 0.91602 0.27008 0.32215
 H3237 H 0.85947 0.29509 0.32655
 H3238 H 0.84351 0.30446 0.27288
 H3239 H 0.92190 0.27579 0.24462
 H3240 H 0.93653 0.26374 0.29804
 C3241 C 0.37119 0.78854 0.46243
 C3242 C 0.37592 0.80584 0.46594
 C3243 C 0.39167 0.81230 0.45927
 C3244 C 0.40306 0.80149 0.44955
 C3245 C 0.39817 0.78402 0.44642
 C3246 C 0.38213 0.77757 0.45261
 C3247 C 0.35433 0.78189 0.46898
 C3248 C 0.34920 0.76480 0.46491
 C3249 C 0.33283 0.75877 0.47069
 C3250 C 0.32186 0.76965 0.48075
 C3251 C 0.32747 0.78661 0.48501
 C3252 C 0.34355 0.79285 0.47899
 C3253 C 0.37674 0.76042 0.44909
 C3254 C 0.36051 0.75419 0.45503
 C3255 C 0.36475 0.81641 0.47599
 C3256 C 0.34892 0.80997 0.48254
 H3257 H 0.38504 0.75180 0.44151
 H3258 H 0.35678 0.74095 0.45183
 H3259 H 0.36830 0.82976 0.47887
 H3260 H 0.34075 0.81849 0.49034
 H3261 H 0.39486 0.82586 0.46144
 H3262 H 0.40680 0.77540 0.43922
 H3263 H 0.32864 0.74570 0.46736
 H3264 H 0.31906 0.79518 0.49255
 C3265 C 0.36632 0.29033 0.95404
 C3266 C 0.36823 0.29132 0.93572
 C3267 C 0.38293 0.29963 0.92869
 C3268 C 0.39586 0.30674 0.93980
 C3269 C 0.39379 0.30541 0.95818
 C3270 C 0.37895 0.29739 0.96536
 C3271 C 0.35065 0.28199 0.96150
 C3272 C 0.34838 0.28159 0.97981
 C3273 C 0.33307 0.27429 0.98680
 C3274 C 0.32030 0.26718 0.97557
 C3275 C 0.32303 0.26733 0.95726
 C3276 C 0.33805 0.27493 0.95014
 C3277 C 0.37640 0.29644 0.98362
 C3278 C 0.36132 0.28877 0.99072
 C3279 C 0.35531 0.28413 0.92479
 C3280 C 0.34050 0.27601 0.93188
 H3281 H 0.38604 0.30185 0.99250
 H3282 H 0.35976 0.28851 1.00487
 H3283 H 0.35663 0.28482 0.91064
 H3284 H 0.33079 0.27070 0.92300
 H3285 H 0.38413 0.30084 0.91456
 H3286 H 0.40371 0.31055 0.96691
 H3287 H 0.33098 0.27432 1.00088
 H3288 H 0.31308 0.26224 0.94850
 C3289 C 0.79144 0.46081 0.36874
 C3290 C 0.80929 0.46191 0.37291
 C3291 C 0.81521 0.45551 0.38911
 C3292 C 0.80338 0.44836 0.40135
 C3293 C 0.78546 0.44754 0.39695
 C3294 C 0.77946 0.45356 0.38060
 C3295 C 0.78520 0.46727 0.35158
 C3296 C 0.76742 0.46572 0.34718
 C3297 C 0.76164 0.47157 0.33067
 C3298 C 0.77346 0.47928 0.31885
 C3299 C 0.79119 0.48093 0.32360
 C3300 C 0.79717 0.47476 0.33986
 C3301 C 0.76173 0.45243 0.37584
 C3302 C 0.75584 0.45831 0.35938
 C3303 C 0.82088 0.46936 0.36074
 C3304 C 0.81491 0.47576 0.34453
 H3305 H 0.75235 0.44684 0.38487
 H3306 H 0.74209 0.45707 0.35619
 H3307 H 0.83469 0.47029 0.36380
 H3308 H 0.82428 0.48144 0.33555
 H3309 H 0.82906 0.45588 0.39204
 H3310 H 0.77615 0.44231 0.40627
 H3311 H 0.74798 0.47028 0.32707
 H3312 H 0.80043 0.48659 0.31444
 C3313 C 0.79321 0.95856 0.86526
 C3314 C 0.81141 0.95810 0.86762
 C3315 C 0.81831 0.95097 0.88311
 C3316 C 0.80718 0.94450 0.89635
 C3317 C 0.78891 0.94525 0.89378
 C3318 C 0.78187 0.95212 0.87819
 C3319 C 0.78590 0.96584 0.84888
 C3320 C 0.76769 0.96594 0.84629
 C3321 C 0.76083 0.97269 0.83054
 C3322 C 0.77208 0.97969 0.81774
 C3323 C 0.79028 0.97955 0.82064
 C3324 C 0.79727 0.97248 0.83608
 C3325 C 0.76373 0.95257 0.87522
 C3326 C 0.75677 0.95927 0.85950
 C3327 C 0.82237 0.96466 0.85438
 C3328 C 0.81541 0.97180 0.83890
 H3329 H 0.75484 0.94760 0.88507
 H3330 H 0.74272 0.95928 0.85770
 H3331 H 0.83644 0.96433 0.85602
 H3332 H 0.82431 0.97676 0.82903
 H3333 H 0.83237 0.95016 0.88469
 H3334 H 0.78016 0.94056 0.90391
 H3335 H 0.74683 0.97269 0.82832
 H3336 H 0.79904 0.98457 0.81066
 C3337 C 0.28688 0.79098 0.37928
 C3338 C 0.28557 0.80878 0.37535
 C3339 C 0.29296 0.81507 0.35978
 C3340 C 0.30142 0.80369 0.34796
 C3341 C 0.30232 0.78577 0.35199
 C3342 C 0.29523 0.77938 0.36774
 C3343 C 0.27974 0.78444 0.39602
 C3344 C 0.28168 0.76676 0.40033
 C3345 C 0.27562 0.76079 0.41664
 C3346 C 0.26750 0.77236 0.42848
 C3347 C 0.26522 0.78995 0.42371
 C3348 C 0.27151 0.79610 0.40759
 C3349 C 0.29655 0.76169 0.37232
 C3350 C 0.28997 0.75550 0.38837
 C3351 C 0.27715 0.82003 0.38720
 C3352 C 0.27017 0.81378 0.40302
 H3353 H 0.30294 0.75259 0.36354
 H3354 H 0.29150 0.74182 0.39151
 H3355 H 0.27603 0.83380 0.38428
 H3356 H 0.26389 0.82291 0.41186
 H3357 H 0.29250 0.82893 0.35713
 H3358 H 0.30858 0.77681 0.34297
 H3359 H 0.27740 0.74724 0.42022
 H3360 H 0.25920 0.79900 0.43283
 C3361 C 0.29488 0.29828 0.88573
 C3362 C 0.29464 0.31651 0.88424
 C3363 C 0.30378 0.32446 0.87045
 C3364 C 0.31285 0.31432 0.85797
 C3365 C 0.31293 0.29602 0.85974
 C3366 C 0.30411 0.28796 0.87367
 C3367 C 0.28538 0.28985 0.90026
 C3368 C 0.28607 0.27166 0.90208
 C3369 C 0.27763 0.26377 0.91637
 C3370 C 0.26839 0.27397 0.92863
 C3371 C 0.26741 0.29217 0.92627
 C3372 C 0.27608 0.30019 0.91226
 C3373 C 0.30429 0.26977 0.87576
 C3374 C 0.29552 0.26176 0.88979
 C3375 C 0.28524 0.32642 0.89656
 C3376 C 0.27607 0.31839 0.91030
 H3377 H 0.31139 0.26166 0.86655
 H3378 H 0.29616 0.24772 0.89104
 H3379 H 0.28497 0.34050 0.89556
 H3380 H 0.26905 0.32651 0.91957
 H3381 H 0.30386 0.33854 0.86950
 H3382 H 0.31958 0.28800 0.85012
 H3383 H 0.27859 0.24980 0.91818
 H3384 H 0.26070 0.30019 0.93586
 C3385 C 0.45587 0.29716 0.86198
 C3386 C 0.46672 0.30458 0.87483
 C3387 C 0.45914 0.31184 0.88992
 C3388 C 0.44085 0.31176 0.89218
 C3389 C 0.43016 0.30469 0.87887
 C3390 C 0.43760 0.29727 0.86381
 C3391 C 0.46379 0.28886 0.84644
 C3392 C 0.45294 0.28110 0.83380
 C3393 C 0.46053 0.27291 0.81927
 C3394 C 0.47883 0.27270 0.81713
 C3395 C 0.48953 0.28079 0.82975
 C3396 C 0.48207 0.28874 0.84457
 C3397 C 0.42716 0.28974 0.85066
 C3398 C 0.43470 0.28177 0.83591
 C3399 C 0.48493 0.30432 0.87245
 C3400 C 0.49248 0.29661 0.85754
 H3401 H 0.41305 0.28985 0.85186
 H3402 H 0.42619 0.27599 0.82613
 H3403 H 0.49344 0.31007 0.88224
 H3404 H 0.50658 0.29667 0.85623
 H3405 H 0.46750 0.31709 0.90012
 H3406 H 0.41607 0.30486 0.88030
 H3407 H 0.45216 0.26713 0.80936
 H3408 H 0.50360 0.28087 0.82804
 C3409 C 0.96147 0.29047 0.36885
 C3410 C 0.95410 0.27872 0.38085
 C3411 C 0.94757 0.28500 0.39685
 C3412 C 0.94805 0.30295 0.40077
 C3413 C 0.95534 0.31456 0.38842
 C3414 C 0.96220 0.30837 0.37253
 C3415 C 0.96848 0.28391 0.35207
 C3416 C 0.97604 0.29564 0.34014
 C3417 C 0.98266 0.28934 0.32419
 C3418 C 0.98142 0.27151 0.32001
 C3419 C 0.97373 0.25995 0.33209
 C3420 C 0.96737 0.26606 0.34822
 C3421 C 0.96975 0.31972 0.36021
 C3422 C 0.97662 0.31346 0.34432
 C3423 C 0.95339 0.26092 0.37662
 C3424 C 0.95983 0.25471 0.36053
 H3425 H 0.97039 0.33357 0.36289
 H3426 H 0.98234 0.32265 0.33519
 H3427 H 0.94772 0.25173 0.38577
 H3428 H 0.95892 0.24091 0.35773
 H3429 H 0.94225 0.27588 0.40629
 H3430 H 0.95550 0.32842 0.39105
 H3431 H 0.98831 0.29837 0.31484
 H3432 H 0.97273 0.24622 0.32894
 C3433 C 0.45137 0.35956 0.79857
 C3434 C 0.44298 0.37225 0.78827
 C3435 C 0.43431 0.38606 0.79659
 C3436 C 0.43387 0.38720 0.81508
 C3437 C 0.44196 0.37405 0.82519
 C3438 C 0.45083 0.36027 0.81700
 C3439 C 0.46109 0.34539 0.78988
 C3440 C 0.46974 0.33289 0.80018
 C3441 C 0.47904 0.31951 0.79186
 C3442 C 0.47939 0.31834 0.77338
 C3443 C 0.47055 0.33092 0.76324
 C3444 C 0.46152 0.34459 0.77143
 C3445 C 0.45938 0.34731 0.82686
 C3446 C 0.46871 0.33387 0.81859
 C3447 C 0.44367 0.37101 0.76986
 C3448 C 0.45271 0.35737 0.76159
 H3449 H 0.45898 0.34765 0.84109
 H3450 H 0.47519 0.32418 0.82667
 H3451 H 0.43719 0.38070 0.76178
 H3452 H 0.45287 0.35687 0.74736
 H3453 H 0.42836 0.39619 0.78864
 H3454 H 0.44147 0.37462 0.83941
 H3455 H 0.48541 0.30961 0.79978
 H3456 H 0.47057 0.32994 0.74903
 C3457 C 0.96342 0.37010 0.28505
 C3458 C 0.94575 0.37461 0.28310
 C3459 C 0.93984 0.39061 0.28966
 C3460 C 0.95148 0.40225 0.29797
 C3461 C 0.96928 0.39761 0.29949
 C3462 C 0.97527 0.38147 0.29322
 C3463 C 0.96956 0.35299 0.27872
 C3464 C 0.98712 0.34820 0.28119
 C3465 C 0.99275 0.33170 0.27564
 C3466 C 0.98099 0.32013 0.26746
 C3467 C 0.96350 0.32529 0.26482
 C3468 C 0.95768 0.34163 0.27059
 C3469 C 0.99282 0.37634 0.29517
 C3470 C 0.99862 0.35996 0.28934
 C3471 C 0.93425 0.36291 0.27488
 C3472 C 0.94013 0.34672 0.26866
 H3473 H 1.00210 0.38497 0.30146
 H3474 H 1.01221 0.35644 0.29128
 H3475 H 0.92058 0.36626 0.27329
 H3476 H 0.93082 0.33806 0.26246
 H3477 H 0.92606 0.39376 0.28873
 H3478 H 0.97844 0.40647 0.30562
 H3479 H 1.00624 0.32784 0.27770
 H3480 H 0.95430 0.31639 0.25876
 C3481 C 0.28792 0.87242 0.46663
 C3482 C 0.30555 0.87684 0.46888
 C3483 C 0.31179 0.89238 0.46165
 C3484 C 0.30049 0.90384 0.45255
 C3485 C 0.28266 0.89937 0.45088
 C3486 C 0.27638 0.88355 0.45764
 C3487 C 0.28153 0.85560 0.47341
 C3488 C 0.26411 0.85073 0.47039
 C3489 C 0.25838 0.83430 0.47605
 C3490 C 0.26992 0.82289 0.48486
 C3491 C 0.28718 0.82829 0.48829
 C3492 C 0.29312 0.84451 0.48239
 C3493 C 0.25889 0.87844 0.45531
 C3494 C 0.25289 0.86227 0.46147
 C3495 C 0.31671 0.86547 0.47807
 C3496 C 0.31055 0.84965 0.48485
 H3497 H 0.24984 0.88689 0.44840
 H3498 H 0.23939 0.85871 0.45911
 H3499 H 0.33034 0.86880 0.47999
 H3500 H 0.31956 0.84128 0.49187
 H3501 H 0.32562 0.89523 0.46270
 H3502 H 0.27367 0.90808 0.44422
 H3503 H 0.24506 0.83030 0.47340
 H3504 H 0.29622 0.81958 0.49490
 C3505 C 0.29176 0.36742 0.96136
 C3506 C 0.28054 0.37884 0.95233
 C3507 C 0.28741 0.39408 0.94485
 C3508 C 0.30543 0.39777 0.94611
 C3509 C 0.31645 0.38602 0.95515
 C3510 C 0.30968 0.37094 0.96289
 C3511 C 0.28467 0.35131 0.96912
 C3512 C 0.29594 0.33989 0.97808
 C3513 C 0.28926 0.32438 0.98501
 C3514 C 0.27152 0.32004 0.98268
 C3515 C 0.26035 0.33175 0.97382
 C3516 C 0.26686 0.34746 0.96707
 C3517 C 0.32054 0.35921 0.97199
 C3518 C 0.31378 0.34397 0.97951
 C3519 C 0.26272 0.37468 0.95082
 C3520 C 0.25601 0.35922 0.95799
 H3521 H 0.33441 0.36180 0.97325
 H3522 H 0.32261 0.33522 0.98632
 H3523 H 0.25391 0.38336 0.94387
 H3524 H 0.24223 0.35640 0.95633
 H3525 H 0.27873 0.40306 0.93814
 H3526 H 0.33038 0.38844 0.95589
 H3527 H 0.29805 0.31534 0.99152
 H3528 H 0.24669 0.32849 0.97190
 C3529 C 0.79207 0.37950 0.28238
 C3530 C 0.77996 0.36750 0.28905
 C3531 C 0.78601 0.35165 0.29600
 C3532 C 0.80409 0.34795 0.29675
 C3533 C 0.81600 0.36027 0.29001
 C3534 C 0.81007 0.37593 0.28266
 C3535 C 0.78583 0.39630 0.27532
 C3536 C 0.79798 0.40827 0.26865
 C3537 C 0.79206 0.42441 0.26238
 C3538 C 0.77420 0.42881 0.26328
 C3539 C 0.76216 0.41661 0.26989
 C3540 C 0.76790 0.40024 0.27579
 C3541 C 0.82181 0.38823 0.27582
 C3542 C 0.81585 0.40407 0.26883
 C3543 C 0.76207 0.37171 0.28888
 C3544 C 0.75615 0.38785 0.28247
 H3545 H 0.83573 0.38561 0.27593
 H3546 H 0.82533 0.41321 0.26377
 H3547 H 0.75258 0.36257 0.29399
 H3548 H 0.74228 0.39069 0.28285
 H3549 H 0.77664 0.34225 0.30085
 H3550 H 0.82994 0.35791 0.29084
 H3551 H 0.80142 0.43384 0.25756
 H3552 H 0.74840 0.41994 0.27061
   
