data_POSCAR
  _audit_creation_date              2014-09-24
  _audit_creation_method            'ToBaCCo'
  _symmetry_space_group_name_H-M    'P1'
  _symmetry_Int_Tables_number       1
  _symmetry_cell_setting            triclinic
  loop_
  _symmetry_equiv_pos_as_xyz
 x,y,z
_cell_length_a 53.2777
_cell_length_b 53.4499
_cell_length_c 53.5569
_cell_angle_alpha 90.020600
_cell_angle_beta 89.926400
_cell_angle_gamma 90.033500
loop_
  _atom_site_label
  _atom_site_type_symbol
  _atom_site_fract_x
  _atom_site_fract_y
  _atom_site_fract_z
C1 C 0.31207 0.31267 -0.01026
 C2 C 0.31222 0.31344 0.01520
 C3 C 0.29684 0.33184 0.02927
 C4 C 0.32871 0.29676 0.03017
 C5 C 0.33001 0.29683 -0.02443
 C6 C 0.29479 0.32849 -0.02527
 C7 C 0.29918 0.35759 0.02467
 C8 C 0.28436 0.37473 0.03772
 C9 C 0.26711 0.36646 0.05582
 C10 C 0.26517 0.34068 0.06071
 C11 C 0.28000 0.32355 0.04763
 C12 C 0.34557 0.30721 0.04735
 C13 C 0.36222 0.29197 0.06051
 C14 C 0.36224 0.26591 0.05687
 C15 C 0.34476 0.25539 0.04024
 C16 C 0.32808 0.27067 0.02707
 C17 C 0.32110 0.27964 -0.04196
 C18 C 0.33775 0.26466 -0.05548
 C19 C 0.36413 0.26648 -0.05205
 C20 C 0.37268 0.28437 -0.03436
 C21 C 0.35590 0.29931 -0.02098
 C22 C 0.26875 0.32814 -0.02114
 C23 C 0.25293 0.34387 -0.03482
 C24 C 0.26283 0.35999 -0.05311
 C25 C 0.28883 0.35981 -0.05759
 C26 C 0.30462 0.34418 -0.04386
 H27 H 0.31241 0.36438 0.01087
 H28 H 0.28617 0.39444 0.03341
 H29 H 0.25236 0.33378 0.07483
 H30 H 0.27815 0.30376 0.05161
 H31 H 0.34623 0.32727 0.05016
 H32 H 0.37512 0.30059 0.07354
 H33 H 0.31495 0.26220 0.01417
 H34 H 0.30110 0.27744 -0.04484
 H35 H 0.32934 0.25087 -0.06759
 H36 H 0.39235 0.28821 -0.03146
 H37 H 0.36319 0.31312 -0.00807
 H38 H 0.26072 0.31580 -0.00722
 H39 H 0.23293 0.34331 -0.03122
 H40 H 0.29707 0.37221 -0.07133
 H41 H 0.32464 0.34473 -0.04737
 H42 H 0.34438 0.23540 0.03695
 C43 C 0.68764 0.68741 -0.01449
 C44 C 0.68806 0.68753 0.01096
 C45 C 0.70354 0.66950 0.02531
 C46 C 0.67184 0.70461 0.02580
 C47 C 0.66949 0.70289 -0.02870
 C48 C 0.70428 0.67074 -0.02934
 C49 C 0.70066 0.64362 0.02189
 C50 C 0.71505 0.62681 0.03574
 C51 C 0.73241 0.63555 0.05348
 C52 C 0.73504 0.66149 0.05705
 C53 C 0.72064 0.67829 0.04316
 C54 C 0.65542 0.69458 0.04367
 C55 C 0.63913 0.71012 0.05692
 C56 C 0.63900 0.73607 0.05269
 C57 C 0.65603 0.74621 0.03532
 C58 C 0.67236 0.73061 0.02204
 C59 C 0.67818 0.71983 -0.04673
 C60 C 0.66126 0.73467 -0.06002
 C61 C 0.63530 0.73265 -0.05567
 C62 C 0.62664 0.71532 -0.03789
 C63 C 0.64357 0.70049 -0.02463
 C64 C 0.73042 0.67086 -0.02596
 C65 C 0.74560 0.65404 -0.03912
 C66 C 0.73491 0.63693 -0.05601
 C67 C 0.70883 0.63745 -0.05990
 C68 C 0.69370 0.65423 -0.04676
 H69 H 0.68720 0.63647 0.00852
 H70 H 0.71274 0.60695 0.03245
 H71 H 0.74796 0.66877 0.07085
 H72 H 0.72287 0.69820 0.04626
 H73 H 0.65484 0.67459 0.04698
 H74 H 0.62658 0.70181 0.07052
 H75 H 0.68518 0.73876 0.00860
 H76 H 0.69811 0.72171 -0.05031
 H77 H 0.66846 0.74755 -0.07389
 H78 H 0.60678 0.71345 -0.03400
 H79 H 0.63648 0.68718 -0.01110
 H80 H 0.73900 0.68372 -0.01288
 H81 H 0.76562 0.65403 -0.03565
 H82 H 0.70009 0.62485 -0.07313
 H83 H 0.67360 0.65394 -0.04977
 H84 H 0.65631 0.76611 0.03159
 C85 C 0.68801 0.31146 1.01365
 C86 C 0.68741 0.31117 0.98821
 C87 C 0.70403 0.32757 0.97307
 C88 C 0.66916 0.29553 0.97423
 C89 C 0.67217 0.29434 1.02883
 C90 C 0.70352 0.32982 1.02763
 C91 C 0.69343 0.34387 0.95550
 C92 C 0.70859 0.36031 0.94199
 C93 C 0.73471 0.36067 0.94567
 C94 C 0.74540 0.34377 0.96273
 C95 C 0.73019 0.32730 0.97626
 C96 C 0.64327 0.29778 0.97856
 C97 C 0.62623 0.28326 0.96504
 C98 C 0.63475 0.26639 0.94675
 C99 C 0.66069 0.26438 0.94228
 C100 C 0.67771 0.27891 0.95582
 C101 C 0.67274 0.26834 1.02507
 C102 C 0.65688 0.25266 1.03880
 C103 C 0.64043 0.26268 1.05676
 C104 C 0.64042 0.28865 1.06091
 C105 C 0.65618 0.30429 1.04713
 C106 C 0.72072 0.32149 1.04549
 C107 C 0.73517 0.33858 1.05901
 C108 C 0.73263 0.36466 1.05524
 C109 C 0.71493 0.37274 1.03728
 C110 C 0.70054 0.35557 1.02381
 H111 H 0.67331 0.34424 0.95263
 H112 H 0.69987 0.37277 0.92864
 H113 H 0.76544 0.34369 0.96603
 H114 H 0.73876 0.31458 0.98947
 H115 H 0.63627 0.31086 0.99236
 H116 H 0.60640 0.28510 0.96904
 H117 H 0.69761 0.27714 0.95202
 H118 H 0.68531 0.26024 1.01138
 H119 H 0.65757 0.23269 1.03548
 H120 H 0.62775 0.29696 1.07438
 H121 H 0.65545 0.32429 1.05032
 H122 H 0.72295 0.30166 1.04900
 H123 H 0.74751 0.33106 1.07314
 H124 H 0.71258 0.39230 1.03273
 H125 H 0.68708 0.36241 1.01031
 H126 H 0.66779 0.25186 0.92804
 C127 C 0.31407 0.68787 1.01118
 C128 C 0.31345 0.68715 0.98573
 C129 C 0.29767 0.66874 0.97211
 C130 C 0.32947 0.70387 0.97024
 C131 C 0.33238 0.70376 1.02483
 C132 C 0.29734 0.67184 1.02666
 C133 C 0.30025 0.64298 0.97646
 C134 C 0.28518 0.62582 0.96371
 C135 C 0.26741 0.63410 0.94616
 C136 C 0.26519 0.65990 0.94155
 C137 C 0.28027 0.67704 0.95433
 C138 C 0.34567 0.69345 0.95240
 C139 C 0.36188 0.70869 0.93866
 C140 C 0.36214 0.73473 0.94239
 C141 C 0.34529 0.74524 0.95970
 C142 C 0.32903 0.72995 0.97343
 C143 C 0.32390 0.72095 1.04264
 C144 C 0.34091 0.73601 1.05561
 C145 C 0.36706 0.73413 1.05132
 C146 C 0.37530 0.71636 1.03350
 C147 C 0.35821 0.70136 1.02059
 C148 C 0.27124 0.67213 1.02350
 C149 C 0.25590 0.65597 1.03728
 C150 C 0.26627 0.63906 1.05480
 C151 C 0.29258 0.63971 1.05836
 C152 C 0.30779 0.65587 1.04454
 H153 H 0.31390 0.63617 0.98980
 H154 H 0.28723 0.60610 0.96781
 H155 H 0.25199 0.66682 0.92785
 H156 H 0.27822 0.69684 0.95053
 H157 H 0.34617 0.67339 0.94950
 H158 H 0.37428 0.70008 0.92513
 H159 H 0.31638 0.73841 0.98684
 H160 H 0.30402 0.72276 1.04648
 H161 H 0.33330 0.74836 1.06970
 H162 H 0.39488 0.71445 1.02859
 H163 H 0.36516 0.68792 1.00712
 H164 H 0.26274 0.68458 1.00997
 H165 H 0.23607 0.65613 1.03308
 H166 H 0.30170 0.62831 1.07231
 H167 H 0.32789 0.65562 1.04757
 H168 H 0.34510 0.76521 0.96307
 C169 C -0.01267 0.31460 0.31272
 C170 C 0.01293 0.31497 0.31269
 C171 C 0.02768 0.29955 0.33041
 C172 C 0.02743 0.33179 0.29588
 C173 C -0.02745 0.33253 0.29753
 C174 C -0.02721 0.29722 0.32893
 C175 C 0.02398 0.30173 0.35627
 C176 C 0.03780 0.28699 0.37279
 C177 C 0.05578 0.26998 0.36376
 C178 C 0.05974 0.26818 0.33786
 C179 C 0.04590 0.28294 0.32135
 C180 C 0.04503 0.34840 0.30610
 C181 C 0.05805 0.36512 0.29080
 C182 C 0.05386 0.36549 0.26489
 C183 C 0.03672 0.34833 0.25457
 C184 C 0.02369 0.33158 0.26992
 C185 C -0.04534 0.32365 0.28061
 C186 C -0.05939 0.34032 0.26622
 C187 C -0.05612 0.36650 0.26856
 C188 C -0.03822 0.37512 0.28607
 C189 C -0.02422 0.35837 0.30039
 C190 C -0.02296 0.27135 0.32848
 C191 C -0.03616 0.25543 0.34455
 C192 C -0.05434 0.26492 0.36137
 C193 C -0.05880 0.29101 0.36109
 C194 C -0.04548 0.30682 0.34511
 H195 H 0.01030 0.31479 0.36363
 H196 H 0.03420 0.28867 0.39262
 H197 H 0.07375 0.25554 0.33039
 H198 H 0.04919 0.28123 0.30146
 H199 H 0.04835 0.34876 0.32605
 H200 H 0.07146 0.37776 0.29926
 H201 H 0.01047 0.31864 0.26161
 H202 H -0.04839 0.30372 0.27849
 H203 H -0.07347 0.33240 0.25404
 H204 H -0.03406 0.39479 0.28827
 H205 H -0.01069 0.36559 0.31364
 H206 H -0.00938 0.26345 0.31565
 H207 H -0.03255 0.23560 0.34295
 H208 H -0.07168 0.29976 0.37402
 H209 H -0.04899 0.32677 0.34587
 H210 H 0.03301 0.34821 0.23470
 C211 C -0.01292 0.68552 0.68806
 C212 C 0.01268 0.68573 0.68803
 C213 C 0.02709 0.70121 0.67004
 C214 C 0.02754 0.66936 0.70491
 C215 C -0.02731 0.66739 0.70341
 C216 C -0.02779 0.70234 0.67162
 C217 C 0.02346 0.69851 0.64423
 C218 C 0.03705 0.71321 0.62744
 C219 C 0.05471 0.73070 0.63614
 C220 C 0.05858 0.73306 0.66200
 C221 C 0.04496 0.71834 0.67879
 C222 C 0.04547 0.65306 0.69474
 C223 C 0.05875 0.63665 0.71010
 C224 C 0.05449 0.63628 0.73601
 C225 C 0.03706 0.65317 0.74628
 C226 C 0.02377 0.66962 0.73087
 C227 C -0.04536 0.67599 0.72035
 C228 C -0.05897 0.65911 0.73496
 C229 C -0.05510 0.63300 0.73284
 C230 C -0.03707 0.62466 0.71529
 C231 C -0.02351 0.64161 0.70075
 C232 C -0.02426 0.72832 0.67191
 C233 C -0.03758 0.74371 0.65548
 C234 C -0.05498 0.73353 0.63828
 C235 C -0.05886 0.70734 0.63887
 C236 C -0.04552 0.69208 0.65530
 H237 H 0.01005 0.68504 0.63712
 H238 H 0.03352 0.71109 0.60764
 H239 H 0.07235 0.74608 0.66923
 H240 H 0.04820 0.72045 0.69864
 H241 H 0.04882 0.65267 0.67479
 H242 H 0.07240 0.62422 0.70168
 H243 H 0.01029 0.68233 0.73915
 H244 H -0.04885 0.69586 0.72232
 H245 H -0.07319 0.66679 0.74716
 H246 H -0.03246 0.60508 0.71324
 H247 H -0.00986 0.63460 0.68748
 H248 H -0.01084 0.73668 0.68460
 H249 H -0.03314 0.76344 0.65569
 H250 H -0.07276 0.69836 0.62723
 H251 H -0.04883 0.67208 0.65502
 H252 H 0.03329 0.65327 0.76615
 C253 C 1.01190 0.68805 0.31376
 C254 C 0.98631 0.68755 0.31378
 C255 C 0.97135 0.70410 0.33040
 C256 C 0.97201 0.66952 0.29822
 C257 C 1.02692 0.67220 0.29651
 C258 C 1.02621 0.70348 0.33191
 C259 C 0.95382 0.69351 0.34685
 C260 C 0.94048 0.70860 0.36349
 C261 C 0.94430 0.73462 0.36392
 C262 C 0.96132 0.74529 0.34687
 C263 C 0.97466 0.73016 0.33020
 C264 C 0.97618 0.64368 0.30030
 C265 C 0.96247 0.62686 0.28573
 C266 C 0.94413 0.63555 0.26899
 C267 C 0.93978 0.66144 0.26720
 C268 C 0.95352 0.67824 0.28177
 C269 C 1.02293 0.67269 0.27066
 C270 C 1.03654 0.65689 0.25485
 C271 C 1.05486 0.64032 0.26444
 C272 C 1.05910 0.64061 0.29051
 C273 C 1.04536 0.65632 0.30621
 C274 C 1.04408 0.72065 0.32335
 C275 C 1.05786 0.73510 0.34022
 C276 C 1.05434 0.73258 0.36630
 C277 C 1.03640 0.71489 0.37461
 C278 C 1.02268 0.70051 0.35765
 H279 H 0.95084 0.67347 0.34718
 H280 H 0.92716 0.69988 0.37606
 H281 H 0.96473 0.76526 0.34683
 H282 H 0.98783 0.73873 0.31737
 H283 H 0.99005 0.63655 0.31323
 H284 H 0.96637 0.60705 0.28740
 H285 H 0.94984 0.69810 0.28014
 H286 H 1.00921 0.68532 0.26271
 H287 H 1.03310 0.65846 0.23503
 H288 H 1.07209 0.62785 0.29931
 H289 H 1.04867 0.65556 0.32615
 H290 H 1.04738 0.72288 0.30351
 H291 H 1.07197 0.74743 0.33253
 H292 H 1.03204 0.71255 0.39418
 H293 H 1.00917 0.68707 0.36465
 H294 H 0.92550 0.66867 0.25478
 C295 C 1.01392 0.31239 0.68556
 C296 C 0.98832 0.31234 0.68567
 C297 C 0.97364 0.29539 0.66922
 C298 C 0.97373 0.33014 0.70127
 C299 C 1.02857 0.32862 0.70276
 C300 C 1.02852 0.29727 0.66736
 C301 C 0.95580 0.30549 0.65284
 C302 C 0.94278 0.29005 0.63630
 C303 C 0.94721 0.26413 0.63590
 C304 C 0.96453 0.25392 0.65287
 C305 C 0.97757 0.26941 0.66944
 C306 C 0.97739 0.35606 0.69903
 C307 C 0.96368 0.37266 0.71386
 C308 C 0.94585 0.36368 0.73105
 C309 C 0.94195 0.33772 0.73294
 C310 C 0.95568 0.32113 0.71809
 C311 C 1.02476 0.32774 0.72870
 C312 C 1.03762 0.34421 0.74445
 C313 C 1.05463 0.36173 0.73454
 C314 C 1.05898 0.36195 0.70864
 C315 C 1.04614 0.34551 0.69294
 C316 C 1.04673 0.28045 0.67583
 C317 C 1.06049 0.26601 0.65891
 C318 C 1.05661 0.26818 0.63286
 C319 C 1.03843 0.28562 0.62463
 C320 C 1.02473 0.29999 0.64163
 H321 H 0.95236 0.32546 0.65249
 H322 H 0.92921 0.29841 0.62380
 H323 H 0.96842 0.23404 0.65294
 H324 H 0.99098 0.26119 0.68221
 H325 H 0.99092 0.36341 0.68582
 H326 H 0.96726 0.39252 0.71209
 H327 H 0.95241 0.30120 0.71986
 H328 H 1.01154 0.31458 0.73668
 H329 H 1.03379 0.34366 0.76430
 H330 H 1.07232 0.37489 0.70050
 H331 H 1.04948 0.34636 0.67300
 H332 H 1.05023 0.27842 0.69565
 H333 H 1.07480 0.25391 0.66653
 H334 H 1.03382 0.28772 0.60510
 H335 H 1.01096 0.31316 0.63469
 H336 H 0.92806 0.33026 0.74570
 C337 C 0.31237 -0.01544 0.31187
 C338 C 0.31270 0.01006 0.31155
 C339 C 0.33067 0.02421 0.29575
 C340 C 0.29613 0.02515 0.32807
 C341 C 0.29699 -0.02950 0.33025
 C342 C 0.32840 -0.03055 0.29483
 C343 C 0.35662 0.02032 0.29795
 C344 C 0.37340 0.03395 0.28322
 C345 C 0.36453 0.05192 0.26621
 C346 C 0.33853 0.05595 0.26428
 C347 C 0.32177 0.04230 0.27902
 C348 C 0.30678 0.04294 0.34414
 C349 C 0.29170 0.05659 0.36053
 C350 C 0.26558 0.05284 0.36110
 C351 C 0.25483 0.03550 0.34449
 C352 C 0.26997 0.02182 0.32806
 C353 C 0.27962 -0.04737 0.32195
 C354 C 0.26503 -0.06068 0.33910
 C355 C 0.26773 -0.05652 0.36488
 C356 C 0.28545 -0.03885 0.37314
 C357 C 0.30003 -0.02557 0.35598
 C358 C 0.32796 -0.02688 0.26893
 C359 C 0.34408 -0.04039 0.25333
 C360 C 0.36096 -0.05828 0.26318
 C361 C 0.36056 -0.06227 0.28929
 C362 C 0.34452 -0.04864 0.30478
 H363 H 0.36387 0.00676 0.31112
 H364 H 0.39330 0.03029 0.28500
 H365 H 0.33118 0.06994 0.25164
 H366 H 0.30182 0.04575 0.27730
 H367 H 0.32689 0.04593 0.34432
 H368 H 0.30048 0.07014 0.37275
 H369 H 0.26134 0.00845 0.31553
 H370 H 0.27725 -0.05085 0.30217
 H371 H 0.25185 -0.07447 0.33220
 H372 H 0.28784 -0.03510 0.39286
 H373 H 0.31367 -0.01217 0.36276
 H374 H 0.31515 -0.01346 0.26077
 H375 H 0.34254 -0.03718 0.23346
 H376 H 0.37350 -0.07494 0.29829
 H377 H 0.34524 -0.05171 0.32477
 H378 H 0.23479 0.03212 0.34457
 C379 C 0.68716 -0.00994 0.68712
 C380 C 0.68675 0.01558 0.68696
 C381 C 0.66838 0.02995 0.70210
 C382 C 0.70383 0.03034 0.67063
 C383 C 0.70323 -0.02429 0.66955
 C384 C 0.67080 -0.02487 0.70401
 C385 C 0.64249 0.02572 0.69963
 C386 C 0.62538 0.03917 0.71415
 C387 C 0.63383 0.05728 0.73125
 C388 C 0.65975 0.06177 0.73333
 C389 C 0.67685 0.04830 0.71880
 C390 C 0.69370 0.04748 0.65358
 C391 C 0.70928 0.06031 0.63695
 C392 C 0.73538 0.05637 0.63713
 C393 C 0.74559 0.03983 0.65482
 C394 C 0.72997 0.02700 0.67148
 C395 C 0.72036 -0.04188 0.67881
 C396 C 0.73557 -0.05550 0.66247
 C397 C 0.73378 -0.05189 0.63653
 C398 C 0.71630 -0.03450 0.62730
 C399 C 0.70106 -0.02094 0.64365
 C400 C 0.67065 -0.02086 0.72987
 C401 C 0.65467 -0.03471 0.74535
 C402 C 0.63857 -0.05329 0.73542
 C403 C 0.63941 -0.05742 0.70934
 C404 C 0.65529 -0.04346 0.69397
 H405 H 0.63556 0.01194 0.68650
 H406 H 0.60556 0.03516 0.71224
 H407 H 0.66680 0.07589 0.74602
 H408 H 0.69674 0.05201 0.72075
 H409 H 0.67361 0.05047 0.65273
 H410 H 0.70089 0.07329 0.62389
 H411 H 0.73820 0.01412 0.68475
 H412 H 0.72216 -0.04482 0.69874
 H413 H 0.74899 -0.06861 0.67014
 H414 H 0.71414 -0.03167 0.60740
 H415 H 0.68751 -0.00788 0.63612
 H416 H 0.68298 -0.00703 0.73811
 H417 H 0.65582 -0.03128 0.76521
 H418 H 0.62700 -0.07057 0.70026
 H419 H 0.65502 -0.04679 0.67402
 H420 H 0.76560 0.03632 0.65537
 C421 C 0.31106 1.01385 0.68705
 C422 C 0.31203 0.98836 0.68756
 C423 C 0.33049 0.97483 0.70328
 C424 C 0.29569 0.97276 0.67135
 C425 C 0.29515 1.02746 0.66883
 C426 C 0.32702 1.02942 0.70366
 C427 C 0.35632 0.97931 0.70073
 C428 C 0.37354 0.96641 0.71556
 C429 C 0.36524 0.94859 0.73303
 C430 C 0.33936 0.94391 0.73528
 C431 C 0.32216 0.95683 0.72044
 C432 C 0.30662 0.95516 0.65524
 C433 C 0.29174 0.94123 0.63893
 C434 C 0.26557 0.94450 0.63849
 C435 C 0.25454 0.96158 0.65521
 C436 C 0.26947 0.97552 0.67157
 C437 C 0.27771 1.04517 0.67731
 C438 C 0.26279 1.05827 0.66034
 C439 C 0.26519 1.05401 0.63453
 C440 C 0.28291 1.03644 0.62609
 C441 C 0.29786 1.02340 0.64307
 C442 C 0.32671 1.02619 0.72968
 C443 C 0.34298 1.04000 0.74485
 C444 C 0.35969 1.05741 0.73425
 C445 C 0.35928 1.06119 0.70828
 C446 C 0.34307 1.04738 0.69317
 H447 H 0.36314 0.99281 0.68725
 H448 H 0.39333 0.97055 0.71352
 H449 H 0.33244 0.92999 0.74826
 H450 H 0.30231 0.95293 0.72244
 H451 H 0.32679 0.95261 0.65492
 H452 H 0.30074 0.92788 0.62662
 H453 H 0.26064 0.98874 0.68414
 H454 H 0.27549 1.04866 0.69712
 H455 H 0.24917 1.07153 0.66741
 H456 H 0.28554 1.03311 0.60631
 H457 H 0.31166 1.01024 0.63614
 H458 H 0.31418 1.01268 0.73818
 H459 H 0.34293 1.03661 0.76478
 H460 H 0.37158 1.07480 0.69963
 H461 H 0.34346 1.05030 0.67316
 H462 H 0.23445 0.96457 0.65523
 C463 C 0.68726 1.01177 0.31383
 C464 C 0.68744 0.98625 0.31433
 C465 C 0.67125 0.97124 0.29742
 C466 C 0.70294 0.97214 0.33257
 C467 C 0.70440 1.02688 0.32972
 C468 C 0.66912 1.02587 0.29816
 C469 C 0.65449 0.95371 0.30755
 C470 C 0.63804 0.94056 0.29208
 C471 C 0.63812 0.94455 0.26613
 C472 C 0.65553 0.96151 0.25593
 C473 C 0.67201 0.97466 0.27143
 C474 C 0.70057 0.97650 0.35832
 C475 C 0.71535 0.96326 0.37531
 C476 C 0.73261 0.94521 0.36690
 C477 C 0.73462 0.94061 0.34112
 C478 C 0.71982 0.95387 0.32414
 C479 C 0.73041 1.02301 0.32934
 C480 C 0.74614 1.03661 0.34522
 C481 C 0.73632 1.05480 0.36177
 C482 C 0.71010 1.05896 0.36134
 C483 C 0.69447 1.04523 0.34554
 C484 C 0.67786 1.04369 0.28102
 C485 C 0.66097 1.05700 0.26614
 C486 C 0.63498 1.05289 0.26831
 C487 C 0.62628 1.03527 0.28580
 C488 C 0.64318 1.02199 0.30067
 H489 H 0.65373 0.95065 0.32753
 H490 H 0.62519 0.92727 0.30044
 H491 H 0.65599 0.96507 0.23603
 H492 H 0.68508 0.98784 0.26322
 H493 H 0.68732 0.99021 0.36524
 H494 H 0.71349 0.96736 0.39502
 H495 H 0.72170 0.95006 0.30436
 H496 H 0.73854 1.00937 0.31675
 H497 H 0.76609 1.03325 0.34371
 H498 H 0.70112 1.07187 0.37404
 H499 H 0.67441 1.04847 0.34619
 H500 H 0.69780 1.04713 0.27903
 H501 H 0.66823 1.07073 0.25315
 H502 H 0.60640 1.03155 0.28780
 H503 H 0.63603 1.00863 0.31413
 H504 H 0.74742 0.92654 0.33409
 O505 O 0.87546 0.84075 0.47777
 O506 O 0.84109 0.87523 0.52657
 O507 O 0.87587 0.84079 0.52645
 O508 O 0.84058 0.87501 0.47806
 O509 O 0.81139 0.84556 0.47848
 O510 O 0.84659 0.81145 0.52677
 O511 O 0.81188 0.84582 0.52692
 O512 O 0.84622 0.81137 0.47817
 Cu513 Cu 0.86123 0.86089 0.50218
 Cu514 Cu 0.82611 0.82556 0.50263
 C515 C 0.86665 0.82021 0.46975
 C516 C 0.82059 0.86643 0.53484
 C517 C 0.86718 0.82029 0.53472
 C518 C 0.81995 0.86611 0.47022
 O519 O 0.12666 0.16184 0.47340
 O520 O 0.16035 0.12627 0.52179
 O521 O 0.12680 0.16184 0.52191
 O522 O 0.16006 0.12613 0.47318
 O523 O 0.19033 0.15446 0.47302
 O524 O 0.15709 0.19014 0.52171
 O525 O 0.19060 0.15462 0.52157
 O526 O 0.15698 0.19013 0.47325
 Cu527 Cu 0.14042 0.14114 0.49758
 Cu528 Cu 0.17683 0.17517 0.49736
 C529 C 0.13608 0.18208 0.46529
 C530 C 0.18121 0.13443 0.52979
 C531 C 0.13625 0.18210 0.52992
 C532 C 0.18087 0.13424 0.46494
 O533 O 0.16129 0.87239 0.47701
 O534 O 0.12648 0.83760 0.52531
 O535 O 0.16065 0.87255 0.52561
 O536 O 0.12681 0.83765 0.47680
 O537 O 0.15641 0.80866 0.47708
 O538 O 0.19025 0.84356 0.52585
 O539 O 0.15613 0.80865 0.52552
 O540 O 0.19085 0.84335 0.47731
 Cu541 Cu 0.14083 0.85800 0.50114
 Cu542 Cu 0.17641 0.82315 0.50145
 C543 C 0.18201 0.86377 0.46909
 C544 C 0.13540 0.81718 0.53346
 C545 C 0.18119 0.86397 0.53392
 C546 C 0.13581 0.81718 0.46883
 O547 O 0.84391 0.12232 0.47407
 O548 O 0.87885 0.15663 0.52265
 O549 O 0.84393 0.12231 0.52278
 O550 O 0.87870 0.15672 0.47396
 O551 O 0.84946 0.18606 0.47418
 O552 O 0.81480 0.15177 0.52285
 O553 O 0.84962 0.18599 0.52274
 O554 O 0.81476 0.15176 0.47427
 Cu555 Cu 0.86430 0.13652 0.49836
 Cu556 Cu 0.82923 0.17185 0.49853
 C557 C 0.82342 0.13127 0.46599
 C558 C 0.87014 0.17715 0.53083
 C559 C 0.82346 0.13124 0.53100
 C560 C 0.86992 0.17723 0.46586
 O561 O 0.47674 0.87691 0.83978
 O562 O 0.52441 0.84109 0.87446
 O563 O 0.52560 0.87631 0.84073
 O564 O 0.47558 0.84196 0.87384
 O565 O 0.47567 0.81318 0.84416
 O566 O 0.52562 0.84749 0.81109
 O567 O 0.52442 0.81234 0.84475
 O568 O 0.47685 0.84806 0.81017
 Cu569 Cu 0.50057 0.86198 0.86020
 Cu570 Cu 0.50064 0.82737 0.82455
 C571 C 0.46884 0.86854 0.81905
 C572 C 0.53238 0.82061 0.86548
 C573 C 0.53399 0.86772 0.82027
 C574 C 0.46728 0.82170 0.86465
 O575 O 0.52499 0.15796 0.12557
 O576 O 0.47550 0.12438 0.16001
 O577 O 0.47600 0.15867 0.12529
 O578 O 0.52422 0.12395 0.16047
 O579 O 0.52427 0.15355 0.18934
 O580 O 0.47616 0.18817 0.15425
 O581 O 0.47563 0.15395 0.18892
 O582 O 0.52507 0.18749 0.15450
 Cu583 Cu 0.50015 0.13829 0.13987
 Cu584 Cu 0.50027 0.17381 0.17462
 C585 C 0.53341 0.17838 0.13426
 C586 C 0.46738 0.13339 0.18039
 C587 C 0.46796 0.17930 0.13386
 C588 C 0.53225 0.13284 0.18093
 O589 O 0.52223 0.12733 0.83876
 O590 O 0.47407 0.16128 0.87475
 O591 O 0.47338 0.12716 0.83993
 O592 O 0.52283 0.16132 0.87382
 O593 O 0.52219 0.19097 0.84503
 O594 O 0.47279 0.15683 0.81117
 O595 O 0.47349 0.19092 0.84594
 O596 O 0.52158 0.15702 0.81002
 Cu597 Cu 0.49820 0.14126 0.85971
 Cu598 Cu 0.49746 0.17691 0.82512
 C599 C 0.52994 0.13641 0.81826
 C600 C 0.46575 0.18190 0.86646
 C601 C 0.46479 0.13621 0.81979
 C602 C 0.53071 0.18200 0.86524
 O603 O 0.47722 0.84201 0.12229
 O604 O 0.52502 0.87713 0.15770
 O605 O 0.52602 0.84318 0.12266
 O606 O 0.47604 0.87622 0.15709
 O607 O 0.47636 0.84657 0.18586
 O608 O 0.52624 0.81358 0.15150
 O609 O 0.52523 0.84746 0.18646
 O610 O 0.47755 0.81243 0.15115
 Cu611 Cu 0.50105 0.86266 0.13705
 Cu612 Cu 0.50138 0.82706 0.17167
 C613 C 0.46944 0.82121 0.13070
 C614 C 0.53318 0.86819 0.17807
 C615 C 0.53445 0.82271 0.13121
 C616 C 0.46777 0.86696 0.17730
 O617 O 0.87457 0.52230 0.83930
 O618 O 0.84085 0.47360 0.87460
 O619 O 0.87462 0.47371 0.83921
 O620 O 0.84077 0.52238 0.87458
 O621 O 0.81077 0.52229 0.84608
 O622 O 0.84455 0.47371 0.81078
 O623 O 0.81085 0.47359 0.84610
 O624 O 0.84452 0.52223 0.81085
 Cu625 Cu 0.86072 0.49799 0.85983
 Cu626 Cu 0.82461 0.49794 0.82561
 C627 C 0.86530 0.53036 0.81904
 C628 C 0.82012 0.46542 0.86631
 C629 C 0.86537 0.46564 0.81892
 C630 C 0.82003 0.53053 0.86627
 O631 O 0.12339 0.52760 0.15768
 O632 O 0.15872 0.47875 0.12405
 O633 O 0.12340 0.47880 0.15796
 O634 O 0.15852 0.52743 0.12371
 O635 O 0.18737 0.52763 0.15336
 O636 O 0.15231 0.47909 0.18754
 O637 O 0.18755 0.47905 0.15372
 O638 O 0.15233 0.52778 0.18725
 Cu639 Cu 0.13807 0.50309 0.13787
 Cu640 Cu 0.17278 0.50339 0.17346
 C641 C 0.13195 0.53593 0.17816
 C642 C 0.17919 0.47078 0.13316
 C643 C 0.13191 0.47078 0.17857
 C644 C 0.17892 0.53568 0.13273
 O645 O 0.83698 0.52476 0.12824
 O646 O 0.87109 0.47619 0.16315
 O647 O 0.83691 0.47614 0.12829
 O648 O 0.87118 0.52479 0.16310
 O649 O 0.84143 0.52484 0.19195
 O650 O 0.80719 0.47622 0.15716
 O651 O 0.84134 0.47627 0.19200
 O652 O 0.80726 0.52481 0.15711
 Cu653 Cu 0.85704 0.50046 0.14277
 Cu654 Cu 0.82130 0.50054 0.17746
 C655 C 0.81629 0.53287 0.13672
 C656 C 0.86204 0.46815 0.18355
 C657 C 0.81620 0.46807 0.13679
 C658 C 0.86216 0.53290 0.18349
 O659 O 0.15808 0.52264 0.87760
 O660 O 0.12238 0.47463 0.84312
 O661 O 0.15689 0.47392 0.87761
 O662 O 0.12319 0.52338 0.84333
 O663 O 0.15251 0.52284 0.81408
 O664 O 0.18618 0.47344 0.84832
 O665 O 0.15176 0.47419 0.81391
 O666 O 0.18733 0.52207 0.84827
 Cu667 Cu 0.13718 0.49872 0.86337
 Cu668 Cu 0.17239 0.49811 0.82820
 C669 C 0.17881 0.53036 0.86878
 C670 C 0.13108 0.46634 0.82266
 C671 C 0.17725 0.46536 0.86876
 C672 C 0.13210 0.53137 0.82285
 C673 C 0.22112 0.41933 0.09544
 C674 C 0.24638 0.42472 0.09069
 C675 C 0.26135 0.40753 0.07784
 C676 C 0.25123 0.38467 0.06957
 C677 C 0.22581 0.37940 0.07448
 C678 C 0.21086 0.39664 0.08732
 C679 C 0.20584 0.43714 0.10868
 C680 C 0.19342 0.45234 0.11982
 H681 H 0.25453 0.44220 0.09696
 H682 H 0.28092 0.41199 0.07464
 H683 H 0.21740 0.36210 0.06808
 H684 H 0.19131 0.39231 0.09086
 C685 C 0.77611 0.58373 0.09664
 C686 C 0.78723 0.60553 0.08730
 C687 C 0.77304 0.62243 0.07327
 C688 C 0.74753 0.61768 0.06839
 C689 C 0.73653 0.59572 0.07789
 C690 C 0.75075 0.57887 0.09192
 C691 C 0.79067 0.56618 0.11090
 C692 C 0.80256 0.55116 0.12276
 H693 H 0.80688 0.60942 0.09078
 H694 H 0.78209 0.63903 0.06596
 H695 H 0.71686 0.59171 0.07474
 H696 H 0.74195 0.56206 0.09910
 C697 C 0.78012 0.41373 0.90568
 C698 C 0.75699 0.42098 0.91572
 C699 C 0.74232 0.40375 0.92881
 C700 C 0.75057 0.37896 0.93202
 C701 C 0.77396 0.37187 0.92205
 C702 C 0.78862 0.38917 0.90891
 C703 C 0.79483 0.43155 0.89185
 C704 C 0.80664 0.44684 0.88021
 H705 H 0.75027 0.43997 0.91340
 H706 H 0.72460 0.40987 0.93662
 H707 H 0.78070 0.35287 0.92403
 H708 H 0.80648 0.38336 0.90116
 C709 C 0.22100 0.58129 0.90692
 C710 C 0.21075 0.60380 0.91554
 C711 C 0.22582 0.62099 0.92831
 C712 C 0.25136 0.61587 0.93263
 C713 C 0.26146 0.59317 0.92390
 C714 C 0.24637 0.57603 0.91113
 C715 C 0.20563 0.56361 0.89362
 C716 C 0.19313 0.54856 0.88235
 H717 H 0.19112 0.60805 0.91242
 H718 H 0.21742 0.63816 0.93507
 H719 H 0.28111 0.58882 0.92663
 H720 H 0.25452 0.55870 0.90446
 C721 C 0.09757 0.22421 0.41486
 C722 C 0.08862 0.21399 0.39252
 C723 C 0.07510 0.22889 0.37582
 C724 C 0.07035 0.25420 0.38132
 C725 C 0.07949 0.26429 0.40380
 C726 C 0.09301 0.24937 0.42044
 C727 C 0.11124 0.20892 0.43223
 C728 C 0.12263 0.19644 0.44712
 H729 H 0.09198 0.19450 0.38807
 H730 H 0.06803 0.22052 0.35881
 H731 H 0.07642 0.28378 0.40839
 H732 H 0.09991 0.25747 0.43767
 C733 C 0.09627 0.77592 0.58425
 C734 C 0.09202 0.75060 0.57916
 C735 C 0.07854 0.73587 0.59605
 C736 C 0.06914 0.74632 0.61828
 C737 C 0.07356 0.77180 0.62326
 C738 C 0.08703 0.78650 0.60632
 C739 C 0.11005 0.79096 0.56671
 C740 C 0.12162 0.80318 0.55170
 H741 H 0.09916 0.74222 0.56215
 H742 H 0.07574 0.71625 0.59186
 H743 H 0.06629 0.78042 0.64008
 H744 H 0.09017 0.80611 0.61039
 C745 C 0.90500 0.77986 0.41758
 C746 C 0.91496 0.75670 0.42458
 C747 C 0.92780 0.74207 0.40714
 C748 C 0.93086 0.75040 0.38241
 C749 C 0.92094 0.77381 0.37557
 C750 C 0.90806 0.78843 0.39306
 C751 C 0.89150 0.79461 0.43561
 C752 C 0.88016 0.80652 0.45105
 H753 H 0.91278 0.74993 0.44353
 H754 H 0.93557 0.72433 0.41308
 H755 H 0.92279 0.78061 0.35661
 H756 H 0.90037 0.80632 0.38744
 C757 C 0.90870 0.21787 0.58255
 C758 C 0.91812 0.24124 0.57546
 C759 C 0.93073 0.25619 0.59278
 C760 C 0.93409 0.24797 0.61751
 C761 C 0.92475 0.22433 0.62444
 C762 C 0.91209 0.20940 0.60705
 C763 C 0.89525 0.20288 0.56468
 C764 C 0.88385 0.19086 0.54938
 H765 H 0.91566 0.24795 0.55653
 H766 H 0.93805 0.27410 0.58676
 H767 H 0.92684 0.21760 0.64338
 H768 H 0.90480 0.19135 0.61276
 C769 C 0.41627 0.09430 0.22145
 C770 C 0.39397 0.08535 0.21094
 C771 C 0.37709 0.07158 0.22548
 C772 C 0.38236 0.06657 0.25073
 C773 C 0.40482 0.07569 0.26111
 C774 C 0.42164 0.08946 0.24655
 C775 C 0.43383 0.10825 0.20653
 C776 C 0.44892 0.11982 0.19438
 H777 H 0.38969 0.08892 0.19149
 H778 H 0.36010 0.06455 0.21690
 H779 H 0.40923 0.07244 0.28057
 H780 H 0.43884 0.09635 0.25487
 C781 C 0.58111 0.09810 0.77642
 C782 C 0.60366 0.08967 0.78680
 C783 C 0.62084 0.07643 0.77212
 C784 C 0.61566 0.07144 0.74684
 C785 C 0.59294 0.08003 0.73659
 C786 C 0.57580 0.09327 0.75130
 C787 C 0.56334 0.11164 0.79150
 C788 C 0.54823 0.12297 0.80388
 H789 H 0.60792 0.09324 0.80626
 H790 H 0.63801 0.06979 0.78063
 H791 H 0.58856 0.07678 0.71712
 H792 H 0.55843 0.09978 0.74306
 C793 C 0.41810 0.90814 0.77815
 C794 C 0.42332 0.91280 0.75297
 C795 C 0.40618 0.92601 0.73831
 C796 C 0.38354 0.93473 0.74867
 C797 C 0.37847 0.93000 0.77403
 C798 C 0.39566 0.91679 0.78867
 C799 C 0.43573 0.89432 0.79305
 C800 C 0.45072 0.88262 0.80516
 H801 H 0.44060 0.90610 0.74463
 H802 H 0.41046 0.92906 0.71878
 H803 H 0.36135 0.93674 0.78261
 H804 H 0.39147 0.91332 0.80816
 C805 C 0.58476 0.90632 0.21952
 C806 C 0.57737 0.91597 0.24268
 C807 C 0.59471 0.92843 0.25777
 C808 C 0.61975 0.93142 0.24991
 C809 C 0.62698 0.92180 0.22652
 C810 C 0.60958 0.90930 0.21144
 C811 C 0.56686 0.89307 0.20435
 C812 C 0.55160 0.88181 0.19210
 H813 H 0.55819 0.91382 0.24909
 H814 H 0.58846 0.93597 0.27548
 H815 H 0.64617 0.92360 0.22007
 H816 H 0.61552 0.90183 0.19358
 C817 C 0.41492 0.22190 0.90703
 C818 C 0.39040 0.22512 0.89856
 C819 C 0.37345 0.23975 0.91212
 C820 C 0.38060 0.25176 0.93472
 C821 C 0.40567 0.24791 0.94291
 C822 C 0.42247 0.23322 0.92924
 C823 C 0.43253 0.20738 0.89271
 C824 C 0.44754 0.19554 0.88071
 H825 H 0.38444 0.21663 0.88117
 H826 H 0.35526 0.24247 0.90371
 H827 H 0.41250 0.25506 0.96050
 H828 H 0.44141 0.23062 0.93612
 C829 C 0.58305 0.77857 0.90398
 C830 C 0.60558 0.78882 0.91267
 C831 C 0.62262 0.77389 0.92576
 C832 C 0.61730 0.74851 0.93033
 C833 C 0.59460 0.73840 0.92149
 C834 C 0.57761 0.75335 0.90840
 C835 C 0.56546 0.79384 0.89049
 C836 C 0.55049 0.80628 0.87911
 H837 H 0.60994 0.80835 0.90939
 H838 H 0.63979 0.78228 0.93260
 H839 H 0.59013 0.71885 0.92442
 H840 H 0.56026 0.74521 0.90168
 C841 C 0.41895 0.77969 0.09120
 C842 C 0.39424 0.78768 0.08789
 C843 C 0.37716 0.77280 0.07476
 C844 C 0.38445 0.74944 0.06456
 C845 C 0.40965 0.74183 0.06809
 C846 C 0.42660 0.75678 0.08126
 C847 C 0.43647 0.79480 0.10503
 C848 C 0.45137 0.80710 0.11671
 H849 H 0.38815 0.80552 0.09537
 H850 H 0.35854 0.78030 0.07196
 H851 H 0.41633 0.72383 0.06173
 H852 H 0.44568 0.75029 0.08392
 C853 C 0.58756 0.21705 0.09675
 C854 C 0.60079 0.23590 0.10920
 C855 C 0.61834 0.25044 0.09632
 C856 C 0.62287 0.24631 0.07076
 C857 C 0.60980 0.22701 0.05850
 C858 C 0.59223 0.21250 0.07143
 C859 C 0.56867 0.20295 0.10982
 C860 C 0.55264 0.19154 0.12091
 H861 H 0.59735 0.23954 0.12881
 H862 H 0.62834 0.26494 0.10633
 H863 H 0.61267 0.22359 0.03877
 H864 H 0.58201 0.19800 0.06159
 C865 C 0.22047 0.09487 0.58175
 C866 C 0.22487 0.06931 0.57821
 C867 C 0.23929 0.05596 0.59545
 C868 C 0.24950 0.06805 0.61646
 C869 C 0.24481 0.09372 0.61993
 C870 C 0.23040 0.10703 0.60266
 C871 C 0.20624 0.10875 0.56363
 C872 C 0.19463 0.12045 0.54829
 H873 H 0.21725 0.05971 0.56209
 H874 H 0.24230 0.03615 0.59245
 H875 H 0.25268 0.10362 0.63573
 H876 H 0.22721 0.12685 0.60550
 C877 C 0.78263 0.09410 0.41331
 C878 C 0.79027 0.07094 0.40392
 C879 C 0.77530 0.05814 0.38670
 C880 C 0.75213 0.06820 0.37854
 C881 C 0.74501 0.09188 0.38804
 C882 C 0.76008 0.10459 0.40520
 C883 C 0.79756 0.10696 0.43166
 C884 C 0.80960 0.11794 0.44724
 H885 H 0.80766 0.06255 0.41022
 H886 H 0.78156 0.03980 0.38090
 H887 H 0.72818 0.10126 0.38181
 H888 H 0.75409 0.12266 0.41217
 C889 C 0.77997 0.90621 0.58570
 C890 C 0.76949 0.89447 0.60660
 C891 C 0.75459 0.90811 0.62324
 C892 C 0.74995 0.93369 0.61913
 C893 C 0.76071 0.94536 0.59814
 C894 C 0.77562 0.93169 0.58155
 C895 C 0.79468 0.89204 0.56816
 C896 C 0.80670 0.88027 0.55314
 H897 H 0.77264 0.87472 0.60991
 H898 H 0.74631 0.89854 0.63905
 H899 H 0.75776 0.96510 0.59467
 H900 H 0.78366 0.94097 0.56542
 C901 C 0.22295 0.90264 0.41778
 C902 C 0.24840 0.90698 0.42251
 C903 C 0.26297 0.92024 0.40532
 C904 C 0.25225 0.92935 0.38312
 C905 C 0.22664 0.92487 0.37851
 C906 C 0.21209 0.91160 0.39575
 C907 C 0.20807 0.88898 0.43558
 C908 C 0.19595 0.87749 0.45074
 H909 H 0.25700 0.90005 0.43948
 H910 H 0.28270 0.92310 0.40924
 H911 H 0.21779 0.93191 0.36173
 H912 H 0.19238 0.90839 0.39194
 C913 C 0.09242 0.41491 0.78160
 C914 C 0.08278 0.42234 0.75849
 C915 C 0.07039 0.40507 0.74328
 C916 C 0.06748 0.38006 0.75098
 C917 C 0.07703 0.37280 0.77437
 C918 C 0.08946 0.39013 0.78956
 C919 C 0.10580 0.43270 0.79677
 C920 C 0.11721 0.44792 0.80890
 H921 H 0.08492 0.44147 0.75216
 H922 H 0.06290 0.41133 0.72557
 H923 H 0.07528 0.35365 0.78070
 H924 H 0.09694 0.38417 0.80740
 C925 C 0.09431 0.58893 0.21812
 C926 C 0.10490 0.59714 0.24049
 C927 C 0.09215 0.61428 0.25554
 C928 C 0.06832 0.62367 0.24859
 C929 C 0.05818 0.61547 0.22555
 C930 C 0.07103 0.59824 0.21059
 C931 C 0.10720 0.57049 0.20331
 C932 C 0.11832 0.55481 0.19152
 H933 H 0.12307 0.59023 0.24637
 H934 H 0.10160 0.62059 0.27225
 H935 H 0.03974 0.62121 0.21942
 H936 H 0.06257 0.59187 0.19333
 C937 C 0.90150 0.41753 0.22462
 C938 C 0.91128 0.42504 0.24760
 C939 C 0.92518 0.40833 0.26208
 C940 C 0.92964 0.38354 0.25388
 C941 C 0.91945 0.37634 0.23054
 C942 C 0.90559 0.39318 0.21613
 C943 C 0.88740 0.43496 0.20977
 C944 C 0.87572 0.44991 0.19762
 H945 H 0.90803 0.44385 0.25445
 H946 H 0.93146 0.41484 0.28013
 H947 H 0.92290 0.35805 0.22264
 H948 H 0.89826 0.38724 0.19822
 C949 C 0.90392 0.58136 0.77751
 C950 C 0.91378 0.57388 0.75454
 C951 C 0.92722 0.59079 0.73982
 C952 C 0.93113 0.61576 0.74777
 C953 C 0.92089 0.62292 0.77112
 C954 C 0.90749 0.60587 0.78577
 C955 C 0.89019 0.56376 0.79255
 C956 C 0.87877 0.54870 0.80485
 H957 H 0.91091 0.55495 0.74786
 H958 H 0.93356 0.58427 0.72178
 H959 H 0.92395 0.64135 0.77883
 H960 H 0.90008 0.61180 0.80367
 C961 C 0.78018 0.58284 0.90511
 C962 C 0.78893 0.60736 0.90817
 C963 C 0.77432 0.62498 0.92095
 C964 C 0.75074 0.61828 0.93075
 C965 C 0.74224 0.59353 0.92772
 C966 C 0.75686 0.57597 0.91499
 C967 C 0.79482 0.56472 0.89155
 C968 C 0.80659 0.54925 0.88007
 H969 H 0.80693 0.61290 0.90054
 H970 H 0.78127 0.64393 0.92278
 H971 H 0.72436 0.58768 0.93540
 H972 H 0.74993 0.55704 0.91280
 C973 C 0.21656 0.41200 0.90659
 C974 C 0.23544 0.39871 0.89416
 C975 C 0.25020 0.38148 0.90716
 C976 C 0.24628 0.37731 0.93281
 C977 C 0.22697 0.39045 0.94506
 C978 C 0.21224 0.40771 0.93202
 C979 C 0.20221 0.43057 0.89337
 C980 C 0.19060 0.44635 0.88218
 H981 H 0.23892 0.40185 0.87448
 H982 H 0.26469 0.37142 0.89714
 H983 H 0.22370 0.38788 0.96485
 H984 H 0.19774 0.41797 0.94185
 C985 C 0.22052 0.58716 0.09455
 C986 C 0.24593 0.58219 0.09066
 C987 C 0.26096 0.59921 0.07768
 C988 C 0.25091 0.62181 0.06819
 C989 C 0.22506 0.62643 0.07232
 C990 C 0.21011 0.60931 0.08537
 C991 C 0.20526 0.56941 0.10794
 C992 C 0.19297 0.55418 0.11923
 H993 H 0.25415 0.56496 0.09748
 H994 H 0.28023 0.59385 0.07433
 H995 H 0.21627 0.64366 0.06642
 H996 H 0.19044 0.61344 0.08845
 C997 C 0.77603 0.41686 0.09696
 C998 C 0.75299 0.42400 0.08684
 C999 C 0.73873 0.40693 0.07309
 C1000 C 0.74720 0.38213 0.06913
 C1001 C 0.77064 0.37535 0.07957
 C1002 C 0.78484 0.39254 0.09328
 C1003 C 0.79056 0.43457 0.11111
 C1004 C 0.80244 0.44969 0.12290
 H1005 H 0.74589 0.44277 0.08977
 H1006 H 0.72059 0.41318 0.06658
 H1007 H 0.77878 0.35708 0.07649
 H1008 H 0.80280 0.38687 0.10086
 C1009 C 0.90596 0.77930 0.58608
 C1010 C 0.91504 0.78966 0.60826
 C1011 C 0.92795 0.77473 0.62545
 C1012 C 0.93200 0.74893 0.62086
 C1013 C 0.92270 0.73896 0.59818
 C1014 C 0.90988 0.75398 0.58109
 C1015 C 0.89248 0.79446 0.56836
 C1016 C 0.88102 0.80656 0.55318
 H1017 H 0.91195 0.80926 0.61241
 H1018 H 0.93373 0.78346 0.64271
 H1019 H 0.92605 0.71975 0.59283
 H1020 H 0.90314 0.74579 0.56384
 C1021 C 0.90705 0.21807 0.41306
 C1022 C 0.89631 0.24053 0.40518
 C1023 C 0.90879 0.25577 0.38800
 C1024 C 0.93252 0.24893 0.37820
 C1025 C 0.94285 0.22584 0.38612
 C1026 C 0.93026 0.21069 0.40339
 C1027 C 0.89435 0.20298 0.43145
 C1028 C 0.88338 0.19092 0.44706
 H1029 H 0.87819 0.24632 0.41236
 H1030 H 0.89919 0.27251 0.38195
 H1031 H 0.96123 0.21978 0.38008
 H1032 H 0.93886 0.19338 0.40950
 C1033 C 0.09784 0.22380 0.58105
 C1034 C 0.09447 0.21553 0.60555
 C1035 C 0.08101 0.23009 0.62264
 C1036 C 0.07049 0.25337 0.61556
 C1037 C 0.07423 0.26134 0.59062
 C1038 C 0.08774 0.24671 0.57365
 C1039 C 0.11156 0.20877 0.56338
 C1040 C 0.12292 0.19643 0.54828
 H1041 H 0.10205 0.19767 0.61143
 H1042 H 0.07812 0.22233 0.64105
 H1043 H 0.06768 0.27933 0.58413
 H1044 H 0.09043 0.25341 0.55474
 C1045 C 0.09644 0.77629 0.41789
 C1046 C 0.08648 0.75325 0.42516
 C1047 C 0.07265 0.73887 0.40828
 C1048 C 0.06843 0.74722 0.38355
 C1049 C 0.07875 0.77064 0.37661
 C1050 C 0.09255 0.78495 0.39361
 C1051 C 0.11052 0.79103 0.43546
 C1052 C 0.12218 0.80313 0.45050
 H1053 H 0.08956 0.74626 0.44390
 H1054 H 0.06625 0.72076 0.41462
 H1055 H 0.07548 0.77867 0.35838
 H1056 H 0.10000 0.80291 0.38785
 C1057 C 0.58726 0.90589 0.78087
 C1058 C 0.59603 0.92926 0.78868
 C1059 C 0.61320 0.94257 0.77400
 C1060 C 0.62190 0.93282 0.75096
 C1061 C 0.61306 0.90891 0.74371
 C1062 C 0.59596 0.89571 0.75848
 C1063 C 0.56882 0.89258 0.79539
 C1064 C 0.55307 0.88128 0.80701
 H1065 H 0.58926 0.93742 0.80594
 H1066 H 0.61849 0.96102 0.78036
 H1067 H 0.61976 0.89976 0.72699
 H1068 H 0.58948 0.87749 0.75236
 C1069 C 0.41363 0.90305 0.21743
 C1070 C 0.40555 0.89255 0.23991
 C1071 C 0.38799 0.90502 0.25478
 C1072 C 0.37805 0.92849 0.24753
 C1073 C 0.38616 0.93853 0.22441
 C1074 C 0.40379 0.92597 0.20964
 C1075 C 0.43247 0.89050 0.20275
 C1076 C 0.44849 0.87984 0.19091
 H1077 H 0.41287 0.87466 0.24601
 H1078 H 0.38182 0.89564 0.27157
 H1079 H 0.38003 0.95672 0.21805
 H1080 H 0.41006 0.93437 0.19231
 C1081 C 0.58290 0.09382 0.22263
 C1082 C 0.60531 0.08487 0.21232
 C1083 C 0.62228 0.07157 0.22715
 C1084 C 0.61702 0.06703 0.25252
 C1085 C 0.59442 0.07611 0.26268
 C1086 C 0.57750 0.08941 0.24782
 C1087 C 0.56537 0.10753 0.20746
 C1088 C 0.55042 0.11906 0.19511
 H1089 H 0.60965 0.08812 0.19282
 H1090 H 0.63936 0.06455 0.21871
 H1091 H 0.58998 0.07323 0.28220
 H1092 H 0.56024 0.09632 0.25602
 C1093 C 0.41270 0.09758 0.77954
 C1094 C 0.41996 0.08788 0.75638
 C1095 C 0.40273 0.07478 0.74173
 C1096 C 0.37792 0.07121 0.75004
 C1097 C 0.37080 0.08089 0.77344
 C1098 C 0.38810 0.09403 0.78808
 C1099 C 0.43059 0.11125 0.79433
 C1100 C 0.44600 0.12268 0.80621
 H1101 H 0.43898 0.09043 0.74964
 H1102 H 0.40890 0.06720 0.72400
 H1103 H 0.35178 0.07863 0.78023
 H1104 H 0.38228 0.10151 0.80598
 C1105 C 0.58629 0.78244 0.09216
 C1106 C 0.61097 0.79072 0.08856
 C1107 C 0.62815 0.77577 0.07556
 C1108 C 0.62083 0.75231 0.06608
 C1109 C 0.59592 0.74431 0.06963
 C1110 C 0.57880 0.75926 0.08258
 C1111 C 0.56856 0.79740 0.10591
 C1112 C 0.55323 0.80929 0.11746
 H1113 H 0.61697 0.80862 0.09594
 H1114 H 0.64725 0.78234 0.07331
 H1115 H 0.58959 0.72654 0.06221
 H1116 H 0.55973 0.75270 0.08518
 C1117 C 0.41600 0.22002 0.09544
 C1118 C 0.39121 0.21176 0.09269
 C1119 C 0.37369 0.22659 0.08006
 C1120 C 0.38076 0.24992 0.07009
 C1121 C 0.40577 0.25794 0.07284
 C1122 C 0.42323 0.24310 0.08543
 C1123 C 0.43403 0.20511 0.10883
 C1124 C 0.44940 0.19308 0.12017
 H1125 H 0.38539 0.19396 0.10044
 H1126 H 0.35454 0.22000 0.07845
 H1127 H 0.41190 0.27561 0.06503
 H1128 H 0.44237 0.24966 0.08739
 C1129 C 0.58224 0.22240 0.90450
 C1130 C 0.57700 0.24748 0.90989
 C1131 C 0.59406 0.26178 0.92363
 C1132 C 0.61663 0.25117 0.93217
 C1133 C 0.62175 0.22594 0.92663
 C1134 C 0.60463 0.21165 0.91289
 C1135 C 0.56448 0.20775 0.89051
 C1136 C 0.54927 0.19580 0.87889
 H1137 H 0.55973 0.25599 0.90344
 H1138 H 0.58974 0.28123 0.92729
 H1139 H 0.63882 0.21716 0.93320
 H1140 H 0.60883 0.19223 0.90889
 C1141 C 0.41507 0.78065 0.90254
 C1142 C 0.39042 0.78902 0.90609
 C1143 C 0.37315 0.77416 0.91909
 C1144 C 0.38033 0.75070 0.92864
 C1145 C 0.40519 0.74255 0.92503
 C1146 C 0.42239 0.75742 0.91207
 C1147 C 0.43297 0.79572 0.88909
 C1148 C 0.44841 0.80784 0.87789
 H1149 H 0.38454 0.80696 0.89875
 H1150 H 0.35410 0.78084 0.92136
 H1151 H 0.41142 0.72479 0.93250
 H1152 H 0.44144 0.75079 0.90952
 C1153 C 0.77823 0.90465 0.41928
 C1154 C 0.75300 0.90951 0.42469
 C1155 C 0.73816 0.92268 0.40767
 C1156 C 0.74838 0.93118 0.38497
 C1157 C 0.77378 0.92617 0.37969
 C1158 C 0.78859 0.91300 0.39675
 C1159 C 0.79340 0.89108 0.43692
 C1160 C 0.80575 0.87970 0.45196
 H1161 H 0.74476 0.90306 0.44204
 H1162 H 0.71860 0.92593 0.41214
 H1163 H 0.78227 0.93274 0.36252
 H1164 H 0.80813 0.90940 0.39241
 C1165 C 0.22097 0.90346 0.58563
 C1166 C 0.21230 0.90677 0.61010
 C1167 C 0.22670 0.92022 0.62734
 C1168 C 0.25000 0.93044 0.62029
 C1169 C 0.25844 0.92712 0.59560
 C1170 C 0.24403 0.91371 0.57843
 C1171 C 0.20643 0.88946 0.56783
 C1172 C 0.19469 0.87778 0.55253
 H1173 H 0.19448 0.89887 0.61587
 H1174 H 0.21982 0.92227 0.64626
 H1175 H 0.27609 0.93511 0.58950
 H1176 H 0.25087 0.91135 0.55951
 C1177 C 0.22051 0.09392 0.41365
 C1178 C 0.24367 0.08401 0.42091
 C1179 C 0.25821 0.07053 0.40386
 C1180 C 0.24979 0.06679 0.37924
 C1181 C 0.22636 0.07663 0.37216
 C1182 C 0.21184 0.09015 0.38927
 C1183 C 0.20592 0.10815 0.43128
 C1184 C 0.19422 0.12008 0.44645
 H1185 H 0.25053 0.08673 0.43975
 H1186 H 0.27596 0.06286 0.41000
 H1187 H 0.21949 0.07426 0.35329
 H1188 H 0.19395 0.09779 0.38345
 C1189 C 0.78222 0.09368 0.58322
 C1190 C 0.75899 0.08380 0.57610
 C1191 C 0.74384 0.07161 0.59361
 C1192 C 0.75171 0.06914 0.61856
 C1193 C 0.77520 0.07896 0.62553
 C1194 C 0.79033 0.09119 0.60796
 C1195 C 0.79740 0.10673 0.56514
 C1196 C 0.80958 0.11781 0.54969
 H1197 H 0.75254 0.08556 0.55701
 H1198 H 0.72606 0.06390 0.58756
 H1199 H 0.78168 0.07756 0.64463
 H1200 H 0.80825 0.09885 0.61370
 C1201 C 0.90162 0.58372 0.22450
 C1202 C 0.91016 0.60615 0.21401
 C1203 C 0.92397 0.62304 0.22846
 C1204 C 0.92944 0.61768 0.25360
 C1205 C 0.92074 0.59508 0.26396
 C1206 C 0.90692 0.57824 0.24948
 C1207 C 0.88757 0.56619 0.20966
 C1208 C 0.87589 0.55119 0.19752
 H1209 H 0.90623 0.61053 0.19466
 H1210 H 0.93067 0.64013 0.21989
 H1211 H 0.92434 0.59058 0.28333
 H1212 H 0.90036 0.56095 0.25780
 C1213 C 0.90410 0.41504 0.77688
 C1214 C 0.90865 0.42058 0.75174
 C1215 C 0.92216 0.40387 0.73682
 C1216 C 0.93132 0.38134 0.74686
 C1217 C 0.92658 0.37589 0.77215
 C1218 C 0.91307 0.39265 0.78705
 C1219 C 0.89037 0.43247 0.79216
 C1220 C 0.87893 0.44741 0.80461
 H1221 H 0.90174 0.43783 0.74366
 H1222 H 0.92520 0.40845 0.71736
 H1223 H 0.93365 0.35885 0.78049
 H1224 H 0.90972 0.38821 0.80651
 C1225 C 0.09384 0.58328 0.78202
 C1226 C 0.09017 0.60780 0.79048
 C1227 C 0.07726 0.62507 0.77563
 C1228 C 0.06793 0.61802 0.75208
 C1229 C 0.07159 0.59327 0.74386
 C1230 C 0.08445 0.57607 0.75872
 C1231 C 0.10735 0.56544 0.79701
 C1232 C 0.11867 0.55009 0.80907
 H1233 H 0.09739 0.61360 0.80848
 H1234 H 0.07495 0.64403 0.78237
 H1235 H 0.06429 0.58714 0.72602
 H1236 H 0.08709 0.55712 0.75202
 C1237 C 0.09293 0.41897 0.21904
 C1238 C 0.08329 0.42608 0.24230
 C1239 C 0.07048 0.40873 0.25709
 C1240 C 0.06712 0.38395 0.24885
 C1241 C 0.07668 0.37701 0.22533
 C1242 C 0.08954 0.39442 0.21055
 C1243 C 0.10658 0.43689 0.20419
 C1244 C 0.11810 0.45221 0.19225
 H1245 H 0.08574 0.44504 0.24903
 H1246 H 0.06301 0.41477 0.27491
 H1247 H 0.07461 0.35803 0.21858
 H1248 H 0.09698 0.38869 0.19260
   
