data_POSCAR
  _audit_creation_date              2014-09-24
  _audit_creation_method            'ToBaCCo'
  _symmetry_space_group_name_H-M    'P1'
  _symmetry_Int_Tables_number       1
  _symmetry_cell_setting            triclinic
  loop_
  _symmetry_equiv_pos_as_xyz
 x,y,z
_cell_length_a 67.7616
_cell_length_b 67.8538
_cell_length_c 69.4962
_cell_angle_alpha 89.636000
_cell_angle_beta 90.178600
_cell_angle_gamma 89.669500
loop_
  _atom_site_label
  _atom_site_type_symbol
  _atom_site_fract_x
  _atom_site_fract_y
  _atom_site_fract_z
C1 C 0.18717 0.20857 0.22090
 C2 C 0.20059 0.19311 0.22432
 C3 C 0.21641 0.18971 0.21172
 C4 C 0.21880 0.20219 0.19569
 C5 C 0.20566 0.21794 0.19218
 C6 C 0.18980 0.22091 0.20484
 H7 H 0.19864 0.18367 0.23679
 H8 H 0.23065 0.19935 0.18565
 H9 H 0.17975 0.23318 0.20255
 C10 C 0.69107 0.71761 0.71927
 C11 C 0.69519 0.72870 0.70263
 C12 C 0.71161 0.72421 0.69112
 C13 C 0.72399 0.70842 0.69648
 C14 C 0.72013 0.69714 0.71305
 C15 C 0.70362 0.70184 0.72435
 H16 H 0.68559 0.74087 0.69861
 H17 H 0.73669 0.70487 0.68771
 H18 H 0.70053 0.69318 0.73712
 C19 C 0.29759 0.78639 0.72039
 C20 C 0.29430 0.77459 0.70423
 C21 C 0.27754 0.77745 0.69266
 C22 C 0.26393 0.79230 0.69743
 C23 C 0.26678 0.80446 0.71364
 C24 C 0.28389 0.80125 0.72495
 H25 H 0.30483 0.76314 0.70064
 H26 H 0.25169 0.79492 0.68771
 H27 H 0.28623 0.80949 0.73802
 C28 C 0.80779 0.27946 0.22407
 C29 C 0.80560 0.26739 0.20769
 C30 C 0.79022 0.27051 0.19441
 C31 C 0.77687 0.28601 0.19733
 C32 C 0.77859 0.29831 0.21336
 C33 C 0.79397 0.29495 0.22661
 H34 H 0.81606 0.25572 0.20475
 H35 H 0.76535 0.28880 0.18680
 H36 H 0.79433 0.30391 0.23940
 C37 C 0.80635 0.70827 0.27967
 C38 C 0.79413 0.69229 0.27523
 C39 C 0.77751 0.68797 0.28648
 C40 C 0.77314 0.69995 0.30235
 C41 C 0.78519 0.71604 0.30703
 C42 C 0.80175 0.72010 0.29556
 H43 H 0.79732 0.68346 0.26268
 H44 H 0.76035 0.69672 0.31109
 H45 H 0.81141 0.73215 0.29933
 C46 C 0.30860 0.20131 -0.21388
 C47 C 0.29488 0.18624 -0.21781
 C48 C 0.27865 0.18276 -0.20576
 C49 C 0.27582 0.19472 -0.18962
 C50 C 0.28904 0.20992 -0.18536
 C51 C 0.30535 0.21302 -0.19743
 H52 H 0.29604 0.17767 -0.23082
 H53 H 0.26326 0.19220 -0.18034
 H54 H 0.31597 0.22401 -0.19321
 C55 C 0.69740 0.29133 -0.22628
 C56 C 0.71189 0.30579 -0.22979
 C57 C 0.72733 0.30903 -0.21666
 C58 C 0.72861 0.29735 -0.19998
 C59 C 0.71459 0.28273 -0.19620
 C60 C 0.69901 0.27996 -0.20926
 H61 H 0.71092 0.31513 -0.24244
 H62 H 0.74028 0.29998 -0.18963
 H63 H 0.68885 0.26802 -0.20656
 C64 C 0.19782 0.79309 0.27592
 C65 C 0.20065 0.78087 0.29201
 C66 C 0.21659 0.78379 0.30454
 C67 C 0.22993 0.79910 0.30074
 C68 C 0.22750 0.81176 0.28462
 C69 C 0.21114 0.80845 0.27238
 H70 H 0.19039 0.76901 0.29480
 H71 H 0.24244 0.80062 0.31027
 H72 H 0.20824 0.81804 0.26021
 C73 C 0.46635 0.44167 0.46906
 C74 C 0.45066 0.45515 0.47075
 C75 C 0.44756 0.46991 0.45679
 C76 C 0.46036 0.47107 0.44098
 C77 C 0.47612 0.45769 0.43901
 C78 C 0.47898 0.44304 0.45313
 H79 H 0.44085 0.45416 0.48300
 H80 H 0.45839 0.48275 0.43044
 H81 H 0.49078 0.43235 0.45148
 C82 C -0.04831 -0.06968 0.97470
 C83 C -0.03529 -0.06670 0.95933
 C84 C -0.03810 -0.05095 0.94644
 C85 C -0.05415 -0.03807 0.94906
 C86 C -0.06757 -0.04067 0.96439
 C87 C -0.06434 -0.05672 0.97709
 H88 H -0.02291 -0.07665 0.95742
 H89 H -0.05661 -0.02667 0.93837
 H90 H -0.07356 -0.05868 0.98962
 C91 C 1.03878 0.55169 0.97128
 C92 C 1.02556 0.54737 0.95630
 C93 C 1.02884 0.53123 0.94413
 C94 C 1.04559 0.51928 0.94715
 C95 C 1.05904 0.52345 0.96197
 C96 C 1.05553 0.53968 0.97395
 H97 H 1.01267 0.55663 0.95410
 H98 H 1.04823 0.50675 0.93791
 H99 H 1.06587 0.54295 0.98539
 C100 C 0.54142 0.06762 0.47564
 C101 C 0.52830 0.06502 0.46025
 C102 C 0.53087 0.04945 0.44731
 C103 C 0.54677 0.03632 0.44996
 C104 C 0.56030 0.03854 0.46532
 C105 C 0.55729 0.05444 0.47804
 H106 H 0.51634 0.07546 0.45806
 H107 H 0.54875 0.02469 0.43958
 H108 H 0.56657 0.05612 0.49061
 C109 C -0.04193 0.05630 0.52860
 C110 C -0.05777 0.04317 0.52668
 C111 C -0.06079 0.02772 0.54007
 C112 C -0.04746 0.02601 0.55568
 C113 C -0.03153 0.03899 0.55782
 C114 C -0.02886 0.05402 0.54415
 H115 H -0.06735 0.04486 0.51431
 H116 H -0.04995 0.01523 0.56692
 H117 H -0.01631 0.06375 0.54535
 C118 C 0.46075 0.56375 0.02563
 C119 C 0.44441 0.55136 0.02319
 C120 C 0.44167 0.53492 0.03525
 C121 C 0.45538 0.53103 0.05001
 C122 C 0.47179 0.54329 0.05275
 C123 C 0.47440 0.55951 0.04035
 H124 H 0.43380 0.55449 0.01187
 H125 H 0.45295 0.51871 0.05969
 H126 H 0.48737 0.56863 0.04188
 C127 C 0.53872 -0.05638 0.02667
 C128 C 0.55328 -0.04185 0.02367
 C129 C 0.55553 -0.02596 0.03632
 C130 C 0.54292 -0.02435 0.05219
 C131 C 0.52824 -0.03842 0.05557
 C132 C 0.52631 -0.05434 0.04287
 H133 H 0.56239 -0.04212 0.01093
 H134 H 0.54453 -0.01209 0.06196
 H135 H 0.51569 -0.06561 0.04642
 C136 C 1.04241 0.44915 0.52629
 C137 C 1.02900 0.45194 0.54135
 C138 C 1.03084 0.46796 0.55384
 C139 C 1.04631 0.48138 0.55109
 C140 C 1.06011 0.47900 0.53605
 C141 C 1.05785 0.46263 0.52377
 H142 H 1.01738 0.44128 0.54366
 H143 H 1.04773 0.49334 0.56118
 H144 H 1.06738 0.46075 0.51145
 C145 C 0.41407 0.01391 0.22618
 H146 H 0.41480 0.02734 0.23445
 C147 C 0.42689 0.01106 0.21074
 H148 H 0.43729 0.02253 0.20705
 C149 C 0.39950 -0.01727 0.22096
 H150 H 0.38909 -0.02846 0.22521
 C151 C 0.41201 -0.02071 0.20539
 H152 H 0.41103 -0.03454 0.19777
 N153 N 0.40056 -0.00006 0.23084
 C154 C 0.35363 0.03147 0.26079
 H155 H 0.35288 0.02284 0.27391
 C156 C 0.34068 0.04729 0.25791
 H157 H 0.33013 0.05092 0.26903
 C158 C 0.36844 0.03720 0.23043
 H159 H 0.37903 0.03302 0.21961
 C160 C 0.35581 0.05318 0.22699
 H161 H 0.35684 0.06115 0.21348
 Zn162 Zn 0.38405 0.00498 0.25223
 N163 N 0.36731 0.02687 0.24723
 C164 C 0.39939 0.02715 0.28353
 N165 N 0.40073 0.01004 0.27351
 C166 C 0.41454 -0.00386 0.27804
 C167 C 0.42747 -0.00101 0.29343
 C168 C 0.41199 0.03059 0.29908
 C169 C 0.35439 -0.02235 0.24388
 C170 C 0.34168 -0.03812 0.24724
 C171 C 0.35602 -0.04197 0.27892
 C172 C 0.36857 -0.02624 0.27489
 N173 N 0.36767 -0.01690 0.25753
 H174 H 0.38865 0.03824 0.27943
 H175 H 0.41542 -0.01724 0.26969
 H176 H 0.43815 -0.01240 0.29700
 H177 H 0.41080 0.04434 0.30681
 H178 H 0.35369 -0.01439 0.23035
 H179 H 0.33116 -0.04223 0.23623
 H180 H 0.35706 -0.04936 0.29275
 H181 H 0.37887 -0.02141 0.28575
 C182 C 0.34172 0.05843 0.24085
 C183 C 0.42590 -0.00641 0.20007
 C184 C 0.34240 -0.04813 0.26497
 C185 C 0.42624 0.01638 0.30422
 C186 C 0.08415 -0.01199 0.72908
 H187 H 0.08403 -0.02550 0.73743
 C188 C 0.07172 -0.00988 0.71315
 H189 H 0.06231 -0.02204 0.70916
 C190 C 0.09691 0.02007 0.72412
 H191 H 0.10653 0.03182 0.72863
 C192 C 0.08460 0.02287 0.70816
 H193 H 0.08488 0.03686 0.70059
 N194 N 0.09662 0.00275 0.73408
 C195 C 0.14364 -0.02711 0.76617
 H196 H 0.14360 -0.01862 0.77930
 C197 C 0.15725 -0.04244 0.76385
 H198 H 0.16747 -0.04586 0.77542
 C199 C 0.13031 -0.03286 0.73517
 H200 H 0.12013 -0.02882 0.72382
 C201 C 0.14366 -0.04829 0.73224
 H202 H 0.14353 -0.05597 0.71864
 Zn203 Zn 0.11284 -0.00134 0.75598
 N204 N 0.13037 -0.02278 0.75202
 C205 C 0.09756 -0.02313 0.78779
 N206 N 0.09595 -0.00634 0.77708
 C207 C 0.08173 0.00731 0.78078
 C208 C 0.06874 0.00465 0.79611
 C209 C 0.08489 -0.02639 0.80329
 C210 C 0.14237 0.02586 0.74743
 C211 C 0.15506 0.04167 0.75049
 C212 C 0.13904 0.04745 0.78096
 C213 C 0.12671 0.03146 0.77736
 N214 N 0.12851 0.02111 0.76075
 H215 H 0.10866 -0.03402 0.78438
 H216 H 0.08054 0.02035 0.77180
 H217 H 0.05746 0.01566 0.79873
 H218 H 0.08668 -0.03964 0.81189
 H219 H 0.14364 0.01721 0.73446
 H220 H 0.16592 0.04530 0.73966
 H221 H 0.13760 0.05533 0.79439
 H222 H 0.11596 0.02718 0.78800
 C223 C 0.15734 -0.05330 0.74672
 C224 C 0.07183 0.00774 0.70240
 C225 C 0.15350 0.05268 0.76747
 C226 C 0.07030 -0.01234 0.80769
 C227 C 0.59553 0.48292 0.21619
 H228 H 0.59564 0.46950 0.22468
 C229 C 0.58298 0.48466 0.20029
 H230 H 0.57377 0.47231 0.19645
 C231 C 0.60754 0.51523 0.21102
 H232 H 0.61682 0.52726 0.21548
 C233 C 0.59510 0.51768 0.19511
 H234 H 0.59498 0.53167 0.18754
 N235 N 0.60762 0.49800 0.22112
 C236 C 0.65476 0.47067 0.25519
 H237 H 0.65445 0.48006 0.26771
 C238 C 0.66851 0.45532 0.25410
 H239 H 0.67861 0.45281 0.26598
 C240 C 0.64177 0.46249 0.22459
 H241 H 0.63158 0.46551 0.21296
 C242 C 0.65520 0.44691 0.22295
 H243 H 0.65517 0.43807 0.21003
 Zn244 Zn 0.62335 0.49485 0.24350
 N245 N 0.64156 0.47378 0.24069
 C246 C 0.60797 0.47345 0.27546
 N247 N 0.60597 0.48980 0.26418
 C248 C 0.59107 0.50296 0.26704
 C249 C 0.57776 0.50025 0.28209
 C250 C 0.59501 0.47019 0.29072
 C251 C 0.65220 0.52312 0.23541
 C252 C 0.66402 0.53957 0.23865
 C253 C 0.64671 0.54498 0.26851
 C254 C 0.63529 0.52839 0.26474
 N255 N 0.63810 0.51792 0.24833
 H256 H 0.61957 0.46289 0.27267
 H257 H 0.58970 0.51571 0.25769
 H258 H 0.56628 0.51113 0.28439
 H259 H 0.59680 0.45709 0.29956
 H260 H 0.65430 0.51438 0.22260
 H261 H 0.67506 0.54358 0.22813
 H262 H 0.64444 0.55295 0.28178
 H263 H 0.62439 0.52376 0.27510
 C264 C 0.66873 0.44309 0.23788
 C265 C 0.58258 0.50227 0.18953
 C266 C 0.66134 0.55074 0.25540
 C267 C 0.57973 0.48375 0.29425
 C268 C 0.91149 0.51497 0.72295
 H269 H 0.91259 0.52739 0.73258
 C270 C 0.92469 0.51310 0.70769
 H271 H 0.93578 0.52430 0.70550
 C272 C 0.89555 0.48536 0.71415
 H273 H 0.88441 0.47439 0.71690
 C274 C 0.90843 0.48292 0.69868
 H275 H 0.90703 0.47004 0.68966
 N276 N 0.89716 0.50132 0.72578
 C277 C 0.85043 0.53170 0.75711
 H278 H 0.84897 0.52216 0.76955
 C279 C 0.83799 0.54805 0.75492
 H280 H 0.82713 0.55118 0.76590
 C281 C 0.86637 0.53912 0.72767
 H282 H 0.87715 0.53539 0.71686
 C283 C 0.85428 0.55563 0.72492
 H284 H 0.85593 0.56442 0.71198
 Zn285 Zn 0.88028 0.50483 0.74715
 N286 N 0.86440 0.52765 0.74366
 C287 C 0.89551 0.52328 0.78077
 N288 N 0.89663 0.50726 0.76914
 C289 C 0.91026 0.49280 0.77229
 C290 C 0.92337 0.49401 0.78777
 C291 C 0.90829 0.52504 0.79647
 C292 C 0.84944 0.48020 0.73585
 C293 C 0.83621 0.46455 0.73717
 C294 C 0.85117 0.45526 0.76752
 C295 C 0.86409 0.47111 0.76564
 N296 N 0.86314 0.48306 0.74987
 H297 H 0.88492 0.53485 0.77777
 H298 H 0.91099 0.48035 0.76267
 H299 H 0.93401 0.48227 0.79013
 H300 H 0.90737 0.53801 0.80542
 H301 H 0.84886 0.49008 0.72358
 H302 H 0.82562 0.46233 0.72570
 H303 H 0.85204 0.44600 0.78025
 H304 H 0.87475 0.47390 0.77686
 C305 C 0.83986 0.56030 0.73866
 C306 C 0.92323 0.49692 0.69528
 C307 C 0.83701 0.45179 0.75315
 C308 C 0.92250 0.51031 0.80009
 C309 C 0.22632 0.39679 0.00939
 H310 H 0.23372 0.39723 0.02319
 C311 C 0.20975 0.40865 0.00601
 H312 H 0.20432 0.41795 0.01745
 C313 C 0.22435 0.38379 -0.02211
 H314 H 0.23028 0.37435 -0.03315
 C315 C 0.20781 0.39550 -0.02616
 H316 H 0.20124 0.39491 -0.04036
 N317 N 0.23308 0.38446 -0.00448
 C318 C 0.26582 0.34009 0.02849
 H319 H 0.27997 0.34083 0.02137
 C320 C 0.26311 0.32702 0.04383
 H321 H 0.27542 0.31800 0.04863
 C322 C 0.23272 0.35120 0.03087
 H323 H 0.22078 0.36032 0.02551
 C324 C 0.22931 0.33823 0.04618
 H325 H 0.21471 0.33759 0.05242
 Zn326 Zn 0.25567 0.36892 0.00124
 N327 N 0.25082 0.35205 0.02251
 C328 C 0.28540 0.38661 0.02434
 N329 N 0.27662 0.38644 0.00672
 C330 C 0.28210 0.39929 -0.00734
 C331 C 0.29752 0.41247 -0.00422
 C332 C 0.30079 0.39964 0.02814
 C333 C 0.24843 0.33879 -0.02485
 C334 C 0.25205 0.32600 -0.04010
 C335 C 0.28380 0.34137 -0.04454
 C336 C 0.27959 0.35383 -0.02914
 N337 N 0.26201 0.35252 -0.01983
 H338 H 0.28040 0.37679 0.03557
 H339 H 0.27463 0.39910 -0.02112
 H340 H 0.30202 0.42213 -0.01584
 H341 H 0.30745 0.39964 0.04232
 H342 H 0.23468 0.33789 -0.01703
 H343 H 0.24087 0.31543 -0.04410
 H344 H 0.29790 0.34254 -0.05172
 H345 H 0.29047 0.36440 -0.02459
 C346 C 0.24464 0.32595 0.05292
 C347 C 0.20021 0.40808 -0.01197
 C348 C 0.26990 0.32725 -0.05023
 C349 C 0.30719 0.41270 0.01370
 C350 C 0.72302 0.09925 -0.01524
 H351 H 0.73251 0.09884 -0.02773
 C352 C 0.70724 0.08620 -0.01374
 H353 H 0.70448 0.07595 -0.02530
 C354 C 0.71526 0.11309 0.01505
 H355 H 0.71868 0.12328 0.02644
 C356 C 0.69929 0.10035 0.01711
 H357 H 0.69056 0.10090 0.03013
 N358 N 0.72667 0.11241 -0.00101
 C359 C 0.76062 0.15961 -0.02767
 H360 H 0.77325 0.15983 -0.01810
 C361 C 0.75928 0.17311 -0.04285
 H362 H 0.77091 0.18381 -0.04480
 C363 C 0.72985 0.14572 -0.03626
 H364 H 0.71831 0.13517 -0.03352
 C365 C 0.72790 0.15898 -0.05162
 H366 H 0.71499 0.15820 -0.06080
 Zn367 Zn 0.74913 0.12865 -0.00366
 N368 N 0.74614 0.14613 -0.02479
 C369 C 0.78242 0.11320 -0.02348
 N370 N 0.77109 0.11176 -0.00741
 C371 C 0.77458 0.09755 0.00608
 C372 C 0.79026 0.08433 0.00392
 C373 C 0.79824 0.10026 -0.02623
 C374 C 0.73871 0.15802 0.02248
 C375 C 0.74063 0.17019 0.03849
 C376 C 0.77162 0.15405 0.04595
 C377 C 0.76910 0.14219 0.02980
 N378 N 0.75273 0.14421 0.01857
 H379 H 0.77909 0.12421 -0.03431
 H380 H 0.76515 0.09656 0.01858
 H381 H 0.79300 0.07337 0.01501
 H382 H 0.80693 0.10149 -0.03923
 H383 H 0.72602 0.15957 0.01309
 H384 H 0.72938 0.18120 0.04124
 H385 H 0.78459 0.15198 0.05489
 H386 H 0.78031 0.13145 0.02624
 C387 C 0.74278 0.17287 -0.05512
 C388 C 0.69515 0.08662 0.00263
 C389 C 0.75724 0.16825 0.05051
 C390 C 0.80236 0.08559 -0.01241
 C391 C 0.22949 0.60056 0.48463
 H392 H 0.23871 0.60016 0.47195
 C393 C 0.21356 0.58773 0.48628
 H394 H 0.21042 0.57769 0.47463
 C395 C 0.22253 0.61417 0.51520
 H396 H 0.22633 0.62418 0.52662
 C397 C 0.20645 0.60158 0.51745
 H398 H 0.19803 0.60208 0.53066
 N399 N 0.23358 0.61353 0.49891
 C400 C 0.26796 0.65990 0.47127
 H401 H 0.28085 0.65992 0.48050
 C402 C 0.26651 0.67329 0.45599
 H403 H 0.27833 0.68369 0.45361
 C404 C 0.23663 0.64669 0.46365
 H405 H 0.22489 0.63648 0.46682
 C406 C 0.23455 0.65984 0.44823
 H407 H 0.22134 0.65931 0.43944
 Zn408 Zn 0.25622 0.62946 0.49593
 N409 N 0.25325 0.64680 0.47467
 C410 C 0.28945 0.61335 0.47632
 N411 N 0.27787 0.61218 0.49223
 C412 C 0.28093 0.59800 0.50584
 C413 C 0.29644 0.58454 0.50400
 C414 C 0.30514 0.60016 0.47388
 C415 C 0.24645 0.65894 0.52232
 C416 C 0.24887 0.67112 0.53827
 C417 C 0.28001 0.65489 0.54487
 C418 C 0.27698 0.64302 0.52881
 N419 N 0.26031 0.64509 0.51803
 H420 H 0.28654 0.62443 0.46545
 H421 H 0.27125 0.59718 0.51817
 H422 H 0.29852 0.57328 0.51493
 H423 H 0.31440 0.60151 0.46128
 H424 H 0.23350 0.66053 0.51328
 H425 H 0.23774 0.68216 0.54136
 H426 H 0.29323 0.65279 0.55345
 H427 H 0.28805 0.63225 0.52496
 C428 C 0.24964 0.67335 0.44420
 C429 C 0.20182 0.58808 0.50290
 C430 C 0.26584 0.66915 0.54981
 C431 C 0.30884 0.58556 0.48788
 C432 C 0.72093 0.90341 0.50233
 H433 H 0.72940 0.90445 0.51551
 C434 C 0.70530 0.91644 0.49889
 H435 H 0.70163 0.92732 0.50966
 C436 C 0.71549 0.88784 0.47237
 H437 H 0.71974 0.87694 0.46190
 C438 C 0.69972 0.90059 0.46834
 H439 H 0.69198 0.89932 0.45476
 N440 N 0.72560 0.88935 0.48923
 C441 C 0.75631 0.84390 0.52274
 H442 H 0.77001 0.84275 0.51486
 C443 C 0.75317 0.83202 0.53892
 H444 H 0.76465 0.82187 0.54356
 C445 C 0.72480 0.85873 0.52632
 H446 H 0.71362 0.86889 0.52121
 C447 C 0.72108 0.84718 0.54259
 H448 H 0.70701 0.84863 0.54981
 Zn449 Zn 0.74756 0.87296 0.49500
 N450 N 0.74232 0.85713 0.51694
 C451 C 0.77904 0.88967 0.51672
 N452 N 0.76909 0.88996 0.49969
 C453 C 0.77353 0.90325 0.48566
 C454 C 0.78873 0.91674 0.48831
 C455 C 0.79437 0.90294 0.52000
 C456 C 0.73949 0.84233 0.46924
 C457 C 0.74282 0.82970 0.45377
 C458 C 0.77455 0.84500 0.44903
 C459 C 0.77064 0.85730 0.46460
 N460 N 0.75319 0.85600 0.47414
 H461 H 0.77496 0.87938 0.52791
 H462 H 0.76518 0.90333 0.47236
 H463 H 0.79221 0.92697 0.47681
 H464 H 0.80194 0.90268 0.53374
 H465 H 0.72585 0.84143 0.47724
 H466 H 0.73154 0.81923 0.44980
 H467 H 0.78854 0.84624 0.44165
 H468 H 0.78160 0.86784 0.46902
 C469 C 0.73541 0.83370 0.54917
 C470 C 0.69445 0.91514 0.48170
 C471 C 0.76048 0.83107 0.44333
 C472 C 0.79938 0.91674 0.50569
 C473 C 0.01125 0.22584 0.40860
 H474 H 0.02460 0.23450 0.40902
 C475 C 0.00884 0.21013 0.42142
 H476 H 0.02054 0.20661 0.43154
 C477 C -0.02019 0.22000 0.39483
 H478 H -0.03166 0.22415 0.38474
 C479 C -0.02320 0.20412 0.40736
 H480 H -0.03699 0.19616 0.40672
 N481 N -0.00309 0.23038 0.39556
 C482 C 0.02909 0.26267 0.35125
 H483 H 0.02105 0.27649 0.35112
 C484 C 0.04518 0.26003 0.33901
 H485 H 0.04950 0.27190 0.32945
 C486 C 0.03290 0.23020 0.36355
 H487 H 0.02792 0.21853 0.37296
 C488 C 0.04888 0.22684 0.35134
 H489 H 0.05631 0.21266 0.35168
 Zn490 Zn 0.00138 0.25249 0.37943
 N491 N 0.02350 0.24798 0.36344
 C492 C 0.02258 0.28491 0.39530
 N493 N 0.00562 0.27428 0.39580
 C494 C -0.00890 0.27851 0.40861
 C495 C -0.00697 0.29434 0.42118
 C496 C 0.02511 0.30091 0.40760
 C497 C -0.02578 0.24313 0.35044
 C498 C -0.04166 0.24611 0.33786
 C499 C -0.04612 0.27865 0.35114
 C500 C -0.03026 0.27499 0.36356
 N501 N -0.02058 0.25737 0.36313
 H502 H 0.03420 0.28104 0.38540
 H503 H -0.02206 0.26956 0.40897
 H504 H -0.01868 0.29736 0.43132
 H505 H 0.03852 0.30945 0.40668
 H506 H -0.01756 0.22942 0.35011
 H507 H -0.04556 0.23463 0.32782
 H508 H -0.05378 0.29267 0.35183
 H509 H -0.02562 0.28633 0.37339
 C510 C 0.05526 0.24192 0.33897
 C511 C -0.00858 0.19903 0.42091
 C512 C -0.05204 0.26407 0.33813
 C513 C 0.01016 0.30589 0.42069
 C514 C -0.00508 0.71365 0.09959
 H515 H -0.01840 0.72242 0.09813
 C516 C -0.00166 0.69794 0.08714
 H517 H -0.01257 0.69452 0.07627
 C518 C 0.02528 0.70754 0.11560
 H519 H 0.03593 0.71154 0.12646
 C520 C 0.02928 0.69167 0.10349
 H521 H 0.04302 0.68362 0.10520
 N522 N 0.00823 0.71803 0.11358
 C523 C -0.02440 0.74875 0.15846
 H524 H -0.01576 0.76205 0.15968
 C525 C -0.04029 0.74559 0.17083
 H526 H -0.04371 0.75650 0.18163
 C527 C -0.02983 0.71804 0.14337
 H528 H -0.02556 0.70720 0.13284
 C529 C -0.04586 0.71430 0.15539
 H530 H -0.05400 0.70075 0.15365
 Zn531 Zn 0.00275 0.74001 0.12938
 N532 N -0.01956 0.73511 0.14499
 C533 C -0.01887 0.77250 0.11372
 N534 N -0.00185 0.76182 0.11285
 C535 C 0.01218 0.76588 0.09948
 C536 C 0.00955 0.78144 0.08648
 C537 C -0.02211 0.78821 0.10099
 C538 C 0.02847 0.73136 0.15986
 C539 C 0.04411 0.73424 0.17264
 C540 C 0.05069 0.76537 0.15692
 C541 C 0.03490 0.76190 0.14447
 N542 N 0.02431 0.74500 0.14599
 H543 H -0.03001 0.76883 0.12420
 H544 H 0.02541 0.75691 0.09888
 H545 H 0.02080 0.78426 0.07581
 H546 H -0.03562 0.79672 0.10208
 H547 H 0.01958 0.71821 0.16097
 H548 H 0.04707 0.72327 0.18366
 H549 H 0.05918 0.77873 0.15522
 H550 H 0.03115 0.77275 0.13361
 C551 C -0.05126 0.72814 0.16940
 C552 C 0.01571 0.68669 0.08903
 C553 C 0.05553 0.75140 0.17121
 C554 C -0.00778 0.79287 0.08714
 C555 C 0.48533 0.22940 0.60355
 H556 H 0.47171 0.23778 0.60411
 C557 C 0.48733 0.21405 0.59041
 H558 H 0.47518 0.21082 0.58080
 C559 C 0.51793 0.22409 0.61493
 H560 H 0.52997 0.22828 0.62423
 C561 C 0.52056 0.20861 0.60202
 H562 H 0.53450 0.20073 0.60189
 N563 N 0.50042 0.23397 0.61562
 C564 C 0.47062 0.26455 0.66240
 H565 H 0.47873 0.27824 0.66238
 C566 C 0.45538 0.26165 0.67556
 H567 H 0.45186 0.27316 0.68572
 C568 C 0.46579 0.23270 0.64946
 H569 H 0.47006 0.22137 0.63943
 C570 C 0.45055 0.22911 0.66247
 H571 H 0.44294 0.21513 0.66209
 Zn572 Zn 0.49630 0.25552 0.63236
 N573 N 0.47532 0.25030 0.64951
 C574 C 0.47283 0.28739 0.61791
 N575 N 0.49036 0.27763 0.61663
 C576 C 0.50406 0.28279 0.60330
 C577 C 0.50053 0.29856 0.59075
 C578 C 0.46869 0.30328 0.60564
 C579 C 0.52591 0.24566 0.65906
 C580 C 0.54216 0.24877 0.67103
 C581 C 0.54318 0.28256 0.65988
 C582 C 0.52714 0.27870 0.64783
 N583 N 0.51894 0.26044 0.64755
 H584 H 0.46193 0.28279 0.62828
 H585 H 0.51772 0.27453 0.60238
 H586 H 0.51153 0.30225 0.58008
 H587 H 0.45477 0.31103 0.60704
 H588 H 0.51878 0.23144 0.65894
 H589 H 0.54757 0.23688 0.68012
 H590 H 0.54954 0.29716 0.66002
 H591 H 0.52104 0.29041 0.63901
 C592 C 0.44510 0.24375 0.67566
 C593 C 0.50512 0.20338 0.58955
 C594 C 0.55089 0.26745 0.67158
 C595 C 0.48264 0.30906 0.59183
 C596 C 0.50310 0.72861 0.89949
 H597 H 0.51645 0.73708 0.90123
 C598 C 0.49943 0.71261 0.91166
 H599 H 0.51018 0.70868 0.92260
 C600 C 0.47288 0.72351 0.88305
 H601 H 0.46238 0.72802 0.87215
 C602 C 0.46866 0.70735 0.89486
 H603 H 0.45490 0.69957 0.89288
 N604 N 0.48998 0.73364 0.88543
 C605 C 0.52424 0.76539 0.84225
 H606 H 0.51593 0.77902 0.84131
 C607 C 0.54062 0.76246 0.83043
 H608 H 0.54500 0.77404 0.82058
 C609 C 0.52857 0.73375 0.85631
 H610 H 0.52363 0.72243 0.86613
 C611 C 0.54507 0.73023 0.84482
 H612 H 0.55266 0.71618 0.84596
 Zn613 Zn 0.49594 0.75599 0.87010
 N614 N 0.51865 0.75119 0.85498
 C615 C 0.51759 0.78718 0.88739
 N616 N 0.50023 0.77721 0.88715
 C617 C 0.48550 0.78162 0.89967
 C618 C 0.48764 0.79700 0.91272
 C619 C 0.52042 0.80261 0.90032
 C620 C 0.47028 0.74855 0.83929
 C621 C 0.45464 0.75205 0.82656
 C622 C 0.44894 0.78335 0.84201
 C623 C 0.46469 0.77925 0.85443
 N624 N 0.47478 0.76193 0.85309
 H625 H 0.52929 0.78318 0.87763
 H626 H 0.47200 0.77317 0.89943
 H627 H 0.47575 0.80028 0.92259
 H628 H 0.53421 0.81058 0.90015
 H629 H 0.47879 0.73506 0.83829
 H630 H 0.45129 0.74120 0.81569
 H631 H 0.44080 0.79700 0.84365
 H632 H 0.46875 0.78994 0.86515
 C633 C 0.55131 0.74469 0.83167
 C634 C 0.48202 0.70172 0.90940
 C635 C 0.44363 0.76959 0.82792
 C636 C 0.50527 0.80777 0.91311
 C637 C 0.15118 0.21437 0.22673
 C638 C 0.13524 0.21708 0.23916
 C639 C 0.13821 0.21774 0.25913
 C640 C 0.15742 0.21519 0.26652
 C641 C 0.17333 0.21218 0.25409
 C642 C 0.17036 0.21183 0.23409
 C643 C 0.12097 0.22037 0.27188
 C644 C 0.12201 0.22984 0.28872
 C645 C 0.10467 0.23272 0.30129
 C646 C 0.10344 0.24975 0.31256
 C647 C 0.08728 0.25285 0.32465
 C648 C 0.07227 0.23873 0.32601
 C649 C 0.07366 0.22150 0.31500
 C650 C 0.08967 0.21854 0.30268
 H651 H 0.14851 0.21393 0.21137
 H652 H 0.12055 0.21881 0.23317
 H653 H 0.16013 0.21513 0.28187
 H654 H 0.18799 0.21025 0.26009
 H655 H 0.10679 0.21533 0.26669
 H656 H 0.13573 0.23671 0.29297
 H657 H 0.11492 0.26078 0.31186
 H658 H 0.08665 0.26615 0.33317
 H659 H 0.06227 0.21040 0.31579
 H660 H 0.09044 0.20501 0.29454
 C661 C 0.65553 0.72772 0.72278
 C662 C 0.63915 0.73224 0.73414
 C663 C 0.64041 0.73141 0.75428
 C664 C 0.65862 0.72641 0.76289
 C665 C 0.67501 0.72193 0.75152
 C666 C 0.67364 0.72246 0.73134
 C667 C 0.62265 0.73640 0.76574
 C668 C 0.61956 0.72948 0.78363
 C669 C 0.60183 0.73398 0.79543
 C670 C 0.60200 0.72826 0.81490
 C671 C 0.58569 0.73181 0.82666
 C672 C 0.56874 0.74116 0.81923
 C673 C 0.56849 0.74690 0.79977
 C674 C 0.58478 0.74331 0.78797
 H675 H 0.65393 0.72808 0.70727
 H676 H 0.62536 0.73618 0.72714
 H677 H 0.66043 0.72633 0.77835
 H678 H 0.68888 0.71839 0.75855
 H679 H 0.61173 0.74566 0.75877
 H680 H 0.63050 0.71982 0.79011
 H681 H 0.61485 0.72104 0.82108
 H682 H 0.58642 0.72739 0.84165
 H683 H 0.55550 0.75383 0.79356
 H684 H 0.58361 0.74762 0.77303
 C685 C 0.32131 0.76382 0.73759
 C686 C 0.33803 0.76065 0.74903
 C687 C 0.34910 0.77658 0.75589
 C688 C 0.34315 0.79587 0.75079
 C689 C 0.32637 0.79902 0.73939
 C690 C 0.31528 0.78304 0.73267
 C691 C 0.36680 0.77226 0.76790
 C692 C 0.37607 0.78562 0.77880
 C693 C 0.39354 0.78089 0.79092
 C694 C 0.40648 0.79614 0.79582
 C695 C 0.42286 0.79245 0.80760
 C696 C 0.42656 0.77343 0.81493
 C697 C 0.41354 0.75816 0.81012
 C698 C 0.39717 0.76184 0.79831
 H699 H 0.31295 0.75121 0.73278
 H700 H 0.34226 0.74566 0.75265
 H701 H 0.35147 0.80861 0.75517
 H702 H 0.32226 0.81398 0.73551
 H703 H 0.37224 0.75724 0.76777
 H704 H 0.37102 0.80075 0.77888
 H705 H 0.40397 0.81096 0.79042
 H706 H 0.43271 0.80449 0.81087
 H707 H 0.41571 0.74345 0.81590
 H708 H 0.38718 0.74983 0.79549
 C709 C -0.16783 0.25726 0.23977
 C710 C -0.15245 0.25403 0.25286
 C711 C -0.14524 0.26939 0.26422
 C712 C -0.15410 0.28810 0.26247
 C713 C -0.16945 0.29141 0.24934
 C714 C -0.17666 0.27609 0.23758
 C715 C -0.12888 0.26503 0.27792
 C716 C -0.11748 0.27887 0.28596
 C717 C -0.10087 0.27445 0.29937
 C718 C -0.08683 0.28918 0.30271
 C719 C -0.07100 0.28584 0.31527
 C720 C -0.06886 0.26764 0.32481
 C721 C -0.08297 0.25293 0.32165
 C722 C -0.09889 0.25631 0.30919
 H723 H -0.17316 0.24459 0.23202
 H724 H -0.14619 0.23935 0.25415
 H725 H -0.14943 0.30031 0.27126
 H726 H -0.17503 0.30632 0.24808
 H727 H -0.12566 0.24964 0.28066
 H728 H -0.11964 0.29416 0.28200
 H729 H -0.08802 0.30333 0.29547
 H730 H -0.06027 0.29741 0.31732
 H731 H -0.08189 0.23890 0.32912
 H732 H -0.10967 0.24476 0.30765
 C733 C -0.17149 0.73191 0.26224
 C734 C -0.15518 0.73574 0.25056
 C735 C -0.14311 0.72030 0.24402
 C736 C -0.14742 0.70089 0.24991
 C737 C -0.16377 0.69706 0.26151
 C738 C -0.17606 0.71250 0.26769
 C739 C -0.12609 0.72512 0.23145
 C740 C -0.11707 0.71194 0.22008
 C741 C -0.10015 0.71677 0.20745
 C742 C -0.08733 0.70150 0.20200
 C743 C -0.07142 0.70520 0.18981
 C744 C -0.06807 0.72428 0.18257
 C745 C -0.08100 0.73957 0.18789
 C746 C -0.09690 0.73587 0.20017
 H747 H -0.18076 0.74409 0.26672
 H748 H -0.15212 0.75083 0.24640
 H749 H -0.13814 0.68859 0.24592
 H750 H -0.16668 0.68201 0.26587
 H751 H -0.12109 0.74024 0.23148
 H752 H -0.12195 0.69681 0.22000
 H753 H -0.08956 0.68664 0.20733
 H754 H -0.06161 0.69314 0.18621
 H755 H -0.07908 0.75434 0.18224
 H756 H -0.10682 0.74792 0.20347
 C757 C 0.33288 0.18930 0.76234
 C758 C 0.34888 0.19257 0.75013
 C759 C 0.35769 0.21115 0.74888
 C760 C 0.35039 0.22638 0.76054
 C761 C 0.33434 0.22318 0.77273
 C762 C 0.32510 0.20457 0.77385
 C763 C 0.37464 0.21376 0.73561
 C764 C 0.38099 0.23136 0.72932
 C765 C 0.39762 0.23392 0.71567
 C766 C 0.39946 0.25207 0.70603
 C767 C 0.41486 0.25527 0.69308
 C768 C 0.42881 0.24037 0.68948
 C769 C 0.42715 0.22228 0.69924
 C770 C 0.41183 0.21910 0.71230
 H771 H 0.32725 0.17444 0.76312
 H772 H 0.35442 0.18043 0.74161
 H773 H 0.35702 0.24083 0.76050
 H774 H 0.32887 0.23572 0.78066
 H775 H 0.38138 0.20045 0.73016
 H776 H 0.37319 0.24458 0.73351
 H777 H 0.38884 0.26379 0.70841
 H778 H 0.41570 0.26932 0.68566
 H779 H 0.43795 0.21068 0.69704
 H780 H 0.41149 0.20516 0.71988
 C781 C 0.68410 0.29181 0.74059
 C782 C 0.66871 0.28840 0.72762
 C783 C 0.65033 0.28189 0.73415
 C784 C 0.64771 0.27834 0.75389
 C785 C 0.66317 0.28132 0.76685
 C786 C 0.68170 0.28822 0.76051
 C787 C 0.63438 0.27825 0.72009
 C788 C 0.61537 0.28186 0.72405
 C789 C 0.59933 0.27825 0.71007
 C790 C 0.58278 0.29076 0.70990
 C791 C 0.56719 0.28745 0.69713
 C792 C 0.56768 0.27127 0.68466
 C793 C 0.58411 0.25857 0.68500
 C794 C 0.59988 0.26209 0.69750
 H795 H 0.69813 0.29639 0.73474
 H796 H 0.67114 0.29095 0.71241
 H797 H 0.63376 0.27297 0.75931
 H798 H 0.66020 0.27887 0.78196
 H799 H 0.63852 0.27347 0.70581
 H800 H 0.61146 0.28863 0.73761
 H801 H 0.58198 0.30317 0.71959
 H802 H 0.55456 0.29731 0.69725
 H803 H 0.58476 0.24598 0.67551
 H804 H 0.61225 0.25193 0.69764
 C805 C 0.16932 0.80565 0.25609
 C806 C 0.15328 0.80242 0.24384
 C807 C 0.14834 0.78326 0.23810
 C808 C 0.16011 0.76737 0.24459
 C809 C 0.17611 0.77061 0.25688
 C810 C 0.18085 0.78976 0.26280
 C811 C 0.13122 0.78065 0.22499
 C812 C 0.12171 0.76351 0.22273
 C813 C 0.10472 0.76099 0.20951
 C814 C 0.10071 0.74209 0.20246
 C815 C 0.08481 0.73898 0.19002
 C816 C 0.07239 0.75470 0.18450
 C817 C 0.07620 0.77358 0.19180
 C818 C 0.09215 0.77671 0.20420
 H819 H 0.17253 0.82056 0.26054
 H820 H 0.14457 0.81494 0.23897
 H821 H 0.15737 0.75244 0.24000
 H822 H 0.18501 0.75813 0.26151
 H823 H 0.12626 0.79354 0.21706
 H824 H 0.12661 0.75054 0.23053
 H825 H 0.11008 0.72971 0.20641
 H826 H 0.08241 0.72430 0.18451
 H827 H 0.06664 0.78590 0.18819
 H828 H 0.09426 0.79134 0.20988
 C829 C 0.22332 0.15463 0.22145
 C830 C 0.23637 0.13892 0.22463
 C831 C 0.25673 0.14122 0.22177
 C832 C 0.26373 0.15962 0.21531
 C833 C 0.25066 0.17533 0.21214
 C834 C 0.23031 0.17303 0.21520
 C835 C 0.26988 0.12394 0.22520
 C836 C 0.28950 0.12513 0.22764
 C837 C 0.30240 0.10770 0.23104
 C838 C 0.32241 0.10893 0.22609
 C839 C 0.33514 0.09293 0.22916
 C840 C 0.32816 0.07539 0.23750
 C841 C 0.30818 0.07424 0.24273
 C842 C 0.29543 0.09021 0.23958
 H843 H 0.20769 0.15226 0.22361
 H844 H 0.23052 0.12490 0.22940
 H845 H 0.27918 0.16200 0.21235
 H846 H 0.25652 0.18936 0.20741
 H847 H 0.26288 0.10967 0.22584
 H848 H 0.29671 0.13927 0.22684
 H849 H 0.32821 0.12230 0.21971
 H850 H 0.35053 0.09439 0.22527
 H851 H 0.30236 0.06090 0.24913
 H852 H 0.28027 0.08886 0.24419
 C853 C 0.72540 0.66250 0.72506
 C854 C 0.73780 0.64665 0.72976
 C855 C 0.75834 0.64825 0.72782
 C856 C 0.76629 0.66633 0.72161
 C857 C 0.75388 0.68218 0.71692
 C858 C 0.73330 0.68041 0.71845
 C859 C 0.77090 0.63093 0.73270
 C860 C 0.78894 0.62800 0.72527
 C861 C 0.80156 0.61054 0.72955
 C862 C 0.82176 0.61161 0.72526
 C863 C 0.83421 0.59541 0.72841
 C864 C 0.82672 0.57768 0.73585
 C865 C 0.80651 0.57656 0.74017
 C866 C 0.79403 0.59275 0.73700
 H867 H 0.70959 0.66063 0.72626
 H868 H 0.73130 0.63296 0.73465
 H869 H 0.78206 0.66847 0.72065
 H870 H 0.76043 0.69594 0.71233
 H871 H 0.76466 0.62011 0.74237
 H872 H 0.79496 0.63884 0.71546
 H873 H 0.82797 0.62506 0.71946
 H874 H 0.84975 0.59682 0.72512
 H875 H 0.80023 0.56297 0.74555
 H876 H 0.77849 0.59098 0.73994
 C877 C 0.76201 0.32187 0.78373
 C878 C 0.77559 0.33705 0.78097
 C879 C 0.76939 0.35561 0.77418
 C880 C 0.74917 0.35875 0.77042
 C881 C 0.73560 0.34357 0.77319
 C882 C 0.74186 0.32497 0.77989
 C883 C 0.78427 0.37142 0.77205
 C884 C 0.78186 0.38719 0.76049
 C885 C 0.79646 0.40333 0.75873
 C886 C 0.79004 0.42165 0.75150
 C887 C 0.80317 0.43735 0.74966
 C888 C 0.82309 0.43506 0.75491
 C889 C 0.82962 0.41665 0.76186
 C890 C 0.81651 0.40092 0.76368
 H891 H 0.76730 0.30766 0.78878
 H892 H 0.79103 0.33426 0.78410
 H893 H 0.74362 0.37301 0.76586
 H894 H 0.72011 0.34655 0.77055
 H895 H 0.79768 0.36976 0.78039
 H896 H 0.76845 0.38873 0.75212
 H897 H 0.77473 0.42390 0.74748
 H898 H 0.79764 0.45140 0.74442
 H899 H 0.84498 0.41430 0.76561
 H900 H 0.82230 0.38690 0.76862
 C901 C 0.24365 -0.16512 0.26201
 C902 C 0.25679 -0.14978 0.25834
 C903 C 0.26780 -0.14135 0.27323
 C904 C 0.26563 -0.14894 0.29197
 C905 C 0.25242 -0.16424 0.29572
 C906 C 0.24104 -0.17269 0.28084
 C907 C 0.28159 -0.12510 0.26840
 C908 C 0.28955 -0.11294 0.28144
 C909 C 0.30312 -0.09651 0.27657
 C910 C 0.30666 -0.08209 0.29055
 C911 C 0.31940 -0.06641 0.28681
 C912 C 0.32891 -0.06479 0.26896
 C913 C 0.32554 -0.07925 0.25498
 C914 C 0.31291 -0.09502 0.25876
 H915 H 0.23624 -0.17143 0.24974
 H916 H 0.25840 -0.14451 0.24368
 H917 H 0.27412 -0.14332 0.30390
 H918 H 0.25080 -0.16877 0.31056
 H919 H 0.28451 -0.12272 0.25328
 H920 H 0.28543 -0.11436 0.29639
 H921 H 0.29945 -0.08288 0.30442
 H922 H 0.32161 -0.05540 0.29781
 H923 H 0.33298 -0.07855 0.24122
 H924 H 0.31125 -0.10607 0.24776
 C925 C 0.23285 -0.18200 0.71274
 C926 C 0.21924 -0.16718 0.71715
 C927 C 0.22509 -0.15029 0.72708
 C928 C 0.24485 -0.14877 0.73305
 C929 C 0.25850 -0.16362 0.72875
 C930 C 0.25286 -0.18053 0.71833
 C931 C 0.21004 -0.13493 0.73118
 C932 C 0.21438 -0.11596 0.73442
 C933 C 0.19926 -0.10045 0.73780
 C934 C 0.20499 -0.08302 0.74699
 C935 C 0.19139 -0.06780 0.75005
 C936 C 0.17174 -0.06961 0.74383
 C937 C 0.16600 -0.08700 0.73452
 C938 C 0.17959 -0.10222 0.73147
 H939 H 0.22727 -0.19493 0.70556
 H940 H 0.20402 -0.16892 0.71268
 H941 H 0.24990 -0.13625 0.74121
 H942 H 0.27365 -0.16124 0.73303
 H943 H 0.19479 -0.13955 0.73098
 H944 H 0.22963 -0.11135 0.73464
 H945 H 0.22009 -0.08116 0.75180
 H946 H 0.19637 -0.05446 0.75697
 H947 H 0.15094 -0.08888 0.72964
 H948 H 0.17463 -0.11508 0.72378
 C949 C 0.74409 0.31198 0.21221
 C950 C 0.73069 0.32753 0.21422
 C951 C 0.73702 0.34608 0.22048
 C952 C 0.75719 0.34880 0.22458
 C953 C 0.77062 0.33323 0.22252
 C954 C 0.76424 0.31467 0.21623
 C955 C 0.72229 0.36227 0.22169
 C956 C 0.72446 0.37818 0.23287
 C957 C 0.70977 0.39447 0.23393
 C958 C 0.71583 0.41270 0.24128
 C959 C 0.70256 0.42849 0.24257
 C960 C 0.68287 0.42637 0.23657
 C961 C 0.67670 0.40808 0.22946
 C962 C 0.68993 0.39227 0.22825
 H963 H 0.73867 0.29780 0.20757
 H964 H 0.71528 0.32505 0.21090
 H965 H 0.76281 0.36301 0.22882
 H966 H 0.78610 0.33585 0.22536
 H967 H 0.70912 0.36069 0.21304
 H968 H 0.73766 0.37963 0.24153
 H969 H 0.73095 0.41480 0.24588
 H970 H 0.70778 0.44245 0.24800
 H971 H 0.66150 0.40589 0.22516
 H972 H 0.68433 0.37834 0.22320
 C973 C 0.77316 0.65309 0.27552
 C974 C 0.76120 0.63717 0.27065
 C975 C 0.74058 0.63864 0.27194
 C976 C 0.73212 0.65659 0.27790
 C977 C 0.74409 0.67254 0.28272
 C978 C 0.76475 0.67097 0.28160
 C979 C 0.72855 0.62139 0.26640
 C980 C 0.71025 0.61814 0.27301
 C981 C 0.69816 0.60074 0.26784
 C982 C 0.67779 0.60142 0.27143
 C983 C 0.66581 0.58530 0.26725
 C984 C 0.67396 0.56805 0.25941
 C985 C 0.69434 0.56730 0.25583
 C986 C 0.70635 0.58339 0.26007
 H987 H 0.78903 0.65133 0.27469
 H988 H 0.76809 0.62357 0.26602
 H989 H 0.71629 0.65859 0.27843
 H990 H 0.73716 0.68626 0.28694
 H991 H 0.73540 0.61092 0.25682
 H992 H 0.70361 0.62866 0.28271
 H993 H 0.67109 0.61451 0.27747
 H994 H 0.65013 0.58638 0.27002
 H995 H 0.70110 0.55405 0.25018
 H996 H 0.72201 0.58185 0.25764
 C997 C 0.27160 0.14838 0.78317
 C998 C 0.25847 0.13326 0.77880
 C999 C 0.23808 0.13592 0.78116
 C1000 C 0.23101 0.15424 0.78768
 C1001 C 0.24416 0.16942 0.79199
 C1002 C 0.26461 0.16665 0.78981
 C1003 C 0.22477 0.11945 0.77612
 C1004 C 0.20672 0.11712 0.78368
 C1005 C 0.19348 0.10043 0.77900
 C1006 C 0.17333 0.10219 0.78336
 C1007 C 0.16032 0.08678 0.77954
 C1008 C 0.16720 0.06919 0.77129
 C1009 C 0.18737 0.06734 0.76704
 C1010 C 0.20040 0.08270 0.77093
 H1011 H 0.28727 0.14571 0.78152
 H1012 H 0.26429 0.11933 0.77372
 H1013 H 0.21537 0.15714 0.78906
 H1014 H 0.23829 0.18346 0.79667
 H1015 H 0.23047 0.10875 0.76608
 H1016 H 0.20119 0.12787 0.79379
 H1017 H 0.16759 0.11560 0.78968
 H1018 H 0.14483 0.08868 0.78287
 H1019 H 0.19318 0.05378 0.76109
 H1020 H 0.21587 0.08031 0.76796
 C1021 C 0.19242 0.23875 0.16491
 C1022 C 0.19525 0.25166 0.14943
 C1023 C 0.21432 0.25725 0.14393
 C1024 C 0.23057 0.24995 0.15448
 C1025 C 0.22773 0.23715 0.17005
 C1026 C 0.20863 0.23136 0.17545
 C1027 C 0.21670 0.27126 0.12768
 C1028 C 0.23285 0.27170 0.11657
 C1029 C 0.23526 0.28570 0.10032
 C1030 C 0.24744 0.28037 0.08491
 C1031 C 0.25036 0.29332 0.06947
 C1032 C 0.24137 0.31206 0.06924
 C1033 C 0.22934 0.31748 0.08482
 C1034 C 0.22631 0.30446 0.10019
 H1035 H 0.17752 0.23442 0.16853
 H1036 H 0.18249 0.25717 0.14159
 H1037 H 0.24545 0.25447 0.15108
 H1038 H 0.24051 0.23213 0.17813
 H1039 H 0.20431 0.28082 0.12424
 H1040 H 0.24438 0.26080 0.11878
 H1041 H 0.25459 0.26605 0.08472
 H1042 H 0.25950 0.28855 0.05761
 H1043 H 0.22257 0.33195 0.08534
 H1044 H 0.21736 0.30933 0.11213
 C1045 C 0.72221 0.72667 0.65658
 C1046 C 0.72626 0.73774 0.64004
 C1047 C 0.72381 0.75828 0.63993
 C1048 C 0.71761 0.76763 0.65692
 C1049 C 0.71360 0.75657 0.67348
 C1050 C 0.71581 0.73596 0.67350
 C1051 C 0.72846 0.76941 0.62209
 C1052 C 0.72037 0.78699 0.61771
 C1053 C 0.72475 0.79843 0.59993
 C1054 C 0.71912 0.81837 0.59921
 C1055 C 0.72264 0.82980 0.58281
 C1056 C 0.73182 0.82153 0.56664
 C1057 C 0.73740 0.80157 0.56725
 C1058 C 0.73383 0.79009 0.58365
 H1059 H 0.72387 0.71081 0.65606
 H1060 H 0.73114 0.73018 0.62721
 H1061 H 0.71625 0.78350 0.65768
 H1062 H 0.70914 0.76420 0.68641
 H1063 H 0.73863 0.76249 0.61223
 H1064 H 0.70999 0.79356 0.62762
 H1065 H 0.71205 0.82520 0.61147
 H1066 H 0.71836 0.84520 0.58286
 H1067 H 0.74416 0.79470 0.55487
 H1068 H 0.73790 0.77469 0.58322
 C1069 C 0.77406 0.71992 0.34127
 C1070 C 0.76986 0.73165 0.35723
 C1071 C 0.77230 0.75215 0.35636
 C1072 C 0.77858 0.76079 0.33896
 C1073 C 0.78273 0.74907 0.32300
 C1074 C 0.78061 0.72849 0.32398
 C1075 C 0.76762 0.76400 0.37364
 C1076 C 0.77575 0.78161 0.37719
 C1077 C 0.77135 0.79376 0.39438
 C1078 C 0.77669 0.81372 0.39403
 C1079 C 0.77313 0.82580 0.40986
 C1080 C 0.76419 0.81818 0.42651
 C1081 C 0.75894 0.79818 0.42697
 C1082 C 0.76254 0.78606 0.41115
 H1083 H 0.77246 0.70410 0.34257
 H1084 H 0.76492 0.72464 0.37039
 H1085 H 0.77991 0.77660 0.33744
 H1086 H 0.78731 0.75615 0.30975
 H1087 H 0.75741 0.75761 0.38380
 H1088 H 0.78615 0.78768 0.36699
 H1089 H 0.78355 0.82005 0.38138
 H1090 H 0.77716 0.84120 0.40896
 H1091 H 0.75238 0.79180 0.43975
 H1092 H 0.75873 0.77067 0.41239
 C1093 C 0.27955 0.21437 -0.15070
 C1094 C 0.27647 0.22633 -0.13468
 C1095 C 0.27990 0.24669 -0.13572
 C1096 C 0.28612 0.25494 -0.15331
 C1097 C 0.28914 0.24297 -0.16934
 C1098 C 0.28593 0.22255 -0.16822
 C1099 C 0.27609 0.25885 -0.11845
 C1100 C 0.28490 0.27620 -0.11522
 C1101 C 0.28097 0.28873 -0.09819
 C1102 C 0.28647 0.30864 -0.09897
 C1103 C 0.28298 0.32111 -0.08341
 C1104 C 0.27395 0.31393 -0.06663
 C1105 C 0.26873 0.29394 -0.06567
 C1106 C 0.27227 0.28144 -0.08121
 H1107 H 0.27713 0.19866 -0.14931
 H1108 H 0.27155 0.21963 -0.12136
 H1109 H 0.28821 0.27064 -0.15494
 H1110 H 0.29363 0.24978 -0.18276
 H1111 H 0.26578 0.25298 -0.10809
 H1112 H 0.29534 0.28180 -0.12562
 H1113 H 0.29330 0.31464 -0.11179
 H1114 H 0.28704 0.33648 -0.08465
 H1115 H 0.26215 0.28788 -0.05276
 H1116 H 0.26842 0.26609 -0.07961
 C1117 C 0.69964 0.26510 -0.16796
 C1118 C 0.70130 0.25274 -0.15187
 C1119 C 0.71973 0.24514 -0.14614
 C1120 C 0.73652 0.25004 -0.15703
 C1121 C 0.73485 0.26242 -0.17311
 C1122 C 0.71640 0.27005 -0.17878
 C1123 C 0.72058 0.23160 -0.12928
 C1124 C 0.73712 0.22767 -0.11925
 C1125 C 0.73798 0.21372 -0.10274
 C1126 C 0.75622 0.20511 -0.09788
 C1127 C 0.75777 0.19185 -0.08249
 C1128 C 0.74112 0.18701 -0.07146
 C1129 C 0.72290 0.19585 -0.07612
 C1130 C 0.72133 0.20911 -0.09154
 H1131 H 0.68524 0.27088 -0.17189
 H1132 H 0.68812 0.24914 -0.14383
 H1133 H 0.75091 0.24399 -0.15362
 H1134 H 0.74795 0.26564 -0.18141
 H1135 H 0.70689 0.22468 -0.12511
 H1136 H 0.75085 0.23452 -0.12339
 H1137 H 0.76929 0.20848 -0.10619
 H1138 H 0.77199 0.18516 -0.07939
 H1139 H 0.70989 0.19278 -0.06763
 H1140 H 0.70715 0.21595 -0.09432
 C1141 C 0.20304 0.76545 0.33296
 C1142 C 0.20545 0.75290 0.34880
 C1143 C 0.22415 0.74541 0.35374
 C1144 C 0.24045 0.75061 0.34229
 C1145 C 0.23803 0.76320 0.32643
 C1146 C 0.21930 0.77073 0.32158
 C1147 C 0.22573 0.73176 0.37047
 C1148 C 0.24263 0.72778 0.37989
 C1149 C 0.24392 0.71397 0.39649
 C1150 C 0.26215 0.70501 0.40074
 C1151 C 0.26404 0.69185 0.41620
 C1152 C 0.24772 0.68747 0.42787
 C1153 C 0.22955 0.69672 0.42386
 C1154 C 0.22766 0.70988 0.40840
 H1155 H 0.18845 0.77117 0.32968
 H1156 H 0.19263 0.74908 0.35729
 H1157 H 0.25502 0.74469 0.34513
 H1158 H 0.25076 0.76669 0.31769
 H1159 H 0.21221 0.72485 0.37515
 H1160 H 0.25624 0.73449 0.37521
 H1161 H 0.27494 0.70801 0.39190
 H1162 H 0.27820 0.68486 0.41883
 H1163 H 0.21683 0.69403 0.43288
 H1164 H 0.21355 0.71705 0.40614
 C1165 C 0.25552 0.75780 0.67102
 C1166 C 0.25255 0.74614 0.65477
 C1167 C 0.26834 0.74138 0.64260
 C1168 C 0.28718 0.74892 0.64681
 C1169 C 0.29014 0.76056 0.66307
 C1170 C 0.27437 0.76508 0.67539
 C1171 C 0.26441 0.72902 0.62548
 C1172 C 0.27838 0.71849 0.61646
 C1173 C 0.27451 0.70609 0.59936
 C1174 C 0.29037 0.70130 0.58730
 C1175 C 0.28755 0.68944 0.57118
 C1176 C 0.26878 0.68194 0.56683
 C1177 C 0.25291 0.68658 0.57898
 C1178 C 0.25572 0.69846 0.59511
 H1179 H 0.24310 0.76093 0.68031
 H1180 H 0.23788 0.74066 0.65180
 H1181 H 0.29961 0.74628 0.63746
 H1182 H 0.30473 0.76635 0.66583
 H1183 H 0.24930 0.72850 0.62044
 H1184 H 0.29347 0.71899 0.62152
 H1185 H 0.30500 0.70689 0.59028
 H1186 H 0.30005 0.68631 0.56199
 H1187 H 0.23836 0.68068 0.57624
 H1188 H 0.24322 0.70117 0.60438
 C1189 C 0.80460 0.25213 0.16643
 C1190 C 0.80244 0.24008 0.15033
 C1191 C 0.78375 0.23334 0.14472
 C1192 C 0.76724 0.23856 0.15589
 C1193 C 0.76940 0.25063 0.17196
 C1194 C 0.78808 0.25760 0.17737
 C1195 C 0.78225 0.22054 0.12754
 C1196 C 0.76551 0.21803 0.11749
 C1197 C 0.76401 0.20518 0.10036
 C1198 C 0.74542 0.19782 0.09524
 C1199 C 0.74323 0.18580 0.07914
 C1200 C 0.75958 0.18101 0.06766
 C1201 C 0.77816 0.18859 0.07262
 C1202 C 0.78037 0.20059 0.08876
 H1203 H 0.81916 0.25740 0.17017
 H1204 H 0.81542 0.23618 0.14209
 H1205 H 0.75267 0.23311 0.15259
 H1206 H 0.75647 0.25428 0.18037
 H1207 H 0.79562 0.21314 0.12302
 H1208 H 0.75211 0.22538 0.12197
 H1209 H 0.73256 0.20123 0.10385
 H1210 H 0.72875 0.18005 0.07582
 H1211 H 0.79096 0.18554 0.06382
 H1212 H 0.79482 0.20654 0.09176
 C1213 C 0.48868 0.42164 0.49045
 C1214 C 0.49174 0.40692 0.50430
 C1215 C 0.47578 0.39640 0.51197
 C1216 C 0.45660 0.40080 0.50526
 C1217 C 0.45355 0.41557 0.49143
 C1218 C 0.46955 0.42613 0.48388
 C1219 C 0.47998 0.38066 0.52638
 C1220 C 0.46637 0.37270 0.53802
 C1221 C 0.47093 0.35674 0.55203
 C1222 C 0.45583 0.34382 0.55749
 C1223 C 0.45957 0.32841 0.57045
 C1224 C 0.47850 0.32571 0.57841
 C1225 C 0.49351 0.33895 0.57330
 C1226 C 0.48978 0.35433 0.56031
 H1227 H 0.50129 0.42965 0.48502
 H1228 H 0.50666 0.40380 0.50911
 H1229 H 0.44390 0.39270 0.51023
 H1230 H 0.43869 0.41845 0.48634
 H1231 H 0.49510 0.37549 0.52732
 H1232 H 0.45116 0.37750 0.53710
 H1233 H 0.44115 0.34546 0.55144
 H1234 H 0.44773 0.31837 0.57394
 H1235 H 0.50811 0.33756 0.57955
 H1236 H 0.50161 0.36444 0.55707
 C1237 C -0.06090 0.90242 -0.00499
 C1238 C -0.05780 0.88701 0.00812
 C1239 C -0.03876 0.88258 0.01498
 C1240 C -0.02285 0.89418 0.00862
 C1241 C -0.02596 0.90956 -0.00453
 C1242 C -0.04500 0.91384 -0.01149
 C1243 C -0.03635 0.86618 0.02906
 C1244 C -0.01910 0.85707 0.03274
 C1245 C -0.01684 0.84072 0.04685
 C1246 C 0.00185 0.83714 0.05493
 C1247 C 0.00477 0.82174 0.06809
 C1248 C -0.01094 0.80941 0.07334
 C1249 C -0.02963 0.81285 0.06511
 C1250 C -0.03256 0.82828 0.05197
 H1251 H -0.07572 0.90529 -0.01021
 H1252 H -0.07033 0.87842 0.01284
 H1253 H -0.00805 0.89182 0.01400
 H1254 H -0.01350 0.91840 -0.00896
 H1255 H -0.04951 0.86144 0.03652
 H1256 H -0.00587 0.86178 0.02544
 H1257 H 0.01423 0.84642 0.05117
 H1258 H 0.01930 0.81961 0.07431
 H1259 H -0.04192 0.80333 0.06851
 H1260 H -0.04702 0.83004 0.04555
 C1261 C 0.02807 0.58671 -0.02330
 C1262 C 0.02439 0.60261 -0.01113
 C1263 C 0.02778 0.60095 0.00875
 C1264 C 0.03461 0.58283 0.01628
 C1265 C 0.03827 0.56692 0.00410
 C1266 C 0.03507 0.56868 -0.01583
 C1267 C 0.02336 0.61815 0.02111
 C1268 C 0.03171 0.62097 0.03841
 C1269 C 0.02728 0.63808 0.05092
 C1270 C 0.03183 0.63662 0.07060
 C1271 C 0.02805 0.65235 0.08297
 C1272 C 0.01972 0.66997 0.07591
 C1273 C 0.01537 0.67156 0.05617
 C1274 C 0.01918 0.65586 0.04378
 H1275 H 0.02563 0.58859 -0.03861
 H1276 H 0.01901 0.61634 -0.01729
 H1277 H 0.03672 0.58066 0.03158
 H1278 H 0.04322 0.55308 0.01033
 H1279 H 0.01298 0.62888 0.01543
 H1280 H 0.04215 0.61022 0.04395
 H1281 H 0.03818 0.62318 0.07648
 H1282 H 0.03142 0.65061 0.09813
 H1283 H 0.00936 0.68512 0.05023
 H1284 H 0.01611 0.65796 0.02864
 C1285 C 0.55457 0.09514 0.49583
 C1286 C 0.55181 0.11044 0.50892
 C1287 C 0.53291 0.11506 0.51586
 C1288 C 0.51676 0.10380 0.50950
 C1289 C 0.51954 0.08853 0.49634
 C1290 C 0.53846 0.08403 0.48938
 C1291 C 0.53095 0.13133 0.52996
 C1292 C 0.51377 0.13999 0.53465
 C1293 C 0.51218 0.15616 0.54882
 C1294 C 0.49420 0.15896 0.55841
 C1295 C 0.49195 0.17415 0.57171
 C1296 C 0.50760 0.18706 0.57558
 C1297 C 0.52555 0.18441 0.56581
 C1298 C 0.52782 0.16917 0.55254
 H1299 H 0.56931 0.09211 0.49060
 H1300 H 0.56453 0.11878 0.51360
 H1301 H 0.50201 0.10631 0.51482
 H1302 H 0.50690 0.07996 0.49190
 H1303 H 0.54442 0.13633 0.53670
 H1304 H 0.50014 0.13500 0.52828
 H1305 H 0.48189 0.14922 0.55573
 H1306 H 0.47799 0.17567 0.57912
 H1307 H 0.53773 0.19438 0.56812
 H1308 H 0.54167 0.16799 0.54494
 C1309 C -0.04158 0.06899 0.49453
 C1310 C -0.03899 0.08422 0.48116
 C1311 C -0.03354 0.10312 0.48720
 C1312 C -0.03110 0.10660 0.50701
 C1313 C -0.03374 0.09138 0.52039
 C1314 C -0.03899 0.07239 0.51431
 C1315 C -0.03123 0.11890 0.47252
 C1316 C -0.01968 0.13469 0.47507
 C1317 C -0.01723 0.15081 0.46070
 C1318 C -0.00854 0.16845 0.46679
 C1319 C -0.00576 0.18408 0.45391
 C1320 C -0.01156 0.18242 0.43457
 C1321 C -0.02013 0.16474 0.42839
 C1322 C -0.02287 0.14907 0.44125
 H1323 H -0.04540 0.05448 0.48937
 H1324 H -0.04107 0.08118 0.46601
 H1325 H -0.02764 0.12112 0.51234
 H1326 H -0.03206 0.09456 0.53555
 H1327 H -0.03918 0.11704 0.45916
 H1328 H -0.01158 0.13611 0.48843
 H1329 H -0.00399 0.17023 0.48163
 H1330 H 0.00070 0.19758 0.45917
 H1331 H -0.02441 0.16291 0.41348
 H1332 H -0.02906 0.13562 0.43568
 C1333 C 0.47046 0.59900 1.02034
 C1334 C 0.47366 0.61520 1.00828
 C1335 C 0.46999 0.61399 0.98845
 C1336 C 0.46323 0.59605 0.98085
 C1337 C 0.46007 0.57981 0.99292
 C1338 C 0.46368 0.58109 1.01280
 C1339 C 0.47416 0.63147 0.97623
 C1340 C 0.46577 0.63475 0.95897
 C1341 C 0.47007 0.65221 0.94673
 C1342 C 0.46575 0.65131 0.92698
 C1343 C 0.46958 0.66735 0.91486
 C1344 C 0.47776 0.68472 0.92225
 C1345 C 0.48180 0.68578 0.94206
 C1346 C 0.47792 0.66977 0.95419
 H1347 H 0.47317 0.60054 1.03562
 H1348 H 0.47895 0.62879 1.01450
 H1349 H 0.46086 0.59426 0.96557
 H1350 H 0.45524 0.56610 0.98663
 H1351 H 0.48447 0.64203 0.98199
 H1352 H 0.45545 0.62415 0.95327
 H1353 H 0.45958 0.63805 0.92086
 H1354 H 0.46642 0.66605 0.89964
 H1355 H 0.48767 0.69914 0.94824
 H1356 H 0.48076 0.67148 0.96940
 C1357 C 0.55263 0.92086 1.00248
 C1358 C 0.55051 0.90515 0.98975
 C1359 C 0.53240 0.89552 0.98775
 C1360 C 0.51645 0.90171 0.99915
 C1361 C 0.51849 0.91746 1.01185
 C1362 C 0.53662 0.92749 1.01379
 C1363 C 0.53101 0.87885 0.97405
 C1364 C 0.51390 0.87205 0.96699
 C1365 C 0.51242 0.85554 0.95312
 C1366 C 0.49463 0.85312 0.94302
 C1367 C 0.49233 0.83767 0.93002
 C1368 C 0.50780 0.82424 0.92682
 C1369 C 0.52559 0.82654 0.93696
 C1370 C 0.52787 0.84192 0.95006
 H1371 H 0.56718 0.92715 1.00383
 H1372 H 0.56317 0.90047 0.98143
 H1373 H 0.50233 0.89441 0.99852
 H1374 H 0.50544 0.92205 1.01956
 H1375 H 0.54480 0.87269 0.96903
 H1376 H 0.50024 0.87934 0.97078
 H1377 H 0.48245 0.86328 0.94513
 H1378 H 0.47850 0.83636 0.92230
 H1379 H 0.53762 0.81617 0.93505
 H1380 H 0.54160 0.84274 0.95796
 C1381 C 0.05675 0.42117 0.50735
 C1382 C 0.05462 0.40513 0.49502
 C1383 C 0.03592 0.39967 0.48820
 C1384 C 0.01936 0.41093 0.49371
 C1385 C 0.02150 0.42693 0.50609
 C1386 C 0.04020 0.43219 0.51309
 C1387 C 0.03450 0.38253 0.47509
 C1388 C 0.01773 0.37269 0.47170
 C1389 C 0.01643 0.35564 0.45853
 C1390 C -0.00188 0.35128 0.45015
 C1391 C -0.00389 0.33524 0.43781
 C1392 C 0.01236 0.32301 0.43374
 C1393 C 0.03067 0.32722 0.44231
 C1394 C 0.03270 0.34332 0.45460
 H1395 H 0.07134 0.42481 0.51261
 H1396 H 0.06764 0.39683 0.49093
 H1397 H 0.00476 0.40779 0.48829
 H1398 H 0.00854 0.43542 0.50994
 H1399 H 0.04798 0.37785 0.46812
 H1400 H 0.00415 0.37730 0.47849
 H1401 H -0.01466 0.36046 0.45301
 H1402 H -0.01814 0.33256 0.43128
 H1403 H 0.04336 0.31783 0.43981
 H1404 H 0.04689 0.34573 0.46131
 C1405 C 0.41966 0.48986 0.44275
 C1406 C 0.40418 0.50340 0.44466
 C1407 C 0.39966 0.51153 0.46265
 C1408 C 0.41127 0.50611 0.47870
 C1409 C 0.42674 0.49256 0.47678
 C1410 C 0.43107 0.48425 0.45881
 C1411 C 0.38318 0.52594 0.46389
 C1412 C 0.37348 0.52990 0.48024
 C1413 C 0.35701 0.54432 0.48155
 C1414 C 0.35249 0.55229 0.49960
 C1415 C 0.33696 0.56574 0.50164
 C1416 C 0.32546 0.57141 0.48566
 C1417 C 0.32984 0.56330 0.46760
 C1418 C 0.34538 0.54984 0.46555
 H1419 H 0.42256 0.48360 0.42874
 H1420 H 0.39558 0.50741 0.43205
 H1421 H 0.40883 0.51256 0.49268
 H1422 H 0.43557 0.48887 0.48932
 H1423 H 0.37885 0.53329 0.45067
 H1424 H 0.37780 0.52253 0.49345
 H1425 H 0.36112 0.54822 0.51218
 H1426 H 0.33409 0.57187 0.51571
 H1427 H 0.32097 0.56704 0.45510
 H1428 H 0.34786 0.54353 0.45152
 C1429 C 0.89881 -0.03369 -0.02363
 C1430 C 0.88294 -0.02075 -0.02106
 C1431 C 0.88394 -0.00119 -0.02751
 C1432 C 0.90104 0.00509 -0.03708
 C1433 C 0.91691 -0.00783 -0.03977
 C1434 C 0.91622 -0.02752 -0.03301
 C1435 C 0.86666 0.01193 -0.02453
 C1436 C 0.86796 0.03163 -0.02352
 C1437 C 0.85079 0.04495 -0.02053
 C1438 C 0.85275 0.06496 -0.02536
 C1439 C 0.83707 0.07813 -0.02276
 C1440 C 0.81906 0.07161 -0.01512
 C1441 C 0.81715 0.05163 -0.01005
 C1442 C 0.83283 0.03845 -0.01264
 H1443 H 0.89690 -0.04875 -0.01886
 H1444 H 0.86978 -0.02608 -0.01395
 H1445 H 0.90222 0.01991 -0.04276
 H1446 H 0.92996 -0.00192 -0.04655
 H1447 H 0.85252 0.00485 -0.02280
 H1448 H 0.88221 0.03856 -0.02512
 H1449 H 0.86646 0.07043 -0.03126
 H1450 H 0.83914 0.09349 -0.02650
 H1451 H 0.80343 0.04611 -0.00422
 H1452 H 0.83079 0.02333 -0.00814
 C1453 C 0.56724 0.00914 0.03579
 C1454 C 0.58199 0.02313 0.03277
 C1455 C 0.60084 0.01735 0.02659
 C1456 C 0.60476 -0.00283 0.02383
 C1457 C 0.59003 -0.01681 0.02690
 C1458 C 0.57109 -0.01100 0.03289
 C1459 C 0.61615 0.03266 0.02395
 C1460 C 0.63168 0.03050 0.01219
 C1461 C 0.64745 0.04541 0.00977
 C1462 C 0.66549 0.03939 0.00178
 C1463 C 0.68091 0.05275 -0.00063
 C1464 C 0.67861 0.07253 0.00481
 C1465 C 0.66047 0.07869 0.01252
 C1466 C 0.64501 0.06534 0.01490
 H1467 H 0.55275 0.01412 0.04023
 H1468 H 0.57862 0.03855 0.03513
 H1469 H 0.61929 -0.00798 0.01979
 H1470 H 0.59358 -0.03225 0.02497
 H1471 H 0.61425 0.04613 0.03197
 H1472 H 0.63328 0.01702 0.00409
 H1473 H 0.66777 0.02419 -0.00239
 H1474 H 0.69477 0.04750 -0.00644
 H1475 H 0.65813 0.09394 0.01648
 H1476 H 0.63119 0.07085 0.02047
 C1477 C 0.07414 0.51238 0.53954
 C1478 C 0.08954 0.52571 0.53681
 C1479 C 0.10702 0.51990 0.52771
 C1480 C 0.10897 0.50026 0.52169
 C1481 C 0.09359 0.48689 0.52436
 C1482 C 0.07577 0.49264 0.53332
 C1483 C 0.12300 0.53458 0.52537
 C1484 C 0.13739 0.53305 0.51222
 C1485 C 0.15353 0.54757 0.51008
 C1486 C 0.17118 0.54147 0.50137
 C1487 C 0.18682 0.55458 0.49904
 C1488 C 0.18510 0.57420 0.50521
 C1489 C 0.16732 0.58042 0.51365
 C1490 C 0.15167 0.56730 0.51601
 H1491 H 0.06071 0.51803 0.54585
 H1492 H 0.08765 0.54076 0.54161
 H1493 H 0.12251 0.49488 0.51538
 H1494 H 0.09625 0.47181 0.52013
 H1495 H 0.12264 0.54716 0.53485
 H1496 H 0.13777 0.52048 0.50274
 H1497 H 0.17297 0.52641 0.49658
 H1498 H 0.20039 0.54926 0.49268
 H1499 H 0.16539 0.59556 0.51816
 H1500 H 0.13809 0.57282 0.52212
 C1501 C 0.09528 0.51947 -0.03176
 C1502 C 0.11196 0.50766 -0.02869
 C1503 C 0.11059 0.48700 -0.02875
 C1504 C 0.09195 0.47842 -0.03190
 C1505 C 0.07530 0.49027 -0.03513
 C1506 C 0.07678 0.51089 -0.03502
 C1507 C 0.12882 0.47527 -0.02492
 C1508 C 0.13036 0.45569 -0.02733
 C1509 C 0.14862 0.44410 -0.02328
 C1510 C 0.15009 0.42493 -0.03066
 C1511 C 0.16679 0.41328 -0.02704
 C1512 C 0.18247 0.42052 -0.01589
 C1513 C 0.18097 0.43965 -0.00839
 C1514 C 0.16423 0.45127 -0.01191
 H1515 H 0.09688 0.53534 -0.03175
 H1516 H 0.12604 0.51473 -0.02624
 H1517 H 0.08991 0.46265 -0.03157
 H1518 H 0.06113 0.48329 -0.03730
 H1519 H 0.14164 0.48347 -0.02043
 H1520 H 0.11803 0.44761 -0.03311
 H1521 H 0.13824 0.41890 -0.03926
 H1522 H 0.16726 0.39848 -0.03274
 H1523 H 0.19283 0.44576 0.00014
 H1524 H 0.16360 0.46567 -0.00540
 C1525 C 0.59383 1.03100 0.47750
 C1526 C 0.60956 1.01786 0.48017
 C1527 C 0.60853 0.99851 0.47335
 C1528 C 0.59121 0.99245 0.46398
 C1529 C 0.57546 1.00557 0.46125
 C1530 C 0.57638 1.02518 0.46795
 C1531 C 0.62557 0.98511 0.47692
 C1532 C 0.62901 0.96855 0.46697
 C1533 C 0.64607 0.95529 0.47082
 C1534 C 0.64472 0.93542 0.46551
 C1535 C 0.66041 0.92238 0.46898
 C1536 C 0.67787 0.92899 0.47772
 C1537 C 0.67938 0.94898 0.48266
 C1538 C 0.66371 0.96201 0.47919
 H1539 H 0.59590 1.04596 0.48235
 H1540 H 0.62273 1.02295 0.48743
 H1541 H 0.58942 0.97745 0.45917
 H1542 H 0.56223 0.99981 0.45466
 H1543 H 0.63570 0.98933 0.48820
 H1544 H 0.61888 0.96414 0.45577
 H1545 H 0.63138 0.92989 0.45889
 H1546 H 0.65873 0.90704 0.46512
 H1547 H 0.69283 0.95463 0.48895
 H1548 H 0.66569 0.97735 0.48278
 C1549 C 0.92442 0.99495 0.54554
 C1550 C 0.90892 0.98168 0.54314
 C1551 C 0.89183 0.98715 0.53300
 C1552 C 0.89034 1.00645 0.52567
 C1553 C 0.90583 1.01975 0.52800
 C1554 C 0.92330 1.01429 0.53790
 C1555 C 0.87586 0.97243 0.53082
 C1556 C 0.86193 0.97345 0.51707
 C1557 C 0.84610 0.95863 0.51478
 C1558 C 0.82873 0.96422 0.50510
 C1559 C 0.81354 0.95070 0.50228
 C1560 C 0.81545 0.93116 0.50890
 C1561 C 0.83292 0.92549 0.51846
 C1562 C 0.84811 0.93903 0.52132
 H1563 H 0.93757 0.98951 0.55269
 H1564 H 0.91047 0.96690 0.54898
 H1565 H 0.87709 1.01162 0.51852
 H1566 H 0.90352 1.03459 0.52266
 H1567 H 0.87593 0.96017 0.54084
 H1568 H 0.86178 0.98570 0.50705
 H1569 H 0.82683 0.97917 0.49983
 H1570 H 0.80019 0.95562 0.49507
 H1571 H 0.83502 0.91045 0.52337
 H1572 H 0.86152 0.93390 0.52822
 C1573 C 0.40558 0.52968 0.02908
 C1574 C 0.38945 0.51726 0.02629
 C1575 C 0.39181 0.49668 0.02677
 C1576 C 0.41085 0.48879 0.02990
 C1577 C 0.42694 0.50123 0.03284
 C1578 C 0.42448 0.52179 0.03243
 C1579 C 0.37419 0.48419 0.02331
 C1580 C 0.37342 0.46482 0.02738
 C1581 C 0.35595 0.45215 0.02379
 C1582 C 0.35598 0.43301 0.03162
 C1583 C 0.34019 0.42029 0.02841
 C1584 C 0.32388 0.42637 0.01728
 C1585 C 0.32381 0.44551 0.00941
 C1586 C 0.33967 0.45822 0.01250
 H1587 H 0.40323 0.54548 0.02882
 H1588 H 0.37503 0.52379 0.02379
 H1589 H 0.41362 0.47310 0.02973
 H1590 H 0.44144 0.49476 0.03503
 H1591 H 0.36125 0.49165 0.01773
 H1592 H 0.38595 0.45774 0.03421
 H1593 H 0.36835 0.42781 0.04020
 H1594 H 0.34094 0.40553 0.03441
 H1595 H 0.31142 0.45075 0.00090
 H1596 H 0.33903 0.47259 0.00576
 C1597 C 0.51005 0.45622 0.42466
 C1598 C 0.52275 0.45759 0.40892
 C1599 C 0.51540 0.46206 0.39050
 C1600 C 0.49492 0.46465 0.38804
 C1601 C 0.48220 0.46323 0.40377
 C1602 C 0.48963 0.45908 0.42227
 C1603 C 0.52949 0.46341 0.37427
 C1604 C 0.52597 0.47404 0.35826
 C1605 C 0.54012 0.47588 0.34209
 C1606 C 0.53300 0.48242 0.32415
 C1607 C 0.54579 0.48483 0.30859
 C1608 C 0.56605 0.48083 0.31065
 C1609 C 0.57323 0.47435 0.32860
 C1610 C 0.56047 0.47199 0.34418
 H1611 H 0.51625 0.45318 0.43875
 H1612 H 0.53844 0.45541 0.41120
 H1613 H 0.48856 0.46737 0.37397
 H1614 H 0.46649 0.46506 0.40141
 H1615 H 0.54336 0.45566 0.37600
 H1616 H 0.51208 0.48184 0.35672
 H1617 H 0.51745 0.48563 0.32214
 H1618 H 0.53978 0.48969 0.29489
 H1619 H 0.58884 0.47156 0.33072
 H1620 H 0.56678 0.46760 0.35786
 C1621 C -0.01775 -0.06412 0.91920
 C1622 C -0.00497 -0.06127 0.90370
 C1623 C 0.00141 -0.04229 0.89864
 C1624 C -0.00496 -0.02619 0.90975
 C1625 C -0.01778 -0.02904 0.92523
 C1626 C -0.02437 -0.04801 0.93008
 C1627 C 0.01501 -0.04009 0.88207
 C1628 C 0.01764 -0.02310 0.87243
 C1629 C 0.03125 -0.02097 0.85589
 C1630 C 0.03860 -0.00219 0.85150
 C1631 C 0.05131 0.00060 0.83594
 C1632 C 0.05682 -0.01534 0.82426
 C1633 C 0.04927 -0.03412 0.82850
 C1634 C 0.03658 -0.03692 0.84410
 H1635 H -0.02270 -0.07890 0.92251
 H1636 H -0.00020 -0.07395 0.89550
 H1637 H 0.00013 -0.01140 0.90689
 H1638 H -0.02231 -0.01641 0.93361
 H1639 H 0.02295 -0.05317 0.87762
 H1640 H 0.00981 -0.00997 0.87684
 H1641 H 0.03465 0.01036 0.86027
 H1642 H 0.05703 0.01521 0.83321
 H1643 H 0.05286 -0.04661 0.81952
 H1644 H 0.03068 -0.05150 0.84653
 C1645 C -0.01027 0.05363 0.58376
 C1646 C 0.00251 0.05161 0.59948
 C1647 C 0.00783 0.03288 0.60646
 C1648 C 0.00056 0.01612 0.59704
 C1649 C -0.01208 0.01812 0.58122
 C1650 C -0.01778 0.03690 0.57446
 C1651 C 0.02134 0.03131 0.62320
 C1652 C 0.02078 0.01625 0.63576
 C1653 C 0.03398 0.01472 0.65274
 C1654 C 0.02750 0.00431 0.66900
 C1655 C 0.03965 0.00224 0.68517
 C1656 C 0.05874 0.01029 0.68533
 C1657 C 0.06529 0.02056 0.66893
 C1658 C 0.05306 0.02277 0.65281
 H1659 H -0.01451 0.06830 0.57908
 H1660 H 0.00803 0.06474 0.60642
 H1661 H 0.00490 0.00145 0.60163
 H1662 H -0.01719 0.00494 0.57410
 H1663 H 0.03119 0.04352 0.62580
 H1664 H 0.00953 0.00509 0.63422
 H1665 H 0.01290 -0.00210 0.66926
 H1666 H 0.03400 -0.00552 0.69763
 H1667 H 0.08005 0.02655 0.66837
 H1668 H 0.05878 0.03035 0.64029
 C1669 C 0.49461 0.55497 0.07881
 C1670 C 0.50826 0.55132 0.09352
 C1671 C 0.51353 0.53196 0.09859
 C1672 C 0.50514 0.51624 0.08837
 C1673 C 0.49160 0.51989 0.07352
 C1674 C 0.48614 0.53931 0.06858
 C1675 C 0.52819 0.52878 0.11417
 C1676 C 0.52851 0.51266 0.12542
 C1677 C 0.54269 0.51004 0.14150
 C1678 C 0.53706 0.49894 0.15763
 C1679 C 0.54995 0.49642 0.17320
 C1680 C 0.56894 0.50469 0.17283
 C1681 C 0.57473 0.51543 0.15643
 C1682 C 0.56176 0.51809 0.14094
 H1683 H 0.49054 0.57009 0.07560
 H1684 H 0.51457 0.56368 0.10114
 H1685 H 0.50933 0.50114 0.09150
 H1686 H 0.48570 0.50751 0.06567
 H1687 H 0.53823 0.54074 0.11720
 H1688 H 0.51720 0.50159 0.12371
 H1689 H 0.52248 0.49251 0.15835
 H1690 H 0.54488 0.48829 0.18567
 H1691 H 0.58940 0.52158 0.15545
 H1692 H 0.56683 0.52617 0.12844
 C1693 C 0.49472 -0.04067 0.07072
 C1694 C 0.48218 -0.03867 0.08652
 C1695 C 0.48949 -0.03234 0.10434
 C1696 C 0.50981 -0.02855 0.10618
 C1697 C 0.52237 -0.03060 0.09039
 C1698 C 0.51496 -0.03656 0.07245
 C1699 C 0.47558 -0.03034 0.12066
 C1700 C 0.47864 -0.01820 0.13555
 C1701 C 0.46474 -0.01576 0.15185
 C1702 C 0.47173 -0.00708 0.16883
 C1703 C 0.45920 -0.00412 0.18448
 C1704 C 0.43929 -0.00970 0.18350
 C1705 C 0.43221 -0.01828 0.16650
 C1706 C 0.44473 -0.02121 0.15081
 H1707 H 0.48853 -0.04514 0.05706
 H1708 H 0.46662 -0.04182 0.08474
 H1709 H 0.51619 -0.02439 0.11984
 H1710 H 0.53797 -0.02779 0.09230
 H1711 H 0.46222 -0.03892 0.11994
 H1712 H 0.49200 -0.00955 0.13601
 H1713 H 0.48702 -0.00264 0.17002
 H1714 H 0.46515 0.00236 0.19745
 H1715 H 0.41684 -0.02236 0.16517
 H1716 H 0.43846 -0.02731 0.13785
 C1717 C 0.99644 0.46737 0.56713
 C1718 C 0.98318 0.46959 0.58233
 C1719 C 0.98983 0.47516 0.60064
 C1720 C 1.01017 0.47809 0.60354
 C1721 C 1.02344 0.47584 0.58834
 C1722 C 1.01672 0.47051 0.56995
 C1723 C 0.97521 0.47707 0.61637
 C1724 C 0.97809 0.48819 0.63202
 C1725 C 0.96360 0.49011 0.64789
 C1726 C 0.97028 0.49678 0.66583
 C1727 C 0.95723 0.49896 0.68120
 C1728 C 0.93711 0.49460 0.67895
 C1729 C 0.93034 0.48812 0.66096
 C1730 C 0.94338 0.48597 0.64556
 H1731 H 0.99080 0.46338 0.55309
 H1732 H 0.96762 0.46711 0.57973
 H1733 H 1.01603 0.48164 0.61757
 H1734 H 1.03903 0.47788 0.59107
 H1735 H 0.96154 0.46911 0.61466
 H1736 H 0.99176 0.49619 0.63358
 H1737 H 0.98573 0.50018 0.66801
 H1738 H 0.96294 0.50381 0.69494
 H1739 H 0.91484 0.48506 0.65868
 H1740 H 0.93740 0.48148 0.63185
 C1741 C 0.99441 0.52891 0.93088
 C1742 C 0.98132 0.52563 0.91568
 C1743 C 0.98832 0.52053 0.89737
 C1744 C 1.00881 0.51819 0.89476
 C1745 C 1.02191 0.52150 0.90997
 C1746 C 1.01488 0.52706 0.92815
 C1747 C 0.97374 0.51763 0.88165
 C1748 C 0.97829 0.51818 0.86287
 C1749 C 0.96350 0.51585 0.84728
 C1750 C 0.96990 0.50917 0.82926
 C1751 C 0.95657 0.50719 0.81402
 C1752 C 0.93656 0.51210 0.81640
 C1753 C 0.93016 0.51899 0.83437
 C1754 C 0.94347 0.52088 0.84965
 H1755 H 0.98850 0.53282 0.94481
 H1756 H 0.96563 0.52730 0.91819
 H1757 H 1.01490 0.51366 0.88113
 H1758 H 1.03760 0.52000 0.90740
 H1759 H 0.95857 0.51536 0.88589
 H1760 H 0.99341 0.52027 0.85845
 H1761 H 0.98527 0.50544 0.82698
 H1762 H 0.96201 0.50216 0.80026
 H1763 H 0.91482 0.52285 0.83663
 H1764 H 0.93805 0.52668 0.86311
 C1765 C 0.49662 0.04967 0.43339
 C1766 C 0.48361 0.04735 0.41794
 C1767 C 0.49066 0.04213 0.39969
 C1768 C 0.51113 0.03977 0.39708
 C1769 C 0.52414 0.04214 0.41252
 C1770 C 0.51703 0.04702 0.43088
 C1771 C 0.47632 0.03988 0.38371
 C1772 C 0.47966 0.02840 0.36838
 C1773 C 0.46551 0.02581 0.35222
 C1774 C 0.47248 0.01743 0.33510
 C1775 C 0.45980 0.01443 0.31952
 C1776 C 0.43976 0.01969 0.32072
 C1777 C 0.43270 0.02797 0.33786
 C1778 C 0.44537 0.03092 0.35348
 H1779 H 0.49068 0.05330 0.44738
 H1780 H 0.46794 0.04941 0.42030
 H1781 H 0.51724 0.03651 0.38309
 H1782 H 0.53983 0.04050 0.41001
 H1783 H 0.46248 0.04773 0.38505
 H1784 H 0.49349 0.02042 0.36742
 H1785 H 0.48787 0.01327 0.33371
 H1786 H 0.46572 0.00818 0.30644
 H1787 H 0.41725 0.03181 0.33934
 H1788 H 0.43911 0.03683 0.36652
   
