data_POSCAR
  _audit_creation_date              2014-09-24
  _audit_creation_method            'ToBaCCo'
  _symmetry_space_group_name_H-M    'P1'
  _symmetry_Int_Tables_number       1
  _symmetry_cell_setting            triclinic
  loop_
  _symmetry_equiv_pos_as_xyz
 x,y,z
_cell_length_a 54.8284
_cell_length_b 54.8172
_cell_length_c 55.4270
_cell_angle_alpha 87.512400
_cell_angle_beta 87.589900
_cell_angle_gamma 87.549300
loop_
  _atom_site_label
  _atom_site_type_symbol
  _atom_site_fract_x
  _atom_site_fract_y
  _atom_site_fract_z
C1 C 0.79095 0.63632 1.00657
 C2 C 0.79764 0.61952 0.98558
 C3 C 0.77902 0.60596 0.97888
 C4 C 0.75555 0.60945 0.99469
 C5 C 0.76792 0.65102 0.99874
 C6 C 0.74947 0.63702 0.99231
 C7 C 0.78198 0.61858 1.02688
 C8 C 0.76324 0.60482 1.02093
 H9 H 0.81550 0.61838 0.97660
 H10 H 0.74050 0.59793 0.98986
 H11 H 0.76706 0.67078 0.99689
 H12 H 0.78901 0.61783 1.04485
 C13 C 0.78802 0.36142 0.47708
 C14 C 0.79323 0.37746 0.49803
 C15 C 0.77413 0.39246 0.50519
 C16 C 0.75097 0.38969 0.49089
 C17 C 0.76538 0.34754 0.48624
 C18 C 0.74580 0.36223 0.49315
 C19 C 0.77861 0.37928 0.45725
 C20 C 0.75926 0.39402 0.46427
 H21 H 0.81052 0.37643 0.50687
 H22 H 0.73551 0.40213 0.49652
 H23 H 0.76507 0.32791 0.48847
 H24 H 0.78575 0.37900 0.43873
 C25 C 0.29151 -0.14188 -0.01378
 C26 C 0.29583 -0.12533 0.00531
 C27 C 0.27536 -0.10924 0.01152
 C28 C 0.25399 -0.11348 -0.00275
 C29 C 0.27022 -0.15502 -0.00464
 C30 C 0.24907 -0.13962 0.00120
 C31 C 0.28309 -0.12639 -0.03389
 C32 C 0.26227 -0.11065 -0.02828
 H33 H 0.31136 -0.12804 0.01670
 H34 H 0.23815 -0.10136 0.00138
 H35 H 0.27147 -0.17421 0.00078
 H36 H 0.29299 -0.12575 -0.05122
 C37 C 0.28307 0.13897 0.50788
 C38 C 0.28784 0.11988 0.48862
 C39 C 0.26828 0.10637 0.48454
 C40 C 0.24549 0.11306 0.50040
 C41 C 0.26067 0.15413 0.49884
 C42 C 0.24102 0.14060 0.49475
 C43 C 0.27349 0.12459 0.53025
 C44 C 0.25396 0.11094 0.52661
 H45 H 0.30443 0.11917 0.47730
 H46 H 0.22982 0.10165 0.49718
 H47 H 0.26077 0.17344 0.49420
 H48 H 0.28109 0.12605 0.54783
 C49 C 0.14910 0.50723 0.29103
 C50 C 0.13154 0.48649 0.29609
 C51 C 0.11811 0.48129 0.27701
 C52 C 0.12304 0.49791 0.25443
 C53 C 0.16440 0.49921 0.26848
 C54 C 0.15071 0.49440 0.24934
 C55 C 0.13307 0.52889 0.28186
 C56 C 0.11963 0.52434 0.26261
 H57 H 0.13129 0.47561 0.31288
 H58 H 0.11194 0.49375 0.23897
 H59 H 0.18403 0.49667 0.26762
 H60 H 0.13327 0.54671 0.28953
 C61 C -0.13955 -0.01974 0.28340
 C62 C -0.12369 0.00184 0.28776
 C63 C -0.10864 0.00834 0.26865
 C64 C -0.11129 -0.00719 0.24640
 C65 C -0.15348 -0.01128 0.26072
 C66 C -0.13876 -0.00498 0.24111
 C67 C -0.12257 -0.03905 0.27548
 C68 C -0.10699 -0.03256 0.25502
 H69 H -0.12478 0.01153 0.30441
 H70 H -0.09891 -0.00127 0.23123
 H71 H -0.17311 -0.00884 0.26050
 H72 H -0.12384 -0.05760 0.28283
 C73 C 0.36170 0.48034 0.78765
 C74 C 0.38054 0.49921 0.79231
 C75 C 0.39531 0.50519 0.77282
 C76 C 0.38965 0.49185 0.74992
 C77 C 0.34777 0.49179 0.76615
 C78 C 0.36221 0.49745 0.74618
 C79 C 0.37661 0.45872 0.77726
 C80 C 0.39114 0.46452 0.75752
 H81 H 0.38128 0.50799 0.80939
 H82 H 0.40175 0.49650 0.73403
 H83 H 0.32845 0.49646 0.76694
 H84 H 0.37548 0.44029 0.78497
 C85 C 0.63968 1.00224 0.78367
 C86 C 0.62110 0.98253 0.78932
 C87 C 0.60671 0.97835 0.77071
 C88 C 0.61235 0.99443 0.74778
 C89 C 0.65406 0.99302 0.76103
 C90 C 0.63986 0.98910 0.74187
 C91 C 0.62552 1.02357 0.77521
 C92 C 0.61056 1.01973 0.75531
 H93 H 0.62089 0.97133 0.80592
 H94 H 0.59975 0.99073 0.73354
 H95 H 0.67324 0.98784 0.76103
 H96 H 0.62865 1.04152 0.78159
 C97 C -0.02074 0.29010 -0.13721
 C98 C -0.00029 0.29579 -0.12062
 C99 C 0.00673 0.27691 -0.10538
 C100 C -0.00722 0.25350 -0.10844
 C101 C -0.01060 0.26744 -0.15041
 C102 C -0.00387 0.24807 -0.13547
 C103 C -0.04123 0.28054 -0.12018
 C104 C -0.03435 0.26140 -0.10519
 H105 H 0.00845 0.31318 -0.12152
 H106 H -0.00172 0.23825 -0.09577
 H107 H -0.00763 0.26696 -0.16974
 H108 H -0.06000 0.28738 -0.12123
 C109 C 0.50296 0.28667 0.14009
 C110 C 0.48477 0.29186 0.12011
 C111 C 0.48102 0.27243 0.10651
 C112 C 0.49608 0.24921 0.11414
 C113 C 0.49243 0.26462 0.15460
 C114 C 0.48905 0.24467 0.14123
 C115 C 0.52613 0.27643 0.12723
 C116 C 0.52276 0.25684 0.11375
 H117 H 0.47385 0.30877 0.11861
 H118 H 0.49365 0.23379 0.10243
 H119 H 0.48598 0.26566 0.17318
 H120 H 0.54382 0.28411 0.12894
 C121 C 1.00350 0.79287 0.64796
 C122 C 0.98578 0.79982 0.62968
 C123 C 0.98003 0.78047 0.61442
 C124 C 0.99474 0.75796 0.61980
 C125 C 0.99419 0.77118 0.66076
 C126 C 0.98897 0.75178 0.64539
 C127 C 1.02481 0.78431 0.63378
 C128 C 1.02054 0.76464 0.61851
 H129 H 0.98075 0.81865 0.62504
 H130 H 0.99171 0.74279 0.60826
 H131 H 0.98927 0.77093 0.67989
 H132 H 1.04167 0.79396 0.63278
 C133 C 0.47886 0.78838 0.35888
 C134 C 0.49994 0.79362 0.37495
 C135 C 0.50735 0.77438 0.38959
 C136 C 0.49302 0.75123 0.38671
 C137 C 0.48827 0.76588 0.34505
 C138 C 0.49586 0.74643 0.35948
 C139 C 0.45886 0.77871 0.37634
 C140 C 0.46603 0.75951 0.39108
 H141 H 0.50891 0.81089 0.37394
 H142 H 0.49909 0.73576 0.39885
 H143 H 0.48925 0.76518 0.32564
 H144 H 0.44025 0.78621 0.37638
 C145 C 0.37769 -0.00734 0.26928
 H146 H 0.37628 0.00991 0.27810
 C147 C 0.39160 -0.02690 0.27923
 H148 H 0.40103 -0.02473 0.29575
 C149 C 0.36653 -0.03157 0.23738
 H150 H 0.35636 -0.03350 0.22135
 C151 C 0.38024 -0.05158 0.24673
 H152 H 0.38073 -0.06879 0.23778
 N153 N 0.36560 -0.00996 0.24865
 C154 C 0.35413 0.06353 0.21674
 H155 H 0.33458 0.06402 0.21470
 C156 C 0.36764 0.08363 0.20895
 H157 H 0.35848 0.09970 0.20090
 C158 C 0.39006 0.04193 0.22950
 H159 H 0.39880 0.02556 0.23721
 C160 C 0.40425 0.06163 0.22194
 H161 H 0.42382 0.06043 0.22403
 Zn162 Zn 0.34580 0.01687 0.23726
 N163 N 0.36542 0.04334 0.22708
 C164 C 0.32501 0.04863 0.27213
 N165 N 0.32442 0.02582 0.26345
 C166 C 0.31123 0.00814 0.27523
 C167 C 0.29855 0.01291 0.29707
 C168 C 0.31253 0.05418 0.29377
 C169 C 0.34277 0.00417 0.18979
 C170 C 0.33234 -0.00370 0.16915
 C171 C 0.29303 -0.00321 0.19062
 C172 C 0.30424 0.00476 0.21096
 N173 N 0.32878 0.00784 0.21026
 H174 H 0.33608 0.06225 0.26296
 H175 H 0.31155 -0.01001 0.26826
 H176 H 0.28891 -0.00152 0.30685
 H177 H 0.31386 0.07212 0.30097
 H178 H 0.36220 0.00689 0.18973
 H179 H 0.34377 -0.00710 0.15313
 H180 H 0.27361 -0.00623 0.19140
 H181 H 0.29344 0.00801 0.22736
 C182 C 0.39290 0.08270 0.21169
 C183 C 0.39283 -0.04922 0.26787
 C184 C 0.30731 -0.00768 0.16961
 C185 C 0.29957 0.03605 0.30660
 C186 C 0.08503 1.03435 0.79248
 H187 H 0.08460 1.01652 0.80163
 C188 C 0.07193 1.05421 0.80236
 H189 H 0.06124 1.05170 0.81910
 C190 C 0.10027 1.05972 0.76001
 H191 H 0.11180 1.06197 0.74387
 C192 C 0.08745 1.08003 0.76925
 H193 H 0.08897 1.09778 0.76004
 N194 N 0.09882 1.03742 0.77166
 C195 C 0.11063 0.96540 0.74197
 H196 H 0.13031 0.96532 0.73947
 C197 C 0.09787 0.94560 0.73497
 H198 H 0.10773 0.93019 0.72700
 C199 C 0.07370 0.98575 0.75517
 H200 H 0.06438 1.00155 0.76280
 C201 C 0.06019 0.96625 0.74837
 H202 H 0.04048 0.96702 0.75086
 Zn203 Zn 0.11812 1.01041 0.76059
 N204 N 0.09849 0.98483 0.75208
 C205 C 0.13604 0.97634 0.79598
 N206 N 0.13827 0.99936 0.78615
 C207 C 0.15339 1.01527 0.79552
 C208 C 0.16729 1.00805 0.81540
 C209 C 0.14957 0.96842 0.81580
 C210 C 0.12403 1.02590 0.71235
 C211 C 0.13622 1.03270 0.69065
 C212 C 0.17460 1.02604 0.71031
 C213 C 0.16166 1.01934 0.73171
 N214 N 0.13680 1.01967 0.73239
 H215 H 0.12344 0.96418 0.78884
 H216 H 0.15443 1.03364 0.78769
 H217 H 0.17926 1.02078 0.82280
 H218 H 0.14759 0.95008 0.82353
 H219 H 0.10429 1.02566 0.71333
 H220 H 0.12586 1.03784 0.67487
 H221 H 0.19438 1.02594 0.70991
 H222 H 0.17149 1.01386 0.74767
 C223 C 0.07246 0.94598 0.73825
 C224 C 0.07328 1.07728 0.79068
 C225 C 0.16173 1.03285 0.68963
 C226 C 0.16527 0.98440 0.82564
 C227 C 0.58267 0.53463 0.28076
 H228 H 0.58141 0.51668 0.28952
 C229 C 0.57037 0.55477 0.29099
 H230 H 0.55943 0.55233 0.30759
 C231 C 0.59943 0.56004 0.24908
 H232 H 0.61133 0.56217 0.23317
 C233 C 0.58745 0.58063 0.25870
 H234 H 0.58992 0.59847 0.24999
 N235 N 0.59691 0.53760 0.26021
 C236 C 0.60844 0.46562 0.23025
 H237 H 0.62817 0.46532 0.22847
 C238 C 0.59577 0.44614 0.22241
 H239 H 0.60576 0.43075 0.21456
 C240 C 0.57130 0.48628 0.24235
 H241 H 0.56190 0.50211 0.24987
 C242 C 0.55786 0.46709 0.23468
 H243 H 0.53810 0.46810 0.23640
 Zn244 Zn 0.61588 0.51028 0.24932
 N245 N 0.59615 0.48507 0.24016
 C246 C 0.63275 0.47587 0.28505
 N247 N 0.63533 0.49886 0.27523
 C248 C 0.65039 0.51465 0.28486
 C249 C 0.66381 0.50738 0.30503
 C250 C 0.64582 0.46789 0.30517
 C251 C 0.62324 0.52601 0.20128
 C252 C 0.63614 0.53204 0.17976
 C253 C 0.67385 0.52358 0.20019
 C254 C 0.66022 0.51769 0.22139
 N255 N 0.63536 0.51921 0.22158
 H256 H 0.62020 0.46380 0.27765
 H257 H 0.65171 0.53299 0.27701
 H258 H 0.67569 0.52006 0.31265
 H259 H 0.64354 0.44961 0.31293
 H260 H 0.60347 0.52667 0.20187
 H261 H 0.62631 0.53755 0.16373
 H262 H 0.69363 0.52242 0.20014
 H263 H 0.66951 0.51172 0.23754
 C264 C 0.57028 0.44685 0.22465
 C265 C 0.57298 0.57800 0.27996
 C266 C 0.66167 0.53083 0.17920
 C267 C 0.66141 0.48380 0.31530
 C268 C 0.88601 0.49351 0.76350
 H269 H 0.88425 0.51089 0.77208
 C270 C 0.89955 0.47409 0.77419
 H271 H 0.90839 0.47652 0.79098
 C272 C 0.87566 0.46868 0.73175
 H273 H 0.86581 0.46642 0.71558
 C274 C 0.88902 0.44879 0.74184
 H275 H 0.88959 0.43137 0.73329
 N276 N 0.87438 0.49049 0.74268
 C277 C 0.86031 0.56362 0.71063
 H278 H 0.84088 0.56304 0.70814
 C279 C 0.87277 0.58456 0.70339
 H280 H 0.86294 0.60019 0.69529
 C281 C 0.89692 0.54397 0.72420
 H282 H 0.90631 0.52806 0.73212
 C283 C 0.91009 0.56457 0.71721
 H284 H 0.92955 0.56450 0.71990
 Zn285 Zn 0.85386 0.51669 0.73113
 N286 N 0.87240 0.54401 0.72116
 C287 C 0.83143 0.54768 0.76579
 N288 N 0.83204 0.52476 0.75724
 C289 C 0.81984 0.50643 0.76914
 C290 C 0.80704 0.51066 0.79104
 C291 C 0.81876 0.55270 0.78746
 C292 C 0.85117 0.50341 0.68368
 C293 C 0.84071 0.49539 0.66310
 C294 C 0.80148 0.49572 0.68473
 C295 C 0.81270 0.50381 0.70498
 N296 N 0.83721 0.50709 0.70416
 H297 H 0.84172 0.56185 0.75652
 H298 H 0.82110 0.48824 0.76224
 H299 H 0.79828 0.49575 0.80097
 H300 H 0.81920 0.57077 0.79458
 H301 H 0.87056 0.50633 0.68352
 H302 H 0.85209 0.49205 0.64703
 H303 H 0.78208 0.49264 0.68558
 H304 H 0.80193 0.50711 0.72138
 C305 C 0.89785 0.58509 0.70687
 C306 C 0.90089 0.45149 0.76334
 C307 C 0.81571 0.49129 0.66368
 C308 C 0.80690 0.53393 0.80046
 C309 C 0.26641 0.39056 -0.00775
 H310 H 0.27549 0.38919 0.00924
 C311 C 0.27659 0.40396 -0.02737
 H312 H 0.29353 0.41306 -0.02551
 C313 C 0.23383 0.37946 -0.03135
 H314 H 0.21753 0.36939 -0.03304
 C315 C 0.24340 0.39266 -0.05142
 H316 H 0.23433 0.39288 -0.06842
 N317 N 0.24541 0.37865 -0.01006
 C318 C 0.21490 0.36603 0.06311
 H319 H 0.21271 0.34650 0.06318
 C320 C 0.20787 0.37901 0.08355
 H321 H 0.20025 0.36949 0.09947
 C322 C 0.22749 0.40236 0.04226
 H323 H 0.23491 0.41143 0.02608
 C324 C 0.22068 0.41605 0.06233
 H325 H 0.22306 0.43559 0.06160
 Zn326 Zn 0.23443 0.35861 0.01647
 N327 N 0.22485 0.37775 0.04315
 C328 C 0.27054 0.33730 0.04669
 N329 N 0.26111 0.33710 0.02438
 C330 C 0.27247 0.32416 0.00641
 C331 C 0.29461 0.31126 0.01039
 C332 C 0.29252 0.32460 0.05144
 C333 C 0.18619 0.35559 0.00450
 C334 C 0.16524 0.34503 -0.00294
 C335 C 0.18710 0.30577 -0.00241
 C336 C 0.20773 0.31710 0.00511
 N337 N 0.20698 0.34167 0.00797
 H338 H 0.26171 0.34819 0.06054
 H339 H 0.26490 0.32480 -0.01133
 H340 H 0.30402 0.30176 -0.00424
 H341 H 0.30029 0.32556 0.06901
 H342 H 0.18610 0.37504 0.00707
 H343 H 0.14894 0.35638 -0.00618
 H344 H 0.18791 0.28632 -0.00522
 H345 H 0.22437 0.30636 0.00823
 C346 C 0.21095 0.40422 0.08320
 C347 C 0.26506 0.40486 -0.04943
 C348 C 0.16576 0.31996 -0.00667
 C349 C 0.30488 0.31184 0.03302
 C350 C 0.78299 0.07791 1.02946
 H351 H 0.79187 0.07747 1.01168
 C352 C 0.79333 0.06470 1.04890
 H353 H 0.81015 0.05391 1.04608
 C354 C 0.75090 0.09347 1.05522
 H355 H 0.73479 0.10523 1.05782
 C356 C 0.76061 0.08055 1.07510
 H357 H 0.75177 0.08222 1.09284
 N358 N 0.76217 0.09198 1.03295
 C359 C 0.73106 0.10631 0.96234
 H360 H 0.72894 0.12600 0.96282
 C361 C 0.72325 0.09433 0.94256
 H362 H 0.71506 0.10479 0.92774
 C363 C 0.74406 0.06859 0.98124
 H364 H 0.75194 0.05866 0.99649
 C365 C 0.73644 0.05583 0.96174
 H366 H 0.73855 0.03609 0.96194
 Zn367 Zn 0.75089 0.11208 1.00672
 N368 N 0.74143 0.09341 0.98105
 C369 C 0.78632 0.13076 0.97294
 N370 N 0.77693 0.13200 0.99600
 C371 C 0.78693 0.14623 1.01221
 C372 C 0.80696 0.16026 1.00528
 C373 C 0.80630 0.14446 0.96529
 C374 C 0.70245 0.11902 1.02310
 C375 C 0.68109 0.13175 1.03066
 C376 C 0.70209 0.16951 1.02428
 C377 C 0.72310 0.15606 1.01682
 N378 N 0.72299 0.13123 1.01670
 H379 H 0.77865 0.11886 0.96050
 H380 H 0.77943 0.14650 1.03057
 H381 H 0.81484 0.17153 1.01826
 H382 H 0.81367 0.14330 0.94692
 H383 H 0.70279 0.09931 1.02250
 H384 H 0.66494 0.12184 1.03603
 H385 H 0.70236 0.18924 1.02461
 H386 H 0.73942 0.16547 1.01117
 C387 C 0.72600 0.06888 0.94221
 C388 C 0.78212 0.06622 1.07196
 C389 C 0.68094 0.15721 1.03137
 C390 C 0.81672 0.15931 0.98160
 C391 C 0.28295 0.59015 0.53864
 H392 H 0.29187 0.58975 0.52087
 C393 C 0.29337 0.57711 0.55811
 H394 H 0.31029 0.56648 0.55534
 C395 C 0.25052 0.60528 0.56426
 H396 H 0.23417 0.61675 0.56672
 C397 C 0.26032 0.59252 0.58419
 H398 H 0.25134 0.59400 0.60188
 N399 N 0.26189 0.60386 0.54202
 C400 C 0.23080 0.61546 0.47131
 H401 H 0.22823 0.63514 0.47123
 C402 C 0.22356 0.60270 0.45181
 H403 H 0.21534 0.61254 0.43664
 C404 C 0.24453 0.57856 0.49130
 H405 H 0.25249 0.56926 0.50684
 C406 C 0.23750 0.56503 0.47210
 H407 H 0.24016 0.54532 0.47281
 Zn408 Zn 0.25031 0.62305 0.51540
 N409 N 0.24131 0.60334 0.49039
 C410 C 0.28572 0.64057 0.48117
 N411 N 0.27607 0.64302 0.50401
 C412 C 0.28591 0.65811 0.51954
 C413 C 0.30619 0.67162 0.51217
 C414 C 0.30591 0.65372 0.47310
 C415 C 0.20173 0.62927 0.53122
 C416 C 0.17983 0.64167 0.53767
 C417 C 0.19975 0.67990 0.53005
 C418 C 0.22134 0.66676 0.52371
 N419 N 0.22198 0.64189 0.52466
 H420 H 0.27820 0.62800 0.46931
 H421 H 0.27822 0.65931 0.53777
 H422 H 0.31405 0.68346 0.52465
 H423 H 0.31356 0.65149 0.45495
 H424 H 0.20268 0.60951 0.53143
 H425 H 0.16388 0.63146 0.54309
 H426 H 0.19939 0.69969 0.52946
 H427 H 0.23747 0.67644 0.51796
 C428 C 0.22703 0.57729 0.45216
 C429 C 0.28200 0.57843 0.58111
 C430 C 0.17883 0.66721 0.53712
 C431 C 0.31631 0.66928 0.48875
 C432 C 0.76730 0.88636 0.48734
 H433 H 0.77618 0.88541 0.50444
 C434 C 0.77725 0.90001 0.46776
 H435 H 0.79380 0.90972 0.46976
 C436 C 0.73544 0.87408 0.46346
 H437 H 0.71949 0.86353 0.46165
 C438 C 0.74479 0.88751 0.44343
 H439 H 0.73589 0.88739 0.42636
 N440 N 0.74674 0.87378 0.48489
 C441 C 0.71416 0.86153 0.55735
 H442 H 0.71223 0.84196 0.55752
 C443 C 0.70611 0.87466 0.57740
 H444 H 0.69796 0.86521 0.59311
 C445 C 0.72705 0.89782 0.53667
 H446 H 0.73500 0.90682 0.52069
 C447 C 0.71923 0.91165 0.55635
 H448 H 0.72133 0.93124 0.55553
 Zn449 Zn 0.73564 0.85379 0.51146
 N450 N 0.72473 0.87316 0.53765
 C451 C 0.77080 0.83355 0.54328
 N452 N 0.76257 0.83303 0.52049
 C453 C 0.77522 0.82035 0.50308
 C454 C 0.79750 0.80815 0.50816
 C455 C 0.79282 0.82152 0.54912
 C456 C 0.68785 0.84937 0.49872
 C457 C 0.66743 0.83833 0.49069
 C458 C 0.69042 0.79969 0.49098
 C459 C 0.71050 0.81150 0.49910
 N460 N 0.70894 0.83601 0.50238
 H461 H 0.76095 0.84420 0.55671
 H462 H 0.76858 0.82070 0.48496
 H463 H 0.80795 0.79893 0.49399
 H464 H 0.79960 0.82280 0.56709
 H465 H 0.68713 0.86880 0.50157
 H466 H 0.65090 0.84927 0.48733
 H467 H 0.69187 0.78031 0.48784
 H468 H 0.72739 0.80121 0.50232
 C469 C 0.70882 0.89993 0.57695
 C470 C 0.76594 0.90047 0.44559
 C471 C 0.66878 0.81334 0.48653
 C472 C 0.80652 0.80911 0.53132
 C473 C -0.00806 0.26750 0.37965
 H474 H 0.00943 0.27600 0.37869
 C475 C -0.02759 0.27782 0.39322
 H476 H -0.02518 0.29429 0.40283
 C477 C -0.03290 0.23614 0.36764
 H478 H -0.03508 0.22023 0.35725
 C479 C -0.05290 0.24588 0.38098
 H480 H -0.07034 0.23731 0.38097
 N481 N -0.01099 0.24698 0.36729
 C482 C 0.06180 0.21311 0.35586
 H483 H 0.06219 0.21129 0.33648
 C484 C 0.08175 0.20458 0.36912
 H485 H 0.09761 0.19620 0.35997
 C486 C 0.04063 0.22613 0.39154
 H487 H 0.02449 0.23428 0.40026
 C488 C 0.06019 0.21784 0.40548
 H489 H 0.05913 0.21981 0.42487
 Zn490 Zn 0.01573 0.23525 0.34774
 N491 N 0.04192 0.22397 0.36713
 C492 C 0.04849 0.26977 0.32761
 N493 N 0.02537 0.26180 0.32701
 C494 C 0.00803 0.27442 0.31405
 C495 C 0.01353 0.29637 0.30158
 C496 C 0.05476 0.29148 0.31533
 C497 C 0.00190 0.18775 0.34372
 C498 C -0.00607 0.16727 0.33280
 C499 C -0.00426 0.18970 0.29427
 C500 C 0.00376 0.20986 0.30596
 N501 N 0.00627 0.20859 0.33032
 H502 H 0.06185 0.25995 0.33847
 H503 H -0.01036 0.26797 0.31432
 H504 H -0.00058 0.30681 0.29208
 H505 H 0.07300 0.29808 0.31662
 H506 H 0.00421 0.18725 0.36302
 H507 H -0.00997 0.15092 0.34373
 H508 H -0.00674 0.19090 0.27497
 H509 H 0.00761 0.22653 0.29565
 C510 C 0.08098 0.20709 0.39414
 C511 C -0.05023 0.26694 0.39380
 C512 C -0.00940 0.16830 0.30791
 C513 C 0.03705 0.30513 0.30256
 C514 C 1.03632 0.78257 0.08380
 H515 H 1.01839 0.79155 0.08298
 C516 C 1.05625 0.79280 0.07115
 H517 H 1.05368 0.80962 0.06039
 C518 C 1.06190 0.75036 0.09980
 H519 H 1.06421 0.73425 0.11152
 C520 C 1.08228 0.75996 0.08744
 H521 H 1.10013 0.75103 0.08948
 N522 N 1.03948 0.76176 0.09783
 C523 C 0.96785 0.73125 0.11105
 H524 H 0.96826 0.72908 0.13052
 C525 C 0.94781 0.72371 0.09911
 H526 H 0.93272 0.71565 0.10940
 C527 C 0.98715 0.74423 0.07384
 H528 H 1.00263 0.75204 0.06412
 C529 C 0.96737 0.73688 0.06113
 H530 H 0.96759 0.73909 0.04161
 Zn531 Zn 1.01257 0.75076 0.11723
 N532 N 0.98686 0.74150 0.09838
 C533 C 0.97839 0.78672 0.13426
 N534 N 1.00148 0.77698 0.13656
 C535 C 1.01741 0.78693 0.15117
 C536 C 1.01016 0.80733 0.16443
 C537 C 0.97044 0.80704 0.14716
 C538 C 1.02832 0.70219 0.12424
 C539 C 1.03508 0.68054 0.13686
 C540 C 1.02810 0.70131 0.17426
 C541 C 1.02145 0.72263 0.16092
 N542 N 1.02197 0.72274 0.13634
 H543 H 0.96621 0.77911 0.12205
 H544 H 1.03582 0.77916 0.15227
 H545 H 1.02293 0.81521 0.17597
 H546 H 0.95206 0.81471 0.14511
 H547 H 1.02821 0.70271 0.10471
 H548 H 1.04039 0.66436 0.12705
 H549 H 1.02791 0.70139 0.19381
 H550 H 1.01584 0.73899 0.17021
 C551 C 0.94751 0.72661 0.07397
 C552 C 1.07947 0.78148 0.07318
 C553 C 1.03504 0.68011 0.16209
 C554 C 0.98646 0.81748 0.16231
 C555 C 0.53330 0.28269 0.57768
 H556 H 0.51515 0.29120 0.57703
 C557 C 0.55275 0.29319 0.56446
 H558 H 0.54958 0.30974 0.55345
 C559 C 0.55993 0.25142 0.59375
 H560 H 0.56284 0.23558 0.60570
 C561 C 0.57984 0.26129 0.58082
 H562 H 0.59792 0.25284 0.58267
 N563 N 0.53721 0.26221 0.59201
 C564 C 0.46660 0.22988 0.60673
 H565 H 0.46718 0.22822 0.62622
 C566 C 0.44681 0.22128 0.59514
 H567 H 0.43206 0.21297 0.60571
 C568 C 0.48531 0.24250 0.56912
 H569 H 0.50050 0.25054 0.55910
 C570 C 0.46578 0.23408 0.55676
 H571 H 0.46587 0.23576 0.53721
 Zn572 Zn 0.51092 0.25075 0.61200
 N573 N 0.48521 0.24044 0.59370
 C574 C 0.47612 0.28600 0.62949
 N575 N 0.49951 0.27692 0.63128
 C576 C 0.51546 0.28736 0.64552
 C577 C 0.50791 0.30753 0.65899
 C578 C 0.46787 0.30608 0.64262
 C579 C 0.52810 0.20266 0.61927
 C580 C 0.53539 0.18125 0.63200
 C581 C 0.52831 0.20225 0.66927
 C582 C 0.52114 0.22333 0.65581
 N583 N 0.52139 0.22320 0.63124
 H584 H 0.46390 0.27798 0.61759
 H585 H 0.53409 0.28011 0.64623
 H586 H 0.52067 0.31573 0.67030
 H587 H 0.44923 0.31317 0.64104
 H588 H 0.52775 0.20298 0.59976
 H589 H 0.54082 0.16504 0.62229
 H590 H 0.52817 0.20246 0.68881
 H591 H 0.51523 0.23965 0.66501
 C592 C 0.44636 0.22342 0.56995
 C593 C 0.57626 0.28247 0.56623
 C594 C 0.53552 0.18104 0.65722
 C595 C 0.48388 0.31696 0.65747
 C596 C 0.49214 0.76162 0.89015
 H597 H 0.50937 0.77061 0.88904
 C598 C 0.47246 0.77142 0.90387
 H599 H 0.47452 0.78797 0.91346
 C600 C 0.46806 0.72961 0.87824
 H601 H 0.46624 0.71366 0.86779
 C602 C 0.44791 0.73882 0.89174
 H603 H 0.43070 0.72982 0.89181
 N604 N 0.48965 0.74105 0.87774
 C605 C 0.56360 0.71058 0.86498
 H606 H 0.56377 0.70899 0.84559
 C607 C 0.58414 0.70299 0.87780
 H608 H 0.60024 0.69553 0.86828
 C609 C 0.54237 0.72212 0.90117
 H610 H 0.52598 0.72932 0.91024
 C611 C 0.56254 0.71473 0.91468
 H612 H 0.56168 0.71643 0.93410
 Zn613 Zn 0.51653 0.73043 0.85780
 N614 N 0.54338 0.72025 0.87672
 C615 C 0.54732 0.76684 0.83774
 N616 N 0.52476 0.75749 0.83712
 C617 C 0.50682 0.76899 0.82408
 C618 C 0.51113 0.79110 0.81137
 C619 C 0.55239 0.78880 0.82525
 C620 C 0.50411 0.68238 0.85347
 C621 C 0.49708 0.66166 0.84227
 C622 C 0.49895 0.68431 0.80388
 C623 C 0.50602 0.70469 0.81583
 N624 N 0.50806 0.70343 0.84026
 H625 H 0.56113 0.75790 0.84870
 H626 H 0.48889 0.76147 0.82435
 H627 H 0.49654 0.80056 0.80167
 H628 H 0.57017 0.79646 0.82645
 H629 H 0.50609 0.68187 0.87283
 H630 H 0.49352 0.64513 0.85304
 H631 H 0.49687 0.68550 0.78451
 H632 H 0.50958 0.72150 0.80564
 C633 C 0.58365 0.70522 0.90285
 C634 C 0.45012 0.75998 0.90457
 C635 C 0.49427 0.66267 0.81730
 C636 C 0.53404 0.80123 0.81227
 C637 C 0.45307 -0.14691 0.34512
 C638 C 0.45002 -0.14670 0.32022
 C639 C 0.45692 -0.16741 0.30731
 C640 C 0.46665 -0.18840 0.31927
 C641 C 0.46972 -0.18893 0.34446
 C642 C 0.46276 -0.16780 0.35712
 C643 C 0.43883 -0.12558 0.30818
 C644 C 0.42897 -0.10794 0.29846
 C645 C 0.41689 -0.08738 0.28748
 C646 C 0.40615 -0.06992 0.27840
 H647 H 0.44762 -0.13103 0.35534
 H648 H 0.45442 -0.16750 0.28803
 H649 H 0.47108 -0.20403 0.30857
 H650 H 0.46452 -0.16763 0.37650
 C651 C 0.95544 0.35493 0.84607
 C652 C 0.95229 0.35399 0.82125
 C653 C 0.95797 0.33229 0.80951
 C654 C 0.96684 0.31157 0.82249
 C655 C 0.97045 0.31233 0.84752
 C656 C 0.96429 0.33429 0.85909
 C657 C 0.94236 0.37505 0.80806
 C658 C 0.93363 0.39268 0.79732
 C659 C 0.92288 0.41327 0.78510
 C660 C 0.91317 0.43076 0.77499
 H661 H 0.95080 0.37156 0.85542
 H662 H 0.95521 0.33127 0.79034
 H663 H 0.97019 0.29508 0.81276
 H664 H 0.96618 0.33539 0.87838
 C665 C 0.02943 1.18599 0.86000
 C666 C 0.02244 1.17885 0.83747
 C667 C 0.00643 1.19400 0.82401
 C668 C -0.00228 1.21634 0.83289
 C669 C 0.00503 1.22401 0.85535
 C670 C 0.02073 1.20832 0.86892
 C671 C 0.03224 1.15635 0.82784
 C672 C 0.04087 1.13777 0.81958
 C673 C 0.05151 1.11633 0.80970
 C674 C 0.06112 1.09834 0.80110
 H675 H 0.04182 1.17439 0.87058
 H676 H 0.00078 1.18860 0.80659
 H677 H -0.01491 1.22745 0.82218
 H678 H 0.02673 1.21331 0.88623
 C679 C 0.51373 0.67917 0.35263
 C680 C 0.52610 0.67969 0.33003
 C681 C 0.52923 0.70203 0.31738
 C682 C 0.51972 0.72372 0.32707
 C683 C 0.50675 0.72341 0.34958
 C684 C 0.50421 0.70087 0.36237
 C685 C 0.53553 0.65736 0.31973
 C686 C 0.54356 0.63884 0.31084
 C687 C 0.55325 0.61739 0.30020
 C688 C 0.56195 0.59929 0.29101
 H689 H 0.51129 0.66198 0.36265
 H690 H 0.53900 0.70270 0.29997
 H691 H 0.52277 0.74072 0.31695
 H692 H 0.49452 0.69978 0.37967
 C693 C 0.51905 0.35198 0.15258
 C694 C 0.52128 0.35098 0.17763
 C695 C 0.51709 0.32916 0.19090
 C696 C 0.51074 0.30838 0.17916
 C697 C 0.50816 0.30921 0.15391
 C698 C 0.51275 0.33129 0.14082
 C699 C 0.52952 0.37190 0.18929
 C700 C 0.53729 0.38943 0.19838
 C701 C 0.54749 0.40980 0.20825
 C702 C 0.55725 0.42692 0.21607
 H703 H 0.52270 0.36864 0.14205
 H704 H 0.51930 0.32804 0.21025
 H705 H 0.50869 0.29166 0.18995
 H706 H 0.51186 0.33243 0.12132
 C707 C -0.00041 0.85123 0.68260
 C708 C 0.02202 0.84970 0.69374
 C709 C 0.03701 0.82855 0.69192
 C710 C 0.03031 0.80961 0.67783
 C711 C 0.00880 0.81176 0.66449
 C712 C -0.00721 0.83231 0.66849
 C713 C 0.03056 0.87044 0.70547
 C714 C 0.03865 0.88795 0.71427
 C715 C 0.04924 0.90843 0.72351
 C716 C 0.05927 0.92573 0.73061
 H717 H -0.01244 0.86731 0.68439
 H718 H 0.05425 0.82697 0.70085
 H719 H 0.04247 0.79357 0.67667
 H720 H -0.02493 0.83417 0.66063
 C721 C 0.96805 0.70042 0.68704
 C722 C 0.95541 0.68670 0.67136
 C723 C 0.95377 0.69452 0.64717
 C724 C 0.96475 0.71588 0.63856
 C725 C 0.97780 0.73000 0.65403
 C726 C 0.97908 0.72187 0.67853
 C727 C 0.94377 0.66475 0.67996
 C728 C 0.93370 0.64637 0.68661
 C729 C 0.92155 0.62491 0.69390
 C730 C 0.91090 0.60669 0.69988
 H731 H 0.96947 0.69450 0.70585
 H732 H 0.94371 0.68422 0.63493
 H733 H 0.96181 0.72154 0.61998
 H734 H 0.98921 0.73152 0.69117
 C735 C 0.45840 0.18325 0.14632
 C736 C 0.45601 0.17917 0.17132
 C737 C 0.46541 0.19574 0.18661
 C738 C 0.47663 0.21665 0.17692
 C739 C 0.47837 0.22156 0.15166
 C740 C 0.46956 0.20408 0.13658
 C741 C 0.44334 0.15826 0.18107
 C742 C 0.43226 0.14082 0.18865
 C743 C 0.41885 0.12050 0.19698
 C744 C 0.40713 0.10323 0.20379
 H745 H 0.45135 0.17043 0.13428
 H746 H 0.46392 0.19261 0.20604
 H747 H 0.48391 0.22876 0.18942
 H748 H 0.47073 0.20622 0.11719
 C749 C 0.30859 0.46104 -0.16886
 C750 C 0.32098 0.45535 -0.14768
 C751 C 0.34620 0.45795 -0.14745
 C752 C 0.35899 0.46626 -0.16830
 C753 C 0.34676 0.47249 -0.18972
 C754 C 0.32134 0.46938 -0.18978
 C755 C 0.30809 0.44575 -0.12646
 C756 C 0.29765 0.43723 -0.10870
 C757 C 0.28587 0.42664 -0.08796
 C758 C 0.27618 0.41704 -0.07033
 H759 H 0.28910 0.45861 -0.16933
 H760 H 0.35606 0.45323 -0.13125
 H761 H 0.37862 0.46758 -0.16778
 H762 H 0.31116 0.47261 -0.20592
 C763 C 0.80814 0.95664 0.32568
 C764 C 0.81981 0.95387 0.34764
 C765 C 0.84419 0.95999 0.34881
 C766 C 0.85689 0.96881 0.32812
 C767 C 0.84536 0.97204 0.30585
 C768 C 0.82081 0.96549 0.30489
 C769 C 0.80726 0.94357 0.36875
 C770 C 0.79722 0.93447 0.38647
 C771 C 0.78595 0.92325 0.40718
 C772 C 0.77667 0.91316 0.42477
 H773 H 0.78938 0.95150 0.32449
 H774 H 0.85353 0.95755 0.36564
 H775 H 0.87596 0.97278 0.32941
 H776 H 0.81138 0.96636 0.28816
 C777 C 0.81935 0.00236 1.18801
 C778 C 0.83232 0.01823 1.17231
 C779 C 0.85502 0.02603 1.17874
 C780 C 0.86458 0.01831 1.20093
 C781 C 0.85148 0.00278 1.21715
 C782 C 0.82886 -0.00538 1.21021
 C783 C 0.82197 0.02716 1.15001
 C784 C 0.81309 0.03514 1.13160
 C785 C 0.80249 0.04515 1.11040
 C786 C 0.79327 0.05435 1.09266
 H787 H 0.80180 -0.00391 1.18318
 H788 H 0.86523 0.03834 1.16673
 H789 H 0.88197 0.02497 1.20537
 H790 H 0.81850 -0.01790 1.22179
 C791 C 0.31841 0.51137 0.69548
 C792 C 0.33232 0.52620 0.67958
 C793 C 0.35619 0.53127 0.68512
 C794 C 0.36602 0.52179 0.70661
 C795 C 0.35205 0.50725 0.72303
 C796 C 0.32819 0.50190 0.71697
 C797 C 0.32189 0.53661 0.65788
 C798 C 0.31293 0.54561 0.63993
 C799 C 0.30225 0.55653 0.61918
 C800 C 0.29304 0.56627 0.60169
 H801 H 0.29996 0.50718 0.69130
 H802 H 0.36715 0.54271 0.67290
 H803 H 0.38441 0.52625 0.71033
 H804 H 0.31705 0.49016 0.72866
 C805 C 0.15913 0.52551 0.35538
 C806 C 0.18447 0.52711 0.35560
 C807 C 0.19887 0.52177 0.33492
 C808 C 0.18794 0.51499 0.31397
 C809 C 0.16234 0.51339 0.31348
 C810 C 0.14818 0.51880 0.33455
 C811 C 0.19532 0.53567 0.37666
 C812 C 0.20363 0.54370 0.39432
 C813 C 0.21250 0.55418 0.41483
 C814 C 0.21943 0.56414 0.43208
 H815 H 0.14777 0.52987 0.37121
 H816 H 0.21851 0.52326 0.33484
 H817 H 0.19974 0.51162 0.29833
 H818 H 0.12846 0.51811 0.33474
 C819 C 0.69173 0.01789 0.82443
 C820 C 0.67879 0.02119 0.84643
 C821 C 0.65365 0.01789 0.84809
 C822 C 0.64145 0.01142 0.82788
 C823 C 0.65417 0.00776 0.80560
 C824 C 0.67954 0.01135 0.80411
 C825 C 0.69079 0.02947 0.86700
 C826 C 0.69998 0.03716 0.88437
 C827 C 0.70982 0.04710 0.90473
 C828 C 0.71754 0.05650 0.92198
 H829 H 0.71115 0.02088 0.82283
 H830 H 0.64336 0.02079 0.86491
 H831 H 0.62184 0.00965 0.82956
 H832 H 0.69003 0.00995 0.78727
 C833 C 0.64381 0.95968 0.68053
 C834 C 0.66889 0.95933 0.67502
 C835 C 0.68451 0.96963 0.69070
 C836 C 0.67511 0.97975 0.71209
 C837 C 0.64986 0.97949 0.71836
 C838 C 0.63436 0.96974 0.70185
 C839 C 0.67845 0.94773 0.65360
 C840 C 0.68591 0.93745 0.63579
 C841 C 0.69414 0.92485 0.61510
 C842 C 0.70091 0.91369 0.59761
 H843 H 0.63150 0.95187 0.66845
 H844 H 0.70398 0.96969 0.68649
 H845 H 0.68780 0.98780 0.72351
 H846 H 0.61490 0.96931 0.70514
 C847 C 0.15875 0.48125 0.18295
 C848 C 0.17822 0.46390 0.18311
 C849 C 0.18954 0.45741 0.20477
 C850 C 0.18109 0.46785 0.22629
 C851 C 0.16115 0.48487 0.22638
 C852 C 0.15026 0.49168 0.20445
 C853 C 0.18583 0.45195 0.16129
 C854 C 0.19185 0.44153 0.14315
 C855 C 0.19861 0.42891 0.12209
 C856 C 0.20425 0.41781 0.10426
 H857 H 0.14987 0.48642 0.16628
 H858 H 0.20455 0.44391 0.20511
 H859 H 0.18961 0.46197 0.24295
 H860 H 0.13511 0.50500 0.20391
 C861 C -0.16927 0.30910 0.45366
 C862 C -0.14768 0.32140 0.44873
 C863 C -0.14691 0.34621 0.45332
 C864 C -0.16765 0.35869 0.46275
 C865 C -0.18953 0.34657 0.46805
 C866 C -0.19008 0.32155 0.46312
 C867 C -0.12661 0.30892 0.43795
 C868 C -0.10898 0.29883 0.42850
 C869 C -0.08841 0.28741 0.41694
 C870 C -0.07093 0.27794 0.40663
 H871 H -0.17015 0.28996 0.44980
 H872 H -0.13038 0.35600 0.44928
 H873 H -0.16671 0.37804 0.46565
 H874 H -0.20651 0.31148 0.46580
 C875 C 0.35658 0.83811 0.96932
 C876 C 0.35335 0.81549 0.95953
 C877 C 0.32992 0.80655 0.95891
 C878 C 0.30974 0.82014 0.96811
 C879 C 0.31262 0.84282 0.97877
 C880 C 0.33650 0.85178 0.97853
 C881 C 0.37396 0.80228 0.94874
 C882 C 0.39133 0.79177 0.93928
 C883 C 0.41176 0.78010 0.92771
 C884 C 0.42925 0.77065 0.91740
 H885 H 0.37459 0.84551 0.96931
 H886 H 0.32715 0.78932 0.95077
 H887 H 0.29183 0.81308 0.96620
 H888 H 0.33974 0.86972 0.98485
 C889 C 1.18550 0.85588 0.02898
 C890 C 1.18137 0.83121 0.02630
 C891 C 1.19941 0.81631 0.01522
 C892 C 1.22157 0.82595 0.00697
 C893 C 1.22634 0.85086 0.00965
 C894 C 1.20764 0.86566 0.02073
 C895 C 1.15884 0.82100 0.03537
 C896 C 1.14021 0.81220 0.04327
 C897 C 1.11870 0.80167 0.05300
 C898 C 1.10063 0.79252 0.06184
 H899 H 1.17167 0.86758 0.03770
 H900 H 1.19635 0.79717 0.01289
 H901 H 1.23450 0.81371 -0.00215
 H902 H 1.20984 0.88463 0.02398
 C903 C 0.69205 0.32056 0.50103
 C904 C 0.67674 0.33325 0.51742
 C905 C 0.68365 0.35569 0.52544
 C906 C 0.70593 0.36526 0.51739
 C907 C 0.72177 0.35243 0.50131
 C908 C 0.71434 0.33008 0.49297
 C909 C 0.65436 0.32284 0.52662
 C910 C 0.63592 0.31388 0.53478
 C911 C 0.61470 0.30314 0.54496
 C912 C 0.59694 0.29379 0.55427
 H913 H 0.68685 0.30321 0.49459
 H914 H 0.67193 0.36567 0.53816
 H915 H 0.71078 0.38245 0.52419
 H916 H 0.72562 0.31996 0.48005
 C917 C 0.34877 0.15017 0.52360
 C918 C 0.34851 0.17553 0.52534
 C919 C 0.32702 0.18945 0.52112
 C920 C 0.30582 0.17808 0.51519
 C921 C 0.30588 0.15250 0.51315
 C922 C 0.32766 0.13876 0.51771
 C923 C 0.36992 0.18697 0.53284
 C924 C 0.38780 0.19607 0.53989
 C925 C 0.40855 0.20616 0.54914
 C926 C 0.42600 0.21429 0.55803
 H927 H 0.36520 0.13914 0.52719
 H928 H 0.32651 0.20908 0.52286
 H929 H 0.28950 0.18949 0.51295
 H930 H 0.32824 0.11903 0.51697
 C931 C 0.83038 0.67536 0.04403
 C932 C 0.84965 0.68078 0.02761
 C933 C 0.84898 0.67360 0.00378
 C934 C 0.82970 0.66002 -0.00333
 C935 C 0.81112 0.65273 0.01354
 C936 C 0.81110 0.66179 0.03697
 C937 C 0.87065 0.69253 0.03562
 C938 C 0.88844 0.70149 0.04298
 C939 C 0.90928 0.71106 0.05255
 C940 C 0.92691 0.71851 0.06171
 H941 H 0.83048 0.68125 0.06243
 H942 H 0.86354 0.67817 -0.00924
 H943 H 0.82961 0.65524 -0.02203
 H944 H 0.79638 0.65806 0.05005
 C945 C 0.69405 0.67858 0.97886
 C946 C 0.68380 0.66619 0.96043
 C947 C 0.69503 0.64443 0.95251
 C948 C 0.71636 0.63503 0.96293
 C949 C 0.72678 0.64725 0.98150
 C950 C 0.71547 0.66919 0.98934
 C951 C 0.66193 0.67569 0.94930
 C952 C 0.64374 0.68305 0.93938
 C953 C 0.62261 0.69110 0.92717
 C954 C 0.60475 0.69765 0.91629
 H955 H 0.68550 0.69547 0.98512
 H956 H 0.68737 0.63478 0.93814
 H957 H 0.72492 0.61842 0.95607
 H958 H 0.72301 0.67890 1.00371
 C959 C 0.17558 0.14940 0.47516
 C960 C 0.17763 0.16837 0.45758
 C961 C 0.20026 0.17871 0.45253
 C962 C 0.22080 0.17001 0.46488
 C963 C 0.21898 0.15082 0.48253
 C964 C 0.19610 0.14067 0.48751
 C965 C 0.15666 0.17683 0.44433
 C966 C 0.13918 0.18380 0.43305
 C967 C 0.11882 0.19188 0.41966
 C968 C 0.10152 0.19878 0.40810
 H969 H 0.15815 0.14123 0.47920
 H970 H 0.20211 0.19329 0.43882
 H971 H 0.23819 0.17788 0.46006
 H972 H 0.19395 0.12601 0.50095
 C973 C 0.58047 0.05787 0.70626
 C974 C 0.57536 0.07972 0.71793
 C975 C 0.58071 0.08125 0.74220
 C976 C 0.59171 0.06129 0.75463
 C977 C 0.59772 0.03923 0.74303
 C978 C 0.59144 0.03777 0.71866
 C979 C 0.56569 0.10100 0.70484
 C980 C 0.55815 0.11917 0.69404
 C981 C 0.54988 0.14068 0.68144
 C982 C 0.54318 0.15911 0.67055
 H983 H 0.57655 0.05655 0.68738
 H984 H 0.57664 0.09803 0.75149
 H985 H 0.59508 0.06328 0.77351
 H986 H 0.59612 0.02177 0.70845
 C987 C 1.07182 0.55834 0.22471
 C988 C 1.08099 0.58187 0.22296
 C989 C 1.10267 0.58642 0.23402
 C990 C 1.11513 0.56771 0.24686
 C991 C 1.10605 0.54405 0.24898
 C992 C 1.08434 0.53948 0.23762
 C993 C 1.06870 0.60158 0.20970
 C994 C 1.05959 0.61893 0.19880
 C995 C 1.05012 0.63992 0.18616
 C996 C 1.04288 0.65817 0.17531
 H997 H 1.05506 0.55460 0.21614
 H998 H 1.11007 0.60447 0.23261
 H999 H 1.13214 0.57176 0.25476
 H1000 H 1.07688 0.52148 0.23898
 C1001 C 0.93137 0.91052 0.24466
 C1002 C 0.93817 0.91365 0.22021
 C1003 C 0.93118 0.93523 0.20750
 C1004 C 0.91690 0.95339 0.21903
 C1005 C 0.90909 0.95016 0.24356
 C1006 C 0.91706 0.92852 0.25624
 C1007 C 0.95078 0.89395 0.20791
 C1008 C 0.96043 0.87688 0.19772
 C1009 C 0.97063 0.85644 0.18573
 C1010 C 0.97839 0.83873 0.17527
 H1011 H 0.93679 0.89392 0.25473
 H1012 H 0.93615 0.93772 0.18845
 H1013 H 0.91093 0.96910 0.20804
 H1014 H 0.91261 0.92538 0.27527
 C1015 C 0.41008 0.40457 0.72926
 C1016 C 0.43290 0.40980 0.71854
 C1017 C 0.44212 0.43306 0.72037
 C1018 C 0.42853 0.45100 0.73300
 C1019 C 0.40565 0.44578 0.74397
 C1020 C 0.39654 0.42239 0.74185
 C1021 C 0.44638 0.39112 0.70549
 C1022 C 0.45659 0.37477 0.69464
 C1023 C 0.46729 0.35500 0.68193
 C1024 C 0.47541 0.33777 0.67092
 H1025 H 0.40267 0.38670 0.72781
 H1026 H 0.45976 0.43731 0.71209
 H1027 H 0.43611 0.46876 0.73451
 H1028 H 0.37876 0.41792 0.74963
 C1029 C 0.44267 0.54437 0.79765
 C1030 C 0.44448 0.56296 0.77965
 C1031 C 0.43189 0.56146 0.75832
 C1032 C 0.41681 0.54189 0.75546
 C1033 C 0.41397 0.52381 0.77399
 C1034 C 0.42755 0.52492 0.79485
 C1035 C 0.45720 0.58458 0.78438
 C1036 C 0.46695 0.60274 0.78983
 C1037 C 0.47737 0.62390 0.79784
 C1038 C 0.48549 0.64176 0.80601
 H1039 H 0.45226 0.54536 0.81426
 H1040 H 0.43299 0.57585 0.74434
 H1041 H 0.40639 0.54169 0.73939
 H1042 H 0.42593 0.51109 0.80932
 C1043 C -0.06490 0.05158 0.29348
 C1044 C -0.06218 0.06872 0.27423
 C1045 C -0.07345 0.06533 0.25249
 C1046 C -0.08794 0.04517 0.25027
 C1047 C -0.09147 0.02837 0.26986
 C1048 C -0.07942 0.03155 0.29133
 C1049 C -0.04929 0.09053 0.27777
 C1050 C -0.03913 0.10876 0.28230
 C1051 C -0.02800 0.12989 0.28942
 C1052 C -0.01915 0.14764 0.29703
 H1053 H -0.05629 0.05401 0.31041
 H1054 H -0.07160 0.07858 0.23751
 H1055 H -0.09715 0.04336 0.23366
 H1056 H -0.08148 0.01870 0.30660
 C1057 C 0.06979 0.43615 0.26471
 C1058 C 0.07929 0.41491 0.27652
 C1059 C 0.10142 0.41544 0.28805
 C1060 C 0.11392 0.43700 0.28811
 C1061 C 0.10445 0.45857 0.27670
 C1062 C 0.08242 0.45790 0.26468
 C1063 C 0.06656 0.39244 0.27789
 C1064 C 0.05753 0.37282 0.28086
 C1065 C 0.04877 0.34931 0.28639
 C1066 C 0.04272 0.32909 0.29284
 H1067 H 0.05262 0.43595 0.25575
 H1068 H 0.10901 0.39911 0.29715
 H1069 H 0.13121 0.43667 0.29690
 H1070 H 0.07479 0.47424 0.25568
 C1071 C 0.56369 0.93067 0.79592
 C1072 C 0.56516 0.91391 0.77752
 C1073 C 0.57820 0.91949 0.75587
 C1074 C 0.59060 0.94127 0.75305
 C1075 C 0.59021 0.95762 0.77190
 C1076 C 0.57614 0.95240 0.79314
 C1077 C 0.55587 0.88992 0.78214
 C1078 C 0.54930 0.86955 0.78716
 C1079 C 0.54288 0.84560 0.79441
 C1080 C 0.53838 0.82523 0.80185
 H1081 H 0.55381 0.92648 0.81283
 H1082 H 0.57973 0.90651 0.74163
 H1083 H 0.60174 0.94448 0.73680
 H1084 H 0.57551 0.96472 0.80792
 C1085 C 0.71104 0.57797 0.05868
 C1086 C 0.72349 0.56640 0.07784
 C1087 C 0.74905 0.56551 0.07722
 C1088 C 0.76209 0.57698 0.05805
 C1089 C 0.74971 0.58956 0.03925
 C1090 C 0.72407 0.58943 0.03943
 C1091 C 0.71015 0.55719 0.09900
 C1092 C 0.69913 0.55028 0.11714
 C1093 C 0.68629 0.54297 0.13868
 C1094 C 0.67520 0.53723 0.15717
 H1095 H 0.69125 0.57889 0.05903
 H1096 H 0.75889 0.55661 0.09194
 H1097 H 0.78185 0.57653 0.05823
 H1098 H 0.71402 0.59925 0.02540
 C1099 C 0.20476 1.08275 0.56786
 C1100 C 0.21852 1.07302 0.58698
 C1101 C 0.24397 1.07423 0.58558
 C1102 C 0.25555 1.08578 0.56553
 C1103 C 0.24182 1.09644 0.54660
 C1104 C 0.21635 1.09429 0.54775
 C1105 C 0.20652 1.06308 0.60862
 C1106 C 0.19654 1.05539 0.62704
 C1107 C 0.18476 1.04703 0.64882
 C1108 C 0.17447 1.04035 0.66746
 H1109 H 0.18503 1.08197 0.56877
 H1110 H 0.25484 1.06669 0.60021
 H1111 H 0.27526 1.08662 0.56501
 H1112 H 0.20522 1.10233 0.53367
 C1113 C 0.22306 0.93919 0.94227
 C1114 C 0.22675 0.93390 0.91791
 C1115 C 0.24251 0.91443 0.91143
 C1116 C 0.25435 0.90006 0.92910
 C1117 C 0.25070 0.90476 0.95393
 C1118 C 0.23492 0.92484 0.96013
 C1119 C 0.21373 0.94752 0.89937
 C1120 C 0.20289 0.95774 0.88310
 C1121 C 0.19012 0.96835 0.86342
 C1122 C 0.17900 0.97628 0.84628
 H1123 H 0.21095 0.95437 0.94749
 H1124 H 0.24531 0.90998 0.89262
 H1125 H 0.26543 0.88459 0.92298
 H1126 H 0.23204 0.93024 0.97858
 C1127 C 0.70803 0.42674 0.43045
 C1128 C 0.72101 0.43805 0.41106
 C1129 C 0.74656 0.43635 0.41002
 C1130 C 0.75907 0.42276 0.42785
 C1131 C 0.74616 0.41063 0.44694
 C1132 C 0.72052 0.41316 0.44835
 C1133 C 0.70821 0.44980 0.39131
 C1134 C 0.69763 0.45880 0.37427
 C1135 C 0.68526 0.46840 0.35392
 C1136 C 0.67455 0.47583 0.33635
 H1137 H 0.68823 0.42781 0.43134
 H1138 H 0.75680 0.44499 0.39509
 H1139 H 0.77884 0.42138 0.42647
 H1140 H 0.71008 0.40377 0.46264
 C1141 C 0.75942 0.42796 0.56168
 C1142 C 0.78173 0.43867 0.56481
 C1143 C 0.80093 0.43552 0.54766
 C1144 C 0.79814 0.42112 0.52789
 C1145 C 0.77608 0.40957 0.52497
 C1146 C 0.75657 0.41358 0.54178
 C1147 C 0.78582 0.45150 0.58631
 C1148 C 0.79062 0.46159 0.60431
 C1149 C 0.79780 0.47266 0.62526
 C1150 C 0.80525 0.48150 0.64294
 H1151 H 0.74446 0.43018 0.57491
 H1152 H 0.81828 0.44373 0.54988
 H1153 H 0.81338 0.41877 0.51501
 H1154 H 0.73948 0.40485 0.54017
 C1155 C 0.29993 -0.07106 0.05848
 C1156 C 0.27858 -0.06248 0.07044
 C1157 C 0.25588 -0.06813 0.06207
 C1158 C 0.25457 -0.08290 0.04217
 C1159 C 0.27604 -0.09266 0.03049
 C1160 C 0.29874 -0.08585 0.03877
 C1161 C 0.28055 -0.04889 0.09189
 C1162 C 0.28402 -0.03828 0.10997
 C1163 C 0.29013 -0.02674 0.13106
 C1164 C 0.29705 -0.01763 0.14884
 H1165 H 0.31764 -0.06655 0.06460
 H1166 H 0.23918 -0.06157 0.07123
 H1167 H 0.23662 -0.08737 0.03704
 H1168 H 0.31587 -0.09153 0.02993
 C1169 C 0.24884 0.07987 0.42676
 C1170 C 0.27030 0.06708 0.41932
 C1171 C 0.29018 0.06515 0.43442
 C1172 C 0.28905 0.07688 0.45634
 C1173 C 0.26800 0.09072 0.46344
 C1174 C 0.24763 0.09155 0.44877
 C1175 C 0.27316 0.05824 0.39524
 C1176 C 0.27695 0.05183 0.37483
 C1177 C 0.28306 0.04539 0.35088
 C1178 C 0.28975 0.04071 0.33053
 H1179 H 0.23342 0.08168 0.41512
 H1180 H 0.30693 0.05540 0.42882
 H1181 H 0.30493 0.07579 0.46739
 H1182 H 0.23130 0.10235 0.45359
 C1183 C 0.79413 0.59090 0.91387
 C1184 C 0.78135 0.56967 0.91160
 C1185 C 0.76787 0.55991 0.93151
 C1186 C 0.76723 0.57148 0.95363
 C1187 C 0.78020 0.59280 0.95601
 C1188 C 0.79355 0.60239 0.93580
 C1189 C 0.78271 0.55835 0.88861
 C1190 C 0.78557 0.55051 0.86867
 C1191 C 0.79094 0.54315 0.84488
 C1192 C 0.79726 0.53826 0.82451
 H1193 H 0.80452 0.59869 0.89857
 H1194 H 0.75793 0.54343 0.92994
 H1195 H 0.75681 0.56367 0.96887
 H1196 H 0.80316 0.61915 0.93672
 C1197 C 0.05480 0.72528 0.57334
 C1198 C 0.07883 0.72751 0.58023
 C1199 C 0.08348 0.74229 0.59921
 C1200 C 0.06433 0.75462 0.61148
 C1201 C 0.03980 0.75253 0.60510
 C1202 C 0.03544 0.73766 0.58561
 C1203 C 0.09898 0.71427 0.56861
 C1204 C 0.11667 0.70344 0.56005
 C1205 C 0.13802 0.69094 0.55121
 C1206 C 0.15656 0.68023 0.54445
 H1207 H 0.05101 0.71396 0.55852
 H1208 H 0.10200 0.74397 0.60487
 H1209 H 0.06908 0.76485 0.62671
 H1210 H 0.01733 0.73589 0.57911
 C1211 C 0.55988 0.22033 1.06729
 C1212 C 0.58262 0.21793 1.07795
 C1213 C 0.58569 0.22812 1.10026
 C1214 C 0.56622 0.24072 1.11186
 C1215 C 0.54331 0.24337 1.10129
 C1216 C 0.54029 0.23295 1.07892
 C1217 C 0.60294 0.20495 1.06633
 C1218 C 0.62043 0.19415 1.05737
 C1219 C 0.64131 0.18148 1.04766
 C1220 C 0.65933 0.17054 1.03996
 H1221 H 0.55730 0.21251 1.05001
 H1222 H 0.60315 0.22626 1.10876
 H1223 H 0.56904 0.24809 1.12929
 H1224 H 0.52297 0.23490 1.07021
 C1225 C 0.90978 0.24769 0.93489
 C1226 C 0.91163 0.22216 0.93707
 C1227 C 0.93191 0.20958 0.92666
 C1228 C 0.94996 0.22242 0.91357
 C1229 C 0.94785 0.24802 0.91065
 C1230 C 0.92778 0.26055 0.92179
 C1231 C 0.89192 0.20886 0.94852
 C1232 C 0.87501 0.19773 0.95729
 C1233 C 0.85489 0.18461 0.96666
 C1234 C 0.83753 0.17323 0.97388
 H1235 H 0.89416 0.25762 0.94285
 H1236 H 0.93343 0.18980 0.92808
 H1237 H 0.96498 0.21222 0.90490
 H1238 H 0.92583 0.28029 0.92010
 C1239 C 0.43243 0.71153 0.42933
 C1240 C 0.41318 0.72568 0.43965
 C1241 C 0.41231 0.75104 0.43561
 C1242 C 0.43008 0.76213 0.42058
 C1243 C 0.44892 0.74797 0.40921
 C1244 C 0.45026 0.72263 0.41431
 C1245 C 0.39325 0.71405 0.45263
 C1246 C 0.37602 0.70427 0.46247
 C1247 C 0.35541 0.69259 0.47281
 C1248 C 0.33760 0.68225 0.48063
 H1249 H 0.43322 0.69185 0.43227
 H1250 H 0.39753 0.76219 0.44352
 H1251 H 0.42882 0.78178 0.41755
 H1252 H 0.46437 0.71119 0.40593
 C1253 C 0.55204 0.79950 0.43141
 C1254 C 0.56914 0.77996 0.43377
 C1255 C 0.56539 0.75802 0.42267
 C1256 C 0.54484 0.75586 0.40882
 C1257 C 0.52800 0.77573 0.40580
 C1258 C 0.53162 0.79743 0.41755
 C1259 C 0.59111 0.78334 0.44636
 C1260 C 0.60939 0.78779 0.45642
 C1261 C 0.63051 0.79484 0.46759
 C1262 C 0.64821 0.80242 0.47656
 H1263 H 0.55474 0.81656 0.43990
 H1264 H 0.57860 0.74281 0.42426
 H1265 H 0.54264 0.73903 0.39978
 H1266 H 0.51876 0.81290 0.41584
 C1267 C 0.04852 0.30442 -0.06213
 C1268 C 0.06597 0.28538 -0.05858
 C1269 C 0.06320 0.26294 -0.06908
 C1270 C 0.04341 0.25982 -0.08364
 C1271 C 0.02631 0.27917 -0.08804
 C1272 C 0.02882 0.30135 -0.07671
 C1273 C 0.08751 0.28974 -0.04569
 C1274 C 0.10563 0.29467 -0.03563
 C1275 C 0.12679 0.30193 -0.02471
 C1276 C 0.14470 0.30943 -0.01609
 H1277 H 0.05046 0.32187 -0.05410
 H1278 H 0.07669 0.24812 -0.06658
 H1279 H 0.04213 0.24266 -0.09221
 H1280 H 0.01572 0.31647 -0.07939
 C1281 C 0.43463 0.29653 0.06189
 C1282 C 0.41786 0.27792 0.06351
 C1283 C 0.42321 0.25636 0.07704
 C1284 C 0.44467 0.25390 0.08986
 C1285 C 0.46094 0.27303 0.08941
 C1286 C 0.45606 0.29411 0.07474
 C1287 C 0.39395 0.28237 0.05407
 C1288 C 0.37356 0.28720 0.04752
 C1289 C 0.34951 0.29423 0.04127
 C1290 C 0.32902 0.30151 0.03699
 H1291 H 0.43061 0.31339 0.05163
 H1292 H 0.41022 0.24196 0.07869
 H1293 H 0.44758 0.23778 0.10138
 H1294 H 0.46834 0.30911 0.07402
 C1295 C 0.92192 0.80345 0.58673
 C1296 C 0.91766 0.78507 0.57103
 C1297 C 0.93488 0.76574 0.56829
 C1298 C 0.95601 0.76450 0.58180
 C1299 C 0.96018 0.78252 0.59857
 C1300 C 0.94278 0.80228 0.60029
 C1301 C 0.89486 0.78606 0.55897
 C1302 C 0.87499 0.78867 0.55045
 C1303 C 0.85122 0.79375 0.54221
 C1304 C 0.83078 0.79981 0.53655
 H1305 H 0.90865 0.81848 0.58909
 H1306 H 0.93185 0.75145 0.55598
 H1307 H 0.96880 0.74935 0.57873
 H1308 H 0.94417 0.81648 0.61299
   
