data_POSCAR
  _audit_creation_date              2014-09-24
  _audit_creation_method            'ToBaCCo'
  _symmetry_space_group_name_H-M    'P1'
  _symmetry_Int_Tables_number       1
  _symmetry_cell_setting            triclinic
  loop_
  _symmetry_equiv_pos_as_xyz
 x,y,z
_cell_length_a 92.1788
_cell_length_b 92.2117
_cell_length_c 92.5785
_cell_angle_alpha 89.977800
_cell_angle_beta 89.980800
_cell_angle_gamma 89.951200
loop_
  _atom_site_label
  _atom_site_type_symbol
  _atom_site_fract_x
  _atom_site_fract_y
  _atom_site_fract_z
N1 N 0.35534 0.31534 0.32540
 N2 N 0.35527 0.32559 0.31555
 C3 C 0.36643 0.32343 0.30640
 C4 C 0.37396 0.31114 0.31074
 C5 C 0.36655 0.30632 0.32287
 H6 H 0.36885 0.33029 0.29727
 H7 H 0.36906 0.29695 0.32942
 Cu8 Cu 0.34061 0.34079 0.31560
 Cu9 Cu 0.34087 0.31436 0.34074
 Cu10 Cu 0.31426 0.34091 0.34072
 N11 N 0.32535 0.35539 0.31558
 N12 N 0.31513 0.35537 0.32546
 C13 C 0.30602 0.36650 0.32301
 C14 C 0.31074 0.37398 0.31090
 C15 C 0.32307 0.36657 0.30648
 H16 H 0.29666 0.36891 0.32960
 H17 H 0.32988 0.36907 0.29732
 N18 N 0.31516 0.32539 0.35529
 N19 N 0.32527 0.31527 0.35532
 C20 C 0.32291 0.30628 0.36656
 C21 C 0.31069 0.31095 0.37400
 C22 C 0.30611 0.32312 0.36647
 H23 H 0.32961 0.29702 0.36911
 H24 H 0.29684 0.32986 0.36892
 H25 H 0.32473 0.32469 0.32923
 H26 H 0.33625 0.33623 0.34119
 N27 N 0.35574 0.81571 -0.17491
 N28 N 0.35527 0.82559 -0.18512
 C29 C 0.36641 0.82342 -0.19429
 C30 C 0.37434 0.81146 -0.18963
 C31 C 0.36715 0.80691 -0.17723
 H32 H 0.36849 0.83005 -0.20368
 H33 H 0.36987 0.79784 -0.17036
 Cu34 Cu 0.34005 0.84026 -0.18548
 Cu35 Cu 0.34141 0.81479 -0.15948
 Cu36 Cu 0.31450 0.84103 -0.15948
 N37 N 0.32510 0.85521 -0.18504
 N38 N 0.31516 0.85542 -0.17488
 C39 C 0.30620 0.86672 -0.17712
 C40 C 0.31070 0.87411 -0.18942
 C41 C 0.32280 0.86641 -0.19411
 H42 H 0.29709 0.86927 -0.17024
 H43 H 0.32947 0.86870 -0.20343
 N44 N 0.31569 0.82557 -0.14481
 N45 N 0.32596 0.81561 -0.14479
 C46 C 0.32378 0.80657 -0.13357
 C47 C 0.31152 0.81102 -0.12610
 C48 C 0.30671 0.82314 -0.13358
 H49 H 0.33060 0.79737 -0.13110
 H50 H 0.29733 0.82971 -0.13110
 H51 H 0.32467 0.82459 -0.17075
 H52 H 0.33645 0.83671 -0.15964
 N53 N 0.85518 0.31590 -0.17478
 N54 N 0.85502 0.32613 -0.18464
 C55 C 0.86616 0.32399 -0.19383
 C56 C 0.87374 0.31173 -0.18949
 C57 C 0.86639 0.30691 -0.17732
 H58 H 0.86850 0.33082 -0.20302
 H59 H 0.86892 0.29755 -0.17078
 Cu60 Cu 0.84005 0.34102 -0.18451
 Cu61 Cu 0.84079 0.31486 -0.15937
 Cu62 Cu 0.81407 0.34142 -0.15914
 N63 N 0.82507 0.35591 -0.18439
 N64 N 0.81492 0.35594 -0.17444
 C65 C 0.80584 0.36712 -0.17683
 C66 C 0.81050 0.37460 -0.18902
 C67 C 0.82279 0.36708 -0.19349
 H68 H 0.79654 0.36949 -0.17015
 H69 H 0.82958 0.36945 -0.20270
 N70 N 0.81513 0.32579 -0.14461
 N71 N 0.82528 0.31571 -0.14470
 C72 C 0.82307 0.30666 -0.13350
 C73 C 0.81090 0.31122 -0.12594
 C74 C 0.80618 0.32341 -0.13335
 H75 H 0.82984 0.29742 -0.13106
 H76 H 0.79691 0.33009 -0.13078
 H77 H 0.82430 0.32511 -0.17053
 H78 H 0.83595 0.33674 -0.15886
 N79 N 0.85523 0.81555 0.32523
 N80 N 0.85513 0.82577 0.31535
 C81 C 0.86627 0.82359 0.30619
 C82 C 0.87381 0.81132 0.31055
 C83 C 0.86643 0.80653 0.32271
 H84 H 0.86868 0.83044 0.29703
 H85 H 0.86895 0.79718 0.32927
 Cu86 Cu 0.84042 0.84090 0.31538
 Cu87 Cu 0.84083 0.81467 0.34060
 Cu88 Cu 0.81417 0.84123 0.34065
 N89 N 0.82523 0.85554 0.31536
 N90 N 0.81503 0.85565 0.32525
 C91 C 0.80599 0.86683 0.32272
 C92 C 0.81074 0.87423 0.31050
 C93 C 0.82303 0.86664 0.30617
 H94 H 0.79665 0.86929 0.32933
 H95 H 0.82992 0.86897 0.29703
 N96 N 0.81520 0.82569 0.35529
 N97 N 0.82535 0.81560 0.35525
 C98 C 0.82312 0.80659 0.36648
 C99 C 0.81095 0.81117 0.37402
 C100 C 0.80624 0.82335 0.36656
 H101 H 0.82988 0.79734 0.36894
 H102 H 0.79696 0.83003 0.36910
 H103 H 0.82449 0.82502 0.32921
 H104 H 0.83608 0.83662 0.34103
 N105 N 0.64469 0.68497 0.32582
 N106 N 0.64490 0.67496 0.31574
 C107 C 0.63367 0.67718 0.30669
 C108 C 0.62599 0.68927 0.31135
 C109 C 0.63336 0.69389 0.32355
 H110 H 0.63132 0.67052 0.29739
 H111 H 0.63078 0.70307 0.33031
 Cu112 Cu 0.65997 0.66014 0.31541
 Cu113 Cu 0.65914 0.68588 0.34109
 Cu114 Cu 0.68575 0.65935 0.34115
 N115 N 0.67480 0.64509 0.31578
 N116 N 0.68483 0.64489 0.32586
 C117 C 0.69375 0.63357 0.32357
 C118 C 0.68913 0.62620 0.31136
 C119 C 0.67703 0.63387 0.30672
 H120 H 0.70294 0.63098 0.33033
 H121 H 0.67036 0.63152 0.29742
 N122 N 0.68481 0.67493 0.35569
 N123 N 0.67467 0.68502 0.35565
 C124 C 0.67695 0.69408 0.36682
 C125 C 0.68914 0.68951 0.37431
 C126 C 0.69382 0.67731 0.36689
 H127 H 0.67021 0.70333 0.36927
 H128 H 0.70311 0.67063 0.36942
 H129 H 0.67568 0.67575 0.32978
 H130 H 0.66385 0.66391 0.34116
 N131 N 0.64487 0.18475 -0.17436
 N132 N 0.64491 0.17456 -0.18426
 C133 C 0.63370 0.17682 -0.19334
 C134 C 0.62623 0.18911 -0.18889
 C135 C 0.63370 0.19382 -0.17678
 H136 H 0.63121 0.17001 -0.20250
 H137 H 0.63127 0.20316 -0.17016
 Cu138 Cu 0.65961 0.15935 -0.18422
 Cu139 Cu 0.65929 0.18562 -0.15905
 Cu140 Cu 0.68591 0.15908 -0.15900
 N141 N 0.67486 0.14468 -0.18425
 N142 N 0.68504 0.14464 -0.17433
 C143 C 0.69412 0.13348 -0.17677
 C144 C 0.68944 0.12599 -0.18893
 C145 C 0.67712 0.13351 -0.19335
 H146 H 0.70344 0.13110 -0.17011
 H147 H 0.67026 0.13109 -0.20249
 N148 N 0.68492 0.17464 -0.14440
 N149 N 0.67477 0.18472 -0.14444
 C150 C 0.67701 0.19377 -0.13326
 C151 C 0.68919 0.18921 -0.12574
 C152 C 0.69389 0.17701 -0.13317
 H153 H 0.67026 0.20302 -0.13081
 H154 H 0.70319 0.17035 -0.13063
 H155 H 0.67559 0.17526 -0.17047
 H156 H 0.66402 0.16368 -0.15860
 N157 N 0.14481 0.68497 -0.17439
 N158 N 0.14480 0.67476 -0.18428
 C159 C 0.13362 0.67704 -0.19337
 C160 C 0.12618 0.68937 -0.18894
 C161 C 0.13366 0.69407 -0.17683
 H162 H 0.13110 0.67022 -0.20251
 H163 H 0.13125 0.70342 -0.17023
 Cu164 Cu 0.15943 0.65950 -0.18421
 Cu165 Cu 0.15922 0.68582 -0.15908
 Cu166 Cu 0.18577 0.65923 -0.15901
 N167 N 0.17465 0.64482 -0.18422
 N168 N 0.18486 0.64480 -0.17433
 C169 C 0.19392 0.63363 -0.17677
 C170 C 0.18918 0.62615 -0.18887
 C171 C 0.17689 0.63363 -0.19330
 H172 H 0.20327 0.63118 -0.17017
 H173 H 0.17006 0.63114 -0.20244
 N174 N 0.18481 0.67477 -0.14443
 N175 N 0.17469 0.68488 -0.14447
 C176 C 0.17696 0.69391 -0.13328
 C177 C 0.18913 0.68931 -0.12578
 C178 C 0.19380 0.67711 -0.13321
 H179 H 0.17023 0.70318 -0.13084
 H180 H 0.20308 0.67042 -0.13068
 H181 H 0.17546 0.67537 -0.17053
 H182 H 0.16388 0.66384 -0.15860
 N183 N 0.14483 0.18496 0.32574
 N184 N 0.14484 0.17479 0.31582
 C185 C 0.13365 0.17708 0.30674
 C186 C 0.12619 0.18936 0.31121
 C187 C 0.13367 0.19405 0.32333
 H188 H 0.13115 0.17028 0.29757
 H189 H 0.13124 0.20338 0.32996
 Cu190 Cu 0.15949 0.15955 0.31578
 Cu191 Cu 0.15929 0.18577 0.34106
 Cu192 Cu 0.18581 0.15913 0.34091
 N193 N 0.17467 0.14484 0.31568
 N194 N 0.18488 0.14477 0.32557
 C195 C 0.19393 0.13361 0.32310
 C196 C 0.18920 0.12618 0.31097
 C197 C 0.17690 0.13367 0.30656
 H198 H 0.20328 0.13115 0.32969
 H199 H 0.17007 0.13121 0.29740
 N200 N 0.18494 0.17458 0.35556
 N201 N 0.17486 0.18472 0.35563
 C202 C 0.17723 0.19367 0.36687
 C203 C 0.18943 0.18896 0.37429
 C204 C 0.19400 0.17680 0.36675
 H205 H 0.17056 0.20295 0.36942
 H206 H 0.20326 0.17005 0.36918
 H207 H 0.17546 0.17545 0.32954
 H208 H 0.16388 0.16386 0.34140
 N209 N 0.64463 0.31518 0.67437
 N210 N 0.64454 0.32546 0.68419
 C211 C 0.63333 0.32320 0.69326
 C212 C 0.62597 0.31082 0.68889
 C213 C 0.63352 0.30606 0.67684
 H214 H 0.63076 0.33007 0.70236
 H215 H 0.63118 0.29666 0.67030
 Cu216 Cu 0.65913 0.34076 0.68410
 Cu217 Cu 0.65910 0.31426 0.65912
 Cu218 Cu 0.68566 0.34077 0.65904
 N219 N 0.67443 0.35534 0.68413
 N220 N 0.68472 0.35526 0.67431
 C221 C 0.69384 0.36637 0.67678
 C222 C 0.68906 0.37391 0.68884
 C223 C 0.67668 0.36654 0.69320
 H224 H 0.70325 0.36872 0.67024
 H225 H 0.66981 0.36910 0.70230
 N226 N 0.68476 0.32519 0.64450
 N227 N 0.67463 0.31510 0.64455
 C228 C 0.67690 0.30605 0.63337
 C229 C 0.68908 0.31061 0.62586
 C230 C 0.69375 0.32281 0.63328
 H231 H 0.67016 0.29681 0.63092
 H232 H 0.70303 0.32948 0.63074
 H233 H 0.67526 0.32475 0.67064
 H234 H 0.66377 0.33622 0.65855
 N235 N 0.64461 0.81509 1.17441
 N236 N 0.64472 0.82515 1.18444
 C237 C 0.63350 0.82292 1.19350
 C238 C 0.62593 0.81076 1.18891
 C239 C 0.63336 0.80610 1.17674
 H240 H 0.63108 0.82964 1.20275
 H241 H 0.63084 0.79687 1.17003
 Cu242 Cu 0.65963 0.84007 1.18452
 Cu243 Cu 0.65909 0.81424 1.15910
 Cu244 Cu 0.68568 0.84087 1.15918
 N245 N 0.67449 0.85502 1.18458
 N246 N 0.68463 0.85526 1.17461
 C247 C 0.69353 0.86655 1.17709
 C248 C 0.68873 0.87386 1.18929
 C249 C 0.67658 0.86618 1.19373
 H250 H 0.70282 0.86917 1.17047
 H251 H 0.66977 0.86849 1.20294
 N252 N 0.68477 0.82532 1.14455
 N253 N 0.67465 0.81521 1.14455
 C254 C 0.67696 0.80619 1.13335
 C255 C 0.68914 0.81078 1.12587
 C256 C 0.69379 0.82297 1.13333
 H257 H 0.67025 0.79693 1.13088
 H258 H 0.70308 0.82964 1.13082
 H259 H 0.67557 0.82446 1.17038
 H260 H 0.66386 0.83618 1.15881
 N261 N 0.14466 0.31512 1.17439
 N262 N 0.14466 0.32534 1.18427
 C263 C 0.13347 0.32310 1.19337
 C264 C 0.12603 0.31079 1.18895
 C265 C 0.13351 0.30605 1.17685
 H266 H 0.13096 0.32993 1.20250
 H267 H 0.13110 0.29669 1.17026
 Cu268 Cu 0.15931 0.34056 1.18418
 Cu269 Cu 0.15907 0.31424 1.15906
 Cu270 Cu 0.18563 0.34079 1.15896
 N271 N 0.17451 0.35522 1.18417
 N272 N 0.18472 0.35522 1.17427
 C273 C 0.19378 0.36638 1.17669
 C274 C 0.18905 0.37387 1.18879
 C275 C 0.17675 0.36642 1.19324
 H276 H 0.20314 0.36879 1.17009
 H277 H 0.16992 0.36894 1.20238
 N278 N 0.18467 0.32524 1.14439
 N279 N 0.17455 0.31515 1.14444
 C280 C 0.17682 0.30611 1.13325
 C281 C 0.18899 0.31070 1.12573
 C282 C 0.19366 0.32289 1.13316
 H283 H 0.17010 0.29685 1.13080
 H284 H 0.20294 0.32956 1.13063
 H285 H 0.17533 0.32465 1.17048
 H286 H 0.16374 0.33621 1.15858
 N287 N 0.14472 0.81517 0.67427
 N288 N 0.14472 0.82538 0.68416
 C289 C 0.13353 0.82314 0.69325
 C290 C 0.12608 0.81083 0.68883
 C291 C 0.13357 0.80610 0.67672
 H292 H 0.13102 0.82997 0.70239
 H293 H 0.13114 0.79675 0.67012
 Cu294 Cu 0.15937 0.84060 0.68407
 Cu295 Cu 0.15911 0.81431 0.65893
 Cu296 Cu 0.18568 0.84084 0.65885
 N297 N 0.17458 0.85526 0.68407
 N298 N 0.18479 0.85525 0.67418
 C299 C 0.19386 0.86641 0.67660
 C300 C 0.18912 0.87390 0.68870
 C301 C 0.17682 0.86645 0.69314
 H302 H 0.20321 0.86883 0.66999
 H303 H 0.16998 0.86897 0.70228
 N304 N 0.18471 0.82532 0.64426
 N305 N 0.17458 0.81523 0.64430
 C306 C 0.17685 0.80621 0.63309
 C307 C 0.18902 0.81080 0.62558
 C308 C 0.19369 0.82298 0.63303
 H309 H 0.17013 0.79695 0.63064
 H310 H 0.20298 0.82965 0.63050
 H311 H 0.17539 0.82469 0.67036
 H312 H 0.16380 0.83626 0.65847
 N313 N 0.35541 0.68452 0.67468
 N314 N 0.35538 0.67419 0.68445
 C315 C 0.36652 0.67633 0.69361
 C316 C 0.37398 0.68868 0.68937
 C317 C 0.36655 0.69356 0.67728
 H318 H 0.36898 0.66940 0.70270
 H319 H 0.36899 0.70300 0.67081
 Cu320 Cu 0.34074 0.65897 0.68427
 Cu321 Cu 0.34100 0.68556 0.65934
 Cu322 Cu 0.31436 0.65909 0.65912
 N323 N 0.32544 0.64442 0.68419
 N324 N 0.31518 0.64454 0.67435
 C325 C 0.30605 0.63344 0.67678
 C326 C 0.31078 0.62587 0.68884
 C327 C 0.32315 0.63321 0.69324
 H328 H 0.29665 0.63111 0.67022
 H329 H 0.32998 0.63064 0.70236
 N330 N 0.31536 0.67471 0.64462
 N331 N 0.32550 0.68478 0.64470
 C332 C 0.32326 0.69385 0.63351
 C333 C 0.31110 0.68930 0.62597
 C334 C 0.30640 0.67710 0.63338
 H335 H 0.33002 0.70309 0.63108
 H336 H 0.29713 0.67043 0.63082
 H337 H 0.32478 0.67512 0.67077
 H338 H 0.33629 0.66365 0.65871
 N339 N 0.35555 0.18436 1.17467
 N340 N 0.35523 0.17429 1.18470
 C341 C 0.36640 0.17638 1.19384
 C342 C 0.37417 0.18845 1.18932
 C343 C 0.36690 0.19319 1.17708
 H344 H 0.36864 0.16965 1.20312
 H345 H 0.36959 0.20241 1.17039
 Cu346 Cu 0.34015 0.15954 1.18490
 Cu347 Cu 0.34115 0.18540 1.15930
 Cu348 Cu 0.31449 0.15894 1.15909
 N349 N 0.32529 0.14458 1.18446
 N350 N 0.31531 0.14443 1.17435
 C351 C 0.30636 0.13313 1.17658
 C352 C 0.31094 0.12573 1.18880
 C353 C 0.32303 0.13335 1.19349
 H354 H 0.29719 0.13058 1.16980
 H355 H 0.32966 0.13098 1.20281
 N356 N 0.31550 0.17453 1.14459
 N357 N 0.32565 0.18460 1.14465
 C358 C 0.32339 0.19367 1.13347
 C359 C 0.31121 0.18912 1.12595
 C360 C 0.30653 0.17692 1.13337
 H361 H 0.33013 0.20292 1.13102
 H362 H 0.29725 0.17026 1.13083
 H363 H 0.32459 0.17531 1.17050
 H364 H 0.33643 0.16348 1.15914
 N365 N 0.85540 0.68446 1.17472
 N366 N 0.85507 0.67440 1.18476
 C367 C 0.86624 0.67650 1.19390
 C368 C 0.87402 0.68855 1.18936
 C369 C 0.86676 0.69328 1.17711
 H370 H 0.86848 0.66978 1.20320
 H371 H 0.86945 0.70248 1.17040
 Cu372 Cu 0.83999 0.65965 1.18497
 Cu373 Cu 0.84100 0.68548 1.15935
 Cu374 Cu 0.81434 0.65902 1.15915
 N375 N 0.82513 0.64468 1.18453
 N376 N 0.81516 0.64451 1.17440
 C377 C 0.80623 0.63321 1.17664
 C378 C 0.81080 0.62582 1.18886
 C379 C 0.82288 0.63346 1.19356
 H380 H 0.79706 0.63064 1.16984
 H381 H 0.82950 0.63110 1.20289
 N382 N 0.81536 0.67461 1.14464
 N383 N 0.82550 0.68469 1.14470
 C384 C 0.82325 0.69375 1.13352
 C385 C 0.81107 0.68921 1.12600
 C386 C 0.80638 0.67701 1.13341
 H387 H 0.82999 0.70300 1.13108
 H388 H 0.79710 0.67035 1.13087
 H389 H 0.82442 0.67540 1.17055
 H390 H 0.83628 0.66355 1.15921
 N391 N 0.85526 0.18453 0.67474
 N392 N 0.85511 0.17431 0.68461
 C393 C 0.86623 0.17645 0.69380
 C394 C 0.87380 0.18870 0.68947
 C395 C 0.86646 0.19352 0.67730
 H396 H 0.86861 0.16958 0.70295
 H397 H 0.86900 0.20288 0.67075
 Cu398 Cu 0.84039 0.15919 0.68446
 Cu399 Cu 0.84092 0.18551 0.65932
 Cu400 Cu 0.81426 0.15902 0.65911
 N401 N 0.82520 0.14456 0.68436
 N402 N 0.81505 0.14456 0.67441
 C403 C 0.80597 0.13341 0.67680
 C404 C 0.81065 0.12593 0.68894
 C405 C 0.82292 0.13337 0.69343
 H406 H 0.79665 0.13099 0.67017
 H407 H 0.82970 0.13087 0.70261
 N408 N 0.81532 0.17458 0.64456
 N409 N 0.82547 0.18465 0.64462
 C410 C 0.82324 0.19368 0.63340
 C411 C 0.81108 0.18910 0.62586
 C412 C 0.80638 0.17693 0.63330
 H413 H 0.82999 0.20293 0.63095
 H414 H 0.79711 0.17026 0.63076
 H415 H 0.82456 0.17520 0.67063
 H416 H 0.83618 0.16360 0.65882
 N417 N 0.31503 0.35525 0.67435
 N418 N 0.32520 0.35528 0.68428
 C419 C 0.32289 0.36647 0.69335
 C420 C 0.31059 0.37390 0.68886
 C421 C 0.30592 0.36640 0.67674
 H422 H 0.32967 0.36898 0.70251
 H423 H 0.29658 0.36881 0.67011
 Cu424 Cu 0.34045 0.34068 0.68439
 Cu425 Cu 0.31428 0.34077 0.65907
 Cu426 Cu 0.34098 0.31430 0.65932
 N427 N 0.35518 0.32555 0.68457
 N428 N 0.35533 0.31530 0.67473
 C429 C 0.36654 0.30631 0.67730
 C430 C 0.37388 0.31113 0.68945
 C431 C 0.36631 0.32340 0.69376
 H432 H 0.36908 0.29694 0.67077
 H433 H 0.36869 0.33028 0.70289
 N434 N 0.32553 0.31512 0.64463
 N435 N 0.31537 0.32519 0.64454
 C436 C 0.30643 0.32281 0.63329
 C437 C 0.31116 0.31063 0.62587
 C438 C 0.32333 0.30607 0.63343
 H439 H 0.29714 0.32948 0.63073
 H440 H 0.33010 0.29683 0.63100
 H441 H 0.32464 0.32464 0.67064
 H442 H 0.33622 0.33622 0.65877
 N443 N 0.31517 0.85546 0.17413
 N444 N 0.32535 0.85547 0.18406
 C445 C 0.32305 0.86666 0.19312
 C446 C 0.31076 0.87410 0.18864
 C447 C 0.30607 0.86661 0.17652
 H448 H 0.32985 0.86917 0.20228
 H449 H 0.29674 0.86903 0.16990
 Cu450 Cu 0.34058 0.84085 0.18416
 Cu451 Cu 0.31441 0.84098 0.15885
 Cu452 Cu 0.34109 0.81448 0.15908
 N453 N 0.35529 0.82571 0.18434
 N454 N 0.35542 0.81545 0.17450
 C455 C 0.36662 0.80645 0.17707
 C456 C 0.37397 0.81128 0.18922
 C457 C 0.36641 0.82356 0.19353
 H458 H 0.36916 0.79708 0.17054
 H459 H 0.36880 0.83044 0.20266
 N460 N 0.32565 0.81533 0.14439
 N461 N 0.31549 0.82541 0.14431
 C462 C 0.30655 0.82304 0.13305
 C463 C 0.31128 0.81085 0.12564
 C464 C 0.32344 0.80629 0.13319
 H465 H 0.29727 0.82971 0.13049
 H466 H 0.33020 0.79704 0.13076
 H467 H 0.32476 0.82482 0.17041
 H468 H 0.33635 0.83639 0.15854
 N469 N 0.81516 0.35558 0.17429
 N470 N 0.82520 0.35542 0.18435
 C471 C 0.82294 0.36662 0.19342
 C472 C 0.81084 0.37426 0.18877
 C473 C 0.80622 0.36687 0.17656
 H474 H 0.82964 0.36901 0.20267
 H475 H 0.79701 0.36945 0.16982
 Cu476 Cu 0.84016 0.34054 0.18448
 Cu477 Cu 0.81436 0.34110 0.15896
 Cu478 Cu 0.84107 0.31455 0.15918
 N479 N 0.85512 0.32565 0.18462
 N480 N 0.85542 0.31554 0.17464
 C481 C 0.86676 0.30669 0.17708
 C482 C 0.87402 0.31145 0.18931
 C483 C 0.86627 0.32354 0.19380
 H484 H 0.86945 0.29745 0.17042
 H485 H 0.86854 0.33032 0.20301
 N486 N 0.82559 0.31542 0.14449
 N487 N 0.81544 0.32550 0.14441
 C488 C 0.80648 0.32312 0.13318
 C489 C 0.81118 0.31092 0.12577
 C490 C 0.82336 0.30636 0.13331
 H491 H 0.79719 0.32979 0.13062
 H492 H 0.83011 0.29711 0.13088
 H493 H 0.82453 0.32473 0.17030
 H494 H 0.83627 0.33643 0.15876
 N495 N 0.81521 0.85578 0.67424
 N496 N 0.82544 0.85583 0.68412
 C497 C 0.82316 0.86703 0.69318
 C498 C 0.81083 0.87444 0.68875
 C499 C 0.80611 0.86693 0.67666
 H500 H 0.82997 0.86955 0.70233
 H501 H 0.79674 0.86932 0.67007
 Cu502 Cu 0.84068 0.84122 0.68421
 Cu503 Cu 0.81438 0.84123 0.65902
 Cu504 Cu 0.84107 0.81474 0.65923
 N505 N 0.85540 0.82607 0.68437
 N506 N 0.85549 0.81578 0.67456
 C507 C 0.86669 0.80678 0.67713
 C508 C 0.87409 0.81163 0.68924
 C509 C 0.86655 0.82394 0.69352
 H510 H 0.86920 0.79738 0.67062
 H511 H 0.86897 0.83083 0.70264
 N512 N 0.82555 0.81552 0.64462
 N513 N 0.81539 0.82560 0.64454
 C514 C 0.80642 0.82320 0.63331
 C515 C 0.81114 0.81101 0.62590
 C516 C 0.82332 0.80646 0.63344
 H517 H 0.79714 0.82988 0.63074
 H518 H 0.83009 0.79722 0.63100
 H519 H 0.82477 0.82512 0.67062
 H520 H 0.83630 0.83663 0.65863
 N521 N 0.68482 0.64487 0.67435
 N522 N 0.67459 0.64487 0.68424
 C523 C 0.67684 0.63367 0.69332
 C524 C 0.68916 0.62622 0.68889
 C525 C 0.69389 0.63371 0.67679
 H526 H 0.67001 0.63116 0.70246
 H527 H 0.70325 0.63129 0.67020
 Cu528 Cu 0.65935 0.65953 0.68423
 Cu529 Cu 0.68569 0.65931 0.65902
 Cu530 Cu 0.65912 0.68587 0.65910
 N531 N 0.64470 0.67479 0.68431
 N532 N 0.64470 0.68502 0.67443
 C533 C 0.63355 0.69411 0.67688
 C534 C 0.62606 0.68939 0.68899
 C535 C 0.63351 0.67706 0.69340
 H536 H 0.63114 0.70347 0.67029
 H537 H 0.63099 0.67022 0.70254
 N538 N 0.67459 0.68495 0.64447
 N539 N 0.68472 0.67485 0.64443
 C540 C 0.69371 0.67721 0.63319
 C541 C 0.68903 0.68941 0.62576
 C542 C 0.67685 0.69399 0.63327
 H543 H 0.70299 0.67053 0.63066
 H544 H 0.67012 0.70325 0.63082
 H545 H 0.67537 0.67544 0.67055
 H546 H 0.66380 0.66390 0.65863
 N547 N 0.68490 0.14447 0.17404
 N548 N 0.67491 0.14468 0.18415
 C549 C 0.67712 0.13343 0.19318
 C550 C 0.68918 0.12573 0.18849
 C551 C 0.69380 0.13311 0.17627
 H552 H 0.67047 0.13109 0.20250
 H553 H 0.70297 0.13051 0.16949
 Cu554 Cu 0.66008 0.15975 0.18458
 Cu555 Cu 0.68581 0.15898 0.15877
 Cu556 Cu 0.65921 0.18553 0.15890
 N557 N 0.64499 0.17457 0.18427
 N558 N 0.64476 0.18458 0.17418
 C559 C 0.63342 0.19348 0.17645
 C560 C 0.62606 0.18886 0.18867
 C561 C 0.63376 0.17678 0.19333
 H562 H 0.63081 0.20266 0.16968
 H563 H 0.63144 0.17012 0.20265
 N564 N 0.67473 0.18470 0.14432
 N565 N 0.68487 0.17460 0.14426
 C566 C 0.69388 0.17701 0.13305
 C567 C 0.68920 0.18924 0.12566
 C568 C 0.67701 0.19379 0.13317
 H569 H 0.70317 0.17035 0.13051
 H570 H 0.67027 0.20305 0.13074
 H571 H 0.67574 0.17539 0.17016
 H572 H 0.66389 0.16356 0.15881
 N573 N 0.18463 0.64468 0.17389
 N574 N 0.17460 0.64488 0.18396
 C575 C 0.17679 0.63362 0.19299
 C576 C 0.18888 0.62594 0.18834
 C577 C 0.19353 0.63334 0.17615
 H578 H 0.17010 0.63127 0.20228
 H579 H 0.20273 0.63076 0.16940
 Cu580 Cu 0.15979 0.65996 0.18435
 Cu581 Cu 0.18559 0.65918 0.15862
 Cu582 Cu 0.15904 0.68578 0.15870
 N583 N 0.14475 0.67482 0.18404
 N584 N 0.14457 0.68487 0.17398
 C585 C 0.13326 0.69380 0.17627
 C586 C 0.12587 0.68917 0.18847
 C587 C 0.13352 0.67705 0.19309
 H588 H 0.13069 0.70301 0.16953
 H589 H 0.13116 0.67037 0.20239
 N590 N 0.17457 0.68490 0.14413
 N591 N 0.18470 0.67479 0.14409
 C592 C 0.19371 0.67717 0.13289
 C593 C 0.18907 0.68939 0.12547
 C594 C 0.17688 0.69397 0.13297
 H595 H 0.20299 0.67048 0.13036
 H596 H 0.17016 0.70325 0.13052
 H597 H 0.17553 0.67560 0.17000
 H598 H 0.16369 0.66381 0.15860
 N599 N 0.18452 0.14450 0.67417
 N600 N 0.17451 0.14469 0.68427
 C601 C 0.17673 0.13344 0.69330
 C602 C 0.18882 0.12576 0.68862
 C603 C 0.19343 0.13316 0.67641
 H604 H 0.17008 0.13108 0.70261
 H605 H 0.20261 0.13058 0.66964
 Cu606 Cu 0.15968 0.15976 0.68468
 Cu607 Cu 0.18546 0.15903 0.65892
 Cu608 Cu 0.15887 0.18558 0.65904
 N609 N 0.14461 0.17461 0.68440
 N610 N 0.14440 0.18463 0.67432
 C611 C 0.13309 0.19355 0.67660
 C612 C 0.12571 0.18893 0.68881
 C613 C 0.13339 0.17683 0.69346
 H614 H 0.13050 0.20274 0.66984
 H615 H 0.13105 0.17017 0.70277
 N616 N 0.17440 0.18475 0.64446
 N617 N 0.18454 0.17466 0.64441
 C618 C 0.19354 0.17705 0.63319
 C619 C 0.18887 0.18927 0.62579
 C620 C 0.17668 0.19383 0.63330
 H621 H 0.20282 0.17037 0.63065
 H622 H 0.16994 0.20309 0.63086
 H623 H 0.17539 0.17540 0.67031
 H624 H 0.16355 0.16360 0.65893
 N625 N 0.31509 0.64441 0.32557
 N626 N 0.32514 0.64451 0.31551
 C627 C 0.32288 0.63330 0.30647
 C628 C 0.31070 0.62576 0.31106
 C629 C 0.30609 0.63318 0.32326
 H630 H 0.32956 0.63090 0.29718
 H631 H 0.29685 0.63067 0.32998
 Cu632 Cu 0.34002 0.65947 0.31511
 Cu633 Cu 0.31425 0.65895 0.34081
 Cu634 Cu 0.34092 0.68540 0.34061
 N635 N 0.35510 0.67424 0.31528
 N636 N 0.35534 0.68435 0.32526
 C637 C 0.36665 0.69324 0.32282
 C638 C 0.37396 0.68848 0.31061
 C639 C 0.36628 0.67635 0.30614
 H640 H 0.36927 0.70249 0.32946
 H641 H 0.36857 0.66960 0.29689
 N642 N 0.32541 0.68462 0.35524
 N643 N 0.31525 0.67456 0.35531
 C644 C 0.30630 0.67694 0.36657
 C645 C 0.31101 0.68912 0.37399
 C646 C 0.32318 0.69366 0.36644
 H647 H 0.29702 0.67027 0.36913
 H648 H 0.32996 0.70289 0.36889
 H649 H 0.32439 0.67530 0.32936
 H650 H 0.33618 0.66350 0.34082
 N651 N 0.31492 0.14448 0.82550
 N652 N 0.32488 0.14471 0.81535
 C653 C 0.32262 0.13353 0.80627
 C654 C 0.31056 0.12585 0.81096
 C655 C 0.30600 0.13318 0.82323
 H656 H 0.32928 0.13116 0.79696
 H657 H 0.29686 0.13055 0.83006
 Cu658 Cu 0.33984 0.15958 0.81523
 Cu659 Cu 0.31420 0.15885 0.84093
 Cu660 Cu 0.34092 0.18535 0.84074
 N661 N 0.35483 0.17443 0.81512
 N662 N 0.35519 0.18444 0.82521
 C663 C 0.36656 0.19325 0.82281
 C664 C 0.37379 0.18856 0.81053
 C665 C 0.36598 0.17654 0.80596
 H666 H 0.36931 0.20240 0.82956
 H667 H 0.36824 0.16981 0.79669
 N668 N 0.32551 0.18442 0.85550
 N669 N 0.31535 0.17435 0.85557
 C670 C 0.30640 0.17672 0.86683
 C671 C 0.31112 0.18889 0.87426
 C672 C 0.32328 0.19345 0.86671
 H673 H 0.29710 0.17009 0.86936
 H674 H 0.33002 0.20270 0.86913
 H675 H 0.32432 0.17529 0.82969
 H676 H 0.33614 0.16345 0.84102
 N677 N 0.81518 0.64460 0.82567
 N678 N 0.82535 0.64458 0.81574
 C679 C 0.82307 0.63338 0.80668
 C680 C 0.81077 0.62595 0.81116
 C681 C 0.80609 0.63345 0.82328
 H682 H 0.82986 0.63086 0.79751
 H683 H 0.79675 0.63105 0.82992
 Cu684 Cu 0.84057 0.65921 0.81564
 Cu685 Cu 0.81441 0.65907 0.84098
 Cu686 Cu 0.84106 0.68554 0.84075
 N687 N 0.85529 0.67434 0.81547
 N688 N 0.85540 0.68458 0.82533
 C689 C 0.86659 0.69358 0.82278
 C690 C 0.87397 0.68877 0.81063
 C691 C 0.86643 0.67649 0.80630
 H692 H 0.86911 0.70294 0.82932
 H693 H 0.86884 0.66962 0.79717
 N694 N 0.82562 0.68469 0.85545
 N695 N 0.81547 0.67462 0.85554
 C696 C 0.80653 0.67700 0.86679
 C697 C 0.81124 0.68918 0.87421
 C698 C 0.82340 0.69373 0.86666
 H699 H 0.79724 0.67035 0.86935
 H700 H 0.83015 0.70298 0.86908
 H701 H 0.82473 0.67524 0.82942
 H702 H 0.83634 0.66364 0.84126
 N703 N 0.81509 0.14441 0.32566
 N704 N 0.82526 0.14438 0.31573
 C705 C 0.82297 0.13320 0.30666
 C706 C 0.81067 0.12578 0.31114
 C707 C 0.80599 0.13327 0.32326
 H708 H 0.82976 0.13068 0.29749
 H709 H 0.79665 0.13087 0.32989
 Cu710 Cu 0.84052 0.15897 0.31563
 Cu711 Cu 0.81433 0.15889 0.34096
 Cu712 Cu 0.84100 0.18535 0.34072
 N713 N 0.85522 0.17411 0.31545
 N714 N 0.85534 0.18436 0.32530
 C715 C 0.86653 0.19336 0.32273
 C716 C 0.87390 0.18853 0.31058
 C717 C 0.86635 0.17626 0.30627
 H718 H 0.86905 0.20272 0.32926
 H719 H 0.86876 0.16938 0.29714
 N720 N 0.82556 0.18452 0.35542
 N721 N 0.81541 0.17445 0.35551
 C722 C 0.80647 0.17682 0.36677
 C723 C 0.81119 0.18900 0.37419
 C724 C 0.82334 0.19356 0.36663
 H725 H 0.79719 0.17016 0.36934
 H726 H 0.83010 0.20280 0.36905
 H727 H 0.82469 0.17503 0.32938
 H728 H 0.83629 0.16345 0.34125
 N729 N 0.68476 0.35521 0.32567
 N730 N 0.67457 0.35520 0.31576
 C731 C 0.67682 0.36639 0.30667
 C732 C 0.68911 0.37386 0.31112
 C733 C 0.69382 0.36638 0.32324
 H734 H 0.67001 0.36890 0.29751
 H735 H 0.70315 0.36880 0.32986
 Cu736 Cu 0.65935 0.34054 0.31576
 Cu737 Cu 0.68565 0.34078 0.34100
 Cu738 Cu 0.65911 0.31422 0.34092
 N739 N 0.64472 0.32529 0.31569
 N740 N 0.64472 0.31508 0.32559
 C741 C 0.63358 0.30600 0.32316
 C742 C 0.62610 0.31071 0.31104
 C743 C 0.63355 0.32302 0.30660
 H744 H 0.63116 0.29666 0.32977
 H745 H 0.63104 0.32983 0.29744
 N746 N 0.67457 0.31515 0.35555
 N747 N 0.68469 0.32524 0.35559
 C748 C 0.69366 0.32290 0.36683
 C749 C 0.68899 0.31070 0.37426
 C750 C 0.67684 0.30611 0.36675
 H751 H 0.70293 0.32958 0.36936
 H752 H 0.67011 0.29685 0.36920
 H753 H 0.67535 0.32464 0.32949
 H754 H 0.66375 0.33619 0.34138
 N755 N 0.68464 0.85541 0.82588
 N756 N 0.67435 0.85550 0.81607
 C757 C 0.67660 0.86669 0.80698
 C758 C 0.68899 0.87405 0.81134
 C759 C 0.69375 0.86651 0.82340
 H760 H 0.66974 0.86926 0.79788
 H761 H 0.70317 0.86886 0.82994
 Cu762 Cu 0.65904 0.84093 0.81611
 Cu763 Cu 0.68557 0.84093 0.84115
 Cu764 Cu 0.65902 0.81441 0.84111
 N765 N 0.64447 0.82562 0.81604
 N766 N 0.64455 0.81533 0.82585
 C767 C 0.63344 0.80622 0.82339
 C768 C 0.62590 0.81099 0.81134
 C769 C 0.63326 0.82337 0.80697
 H770 H 0.63109 0.79681 0.82993
 H771 H 0.63070 0.83024 0.79787
 N772 N 0.67455 0.81526 0.85566
 N773 N 0.68467 0.82535 0.85569
 C774 C 0.69367 0.82299 0.86691
 C775 C 0.68901 0.81079 0.87435
 C776 C 0.67683 0.80622 0.86685
 H777 H 0.70294 0.82967 0.86943
 H778 H 0.67010 0.79697 0.86932
 H779 H 0.67517 0.82491 0.82956
 H780 H 0.66368 0.83637 0.84166
 N781 N 0.18464 0.35514 0.82575
 N782 N 0.17448 0.35509 0.81581
 C783 C 0.17672 0.36630 0.80673
 C784 C 0.18897 0.37379 0.81121
 C785 C 0.19367 0.36633 0.82335
 H786 H 0.16992 0.36878 0.79756
 H787 H 0.20298 0.36879 0.82999
 Cu788 Cu 0.15932 0.34037 0.81581
 Cu789 Cu 0.18552 0.34072 0.84111
 Cu790 Cu 0.15893 0.31418 0.84106
 N791 N 0.14459 0.32521 0.81578
 N792 N 0.14453 0.31505 0.82572
 C793 C 0.13335 0.30601 0.82332
 C794 C 0.12589 0.31071 0.81119
 C795 C 0.13339 0.32297 0.80670
 H796 H 0.13089 0.29671 0.82997
 H797 H 0.13090 0.32976 0.79752
 N798 N 0.17441 0.31509 0.85568
 N799 N 0.18455 0.32518 0.85571
 C800 C 0.19353 0.32281 0.86694
 C801 C 0.18885 0.31063 0.87438
 C802 C 0.17668 0.30605 0.86688
 H803 H 0.20282 0.32947 0.86945
 H804 H 0.16996 0.29679 0.86932
 H805 H 0.17528 0.32450 0.82966
 H806 H 0.16364 0.33612 0.84145
 N807 N 0.18454 0.85542 0.32573
 N808 N 0.17429 0.85544 0.31586
 C809 C 0.17652 0.86664 0.30677
 C810 C 0.18885 0.87406 0.31117
 C811 C 0.19360 0.86657 0.32326
 H812 H 0.16972 0.86911 0.29759
 H813 H 0.20300 0.86895 0.32981
 Cu814 Cu 0.15936 0.84052 0.31588
 Cu815 Cu 0.18558 0.84087 0.34098
 Cu816 Cu 0.15898 0.81428 0.34093
 N817 N 0.14444 0.82557 0.31582
 N818 N 0.14445 0.81531 0.32569
 C819 C 0.13331 0.80625 0.32323
 C820 C 0.12582 0.81100 0.31113
 C821 C 0.13325 0.82334 0.30673
 H822 H 0.13093 0.79685 0.32978
 H823 H 0.13078 0.83014 0.29756
 N824 N 0.17458 0.81512 0.35546
 N825 N 0.18471 0.82522 0.35549
 C826 C 0.19370 0.82285 0.36670
 C827 C 0.18904 0.81065 0.37414
 C828 C 0.17687 0.80608 0.36665
 H829 H 0.20296 0.82955 0.36925
 H830 H 0.17012 0.79684 0.36913
 H831 H 0.17535 0.82459 0.32959
 H832 H 0.16376 0.83615 0.34145
 C833 C 0.25561 1.01326 0.24492
 C834 C 0.24428 1.01326 0.25525
 C835 C 0.23876 0.99998 0.26018
 C836 C 0.24428 0.98669 0.25522
 C837 C 0.25562 0.98670 0.24490
 C838 C 0.26113 0.99998 0.23996
 H839 H 0.26959 0.99999 0.23181
 H840 H 0.23030 0.99997 0.26832
 C841 C 0.25549 0.51320 0.74493
 C842 C 0.24417 0.51321 0.75528
 C843 C 0.23865 0.49993 0.76023
 C844 C 0.24416 0.48664 0.75529
 C845 C 0.25548 0.48663 0.74495
 C846 C 0.26100 0.49991 0.73999
 H847 H 0.26945 0.49990 0.73183
 H848 H 0.23020 0.49994 0.76838
 C849 C 0.75550 -0.01353 0.25534
 C850 C 0.74458 -0.01352 0.24460
 C851 C 0.73929 -0.00024 0.23940
 C852 C 0.74458 0.01304 0.24459
 C853 C 0.75553 0.01303 0.25531
 C854 C 0.76081 -0.00025 0.26052
 H855 H 0.76918 -0.00026 0.26875
 H856 H 0.73092 -0.00023 0.23117
 C857 C 0.75562 0.48668 0.75511
 C858 C 0.74430 0.48669 0.74478
 C859 C 0.73877 0.49999 0.73985
 C860 C 0.74428 0.51327 0.74480
 C861 C 0.75561 0.51326 0.75513
 C862 C 0.76113 0.49996 0.76007
 H863 H 0.76957 0.49995 0.76822
 H864 H 0.73032 0.50000 0.73170
 C865 C 0.25544 0.48667 0.25490
 C866 C 0.24411 0.48668 0.24457
 C867 C 0.23859 0.49997 0.23963
 C868 C 0.24411 0.51325 0.24456
 C869 C 0.25545 0.51324 0.25489
 C870 C 0.26096 0.49995 0.25984
 H871 H 0.26941 0.49994 0.26799
 H872 H 0.23014 0.49997 0.23148
 C873 C 0.75541 1.01347 0.74519
 C874 C 0.74408 1.01348 0.75553
 C875 C 0.73857 1.00019 0.76047
 C876 C 0.74410 0.98690 0.75552
 C877 C 0.75543 0.98690 0.74518
 C878 C 0.76093 1.00019 0.74023
 H879 H 0.76938 1.00019 0.73208
 H880 H 0.73011 1.00019 0.76861
 C881 C 0.75551 0.51335 0.24506
 C882 C 0.74419 0.51336 0.25540
 C883 C 0.73867 0.50008 0.26035
 C884 C 0.74420 0.48679 0.25541
 C885 C 0.75553 0.48679 0.24507
 C886 C 0.76103 0.50007 0.24011
 H887 H 0.76948 0.50007 0.23196
 H888 H 0.73023 0.50008 0.26851
 C889 C 0.25569 -0.01354 0.75505
 C890 C 0.24434 -0.01352 0.74474
 C891 C 0.23880 -0.00023 0.73980
 C892 C 0.24431 0.01305 0.74472
 C893 C 0.25566 0.01304 0.75504
 C894 C 0.26119 -0.00025 0.75998
 H895 H 0.26965 -0.00025 0.76812
 H896 H 0.23034 -0.00023 0.73167
 C897 C 0.24484 0.25535 1.01330
 C898 C 0.25529 0.24408 1.01330
 C899 C 0.26028 0.23859 1.00006
 C900 C 0.25527 0.24408 0.98682
 C901 C 0.24481 0.25534 0.98682
 C902 C 0.23982 0.26083 1.00006
 H903 H 0.23158 0.26923 1.00007
 H904 H 0.26852 0.23019 1.00005
 C905 C 0.24496 0.75555 0.51317
 C906 C 0.25543 0.74429 0.51317
 C907 C 0.26041 0.73880 0.49993
 C908 C 0.25539 0.74428 0.48669
 C909 C 0.24493 0.75554 0.48670
 C910 C 0.23994 0.76103 0.49994
 H911 H 0.23170 0.76943 0.49995
 H912 H 0.26865 0.73040 0.49993
 C913 C 0.25567 0.75576 -0.01349
 C914 C 0.24517 0.74455 -0.01348
 C915 C 0.24012 0.73910 -0.00024
 C916 C 0.24512 0.74457 0.01300
 C917 C 0.25562 0.75577 0.01300
 C918 C 0.26067 0.76122 -0.00024
 H919 H 0.26894 0.76958 -0.00024
 H920 H 0.23184 0.73075 -0.00025
 C921 C 0.25550 0.25550 0.48680
 C922 C 0.24462 0.24466 0.48680
 C923 C 0.23937 0.23940 0.50003
 C924 C 0.24461 0.24463 0.51327
 C925 C 0.25546 0.25549 0.51327
 C926 C 0.26073 0.26075 0.50004
 H927 H 0.26905 0.26905 0.50005
 H928 H 0.23105 0.23109 0.50002
 C929 C 0.74490 0.75553 1.01330
 C930 C 0.75535 0.74426 1.01330
 C931 C 0.76036 0.73879 1.00005
 C932 C 0.75537 0.74430 0.98682
 C933 C 0.74491 0.75556 0.98683
 C934 C 0.73990 0.76103 1.00007
 H935 H 0.73166 0.76943 1.00008
 H936 H 0.76859 0.73038 1.00005
 C937 C 0.74472 0.25536 0.51323
 C938 C 0.75519 0.24410 0.51324
 C939 C 0.76021 0.23862 0.50000
 C940 C 0.75523 0.24411 0.48676
 C941 C 0.74477 0.25537 0.48675
 C942 C 0.73974 0.26085 0.49998
 H943 H 0.73150 0.26925 0.49997
 H944 H 0.76845 0.23022 0.50001
 C945 C 0.75528 0.25595 -0.01331
 C946 C 0.74483 0.24469 -0.01330
 C947 C 0.73985 0.23919 -0.00006
 C948 C 0.74487 0.24466 0.01317
 C949 C 0.75532 0.25591 0.01317
 C950 C 0.76030 0.26141 -0.00007
 H951 H 0.76853 0.26980 -0.00007
 H952 H 0.73162 0.23080 -0.00006
 C953 C 0.75534 0.75598 0.48678
 C954 C 0.74488 0.74474 0.48680
 C955 C 0.73988 0.73926 0.50004
 C956 C 0.74489 0.74473 0.51328
 C957 C 0.75536 0.75597 0.51327
 C958 C 0.76036 0.76145 0.50002
 H959 H 0.76860 0.76983 0.50001
 H960 H 0.73163 0.73088 0.50005
 C961 C 1.01325 0.24452 0.25545
 C962 C 1.01324 0.25551 0.24476
 C963 C 0.99995 0.26080 0.23957
 C964 C 0.98667 0.25547 0.24474
 C965 C 0.98668 0.24451 0.25545
 C966 C 0.99997 0.23921 0.26063
 H967 H 0.99998 0.23080 0.26882
 H968 H 0.99994 0.26920 0.23137
 C969 C 0.51328 0.24440 0.75549
 C970 C 0.51327 0.25535 0.74476
 C971 C 0.49998 0.26062 0.73956
 C972 C 0.48670 0.25532 0.74475
 C973 C 0.48670 0.24440 0.75550
 C974 C 0.50000 0.23911 0.76069
 H975 H 0.50000 0.23073 0.76891
 H976 H 0.49997 0.26900 0.73133
 C977 C -0.01351 0.25551 0.75545
 C978 C -0.01349 0.24455 0.74475
 C979 C -0.00020 0.23923 0.73958
 C980 C 0.01308 0.24453 0.74476
 C981 C 0.01307 0.25551 0.75545
 C982 C -0.00023 0.26081 0.76063
 H983 H -0.00024 0.26921 0.76883
 H984 H -0.00019 0.23083 0.73139
 C985 C 0.48678 0.25525 0.25541
 C986 C 0.48680 0.24430 0.24470
 C987 C 0.50010 0.23899 0.23954
 C988 C 0.51338 0.24429 0.24472
 C989 C 0.51335 0.25528 0.25541
 C990 C 0.50005 0.26056 0.26059
 H991 H 0.50003 0.26896 0.26879
 H992 H 0.50012 0.23059 0.23134
 C993 C 1.01330 0.74466 0.75538
 C994 C 1.01328 0.75563 0.74468
 C995 C 0.99999 0.76092 0.73950
 C996 C 0.98672 0.75561 0.74469
 C997 C 0.98673 0.74468 0.75543
 C998 C 1.00002 0.73937 0.76059
 H999 H 1.00004 0.73098 0.76881
 H1000 H 0.99997 0.76931 0.73129
 C1001 C 0.51321 0.74456 0.25548
 C1002 C 0.51321 0.75552 0.24477
 C1003 C 0.49993 0.76079 0.23954
 C1004 C 0.48665 0.75546 0.24469
 C1005 C 0.48665 0.74452 0.25542
 C1006 C 0.49993 0.73924 0.26064
 H1007 H 0.49992 0.73085 0.26885
 H1008 H 0.49993 0.76918 0.23133
 C1009 C -0.01335 0.75547 0.25536
 C1010 C -0.01335 0.74452 0.24465
 C1011 C -0.00007 0.73922 0.23946
 C1012 C 0.01322 0.74452 0.24462
 C1013 C 0.01322 0.75550 0.25531
 C1014 C -0.00007 0.76078 0.26052
 H1015 H -0.00007 0.76918 0.26872
 H1016 H -0.00007 0.73082 0.23126
 C1017 C 0.48657 0.75560 0.75555
 C1018 C 0.48658 0.74469 0.74480
 C1019 C 0.49988 0.73939 0.73962
 C1020 C 0.51316 0.74467 0.74483
 C1021 C 0.51315 0.75561 0.75555
 C1022 C 0.49985 0.76089 0.76075
 H1023 H 0.49984 0.76926 0.76898
 H1024 H 0.49989 0.73102 0.73139
 C1025 C 0.41172 0.29213 0.29087
 C1026 C 0.40555 0.30469 0.28506
 C1027 C 0.39329 0.31088 0.29149
 C1028 C 0.38702 0.30459 0.30389
 C1029 C 0.39338 0.29195 0.30964
 C1030 C 0.40563 0.28579 0.30318
 C1031 C 0.42438 0.28578 0.28432
 C1032 C 0.43505 0.28042 0.27900
 C1033 C 0.44791 0.27397 0.27294
 C1034 C 0.44998 0.27363 0.25796
 C1035 C 0.46260 0.26750 0.25218
 C1036 C 0.47320 0.26153 0.26134
 C1037 C 0.47103 0.26193 0.27636
 C1038 C 0.45846 0.26811 0.28212
 H1039 H 0.41021 0.30971 0.27555
 H1040 H 0.38881 0.32059 0.28670
 H1041 H 0.38896 0.28675 0.31914
 H1042 H 0.41036 0.27608 0.30781
 H1043 H 0.44190 0.27818 0.25077
 H1044 H 0.46415 0.26751 0.24058
 H1045 H 0.47907 0.25742 0.28362
 H1046 H 0.45698 0.26834 0.29373
 C1047 C 0.41160 0.79271 0.79102
 C1048 C 0.40507 0.80488 0.78480
 C1049 C 0.39279 0.81110 0.79117
 C1050 C 0.38679 0.80525 0.80394
 C1051 C 0.39358 0.79297 0.81009
 C1052 C 0.40584 0.78679 0.80368
 C1053 C 0.42425 0.78630 0.78450
 C1054 C 0.43491 0.78088 0.77920
 C1055 C 0.44773 0.77437 0.77314
 C1056 C 0.44980 0.77404 0.75816
 C1057 C 0.46240 0.76789 0.75236
 C1058 C 0.47300 0.76189 0.76151
 C1059 C 0.47083 0.76228 0.77653
 C1060 C 0.45827 0.76847 0.78230
 H1061 H 0.40947 0.80957 0.77500
 H1062 H 0.38811 0.82049 0.78596
 H1063 H 0.38953 0.78800 0.81986
 H1064 H 0.41085 0.77738 0.80862
 H1065 H 0.44172 0.77861 0.75097
 H1066 H 0.46394 0.76791 0.74076
 H1067 H 0.47886 0.75774 0.78378
 H1068 H 0.45681 0.76870 0.79391
 C1069 C -0.08855 0.29262 0.79066
 C1070 C -0.09484 0.30505 0.78468
 C1071 C -0.10709 0.31128 0.79111
 C1072 C -0.11323 0.30515 0.80364
 C1073 C -0.10677 0.29263 0.80954
 C1074 C -0.09453 0.28643 0.80309
 C1075 C -0.07589 0.28625 0.78414
 C1076 C -0.06521 0.28085 0.77888
 C1077 C -0.05235 0.27436 0.77287
 C1078 C -0.05025 0.27398 0.75790
 C1079 C -0.03764 0.26781 0.75215
 C1080 C -0.02707 0.26183 0.76135
 C1081 C -0.02927 0.26229 0.77637
 C1082 C -0.04184 0.26850 0.78208
 H1083 H -0.09027 0.30995 0.77507
 H1084 H -0.11167 0.32089 0.78621
 H1085 H -0.11107 0.28756 0.81916
 H1086 H -0.08972 0.27682 0.80784
 H1087 H -0.05830 0.27853 0.75068
 H1088 H -0.03606 0.26779 0.74056
 H1089 H -0.02124 0.25779 0.78365
 H1090 H -0.04333 0.26878 0.79369
 C1091 C -0.08842 0.79232 0.29074
 C1092 C -0.09475 0.80472 0.28475
 C1093 C -0.10701 0.81091 0.29117
 C1094 C -0.11314 0.80477 0.30370
 C1095 C -0.10664 0.79227 0.30962
 C1096 C -0.09439 0.78612 0.30318
 C1097 C -0.07574 0.78599 0.28422
 C1098 C -0.06506 0.78064 0.27893
 C1099 C -0.05220 0.77421 0.27289
 C1100 C -0.05012 0.77387 0.25791
 C1101 C -0.03751 0.76774 0.25213
 C1102 C -0.02691 0.76177 0.26130
 C1103 C -0.02907 0.76219 0.27632
 C1104 C -0.04164 0.76837 0.28207
 H1105 H -0.09019 0.80964 0.27514
 H1106 H -0.11162 0.82050 0.28625
 H1107 H -0.11095 0.78720 0.31923
 H1108 H -0.08954 0.77652 0.30792
 H1109 H -0.05821 0.77840 0.25071
 H1110 H -0.03596 0.76774 0.24053
 H1111 H -0.02103 0.75769 0.28358
 H1112 H -0.04312 0.76862 0.29368
 C1113 C 0.58819 0.70870 0.29202
 C1114 C 0.59433 0.71479 0.30442
 C1115 C 0.60658 0.70848 0.31071
 C1116 C 0.61290 0.69594 0.30469
 C1117 C 0.60658 0.68989 0.29222
 C1118 C 0.59432 0.69624 0.28595
 C1119 C 0.57554 0.71517 0.28560
 C1120 C 0.56488 0.72050 0.28024
 C1121 C 0.55205 0.72666 0.27386
 C1122 C 0.54995 0.74170 0.27378
 C1123 C 0.53734 0.74760 0.26777
 C1124 C 0.52677 0.73850 0.26166
 C1125 C 0.52896 0.72342 0.26180
 C1126 C 0.54153 0.71754 0.26786
 H1127 H 0.58964 0.72443 0.30923
 H1128 H 0.61103 0.71350 0.32028
 H1129 H 0.61104 0.68027 0.28724
 H1130 H 0.58962 0.69141 0.27636
 H1131 H 0.55801 0.74885 0.27845
 H1132 H 0.53577 0.75924 0.26798
 H1133 H 0.52094 0.71620 0.25718
 H1134 H 0.54302 0.70588 0.26791
 C1135 C 0.58837 0.20853 0.79186
 C1136 C 0.59454 0.21463 0.80423
 C1137 C 0.60682 0.20833 0.81049
 C1138 C 0.61315 0.19580 0.80445
 C1139 C 0.60681 0.18976 0.79198
 C1140 C 0.59451 0.19609 0.78576
 C1141 C 0.57567 0.21499 0.78549
 C1142 C 0.56498 0.22031 0.78017
 C1143 C 0.55213 0.22647 0.77384
 C1144 C 0.55006 0.24152 0.77372
 C1145 C 0.53744 0.24743 0.76772
 C1146 C 0.52684 0.23833 0.76165
 C1147 C 0.52900 0.22324 0.76184
 C1148 C 0.54157 0.21735 0.76789
 H1149 H 0.58984 0.22424 0.80907
 H1150 H 0.61128 0.21335 0.82005
 H1151 H 0.61128 0.18016 0.78698
 H1152 H 0.58979 0.19126 0.77618
 H1153 H 0.55814 0.24866 0.77835
 H1154 H 0.53589 0.25907 0.76791
 H1155 H 0.52096 0.21603 0.75726
 H1156 H 0.54304 0.20570 0.76797
 C1157 C 1.08837 0.70882 0.79176
 C1158 C 1.09450 0.69636 0.78568
 C1159 C 1.10678 0.69002 0.79192
 C1160 C 1.11312 0.69607 0.80438
 C1161 C 1.10681 0.70861 0.81041
 C1162 C 1.09454 0.71492 0.80414
 C1163 C 1.07569 0.71528 0.78538
 C1164 C 1.06501 0.72060 0.78005
 C1165 C 1.05216 0.72675 0.77371
 C1166 C 1.04163 0.71763 0.76773
 C1167 C 1.02905 0.72351 0.76169
 C1168 C 1.02687 0.73860 0.76154
 C1169 C 1.03744 0.74770 0.76764
 C1170 C 1.05006 0.74180 0.77364
 H1171 H 1.08978 0.69153 0.77611
 H1172 H 1.11123 0.68040 0.78694
 H1173 H 1.11127 0.71363 0.81997
 H1174 H 1.08986 0.72456 0.80896
 H1175 H 1.04312 0.70598 0.76778
 H1176 H 1.02102 0.71630 0.75709
 H1177 H 1.03587 0.75933 0.76786
 H1178 H 1.05812 0.74894 0.77829
 C1179 C 1.08835 0.20874 0.29188
 C1180 C 1.09452 0.19630 0.28579
 C1181 C 1.10681 0.19000 0.29204
 C1182 C 1.11312 0.19605 0.30452
 C1183 C 1.10678 0.20858 0.31054
 C1184 C 1.09449 0.21485 0.30426
 C1185 C 1.07566 0.21518 0.28548
 C1186 C 1.06497 0.22048 0.28014
 C1187 C 1.05212 0.22662 0.27379
 C1188 C 1.04160 0.21750 0.26779
 C1189 C 1.02902 0.22338 0.26174
 C1190 C 1.02682 0.23846 0.26161
 C1191 C 1.03739 0.24757 0.26772
 C1192 C 1.05001 0.24167 0.27372
 H1193 H 1.08981 0.19146 0.27621
 H1194 H 1.11129 0.18040 0.28705
 H1195 H 1.11122 0.21360 0.32011
 H1196 H 1.08978 0.22447 0.30908
 H1197 H 1.04309 0.20585 0.26784
 H1198 H 1.02100 0.21616 0.25712
 H1199 H 1.03581 0.25920 0.26794
 H1200 H 1.05806 0.24882 0.27838
 C1201 C 0.58823 0.29130 0.70825
 C1202 C 0.59420 0.30389 0.71420
 C1203 C 0.60645 0.31026 0.70793
 C1204 C 0.61293 0.30410 0.69559
 C1205 C 0.60678 0.29142 0.68970
 C1206 C 0.59454 0.28509 0.69599
 C1207 C 0.57558 0.28481 0.71467
 C1208 C 0.56492 0.27947 0.72002
 C1209 C 0.55209 0.27330 0.72639
 C1210 C 0.54151 0.28240 0.73233
 C1211 C 0.52895 0.27651 0.73839
 C1212 C 0.52683 0.26142 0.73859
 C1213 C 0.53746 0.25233 0.73253
 C1214 C 0.55006 0.25825 0.72652
 H1215 H 0.58937 0.30881 0.72368
 H1216 H 0.61078 0.31998 0.71281
 H1217 H 0.61135 0.28632 0.68023
 H1218 H 0.58998 0.27536 0.69127
 H1219 H 0.54295 0.29407 0.73223
 H1220 H 0.52088 0.28372 0.74296
 H1221 H 0.53594 0.24069 0.73236
 H1222 H 0.55816 0.25110 0.72190
 C1223 C 0.58815 0.79140 0.20829
 C1224 C 0.59429 0.80386 0.21435
 C1225 C 0.60654 0.81018 0.20806
 C1226 C 0.61284 0.80412 0.19558
 C1227 C 0.60651 0.79160 0.18956
 C1228 C 0.59427 0.78531 0.19588
 C1229 C 0.57550 0.78496 0.21472
 C1230 C 0.56485 0.77964 0.22009
 C1231 C 0.55203 0.77348 0.22647
 C1232 C 0.54147 0.78259 0.23245
 C1233 C 0.52891 0.77669 0.23849
 C1234 C 0.52677 0.76161 0.23864
 C1235 C 0.53739 0.75251 0.23257
 C1236 C 0.55000 0.75843 0.22657
 H1237 H 0.58959 0.80870 0.22394
 H1238 H 0.61101 0.81978 0.21304
 H1239 H 0.61096 0.78657 0.17999
 H1240 H 0.58956 0.77569 0.19107
 H1241 H 0.54292 0.79425 0.23238
 H1242 H 0.52084 0.78389 0.24307
 H1243 H 0.53586 0.74088 0.23235
 H1244 H 0.55809 0.75130 0.22193
 C1245 C 1.08823 0.29142 0.20832
 C1246 C 1.09437 0.30387 0.21439
 C1247 C 1.10664 0.31018 0.20812
 C1248 C 1.11297 0.30411 0.19566
 C1249 C 1.10666 0.29158 0.18965
 C1250 C 1.09439 0.28530 0.19594
 C1251 C 1.07556 0.28498 0.21473
 C1252 C 1.06489 0.27966 0.22007
 C1253 C 1.05205 0.27349 0.22642
 C1254 C 1.04148 0.28259 0.23238
 C1255 C 1.02892 0.27668 0.23843
 C1256 C 1.02679 0.26160 0.23860
 C1257 C 1.03741 0.25251 0.23250
 C1258 C 1.05001 0.25844 0.22650
 H1259 H 1.08965 0.30872 0.22396
 H1260 H 1.11111 0.31979 0.21310
 H1261 H 1.11111 0.28655 0.18008
 H1262 H 1.08970 0.27567 0.19113
 H1263 H 1.04292 0.29425 0.23232
 H1264 H 1.02086 0.28388 0.24303
 H1265 H 1.03589 0.24087 0.23229
 H1266 H 1.05811 0.25130 0.22186
 C1267 C 1.08829 0.79147 0.70821
 C1268 C 1.09444 0.80392 0.71428
 C1269 C 1.10670 0.81023 0.70800
 C1270 C 1.11302 0.80417 0.69553
 C1271 C 1.10669 0.79164 0.68952
 C1272 C 1.09443 0.78536 0.69582
 C1273 C 1.07561 0.78504 0.71461
 C1274 C 1.06493 0.77973 0.71995
 C1275 C 1.05209 0.77358 0.72630
 C1276 C 1.04153 0.78269 0.73226
 C1277 C 1.02897 0.77680 0.73833
 C1278 C 1.02683 0.76171 0.73851
 C1279 C 1.03744 0.75261 0.73241
 C1280 C 1.05004 0.75853 0.72640
 H1281 H 1.08973 0.80876 0.72386
 H1282 H 1.11117 0.81984 0.71298
 H1283 H 1.11113 0.78662 0.67994
 H1284 H 1.08974 0.77574 0.69101
 H1285 H 1.04297 0.79435 0.73218
 H1286 H 1.02091 0.78400 0.74291
 H1287 H 1.03590 0.74097 0.73220
 H1288 H 1.05812 0.75139 0.72174
 C1289 C 0.41166 0.70778 0.70924
 C1290 C 0.40552 0.69521 0.71507
 C1291 C 0.39329 0.68899 0.70863
 C1292 C 0.38700 0.69526 0.69624
 C1293 C 0.39332 0.70792 0.69048
 C1294 C 0.40554 0.71411 0.69694
 C1295 C 0.42430 0.71415 0.71578
 C1296 C 0.43496 0.71953 0.72109
 C1297 C 0.44779 0.72599 0.72717
 C1298 C 0.44983 0.72630 0.74215
 C1299 C 0.46242 0.73243 0.74797
 C1300 C 0.47303 0.73842 0.73883
 C1301 C 0.47089 0.73804 0.72381
 C1302 C 0.45834 0.73187 0.71802
 H1303 H 0.41019 0.69020 0.72458
 H1304 H 0.38883 0.67927 0.71342
 H1305 H 0.38889 0.71311 0.68099
 H1306 H 0.41023 0.72383 0.69232
 H1307 H 0.44174 0.72174 0.74933
 H1308 H 0.46395 0.73239 0.75956
 H1309 H 0.47894 0.74256 0.71657
 H1310 H 0.45689 0.73165 0.70641
 C1311 C 0.41193 0.20737 0.20914
 C1312 C 0.40564 0.19493 0.21509
 C1313 C 0.39339 0.18875 0.20865
 C1314 C 0.38725 0.19494 0.19614
 C1315 C 0.39373 0.20744 0.19025
 C1316 C 0.40597 0.21358 0.19671
 C1317 C 0.42457 0.21371 0.21570
 C1318 C 0.43522 0.21909 0.22102
 C1319 C 0.44803 0.22555 0.22709
 C1320 C 0.45007 0.22588 0.24208
 C1321 C 0.46266 0.23202 0.24789
 C1322 C 0.47326 0.23801 0.23874
 C1323 C 0.47113 0.23761 0.22372
 C1324 C 0.45858 0.23142 0.21794
 H1325 H 0.41020 0.19001 0.22469
 H1326 H 0.38880 0.17915 0.21354
 H1327 H 0.38942 0.21255 0.18067
 H1328 H 0.41080 0.22320 0.19199
 H1329 H 0.44199 0.22133 0.24926
 H1330 H 0.46418 0.23201 0.25949
 H1331 H 0.47917 0.24213 0.21648
 H1332 H 0.45713 0.23119 0.20633
 C1333 C -0.08821 0.70749 0.20916
 C1334 C -0.09450 0.69506 0.21511
 C1335 C -0.10675 0.68887 0.20869
 C1336 C -0.11290 0.69504 0.19618
 C1337 C -0.10642 0.70755 0.19028
 C1338 C -0.09418 0.71370 0.19672
 C1339 C -0.07558 0.71386 0.21572
 C1340 C -0.06495 0.71926 0.22103
 C1341 C -0.05214 0.72576 0.22709
 C1342 C -0.05009 0.72612 0.24208
 C1343 C -0.03751 0.73227 0.24787
 C1344 C -0.02691 0.73824 0.23871
 C1345 C -0.02906 0.73783 0.22369
 C1346 C -0.04160 0.73163 0.21792
 H1347 H -0.08994 0.69014 0.22472
 H1348 H -0.11133 0.67926 0.21358
 H1349 H -0.11073 0.71265 0.18069
 H1350 H -0.08936 0.72331 0.19200
 H1351 H -0.05817 0.72157 0.24927
 H1352 H -0.03598 0.73227 0.25946
 H1353 H -0.02102 0.74235 0.21643
 H1354 H -0.04305 0.73138 0.20631
 C1355 C -0.08846 0.20768 0.70931
 C1356 C -0.09443 0.21389 0.69688
 C1357 C -0.10667 0.20774 0.69043
 C1358 C -0.11316 0.19524 0.69633
 C1359 C -0.10702 0.18908 0.70885
 C1360 C -0.09477 0.19526 0.71527
 C1361 C -0.07580 0.21400 0.71584
 C1362 C -0.06513 0.21936 0.72114
 C1363 C -0.05229 0.22580 0.72719
 C1364 C -0.04173 0.23164 0.71802
 C1365 C -0.02918 0.23782 0.72379
 C1366 C -0.02704 0.23825 0.73881
 C1367 C -0.03765 0.23230 0.74797
 C1368 C -0.05024 0.22616 0.74217
 H1369 H -0.08960 0.22349 0.69214
 H1370 H -0.11097 0.21283 0.68083
 H1371 H -0.11162 0.17948 0.71376
 H1372 H -0.09021 0.19034 0.72489
 H1373 H -0.04318 0.23139 0.70641
 H1374 H -0.02113 0.24232 0.71653
 H1375 H -0.03612 0.23230 0.75956
 H1376 H -0.05833 0.22162 0.74936
 C1377 C 0.29125 0.41167 0.29146
 C1378 C 0.30384 0.40567 0.28552
 C1379 C 0.31019 0.39343 0.29181
 C1380 C 0.30402 0.38700 0.30417
 C1381 C 0.29133 0.39317 0.31004
 C1382 C 0.28501 0.40541 0.30373
 C1383 C 0.28480 0.42433 0.28503
 C1384 C 0.27950 0.43499 0.27966
 C1385 C 0.27337 0.44783 0.27329
 C1386 C 0.28250 0.45839 0.26738
 C1387 C 0.27663 0.47096 0.26131
 C1388 C 0.26153 0.47311 0.26108
 C1389 C 0.25242 0.46250 0.26714
 C1390 C 0.25832 0.44988 0.27313
 H1391 H 0.30877 0.41047 0.27603
 H1392 H 0.31992 0.38908 0.28694
 H1393 H 0.28621 0.38863 0.31952
 H1394 H 0.27527 0.41000 0.30843
 H1395 H 0.29417 0.45693 0.26752
 H1396 H 0.28386 0.47900 0.25675
 H1397 H 0.24078 0.46404 0.26732
 H1398 H 0.25116 0.44179 0.27772
 C1399 C 0.29163 -0.08861 0.79159
 C1400 C 0.30395 -0.09490 0.78539
 C1401 C 0.31027 -0.10718 0.79163
 C1402 C 0.30437 -0.11344 0.80426
 C1403 C 0.29193 -0.10692 0.81038
 C1404 C 0.28565 -0.09464 0.80409
 C1405 C 0.28520 -0.07591 0.78518
 C1406 C 0.27990 -0.06522 0.77984
 C1407 C 0.27373 -0.05237 0.77348
 C1408 C 0.28283 -0.04175 0.76761
 C1409 C 0.27692 -0.02920 0.76152
 C1410 C 0.26182 -0.02710 0.76123
 C1411 C 0.25274 -0.03776 0.76727
 C1412 C 0.25867 -0.05036 0.77327
 H1413 H 0.30869 -0.09029 0.77571
 H1414 H 0.31978 -0.11165 0.78646
 H1415 H 0.28692 -0.11119 0.82004
 H1416 H 0.27612 -0.08984 0.80900
 H1417 H 0.29450 -0.04315 0.76778
 H1418 H 0.28414 -0.02112 0.75700
 H1419 H 0.24109 -0.03627 0.76743
 H1420 H 0.25153 -0.05848 0.77784
 C1421 C 0.79137 0.41170 0.79178
 C1422 C 0.80382 0.40553 0.78573
 C1423 C 0.81016 0.39329 0.79204
 C1424 C 0.80413 0.38697 0.80458
 C1425 C 0.79155 0.39337 0.81054
 C1426 C 0.78527 0.40561 0.80419
 C1427 C 0.78495 0.42436 0.78534
 C1428 C 0.77967 0.43503 0.77996
 C1429 C 0.77354 0.44787 0.77358
 C1430 C 0.78268 0.45843 0.76767
 C1431 C 0.77681 0.47098 0.76157
 C1432 C 0.76171 0.47313 0.76131
 C1433 C 0.75260 0.46254 0.76739
 C1434 C 0.75849 0.44993 0.77340
 H1435 H 0.80865 0.41020 0.77612
 H1436 H 0.81977 0.38891 0.78697
 H1437 H 0.78645 0.38906 0.82013
 H1438 H 0.77564 0.41033 0.80899
 H1439 H 0.79434 0.45698 0.76782
 H1440 H 0.78405 0.47903 0.75701
 H1441 H 0.74095 0.46408 0.76756
 H1442 H 0.75132 0.44185 0.77800
 C1443 C 0.79211 -0.08862 0.29092
 C1444 C 0.80453 -0.09495 0.28499
 C1445 C 0.81070 -0.10720 0.29143
 C1446 C 0.80453 -0.11339 0.30397
 C1447 C 0.79197 -0.10684 0.30979
 C1448 C 0.78585 -0.09458 0.30332
 C1449 C 0.78583 -0.07593 0.28437
 C1450 C 0.78052 -0.06524 0.27904
 C1451 C 0.77415 -0.05237 0.27297
 C1452 C 0.77387 -0.05031 0.25798
 C1453 C 0.76777 -0.03769 0.25217
 C1454 C 0.76177 -0.02709 0.26131
 C1455 C 0.76214 -0.02924 0.27633
 C1456 C 0.76828 -0.04181 0.28212
 H1457 H 0.80948 -0.09039 0.27539
 H1458 H 0.82030 -0.11171 0.28645
 H1459 H 0.78676 -0.11105 0.31937
 H1460 H 0.77624 -0.08973 0.30802
 H1461 H 0.77843 -0.05840 0.25081
 H1462 H 0.76782 -0.03615 0.24057
 H1463 H 0.75761 -0.02120 0.28357
 H1464 H 0.76848 -0.04328 0.29373
 C1465 C 0.29126 0.58819 0.70828
 C1466 C 0.28505 0.59446 0.69600
 C1467 C 0.29137 0.60669 0.68968
 C1468 C 0.30405 0.61285 0.69556
 C1469 C 0.31020 0.60642 0.70794
 C1470 C 0.30384 0.59418 0.71423
 C1471 C 0.28482 0.57552 0.71470
 C1472 C 0.27953 0.56485 0.72007
 C1473 C 0.27340 0.55201 0.72645
 C1474 C 0.25835 0.54997 0.72664
 C1475 C 0.25246 0.53737 0.73267
 C1476 C 0.26158 0.52675 0.73872
 C1477 C 0.27667 0.52888 0.73844
 C1478 C 0.28254 0.54143 0.73234
 H1479 H 0.27532 0.58988 0.69129
 H1480 H 0.28628 0.61123 0.68019
 H1481 H 0.31992 0.61076 0.71282
 H1482 H 0.30876 0.58939 0.72373
 H1483 H 0.25118 0.55807 0.72206
 H1484 H 0.24081 0.53585 0.73251
 H1485 H 0.28392 0.52082 0.74298
 H1486 H 0.29421 0.54286 0.73217
 C1487 C 0.29146 1.08804 0.20817
 C1488 C 0.28539 1.09416 0.19575
 C1489 C 0.29172 1.10638 0.18943
 C1490 C 0.30426 1.11267 0.19546
 C1491 C 0.31028 1.10637 0.20796
 C1492 C 0.30392 1.09415 0.21425
 C1493 C 0.28499 1.07543 0.21463
 C1494 C 0.27967 1.06480 0.22002
 C1495 C 0.27353 1.05201 0.22645
 C1496 C 0.25848 1.04998 0.22659
 C1497 C 0.25258 1.03739 0.23262
 C1498 C 0.26169 1.02680 0.23873
 C1499 C 0.27678 1.02894 0.23852
 C1500 C 0.28266 1.04147 0.23241
 H1501 H 0.27576 1.08948 0.19094
 H1502 H 0.28673 1.11082 0.17985
 H1503 H 0.31991 1.11081 0.21295
 H1504 H 0.30873 1.08946 0.22386
 H1505 H 0.25132 1.05806 0.22195
 H1506 H 0.24094 1.03586 0.23242
 H1507 H 0.28401 1.02090 0.24311
 H1508 H 0.29432 1.04292 0.23228
 C1509 C 0.79136 0.58812 0.20827
 C1510 C 0.80382 0.59424 0.21434
 C1511 C 0.81018 0.60646 0.20803
 C1512 C 0.80414 0.61275 0.19553
 C1513 C 0.79161 0.60644 0.18951
 C1514 C 0.78529 0.59422 0.19584
 C1515 C 0.78489 0.57551 0.21474
 C1516 C 0.77958 0.56489 0.22014
 C1517 C 0.77343 0.55210 0.22657
 C1518 C 0.78257 0.54155 0.23252
 C1519 C 0.77669 0.52902 0.23864
 C1520 C 0.76160 0.52689 0.23887
 C1521 C 0.75249 0.53748 0.23276
 C1522 C 0.75838 0.55007 0.22672
 H1523 H 0.80864 0.58956 0.22395
 H1524 H 0.81980 0.61091 0.21301
 H1525 H 0.78661 0.61087 0.17992
 H1526 H 0.77565 0.58953 0.19104
 H1527 H 0.79423 0.54299 0.23239
 H1528 H 0.78392 0.52097 0.24322
 H1529 H 0.74084 0.53595 0.23257
 H1530 H 0.75123 0.55815 0.22209
 C1531 C 0.79120 1.08826 0.70839
 C1532 C 0.78512 1.09435 0.69596
 C1533 C 0.79143 1.10657 0.68963
 C1534 C 0.80396 1.11290 0.69565
 C1535 C 0.80998 1.10663 0.70816
 C1536 C 0.80364 1.09440 0.71447
 C1537 C 0.78475 1.07564 0.71485
 C1538 C 0.77945 1.06500 0.72025
 C1539 C 0.77332 1.05221 0.72667
 C1540 C 0.75827 1.05017 0.72682
 C1541 C 0.75238 1.03758 0.73287
 C1542 C 0.76149 1.02700 0.73898
 C1543 C 0.77658 1.02914 0.73876
 C1544 C 0.78245 1.04167 0.73263
 H1545 H 0.77550 1.08964 0.69114
 H1546 H 0.78644 1.11099 0.68002
 H1547 H 0.81959 1.11109 0.71315
 H1548 H 0.80846 1.08973 0.72408
 H1549 H 0.75111 1.05824 0.72219
 H1550 H 0.74073 1.03605 0.73268
 H1551 H 0.78382 1.02110 0.74335
 H1552 H 0.79412 1.04311 0.73250
 C1553 C 0.70851 0.58840 0.29201
 C1554 C 0.69605 0.59455 0.28594
 C1555 C 0.68972 0.60681 0.29222
 C1556 C 0.69578 0.61312 0.30469
 C1557 C 0.70833 0.60679 0.31070
 C1558 C 0.71463 0.59453 0.30440
 C1559 C 0.71494 0.57572 0.28560
 C1560 C 0.72023 0.56504 0.28024
 C1561 C 0.72634 0.55220 0.27386
 C1562 C 0.71719 0.54166 0.26796
 C1563 C 0.72304 0.52909 0.26187
 C1564 C 0.73813 0.52692 0.26161
 C1565 C 0.74726 0.53750 0.26767
 C1566 C 0.74139 0.55011 0.27368
 H1567 H 0.69121 0.58986 0.27636
 H1568 H 0.68010 0.61128 0.28724
 H1569 H 0.71336 0.61123 0.32026
 H1570 H 0.72426 0.58983 0.30920
 H1571 H 0.70553 0.54313 0.26811
 H1572 H 0.71579 0.52107 0.25731
 H1573 H 0.75890 0.53594 0.26783
 H1574 H 0.74857 0.55818 0.27828
 C1575 C 0.70845 1.08871 0.79201
 C1576 C 0.69601 1.09490 0.78596
 C1577 C 0.68972 1.10720 0.79220
 C1578 C 0.69577 1.11358 0.80469
 C1579 C 0.70836 1.10717 0.81065
 C1580 C 0.71459 1.09487 0.80436
 C1581 C 0.71484 1.07598 0.78563
 C1582 C 0.72010 1.06525 0.78031
 C1583 C 0.72621 1.05237 0.77398
 C1584 C 0.71706 1.04178 0.76814
 C1585 C 0.72291 1.02921 0.76205
 C1586 C 0.73801 1.02705 0.76173
 C1587 C 0.74713 1.03767 0.76774
 C1588 C 0.74126 1.05030 0.77374
 H1589 H 0.69114 1.09019 0.77639
 H1590 H 0.68011 1.11160 0.78714
 H1591 H 0.71350 1.11153 0.82018
 H1592 H 0.72422 1.09015 0.80916
 H1593 H 0.70539 1.04323 0.76832
 H1594 H 0.71566 1.02116 0.75753
 H1595 H 0.75878 1.03614 0.76787
 H1596 H 0.74844 1.05840 0.77828
 C1597 C 0.20850 0.58831 0.79179
 C1598 C 0.21463 0.59444 0.80417
 C1599 C 0.20837 0.60672 0.81045
 C1600 C 0.19584 0.61308 0.80444
 C1601 C 0.18976 0.60677 0.79197
 C1602 C 0.19606 0.59449 0.78571
 C1603 C 0.21491 0.57561 0.78540
 C1604 C 0.22018 0.56491 0.78006
 C1605 C 0.22630 0.55205 0.77372
 C1606 C 0.24135 0.54997 0.77355
 C1607 C 0.24722 0.53735 0.76755
 C1608 C 0.23810 0.52676 0.76148
 C1609 C 0.22301 0.52893 0.76174
 C1610 C 0.21715 0.54150 0.76782
 H1611 H 0.22426 0.58972 0.80898
 H1612 H 0.21340 0.61115 0.82002
 H1613 H 0.18015 0.61126 0.78699
 H1614 H 0.19121 0.58979 0.77614
 H1615 H 0.24852 0.55804 0.77814
 H1616 H 0.25887 0.53579 0.76772
 H1617 H 0.21576 0.52090 0.75719
 H1618 H 0.20549 0.54297 0.76797
 C1619 C 0.20857 1.08838 0.29163
 C1620 C 0.19613 1.09455 0.28554
 C1621 C 0.18982 1.10683 0.29179
 C1622 C 0.19587 1.11313 0.30426
 C1623 C 0.20841 1.10680 0.31028
 C1624 C 0.21469 1.09452 0.30400
 C1625 C 0.21498 1.07567 0.28527
 C1626 C 0.22026 1.06497 0.27996
 C1627 C 0.22639 1.05210 0.27365
 C1628 C 0.21725 1.04155 0.26776
 C1629 C 0.22311 1.02898 0.26168
 C1630 C 0.23820 1.02681 0.26144
 C1631 C 0.24732 1.03740 0.26751
 C1632 C 0.24144 1.05002 0.27350
 H1633 H 0.19129 1.08984 0.27596
 H1634 H 0.18021 1.11132 0.28680
 H1635 H 0.21344 1.11123 0.31984
 H1636 H 0.22431 1.08981 0.30883
 H1637 H 0.20558 1.04302 0.26789
 H1638 H 0.21587 1.02095 0.25712
 H1639 H 0.25896 1.03585 0.26769
 H1640 H 0.24861 1.05810 0.27809
 C1641 C 0.70853 0.41164 0.70824
 C1642 C 0.69594 0.40564 0.71419
 C1643 C 0.68960 0.39339 0.70791
 C1644 C 0.69577 0.38694 0.69556
 C1645 C 0.70846 0.39311 0.68968
 C1646 C 0.71477 0.40535 0.69598
 C1647 C 0.71497 0.42432 0.71465
 C1648 C 0.72026 0.43500 0.71999
 C1649 C 0.72640 0.44785 0.72634
 C1650 C 0.71726 0.45845 0.73221
 C1651 C 0.72312 0.47100 0.73830
 C1652 C 0.73822 0.47313 0.73857
 C1653 C 0.74734 0.46251 0.73254
 C1654 C 0.74145 0.44989 0.72654
 H1655 H 0.69100 0.41045 0.72367
 H1656 H 0.67987 0.38905 0.71279
 H1657 H 0.71358 0.38856 0.68021
 H1658 H 0.72450 0.40993 0.69127
 H1659 H 0.70559 0.45702 0.73206
 H1660 H 0.71588 0.47906 0.74284
 H1661 H 0.75898 0.46402 0.73238
 H1662 H 0.74863 0.44179 0.72197
 C1663 C 0.70765 -0.08841 0.20915
 C1664 C 0.69520 -0.09469 0.21507
 C1665 C 0.68902 -0.10693 0.20863
 C1666 C 0.69522 -0.11307 0.19612
 C1667 C 0.70773 -0.10658 0.19025
 C1668 C 0.71388 -0.09435 0.19672
 C1669 C 0.71398 -0.07577 0.21571
 C1670 C 0.71935 -0.06512 0.22102
 C1671 C 0.72582 -0.05230 0.22707
 C1672 C 0.72611 -0.05021 0.24206
 C1673 C 0.73226 -0.03762 0.24784
 C1674 C 0.73830 -0.02707 0.23867
 C1675 C 0.73795 -0.02926 0.22366
 C1676 C 0.73176 -0.04180 0.21790
 H1677 H 0.69025 -0.09013 0.22467
 H1678 H 0.67941 -0.11153 0.21351
 H1679 H 0.71287 -0.11090 0.18067
 H1680 H 0.72350 -0.08953 0.19201
 H1681 H 0.72150 -0.05826 0.24925
 H1682 H 0.73220 -0.03605 0.25943
 H1683 H 0.74250 -0.02124 0.21640
 H1684 H 0.73156 -0.04329 0.20629
 C1685 C 0.20840 0.41167 0.20810
 C1686 C 0.19596 0.40552 0.21420
 C1687 C 0.18966 0.39324 0.20795
 C1688 C 0.19572 0.38693 0.19548
 C1689 C 0.20825 0.39325 0.18945
 C1690 C 0.21452 0.40552 0.19572
 C1691 C 0.21482 0.42435 0.21449
 C1692 C 0.22011 0.43504 0.21981
 C1693 C 0.22623 0.44788 0.22614
 C1694 C 0.21709 0.45845 0.23205
 C1695 C 0.22295 0.47100 0.23814
 C1696 C 0.23804 0.47314 0.23837
 C1697 C 0.24716 0.46255 0.23228
 C1698 C 0.24128 0.44994 0.22628
 H1699 H 0.19112 0.41022 0.22379
 H1700 H 0.18005 0.38877 0.21295
 H1701 H 0.21327 0.38881 0.17987
 H1702 H 0.22414 0.41022 0.19089
 H1703 H 0.20542 0.45700 0.23192
 H1704 H 0.21571 0.47904 0.24271
 H1705 H 0.25881 0.46408 0.23210
 H1706 H 0.24845 0.44185 0.22168
 C1707 C 0.20855 -0.08839 0.70809
 C1708 C 0.19610 -0.09453 0.71417
 C1709 C 0.18975 -0.10677 0.70789
 C1710 C 0.19580 -0.11306 0.69539
 C1711 C 0.20833 -0.10674 0.68937
 C1712 C 0.21464 -0.09451 0.69568
 C1713 C 0.21499 -0.07574 0.71450
 C1714 C 0.22029 -0.06507 0.71985
 C1715 C 0.22642 -0.05226 0.72623
 C1716 C 0.21729 -0.04172 0.73221
 C1717 C 0.22316 -0.02920 0.73834
 C1718 C 0.23825 -0.02706 0.73855
 C1719 C 0.24736 -0.03762 0.73239
 C1720 C 0.24147 -0.05020 0.72634
 H1721 H 0.19127 -0.08984 0.72377
 H1722 H 0.18014 -0.11123 0.71287
 H1723 H 0.21334 -0.11116 0.67977
 H1724 H 0.22427 -0.08982 0.69086
 H1725 H 0.20563 -0.04317 0.73209
 H1726 H 0.21593 -0.02117 0.74294
 H1727 H 0.25901 -0.03607 0.73218
 H1728 H 0.24863 -0.05825 0.72167
 C1729 C 0.29116 0.29195 0.41183
 C1730 C 0.28510 0.30436 0.40557
 C1731 C 0.29143 0.31054 0.39330
 C1732 C 0.30396 0.30440 0.38707
 C1733 C 0.30997 0.29191 0.39350
 C1734 C 0.30361 0.28576 0.40577
 C1735 C 0.28469 0.28564 0.42452
 C1736 C 0.27939 0.28034 0.43520
 C1737 C 0.27328 0.27400 0.44805
 C1738 C 0.25823 0.27381 0.45013
 C1739 C 0.25237 0.26777 0.46272
 C1740 C 0.26152 0.26175 0.47329
 C1741 C 0.27661 0.26203 0.47112
 C1742 C 0.28245 0.26811 0.45858
 H1743 H 0.27547 0.30927 0.41019
 H1744 H 0.28643 0.32012 0.38877
 H1745 H 0.31958 0.28683 0.38912
 H1746 H 0.30842 0.27616 0.41055
 H1747 H 0.25104 0.27839 0.44208
 H1748 H 0.24073 0.26789 0.46426
 H1749 H 0.28387 0.25748 0.47914
 H1750 H 0.29411 0.26824 0.45710
 C1751 C 0.29240 0.79133 -0.08840
 C1752 C 0.30497 0.78543 -0.09451
 C1753 C 0.31119 0.79180 -0.10674
 C1754 C 0.30492 0.80422 -0.11307
 C1755 C 0.29227 0.81005 -0.10680
 C1756 C 0.28608 0.80365 -0.09458
 C1757 C 0.28605 0.78484 -0.07574
 C1758 C 0.28070 0.77956 -0.06507
 C1759 C 0.27430 0.77348 -0.05224
 C1760 C 0.27399 0.75844 -0.05018
 C1761 C 0.26794 0.75261 -0.03759
 C1762 C 0.26196 0.76178 -0.02700
 C1763 C 0.26235 0.77686 -0.02915
 C1764 C 0.26849 0.78267 -0.04169
 H1765 H 0.30998 0.77590 -0.08981
 H1766 H 0.32089 0.78695 -0.11116
 H1767 H 0.28708 0.81956 -0.11128
 H1768 H 0.27636 0.80833 -0.08992
 H1769 H 0.27850 0.75123 -0.05826
 H1770 H 0.26799 0.74097 -0.03608
 H1771 H 0.25785 0.78415 -0.02114
 H1772 H 0.26872 0.79433 -0.04314
 C1773 C 0.79189 0.29171 -0.08812
 C1774 C 0.80431 0.28565 -0.09436
 C1775 C 0.81050 0.29198 -0.10663
 C1776 C 0.80435 0.30450 -0.11286
 C1777 C 0.79186 0.31051 -0.10644
 C1778 C 0.78570 0.30415 -0.09418
 C1779 C 0.78554 0.28523 -0.07547
 C1780 C 0.78021 0.27993 -0.06481
 C1781 C 0.77382 0.27381 -0.05201
 C1782 C 0.76794 0.28296 -0.04146
 C1783 C 0.76183 0.27710 -0.02894
 C1784 C 0.76152 0.26201 -0.02682
 C1785 C 0.76755 0.25289 -0.03740
 C1786 C 0.77359 0.25876 -0.04997
 H1787 H 0.80922 0.27603 -0.08974
 H1788 H 0.82009 0.28699 -0.11116
 H1789 H 0.78677 0.32011 -0.11082
 H1790 H 0.77609 0.30896 -0.08940
 H1791 H 0.76812 0.29462 -0.04289
 H1792 H 0.75729 0.28435 -0.02092
 H1793 H 0.76767 0.24124 -0.03590
 H1794 H 0.77815 0.25159 -0.05805
 C1795 C 0.79193 0.79165 0.41185
 C1796 C 0.78573 0.80408 0.40578
 C1797 C 0.79189 0.81045 0.39352
 C1798 C 0.80440 0.80445 0.38710
 C1799 C 0.81056 0.79194 0.39335
 C1800 C 0.80436 0.78560 0.40561
 C1801 C 0.78560 0.78517 0.42452
 C1802 C 0.78027 0.77987 0.43519
 C1803 C 0.77390 0.77376 0.44802
 C1804 C 0.76804 0.78293 0.45857
 C1805 C 0.76193 0.77710 0.47111
 C1806 C 0.76159 0.76202 0.47326
 C1807 C 0.76760 0.75287 0.46267
 C1808 C 0.77364 0.75872 0.45008
 H1809 H 0.77612 0.80888 0.41055
 H1810 H 0.78680 0.82005 0.38913
 H1811 H 0.82015 0.78696 0.38883
 H1812 H 0.80929 0.77599 0.41024
 H1813 H 0.76824 0.79459 0.45712
 H1814 H 0.75741 0.78437 0.47913
 H1815 H 0.76771 0.74123 0.46420
 H1816 H 0.77818 0.75152 0.44201
 C1817 C 0.70815 0.29103 0.58811
 C1818 C 0.71434 0.30347 0.59415
 C1819 C 0.70817 0.30985 0.60640
 C1820 C 0.69566 0.30387 0.61281
 C1821 C 0.68953 0.29134 0.60660
 C1822 C 0.69574 0.28499 0.59435
 C1823 C 0.71448 0.28456 0.57544
 C1824 C 0.71979 0.27926 0.56477
 C1825 C 0.72614 0.27316 0.55194
 C1826 C 0.73201 0.28232 0.54140
 C1827 C 0.73812 0.27649 0.52887
 C1828 C 0.73845 0.26141 0.52673
 C1829 C 0.73241 0.25226 0.53729
 C1830 C 0.72637 0.25812 0.54987
 H1831 H 0.72395 0.30826 0.58938
 H1832 H 0.71324 0.31946 0.61077
 H1833 H 0.67993 0.28637 0.61112
 H1834 H 0.69083 0.27538 0.58974
 H1835 H 0.73183 0.29398 0.54286
 H1836 H 0.74266 0.28376 0.52086
 H1837 H 0.73229 0.24062 0.53576
 H1838 H 0.72180 0.25092 0.55794
 C1839 C 0.70827 0.79122 1.08815
 C1840 C 0.69585 0.78517 1.09437
 C1841 C 0.68963 0.79151 1.10661
 C1842 C 0.69576 0.80404 1.11284
 C1843 C 0.70826 0.81003 1.10645
 C1844 C 0.71446 0.80366 1.09420
 C1845 C 0.71462 0.78474 1.07549
 C1846 C 0.71994 0.77944 1.06483
 C1847 C 0.72630 0.77333 1.05201
 C1848 C 0.72651 0.75829 1.04993
 C1849 C 0.73256 0.75243 1.03736
 C1850 C 0.73863 0.76157 1.02681
 C1851 C 0.73833 0.77666 1.02897
 C1852 C 0.73221 0.78249 1.04149
 H1853 H 0.69095 0.77556 1.08976
 H1854 H 0.68003 0.78654 1.11112
 H1855 H 0.71333 0.81963 1.11084
 H1856 H 0.72407 0.80845 1.08945
 H1857 H 0.72192 0.75110 1.05798
 H1858 H 0.73243 0.74079 1.03582
 H1859 H 0.74289 0.78392 1.02096
 H1860 H 0.73205 0.79415 1.04295
 C1861 C 0.20818 0.29110 1.08807
 C1862 C 0.21434 0.30356 1.09410
 C1863 C 0.20811 0.30995 1.10631
 C1864 C 0.19560 0.30396 1.11270
 C1865 C 0.18950 0.29141 1.10649
 C1866 C 0.19575 0.28505 1.09428
 C1867 C 0.21456 0.28460 1.07545
 C1868 C 0.21991 0.27929 1.06481
 C1869 C 0.22629 0.27317 1.05200
 C1870 C 0.22651 0.25813 1.04995
 C1871 C 0.23254 0.25227 1.03737
 C1872 C 0.23859 0.26140 1.02680
 C1873 C 0.23829 0.27649 1.02895
 C1874 C 0.23218 0.28233 1.04147
 H1875 H 0.22395 0.30836 1.08935
 H1876 H 0.21315 0.31958 1.11068
 H1877 H 0.17990 0.28644 1.11099
 H1878 H 0.19088 0.27542 1.08968
 H1879 H 0.22193 0.25095 1.05801
 H1880 H 0.23241 0.24063 1.03584
 H1881 H 0.24283 0.28374 1.02093
 H1882 H 0.23201 0.29399 1.04292
 C1883 C 0.20819 0.79127 0.58788
 C1884 C 0.21434 0.80373 0.59392
 C1885 C 0.20812 0.81010 0.60615
 C1886 C 0.19562 0.80408 0.61254
 C1887 C 0.18951 0.79156 0.60631
 C1888 C 0.19576 0.78522 0.59408
 C1889 C 0.21459 0.78478 0.57527
 C1890 C 0.21995 0.77947 0.56464
 C1891 C 0.22636 0.77335 0.55185
 C1892 C 0.22660 0.75831 0.54980
 C1893 C 0.23266 0.75246 0.53723
 C1894 C 0.23870 0.76160 0.52667
 C1895 C 0.23838 0.77668 0.52881
 C1896 C 0.23225 0.78252 0.54132
 H1897 H 0.22395 0.80853 0.58918
 H1898 H 0.21317 0.81971 0.61053
 H1899 H 0.17991 0.78658 0.61081
 H1900 H 0.19088 0.77559 0.58946
 H1901 H 0.22203 0.75112 0.55786
 H1902 H 0.23254 0.74081 0.53571
 H1903 H 0.24292 0.78394 0.52080
 H1904 H 0.23206 0.79418 0.54277
 C1905 C 0.29206 0.70878 0.58813
 C1906 C 0.28588 0.69634 0.59421
 C1907 C 0.29205 0.69000 0.60648
 C1908 C 0.30453 0.69602 0.61289
 C1909 C 0.31066 0.70854 0.60664
 C1910 C 0.30446 0.71485 0.59437
 C1911 C 0.28572 0.71521 0.57544
 C1912 C 0.28039 0.72048 0.56476
 C1913 C 0.27402 0.72655 0.55192
 C1914 C 0.26816 0.71737 0.54140
 C1915 C 0.26204 0.72318 0.52886
 C1916 C 0.26170 0.73827 0.52668
 C1917 C 0.26773 0.74743 0.53724
 C1918 C 0.27377 0.74159 0.54983
 H1919 H 0.27629 0.69153 0.58945
 H1920 H 0.28698 0.68040 0.61087
 H1921 H 0.32024 0.71352 0.61117
 H1922 H 0.30936 0.72446 0.58973
 H1923 H 0.26835 0.70572 0.54288
 H1924 H 0.25752 0.71591 0.52086
 H1925 H 0.26783 0.75907 0.53569
 H1926 H 0.27832 0.74880 0.55788
 C1927 C 0.29203 0.20859 1.08820
 C1928 C 0.28587 0.19616 1.09429
 C1929 C 0.29209 0.18982 1.10654
 C1930 C 0.30459 0.19584 1.11290
 C1931 C 0.31069 0.20836 1.10664
 C1932 C 0.30445 0.21467 1.09439
 C1933 C 0.28566 0.21501 1.07552
 C1934 C 0.28031 0.22027 1.06485
 C1935 C 0.27392 0.22634 1.05201
 C1936 C 0.26803 0.21716 1.04151
 C1937 C 0.26190 0.22297 1.02899
 C1938 C 0.26157 0.23805 1.02680
 C1939 C 0.26763 0.24721 1.03734
 C1940 C 0.27369 0.24138 1.04992
 H1941 H 0.27627 0.19134 1.08956
 H1942 H 0.28703 0.18022 1.11094
 H1943 H 0.32028 0.21335 1.11114
 H1944 H 0.30932 0.22429 1.08974
 H1945 H 0.26821 0.20550 1.04300
 H1946 H 0.25735 0.21570 1.02100
 H1947 H 0.26775 0.25885 1.03578
 H1948 H 0.27826 0.24858 1.05795
 C1949 C 0.79192 0.70871 1.08824
 C1950 C 0.80434 0.71478 1.09445
 C1951 C 0.81057 0.70846 1.10670
 C1952 C 0.80446 0.69594 1.11295
 C1953 C 0.79195 0.68993 1.10658
 C1954 C 0.78575 0.69627 1.09433
 C1955 C 0.78557 0.71514 1.07556
 C1956 C 0.78025 0.72040 1.06488
 C1957 C 0.77389 0.72648 1.05203
 C1958 C 0.77367 0.74152 1.04994
 C1959 C 0.76765 0.74736 1.03735
 C1960 C 0.76161 0.73822 1.02680
 C1961 C 0.76192 0.72313 1.02897
 C1962 C 0.76802 0.71731 1.04151
 H1963 H 0.80922 0.72439 1.08980
 H1964 H 0.82016 0.71344 1.11120
 H1965 H 0.78689 0.68033 1.11098
 H1966 H 0.77615 0.69146 1.08959
 H1967 H 0.77824 0.74872 1.05800
 H1968 H 0.76778 0.75900 1.03580
 H1969 H 0.75738 0.71587 1.02097
 H1970 H 0.76819 0.70565 1.04299
 C1971 C 0.79194 0.20854 0.58808
 C1972 C 0.78580 0.19610 0.59417
 C1973 C 0.79200 0.18977 0.60642
 C1974 C 0.80450 0.19580 0.61279
 C1975 C 0.81060 0.20832 0.60653
 C1976 C 0.80436 0.21463 0.59428
 C1977 C 0.78556 0.21498 0.57542
 C1978 C 0.78020 0.22025 0.56476
 C1979 C 0.77379 0.22634 0.55195
 C1980 C 0.76791 0.21716 0.54144
 C1981 C 0.76178 0.22298 0.52891
 C1982 C 0.76145 0.23807 0.52675
 C1983 C 0.76748 0.24722 0.53730
 C1984 C 0.77354 0.24138 0.54987
 H1985 H 0.77619 0.19128 0.58943
 H1986 H 0.78695 0.18016 0.61082
 H1987 H 0.82018 0.21332 0.61103
 H1988 H 0.80923 0.22425 0.58963
 H1989 H 0.76810 0.20551 0.54290
 H1990 H 0.75724 0.21572 0.52091
 H1991 H 0.76759 0.25886 0.53575
 H1992 H 0.77811 0.24858 0.55792
 C1993 C 0.70826 0.70910 0.41199
 C1994 C 0.71445 0.69665 0.40595
 C1995 C 0.70825 0.69027 0.39372
 C1996 C 0.69574 0.69626 0.38734
 C1997 C 0.68960 0.70880 0.39355
 C1998 C 0.69582 0.71515 0.40577
 C1999 C 0.71460 0.71558 0.42463
 C2000 C 0.71992 0.72087 0.43529
 C2001 C 0.72628 0.72697 0.44811
 C2002 C 0.73216 0.71779 0.45864
 C2003 C 0.73828 0.72361 0.47116
 C2004 C 0.73860 0.73870 0.47331
 C2005 C 0.73255 0.74785 0.46275
 C2006 C 0.72650 0.74201 0.45018
 H2007 H 0.72406 0.69186 0.41070
 H2008 H 0.71332 0.68066 0.38935
 H2009 H 0.68000 0.71377 0.38904
 H2010 H 0.69092 0.72478 0.41039
 H2011 H 0.73198 0.70614 0.45718
 H2012 H 0.74282 0.71635 0.47917
 H2013 H 0.73242 0.75949 0.46428
 H2014 H 0.72193 0.74921 0.44212
 C2015 C 0.70827 0.20891 -0.08809
 C2016 C 0.71448 0.19645 -0.09411
 C2017 C 0.70829 0.19003 -0.10632
 C2018 C 0.69577 0.19599 -0.11272
 C2019 C 0.68961 0.20853 -0.10653
 C2020 C 0.69582 0.21492 -0.09432
 C2021 C 0.71460 0.21543 -0.07546
 C2022 C 0.71992 0.22075 -0.06481
 C2023 C 0.72628 0.22687 -0.05200
 C2024 C 0.73216 0.21772 -0.04146
 C2025 C 0.73827 0.22355 -0.02894
 C2026 C 0.73857 0.23864 -0.02680
 C2027 C 0.73252 0.24778 -0.03737
 C2028 C 0.72648 0.24192 -0.04994
 H2029 H 0.72410 0.19169 -0.08935
 H2030 H 0.71338 0.18041 -0.11067
 H2031 H 0.68000 0.21347 -0.11104
 H2032 H 0.69090 0.22455 -0.08973
 H2033 H 0.73200 0.20606 -0.04291
 H2034 H 0.74282 0.21630 -0.02093
 H2035 H 0.73238 0.25942 -0.03585
 H2036 H 0.72191 0.24910 -0.05801
 C2037 C 0.20832 0.70891 -0.08815
 C2038 C 0.19588 0.71497 -0.09435
 C2039 C 0.18963 0.70860 -0.10655
 C2040 C 0.19574 0.69605 -0.11275
 C2041 C 0.20825 0.69004 -0.10638
 C2042 C 0.21447 0.69643 -0.09417
 C2043 C 0.21471 0.71540 -0.07554
 C2044 C 0.22008 0.72071 -0.06492
 C2045 C 0.22651 0.72680 -0.05213
 C2046 C 0.22680 0.74185 -0.05010
 C2047 C 0.23288 0.74769 -0.03755
 C2048 C 0.23890 0.73853 -0.02698
 C2049 C 0.23852 0.72344 -0.02910
 C2050 C 0.23236 0.71762 -0.04160
 H2051 H 0.19100 0.72461 -0.08974
 H2052 H 0.18003 0.71359 -0.11105
 H2053 H 0.21330 0.68041 -0.11074
 H2054 H 0.22409 0.69163 -0.08943
 H2055 H 0.22225 0.74905 -0.05817
 H2056 H 0.23281 0.75933 -0.03603
 H2057 H 0.24304 0.71617 -0.02108
 H2058 H 0.23213 0.70597 -0.04304
 C2059 C 0.20901 0.20804 0.41200
 C2060 C 0.21506 0.19561 0.40579
 C2061 C 0.20871 0.18939 0.39355
 C2062 C 0.19617 0.19552 0.38733
 C2063 C 0.19017 0.20803 0.39373
 C2064 C 0.19655 0.21422 0.40595
 C2065 C 0.21549 0.21441 0.42463
 C2066 C 0.22079 0.21976 0.43527
 C2067 C 0.22689 0.22615 0.44808
 C2068 C 0.21771 0.23207 0.45858
 C2069 C 0.22353 0.23817 0.47111
 C2070 C 0.23861 0.23843 0.47329
 C2071 C 0.24778 0.23239 0.46274
 C2072 C 0.24194 0.22635 0.45016
 H2073 H 0.22469 0.19071 0.41040
 H2074 H 0.21369 0.17979 0.38905
 H2075 H 0.18055 0.21310 0.38935
 H2076 H 0.19174 0.22383 0.41070
 H2077 H 0.20605 0.23194 0.45710
 H2078 H 0.21627 0.24272 0.47912
 H2079 H 0.25942 0.23227 0.46429
 H2080 H 0.24913 0.22174 0.44212
 C2081 C 0.29115 0.41164 0.70826
 C2082 C 0.28505 0.40552 0.69586
 C2083 C 0.29135 0.39327 0.68955
 C2084 C 0.30388 0.38694 0.69556
 C2085 C 0.30992 0.39322 0.70806
 C2086 C 0.30360 0.40547 0.71434
 C2087 C 0.28473 0.42431 0.71469
 C2088 C 0.27946 0.43498 0.72006
 C2089 C 0.27335 0.44782 0.72646
 C2090 C 0.25830 0.44990 0.72664
 C2091 C 0.25243 0.46251 0.73266
 C2092 C 0.26155 0.47308 0.73874
 C2093 C 0.27665 0.47091 0.73848
 C2094 C 0.28250 0.45835 0.73238
 H2095 H 0.27542 0.41024 0.69105
 H2096 H 0.28634 0.38885 0.67996
 H2097 H 0.31954 0.38874 0.71305
 H2098 H 0.30843 0.41015 0.72393
 H2099 H 0.25113 0.44183 0.72203
 H2100 H 0.24079 0.46406 0.73249
 H2101 H 0.28389 0.47893 0.74305
 H2102 H 0.29417 0.45688 0.73223
 C2103 C 0.29133 0.91181 0.20809
 C2104 C 0.30378 0.90564 0.21416
 C2105 C 0.31011 0.89341 0.20785
 C2106 C 0.30407 0.88714 0.19535
 C2107 C 0.29153 0.89349 0.18934
 C2108 C 0.28523 0.90573 0.19568
 C2109 C 0.28490 0.92447 0.21454
 C2110 C 0.27963 0.93512 0.21994
 C2111 C 0.27351 0.94794 0.22635
 C2112 C 0.28265 0.95847 0.23229
 C2113 C 0.27679 0.97101 0.23842
 C2114 C 0.26170 0.97317 0.23868
 C2115 C 0.25258 0.96260 0.23258
 C2116 C 0.25846 0.95001 0.22653
 H2117 H 0.30861 0.91031 0.22376
 H2118 H 0.31972 0.88892 0.21284
 H2119 H 0.28653 0.88908 0.17975
 H2120 H 0.27560 0.91045 0.19087
 H2121 H 0.29432 0.95701 0.23213
 H2122 H 0.28403 0.97903 0.24299
 H2123 H 0.24093 0.96416 0.23240
 H2124 H 0.25129 0.94195 0.22191
 C2125 C 0.79146 0.41201 0.20823
 C2126 C 0.80392 0.40585 0.21428
 C2127 C 0.81026 0.39361 0.20796
 C2128 C 0.80420 0.38735 0.19546
 C2129 C 0.79167 0.39371 0.18946
 C2130 C 0.78536 0.40594 0.19581
 C2131 C 0.78499 0.42462 0.21472
 C2132 C 0.77967 0.43525 0.22014
 C2133 C 0.77351 0.44803 0.22658
 C2134 C 0.78262 0.45858 0.23253
 C2135 C 0.77673 0.47111 0.23865
 C2136 C 0.76163 0.47324 0.23889
 C2137 C 0.75254 0.46265 0.23280
 C2138 C 0.75845 0.45006 0.22676
 H2139 H 0.80876 0.41050 0.22388
 H2140 H 0.81988 0.38914 0.21292
 H2141 H 0.78665 0.38930 0.17987
 H2142 H 0.77573 0.41066 0.19101
 H2143 H 0.79429 0.45715 0.23238
 H2144 H 0.78395 0.47916 0.24321
 H2145 H 0.74089 0.46418 0.23260
 H2146 H 0.75131 0.44198 0.22213
 C2147 C 0.79134 0.91210 0.70828
 C2148 C 0.80395 0.90609 0.71418
 C2149 C 0.81030 0.89387 0.70785
 C2150 C 0.80412 0.88747 0.69548
 C2151 C 0.79143 0.89365 0.68964
 C2152 C 0.78511 0.90587 0.69600
 C2153 C 0.78487 0.92472 0.71476
 C2154 C 0.77956 0.93535 0.72019
 C2155 C 0.77341 0.94815 0.72664
 C2156 C 0.78253 0.95871 0.73256
 C2157 C 0.77664 0.97123 0.73869
 C2158 C 0.76154 0.97336 0.73898
 C2159 C 0.75244 0.96275 0.73291
 C2160 C 0.75835 0.95017 0.72686
 H2161 H 0.80889 0.91086 0.72367
 H2162 H 0.82004 0.88952 0.71270
 H2163 H 0.78631 0.88913 0.68016
 H2164 H 0.77536 0.91046 0.69132
 H2165 H 0.79420 0.95728 0.73238
 H2166 H 0.78387 0.97928 0.74325
 H2167 H 0.74079 0.96426 0.73276
 H2168 H 0.75120 0.94208 0.72226
 C2169 C 0.70855 0.58839 0.70826
 C2170 C 0.69610 0.59456 0.71434
 C2171 C 0.68978 0.60684 0.70808
 C2172 C 0.69584 0.61315 0.69559
 C2173 C 0.70838 0.60681 0.68958
 C2174 C 0.71466 0.59453 0.69587
 C2175 C 0.71497 0.57568 0.71465
 C2176 C 0.72025 0.56498 0.71998
 C2177 C 0.72638 0.55212 0.72633
 C2178 C 0.71724 0.54155 0.73222
 C2179 C 0.72310 0.52899 0.73832
 C2180 C 0.73820 0.52683 0.73860
 C2181 C 0.74732 0.53743 0.73253
 C2182 C 0.74143 0.55005 0.72651
 H2183 H 0.69126 0.58986 0.72393
 H2184 H 0.68017 0.61132 0.71306
 H2185 H 0.71340 0.61124 0.68000
 H2186 H 0.72429 0.58983 0.69105
 H2187 H 0.70558 0.54300 0.73207
 H2188 H 0.71586 0.52094 0.74287
 H2189 H 0.75896 0.53589 0.73236
 H2190 H 0.74860 0.55813 0.72192
 C2191 C 0.70857 0.08791 0.20787
 C2192 C 0.69609 0.09404 0.21392
 C2193 C 0.68975 0.10630 0.20762
 C2194 C 0.69582 0.11261 0.19515
 C2195 C 0.70836 0.10627 0.18914
 C2196 C 0.71467 0.09403 0.19546
 C2197 C 0.71506 0.07528 0.21435
 C2198 C 0.72041 0.06465 0.21976
 C2199 C 0.72660 0.05185 0.22618
 C2200 C 0.71750 0.04130 0.23217
 C2201 C 0.72340 0.02875 0.23825
 C2202 C 0.73849 0.02660 0.23842
 C2203 C 0.74758 0.03720 0.23232
 C2204 C 0.74166 0.04979 0.22629
 H2205 H 0.69124 0.08936 0.22351
 H2206 H 0.68011 0.11076 0.21258
 H2207 H 0.71340 0.11072 0.17957
 H2208 H 0.72431 0.08933 0.19067
 H2209 H 0.70583 0.04276 0.23210
 H2210 H 0.71620 0.02071 0.24285
 H2211 H 0.75923 0.03566 0.23212
 H2212 H 0.74880 0.05786 0.22163
 C2213 C 0.20828 0.58816 0.20776
 C2214 C 0.21438 0.59427 0.19535
 C2215 C 0.20807 0.60651 0.18902
 C2216 C 0.19552 0.61285 0.19502
 C2217 C 0.18946 0.60655 0.20750
 C2218 C 0.19581 0.59430 0.21381
 C2219 C 0.21475 0.57551 0.21421
 C2220 C 0.22006 0.56486 0.21961
 C2221 C 0.22620 0.55205 0.22603
 C2222 C 0.24126 0.54999 0.22623
 C2223 C 0.24715 0.53739 0.23227
 C2224 C 0.23803 0.52680 0.23836
 C2225 C 0.22294 0.52895 0.23809
 C2226 C 0.21707 0.54149 0.23196
 H2227 H 0.22403 0.58958 0.19055
 H2228 H 0.21310 0.61094 0.17944
 H2229 H 0.17983 0.61101 0.21247
 H2230 H 0.19097 0.58962 0.22341
 H2231 H 0.24843 0.55807 0.22162
 H2232 H 0.25879 0.53586 0.23211
 H2233 H 0.21570 0.52092 0.24265
 H2234 H 0.20540 0.54294 0.23179
 C2235 C 0.20828 0.08795 0.70796
 C2236 C 0.21435 0.09409 0.69555
 C2237 C 0.20803 0.10633 0.68925
 C2238 C 0.19548 0.11265 0.69527
 C2239 C 0.18944 0.10633 0.70775
 C2240 C 0.19580 0.09408 0.71403
 C2241 C 0.21478 0.07531 0.71442
 C2242 C 0.22012 0.06466 0.71981
 C2243 C 0.22630 0.05185 0.72623
 C2244 C 0.24136 0.04984 0.72644
 C2245 C 0.24729 0.03725 0.73247
 C2246 C 0.23820 0.02661 0.73853
 C2247 C 0.22310 0.02872 0.73824
 C2248 C 0.21719 0.04126 0.73212
 H2249 H 0.22400 0.08941 0.69073
 H2250 H 0.21304 0.11079 0.67967
 H2251 H 0.17981 0.11078 0.71274
 H2252 H 0.19098 0.08938 0.72363
 H2253 H 0.24851 0.05795 0.72186
 H2254 H 0.25894 0.03575 0.73232
 H2255 H 0.21587 0.02066 0.74278
 H2256 H 0.20552 0.04267 0.73195
 C2257 C 0.29123 0.58810 0.29159
 C2258 C 0.30369 0.59425 0.28552
 C2259 C 0.31003 0.60647 0.29184
 C2260 C 0.30399 0.61274 0.30435
 C2261 C 0.29144 0.60643 0.31035
 C2262 C 0.28513 0.59421 0.30401
 C2263 C 0.28480 0.57547 0.28512
 C2264 C 0.27952 0.56483 0.27972
 C2265 C 0.27339 0.55202 0.27331
 C2266 C 0.28252 0.54144 0.26741
 C2267 C 0.27664 0.52890 0.26132
 C2268 C 0.26154 0.52678 0.26107
 C2269 C 0.25244 0.53740 0.26713
 C2270 C 0.25833 0.55000 0.27313
 H2271 H 0.30851 0.58959 0.27591
 H2272 H 0.31965 0.61093 0.28686
 H2273 H 0.28643 0.61085 0.31994
 H2274 H 0.27549 0.58952 0.30880
 H2275 H 0.29419 0.54287 0.26755
 H2276 H 0.28387 0.52084 0.25676
 H2277 H 0.24079 0.53590 0.26730
 H2278 H 0.25117 0.55810 0.27772
 C2279 C 0.29129 0.08801 0.79165
 C2280 C 0.30359 0.09432 0.78543
 C2281 C 0.30988 0.10659 0.79169
 C2282 C 0.30395 0.11274 0.80432
 C2283 C 0.29158 0.10624 0.81049
 C2284 C 0.28532 0.09398 0.80419
 C2285 C 0.28489 0.07534 0.78523
 C2286 C 0.27962 0.06466 0.77988
 C2287 C 0.27351 0.05183 0.77350
 C2288 C 0.28267 0.04128 0.76758
 C2289 C 0.27681 0.02874 0.76148
 C2290 C 0.26172 0.02658 0.76124
 C2291 C 0.25259 0.03716 0.76733
 C2292 C 0.25846 0.04977 0.77335
 H2293 H 0.30832 0.08975 0.77572
 H2294 H 0.31937 0.11119 0.78659
 H2295 H 0.28667 0.11055 0.82018
 H2296 H 0.27582 0.08914 0.80912
 H2297 H 0.29433 0.04274 0.76771
 H2298 H 0.28406 0.02070 0.75691
 H2299 H 0.24095 0.03562 0.76752
 H2300 H 0.25129 0.05784 0.77797
 C2301 C 0.79135 0.58821 0.79179
 C2302 C 0.80379 0.59437 0.78570
 C2303 C 0.81012 0.60661 0.79198
 C2304 C 0.80408 0.61291 0.80447
 C2305 C 0.79156 0.60658 0.81050
 C2306 C 0.78526 0.59434 0.80420
 C2307 C 0.78493 0.57554 0.78537
 C2308 C 0.77965 0.56487 0.78001
 C2309 C 0.77352 0.55203 0.77363
 C2310 C 0.78266 0.54145 0.76774
 C2311 C 0.77679 0.52892 0.76163
 C2312 C 0.76170 0.52680 0.76134
 C2313 C 0.75258 0.53741 0.76741
 C2314 C 0.75847 0.55000 0.77344
 H2315 H 0.80862 0.58969 0.77610
 H2316 H 0.81973 0.61108 0.78698
 H2317 H 0.78656 0.61101 0.82010
 H2318 H 0.77563 0.58964 0.80902
 H2319 H 0.79433 0.54288 0.76791
 H2320 H 0.78404 0.52086 0.75709
 H2321 H 0.74093 0.53590 0.76757
 H2322 H 0.75130 0.55810 0.77803
 C2323 C 0.79130 0.08802 0.29175
 C2324 C 0.78519 0.09413 0.30415
 C2325 C 0.79146 0.10639 0.31046
 C2326 C 0.80399 0.11273 0.30444
 C2327 C 0.81004 0.10644 0.29194
 C2328 C 0.80374 0.09418 0.28566
 C2329 C 0.78488 0.07535 0.28533
 C2330 C 0.77958 0.06468 0.27998
 C2331 C 0.77344 0.05185 0.27362
 C2332 C 0.75839 0.04978 0.27354
 C2333 C 0.75249 0.03717 0.26755
 C2334 C 0.76159 0.02658 0.26146
 C2335 C 0.77668 0.02873 0.26163
 C2336 C 0.78256 0.04129 0.26766
 H2337 H 0.77557 0.08942 0.30898
 H2338 H 0.78645 0.11081 0.32005
 H2339 H 0.81965 0.11092 0.28695
 H2340 H 0.80858 0.08950 0.27607
 H2341 H 0.75123 0.05786 0.27818
 H2342 H 0.74084 0.03563 0.26776
 H2343 H 0.78390 0.02067 0.25704
 H2344 H 0.79423 0.04275 0.26772
 C2345 C 0.70849 0.41168 0.29182
 C2346 C 0.69606 0.40553 0.28572
 C2347 C 0.68974 0.39325 0.29196
 C2348 C 0.69579 0.38692 0.30444
 C2349 C 0.70831 0.39325 0.31048
 C2350 C 0.71459 0.40552 0.30421
 C2351 C 0.71490 0.42438 0.28545
 C2352 C 0.72019 0.43508 0.28013
 C2353 C 0.72631 0.44795 0.27380
 C2354 C 0.71717 0.45853 0.26793
 C2355 C 0.72303 0.47110 0.26185
 C2356 C 0.73812 0.47324 0.26160
 C2357 C 0.74724 0.46262 0.26765
 C2358 C 0.74136 0.45000 0.27364
 H2359 H 0.69122 0.41024 0.27613
 H2360 H 0.68014 0.38878 0.28696
 H2361 H 0.71332 0.38880 0.32006
 H2362 H 0.72420 0.41022 0.30905
 H2363 H 0.70550 0.45709 0.26807
 H2364 H 0.71579 0.47915 0.25731
 H2365 H 0.75889 0.46415 0.26783
 H2366 H 0.74853 0.44190 0.27821
 C2367 C 0.70846 0.91178 0.79195
 C2368 C 0.69588 0.90579 0.78600
 C2369 C 0.68953 0.89354 0.79227
 C2370 C 0.69570 0.88708 0.80462
 C2371 C 0.70839 0.89324 0.81050
 C2372 C 0.71469 0.90548 0.80420
 C2373 C 0.71489 0.92447 0.78557
 C2374 C 0.72017 0.93517 0.78025
 C2375 C 0.72628 0.94804 0.77392
 C2376 C 0.71712 0.95861 0.76804
 C2377 C 0.72296 0.97119 0.76198
 C2378 C 0.73805 0.97335 0.76172
 C2379 C 0.74719 0.96274 0.76777
 C2380 C 0.74133 0.95011 0.77375
 H2381 H 0.69094 0.91061 0.77652
 H2382 H 0.67981 0.88920 0.78739
 H2383 H 0.71350 0.88867 0.81997
 H2384 H 0.72443 0.91006 0.80892
 H2385 H 0.70546 0.95715 0.76819
 H2386 H 0.71571 0.97923 0.75743
 H2387 H 0.75883 0.96429 0.76794
 H2388 H 0.74851 0.94202 0.77832
 C2389 C 0.20834 0.41162 0.79187
 C2390 C 0.19590 0.40547 0.78579
 C2391 C 0.18959 0.39319 0.79205
 C2392 C 0.19564 0.38686 0.80452
 C2393 C 0.20817 0.39319 0.81054
 C2394 C 0.21445 0.40546 0.80426
 C2395 C 0.21477 0.42431 0.78547
 C2396 C 0.22006 0.43499 0.78013
 C2397 C 0.22621 0.44784 0.77378
 C2398 C 0.21708 0.45844 0.76789
 C2399 C 0.22296 0.47098 0.76179
 C2400 C 0.23806 0.47309 0.76150
 C2401 C 0.24717 0.46247 0.76756
 C2402 C 0.24127 0.44987 0.77359
 H2403 H 0.19106 0.41017 0.77620
 H2404 H 0.17998 0.38873 0.78706
 H2405 H 0.21319 0.38874 0.82011
 H2406 H 0.22408 0.41015 0.80907
 H2407 H 0.20542 0.45702 0.76806
 H2408 H 0.21573 0.47904 0.75723
 H2409 H 0.25881 0.46396 0.76770
 H2410 H 0.24843 0.44176 0.77817
 C2411 C 0.20838 0.91170 0.29166
 C2412 C 0.19579 0.90572 0.28572
 C2413 C 0.18942 0.89349 0.29203
 C2414 C 0.19558 0.88706 0.30440
 C2415 C 0.20828 0.89321 0.31025
 C2416 C 0.21461 0.90543 0.30392
 C2417 C 0.21484 0.92436 0.28524
 C2418 C 0.22017 0.93502 0.27990
 C2419 C 0.22633 0.94786 0.27356
 C2420 C 0.21721 0.95846 0.26767
 C2421 C 0.22309 0.97102 0.26162
 C2422 C 0.23819 0.97314 0.26139
 C2423 C 0.24729 0.96251 0.26745
 C2424 C 0.24138 0.94989 0.27342
 H2425 H 0.19086 0.91052 0.27623
 H2426 H 0.17969 0.88915 0.28717
 H2427 H 0.21340 0.88866 0.31973
 H2428 H 0.22435 0.90999 0.30863
 H2429 H 0.20554 0.95703 0.26780
 H2430 H 0.21587 0.97908 0.25706
 H2431 H 0.25893 0.96402 0.26763
 H2432 H 0.24853 0.94178 0.27800
 C2433 C 0.41166 0.29215 0.70927
 C2434 C 0.40570 0.28594 0.69685
 C2435 C 0.39344 0.29209 0.69041
 C2436 C 0.38694 0.30459 0.69631
 C2437 C 0.39307 0.31076 0.70882
 C2438 C 0.40534 0.30457 0.71524
 C2439 C 0.42434 0.28582 0.71580
 C2440 C 0.43502 0.28046 0.72110
 C2441 C 0.44787 0.27402 0.72716
 C2442 C 0.45841 0.26813 0.71800
 C2443 C 0.47097 0.26196 0.72377
 C2444 C 0.47314 0.26160 0.73879
 C2445 C 0.46254 0.26760 0.74794
 C2446 C 0.44993 0.27373 0.74214
 H2447 H 0.41053 0.27634 0.69212
 H2448 H 0.38913 0.28700 0.68082
 H2449 H 0.38846 0.32035 0.71372
 H2450 H 0.40990 0.30949 0.72484
 H2451 H 0.45694 0.26833 0.70639
 H2452 H 0.47901 0.25742 0.71653
 H2453 H 0.46409 0.26764 0.75954
 H2454 H 0.44185 0.27830 0.74932
 C2455 C 0.41171 0.79228 0.20909
 C2456 C 0.40539 0.80471 0.21503
 C2457 C 0.39314 0.81090 0.20860
 C2458 C 0.38701 0.80474 0.19609
 C2459 C 0.39351 0.79223 0.19020
 C2460 C 0.40576 0.78607 0.19666
 C2461 C 0.42436 0.78595 0.21564
 C2462 C 0.43502 0.78059 0.22096
 C2463 C 0.44786 0.77415 0.22704
 C2464 C 0.45842 0.76826 0.21790
 C2465 C 0.47097 0.76210 0.22369
 C2466 C 0.47310 0.76173 0.23872
 C2467 C 0.46249 0.76772 0.24785
 C2468 C 0.44990 0.77385 0.24203
 H2469 H 0.40995 0.80964 0.22464
 H2470 H 0.38853 0.82050 0.21349
 H2471 H 0.38922 0.78713 0.18060
 H2472 H 0.41059 0.77646 0.19194
 H2473 H 0.45697 0.76847 0.20628
 H2474 H 0.47903 0.75757 0.21646
 H2475 H 0.46402 0.76776 0.25945
 H2476 H 0.44180 0.77842 0.24920
 C2477 C 0.91181 0.29249 0.20915
 C2478 C 0.90586 0.28629 0.19671
 C2479 C 0.89362 0.29245 0.19025
 C2480 C 0.88712 0.30496 0.19613
 C2481 C 0.89326 0.31113 0.20864
 C2482 C 0.90551 0.30494 0.21508
 C2483 C 0.92443 0.28612 0.21573
 C2484 C 0.93507 0.28072 0.22106
 C2485 C 0.94788 0.27422 0.22714
 C2486 C 0.95842 0.26831 0.21798
 C2487 C 0.97097 0.26212 0.22377
 C2488 C 0.97311 0.26174 0.23879
 C2489 C 0.96251 0.26773 0.24793
 C2490 C 0.94991 0.27388 0.24212
 H2491 H 0.91070 0.27668 0.19199
 H2492 H 0.88932 0.28735 0.18066
 H2493 H 0.88866 0.32074 0.21352
 H2494 H 0.91007 0.30986 0.22468
 H2495 H 0.95697 0.26854 0.20637
 H2496 H 0.97902 0.25760 0.21653
 H2497 H 0.96405 0.26776 0.25953
 H2498 H 0.94183 0.27846 0.24930
 C2499 C 0.91180 0.79256 0.70911
 C2500 C 0.90565 0.80514 0.71492
 C2501 C 0.89341 0.81136 0.70848
 C2502 C 0.88713 0.80507 0.69610
 C2503 C 0.89346 0.79242 0.69035
 C2504 C 0.90569 0.78623 0.69681
 C2505 C 0.92444 0.78619 0.71566
 C2506 C 0.93509 0.78079 0.72097
 C2507 C 0.94791 0.77432 0.72705
 C2508 C 0.95846 0.76841 0.71791
 C2509 C 0.97101 0.76223 0.72371
 C2510 C 0.97316 0.76188 0.73873
 C2511 C 0.96255 0.76789 0.74786
 C2512 C 0.94996 0.77403 0.74204
 H2513 H 0.91032 0.81015 0.72442
 H2514 H 0.88894 0.82108 0.71325
 H2515 H 0.88904 0.78722 0.68087
 H2516 H 0.91039 0.77650 0.69220
 H2517 H 0.95700 0.76861 0.70630
 H2518 H 0.97906 0.75769 0.71647
 H2519 H 0.96409 0.76794 0.75946
 H2520 H 0.94188 0.77861 0.74921
 C2521 C 0.58833 0.29127 0.29173
 C2522 C 0.59445 0.30372 0.28564
 C2523 C 0.60672 0.31006 0.29189
 C2524 C 0.61305 0.30401 0.30436
 C2525 C 0.60675 0.29148 0.31039
 C2526 C 0.59449 0.28517 0.30412
 C2527 C 0.57567 0.28480 0.28533
 C2528 C 0.56500 0.27947 0.28001
 C2529 C 0.55217 0.27328 0.27367
 C2530 C 0.54158 0.28238 0.26773
 C2531 C 0.52902 0.27647 0.26171
 C2532 C 0.52690 0.26138 0.26155
 C2533 C 0.53753 0.25230 0.26763
 C2534 C 0.55014 0.25823 0.27359
 H2535 H 0.58974 0.30855 0.27605
 H2536 H 0.61117 0.31967 0.28689
 H2537 H 0.61120 0.28647 0.31997
 H2538 H 0.58981 0.27555 0.30895
 H2539 H 0.54301 0.29404 0.26778
 H2540 H 0.52094 0.28366 0.25713
 H2541 H 0.53602 0.24066 0.26784
 H2542 H 0.55825 0.25110 0.27822
 C2543 C 0.58816 0.79150 0.79197
 C2544 C 0.59446 0.78528 0.80423
 C2545 C 0.60670 0.79159 0.81052
 C2546 C 0.61286 0.80427 0.80464
 C2547 C 0.60639 0.81045 0.79229
 C2548 C 0.59414 0.80410 0.78602
 C2549 C 0.57550 0.78504 0.78556
 C2550 C 0.56483 0.77971 0.78022
 C2551 C 0.55199 0.77355 0.77387
 C2552 C 0.54995 0.75850 0.77375
 C2553 C 0.53734 0.75259 0.76777
 C2554 C 0.52670 0.76168 0.76172
 C2555 C 0.52883 0.77677 0.76191
 C2556 C 0.54140 0.78266 0.76795
 H2557 H 0.58989 0.77554 0.80895
 H2558 H 0.61126 0.78648 0.81999
 H2559 H 0.61073 0.82017 0.78742
 H2560 H 0.58933 0.80903 0.77654
 H2561 H 0.55805 0.75135 0.77837
 H2562 H 0.53582 0.74094 0.76795
 H2563 H 0.52077 0.78399 0.75735
 H2564 H 0.54284 0.79432 0.76803
 C2565 C 0.08805 0.29134 0.79192
 C2566 C 0.09419 0.30379 0.78582
 C2567 C 0.10648 0.31010 0.79206
 C2568 C 0.11282 0.30404 0.80452
 C2569 C 0.10650 0.29151 0.81056
 C2570 C 0.09422 0.28523 0.80430
 C2571 C 0.07538 0.28490 0.78552
 C2572 C 0.06471 0.27958 0.78018
 C2573 C 0.05187 0.27343 0.77383
 C2574 C 0.04131 0.28255 0.76787
 C2575 C 0.02876 0.27666 0.76180
 C2576 C 0.02661 0.26158 0.76162
 C2577 C 0.03722 0.25248 0.76772
 C2578 C 0.04981 0.25838 0.77373
 H2579 H 0.08948 0.30862 0.77624
 H2580 H 0.11093 0.31971 0.78707
 H2581 H 0.11095 0.28649 0.82013
 H2582 H 0.08954 0.27560 0.80913
 H2583 H 0.04276 0.29421 0.76794
 H2584 H 0.02071 0.28388 0.75720
 H2585 H 0.03569 0.24084 0.76791
 H2586 H 0.05790 0.25123 0.77838
 C2587 C 0.08816 0.79150 0.29167
 C2588 C 0.09415 0.80410 0.28574
 C2589 C 0.10638 0.81045 0.29203
 C2590 C 0.11282 0.80428 0.30439
 C2591 C 0.10667 0.79158 0.31025
 C2592 C 0.09444 0.78527 0.30393
 C2593 C 0.07552 0.78503 0.28525
 C2594 C 0.06487 0.77969 0.27989
 C2595 C 0.05205 0.77351 0.27354
 C2596 C 0.04146 0.78260 0.26759
 C2597 C 0.02890 0.77669 0.26157
 C2598 C 0.02678 0.76160 0.26143
 C2599 C 0.03742 0.75252 0.26749
 C2600 C 0.05002 0.75845 0.27346
 H2601 H 0.08934 0.80903 0.27625
 H2602 H 0.11072 0.82018 0.28717
 H2603 H 0.11122 0.78646 0.31972
 H2604 H 0.08987 0.77552 0.30864
 H2605 H 0.04289 0.79426 0.26765
 H2606 H 0.02082 0.78388 0.25699
 H2607 H 0.03591 0.74088 0.26770
 H2608 H 0.05813 0.75133 0.27809
 C2609 C 0.58825 0.70882 0.70834
 C2610 C 0.59440 0.69636 0.71442
 C2611 C 0.60667 0.69003 0.70815
 C2612 C 0.61300 0.69608 0.69568
 C2613 C 0.60668 0.70863 0.68966
 C2614 C 0.59441 0.71493 0.69595
 C2615 C 0.57556 0.71528 0.71475
 C2616 C 0.56488 0.72059 0.72009
 C2617 C 0.55203 0.72675 0.72645
 C2618 C 0.54147 0.71763 0.73239
 C2619 C 0.52889 0.72351 0.73845
 C2620 C 0.52673 0.73860 0.73865
 C2621 C 0.53734 0.74770 0.73259
 C2622 C 0.54996 0.74180 0.72658
 H2623 H 0.58968 0.69152 0.72400
 H2624 H 0.61114 0.68041 0.71314
 H2625 H 0.61112 0.71364 0.68009
 H2626 H 0.58971 0.72456 0.69113
 H2627 H 0.54293 0.70597 0.73230
 H2628 H 0.52084 0.71629 0.74302
 H2629 H 0.53579 0.75934 0.73240
 H2630 H 0.55804 0.74895 0.72195
 C2631 C 0.58827 0.20830 0.20804
 C2632 C 0.59438 0.19581 0.21409
 C2633 C 0.60663 0.18945 0.20780
 C2634 C 0.61296 0.19552 0.19534
 C2635 C 0.60665 0.20807 0.18933
 C2636 C 0.59441 0.21439 0.19564
 C2637 C 0.57564 0.21480 0.21451
 C2638 C 0.56501 0.22016 0.21990
 C2639 C 0.55220 0.22634 0.22632
 C2640 C 0.54167 0.21724 0.23233
 C2641 C 0.52911 0.22313 0.23841
 C2642 C 0.52695 0.23822 0.23857
 C2643 C 0.53754 0.24731 0.23245
 C2644 C 0.55014 0.24139 0.22642
 H2645 H 0.58968 0.19097 0.22368
 H2646 H 0.61108 0.17981 0.21276
 H2647 H 0.61110 0.21310 0.17976
 H2648 H 0.58973 0.22404 0.19084
 H2649 H 0.54313 0.20558 0.23227
 H2650 H 0.52108 0.21593 0.24303
 H2651 H 0.53599 0.25895 0.23224
 H2652 H 0.55820 0.24853 0.22175
 C2653 C 0.08810 0.70862 0.20787
 C2654 C 0.09422 0.69613 0.21391
 C2655 C 0.10646 0.68978 0.20761
 C2656 C 0.11279 0.69584 0.19514
 C2657 C 0.10648 0.70840 0.18915
 C2658 C 0.09424 0.71472 0.19547
 C2659 C 0.07547 0.71511 0.21433
 C2660 C 0.06483 0.72044 0.21972
 C2661 C 0.05202 0.72661 0.22615
 C2662 C 0.04150 0.71749 0.23216
 C2663 C 0.02895 0.72337 0.23826
 C2664 C 0.02678 0.73846 0.23843
 C2665 C 0.03735 0.74756 0.23231
 C2666 C 0.04995 0.74165 0.22627
 H2667 H 0.08952 0.69130 0.22350
 H2668 H 0.11091 0.68014 0.21257
 H2669 H 0.11093 0.71343 0.17958
 H2670 H 0.08957 0.72438 0.19067
 H2671 H 0.04297 0.70583 0.23208
 H2672 H 0.02092 0.71616 0.24288
 H2673 H 0.03579 0.75920 0.23212
 H2674 H 0.05801 0.74880 0.22160
 C2675 C 0.08794 0.20844 0.70815
 C2676 C 0.09404 0.19595 0.71422
 C2677 C 0.10628 0.18958 0.70795
 C2678 C 0.11263 0.19562 0.69547
 C2679 C 0.10633 0.20817 0.68945
 C2680 C 0.09409 0.21451 0.69575
 C2681 C 0.07532 0.21497 0.71460
 C2682 C 0.06469 0.22034 0.71998
 C2683 C 0.05189 0.22654 0.72638
 C2684 C 0.04134 0.21745 0.73238
 C2685 C 0.02878 0.22336 0.73845
 C2686 C 0.02664 0.23845 0.73861
 C2687 C 0.03724 0.24753 0.73250
 C2688 C 0.04984 0.24159 0.72648
 H2689 H 0.08932 0.19113 0.72381
 H2690 H 0.11072 0.17994 0.71292
 H2691 H 0.11080 0.21319 0.67988
 H2692 H 0.08943 0.22416 0.69093
 H2693 H 0.04279 0.20579 0.73231
 H2694 H 0.02074 0.21616 0.74306
 H2695 H 0.03570 0.25917 0.73229
 H2696 H 0.05791 0.24872 0.72181
 C2697 C 0.41170 0.70750 0.29079
 C2698 C 0.40541 0.69508 0.28483
 C2699 C 0.39316 0.68888 0.29125
 C2700 C 0.38702 0.69502 0.30378
 C2701 C 0.39349 0.70753 0.30968
 C2702 C 0.40573 0.71369 0.30323
 C2703 C 0.42434 0.71386 0.28424
 C2704 C 0.43500 0.71924 0.27894
 C2705 C 0.44783 0.72571 0.27290
 C2706 C 0.44993 0.72606 0.25792
 C2707 C 0.46253 0.73222 0.25215
 C2708 C 0.47309 0.73821 0.26133
 C2709 C 0.47090 0.73779 0.27635
 C2710 C 0.45834 0.73158 0.28209
 H2711 H 0.40997 0.69017 0.27521
 H2712 H 0.38858 0.67929 0.28635
 H2713 H 0.38917 0.71262 0.31927
 H2714 H 0.41054 0.72330 0.30796
 H2715 H 0.44188 0.72150 0.25071
 H2716 H 0.46410 0.73223 0.24056
 H2717 H 0.47890 0.74232 0.28362
 H2718 H 0.45685 0.73134 0.29369
 C2719 C 0.41171 0.20742 0.79087
 C2720 C 0.40526 0.19515 0.78474
 C2721 C 0.39297 0.18898 0.79113
 C2722 C 0.38693 0.19501 0.80376
 C2723 C 0.39358 0.20733 0.80984
 C2724 C 0.40586 0.21347 0.80343
 C2725 C 0.42438 0.21376 0.78435
 C2726 C 0.43505 0.21914 0.77907
 C2727 C 0.44789 0.22561 0.77303
 C2728 C 0.44998 0.22596 0.75805
 C2729 C 0.46258 0.23211 0.75227
 C2730 C 0.47315 0.23810 0.76144
 C2731 C 0.47097 0.23769 0.77645
 C2732 C 0.45841 0.23149 0.78221
 H2733 H 0.40973 0.19035 0.77503
 H2734 H 0.38826 0.17952 0.78610
 H2735 H 0.38937 0.21231 0.81954
 H2736 H 0.41080 0.22294 0.80829
 H2737 H 0.44192 0.22139 0.75085
 H2738 H 0.46414 0.23209 0.74068
 H2739 H 0.47899 0.24221 0.78372
 H2740 H 0.45693 0.23125 0.79382
 C2741 C 0.91174 0.70780 0.79088
 C2742 C 0.90546 0.69539 0.78490
 C2743 C 0.89320 0.68918 0.79129
 C2744 C 0.88702 0.69532 0.80380
 C2745 C 0.89348 0.70782 0.80972
 C2746 C 0.90573 0.71400 0.80330
 C2747 C 0.92442 0.71415 0.78437
 C2748 C 0.93509 0.71951 0.77909
 C2749 C 0.94794 0.72594 0.77303
 C2750 C 0.95000 0.72627 0.75804
 C2751 C 0.96260 0.73240 0.75224
 C2752 C 0.97318 0.73839 0.76139
 C2753 C 0.97103 0.73799 0.77641
 C2754 C 0.95848 0.73181 0.78219
 H2755 H 0.91005 0.69048 0.77529
 H2756 H 0.88863 0.67959 0.78638
 H2757 H 0.88915 0.71290 0.81932
 H2758 H 0.91054 0.72360 0.80805
 H2759 H 0.94193 0.72171 0.75086
 H2760 H 0.96414 0.73238 0.74065
 H2761 H 0.97907 0.74250 0.78366
 H2762 H 0.95702 0.73157 0.79380
 C2763 C 0.91167 0.20753 0.29078
 C2764 C 0.90538 0.19511 0.28481
 C2765 C 0.89311 0.18892 0.29122
 C2766 C 0.88695 0.19508 0.30373
 C2767 C 0.89342 0.20758 0.30964
 C2768 C 0.90568 0.21373 0.30321
 C2769 C 0.92435 0.21387 0.28427
 C2770 C 0.93502 0.21924 0.27899
 C2771 C 0.94787 0.22570 0.27295
 C2772 C 0.94995 0.22606 0.25797
 C2773 C 0.96256 0.23222 0.25220
 C2774 C 0.97313 0.23819 0.26138
 C2775 C 0.97095 0.23776 0.27639
 C2776 C 0.95840 0.23156 0.28214
 H2777 H 0.90996 0.19020 0.27521
 H2778 H 0.88852 0.17933 0.28631
 H2779 H 0.88910 0.21267 0.31923
 H2780 H 0.91050 0.22333 0.30795
 H2781 H 0.94189 0.22152 0.25077
 H2782 H 0.96411 0.23223 0.24061
 H2783 H 0.97898 0.24227 0.28366
 H2784 H 0.95691 0.23130 0.29375
 C2785 C 0.29209 0.29113 0.58810
 C2786 C 0.30452 0.28506 0.59432
 C2787 C 0.31073 0.29139 0.60657
 C2788 C 0.30460 0.30391 0.61280
 C2789 C 0.29210 0.30992 0.60641
 C2790 C 0.28591 0.30357 0.59416
 C2791 C 0.28572 0.28465 0.57545
 C2792 C 0.28036 0.27936 0.56481
 C2793 C 0.27396 0.27326 0.55200
 C2794 C 0.27376 0.25821 0.54993
 C2795 C 0.26771 0.25236 0.53736
 C2796 C 0.26169 0.26151 0.52679
 C2797 C 0.26196 0.27659 0.52895
 C2798 C 0.26805 0.28242 0.54148
 H2799 H 0.30942 0.27544 0.58969
 H2800 H 0.32033 0.28640 0.61108
 H2801 H 0.28702 0.31953 0.61079
 H2802 H 0.27630 0.30839 0.58941
 H2803 H 0.27835 0.25102 0.55798
 H2804 H 0.26783 0.24072 0.53582
 H2805 H 0.25741 0.28385 0.52093
 H2806 H 0.26819 0.29408 0.54294
 C2807 C 0.29222 0.79133 0.08788
 C2808 C 0.30464 0.78526 0.09410
 C2809 C 0.31085 0.79160 0.10635
 C2810 C 0.30472 0.80413 0.11257
 C2811 C 0.29222 0.81014 0.10617
 C2812 C 0.28604 0.80378 0.09393
 C2813 C 0.28587 0.78487 0.07522
 C2814 C 0.28053 0.77960 0.06456
 C2815 C 0.27415 0.77351 0.05174
 C2816 C 0.27388 0.75847 0.04968
 C2817 C 0.26785 0.75264 0.03710
 C2818 C 0.26187 0.76180 0.02651
 C2819 C 0.26221 0.77688 0.02865
 C2820 C 0.26831 0.78270 0.04119
 H2821 H 0.30954 0.77564 0.08948
 H2822 H 0.32045 0.78661 0.11087
 H2823 H 0.28714 0.81975 0.11055
 H2824 H 0.27643 0.80859 0.08917
 H2825 H 0.27841 0.75127 0.05776
 H2826 H 0.26794 0.74100 0.03558
 H2827 H 0.25771 0.78416 0.02063
 H2828 H 0.26851 0.79435 0.04264
 C2829 C 0.79207 0.29139 0.08803
 C2830 C 0.80449 0.28532 0.09426
 C2831 C 0.81071 0.29165 0.10650
 C2832 C 0.80459 0.30418 0.11273
 C2833 C 0.79208 0.31019 0.10634
 C2834 C 0.78589 0.30384 0.09410
 C2835 C 0.78571 0.28495 0.07537
 C2836 C 0.78036 0.27969 0.06471
 C2837 C 0.77397 0.27362 0.05188
 C2838 C 0.77372 0.25858 0.04980
 C2839 C 0.76766 0.25275 0.03722
 C2840 C 0.76161 0.26192 0.02668
 C2841 C 0.76193 0.27700 0.02885
 C2842 C 0.76808 0.28281 0.04137
 H2843 H 0.80938 0.27569 0.08963
 H2844 H 0.82030 0.28666 0.11102
 H2845 H 0.78701 0.31980 0.11072
 H2846 H 0.77628 0.30865 0.08935
 H2847 H 0.77829 0.25137 0.05784
 H2848 H 0.76777 0.24111 0.03568
 H2849 H 0.75738 0.28428 0.02086
 H2850 H 0.76826 0.29446 0.04284
 C2851 C 0.79207 0.79147 0.58814
 C2852 C 0.78588 0.80391 0.59420
 C2853 C 0.79206 0.81027 0.60645
 C2854 C 0.80457 0.80427 0.61284
 C2855 C 0.81070 0.79174 0.60662
 C2856 C 0.80449 0.78541 0.59437
 C2857 C 0.78573 0.78502 0.57547
 C2858 C 0.78039 0.77975 0.56480
 C2859 C 0.77400 0.77368 0.55197
 C2860 C 0.76813 0.78287 0.54145
 C2861 C 0.76199 0.77707 0.52893
 C2862 C 0.76165 0.76199 0.52677
 C2863 C 0.76769 0.75282 0.53732
 C2864 C 0.77375 0.75864 0.54990
 H2865 H 0.77627 0.80871 0.58945
 H2866 H 0.78698 0.81988 0.61082
 H2867 H 0.82030 0.78677 0.61113
 H2868 H 0.80940 0.77579 0.58975
 H2869 H 0.76833 0.79453 0.54292
 H2870 H 0.75746 0.78435 0.52093
 H2871 H 0.76778 0.74118 0.53578
 H2872 H 0.77831 0.75143 0.55795
 C2873 C 0.29193 0.70865 0.41176
 C2874 C 0.30436 0.71470 0.40554
 C2875 C 0.31058 0.70836 0.39329
 C2876 C 0.30445 0.69584 0.38705
 C2877 C 0.29194 0.68986 0.39345
 C2878 C 0.28574 0.69622 0.40570
 C2879 C 0.28559 0.71510 0.42444
 C2880 C 0.28027 0.72038 0.43511
 C2881 C 0.27390 0.72647 0.44795
 C2882 C 0.27367 0.74151 0.45001
 C2883 C 0.26765 0.74737 0.46260
 C2884 C 0.26163 0.73823 0.47318
 C2885 C 0.26195 0.72314 0.47103
 C2886 C 0.26805 0.71731 0.45850
 H2887 H 0.30926 0.72431 0.41016
 H2888 H 0.32018 0.71333 0.38877
 H2889 H 0.28686 0.68026 0.38907
 H2890 H 0.27613 0.69143 0.41045
 H2891 H 0.27821 0.74870 0.44193
 H2892 H 0.26776 0.75901 0.46412
 H2893 H 0.25743 0.71588 0.47906
 H2894 H 0.26823 0.70565 0.45705
 C2895 C 0.29198 0.20844 0.91199
 C2896 C 0.30441 0.21449 0.90578
 C2897 C 0.31064 0.20815 0.89354
 C2898 C 0.30452 0.19563 0.88730
 C2899 C 0.29201 0.18964 0.89369
 C2900 C 0.28581 0.19600 0.90593
 C2901 C 0.28560 0.21491 0.92464
 C2902 C 0.28024 0.22019 0.93529
 C2903 C 0.27384 0.22629 0.94810
 C2904 C 0.27359 0.24133 0.95016
 C2905 C 0.26754 0.24718 0.96274
 C2906 C 0.26152 0.23803 0.97331
 C2907 C 0.26185 0.22295 0.97116
 C2908 C 0.26798 0.21712 0.95864
 H2909 H 0.30930 0.22410 0.91041
 H2910 H 0.32024 0.21312 0.88903
 H2911 H 0.28694 0.18004 0.88931
 H2912 H 0.27619 0.19120 0.91068
 H2913 H 0.27814 0.24853 0.94209
 H2914 H 0.26764 0.25882 0.96426
 H2915 H 0.25733 0.21569 0.97918
 H2916 H 0.26817 0.20546 0.95719
 C2917 C 0.79215 0.70872 0.91198
 C2918 C 0.78598 0.69627 0.90593
 C2919 C 0.79218 0.68991 0.89369
 C2920 C 0.80467 0.69591 0.88728
 C2921 C 0.81080 0.70843 0.89350
 C2922 C 0.80457 0.71477 0.90575
 C2923 C 0.78577 0.71520 0.92462
 C2924 C 0.78040 0.72049 0.93527
 C2925 C 0.77398 0.72657 0.94808
 C2926 C 0.76811 0.71739 0.95860
 C2927 C 0.76198 0.72320 0.97113
 C2928 C 0.76164 0.73828 0.97330
 C2929 C 0.76766 0.74744 0.96274
 C2930 C 0.77372 0.74161 0.95015
 H2931 H 0.77638 0.69147 0.91069
 H2932 H 0.78711 0.68030 0.88931
 H2933 H 0.82039 0.71340 0.88898
 H2934 H 0.80947 0.72439 0.91037
 H2935 H 0.76831 0.70573 0.95713
 H2936 H 0.75745 0.71592 0.97913
 H2937 H 0.76776 0.75908 0.96428
 H2938 H 0.77827 0.74882 0.94210
 C2939 C 0.79207 0.20854 0.41195
 C2940 C 0.78591 0.19609 0.40589
 C2941 C 0.79211 0.18973 0.39365
 C2942 C 0.80461 0.19573 0.38725
 C2943 C 0.81073 0.20826 0.39348
 C2944 C 0.80449 0.21459 0.40573
 C2945 C 0.78569 0.21500 0.42460
 C2946 C 0.78031 0.22027 0.43525
 C2947 C 0.77388 0.22636 0.44806
 C2948 C 0.76800 0.21718 0.45858
 C2949 C 0.76185 0.22299 0.47110
 C2950 C 0.76151 0.23808 0.47325
 C2951 C 0.76755 0.24723 0.46270
 C2952 C 0.77362 0.24140 0.45012
 H2953 H 0.77630 0.19129 0.41064
 H2954 H 0.78705 0.18012 0.38927
 H2955 H 0.82032 0.21323 0.38897
 H2956 H 0.80938 0.22421 0.41035
 H2957 H 0.76820 0.20552 0.45712
 H2958 H 0.75731 0.21573 0.47910
 H2959 H 0.76765 0.25887 0.46423
 H2960 H 0.77818 0.24860 0.44207
 C2961 C 0.70815 0.29111 0.41195
 C2962 C 0.69573 0.28506 0.40574
 C2963 C 0.68949 0.29142 0.39352
 C2964 C 0.69559 0.30396 0.38730
 C2965 C 0.70809 0.30996 0.39369
 C2966 C 0.71430 0.30358 0.40591
 C2967 C 0.71452 0.28463 0.42458
 C2968 C 0.71986 0.27932 0.43523
 C2969 C 0.72624 0.27321 0.44804
 C2970 C 0.72648 0.25816 0.45009
 C2971 C 0.73251 0.25230 0.46267
 C2972 C 0.73853 0.26143 0.47324
 C2973 C 0.73821 0.27652 0.47110
 C2974 C 0.73210 0.28236 0.45858
 H2975 H 0.69085 0.27543 0.41035
 H2976 H 0.67990 0.28644 0.38901
 H2977 H 0.71314 0.31958 0.38931
 H2978 H 0.72391 0.30838 0.41066
 H2979 H 0.72193 0.25098 0.44202
 H2980 H 0.73239 0.24066 0.46419
 H2981 H 0.74273 0.28377 0.47912
 H2982 H 0.73192 0.29402 0.45713
 C2983 C 0.70816 0.79127 0.91207
 C2984 C 0.71432 0.80371 0.90601
 C2985 C 0.70811 0.81008 0.89377
 C2986 C 0.69561 0.80407 0.88740
 C2987 C 0.68950 0.79154 0.89364
 C2988 C 0.69573 0.78521 0.90587
 C2989 C 0.71453 0.78479 0.92471
 C2990 C 0.71988 0.77950 0.93536
 C2991 C 0.72628 0.77339 0.94816
 C2992 C 0.73215 0.78255 0.95869
 C2993 C 0.73830 0.77671 0.97120
 C2994 C 0.73864 0.76162 0.97333
 C2995 C 0.73260 0.75248 0.96277
 C2996 C 0.72654 0.75834 0.95021
 H2997 H 0.72392 0.80852 0.91075
 H2998 H 0.71316 0.81969 0.88938
 H2999 H 0.67990 0.78656 0.88914
 H3000 H 0.69085 0.77559 0.91051
 H3001 H 0.73195 0.79420 0.95724
 H3002 H 0.74283 0.78396 0.97921
 H3003 H 0.73250 0.74084 0.96429
 H3004 H 0.72198 0.75116 0.94214
 C3005 C 0.20803 0.29100 0.91205
 C3006 C 0.19559 0.28497 0.90586
 C3007 C 0.18934 0.29134 0.89364
 C3008 C 0.19546 0.30388 0.88742
 C3009 C 0.20797 0.30986 0.89380
 C3010 C 0.21419 0.30346 0.90601
 C3011 C 0.21441 0.28450 0.92468
 C3012 C 0.21977 0.27919 0.93532
 C3013 C 0.22618 0.27310 0.94812
 C3014 C 0.22643 0.25805 0.95020
 C3015 C 0.23248 0.25222 0.96278
 C3016 C 0.23853 0.26137 0.97332
 C3017 C 0.23819 0.27645 0.97116
 C3018 C 0.23205 0.28227 0.95863
 H3019 H 0.19071 0.27534 0.91047
 H3020 H 0.17974 0.28638 0.88915
 H3021 H 0.21301 0.31949 0.88942
 H3022 H 0.22380 0.30825 0.91076
 H3023 H 0.22186 0.25085 0.94215
 H3024 H 0.23238 0.24058 0.96432
 H3025 H 0.24272 0.28372 0.97916
 H3026 H 0.23185 0.29393 0.95717
 C3027 C 0.20818 0.79114 0.41188
 C3028 C 0.19576 0.78508 0.40568
 C3029 C 0.18953 0.79141 0.39344
 C3030 C 0.19563 0.80394 0.38720
 C3031 C 0.20813 0.80995 0.39358
 C3032 C 0.21434 0.80359 0.40582
 C3033 C 0.21454 0.78468 0.42454
 C3034 C 0.21989 0.77940 0.43520
 C3035 C 0.22628 0.77331 0.44802
 C3036 C 0.22653 0.75827 0.45009
 C3037 C 0.23259 0.75243 0.46266
 C3038 C 0.23864 0.76158 0.47320
 C3039 C 0.23830 0.77667 0.47104
 C3040 C 0.23215 0.78249 0.45853
 H3041 H 0.19088 0.77545 0.41031
 H3042 H 0.17993 0.78643 0.38895
 H3043 H 0.21318 0.81956 0.38919
 H3044 H 0.22394 0.80840 0.41056
 H3045 H 0.22196 0.75108 0.44204
 H3046 H 0.23248 0.74079 0.46421
 H3047 H 0.24284 0.78394 0.47904
 H3048 H 0.23196 0.79415 0.45706
 C3049 C 0.70818 0.70900 0.58806
 C3050 C 0.71435 0.69653 0.59410
 C3051 C 0.70814 0.69015 0.60632
 C3052 C 0.69562 0.69615 0.61271
 C3053 C 0.68951 0.70869 0.60650
 C3054 C 0.69575 0.71505 0.59427
 C3055 C 0.71455 0.71550 0.57543
 C3056 C 0.71990 0.72081 0.56479
 C3057 C 0.72630 0.72692 0.55198
 C3058 C 0.73215 0.71776 0.54143
 C3059 C 0.73829 0.72360 0.52892
 C3060 C 0.73864 0.73869 0.52679
 C3061 C 0.73262 0.74783 0.53737
 C3062 C 0.72656 0.74197 0.54994
 H3063 H 0.72396 0.69173 0.58935
 H3064 H 0.71319 0.68052 0.61069
 H3065 H 0.67990 0.71367 0.61100
 H3066 H 0.69085 0.72469 0.58966
 H3067 H 0.73195 0.70610 0.54287
 H3068 H 0.74280 0.71634 0.52089
 H3069 H 0.73252 0.75947 0.53585
 H3070 H 0.72201 0.74916 0.55801
 C3071 C 0.70833 0.20891 0.08800
 C3072 C 0.71451 0.19645 0.09403
 C3073 C 0.70832 0.19005 0.10625
 C3074 C 0.69580 0.19603 0.11265
 C3075 C 0.68968 0.20858 0.10646
 C3076 C 0.69590 0.21496 0.09424
 C3077 C 0.71467 0.21540 0.07536
 C3078 C 0.71999 0.22070 0.06470
 C3079 C 0.72635 0.22682 0.05188
 C3080 C 0.73221 0.21766 0.04133
 C3081 C 0.73832 0.22350 0.02881
 C3082 C 0.73863 0.23859 0.02668
 C3083 C 0.73260 0.24773 0.03726
 C3084 C 0.72657 0.24186 0.04984
 H3085 H 0.72413 0.19166 0.08926
 H3086 H 0.71339 0.18042 0.11061
 H3087 H 0.68007 0.21355 0.11098
 H3088 H 0.69100 0.22459 0.08964
 H3089 H 0.73203 0.20600 0.04277
 H3090 H 0.74284 0.21625 0.02078
 H3091 H 0.73247 0.25937 0.03574
 H3092 H 0.72202 0.24904 0.05791
 C3093 C 0.20826 0.70898 0.08779
 C3094 C 0.19584 0.71504 0.09400
 C3095 C 0.18959 0.70870 0.10623
 C3096 C 0.19569 0.69614 0.11244
 C3097 C 0.20820 0.69013 0.10606
 C3098 C 0.21442 0.69650 0.09383
 C3099 C 0.21464 0.71545 0.07515
 C3100 C 0.22000 0.72075 0.06450
 C3101 C 0.22641 0.72683 0.05169
 C3102 C 0.22670 0.74188 0.04963
 C3103 C 0.23279 0.74771 0.03706
 C3104 C 0.23881 0.73855 0.02650
 C3105 C 0.23843 0.72346 0.02864
 C3106 C 0.23227 0.71765 0.04116
 H3107 H 0.19096 0.72468 0.08939
 H3108 H 0.17999 0.71369 0.11073
 H3109 H 0.21324 0.68049 0.11043
 H3110 H 0.22402 0.69169 0.08908
 H3111 H 0.22215 0.74909 0.05769
 H3112 H 0.23271 0.75935 0.03553
 H3113 H 0.24295 0.71618 0.02064
 H3114 H 0.23204 0.70599 0.04261
 C3115 C 0.20800 0.20890 0.58809
 C3116 C 0.21417 0.19643 0.59412
 C3117 C 0.20797 0.19004 0.60635
 C3118 C 0.19546 0.19603 0.61275
 C3119 C 0.18934 0.20859 0.60655
 C3120 C 0.19557 0.21495 0.59432
 C3121 C 0.21435 0.21539 0.57544
 C3122 C 0.21968 0.22071 0.56479
 C3123 C 0.22606 0.22683 0.55197
 C3124 C 0.23197 0.21767 0.54145
 C3125 C 0.23808 0.22351 0.52892
 C3126 C 0.23836 0.23860 0.52677
 C3127 C 0.23232 0.24774 0.53734
 C3128 C 0.22627 0.24187 0.54991
 H3129 H 0.22378 0.19163 0.58936
 H3130 H 0.21303 0.18041 0.61072
 H3131 H 0.17975 0.21357 0.61107
 H3132 H 0.19067 0.22459 0.58972
 H3133 H 0.23183 0.20601 0.54291
 H3134 H 0.24263 0.21627 0.52090
 H3135 H 0.23221 0.25938 0.53580
 H3136 H 0.22167 0.24906 0.55796
   
