data_POSCAR
  _audit_creation_date              2014-09-24
  _audit_creation_method            'ToBaCCo'
  _symmetry_space_group_name_H-M    'P1'
  _symmetry_Int_Tables_number       1
  _symmetry_cell_setting            triclinic
  loop_
  _symmetry_equiv_pos_as_xyz
 x,y,z
_cell_length_a 88.9295
_cell_length_b 88.4192
_cell_length_c 88.4090
_cell_angle_alpha 90.027500
_cell_angle_beta 90.056300
_cell_angle_gamma 90.008200
loop_
  _atom_site_label
  _atom_site_type_symbol
  _atom_site_fract_x
  _atom_site_fract_y
  _atom_site_fract_z
C1 C 0.30024 0.43918 0.92805
 C2 C 0.30004 0.42828 0.93957
 C3 C 0.31091 0.42856 0.95082
 C4 C 0.32210 0.43973 0.95068
 C5 C 0.32230 0.45050 0.93929
 C6 C 0.31131 0.45022 0.92791
 C7 C 0.29170 0.44107 0.91518
 N8 N 0.29734 0.45296 0.90738
 C9 C 0.30931 0.45864 0.91496
 C10 C 0.33492 0.45927 0.94142
 N11 N 0.34225 0.45406 0.95380
 C12 C 0.33462 0.44212 0.95956
 C13 C 0.30855 0.41612 0.95989
 N14 N 0.29656 0.40844 0.95438
 C15 C 0.29126 0.41569 0.94198
 H16 H 0.28237 0.43409 0.91154
 H17 H 0.31628 0.46792 0.91112
 H18 H 0.33874 0.46844 0.93426
 H19 H 0.33814 0.43542 0.96919
 H20 H 0.31531 0.41264 0.96947
 H21 H 0.28202 0.41181 0.93500
 C22 C 0.43669 0.82450 0.44850
 C23 C 0.42545 0.81337 0.44834
 C24 C 0.42541 0.80238 0.43715
 C25 C 0.43660 0.80240 0.42599
 C26 C 0.44770 0.81340 0.42615
 C27 C 0.44775 0.82451 0.43747
 C28 C 0.43901 0.83703 0.45747
 N29 N 0.45118 0.84450 0.45210
 C30 C 0.45663 0.83705 0.43989
 C31 C 0.45654 0.81116 0.41356
 N32 N 0.45103 0.79910 0.40590
 C33 C 0.43886 0.79365 0.41330
 C34 C 0.41279 0.79361 0.43931
 N35 N 0.40532 0.79904 0.45149
 C36 C 0.41287 0.81110 0.45712
 H37 H 0.43214 0.84066 0.46692
 H38 H 0.46607 0.84070 0.43307
 H39 H 0.46601 0.81799 0.41002
 H40 H 0.43198 0.78427 0.40952
 H41 H 0.40911 0.78424 0.43234
 H42 H 0.40926 0.81791 0.46662
 C43 C 0.93730 0.92695 0.80139
 C44 C 0.92593 0.93794 0.80163
 C45 C 0.92571 0.94877 0.81296
 C46 C 0.93686 0.94875 0.82419
 C47 C 0.94810 0.93789 0.82396
 C48 C 0.94832 0.92693 0.81249
 C49 C 0.93977 0.91454 0.79230
 N50 N 0.95199 0.90713 0.79765
 C51 C 0.95732 0.91450 0.80998
 C52 C 0.95683 0.94005 0.83665
 N53 N 0.95113 0.95193 0.84443
 C54 C 0.93893 0.95735 0.83701
 C55 C 0.91298 0.95739 0.81087
 N56 N 0.90560 0.95202 0.79859
 C57 C 0.91332 0.94014 0.79284
 H58 H 0.93295 0.91093 0.78280
 H59 H 0.96675 0.91085 0.81683
 H60 H 0.96636 0.93327 0.84016
 H61 H 0.93189 0.96658 0.84087
 H62 H 0.90915 0.96661 0.81795
 H63 H 0.90982 0.93339 0.78323
 C64 C 0.43687 -0.07405 0.30106
 C65 C 0.42579 -0.06276 0.30118
 C66 C 0.42587 -0.05180 0.31240
 C67 C 0.43702 -0.05201 0.32362
 C68 C 0.44796 -0.06316 0.32350
 C69 C 0.44789 -0.07425 0.31215
 C70 C 0.43900 -0.08662 0.29211
 N71 N 0.45102 -0.09431 0.29755
 C72 C 0.45655 -0.08694 0.30979
 C73 C 0.45673 -0.06112 0.33619
 N74 N 0.45134 -0.04903 0.34387
 C75 C 0.43931 -0.04336 0.33638
 C76 C 0.41335 -0.04289 0.31025
 N77 N 0.40581 -0.04820 0.29804
 C78 C 0.41323 -0.06033 0.29240
 H79 H 0.43208 -0.09016 0.28265
 H80 H 0.46588 -0.09077 0.31669
 H81 H 0.46606 -0.06812 0.33979
 H82 H 0.43252 -0.03393 0.34017
 H83 H 0.40975 -0.03353 0.31727
 H84 H 0.40952 -0.06710 0.28289
 C85 C 0.80146 0.31187 0.32251
 C86 C 0.80166 0.32319 0.31141
 C87 C 0.81286 0.32328 0.30052
 C88 C 0.82400 0.31206 0.30061
 C89 C 0.82381 0.30088 0.31159
 C90 C 0.81247 0.30078 0.32260
 C91 C 0.79249 0.30951 0.33498
 N92 N 0.79783 0.29729 0.34250
 C93 C 0.81002 0.29185 0.33512
 C94 C 0.83640 0.29206 0.30947
 N95 N 0.84410 0.29766 0.29751
 C96 C 0.83671 0.30987 0.29200
 C97 C 0.81077 0.33601 0.29179
 N98 N 0.79860 0.34349 0.29714
 C99 C 0.79293 0.33585 0.30911
 H100 H 0.78308 0.31639 0.33857
 H101 H 0.81683 0.28241 0.33884
 H102 H 0.83992 0.28256 0.31632
 H103 H 0.84052 0.31684 0.28269
 H104 H 0.81778 0.33976 0.28251
 H105 H 0.78343 0.33946 0.31587
 C106 C -0.18897 0.82311 0.79963
 C107 C -0.17803 0.81169 0.79955
 C108 C -0.17828 0.80048 0.81049
 C109 C -0.18948 0.80055 0.82166
 C110 C -0.20029 0.81184 0.82174
 C111 C -0.20004 0.82319 0.81066
 C112 C -0.19093 0.83591 0.79097
 N113 N -0.20289 0.84360 0.79652
 C114 C -0.20855 0.83603 0.80854
 C115 C -0.20911 0.80964 0.83435
 N116 N -0.20388 0.79732 0.84177
 C117 C -0.19189 0.79166 0.83421
 C118 C -0.16584 0.79149 0.80823
 N119 N -0.15818 0.79700 0.79620
 C120 C -0.16544 0.80933 0.79080
 H121 H -0.18396 0.83957 0.78162
 H122 H -0.21789 0.83978 0.81545
 H123 H -0.21834 0.81671 0.83808
 H124 H -0.18517 0.78210 0.83782
 H125 H -0.16237 0.78194 0.81506
 H126 H -0.16159 0.81630 0.78150
 C127 C 0.94912 0.32348 0.43789
 C128 C 0.94915 0.31222 0.42672
 C129 C 0.93834 0.30093 0.42693
 C130 C 0.92737 0.30076 0.43832
 C131 C 0.92734 0.31189 0.44936
 C132 C 0.93828 0.32332 0.44915
 C133 C 0.95769 0.33629 0.43996
 N134 N 0.95228 0.34377 0.45217
 C135 C 0.94042 0.33604 0.45789
 C136 C 0.91495 0.30944 0.45836
 N137 N 0.90759 0.29714 0.45302
 C138 C 0.91500 0.29173 0.44078
 C139 C 0.94054 0.29210 0.41428
 N140 N 0.95239 0.29780 0.40654
 C141 C 0.95775 0.31007 0.41395
 H142 H 0.96689 0.34010 0.43290
 H143 H 0.93365 0.33962 0.46742
 H144 H 0.91130 0.31633 0.46780
 H145 H 0.91139 0.28222 0.43395
 H146 H 0.93380 0.28253 0.41074
 H147 H 0.96694 0.31712 0.41011
 C148 C 0.44897 0.43843 0.82233
 C149 C 0.44863 0.42697 0.81137
 C150 C 0.43737 0.42680 0.80052
 C151 C 0.42631 0.43811 0.80052
 C152 C 0.42664 0.44944 0.81135
 C153 C 0.43804 0.44960 0.82232
 C154 C 0.45799 0.44083 0.83477
 N155 N 0.45275 0.45316 0.84218
 C156 C 0.44057 0.45863 0.83477
 C157 C 0.41406 0.45827 0.80920
 N158 N 0.40625 0.45255 0.79736
 C159 C 0.41354 0.44024 0.79195
 C160 C 0.43929 0.41391 0.79198
 N161 N 0.45141 0.40640 0.79742
 C162 C 0.45722 0.41419 0.80925
 H163 H 0.46734 0.43388 0.83843
 H164 H 0.43381 0.46814 0.83843
 H165 H 0.41062 0.46787 0.81598
 H166 H 0.40961 0.43315 0.78277
 H167 H 0.43218 0.41006 0.78281
 H168 H 0.46670 0.41058 0.81605
 C169 C 0.80140 0.92808 0.93909
 C170 C 0.80154 0.93904 0.92764
 C171 C 0.81280 0.94988 0.92731
 C172 C 0.82404 0.94988 0.93845
 C173 C 0.82389 0.93904 0.94977
 C174 C 0.81251 0.92807 0.95009
 C175 C 0.79243 0.91563 0.94160
 N176 N 0.79787 0.90821 0.95383
 C177 C 0.81013 0.91561 0.95913
 C178 C 0.83660 0.94117 0.95843
 N179 N 0.84432 0.95302 0.95261
 C180 C 0.83685 0.95844 0.94041
 C181 C 0.81066 0.95843 0.91447
 N182 N 0.79841 0.95301 0.90713
 C183 C 0.79275 0.94117 0.91499
 H184 H 0.78297 0.91198 0.93478
 H185 H 0.81705 0.91195 0.96853
 H186 H 0.84018 0.93437 0.96797
 H187 H 0.84066 0.96762 0.93326
 H188 H 0.81770 0.96760 0.91051
 H189 H 0.78321 0.93438 0.91153
 C190 C 0.30247 0.82427 0.31279
 C191 C 0.30248 0.81301 0.32395
 C192 C 0.31354 0.80197 0.32396
 C193 C 0.32474 0.80207 0.31280
 C194 C 0.32473 0.81320 0.30176
 C195 C 0.31354 0.82436 0.30175
 C196 C 0.29364 0.83686 0.31053
 N197 N 0.29911 0.84445 0.29843
 C198 C 0.31126 0.83701 0.29296
 C199 C 0.33732 0.81101 0.29297
 N200 N 0.34483 0.79886 0.29843
 C201 C 0.33733 0.79329 0.31054
 C202 C 0.31127 0.79308 0.33654
 N203 N 0.29913 0.79849 0.34403
 C204 C 0.29365 0.81065 0.33652
 H205 H 0.28420 0.84044 0.31740
 H206 H 0.31813 0.84074 0.28356
 H207 H 0.34097 0.81793 0.28357
 H208 H 0.34098 0.78383 0.31739
 H209 H 0.31814 0.78366 0.34020
 H210 H 0.28422 0.81748 0.34017
 C211 C 0.80199 0.42761 0.43812
 C212 C 0.80220 0.43850 0.42659
 C213 C 0.81348 0.44931 0.42624
 C214 C 0.82468 0.44936 0.43742
 C215 C 0.82447 0.43859 0.44881
 C216 C 0.81306 0.42766 0.44916
 C217 C 0.79296 0.41522 0.44073
 N218 N 0.79832 0.40789 0.45305
 C219 C 0.81059 0.41530 0.45831
 C220 C 0.83713 0.44079 0.45753
 N221 N 0.84487 0.45260 0.45168
 C222 C 0.83747 0.45794 0.43939
 C223 C 0.81137 0.45782 0.41337
 N224 N 0.79913 0.45240 0.40604
 C225 C 0.79342 0.44060 0.41393
 H226 H 0.78351 0.41155 0.43393
 H227 H 0.81743 0.41170 0.46778
 H228 H 0.84064 0.43407 0.46715
 H229 H 0.84130 0.46709 0.43222
 H230 H 0.81842 0.46699 0.40942
 H231 H 0.78386 0.43384 0.41049
 C232 C 0.93922 0.82162 -0.04950
 C233 C 0.92819 0.81028 -0.04942
 C234 C 0.92835 0.79906 -0.06038
 C235 C 0.93954 0.79905 -0.07154
 C236 C 0.95044 0.81026 -0.07162
 C237 C 0.95028 0.82161 -0.06053
 C238 C 0.94124 0.83444 -0.04088
 N239 N 0.95322 0.84207 -0.04644
 C240 C 0.95884 0.83442 -0.05844
 C241 C 0.95922 0.80802 -0.08425
 N242 N 0.95388 0.79575 -0.09170
 C243 C 0.94186 0.79017 -0.08413
 C244 C 0.91581 0.79020 -0.05814
 N245 N 0.90819 0.79580 -0.04612
 C246 C 0.91556 0.80805 -0.04070
 H247 H 0.93427 0.83818 -0.03156
 H248 H 0.96817 0.83813 -0.06537
 H249 H 0.96848 0.81504 -0.08799
 H250 H 0.93505 0.78068 -0.08777
 H251 H 0.91224 0.78070 -0.06499
 H252 H 0.91176 0.81507 -0.03142
 C253 C 0.30105 0.32283 0.81145
 C254 C 0.30081 0.31149 0.82252
 C255 C 0.31175 0.30033 0.82255
 C256 C 0.32305 0.30038 0.81151
 C257 C 0.32329 0.31159 0.80056
 C258 C 0.31222 0.32289 0.80053
 C259 C 0.29241 0.33556 0.80923
 N260 N 0.29810 0.34322 0.79727
 C261 C 0.31020 0.33566 0.79185
 C262 C 0.33598 0.30935 0.79192
 N263 N 0.34331 0.29709 0.79740
 C264 C 0.33559 0.29150 0.80935
 C265 C 0.30929 0.29142 0.83509
 N266 N 0.29717 0.29694 0.84252
 C267 C 0.29188 0.30919 0.83503
 H268 H 0.28296 0.33922 0.81603
 H269 H 0.31720 0.33941 0.78257
 H270 H 0.33983 0.31633 0.78264
 H271 H 0.33908 0.28197 0.81620
 H272 H 0.31606 0.28193 0.83878
 H273 H 0.28254 0.31615 0.83867
 C274 C 0.17917 0.55936 0.54780
 C275 C 0.19034 0.57056 0.54800
 C276 C 0.20127 0.57045 0.55918
 C277 C 0.20116 0.55914 0.57029
 C278 C 0.19013 0.54807 0.57010
 C279 C 0.17907 0.54818 0.55878
 C280 C 0.16657 0.55730 0.53896
 N281 N 0.15896 0.54518 0.54434
 C282 C 0.16641 0.53951 0.55644
 C283 C 0.19215 0.53927 0.58279
 N284 N 0.20411 0.54475 0.59053
 C285 C 0.20971 0.55688 0.58309
 C286 C 0.20996 0.58319 0.55723
 N287 N 0.20454 0.59090 0.54517
 C288 C 0.19256 0.58337 0.53943
 H289 H 0.16294 0.56436 0.52964
 H290 H 0.16262 0.53011 0.56330
 H291 H 0.18516 0.52991 0.58639
 H292 H 0.21898 0.56382 0.58697
 H293 H 0.21921 0.58685 0.56433
 H294 H 0.18571 0.58721 0.53006
 C295 C 0.57387 0.68787 0.05004
 C296 C 0.56279 0.67659 0.05025
 C297 C 0.55165 0.67686 0.06120
 C298 C 0.55146 0.68841 0.07206
 C299 C 0.56241 0.69956 0.07186
 C300 C 0.57368 0.69929 0.06078
 C301 C 0.58652 0.68995 0.04131
 N302 N 0.59388 0.70231 0.04653
 C303 C 0.58621 0.70812 0.05842
 C304 C 0.56001 0.70871 0.08424
 N305 N 0.54791 0.70334 0.09181
 C306 C 0.54258 0.69096 0.08456
 C307 C 0.54297 0.66411 0.05922
 N308 N 0.54860 0.65623 0.04737
 C309 C 0.56070 0.66366 0.04179
 H310 H 0.59033 0.68280 0.03213
 H311 H 0.58973 0.71778 0.06507
 H312 H 0.56681 0.71825 0.08775
 H313 H 0.53325 0.68408 0.08836
 H314 H 0.53353 0.66061 0.06611
 H315 H 0.56766 0.65975 0.03254
 C316 C 0.68872 0.20109 0.67838
 C317 C 0.67773 0.20113 0.68974
 C318 C 0.67798 0.19017 0.70094
 C319 C 0.68922 0.17906 0.70093
 C320 C 0.70009 0.17903 0.68970
 C321 C 0.69984 0.19011 0.67836
 C322 C 0.69067 0.20972 0.66556
 N323 N 0.70266 0.20421 0.65791
 C324 C 0.70836 0.19224 0.66554
 C325 C 0.70892 0.16643 0.69191
 N326 N 0.70365 0.15895 0.70417
 C327 C 0.69162 0.16648 0.70978
 C328 C 0.66545 0.19234 0.70983
 N329 N 0.65774 0.20432 0.70426
 C330 C 0.66505 0.20978 0.69199
 H331 H 0.68366 0.21902 0.66184
 H332 H 0.71771 0.18535 0.66181
 H333 H 0.71817 0.16271 0.68488
 H334 H 0.68487 0.16280 0.71928
 H335 H 0.66194 0.18547 0.71932
 H336 H 0.66117 0.21904 0.68499
 C337 C 1.07109 0.05871 0.20150
 C338 C 1.05998 0.06996 0.20135
 C339 C 1.04901 0.06991 0.19020
 C340 C 1.04903 0.05861 0.17907
 C341 C 1.06001 0.04749 0.17922
 C342 C 1.07111 0.04754 0.19050
 C343 C 1.08370 0.05661 0.21030
 N344 N 1.09124 0.04446 0.20489
 C345 C 1.08374 0.03882 0.19280
 C346 C 1.05791 0.03868 0.16653
 N347 N 1.04593 0.04422 0.15884
 C348 C 1.04041 0.05639 0.16631
 C349 C 1.04041 0.08271 0.19219
 N350 N 1.04592 0.09039 0.20424
 C351 C 1.05786 0.08279 0.20993
 H352 H 1.08738 0.06365 0.21962
 H353 H 1.08747 0.02941 0.18592
 H354 H 1.06483 0.02927 0.16291
 H355 H 1.03115 0.06337 0.16248
 H356 H 1.03118 0.08645 0.18511
 H357 H 1.06479 0.08659 0.21927
 C358 C 0.06097 0.17835 1.04964
 C359 C 0.07247 0.18920 1.04985
 C360 C 0.07257 0.20035 1.06087
 C361 C 0.06117 0.20079 1.07181
 C362 C 0.04980 0.19006 1.07160
 C363 C 0.04970 0.17878 1.06045
 C364 C 0.05861 0.16565 1.04093
 N365 N 0.04622 0.15850 1.04622
 C366 C 0.04067 0.16633 1.05813
 C367 C 0.04089 0.19259 1.08408
 N368 N 0.04661 0.20456 1.09172
 C369 C 0.05900 0.20968 1.08442
 C370 C 0.08550 0.20869 1.05893
 N371 N 0.09312 0.20285 1.04703
 C372 C 0.08535 0.19094 1.04139
 H373 H 0.06562 0.16163 1.03176
 H374 H 0.03109 0.16296 1.06489
 H375 H 0.03128 0.18594 1.08761
 H376 H 0.06614 0.21883 1.08827
 H377 H 0.08932 0.21802 1.06589
 H378 H 0.08902 0.18384 1.03211
 C379 C 0.17673 0.70071 0.68978
 C380 C 0.18803 0.70109 0.67874
 C381 C 0.19934 0.69031 0.67883
 C382 C 0.19948 0.67903 0.68997
 C383 C 0.18832 0.67865 0.70088
 C384 C 0.17687 0.68955 0.70079
 C385 C 0.16388 0.70914 0.69188
 N386 N 0.15635 0.70335 0.70386
 C387 C 0.16410 0.69139 0.70941
 C388 C 0.19073 0.66596 0.70959
 N389 N 0.20306 0.65877 0.70419
 C390 C 0.20851 0.66657 0.69221
 C391 C 0.20817 0.69284 0.66630
 N392 N 0.20247 0.70486 0.65874
 C393 C 0.19017 0.71000 0.66615
 H394 H 0.16006 0.71851 0.68499
 H395 H 0.16049 0.68433 0.71873
 H396 H 0.18381 0.66199 0.71884
 H397 H 0.21803 0.66317 0.68539
 H398 H 0.21774 0.68619 0.66269
 H399 H 0.18308 0.71922 0.66239
 C400 C 1.18953 0.17871 0.20047
 C401 C 1.17837 0.18992 0.20050
 C402 C 1.17816 0.20084 0.18927
 C403 C 1.18911 0.20069 0.17786
 C404 C 1.20014 0.18961 0.17783
 C405 C 1.20035 0.17856 0.18920
 C406 C 1.19187 0.16614 0.20936
 N407 N 1.20382 0.15850 0.20373
 C408 C 1.20910 0.16590 0.19142
 C409 C 1.20863 0.19164 0.16496
 N410 N 1.20299 0.20365 0.15734
 C411 C 1.19106 0.20928 0.16501
 C412 C 1.16557 0.20961 0.19155
 N413 N 1.15826 0.20424 0.20386
 C414 C 1.16590 0.19222 0.20943
 H415 H 1.18514 0.16256 0.21890
 H416 H 1.21830 0.16209 0.18437
 H417 H 1.21792 0.18466 0.16122
 H418 H 1.18410 0.21862 0.16131
 H419 H 1.16173 0.21887 0.18453
 H420 H 1.16238 0.18540 0.21896
 C421 C 0.67844 1.05031 0.55999
 C422 C 0.68954 1.05023 0.57127
 C423 C 0.70039 1.06147 0.57160
 C424 C 0.70028 1.07294 0.56064
 C425 C 0.68931 1.07302 0.54949
 C426 C 0.67833 1.06164 0.54916
 C427 C 0.66597 1.04142 0.55753
 N428 N 0.65841 1.04710 0.54550
 C429 C 0.66577 1.05945 0.54029
 C430 C 0.69137 1.08592 0.54100
 N431 N 0.70330 1.09351 0.54677
 C432 C 0.70884 1.08579 0.55876
 C433 C 0.70907 1.05912 0.58429
 N434 N 0.70370 1.04676 0.59155
 C435 C 0.69178 1.04122 0.58378
 H436 H 0.66238 1.03183 0.56424
 H437 H 0.66201 1.06654 0.53105
 H438 H 0.68448 1.08970 0.53163
 H439 H 0.71812 1.08944 0.56582
 H440 H 0.71827 1.06611 0.58823
 H441 H 0.68500 1.03166 0.58723
 C442 C 0.56091 0.54913 0.17774
 C443 C 0.57195 0.54907 0.18907
 C444 C 0.57182 0.56007 0.20024
 C445 C 0.56064 0.57125 0.20022
 C446 C 0.54972 0.57131 0.18903
 C447 C 0.54986 0.56018 0.17772
 C448 C 0.55885 0.54045 0.16496
 N449 N 0.54685 0.54600 0.15732
 C450 C 0.54126 0.55804 0.16493
 C451 C 0.54096 0.58396 0.19123
 N452 N 0.54634 0.59145 0.20346
 C453 C 0.55835 0.58388 0.20905
 C454 C 0.58437 0.55785 0.20911
 N455 N 0.59198 0.54581 0.20355
 C456 C 0.58458 0.54034 0.19132
 H457 H 0.56579 0.53110 0.16125
 H458 H 0.53193 0.56497 0.16119
 H459 H 0.53169 0.58770 0.18423
 H460 H 0.56516 0.58754 0.21853
 H461 H 0.58796 0.56474 0.21858
 H462 H 0.58837 0.53103 0.18434
 C463 C 0.67856 0.69030 0.20033
 C464 C 0.68975 0.67913 0.20019
 C465 C 0.70047 0.67902 0.18883
 C466 C 0.70012 0.69007 0.17746
 C467 C 0.68906 0.70110 0.17759
 C468 C 0.67821 0.70122 0.18910
 C469 C 0.66616 0.69255 0.20937
 N470 N 0.65843 0.70455 0.20387
 C471 C 0.66561 0.70994 0.19150
 C472 C 0.69087 0.70969 0.16473
 N473 N 0.70273 0.70410 0.15693
 C474 C 0.70848 0.69212 0.16451
 C475 C 0.70928 0.66638 0.19096
 N476 N 0.70414 0.65896 0.20331
 C477 C 0.69222 0.66656 0.20906
 H478 H 0.66274 0.68572 0.21893
 H479 H 0.66168 0.71920 0.18451
 H480 H 0.68385 0.71900 0.16108
 H481 H 0.71775 0.68518 0.16067
 H482 H 0.71843 0.66260 0.18382
 H483 H 0.68558 0.66295 0.21866
 C484 C 0.17821 0.06034 1.04898
 C485 C 0.18926 0.07164 1.04927
 C486 C 0.20024 0.07151 1.06040
 C487 C 0.20030 0.06006 1.07137
 C488 C 0.18938 0.04888 1.07108
 C489 C 0.17827 0.04902 1.05982
 C490 C 0.16561 0.05823 1.04014
 N491 N 0.15817 0.04595 1.04539
 C492 C 0.16571 0.04023 1.05741
 C493 C 0.19157 0.03990 1.08361
 N494 N 0.20352 0.04538 1.09136
 C495 C 0.20896 0.05769 1.08407
 C496 C 0.20885 0.08432 1.05851
 N497 N 0.20332 0.09209 1.04654
 C498 C 0.19136 0.08454 1.04080
 H499 H 0.16188 0.06535 1.03091
 H500 H 0.16206 0.03069 1.06415
 H501 H 0.18471 0.03041 1.08710
 H502 H 0.21820 0.06464 1.08799
 H503 H 0.21814 0.08796 1.06556
 H504 H 0.18447 0.08837 1.03145
 C505 C 0.57280 0.20083 0.56024
 C506 C 0.56138 0.20112 0.57115
 C507 C 0.55009 0.19031 0.57086
 C508 C 0.55010 0.17909 0.55965
 C509 C 0.56139 0.17880 0.54886
 C510 C 0.57282 0.18973 0.54916
 C511 C 0.58568 0.20928 0.55837
 N512 N 0.59337 0.20356 0.54646
 C513 C 0.58570 0.19162 0.54073
 C514 C 0.55913 0.16613 0.54007
 N515 N 0.54678 0.15887 0.54530
 C516 C 0.54116 0.16660 0.55725
 C517 C 0.54115 0.19271 0.58334
 N518 N 0.54676 0.20468 0.59106
 C519 C 0.55911 0.20992 0.58380
 H520 H 0.58940 0.21860 0.56539
 H521 H 0.58944 0.18461 0.53142
 H522 H 0.56619 0.16221 0.53090
 H523 H 0.53159 0.16312 0.56397
 H524 H 0.53158 0.18598 0.58682
 H525 H 0.56616 0.21911 0.58772
 C526 C 0.07212 0.56113 0.70043
 C527 C 0.06110 0.57246 0.70012
 C528 C 0.05012 0.57232 0.68899
 C529 C 0.05002 0.56084 0.67804
 C530 C 0.06092 0.54964 0.67835
 C531 C 0.07203 0.54978 0.68961
 C532 C 0.08468 0.55900 0.70930
 N533 N 0.09208 0.54667 0.70409
 C534 C 0.08454 0.54094 0.69208
 C535 C 0.05867 0.54060 0.66586
 N536 N 0.04672 0.54608 0.65811
 C537 C 0.04133 0.55843 0.66537
 C538 C 0.04152 0.58514 0.69088
 N539 N 0.04705 0.59291 0.70285
 C540 C 0.05900 0.58536 0.70860
 H541 H 0.08842 0.56612 0.71854
 H542 H 0.08815 0.53135 0.68537
 H543 H 0.06548 0.53106 0.66240
 H544 H 0.03210 0.56539 0.66145
 H545 H 0.03222 0.58876 0.68385
 H546 H 0.06588 0.58919 0.71796
 C547 C 0.67623 0.55095 0.06051
 C548 C 0.68760 0.55077 0.07150
 C549 C 0.69853 0.56194 0.07156
 C550 C 0.69821 0.57343 0.06063
 C551 C 0.68697 0.57361 0.04977
 C552 C 0.67591 0.56230 0.04971
 C553 C 0.66366 0.54212 0.05831
 N554 N 0.65586 0.54786 0.04647
 C555 C 0.66316 0.56018 0.04112
 C556 C 0.68890 0.58650 0.04126
 N557 N 0.70101 0.59402 0.04672
 C558 C 0.70680 0.58622 0.05855
 C559 C 0.70752 0.55950 0.08402
 N560 N 0.70228 0.54715 0.09138
 C561 C 0.69013 0.54171 0.08391
 H562 H 0.66020 0.53251 0.06506
 H563 H 0.65924 0.56729 0.03195
 H564 H 0.68181 0.59035 0.03207
 H565 H 0.71627 0.58983 0.06537
 H566 H 0.71687 0.56643 0.08772
 H567 H 0.68338 0.53218 0.08752
 C568 C 0.06101 0.70079 0.57222
 C569 C 0.07196 0.70096 0.56081
 C570 C 0.07178 0.69002 0.54958
 C571 C 0.06065 0.67878 0.54962
 C572 C 0.04984 0.67861 0.56089
 C573 C 0.05002 0.68968 0.57226
 C574 C 0.05902 0.70940 0.58505
 N575 N 0.04711 0.70376 0.59273
 C576 C 0.04151 0.69171 0.58511
 C577 C 0.04112 0.66592 0.55867
 N578 N 0.04642 0.65853 0.54636
 C579 C 0.05834 0.66620 0.54073
 C580 C 0.08423 0.69236 0.54063
 N581 N 0.09183 0.70441 0.54619
 C582 C 0.08452 0.70977 0.55851
 H583 H 0.06593 0.71878 0.58874
 H584 H 0.03223 0.68473 0.58887
 H585 H 0.03192 0.66209 0.56572
 H586 H 0.06508 0.66263 0.53118
 H587 H 0.08776 0.68554 0.53110
 H588 H 0.08833 0.71907 0.56551
 C589 C 0.56027 1.04883 0.67894
 C590 C 0.57130 1.04895 0.69029
 C591 C 0.57108 1.06004 0.70137
 C592 C 0.55983 1.07115 0.70123
 C593 C 0.54892 1.07103 0.69002
 C594 C 0.54915 1.05980 0.67881
 C595 C 0.55832 1.04004 0.66622
 N596 N 0.54630 1.04545 0.65852
 C597 C 0.54059 1.05752 0.66601
 C598 C 0.54008 1.08365 0.69209
 N599 N 0.54538 1.09128 0.70426
 C600 C 0.55744 1.08385 0.70995
 C601 C 0.58364 1.05798 0.71027
 N602 N 0.59134 1.04594 0.70483
 C603 C 0.58399 1.04032 0.69263
 H604 H 0.56536 1.03072 0.66261
 H605 H 0.53124 1.06438 0.66219
 H606 H 0.53079 1.08725 0.68501
 H607 H 0.56423 1.08763 0.71940
 H608 H 0.58718 1.06497 0.71968
 H609 H 0.58784 1.03097 0.68574
 C610 C 0.44968 0.32160 0.93913
 C611 C 0.44946 0.31054 0.92776
 C612 C 0.43846 0.29943 0.92783
 C613 C 0.42756 0.29925 0.93927
 C614 C 0.42777 0.31018 0.95051
 C615 C 0.43890 0.32142 0.95044
 C616 C 0.45843 0.33427 0.94134
 N617 N 0.45318 0.34164 0.95368
 C618 C 0.44125 0.33399 0.95935
 C619 C 0.41535 0.30783 0.95950
 N620 N 0.40774 0.29577 0.95396
 C621 C 0.41501 0.29043 0.94161
 C622 C 0.44042 0.29083 0.91499
 N623 N 0.45230 0.29648 0.90727
 C624 C 0.45792 0.30851 0.91488
 H625 H 0.46761 0.33808 0.93426
 H626 H 0.43454 0.33755 0.96893
 H627 H 0.41185 0.31463 0.96906
 H628 H 0.41119 0.28113 0.93462
 H629 H 0.43349 0.28145 0.91131
 H630 H 0.46720 0.31549 0.91111
 C631 C 0.94808 0.43741 0.32361
 C632 C 0.94792 0.42618 0.31240
 C633 C 0.93685 0.42627 0.30136
 C634 C 0.92581 0.43758 0.30139
 C635 C 0.92595 0.44868 0.31246
 C636 C 0.93715 0.44860 0.32364
 C637 C 0.95692 0.43960 0.33622
 N638 N 0.95160 0.45181 0.34375
 C639 C 0.93953 0.45741 0.33626
 C640 C 0.91344 0.45759 0.31025
 N641 N 0.90584 0.45213 0.29814
 C642 C 0.91321 0.43992 0.29263
 C643 C 0.93892 0.41359 0.29255
 N644 N 0.95094 0.40594 0.29801
 C645 C 0.95655 0.41344 0.31013
 H646 H 0.96625 0.43261 0.33986
 H647 H 0.93277 0.46691 0.33995
 H648 H 0.90989 0.46706 0.31715
 H649 H 0.90945 0.43303 0.28322
 H650 H 0.93198 0.40997 0.28315
 H651 H 0.96592 0.40968 0.31699
 C652 C 0.30364 0.93724 0.42557
 C653 C 0.30357 0.92609 0.43684
 C654 C 0.31456 0.92610 0.44796
 C655 C 0.32576 0.93727 0.44795
 C656 C 0.32583 0.94830 0.43680
 C657 C 0.31471 0.94828 0.42555
 C658 C 0.29488 0.93948 0.41291
 N659 N 0.30040 0.95158 0.40535
 C660 C 0.31251 0.95707 0.41287
 C661 C 0.33840 0.95712 0.43909
 N662 N 0.34582 0.95168 0.45132
 C663 C 0.33829 0.93956 0.45684
 C664 C 0.31222 0.91353 0.45686
 N665 N 0.30010 0.90604 0.45137
 C666 C 0.29472 0.91352 0.43915
 H667 H 0.28546 0.93260 0.40927
 H668 H 0.31940 0.96646 0.40919
 H669 H 0.34208 0.96653 0.43217
 H670 H 0.34186 0.93272 0.46634
 H671 H 0.31901 0.90989 0.46635
 H672 H 0.28532 0.90987 0.43226
 O673 O 0.20980 0.51985 0.74930
 O674 O 0.21485 0.51794 0.77504
 O675 O 0.24922 0.54066 0.73077
 O676 O 0.27392 0.53611 0.72994
 O677 O 0.23038 0.50083 0.70964
 O678 O 0.23140 0.47457 0.71532
 O679 O 0.28934 0.49972 0.76953
 O680 O 0.28505 0.52537 0.76662
 O681 O 0.25126 0.48090 0.78949
 O682 O 0.22421 0.48178 0.78440
 O683 O 0.26930 0.46076 0.75091
 O684 O 0.26846 0.46594 0.72393
 O685 O 0.28929 0.48143 0.75134
 O686 O 0.28356 0.48285 0.72334
 O687 O 0.25125 0.46062 0.76913
 O688 O 0.22357 0.46638 0.76765
 O689 O 0.26959 0.49888 0.78933
 O690 O 0.26456 0.52620 0.78435
 O691 O 0.20954 0.50129 0.73136
 O692 O 0.21525 0.47447 0.73256
 O693 O 0.24846 0.51907 0.70938
 O694 O 0.27568 0.51676 0.71548
 O695 O 0.23089 0.54064 0.74875
 O696 O 0.23441 0.53465 0.77598
 Zr697 Zr 0.23173 0.51876 0.75817
 O698 O 0.24490 0.50523 0.77261
 Zr699 Zr 0.25787 0.51852 0.73127
 O700 O 0.27235 0.50547 0.74487
 Zr701 Zr 0.23140 0.49199 0.73170
 O702 O 0.24493 0.47752 0.74486
 Zr703 Zr 0.26770 0.50902 0.76788
 O704 O 0.25460 0.52372 0.75431
 Zr705 Zr 0.24142 0.48223 0.76788
 O706 O 0.22675 0.49570 0.75471
 Zr707 Zr 0.26779 0.48244 0.74126
 O708 O 0.25424 0.49549 0.72646
 O709 O 0.23518 0.51489 0.73522
 O710 O 0.26424 0.48597 0.76425
 C711 C 0.20330 0.51195 0.73900
 C712 C 0.23870 0.54706 0.73838
 C713 C 0.23800 0.51127 0.70309
 C714 C 0.29555 0.48894 0.76209
 C715 C 0.26214 0.48819 0.79566
 C716 C 0.26196 0.45442 0.76166
 H717 H 0.24257 0.50773 0.78326
 H718 H 0.24252 0.46690 0.74235
 H719 H 0.22872 0.52134 0.72877
 H720 H 0.28291 0.50807 0.74254
 H721 H 0.28025 0.53495 0.76340
 H722 H 0.28155 0.53405 0.73780
 H723 H 0.22525 0.45939 0.75908
 H724 H 0.21018 0.47533 0.74248
 H725 H 0.27318 0.52582 0.79147
 H726 H 0.22644 0.54245 0.77510
 H727 H 0.25895 0.46016 0.72438
 H728 H 0.24148 0.47469 0.71059
 H729 H 0.21069 0.50756 0.77491
 H730 H 0.22502 0.49115 0.79045
 H731 H 0.27385 0.50747 0.70950
 H732 H 0.29062 0.49129 0.72522
 O733 O 0.20958 0.01928 0.24966
 O734 O 0.21472 0.01748 0.27538
 O735 O 0.24886 0.04024 0.23094
 O736 O 0.27357 0.03581 0.23005
 O737 O 0.23015 0.00025 0.20999
 O738 O 0.23134 -0.02601 0.21579
 O739 O 0.28932 -0.00032 0.26965
 O740 O 0.28484 0.02531 0.26667
 O741 O 0.25149 -0.01934 0.28984
 O742 O 0.22433 -0.01850 0.28488
 O743 O 0.26940 -0.03948 0.25130
 O744 O 0.26839 -0.03440 0.22427
 O745 O 0.28927 -0.01872 0.25158
 O746 O 0.28347 -0.01747 0.22361
 O747 O 0.25139 -0.03965 0.26957
 O748 O 0.22371 -0.03402 0.26823
 O749 O 0.26972 -0.00126 0.28951
 O750 O 0.26444 0.02603 0.28452
 O751 O 0.20937 0.00064 0.23178
 O752 O 0.21522 -0.02612 0.23304
 O753 O 0.24813 0.01858 0.20963
 O754 O 0.27536 0.01642 0.21562
 O755 O 0.23058 0.04020 0.24898
 O756 O 0.23418 0.03431 0.27621
 Zr757 Zr 0.23154 0.01835 0.25846
 O758 O 0.24486 0.00495 0.27292
 Zr759 Zr 0.25762 0.01815 0.23148
 O760 O 0.27221 0.00522 0.24506
 Zr761 Zr 0.23128 -0.00852 0.23209
 O762 O 0.24492 -0.02287 0.24528
 Zr763 Zr 0.26762 0.00884 0.26807
 O764 O 0.25438 0.02342 0.25451
 Zr765 Zr 0.24148 -0.01808 0.26829
 O766 O 0.22669 -0.00476 0.25510
 Zr767 Zr 0.26774 -0.01785 0.24156
 O768 O 0.25408 -0.00492 0.22676
 O769 O 0.23495 0.01441 0.23552
 O770 O 0.26426 -0.01423 0.26454
 C771 C 0.20308 0.01129 0.23941
 C772 C 0.23834 0.04662 0.23856
 C773 C 0.23770 0.01070 0.20340
 C774 C 0.29554 -0.01113 0.26226
 C775 C 0.26240 -0.01200 0.29589
 C776 C 0.26212 -0.04581 0.26210
 H777 H 0.24256 0.00748 0.28357
 H778 H 0.24255 -0.03351 0.24281
 H779 H 0.22844 0.02081 0.22907
 H780 H 0.28275 0.00786 0.24268
 H781 H 0.27995 0.03485 0.26345
 H782 H 0.28128 0.03377 0.23784
 H783 H 0.22534 -0.04100 0.25964
 H784 H 0.21020 -0.02527 0.24300
 H785 H 0.27310 0.02571 0.29160
 H786 H 0.22616 0.04206 0.27533
 H787 H 0.25895 -0.04027 0.22484
 H788 H 0.24140 -0.02582 0.21099
 H789 H 0.21065 0.00707 0.27532
 H790 H 0.22522 -0.00916 0.29097
 H791 H 0.27358 0.00708 0.20971
 H792 H 0.29046 -0.00894 0.22539
 O793 O 0.50155 0.70979 0.23020
 O794 O 0.47592 0.71457 0.23194
 O795 O 0.51966 0.74966 0.20946
 O796 O 0.52021 0.77450 0.21401
 O797 O 0.54068 0.73095 0.24937
 O798 O 0.53490 0.73199 0.27563
 O799 O 0.48048 0.78955 0.25015
 O800 O 0.48359 0.78524 0.22450
 O801 O 0.46098 0.75112 0.26892
 O802 O 0.46633 0.72391 0.26802
 O803 O 0.49902 0.76970 0.28923
 O804 O 0.52587 0.76916 0.28422
 O805 O 0.49844 0.78975 0.26858
 O806 O 0.52639 0.78433 0.26727
 O807 O 0.48109 0.75133 0.28928
 O808 O 0.48288 0.72351 0.28356
 O809 O 0.46105 0.76951 0.25090
 O810 O 0.46617 0.76443 0.22360
 O811 O 0.51929 0.70975 0.24887
 O812 O 0.51794 0.71553 0.27567
 O813 O 0.54081 0.74914 0.23114
 O814 O 0.53447 0.77644 0.23345
 O815 O 0.50200 0.73099 0.20938
 O816 O 0.47486 0.73421 0.21523
 Zr817 Zr 0.49251 0.73174 0.23121
 O818 O 0.47793 0.74484 0.24465
 Zr819 Zr 0.51897 0.75836 0.23159
 O820 O 0.50523 0.77278 0.24456
 Zr821 Zr 0.51869 0.73176 0.25813
 O822 O 0.50538 0.74523 0.27252
 Zr823 Zr 0.48243 0.76781 0.24087
 O824 O 0.49613 0.75478 0.22626
 Zr825 Zr 0.48256 0.74142 0.26768
 O826 O 0.49589 0.72681 0.25430
 Zr827 Zr 0.50874 0.76826 0.26761
 O828 O 0.52367 0.75479 0.25465
 O829 O 0.51526 0.73549 0.23521
 O830 O 0.48595 0.76440 0.26393
 C831 C 0.51180 0.70337 0.23817
 C832 C 0.51225 0.73898 0.20302
 C833 C 0.54714 0.73868 0.23896
 C834 C 0.48771 0.79589 0.26101
 C835 C 0.45480 0.76200 0.26160
 C836 C 0.48836 0.76221 0.29551
 H837 H 0.46738 0.74237 0.24209
 H838 H 0.50785 0.74285 0.28316
 H839 H 0.52176 0.72906 0.22880
 H840 H 0.50744 0.78343 0.24197
 H841 H 0.48690 0.78044 0.21495
 H842 H 0.51234 0.78212 0.21604
 H843 H 0.49136 0.72529 0.29059
 H844 H 0.50812 0.71034 0.27478
 H845 H 0.45900 0.77302 0.22394
 H846 H 0.47586 0.72620 0.20742
 H847 H 0.52552 0.75958 0.28997
 H848 H 0.53952 0.74218 0.27549
 H849 H 0.47600 0.71043 0.24234
 H850 H 0.46029 0.72471 0.25866
 H851 H 0.54040 0.77468 0.24277
 H852 H 0.52444 0.79144 0.25886
 O853 O -0.04073 0.75096 0.76968
 O854 O -0.03585 0.72521 0.76761
 O855 O -0.00124 0.76912 0.79080
 O856 O 0.02347 0.76989 0.78635
 O857 O -0.01985 0.79058 0.75104
 O858 O -0.01869 0.78505 0.72471
 O859 O 0.03878 0.73041 0.74985
 O860 O 0.03438 0.73321 0.77548
 O861 O 0.00065 0.71071 0.73070
 O862 O -0.02638 0.71597 0.73147
 O863 O 0.01901 0.74932 0.71086
 O864 O 0.01835 0.77623 0.71616
 O865 O 0.03893 0.74868 0.73166
 O866 O 0.03333 0.77672 0.73320
 O867 O 0.00085 0.73119 0.71052
 O868 O -0.02683 0.73276 0.71615
 O869 O 0.01890 0.71071 0.74878
 O870 O 0.01378 0.71559 0.77610
 O871 O -0.04079 0.76898 0.75120
 O872 O -0.03497 0.76790 0.72441
 O873 O -0.00184 0.79063 0.76938
 O874 O 0.02536 0.78444 0.76709
 O875 O -0.01970 0.75126 0.79058
 O876 O -0.01638 0.72405 0.78442
 Zr877 Zr -0.01886 0.74197 0.76863
 O878 O -0.00571 0.72752 0.75509
 Zr879 Zr 0.00747 0.76872 0.76869
 O880 O 0.02192 0.75512 0.75563
 Zr881 Zr -0.01889 0.76857 0.74203
 O882 O -0.00539 0.75540 0.72754
 Zr883 Zr 0.01710 0.73212 0.75902
 O884 O 0.00402 0.74567 0.77373
 Zr885 Zr -0.00906 0.73238 0.73210
 O886 O -0.02371 0.74557 0.74556
 Zr887 Zr 0.01748 0.75885 0.73260
 O888 O 0.00397 0.77367 0.74567
 O889 O -0.01524 0.76491 0.76492
 O890 O 0.01377 0.73587 0.73598
 C891 C -0.04713 0.76134 0.76180
 C892 C -0.01183 0.76154 0.79711
 C893 C -0.01225 0.79701 0.76159
 C894 C 0.04509 0.73787 0.73915
 C895 C 0.01146 0.70447 0.73802
 C896 C 0.01163 0.73864 0.70442
 H897 H -0.00812 0.71688 0.75752
 H898 H -0.00774 0.75798 0.71693
 H899 H -0.02167 0.77134 0.77139
 H900 H 0.03248 0.75738 0.75830
 H901 H 0.02956 0.73643 0.78505
 H902 H 0.03109 0.76202 0.78426
 H903 H -0.02510 0.74139 0.70925
 H904 H -0.04010 0.75800 0.72517
 H905 H 0.02235 0.70842 0.77572
 H906 H -0.02438 0.72493 0.79219
 H907 H 0.00880 0.77594 0.71043
 H908 H -0.00860 0.78977 0.72498
 H909 H -0.03998 0.72544 0.75721
 H910 H -0.02565 0.70987 0.74082
 H911 H 0.02358 0.79050 0.75784
 H912 H 0.04035 0.77476 0.74166
 O913 O 0.04007 0.01949 0.00091
 O914 O 0.03497 0.01763 -0.02480
 O915 O 0.00062 0.04015 0.01959
 O916 O -0.02406 0.03552 0.02048
 O917 O 0.01964 0.00037 0.04059
 O918 O 0.01865 -0.02590 0.03483
 O919 O -0.03945 -0.00084 -0.01919
 O920 O -0.03523 0.02482 -0.01620
 O921 O -0.00142 -0.01954 -0.03928
 O922 O 0.02567 -0.01853 -0.03427
 O923 O -0.01923 -0.03980 -0.00068
 O924 O -0.01839 -0.03463 0.02628
 O925 O -0.03931 -0.01919 -0.00109
 O926 O -0.03355 -0.01778 0.02693
 O927 O -0.00122 -0.03984 -0.01894
 O928 O 0.02642 -0.03395 -0.01757
 O929 O -0.01977 -0.00159 -0.03902
 O930 O -0.01479 0.02575 -0.03398
 O931 O 0.04042 0.00089 0.01880
 O932 O 0.03478 -0.02593 0.01759
 O933 O 0.00150 0.01854 0.04092
 O934 O -0.02572 0.01613 0.03489
 O935 O 0.01892 0.04023 0.00158
 O936 O 0.01536 0.03426 -0.02566
 Zr937 Zr 0.01813 0.01836 -0.00789
 O938 O 0.00495 0.00481 -0.02235
 Zr939 Zr -0.00797 0.01799 0.01906
 O940 O -0.02244 0.00491 0.00546
 Zr941 Zr 0.01858 -0.00845 0.01850
 O942 O 0.00507 -0.02295 0.00532
 Zr943 Zr -0.01784 0.00852 -0.01755
 O944 O -0.00475 0.02324 -0.00397
 Zr945 Zr 0.00851 -0.01818 -0.01769
 O946 O 0.02317 -0.00470 -0.00451
 Zr947 Zr -0.01780 -0.01811 0.00898
 O948 O -0.00426 -0.00504 0.02380
 O949 O 0.01474 0.01444 0.01505
 O950 O -0.01431 -0.01452 -0.01400
 C951 C 0.04663 0.01157 0.01116
 C952 C 0.01110 0.04660 0.01198
 C953 C 0.01199 0.01077 0.04717
 C954 C -0.04561 -0.01168 -0.01180
 C955 C -0.01233 -0.01226 -0.04538
 C956 C -0.01188 -0.04610 -0.01145
 H957 H 0.00725 0.00734 -0.03300
 H958 H 0.00752 -0.03356 0.00781
 H959 H 0.02119 0.02090 0.02149
 H960 H -0.03300 0.00747 0.00781
 H961 H -0.03045 0.03440 -0.01295
 H962 H -0.03173 0.03342 0.01265
 H963 H 0.02483 -0.04094 -0.00899
 H964 H 0.03982 -0.02505 0.00765
 H965 H -0.02342 0.02535 -0.04108
 H966 H 0.02330 0.04210 -0.02478
 H967 H -0.00884 -0.04033 0.02585
 H968 H 0.00860 -0.02577 0.03964
 H969 H 0.03913 0.00725 -0.02474
 H970 H 0.02479 -0.00916 -0.04032
 H971 H -0.02386 0.00682 0.04083
 H972 H -0.04064 -0.00937 0.02507
 O973 O 0.00144 0.54027 0.51921
 O974 O -0.02419 0.53544 0.51738
 O975 O 0.01964 0.50038 0.53981
 O976 O 0.02027 0.47556 0.53516
 O977 O 0.04059 0.51928 0.49996
 O978 O 0.03478 0.51834 0.47370
 O979 O -0.01942 0.46049 0.49892
 O980 O -0.01634 0.46473 0.52457
 O981 O -0.03908 0.49900 0.48029
 O982 O -0.03381 0.52617 0.48125
 O983 O -0.00100 0.48059 0.45993
 O984 O 0.02585 0.48119 0.46497
 O985 O -0.00145 0.46043 0.48054
 O986 O 0.02644 0.46596 0.48184
 O987 O -0.01897 0.49890 0.45993
 O988 O -0.01724 0.52672 0.46578
 O989 O -0.03895 0.48052 0.49821
 O990 O -0.03382 0.48549 0.52553
 O991 O 0.01916 0.54042 0.50055
 O992 O 0.01778 0.53475 0.47372
 O993 O 0.04079 0.50104 0.51814
 O994 O 0.03451 0.47373 0.51574
 O995 O 0.00191 0.51898 0.53993
 O996 O -0.02521 0.51573 0.53402
 Zr997 Zr -0.00756 0.51830 0.51808
 O998 O -0.02211 0.50520 0.50457
 Zr999 Zr 0.01896 0.49176 0.51764
 O1000 O 0.00526 0.47735 0.50460
 Zr1001 Zr 0.01859 0.51846 0.49120
 O1002 O 0.00531 0.50501 0.47673
 Zr1003 Zr -0.01756 0.48222 0.50827
 O1004 O -0.00389 0.49525 0.52295
 Zr1005 Zr -0.01752 0.50872 0.48157
 O1006 O -0.00422 0.52333 0.49501
 Zr1007 Zr 0.00874 0.48197 0.48157
 O1008 O 0.02364 0.49543 0.49460
 O1009 O 0.01519 0.51463 0.51410
 O1010 O -0.01406 0.48573 0.48522
 C1011 C 0.01168 0.54674 0.51127
 C1012 C 0.01219 0.51100 0.54628
 C1013 C 0.04708 0.51153 0.51035
 C1014 C -0.01214 0.45421 0.48808
 C1015 C -0.04524 0.48808 0.48756
 C1016 C -0.01168 0.48807 0.45367
 H1017 H -0.03267 0.50763 0.50713
 H1018 H 0.00776 0.50744 0.46611
 H1019 H 0.02169 0.52105 0.52055
 H1020 H 0.00750 0.46670 0.50715
 H1021 H -0.01305 0.46951 0.53415
 H1022 H 0.01238 0.46795 0.53311
 H1023 H -0.00880 0.52497 0.45872
 H1024 H 0.00795 0.53993 0.47463
 H1025 H -0.04096 0.47688 0.52515
 H1026 H -0.02423 0.52371 0.54186
 H1027 H 0.02547 0.49079 0.45925
 H1028 H 0.03943 0.50817 0.47381
 H1029 H -0.02409 0.53964 0.50701
 H1030 H -0.03978 0.52538 0.49065
 H1031 H 0.04043 0.47554 0.50643
 H1032 H 0.02457 0.45886 0.49028
 O1033 O 0.54072 0.01955 0.50069
 O1034 O 0.53566 0.01742 0.47498
 O1035 O 0.50130 0.04049 0.51909
 O1036 O 0.47661 0.03594 0.52001
 O1037 O 0.52017 0.00083 0.54049
 O1038 O 0.51912 -0.02548 0.53498
 O1039 O 0.46117 -0.00073 0.48062
 O1040 O 0.46547 0.02495 0.48339
 O1041 O 0.49920 -0.01971 0.46078
 O1042 O 0.52628 -0.01878 0.46586
 O1043 O 0.48117 -0.03954 0.49948
 O1044 O 0.48205 -0.03418 0.52644
 O1045 O 0.46121 -0.01890 0.49892
 O1046 O 0.46696 -0.01724 0.52693
 O1047 O 0.49920 -0.03982 0.48124
 O1048 O 0.52689 -0.03409 0.48269
 O1049 O 0.48088 -0.00172 0.46084
 O1050 O 0.48595 0.02564 0.46564
 O1051 O 0.54099 0.00111 0.51875
 O1052 O 0.53527 -0.02572 0.51773
 O1053 O 0.50210 0.01907 0.54063
 O1054 O 0.47487 0.01669 0.53457
 O1055 O 0.51963 0.04034 0.50109
 O1056 O 0.51612 0.03412 0.47392
 Zr1057 Zr 0.51879 0.01838 0.49184
 O1058 O 0.50560 0.00475 0.47749
 Zr1059 Zr 0.49266 0.01835 0.51876
 O1060 O 0.47816 0.00520 0.50526
 Zr1061 Zr 0.51912 -0.00818 0.51848
 O1062 O 0.50557 -0.02276 0.50542
 Zr1063 Zr 0.48281 0.00858 0.48222
 O1064 O 0.49593 0.02338 0.49568
 Zr1065 Zr 0.50907 -0.01821 0.48237
 O1066 O 0.52376 -0.00466 0.49545
 Zr1067 Zr 0.48271 -0.01780 0.50900
 O1068 O 0.49629 -0.00465 0.52372
 O1069 O 0.51535 0.01468 0.51481
 O1070 O 0.48626 -0.01443 0.48600
 C1071 C 0.54723 0.01173 0.51104
 C1072 C 0.51181 0.04684 0.51142
 C1073 C 0.51256 0.01132 0.54697
 C1074 C 0.45496 -0.01148 0.48811
 C1075 C 0.48831 -0.01247 0.45459
 C1076 C 0.48847 -0.04595 0.48875
 H1077 H 0.50793 0.00717 0.46682
 H1078 H 0.50798 -0.03336 0.50800
 H1079 H 0.52181 0.02119 0.52121
 H1080 H 0.46760 0.00782 0.50757
 H1081 H 0.47027 0.03455 0.48655
 H1082 H 0.46898 0.03383 0.51216
 H1083 H 0.52521 -0.04102 0.49130
 H1084 H 0.54032 -0.02494 0.50779
 H1085 H 0.47734 0.02520 0.45852
 H1086 H 0.52410 0.04193 0.47474
 H1087 H 0.49156 -0.03996 0.52602
 H1088 H 0.50905 -0.02531 0.53972
 H1089 H 0.53982 0.00704 0.47517
 H1090 H 0.52545 -0.00947 0.45972
 H1091 H 0.47670 0.00745 0.54062
 H1092 H 0.45988 -0.00884 0.52498
 O1093 O 0.45935 0.49879 -0.01985
 O1094 O 0.46431 0.52452 -0.01784
 O1095 O 0.49880 0.48045 -0.04083
 O1096 O 0.52351 0.47970 -0.03632
 O1097 O 0.48013 0.45911 -0.00110
 O1098 O 0.48124 0.46470 0.02522
 O1099 O 0.53889 0.51914 0.00020
 O1100 O 0.53452 0.51632 -0.02545
 O1101 O 0.50085 0.53894 0.01923
 O1102 O 0.47377 0.53380 0.01832
 O1103 O 0.51899 0.50032 0.03916
 O1104 O 0.51827 0.47339 0.03384
 O1105 O 0.53895 0.50093 0.01844
 O1106 O 0.53332 0.47291 0.01690
 O1107 O 0.50086 0.51848 0.03941
 O1108 O 0.47321 0.51702 0.03365
 O1109 O 0.51910 0.53888 0.00119
 O1110 O 0.51397 0.53401 -0.02614
 O1111 O 0.45922 0.48077 -0.00137
 O1112 O 0.46500 0.48186 0.02543
 O1113 O 0.49817 0.45900 -0.01936
 O1114 O 0.52536 0.46514 -0.01704
 O1115 O 0.48039 0.49837 -0.04069
 O1116 O 0.48382 0.52559 -0.03457
 Zr1117 Zr 0.48125 0.50771 -0.01877
 O1118 O 0.49442 0.52215 -0.00520
 Zr1119 Zr 0.50751 0.48090 -0.01870
 O1120 O 0.52198 0.49448 -0.00561
 Zr1121 Zr 0.48111 0.48114 0.00787
 O1122 O 0.49462 0.49430 0.02239
 Zr1123 Zr 0.51722 0.51748 -0.00905
 O1124 O 0.50412 0.50394 -0.02379
 Zr1125 Zr 0.49103 0.51732 0.01778
 O1126 O 0.47636 0.50415 0.00429
 Zr1127 Zr 0.51749 0.49078 0.01742
 O1128 O 0.50396 0.47598 0.00431
 O1129 O 0.48480 0.48476 -0.01501
 O1130 O 0.51385 0.51377 0.01399
 C1131 C 0.45291 0.48844 -0.01198
 C1132 C 0.48823 0.48805 -0.04717
 C1133 C 0.48775 0.45265 -0.01159
 C1134 C 0.54516 0.51170 0.01095
 C1135 C 0.51169 0.54514 0.01194
 C1136 C 0.51161 0.51101 0.04556
 H1137 H 0.49205 0.53280 -0.00765
 H1138 H 0.49224 0.49173 0.03300
 H1139 H 0.47835 0.47833 -0.02149
 H1140 H 0.53254 0.49219 -0.00823
 H1141 H 0.52969 0.51312 -0.03504
 H1142 H 0.53116 0.48752 -0.03420
 H1143 H 0.47488 0.50839 0.04056
 H1144 H 0.45990 0.49178 0.02464
 H1145 H 0.52257 0.54115 -0.02574
 H1146 H 0.47584 0.52471 -0.04238
 H1147 H 0.50874 0.47374 0.03958
 H1148 H 0.49132 0.45994 0.02499
 H1149 H 0.46021 0.52437 -0.00744
 H1150 H 0.47458 0.53993 0.00899
 H1151 H 0.52359 0.45912 -0.00777
 H1152 H 0.54035 0.47484 0.00845
 O1153 O 0.75158 0.26983 0.46007
 O1154 O 0.72594 0.26799 0.46482
 O1155 O 0.76964 0.29065 0.49994
 O1156 O 0.77018 0.28612 0.52480
 O1157 O 0.79071 0.25080 0.48124
 O1158 O 0.78500 0.22451 0.48232
 O1159 O 0.73058 0.24993 0.53985
 O1160 O 0.73358 0.27553 0.53551
 O1161 O 0.71104 0.23107 0.50131
 O1162 O 0.71640 0.23190 0.47416
 O1163 O 0.74914 0.21082 0.51995
 O1164 O 0.77594 0.21589 0.51948
 O1165 O 0.74858 0.23157 0.54005
 O1166 O 0.77650 0.23287 0.53459
 O1167 O 0.73123 0.21072 0.50155
 O1168 O 0.73298 0.21645 0.47375
 O1169 O 0.71109 0.24907 0.51973
 O1170 O 0.71618 0.27637 0.51469
 O1171 O 0.76935 0.25121 0.46005
 O1172 O 0.76805 0.22441 0.46582
 O1173 O 0.79082 0.26906 0.49942
 O1174 O 0.78451 0.26673 0.52673
 O1175 O 0.75197 0.29065 0.48125
 O1176 O 0.72485 0.28474 0.48445
 Zr1177 Zr 0.74253 0.26880 0.48200
 O1178 O 0.72798 0.25533 0.49509
 Zr1179 Zr 0.76898 0.26853 0.50865
 O1180 O 0.75527 0.25553 0.52306
 Zr1181 Zr 0.76876 0.24196 0.48205
 O1182 O 0.75547 0.22755 0.49550
 Zr1183 Zr 0.73246 0.25914 0.51808
 O1184 O 0.74613 0.27378 0.50505
 Zr1185 Zr 0.73264 0.23232 0.49168
 O1186 O 0.74594 0.24572 0.47707
 Zr1187 Zr 0.75882 0.23249 0.51854
 O1188 O 0.77373 0.24548 0.50508
 O1189 O 0.76528 0.26487 0.48578
 O1190 O 0.73601 0.23608 0.51468
 C1191 C 0.76186 0.26189 0.45366
 C1192 C 0.76222 0.29705 0.48925
 C1193 C 0.79715 0.26126 0.48896
 C1194 C 0.73788 0.23914 0.54621
 C1195 C 0.70483 0.23839 0.51217
 C1196 C 0.73852 0.20451 0.51241
 H1197 H 0.71743 0.25786 0.49261
 H1198 H 0.75796 0.21692 0.49312
 H1199 H 0.77177 0.27130 0.47935
 H1200 H 0.75748 0.25814 0.53370
 H1201 H 0.73689 0.28508 0.53071
 H1202 H 0.76233 0.28405 0.53242
 H1203 H 0.74149 0.20946 0.47551
 H1204 H 0.75823 0.22527 0.46060
 H1205 H 0.70900 0.27602 0.52326
 H1206 H 0.72583 0.29253 0.47643
 H1207 H 0.77568 0.21021 0.50984
 H1208 H 0.78966 0.22472 0.49249
 H1209 H 0.72610 0.25761 0.46063
 H1210 H 0.71041 0.24130 0.47489
 H1211 H 0.79046 0.25744 0.52495
 H1212 H 0.77459 0.24133 0.54166
 O1213 O 0.79008 0.75143 -0.02002
 O1214 O 0.78495 0.72572 -0.01824
 O1215 O 0.75080 0.77019 -0.04099
 O1216 O 0.72608 0.77110 -0.03656
 O1217 O 0.76956 0.79110 -0.00102
 O1218 O 0.76835 0.78535 0.02524
 O1219 O 0.71039 0.73144 -0.00042
 O1220 O 0.71482 0.73445 -0.02604
 O1221 O 0.74826 0.71129 0.01858
 O1222 O 0.77537 0.71624 0.01783
 O1223 O 0.73032 0.74987 0.03875
 O1224 O 0.73122 0.77683 0.03366
 O1225 O 0.71042 0.74953 0.01797
 O1226 O 0.71622 0.77755 0.01664
 O1227 O 0.74831 0.73158 0.03892
 O1228 O 0.77601 0.73293 0.03329
 O1229 O 0.73004 0.71159 0.00048
 O1230 O 0.73526 0.71663 -0.02681
 O1231 O 0.79031 0.76930 -0.00138
 O1232 O 0.78446 0.76806 0.02540
 O1233 O 0.75155 0.79148 -0.01935
 O1234 O 0.72430 0.78551 -0.01716
 O1235 O 0.76909 0.75214 -0.04094
 O1236 O 0.76547 0.72491 -0.03505
 Zr1237 Zr 0.76813 0.74265 -0.01909
 O1238 O 0.75484 0.72821 -0.00568
 Zr1239 Zr 0.74205 0.76965 -0.01890
 O1240 O 0.72747 0.75606 -0.00598
 Zr1241 Zr 0.76840 0.76902 0.00777
 O1242 O 0.75477 0.75586 0.02213
 Zr1243 Zr 0.73208 0.73306 -0.00959
 O1244 O 0.74529 0.74662 -0.02417
 Zr1245 Zr 0.75822 0.73285 0.01735
 O1246 O 0.77300 0.74601 0.00402
 Zr1247 Zr 0.73194 0.75957 0.01709
 O1248 O 0.74559 0.77436 0.00417
 O1249 O 0.76472 0.76559 -0.01515
 O1250 O 0.73544 0.73658 0.01349
 C1251 C 0.79659 0.76167 -0.01204
 C1252 C 0.76132 0.76256 -0.04737
 C1253 C 0.76201 0.79770 -0.01148
 C1254 C 0.70416 0.73883 0.01038
 C1255 C 0.73739 0.70521 0.01121
 C1256 C 0.73760 0.73908 0.04509
 H1257 H 0.75715 0.71756 -0.00821
 H1258 H 0.75714 0.75833 0.03277
 H1259 H 0.77123 0.77203 -0.02155
 H1260 H 0.71692 0.75844 -0.00862
 H1261 H 0.71968 0.73769 -0.03558
 H1262 H 0.71839 0.76329 -0.03455
 H1263 H 0.77436 0.74151 0.04028
 H1264 H 0.78951 0.75812 0.02454
 H1265 H 0.72661 0.70954 -0.02650
 H1266 H 0.77347 0.72579 -0.04282
 H1267 H 0.74074 0.77639 0.03942
 H1268 H 0.75830 0.79017 0.02503
 H1269 H 0.78904 0.72577 -0.00782
 H1270 H 0.77455 0.71021 0.00844
 H1271 H 0.72610 0.79144 -0.00784
 H1272 H 0.70916 0.77568 0.00819
 O1273 O 1.00143 0.20928 0.22989
 O1274 O 0.97577 0.21392 0.23175
 O1275 O 1.01927 0.24933 0.20928
 O1276 O 1.01973 0.27415 0.21394
 O1277 O 1.04048 0.23055 0.24907
 O1278 O 1.03476 0.23144 0.27535
 O1279 O 0.98006 0.28888 0.25025
 O1280 O 0.98310 0.28468 0.22458
 O1281 O 0.96074 0.25026 0.26890
 O1282 O 0.96621 0.22310 0.26790
 O1283 O 0.99878 0.26892 0.28920
 O1284 O 1.02562 0.26852 0.28411
 O1285 O 0.99808 0.28907 0.26862
 O1286 O 1.02602 0.28377 0.26725
 O1287 O 0.98093 0.25047 0.28923
 O1288 O 0.98281 0.22268 0.28337
 O1289 O 0.96070 0.26873 0.25097
 O1290 O 0.96576 0.26381 0.22364
 O1291 O 1.01922 0.20926 0.24851
 O1292 O 1.01789 0.21490 0.27535
 O1293 O 1.04049 0.24880 0.23090
 O1294 O 1.03404 0.27607 0.23335
 O1295 O 1.00168 0.23058 0.20917
 O1296 O 0.97455 0.23363 0.21512
 Zr1297 Zr 0.99227 0.23118 0.23104
 O1298 O 0.97767 0.24417 0.24457
 Zr1299 Zr 1.01861 0.25793 0.23145
 O1300 O 1.00485 0.27223 0.24452
 Zr1301 Zr 1.01852 0.23121 0.25788
 O1302 O 1.00519 0.24456 0.27237
 Zr1303 Zr 0.98206 0.26718 0.24088
 O1304 O 0.99577 0.25426 0.22617
 Zr1305 Zr 0.98237 0.24068 0.26758
 O1306 O 0.99573 0.22617 0.25410
 Zr1307 Zr 1.00844 0.26762 0.26754
 O1308 O 1.02339 0.25428 0.25449
 O1309 O 1.01501 0.23502 0.23499
 O1310 O 0.98566 0.26369 0.26392
 C1311 C 1.01175 0.20289 0.23780
 C1312 C 1.01188 0.23865 0.20281
 C1313 C 1.04688 0.23835 0.23866
 C1314 C 0.98732 0.29521 0.26110
 C1315 C 0.95449 0.26113 0.26163
 C1316 C 0.98819 0.26135 0.29548
 H1317 H 0.96713 0.24166 0.24203
 H1318 H 1.00770 0.24214 0.28299
 H1319 H 1.02153 0.22866 0.22852
 H1320 H 1.00700 0.28290 0.24197
 H1321 H 0.98640 0.27993 0.21500
 H1322 H 1.01183 0.28172 0.21603
 H1323 H 0.99131 0.22446 0.29037
 H1324 H 1.00809 0.20965 0.27445
 H1325 H 0.95857 0.27237 0.22403
 H1326 H 0.97557 0.22566 0.20728
 H1327 H 1.02531 0.25892 0.28983
 H1328 H 1.03935 0.24165 0.27524
 H1329 H 0.97592 0.20973 0.24213
 H1330 H 0.96018 0.22388 0.25852
 H1331 H 1.04000 0.27429 0.24265
 H1332 H 1.02405 0.29088 0.25884
 O1333 O 0.74870 1.04059 0.73062
 O1334 O 0.77431 1.03569 0.73243
 O1335 O 0.73042 1.00080 0.70982
 O1336 O 0.72972 0.97596 0.71438
 O1337 O 0.70947 1.01963 0.74972
 O1338 O 0.71524 1.01857 0.77598
 O1339 O 0.76934 0.96071 0.75056
 O1340 O 0.76631 0.96505 0.72493
 O1341 O 0.78908 0.99912 0.76939
 O1342 O 0.78386 1.02633 0.76850
 O1343 O 0.75096 0.98073 0.78965
 O1344 O 0.72411 0.98139 0.78459
 O1345 O 0.75137 0.96062 0.76894
 O1346 O 0.72350 0.96621 0.76766
 O1347 O 0.76895 0.99903 0.78973
 O1348 O 0.76732 1.02683 0.78400
 O1349 O 0.78892 0.98069 0.75140
 O1350 O 0.78383 0.98576 0.72409
 O1351 O 0.73096 1.04072 0.74926
 O1352 O 0.73228 1.03495 0.77606
 O1353 O 0.70925 1.00145 0.73146
 O1354 O 0.71546 0.97411 0.73378
 O1355 O 0.74818 1.01938 0.70980
 O1356 O 0.77529 1.01605 0.71570
 Zr1357 Zr 0.75764 1.01860 0.73165
 O1358 O 0.77215 1.00543 0.74511
 Zr1359 Zr 0.73105 0.99211 0.73196
 O1360 O 0.74472 0.97764 0.74495
 Zr1361 Zr 0.73145 1.01872 0.75851
 O1362 O 0.74470 1.00521 0.77293
 Zr1363 Zr 0.76755 0.98248 0.74132
 O1364 O 0.75391 0.99557 0.72668
 Zr1365 Zr 0.76754 1.00889 0.76813
 O1366 O 0.75428 1.02356 0.75473
 Zr1367 Zr 0.74123 0.98219 0.76800
 O1368 O 0.72636 0.99572 0.75501
 O1369 O 0.73487 1.01497 0.73560
 O1370 O 0.76404 0.98592 0.76438
 C1371 C 0.73847 1.04706 0.73858
 C1372 C 0.73790 1.01143 0.70340
 C1373 C 0.70297 1.01193 0.73928
 C1374 C 0.76204 0.95440 0.76136
 C1375 C 0.79522 0.98820 0.76208
 C1376 C 0.76163 0.98819 0.79595
 H1377 H 0.78271 1.00785 0.74257
 H1378 H 0.74224 1.00761 0.78356
 H1379 H 0.72840 1.02142 0.72916
 H1380 H 0.74245 0.96700 0.74235
 H1381 H 0.76302 0.96987 0.71538
 H1382 H 0.73758 0.96832 0.71641
 H1383 H 0.75882 1.02511 0.79100
 H1384 H 0.74212 1.04011 0.77519
 H1385 H 0.79096 0.97714 0.72444
 H1386 H 0.77433 1.02406 0.70790
 H1387 H 0.72450 0.99098 0.79033
 H1388 H 0.71057 1.00841 0.77582
 H1389 H 0.77423 1.03985 0.74283
 H1390 H 0.78988 1.02551 0.75914
 H1391 H 0.70954 0.97592 0.74309
 H1392 H 0.72534 0.95915 0.75918
 O1393 O 0.70997 0.51978 0.24861
 O1394 O 0.71495 0.51784 0.27434
 O1395 O 0.74945 0.54071 0.23025
 O1396 O 0.77415 0.53618 0.22947
 O1397 O 0.73068 0.50094 0.20897
 O1398 O 0.73179 0.47464 0.21457
 O1399 O 0.78949 0.49975 0.26903
 O1400 O 0.78517 0.52540 0.26613
 O1401 O 0.75142 0.48082 0.28884
 O1402 O 0.72434 0.48170 0.28366
 O1403 O 0.76956 0.46079 0.25026
 O1404 O 0.76880 0.46602 0.22330
 O1405 O 0.78952 0.48148 0.25082
 O1406 O 0.78387 0.48296 0.22278
 O1407 O 0.75147 0.46059 0.26844
 O1408 O 0.72380 0.46631 0.26692
 O1409 O 0.76971 0.49885 0.28875
 O1410 O 0.76464 0.52617 0.28382
 O1411 O 0.70980 0.50124 0.23064
 O1412 O 0.71557 0.47445 0.23175
 O1413 O 0.74874 0.51920 0.20882
 O1414 O 0.77595 0.51686 0.21495
 O1415 O 0.73104 0.54063 0.24816
 O1416 O 0.73448 0.53457 0.27539
 Zr1417 Zr 0.73188 0.51872 0.25753
 O1418 O 0.74504 0.50519 0.27199
 Zr1419 Zr 0.75812 0.51858 0.23071
 O1420 O 0.77258 0.50552 0.24432
 Zr1421 Zr 0.73168 0.49201 0.23100
 O1422 O 0.74519 0.47753 0.24419
 Zr1423 Zr 0.76785 0.50902 0.26732
 O1424 O 0.75476 0.52373 0.25375
 Zr1425 Zr 0.74161 0.48219 0.26721
 O1426 O 0.72696 0.49565 0.25401
 Zr1427 Zr 0.76805 0.48249 0.24066
 O1428 O 0.75453 0.49555 0.22584
 O1429 O 0.73541 0.51490 0.23459
 O1430 O 0.76443 0.48598 0.26364
 C1431 C 0.70351 0.51187 0.23828
 C1432 C 0.73890 0.54708 0.23783
 C1433 C 0.73829 0.51142 0.20248
 C1434 C 0.79573 0.48897 0.26160
 C1435 C 0.76228 0.48812 0.29503
 C1436 C 0.76221 0.45443 0.26098
 H1437 H 0.74268 0.50766 0.28264
 H1438 H 0.74280 0.46691 0.24164
 H1439 H 0.72896 0.52136 0.22815
 H1440 H 0.78314 0.50813 0.24203
 H1441 H 0.78037 0.53498 0.26290
 H1442 H 0.78180 0.53408 0.23730
 H1443 H 0.72548 0.45936 0.25831
 H1444 H 0.71048 0.47525 0.24167
 H1445 H 0.77324 0.52579 0.29095
 H1446 H 0.72651 0.54237 0.27450
 H1447 H 0.75927 0.46026 0.22368
 H1448 H 0.74186 0.47484 0.20983
 H1449 H 0.71083 0.50745 0.27420
 H1450 H 0.72517 0.49104 0.28977
 H1451 H 0.77414 0.50758 0.20894
 H1452 H 0.79092 0.49141 0.22470
 O1453 O 0.53964 0.22985 0.74905
 O1454 O 0.53464 0.23162 0.77479
 O1455 O 0.50021 0.20900 0.73042
 O1456 O 0.47551 0.21350 0.72959
 O1457 O 0.51893 0.24898 0.70951
 O1458 O 0.51781 0.27522 0.71534
 O1459 O 0.46008 0.24965 0.76940
 O1460 O 0.46442 0.22403 0.76634
 O1461 O 0.49816 0.26844 0.78949
 O1462 O 0.52521 0.26767 0.78436
 O1463 O 0.47996 0.28875 0.75104
 O1464 O 0.48079 0.28371 0.72401
 O1465 O 0.46004 0.26803 0.75132
 O1466 O 0.46571 0.26678 0.72333
 O1467 O 0.49805 0.28883 0.76926
 O1468 O 0.52574 0.28318 0.76774
 O1469 O 0.47988 0.25042 0.78921
 O1470 O 0.48496 0.22314 0.78405
 O1471 O 0.53981 0.24852 0.73123
 O1472 O 0.53401 0.27530 0.73256
 O1473 O 0.50090 0.23069 0.70915
 O1474 O 0.47369 0.23292 0.71525
 O1475 O 0.51859 0.20898 0.74839
 O1476 O 0.51515 0.21484 0.77564
 Zr1477 Zr 0.51773 0.23082 0.75792
 O1478 O 0.50454 0.24424 0.77245
 Zr1479 Zr 0.49152 0.23112 0.73103
 O1480 O 0.47703 0.24407 0.74471
 Zr1481 Zr 0.51791 0.25772 0.73162
 O1482 O 0.50438 0.27209 0.74488
 Zr1483 Zr 0.48174 0.24041 0.76769
 O1484 O 0.49486 0.22582 0.75404
 Zr1485 Zr 0.50795 0.26726 0.76786
 O1486 O 0.52263 0.25392 0.75460
 Zr1487 Zr 0.48152 0.26713 0.74125
 O1488 O 0.49508 0.25418 0.72636
 O1489 O 0.51422 0.23480 0.73500
 O1490 O 0.48513 0.26348 0.76421
 C1491 C 0.54610 0.23784 0.73881
 C1492 C 0.51076 0.20258 0.73799
 C1493 C 0.51133 0.23854 0.70291
 C1494 C 0.45382 0.26045 0.76203
 C1495 C 0.48732 0.26109 0.79561
 C1496 C 0.48730 0.29504 0.76184
 H1497 H 0.50690 0.24168 0.78308
 H1498 H 0.50675 0.28273 0.74243
 H1499 H 0.52068 0.22839 0.72852
 H1500 H 0.46647 0.24145 0.74237
 H1501 H 0.46923 0.21449 0.76304
 H1502 H 0.46787 0.21552 0.73744
 H1503 H 0.52402 0.29022 0.75921
 H1504 H 0.53908 0.27443 0.74249
 H1505 H 0.47637 0.22347 0.79118
 H1506 H 0.52315 0.20707 0.77472
 H1507 H 0.49028 0.28953 0.72451
 H1508 H 0.50773 0.27507 0.71059
 H1509 H 0.53879 0.24200 0.77469
 H1510 H 0.52444 0.25826 0.79035
 H1511 H 0.47548 0.24225 0.70933
 H1512 H 0.45870 0.25829 0.72514
 O1513 O 0.24870 0.71007 0.52016
 O1514 O 0.27431 0.71491 0.51846
 O1515 O 0.23048 0.75010 0.54059
 O1516 O 0.22994 0.77492 0.53584
 O1517 O 0.20954 0.73100 0.50084
 O1518 O 0.21533 0.73185 0.47456
 O1519 O 0.26963 0.78972 0.49961
 O1520 O 0.26653 0.78563 0.52529
 O1521 O 0.28923 0.75113 0.48117
 O1522 O 0.28391 0.72391 0.48231
 O1523 O 0.25119 0.76944 0.46067
 O1524 O 0.22431 0.76889 0.46567
 O1525 O 0.25169 0.78969 0.48116
 O1526 O 0.22378 0.78426 0.48244
 O1527 O 0.26913 0.75109 0.46080
 O1528 O 0.26739 0.72333 0.46676
 O1529 O 0.28911 0.76970 0.49902
 O1530 O 0.28399 0.76486 0.52636
 O1531 O 0.23098 0.70984 0.50147
 O1532 O 0.23227 0.71540 0.47466
 O1533 O 0.20936 0.74937 0.51891
 O1534 O 0.21566 0.77665 0.51637
 O1535 O 0.24816 0.73145 0.54084
 O1536 O 0.27531 0.73470 0.53501
 Zr1537 Zr 0.25768 0.73204 0.51901
 O1538 O 0.27226 0.74504 0.50548
 Zr1539 Zr 0.23120 0.75862 0.51839
 O1540 O 0.24492 0.77294 0.50531
 Zr1541 Zr 0.23152 0.73178 0.49207
 O1542 O 0.24484 0.74512 0.47758
 Zr1543 Zr 0.26773 0.76805 0.50906
 O1544 O 0.25404 0.75512 0.52377
 Zr1545 Zr 0.26766 0.74140 0.48248
 O1546 O 0.25433 0.72689 0.49596
 Zr1547 Zr 0.24144 0.76819 0.48230
 O1548 O 0.22651 0.75483 0.49536
 O1549 O 0.23493 0.73571 0.51496
 O1550 O 0.26423 0.76441 0.48602
 C1551 C 0.23848 0.70356 0.51221
 C1552 C 0.23788 0.73949 0.54712
 C1553 C 0.20306 0.73882 0.51118
 C1554 C 0.26239 0.79594 0.48870
 C1555 C 0.29538 0.76209 0.48840
 C1556 C 0.26185 0.76190 0.45447
 H1557 H 0.28281 0.74262 0.50807
 H1558 H 0.24238 0.74263 0.46696
 H1559 H 0.22844 0.72933 0.52142
 H1560 H 0.24269 0.78360 0.50781
 H1561 H 0.26323 0.78090 0.53488
 H1562 H 0.23779 0.78254 0.53373
 H1563 H 0.25892 0.72503 0.45971
 H1564 H 0.24211 0.71025 0.47555
 H1565 H 0.29114 0.77346 0.52595
 H1566 H 0.27430 0.72677 0.54288
 H1567 H 0.22469 0.75925 0.46000
 H1568 H 0.21066 0.74201 0.47465
 H1569 H 0.27428 0.71070 0.50809
 H1570 H 0.28998 0.72484 0.49165
 H1571 H 0.20976 0.77480 0.50705
 H1572 H 0.22566 0.79139 0.49086
 O1573 O 0.25101 0.26974 0.96029
 O1574 O 0.22538 0.26777 0.96505
 O1575 O 0.26902 0.29044 1.00025
 O1576 O 0.26957 0.28581 1.02508
 O1577 O 0.29024 0.25074 0.98139
 O1578 O 0.28461 0.22444 0.98230
 O1579 O 0.23016 0.24936 1.04001
 O1580 O 0.23303 0.27502 1.03577
 O1581 O 0.21067 0.23058 1.00140
 O1582 O 0.21598 0.23160 0.97425
 O1583 O 0.24886 0.21044 1.01989
 O1584 O 0.27567 0.21566 1.01940
 O1585 O 0.24822 0.23107 1.04009
 O1586 O 0.27611 0.23251 1.03466
 O1587 O 0.23096 0.21033 1.00148
 O1588 O 0.23265 0.21624 0.97371
 O1589 O 0.21065 0.24849 1.01991
 O1590 O 0.21559 0.27584 1.01497
 O1591 O 0.26886 0.25119 0.96019
 O1592 O 0.26766 0.22436 0.96582
 O1593 O 0.29029 0.26891 0.99965
 O1594 O 0.28398 0.26647 1.02694
 O1595 O 0.25133 0.29047 0.98158
 O1596 O 0.22424 0.28442 0.98477
 Zr1597 Zr 0.24198 0.26857 0.98223
 O1598 O 0.22749 0.25498 0.99527
 Zr1599 Zr 0.26845 0.26828 1.00886
 O1600 O 0.25480 0.25515 1.02321
 Zr1601 Zr 0.26831 0.24184 0.98214
 O1602 O 0.25510 0.22730 0.99552
 Zr1603 Zr 0.23197 0.25869 1.01827
 O1604 O 0.24557 0.27345 1.00530
 Zr1605 Zr 0.23225 0.23200 0.99174
 O1606 O 0.24549 0.24552 0.97719
 Zr1607 Zr 0.25844 0.23215 1.01858
 O1608 O 0.27329 0.24527 1.00519
 O1609 O 0.26475 0.26471 0.98597
 O1610 O 0.23562 0.23566 1.01475
 C1611 C 0.26133 0.26186 0.95384
 C1612 C 0.26157 0.29687 0.98960
 C1613 C 0.29665 0.26117 0.98917
 C1614 C 0.23750 0.23857 1.04631
 C1615 C 0.20445 0.23781 1.01231
 C1616 C 0.23828 0.20410 1.01232
 H1617 H 0.21693 0.25747 0.99281
 H1618 H 0.25763 0.21670 0.99308
 H1619 H 0.27122 0.27120 0.97958
 H1620 H 0.25701 0.25772 1.03387
 H1621 H 0.23629 0.28460 1.03100
 H1622 H 0.26173 0.28367 1.03270
 H1623 H 0.24118 0.20927 0.97543
 H1624 H 0.25785 0.22522 0.96060
 H1625 H 0.20843 0.27541 1.02356
 H1626 H 0.22518 0.29225 0.97678
 H1627 H 0.27535 0.20994 1.00979
 H1628 H 0.28925 0.22458 0.99248
 H1629 H 0.22556 0.25740 0.96083
 H1630 H 0.20995 0.24096 0.97503
 H1631 H 0.28995 0.25720 1.02514
 H1632 H 0.27419 0.24095 1.04174
 C1633 C 0.28346 0.38397 0.78272
 N1634 N 0.28958 0.39056 0.77032
 N1635 N 0.28510 0.40426 0.76593
 C1636 C 0.27438 0.41178 0.77382
 N1637 N 0.26825 0.40518 0.78622
 N1638 N 0.27273 0.39149 0.79060
 C1639 C 0.28856 0.36940 0.78770
 C1640 C 0.29294 0.35725 0.79205
 C1641 C 0.26985 0.42670 0.76936
 C1642 C 0.26617 0.43932 0.76576
 C1643 C 0.28420 -0.11588 0.28382
 N1644 N 0.27423 -0.10789 0.29224
 N1645 N 0.26962 -0.09429 0.28771
 C1646 C 0.27484 -0.08826 0.27462
 N1647 N 0.28481 -0.09625 0.26620
 N1648 N 0.28942 -0.10986 0.27073
 C1649 C 0.28948 -0.13033 0.28894
 C1650 C 0.29403 -0.14238 0.29340
 C1651 C 0.27021 -0.07342 0.26999
 C1652 C 0.26644 -0.06086 0.26628
 C1653 C 0.78315 0.88377 0.78231
 N1654 N 0.79033 0.89094 0.77083
 N1655 N 0.78597 0.90468 0.76646
 C1656 C 0.77430 0.91167 0.77344
 N1657 N 0.76711 0.90450 0.78490
 N1658 N 0.77148 0.89075 0.78927
 C1659 C 0.78810 0.86915 0.78728
 C1660 C 0.79235 0.85695 0.79163
 C1661 C 0.76985 0.92663 0.76900
 C1662 C 0.76622 0.93927 0.76543
 C1663 C 0.46506 0.86577 0.28277
 N1664 N 0.45558 0.85376 0.28327
 N1665 N 0.46017 0.84016 0.27872
 C1666 C 0.47438 0.83814 0.27353
 N1667 N 0.48386 0.85015 0.27302
 N1668 N 0.47927 0.86376 0.27757
 C1669 C 0.46014 0.88033 0.28794
 C1670 C 0.45585 0.89245 0.29246
 C1671 C 0.47933 0.82341 0.26890
 C1672 C 0.48328 0.81091 0.26520
 C1673 C -0.03304 0.86770 0.78248
 N1674 N -0.04020 0.86057 0.77095
 N1675 N -0.03571 0.84692 0.76640
 C1676 C -0.02393 0.84000 0.77325
 N1677 N -0.01675 0.84713 0.78477
 N1678 N -0.02124 0.86078 0.78931
 C1679 C -0.03827 0.88210 0.78778
 C1680 C -0.04285 0.89407 0.79242
 C1681 C -0.01954 0.82502 0.76883
 C1682 C -0.01608 0.81230 0.76538
 C1683 C -0.03261 -0.11691 -0.03217
 N1684 N -0.02129 -0.10970 -0.03949
 N1685 N -0.01700 -0.09591 -0.03519
 C1686 C -0.02390 -0.08891 -0.02344
 N1687 N -0.03521 -0.09613 -0.01611
 N1688 N -0.03950 -0.10992 -0.02041
 C1689 C -0.03750 -0.13158 -0.03708
 C1690 C -0.04174 -0.14381 -0.04135
 C1691 C -0.01953 -0.07392 -0.01906
 C1692 C -0.01597 -0.06125 -0.01551
 C1693 C -0.03346 0.38383 0.46643
 N1694 N -0.02548 0.39286 0.45699
 N1695 N -0.02107 0.40656 0.46147
 C1696 C -0.02450 0.41163 0.47553
 N1697 N -0.03246 0.40260 0.48498
 N1698 N -0.03688 0.38890 0.48050
 C1699 C -0.03851 0.36924 0.46145
 C1700 C -0.04286 0.35708 0.45709
 C1701 C -0.02003 0.42652 0.48019
 C1702 C -0.01638 0.43912 0.48390
 C1703 C 0.46608 -0.11600 0.46722
 N1704 N 0.47958 -0.11052 0.46264
 N1705 N 0.48424 -0.09694 0.46722
 C1706 C 0.47555 -0.08843 0.47651
 N1707 N 0.46206 -0.09391 0.48110
 N1708 N 0.45740 -0.10749 0.47652
 C1709 C 0.46083 -0.13040 0.46191
 C1710 C 0.45628 -0.14239 0.45729
 C1711 C 0.48032 -0.07360 0.48103
 C1712 C 0.48415 -0.06103 0.48466
 C1713 C 0.46762 0.38157 -0.03190
 N1714 N 0.47770 0.38950 -0.04022
 N1715 N 0.48202 0.40327 -0.03586
 C1716 C 0.47639 0.40951 -0.02305
 N1717 N 0.46633 0.40156 -0.01471
 N1718 N 0.46200 0.38780 -0.01907
 C1719 C 0.46256 0.36700 -0.03692
 C1720 C 0.45815 0.35488 -0.04133
 C1721 C 0.48060 0.42456 -0.01870
 C1722 C 0.48396 0.43732 -0.01531
 C1723 C 0.78306 0.36779 0.46866
 N1724 N 0.77073 0.36125 0.46242
 N1725 N 0.76624 0.34761 0.46694
 C1726 C 0.77394 0.34008 0.47784
 N1727 N 0.78626 0.34663 0.48409
 N1728 N 0.79075 0.36028 0.47957
 C1729 C 0.78828 0.38218 0.46333
 C1730 C 0.79286 0.39413 0.45865
 C1731 C 0.76954 0.32509 0.48218
 C1732 C 0.76606 0.31236 0.48556
 C1733 C 0.78309 0.86859 -0.03134
 N1734 N 0.79107 0.86071 -0.02090
 N1735 N 0.78656 0.84701 -0.01655
 C1736 C 0.77395 0.84077 -0.02252
 N1737 N 0.76596 0.84865 -0.03294
 N1738 N 0.77046 0.86235 -0.03729
 C1739 C 0.78827 0.88306 -0.03648
 C1740 C 0.79279 0.89509 -0.04102
 C1741 C 0.76948 0.82575 -0.01834
 C1742 C 0.76594 0.81301 -0.01507
 C1743 C 0.78263 0.28223 0.38283
 N1744 N 0.77055 0.28880 0.38949
 N1745 N 0.76608 0.28439 0.40318
 C1746 C 0.77354 0.27326 0.41061
 N1747 N 0.78561 0.26668 0.40394
 N1748 N 0.79008 0.27109 0.39025
 C1749 C 0.78782 0.28740 0.36837
 C1750 C 0.79238 0.29191 0.35635
 C1751 C 0.76915 0.26898 0.42562
 C1752 C 0.76569 0.26561 0.43836
 C1753 C 0.78157 0.78284 -0.11839
 N1754 N 0.78881 0.77143 -0.11116
 N1755 N 0.78444 0.76707 -0.09742
 C1756 C 0.77271 0.77399 -0.09049
 N1757 N 0.76546 0.78538 -0.09773
 N1758 N 0.76982 0.78974 -0.11147
 C1759 C 0.78665 0.78791 -0.13293
 C1760 C 0.79110 0.79234 -0.14502
 C1761 C 0.76842 0.76972 -0.07545
 C1762 C 0.76504 0.76633 -0.06269
 C1763 C 0.28316 0.46676 0.86619
 N1764 N 0.27804 0.45647 0.85605
 N1765 N 0.27374 0.46081 0.84228
 C1766 C 0.27444 0.47559 0.83823
 N1767 N 0.27955 0.48589 0.84838
 N1768 N 0.28386 0.48154 0.86215
 C1769 C 0.28806 0.46200 0.88091
 C1770 C 0.29230 0.45787 0.89319
 C1771 C 0.27003 0.48020 0.82331
 C1772 C 0.26639 0.48393 0.81072
 C1773 C 0.28583 -0.03387 0.36551
 N1774 N 0.29548 -0.03325 0.35366
 N1775 N 0.29072 -0.02874 0.34010
 C1776 C 0.27616 -0.02471 0.33797
 N1777 N 0.26650 -0.02532 0.34982
 N1778 N 0.27126 -0.02983 0.36339
 C1779 C 0.29095 -0.03898 0.38003
 C1780 C 0.29541 -0.04342 0.39213
 C1781 C 0.27104 -0.02008 0.32329
 C1782 C 0.26696 -0.01631 0.31084
 C1783 C -0.03445 -0.03372 -0.11559
 N1784 N -0.04325 -0.02457 -0.10703
 N1785 N -0.03870 -0.02013 -0.09337
 C1786 C -0.02522 -0.02471 -0.08784
 N1787 N -0.01642 -0.03385 -0.09639
 N1788 N -0.02096 -0.03829 -0.11006
 C1789 C -0.03953 -0.03879 -0.13014
 C1790 C -0.04393 -0.04317 -0.14228
 C1791 C -0.02050 -0.02020 -0.07298
 C1792 C -0.01669 -0.01652 -0.06042
 C1793 C -0.03349 0.46637 0.38347
 N1794 N -0.02330 0.45811 0.39134
 N1795 N -0.01873 0.46263 0.40497
 C1796 C -0.02420 0.47555 0.41114
 N1797 N -0.03439 0.48382 0.40326
 N1798 N -0.03896 0.47930 0.38962
 C1799 C -0.03875 0.46126 0.36899
 C1800 C -0.04330 0.45681 0.35693
 C1801 C -0.01962 0.48017 0.42600
 C1802 C -0.01591 0.48387 0.43859
 C1803 C 0.46636 -0.03468 0.38458
 N1804 N 0.46603 -0.01982 0.38836
 N1805 N 0.47058 -0.01530 0.40200
 C1806 C 0.47560 -0.02552 0.41227
 N1807 N 0.47594 -0.04038 0.40848
 N1808 N 0.47139 -0.04489 0.39484
 C1809 C 0.46116 -0.03961 0.37002
 C1810 C 0.45667 -0.04391 0.35789
 C1811 C 0.48022 -0.02074 0.42707
 C1812 C 0.48398 -0.01688 0.43959
 C1813 C 0.46776 0.46785 -0.11819
 N1814 N 0.47883 0.46024 -0.11087
 N1815 N 0.48330 0.46461 -0.09715
 C1816 C 0.47683 0.47672 -0.09034
 N1817 N 0.46578 0.48434 -0.09768
 N1818 N 0.46131 0.47997 -0.11139
 C1819 C 0.46251 0.46275 -0.13267
 C1820 C 0.45792 0.45825 -0.14470
 C1821 C 0.48115 0.48098 -0.07530
 C1822 C 0.48453 0.48434 -0.06252
 C1823 C 0.46631 0.78422 0.36550
 N1824 N 0.47556 0.79306 0.35712
 N1825 N 0.48020 0.78850 0.34353
 C1826 C 0.47572 0.77495 0.33792
 N1827 N 0.46648 0.76609 0.34631
 N1828 N 0.46185 0.77066 0.35990
 C1829 C 0.46101 0.78933 0.37995
 C1830 C 0.45644 0.79379 0.39199
 C1831 C 0.48036 0.77025 0.32310
 C1832 C 0.48410 0.76648 0.31056
 C1833 C -0.03175 0.78141 0.86835
 N1834 N -0.03855 0.76957 0.86138
 N1835 N -0.03424 0.76528 0.84759
 C1836 C -0.02300 0.77271 0.84036
 N1837 N -0.01619 0.78453 0.84734
 N1838 N -0.02049 0.78881 0.86112
 C1839 C -0.03678 0.78640 0.88293
 C1840 C -0.04117 0.79079 0.89506
 C1841 C -0.01880 0.76851 0.82527
 C1842 C -0.01549 0.76520 0.81247
 C1843 C 0.38510 0.78401 0.28335
 N1844 N 0.39039 0.77021 0.28740
 N1845 N 0.40393 0.76564 0.28285
 C1846 C 0.41259 0.77475 0.27411
 N1847 N 0.40729 0.78854 0.27004
 N1848 N 0.39375 0.79311 0.27459
 C1849 C 0.37070 0.78912 0.28857
 C1850 C 0.35870 0.79356 0.29309
 C1851 C 0.42734 0.77003 0.26955
 C1852 C 0.43983 0.76625 0.26584
 C1853 C -0.11782 0.78183 0.78170
 N1854 N -0.11038 0.77103 0.78961
 N1855 N -0.09671 0.76658 0.78534
 C1856 C -0.09007 0.77279 0.77302
 N1857 N -0.09751 0.78358 0.76509
 N1858 N -0.11119 0.78803 0.76936
 C1859 C -0.13229 0.78703 0.78665
 C1860 C -0.14431 0.79158 0.79100
 C1861 C -0.07509 0.76847 0.76881
 C1862 C -0.06239 0.76508 0.76549
 C1863 C 0.86759 0.28182 0.46832
 N1864 N 0.86050 0.28901 0.47984
 N1865 N 0.84691 0.28452 0.48432
 C1866 C 0.84000 0.27271 0.47742
 N1867 N 0.84709 0.26550 0.46591
 N1868 N 0.86069 0.26999 0.46143
 C1869 C 0.88194 0.28706 0.46308
 C1870 C 0.89385 0.29165 0.45849
 C1871 C 0.82507 0.26835 0.48177
 C1872 C 0.81240 0.26495 0.48519
 C1873 C 0.86759 0.78119 -0.03171
 N1874 N 0.86095 0.78764 -0.01951
 N1875 N 0.84720 0.78341 -0.01527
 C1876 C 0.83969 0.77260 -0.02311
 N1877 N 0.84634 0.76613 -0.03530
 N1878 N 0.86009 0.77036 -0.03954
 C1879 C 0.88214 0.78618 -0.03664
 C1880 C 0.89424 0.79055 -0.04096
 C1881 C 0.82464 0.76849 -0.01894
 C1882 C 0.81189 0.76526 -0.01566
 C1883 C -0.11563 -0.03321 -0.03321
 N1884 N -0.10492 -0.04360 -0.02985
 N1885 N -0.09128 -0.03921 -0.02539
 C1886 C -0.08794 -0.02430 -0.02415
 N1887 N -0.09864 -0.01390 -0.02750
 N1888 N -0.11229 -0.01829 -0.03196
 C1889 C -0.13022 -0.03798 -0.03824
 C1890 C -0.14238 -0.04220 -0.04257
 C1891 C -0.07315 -0.01963 -0.01963
 C1892 C -0.06062 -0.01589 -0.01597
 C1893 C -0.11527 0.46675 0.46604
 N1894 N -0.10898 0.47947 0.46027
 N1895 N -0.09535 0.48387 0.46474
 C1896 C -0.08760 0.47569 0.47511
 N1897 N -0.09390 0.46297 0.48089
 N1898 N -0.10753 0.45857 0.47642
 C1899 C -0.12978 0.46179 0.46095
 C1900 C -0.14188 0.45747 0.45657
 C1901 C -0.07277 0.48021 0.47965
 C1902 C -0.06024 0.48388 0.48333
 C1903 C 0.38522 -0.03351 0.46630
 N1904 N 0.39315 -0.04177 0.47648
 N1905 N 0.40667 -0.03716 0.48108
 C1906 C 0.41268 -0.02416 0.47564
 N1907 N 0.40474 -0.01589 0.46547
 N1908 N 0.39122 -0.02050 0.46087
 C1909 C 0.37086 -0.03872 0.46101
 C1910 C 0.35890 -0.04325 0.45644
 C1911 C 0.42744 -0.01947 0.48023
 C1912 C 0.43995 -0.01571 0.48392
 C1913 C 0.38205 0.46850 -0.03196
 N1914 N 0.38963 0.47915 -0.03994
 N1915 N 0.40335 0.48346 -0.03566
 C1916 C 0.40990 0.47726 -0.02327
 N1917 N 0.40232 0.46662 -0.01528
 N1918 N 0.38860 0.46231 -0.01956
 C1919 C 0.36752 0.46344 -0.03692
 C1920 C 0.35544 0.45903 -0.04127
 C1921 C 0.42491 0.48146 -0.01904
 C1922 C 0.43764 0.48477 -0.01569
 C1923 C 0.36569 0.46732 0.78295
 N1924 N 0.35736 0.45867 0.77343
 N1925 N 0.34373 0.46318 0.76909
 C1926 C 0.33800 0.47647 0.77414
 N1927 N 0.34633 0.48512 0.78366
 N1928 N 0.35997 0.48062 0.78800
 C1929 C 0.38019 0.46225 0.78794
 C1930 C 0.39228 0.45783 0.79224
 C1931 C 0.32315 0.48110 0.76978
 C1932 C 0.31060 0.48479 0.76621
 C1933 C 0.36555 -0.03293 0.28332
 N1934 N 0.35782 -0.04075 0.27264
 N1935 N 0.34424 -0.03614 0.26823
 C1936 C 0.33798 -0.02357 0.27436
 N1937 N 0.34572 -0.01574 0.28503
 N1938 N 0.35930 -0.02035 0.28944
 C1939 C 0.37996 -0.03818 0.28840
 C1940 C 0.39196 -0.04275 0.29280
 C1941 C 0.32316 -0.01891 0.26996
 C1942 C 0.31060 -0.01523 0.26638
 C1943 C 0.13253 0.53216 0.71906
 N1944 N 0.14057 0.54071 0.72890
 N1945 N 0.15427 0.53640 0.73324
 C1946 C 0.16033 0.52339 0.72787
 N1947 N 0.15228 0.51482 0.71805
 N1948 N 0.13858 0.51914 0.71371
 C1949 C 0.11803 0.53712 0.71394
 C1950 C 0.10598 0.54147 0.70946
 C1951 C 0.17532 0.51908 0.73206
 C1952 C 0.18803 0.51569 0.73535
 C1953 C 0.13197 0.03038 0.21952
 N1954 N 0.13895 0.03766 0.23107
 N1955 N 0.15273 0.03358 0.23538
 C1956 C 0.15994 0.02208 0.22827
 N1957 N 0.15295 0.01479 0.21674
 N1958 N 0.13917 0.01888 0.21243
 C1959 C 0.11738 0.03517 0.21450
 C1960 C 0.10524 0.03939 0.21012
 C1961 C 0.17501 0.01808 0.23249
 C1962 C 0.18777 0.01489 0.23579
 C1963 C 0.61801 0.71894 0.21897
 N1964 N 0.61072 0.71125 0.23003
 N1965 N 0.59701 0.71548 0.23440
 C1966 C 0.59018 0.72753 0.22784
 N1967 N 0.59747 0.73523 0.21680
 N1968 N 0.61118 0.73100 0.21243
 C1969 C 0.63250 0.71401 0.21382
 C1970 C 0.64454 0.70970 0.20930
 C1971 C 0.57516 0.73168 0.23208
 C1972 C 0.56243 0.73498 0.23537
 C1973 C 0.11549 0.71726 0.71823
 N1974 N 0.10786 0.72798 0.71039
 N1975 N 0.09416 0.73222 0.71474
 C1976 C 0.08766 0.72587 0.72707
 N1977 N 0.09529 0.71516 0.73493
 N1978 N 0.10900 0.71092 0.73057
 C1979 C 0.13009 0.71243 0.71330
 C1980 C 0.14227 0.70827 0.70900
 C1981 C 0.07275 0.73019 0.73153
 C1982 C 0.06016 0.73374 0.73511
 C1983 C 0.63442 0.21757 0.53281
 N1984 N 0.63967 0.21406 0.51884
 N1985 N 0.65342 0.21834 0.51463
 C1986 C 0.66232 0.22627 0.52426
 N1987 N 0.65706 0.22979 0.53822
 N1988 N 0.64332 0.22550 0.54243
 C1989 C 0.61976 0.21270 0.53748
 C1990 C 0.60752 0.20851 0.54157
 C1991 C 0.67722 0.23064 0.51985
 C1992 C 0.68980 0.23423 0.51628
 C1993 C 0.63419 0.71727 0.03171
 N1994 N 0.64041 0.71157 0.01891
 N1995 N 0.65399 0.71611 0.01444
 C1996 C 0.66176 0.72648 0.02263
 N1997 N 0.65553 0.73218 0.03542
 N1998 N 0.64195 0.72765 0.03988
 C1999 C 0.61977 0.71207 0.03678
 C2000 C 0.60776 0.70760 0.04122
 C2001 C 0.67658 0.73101 0.01810
 C2002 C 0.68912 0.73467 0.01447
 C2003 C 0.11758 0.03157 0.03068
 N2004 N 0.10969 0.03991 0.02053
 N2005 N 0.09595 0.03564 0.01629
 C2006 C 0.08968 0.02291 0.02207
 N2007 N 0.09758 0.01456 0.03220
 N2008 N 0.11132 0.01883 0.03644
 C2009 C 0.13213 0.03650 0.03569
 C2010 C 0.14422 0.04081 0.04010
 C2011 C 0.07465 0.01867 0.01797
 C2012 C 0.06191 0.01531 0.01474
 C2013 C 0.11820 0.53116 0.52973
 N2014 N 0.11202 0.51825 0.53519
 N2015 N 0.09823 0.51408 0.53098
 C2016 C 0.09022 0.52270 0.52117
 N2017 N 0.09641 0.53560 0.51569
 N2018 N 0.11019 0.53976 0.51991
 C2019 C 0.13281 0.53596 0.53471
 C2020 C 0.14495 0.54016 0.53909
 C2021 C 0.07515 0.51853 0.51710
 C2022 C 0.06239 0.51522 0.51390
 C2023 C 0.61799 0.03237 0.53065
 N2024 N 0.60967 0.04106 0.52118
 N2025 N 0.59598 0.03665 0.51691
 C2026 C 0.59019 0.02340 0.52199
 N2027 N 0.59851 0.01469 0.53145
 N2028 N 0.61221 0.01911 0.53572
 C2029 C 0.63248 0.03742 0.53571
 C2030 C 0.64452 0.04184 0.54016
 C2031 C 0.57521 0.01898 0.51789
 C2032 C 0.56249 0.01552 0.51465
 C2033 C 0.61529 0.53302 0.03212
 N2034 N 0.60972 0.53736 0.01851
 N2035 N 0.59608 0.53290 0.01412
 C2036 C 0.58760 0.52397 0.02322
 N2037 N 0.59318 0.51962 0.03682
 N2038 N 0.60682 0.52408 0.04121
 C2039 C 0.62980 0.53816 0.03704
 C2040 C 0.64189 0.54259 0.04134
 C2041 C 0.57276 0.51949 0.01870
 C2042 C 0.56020 0.51586 0.01507
 C2043 C 0.03204 0.03011 0.11859
 N2044 N 0.01985 0.03652 0.11197
 N2045 N 0.01561 0.03235 0.09812
 C2046 C 0.02344 0.02164 0.09047
 N2047 N 0.03562 0.01521 0.09710
 N2048 N 0.03986 0.01938 0.11095
 C2049 C 0.03693 0.03500 0.13327
 C2050 C 0.04117 0.03932 0.14549
 C2051 C 0.01920 0.01755 0.07534
 C2052 C 0.01581 0.01434 0.06253
 C2053 C 0.03233 0.53091 0.61748
 N2054 N 0.04093 0.52118 0.60936
 N2055 N 0.03665 0.51681 0.59559
 C2056 C 0.02364 0.52203 0.58951
 N2057 N 0.01503 0.53174 0.59764
 N2058 N 0.01931 0.53611 0.61141
 C2059 C 0.03725 0.53609 0.63205
 C2060 C 0.04156 0.54064 0.64415
 C2061 C 0.01938 0.51784 0.57443
 C2062 C 0.01598 0.51457 0.56164
 C2063 C 0.53268 0.03112 0.61824
 N2064 N 0.54188 0.02244 0.60961
 N2065 N 0.53766 0.01819 0.59578
 C2066 C 0.52412 0.02247 0.59016
 N2067 N 0.51491 0.03113 0.59880
 N2068 N 0.51913 0.03539 0.61263
 C2069 C 0.53745 0.03612 0.63293
 C2070 C 0.54161 0.04050 0.64516
 C2071 C 0.51982 0.01832 0.57507
 C2072 C 0.51639 0.01502 0.56229
 C2073 C 0.53255 0.53164 0.11636
 N2074 N 0.53940 0.51984 0.10938
 N2075 N 0.53507 0.51553 0.09560
 C2076 C 0.52376 0.52289 0.08839
 N2077 N 0.51691 0.53467 0.09538
 N2078 N 0.52124 0.53898 0.10916
 C2079 C 0.53750 0.53656 0.13101
 C2080 C 0.54178 0.54086 0.14322
 C2081 C 0.51936 0.51852 0.07339
 C2082 C 0.51577 0.51500 0.06072
 C2083 C 0.21783 0.53036 0.63167
 N2084 N 0.23224 0.53238 0.63630
 N2085 N 0.23645 0.52826 0.65018
 C2086 C 0.22637 0.52199 0.65983
 N2087 N 0.21198 0.51996 0.65519
 N2088 N 0.20777 0.52408 0.64132
 C2089 C 0.21314 0.53526 0.61693
 C2090 C 0.20903 0.53957 0.60468
 C2091 C 0.23074 0.51801 0.67494
 C2092 C 0.23418 0.51483 0.68774
 C2093 C 0.21767 0.03039 0.13213
 N2094 N 0.23079 0.03541 0.13813
 N2095 N 0.23501 0.03108 0.15194
 C2096 C 0.22622 0.02162 0.16016
 N2097 N 0.21311 0.01659 0.15414
 N2098 N 0.20889 0.02091 0.14033
 C2099 C 0.21284 0.03551 0.11752
 C2100 C 0.20860 0.04001 0.10537
 C2101 C 0.23045 0.01747 0.17526
 C2102 C 0.23385 0.01423 0.18805
 C2103 C 0.71684 0.21844 0.61690
 N2104 N 0.72698 0.21011 0.60904
 N2105 N 0.73132 0.21441 0.59528
 C2106 C 0.72564 0.22716 0.58895
 N2107 N 0.71551 0.23550 0.59681
 N2108 N 0.71117 0.23120 0.61058
 C2109 C 0.71190 0.21359 0.63156
 C2110 C 0.70767 0.20932 0.64379
 C2111 C 0.73005 0.23157 0.57398
 C2112 C 0.73367 0.23511 0.56134
 C2113 C 0.71625 0.71830 0.11568
 N2114 N 0.73099 0.72076 0.11263
 N2115 N 0.73530 0.72507 0.09884
 C2116 C 0.72499 0.72703 0.08770
 N2117 N 0.71025 0.72458 0.09076
 N2118 N 0.70594 0.72028 0.10453
 C2119 C 0.71160 0.71341 0.13042
 C2120 C 0.70756 0.70916 0.14272
 C2121 C 0.72960 0.73142 0.07279
 C2122 C 0.73334 0.73499 0.06018
 C2123 C 0.53296 0.71876 0.13212
 N2124 N 0.52036 0.71286 0.13842
 N2125 N 0.51592 0.71729 0.15212
 C2126 C 0.52395 0.72775 0.15993
 N2127 N 0.53653 0.73367 0.15361
 N2128 N 0.54097 0.72924 0.13991
 C2129 C 0.53809 0.71352 0.11766
 C2130 C 0.54257 0.70889 0.10565
 C2131 C 0.51956 0.73201 0.17495
 C2132 C 0.51610 0.73533 0.18770
 C2133 C 0.03299 0.71809 0.63375
 N2134 N 0.04231 0.72631 0.64270
 N2135 N 0.03793 0.73060 0.65646
 C2136 C 0.02410 0.72681 0.66169
 N2137 N 0.01478 0.71860 0.65273
 N2138 N 0.01915 0.71430 0.63897
 C2139 C 0.03786 0.71315 0.61909
 C2140 C 0.04208 0.70886 0.60686
 C2141 C 0.01955 0.73112 0.67665
 C2142 C 0.01586 0.73463 0.68929
 C2143 C 0.53175 0.63220 0.21807
 N2144 N 0.52094 0.63973 0.21030
 N2145 N 0.51667 0.65351 0.21462
 C2146 C 0.52307 0.66018 0.22685
 N2147 N 0.53387 0.65264 0.23463
 N2148 N 0.53814 0.63886 0.23031
 C2149 C 0.53674 0.61760 0.21307
 C2150 C 0.54111 0.60546 0.20869
 C2151 C 0.51890 0.67526 0.23112
 C2152 C 0.51556 0.68804 0.23448
 C2153 C 0.03263 0.63392 0.71689
 N2154 N 0.02154 0.64123 0.70931
 N2155 N 0.01717 0.65499 0.71362
 C2156 C 0.02375 0.66185 0.72565
 N2157 N 0.03484 0.65453 0.73324
 N2158 N 0.03921 0.64078 0.72892
 C2159 C 0.03760 0.61927 0.71202
 C2160 C 0.04191 0.60705 0.70782
 C2161 C 0.01928 0.67679 0.73010
 C2162 C 0.01564 0.68940 0.73376
 C2163 C 0.03109 0.11782 0.03193
 N2164 N 0.03591 0.11186 0.01865
 N2165 N 0.03153 0.09807 0.01441
 C2166 C 0.02220 0.08984 0.02332
 N2167 N 0.01736 0.09582 0.03658
 N2168 N 0.02174 0.10960 0.04082
 C2169 C 0.03627 0.13241 0.03679
 C2170 C 0.04080 0.14452 0.04107
 C2171 C 0.01799 0.07476 0.01908
 C2172 C 0.01470 0.06196 0.01573
 C2173 C 0.03198 0.61781 0.53149
 N2174 N 0.04083 0.60943 0.52224
 N2175 N 0.03652 0.59566 0.51788
 C2176 C 0.02322 0.58986 0.52263
 N2177 N 0.01435 0.59825 0.53187
 N2178 N 0.01866 0.61202 0.53623
 C2179 C 0.03689 0.63240 0.53661
 C2180 C 0.04122 0.64453 0.54106
 C2181 C 0.01888 0.57482 0.51840
 C2182 C 0.01546 0.56206 0.51503
 C2183 C 0.53185 0.11818 0.53087
 N2184 N 0.53803 0.11144 0.51857
 N2185 N 0.53366 0.09764 0.51438
 C2186 C 0.52298 0.09016 0.52236
 N2187 N 0.51678 0.09690 0.53465
 N2188 N 0.52115 0.11070 0.53883
 C2189 C 0.53698 0.13277 0.53575
 C2190 C 0.54145 0.14489 0.54008
 C2191 C 0.51875 0.07504 0.51826
 C2192 C 0.51544 0.06223 0.51502
 C2193 C 0.53372 0.61535 0.03343
 N2194 N 0.53526 0.61090 0.01883
 N2195 N 0.53067 0.59722 0.01448
 C2196 C 0.52440 0.58757 0.02460
 N2197 N 0.52286 0.59203 0.03920
 N2198 N 0.52744 0.60571 0.04355
 C2199 C 0.53891 0.62995 0.03821
 C2200 C 0.54336 0.64214 0.04238
 C2201 C 0.51976 0.57272 0.02002
 C2202 C 0.51599 0.56017 0.01627
 C2203 C 0.71731 0.13383 0.53305
 N2204 N 0.73028 0.13982 0.53847
 N2205 N 0.73466 0.15359 0.53422
 C2206 C 0.72621 0.16179 0.52442
 N2207 N 0.71324 0.15578 0.51899
 N2208 N 0.70886 0.14201 0.52324
 C2209 C 0.71239 0.11916 0.53790
 C2210 C 0.70811 0.10691 0.54208
 C2211 C 0.73073 0.17675 0.52010
 C2212 C 0.73438 0.18939 0.51655
 C2213 C 0.71509 0.63508 0.03254
 N2214 N 0.70543 0.64695 0.03287
 N2215 N 0.70992 0.66064 0.02850
 C2216 C 0.72421 0.66289 0.02366
 N2217 N 0.73388 0.65103 0.02332
 N2218 N 0.72939 0.63733 0.02769
 C2219 C 0.71026 0.62040 0.03744
 C2220 C 0.70604 0.60816 0.04168
 C2221 C 0.72905 0.67769 0.01913
 C2222 C 0.73295 0.69021 0.01545
 C2223 C 0.21836 0.61818 0.71849
 N2224 N 0.22806 0.61017 0.70978
 N2225 N 0.23251 0.59641 0.71402
 C2226 C 0.22741 0.59026 0.72709
 N2227 N 0.21773 0.59828 0.73582
 N2228 N 0.21328 0.61204 0.73158
 C2229 C 0.21311 0.63273 0.71362
 C2230 C 0.20852 0.64483 0.70934
 C2231 C 0.23169 0.57519 0.73131
 C2232 C 0.23504 0.56241 0.73465
 C2233 C 0.21841 0.11780 0.21845
 N2234 N 0.23008 0.11079 0.21149
 N2235 N 0.23436 0.09701 0.21582
 C2236 C 0.22711 0.08982 0.22722
 N2237 N 0.21545 0.09683 0.23419
 N2238 N 0.21117 0.11061 0.22987
 C2239 C 0.21342 0.13238 0.21341
 C2240 C 0.20905 0.14451 0.20900
 C2241 C 0.23132 0.07474 0.23146
 C2242 C 0.23465 0.06196 0.23482
 C2243 C 0.71845 1.11827 0.71872
 N2244 N 0.72932 1.11082 0.71096
 N2245 N 0.73365 1.09704 0.71523
 C2246 C 0.72723 1.09028 0.72739
 N2247 N 0.71638 1.09774 0.73516
 N2248 N 0.71205 1.11152 0.73089
 C2249 C 0.71339 1.13285 0.71375
 C2250 C 0.70895 1.14497 0.70939
 C2251 C 0.73144 1.07520 0.73159
 C2252 C 0.73477 1.06241 0.73491
 C2253 C 0.71898 0.61828 0.21783
 N2254 N 0.72950 0.61063 0.20979
 N2255 N 0.73383 0.59685 0.21408
 C2256 C 0.72776 0.59031 0.22654
 N2257 N 0.71726 0.59798 0.23459
 N2258 N 0.71294 0.61176 0.23030
 C2259 C 0.71391 0.63286 0.21287
 C2260 C 0.70946 0.64498 0.20852
 C2261 C 0.73195 0.57523 0.23078
 C2262 C 0.73525 0.56244 0.23413
 C2263 C 0.53080 0.13135 0.71814
 N2264 N 0.52046 0.13904 0.70989
 N2265 N 0.51611 0.15284 0.71410
 C2266 C 0.52197 0.15936 0.72668
 N2267 N 0.53230 0.15166 0.73494
 N2268 N 0.53665 0.13786 0.73074
 C2269 C 0.53590 0.11673 0.71330
 C2270 C 0.54036 0.10457 0.70905
 C2271 C 0.51773 0.17445 0.73087
 C2272 C 0.51441 0.18724 0.73421
 C2273 C 1.03233 0.13183 0.21784
 N2274 N 1.01898 0.13402 0.22492
 N2275 N 1.01475 0.14788 0.22909
 C2276 C 1.02375 0.15995 0.22629
 N2277 N 1.03709 0.15774 0.21922
 N2278 N 1.04132 0.14390 0.21506
 C2279 C 1.03690 0.11698 0.21320
 C2280 C 1.04098 0.10463 0.20912
 C2281 C 1.01921 0.17491 0.23060
 C2282 C 1.01565 0.18762 0.23401
 C2283 C 0.21890 0.63206 0.53155
 N2284 N 0.21408 0.63808 0.51830
 N2285 N 0.21828 0.65196 0.51424
 C2286 C 0.22743 0.66025 0.52331
 N2287 N 0.23227 0.65423 0.53655
 N2288 N 0.22807 0.64034 0.54061
 C2289 C 0.21398 0.61732 0.53619
 C2290 C 0.20968 0.60506 0.54027
 C2291 C 0.23154 0.67539 0.51920
 C2292 C 0.23481 0.68821 0.51591
 C2293 C 0.21755 0.13320 1.03265
 N2294 N 0.22990 0.13970 1.03892
 N2295 N 0.23420 0.15351 1.03471
 C2296 C 0.22628 0.16124 1.02412
 N2297 N 0.21395 0.15474 1.01784
 N2298 N 0.20965 0.14093 1.02205
 C2299 C 0.21268 0.11851 1.03746
 C2300 C 0.20842 0.10625 1.04161
 C2301 C 0.23069 0.17626 1.01986
 C2302 C 0.23424 0.18894 1.01636
 C2303 C 0.21714 0.71988 0.61818
 N2304 N 0.23030 0.71477 0.61235
 N2305 N 0.23471 0.71908 0.59861
 C2306 C 0.22610 0.72862 0.59029
 N2307 N 0.21296 0.73375 0.59613
 N2308 N 0.20855 0.72944 0.60987
 C2309 C 0.21209 0.71477 0.63272
 C2310 C 0.20770 0.71027 0.64480
 C2311 C 0.23052 0.73274 0.57523
 C2312 C 0.23401 0.73596 0.56246
 C2313 C 0.21676 0.21748 1.11698
 N2314 N 0.21288 0.23132 1.11164
 N2315 N 0.21715 0.23566 1.09786
 C2316 C 0.22541 0.22629 1.08901
 N2317 N 0.22929 0.21246 1.09436
 N2318 N 0.22503 0.20812 1.10813
 C2319 C 0.21189 0.21264 1.13167
 C2320 C 0.20769 0.20842 1.14393
 C2321 C 0.22975 0.23081 1.07405
 C2322 C 0.23333 0.23445 1.06142
 C2323 C 0.71756 0.53192 0.13165
 N2324 N 0.72885 0.53929 0.13888
 N2325 N 0.73332 0.53483 0.15256
 C2326 C 0.72664 0.52288 0.15942
 N2327 N 0.71536 0.51550 0.15218
 N2328 N 0.71089 0.51996 0.13850
 C2329 C 0.71232 0.53712 0.11720
 C2330 C 0.70775 0.54169 0.10520
 C2331 C 0.73099 0.51853 0.17443
 C2332 C 0.73445 0.51513 0.18717
 C2333 C 0.71794 1.03161 0.63223
 N2334 N 0.70918 1.02206 0.64038
 N2335 N 0.71341 1.01765 0.65415
 C2336 C 0.72652 1.02264 0.66019
 N2337 N 0.73529 1.03218 0.65204
 N2338 N 0.73107 1.03659 0.63826
 C2339 C 0.71309 1.03681 0.61765
 C2340 C 0.70883 1.04135 0.60553
 C2341 C 0.73075 1.01839 0.67527
 C2342 C 0.73412 1.01507 0.68805
 C2343 C 0.53192 0.21925 0.63171
 N2344 N 0.53992 0.22965 0.63963
 N2345 N 0.53552 0.23385 0.65341
 C2346 C 0.52298 0.22778 0.65969
 N2347 N 0.51498 0.21739 0.65176
 N2348 N 0.51938 0.21320 0.63798
 C2349 C 0.53700 0.21429 0.61714
 C2350 C 0.54145 0.20992 0.60503
 C2351 C 0.51861 0.23182 0.67477
 C2352 C 0.51516 0.23501 0.68756
 C2353 C 1.03224 0.21911 0.13161
 N2354 N 1.04029 0.22952 0.13946
 N2355 N 1.03593 0.23379 0.15324
 C2356 C 1.02340 0.22778 0.15957
 N2357 N 1.01534 0.21739 0.15171
 N2358 N 1.01969 0.21312 0.13793
 C2359 C 1.03727 0.21406 0.11704
 C2360 C 1.04167 0.20961 0.10494
 C2361 C 1.01908 0.23189 0.17466
 C2362 C 1.01567 0.23511 0.18745
 C2363 C 0.61710 0.21841 0.71901
 N2364 N 0.61067 0.23106 0.71321
 N2365 N 0.59692 0.23521 0.71751
 C2366 C 0.58917 0.22684 0.72772
 N2367 N 0.59561 0.21420 0.73353
 N2368 N 0.60936 0.21005 0.72924
 C2369 C 0.63166 0.21361 0.71395
 C2370 C 0.64377 0.20939 0.70953
 C2371 C 0.57413 0.23095 0.73189
 C2372 C 0.56139 0.23421 0.73517
 C2373 C 1.11778 0.21872 0.21870
 N2374 N 1.11085 0.23059 0.21193
 N2375 N 1.09713 0.23482 0.21627
 C2376 C 1.08993 0.22731 0.22751
 N2377 N 1.09687 0.21546 0.23429
 N2378 N 1.11059 0.21122 0.22996
 C2379 C 1.13229 0.21378 0.21363
 C2380 C 1.14435 0.20944 0.20918
 C2381 C 1.07491 0.23145 0.23173
 C2382 C 1.06217 0.23472 0.23503
 C2383 C 0.13224 0.71901 0.53125
 N2384 N 0.13930 0.71170 0.51979
 N2385 N 0.15300 0.71596 0.51542
 C2386 C 0.16005 0.72766 0.52237
 N2387 N 0.15298 0.73498 0.53381
 N2388 N 0.13928 0.73073 0.53819
 C2389 C 0.11775 0.71403 0.53637
 C2390 C 0.10572 0.70966 0.54085
 C2391 C 0.17505 0.73182 0.51811
 C2392 C 0.18778 0.73512 0.51479
 C2393 C 0.13429 0.21629 1.03313
 N2394 N 0.13669 0.23051 1.02792
 N2395 N 0.15041 0.23483 1.02365
 C2396 C 0.16213 0.22505 1.02447
 N2397 N 0.15972 0.21083 1.02967
 N2398 N 0.14601 0.20652 1.03394
 C2399 C 0.11958 0.21166 1.03792
 C2400 C 0.10731 0.20764 1.04208
 C2401 C 0.17695 0.22971 1.02005
 C2402 C 0.18947 0.23348 1.01645
 C2403 C 0.63257 0.53143 0.21826
 N2404 N 0.63944 0.53840 0.23006
 N2405 N 0.65318 0.53421 0.23438
 C2406 C 0.66046 0.52291 0.22704
 N2407 N 0.65359 0.51592 0.21525
 N2408 N 0.63985 0.52012 0.21093
 C2409 C 0.61803 0.53634 0.21323
 C2410 C 0.60593 0.54065 0.20882
 C2411 C 0.67549 0.51880 0.23128
 C2412 C 0.68823 0.51554 0.23462
 C2413 C 0.63199 1.03178 0.71961
 N2414 N 0.63953 1.03971 0.73034
 N2415 N 0.65328 1.03549 0.73462
 C2416 C 0.65991 1.02321 0.72829
 N2417 N 0.65236 1.01526 0.71757
 N2418 N 0.63861 1.01948 0.71329
 C2419 C 0.61743 1.03665 0.71458
 C2420 C 0.60532 1.04089 0.71015
 C2421 C 0.67494 1.01902 0.73245
 C2422 C 0.68769 1.01568 0.73570
 C2423 C 0.86556 0.46712 0.28319
 N2424 N 0.85693 0.45807 0.27435
 N2425 N 0.84337 0.46263 0.26983
 C2426 C 0.83803 0.47637 0.27401
 N2427 N 0.84667 0.48544 0.28284
 N2428 N 0.86024 0.48088 0.28736
 C2429 C 0.87998 0.46201 0.28839
 C2430 C 0.89198 0.45752 0.29286
 C2431 C 0.82326 0.48106 0.26949
 C2432 C 0.81074 0.48480 0.26581
 C2433 C 0.86514 0.96667 0.78377
 N2434 N 0.85819 0.95967 0.77203
 N2435 N 0.84459 0.96413 0.76752
 C2436 C 0.83753 0.97572 0.77462
 N2437 N 0.84448 0.98273 0.78635
 N2438 N 0.85808 0.97827 0.79086
 C2439 C 0.87960 0.96161 0.78889
 C2440 C 0.89166 0.95722 0.79332
 C2441 C 0.82272 0.98026 0.77003
 C2442 C 0.81020 0.98395 0.76632
 C2443 C 0.38373 0.28197 0.78300
 N2444 N 0.39023 0.28793 0.77048
 N2445 N 0.40385 0.28338 0.76614
 C2446 C 0.41137 0.27274 0.77419
 N2447 N 0.40486 0.26677 0.78670
 N2448 N 0.39124 0.27132 0.79104
 C2449 C 0.36927 0.28720 0.78794
 C2450 C 0.35722 0.29172 0.79225
 C2451 C 0.42622 0.26818 0.76977
 C2452 C 0.43878 0.26454 0.76618
 C2453 C 0.88453 0.28272 0.28297
 N2454 N 0.89166 0.28982 0.27144
 N2455 N 0.90526 0.28530 0.26703
 C2456 C 0.91214 0.27353 0.27402
 N2457 N 0.90500 0.26641 0.28554
 N2458 N 0.89140 0.27093 0.28996
 C2459 C 0.87007 0.28787 0.28800
 C2460 C 0.85802 0.29234 0.29234
 C2461 C 0.92696 0.26894 0.26954
 C2462 C 0.93949 0.26527 0.26588
 C2463 C 0.36506 0.78410 0.46651
 N2464 N 0.35939 0.77068 0.46172
 N2465 N 0.34585 0.76611 0.46629
 C2466 C 0.33758 0.77482 0.47578
 N2467 N 0.34325 0.78823 0.48058
 N2468 N 0.35679 0.79280 0.47601
 C2469 C 0.37945 0.78923 0.46129
 C2470 C 0.39145 0.79370 0.45680
 C2471 C 0.32283 0.77011 0.48038
 C2472 C 0.31035 0.76635 0.48411
 C2473 C 0.36741 0.28110 0.96900
 N2474 N 0.36001 0.28887 0.97993
 N2475 N 0.34633 0.28458 0.98431
 C2476 C 0.33963 0.27238 0.97789
 N2477 N 0.34703 0.26458 0.96698
 N2478 N 0.36072 0.26888 0.96260
 C2479 C 0.38187 0.28610 0.96385
 C2480 C 0.39389 0.29050 0.95935
 C2481 C 0.32463 0.26816 0.98214
 C2482 C 0.31192 0.26484 0.98548
 C2483 C 0.78417 0.46667 0.36529
 N2484 N 0.77486 0.45778 0.35700
 N2485 N 0.77030 0.46216 0.34332
 C2486 C 0.77492 0.47558 0.33752
 N2487 N 0.78423 0.48448 0.34582
 N2488 N 0.78878 0.48009 0.35949
 C2489 C 0.78936 0.46176 0.37985
 C2490 C 0.79384 0.45749 0.39200
 C2491 C 0.77031 0.48013 0.32265
 C2492 C 0.76656 0.48384 0.31008
 C2493 C 0.78342 0.96700 0.86630
 N2494 N 0.77744 0.95680 0.85654
 N2495 N 0.77286 0.96111 0.84286
 C2496 C 0.77413 0.97576 0.83851
 N2497 N 0.78010 0.98597 0.84827
 N2498 N 0.78468 0.98165 0.86196
 C2499 C 0.78865 0.96224 0.88090
 C2500 C 0.79313 0.95805 0.89307
 C2501 C 0.76954 0.98031 0.82363
 C2502 C 0.76583 0.98398 0.81103
 C2503 C 0.28405 0.78328 0.38436
 N2504 N 0.27063 0.78801 0.38990
 N2505 N 0.26600 0.78349 0.40350
 C2506 C 0.27466 0.77411 0.41197
 N2507 N 0.28807 0.76938 0.40642
 N2508 N 0.29269 0.77389 0.39282
 C2509 C 0.28925 0.78852 0.36992
 C2510 C 0.29377 0.79307 0.35790
 C2511 C 0.26992 0.76963 0.42681
 C2512 C 0.26613 0.76601 0.43939
 C2513 C 0.28205 0.28208 0.88296
 N2514 N 0.26997 0.28867 0.88959
 N2515 N 0.26550 0.28432 0.90330
 C2516 C 0.27298 0.27325 0.91079
 N2517 N 0.28505 0.26664 0.90414
 N2518 N 0.28952 0.27099 0.89044
 C2519 C 0.28723 0.28716 0.86846
 C2520 C 0.29176 0.29162 0.85641
 C2521 C 0.26858 0.26901 0.92581
 C2522 C 0.26512 0.26563 0.93855
 C2523 C 0.46636 0.28217 0.86623
 N2524 N 0.47759 0.28956 0.85895
 N2525 N 0.48188 0.28520 0.84519
 C2526 C 0.47507 0.27333 0.83828
 N2527 N 0.46385 0.26594 0.84556
 N2528 N 0.45955 0.27029 0.85933
 C2529 C 0.46149 0.28710 0.88089
 C2530 C 0.45729 0.29138 0.89313
 C2531 C 0.47947 0.26886 0.82333
 C2532 C 0.48310 0.26524 0.81070
 C2533 C 0.96700 0.28299 0.36587
 N2534 N 0.96183 0.26981 0.35996
 N2535 N 0.96624 0.26530 0.34628
 C2536 C 0.97595 0.27383 0.33810
 N2537 N 0.98113 0.28700 0.34401
 N2538 N 0.97672 0.29151 0.35769
 C2539 C 0.96194 0.28807 0.38041
 C2540 C 0.95757 0.29251 0.39253
 C2541 C 0.98039 0.26920 0.32320
 C2542 C 0.98401 0.26550 0.31059
 C2543 C 0.46567 0.36531 0.78344
 N2544 N 0.46657 0.35383 0.79357
 N2545 N 0.47102 0.34012 0.78919
 C2546 C 0.47470 0.33747 0.77454
 N2547 N 0.47381 0.34895 0.76441
 N2548 N 0.46936 0.36267 0.76879
 C2549 C 0.46071 0.38000 0.78819
 C2550 C 0.45645 0.39225 0.79238
 C2551 C 0.47929 0.32264 0.76984
 C2552 C 0.48302 0.31009 0.76608
 C2553 C 0.96518 0.36524 0.28294
 N2554 N 0.95494 0.35435 0.27964
 N2555 N 0.95943 0.34072 0.27506
 C2556 C 0.97428 0.33756 0.27363
 N2557 N 0.98452 0.34845 0.27692
 N2558 N 0.98004 0.36209 0.28150
 C2559 C 0.96031 0.37980 0.28816
 C2560 C 0.95605 0.39193 0.29267
 C2561 C 0.97906 0.32277 0.26902
 C2562 C 0.98292 0.31024 0.26531
 C2563 C 0.28470 0.86578 0.46649
 N2564 N 0.28902 0.86031 0.48015
 N2565 N 0.28434 0.84675 0.48477
 C2566 C 0.27521 0.83827 0.47586
 N2567 N 0.27088 0.84375 0.46221
 N2568 N 0.27555 0.85730 0.45760
 C2569 C 0.29006 0.88019 0.46131
 C2570 C 0.29466 0.89218 0.45678
 C2571 C 0.27052 0.82349 0.48062
 C2572 C 0.26672 0.81096 0.48442
 C2573 C 0.28186 0.36796 0.96958
 N2574 N 0.28991 0.36021 0.98006
 N2575 N 0.28556 0.34648 0.98445
 C2576 C 0.27302 0.34007 0.97849
 N2577 N 0.26496 0.34782 0.96803
 N2578 N 0.26931 0.36156 0.96364
 C2579 C 0.28689 0.38247 0.96440
 C2580 C 0.29130 0.39453 0.95984
 C2581 C 0.26873 0.32501 0.98271
 C2582 C 0.26533 0.31223 0.98600
 C2583 C 0.78391 0.38409 0.28222
 N2584 N 0.79229 0.39220 0.27231
 N2585 N 0.78779 0.40586 0.26784
 C2586 C 0.77477 0.41183 0.27315
 N2587 N 0.76638 0.40371 0.28306
 N2588 N 0.77089 0.39005 0.28753
 C2589 C 0.78898 0.36957 0.28737
 C2590 C 0.79338 0.35747 0.29183
 C2591 C 0.77017 0.42672 0.26868
 C2592 C 0.76644 0.43933 0.26508
   
