data_POSCAR
  _audit_creation_date              2014-09-24
  _audit_creation_method            'ToBaCCo'
  _symmetry_space_group_name_H-M    'P1'
  _symmetry_Int_Tables_number       1
  _symmetry_cell_setting            triclinic
  loop_
  _symmetry_equiv_pos_as_xyz
 x,y,z
_cell_length_a 38.7755
_cell_length_b 39.2877
_cell_length_c 48.9456
_cell_angle_alpha 89.935200
_cell_angle_beta 89.965700
_cell_angle_gamma 90.032500
loop_
  _atom_site_label
  _atom_site_type_symbol
  _atom_site_fract_x
  _atom_site_fract_y
  _atom_site_fract_z
Zr1 Zr 0.24625 0.25027 0.29728
 O2 O 0.27349 0.27674 0.32815
 O3 O 0.21070 0.22200 0.32025
 O4 O 0.21377 0.28448 0.31818
 O5 O 0.30675 0.18613 0.28977
 O6 O 0.18818 0.31544 0.28425
 O7 O 0.27665 0.21718 0.32123
 O8 O 0.17811 0.19549 0.28774
 O9 O 0.20174 0.25357 0.27323
 O10 O 0.24379 0.20506 0.27487
 O11 O 0.25261 0.29431 0.27331
 O12 O 0.29314 0.24764 0.27545
 Zr13 Zr 0.25173 0.24909 0.20217
 Zr14 Zr 0.20924 0.29588 0.24784
 Zr15 Zr 0.28875 0.20345 0.25158
 Zr16 Zr 0.20064 0.20919 0.24996
 O17 O 0.34333 0.20331 0.25200
 O18 O 0.14758 0.22196 0.24783
 O19 O 0.24539 0.20457 0.22587
 O20 O 0.20527 0.25159 0.22426
 O21 O 0.25426 0.29463 0.22423
 O22 O 0.29586 0.24584 0.22655
 C23 C 0.18584 0.20261 0.31265
 C24 C 0.29882 0.19432 0.31443
 C25 C 0.19320 0.30777 0.30947
 O26 O 0.15486 0.29588 0.24421
 O27 O 0.19535 0.31680 0.20972
 O28 O 0.22400 0.28448 0.17828
 C29 C 0.20354 0.30883 0.18508
 O30 O 0.32035 0.30809 0.28618
 Zr31 Zr 0.29728 0.29021 0.24952
 O32 O 0.28707 0.27763 0.17921
 O33 O 0.21798 0.34901 0.24932
 O34 O 0.29312 0.34402 0.24907
 O35 O 0.35093 0.27970 0.24919
 O36 O 0.31689 0.30730 0.21163
 C37 C 0.30993 0.29931 0.18676
 O38 O 0.22292 0.22436 0.17125
 O39 O 0.27985 0.15035 0.25326
 O40 O 0.28168 0.21282 0.18113
 O41 O 0.30581 0.18064 0.21503
 O42 O 0.20239 0.15535 0.25283
 O43 O 0.18116 0.18700 0.21351
 C44 C 0.30069 0.18824 0.18979
 H45 H 0.24205 0.18451 0.28651
 H46 H 0.18517 0.25254 0.21181
 H47 H 0.31741 0.24351 0.21587
 H48 H 0.25416 0.31489 0.28490
 H49 H 0.13427 0.20135 0.25287
 H50 H 0.14744 0.32001 0.24442
 H51 H 0.19514 0.36011 0.24761
 H52 H 0.31618 0.35330 0.24449
 H53 H 0.17870 0.14734 0.25693
 H54 H 0.30275 0.13933 0.25478
 H55 H 0.35063 0.17914 0.25205
 H56 H 0.36303 0.30118 0.24459
 H57 H 0.16013 0.17370 0.21776
 H58 H 0.23283 0.23140 0.15342
 H59 H 0.26369 0.26954 0.34598
 H60 H 0.33737 0.32609 0.28178
 Zr61 Zr 0.75370 0.75019 0.29704
 O62 O 0.72675 0.72354 0.32805
 O63 O 0.78913 0.77872 0.31987
 O64 O 0.78646 0.71621 0.31793
 O65 O 0.69258 0.81376 0.28955
 O66 O 0.81222 0.68544 0.28399
 O67 O 0.72304 0.78302 0.32100
 O68 O 0.82144 0.80544 0.28723
 O69 O 0.79818 0.74724 0.27290
 O70 O 0.75574 0.79541 0.27455
 O71 O 0.74764 0.70609 0.27317
 O72 O 0.70674 0.75241 0.27531
 Zr73 Zr 0.74799 0.75125 0.20192
 Zr74 Zr 0.79097 0.70486 0.24759
 Zr75 Zr 0.71071 0.79663 0.25135
 Zr76 Zr 0.79885 0.79162 0.24954
 O77 O 0.65613 0.79634 0.25186
 O78 O 0.85201 0.77931 0.24725
 O79 O 0.75401 0.79583 0.22554
 O80 O 0.79451 0.74917 0.22392
 O81 O 0.74589 0.70570 0.22409
 O82 O 0.70389 0.75417 0.22642
 C83 C 0.81386 0.79825 0.31217
 C84 C 0.70062 0.80564 0.31421
 C85 C 0.80717 0.69306 0.30921
 O86 O 0.84534 0.70533 0.24389
 O87 O 0.80505 0.68409 0.20950
 O88 O 0.77602 0.71611 0.17805
 C89 C 0.79675 0.69198 0.18485
 O90 O 0.68006 0.69171 0.28622
 Zr91 Zr 0.70288 0.70980 0.24947
 O92 O 0.71281 0.72240 0.17911
 O93 O 0.78267 0.65166 0.24917
 O94 O 0.70750 0.65603 0.24912
 O95 O 0.64916 0.71991 0.24927
 O96 O 0.68329 0.69254 0.21167
 C97 C 0.69012 0.70056 0.18676
 O98 O 0.77649 0.77619 0.17087
 O99 O 0.71917 0.84980 0.25295
 O100 O 0.71773 0.78730 0.18090
 O101 O 0.69344 0.81932 0.21480
 O102 O 0.79663 0.84544 0.25234
 O103 O 0.81802 0.81399 0.21299
 C104 C 0.69858 0.81176 0.18957
 H105 H 0.75733 0.81597 0.28616
 H106 H 0.81459 0.74840 0.21144
 H107 H 0.68230 0.75634 0.21578
 H108 H 0.74628 0.68550 0.28480
 H109 H 0.86517 0.80003 0.25220
 H110 H 0.85297 0.68126 0.24413
 H111 H 0.80559 0.64074 0.24742
 H112 H 0.68451 0.64656 0.24461
 H113 H 0.82025 0.85365 0.25639
 H114 H 0.69618 0.86062 0.25449
 H115 H 0.64863 0.82045 0.25187
 H116 H 0.63721 0.69833 0.24474
 H117 H 0.83891 0.82752 0.21717
 H118 H 0.76658 0.76906 0.15308
 H119 H 0.73655 0.73082 0.34584
 H120 H 0.66316 0.67360 0.28189
 Zr121 Zr 0.75390 0.24950 -0.29707
 O122 O 0.72698 0.27602 -0.32812
 O123 O 0.78924 0.22083 -0.31987
 O124 O 0.78671 0.28336 -0.31809
 O125 O 0.69272 0.18596 -0.28930
 O126 O 0.81253 0.31428 -0.28428
 O127 O 0.72319 0.21655 -0.32089
 O128 O 0.82153 0.19422 -0.28720
 O129 O 0.79841 0.25257 -0.27300
 O130 O 0.75590 0.20439 -0.27445
 O131 O 0.74793 0.29371 -0.27332
 O132 O 0.70696 0.24741 -0.27527
 Zr133 Zr 0.74829 0.24890 -0.20194
 Zr134 Zr 0.79128 0.29506 -0.24780
 Zr135 Zr 0.71090 0.20331 -0.25119
 Zr136 Zr 0.79905 0.20830 -0.24951
 O137 O 0.65632 0.20363 -0.25161
 O138 O 0.85222 0.22064 -0.24739
 O139 O 0.75423 0.20422 -0.22544
 O140 O 0.79480 0.25086 -0.22401
 O141 O 0.74622 0.29435 -0.22424
 O142 O 0.70416 0.24587 -0.22636
 C143 C 0.81393 0.20129 -0.31215
 C144 C 0.70076 0.19394 -0.31399
 C145 C 0.80745 0.30653 -0.30946
 O146 O 0.84565 0.29461 -0.24416
 O147 O 0.80539 0.31605 -0.20980
 O148 O 0.77636 0.28417 -0.17821
 C149 C 0.79710 0.30829 -0.18512
 O150 O 0.68035 0.30806 -0.28631
 Zr151 Zr 0.70319 0.29013 -0.24955
 O152 O 0.71317 0.27787 -0.17916
 O153 O 0.78305 0.34825 -0.24955
 O154 O 0.70787 0.34391 -0.24938
 O155 O 0.64945 0.28002 -0.24922
 O156 O 0.68367 0.30760 -0.21176
 C157 C 0.69052 0.29969 -0.18684
 O158 O 0.77679 0.22412 -0.17086
 O159 O 0.71926 0.15012 -0.25263
 O160 O 0.71803 0.21294 -0.18078
 O161 O 0.69368 0.18078 -0.21456
 O162 O 0.79676 0.15446 -0.25209
 O163 O 0.81825 0.18612 -0.21293
 C164 C 0.69886 0.18844 -0.18936
 H165 H 0.75745 0.18377 -0.28599
 H166 H 0.81489 0.25170 -0.21155
 H167 H 0.68258 0.24376 -0.21568
 H168 H 0.74659 0.31425 -0.28501
 H169 H 0.86535 0.19989 -0.25230
 H170 H 0.85331 0.31868 -0.24450
 H171 H 0.80599 0.35917 -0.24787
 H172 H 0.68489 0.35340 -0.24487
 H173 H 0.82036 0.14622 -0.25615
 H174 H 0.69625 0.13930 -0.25411
 H175 H 0.64878 0.17952 -0.25152
 H176 H 0.63753 0.30162 -0.24473
 H177 H 0.83916 0.17262 -0.21709
 H178 H 0.76690 0.23133 -0.15308
 H179 H 0.73674 0.26864 -0.34590
 H180 H 0.66344 0.32616 -0.28200
 Zr181 Zr 0.24584 0.75150 -0.29734
 O182 O 0.27278 0.72509 -0.32842
 O183 O 0.21077 0.78056 -0.32014
 O184 O 0.21300 0.71788 -0.31855
 O185 O 0.30742 0.81460 -0.28921
 O186 O 0.18682 0.68688 -0.28487
 O187 O 0.27697 0.78448 -0.32097
 O188 O 0.17850 0.80709 -0.28749
 O189 O 0.20118 0.74851 -0.27339
 O190 O 0.24400 0.79645 -0.27459
 O191 O 0.25140 0.70709 -0.27367
 O192 O 0.29267 0.75311 -0.27539
 Zr193 Zr 0.25091 0.75131 -0.20213
 Zr194 Zr 0.20789 0.70579 -0.24826
 Zr195 Zr 0.28888 0.79706 -0.25118
 Zr196 Zr 0.20069 0.79261 -0.24977
 O197 O 0.34345 0.79640 -0.25146
 O198 O 0.14743 0.78059 -0.24783
 O199 O 0.24539 0.79620 -0.22555
 O200 O 0.20452 0.74984 -0.22436
 O201 O 0.25281 0.70603 -0.22456
 O202 O 0.29518 0.75428 -0.22645
 C203 C 0.18614 0.80019 -0.31247
 C204 C 0.29954 0.80691 -0.31398
 C205 C 0.19210 0.69473 -0.31003
 O206 O 0.15349 0.70658 -0.24485
 O207 O 0.19328 0.68466 -0.21034
 O208 O 0.22237 0.71603 -0.17859
 C209 C 0.20142 0.69213 -0.18558
 O210 O 0.31892 0.69231 -0.28650
 Zr211 Zr 0.29602 0.71019 -0.24975
 O212 O 0.28577 0.72198 -0.17936
 O213 O 0.21581 0.65256 -0.25007
 O214 O 0.29095 0.65644 -0.24970
 O215 O 0.34981 0.71999 -0.24932
 O216 O 0.31532 0.69239 -0.21198
 C217 C 0.30841 0.70014 -0.18704
 O218 O 0.22240 0.77603 -0.17103
 O219 O 0.28084 0.85031 -0.25249
 O220 O 0.28128 0.78699 -0.18079
 O221 O 0.30603 0.81922 -0.21443
 O222 O 0.20338 0.84645 -0.25220
 O223 O 0.18140 0.81467 -0.21320
 C224 C 0.30066 0.81143 -0.18925
 H225 H 0.24266 0.81715 -0.28608
 H226 H 0.18435 0.74905 -0.21197
 H227 H 0.31672 0.75619 -0.21571
 H228 H 0.25269 0.68662 -0.28540
 H229 H 0.13446 0.80145 -0.25272
 H230 H 0.14567 0.68257 -0.24528
 H231 H 0.19278 0.64177 -0.24850
 H232 H 0.31384 0.64676 -0.24515
 H233 H 0.17987 0.85488 -0.25633
 H234 H 0.30393 0.86100 -0.25387
 H235 H 0.35114 0.82046 -0.25127
 H236 H 0.36159 0.69830 -0.24486
 H237 H 0.16063 0.82835 -0.21740
 H238 H 0.23215 0.76861 -0.15326
 H239 H 0.26316 0.73269 -0.34620
 H240 H 0.33567 0.67407 -0.28218
 Zr241 Zr 1.25357 1.24848 0.79713
 O242 O 1.22744 1.21981 0.82741
 O243 O 1.28779 1.27748 0.82076
 O244 O 1.28739 1.21484 0.81729
 O245 O 1.19035 1.31022 0.79100
 O246 O 1.31432 1.18617 0.78274
 O247 O 1.22182 1.27940 0.82178
 O248 O 1.31910 1.30665 0.78887
 O249 O 1.29823 1.24792 0.77308
 O250 O 1.25404 1.29452 0.77569
 O251 O 1.24912 1.20510 0.77221
 O252 O 1.20660 1.24987 0.77535
 Zr253 Zr 1.24807 1.25282 0.70208
 Zr254 Zr 1.29257 1.20627 0.74675
 Zr255 Zr 1.20904 1.29504 0.75243
 Zr256 Zr 1.29737 1.29313 0.75076
 O257 O 1.15451 1.29275 0.75283
 O258 O 1.35093 1.28263 0.74853
 O259 O 1.25246 1.29667 0.72676
 O260 O 1.29460 1.25151 0.72413
 O261 O 1.24754 1.20646 0.72318
 O262 O 1.20379 1.25331 0.72647
 C263 C 1.31166 1.29833 0.81362
 C264 C 1.19870 1.30155 0.81548
 C265 C 1.30887 1.19267 0.80812
 O266 O 1.34689 1.20875 0.74315
 O267 O 1.30729 1.18731 0.70817
 O268 O 1.27724 1.21950 0.67745
 C269 C 1.29869 1.19577 0.68371
 O270 O 1.18193 1.18808 0.78475
 Zr271 Zr 1.20432 1.20812 0.74849
 O272 O 1.21413 1.22351 0.67846
 O273 O 1.28617 1.15278 0.74707
 O274 O 1.21077 1.15456 0.74709
 O275 O 1.15027 1.21638 0.74818
 O276 O 1.18576 1.19132 0.71022
 C277 C 1.19241 1.20042 0.68551
 O278 O 1.27584 1.27985 0.67175
 O279 O 1.21551 1.34840 0.75526
 O280 O 1.21667 1.28859 0.68182
 O281 O 1.19112 1.31849 0.71637
 O282 O 1.29325 1.34674 0.75461
 O283 O 1.31602 1.31734 0.71481
 C284 C 1.19667 1.31208 0.69099
 H285 H 1.25485 1.31471 0.78774
 H286 H 1.31472 1.25186 0.71167
 H287 H 1.18220 1.25509 0.71579
 H288 H 1.24844 1.18406 0.78335
 H289 H 1.36334 1.30358 0.75404
 H290 H 1.35536 1.18496 0.74283
 H291 H 1.30947 1.14273 0.74508
 H292 H 1.18814 1.14447 0.74232
 H293 H 1.31656 1.35563 0.75890
 H294 H 1.19213 1.35833 0.75703
 H295 H 1.14613 1.31657 0.75338
 H296 H 1.13915 1.19457 0.74308
 H297 H 1.33651 1.33127 0.71935
 H298 H 1.26627 1.27307 0.65376
 H299 H 1.23691 1.22675 0.84539
 H300 H 1.16557 1.16967 0.77996
 Zr301 Zr 0.74637 0.75217 0.79731
 O302 O 0.77268 0.78093 0.82736
 O303 O 0.71212 0.72345 0.82119
 O304 O 0.71270 0.78603 0.81738
 O305 O 0.80935 0.69016 0.79138
 O306 O 0.68579 0.81459 0.78274
 O307 O 0.77809 0.72130 0.82206
 O308 O 0.68060 0.69422 0.78953
 O309 O 0.70166 0.75273 0.77337
 O310 O 0.74568 0.70599 0.77614
 O311 O 0.75092 0.79538 0.77215
 O312 O 0.79328 0.75044 0.77542
 Zr313 Zr 0.75161 0.74718 0.70229
 Zr314 Zr 0.70740 0.79420 0.74680
 Zr315 Zr 0.79062 0.70514 0.75276
 Zr316 Zr 0.70229 0.70738 0.75130
 O317 O 0.84515 0.70719 0.75302
 O318 O 0.64877 0.71804 0.74912
 O319 O 0.74712 0.70349 0.72721
 O320 O 0.70514 0.74882 0.72445
 O321 O 0.75237 0.79368 0.72311
 O322 O 0.79595 0.74669 0.72657
 C323 C 0.68813 0.70266 0.81422
 C324 C 0.80112 0.69904 0.81582
 C325 C 0.69126 0.80821 0.80814
 O326 O 0.65306 0.79191 0.74335
 O327 O 0.69267 0.81296 0.70815
 O328 O 0.72252 0.78045 0.67754
 C329 C 0.70117 0.80430 0.68372
 O330 O 0.81819 0.81220 0.78442
 Zr331 Zr 0.79564 0.79202 0.74833
 O332 O 0.78562 0.77619 0.67842
 O333 O 0.71399 0.84767 0.74680
 O334 O 0.78938 0.84559 0.74659
 O335 O 0.84967 0.78359 0.74797
 O336 O 0.81421 0.80844 0.70992
 C337 C 0.80747 0.79919 0.68529
 O338 O 0.72365 0.72006 0.67219
 O339 O 0.78392 0.65182 0.75593
 O340 O 0.78285 0.71121 0.68214
 O341 O 0.80840 0.68142 0.71679
 O342 O 0.70619 0.65378 0.75549
 O343 O 0.68350 0.68300 0.71553
 C344 C 0.80282 0.68772 0.69137
 H345 H 0.74482 0.68587 0.78831
 H346 H 0.68499 0.74847 0.71204
 H347 H 0.81751 0.74477 0.71586
 H348 H 0.75170 0.81648 0.78316
 H349 H 0.63630 0.69716 0.75478
 H350 H 0.64469 0.81574 0.74291
 H351 H 0.69072 0.85778 0.74480
 H352 H 0.81204 0.85556 0.74170
 H353 H 0.68286 0.64502 0.75986
 H354 H 0.80726 0.64181 0.75768
 H355 H 0.85343 0.68335 0.75371
 H356 H 0.86085 0.80533 0.74273
 H357 H 0.66296 0.66918 0.72020
 H358 H 0.73320 0.72670 0.65414
 H359 H 0.76324 0.77413 0.84540
 H360 H 0.83454 0.83058 0.77950
 Zr361 Zr 1.25396 0.75173 0.20288
 O362 O 1.22804 0.78070 0.17271
 O363 O 1.28811 0.72279 0.17914
 O364 O 1.28798 0.78539 0.18291
 O365 O 1.19048 0.69012 0.20864
 O366 O 1.31493 0.81375 0.21761
 O367 O 1.22218 0.72108 0.17804
 O368 O 1.31920 0.69328 0.21093
 O369 O 1.29856 0.75200 0.22697
 O370 O 1.25418 0.70554 0.22411
 O371 O 1.24962 0.79495 0.22799
 O372 O 1.20692 0.75033 0.22460
 Zr373 Zr 1.24818 0.74675 0.29788
 Zr374 Zr 1.29299 0.79349 0.25349
 Zr375 Zr 1.20911 0.70499 0.24731
 Zr376 Zr 1.29745 0.70664 0.24908
 O377 O 1.15460 0.70745 0.24687
 O378 O 1.35105 0.71699 0.25137
 O379 O 1.25245 0.70306 0.27301
 O380 O 1.29478 0.74808 0.27589
 O381 O 1.24789 0.79326 0.27701
 O382 O 1.20396 0.74655 0.27345
 C383 C 1.31187 0.70179 0.18620
 C384 C 1.19896 0.69895 0.18421
 C385 C 1.30952 0.80742 0.19220
 O386 O 1.34729 0.79084 0.25715
 O387 O 1.30763 0.81217 0.29217
 O388 O 1.27736 0.77983 0.32271
 C389 C 1.29889 0.80358 0.31658
 O390 O 1.18253 0.81225 0.21546
 Zr391 Zr 1.20473 0.79189 0.25165
 O392 O 1.21429 0.77597 0.32162
 O393 O 1.28683 0.84700 0.25337
 O394 O 1.21140 0.84543 0.25329
 O395 O 1.15065 0.78379 0.25188
 O396 O 1.18614 0.80848 0.28999
 C397 C 1.19269 0.79917 0.31466
 O398 O 1.27576 0.71943 0.32811
 O399 O 1.21536 0.65163 0.24424
 O400 O 1.21659 0.71094 0.31794
 O401 O 1.19100 0.68135 0.28324
 O402 O 1.29315 0.65307 0.24502
 O403 O 1.31589 0.68213 0.28495
 C404 C 1.19652 0.68758 0.30865
 H405 H 1.25495 0.68543 0.21197
 H406 H 1.31486 0.74759 0.28837
 H407 H 1.18233 0.74477 0.28411
 H408 H 1.24906 0.81607 0.21694
 H409 H 1.36338 0.69603 0.24579
 H410 H 1.35585 0.81460 0.25757
 H411 H 1.31017 0.85696 0.25545
 H412 H 1.18879 0.85554 0.25810
 H413 H 1.31643 0.64414 0.24073
 H414 H 1.19194 0.64179 0.24242
 H415 H 1.14612 0.68366 0.24619
 H416 H 1.13961 0.80559 0.25707
 H417 H 1.33639 0.66824 0.28037
 H418 H 1.26617 0.72611 0.34612
 H419 H 1.23753 0.77386 0.15471
 H420 H 1.16622 0.83067 0.22032
 Zr421 Zr 0.74727 1.24812 0.20268
 O422 O 0.77338 1.21949 0.17243
 O423 O 0.71333 1.27744 0.17899
 O424 O 0.71334 1.21472 0.18236
 O425 O 0.81091 1.30951 0.20914
 O426 O 0.68606 1.18601 0.21678
 O427 O 0.77940 1.27905 0.17819
 O428 O 0.68208 1.30661 0.21085
 O429 O 0.70248 1.24765 0.22660
 O430 O 0.74700 1.29403 0.22421
 O431 O 0.75127 1.20458 0.22757
 O432 O 0.79413 1.24909 0.22464
 Zr433 Zr 0.75226 1.25184 0.29781
 Zr434 Zr 0.70769 1.20582 0.25290
 Zr435 Zr 0.79188 1.29415 0.24763
 Zr436 Zr 0.70353 1.29273 0.24900
 O437 O 0.84638 1.29152 0.24742
 O438 O 0.64989 1.28251 0.25102
 O439 O 0.74833 1.29585 0.27317
 O440 O 0.70586 1.25096 0.27558
 O441 O 0.75259 1.20560 0.27664
 O442 O 0.79667 1.25225 0.27356
 C443 C 0.68955 1.29838 0.18610
 C444 C 0.80264 1.30106 0.18460
 C445 C 0.69169 1.19260 0.19143
 O446 O 0.65336 1.20860 0.25624
 O447 O 0.69248 1.18677 0.29139
 O448 O 0.72263 1.21856 0.32229
 C449 C 0.70097 1.19503 0.31592
 O450 O 0.81838 1.18715 0.21525
 Zr451 Zr 0.79596 1.20719 0.25146
 O452 O 0.78592 1.22221 0.32149
 O453 O 0.71374 1.15230 0.25255
 O454 O 0.78911 1.15366 0.25277
 O455 O 0.85006 1.21517 0.25192
 O456 O 0.81429 1.19010 0.28976
 C457 C 0.80758 1.19910 0.31447
 O458 O 0.72454 1.27885 0.32812
 O459 O 0.78579 1.34756 0.24489
 O460 O 0.78378 1.28738 0.31822
 O461 O 0.80972 1.31731 0.28380
 O462 O 0.70806 1.34633 0.24528
 O463 O 0.68487 1.31686 0.28493
 C464 C 0.80397 1.31082 0.30916
 H465 H 0.74639 1.31429 0.21220
 H466 H 0.68566 1.25136 0.28796
 H467 H 0.81822 1.25385 0.28431
 H468 H 0.75188 1.18359 0.21640
 H469 H 0.63765 1.30357 0.24553
 H470 H 0.64472 1.18486 0.25647
 H471 H 0.69036 1.14237 0.25442
 H472 H 0.81164 1.14342 0.25762
 H473 H 0.68486 1.35539 0.24092
 H474 H 0.80925 1.35737 0.24323
 H475 H 0.85494 1.31529 0.24696
 H476 H 0.86103 1.19329 0.25701
 H477 H 0.66448 1.33091 0.28034
 H478 H 0.73398 1.27190 0.34612
 H479 H 0.76405 1.22660 0.15443
 H480 H 0.83460 1.16864 0.22008
 O481 O 0.48055 1.05812 0.03393
 O482 O 0.51873 0.94182 0.03364
 O483 O 0.44055 0.98287 0.03423
 O484 O 0.55887 1.01726 0.03433
 O485 O 0.46058 0.93572 0.01978
 O486 O 0.53874 1.06451 0.02009
 O487 O 0.56593 0.96028 0.01771
 O488 O 0.43339 1.03991 0.01784
 C489 C 0.44919 1.05464 0.03647
 C490 C 0.55007 0.94537 0.03625
 C491 C 0.44511 0.95214 0.03781
 C492 C 0.55441 1.04799 0.03797
 O493 O 0.51860 1.05857 -0.03351
 O494 O 0.48077 0.94213 -0.03381
 O495 O 0.44056 1.01728 -0.03416
 O496 O 0.55900 0.98331 -0.03419
 O497 O 0.53898 0.93599 -0.01996
 O498 O 0.46041 1.06450 -0.01968
 O499 O 0.56582 1.04029 -0.01756
 O500 O 0.43353 0.96020 -0.01775
 Co501 Co 0.49958 1.05555 0.00020
 Co502 Co 0.49976 0.94479 -0.00008
 Co503 Co 0.44324 1.00007 0.00004
 Co504 Co 0.55618 1.00027 0.00007
 O505 O 0.49970 1.00017 0.00006
 C506 C 0.54995 1.05510 -0.03612
 C507 C 0.44940 0.94545 -0.03634
 C508 C 0.44496 1.04805 -0.03770
 C509 C 0.55459 0.95257 -0.03786
 O510 O 0.98127 0.55834 0.53408
 O511 O 1.01808 0.44188 0.53399
 O512 O 0.94074 0.48193 0.53390
 O513 O 1.05865 0.51847 0.53404
 O514 O 0.96014 0.43510 0.51870
 O515 O 1.03924 0.56535 0.51885
 O516 O 1.06556 0.46126 0.51891
 O517 O 0.93384 0.53914 0.51887
 C518 C 0.95004 0.55416 0.53721
 C519 C 1.04929 0.44609 0.53717
 C520 C 0.94474 0.45109 0.53694
 C521 C 1.05470 0.54933 0.53706
 O522 O 1.01756 0.55873 0.46608
 O523 O 0.98196 0.44190 0.46595
 O524 O 0.94071 0.51794 0.46603
 O525 O 1.05900 0.48266 0.46612
 O526 O 1.03998 0.43557 0.48124
 O527 O 0.95953 0.56497 0.48130
 O528 O 1.06517 0.53991 0.48125
 O529 O 0.93429 0.46066 0.48109
 Co530 Co 0.99943 0.55581 0.50008
 Co531 Co 1.00001 0.44465 0.49997
 Co532 Co 0.94348 0.49995 0.49998
 Co533 Co 1.05601 0.50054 0.50008
 O534 O 0.99974 0.50024 0.50003
 C535 C 1.04880 0.55475 0.46291
 C536 C 0.95068 0.44573 0.46281
 C537 C 0.94438 0.54884 0.46301
 C538 C 1.05532 0.45177 0.46304
 O539 O 1.04439 0.48460 0.04636
 O540 O 1.04407 0.51754 -0.04767
 O541 O 1.04289 0.44263 -0.01612
 O542 O 1.04318 0.55905 0.01501
 O543 O 1.02192 0.46054 -0.05327
 O544 O 1.02222 0.54140 0.05224
 O545 O 1.02694 0.56499 -0.03128
 O546 O 1.02711 0.43705 0.03025
 C547 C 1.04897 0.45373 0.04342
 C548 C 1.04857 0.54847 -0.04483
 C549 C 1.04507 0.44486 -0.04111
 C550 C 1.04543 0.55694 0.04001
 O551 O 0.95747 0.51740 0.04648
 O552 O 0.95721 0.48432 -0.04737
 O553 O 0.95847 0.44279 0.01558
 O554 O 0.95850 0.55912 -0.01606
 O555 O 0.97925 0.54125 -0.05328
 O556 O 0.97969 0.46062 0.05261
 O557 O 0.97465 0.56492 0.03014
 O558 O 0.97436 0.43689 -0.03084
 Co559 Co 1.00092 0.50101 0.04428
 Co560 Co 1.00064 0.50091 -0.04527
 Co561 Co 1.00070 0.44570 -0.00029
 Co562 Co 1.00083 0.55615 -0.00053
 O563 O 1.00078 0.50094 -0.00046
 C564 C 0.95285 0.54827 0.04344
 C565 C 0.95261 0.45345 -0.04422
 C566 C 0.95646 0.44488 0.04060
 C567 C 0.95613 0.55684 -0.04103
 O568 O 0.52278 0.95995 0.55258
 O569 O 0.52265 1.03852 0.44803
 O570 O 0.52304 0.93422 0.46904
 O571 O 0.52361 1.06429 0.53163
 O572 O 0.54201 0.98126 0.45366
 O573 O 0.54229 1.01722 0.54716
 O574 O 0.54232 1.05760 0.48545
 O575 O 0.54199 0.94082 0.51501
 C576 C 0.54552 0.94421 0.53988
 C577 C 0.54553 1.05435 0.46053
 C578 C 0.54545 0.95022 0.45603
 C579 C 0.54589 1.04824 0.54470
 O580 O 0.47599 1.03882 0.55251
 O581 O 0.47555 0.95980 0.44843
 O582 O 0.47509 0.93435 0.53212
 O583 O 0.47527 1.06420 0.46881
 O584 O 0.45623 1.01709 0.45371
 O585 O 0.45637 0.98147 0.54742
 O586 O 0.45663 1.05794 0.51496
 O587 O 0.45611 0.94101 0.48606
 Co588 Co 0.49934 0.99936 0.54499
 Co589 Co 0.49912 0.99918 0.45590
 Co590 Co 0.49907 0.94374 0.50054
 Co591 Co 0.49945 1.05488 0.50023
 O592 O 0.49924 0.99929 0.50042
 C593 C 0.45325 1.05464 0.53985
 C594 C 0.45270 0.94418 0.46116
 C595 C 0.45288 0.95040 0.54527
 C596 C 0.45280 1.04814 0.45597
 O597 O 1.06540 1.02572 0.46998
 O598 O 0.93600 1.02543 0.53057
 O599 O 0.95988 1.01978 0.44739
 O600 O 1.04156 1.01990 0.55314
 O601 O 0.94195 1.04089 0.48433
 O602 O 1.05957 1.04100 0.51616
 O603 O 0.98416 1.04205 0.54716
 O604 O 1.01712 1.04221 0.45353
 C605 C 1.04824 1.04717 0.45685
 C606 C 0.95301 1.04684 0.54384
 C607 C 0.94458 1.04306 0.45939
 C608 C 1.05675 1.04325 0.54108
 O609 O 1.06533 0.97308 0.53091
 O610 O 0.93635 0.97291 0.46968
 O611 O 1.04205 0.97886 0.44765
 O612 O 0.95955 0.97854 0.55293
 O613 O 0.94184 0.95755 0.51587
 O614 O 1.05973 0.95771 0.48467
 O615 O 1.01704 0.95636 0.54728
 O616 O 0.98472 0.95636 0.45346
 Co617 Co 1.05668 0.99936 0.50041
 Co618 Co 0.94486 0.99921 0.50013
 Co619 Co 1.00093 0.99929 0.45558
 Co620 Co 1.00060 0.99921 0.54506
 O621 O 1.00077 0.99926 0.50030
 C622 C 1.04827 0.95169 0.54422
 C623 C 0.95354 0.95150 0.45656
 C624 C 1.05714 0.95550 0.45974
 C625 C 0.94448 0.95523 0.54080
 O626 O 0.55899 0.54221 -0.01507
 O627 O 0.44083 0.54192 0.01507
 O628 O 0.48286 0.54281 -0.04690
 O629 O 0.51679 0.54263 0.04675
 O630 O 0.43482 0.52512 -0.03107
 O631 O 0.56493 0.52522 0.03101
 O632 O 0.45921 0.52151 0.05228
 O633 O 0.54060 0.52205 -0.05234
 C634 C 0.55558 0.54525 -0.03992
 C635 C 0.44416 0.54477 0.03995
 C636 C 0.45155 0.54692 -0.04410
 C637 C 0.54806 0.54696 0.04393
 O638 O 0.55896 0.45809 0.01525
 O639 O 0.44102 0.45798 -0.01541
 O640 O 0.51730 0.45764 -0.04691
 O641 O 0.48285 0.45727 0.04659
 O642 O 0.43479 0.47472 0.03070
 O643 O 0.56525 0.47517 -0.03086
 O644 O 0.54036 0.47831 0.05244
 O645 O 0.45964 0.47840 -0.05258
 Co646 Co 0.55606 0.50015 0.00007
 Co647 Co 0.44384 0.49995 -0.00016
 Co648 Co 0.50009 0.50021 -0.04472
 Co649 Co 0.49981 0.49995 0.04454
 O650 O 0.49995 0.50007 -0.00007
 C651 C 0.55562 0.45519 0.04014
 C652 C 0.44450 0.45515 -0.04028
 C653 C 0.54856 0.45343 -0.04393
 C654 C 0.45161 0.45291 0.04361
 C655 C 0.35954 1.08860 0.10834
 C656 C 0.37175 1.09886 0.13734
 C657 C 0.35586 1.13427 0.13300
 C658 C 0.34333 1.12430 0.10435
 C659 C 0.39366 1.10217 0.09662
 C660 C 0.37775 1.13758 0.09232
 C661 C 0.40621 1.11214 0.12527
 C662 C 0.38998 1.14782 0.12127
 C663 C 0.33519 1.15275 0.15315
 C664 C 0.31889 1.16860 0.16979
 C665 C 0.41437 1.08475 0.07590
 C666 C 0.43076 1.07081 0.05826
 H667 H 0.34729 1.06401 0.10279
 H668 H 0.36899 1.08314 0.15607
 H669 H 0.31726 1.12948 0.09597
 H670 H 0.38049 1.15332 0.07360
 H671 H 0.43229 1.10694 0.13363
 H672 H 0.40226 1.17240 0.12680
 C673 C 0.86724 0.62720 0.59159
 C674 C 0.84348 0.60983 0.61290
 C675 C 0.85836 0.63329 0.63504
 C676 C 0.88182 0.65091 0.61403
 C677 C 0.89560 0.60119 0.59827
 C678 C 0.91048 0.62464 0.62041
 C679 C 0.87215 0.58352 0.61926
 C680 C 0.88672 0.60728 0.64176
 C681 C 0.83783 0.65183 0.65526
 C682 C 0.82144 0.66782 0.67176
 C683 C 0.91594 0.58385 0.57726
 C684 C 0.93199 0.57006 0.55934
 H685 H 0.85947 0.63523 0.57073
 H686 H 0.81572 0.60395 0.61002
 H687 H 0.88555 0.67882 0.61206
 H688 H 0.93825 0.63053 0.62327
 H689 H 0.86846 0.55560 0.62119
 H690 H 0.89446 0.59928 0.66263
 C691 C 0.63084 0.91519 0.11597
 C692 C 0.61650 0.89313 0.13968
 C693 C 0.64324 0.86559 0.13280
 C694 C 0.65790 0.88734 0.10944
 C695 C 0.60545 0.89769 0.09640
 C696 C 0.63220 0.87015 0.08955
 C697 C 0.59079 0.87593 0.11977
 C698 C 0.61785 0.84813 0.11322
 C699 C 0.66393 0.84713 0.15295
 C700 C 0.68027 0.83132 0.16958
 C701 C 0.58477 0.91513 0.07568
 C702 C 0.56843 0.92911 0.05803
 H703 H 0.63589 0.94298 0.11688
 H704 H 0.61033 0.90238 0.16054
 H705 H 0.68572 0.89182 0.10542
 H706 H 0.63840 0.86087 0.06871
 H707 H 0.56298 0.87146 0.12379
 H708 H 0.61278 0.82034 0.11229
 C709 C 1.08875 0.37598 0.62075
 C710 C 1.11665 0.34896 0.61429
 C711 C 1.14098 0.36643 0.63470
 C712 C 1.11339 0.39318 0.64150
 C713 C 1.10366 0.39870 0.59808
 C714 C 1.12797 0.41621 0.61847
 C715 C 1.13126 0.37194 0.59133
 C716 C 1.15588 0.38915 0.61203
 C717 C 1.16156 0.34784 0.65486
 C718 C 1.17800 0.33188 0.67134
 C719 C 1.08330 0.41615 0.57714
 C720 C 1.06726 0.43004 0.55927
 H721 H 1.06092 0.37077 0.62411
 H722 H 1.11226 0.32111 0.61277
 H723 H 1.10632 0.40171 0.66237
 H724 H 1.13235 0.44407 0.61996
 H725 H 1.13836 0.36337 0.57046
 H726 H 1.18371 0.39435 0.60866
 C727 C 0.62883 1.08501 -0.11718
 C728 C 0.61478 1.10919 -0.13961
 C729 C 0.64340 1.13478 -0.13256
 C730 C 0.65778 1.11090 -0.11048
 C731 C 0.60542 1.10272 -0.09624
 C732 C 0.63405 1.12831 -0.08923
 C733 C 0.59105 1.12659 -0.11832
 C734 C 0.61998 1.15245 -0.11161
 C735 C 0.66418 1.15319 -0.15268
 C736 C 0.68056 1.16896 -0.16932
 C737 C 0.58467 1.08531 -0.07555
 C738 C 0.56829 1.07135 -0.05791
 H739 H 0.63216 1.05707 -0.11923
 H740 H 0.60716 1.10153 -0.16058
 H741 H 0.68544 1.10468 -0.10749
 H742 H 0.64169 1.13599 -0.06826
 H743 H 0.56338 1.13282 -0.12130
 H744 H 0.61662 1.18038 -0.10953
 C745 C 1.14225 0.59759 0.39851
 C746 C 1.13750 0.59456 0.36717
 C747 C 1.14049 0.63344 0.36486
 C748 C 1.14555 0.63673 0.39586
 C749 C 1.10303 0.60158 0.40165
 C750 C 1.10605 0.64045 0.39930
 C751 C 1.09792 0.59825 0.37066
 C752 C 1.10126 0.63743 0.36799
 C753 C 1.16117 0.65186 0.34467
 C754 C 1.17771 0.66776 0.32820
 C755 C 1.08266 0.58436 0.42270
 C756 C 1.06666 0.57064 0.44068
 H757 H 1.15885 0.58098 0.41131
 H758 H 1.15071 0.57591 0.35374
 H759 H 1.16537 0.65272 0.40600
 H760 H 1.09286 0.65913 0.41272
 H761 H 1.07808 0.58225 0.36055
 H762 H 1.08466 0.65405 0.35520
 C763 C 0.37060 0.91488 -0.11729
 C764 C 0.38471 0.89051 -0.13953
 C765 C 0.35603 0.86499 -0.13236
 C766 C 0.34160 0.88906 -0.11046
 C767 C 0.39392 0.89733 -0.09618
 C768 C 0.36524 0.87181 -0.08904
 C769 C 0.40835 0.87327 -0.11808
 C770 C 0.37937 0.84748 -0.11124
 C771 C 0.33530 0.84649 -0.15245
 C772 C 0.31894 0.83076 -0.16911
 C773 C 0.41465 0.91494 -0.07559
 C774 C 0.43103 0.92905 -0.05804
 H775 H 0.36728 0.94281 -0.11956
 H776 H 0.39244 0.89800 -0.16053
 H777 H 0.31393 0.89533 -0.10754
 H778 H 0.35749 0.86430 -0.06804
 H779 H 0.43602 0.86699 -0.12099
 H780 H 0.38270 0.81956 -0.10895
 C781 C 0.86747 0.37265 0.40893
 C782 C 0.84466 0.38977 0.38689
 C783 C 0.85947 0.36519 0.36553
 C784 C 0.88198 0.34780 0.38726
 C785 C 0.89663 0.39776 0.40206
 C786 C 0.91144 0.37317 0.38069
 C787 C 0.87413 0.41518 0.38033
 C788 C 0.88862 0.39029 0.35862
 C789 C 0.83897 0.34649 0.34539
 C790 C 0.82259 0.33053 0.32888
 C791 C 0.91688 0.41541 0.42293
 C792 C 0.93283 0.42949 0.44076
 H793 H 0.85902 0.36556 0.42985
 H794 H 0.81699 0.39638 0.38923
 H795 H 0.88495 0.31989 0.38991
 H796 H 0.93911 0.36656 0.37836
 H797 H 0.87118 0.44310 0.37771
 H798 H 0.89705 0.39735 0.33769
 C799 C 1.14493 0.37509 0.08308
 C800 C 1.16966 0.39004 0.10494
 C801 C 1.15444 0.36531 0.12613
 C802 C 1.13010 0.35006 0.10461
 C803 C 1.11754 0.40136 0.09143
 C804 C 1.10246 0.37661 0.11265
 C805 C 1.14187 0.41664 0.11295
 C806 C 1.12703 0.39160 0.13440
 C807 C 1.17356 0.34506 0.14628
 C808 C 1.18792 0.32843 0.16361
 C809 C 1.09523 0.42096 0.07301
 C810 C 1.07509 0.43639 0.05888
 H811 H 1.15208 0.36853 0.06176
 H812 H 1.19754 0.39532 0.10199
 H813 H 1.12542 0.32248 0.10137
 H814 H 1.07460 0.37125 0.11568
 H815 H 1.14651 0.44423 0.11618
 H816 H 1.11981 0.39820 0.15569
 C817 C 0.60008 0.87611 0.61395
 C818 C 0.61986 0.84281 0.60780
 C819 C 0.65126 0.85717 0.62309
 C820 C 0.63171 0.89023 0.62946
 C821 C 0.61432 0.89155 0.58735
 C822 C 0.64571 0.90595 0.60262
 C823 C 0.63384 0.85848 0.58091
 C824 C 0.66564 0.87255 0.59653
 C825 C 0.67047 0.83808 0.64388
 C826 C 0.68505 0.82254 0.66173
 C827 C 0.59197 0.91063 0.56863
 C828 C 0.57175 0.92613 0.55464
 H829 H 0.57290 0.87774 0.62096
 H830 H 0.60938 0.81667 0.61014
 H831 H 0.63098 0.90311 0.64963
 H832 H 0.65614 0.93211 0.60027
 H833 H 0.63451 0.84565 0.56072
 H834 H 0.69285 0.87086 0.58960
 C835 C 1.15509 0.60808 -0.09101
 C836 C 1.15968 0.59982 -0.12181
 C837 C 1.15299 0.63744 -0.12869
 C838 C 1.14875 0.64605 -0.09824
 C839 C 1.11620 0.60131 -0.09380
 C840 C 1.10957 0.63894 -0.10071
 C841 C 1.12048 0.59275 -0.12426
 C842 C 1.11410 0.63060 -0.13138
 C843 C 1.17221 0.65772 -0.14889
 C844 C 1.18677 0.67434 -0.16621
 C845 C 1.09410 0.58159 -0.07515
 C846 C 1.07428 0.56602 -0.06074
 H847 H 1.17176 0.59860 -0.07422
 H848 H 1.18050 0.58390 -0.13069
 H849 H 1.16056 0.66819 -0.08771
 H850 H 1.08875 0.65489 -0.09187
 H851 H 1.10868 0.57064 -0.13482
 H852 H 1.09736 0.64004 -0.14815
 C853 C 0.64061 1.09158 0.39315
 C854 C 0.62566 1.11274 0.36922
 C855 C 0.65045 1.14192 0.37642
 C856 C 0.66577 1.12105 0.40008
 C857 C 0.61366 1.10743 0.41234
 C858 C 0.63843 1.13660 0.41963
 C859 C 0.59847 1.12832 0.38865
 C860 C 0.62350 1.15775 0.39562
 C861 C 0.66974 1.16108 0.35559
 C862 C 0.68451 1.17668 0.33780
 C863 C 0.59149 1.08824 0.43127
 C864 C 0.57151 1.07263 0.44549
 H865 H 0.64748 1.06417 0.39232
 H866 H 0.62052 1.10308 0.34831
 H867 H 0.69368 1.11826 0.40457
 H868 H 0.64350 1.14621 0.44056
 H869 H 0.57058 1.13117 0.38408
 H870 H 0.61660 1.18515 0.39644
 C871 C 0.89878 0.62465 0.11300
 C872 C 0.87150 0.65154 0.10489
 C873 C 0.84660 0.63608 0.12596
 C874 C 0.87364 0.60944 0.13430
 C875 C 0.88396 0.60039 0.09136
 C876 C 0.85907 0.58490 0.11242
 C877 C 0.85694 0.62702 0.08294
 C878 C 0.83165 0.61185 0.10435
 C879 C 0.82720 0.65611 0.14608
 C880 C 0.81261 0.67257 0.16339
 C881 C 0.90648 0.58096 0.07298
 C882 C 0.92671 0.56560 0.05889
 H883 H 0.92661 0.62975 0.11642
 H884 H 0.87644 0.67914 0.10199
 H885 H 0.88037 0.60240 0.15561
 H886 H 0.85417 0.55730 0.11532
 H887 H 0.85028 0.63402 0.06161
 H888 H 0.80380 0.60682 0.10100
 C889 C 0.35742 1.13424 0.57986
 C890 C 0.33300 1.11845 0.60162
 C891 C 0.34837 1.14250 0.62319
 C892 C 0.37240 1.15859 0.60179
 C893 C 0.38500 1.10780 0.58747
 C894 C 0.40023 1.13187 0.60907
 C895 C 0.36097 1.09171 0.60887
 C896 C 0.37596 1.11604 0.63070
 C897 C 0.32929 1.16174 0.64397
 C898 C 0.31477 1.17740 0.66178
 C899 C 0.40716 1.08855 0.56872
 C900 C 0.42720 1.07289 0.55468
 H901 H 0.35001 1.14150 0.55874
 H902 H 0.30511 1.11315 0.59879
 H903 H 0.37694 1.18629 0.59909
 H904 H 0.42810 1.13723 0.61198
 H905 H 0.35646 1.06400 0.61158
 H906 H 0.38345 1.10873 0.65179
 C907 C 0.85561 0.37557 -0.08351
 C908 C 0.83182 0.39051 -0.10604
 C909 C 0.84677 0.36474 -0.12647
 C910 C 0.87017 0.34950 -0.10429
 C911 C 0.88395 0.40083 -0.09201
 C912 C 0.89877 0.37503 -0.11248
 C913 C 0.86056 0.41610 -0.11419
 C914 C 0.87513 0.39002 -0.13489
 C915 C 0.82747 0.34449 -0.14650
 C916 C 0.81293 0.32787 -0.16374
 C917 C 0.90636 0.42048 -0.07369
 C918 C 0.92652 0.43598 -0.05964
 H919 H 0.84779 0.36986 -0.06217
 H920 H 0.80405 0.39664 -0.10360
 H921 H 0.87396 0.32191 -0.10040
 H922 H 0.92652 0.36883 -0.11499
 H923 H 0.85680 0.44369 -0.11808
 H924 H 0.88302 0.39578 -0.15621
 C925 C 0.36146 0.90730 0.39147
 C926 C 0.37656 0.88231 0.37017
 C927 C 0.34818 0.85654 0.37747
 C928 C 0.33272 0.88124 0.39851
 C929 C 0.38451 0.89110 0.41346
 C930 C 0.35616 0.86534 0.42086
 C931 C 0.39984 0.86637 0.39238
 C932 C 0.37123 0.84034 0.39945
 C933 C 0.32927 0.83738 0.35655
 C934 C 0.31488 0.82181 0.33863
 C935 C 0.40656 0.91031 0.43232
 C936 C 0.42659 0.92594 0.44640
 H937 H 0.35763 0.93504 0.38840
 H938 H 0.38481 0.88912 0.34914
 H939 H 0.30488 0.88714 0.40080
 H940 H 0.34798 0.85859 0.44192
 H941 H 0.42767 0.86041 0.39002
 H942 H 0.37509 0.81260 0.40252
 C943 C 1.13713 1.11622 0.40447
 C944 C 1.13186 1.11415 0.37320
 C945 C 1.13080 1.15319 0.37196
 C946 C 1.13636 1.15561 0.40297
 C947 C 1.09782 1.11612 0.40825
 C948 C 1.09665 1.15517 0.40710
 C949 C 1.09233 1.11378 0.37722
 C950 C 1.09148 1.15313 0.37570
 C951 C 1.14969 1.17229 0.35115
 C952 C 1.16586 1.18671 0.33364
 C953 C 1.07979 1.09367 0.42731
 C954 C 1.06524 1.07334 0.44163
 H955 H 1.15569 1.10082 0.41653
 H956 H 1.14650 1.09748 0.35904
 H957 H 1.15471 1.17308 0.41327
 H958 H 1.08197 1.17173 0.42131
 H959 H 1.07402 1.09632 0.36685
 H960 H 1.07295 1.16851 0.36361
 C961 C 0.64296 0.61419 -0.09403
 C962 C 0.63534 0.61363 -0.12504
 C963 C 0.63558 0.65272 -0.12523
 C964 C 0.64347 0.65363 -0.09448
 C965 C 0.60400 0.61520 -0.08841
 C966 C 0.60414 0.65429 -0.08851
 C967 C 0.59619 0.61437 -0.11918
 C968 C 0.59661 0.65377 -0.11965
 C969 C 0.65362 0.67206 -0.14642
 C970 C 0.66904 0.68663 -0.16429
 C971 C 0.58660 0.59245 -0.06917
 C972 C 0.57239 0.57183 -0.05487
 H973 H 0.66182 0.59771 -0.08327
 H974 H 0.64832 0.59710 -0.14028
 H975 H 0.66314 0.67004 -0.08460
 H976 H 0.59112 0.67072 -0.07322
 H977 H 0.57654 0.59798 -0.12913
 H978 H 0.57778 0.67025 -0.13044
 C979 C 0.92008 1.13841 0.61369
 C980 C 0.89333 1.16650 0.60683
 C981 C 0.86927 1.15173 0.62881
 C982 C 0.89571 1.12404 0.63596
 C983 C 0.90275 1.11503 0.59263
 C984 C 0.87867 1.10040 0.61465
 C985 C 0.87633 1.14270 0.58541
 C986 C 0.85198 1.12834 0.60775
 C987 C 0.85017 1.17076 0.64953
 C988 C 0.83392 1.18522 0.66695
 C989 C 0.92105 1.09282 0.57357
 C990 C 0.93581 1.07273 0.55919
 H991 H 0.94830 1.14231 0.61586
 H992 H 0.89911 1.19394 0.60391
 H993 H 0.90346 1.11657 0.65695
 H994 H 0.87281 1.07299 0.61766
 H995 H 0.86861 1.15010 0.56439
 H996 H 0.82376 1.12439 0.60556
 C997 C 0.37202 0.60012 0.11128
 C998 C 0.39027 0.62333 0.13225
 C999 C 0.36422 0.65161 0.12570
 C1000 C 0.34574 0.62864 0.10496
 C1001 C 0.39570 0.61426 0.08877
 C1002 C 0.36966 0.64252 0.08213
 C1003 C 0.41421 0.63723 0.10951
 C1004 C 0.38787 0.66591 0.10324
 C1005 C 0.34626 0.67095 0.14691
 C1006 C 0.33091 0.68560 0.16477
 C1007 C 0.41306 0.59164 0.06943
 C1008 C 0.42728 0.57117 0.05502
 H1009 H 0.36564 0.57283 0.11438
 H1010 H 0.39856 0.61562 0.15306
 H1011 H 0.31738 0.62530 0.10336
 H1012 H 0.36141 0.65016 0.06130
 H1013 H 0.44257 0.64053 0.11111
 H1014 H 0.39418 0.69322 0.10023
 C1015 C 1.08260 0.86942 0.61990
 C1016 C 1.10119 0.83525 0.61410
 C1017 C 1.13252 0.84819 0.63026
 C1018 C 1.11420 0.88199 0.63634
 C1019 C 1.09874 0.88436 0.59383
 C1020 C 1.13008 0.89719 0.61004
 C1021 C 1.11703 0.85056 0.58766
 C1022 C 1.14867 0.86312 0.60420
 C1023 C 1.15176 0.82937 0.65108
 C1024 C 1.16807 0.81497 0.66854
 C1025 C 1.08029 0.90622 0.57454
 C1026 C 1.06546 0.92603 0.55991
 H1027 H 1.05521 0.87223 0.62612
 H1028 H 1.08955 0.80954 0.61606
 H1029 H 1.11324 0.89473 0.65656
 H1030 H 1.14179 0.92288 0.60815
 H1031 H 1.11795 0.83790 0.56741
 H1032 H 1.17606 0.86033 0.59800
 C1033 C 0.58740 0.36971 0.11388
 C1034 C 0.60704 0.33615 0.10791
 C1035 C 0.63696 0.34889 0.12576
 C1036 C 0.61759 0.38207 0.13200
 C1037 C 0.60497 0.38612 0.08898
 C1038 C 0.63490 0.39873 0.10687
 C1039 C 0.62431 0.35295 0.08263
 C1040 C 0.65454 0.36528 0.10087
 C1041 C 0.65514 0.32953 0.14690
 C1042 C 0.67056 0.31478 0.16469
 C1043 C 0.58728 0.40861 0.06966
 C1044 C 0.57280 0.42894 0.05525
 H1045 H 0.55959 0.37174 0.11899
 H1046 H 0.59578 0.31019 0.10862
 H1047 H 0.61499 0.39386 0.15250
 H1048 H 0.64622 0.42468 0.10623
 H1049 H 0.62686 0.34124 0.06210
 H1050 H 0.68236 0.36327 0.09577
 C1051 C 0.87904 0.89834 0.38583
 C1052 C 0.89592 0.87510 0.36417
 C1053 C 0.86966 0.84718 0.37126
 C1054 C 0.85252 0.87019 0.39268
 C1055 C 0.90342 0.88351 0.40752
 C1056 C 0.87717 0.85561 0.41469
 C1057 C 0.92059 0.86051 0.38611
 C1058 C 0.89401 0.83221 0.39291
 C1059 C 0.85038 0.82839 0.35052
 C1060 C 0.83399 0.81412 0.33309
 C1061 C 0.92179 0.90556 0.42665
 C1062 C 0.93652 0.92558 0.44111
 H1063 H 0.87305 0.92577 0.38313
 H1064 H 0.90341 0.88292 0.34319
 H1065 H 0.82432 0.87398 0.39512
 H1066 H 0.86971 0.84786 0.43570
 H1067 H 0.94880 0.85677 0.38367
 H1068 H 0.89991 0.80475 0.39553
 C1069 C 0.37182 0.39993 -0.11132
 C1070 C 0.38997 0.37710 -0.13263
 C1071 C 0.36426 0.34851 -0.12602
 C1072 C 0.34586 0.37109 -0.10496
 C1073 C 0.39592 0.38577 -0.08914
 C1074 C 0.37022 0.35720 -0.08245
 C1075 C 0.41434 0.36320 -0.11020
 C1076 C 0.38834 0.33421 -0.10388
 C1077 C 0.34619 0.32920 -0.14719
 C1078 C 0.33077 0.31456 -0.16500
 C1079 C 0.41336 0.40834 -0.06981
 C1080 C 0.42762 0.42877 -0.05539
 H1081 H 0.36517 0.42718 -0.11418
 H1082 H 0.39791 0.38511 -0.15346
 H1083 H 0.31750 0.37414 -0.10305
 H1084 H 0.36232 0.34927 -0.06159
 H1085 H 0.44271 0.36018 -0.11210
 H1086 H 0.39492 0.30693 -0.10112
 C1087 C 1.10202 0.38559 -0.11944
 C1088 C 1.14034 0.39187 -0.12666
 C1089 C 1.14695 0.35341 -0.12436
 C1090 C 1.10888 0.34690 -0.11740
 C1091 C 1.11096 0.38922 -0.08899
 C1092 C 1.11754 0.35076 -0.08667
 C1093 C 1.14903 0.39579 -0.09592
 C1094 C 1.15600 0.35696 -0.09393
 C1095 C 1.16612 0.33396 -0.14494
 C1096 C 1.18122 0.31869 -0.16264
 C1097 C 1.08944 0.40930 -0.07036
 C1098 C 1.07011 0.42571 -0.05626
 H1099 H 1.07963 0.39759 -0.12978
 H1100 H 1.14988 0.40859 -0.14333
 H1101 H 1.09254 0.32662 -0.12643
 H1102 H 1.10796 0.33407 -0.06999
 H1103 H 1.16532 0.41610 -0.08688
 H1104 H 1.17842 0.34493 -0.08366
 C1105 C 0.60504 0.89380 0.37679
 C1106 C 0.64399 0.89868 0.37109
 C1107 C 0.64891 0.85993 0.37302
 C1108 C 0.61022 0.85482 0.37846
 C1109 C 0.61229 0.89636 0.40759
 C1110 C 0.61720 0.85761 0.40952
 C1111 C 0.65098 0.90155 0.40219
 C1112 C 0.65625 0.86243 0.40380
 C1113 C 0.66830 0.83986 0.35295
 C1114 C 0.68341 0.82385 0.33567
 C1115 C 0.59041 0.91638 0.42601
 C1116 C 0.57080 0.93228 0.44025
 H1117 H 0.58380 0.90692 0.36583
 H1118 H 0.65520 0.91537 0.35506
 H1119 H 0.59363 0.83541 0.36852
 H1120 H 0.60597 0.84093 0.42554
 H1121 H 0.66751 0.92099 0.41215
 H1122 H 0.67752 0.84927 0.41470
 C1123 C 0.90503 0.63575 -0.11047
 C1124 C 0.87999 0.62050 -0.13177
 C1125 C 0.85319 0.64759 -0.12396
 C1126 C 0.87797 0.66312 -0.10290
 C1127 C 0.88958 0.61202 -0.08866
 C1128 C 0.86280 0.63910 -0.08075
 C1129 C 0.86480 0.59651 -0.10973
 C1130 C 0.83764 0.62389 -0.10218
 C1131 C 0.83385 0.66689 -0.14453
 C1132 C 0.81865 0.68204 -0.16225
 C1133 C 0.91134 0.59211 -0.07010
 C1134 C 0.93087 0.57583 -0.05608
 H1135 H 0.93297 0.64043 -0.11371
 H1136 H 0.88692 0.61304 -0.15294
 H1137 H 0.88320 0.69071 -0.10031
 H1138 H 0.85595 0.64649 -0.05955
 H1139 H 0.85958 0.56892 -0.11233
 H1140 H 0.80968 0.61925 -0.09900
 C1141 C 0.35886 1.12862 0.41614
 C1142 C 0.37410 1.15396 0.39502
 C1143 C 0.34988 1.13929 0.37317
 C1144 C 0.33426 1.11426 0.39394
 C1145 C 0.38612 1.10230 0.40763
 C1146 C 0.36191 1.08762 0.38578
 C1147 C 0.40163 1.12735 0.38683
 C1148 C 0.37717 1.11295 0.36474
 C1149 C 0.33073 1.15966 0.35314
 C1150 C 0.31582 1.17589 0.33588
 C1151 C 0.40786 1.08206 0.42600
 C1152 C 0.42742 1.06606 0.44021
 H1153 H 0.35153 1.13480 0.43749
 H1154 H 0.37894 1.18144 0.39861
 H1155 H 0.30631 1.10914 0.39665
 H1156 H 0.35710 1.06013 0.38218
 H1157 H 0.42957 1.13253 0.38406
 H1158 H 0.38456 1.10672 0.34341
 C1159 C 1.13655 0.59671 0.10884
 C1160 C 1.16325 0.62469 0.10157
 C1161 C 1.14737 0.64768 0.12364
 C1162 C 1.12102 0.61999 0.13116
 C1163 C 1.11148 0.61223 0.08796
 C1164 C 1.09570 0.63525 0.11006
 C1165 C 1.13781 0.63991 0.08034
 C1166 C 1.12231 0.66322 0.10277
 C1167 C 1.16647 0.66691 0.14439
 C1168 C 1.18152 0.68201 0.16221
 C1169 C 1.08997 0.59234 0.06921
 C1170 C 1.07059 0.57603 0.05508
 H1171 H 1.14222 0.56916 0.11112
 H1172 H 1.19127 0.62058 0.09831
 H1173 H 1.11425 0.61199 0.15226
 H1174 H 1.06770 0.63940 0.11339
 H1175 H 1.14451 0.64785 0.05922
 H1176 H 1.11662 0.69077 0.10051
 C1177 C 0.59736 1.12766 0.61363
 C1178 C 0.62151 1.11313 0.63590
 C1179 C 0.64917 1.13912 0.62744
 C1180 C 0.62527 1.15392 0.60541
 C1181 C 0.61269 1.10232 0.59303
 C1182 C 0.64033 1.12829 0.58449
 C1183 C 0.63658 1.08751 0.61507
 C1184 C 0.66461 1.11380 0.60687
 C1185 C 0.66849 1.15940 0.64742
 C1186 C 0.68356 1.17557 0.66462
 C1187 C 0.59086 1.08215 0.57468
 C1188 C 0.57127 1.06618 0.56047
 H1189 H 0.56947 1.13316 0.61627
 H1190 H 0.61390 1.10710 0.65724
 H1191 H 0.62079 1.18143 0.60164
 H1192 H 0.64787 1.13427 0.56314
 H1193 H 0.64104 1.06000 0.61884
 H1194 H 0.69251 1.10835 0.60430
 C1195 C 0.86345 0.36247 0.08122
 C1196 C 0.87883 0.33776 0.10275
 C1197 C 0.85487 0.35315 0.12449
 C1198 C 0.83913 0.37754 0.10332
 C1199 C 0.89088 0.38901 0.08898
 C1200 C 0.86692 0.40438 0.11073
 C1201 C 0.90654 0.36460 0.11019
 C1202 C 0.88232 0.37971 0.13216
 C1203 C 0.83561 0.33365 0.14511
 C1204 C 0.82036 0.31831 0.16278
 C1205 C 0.91234 0.40913 0.07019
 C1206 C 0.93155 0.42559 0.05594
 H1207 H 0.85588 0.35561 0.06007
 H1208 H 0.88358 0.31017 0.09968
 H1209 H 0.81117 0.38265 0.10070
 H1210 H 0.86218 0.43197 0.11383
 H1211 H 0.93448 0.35944 0.11286
 H1212 H 0.88996 0.38662 0.15330
 C1213 C 0.40166 0.87694 0.61899
 C1214 C 0.37220 0.89080 0.63715
 C1215 C 0.35005 0.85987 0.62926
 C1216 C 0.37928 0.84575 0.61134
 C1217 C 0.38655 0.89645 0.59453
 C1218 C 0.36443 0.86553 0.58657
 C1219 C 0.35733 0.91060 0.61244
 C1220 C 0.33483 0.87935 0.60482
 C1221 C 0.33063 0.83970 0.64938
 C1222 C 0.31542 0.82361 0.66665
 C1223 C 0.40830 0.91654 0.57591
 C1224 C 0.42773 0.93246 0.56143
 H1225 H 0.42936 0.87613 0.62469
 H1226 H 0.37527 0.90101 0.65815
 H1227 H 0.38815 0.81889 0.61106
 H1228 H 0.36140 0.85535 0.56556
 H1229 H 0.34849 0.93747 0.61272
 H1230 H 0.30712 0.88011 0.59918
 C1231 C 0.41353 1.12448 -0.11955
 C1232 C 0.39022 1.10963 -0.14235
 C1233 C 0.36286 1.13663 -0.13560
 C1234 C 0.38586 1.15177 -0.11316
 C1235 C 0.39618 1.10047 -0.09890
 C1236 C 0.36881 1.12748 -0.09220
 C1237 C 0.37318 1.08531 -0.12134
 C1238 C 0.34554 1.11262 -0.11494
 C1239 C 0.34393 1.15683 -0.15577
 C1240 C 0.32805 1.17333 -0.17225
 C1241 C 0.41424 1.08084 -0.07789
 C1242 C 0.42857 1.06539 -0.05993
 H1243 H 0.44170 1.12909 -0.12122
 H1244 H 0.39881 1.10256 -0.16323
 H1245 H 0.39084 1.17932 -0.11001
 H1246 H 0.36019 1.13459 -0.07134
 H1247 H 0.36820 1.05776 -0.12448
 H1248 H 0.31737 1.10800 -0.11325
 C1249 C 0.91160 0.62626 0.38223
 C1250 C 0.88882 0.61128 0.35917
 C1251 C 0.86083 0.63760 0.36601
 C1252 C 0.88331 0.65289 0.38873
 C1253 C 0.89457 0.60162 0.40256
 C1254 C 0.86658 0.62795 0.40936
 C1255 C 0.87210 0.58631 0.37985
 C1256 C 0.84383 0.61295 0.38634
 C1257 C 0.84181 0.65764 0.34581
 C1258 C 0.82602 0.67398 0.32918
 C1259 C 0.91294 0.58200 0.42339
 C1260 C 0.92758 0.56645 0.44113
 H1261 H 0.93968 0.63147 0.38078
 H1262 H 0.89774 0.60468 0.33829
 H1263 H 0.88768 0.68049 0.39216
 H1264 H 0.85763 0.63457 0.43024
 H1265 H 0.86774 0.55872 0.37643
 H1266 H 0.81575 0.60774 0.38782
 C1267 C 0.62896 1.12943 0.09187
 C1268 C 0.61200 1.15150 0.11436
 C1269 C 0.63749 1.13669 0.13523
 C1270 C 0.65472 1.11491 0.11304
 C1271 C 0.60382 1.10042 0.09882
 C1272 C 0.62931 1.08560 0.11968
 C1273 C 0.58656 1.12219 0.12100
 C1274 C 0.61236 1.10769 0.14221
 C1275 C 0.65656 1.15691 0.15528
 C1276 C 0.67250 1.17339 0.17174
 C1277 C 0.58554 1.08075 0.07797
 C1278 C 0.57102 1.06529 0.06011
 H1279 H 0.63560 1.13815 0.07094
 H1280 H 0.60512 1.17881 0.11238
 H1281 H 0.68294 1.11217 0.10996
 H1282 H 0.63619 1.05828 0.12165
 H1283 H 0.55833 1.12492 0.12405
 H1284 H 0.60575 1.09900 0.16316
 C1285 C 1.13015 0.63144 0.58986
 C1286 C 1.11329 0.65398 0.61210
 C1287 C 1.13854 0.63923 0.63317
 C1288 C 1.15568 0.61699 0.61123
 C1289 C 1.10472 0.60276 0.59700
 C1290 C 1.12997 0.58801 0.61807
 C1291 C 1.08756 0.62499 0.61893
 C1292 C 1.11311 0.61056 0.64034
 C1293 C 1.15757 0.65945 0.65323
 C1294 C 1.17334 0.67581 0.66986
 C1295 C 1.08628 0.58286 0.57639
 C1296 C 1.07158 0.56711 0.55881
 H1297 H 1.13696 0.63980 0.56886
 H1298 H 1.10667 0.68132 0.60985
 H1299 H 1.18390 0.61396 0.60827
 H1300 H 1.13659 0.56066 0.62031
 H1301 H 1.05933 0.62801 0.62187
 H1302 H 1.10633 0.60222 0.66135
 C1303 C 0.63009 0.87246 -0.09226
 C1304 C 0.61303 0.84932 -0.11399
 C1305 C 0.63726 0.86441 -0.13569
 C1306 C 0.65458 0.88727 -0.11426
 C1307 C 0.60379 0.90048 -0.09903
 C1308 C 0.62802 0.91559 -0.12073
 C1309 C 0.58644 0.87763 -0.12045
 C1310 C 0.61098 0.89242 -0.14250
 C1311 C 0.65624 0.84421 -0.15583
 C1312 C 0.67213 0.82766 -0.17228
 C1313 C 0.58561 0.92003 -0.07804
 C1314 C 0.57116 0.93538 -0.06009
 H1315 H 0.63776 0.86448 -0.07137
 H1316 H 0.60710 0.82186 -0.11142
 H1317 H 0.68281 0.89099 -0.11191
 H1318 H 0.63395 0.94306 -0.12327
 H1319 H 0.55821 0.87392 -0.12278
 H1320 H 0.60333 0.90037 -0.16341
 C1321 C 1.09149 0.38970 0.37443
 C1322 C 1.12664 0.39982 0.36166
 C1323 C 1.13955 0.36329 0.36625
 C1324 C 1.10473 0.35285 0.37867
 C1325 C 1.10561 0.39919 0.40272
 C1326 C 1.11854 0.36266 0.40729
 C1327 C 1.14044 0.40963 0.39030
 C1328 C 1.15364 0.37280 0.39455
 C1329 C 1.15864 0.34327 0.34608
 C1330 C 1.17442 0.32692 0.32945
 C1331 C 1.08709 0.41876 0.42351
 C1332 C 1.07231 0.43424 0.44120
 H1333 H 1.06574 0.39689 0.36639
 H1334 H 1.13020 0.41487 0.34266
 H1335 H 1.09028 0.32926 0.37369
 H1336 H 1.11499 0.34759 0.42628
 H1337 H 1.15489 0.43321 0.39529
 H1338 H 1.17938 0.36561 0.40261
 C1339 C 0.41425 0.87623 0.12015
 C1340 C 0.39053 0.89102 0.14271
 C1341 C 0.36360 0.86356 0.13604
 C1342 C 0.38701 0.84847 0.11383
 C1343 C 0.39676 0.89973 0.09923
 C1344 C 0.36982 0.87226 0.09260
 C1345 C 0.37336 0.91484 0.12143
 C1346 C 0.34615 0.88707 0.11511
 C1347 C 0.34471 0.84335 0.15622
 C1348 C 0.32880 0.82681 0.17267
 C1349 C 0.41469 0.91934 0.07814
 C1350 C 0.42889 0.93478 0.06011
 H1351 H 0.44247 0.87206 0.12197
 H1352 H 0.39883 0.89847 0.16357
 H1353 H 0.39239 0.82096 0.11092
 H1354 H 0.36150 0.86478 0.07176
 H1355 H 0.36798 0.94235 0.12432
 H1356 H 0.31794 0.89126 0.11325
 C1357 C 0.86782 0.37088 0.59036
 C1358 C 0.88459 0.34670 0.61152
 C1359 C 0.86121 0.36187 0.63372
 C1360 C 0.84417 0.38575 0.61286
 C1361 C 0.89503 0.39797 0.59726
 C1362 C 0.87166 0.41316 0.61946
 C1363 C 0.91211 0.37410 0.61811
 C1364 C 0.88842 0.38896 0.64066
 C1365 C 0.84215 0.34182 0.65388
 C1366 C 0.82632 0.32551 0.67052
 C1367 C 0.91341 0.41768 0.57649
 C1368 C 0.92802 0.43333 0.55879
 H1369 H 0.85956 0.36369 0.56943
 H1370 H 0.88966 0.31916 0.60848
 H1371 H 0.81602 0.39028 0.61092
 H1372 H 0.86659 0.44070 0.62248
 H1373 H 0.94026 0.36959 0.62003
 H1374 H 0.89666 0.39612 0.66159
 C1375 C 1.08992 1.13521 0.61018
 C1376 C 1.11385 1.12116 0.63283
 C1377 C 1.14049 1.14870 0.62569
 C1378 C 1.11687 1.16314 0.60331
 C1379 C 1.10755 1.11147 0.58954
 C1380 C 1.13419 1.13899 0.58231
 C1381 C 1.13121 1.09715 0.61195
 C1382 C 1.15811 1.12495 0.60505
 C1383 C 1.15890 1.16822 0.64651
 C1384 C 1.17414 1.18331 0.66415
 C1385 C 1.08929 1.08912 0.57056
 C1386 C 1.07435 1.06904 0.55628
 H1387 H 1.06168 1.13920 0.61203
 H1388 H 1.10570 1.11402 0.65382
 H1389 H 1.11121 1.19054 0.60004
 H1390 H 1.14229 1.14605 0.56130
 H1391 H 1.13693 1.06978 0.61529
 H1392 H 1.18635 1.12094 0.60321
 C1393 C 0.62663 0.64132 0.08490
 C1394 C 0.61058 0.66545 0.10654
 C1395 C 0.63481 0.65025 0.12817
 C1396 C 0.65117 0.62652 0.10690
 C1397 C 0.59979 0.61417 0.09255
 C1398 C 0.62405 0.59911 0.11422
 C1399 C 0.58340 0.63789 0.11382
 C1400 C 0.60796 0.62309 0.13574
 C1401 C 0.65446 0.66915 0.14861
 C1402 C 0.67073 0.68381 0.16588
 C1403 C 0.58068 0.59237 0.07372
 C1404 C 0.56545 0.57258 0.05940
 H1405 H 0.63401 0.64855 0.06376
 H1406 H 0.60531 0.69299 0.10367
 H1407 H 0.67925 0.62205 0.10432
 H1408 H 0.62938 0.57158 0.11716
 H1409 H 0.55532 0.64233 0.11639
 H1410 H 0.60053 0.61579 0.15686
 C1411 C 1.09190 0.87406 0.38462
 C1412 C 1.12457 0.88538 0.36889
 C1413 C 1.14089 0.85053 0.37477
 C1414 C 1.10847 0.83886 0.39023
 C1415 C 1.10805 0.88752 0.41115
 C1416 C 1.12433 0.85268 0.41714
 C1417 C 1.14047 0.89911 0.39565
 C1418 C 1.15708 0.86397 0.40130
 C1419 C 1.15924 0.83116 0.35383
 C1420 C 1.17444 0.81617 0.33610
 C1421 C 1.08980 0.90974 0.43024
 C1422 C 1.07483 0.92975 0.44456
 H1423 H 1.06489 0.87843 0.37800
 H1424 H 1.12485 0.89862 0.34884
 H1425 H 1.09554 0.81384 0.38772
 H1426 H 1.12399 0.83952 0.43722
 H1427 H 1.15345 0.92411 0.39811
 H1428 H 1.18411 0.85960 0.40788
 C1429 C 0.62790 0.35977 -0.08495
 C1430 C 0.61181 0.33507 -0.10615
 C1431 C 0.63545 0.35027 -0.12822
 C1432 C 0.65185 0.37457 -0.10739
 C1433 C 0.60056 0.38640 -0.09255
 C1434 C 0.62423 0.40147 -0.11465
 C1435 C 0.58414 0.36211 -0.11338
 C1436 C 0.60811 0.37692 -0.13574
 C1437 C 0.65501 0.33131 -0.14868
 C1438 C 0.67121 0.31657 -0.16597
 C1439 C 0.58146 0.40819 -0.07370
 C1440 C 0.56614 0.42792 -0.05939
 H1441 H 0.63576 0.35298 -0.06384
 H1442 H 0.60698 0.30750 -0.10295
 H1443 H 0.67991 0.37948 -0.10519
 H1444 H 0.62914 0.42902 -0.11794
 H1445 H 0.55608 0.35723 -0.11558
 H1446 H 0.60021 0.38378 -0.15684
 C1447 C 0.91033 1.13445 0.38994
 C1448 C 0.88651 1.12012 0.36734
 C1449 C 0.85962 1.14742 0.37440
 C1450 C 0.88315 1.16212 0.39673
 C1451 C 0.89294 1.11057 0.41067
 C1452 C 0.86606 1.13785 0.41782
 C1453 C 0.86939 1.09598 0.38831
 C1454 C 0.84224 1.12354 0.39513
 C1455 C 0.84108 1.16681 0.35353
 C1456 C 0.82580 1.18190 0.33586
 C1457 C 0.91147 1.08848 0.42974
 C1458 C 0.92666 1.06862 0.44410
 H1459 H 0.93853 1.13871 0.38805
 H1460 H 0.89471 1.11301 0.34637
 H1461 H 0.88858 1.18958 0.39991
 H1462 H 0.85791 1.14490 0.43881
 H1463 H 0.86390 1.06855 0.38506
 H1464 H 0.81404 1.11926 0.39701
 C1465 C 0.41528 0.63822 -0.11375
 C1466 C 0.39151 0.62324 -0.13612
 C1467 C 0.36380 0.64950 -0.12854
 C1468 C 0.38725 0.66487 -0.10646
 C1469 C 0.39919 0.61361 -0.09294
 C1470 C 0.37149 0.63985 -0.08529
 C1471 C 0.37571 0.59836 -0.11506
 C1472 C 0.34773 0.62488 -0.10773
 C1473 C 0.34401 0.66839 -0.14895
 C1474 C 0.32771 0.68315 -0.16619
 C1475 C 0.41853 0.59197 -0.07409
 C1476 C 0.43396 0.57236 -0.05970
 H1477 H 0.44327 0.64348 -0.11597
 H1478 H 0.39950 0.61659 -0.15723
 H1479 H 0.39172 0.69248 -0.10320
 H1480 H 0.36353 0.64644 -0.06416
 H1481 H 0.37116 0.57077 -0.11839
 H1482 H 0.31974 0.61958 -0.10551
 C1483 C 0.86659 0.85957 0.58184
 C1484 C 0.88366 0.83554 0.60308
 C1485 C 0.85982 0.85016 0.62523
 C1486 C 0.84244 0.87378 0.60436
 C1487 C 0.89318 0.88710 0.58907
 C1488 C 0.86931 0.90159 0.61125
 C1489 C 0.91056 0.86348 0.60994
 C1490 C 0.88642 0.87771 0.63237
 C1491 C 0.84121 0.83087 0.64609
 C1492 C 0.82584 0.81600 0.66381
 C1493 C 0.91166 0.90935 0.57012
 C1494 C 0.92675 0.92942 0.55590
 H1495 H 0.85871 0.85239 0.56082
 H1496 H 0.88931 0.80811 0.60002
 H1497 H 0.81422 0.87781 0.60234
 H1498 H 0.86359 0.92900 0.61440
 H1499 H 0.93878 0.85948 0.61197
 H1500 H 0.89435 0.88497 0.65336
 C1501 C 0.41647 0.36342 0.11446
 C1502 C 0.39031 0.37801 0.13528
 C1503 C 0.36511 0.34933 0.12787
 C1504 C 0.39094 0.33435 0.10735
 C1505 C 0.39994 0.38543 0.09208
 C1506 C 0.37474 0.35676 0.08459
 C1507 C 0.37407 0.40028 0.11264
 C1508 C 0.34859 0.37134 0.10549
 C1509 C 0.34555 0.33050 0.14842
 C1510 C 0.32932 0.31593 0.16579
 C1511 C 0.41896 0.40729 0.07322
 C1512 C 0.43418 0.42717 0.05895
 H1513 H 0.44460 0.36041 0.11788
 H1514 H 0.39647 0.38655 0.15633
 H1515 H 0.39760 0.30697 0.10547
 H1516 H 0.36863 0.34830 0.06351
 H1517 H 0.36735 0.42763 0.11459
 H1518 H 0.32046 0.37438 0.10208
   
