data_POSCAR
  _audit_creation_date              2014-09-24
  _audit_creation_method            'ToBaCCo'
  _symmetry_space_group_name_H-M    'P1'
  _symmetry_Int_Tables_number       1
  _symmetry_cell_setting            triclinic
  loop_
  _symmetry_equiv_pos_as_xyz
 x,y,z
_cell_length_a 73.8245
_cell_length_b 73.8882
_cell_length_c 74.1844
_cell_angle_alpha 89.961000
_cell_angle_beta 89.961600
_cell_angle_gamma 89.919800
loop_
  _atom_site_label
  _atom_site_type_symbol
  _atom_site_fract_x
  _atom_site_fract_y
  _atom_site_fract_z
N1 N 0.36469 0.31370 0.32684
 N2 N 0.36520 0.32692 0.31497
 C3 C 0.37939 0.32430 0.30384
 C4 C 0.38813 0.30858 0.30902
 C5 C 0.37845 0.30218 0.32362
 H6 H 0.38315 0.33314 0.29283
 H7 H 0.38145 0.29024 0.33152
 Cu8 Cu 0.34731 0.34628 0.31535
 Cu9 Cu 0.34689 0.31291 0.34619
 Cu10 Cu 0.31551 0.34785 0.34778
 N11 N 0.32885 0.36510 0.31565
 N12 N 0.31680 0.36592 0.32869
 C13 C 0.30589 0.38027 0.32593
 C14 C 0.31130 0.38878 0.31024
 C15 C 0.32588 0.37882 0.30403
 H16 H 0.29468 0.38408 0.33453
 H17 H 0.33371 0.38142 0.29198
 N18 N 0.31635 0.32819 0.36574
 N19 N 0.32792 0.31458 0.36479
 C20 C 0.32465 0.30305 0.37849
 C21 C 0.31043 0.30980 0.38855
 C22 C 0.30551 0.32575 0.38015
 H23 H 0.33212 0.29073 0.38110
 H24 H 0.29469 0.33477 0.38418
 H25 H 0.32685 0.32721 0.33275
 H26 H 0.34252 0.34051 0.34737
 N27 N 0.36588 0.81495 -0.17358
 N28 N 0.36500 0.82694 -0.18667
 C29 C 0.37870 0.82393 -0.19833
 C30 C 0.38870 0.80936 -0.19208
 C31 C 0.38019 0.80401 -0.17636
 H32 H 0.38142 0.83189 -0.21027
 H33 H 0.38412 0.79298 -0.16760
 Cu34 Cu 0.34645 0.84570 -0.18642
 Cu35 Cu 0.34842 0.81423 -0.15387
 Cu36 Cu 0.31595 0.84827 -0.15303
 N37 N 0.32807 0.86463 -0.18616
 N38 N 0.31661 0.86590 -0.17263
 C39 C 0.30583 0.88038 -0.17519
 C40 C 0.31070 0.88855 -0.19126
 C41 C 0.32484 0.87820 -0.19791
 H42 H 0.29510 0.88453 -0.16615
 H43 H 0.33233 0.88056 -0.21022
 N44 N 0.31748 0.82909 -0.13455
 N45 N 0.32956 0.81590 -0.13511
 C46 C 0.32659 0.80454 -0.12120
 C47 C 0.31204 0.81096 -0.11140
 C48 C 0.30662 0.82654 -0.12016
 H49 H 0.33438 0.79246 -0.11838
 H50 H 0.29538 0.83517 -0.11647
 H51 H 0.32739 0.82699 -0.16715
 H52 H 0.34310 0.84162 -0.15396
 N53 N 0.86468 0.31505 -0.17305
 N54 N 0.86378 0.32698 -0.18618
 C55 C 0.87756 0.32403 -0.19775
 C56 C 0.88761 0.30957 -0.19143
 C57 C 0.87909 0.30420 -0.17574
 H58 H 0.88027 0.33193 -0.20973
 H59 H 0.88309 0.29322 -0.16696
 Cu60 Cu 0.84507 0.34556 -0.18659
 Cu61 Cu 0.84712 0.31433 -0.15353
 Cu62 Cu 0.81490 0.34838 -0.15253
 N63 N 0.82702 0.36476 -0.18553
 N64 N 0.81569 0.36612 -0.17191
 C65 C 0.80506 0.38074 -0.17433
 C66 C 0.80990 0.38889 -0.19041
 C67 C 0.82388 0.37841 -0.19718
 H68 H 0.79443 0.38498 -0.16522
 H69 H 0.83123 0.38065 -0.20959
 N70 N 0.81622 0.32910 -0.13423
 N71 N 0.82824 0.31587 -0.13485
 C72 C 0.82517 0.30441 -0.12104
 C73 C 0.81061 0.31081 -0.11125
 C74 C 0.80528 0.32649 -0.11991
 H75 H 0.83292 0.29230 -0.11828
 H76 H 0.79406 0.33514 -0.11621
 H77 H 0.82606 0.32719 -0.16689
 H78 H 0.84207 0.34192 -0.15404
 N79 N 0.86540 0.81482 0.32679
 N80 N 0.86449 0.82682 0.31372
 C81 C 0.87822 0.82392 0.30209
 C82 C 0.88823 0.80938 0.30830
 C83 C 0.87976 0.80395 0.32399
 H84 H 0.88098 0.83193 0.29019
 H85 H 0.88379 0.79294 0.33273
 Cu86 Cu 0.84588 0.84546 0.31402
 Cu87 Cu 0.84802 0.81414 0.34659
 Cu88 Cu 0.81559 0.84824 0.34755
 N89 N 0.82764 0.86446 0.31433
 N90 N 0.81623 0.86578 0.32789
 C91 C 0.80551 0.88030 0.32537
 C92 C 0.81039 0.88843 0.30930
 C93 C 0.82447 0.87804 0.30261
 H94 H 0.79484 0.88453 0.33445
 H95 H 0.83192 0.88036 0.29027
 N96 N 0.81718 0.82908 0.36602
 N97 N 0.82924 0.81586 0.36542
 C98 C 0.82624 0.80448 0.37931
 C99 C 0.81170 0.81091 0.38912
 C100 C 0.80631 0.82652 0.38039
 H101 H 0.83399 0.79237 0.38209
 H102 H 0.79506 0.83514 0.38408
 H103 H 0.82686 0.82694 0.33347
 H104 H 0.84270 0.84159 0.34649
 N105 N 0.63599 0.68674 0.32709
 N106 N 0.63554 0.67354 0.31521
 C107 C 0.62135 0.67614 0.30410
 C108 C 0.61257 0.69183 0.30927
 C109 C 0.62221 0.69824 0.32386
 H110 H 0.61758 0.66730 0.29312
 H111 H 0.61919 0.71017 0.33176
 Cu112 Cu 0.65352 0.65428 0.31561
 Cu113 Cu 0.65374 0.68753 0.34646
 Cu114 Cu 0.68514 0.65259 0.34811
 N115 N 0.67188 0.63539 0.31595
 N116 N 0.68389 0.63454 0.32902
 C117 C 0.69476 0.62017 0.32629
 C118 C 0.68936 0.61166 0.31063
 C119 C 0.67483 0.62165 0.30437
 H120 H 0.70595 0.61634 0.33490
 H121 H 0.66701 0.61902 0.29234
 N122 N 0.68425 0.67225 0.36605
 N123 N 0.67267 0.68586 0.36508
 C124 C 0.67593 0.69739 0.37876
 C125 C 0.69014 0.69067 0.38882
 C126 C 0.69509 0.67472 0.38045
 H127 H 0.66846 0.70973 0.38133
 H128 H 0.70592 0.66573 0.38447
 H129 H 0.67390 0.67330 0.33315
 H130 H 0.65815 0.65992 0.34765
 N131 N 0.63524 0.18594 -0.17292
 N132 N 0.63468 0.17266 -0.18470
 C133 C 0.62049 0.17527 -0.19581
 C134 C 0.61181 0.19104 -0.19073
 C135 C 0.62151 0.19749 -0.17619
 H136 H 0.61668 0.16637 -0.20673
 H137 H 0.61853 0.20946 -0.16834
 Cu138 Cu 0.65255 0.15327 -0.18430
 Cu139 Cu 0.65305 0.18678 -0.15362
 Cu140 Cu 0.68437 0.15183 -0.15190
 N141 N 0.67111 0.13451 -0.18398
 N142 N 0.68307 0.13365 -0.17087
 C143 C 0.69395 0.11927 -0.17355
 C144 C 0.68871 0.11082 -0.18933
 C145 C 0.67419 0.12086 -0.19564
 H146 H 0.70506 0.11541 -0.16485
 H147 H 0.66642 0.11833 -0.20773
 N148 N 0.68357 0.17157 -0.13404
 N149 N 0.67201 0.18518 -0.13504
 C150 C 0.67524 0.19672 -0.12137
 C151 C 0.68944 0.19000 -0.11129
 C152 C 0.69437 0.17402 -0.11962
 H153 H 0.66774 0.20903 -0.11879
 H154 H 0.70513 0.16498 -0.11552
 H155 H 0.67297 0.17238 -0.16700
 H156 H 0.65731 0.15914 -0.15225
 N157 N 0.13503 0.68603 -0.17192
 N158 N 0.13435 0.67251 -0.18341
 C159 C 0.11997 0.67483 -0.19437
 C160 C 0.11134 0.69071 -0.18952
 C161 C 0.12124 0.69748 -0.17525
 H162 H 0.11612 0.66579 -0.20516
 H163 H 0.11848 0.70973 -0.16777
 Cu164 Cu 0.15270 0.65358 -0.18307
 Cu165 Cu 0.15339 0.68756 -0.15312
 Cu166 Cu 0.18576 0.65343 -0.15211
 N167 N 0.17105 0.63466 -0.18272
 N168 N 0.18416 0.63492 -0.17073
 C169 C 0.19541 0.62090 -0.17377
 C170 C 0.18895 0.61131 -0.18837
 C171 C 0.17344 0.62034 -0.19371
 H172 H 0.20742 0.61790 -0.16597
 H173 H 0.16479 0.61688 -0.20495
 N174 N 0.18505 0.67337 -0.13451
 N175 N 0.17300 0.68659 -0.13514
 C176 C 0.17622 0.69817 -0.12149
 C177 C 0.19086 0.69183 -0.11179
 C178 C 0.19613 0.67612 -0.12037
 H179 H 0.16835 0.71017 -0.11860
 H180 H 0.20722 0.66736 -0.11654
 H181 H 0.17330 0.67357 -0.16689
 H182 H 0.15857 0.66011 -0.15146
 N183 N 0.13491 0.18602 0.32730
 N184 N 0.13581 0.17398 0.31427
 C185 C 0.12207 0.17685 0.30265
 C186 C 0.11206 0.19140 0.30883
 C187 C 0.12055 0.19688 0.32448
 H188 H 0.11931 0.16882 0.29079
 H189 H 0.11652 0.20792 0.33318
 Cu190 Cu 0.15442 0.15536 0.31457
 Cu191 Cu 0.15234 0.18676 0.34703
 Cu192 Cu 0.18484 0.15272 0.34796
 N193 N 0.17264 0.13637 0.31489
 N194 N 0.18418 0.13515 0.32834
 C195 C 0.19494 0.12067 0.32577
 C196 C 0.18991 0.11244 0.30983
 C197 C 0.17574 0.12272 0.30324
 H198 H 0.20571 0.11649 0.33474
 H199 H 0.16818 0.12028 0.29101
 N200 N 0.18326 0.17190 0.36640
 N201 N 0.17117 0.18509 0.36582
 C202 C 0.17419 0.19649 0.37967
 C203 C 0.18876 0.19009 0.38944
 C204 C 0.19415 0.17448 0.38073
 H205 H 0.16642 0.20859 0.38245
 H206 H 0.20541 0.16587 0.38440
 H207 H 0.17349 0.17397 0.33387
 H208 H 0.15771 0.15933 0.34700
 N209 N 0.63428 0.31466 0.67200
 N210 N 0.63406 0.32757 0.68419
 C211 C 0.61995 0.32486 0.69540
 C212 C 0.61100 0.30939 0.68998
 C213 C 0.62044 0.30323 0.67512
 H214 H 0.61646 0.33340 0.70672
 H215 H 0.61736 0.29141 0.66710
 Cu216 Cu 0.65241 0.34646 0.68437
 Cu217 Cu 0.65230 0.31375 0.65285
 Cu218 Cu 0.68538 0.34698 0.65305
 N219 N 0.67142 0.36471 0.68464
 N220 N 0.68405 0.36499 0.67214
 C221 C 0.69521 0.37903 0.67517
 C222 C 0.68935 0.38795 0.69045
 C223 C 0.67424 0.37852 0.69617
 H224 H 0.70682 0.38247 0.66696
 H225 H 0.66588 0.38163 0.70775
 N226 N 0.68444 0.32760 0.63487
 N227 N 0.67166 0.31512 0.63463
 C228 C 0.67449 0.30407 0.62047
 C229 C 0.68984 0.30979 0.61151
 C230 C 0.69584 0.32470 0.62096
 H231 H 0.66611 0.29261 0.61697
 H232 H 0.70756 0.33288 0.61782
 H233 H 0.67248 0.32666 0.66725
 H234 H 0.65804 0.34112 0.65241
 N235 N 0.63607 0.81419 1.17304
 N236 N 0.63560 0.82741 1.18490
 C237 C 0.62135 0.82492 1.19597
 C238 C 0.61256 0.80926 1.19079
 C239 C 0.62225 0.80277 1.17624
 H240 H 0.61759 0.83378 1.20696
 H241 H 0.61926 0.79081 1.16839
 Cu242 Cu 0.65376 0.84644 1.18473
 Cu243 Cu 0.65398 0.81320 1.15381
 Cu244 Cu 0.68548 0.84790 1.15216
 N245 N 0.67210 0.86530 1.18420
 N246 N 0.68411 0.86608 1.17112
 C247 C 0.69505 0.88036 1.17384
 C248 C 0.68970 0.88888 1.18953
 C249 C 0.67512 0.87900 1.19580
 H250 H 0.70627 0.88411 1.16524
 H251 H 0.66736 0.88161 1.20790
 N252 N 0.68469 0.82814 1.13435
 N253 N 0.67305 0.81462 1.13532
 C254 C 0.67631 0.80303 1.12168
 C255 C 0.69059 0.80964 1.11164
 C256 C 0.69557 0.82557 1.11999
 H257 H 0.66877 0.79077 1.11909
 H258 H 0.70643 0.83450 1.11595
 H259 H 0.67417 0.82733 1.16723
 H260 H 0.65848 0.84083 1.15271
 N261 N 0.13496 0.31526 1.17298
 N262 N 0.13584 0.32729 1.18601
 C263 C 0.12209 0.32444 1.19763
 C264 C 0.11210 0.30992 1.19144
 C265 C 0.12060 0.30443 1.17579
 H266 H 0.11932 0.33248 1.20950
 H267 H 0.11660 0.29341 1.16708
 Cu268 Cu 0.15446 0.34587 1.18568
 Cu269 Cu 0.15243 0.31445 1.15327
 Cu270 Cu 0.18497 0.34834 1.15228
 N271 N 0.17275 0.36474 1.18535
 N272 N 0.18427 0.36592 1.17186
 C273 C 0.19505 0.38036 1.17441
 C274 C 0.19009 0.38857 1.19038
 C275 C 0.17592 0.37834 1.19702
 H276 H 0.20579 0.38451 1.16539
 H277 H 0.16843 0.38077 1.20931
 N278 N 0.18341 0.32912 1.13389
 N279 N 0.17129 0.31600 1.13449
 C280 C 0.17428 0.30457 1.12066
 C281 C 0.18888 0.31086 1.11087
 C282 C 0.19432 0.32645 1.11957
 H283 H 0.16647 0.29252 1.11788
 H284 H 0.20562 0.33499 1.11589
 H285 H 0.17360 0.32722 1.16644
 H286 H 0.15788 0.34191 1.15326
 N287 N 0.13477 0.81473 0.67185
 N288 N 0.13469 0.82749 0.68420
 C289 C 0.12061 0.82475 0.69544
 C290 C 0.11154 0.80939 0.68988
 C291 C 0.12087 0.80335 0.67490
 H292 H 0.11722 0.83318 0.70686
 H293 H 0.11767 0.79166 0.66675
 Cu294 Cu 0.15311 0.84630 0.68440
 Cu295 Cu 0.15271 0.81395 0.65260
 Cu296 Cu 0.18576 0.84725 0.65280
 N297 N 0.17199 0.86464 0.68466
 N298 N 0.18443 0.86513 0.67198
 C299 C 0.19548 0.87928 0.67492
 C300 C 0.18975 0.88802 0.69034
 C301 C 0.17484 0.87840 0.69624
 H302 H 0.20690 0.88291 0.66653
 H303 H 0.16665 0.88134 0.70796
 N304 N 0.18479 0.82794 0.63456
 N305 N 0.17202 0.81544 0.63430
 C306 C 0.17487 0.80442 0.62012
 C307 C 0.19021 0.81018 0.61117
 C308 C 0.19620 0.82508 0.62066
 H309 H 0.16652 0.79295 0.61660
 H310 H 0.20793 0.83325 0.61756
 H311 H 0.17309 0.82676 0.66689
 H312 H 0.15847 0.84135 0.65235
 N313 N 0.36623 0.68304 0.67122
 N314 N 0.36542 0.67102 0.68427
 C315 C 0.37919 0.67393 0.69584
 C316 C 0.38916 0.68846 0.68958
 C317 C 0.38061 0.69388 0.67392
 H318 H 0.38178 0.66615 0.70792
 H319 H 0.38437 0.70512 0.66535
 Cu320 Cu 0.34622 0.65300 0.68482
 Cu321 Cu 0.34802 0.68448 0.65224
 Cu322 Cu 0.31296 0.65327 0.65398
 N323 N 0.32711 0.63490 0.68512
 N324 N 0.31386 0.63544 0.67329
 C325 C 0.30231 0.62175 0.67657
 C326 C 0.30874 0.61207 0.69115
 C327 C 0.32450 0.62073 0.69626
 H328 H 0.29029 0.61886 0.66877
 H329 H 0.33334 0.61697 0.70727
 N330 N 0.31459 0.67227 0.63541
 N331 N 0.32822 0.68379 0.63441
 C332 C 0.32576 0.69461 0.62000
 C333 C 0.30979 0.68973 0.61165
 C334 C 0.30304 0.67557 0.62174
 H335 H 0.33480 0.70537 0.61592
 H336 H 0.29071 0.66812 0.61916
 H337 H 0.32721 0.67337 0.66718
 H338 H 0.34058 0.65753 0.65277
 N339 N 0.36461 0.18590 1.17276
 N340 N 0.36499 0.17277 1.18473
 C341 C 0.37925 0.17526 1.19577
 C342 C 0.38814 0.19082 1.19046
 C343 C 0.37850 0.19725 1.17586
 H344 H 0.38293 0.16648 1.20685
 H345 H 0.38157 0.20913 1.16790
 Cu346 Cu 0.34669 0.15387 1.18472
 Cu347 Cu 0.34665 0.18687 1.15357
 Cu348 Cu 0.31517 0.15209 1.15211
 N349 N 0.32855 0.13482 1.18422
 N350 N 0.31662 0.13394 1.17110
 C351 C 0.30580 0.11955 1.17380
 C352 C 0.31113 0.11108 1.18952
 C353 C 0.32560 0.12110 1.19582
 H354 H 0.29466 0.11570 1.16516
 H355 H 0.33328 0.11858 1.20797
 N356 N 0.31589 0.17185 1.13426
 N357 N 0.32752 0.18538 1.13514
 C358 C 0.32419 0.19695 1.12149
 C359 C 0.30988 0.19032 1.11153
 C360 C 0.30495 0.17440 1.11995
 H361 H 0.33171 0.20922 1.11883
 H362 H 0.29408 0.16545 1.11599
 H363 H 0.32638 0.17283 1.16694
 H364 H 0.34215 0.15926 1.15262
 N365 N 0.86559 0.68477 1.17294
 N366 N 0.86486 0.67262 1.18591
 C367 C 0.87862 0.67552 1.19748
 C368 C 0.88847 0.69017 1.19132
 C369 C 0.87987 0.69569 1.17574
 H370 H 0.88148 0.66746 1.20932
 H371 H 0.88374 0.70681 1.16708
 Cu372 Cu 0.84635 0.65394 1.18568
 Cu373 Cu 0.84802 0.68560 1.15336
 Cu374 Cu 0.81553 0.65171 1.15255
 N375 N 0.82798 0.63513 1.18544
 N376 N 0.81633 0.63407 1.17206
 C377 C 0.80546 0.61971 1.17472
 C378 C 0.81049 0.61144 1.19065
 C379 C 0.82480 0.62155 1.19714
 H380 H 0.79460 0.61566 1.16582
 H381 H 0.83234 0.61908 1.20939
 N382 N 0.81698 0.67095 1.13417
 N383 N 0.82909 0.68408 1.13471
 C384 C 0.82605 0.69551 1.12087
 C385 C 0.81143 0.68918 1.11116
 C386 C 0.80603 0.67360 1.11990
 H387 H 0.83385 0.70755 1.11802
 H388 H 0.79475 0.66503 1.11626
 H389 H 0.82703 0.67275 1.16678
 H390 H 0.84264 0.65817 1.15331
 N391 N 0.86511 0.18351 0.67186
 N392 N 0.86365 0.17231 0.68557
 C393 C 0.87724 0.17547 0.69727
 C394 C 0.88773 0.18937 0.69046
 C395 C 0.87969 0.19413 0.67432
 H396 H 0.87950 0.16815 0.70970
 H397 H 0.88404 0.20466 0.66516
 Cu398 Cu 0.84445 0.15438 0.68589
 Cu399 Cu 0.84764 0.18410 0.65207
 Cu400 Cu 0.81179 0.15377 0.65495
 N401 N 0.82625 0.13541 0.68600
 N402 N 0.81380 0.13498 0.67332
 C403 C 0.80308 0.12052 0.67592
 C404 C 0.80908 0.11147 0.69107
 C405 C 0.82381 0.12123 0.69717
 H406 H 0.79162 0.11699 0.66755
 H407 H 0.83211 0.11815 0.70878
 N408 N 0.81438 0.17133 0.63510
 N409 N 0.82825 0.18254 0.63376
 C410 C 0.82608 0.19284 0.61893
 C411 C 0.81007 0.18795 0.61066
 C412 C 0.80300 0.17428 0.62121
 H413 H 0.83521 0.20345 0.61466
 H414 H 0.79042 0.16714 0.61899
 H415 H 0.82640 0.17451 0.66693
 H416 H 0.83929 0.15735 0.65374
 N417 N 0.31381 0.36516 0.67295
 N418 N 0.32583 0.36425 0.68600
 C419 C 0.32290 0.37794 0.69765
 C420 C 0.30833 0.38793 0.69146
 C421 C 0.30291 0.37948 0.67577
 H422 H 0.33090 0.38068 0.70954
 H423 H 0.29187 0.38350 0.66706
 Cu424 Cu 0.34450 0.34567 0.68569
 Cu425 Cu 0.31314 0.34778 0.65317
 Cu426 Cu 0.34727 0.31537 0.65225
 N427 N 0.36358 0.32751 0.68537
 N428 N 0.36483 0.31601 0.67189
 C429 C 0.37932 0.30525 0.67449
 C430 C 0.38751 0.31023 0.69047
 C431 C 0.37720 0.32438 0.69705
 H432 H 0.38351 0.29450 0.66551
 H433 H 0.37960 0.33189 0.70932
 N434 N 0.32810 0.31694 0.63377
 N435 N 0.31488 0.32900 0.63435
 C436 C 0.30351 0.32600 0.62046
 C437 C 0.30995 0.31147 0.61067
 C438 C 0.32556 0.30608 0.61941
 H439 H 0.29140 0.33376 0.61766
 H440 H 0.33420 0.29485 0.61574
 H441 H 0.32593 0.32665 0.66630
 H442 H 0.34059 0.34247 0.65324
 N443 N 0.31429 0.86531 0.17259
 N444 N 0.32744 0.86572 0.18453
 C445 C 0.32484 0.87992 0.19563
 C446 C 0.30918 0.88872 0.19040
 C447 C 0.30281 0.87911 0.17576
 H448 H 0.33360 0.88360 0.20672
 H449 H 0.29089 0.88213 0.16785
 Cu450 Cu 0.34645 0.84748 0.18451
 Cu451 Cu 0.31345 0.84746 0.15332
 Cu452 Cu 0.34844 0.81612 0.15178
 N453 N 0.36565 0.82944 0.18390
 N454 N 0.36656 0.81750 0.17080
 C455 C 0.38096 0.80665 0.17351
 C456 C 0.38944 0.81200 0.18921
 C457 C 0.37941 0.82650 0.19549
 H458 H 0.38479 0.79548 0.16491
 H459 H 0.38194 0.83420 0.20763
 N460 N 0.32872 0.81686 0.13390
 N461 N 0.31510 0.82842 0.13481
 C462 C 0.30357 0.82513 0.12113
 C463 C 0.31034 0.81091 0.11111
 C464 C 0.32628 0.80600 0.11952
 H465 H 0.29125 0.83260 0.11849
 H466 H 0.33532 0.79520 0.11551
 H467 H 0.32755 0.82725 0.16664
 H468 H 0.34108 0.84310 0.15239
 N469 N 0.81421 0.36534 0.17188
 N470 N 0.82760 0.36584 0.18353
 C471 C 0.82519 0.38008 0.19464
 C472 C 0.80939 0.38882 0.18969
 C473 C 0.80276 0.37912 0.17523
 H474 H 0.83410 0.38375 0.20561
 H475 H 0.79057 0.38196 0.16765
 Cu476 Cu 0.84650 0.34746 0.18329
 Cu477 Cu 0.81276 0.34709 0.15298
 Cu478 Cu 0.84682 0.31463 0.15205
 N479 N 0.86535 0.32903 0.18294
 N480 N 0.86521 0.31606 0.17082
 C481 C 0.87917 0.30475 0.17392
 C482 C 0.88860 0.31103 0.18872
 C483 C 0.87952 0.32647 0.19411
 H484 H 0.88221 0.29281 0.16606
 H485 H 0.88286 0.33498 0.20549
 N486 N 0.82699 0.31551 0.13427
 N487 N 0.81380 0.32759 0.13487
 C488 C 0.80228 0.32448 0.12114
 C489 C 0.80862 0.30986 0.11142
 C490 C 0.82429 0.30452 0.12006
 H491 H 0.79032 0.33241 0.11820
 H492 H 0.83304 0.29342 0.11622
 H493 H 0.82659 0.32706 0.16672
 H494 H 0.84024 0.34183 0.15150
 N495 N 0.81365 0.86515 0.67293
 N496 N 0.82687 0.86560 0.68480
 C497 C 0.82423 0.87974 0.69596
 C498 C 0.80847 0.88844 0.69086
 C499 C 0.80208 0.87884 0.67623
 H500 H 0.83303 0.88343 0.70700
 H501 H 0.79006 0.88178 0.66843
 Cu502 Cu 0.84606 0.84756 0.68460
 Cu503 Cu 0.81282 0.84733 0.65363
 Cu504 Cu 0.84785 0.81600 0.65207
 N505 N 0.86513 0.82937 0.68414
 N506 N 0.86599 0.81735 0.67109
 C507 C 0.88034 0.80645 0.67389
 C508 C 0.88883 0.81185 0.68957
 C509 C 0.87886 0.82642 0.69576
 H510 H 0.88413 0.79520 0.66536
 H511 H 0.88141 0.83420 0.70782
 N512 N 0.82813 0.81676 0.63416
 N513 N 0.81450 0.82832 0.63508
 C514 C 0.80298 0.82504 0.62139
 C515 C 0.80975 0.81083 0.61135
 C516 C 0.82570 0.80592 0.61977
 H517 H 0.79066 0.83251 0.61876
 H518 H 0.83474 0.79512 0.61575
 H519 H 0.82701 0.82727 0.66697
 H520 H 0.84044 0.84304 0.65252
 N521 N 0.68573 0.63494 0.67187
 N522 N 0.67209 0.63416 0.68327
 C523 C 0.67445 0.61983 0.69428
 C524 C 0.69043 0.61130 0.68954
 C525 C 0.69724 0.62122 0.67530
 H526 H 0.66540 0.61595 0.70506
 H527 H 0.70957 0.61855 0.66789
 Cu528 Cu 0.65318 0.65253 0.68282
 Cu529 Cu 0.68733 0.65332 0.65305
 Cu530 Cu 0.65329 0.68582 0.65216
 N531 N 0.63437 0.67101 0.68273
 N532 N 0.63478 0.68425 0.67088
 C533 C 0.62093 0.69567 0.67412
 C534 C 0.61131 0.68920 0.68874
 C535 C 0.62015 0.67352 0.69386
 H536 H 0.61807 0.70779 0.66647
 H537 H 0.61664 0.66485 0.70507
 N538 N 0.67322 0.68504 0.63445
 N539 N 0.68640 0.67294 0.63504
 C540 C 0.69795 0.67608 0.62132
 C541 C 0.69164 0.69073 0.61161
 C542 C 0.67597 0.69608 0.62026
 H543 H 0.70990 0.66814 0.61837
 H544 H 0.66723 0.70718 0.61643
 H545 H 0.67338 0.67317 0.66694
 H546 H 0.65995 0.65867 0.65131
 N547 N 0.68662 0.13495 0.17236
 N548 N 0.67339 0.13446 0.18424
 C549 C 0.67592 0.12020 0.19528
 C550 C 0.69163 0.11144 0.19012
 C551 C 0.69811 0.12115 0.17557
 H552 H 0.66707 0.11646 0.20628
 H553 H 0.71015 0.11823 0.16777
 Cu554 Cu 0.65437 0.15270 0.18427
 Cu555 Cu 0.68753 0.15291 0.15318
 Cu556 Cu 0.65252 0.18424 0.15165
 N557 N 0.63515 0.17072 0.18364
 N558 N 0.63430 0.18276 0.17060
 C559 C 0.61990 0.19359 0.17334
 C560 C 0.61134 0.18812 0.18898
 C561 C 0.62133 0.17357 0.19519
 H562 H 0.61614 0.20488 0.16484
 H563 H 0.61874 0.16575 0.20724
 N564 N 0.67232 0.18360 0.13381
 N565 N 0.68595 0.17205 0.13473
 C566 C 0.69753 0.17543 0.12109
 C567 C 0.69079 0.18970 0.11110
 C568 C 0.67480 0.19455 0.11949
 H569 H 0.70987 0.16800 0.11847
 H570 H 0.66578 0.20536 0.11551
 H571 H 0.67330 0.17300 0.16649
 H572 H 0.65983 0.15720 0.15218
 N573 N 0.18623 0.63519 0.17156
 N574 N 0.17272 0.63458 0.18313
 C575 C 0.17509 0.62028 0.19418
 C576 C 0.19095 0.61160 0.18929
 C577 C 0.19767 0.62141 0.17492
 H578 H 0.16611 0.61651 0.20507
 H579 H 0.20989 0.61860 0.16736
 Cu580 Cu 0.15383 0.65295 0.18275
 Cu581 Cu 0.18778 0.65355 0.15273
 Cu582 Cu 0.15373 0.68604 0.15184
 N583 N 0.13500 0.67139 0.18259
 N584 N 0.13525 0.68450 0.17057
 C585 C 0.12130 0.69581 0.17371
 C586 C 0.11177 0.68943 0.18842
 C587 C 0.12078 0.67390 0.19372
 H588 H 0.11828 0.70780 0.16589
 H589 H 0.11736 0.66530 0.20502
 N590 N 0.17364 0.68525 0.13412
 N591 N 0.18682 0.67315 0.13470
 C592 C 0.19840 0.67634 0.12102
 C593 C 0.19212 0.69102 0.11134
 C594 C 0.17641 0.69633 0.11996
 H595 H 0.21038 0.66842 0.11809
 H596 H 0.16769 0.70746 0.11616
 H597 H 0.17386 0.67347 0.16652
 H598 H 0.16033 0.65886 0.15109
 N599 N 0.18536 0.13470 0.67194
 N600 N 0.17161 0.13370 0.68315
 C601 C 0.17409 0.11944 0.69422
 C602 C 0.19027 0.11119 0.68971
 C603 C 0.19709 0.12121 0.67553
 H604 H 0.16491 0.11538 0.70484
 H605 H 0.20955 0.11872 0.66827
 Cu606 Cu 0.15197 0.15131 0.68264
 Cu607 Cu 0.18675 0.15296 0.65313
 Cu608 Cu 0.15280 0.18528 0.65229
 N609 N 0.13384 0.17048 0.68266
 N610 N 0.13443 0.18387 0.67099
 C611 C 0.12074 0.19543 0.67439
 C612 C 0.11103 0.18890 0.68891
 C613 C 0.11966 0.17304 0.69383
 H614 H 0.11800 0.20766 0.66685
 H615 H 0.11598 0.16420 0.70485
 N616 N 0.17255 0.18451 0.63448
 N617 N 0.18575 0.17244 0.63505
 C618 C 0.19726 0.17559 0.62130
 C619 C 0.19090 0.19023 0.61160
 C620 C 0.17523 0.19554 0.62028
 H621 H 0.20923 0.16767 0.61835
 H622 H 0.16648 0.20665 0.61648
 H623 H 0.17245 0.17227 0.66748
 H624 H 0.15929 0.15802 0.65129
 N625 N 0.31520 0.63478 0.32815
 N626 N 0.32803 0.63469 0.31583
 C627 C 0.32537 0.62058 0.30465
 C628 C 0.30996 0.61152 0.31017
 C629 C 0.30384 0.62087 0.32511
 H630 H 0.33380 0.61724 0.29319
 H631 H 0.29211 0.61768 0.33324
 Cu632 Cu 0.34660 0.65336 0.31551
 Cu633 Cu 0.31425 0.65281 0.34730
 Cu634 Cu 0.34759 0.68588 0.34706
 N635 N 0.36521 0.67199 0.31533
 N636 N 0.36563 0.68449 0.32794
 C637 C 0.37974 0.69559 0.32492
 C638 C 0.38857 0.68981 0.30955
 C639 C 0.37904 0.67480 0.30378
 H640 H 0.38329 0.70707 0.33323
 H641 H 0.38201 0.66660 0.29207
 N642 N 0.32816 0.68493 0.36526
 N643 N 0.31564 0.67218 0.36551
 C644 C 0.30461 0.67500 0.37971
 C645 C 0.31037 0.69031 0.38867
 C646 C 0.32530 0.69629 0.37918
 H647 H 0.29314 0.66664 0.38325
 H648 H 0.33351 0.70796 0.38233
 H649 H 0.32700 0.67327 0.33305
 H650 H 0.34161 0.65864 0.34755
 N651 N 0.31329 0.13532 0.82715
 N652 N 0.32663 0.13474 0.81541
 C653 C 0.32411 0.12051 0.80434
 C654 C 0.30832 0.11185 0.80939
 C655 C 0.30177 0.12161 0.82387
 H656 H 0.33308 0.11665 0.79347
 H657 H 0.28973 0.11869 0.83166
 Cu658 Cu 0.34599 0.15259 0.81583
 Cu659 Cu 0.31239 0.15312 0.84647
 Cu660 Cu 0.34723 0.18450 0.84813
 N661 N 0.36471 0.17112 0.81614
 N662 N 0.36537 0.18325 0.82909
 C663 C 0.37958 0.19428 0.82625
 C664 C 0.38820 0.18887 0.81063
 C665 C 0.37844 0.17415 0.80453
 H666 H 0.38321 0.20561 0.83473
 H667 H 0.38117 0.16626 0.79255
 N668 N 0.32751 0.18365 0.86604
 N669 N 0.31393 0.17208 0.86508
 C670 C 0.30239 0.17530 0.87879
 C671 C 0.30909 0.18949 0.88887
 C672 C 0.32502 0.19444 0.88047
 H673 H 0.29010 0.16780 0.88140
 H674 H 0.33402 0.20524 0.88451
 H675 H 0.32673 0.17313 0.83303
 H676 H 0.34002 0.15752 0.84779
 N677 N 0.81403 0.63503 0.82707
 N678 N 0.82734 0.63444 0.81530
 C679 C 0.82475 0.62027 0.80418
 C680 C 0.80892 0.61166 0.80922
 C681 C 0.80244 0.62138 0.82375
 H682 H 0.83367 0.61643 0.79326
 H683 H 0.79040 0.61850 0.83154
 Cu684 Cu 0.84673 0.65227 0.81567
 Cu685 Cu 0.81316 0.65281 0.84640
 Cu686 Cu 0.84797 0.68419 0.84797
 N687 N 0.86540 0.67084 0.81594
 N688 N 0.86606 0.68296 0.82890
 C689 C 0.88024 0.69402 0.82603
 C690 C 0.88883 0.68864 0.81038
 C691 C 0.87909 0.67390 0.80429
 H692 H 0.88387 0.70535 0.83451
 H693 H 0.88182 0.66603 0.79230
 N694 N 0.82832 0.68333 0.86594
 N695 N 0.81474 0.67175 0.86500
 C696 C 0.80323 0.67497 0.87874
 C697 C 0.80995 0.68916 0.88880
 C698 C 0.82587 0.69412 0.88037
 H699 H 0.79095 0.66747 0.88138
 H700 H 0.83487 0.70492 0.88439
 H701 H 0.82745 0.67275 0.83291
 H702 H 0.84078 0.65716 0.84766
 N703 N 0.81562 0.13404 0.32886
 N704 N 0.82865 0.13387 0.31675
 C705 C 0.82617 0.11966 0.30563
 C706 C 0.81072 0.11058 0.31103
 C707 C 0.80437 0.12005 0.32579
 H708 H 0.83472 0.11631 0.29427
 H709 H 0.79244 0.11699 0.33369
 Cu710 Cu 0.84694 0.15283 0.31636
 Cu711 Cu 0.81414 0.15244 0.34763
 Cu712 Cu 0.84639 0.18658 0.34663
 N713 N 0.86526 0.17176 0.31606
 N714 N 0.86461 0.18518 0.32768
 C715 C 0.87831 0.19669 0.32433
 C716 C 0.88811 0.19009 0.30991
 C717 C 0.87951 0.17424 0.30497
 H718 H 0.88106 0.20888 0.33191
 H719 H 0.88330 0.16534 0.29403
 N720 N 0.82694 0.18546 0.36479
 N721 N 0.81492 0.17224 0.36542
 C722 C 0.80395 0.17490 0.37969
 C723 C 0.80924 0.19057 0.38832
 C724 C 0.82381 0.19695 0.37855
 H725 H 0.79289 0.16613 0.38356
 H726 H 0.83168 0.20892 0.38145
 H727 H 0.82649 0.17273 0.33290
 H728 H 0.84136 0.15916 0.34810
 N729 N 0.68512 0.36508 0.32839
 N730 N 0.67248 0.36506 0.31590
 C731 C 0.67515 0.37922 0.30477
 C732 C 0.69032 0.38848 0.31055
 C733 C 0.69633 0.37916 0.32555
 H734 H 0.66683 0.38251 0.29323
 H735 H 0.70791 0.38246 0.33383
 Cu736 Cu 0.65400 0.34630 0.31530
 Cu737 Cu 0.68597 0.34703 0.34752
 Cu738 Cu 0.65269 0.31396 0.34717
 N739 N 0.63532 0.32773 0.31528
 N740 N 0.63473 0.31535 0.32802
 C741 C 0.62048 0.30441 0.32512
 C742 C 0.61177 0.31014 0.30968
 C743 C 0.62151 0.32495 0.30373
 H744 H 0.61680 0.29302 0.33352
 H745 H 0.61865 0.33309 0.29194
 N746 N 0.67204 0.31486 0.36542
 N747 N 0.68455 0.32762 0.36571
 C748 C 0.69560 0.32472 0.37987
 C749 C 0.68985 0.30935 0.38877
 C750 C 0.67492 0.30341 0.37928
 H751 H 0.70708 0.33306 0.38340
 H752 H 0.66673 0.29169 0.38235
 H753 H 0.67336 0.32654 0.33327
 H754 H 0.65855 0.34127 0.34747
 N755 N 0.68499 0.86435 0.82817
 N756 N 0.67144 0.86506 0.81669
 C757 C 0.67375 0.87942 0.80571
 C758 C 0.68961 0.88806 0.81058
 C759 C 0.69640 0.87815 0.82485
 H760 H 0.66470 0.88328 0.79491
 H761 H 0.70863 0.88091 0.83238
 Cu762 Cu 0.65259 0.84665 0.81717
 Cu763 Cu 0.68660 0.84599 0.84700
 Cu764 Cu 0.65270 0.81342 0.84794
 N765 N 0.63386 0.82812 0.81725
 N766 N 0.63424 0.81494 0.82919
 C767 C 0.62042 0.80352 0.82597
 C768 C 0.61085 0.80992 0.81129
 C769 C 0.61970 0.82556 0.80609
 H770 H 0.61753 0.79146 0.83371
 H771 H 0.61621 0.83419 0.79484
 N772 N 0.67260 0.81428 0.86567
 N773 N 0.68573 0.82640 0.86505
 C774 C 0.69727 0.82333 0.87878
 C775 C 0.69103 0.80869 0.88853
 C776 C 0.67538 0.80330 0.87990
 H777 H 0.70917 0.83132 0.88172
 H778 H 0.66669 0.79219 0.88377
 H779 H 0.67269 0.82604 0.83322
 H780 H 0.65916 0.84057 0.84877
 N781 N 0.18355 0.36531 0.82823
 N782 N 0.17106 0.36485 0.81561
 C783 C 0.17376 0.37874 0.80412
 C784 C 0.18864 0.38842 0.81000
 C785 C 0.19449 0.37957 0.82533
 H786 H 0.16551 0.38171 0.79245
 H787 H 0.20592 0.38320 0.83368
 Cu788 Cu 0.15251 0.34615 0.81581
 Cu789 Cu 0.18500 0.34727 0.84735
 Cu790 Cu 0.15207 0.31376 0.84750
 N791 N 0.13397 0.32746 0.81598
 N792 N 0.13409 0.31464 0.82828
 C793 C 0.12020 0.30325 0.82524
 C794 C 0.11086 0.30932 0.81028
 C795 C 0.11990 0.32472 0.80475
 H796 H 0.11702 0.29152 0.83336
 H797 H 0.11652 0.33316 0.79333
 N798 N 0.17142 0.31525 0.86576
 N799 N 0.18413 0.32782 0.86554
 C800 C 0.19553 0.32494 0.87944
 C801 C 0.18962 0.30996 0.88888
 C802 C 0.17432 0.30417 0.87990
 H803 H 0.20719 0.33318 0.88260
 H804 H 0.16602 0.29264 0.88338
 H805 H 0.17240 0.32667 0.83340
 H806 H 0.15767 0.34116 0.84789
 N807 N 0.18471 0.86590 0.32891
 N808 N 0.17162 0.86620 0.31690
 C809 C 0.17411 0.88045 0.30582
 C810 C 0.18963 0.88942 0.31113
 C811 C 0.19602 0.87985 0.32581
 H812 H 0.16551 0.88389 0.29453
 H813 H 0.20802 0.88281 0.33360
 Cu814 Cu 0.15321 0.84735 0.31645
 Cu815 Cu 0.18617 0.84743 0.34759
 Cu816 Cu 0.15386 0.81336 0.34658
 N817 N 0.13492 0.82839 0.31622
 N818 N 0.13562 0.81486 0.32772
 C819 C 0.12192 0.80336 0.32432
 C820 C 0.11208 0.81008 0.30998
 C821 C 0.12064 0.82599 0.30516
 H822 H 0.11921 0.79108 0.33178
 H823 H 0.11682 0.83498 0.29430
 N824 N 0.17335 0.81435 0.36468
 N825 N 0.18538 0.82755 0.36532
 C826 C 0.19638 0.82481 0.37955
 C827 C 0.19107 0.80912 0.38815
 C828 C 0.17648 0.80280 0.37839
 H829 H 0.20746 0.83354 0.38341
 H830 H 0.16859 0.79082 0.38128
 H831 H 0.17373 0.82727 0.33278
 H832 H 0.15894 0.84077 0.34814
 C833 C 0.24331 1.00059 0.25679
 C834 C 0.25635 1.00060 0.24385
 C835 C 0.26389 1.01761 0.23637
 C836 C 0.26376 0.98357 0.23630
 C837 C 0.23583 0.98353 0.26427
 C838 C 0.23573 1.01762 0.26418
 C839 C 0.26227 1.02110 0.21787
 C840 C 0.26971 1.03675 0.21041
 C841 C 0.27920 1.04910 0.22127
 C842 C 0.28087 1.04554 0.23983
 C843 C 0.27323 1.02993 0.24734
 C844 C 0.25258 0.97124 0.22723
 C845 C 0.25992 0.95547 0.21979
 C846 C 0.27856 0.95178 0.22133
 C847 C 0.28969 0.96421 0.23041
 C848 C 0.28237 0.98002 0.23769
 C849 C 0.24694 0.97108 0.27334
 C850 C 0.23950 0.95535 0.28080
 C851 C 0.22084 0.95180 0.27925
 C852 C 0.20982 0.96429 0.27004
 C853 C 0.21723 0.98007 0.26277
 C854 C 0.23694 1.02098 0.28273
 C855 C 0.22961 1.03677 0.29005
 C856 C 0.22069 1.04939 0.27898
 C857 C 0.21935 1.04591 0.26039
 C858 C 0.22684 1.03015 0.25304
 H859 H 0.25519 1.01167 0.20921
 H860 H 0.26827 1.03903 0.19606
 H861 H 0.28805 1.05482 0.24856
 H862 H 0.27478 1.02734 0.26162
 H863 H 0.23823 0.97391 0.22581
 H864 H 0.25100 0.94615 0.21289
 H865 H 0.29121 0.98950 0.24449
 H866 H 0.26130 0.97364 0.27480
 H867 H 0.24836 0.94598 0.28775
 H868 H 0.19540 0.96203 0.26870
 H869 H 0.20845 0.98960 0.25591
 H870 H 0.24366 1.01139 0.29153
 H871 H 0.23075 1.03896 0.30444
 H872 H 0.21259 1.05538 0.25150
 H873 H 0.22557 1.02765 0.23872
 H874 H 0.30411 0.96186 0.23169
 C875 C 0.24243 0.50016 0.75713
 C876 C 0.25558 0.50021 0.74429
 C877 C 0.26302 0.51727 0.73685
 C878 C 0.26321 0.48320 0.73690
 C879 C 0.23480 0.48309 0.76440
 C880 C 0.23499 0.51717 0.76473
 C881 C 0.25189 0.52973 0.72782
 C882 C 0.25927 0.54551 0.72046
 C883 C 0.27792 0.54911 0.72205
 C884 C 0.28899 0.53658 0.73113
 C885 C 0.28162 0.52075 0.73832
 C886 C 0.26197 0.47980 0.71836
 C887 C 0.26920 0.46396 0.71107
 C888 C 0.27808 0.45132 0.72216
 C889 C 0.27949 0.45486 0.74074
 C890 C 0.27209 0.47067 0.74805
 C891 C 0.23611 0.47953 0.78290
 C892 C 0.22874 0.46373 0.79015
 C893 C 0.21964 0.45130 0.77905
 C894 C 0.21823 0.45495 0.76048
 C895 C 0.22579 0.47071 0.75321
 C896 C 0.24612 0.52949 0.77388
 C897 C 0.23871 0.54520 0.78142
 C898 C 0.22006 0.54885 0.77987
 C899 C 0.20901 0.53646 0.77064
 C900 C 0.21639 0.52072 0.76328
 H901 H 0.23752 0.52714 0.72637
 H902 H 0.25038 0.55491 0.71358
 H903 H 0.30340 0.53887 0.73247
 H904 H 0.29043 0.51122 0.74515
 H905 H 0.25527 0.48940 0.70955
 H906 H 0.26801 0.46172 0.69670
 H907 H 0.27337 0.47321 0.76237
 H908 H 0.24292 0.48898 0.79175
 H909 H 0.22997 0.46139 0.80450
 H910 H 0.21137 0.44560 0.75158
 H911 H 0.22449 0.47335 0.73890
 H912 H 0.26048 0.52686 0.77531
 H913 H 0.24759 0.55450 0.78841
 H914 H 0.19459 0.53880 0.76931
 H915 H 0.20760 0.51129 0.75634
 H916 H 0.28622 0.44538 0.74964
 C917 C 0.74427 -0.00054 0.24369
 C918 C 0.75729 -0.00058 0.25665
 C919 C 0.76481 -0.01765 0.26400
 C920 C 0.76475 0.01643 0.26420
 C921 C 0.73690 0.01651 0.23615
 C922 C 0.73676 -0.01755 0.23621
 C923 C 0.76308 -0.02132 0.28246
 C924 C 0.77038 -0.03713 0.28976
 C925 C 0.77983 -0.04945 0.27878
 C926 C 0.78167 -0.04566 0.26028
 C927 C 0.77417 -0.02990 0.25294
 C928 C 0.75362 0.02889 0.27322
 C929 C 0.76103 0.04459 0.28071
 C930 C 0.77970 0.04813 0.27925
 C931 C 0.79076 0.03564 0.27010
 C932 C 0.78337 0.01988 0.26280
 C933 C 0.74813 0.02891 0.22721
 C934 C 0.74083 0.04471 0.21979
 C935 C 0.72218 0.04838 0.22122
 C936 C 0.71100 0.03588 0.23019
 C937 C 0.71828 0.02004 0.23745
 C938 C 0.73843 -0.02103 0.21771
 C939 C 0.73106 -0.03671 0.21026
 C940 C 0.72160 -0.04910 0.22114
 C941 C 0.71985 -0.04552 0.23968
 C942 C 0.72741 -0.02989 0.24717
 H943 H 0.75599 -0.01194 0.29119
 H944 H 0.76884 -0.03958 0.30407
 H945 H 0.78883 -0.05491 0.25147
 H946 H 0.77579 -0.02716 0.23869
 H947 H 0.73924 0.02635 0.27460
 H948 H 0.75214 0.05398 0.28761
 H949 H 0.79218 0.01036 0.25596
 H950 H 0.76250 0.02625 0.22587
 H951 H 0.74980 0.05408 0.21301
 H952 H 0.69657 0.03822 0.23142
 H953 H 0.70940 0.01052 0.24418
 H954 H 0.74550 -0.01158 0.20904
 H955 H 0.73255 -0.03899 0.19592
 H956 H 0.71268 -0.05482 0.24841
 H957 H 0.72581 -0.02730 0.26145
 H958 H 0.80519 0.03789 0.26883
 C959 C 0.74330 0.49944 0.74343
 C960 C 0.75633 0.49945 0.75638
 C961 C 0.76388 0.48242 0.76383
 C962 C 0.76373 0.51648 0.76390
 C963 C 0.73590 0.51649 0.73584
 C964 C 0.73572 0.48238 0.73611
 C965 C 0.76214 0.47882 0.78230
 C966 C 0.76949 0.46308 0.78970
 C967 C 0.77904 0.45076 0.77881
 C968 C 0.78088 0.45446 0.76028
 C969 C 0.77331 0.47015 0.75285
 C970 C 0.75251 0.52893 0.77283
 C971 C 0.75982 0.54475 0.78017
 C972 C 0.77846 0.54839 0.77865
 C973 C 0.78962 0.53585 0.76970
 C974 C 0.78233 0.51999 0.76253
 C975 C 0.74712 0.52893 0.72692
 C976 C 0.73980 0.54475 0.71951
 C977 C 0.72114 0.54839 0.72093
 C978 C 0.70999 0.53587 0.72990
 C979 C 0.71729 0.52002 0.73715
 C980 C 0.73708 0.47885 0.71760
 C981 C 0.72973 0.46307 0.71034
 C982 C 0.72059 0.45062 0.72143
 C983 C 0.71911 0.45426 0.73998
 C984 C 0.72665 0.47000 0.74727
 H985 H 0.75499 0.48822 0.79097
 H986 H 0.76793 0.46070 0.80402
 H987 H 0.78811 0.44522 0.75153
 H988 H 0.77496 0.47284 0.73859
 H989 H 0.73814 0.52633 0.77421
 H990 H 0.75086 0.55415 0.78696
 H991 H 0.79120 0.51046 0.75578
 H992 H 0.76149 0.52631 0.72557
 H993 H 0.74876 0.55413 0.71272
 H994 H 0.69555 0.53819 0.73113
 H995 H 0.70842 0.51049 0.74388
 H996 H 0.74392 0.48832 0.70877
 H997 H 0.73098 0.46074 0.69599
 H998 H 0.71219 0.44492 0.74887
 H999 H 0.72527 0.47263 0.76157
 H1000 H 0.80404 0.53817 0.76843
 C1001 C 0.24394 0.49997 0.24344
 C1002 C 0.25701 0.49995 0.25634
 C1003 C 0.26458 0.48290 0.26378
 C1004 C 0.26440 0.51699 0.26387
 C1005 C 0.23649 0.51701 0.23589
 C1006 C 0.23638 0.48295 0.23606
 C1007 C 0.26331 0.47956 0.28234
 C1008 C 0.27072 0.46385 0.28976
 C1009 C 0.27983 0.45127 0.27879
 C1010 C 0.28118 0.45470 0.26017
 C1011 C 0.27359 0.47038 0.25273
 C1012 C 0.25322 0.52934 0.27298
 C1013 C 0.26057 0.54508 0.28045
 C1014 C 0.27919 0.54877 0.27884
 C1015 C 0.29031 0.53635 0.26966
 C1016 C 0.28299 0.52055 0.26239
 C1017 C 0.24766 0.52943 0.22689
 C1018 C 0.24028 0.54517 0.21939
 C1019 C 0.22160 0.54875 0.22080
 C1020 C 0.21049 0.53625 0.22984
 C1021 C 0.21786 0.52047 0.23718
 C1022 C 0.23781 0.47947 0.21755
 C1023 C 0.23046 0.46372 0.21023
 C1024 C 0.22127 0.45127 0.22126
 C1025 C 0.21973 0.45487 0.23982
 C1026 C 0.22726 0.47057 0.24717
 H1027 H 0.25652 0.48915 0.29109
 H1028 H 0.26954 0.46170 0.30415
 H1029 H 0.28807 0.44525 0.25136
 H1030 H 0.27491 0.47285 0.23839
 H1031 H 0.23887 0.52670 0.27442
 H1032 H 0.25165 0.55439 0.28741
 H1033 H 0.29182 0.51110 0.25548
 H1034 H 0.26204 0.52684 0.22553
 H1035 H 0.24920 0.55454 0.21253
 H1036 H 0.19605 0.53853 0.23105
 H1037 H 0.20902 0.51094 0.24395
 H1038 H 0.24471 0.48895 0.20878
 H1039 H 0.23177 0.46144 0.19587
 H1040 H 0.21276 0.44553 0.24867
 H1041 H 0.22583 0.47318 0.26147
 H1042 H 0.30472 0.53869 0.26833
 C1043 C 0.74229 1.00023 0.75738
 C1044 C 0.75529 1.00016 0.74440
 C1045 C 0.76287 1.01713 0.73695
 C1046 C 0.76275 0.98310 0.73692
 C1047 C 0.73486 0.98321 0.76496
 C1048 C 0.73482 1.01732 0.76479
 C1049 C 0.76127 1.02065 0.71845
 C1050 C 0.76870 1.03634 0.71105
 C1051 C 0.77815 1.04865 0.72198
 C1052 C 0.77989 1.04499 0.74051
 C1053 C 0.77226 1.02936 0.74795
 C1054 C 0.75160 0.97067 0.72795
 C1055 C 0.75899 0.95490 0.72056
 C1056 C 0.77766 0.95130 0.72204
 C1057 C 0.78874 0.96382 0.73104
 C1058 C 0.78137 0.97963 0.73828
 C1059 C 0.74605 0.97074 0.77390
 C1060 C 0.73871 0.95494 0.78126
 C1061 C 0.72006 0.95132 0.77977
 C1062 C 0.70894 0.96387 0.77077
 C1063 C 0.71626 0.97971 0.76357
 C1064 C 0.73651 1.02091 0.78326
 C1065 C 0.72916 1.03666 0.79065
 C1066 C 0.71968 1.04903 0.77974
 C1067 C 0.71792 1.04536 0.76122
 C1068 C 0.72549 1.02966 0.75379
 H1069 H 0.75421 1.01125 0.70975
 H1070 H 0.76726 1.03868 0.69671
 H1071 H 0.78707 1.05424 0.74927
 H1072 H 0.77385 1.02670 0.76222
 H1073 H 0.73723 0.97326 0.72655
 H1074 H 0.75010 0.94550 0.71373
 H1075 H 0.79019 0.98917 0.74502
 H1076 H 0.76042 0.97332 0.77526
 H1077 H 0.74766 0.94553 0.78806
 H1078 H 0.69452 0.96156 0.76948
 H1079 H 0.70743 0.98924 0.75677
 H1080 H 0.74358 1.01147 0.79197
 H1081 H 0.73066 1.03901 0.80498
 H1082 H 0.71076 1.05465 0.75246
 H1083 H 0.72388 1.02701 0.73952
 H1084 H 0.80318 0.96153 0.73229
 C1085 C 0.74323 0.50027 0.25692
 C1086 C 0.75631 0.50026 0.24401
 C1087 C 0.76388 0.51727 0.23662
 C1088 C 0.76377 0.48323 0.23645
 C1089 C 0.73582 0.48323 0.26444
 C1090 C 0.73568 0.51732 0.26435
 C1091 C 0.76236 0.52081 0.21812
 C1092 C 0.76975 0.53653 0.21076
 C1093 C 0.77908 0.54890 0.22174
 C1094 C 0.78069 0.54526 0.24029
 C1095 C 0.77311 0.52958 0.24768
 C1096 C 0.75262 0.47086 0.22741
 C1097 C 0.76002 0.45516 0.21987
 C1098 C 0.77869 0.45156 0.22129
 C1099 C 0.78978 0.46402 0.23038
 C1100 C 0.78240 0.47977 0.23776
 C1101 C 0.74698 0.47087 0.27357
 C1102 C 0.73962 0.45514 0.28106
 C1103 C 0.72099 0.45148 0.27948
 C1104 C 0.70990 0.46389 0.27027
 C1105 C 0.71723 0.47969 0.26297
 C1106 C 0.73695 0.52066 0.28290
 C1107 C 0.72963 0.53641 0.29029
 C1108 C 0.72061 0.54904 0.27930
 C1109 C 0.71924 0.54561 0.26069
 C1110 C 0.72674 0.52988 0.25327
 H1111 H 0.75538 0.51138 0.20938
 H1112 H 0.76838 0.53886 0.19642
 H1113 H 0.78776 0.55454 0.24910
 H1114 H 0.77460 0.52693 0.26196
 H1115 H 0.73824 0.47346 0.22604
 H1116 H 0.75112 0.44583 0.21296
 H1117 H 0.79122 0.48926 0.24456
 H1118 H 0.76133 0.47351 0.27502
 H1119 H 0.74852 0.44581 0.28802
 H1120 H 0.69549 0.46154 0.26893
 H1121 H 0.70840 0.48915 0.25608
 H1122 H 0.74371 0.51105 0.29166
 H1123 H 0.73081 0.53857 0.30468
 H1124 H 0.71242 0.55509 0.25186
 H1125 H 0.72544 0.52741 0.23895
 H1126 H 0.80422 0.46174 0.23159
 C1127 C 0.24354 -0.00058 0.74332
 C1128 C 0.25658 -0.00064 0.75625
 C1129 C 0.26425 -0.01772 0.76354
 C1130 C 0.26384 0.01639 0.76393
 C1131 C 0.23607 0.01648 0.73580
 C1132 C 0.23596 -0.01758 0.73596
 C1133 C 0.26285 -0.02134 0.78203
 C1134 C 0.27031 -0.03711 0.78928
 C1135 C 0.27960 -0.04947 0.77822
 C1136 C 0.28110 -0.04576 0.75967
 C1137 C 0.27344 -0.03003 0.75238
 C1138 C 0.25253 0.02869 0.77294
 C1139 C 0.25972 0.04452 0.78038
 C1140 C 0.27833 0.04832 0.77887
 C1141 C 0.28958 0.03592 0.76983
 C1142 C 0.28241 0.02005 0.76256
 C1143 C 0.24725 0.02900 0.72696
 C1144 C 0.23988 0.04481 0.71961
 C1145 C 0.22120 0.04838 0.72101
 C1146 C 0.21008 0.03576 0.72988
 C1147 C 0.21743 0.01991 0.73707
 C1148 C 0.23754 -0.02118 0.71748
 C1149 C 0.23022 -0.03696 0.71021
 C1150 C 0.22088 -0.04929 0.72124
 C1151 C 0.21917 -0.04557 0.73976
 C1152 C 0.22670 -0.02985 0.74707
 H1153 H 0.25590 -0.01193 0.79085
 H1154 H 0.26902 -0.03948 0.80363
 H1155 H 0.28812 -0.05503 0.75078
 H1156 H 0.27482 -0.02735 0.73809
 H1157 H 0.23818 0.02597 0.77429
 H1158 H 0.25069 0.05381 0.78722
 H1159 H 0.29134 0.01065 0.75572
 H1160 H 0.26164 0.02645 0.72563
 H1161 H 0.24881 0.05426 0.71287
 H1162 H 0.19563 0.03801 0.73106
 H1163 H 0.20858 0.01032 0.74373
 H1164 H 0.24453 -0.01177 0.70871
 H1165 H 0.23164 -0.03936 0.69588
 H1166 H 0.21210 -0.05484 0.74860
 H1167 H 0.22516 -0.02715 0.76134
 H1168 H 0.30397 0.03836 0.76853
 C1169 C 0.25595 0.24341 1.00024
 C1170 C 0.24297 0.25649 1.00024
 C1171 C 0.23547 0.26406 1.01720
 C1172 C 0.23553 0.26402 0.98326
 C1173 C 0.26336 0.23580 0.98326
 C1174 C 0.26354 0.23599 1.01721
 C1175 C 0.22637 0.25304 1.02967
 C1176 C 0.21887 0.26059 1.04528
 C1177 C 0.22040 0.27925 1.04870
 C1178 C 0.22960 0.29018 1.03618
 C1179 C 0.23692 0.28267 1.02052
 C1180 C 0.21693 0.26257 0.97978
 C1181 C 0.20957 0.26984 0.96403
 C1182 C 0.22065 0.27899 0.95159
 C1183 C 0.23929 0.28056 0.95519
 C1184 C 0.24668 0.27310 0.97089
 C1185 C 0.28199 0.23705 0.97981
 C1186 C 0.28934 0.22971 0.96408
 C1187 C 0.27823 0.22070 0.95160
 C1188 C 0.25955 0.21933 0.95516
 C1189 C 0.25218 0.22684 0.97086
 C1190 C 0.27258 0.24715 1.02957
 C1191 C 0.28010 0.23978 1.04525
 C1192 C 0.27864 0.22114 1.04885
 C1193 C 0.26956 0.21005 1.03641
 C1194 C 0.26221 0.21739 1.02069
 H1195 H 0.22492 0.23867 1.02721
 H1196 H 0.21191 0.25180 1.05469
 H1197 H 0.23092 0.30462 1.03833
 H1198 H 0.24379 0.29139 1.01097
 H1199 H 0.20812 0.25572 0.98926
 H1200 H 0.19515 0.26851 0.96173
 H1201 H 0.26104 0.27452 0.97349
 H1202 H 0.29084 0.24380 0.98930
 H1203 H 0.30378 0.23089 0.96183
 H1204 H 0.25062 0.21251 0.94581
 H1205 H 0.23780 0.22554 0.97342
 H1206 H 0.27396 0.26151 1.02697
 H1207 H 0.28699 0.24869 1.05457
 H1208 H 0.26833 0.19563 1.03869
 H1209 H 0.25540 0.20857 1.01122
 H1210 H 0.24818 0.28747 0.94585
 C1211 C 0.25692 0.74344 0.50016
 C1212 C 0.24386 0.75643 0.50012
 C1213 C 0.23637 0.76402 0.51705
 C1214 C 0.23633 0.76381 0.48312
 C1215 C 0.26454 0.73603 0.48319
 C1216 C 0.26431 0.73585 0.51714
 C1217 C 0.21775 0.76262 0.52048
 C1218 C 0.21034 0.76998 0.53616
 C1219 C 0.22137 0.77917 0.54858
 C1220 C 0.24003 0.78069 0.54502
 C1221 C 0.24748 0.77315 0.52939
 C1222 C 0.22734 0.75262 0.47076
 C1223 C 0.21997 0.75994 0.45499
 C1224 C 0.22151 0.77856 0.45132
 C1225 C 0.23053 0.78968 0.46377
 C1226 C 0.23774 0.78239 0.47958
 C1227 C 0.27367 0.74719 0.47087
 C1228 C 0.28112 0.73985 0.45514
 C1229 C 0.27949 0.72124 0.45146
 C1230 C 0.27029 0.71016 0.46386
 C1231 C 0.26303 0.71747 0.47963
 C1232 C 0.28293 0.73707 0.52057
 C1233 C 0.29025 0.72974 0.53631
 C1234 C 0.27910 0.72079 0.54883
 C1235 C 0.26043 0.71945 0.54528
 C1236 C 0.25309 0.72694 0.52957
 H1237 H 0.20897 0.75574 0.51102
 H1238 H 0.19591 0.76869 0.53843
 H1239 H 0.24889 0.78765 0.55435
 H1240 H 0.26185 0.77455 0.52683
 H1241 H 0.22594 0.73827 0.47339
 H1242 H 0.21314 0.75101 0.44564
 H1243 H 0.24454 0.79123 0.48905
 H1244 H 0.27514 0.76152 0.47352
 H1245 H 0.28808 0.74874 0.44583
 H1246 H 0.26891 0.69577 0.46150
 H1247 H 0.25612 0.70866 0.48907
 H1248 H 0.29180 0.74379 0.51105
 H1249 H 0.30469 0.73089 0.53855
 H1250 H 0.25148 0.71266 0.55466
 H1251 H 0.23871 0.72565 0.52702
 H1252 H 0.23185 0.80409 0.46142
 C1253 C 0.24474 0.74439 -0.00042
 C1254 C 0.25773 0.75742 -0.00048
 C1255 C 0.26525 0.76486 -0.01748
 C1256 C 0.26512 0.76502 0.01648
 C1257 C 0.23740 0.73679 0.01658
 C1258 C 0.23707 0.73703 -0.01736
 C1259 C 0.27422 0.75370 -0.02993
 C1260 C 0.28171 0.76110 -0.04561
 C1261 C 0.28031 0.77977 -0.04912
 C1262 C 0.27120 0.79084 -0.03664
 C1263 C 0.26388 0.78346 -0.02092
 C1264 C 0.28374 0.76370 0.01996
 C1265 C 0.29103 0.77095 0.03573
 C1266 C 0.27986 0.77994 0.04822
 C1267 C 0.26120 0.78139 0.04461
 C1268 C 0.25389 0.77397 0.02888
 C1269 C 0.21880 0.73813 0.02013
 C1270 C 0.21154 0.73086 0.03593
 C1271 C 0.22272 0.72183 0.04836
 C1272 C 0.24137 0.72034 0.04468
 C1273 C 0.24865 0.72779 0.02892
 C1274 C 0.22802 0.74826 -0.02968
 C1275 C 0.22047 0.74097 -0.04536
 C1276 C 0.22189 0.72233 -0.04897
 C1277 C 0.23097 0.71116 -0.03656
 C1278 C 0.23835 0.71844 -0.02084
 H1279 H 0.27556 0.73932 -0.02740
 H1280 H 0.28857 0.75221 -0.05500
 H1281 H 0.26994 0.80527 -0.03888
 H1282 H 0.25706 0.79228 -0.01141
 H1283 H 0.29261 0.75693 0.01047
 H1284 H 0.30546 0.76971 0.03803
 H1285 H 0.23952 0.77531 0.02629
 H1286 H 0.20991 0.74492 0.01068
 H1287 H 0.19712 0.73212 0.03828
 H1288 H 0.25034 0.71350 0.05401
 H1289 H 0.26302 0.72643 0.02628
 H1290 H 0.22669 0.76262 -0.02707
 H1291 H 0.21360 0.74993 -0.05468
 H1292 H 0.23219 0.69674 -0.03886
 H1293 H 0.24517 0.70956 -0.01139
 H1294 H 0.25223 0.78819 0.05397
 C1295 C 0.24345 0.24388 0.49995
 C1296 C 0.25644 0.25692 0.49993
 C1297 C 0.26402 0.26431 0.48293
 C1298 C 0.26387 0.26450 0.51690
 C1299 C 0.23609 0.23629 0.51694
 C1300 C 0.23588 0.23641 0.48299
 C1301 C 0.27297 0.25310 0.47052
 C1302 C 0.28046 0.26043 0.45481
 C1303 C 0.27908 0.27909 0.45124
 C1304 C 0.27006 0.29023 0.46372
 C1305 C 0.26274 0.28292 0.47947
 C1306 C 0.28249 0.26315 0.52033
 C1307 C 0.28986 0.27054 0.53600
 C1308 C 0.27879 0.27972 0.54843
 C1309 C 0.26012 0.28115 0.54491
 C1310 C 0.25271 0.27357 0.52928
 C1311 C 0.21748 0.23762 0.52047
 C1312 C 0.21020 0.23026 0.53622
 C1313 C 0.22137 0.22117 0.54862
 C1314 C 0.24001 0.21971 0.54496
 C1315 C 0.24732 0.22724 0.52926
 C1316 C 0.22680 0.24752 0.47058
 C1317 C 0.21922 0.24008 0.45497
 C1318 C 0.22065 0.22141 0.45150
 C1319 C 0.22983 0.21038 0.46396
 C1320 C 0.23723 0.21779 0.47961
 H1321 H 0.27429 0.23873 0.47309
 H1322 H 0.28728 0.25148 0.44544
 H1323 H 0.26886 0.30466 0.46145
 H1324 H 0.25597 0.29178 0.48897
 H1325 H 0.29131 0.25630 0.51086
 H1326 H 0.30430 0.26929 0.53824
 H1327 H 0.23833 0.27494 0.52674
 H1328 H 0.20859 0.24444 0.51103
 H1329 H 0.19577 0.23151 0.53856
 H1330 H 0.24898 0.21283 0.55427
 H1331 H 0.26169 0.22588 0.52662
 H1332 H 0.22543 0.26190 0.47308
 H1333 H 0.21228 0.24894 0.44561
 H1334 H 0.23108 0.19594 0.46177
 H1335 H 0.24409 0.20900 0.48911
 H1336 H 0.25122 0.28809 0.55424
 C1337 C 0.75708 0.74289 1.00037
 C1338 C 0.74410 0.75597 1.00040
 C1339 C 0.73659 0.76347 1.01738
 C1340 C 0.73666 0.76354 0.98343
 C1341 C 0.76447 0.73530 0.98337
 C1342 C 0.76466 0.73542 1.01733
 C1343 C 0.72758 0.75239 1.02985
 C1344 C 0.72013 0.75984 1.04553
 C1345 C 0.72161 0.77850 1.04901
 C1346 C 0.73067 0.78952 1.03646
 C1347 C 0.73796 0.78208 1.02075
 C1348 C 0.71805 0.76214 0.97997
 C1349 C 0.71071 0.76934 0.96418
 C1350 C 0.72180 0.77835 0.95166
 C1351 C 0.74045 0.77991 0.95527
 C1352 C 0.74782 0.77253 0.97101
 C1353 C 0.78309 0.73656 0.97988
 C1354 C 0.79040 0.72927 0.96411
 C1355 C 0.77925 0.72029 0.95164
 C1356 C 0.76059 0.71890 0.95525
 C1357 C 0.75326 0.72637 0.97098
 C1358 C 0.77379 0.74652 1.02967
 C1359 C 0.78133 0.73908 1.04532
 C1360 C 0.77980 0.72044 1.04889
 C1361 C 0.77057 0.70942 1.03649
 C1362 C 0.76322 0.71683 1.02080
 H1363 H 0.72618 0.73802 1.02736
 H1364 H 0.71325 0.75099 1.05494
 H1365 H 0.73194 0.80395 1.03865
 H1366 H 0.74475 0.79086 1.01120
 H1367 H 0.70922 0.75536 0.98949
 H1368 H 0.69628 0.76804 0.96190
 H1369 H 0.76219 0.77393 0.97359
 H1370 H 0.79196 0.74330 0.98936
 H1371 H 0.80483 0.73047 0.96182
 H1372 H 0.75163 0.71211 0.94590
 H1373 H 0.73888 0.72505 0.97358
 H1374 H 0.77523 0.76087 1.02709
 H1375 H 0.78831 0.74794 1.05463
 H1376 H 0.76926 0.69501 1.03876
 H1377 H 0.75632 0.70805 1.01135
 H1378 H 0.74936 0.78675 0.94589
 C1379 C 0.75614 0.24298 0.50026
 C1380 C 0.74305 0.25595 0.50029
 C1381 C 0.73565 0.26352 0.51726
 C1382 C 0.73546 0.26338 0.48332
 C1383 C 0.76370 0.23565 0.48325
 C1384 C 0.76366 0.23536 0.51718
 C1385 C 0.71704 0.26218 0.52075
 C1386 C 0.70969 0.26954 0.53646
 C1387 C 0.72079 0.27867 0.54886
 C1388 C 0.73945 0.28015 0.54525
 C1389 C 0.74682 0.27259 0.52959
 C1390 C 0.72638 0.25224 0.47097
 C1391 C 0.71898 0.25960 0.45522
 C1392 C 0.72061 0.27822 0.45155
 C1393 C 0.72974 0.28928 0.46398
 C1394 C 0.73695 0.28195 0.47977
 C1395 C 0.77272 0.24687 0.47092
 C1396 C 0.78012 0.23960 0.45514
 C1397 C 0.77857 0.22100 0.45144
 C1398 C 0.76950 0.20984 0.46386
 C1399 C 0.76227 0.21708 0.47967
 C1400 C 0.78233 0.23654 0.52044
 C1401 C 0.78981 0.22897 0.53599
 C1402 C 0.77880 0.21981 0.54849
 C1403 C 0.76008 0.21857 0.54514
 C1404 C 0.75257 0.22631 0.52962
 H1405 H 0.70820 0.25536 0.51130
 H1406 H 0.69526 0.26830 0.53876
 H1407 H 0.74835 0.28707 0.55456
 H1408 H 0.76119 0.27397 0.52698
 H1409 H 0.72492 0.23789 0.47360
 H1410 H 0.71207 0.25072 0.44589
 H1411 H 0.74382 0.29075 0.48922
 H1412 H 0.77414 0.26121 0.47359
 H1413 H 0.78698 0.24856 0.44582
 H1414 H 0.76817 0.19544 0.46148
 H1415 H 0.75544 0.20822 0.48912
 H1416 H 0.79110 0.24336 0.51091
 H1417 H 0.80428 0.23007 0.53808
 H1418 H 0.75123 0.21164 0.55450
 H1419 H 0.73817 0.22505 0.52719
 H1420 H 0.73113 0.30368 0.46164
 C1421 C 0.74344 0.24370 -0.00046
 C1422 C 0.75633 0.25684 -0.00050
 C1423 C 0.76385 0.26434 -0.01748
 C1424 C 0.76365 0.26447 0.01647
 C1425 C 0.73608 0.23609 0.01655
 C1426 C 0.73592 0.23621 -0.01740
 C1427 C 0.77291 0.25325 -0.02993
 C1428 C 0.78040 0.26072 -0.04558
 C1429 C 0.77891 0.27939 -0.04906
 C1430 C 0.76976 0.29039 -0.03656
 C1431 C 0.76244 0.28295 -0.02086
 C1432 C 0.78224 0.26315 0.02001
 C1433 C 0.78946 0.27038 0.03583
 C1434 C 0.77824 0.27934 0.04828
 C1435 C 0.75961 0.28083 0.04459
 C1436 C 0.75236 0.27342 0.02882
 C1437 C 0.71745 0.23732 0.02003
 C1438 C 0.71015 0.22997 0.03578
 C1439 C 0.72133 0.22098 0.04826
 C1440 C 0.74000 0.21964 0.04466
 C1441 C 0.74732 0.22716 0.02895
 C1442 C 0.72690 0.24732 -0.02986
 C1443 C 0.71944 0.23989 -0.04551
 C1444 C 0.72091 0.22122 -0.04898
 C1445 C 0.72997 0.21018 -0.03645
 C1446 C 0.73728 0.21759 -0.02076
 H1447 H 0.77432 0.23888 -0.02742
 H1448 H 0.78731 0.25187 -0.05497
 H1449 H 0.76847 0.30483 -0.03876
 H1450 H 0.75560 0.29172 -0.01134
 H1451 H 0.79116 0.25641 0.01055
 H1452 H 0.80389 0.26913 0.03818
 H1453 H 0.73800 0.27477 0.02616
 H1454 H 0.70856 0.24406 0.01054
 H1455 H 0.69571 0.23114 0.03806
 H1456 H 0.74898 0.21283 0.05401
 H1457 H 0.76170 0.22588 0.02637
 H1458 H 0.72551 0.26169 -0.02735
 H1459 H 0.71256 0.24876 -0.05490
 H1460 H 0.73122 0.19574 -0.03862
 H1461 H 0.74408 0.20880 -0.01122
 H1462 H 0.75061 0.28763 0.05392
 C1463 C 0.74424 0.74405 0.49978
 C1464 C 0.75716 0.75715 0.49978
 C1465 C 0.76471 0.76463 0.48282
 C1466 C 0.76452 0.76474 0.51677
 C1467 C 0.73687 0.73642 0.51675
 C1468 C 0.73669 0.73659 0.48282
 C1469 C 0.77380 0.75353 0.47041
 C1470 C 0.78135 0.76097 0.45478
 C1471 C 0.77989 0.77964 0.45128
 C1472 C 0.77069 0.79066 0.46373
 C1473 C 0.76331 0.78324 0.47941
 C1474 C 0.78314 0.76349 0.52025
 C1475 C 0.79041 0.77078 0.53601
 C1476 C 0.77923 0.77975 0.54850
 C1477 C 0.76056 0.78113 0.54490
 C1478 C 0.75327 0.77367 0.52917
 C1479 C 0.71826 0.73776 0.52028
 C1480 C 0.71098 0.73046 0.53605
 C1481 C 0.72214 0.72140 0.54848
 C1482 C 0.74079 0.71992 0.54483
 C1483 C 0.74810 0.72740 0.52910
 C1484 C 0.72767 0.74773 0.47039
 C1485 C 0.72013 0.74031 0.45475
 C1486 C 0.72154 0.72164 0.45128
 C1487 C 0.73062 0.71058 0.46378
 C1488 C 0.73799 0.71797 0.47945
 H1489 H 0.77520 0.73915 0.47293
 H1490 H 0.78830 0.75212 0.44542
 H1491 H 0.76941 0.80509 0.46151
 H1492 H 0.75643 0.79202 0.48890
 H1493 H 0.79204 0.75676 0.51076
 H1494 H 0.80485 0.76959 0.53830
 H1495 H 0.73889 0.77497 0.52658
 H1496 H 0.70939 0.74458 0.51083
 H1497 H 0.69655 0.73172 0.53839
 H1498 H 0.74975 0.71306 0.55415
 H1499 H 0.76247 0.72605 0.52648
 H1500 H 0.72631 0.76210 0.47289
 H1501 H 0.71325 0.74920 0.44538
 H1502 H 0.73183 0.69614 0.46159
 H1503 H 0.74479 0.70916 0.48897
 H1504 H 0.75158 0.78792 0.55425
 C1505 C 0.99948 0.25719 0.24355
 C1506 C 0.99948 0.24395 0.25627
 C1507 C 1.01654 0.23633 0.26361
 C1508 C 0.98245 0.23639 0.26369
 C1509 C 0.98244 0.26469 0.23603
 C1510 C 1.01654 0.26486 0.23629
 C1511 C 1.02907 0.22749 0.25242
 C1512 C 1.04491 0.22008 0.25970
 C1513 C 1.04848 0.22146 0.27827
 C1514 C 1.03585 0.23031 0.28940
 C1515 C 1.01998 0.23755 0.28214
 C1516 C 0.97908 0.21779 0.26221
 C1517 C 0.96333 0.21031 0.26947
 C1518 C 0.95076 0.22128 0.27861
 C1519 C 0.95424 0.23993 0.28021
 C1520 C 0.96995 0.24743 0.27279
 C1521 C 0.97892 0.28327 0.23758
 C1522 C 0.96321 0.29072 0.23018
 C1523 C 0.95085 0.27976 0.22080
 C1524 C 0.95447 0.26113 0.21918
 C1525 C 0.97013 0.25365 0.22676
 C1526 C 1.02896 0.27371 0.24755
 C1527 C 1.04481 0.28115 0.24035
 C1528 C 1.04849 0.27981 0.22179
 C1529 C 1.03595 0.27096 0.21060
 C1530 C 1.02008 0.26369 0.21777
 H1531 H 1.02652 0.22624 0.23810
 H1532 H 1.05439 0.21337 0.25078
 H1533 H 1.03812 0.23149 0.30377
 H1534 H 1.01039 0.24423 0.29098
 H1535 H 0.98867 0.20906 0.25536
 H1536 H 0.96113 0.19589 0.26813
 H1537 H 0.97247 0.26178 0.27429
 H1538 H 0.98836 0.29200 0.24458
 H1539 H 0.96090 0.30513 0.23156
 H1540 H 0.94519 0.25232 0.21209
 H1541 H 0.97275 0.23931 0.22524
 H1542 H 1.02633 0.27492 0.26186
 H1543 H 1.05422 0.28785 0.24932
 H1544 H 1.03830 0.26982 0.19623
 H1545 H 1.01057 0.25701 0.20888
 H1546 H 0.94482 0.24874 0.28715
 C1547 C 0.49919 0.25640 0.74368
 C1548 C 0.49916 0.24331 0.75657
 C1549 C 0.51623 0.23591 0.76410
 C1550 C 0.48211 0.23576 0.76401
 C1551 C 0.48217 0.26405 0.73629
 C1552 C 0.51628 0.26379 0.73617
 C1553 C 0.51985 0.21735 0.76265
 C1554 C 0.53573 0.21008 0.76988
 C1555 C 0.54816 0.22122 0.77896
 C1556 C 0.54439 0.23982 0.78054
 C1557 C 0.52856 0.24711 0.77315
 C1558 C 0.46957 0.22683 0.75294
 C1559 C 0.45386 0.21930 0.76038
 C1560 C 0.45043 0.22064 0.77900
 C1561 C 0.46302 0.22966 0.78997
 C1562 C 0.47877 0.23701 0.78256
 C1563 C 0.46961 0.27291 0.74743
 C1564 C 0.45385 0.28042 0.74008
 C1565 C 0.45041 0.27917 0.72147
 C1566 C 0.46308 0.27030 0.71040
 C1567 C 0.47885 0.26295 0.71773
 C1568 C 0.51989 0.28235 0.73772
 C1569 C 0.53574 0.28965 0.73048
 C1570 C 0.54817 0.27856 0.72129
 C1571 C 0.54445 0.25996 0.71964
 C1572 C 0.52865 0.25263 0.72705
 H1573 H 0.51039 0.20849 0.75583
 H1574 H 0.53815 0.19568 0.76854
 H1575 H 0.55371 0.24877 0.78741
 H1576 H 0.52584 0.26144 0.77461
 H1577 H 0.47204 0.22555 0.73861
 H1578 H 0.44439 0.21248 0.75156
 H1579 H 0.48836 0.24375 0.79132
 H1580 H 0.47209 0.27411 0.76177
 H1581 H 0.44435 0.28714 0.74897
 H1582 H 0.46092 0.26922 0.69600
 H1583 H 0.48848 0.25629 0.70891
 H1584 H 0.51043 0.29117 0.74462
 H1585 H 0.53813 0.30403 0.73188
 H1586 H 0.55379 0.25106 0.71268
 H1587 H 0.52598 0.23830 0.72555
 H1588 H 0.46087 0.23083 0.80437
 C1589 C -0.00025 0.24264 0.74321
 C1590 C -0.00029 0.25578 0.75604
 C1591 C -0.01736 0.26344 0.76335
 C1592 C 0.01673 0.26325 0.76356
 C1593 C 0.01684 0.23518 0.73574
 C1594 C -0.01729 0.23503 0.73585
 C1595 C -0.02979 0.27241 0.75215
 C1596 C -0.04553 0.28004 0.75944
 C1597 C -0.04911 0.27876 0.77802
 C1598 C -0.03660 0.26974 0.78915
 C1599 C -0.02083 0.26228 0.78189
 C1600 C 0.02021 0.28183 0.76203
 C1601 C 0.03595 0.28924 0.76938
 C1602 C 0.04837 0.27823 0.77867
 C1603 C 0.04477 0.25961 0.78031
 C1604 C 0.02909 0.25217 0.77278
 C1605 C 0.02037 0.21660 0.73724
 C1606 C 0.03618 0.20921 0.72999
 C1607 C 0.04866 0.22024 0.72081
 C1608 C 0.04503 0.23887 0.71922
 C1609 C 0.02926 0.24629 0.72665
 C1610 C -0.02988 0.22630 0.74705
 C1611 C -0.04570 0.21891 0.73976
 C1612 C -0.04918 0.22014 0.72115
 C1613 C -0.03648 0.22887 0.71002
 C1614 C -0.02064 0.23611 0.71729
 H1615 H -0.02721 0.27362 0.73783
 H1616 H -0.05492 0.28687 0.75051
 H1617 H -0.03888 0.26863 0.80353
 H1618 H -0.01132 0.25551 0.79074
 H1619 H 0.01072 0.29060 0.75509
 H1620 H 0.03823 0.30365 0.76801
 H1621 H 0.02649 0.23783 0.77430
 H1622 H 0.01086 0.20782 0.74411
 H1623 H 0.03849 0.19479 0.73133
 H1624 H 0.05438 0.24773 0.71226
 H1625 H 0.02664 0.26064 0.72517
 H1626 H -0.02739 0.22512 0.76139
 H1627 H -0.05522 0.21230 0.74870
 H1628 H -0.03867 0.22993 0.69563
 H1629 H -0.01100 0.24267 0.70843
 H1630 H 0.05409 0.25077 0.78736
 C1631 C 0.50062 0.24293 0.24329
 C1632 C 0.50060 0.25598 0.25619
 C1633 C 0.48353 0.26340 0.26371
 C1634 C 0.51761 0.26358 0.26358
 C1635 C 0.51766 0.23537 0.23583
 C1636 C 0.48356 0.23557 0.23577
 C1637 C 0.47994 0.28197 0.26221
 C1638 C 0.46408 0.28929 0.26945
 C1639 C 0.45164 0.27819 0.27859
 C1640 C 0.45537 0.25958 0.28023
 C1641 C 0.47117 0.25224 0.27282
 C1642 C 0.53004 0.27266 0.25249
 C1643 C 0.54569 0.28030 0.25989
 C1644 C 0.54918 0.27890 0.27848
 C1645 C 0.53668 0.26975 0.28949
 C1646 C 0.52099 0.26230 0.28213
 C1647 C 0.53021 0.22638 0.24687
 C1648 C 0.54589 0.21878 0.23940
 C1649 C 0.54926 0.22011 0.22077
 C1650 C 0.53666 0.22922 0.20982
 C1651 C 0.52096 0.23663 0.21726
 C1652 C 0.47994 0.21702 0.23727
 C1653 C 0.46406 0.20977 0.23006
 C1654 C 0.45163 0.22093 0.22095
 C1655 C 0.45540 0.23952 0.21931
 C1656 C 0.47122 0.24679 0.22668
 H1657 H 0.48941 0.29079 0.25535
 H1658 H 0.46170 0.30368 0.26809
 H1659 H 0.44605 0.25068 0.28718
 H1660 H 0.47386 0.23791 0.27432
 H1661 H 0.52751 0.27399 0.23817
 H1662 H 0.55508 0.28723 0.25106
 H1663 H 0.51146 0.25547 0.29090
 H1664 H 0.52777 0.22509 0.26121
 H1665 H 0.55536 0.21192 0.24820
 H1666 H 0.53878 0.23039 0.19542
 H1667 H 0.51134 0.24341 0.20853
 H1668 H 0.48940 0.20815 0.24412
 H1669 H 0.46165 0.19538 0.23142
 H1670 H 0.44608 0.24847 0.21239
 H1671 H 0.47392 0.26111 0.22520
 H1672 H 0.53888 0.26856 0.30388
 C1673 C 0.99958 0.75679 0.74363
 C1674 C 0.99956 0.74375 0.75657
 C1675 C 1.01663 0.73634 0.76412
 C1676 C 0.98252 0.73615 0.76396
 C1677 C 0.98255 0.76444 0.73622
 C1678 C 1.01667 0.76411 0.73606
 C1679 C 1.02017 0.71775 0.76274
 C1680 C 1.03598 0.71041 0.77005
 C1681 C 1.04845 0.72150 0.77913
 C1682 C 1.04479 0.74014 0.78062
 C1683 C 1.02902 0.74750 0.77315
 C1684 C 0.97005 0.72717 0.75285
 C1685 C 0.95438 0.71951 0.76024
 C1686 C 0.95091 0.72078 0.77885
 C1687 C 0.96344 0.72985 0.78988
 C1688 C 0.97914 0.73731 0.78251
 C1689 C 0.97003 0.77343 0.74732
 C1690 C 0.95437 0.78110 0.73990
 C1691 C 0.95095 0.77984 0.72129
 C1692 C 0.96351 0.77074 0.71029
 C1693 C 0.97921 0.76326 0.71767
 C1694 C 1.02036 0.78264 0.73763
 C1695 C 1.03623 0.78988 0.73036
 C1696 C 1.04857 0.77875 0.72110
 C1697 C 1.04476 0.76017 0.71942
 C1698 C 1.02895 0.75291 0.72688
 H1699 H 1.01069 0.70893 0.75592
 H1700 H 1.03831 0.69599 0.76877
 H1701 H 1.05413 0.74905 0.78750
 H1702 H 1.02639 0.76186 0.77453
 H1703 H 0.97256 0.72593 0.73851
 H1704 H 0.94497 0.71265 0.75139
 H1705 H 0.98869 0.74407 0.79130
 H1706 H 0.97250 0.77466 0.76165
 H1707 H 0.94492 0.78797 0.74874
 H1708 H 0.96137 0.76962 0.69589
 H1709 H 0.98878 0.75647 0.70889
 H1710 H 1.01096 0.79150 0.74457
 H1711 H 1.03869 0.80425 0.73178
 H1712 H 1.05402 0.75125 0.71240
 H1713 H 1.02620 0.73860 0.72536
 H1714 H 0.96126 0.73095 0.80427
 C1715 C 0.50002 0.75709 0.24353
 C1716 C 0.49998 0.74406 0.25647
 C1717 C 0.51702 0.73670 0.26408
 C1718 C 0.48294 0.73643 0.26377
 C1719 C 0.48303 0.76470 0.23604
 C1720 C 0.51713 0.76442 0.23604
 C1721 C 0.52071 0.71816 0.26255
 C1722 C 0.53660 0.71091 0.26977
 C1723 C 0.54897 0.72205 0.27892
 C1724 C 0.54512 0.74063 0.28062
 C1725 C 0.52929 0.74790 0.27323
 C1726 C 0.47057 0.72739 0.25260
 C1727 C 0.45486 0.71975 0.25990
 C1728 C 0.45124 0.72113 0.27847
 C1729 C 0.46369 0.73021 0.28956
 C1730 C 0.47944 0.73766 0.28230
 C1731 C 0.47047 0.77370 0.24707
 C1732 C 0.45483 0.78134 0.23958
 C1733 C 0.45150 0.78003 0.22095
 C1734 C 0.46412 0.77094 0.21001
 C1735 C 0.47979 0.76349 0.21747
 C1736 C 0.52078 0.78296 0.23756
 C1737 C 0.53669 0.79018 0.23040
 C1738 C 0.54913 0.77902 0.22132
 C1739 C 0.54536 0.76043 0.21967
 C1740 C 0.52949 0.75319 0.22701
 H1741 H 0.51131 0.70931 0.25565
 H1742 H 0.53908 0.69653 0.26836
 H1743 H 0.55439 0.74956 0.28757
 H1744 H 0.52651 0.76222 0.27474
 H1745 H 0.47319 0.72612 0.23829
 H1746 H 0.44552 0.71285 0.25100
 H1747 H 0.48891 0.74447 0.29113
 H1748 H 0.47289 0.77498 0.26140
 H1749 H 0.44535 0.78821 0.24837
 H1750 H 0.46203 0.76980 0.19561
 H1751 H 0.48942 0.75672 0.20874
 H1752 H 0.51133 0.79183 0.24442
 H1753 H 0.53913 0.80456 0.23178
 H1754 H 0.55469 0.75147 0.21279
 H1755 H 0.52678 0.73886 0.22554
 H1756 H 0.46139 0.73136 0.30393
 C1757 C 0.00085 0.74324 0.24333
 C1758 C 0.00083 0.75647 0.25605
 C1759 C -0.01624 0.76413 0.26333
 C1760 C 0.01785 0.76398 0.26350
 C1761 C 0.01790 0.73574 0.23581
 C1762 C -0.01620 0.73558 0.23608
 C1763 C -0.02873 0.77297 0.25209
 C1764 C -0.04456 0.78046 0.25932
 C1765 C -0.04817 0.77917 0.27790
 C1766 C -0.03558 0.77033 0.28908
 C1767 C -0.01972 0.76301 0.28187
 C1768 C 0.02123 0.78259 0.26207
 C1769 C 0.03698 0.79003 0.26934
 C1770 C 0.04953 0.77902 0.27847
 C1771 C 0.04604 0.76037 0.28001
 C1772 C 0.03033 0.75291 0.27258
 C1773 C 0.02138 0.71715 0.23730
 C1774 C 0.03710 0.70970 0.22989
 C1775 C 0.04950 0.72068 0.22056
 C1776 C 0.04593 0.73933 0.21901
 C1777 C 0.03027 0.74680 0.22660
 C1778 C -0.02861 0.72668 0.24734
 C1779 C -0.04442 0.71920 0.24015
 C1780 C -0.04809 0.72056 0.22159
 C1781 C -0.03559 0.72949 0.21039
 C1782 C -0.01974 0.73679 0.21756
 H1783 H -0.02614 0.77416 0.23777
 H1784 H -0.05400 0.78716 0.25036
 H1785 H -0.03787 0.76924 0.30346
 H1786 H -0.01017 0.75635 0.29076
 H1787 H 0.01166 0.79135 0.25524
 H1788 H 0.03918 0.80446 0.26804
 H1789 H 0.02779 0.73855 0.27405
 H1790 H 0.01191 0.70840 0.24425
 H1791 H 0.03937 0.69528 0.23121
 H1792 H 0.05524 0.74815 0.21195
 H1793 H 0.02767 0.76116 0.22512
 H1794 H -0.02598 0.72544 0.26165
 H1795 H -0.05381 0.71245 0.24911
 H1796 H -0.03794 0.73065 0.19603
 H1797 H -0.01024 0.74352 0.20867
 H1798 H 0.05544 0.75152 0.28695
 C1799 C 0.50018 0.74294 0.74339
 C1800 C 0.50017 0.75611 0.75618
 C1801 C 0.48310 0.76381 0.76339
 C1802 C 0.51720 0.76358 0.76375
 C1803 C 0.51726 0.73545 0.73591
 C1804 C 0.48311 0.73540 0.73598
 C1805 C 0.47105 0.77332 0.75223
 C1806 C 0.45527 0.78095 0.75943
 C1807 C 0.45123 0.77904 0.77788
 C1808 C 0.46337 0.76948 0.78896
 C1809 C 0.47922 0.76208 0.78181
 C1810 C 0.52059 0.78219 0.76242
 C1811 C 0.53628 0.78961 0.76985
 C1812 C 0.54878 0.77858 0.77902
 C1813 C 0.54531 0.75991 0.78040
 C1814 C 0.52966 0.75247 0.77280
 C1815 C 0.52072 0.71684 0.73731
 C1816 C 0.53652 0.70944 0.73001
 C1817 C 0.54903 0.72049 0.72089
 C1818 C 0.54548 0.73914 0.71943
 C1819 C 0.52973 0.74656 0.72690
 C1820 C 0.47057 0.72646 0.74708
 C1821 C 0.45487 0.71890 0.73968
 C1822 C 0.45142 0.72023 0.72107
 C1823 C 0.46399 0.72929 0.71007
 C1824 C 0.47973 0.73666 0.71743
 H1825 H 0.47397 0.77497 0.73802
 H1826 H 0.44617 0.78822 0.75056
 H1827 H 0.46075 0.76791 0.80324
 H1828 H 0.48846 0.75490 0.79062
 H1829 H 0.51106 0.79099 0.75558
 H1830 H 0.53846 0.80405 0.76866
 H1831 H 0.52716 0.73809 0.77415
 H1832 H 0.51117 0.70805 0.74410
 H1833 H 0.53878 0.69501 0.73127
 H1834 H 0.55487 0.74802 0.71254
 H1835 H 0.52715 0.76092 0.72549
 H1836 H 0.47305 0.72519 0.76142
 H1837 H 0.44542 0.71206 0.74853
 H1838 H 0.46182 0.73045 0.69568
 H1839 H 0.48930 0.74343 0.70865
 H1840 H 0.55470 0.75105 0.78733
 N1841 N 0.41416 0.30988 0.28850
 C1842 C 0.40450 0.30063 0.30103
 N1843 N 0.41030 0.28396 0.30615
 N1844 N 0.42521 0.27680 0.29897
 C1845 C 0.43496 0.28606 0.28647
 N1846 N 0.42913 0.30276 0.28140
 N1847 N 0.41068 0.80780 0.78421
 C1848 C 0.40419 0.80177 0.80027
 N1849 N 0.41314 0.78821 0.80884
 N1850 N 0.42804 0.78102 0.80170
 C1851 C 0.43455 0.78699 0.78563
 N1852 N 0.42553 0.80049 0.77700
 N1853 N -0.09039 0.30660 0.78384
 C1854 C -0.09602 0.30162 0.80055
 N1855 N -0.08626 0.28912 0.80978
 N1856 N -0.07138 0.28190 0.80261
 C1857 C -0.06572 0.28680 0.78588
 N1858 N -0.07555 0.29929 0.77662
 N1859 N -0.08975 0.80657 0.28359
 C1860 C -0.09535 0.80155 0.30029
 N1861 N -0.08548 0.78916 0.30956
 N1862 N -0.07052 0.78208 0.30242
 C1863 C -0.06488 0.78702 0.28569
 N1864 N -0.07483 0.79939 0.27640
 N1865 N 0.58659 0.69051 0.28872
 C1866 C 0.59619 0.69976 0.30128
 N1867 N 0.59032 0.71638 0.30644
 N1868 N 0.57539 0.72352 0.29926
 C1869 C 0.56570 0.71426 0.28674
 N1870 N 0.57160 0.69761 0.28163
 N1871 N 0.58572 0.18964 0.78885
 C1872 C 0.59542 0.19896 0.80129
 N1873 N 0.58962 0.21564 0.80634
 N1874 N 0.57467 0.22276 0.79918
 C1875 C 0.56489 0.21343 0.78678
 N1876 N 0.57072 0.19672 0.78178
 N1877 N 1.08957 0.71562 0.80697
 C1878 C 1.09510 0.69874 0.80227
 N1879 N 1.08535 0.68940 0.78989
 N1880 N 1.07057 0.69664 0.78255
 C1881 C 1.06501 0.71356 0.78719
 N1882 N 1.07484 0.72290 0.79954
 N1883 N 1.09007 0.19412 0.28411
 C1884 C 1.09565 0.19920 0.30079
 N1885 N 1.08576 0.21162 0.30999
 N1886 N 1.07080 0.21867 0.30282
 C1887 C 1.06520 0.21366 0.28611
 N1888 N 1.07516 0.20126 0.27689
 N1889 N 0.58541 0.31034 0.71107
 C1890 C 0.59482 0.30129 0.69820
 N1891 N 0.58898 0.28467 0.69302
 N1892 N 0.57426 0.27738 0.70046
 C1893 C 0.56475 0.28646 0.71328
 N1894 N 0.57063 0.30310 0.71841
 N1895 N 0.58655 0.81064 0.21132
 C1896 C 0.59621 0.80136 0.19880
 N1897 N 0.59045 0.78468 0.19375
 N1898 N 0.57557 0.77752 0.20099
 C1899 C 0.56583 0.78682 0.21348
 N1900 N 0.57162 0.80353 0.21847
 N1901 N 1.09002 0.30719 0.21611
 C1902 C 1.09568 0.30212 0.19945
 N1903 N 1.08588 0.28969 0.19021
 N1904 N 1.07092 0.28263 0.19734
 C1905 C 1.06521 0.28763 0.21402
 N1906 N 1.07509 0.30003 0.22329
 N1907 N 1.08602 0.81033 0.71106
 C1908 C 1.09532 0.80133 0.69808
 N1909 N 1.08934 0.78481 0.69275
 N1910 N 1.07459 0.77756 0.70016
 C1911 C 1.06519 0.78659 0.71310
 N1912 N 1.07121 0.80312 0.71838
 N1913 N 0.41486 0.70943 0.68883
 C1914 C 0.40523 0.69671 0.69788
 N1915 N 0.41068 0.69180 0.71466
 N1916 N 0.42525 0.69936 0.72212
 C1917 C 0.43498 0.71205 0.71304
 N1918 N 0.42948 0.71690 0.69624
 N1919 N 0.41414 0.18940 0.21100
 C1920 C 0.40453 0.19869 0.19844
 N1921 N 0.41036 0.21533 0.19333
 N1922 N 0.42526 0.22244 0.20055
 C1923 C 0.43495 0.21315 0.21308
 N1924 N 0.42909 0.19647 0.21813
 N1925 N -0.08943 0.69293 0.21592
 C1926 C -0.09515 0.69804 0.19930
 N1927 N -0.08545 0.71059 0.19008
 N1928 N -0.07053 0.71771 0.19718
 C1929 C -0.06477 0.71267 0.21383
 N1930 N -0.07454 0.70015 0.22308
 N1931 N -0.09083 0.19295 0.71552
 C1932 C -0.09601 0.19741 0.69853
 N1933 N -0.08589 0.20943 0.68908
 N1934 N -0.07107 0.21666 0.69629
 C1935 C -0.06582 0.21224 0.71329
 N1936 N -0.07604 0.20027 0.72278
 N1937 N 0.29047 0.41464 0.31104
 C1938 C 0.30312 0.40491 0.30197
 N1939 N 0.30806 0.41034 0.28519
 N1940 N 0.30059 0.42499 0.27775
 C1941 C 0.28798 0.43481 0.28685
 N1942 N 0.28310 0.42933 0.30365
 N1943 N 0.28996 -0.08663 0.80997
 C1944 C 0.30294 -0.09606 0.80101
 N1945 N 0.30817 -0.09021 0.78445
 N1946 N 0.30067 -0.07552 0.77712
 C1947 C 0.28775 -0.06602 0.78612
 N1948 N 0.28258 -0.07188 0.80271
 N1949 N 0.78907 0.41362 0.81066
 C1950 C 0.80221 0.40427 0.80186
 N1951 N 0.80767 0.41019 0.78539
 N1952 N 0.80024 0.42487 0.77800
 C1953 C 0.78713 0.43428 0.78683
 N1954 N 0.78173 0.42836 0.80332
 N1955 N 0.78958 -0.08684 0.31039
 C1956 C 0.80274 -0.09616 0.30159
 N1957 N 0.80830 -0.09015 0.28519
 N1958 N 0.80094 -0.07540 0.27786
 C1959 C 0.78782 -0.06602 0.28670
 N1960 N 0.78231 -0.07204 0.30312
 N1961 N 0.30991 0.58615 0.71180
 C1962 C 0.30066 0.59586 0.69930
 N1963 N 0.28389 0.59026 0.69434
 N1964 N 0.27661 0.57549 0.70165
 C1965 C 0.28586 0.56569 0.71413
 N1966 N 0.30267 0.57132 0.71903
 N1967 N 0.30800 1.08946 0.21452
 C1968 C 0.30288 1.09505 0.19785
 N1969 N 0.28991 1.08562 0.18898
 N1970 N 0.28239 1.07107 0.19645
 C1971 C 0.28745 1.06544 0.21314
 N1972 N 0.30040 1.07495 0.22204
 N1973 N 0.80727 0.58976 0.21555
 C1974 C 0.80233 0.59530 0.19882
 N1975 N 0.78967 0.58567 0.18970
 N1976 N 0.78229 0.57097 0.19702
 C1977 C 0.78719 0.56537 0.21377
 N1978 N 0.79981 0.57509 0.22290
 N1979 N 0.80667 1.08921 0.71553
 C1980 C 0.80118 1.09515 0.69911
 N1981 N 0.78810 1.08584 0.69026
 N1982 N 0.78082 1.07107 0.69753
 C1983 C 0.78623 1.06511 0.71400
 N1984 N 0.79930 1.07449 0.72286
 N1985 N 0.69258 0.59009 0.28561
 C1986 C 0.69749 0.59549 0.30239
 N1987 N 0.71007 0.58570 0.31149
 N1988 N 0.71741 0.57099 0.30413
 C1989 C 0.71255 0.56554 0.28732
 N1990 N 0.70001 0.57542 0.27819
 N1991 N 0.69081 1.08945 0.78652
 C1992 C 0.69647 1.09550 0.80286
 N1993 N 0.70983 1.08630 0.81148
 N1994 N 0.71718 1.07158 0.80412
 C1995 C 0.71159 1.06554 0.78776
 N1996 N 0.69828 1.07481 0.77908
 N1997 N 0.18795 0.58574 0.79056
 C1998 C 0.19705 0.59516 0.80335
 N1999 N 0.21379 0.58942 0.80835
 N2000 N 0.22117 0.57481 0.80080
 C2001 C 0.21205 0.56530 0.78803
 N2002 N 0.19528 0.57106 0.78310
 N2003 N 0.19323 1.09088 0.28485
 C2004 C 0.19791 1.09616 0.30173
 N2005 N 0.21013 1.08614 0.31106
 N2006 N 0.21735 1.07132 0.30381
 C2007 C 0.21273 1.06598 0.28691
 N2008 N 0.20054 1.07609 0.27756
 N2009 N 0.69212 0.40995 0.71516
 C2010 C 0.69747 0.40410 0.69865
 N2011 N 0.71050 0.41346 0.68974
 N2012 N 0.71784 0.42819 0.69701
 C2013 C 0.71255 0.43408 0.71354
 N2014 N 0.69956 0.42463 0.72249
 N2015 N 0.69284 -0.08949 0.21447
 C2016 C 0.69801 -0.09512 0.19783
 N2017 N 0.71102 -0.08572 0.18895
 N2018 N 0.71853 -0.07115 0.19639
 C2019 C 0.71342 -0.06548 0.21305
 N2020 N 0.70043 -0.07497 0.22196
 N2021 N 0.21069 0.41452 0.18926
 C2022 C 0.19819 0.40476 0.19848
 N2023 N 0.19333 0.41023 0.21527
 N2024 N 0.20074 0.42493 0.22257
 C2025 C 0.21322 0.43477 0.21333
 N2026 N 0.21802 0.42926 0.19653
 N2027 N 0.19237 -0.08989 0.71494
 C2028 C 0.19783 -0.09582 0.69850
 N2029 N 0.21094 -0.08653 0.68964
 N2030 N 0.21826 -0.07179 0.69689
 C2031 C 0.21285 -0.06581 0.71336
 N2032 N 0.19978 -0.07519 0.72226
 N2033 N 0.28991 0.31117 0.41454
 C2034 C 0.30225 0.30176 0.40474
 N2035 N 0.30689 0.28483 0.41014
 N2036 N 0.29945 0.27756 0.42483
 C2037 C 0.28714 0.28699 0.43472
 N2038 N 0.28255 0.30395 0.42927
 N2039 N 0.29111 0.81197 -0.08571
 C2040 C 0.30381 0.80280 -0.09529
 N2041 N 0.30871 0.78598 -0.08976
 N2042 N 0.30115 0.77859 -0.07518
 C2043 C 0.28849 0.78778 -0.06553
 N2044 N 0.28365 0.80463 -0.07109
 N2045 N 0.78963 0.31171 -0.08559
 C2046 C 0.80234 0.30259 -0.09519
 N2047 N 0.80725 0.28575 -0.08972
 N2048 N 0.79972 0.27831 -0.07516
 C2049 C 0.78705 0.28746 -0.06547
 N2050 N 0.78218 0.30432 -0.07099
 N2051 N 0.79070 0.81188 0.41473
 C2052 C 0.80344 0.80274 0.40519
 N2053 N 0.80837 0.78592 0.41073
 N2054 N 0.80080 0.77852 0.42528
 C2055 C 0.78808 0.78768 0.43491
 N2056 N 0.78322 0.80452 0.42933
 N2057 N 0.71456 0.30699 0.58949
 C2058 C 0.69796 0.30170 0.59532
 N2059 N 0.68895 0.28879 0.58595
 N2060 N 0.69622 0.28150 0.57121
 C2061 C 0.71285 0.28672 0.56534
 N2062 N 0.72189 0.29960 0.57480
 N2063 N 0.69392 0.78460 1.09012
 C2064 C 0.69871 0.80149 1.09548
 N2065 N 0.71108 0.81077 1.08561
 N2066 N 0.71835 0.80345 1.07088
 C2067 C 0.71362 0.78653 1.06549
 N2068 N 0.70127 0.77725 1.07544
 N2069 N 0.20988 0.31162 1.08523
 C2070 C 0.19710 0.30259 1.09482
 N2071 N 0.19206 0.28582 1.08932
 N2072 N 0.19955 0.27834 1.07476
 C2073 C 0.21230 0.28738 1.06508
 N2074 N 0.21728 0.30418 1.07062
 N2075 N 0.21499 0.80745 0.58920
 C2076 C 0.19838 0.80213 0.59500
 N2077 N 0.18940 0.78922 0.58559
 N2078 N 0.19672 0.78195 0.57086
 C2079 C 0.21336 0.78720 0.56504
 N2080 N 0.22236 0.80009 0.57453
 N2081 N 0.31118 0.71009 0.58556
 C2082 C 0.30176 0.69785 0.59544
 N2083 N 0.28481 0.69321 0.59006
 N2084 N 0.27756 0.70058 0.57533
 C2085 C 0.28701 0.71278 0.56536
 N2086 N 0.30397 0.71737 0.57078
 N2087 N 0.30643 0.21528 1.08991
 C2088 C 0.30170 0.19840 1.09538
 N2089 N 0.28931 0.18906 1.08561
 N2090 N 0.28199 0.19630 1.07087
 C2091 C 0.28668 0.21321 1.06536
 N2092 N 0.29903 0.22256 1.07522
 N2093 N 0.79039 0.68830 1.08560
 C2094 C 0.80318 0.69738 1.09508
 N2095 N 0.80820 0.71412 1.08946
 N2096 N 0.80068 0.72152 1.07488
 C2097 C 0.78793 0.71242 1.06531
 N2098 N 0.78296 0.69565 1.07097
 N2099 N 0.81138 0.20831 0.58456
 C2100 C 0.80196 0.19610 0.59449
 N2101 N 0.78488 0.19172 0.58934
 N2102 N 0.77748 0.19930 0.57479
 C2103 C 0.78690 0.21150 0.56478
 N2104 N 0.80401 0.21581 0.56996
 N2105 N 0.69365 0.71570 0.41030
 C2106 C 0.69832 0.69876 0.40496
 N2107 N 0.71068 0.68940 0.41478
 N2108 N 0.71804 0.69668 0.42946
 C2109 C 0.71343 0.71365 0.43484
 N2110 N 0.70110 0.72302 0.42494
 N2111 N 0.70999 0.18882 -0.08533
 C2112 C 0.69765 0.19816 -0.09519
 N2113 N 0.69304 0.21514 -0.08994
 N2114 N 0.70052 0.22253 -0.07536
 C2115 C 0.71284 0.21319 -0.06541
 N2116 N 0.71739 0.19617 -0.07070
 N2117 N 0.19395 0.71658 -0.08992
 C2118 C 0.19895 0.69985 -0.09559
 N2119 N 0.21154 0.69056 -0.08598
 N2120 N 0.21880 0.69772 -0.07119
 C2121 C 0.21385 0.71448 -0.06549
 N2122 N 0.20130 0.72379 -0.07518
 N2123 N 0.19212 0.21510 0.41101
 C2124 C 0.19704 0.19829 0.40549
 N2125 N 0.20981 0.18916 0.41501
 N2126 N 0.21730 0.19653 0.42958
 C2127 C 0.21243 0.21336 0.43515
 N2128 N 0.19970 0.22251 0.42554
 N2129 N 0.28801 0.41417 0.69035
 C2130 C 0.30046 0.40429 0.69954
 N2131 N 0.30550 0.40981 0.71625
 N2132 N 0.29832 0.42468 0.72350
 C2133 C 0.28590 0.43464 0.71429
 N2134 N 0.28092 0.42908 0.69756
 N2135 N 0.31038 0.91455 0.21109
 C2136 C 0.30115 0.90497 0.19851
 N2137 N 0.28444 0.91073 0.19347
 N2138 N 0.27720 0.92553 0.20080
 C2139 C 0.28644 0.93518 0.21337
 N2140 N 0.30319 0.92940 0.21834
 N2141 N 0.81071 0.41463 0.21045
 C2142 C 0.80136 0.40499 0.19800
 N2143 N 0.78451 0.41059 0.19328
 N2144 N 0.77725 0.42531 0.20076
 C2145 C 0.78662 0.43504 0.21317
 N2146 N 0.80350 0.42940 0.21785
 N2147 N 0.80965 0.91425 0.71160
 C2148 C 0.80039 0.90462 0.69908
 N2149 N 0.78359 0.91025 0.69420
 N2150 N 0.77631 0.92499 0.70159
 C2151 C 0.78559 0.93472 0.71407
 N2152 N 0.80242 0.92905 0.71891
 N2153 N 0.68907 0.58531 0.71015
 C2154 C 0.69848 0.59510 0.69782
 N2155 N 0.71541 0.58961 0.69319
 N2156 N 0.72267 0.57486 0.70062
 C2157 C 0.71324 0.56498 0.71290
 N2158 N 0.69630 0.57051 0.71749
 N2159 N 0.71645 0.08953 0.19343
 C2160 C 0.69964 0.09518 0.19827
 N2161 N 0.69031 0.08552 0.21075
 N2162 N 0.69749 0.07068 0.21804
 C2163 C 0.71432 0.06499 0.21324
 N2164 N 0.72367 0.07475 0.20081
 N2165 N 0.18956 0.58568 0.20996
 C2166 C 0.19894 0.59538 0.19755
 N2167 N 0.21583 0.58982 0.19287
 N2168 N 0.22308 0.57509 0.20033
 C2169 C 0.21368 0.56530 0.21270
 N2170 N 0.19677 0.57089 0.21734
 N2171 N 0.21540 0.08972 0.69349
 C2172 C 0.19840 0.09506 0.69802
 N2173 N 0.18898 0.08516 0.71023
 N2174 N 0.19625 0.07038 0.71757
 C2175 C 0.21327 0.06499 0.71306
 N2176 N 0.22271 0.07500 0.70090
 N2177 N 0.31096 0.58598 0.28907
 C2178 C 0.30190 0.59532 0.30198
 N2179 N 0.28531 0.58942 0.30722
 N2180 N 0.27802 0.57473 0.29977
 C2181 C 0.28710 0.56531 0.28688
 N2182 N 0.30373 0.57123 0.28171
 N2183 N 0.30984 0.08579 0.78896
 C2184 C 0.30045 0.09547 0.80138
 N2185 N 0.28373 0.08969 0.80636
 N2186 N 0.27665 0.07479 0.79914
 C2187 C 0.28605 0.06502 0.78674
 N2188 N 0.30280 0.07083 0.78183
 N2189 N 0.81026 0.58563 0.78873
 C2190 C 0.80093 0.59538 0.80115
 N2191 N 0.78416 0.58974 0.80610
 N2192 N 0.77696 0.57490 0.79887
 C2193 C 0.78630 0.56506 0.78649
 N2194 N 0.80310 0.57073 0.78158
 N2195 N 0.81173 0.08505 0.28988
 C2196 C 0.80262 0.09446 0.30271
 N2197 N 0.78590 0.08871 0.30774
 N2198 N 0.77856 0.07410 0.30019
 C2199 C 0.78769 0.06459 0.28740
 N2200 N 0.80444 0.07037 0.28242
 N2201 N 0.68933 0.41409 0.28949
 C2202 C 0.69833 0.40477 0.30247
 N2203 N 0.71484 0.41077 0.30784
 N2204 N 0.72209 0.42553 0.30047
 C2205 C 0.71307 0.43493 0.28752
 N2206 N 0.69653 0.42891 0.28221
 N2207 N 0.68813 0.91424 0.79020
 C2208 C 0.69755 0.90438 0.80247
 N2209 N 0.71440 0.90992 0.80722
 N2210 N 0.72160 0.92474 0.79993
 C2211 C 0.71218 0.93468 0.78769
 N2212 N 0.69529 0.92912 0.78300
 N2213 N 0.20955 0.41412 0.81078
 C2214 C 0.19662 0.40469 0.80184
 N2215 N 0.19130 0.41051 0.78531
 N2216 N 0.19869 0.42524 0.77798
 C2217 C 0.21159 0.43475 0.78695
 N2218 N 0.21684 0.42889 0.80351
 N2219 N 0.21452 0.91120 0.30775
 C2220 C 0.19778 0.90553 0.30277
 N2221 N 0.18869 0.91498 0.28995
 N2222 N 0.19603 0.92964 0.28247
 C2223 C 0.21280 0.93535 0.28741
 N2224 N 0.22191 0.92580 0.30018
 N2225 N 0.40896 0.30672 0.71555
 C2226 C 0.40374 0.30214 0.69862
 N2227 N 0.41377 0.28994 0.68928
 N2228 N 0.42856 0.28265 0.69657
 C2229 C 0.43383 0.28718 0.71352
 N2230 N 0.42370 0.29934 0.72288
 N2231 N 0.41080 0.80853 0.21439
 C2232 C 0.40546 0.80371 0.19756
 N2233 N 0.41517 0.79102 0.18852
 N2234 N 0.42974 0.78350 0.19599
 C2235 C 0.43512 0.78826 0.21284
 N2236 N 0.42533 0.80091 0.22190
 N2237 N 0.91398 0.31188 0.21003
 C2238 C 0.90466 0.30285 0.19711
 N2239 N 0.91044 0.28616 0.19207
 N2240 N 0.92502 0.27876 0.19969
 C2241 C 0.93444 0.28781 0.21256
 N2242 N 0.92862 0.30453 0.21756
 N2243 N 0.91027 0.80844 0.71475
 C2244 C 0.90486 0.80355 0.69795
 N2245 N 0.91450 0.79079 0.68895
 N2246 N 0.92908 0.78326 0.69642
 C2247 C 0.93454 0.78809 0.71322
 N2248 N 0.92480 0.80081 0.72226
 N2249 N 0.58608 0.28920 0.31043
 C2250 C 0.59559 0.30208 0.30147
 N2251 N 0.58990 0.30729 0.28486
 N2252 N 0.57523 0.29986 0.27748
 C2253 C 0.56564 0.28701 0.28647
 N2254 N 0.57137 0.28186 0.30310
 N2255 N 0.58928 0.78489 0.80766
 C2256 C 0.59484 0.80172 0.80284
 N2257 N 0.58533 0.81086 0.79010
 N2258 N 0.57075 0.80349 0.78253
 C2259 C 0.56516 0.78663 0.78730
 N2260 N 0.57475 0.77747 0.80000
 N2261 N 0.08890 0.28457 0.80723
 C2262 C 0.09472 0.30119 0.80203
 N2263 N 0.08538 0.31019 0.78908
 N2264 N 0.07068 0.30288 0.78166
 C2265 C 0.06482 0.28623 0.78681
 N2266 N 0.07426 0.27721 0.79973
 N2267 N 0.09052 0.78509 0.30639
 C2268 C 0.09595 0.80198 0.30168
 N2269 N 0.08619 0.81128 0.28924
 N2270 N 0.07148 0.80397 0.28186
 C2271 C 0.06601 0.78704 0.28654
 N2272 N 0.07586 0.77774 0.29893
 N2273 N 0.58966 0.71423 0.69236
 C2274 C 0.59527 0.69741 0.69720
 N2275 N 0.58577 0.68827 0.70994
 N2276 N 0.57113 0.69563 0.71748
 C2277 C 0.56549 0.71247 0.71268
 N2278 N 0.57508 0.72164 0.69999
 N2279 N 0.58986 0.19146 0.21412
 C2280 C 0.59530 0.19640 0.19734
 N2281 N 0.58571 0.20923 0.18839
 N2282 N 0.57114 0.21677 0.19587
 C2283 C 0.56565 0.21188 0.21266
 N2284 N 0.57534 0.19909 0.22166
 N2285 N 0.08628 0.68849 0.20966
 C2286 C 0.09567 0.69757 0.19680
 N2287 N 0.08995 0.71431 0.19182
 N2288 N 0.07538 0.72171 0.19946
 C2289 C 0.06590 0.71263 0.21229
 N2290 N 0.07165 0.69585 0.21721
 N2291 N 0.08943 0.21396 0.69249
 C2292 C 0.09499 0.19713 0.69734
 N2293 N 0.08543 0.18799 0.71003
 N2294 N 0.07077 0.19537 0.71752
 C2295 C 0.06517 0.21222 0.71271
 N2296 N 0.07483 0.22138 0.70007
 N2297 N 0.41412 0.71091 0.31025
 C2298 C 0.40474 0.69792 0.30134
 N2299 N 0.41057 0.69263 0.28480
 N2300 N 0.42525 0.70010 0.27744
 C2301 C 0.43471 0.71305 0.28638
 N2302 N 0.42884 0.71827 0.30294
 N2303 N 0.40972 0.19221 0.78553
 C2304 C 0.40423 0.19717 0.80229
 N2305 N 0.41381 0.20995 0.81127
 N2306 N 0.42842 0.21742 0.80383
 C2307 C 0.43397 0.21251 0.78706
 N2308 N 0.42429 0.19978 0.77804
 N2309 N 0.91435 0.70982 0.81107
 C2310 C 0.90483 0.69701 0.80205
 N2311 N 0.91035 0.69211 0.78529
 N2312 N 0.92488 0.69977 0.77782
 C2313 C 0.93450 0.71253 0.78688
 N2314 N 0.92892 0.71738 0.80365
 N2315 N 0.91402 0.18901 0.28918
 C2316 C 0.90426 0.19823 0.30166
 N2317 N 0.90971 0.21508 0.30649
 N2318 N 0.92440 0.22245 0.29908
 C2319 C 0.93426 0.21322 0.28664
 N2320 N 0.92877 0.19635 0.28185
 N2321 N 0.28498 0.30815 0.58901
 C2322 C 0.30179 0.30322 0.59457
 N2323 N 0.31096 0.29049 0.58505
 N2324 N 0.30363 0.28304 0.57044
 C2325 C 0.28680 0.28791 0.56483
 N2326 N 0.27761 0.30060 0.57444
 N2327 N 0.31180 0.79049 0.08508
 C2328 C 0.30235 0.80279 0.09489
 N2329 N 0.28544 0.80749 0.08943
 N2330 N 0.27824 0.80015 0.07469
 C2331 C 0.28771 0.78790 0.06478
 N2332 N 0.30464 0.78324 0.07028
 N2333 N 0.80991 0.28932 0.08550
 C2334 C 0.80062 0.30186 0.09515
 N2335 N 0.78390 0.30693 0.08946
 N2336 N 0.77672 0.29969 0.07465
 C2337 C 0.78603 0.28719 0.06491
 N2338 N 0.80278 0.28217 0.07064
 N2339 N 0.78482 0.80734 0.58971
 C2340 C 0.80175 0.80269 0.59514
 N2341 N 0.81121 0.79041 0.58531
 N2342 N 0.80403 0.78313 0.57053
 C2343 C 0.78708 0.78774 0.56505
 N2344 N 0.77760 0.79998 0.57498
 N2345 N 0.30770 0.71498 0.41072
 C2346 C 0.30232 0.69843 0.40488
 N2347 N 0.28935 0.68948 0.41427
 N2348 N 0.28211 0.69675 0.42904
 C2349 C 0.28744 0.71331 0.43492
 N2350 N 0.30037 0.72230 0.42543
 N2351 N 0.31039 0.20993 0.91490
 C2352 C 0.30101 0.19761 0.90508
 N2353 N 0.28408 0.19295 0.91050
 N2354 N 0.27679 0.20035 0.92520
 C2355 C 0.28618 0.21264 0.93510
 N2356 N 0.30314 0.21725 0.92964
 N2357 N 0.81131 0.70958 0.91484
 C2358 C 0.80191 0.69728 0.90503
 N2359 N 0.78500 0.69261 0.91048
 N2360 N 0.77774 0.70000 0.92520
 C2361 C 0.78715 0.71227 0.93510
 N2362 N 0.80410 0.71688 0.92961
 N2363 N 0.80627 0.21526 0.41029
 C2364 C 0.80123 0.19855 0.40461
 N2365 N 0.78868 0.18929 0.41426
 N2366 N 0.78149 0.19644 0.42911
 C2367 C 0.78647 0.21317 0.43483
 N2368 N 0.79900 0.22245 0.42509
 N2369 N 0.69253 0.28457 0.41074
 C2370 C 0.69791 0.30114 0.40494
 N2371 N 0.71083 0.31008 0.41438
 N2372 N 0.71805 0.30277 0.42914
 C2373 C 0.71272 0.28617 0.43498
 N2374 N 0.69984 0.27720 0.42545
 N2375 N 0.68994 0.78817 0.91451
 C2376 C 0.69910 0.80075 0.90481
 N2377 N 0.71580 0.80592 0.91047
 N2378 N 0.72307 0.79873 0.92527
 C2379 C 0.71388 0.78618 0.93505
 N2380 N 0.69716 0.78107 0.92937
 N2381 N 0.18881 0.28892 0.91445
 C2382 C 0.19777 0.30189 0.90506
 N2383 N 0.21433 0.30726 0.91090
 N2384 N 0.22167 0.29990 0.92559
 C2385 C 0.21269 0.28697 0.93507
 N2386 N 0.19610 0.28165 0.92919
 N2387 N 0.19395 0.78438 0.41011
 C2388 C 0.19903 0.80109 0.40444
 N2389 N 0.21155 0.81033 0.41413
 N2390 N 0.21867 0.80316 0.42900
 C2391 C 0.21365 0.78642 0.43470
 N2392 N 0.20116 0.77717 0.42493
 N2393 N 0.71637 0.69365 0.58960
 C2394 C 0.69965 0.69873 0.59532
 N2395 N 0.69039 0.71132 0.58568
 N2396 N 0.69754 0.71849 0.57083
 C2397 C 0.71429 0.71346 0.56508
 N2398 N 0.72357 0.70091 0.57480
 N2399 N 0.71573 0.19325 0.08943
 C2400 C 0.69880 0.19789 0.09489
 N2401 N 0.68933 0.21018 0.08508
 N2402 N 0.69650 0.21750 0.07030
 C2403 C 0.71346 0.21291 0.06480
 N2404 N 0.72293 0.20065 0.07469
 N2405 N 0.19093 0.71169 0.08550
 C2406 C 0.20018 0.69910 0.09512
 N2407 N 0.21692 0.69404 0.08944
 N2408 N 0.22415 0.70134 0.07467
 C2409 C 0.21488 0.71390 0.06496
 N2410 N 0.19812 0.71890 0.07068
 N2411 N 0.21562 0.19325 0.58962
 C2412 C 0.19889 0.19829 0.59534
 N2413 N 0.18960 0.21087 0.58574
 N2414 N 0.19675 0.21812 0.57092
 C2415 C 0.21352 0.21315 0.56517
 N2416 N 0.22282 0.20059 0.57485
   
