data_POSCAR
  _audit_creation_date              2014-09-24
  _audit_creation_method            'ToBaCCo'
  _symmetry_space_group_name_H-M    'P1'
  _symmetry_Int_Tables_number       1
  _symmetry_cell_setting            triclinic
  loop_
  _symmetry_equiv_pos_as_xyz
 x,y,z
_cell_length_a 43.6234
_cell_length_b 29.6723
_cell_length_c 30.7500
_cell_angle_alpha 89.914100
_cell_angle_beta 89.937800
_cell_angle_gamma 89.978300
loop_
  _atom_site_label
  _atom_site_type_symbol
  _atom_site_fract_x
  _atom_site_fract_y
  _atom_site_fract_z
C1 C 0.00137 -0.00031 0.13990
 C2 C 0.00099 -0.00007 -0.14455
 C3 C -0.06990 -0.07397 0.06494
 C4 C -0.06985 0.07335 0.06496
 C5 C -0.07000 -0.07362 -0.06864
 C6 C 0.07131 -0.06998 -0.07299
 C7 C 0.07127 0.06951 -0.07296
 C8 C 0.07127 -0.06976 0.06805
 C9 C -0.06996 0.07332 -0.06850
 C10 C 0.07127 0.06923 0.06797
 O11 O -0.04197 -0.08327 -0.07866
 O12 O -0.07849 -0.04340 -0.04099
 O13 O -0.04195 0.08297 -0.07857
 O14 O -0.07847 0.04301 -0.04090
 O15 O 0.04326 0.07918 0.07760
 O16 O 0.07977 0.04096 0.03848
 O17 O 0.00074 0.03835 -0.12519
 O18 O 0.00076 -0.03856 -0.12520
 O19 O 0.00106 0.03815 0.12058
 O20 O 0.00103 -0.03878 0.12069
 O21 O 0.04324 -0.07972 -0.08255
 O22 O 0.07974 -0.04167 -0.04349
 O23 O -0.04181 -0.08384 0.07438
 O24 O -0.07847 -0.04347 0.03753
 O25 O 0.04328 -0.07976 0.07772
 O26 O 0.07977 -0.04151 0.03848
 O27 O 0.04321 0.07930 -0.08256
 O28 O 0.07972 0.04114 -0.04347
 O29 O 0.00174 0.12602 0.06356
 O30 O 0.00218 0.12620 -0.06744
 O31 O 0.00217 -0.12665 -0.06726
 O32 O 0.00178 -0.12665 0.06382
 O33 O -0.02589 -0.05961 -0.00211
 O34 O -0.02590 0.05907 -0.00217
 O35 O 0.02681 -0.05922 -0.00230
 O36 O -0.02727 -0.00030 0.05583
 O37 O -0.07845 0.04291 0.03759
 O38 O -0.04176 0.08321 0.07429
 O39 O 0.02878 -0.00033 0.05582
 O40 O 0.02874 -0.00023 -0.06059
 O41 O 0.02682 0.05868 -0.00237
 O42 O -0.02734 -0.00021 -0.05984
 Zr43 Zr 0.00067 0.05561 0.05421
 Zr44 Zr 0.00062 -0.05613 -0.05874
 Zr45 Zr -0.05206 -0.00027 -0.00188
 Zr46 Zr 0.00066 -0.05624 0.05431
 Zr47 Zr 0.00062 0.05568 -0.05876
 Zr48 Zr 0.05328 -0.00028 -0.00247
 H49 H 0.03922 -0.08715 -0.00237
 H50 H -0.04089 -0.00033 0.08158
 H51 H 0.03921 0.08661 -0.00247
 H52 H -0.04101 -0.00015 -0.08549
 H53 H 0.00291 0.13924 0.03408
 H54 H -0.00538 0.13920 -0.03983
 H55 H 0.00288 -0.13985 0.03436
 H56 H -0.00544 -0.13964 -0.03965
 C57 C 0.25072 0.24977 0.10693
 C58 C 0.25036 0.24964 0.39136
 C59 C 0.17928 0.32356 0.18238
 C60 C 0.17941 0.17611 0.18237
 C61 C 0.17903 0.32318 0.31612
 C62 C 0.32018 0.32001 0.31921
 C63 C 0.32017 0.17959 0.31932
 C64 C 0.32036 0.32012 0.17967
 C65 C 0.17910 0.17636 0.31588
 C66 C 0.32062 0.17931 0.17972
 O67 O 0.20707 0.33277 0.32593
 O68 O 0.17051 0.29302 0.28839
 O69 O 0.20711 0.16669 0.32578
 O70 O 0.17056 0.20660 0.28823
 O71 O 0.29261 0.16959 0.16989
 O72 O 0.32900 0.20814 0.20876
 O73 O 0.25000 0.21120 0.37210
 O74 O 0.25003 0.28815 0.37208
 O75 O 0.25042 0.21135 0.12632
 O76 O 0.25030 0.28821 0.12622
 O77 O 0.29214 0.32972 0.32895
 O78 O 0.32872 0.29135 0.29008
 O79 O 0.20735 0.33334 0.17282
 O80 O 0.17065 0.29307 0.20974
 O81 O 0.29238 0.32990 0.16981
 O82 O 0.32885 0.29134 0.20871
 O83 O 0.29215 0.16982 0.32906
 O84 O 0.32872 0.20824 0.29016
 O85 O 0.25083 0.12352 0.18309
 O86 O 0.25097 0.12334 0.31442
 O87 O 0.25091 0.37619 0.31411
 O88 O 0.25070 0.37601 0.18275
 O89 O 0.22316 0.30912 0.24909
 O90 O 0.22322 0.19051 0.24915
 O91 O 0.27579 0.30863 0.24920
 O92 O 0.22187 0.24977 0.19122
 O93 O 0.17073 0.20659 0.20968
 O94 O 0.20750 0.16629 0.17293
 O95 O 0.27803 0.24980 0.19091
 O96 O 0.27778 0.24975 0.30749
 O97 O 0.27587 0.19085 0.24930
 O98 O 0.22168 0.24976 0.30694
 Zr99 Zr 0.24990 0.19389 0.19271
 Zr100 Zr 0.24961 0.30566 0.30566
 Zr101 Zr 0.19700 0.24983 0.24905
 Zr102 Zr 0.24978 0.30565 0.19262
 Zr103 Zr 0.24964 0.19386 0.30570
 Zr104 Zr 0.30236 0.24975 0.24930
 H105 H 0.28808 0.33666 0.24927
 H106 H 0.20829 0.24981 0.16547
 H107 H 0.28819 0.16284 0.24942
 H108 H 0.20805 0.24973 0.33267
 H109 H 0.25186 0.11017 0.21253
 H110 H 0.24379 0.11039 0.28662
 H111 H 0.25167 0.38937 0.21215
 H112 H 0.24360 0.38911 0.28632
 C113 C 0.49971 -0.00165 0.14193
 C114 C 0.49942 -0.00187 -0.14149
 C115 C 0.57153 0.07109 0.06732
 C116 C 0.57160 -0.07489 0.06785
 C117 C 0.57159 0.07099 -0.06805
 C118 C 0.43019 0.06847 -0.06952
 C119 C 0.43020 -0.07200 -0.06941
 C120 C 0.43028 0.06883 0.07012
 C121 C 0.57151 -0.07473 -0.06786
 C122 C 0.43002 -0.07246 0.07068
 O123 O 0.54345 0.08060 -0.07758
 O124 O 0.58010 0.04114 -0.03985
 O125 O 0.54338 -0.08439 -0.07732
 O126 O 0.58005 -0.04499 -0.03971
 O127 O 0.45815 -0.08223 0.08014
 O128 O 0.42163 -0.04355 0.04158
 O129 O 0.49991 -0.04038 -0.12228
 O130 O 0.49993 0.03661 -0.12239
 O131 O 0.50013 -0.04020 0.12296
 O132 O 0.50021 0.03676 0.12265
 O133 O 0.45823 0.07816 -0.07941
 O134 O 0.42172 0.03976 -0.04029
 O135 O 0.54346 0.08105 0.07678
 O136 O 0.58011 0.04103 0.03952
 O137 O 0.45835 0.07860 0.07959
 O138 O 0.42173 0.03986 0.04131
 O139 O 0.45823 -0.08181 -0.07922
 O140 O 0.42172 -0.04339 -0.04021
 O141 O 0.50036 -0.12832 0.06627
 O142 O 0.49966 -0.12850 -0.06382
 O143 O 0.49968 0.12469 -0.06426
 O144 O 0.50043 0.12455 0.06563
 O145 O 0.52760 0.05749 0.00002
 O146 O 0.52754 -0.06133 0.00032
 O147 O 0.47468 0.05701 0.00021
 O148 O 0.52879 -0.00192 0.05783
 O149 O 0.58009 -0.04494 0.03977
 O150 O 0.54348 -0.08475 0.07734
 O151 O 0.47275 -0.00185 0.05862
 O152 O 0.47271 -0.00189 -0.05762
 O153 O 0.47465 -0.06083 0.00049
 O154 O 0.52871 -0.00193 -0.05752
 Zr155 Zr 0.50086 -0.05789 0.05681
 Zr156 Zr 0.50087 0.05407 -0.05621
 Zr157 Zr 0.55373 -0.00195 0.00003
 Zr158 Zr 0.50093 0.05410 0.05645
 Zr159 Zr 0.50084 -0.05788 -0.05599
 Zr160 Zr 0.44812 -0.00190 0.00057
 H161 H 0.46238 0.08503 0.00014
 H162 H 0.54230 -0.00188 0.08363
 H163 H 0.46232 -0.08881 0.00052
 H164 H 0.54215 -0.00192 -0.08344
 H165 H 0.49759 -0.14149 0.03703
 H166 H 0.50830 -0.14111 -0.03668
 H167 H 0.49757 0.13769 0.03635
 H168 H 0.50843 0.13731 -0.03722
 C169 C 0.75162 0.24898 0.10893
 C170 C 0.75131 0.24884 0.39235
 C171 C 0.67989 0.32195 0.18302
 C172 C 0.68019 0.17565 0.18319
 C173 C 0.67977 0.32158 0.31811
 C174 C 0.82094 0.31864 0.32116
 C175 C 0.82134 0.17933 0.32138
 C176 C 0.82106 0.31884 0.18014
 C177 C 0.68009 0.17598 0.31809
 C178 C 0.82138 0.17946 0.18003
 O179 O 0.70782 0.33135 0.32783
 O180 O 0.67130 0.29175 0.29004
 O181 O 0.70813 0.16623 0.32785
 O182 O 0.67150 0.20577 0.29000
 O183 O 0.79335 0.16942 0.17063
 O184 O 0.82985 0.20781 0.20947
 O185 O 0.75107 0.21034 0.37322
 O186 O 0.75089 0.28735 0.37314
 O187 O 0.75129 0.21048 0.12810
 O188 O 0.75115 0.28745 0.12803
 O189 O 0.79288 0.32843 0.33073
 O190 O 0.82956 0.29041 0.29168
 O191 O 0.70797 0.33195 0.17363
 O192 O 0.67134 0.29178 0.21082
 O193 O 0.79303 0.32873 0.17065
 O194 O 0.82966 0.29046 0.20954
 O195 O 0.79326 0.16947 0.33093
 O196 O 0.82977 0.20765 0.29176
 O197 O 0.75158 0.12249 0.18520
 O198 O 0.75216 0.12228 0.31493
 O199 O 0.75176 0.37547 0.31461
 O200 O 0.75117 0.37538 0.18493
 O201 O 0.72378 0.30832 0.25052
 O202 O 0.72401 0.18948 0.25063
 O203 O 0.77672 0.30788 0.25055
 O204 O 0.72273 0.24886 0.19281
 O205 O 0.67153 0.20575 0.21090
 O206 O 0.70830 0.16574 0.17386
 O207 O 0.77869 0.24902 0.19254
 O208 O 0.77862 0.24896 0.30862
 O209 O 0.77696 0.18994 0.25065
 O210 O 0.72267 0.24879 0.30812
 Zr211 Zr 0.75072 0.19295 0.19431
 Zr212 Zr 0.75041 0.30484 0.30686
 Zr213 Zr 0.69778 0.24884 0.25047
 Zr214 Zr 0.75049 0.30491 0.19420
 Zr215 Zr 0.75066 0.19290 0.30698
 Zr216 Zr 0.80331 0.24898 0.25060
 H217 H 0.78907 0.33585 0.25061
 H218 H 0.70919 0.24885 0.16703
 H219 H 0.78942 0.16206 0.25075
 H220 H 0.70912 0.24877 0.33393
 H221 H 0.75463 0.10941 0.21446
 H222 H 0.74338 0.10963 0.28793
 H223 H 0.75414 0.38846 0.21417
 H224 H 0.74285 0.38809 0.28764
 C225 C 0.00034 0.50044 0.14137
 C226 C 0.00017 0.50045 -0.14305
 C227 C -0.07076 0.42660 0.06619
 C228 C -0.07091 0.57410 0.06599
 C229 C -0.07099 0.42684 -0.06731
 C230 C 0.07016 0.43097 -0.07109
 C231 C 0.07004 0.57006 -0.07137
 C232 C 0.07031 0.43085 0.06958
 C233 C -0.07103 0.57389 -0.06743
 C234 C 0.07027 0.57040 0.06950
 O235 O -0.04293 0.41729 -0.07723
 O236 O -0.07954 0.45709 -0.03969
 O237 O -0.04300 0.58354 -0.07737
 O238 O -0.07957 0.54361 -0.03978
 O239 O 0.04222 0.58028 0.07908
 O240 O 0.07875 0.54197 0.04011
 O241 O -0.00018 0.53891 -0.12374
 O242 O -0.00011 0.46200 -0.12363
 O243 O -0.00003 0.53892 0.12209
 O244 O 0.00001 0.46199 0.12216
 O245 O 0.04216 0.42111 -0.08079
 O246 O 0.07865 0.45925 -0.04166
 O247 O -0.04269 0.41683 0.07568
 O248 O -0.07943 0.45709 0.03886
 O249 O 0.04230 0.42086 0.07920
 O250 O 0.07877 0.45929 0.04016
 O251 O 0.04203 0.57987 -0.08107
 O252 O 0.07859 0.54187 -0.04181
 O253 O 0.00057 0.62680 0.06515
 O254 O 0.00099 0.62687 -0.06587
 O255 O 0.00118 0.37403 -0.06545
 O256 O 0.00081 0.37419 0.06547
 O257 O -0.02691 0.44110 -0.00057
 O258 O -0.02698 0.55972 -0.00072
 O259 O 0.02580 0.44160 -0.00071
 O260 O -0.02832 0.50045 0.05722
 O261 O -0.07951 0.54358 0.03873
 O262 O -0.04286 0.58397 0.07547
 O263 O 0.02776 0.50053 0.05752
 O264 O 0.02767 0.50049 -0.05889
 O265 O 0.02572 0.55948 -0.00086
 O266 O -0.02841 0.50042 -0.05846
 Zr267 Zr -0.00039 0.55641 0.05571
 Zr268 Zr -0.00042 0.44457 -0.05715
 Zr269 Zr -0.05313 0.50038 -0.00056
 Zr270 Zr -0.00031 0.44458 0.05583
 Zr271 Zr -0.00049 0.55634 -0.05729
 Zr272 Zr 0.05223 0.50058 -0.00073
 H273 H 0.03821 0.41367 -0.00073
 H274 H -0.04195 0.50041 0.08296
 H275 H 0.03809 0.58743 -0.00097
 H276 H -0.04204 0.50041 -0.08415
 H277 H 0.00196 0.64007 0.03571
 H278 H -0.00661 0.63981 -0.03826
 H279 H 0.00226 0.36093 0.03607
 H280 H -0.00653 0.36111 -0.03786
 C281 C 0.25124 0.75080 0.10788
 C282 C 0.25077 0.75140 0.39134
 C283 C 0.17996 0.82488 0.18249
 C284 C 0.17946 0.67759 0.18271
 C285 C 0.17944 0.82479 0.31616
 C286 C 0.32055 0.82117 0.31942
 C287 C 0.32044 0.68063 0.31973
 C288 C 0.32132 0.82120 0.17952
 C289 C 0.17928 0.67788 0.31669
 C290 C 0.32062 0.68033 0.18015
 O291 O 0.20750 0.83437 0.32594
 O292 O 0.17089 0.79456 0.28857
 O293 O 0.20733 0.66828 0.32655
 O294 O 0.17078 0.70807 0.28887
 O295 O 0.29260 0.67060 0.17050
 O296 O 0.32919 0.70916 0.20903
 O297 O 0.25038 0.71288 0.37230
 O298 O 0.25045 0.78985 0.37203
 O299 O 0.25071 0.71238 0.12714
 O300 O 0.25098 0.78932 0.12686
 O301 O 0.29252 0.83102 0.32906
 O302 O 0.32913 0.79245 0.29039
 O303 O 0.20805 0.83462 0.17302
 O304 O 0.17120 0.79451 0.20991
 O305 O 0.29326 0.83107 0.16979
 O306 O 0.32960 0.79237 0.20874
 O307 O 0.29237 0.67107 0.32950
 O308 O 0.32906 0.70926 0.29055
 O309 O 0.25079 0.62466 0.18395
 O310 O 0.25115 0.62474 0.31488
 O311 O 0.25138 0.87768 0.31389
 O312 O 0.25140 0.87733 0.18305
 O313 O 0.22361 0.81046 0.24922
 O314 O 0.22335 0.69176 0.24970
 O315 O 0.27642 0.80998 0.24942
 O316 O 0.22230 0.75116 0.19171
 O317 O 0.17088 0.70811 0.21005
 O318 O 0.20755 0.66766 0.17332
 O319 O 0.27839 0.75085 0.19134
 O320 O 0.27811 0.75111 0.30767
 O321 O 0.27616 0.69214 0.24978
 O322 O 0.22203 0.75127 0.30722
 Zr323 Zr 0.25005 0.69506 0.19336
 Zr324 Zr 0.25003 0.80712 0.30570
 Zr325 Zr 0.19731 0.75120 0.24942
 Zr326 Zr 0.25045 0.80697 0.19295
 Zr327 Zr 0.24989 0.69526 0.30611
 Zr328 Zr 0.30282 0.75095 0.24958
 H329 H 0.28878 0.83793 0.24939
 H330 H 0.20873 0.75114 0.16595
 H331 H 0.28839 0.66405 0.24995
 H332 H 0.20840 0.75135 0.33294
 H333 H 0.25229 0.61140 0.21338
 H334 H 0.24356 0.61178 0.28730
 H335 H 0.25326 0.89070 0.21235
 H336 H 0.24380 0.89050 0.28620
 C337 C 0.49873 0.50009 0.14190
 C338 C 0.49880 0.49982 -0.14153
 C339 C 0.57048 0.57308 0.06731
 C340 C 0.57059 0.42688 0.06777
 C341 C 0.57046 0.57267 -0.06742
 C342 C 0.42935 0.57037 -0.06987
 C343 C 0.42936 0.42955 -0.06944
 C344 C 0.42938 0.57043 0.06978
 C345 C 0.57041 0.42698 -0.06700
 C346 C 0.42942 0.42976 0.07000
 O347 O 0.54244 0.58245 -0.07715
 O348 O 0.57904 0.54283 -0.03937
 O349 O 0.54238 0.41725 -0.07670
 O350 O 0.57901 0.45686 -0.03912
 O351 O 0.45742 0.41990 0.07972
 O352 O 0.42089 0.45856 0.04099
 O353 O 0.49923 0.46136 -0.12228
 O354 O 0.49923 0.53834 -0.12248
 O355 O 0.49919 0.46160 0.12285
 O356 O 0.49918 0.53855 0.12267
 O357 O 0.45740 0.58008 -0.07964
 O358 O 0.42085 0.54164 -0.04070
 O359 O 0.54242 0.58308 0.07672
 O360 O 0.57908 0.54292 0.03965
 O361 O 0.45739 0.58025 0.07942
 O362 O 0.42085 0.54163 0.04085
 O363 O 0.45740 0.41978 -0.07917
 O364 O 0.42085 0.45838 -0.04045
 O365 O 0.49937 0.37366 0.06634
 O366 O 0.49869 0.37341 -0.06418
 O367 O 0.49875 0.62645 -0.06476
 O368 O 0.49932 0.62639 0.06577
 O369 O 0.52659 0.55935 0.00004
 O370 O 0.52660 0.44052 0.00032
 O371 O 0.47377 0.55896 0.00007
 O372 O 0.52784 0.50001 0.05802
 O373 O 0.57914 0.45699 0.03992
 O374 O 0.54250 0.41695 0.07722
 O375 O 0.47183 0.50004 0.05834
 O376 O 0.47180 0.49995 -0.05797
 O377 O 0.47378 0.44109 0.00037
 O378 O 0.52779 0.49990 -0.05743
 Zr379 Zr 0.49999 0.44407 0.05670
 Zr380 Zr 0.49993 0.55588 -0.05629
 Zr381 Zr 0.55269 0.49992 0.00027
 Zr382 Zr 0.49995 0.55597 0.05643
 Zr383 Zr 0.49991 0.44399 -0.05600
 Zr384 Zr 0.44728 0.50005 0.00017
 H385 H 0.46147 0.58698 -0.00006
 H386 H 0.54137 0.50003 0.08382
 H387 H 0.46149 0.41307 0.00036
 H388 H 0.54130 0.49985 -0.08328
 H389 H 0.49707 0.36041 0.03705
 H390 H 0.50674 0.36062 -0.03675
 H391 H 0.49710 0.63961 0.03641
 H392 H 0.50685 0.63924 -0.03740
 C393 C 0.75082 0.75050 0.10796
 C394 C 0.75056 0.75133 0.39136
 C395 C 0.67907 0.82372 0.18168
 C396 C 0.67923 0.67762 0.18256
 C397 C 0.67912 0.82383 0.31695
 C398 C 0.82019 0.82058 0.31993
 C399 C 0.82029 0.68136 0.32048
 C400 C 0.82042 0.82037 0.17882
 C401 C 0.67911 0.67817 0.31746
 C402 C 0.82034 0.68102 0.17944
 O403 O 0.70716 0.83362 0.32659
 O404 O 0.67055 0.79400 0.28897
 O405 O 0.70717 0.66849 0.32722
 O406 O 0.67055 0.70795 0.28930
 O407 O 0.79232 0.67101 0.17002
 O408 O 0.82887 0.70947 0.20870
 O409 O 0.75021 0.71277 0.37236
 O410 O 0.75018 0.78977 0.37202
 O411 O 0.75038 0.71208 0.12726
 O412 O 0.75040 0.78905 0.12690
 O413 O 0.79215 0.83052 0.32948
 O414 O 0.82876 0.79227 0.29051
 O415 O 0.70717 0.83368 0.17225
 O416 O 0.67052 0.79375 0.20969
 O417 O 0.79238 0.83036 0.16930
 O418 O 0.82890 0.79205 0.20836
 O419 O 0.79223 0.67156 0.33014
 O420 O 0.82882 0.70958 0.29085
 O421 O 0.75051 0.62432 0.18454
 O422 O 0.75111 0.62447 0.31434
 O423 O 0.75107 0.87766 0.31317
 O424 O 0.75040 0.87722 0.18358
 O425 O 0.72301 0.81034 0.24933
 O426 O 0.72305 0.69150 0.24986
 O427 O 0.77596 0.80986 0.24934
 O428 O 0.72186 0.75077 0.19187
 O429 O 0.67059 0.70781 0.21018
 O430 O 0.70731 0.66762 0.17321
 O431 O 0.77781 0.75076 0.19153
 O432 O 0.77775 0.75104 0.30761
 O433 O 0.77598 0.69190 0.24986
 O434 O 0.72182 0.75104 0.30718
 Zr435 Zr 0.74975 0.69479 0.19352
 Zr436 Zr 0.74966 0.80701 0.30567
 Zr437 Zr 0.69691 0.75092 0.24954
 Zr438 Zr 0.74972 0.80677 0.19300
 Zr439 Zr 0.74970 0.69507 0.30618
 Zr440 Zr 0.80242 0.75087 0.24959
 H441 H 0.78837 0.83777 0.24931
 H442 H 0.70834 0.75066 0.16607
 H443 H 0.78839 0.66397 0.25004
 H444 H 0.70829 0.75110 0.33300
 H445 H 0.75346 0.61128 0.21384
 H446 H 0.74236 0.61175 0.28734
 H447 H 0.75371 0.89035 0.21273
 H448 H 0.74218 0.89019 0.28615
 C449 C 0.00031 0.00093 0.35745
 C450 C -0.00009 0.00091 0.64180
 C451 C -0.07126 0.07469 0.43247
 C452 C -0.07103 -0.07274 0.43299
 C453 C -0.07127 0.07440 0.56627
 C454 C 0.06984 0.07047 0.57022
 C455 C 0.06985 -0.06855 0.57025
 C456 C 0.06993 0.07061 0.42920
 C457 C -0.07127 -0.07244 0.56633
 C458 C 0.07013 -0.06861 0.42935
 O459 O -0.04325 0.08401 0.57618
 O460 O -0.07980 0.04425 0.53860
 O461 O -0.04324 -0.08207 0.57627
 O462 O -0.07980 -0.04218 0.53867
 O463 O 0.04212 -0.07858 0.41977
 O464 O 0.07856 -0.04023 0.45875
 O465 O -0.00043 -0.03755 0.62253
 O466 O -0.00044 0.03942 0.62248
 O467 O -0.00008 -0.03751 0.37679
 O468 O -0.00014 0.03943 0.37661
 O469 O 0.04180 0.08037 0.57982
 O470 O 0.07837 0.04229 0.54066
 O471 O -0.04317 0.08450 0.42293
 O472 O -0.07981 0.04423 0.45997
 O473 O 0.04194 0.08060 0.41956
 O474 O 0.07843 0.04231 0.45868
 O475 O 0.04182 -0.07842 0.57992
 O476 O 0.07837 -0.04030 0.54069
 O477 O 0.00051 -0.12530 0.43375
 O478 O 0.00081 -0.12546 0.56452
 O479 O 0.00080 0.12746 0.56425
 O480 O 0.00029 0.12735 0.43339
 O481 O -0.02724 0.06038 0.49946
 O482 O -0.02718 -0.05826 0.49960
 O483 O 0.02547 0.05996 0.49951
 O484 O -0.02856 0.00100 0.44160
 O485 O -0.07968 -0.04222 0.46024
 O486 O -0.04295 -0.08257 0.42347
 O487 O 0.02750 0.00105 0.44141
 O488 O 0.02737 0.00100 0.55776
 O489 O 0.02555 -0.05795 0.49970
 O490 O -0.02867 0.00101 0.55729
 Zr491 Zr -0.00054 -0.05490 0.44317
 Zr492 Zr -0.00074 0.05691 0.55600
 Zr493 Zr -0.05338 0.00106 0.49941
 Zr494 Zr -0.00068 0.05695 0.44297
 Zr495 Zr -0.00072 -0.05490 0.55612
 Zr496 Zr 0.05197 0.00102 0.49964
 H497 H 0.03786 0.08789 0.49958
 H498 H -0.04216 0.00098 0.41587
 H499 H 0.03797 -0.08587 0.49980
 H500 H -0.04231 0.00098 0.58301
 H501 H 0.00235 -0.13854 0.46315
 H502 H -0.00697 -0.13832 0.53700
 H503 H 0.00196 0.14058 0.46278
 H504 H -0.00702 0.14035 0.53673
 C505 C 0.25040 0.24888 0.89349
 C506 C 0.25048 0.24900 0.60910
 C507 C 0.17899 0.17516 0.81793
 C508 C 0.17917 0.32281 0.81758
 C509 C 0.17901 0.17573 0.68431
 C510 C 0.32012 0.17874 0.68129
 C511 C 0.32025 0.31917 0.68122
 C512 C 0.32030 0.17826 0.82094
 C513 C 0.17912 0.32261 0.68444
 C514 C 0.32029 0.31923 0.82082
 O515 O 0.20706 0.16602 0.67452
 O516 O 0.17047 0.20590 0.71201
 O517 O 0.20718 0.33219 0.67459
 O518 O 0.17053 0.29230 0.71206
 O519 O 0.29227 0.32900 0.83058
 O520 O 0.32879 0.29040 0.79184
 O521 O 0.25014 0.28746 0.62834
 O522 O 0.25010 0.21051 0.62840
 O523 O 0.25004 0.28732 0.87414
 O524 O 0.25003 0.21041 0.87429
 O525 O 0.29211 0.16903 0.67154
 O526 O 0.32865 0.20731 0.71044
 O527 O 0.20704 0.16534 0.82760
 O528 O 0.17046 0.20571 0.79057
 O529 O 0.29226 0.16854 0.83075
 O530 O 0.32877 0.20711 0.79188
 O531 O 0.29223 0.32890 0.67144
 O532 O 0.32874 0.29046 0.71040
 O533 O 0.25061 0.37507 0.81749
 O534 O 0.25104 0.37537 0.68606
 O535 O 0.25089 0.12252 0.68640
 O536 O 0.25046 0.12257 0.81772
 O537 O 0.22306 0.18960 0.75139
 O538 O 0.22314 0.30821 0.75125
 O539 O 0.27569 0.19000 0.75131
 O540 O 0.22164 0.24889 0.80922
 O541 O 0.17056 0.29224 0.79042
 O542 O 0.20722 0.33254 0.82720
 O543 O 0.27782 0.24880 0.80961
 O544 O 0.27779 0.24890 0.69304
 O545 O 0.27577 0.30776 0.75119
 O546 O 0.22169 0.24900 0.69346
 Zr547 Zr 0.24967 0.30473 0.80773
 Zr548 Zr 0.24958 0.19305 0.69483
 Zr549 Zr 0.19691 0.24895 0.75131
 Zr550 Zr 0.24960 0.19294 0.80791
 Zr551 Zr 0.24966 0.30485 0.69473
 Zr552 Zr 0.30228 0.24884 0.75125
 H553 H 0.28799 0.16197 0.75124
 H554 H 0.20799 0.24891 0.83494
 H555 H 0.28808 0.33577 0.75110
 H556 H 0.20810 0.24908 0.66773
 H557 H 0.25165 0.38848 0.78808
 H558 H 0.24390 0.38832 0.71391
 H559 H 0.25165 0.10923 0.78833
 H560 H 0.24348 0.10961 0.71416
 C561 C 0.49885 0.00044 0.35833
 C562 C 0.49839 -0.00007 0.64179
 C563 C 0.57027 -0.07269 0.43288
 C564 C 0.57039 0.07330 0.43301
 C565 C 0.56999 -0.07272 0.56750
 C566 C 0.42901 -0.06979 0.56967
 C567 C 0.42908 0.07048 0.56986
 C568 C 0.42922 -0.06973 0.43018
 C569 C 0.57011 0.07285 0.56767
 C570 C 0.42928 0.07092 0.43016
 O571 O 0.54194 -0.08251 0.57716
 O572 O 0.57863 -0.04282 0.53956
 O573 O 0.54207 0.08270 0.57732
 O574 O 0.57870 0.04304 0.53967
 O575 O 0.45731 0.08075 0.42053
 O576 O 0.42070 0.04211 0.45915
 O577 O 0.49882 0.03850 0.62268
 O578 O 0.49878 -0.03849 0.62257
 O579 O 0.49925 0.03893 0.37743
 O580 O 0.49920 -0.03802 0.37752
 O581 O 0.45698 -0.07966 0.57953
 O582 O 0.42056 -0.04106 0.54055
 O583 O 0.54223 -0.08266 0.42342
 O584 O 0.57881 -0.04264 0.46064
 O585 O 0.45724 -0.07964 0.42057
 O586 O 0.42066 -0.04093 0.45912
 O587 O 0.45707 0.08019 0.57969
 O588 O 0.42060 0.04194 0.54064
 O589 O 0.49922 0.12681 0.43406
 O590 O 0.49839 0.12672 0.56479
 O591 O 0.49820 -0.12630 0.56457
 O592 O 0.49908 -0.12592 0.43418
 O593 O 0.52629 -0.05916 0.50006
 O594 O 0.52634 0.05972 0.50009
 O595 O 0.47347 -0.05854 0.49995
 O596 O 0.52765 0.00038 0.44230
 O597 O 0.57887 0.04314 0.46076
 O598 O 0.54238 0.08341 0.42346
 O599 O 0.47167 0.00050 0.44175
 O600 O 0.47146 0.00029 0.55808
 O601 O 0.47357 0.05936 0.49998
 O602 O 0.52741 0.00017 0.55775
 Zr603 Zr 0.49982 0.05639 0.44364
 Zr604 Zr 0.49953 -0.05571 0.55632
 Zr605 Zr 0.55235 0.00024 0.50010
 Zr606 Zr 0.49975 -0.05553 0.44368
 Zr607 Zr 0.49961 0.05617 0.55642
 Zr608 Zr 0.44706 0.00048 0.49988
 H609 H 0.46114 -0.08653 0.49999
 H610 H 0.54125 0.00040 0.41653
 H611 H 0.46128 0.08740 0.50004
 H612 H 0.54089 0.00008 0.58359
 H613 H 0.49728 0.14004 0.46342
 H614 H 0.50647 0.13957 0.53738
 H615 H 0.49671 -0.13921 0.46349
 H616 H 0.50645 -0.13905 0.53725
 C617 C 0.75049 0.24885 0.89253
 C618 C 0.75008 0.24894 0.60913
 C619 C 0.67865 0.17544 0.81889
 C620 C 0.67874 0.32192 0.81813
 C621 C 0.67868 0.17597 0.68368
 C622 C 0.81968 0.17978 0.68004
 C623 C 0.81957 0.31898 0.68001
 C624 C 0.81993 0.17945 0.82077
 C625 C 0.67843 0.32158 0.68360
 C626 C 0.81981 0.31896 0.82079
 O627 O 0.70672 0.16633 0.67384
 O628 O 0.67007 0.20567 0.71179
 O629 O 0.70645 0.33142 0.67376
 O630 O 0.66992 0.29167 0.71167
 O631 O 0.79178 0.32882 0.83042
 O632 O 0.82832 0.29053 0.79144
 O633 O 0.74962 0.28744 0.62823
 O634 O 0.74969 0.21044 0.62835
 O635 O 0.74995 0.28733 0.87334
 O636 O 0.75004 0.21037 0.87347
 O637 O 0.79167 0.16970 0.67061
 O638 O 0.82821 0.20806 0.70946
 O639 O 0.70679 0.16564 0.82818
 O640 O 0.67004 0.20557 0.79106
 O641 O 0.79196 0.16931 0.83051
 O642 O 0.82835 0.20794 0.79140
 O643 O 0.79150 0.32874 0.67047
 O644 O 0.82814 0.29065 0.70947
 O645 O 0.74986 0.37526 0.81650
 O646 O 0.75019 0.37555 0.68641
 O647 O 0.75072 0.12239 0.68688
 O648 O 0.75010 0.12242 0.81660
 O649 O 0.72255 0.18934 0.75108
 O650 O 0.72244 0.30815 0.75093
 O651 O 0.77547 0.19010 0.75084
 O652 O 0.72134 0.24881 0.80879
 O653 O 0.67008 0.29169 0.79064
 O654 O 0.70678 0.33195 0.82743
 O655 O 0.77731 0.24894 0.80884
 O656 O 0.77715 0.24906 0.69271
 O657 O 0.77533 0.30808 0.75066
 O658 O 0.72123 0.24888 0.69342
 Zr659 Zr 0.74921 0.30484 0.80713
 Zr660 Zr 0.74917 0.19301 0.69464
 Zr661 Zr 0.69638 0.24867 0.75120
 Zr662 Zr 0.74925 0.19288 0.80732
 Zr663 Zr 0.74902 0.30493 0.69446
 Zr664 Zr 0.80182 0.24919 0.75062
 H665 H 0.78792 0.16221 0.75068
 H666 H 0.70783 0.24878 0.83465
 H667 H 0.78767 0.33606 0.75052
 H668 H 0.70770 0.24885 0.66764
 H669 H 0.75247 0.38848 0.78721
 H670 H 0.74169 0.38817 0.71364
 H671 H 0.75326 0.10936 0.78738
 H672 H 0.74193 0.10972 0.71393
 C673 C 0.00053 0.50011 0.35881
 C674 C 0.00024 0.50019 0.64317
 C675 C -0.07076 0.57389 0.43395
 C676 C -0.07064 0.42629 0.43435
 C677 C -0.07090 0.57375 0.56740
 C678 C 0.07023 0.56980 0.57122
 C679 C 0.07029 0.43047 0.57154
 C680 C 0.07045 0.57000 0.43037
 C681 C -0.07093 0.42662 0.56780
 C682 C 0.07047 0.43037 0.43049
 O683 O -0.04287 0.58332 0.57730
 O684 O -0.07943 0.54345 0.53988
 O685 O -0.04288 0.41704 0.57772
 O686 O -0.07944 0.45689 0.54011
 O687 O 0.04244 0.42045 0.42102
 O688 O 0.07897 0.45876 0.45986
 O689 O -0.00006 0.46169 0.62395
 O690 O -0.00009 0.53865 0.62378
 O691 O 0.00019 0.46165 0.37812
 O692 O 0.00019 0.53858 0.37799
 O693 O 0.04219 0.57959 0.58090
 O694 O 0.07880 0.54152 0.54177
 O695 O -0.04268 0.58369 0.42443
 O696 O -0.07937 0.54337 0.46135
 O697 O 0.04241 0.57988 0.42081
 O698 O 0.07895 0.54156 0.45979
 O699 O 0.04225 0.42069 0.58125
 O700 O 0.07883 0.45872 0.54196
 O701 O 0.00093 0.37382 0.43513
 O702 O 0.00123 0.37369 0.56597
 O703 O 0.00120 0.62656 0.56560
 O704 O 0.00079 0.62645 0.43471
 O705 O -0.02682 0.55944 0.50076
 O706 O -0.02678 0.44083 0.50098
 O707 O 0.02592 0.55904 0.50080
 O708 O -0.02815 0.50012 0.44298
 O709 O -0.07930 0.45682 0.46159
 O710 O -0.04256 0.41650 0.42483
 O711 O 0.02795 0.50014 0.44265
 O712 O 0.02781 0.50013 0.55902
 O713 O 0.02596 0.44120 0.50103
 O714 O -0.02829 0.50014 0.55866
 Zr715 Zr -0.00016 0.44422 0.44452
 Zr716 Zr -0.00033 0.55602 0.55728
 Zr717 Zr -0.05300 0.50013 0.50079
 Zr718 Zr -0.00021 0.55605 0.44430
 Zr719 Zr -0.00031 0.44424 0.55751
 Zr720 Zr 0.05245 0.50012 0.50084
 H721 H 0.03829 0.58699 0.50081
 H722 H -0.04177 0.50010 0.41728
 H723 H 0.03836 0.41327 0.50111
 H724 H -0.04194 0.50017 0.58437
 H725 H 0.00251 0.36058 0.46457
 H726 H -0.00656 0.36080 0.53847
 H727 H 0.00236 0.63969 0.46410
 H728 H -0.00645 0.63949 0.53800
 C729 C 0.25051 0.75074 0.89161
 C730 C 0.25042 0.75138 0.60814
 C731 C 0.17900 0.67730 0.81641
 C732 C 0.17893 0.82479 0.81691
 C733 C 0.17891 0.67777 0.68336
 C734 C 0.32001 0.68055 0.67995
 C735 C 0.32002 0.82116 0.68006
 C736 C 0.32011 0.68023 0.81956
 C737 C 0.17897 0.82477 0.68322
 C738 C 0.32022 0.82091 0.81970
 O739 O 0.20694 0.66810 0.67348
 O740 O 0.17034 0.70808 0.71089
 O741 O 0.20703 0.83436 0.67337
 O742 O 0.17038 0.79452 0.71086
 O743 O 0.29220 0.83087 0.82938
 O744 O 0.32867 0.79216 0.79062
 O745 O 0.25003 0.78982 0.62734
 O746 O 0.25000 0.71285 0.62728
 O747 O 0.25009 0.78926 0.87253
 O748 O 0.25005 0.71232 0.87246
 O749 O 0.29197 0.67097 0.67021
 O750 O 0.32855 0.70921 0.70905
 O751 O 0.20703 0.66738 0.82593
 O752 O 0.17039 0.70796 0.78924
 O753 O 0.29206 0.67049 0.82924
 O754 O 0.32863 0.70909 0.79054
 O755 O 0.29203 0.83103 0.67034
 O756 O 0.32855 0.79240 0.70912
 O757 O 0.25046 0.87725 0.81608
 O758 O 0.25092 0.87760 0.68507
 O759 O 0.25068 0.62474 0.68469
 O760 O 0.25030 0.62462 0.81610
 O761 O 0.22289 0.69182 0.74996
 O762 O 0.22293 0.81053 0.75005
 O763 O 0.27563 0.69196 0.74985
 O764 O 0.22156 0.75099 0.80785
 O765 O 0.17036 0.79438 0.78950
 O766 O 0.20703 0.83450 0.82643
 O767 O 0.27765 0.75086 0.80813
 O768 O 0.27762 0.75108 0.69176
 O769 O 0.27570 0.80983 0.74995
 O770 O 0.22154 0.75121 0.69225
 Zr771 Zr 0.24953 0.80689 0.80639
 Zr772 Zr 0.24945 0.69522 0.69352
 Zr773 Zr 0.19676 0.75123 0.75008
 Zr774 Zr 0.24950 0.69499 0.80628
 Zr775 Zr 0.24950 0.80706 0.69362
 Zr776 Zr 0.30216 0.75081 0.74989
 H777 H 0.28789 0.66390 0.74978
 H778 H 0.20794 0.75094 0.83359
 H779 H 0.28803 0.83782 0.74991
 H780 H 0.20794 0.75128 0.66653
 H781 H 0.25208 0.89062 0.78671
 H782 H 0.24343 0.89051 0.71275
 H783 H 0.25141 0.61126 0.78671
 H784 H 0.24368 0.61167 0.71259
 C785 C 0.49870 0.49974 0.35839
 C786 C 0.49840 0.49951 0.64181
 C787 C 0.57041 0.42651 0.43288
 C788 C 0.57032 0.57284 0.43282
 C789 C 0.57013 0.42666 0.56777
 C790 C 0.42905 0.42919 0.57003
 C791 C 0.42900 0.56997 0.56983
 C792 C 0.42918 0.42923 0.43024
 C793 C 0.57014 0.57252 0.56764
 C794 C 0.42916 0.57015 0.43027
 O795 O 0.54206 0.41693 0.57741
 O796 O 0.57877 0.45654 0.53976
 O797 O 0.54206 0.58221 0.57728
 O798 O 0.57878 0.54264 0.53968
 O799 O 0.45720 0.57994 0.42064
 O800 O 0.42059 0.54126 0.45923
 O801 O 0.49882 0.53802 0.62263
 O802 O 0.49884 0.46103 0.62269
 O803 O 0.49911 0.53819 0.37752
 O804 O 0.49915 0.46124 0.37754
 O805 O 0.45708 0.41949 0.57979
 O806 O 0.42054 0.45792 0.54088
 O807 O 0.54235 0.41659 0.42342
 O808 O 0.57894 0.45662 0.46062
 O809 O 0.45724 0.41943 0.42065
 O810 O 0.42061 0.45803 0.45922
 O811 O 0.45703 0.57966 0.57961
 O812 O 0.42051 0.54123 0.54077
 O813 O 0.49913 0.62601 0.43417
 O814 O 0.49834 0.62610 0.56452
 O815 O 0.49839 0.37303 0.56468
 O816 O 0.49922 0.37327 0.43435
 O817 O 0.52637 0.44021 0.50015
 O818 O 0.52634 0.55901 0.50007
 O819 O 0.47351 0.44068 0.50008
 O820 O 0.52768 0.49965 0.44234
 O821 O 0.57889 0.54267 0.46056
 O822 O 0.54225 0.58276 0.42337
 O823 O 0.47163 0.49964 0.44188
 O824 O 0.47146 0.49957 0.55817
 O825 O 0.47349 0.55851 0.50002
 O826 O 0.52748 0.49957 0.55775
 Zr827 Zr 0.49975 0.55559 0.44370
 Zr828 Zr 0.49961 0.44363 0.55646
 Zr829 Zr 0.55249 0.49961 0.50011
 Zr830 Zr 0.49980 0.44369 0.44374
 Zr831 Zr 0.49959 0.55552 0.55639
 Zr832 Zr 0.44697 0.49959 0.50002
 H833 H 0.46122 0.41266 0.50016
 H834 H 0.54124 0.49968 0.41654
 H835 H 0.46119 0.58654 0.50005
 H836 H 0.54095 0.49956 0.58360
 H837 H 0.49669 0.63922 0.46346
 H838 H 0.50662 0.63886 0.53719
 H839 H 0.49668 0.36004 0.46365
 H840 H 0.50669 0.36032 0.53737
 C841 C 0.75052 0.75046 0.89158
 C842 C 0.75014 0.75133 0.60816
 C843 C 0.67897 0.67739 0.81724
 C844 C 0.67865 0.82360 0.81794
 C845 C 0.67869 0.67807 0.68260
 C846 C 0.81980 0.68140 0.67916
 C847 C 0.81968 0.82069 0.67922
 C848 C 0.82001 0.68105 0.81989
 C849 C 0.67867 0.82379 0.68291
 C850 C 0.81994 0.82046 0.81999
 O851 O 0.70674 0.66841 0.67275
 O852 O 0.67013 0.70787 0.71068
 O853 O 0.70668 0.83361 0.67306
 O854 O 0.67012 0.79390 0.71093
 O855 O 0.79192 0.83043 0.82968
 O856 O 0.82841 0.79212 0.79057
 O857 O 0.74971 0.78976 0.62740
 O858 O 0.74978 0.71276 0.62727
 O859 O 0.75005 0.78901 0.87252
 O860 O 0.75007 0.71205 0.87238
 O861 O 0.79177 0.67155 0.66958
 O862 O 0.82833 0.70968 0.70860
 O863 O 0.70704 0.66744 0.82655
 O864 O 0.67028 0.70763 0.78968
 O865 O 0.79201 0.67099 0.82948
 O866 O 0.82847 0.70957 0.79055
 O867 O 0.79165 0.83063 0.66974
 O868 O 0.82826 0.79232 0.70862
 O869 O 0.74991 0.87716 0.81570
 O870 O 0.75054 0.87761 0.68581
 O871 O 0.75065 0.62448 0.68540
 O872 O 0.75028 0.62431 0.81546
 O873 O 0.72268 0.69145 0.74995
 O874 O 0.72256 0.81028 0.75014
 O875 O 0.77556 0.69190 0.74971
 O876 O 0.72147 0.75068 0.80781
 O877 O 0.67010 0.79358 0.79008
 O878 O 0.70674 0.83361 0.82720
 O879 O 0.77742 0.75078 0.80791
 O880 O 0.77728 0.75105 0.69177
 O881 O 0.77547 0.80988 0.74992
 O882 O 0.72135 0.75100 0.69244
 Zr883 Zr 0.74927 0.80673 0.80638
 Zr884 Zr 0.74925 0.69506 0.69350
 Zr885 Zr 0.69653 0.75082 0.75022
 Zr886 Zr 0.74942 0.69477 0.80617
 Zr887 Zr 0.74919 0.80698 0.69370
 Zr888 Zr 0.80193 0.75091 0.74972
 H889 H 0.78797 0.66397 0.74959
 H890 H 0.70796 0.75054 0.83366
 H891 H 0.78785 0.83782 0.74981
 H892 H 0.70781 0.75106 0.66667
 H893 H 0.75295 0.89035 0.78648
 H894 H 0.74193 0.89021 0.71298
 H895 H 0.75286 0.61122 0.78614
 H896 H 0.74213 0.61171 0.71258
 C897 C 0.00153 -0.00021 0.18653
 C898 C 0.00147 0.00008 0.22573
 C899 C 0.00120 0.00050 0.27162
 C900 C 0.00084 0.00079 0.31081
 C901 C 0.25099 0.24972 1.06455
 C902 C 0.25108 0.24952 1.02532
 C903 C 0.25100 0.24921 0.97938
 C904 C 0.25079 0.24898 0.94017
 C905 C 0.09478 0.09149 0.09246
 C906 C 0.11416 0.11032 0.11363
 C907 C 0.13668 0.13269 0.13848
 C908 C 0.15602 0.15221 0.15914
 C909 C 0.34390 0.34352 0.15642
 C910 C 0.36350 0.36335 0.13658
 C911 C 0.38633 0.38660 0.11323
 C912 C 0.40591 0.40641 0.09335
 C913 C 0.34434 0.15578 0.15647
 C914 C 0.36404 0.13586 0.13668
 C915 C 0.38703 0.11242 0.11336
 C916 C 0.40668 0.09246 0.09351
 C917 C 0.15580 0.34758 0.15937
 C918 C 0.13626 0.36715 0.13907
 C919 C 0.11346 0.38955 0.11469
 C920 C 0.09389 0.40844 0.09386
 C921 C 0.34370 0.15641 0.34289
 C922 C 0.36331 0.13683 0.36297
 C923 C 0.38618 0.11384 0.38659
 C924 C 0.40577 0.09421 0.40665
 C925 C 0.15548 0.34699 0.33937
 C926 C 0.13605 0.36651 0.36001
 C927 C 0.11343 0.38897 0.38483
 C928 C 0.09401 0.40793 0.40598
 C929 C 0.15555 0.15265 0.33892
 C930 C 0.13595 0.13339 0.35932
 C931 C 0.11309 0.11139 0.38382
 C932 C 0.09349 0.09279 0.40478
 C933 C 0.34374 0.34329 0.34277
 C934 C 0.36329 0.36300 0.36288
 C935 C 0.38610 0.38616 0.38658
 C936 C 0.40565 0.40589 0.40669
 C937 C 0.49910 -0.00138 0.18829
 C938 C 0.49873 -0.00086 0.22732
 C939 C 0.49851 -0.00016 0.27294
 C940 C 0.49854 0.00030 0.31197
 C941 C 0.75192 0.24899 1.06257
 C942 C 0.75191 0.24896 1.02354
 C943 C 0.75162 0.24892 0.97791
 C944 C 0.75118 0.24888 0.93888
 C945 C 0.59505 0.09403 0.09130
 C946 C 0.61455 0.11258 0.11255
 C947 C 0.63726 0.13403 0.13790
 C948 C 0.65673 0.15262 0.15917
 C949 C -0.15549 0.34132 0.15566
 C950 C -0.13611 0.36033 0.13457
 C951 C -0.11355 0.38288 0.10986
 C952 C -0.09417 0.40255 0.08933
 C953 C 0.90664 0.09712 0.08837
 C954 C 0.88717 0.11646 0.10913
 C955 C 0.86446 0.13861 0.13408
 C956 C 0.84497 0.15729 0.15535
 C957 C 0.65630 0.34500 0.15906
 C958 C 0.63669 0.36363 0.13796
 C959 C 0.61379 0.38518 0.11282
 C960 C 0.59418 0.40382 0.09172
 C961 C -0.15719 0.15906 0.34358
 C962 C -0.13750 0.14027 0.36446
 C963 C -0.11453 0.11801 0.38891
 C964 C -0.09487 0.09859 0.40930
 C965 C 0.65614 0.34452 0.34199
 C966 C 0.63651 0.36313 0.36303
 C967 C 0.61362 0.38470 0.38807
 C968 C 0.59400 0.40339 0.40908
 C969 C 0.65653 0.15327 0.34204
 C970 C 0.63681 0.13510 0.36313
 C971 C 0.61376 0.11423 0.38819
 C972 C 0.59401 0.09604 0.40921
 C973 C -0.15561 0.34108 0.34559
 C974 C -0.13617 0.36005 0.36654
 C975 C -0.11352 0.38256 0.39103
 C976 C -0.09408 0.40222 0.41138
 C977 C 0.00069 0.50039 0.18798
 C978 C 0.00086 0.50030 0.22715
 C979 C 0.00092 0.50019 0.27302
 C980 C 0.00082 0.50012 0.31220
 C981 C 0.25157 0.75069 1.06155
 C982 C 0.25162 0.75063 1.02254
 C983 C 0.25142 0.75061 0.97694
 C984 C 0.25108 0.75064 0.93793
 C985 C 0.09389 0.59289 0.09382
 C986 C 0.11348 0.61181 0.11468
 C987 C 0.13633 0.63420 0.13915
 C988 C 0.15590 0.65370 0.15954
 C989 C 0.40843 0.90636 0.09220
 C990 C 0.38852 0.88682 0.11226
 C991 C 0.36517 0.86393 0.13585
 C992 C 0.34523 0.84444 0.15588
 C993 C 0.34411 0.65684 0.15678
 C994 C 0.36362 0.63696 0.13678
 C995 C 0.38635 0.61364 0.11322
 C996 C 0.40587 0.59381 0.09320
 C997 C 0.09482 0.90822 0.09259
 C998 C 0.11436 0.88975 0.11374
 C999 C 0.13710 0.86786 0.13853
 C1000 C 0.15658 0.84865 0.15917
 C1001 C 0.34391 0.65712 0.34326
 C1002 C 0.36341 0.63716 0.36329
 C1003 C 0.38614 0.61367 0.38685
 C1004 C 0.40565 0.59369 0.40685
 C1005 C 0.15588 -0.15135 0.33926
 C1006 C 0.13627 -0.13194 0.35964
 C1007 C 0.11339 -0.10970 0.38410
 C1008 C 0.09377 -0.09093 0.40499
 C1009 C 0.15570 0.65399 0.33988
 C1010 C 0.13620 0.63435 0.36038
 C1011 C 0.11350 0.61172 0.38499
 C1012 C 0.09402 0.59262 0.40597
 C1013 C 0.34402 -0.15560 0.34294
 C1014 C 0.36351 -0.13589 0.36302
 C1015 C 0.38623 -0.11272 0.38665
 C1016 C 0.40573 -0.09300 0.40671
 C1017 C 0.49821 0.50010 0.18828
 C1018 C 0.49800 0.50004 0.22732
 C1019 C 0.49801 0.49992 0.27297
 C1020 C 0.49822 0.49982 0.31201
 C1021 C 0.75126 0.75035 1.06160
 C1022 C 0.75142 0.75027 1.02258
 C1023 C 0.75134 0.75026 0.97695
 C1024 C 0.75107 0.75031 0.93793
 C1025 C 0.59398 0.59605 0.09118
 C1026 C 0.61350 0.61461 0.11232
 C1027 C 0.63625 0.63602 0.13754
 C1028 C 0.65575 0.65460 0.15868
 C1029 C 0.90650 0.90226 0.08820
 C1030 C 0.88681 0.88305 0.10867
 C1031 C 0.86378 0.86109 0.13324
 C1032 C 0.84408 0.84254 0.15424
 C1033 C 0.90559 0.59801 0.08905
 C1034 C 0.88609 0.61749 0.10948
 C1035 C 0.86336 0.63981 0.13404
 C1036 C 0.84386 0.65865 0.15503
 C1037 C 0.59305 0.90441 0.08974
 C1038 C 0.61276 0.88600 0.11092
 C1039 C 0.63577 0.86483 0.13621
 C1040 C 0.65545 0.84651 0.15748
 C1041 C -0.15614 0.65895 0.34497
 C1042 C -0.13660 0.64001 0.36593
 C1043 C -0.11382 0.61753 0.39045
 C1044 C -0.09429 0.59792 0.41085
 C1045 C 0.65561 -0.15342 0.34098
 C1046 C 0.63608 -0.13507 0.36228
 C1047 C 0.61332 -0.11390 0.38766
 C1048 C 0.59378 -0.09552 0.40893
 C1049 C 0.65558 0.65518 0.34144
 C1050 C 0.63607 0.63647 0.36262
 C1051 C 0.61333 0.61479 0.38783
 C1052 C 0.59383 0.59601 0.40896
 C1053 C -0.15630 -0.15715 0.34433
 C1054 C -0.13677 -0.13839 0.36525
 C1055 C -0.11401 -0.11615 0.38969
 C1056 C -0.09449 -0.09668 0.41002
 C1057 C 0.00103 0.00006 0.81303
 C1058 C 0.00092 0.00028 0.77376
 C1059 C 0.00066 0.00059 0.72778
 C1060 C 0.00035 0.00081 0.68853
 C1061 C 0.25071 0.24955 0.43804
 C1062 C 0.25087 0.24940 0.47726
 C1063 C 0.25091 0.24921 0.52320
 C1064 C 0.25080 0.24907 0.56242
 C1065 C 0.09340 0.09258 0.59478
 C1066 C 0.11299 0.11110 0.61586
 C1067 C 0.13584 0.13302 0.64054
 C1068 C 0.15544 0.15216 0.66107
 C1069 C 0.34381 0.34256 0.65766
 C1070 C 0.36331 0.36246 0.63751
 C1071 C 0.38602 0.38586 0.61375
 C1072 C 0.40551 0.40577 0.59359
 C1073 C 0.34364 0.15561 0.65767
 C1074 C 0.36318 0.13605 0.63745
 C1075 C 0.38597 0.11311 0.61364
 C1076 C 0.40553 0.09357 0.59344
 C1077 C 0.15560 0.34666 0.66145
 C1078 C 0.13609 0.36634 0.64115
 C1079 C 0.11334 0.38893 0.61676
 C1080 C 0.09383 0.40796 0.59589
 C1081 C 0.40651 0.09187 0.90710
 C1082 C 0.38677 0.11166 0.88729
 C1083 C 0.36370 0.13490 0.86401
 C1084 C 0.34396 0.15473 0.84423
 C1085 C 0.09372 0.40849 0.90479
 C1086 C 0.11330 0.38945 0.88420
 C1087 C 0.13613 0.36683 0.86020
 C1088 C 0.15569 0.34704 0.84022
 C1089 C 0.09275 0.09000 0.90510
 C1090 C 0.11251 0.10897 0.88458
 C1091 C 0.13560 0.13144 0.86066
 C1092 C 0.15535 0.15105 0.84070
 C1093 C 0.40580 0.40607 0.90723
 C1094 C 0.38624 0.38613 0.88736
 C1095 C 0.36343 0.36269 0.86396
 C1096 C 0.34387 0.34274 0.84410
 C1097 C 0.49869 -0.00173 0.81208
 C1098 C 0.49826 -0.00135 0.77301
 C1099 C 0.49800 -0.00076 0.72731
 C1100 C 0.49803 -0.00033 0.68823
 C1101 C 0.75149 0.24883 0.43880
 C1102 C 0.75141 0.24885 0.47788
 C1103 C 0.75110 0.24889 0.52360
 C1104 C 0.75069 0.24892 0.56268
 C1105 C 0.59357 0.09550 0.59171
 C1106 C 0.61305 0.11380 0.61302
 C1107 C 0.63574 0.13491 0.63842
 C1108 C 0.65522 0.15324 0.65970
 C1109 C -0.15687 0.34157 0.65568
 C1110 C -0.13722 0.36057 0.63498
 C1111 C -0.11424 0.38305 0.61083
 C1112 C -0.09456 0.40263 0.59071
 C1113 C 0.90518 0.09806 0.58935
 C1114 C 0.88560 0.11727 0.60979
 C1115 C 0.86278 0.13922 0.63439
 C1116 C 0.84321 0.15775 0.65546
 C1117 C 0.65490 0.34452 0.65971
 C1118 C 0.63549 0.36322 0.63846
 C1119 C 0.61292 0.38488 0.61308
 C1120 C 0.59355 0.40362 0.59179
 C1121 C 0.90642 0.09720 0.90887
 C1122 C 0.88660 0.11652 0.88901
 C1123 C 0.86343 0.13855 0.86522
 C1124 C 0.84360 0.15719 0.84479
 C1125 C 0.59384 0.40399 0.90922
 C1126 C 0.61329 0.38531 0.88813
 C1127 C 0.63591 0.36374 0.86298
 C1128 C 0.65534 0.34502 0.84189
 C1129 C 0.59303 0.09204 0.91014
 C1130 C 0.61264 0.11102 0.88910
 C1131 C 0.63551 0.13305 0.86400
 C1132 C 0.65507 0.15206 0.84291
 C1133 C 0.90545 0.40282 0.90984
 C1134 C 0.88585 0.38318 0.88972
 C1135 C 0.86299 0.36062 0.86556
 C1136 C 0.84340 0.34157 0.84492
 C1137 C 0.00043 0.50044 0.81450
 C1138 C 0.00056 0.50039 0.77522
 C1139 C 0.00058 0.50031 0.72920
 C1140 C 0.00049 0.50024 0.68993
 C1141 C 0.25109 0.75150 0.43779
 C1142 C 0.25119 0.75153 0.47687
 C1143 C 0.25110 0.75153 0.52260
 C1144 C 0.25087 0.75149 0.56168
 C1145 C 0.09372 0.59234 0.59542
 C1146 C 0.11320 0.61143 0.61615
 C1147 C 0.13590 0.63407 0.64038
 C1148 C 0.15539 0.65377 0.66054
 C1149 C 0.40545 0.90699 0.59306
 C1150 C 0.38588 0.88728 0.61305
 C1151 C 0.36308 0.86414 0.63659
 C1152 C 0.34353 0.84442 0.65661
 C1153 C 0.34355 0.65701 0.65653
 C1154 C 0.36308 0.63701 0.63658
 C1155 C 0.38587 0.61348 0.61312
 C1156 C 0.40542 0.59348 0.59319
 C1157 C 0.09341 0.90914 0.59464
 C1158 C 0.11300 0.89036 0.61551
 C1159 C 0.13586 0.86811 0.63989
 C1160 C 0.15545 0.84867 0.66020
 C1161 C 0.40576 0.59375 0.90661
 C1162 C 0.38616 0.61356 0.88657
 C1163 C 0.36329 0.63686 0.86300
 C1164 C 0.34369 0.65672 0.84300
 C1165 C 0.09281 0.90960 0.90497
 C1166 C 0.11255 0.89071 0.88430
 C1167 C 0.13561 0.86833 0.86012
 C1168 C 0.15532 0.84880 0.83995
 C1169 C 0.09355 0.59241 0.90432
 C1170 C 0.11312 0.61128 0.88355
 C1171 C 0.13594 0.63365 0.85934
 C1172 C 0.15551 0.65324 0.83920
 C1173 C 0.40654 0.90502 0.90699
 C1174 C 0.38678 0.88574 0.88692
 C1175 C 0.36367 0.86317 0.86332
 C1176 C 0.34390 0.84389 0.84326
 C1177 C 0.49825 0.49974 0.81205
 C1178 C 0.49795 0.49965 0.77299
 C1179 C 0.49784 0.49955 0.72730
 C1180 C 0.49796 0.49950 0.68823
 C1181 C 0.75089 0.75147 0.43781
 C1182 C 0.75098 0.75153 0.47690
 C1183 C 0.75087 0.75153 0.52262
 C1184 C 0.75061 0.75147 0.56171
 C1185 C 0.59360 0.59563 0.59151
 C1186 C 0.61304 0.61445 0.61260
 C1187 C 0.63570 0.63622 0.63774
 C1188 C 0.65516 0.65502 0.65880
 C1189 C 0.90518 0.90369 0.58928
 C1190 C 0.88558 0.88422 0.60955
 C1191 C 0.86275 0.86192 0.63392
 C1192 C 0.84319 0.84308 0.65480
 C1193 C 0.90552 0.59781 0.59015
 C1194 C 0.88589 0.61745 0.61018
 C1195 C 0.86299 0.63997 0.63426
 C1196 C 0.84337 0.65894 0.65491
 C1197 C 0.59341 0.90446 0.59144
 C1198 C 0.61291 0.88608 0.61266
 C1199 C 0.63564 0.86492 0.63791
 C1200 C 0.65517 0.84656 0.65908
 C1201 C 0.90543 0.59779 0.90962
 C1202 C 0.88589 0.61732 0.88933
 C1203 C 0.86312 0.63972 0.86496
 C1204 C 0.84357 0.65863 0.84413
 C1205 C 0.59291 0.90458 0.91014
 C1206 C 0.61254 0.88611 0.88887
 C1207 C 0.63544 0.86483 0.86348
 C1208 C 0.65505 0.84641 0.84215
 C1209 C 0.59395 0.59554 0.90866
 C1210 C 0.61344 0.61410 0.88748
 C1211 C 0.63613 0.63557 0.86225
 C1212 C 0.65558 0.65425 0.84110
 C1213 C 0.90634 0.90262 0.90858
 C1214 C 0.88654 0.88337 0.88860
 C1215 C 0.86339 0.86137 0.86465
 C1216 C 0.84359 0.84275 0.84412
   
