data_POSCAR
  _audit_creation_date              2014-09-24
  _audit_creation_method            'ToBaCCo'
  _symmetry_space_group_name_H-M    'P1'
  _symmetry_Int_Tables_number       1
  _symmetry_cell_setting            triclinic
  loop_
  _symmetry_equiv_pos_as_xyz
 x,y,z
_cell_length_a 51.7963
_cell_length_b 50.4442
_cell_length_c 53.8782
_cell_angle_alpha 89.633500
_cell_angle_beta 90.045800
_cell_angle_gamma 89.053200
loop_
  _atom_site_label
  _atom_site_type_symbol
  _atom_site_fract_x
  _atom_site_fract_y
  _atom_site_fract_z
C1 C 0.37988 -0.02884 0.25015
 C2 C 0.39416 -0.00626 0.24359
 C3 C 0.40206 -0.00239 0.21900
 C4 C 0.39544 -0.02037 0.20060
 C5 C 0.38031 -0.04218 0.20703
 C6 C 0.37171 -0.04644 0.23162
 C7 C 0.40026 0.01430 0.26187
 C8 C 0.41711 0.00846 0.28154
 C9 C 0.42502 0.02847 0.29800
 C10 C 0.41509 0.05452 0.29393
 C11 C 0.39728 0.06043 0.27476
 C12 C 0.39050 0.04019 0.25848
 H13 H 0.37361 -0.03147 0.26918
 H14 H 0.41321 0.01491 0.21420
 H15 H 0.42426 -0.01167 0.28302
 H16 H 0.37714 0.04433 0.24339
 H17 H 0.37618 -0.05664 0.19288
 H18 H 0.42107 0.07044 0.30587
 C19 C 0.11323 -0.03104 0.75076
 C20 C 0.09649 -0.01142 0.76026
 C21 C 0.07935 -0.01773 0.77944
 C22 C 0.07860 -0.04363 0.78926
 C23 C 0.09454 -0.06343 0.77852
 C24 C 0.11221 -0.05715 0.75975
 C25 C 0.09590 0.01535 0.74913
 C26 C 0.07987 0.02023 0.72860
 C27 C 0.08047 0.04453 0.71550
 C28 C 0.09681 0.06446 0.72479
 C29 C 0.11274 0.05987 0.74559
 C30 C 0.11233 0.03518 0.75765
 H31 H 0.12686 -0.02604 0.73628
 H32 H 0.06700 -0.00223 0.78699
 H33 H 0.06787 0.00423 0.72225
 H34 H 0.12539 0.03106 0.77297
 H35 H 0.09401 -0.08370 0.78513
 H36 H 0.09808 0.08363 0.71593
 C37 C 0.61257 0.46414 0.25173
 C38 C 0.59761 0.48549 0.26067
 C39 C 0.58199 0.48214 0.28167
 C40 C 0.58125 0.45759 0.29409
 C41 C 0.59598 0.43621 0.28458
 C42 C 0.61199 0.43948 0.26381
 C43 C 0.59905 0.51174 0.24875
 C44 C 0.58461 0.51705 0.22723
 C45 C 0.58621 0.54170 0.21508
 C46 C 0.60182 0.56132 0.22551
 C47 C 0.61695 0.55592 0.24656
 C48 C 0.61549 0.53110 0.25826
 H49 H 0.62545 0.46705 0.23613
 H50 H 0.57113 0.49901 0.28877
 H51 H 0.57278 0.50156 0.21959
 H52 H 0.62757 0.52660 0.27422
 H53 H 0.59585 0.41702 0.29367
 H54 H 0.60321 0.58066 0.21688
 C55 C 0.89222 0.47056 0.75794
 C56 C 0.90789 0.49063 0.74816
 C57 C 0.91839 0.48798 0.72429
 C58 C 0.91330 0.46558 0.70984
 C59 C 0.89784 0.44551 0.72001
 C60 C 0.88692 0.44803 0.74376
 C61 C 0.91185 0.51543 0.76196
 C62 C 0.92996 0.51612 0.78138
 C63 C 0.93421 0.53967 0.79474
 C64 C 0.91900 0.56230 0.78821
 C65 C 0.90040 0.56171 0.76916
 C66 C 0.89741 0.53833 0.75566
 H67 H 0.88320 0.47311 0.77593
 H68 H 0.92984 0.50389 0.71670
 H69 H 0.94081 0.49814 0.78581
 H70 H 0.88303 0.53755 0.74107
 H71 H 0.89361 0.42801 0.70934
 H72 H 0.92030 0.58052 0.79841
 C73 C 0.27274 0.35817 1.04254
 C74 C 0.27337 0.37121 1.01932
 C75 C 0.29448 0.38710 1.01321
 C76 C 0.31521 0.39015 1.02981
 C77 C 0.31376 0.37772 1.05323
 C78 C 0.29260 0.36185 1.06020
 C79 C 0.25300 0.36724 1.00030
 C80 C 0.22982 0.38243 1.00032
 C81 C 0.21233 0.38089 0.98025
 C82 C 0.21773 0.36308 0.96097
 C83 C 0.24071 0.34808 0.96061
 C84 C 0.25839 0.35040 0.98021
 H85 H 0.25645 0.34579 1.04697
 H86 H 0.29443 0.39697 0.99534
 H87 H 0.22606 0.39625 1.01525
 H88 H 0.27648 0.33931 0.97975
 H89 H 0.33013 0.37935 1.06554
 H90 H 0.20428 0.36143 0.94567
 C91 C 0.73492 0.13450 1.02973
 C92 C 0.73040 0.12278 1.00675
 C93 C 0.70554 0.11420 1.00092
 C94 C 0.68491 0.11765 1.01777
 C95 C 0.68962 0.13068 1.04044
 C96 C 0.71474 0.13884 1.04690
 C97 C 0.75164 0.12114 0.98838
 C98 C 0.77451 0.10687 0.99374
 C99 C 0.79544 0.10673 0.97694
 C100 C 0.79319 0.12181 0.95485
 C101 C 0.77034 0.13608 0.94934
 C102 C 0.74959 0.13536 0.96607
 H103 H 0.75409 0.14184 1.03322
 H104 H 0.70268 0.10424 0.98343
 H105 H 0.77551 0.09539 1.01076
 H106 H 0.73203 0.14658 0.96205
 H107 H 0.67387 0.13361 1.05342
 H108 H 0.80901 0.12208 0.94171
 C109 C 0.23214 0.63833 0.52747
 C110 C 0.22904 0.62605 0.50448
 C111 C 0.20557 0.61372 0.49902
 C112 C 0.18511 0.61355 0.51645
 C113 C 0.18855 0.62668 0.53930
 C114 C 0.21204 0.63899 0.54488
 C115 C 0.25061 0.62628 0.48637
 C116 C 0.27437 0.61389 0.49219
 C117 C 0.29553 0.61517 0.47573
 C118 C 0.29257 0.62975 0.45343
 C119 C 0.26884 0.64220 0.44737
 C120 C 0.24790 0.64005 0.46383
 H121 H 0.25028 0.64773 0.53171
 H122 H 0.20390 0.60346 0.48155
 H123 H 0.27592 0.60268 0.50933
 H124 H 0.22963 0.64978 0.45943
 H125 H 0.17326 0.62682 0.55301
 H126 H 0.30856 0.63106 0.44055
 C127 C 0.76940 0.84702 0.52693
 C128 C 0.76854 0.86477 0.50686
 C129 C 0.78892 0.88226 0.50302
 C130 C 0.81025 0.88280 0.51945
 C131 C 0.81039 0.86496 0.53982
 C132 C 0.79047 0.84659 0.54341
 C133 C 0.74630 0.86509 0.48960
 C134 C 0.72319 0.87833 0.49590
 C135 C 0.70230 0.87970 0.47904
 C136 C 0.70493 0.86708 0.45587
 C137 C 0.72811 0.85404 0.44932
 C138 C 0.74872 0.85325 0.46627
 H139 H 0.75366 0.83338 0.52952
 H140 H 0.78709 0.89602 0.48766
 H141 H 0.72209 0.88840 0.51355
 H142 H 0.76672 0.84336 0.46134
 H143 H 0.82609 0.86541 0.55304
 H144 H 0.68920 0.86799 0.44260
 C145 C -0.03481 0.24198 0.33301
 C146 C -0.00902 0.23927 0.34024
 C147 C -0.00067 0.21724 0.35409
 C148 C -0.01839 0.19838 0.36213
 C149 C -0.04431 0.20124 0.35470
 C150 C -0.05292 0.22294 0.34020
 C151 C 0.00864 0.26132 0.33740
 C152 C 0.00614 0.28278 0.35362
 C153 C 0.02655 0.30035 0.35676
 C154 C 0.04867 0.29723 0.34208
 C155 C 0.05138 0.27556 0.32609
 C156 C 0.03116 0.25780 0.32353
 H157 H -0.04078 0.25959 0.32274
 H158 H 0.01912 0.21660 0.36058
 H159 H -0.01070 0.28418 0.36551
 H160 H 0.03376 0.23994 0.31267
 H161 H -0.05741 0.18562 0.35955
 H162 H 0.06451 0.31081 0.34396
 C163 C -0.03257 0.73718 0.16407
 C164 C -0.00654 0.73916 0.15795
 C165 C 0.00173 0.75895 0.14161
 C166 C -0.01635 0.77636 0.13098
 C167 C -0.04239 0.77453 0.13733
 C168 C -0.05096 0.75482 0.15370
 C169 C 0.01137 0.71778 0.16477
 C170 C 0.01021 0.69414 0.15160
 C171 C 0.03133 0.67616 0.15128
 C172 C 0.05241 0.68139 0.16697
 C173 C 0.05307 0.70485 0.18081
 C174 C 0.03247 0.72296 0.17974
 H175 H -0.03839 0.72109 0.17617
 H176 H 0.02180 0.75965 0.13601
 H177 H -0.00633 0.69143 0.13959
 H178 H 0.03390 0.74216 0.18853
 H179 H -0.05555 0.78933 0.12978
 H180 H 0.06940 0.66874 0.16738
 C181 C 0.46364 0.23775 0.65198
 C182 C 0.48734 0.24827 0.64466
 C183 C 0.48776 0.26905 0.62743
 C184 C 0.46480 0.27899 0.61710
 C185 C 0.44126 0.26849 0.62445
 C186 C 0.44051 0.24780 0.64187
 C187 C 0.51168 0.23454 0.65088
 C188 C 0.51403 0.20791 0.64438
 C189 C 0.53830 0.19547 0.64279
 C190 C 0.56011 0.20928 0.64998
 C191 C 0.55795 0.23590 0.65696
 C192 C 0.53373 0.24858 0.65763
 H193 H 0.46329 0.22150 0.66523
 H194 H 0.50611 0.27666 0.62116
 H195 H 0.49707 0.19787 0.63766
 H196 H 0.53222 0.26948 0.66206
 H197 H 0.42351 0.27757 0.61769
 H198 H 0.57895 0.19963 0.64949
 C199 C 0.46683 0.75784 0.83827
 C200 C 0.49249 0.75297 0.84557
 C201 C 0.49920 0.72917 0.85757
 C202 C 0.48028 0.71073 0.86391
 C203 C 0.45466 0.71591 0.85658
 C204 C 0.44780 0.73918 0.84363
 C205 C 0.51165 0.77415 0.84529
 C206 C 0.50696 0.79671 0.85970
 C207 C 0.52707 0.81386 0.86538
 C208 C 0.55147 0.80939 0.85496
 C209 C 0.55676 0.78641 0.84124
 C210 C 0.53656 0.76908 0.83606
 H211 H 0.46161 0.77643 0.82924
 H212 H 0.51876 0.72676 0.86440
 H213 H 0.48824 0.79951 0.86838
 H214 H 0.54046 0.75077 0.82621
 H215 H 0.44003 0.70138 0.86053
 H216 H 0.56648 0.82360 0.85816
 C217 C -0.27483 0.64364 0.99072
 C218 C -0.25173 0.65373 1.00030
 C219 C -0.25107 0.66370 1.02450
 C220 C -0.27344 0.66426 1.03915
 C221 C -0.29671 0.65508 1.02897
 C222 C -0.29773 0.64388 1.00497
 C223 C -0.22844 0.65477 0.98452
 C224 C -0.22843 0.67156 0.96360
 C225 C -0.20669 0.67303 0.94792
 C226 C -0.18534 0.65613 0.95344
 C227 C -0.18532 0.63868 0.97391
 C228 C -0.20667 0.63870 0.98990
 H229 H -0.27476 0.63646 0.97185
 H230 H -0.23310 0.67103 1.03189
 H231 H -0.24545 0.68374 0.95989
 H232 H -0.20694 0.62530 1.00570
 H233 H -0.31401 0.65603 1.04021
 H234 H -0.16874 0.65523 0.94140
 C235 C -0.29646 0.35371 0.49637
 C236 C -0.27135 0.34508 0.48983
 C237 C -0.26710 0.33236 0.46709
 C238 C -0.28759 0.32839 0.45072
 C239 C -0.31267 0.33669 0.45763
 C240 C -0.31769 0.34966 0.48046
 C241 C -0.24937 0.35002 0.50660
 C242 C -0.25037 0.34129 0.53139
 C243 C -0.23034 0.34693 0.54799
 C244 C -0.20916 0.36139 0.53934
 C245 C -0.20804 0.37065 0.51473
 C246 C -0.22794 0.36441 0.49822
 H247 H -0.29925 0.36380 0.51388
 H248 H -0.24769 0.32627 0.46186
 H249 H -0.26698 0.33041 0.53780
 H250 H -0.22743 0.37188 0.47932
 H251 H -0.32780 0.33395 0.44419
 H252 H -0.19333 0.36569 0.55173
 C253 C 0.20729 -0.14712 -0.00768
 C254 C 0.23344 -0.15362 -0.01108
 C255 C 0.24136 -0.16813 -0.03173
 C256 C 0.22358 -0.17656 -0.04963
 C257 C 0.19705 -0.17059 -0.04556
 C258 C 0.18874 -0.15493 -0.02513
 C259 C 0.25329 -0.14469 0.00635
 C260 C 0.25534 -0.15630 0.02998
 C261 C 0.27546 -0.14950 0.04631
 C262 C 0.29323 -0.13025 0.03807
 C263 C 0.29132 -0.11869 0.01432
 C264 C 0.27155 -0.12627 -0.00160
 H265 H 0.20167 -0.13510 0.00807
 H266 H 0.26162 -0.17338 -0.03292
 H267 H 0.24124 -0.17091 0.03532
 H268 H 0.27010 -0.11758 -0.02002
 H269 H 0.18301 -0.17740 -0.05882
 H270 H 0.30942 -0.12454 0.04931
 C271 C 0.21895 1.13743 0.50561
 C272 C 0.24097 1.15135 0.51309
 C273 C 0.24110 1.16455 0.53594
 C274 C 0.21944 1.16406 0.55151
 C275 C 0.19732 1.15077 0.54345
 C276 C 0.19718 1.13666 0.52108
 C277 C 0.26490 1.15008 0.49836
 C278 C 0.26737 1.16576 0.47688
 C279 C 0.29014 1.16481 0.46242
 C280 C 0.31013 1.14713 0.47030
 C281 C 0.30778 1.13138 0.49174
 C282 C 0.28529 1.13324 0.50596
 H283 H 0.21937 1.12604 0.48862
 H284 H 0.25851 1.17426 0.54197
 H285 H 0.25130 1.17864 0.47162
 H286 H 0.28320 1.12087 0.52234
 H287 H 0.18024 1.15038 0.55501
 H288 H 0.32775 1.14458 0.45994
 C289 C 0.09802 0.51357 0.21918
 C290 C 0.11055 0.51664 0.24190
 C291 C 0.12404 0.53997 0.24655
 C292 C 0.12521 0.56038 0.22850
 C293 C 0.11209 0.55704 0.20575
 C294 C 0.09853 0.53362 0.20105
 C295 C 0.11008 0.49487 0.26039
 C296 C 0.12352 0.47103 0.25588
 C297 C 0.12269 0.44979 0.27300
 C298 C 0.10763 0.45275 0.29463
 C299 C 0.09415 0.47663 0.29935
 C300 C 0.09567 0.49766 0.28219
 H301 H 0.08788 0.49536 0.21553
 H302 H 0.13449 0.54148 0.26387
 H303 H 0.13524 0.46957 0.23930
 H304 H 0.08524 0.51609 0.28556
 H305 H 0.11299 0.57222 0.19148
 H306 H 0.10682 0.43670 0.30807
 C307 C -0.09487 0.99100 0.21873
 C308 C -0.10674 0.98815 0.24201
 C309 C -0.12031 0.96498 0.24731
 C310 C -0.12223 0.94410 0.22989
 C311 C -0.10899 0.94706 0.20699
 C312 C -0.09545 0.97042 0.20089
 C313 C -0.10407 1.00880 0.26161
 C314 C -0.11730 1.03347 0.25982
 C315 C -0.11554 1.05273 0.27890
 C316 C -0.09952 1.04650 0.29951
 C317 C -0.08668 1.02192 0.30183
 C318 C -0.08921 1.00308 0.28292
 H319 H -0.08391 1.00874 0.21541
 H320 H -0.12989 0.96426 0.26505
 H321 H -0.12922 1.03733 0.24362
 H322 H -0.07951 0.98396 0.28468
 H323 H -0.10981 0.93133 0.19343
 H324 H -0.09812 1.05973 0.31507
 C325 C 0.40052 0.49481 -0.27793
 C326 C 0.39024 0.49012 -0.25430
 C327 C 0.37988 0.46526 -0.24880
 C328 C 0.38030 0.44458 -0.26635
 C329 C 0.39208 0.44927 -0.28965
 C330 C 0.40197 0.47451 -0.29594
 C331 C 0.39221 0.51056 -0.23460
 C332 C 0.37913 0.53523 -0.23665
 C333 C 0.38091 0.55454 -0.21767
 C334 C 0.39787 0.54899 -0.19766
 C335 C 0.41101 0.52458 -0.19543
 C336 C 0.40770 0.50526 -0.21371
 H337 H 0.40911 0.51390 -0.28138
 H338 H 0.37107 0.46248 -0.23080
 H339 H 0.36689 0.53880 -0.25268
 H340 H 0.41785 0.48637 -0.21213
 H341 H 0.39278 0.43347 -0.30318
 H342 H 0.40130 0.56348 -0.18344
 C343 C 0.61013 0.00757 -0.27881
 C344 C 0.62023 0.01291 -0.25538
 C345 C 0.62982 0.03816 -0.25045
 C346 C 0.62858 0.05865 -0.26845
 C347 C 0.61656 0.05335 -0.29149
 C348 C 0.60761 0.02764 -0.29707
 C349 C 0.61783 -0.00706 -0.23521
 C350 C 0.62952 -0.03236 -0.23693
 C351 C 0.62605 -0.05150 -0.21803
 C352 C 0.60936 -0.04538 -0.19811
 C353 C 0.59755 -0.02021 -0.19630
 C354 C 0.60222 -0.00110 -0.21471
 H355 H 0.60208 -0.01183 -0.28186
 H356 H 0.63855 0.04145 -0.23251
 H357 H 0.64177 -0.03684 -0.25270
 H358 H 0.59289 0.01826 -0.21357
 H359 H 0.61497 0.06898 -0.30532
 H360 H 0.60572 -0.06001 -0.18380
 C361 C -0.00388 0.20306 0.90372
 C362 C -0.00865 0.22673 0.89084
 C363 C -0.02909 0.22869 0.87396
 C364 C -0.04472 0.20680 0.86947
 C365 C -0.04019 0.18328 0.88291
 C366 C -0.01981 0.18127 0.90007
 C367 C 0.00971 0.24830 0.89261
 C368 C 0.03417 0.24483 0.88217
 C369 C 0.05137 0.26581 0.88150
 C370 C 0.04429 0.29010 0.89204
 C371 C 0.02009 0.29353 0.90352
 C372 C 0.00257 0.27256 0.90328
 H373 H 0.01272 0.20154 0.91592
 H374 H -0.03204 0.24697 0.86358
 H375 H 0.03927 0.22614 0.87345
 H376 H -0.01662 0.27504 0.91096
 H377 H -0.05276 0.16658 0.88038
 H378 H 0.05793 0.30616 0.89164
 C379 C 0.50019 0.22719 0.09622
 C380 C 0.50490 0.25272 0.10491
 C381 C 0.52719 0.25745 0.11873
 C382 C 0.54439 0.23664 0.12434
 C383 C 0.53956 0.21114 0.11569
 C384 C 0.51735 0.20620 0.10173
 C385 C 0.48481 0.27348 0.10299
 C386 C 0.45983 0.26784 0.11102
 C387 C 0.44181 0.28832 0.11453
 C388 C 0.44833 0.31439 0.10878
 C389 C 0.47327 0.32031 0.10059
 C390 C 0.49136 0.29965 0.09740
 H391 H 0.48266 0.22359 0.08587
 H392 H 0.53025 0.27689 0.12654
 H393 H 0.45533 0.24792 0.11712
 H394 H 0.51093 0.30399 0.09174
 H395 H 0.55339 0.19537 0.11968
 H396 H 0.43404 0.32999 0.11153
 C397 C 0.00396 0.70740 0.59401
 C398 C 0.00838 0.73397 0.59940
 C399 C 0.03129 0.74107 0.61116
 C400 C 0.04943 0.72158 0.61797
 C401 C 0.04506 0.69502 0.61231
 C402 C 0.02223 0.68768 0.60042
 C403 C -0.01226 0.75390 0.59596
 C404 C -0.03655 0.74939 0.60621
 C405 C -0.05477 0.77019 0.60856
 C406 C -0.04840 0.79547 0.59940
 C407 C -0.02479 0.79943 0.58719
 C408 C -0.00670 0.77863 0.58586
 H409 H -0.01406 0.70216 0.58521
 H410 H 0.03412 0.76147 0.61658
 H411 H -0.03983 0.73036 0.61497
 H412 H 0.01228 0.78198 0.57810
 H413 H 0.05972 0.68035 0.61711
 H414 H -0.06200 0.81191 0.60118
 C415 C 0.50417 0.71574 0.39739
 C416 C 0.49672 0.73876 0.38451
 C417 C 0.47466 0.73915 0.36971
 C418 C 0.46003 0.71637 0.36716
 C419 C 0.46727 0.69335 0.38009
 C420 C 0.48926 0.69289 0.39540
 C421 C 0.51322 0.76179 0.38392
 C422 C 0.53146 0.76374 0.36503
 C423 C 0.54542 0.78702 0.36173
 C424 C 0.54115 0.80807 0.37807
 C425 C 0.52235 0.80648 0.39677
 C426 C 0.50835 0.78315 0.39963
 H427 H 0.52181 0.71555 0.40821
 H428 H 0.46947 0.75702 0.35944
 H429 H 0.53417 0.74720 0.35248
 H430 H 0.49298 0.78182 0.41318
 H431 H 0.45538 0.67595 0.37867
 H432 H 0.55258 0.82575 0.37654
 Zr433 Zr 0.00573 -0.05696 1.02594
 O434 O 0.03276 -0.04381 1.05240
 O435 O -0.00147 -0.09519 1.03886
 O436 O -0.01211 -0.05412 1.06159
 O437 O 0.04882 -0.07739 0.98034
 O438 O -0.04687 -0.02630 1.05543
 O439 O 0.04197 -0.07790 1.02218
 O440 O -0.03452 -0.10881 1.01422
 O441 O -0.03439 -0.05842 1.02069
 O442 O -0.00037 -0.07809 0.99322
 O443 O -0.00754 -0.01722 1.02409
 O444 O 0.02556 -0.03613 0.99787
 Zr445 Zr -0.03498 -0.01945 0.95609
 Zr446 Zr -0.04730 -0.01895 1.01690
 Zr447 Zr 0.01740 -0.05675 0.96512
 Zr448 Zr -0.04004 -0.07855 0.98753
 O449 O 0.05239 -0.04072 0.95196
 O450 O -0.07631 -0.08514 1.00452
 O451 O -0.02215 -0.05926 0.95758
 O452 O -0.05481 -0.03981 0.98422
 O453 O -0.02940 0.00242 0.98857
 O454 O 0.00485 -0.01761 0.96169
 C455 C -0.01844 -0.11202 1.03226
 C456 C 0.05537 -0.08383 1.00254
 C457 C -0.03231 -0.04107 1.06931
 O458 O -0.08383 -0.03347 1.02738
 O459 O -0.07635 0.00588 1.00101
 O460 O -0.06833 0.00483 0.95937
 C461 C -0.08145 0.01266 0.97837
 O462 O 0.03985 0.00704 1.02167
 Zr463 Zr 0.01031 0.00268 0.99466
 O464 O -0.02677 0.01796 0.94204
 O465 O -0.04802 0.01747 1.03617
 O466 O 0.00013 0.03627 1.01623
 O467 O 0.04561 0.01225 0.97709
 O468 O 0.00219 0.03433 0.96973
 C469 C -0.01233 0.03631 0.95034
 O470 O -0.06421 -0.03225 0.93166
 O471 O 0.01992 -0.09451 0.94826
 O472 O -0.02008 -0.02522 0.91977
 O473 O 0.01434 -0.05308 0.92653
 O474 O -0.03049 -0.11388 0.96823
 O475 O -0.06694 -0.08472 0.95840
 C476 C -0.00065 -0.03937 0.91224
 H477 H 0.00689 -0.09636 0.99374
 H478 H -0.07355 -0.04025 0.98065
 H479 H 0.01407 -0.00868 0.94799
 H480 H -0.00407 -0.00801 1.03989
 H481 H -0.07970 -0.10438 1.00358
 H482 H -0.09187 -0.01990 1.03826
 H483 H -0.06502 0.01884 1.04452
 H484 H 0.01124 0.05102 1.01081
 H485 H -0.04248 -0.12776 0.97395
 H486 H 0.03656 -0.09536 0.93920
 H487 H 0.06023 -0.05401 0.94065
 H488 H 0.04799 0.03160 0.97894
 H489 H -0.07654 -0.10118 0.96170
 H490 H -0.06708 -0.01787 0.91926
 H491 H 0.03567 -0.05873 1.06420
 H492 H 0.04614 0.02547 1.02123
 Zr493 Zr 0.51134 0.46322 0.53334
 O494 O 0.53745 0.47891 0.55939
 O495 O 0.50481 0.42597 0.54815
 O496 O 0.49247 0.46584 0.56828
 O497 O 0.55491 0.43971 0.48966
 O498 O 0.45689 0.49211 0.56078
 O499 O 0.54750 0.44212 0.53137
 O500 O 0.47186 0.41044 0.52443
 O501 O 0.47141 0.46069 0.52761
 O502 O 0.50602 0.44011 0.50171
 O503 O 0.49735 0.50251 0.52990
 O504 O 0.53149 0.48270 0.50478
 Zr505 Zr 0.47122 0.49629 0.46163
 Zr506 Zr 0.45777 0.49958 0.52216
 Zr507 Zr 0.52405 0.46018 0.47299
 Zr508 Zr 0.46650 0.43864 0.49558
 O509 O 0.55923 0.47594 0.46009
 O510 O 0.42989 0.43248 0.51201
 O511 O 0.48462 0.45675 0.46509
 O512 O 0.45122 0.47697 0.49031
 O513 O 0.47589 0.51987 0.49319
 O514 O 0.51093 0.49892 0.46775
 C515 C 0.48790 0.40871 0.54271
 C516 C 0.56084 0.43444 0.51229
 C517 C 0.47130 0.47764 0.57513
 O518 O 0.42089 0.48558 0.53217
 O519 O 0.42872 0.52326 0.50487
 O520 O 0.43740 0.52023 0.46344
 C521 C 0.42379 0.52872 0.48190
 O522 O 0.54420 0.52718 0.52735
 Zr523 Zr 0.51552 0.52103 0.49984
 O524 O 0.47955 0.53300 0.44597
 O525 O 0.45656 0.53650 0.54055
 O526 O 0.50405 0.55567 0.51929
 O527 O 0.55119 0.53036 0.48286
 O528 O 0.50822 0.55095 0.47304
 C529 C 0.49412 0.55172 0.45335
 O530 O 0.44246 0.48208 0.43740
 O531 O 0.52710 0.42181 0.45741
 O532 O 0.48657 0.48850 0.42580
 O533 O 0.52167 0.46208 0.43428
 O534 O 0.47694 0.40221 0.47859
 O535 O 0.44054 0.43028 0.46619
 C536 C 0.50641 0.47439 0.41918
 H537 H 0.51334 0.42193 0.50324
 H538 H 0.43257 0.47603 0.48645
 H539 H 0.52033 0.50719 0.45380
 H540 H 0.50030 0.51242 0.54543
 H541 H 0.42690 0.41313 0.51212
 H542 H 0.41269 0.49938 0.54270
 H543 H 0.43945 0.53786 0.54870
 H544 H 0.51516 0.57026 0.51350
 H545 H 0.46513 0.38855 0.48508
 H546 H 0.54396 0.42068 0.44875
 H547 H 0.56745 0.46219 0.44951
 H548 H 0.55346 0.54976 0.48432
 H549 H 0.43109 0.41388 0.47014
 H550 H 0.43968 0.49581 0.42435
 H551 H 0.54055 0.46484 0.57203
 H552 H 0.54982 0.54583 0.52664
 Zr553 Zr 0.48696 1.02857 0.53941
 O554 O 0.46242 1.00959 0.56507
 O555 O 0.49083 1.06542 0.55539
 O556 O 0.50651 1.02621 0.57407
 O557 O 0.44045 1.04780 0.49686
 O558 O 0.54369 1.00297 0.56562
 O559 O 0.44958 1.04707 0.53830
 O560 O 0.52532 1.08221 0.53462
 O561 O 0.52651 1.03394 0.53371
 O562 O 0.49051 1.05389 0.50877
 O563 O 0.50333 0.99048 0.53468
 O564 O 0.46804 1.00935 0.51015
 Zr565 Zr 0.52882 1.00221 0.46675
 Zr566 Zr 0.54254 0.99644 0.52704
 Zr567 Zr 0.47388 1.03406 0.47925
 Zr568 Zr 0.52990 1.05823 0.50278
 O569 O 0.44095 1.01660 0.46324
 O570 O 0.56709 1.06614 0.51715
 O571 O 0.51294 1.04058 0.47167
 O572 O 0.54764 1.02125 0.49611
 O573 O 0.52561 0.97668 0.49739
 O574 O 0.48941 0.99658 0.47252
 C575 C 0.50875 1.08229 0.55247
 C576 C 0.43456 1.05224 0.51959
 C577 C 0.52871 1.01609 0.58033
 O578 O 0.57885 1.01195 0.53686
 O579 O 0.57219 0.97463 0.50914
 O580 O 0.56365 0.97979 0.46782
 C581 C 0.57731 0.97054 0.48606
 O582 O 0.45778 0.96316 0.53079
 Zr583 Zr 0.48626 0.97251 0.50389
 O584 O 0.52273 0.96591 0.44968
 O585 O 0.54578 0.95909 0.54495
 O586 O 0.49939 0.93768 0.52255
 O587 O 0.45156 0.96174 0.48593
 O588 O 0.49614 0.94440 0.47662
 C589 C 0.51005 0.94563 0.45689
 O590 O 0.55691 1.01932 0.44335
 O591 O 0.46682 1.07355 0.46717
 O592 O 0.51320 1.01160 0.43127
 O593 O 0.47755 1.03675 0.44066
 O594 O 0.51621 1.09552 0.48944
 O595 O 0.55342 1.07052 0.47267
 C596 C 0.49345 1.02618 0.42522
 H597 H 0.48184 1.07130 0.51127
 H598 H 0.56616 1.02351 0.49224
 H599 H 0.48073 0.98856 0.45809
 H600 H 0.50106 0.97961 0.54987
 H601 H 0.56868 1.08566 0.51808
 H602 H 0.58788 0.99820 0.54700
 H603 H 0.56301 0.95839 0.55296
 H604 H 0.48919 0.92272 0.51620
 H605 H 0.52732 1.10919 0.49684
 H606 H 0.45006 1.07375 0.45827
 H607 H 0.43164 1.03077 0.45386
 H608 H 0.45061 0.94214 0.48656
 H609 H 0.56104 1.08790 0.47651
 H610 H 0.56039 1.00653 0.42979
 H611 H 0.45855 1.02273 0.57822
 H612 H 0.45290 0.94436 0.52906
 Zr613 Zr -0.01152 0.52994 1.02941
 O614 O -0.03995 0.51536 1.05388
 O615 O -0.00713 0.56848 1.04194
 O616 O 0.00344 0.52982 1.06623
 O617 O -0.05171 0.54784 0.98080
 O618 O 0.03963 0.50366 1.06333
 O619 O -0.04742 0.54969 1.02290
 O620 O 0.03099 0.58038 1.02414
 O621 O 0.02866 0.53277 1.02746
 O622 O -0.00318 0.55146 0.99716
 O623 O 0.00281 0.49066 1.02959
 O624 O -0.02813 0.50836 1.00018
 Zr625 Zr 0.03698 0.49321 0.96422
 Zr626 Zr 0.04280 0.49397 1.02574
 Zr627 Zr -0.01762 0.52927 0.96807
 Zr628 Zr 0.03686 0.55310 0.99489
 O629 O -0.05012 0.51195 0.95118
 O630 O 0.07304 0.56081 1.01160
 O631 O 0.02251 0.53271 0.96402
 O632 O 0.05307 0.51477 0.99356
 O633 O 0.02867 0.47147 0.99644
 O634 O -0.00329 0.49050 0.96631
 C635 C 0.01229 0.58369 1.03963
 C636 C -0.05983 0.55446 1.00249
 C637 C 0.02401 0.51873 1.07549
 O638 O 0.07827 0.50916 1.03848
 O639 O 0.07333 0.46974 1.01397
 O640 O 0.07131 0.47020 0.97171
 C641 C 0.08189 0.46295 0.99257
 O642 O -0.04289 0.46427 1.02353
 Zr643 Zr -0.01143 0.47003 0.99888
 O644 O 0.03112 0.45534 0.95034
 O645 O 0.04221 0.45840 1.04677
 O646 O -0.00178 0.43671 1.02142
 O647 O -0.04498 0.45987 0.97869
 O648 O -0.00090 0.43874 0.97470
 C649 C 0.01574 0.43691 0.95698
 O650 O 0.06795 0.50634 0.94198
 O651 O -0.02030 0.56720 0.95113
 O652 O 0.02501 0.49869 0.92664
 O653 O -0.01008 0.52651 0.93004
 O654 O 0.02645 0.58941 0.97720
 O655 O 0.06384 0.56083 0.96615
 C656 C 0.00639 0.51302 0.91732
 H657 H -0.01104 0.56949 0.99712
 H658 H 0.07204 0.51577 0.99170
 H659 H -0.01091 0.48132 0.95194
 H660 H -0.00172 0.48156 1.04529
 H661 H 0.07564 0.58021 1.01076
 H662 H 0.08536 0.49631 1.05081
 H663 H 0.05820 0.45787 1.05688
 H664 H -0.01184 0.42155 1.01529
 H665 H 0.03741 0.60328 0.98448
 H666 H -0.03615 0.56744 0.94081
 H667 H -0.05746 0.52531 0.93948
 H668 H -0.04718 0.44047 0.98045
 H669 H 0.07164 0.57839 0.96879
 H670 H 0.07224 0.49173 0.93038
 H671 H -0.04450 0.53007 1.06528
 H672 H -0.04842 0.44560 1.02270
 Zr673 Zr -0.02719 0.46207 0.46352
 O674 O -0.05256 0.47732 0.43593
 O675 O -0.02113 0.42362 0.45125
 O676 O -0.00780 0.46340 0.42871
 O677 O -0.07369 0.44626 0.50672
 O678 O 0.02745 0.48875 0.43641
 O679 O -0.06372 0.44329 0.46554
 O680 O 0.01219 0.40850 0.47552
 O681 O 0.01255 0.45821 0.47037
 O682 O -0.02325 0.44041 0.49660
 O683 O -0.01305 0.50087 0.46530
 O684 O -0.04795 0.48374 0.49046
 Zr685 Zr 0.01118 0.49745 0.53437
 Zr686 Zr 0.02621 0.49683 0.47445
 Zr687 Zr -0.04165 0.46289 0.52384
 Zr688 Zr 0.01614 0.43751 0.50369
 O689 O -0.07638 0.48080 0.53667
 O690 O 0.05352 0.42913 0.48945
 O691 O -0.00242 0.45824 0.53269
 O692 O 0.03166 0.47550 0.50752
 O693 O 0.00731 0.51937 0.50141
 O694 O -0.02836 0.50131 0.52719
 C695 C -0.00390 0.40631 0.45736
 C696 C -0.07892 0.43980 0.48428
 C697 C 0.01324 0.47494 0.42202
 O698 O 0.06301 0.48043 0.46598
 O699 O 0.05505 0.52023 0.49087
 O700 O 0.04539 0.51969 0.53215
 C701 C 0.05946 0.52676 0.51356
 O702 O -0.06013 0.52693 0.46502
 Zr703 Zr -0.03214 0.52149 0.49355
 O704 O 0.00304 0.53598 0.54683
 O705 O 0.02855 0.53299 0.45450
 O706 O -0.02063 0.55468 0.47214
 O707 O -0.06815 0.53263 0.50941
 O708 O -0.02528 0.55263 0.51800
 C709 C -0.01116 0.55466 0.53746
 O710 O 0.03916 0.48379 0.56035
 O711 O -0.04612 0.42493 0.54007
 O712 O -0.00487 0.49167 0.57011
 O713 O -0.03991 0.46611 0.56265
 O714 O 0.00436 0.40227 0.52177
 O715 O 0.04069 0.42915 0.53448
 C716 C -0.02469 0.47847 0.57729
 H717 H -0.03102 0.42264 0.49573
 H718 H 0.05019 0.47399 0.51193
 H719 H -0.03788 0.51076 0.54048
 H720 H -0.01552 0.51023 0.44924
 H721 H 0.05629 0.40966 0.49034
 H722 H 0.07166 0.49329 0.45491
 H723 H 0.04582 0.53318 0.44659
 H724 H -0.03215 0.56980 0.47656
 H725 H 0.01609 0.38778 0.51620
 H726 H -0.06330 0.42499 0.54814
 H727 H -0.08520 0.46748 0.54712
 H728 H -0.07049 0.55200 0.50688
 H729 H 0.04967 0.41189 0.53195
 H730 H 0.04161 0.49817 0.57257
 H731 H -0.05536 0.46278 0.42397
 H732 H -0.06648 0.54555 0.46501
 Zr733 Zr 0.46376 -0.01607 -0.04114
 O734 O 0.44011 -0.00040 -0.06987
 O735 O 0.46902 -0.05501 -0.05250
 O736 O 0.48485 -0.01700 -0.07499
 O737 O 0.41468 -0.02808 0.00037
 O738 O 0.52113 0.00643 -0.06633
 O739 O 0.42677 -0.03420 -0.03992
 O740 O 0.50017 -0.07081 -0.02604
 O741 O 0.50290 -0.02181 -0.03225
 O742 O 0.46503 -0.03664 -0.00735
 O743 O 0.47994 0.02194 -0.03973
 O744 O 0.44290 0.00789 -0.01598
 Zr745 Zr 0.50058 0.01945 0.03050
 Zr746 Zr 0.51847 0.01604 -0.02866
 Zr747 Zr 0.44647 -0.01207 0.01813
 Zr748 Zr 0.50380 -0.04147 0.00174
 O749 O 0.41211 0.00842 0.02834
 O750 O 0.54153 -0.05239 -0.01007
 O751 O 0.48483 -0.01883 0.02913
 O752 O 0.52119 -0.00440 0.00519
 O753 O 0.49963 0.04048 -0.00316
 O754 O 0.46173 0.02555 0.02131
 C755 C 0.48533 -0.07275 -0.04517
 C756 C 0.41061 -0.03636 -0.02171
 C757 C 0.50691 -0.00712 -0.08093
 O758 O 0.55470 -0.00268 -0.03506
 O759 O 0.54777 0.03812 -0.01143
 O760 O 0.53620 0.03929 0.02938
 C761 C 0.55155 0.04486 0.01131
 O762 O 0.43441 0.05109 -0.04275
 Zr763 Zr 0.46079 0.04477 -0.01297
 O764 O 0.49401 0.05865 0.04157
 O765 O 0.52375 0.05128 -0.04941
 O766 O 0.47515 0.07625 -0.03500
 O767 O 0.42489 0.05866 0.00121
 O768 O 0.46880 0.07647 0.01073
 C769 C 0.48190 0.07805 0.03091
 O770 O 0.52648 0.00522 0.05816
 O771 O 0.43898 -0.04892 0.03549
 O772 O 0.48264 0.01526 0.06566
 O773 O 0.44627 -0.00763 0.05664
 O774 O 0.48925 -0.07558 0.01978
 O775 O 0.52588 -0.05002 0.03416
 C776 C 0.46159 0.00361 0.07190
 H777 H 0.45656 -0.05407 -0.00806
 H778 H 0.53938 -0.00685 0.01050
 H779 H 0.45214 0.03597 0.03391
 H780 H 0.47878 0.03083 -0.05615
 H781 H 0.54321 -0.07192 -0.00843
 H782 H 0.56460 0.00933 -0.04598
 H783 H 0.54139 0.05022 -0.05649
 H784 H 0.46447 0.09226 -0.03146
 H785 H 0.50063 -0.09075 0.01518
 H786 H 0.42145 -0.04751 0.04278
 H787 H 0.40201 -0.00379 0.03889
 H788 H 0.42393 0.07807 -0.00174
 H789 H 0.53417 -0.06777 0.03261
 H790 H 0.52907 0.01983 0.07011
 H791 H 0.43716 -0.01512 -0.08159
 H792 H 0.42895 0.06999 -0.04327
 Zr793 Zr 0.52171 0.54982 -0.02721
 O794 O 0.55061 0.53912 -0.05319
 O795 O 0.50893 0.58624 -0.04141
 O796 O 0.50521 0.54427 -0.06280
 O797 O 0.56156 0.57582 0.01784
 O798 O 0.47367 0.51383 -0.05629
 O799 O 0.55474 0.57445 -0.02401
 O800 O 0.47274 0.59541 -0.01868
 O801 O 0.48168 0.54726 -0.02203
 O802 O 0.51284 0.57101 0.00499
 O803 O 0.51347 0.50912 -0.02507
 O804 O 0.54420 0.53189 0.00106
 Zr805 Zr 0.48605 0.50943 0.04272
 Zr806 Zr 0.47371 0.50694 -0.01779
 Zr807 Zr 0.53323 0.55199 0.03351
 Zr808 Zr 0.47337 0.56742 0.01063
 O809 O 0.57014 0.54021 0.04688
 O810 O 0.43539 0.56964 -0.00407
 O811 O 0.49358 0.55036 0.04082
 O812 O 0.46372 0.52751 0.01453
 O813 O 0.49445 0.48788 0.01055
 O814 O 0.52585 0.51173 0.03725
 C815 C 0.48838 0.59985 -0.03674
 C816 C 0.56706 0.58238 -0.00457
 C817 C 0.48663 0.52950 -0.07029
 O818 O 0.43597 0.51798 -0.02937
 O819 O 0.44642 0.48118 -0.00158
 O820 O 0.45497 0.48314 0.03989
 C821 C 0.44191 0.47478 0.02121
 O822 O 0.56411 0.49143 -0.02238
 Zr823 Zr 0.53404 0.49190 0.00444
 O824 O 0.49859 0.47236 0.05596
 O825 O 0.47746 0.46987 -0.03565
 O826 O 0.52927 0.45740 -0.01729
 O827 O 0.57002 0.48595 0.02264
 O828 O 0.52997 0.45946 0.02868
 C829 C 0.51505 0.45546 0.04733
 O830 O 0.45590 0.51922 0.06776
 O831 O 0.53038 0.58987 0.05004
 O832 O 0.49990 0.51703 0.07885
 O833 O 0.53076 0.54799 0.07219
 O834 O 0.47905 0.60489 0.02722
 O835 O 0.44756 0.57197 0.04100
 C836 C 0.51734 0.53302 0.08643
 H837 H 0.51750 0.58993 0.00376
 H838 H 0.44505 0.52639 0.01820
 H839 H 0.53604 0.50377 0.05104
 H840 H 0.51813 0.50007 -0.04073
 H841 H 0.42955 0.58843 -0.00330
 H842 H 0.42971 0.50356 -0.04012
 H843 H 0.46100 0.46701 -0.04454
 H844 H 0.54270 0.44430 -0.01204
 H845 H 0.46519 0.61697 0.02099
 H846 H 0.54679 0.59270 0.05903
 H847 H 0.57613 0.55453 0.05789
 H848 H 0.57521 0.46713 0.02033
 H849 H 0.43638 0.58783 0.03824
 H850 H 0.45484 0.50455 0.08007
 H851 H 0.55161 0.55391 -0.06536
 H852 H 0.57338 0.47412 -0.02172
 Zr853 Zr 0.01800 1.03832 0.47539
 O854 O 0.04547 1.02344 0.44975
 O855 O 0.00949 1.07592 0.46064
 O856 O 0.00096 1.03458 0.43979
 O857 O 0.06271 1.05612 0.51942
 O858 O -0.03445 1.00912 0.44648
 O859 O 0.05360 1.05868 0.47802
 O860 O -0.02489 1.08978 0.48393
 O861 O -0.02199 1.04141 0.48075
 O862 O 0.01229 1.06075 0.50748
 O863 O 0.00479 0.99912 0.47813
 O864 O 0.03799 1.01745 0.50379
 Zr865 Zr -0.02245 1.00415 0.54604
 Zr866 Zr -0.03490 1.00269 0.48518
 Zr867 Zr 0.03027 1.03931 0.53599
 Zr868 Zr -0.02739 1.06258 0.51345
 O869 O 0.06450 1.02206 0.55087
 O870 O -0.06506 1.07018 0.49936
 O871 O -0.00929 1.04340 0.54362
 O872 O -0.04230 1.02451 0.51749
 O873 O -0.01703 0.98142 0.51398
 O874 O 0.01740 1.00068 0.54059
 C875 C -0.00937 1.09191 0.46545
 C876 C 0.06829 1.06270 0.49701
 C877 C -0.01942 1.02252 0.43230
 O878 O -0.07122 1.01866 0.47427
 O879 O -0.06410 0.97986 0.50146
 O880 O -0.05567 0.98048 0.54306
 C881 C -0.06893 0.97317 0.52406
 O882 O 0.05282 0.97355 0.48186
 Zr883 Zr 0.02263 0.97934 0.50806
 O884 O -0.01480 0.96668 0.56094
 O885 O -0.03597 0.96574 0.46688
 O886 O 0.01335 0.94585 0.48641
 O887 O 0.05716 0.96833 0.52693
 O888 O 0.01267 0.94820 0.53259
 C889 C -0.00192 0.94708 0.55194
 O890 O -0.05182 1.01840 0.57001
 O891 O 0.03412 1.07790 0.55062
 O892 O -0.00754 1.01111 0.58212
 O893 O 0.02652 1.03816 0.57469
 O894 O -0.01652 1.09905 0.52947
 O895 O -0.05206 1.07074 0.54406
 C896 C 0.01142 1.02552 0.58932
 H897 H 0.01953 1.07873 0.50596
 H898 H -0.06101 1.02573 0.52113
 H899 H 0.02634 0.99170 0.55463
 H900 H 0.00824 0.98936 0.46256
 H901 H -0.06834 1.08956 0.50022
 H902 H -0.07944 1.00520 0.46367
 H903 H -0.05289 0.96499 0.45834
 H904 H 0.02434 0.93082 0.49230
 H905 H -0.02883 1.11283 0.52331
 H906 H 0.05084 1.07814 0.55956
 H907 H 0.07273 1.03576 0.56119
 H908 H 0.05909 0.94881 0.52566
 H909 H -0.06070 1.08822 0.54162
 H910 H -0.05459 1.00442 0.58272
 H911 H 0.04824 1.03763 0.43724
 H912 H 0.05965 0.95515 0.48322
 Zr913 Zr 0.71423 0.25829 0.21275
 O914 O 0.72368 0.28354 0.18271
 O915 O 0.67575 0.25028 0.20572
 O916 O 0.71117 0.23743 0.17881
 O917 O 0.70355 0.30796 0.25524
 O918 O 0.73783 0.20143 0.18460
 O919 O 0.69412 0.29532 0.21575
 O920 O 0.66559 0.21841 0.23420
 O921 O 0.71264 0.21792 0.22189
 O922 O 0.69848 0.25580 0.24836
 O923 O 0.75245 0.24378 0.21028
 O924 O 0.73883 0.28067 0.23539
 Zr925 Zr 0.76036 0.22165 0.28029
 Zr926 Zr 0.75082 0.20402 0.22139
 Zr927 Zr 0.72376 0.27591 0.27114
 Zr928 Zr 0.69814 0.21578 0.25785
 O929 O 0.74227 0.31189 0.27955
 O930 O 0.68899 0.17680 0.24670
 O931 O 0.72191 0.23617 0.28264
 O932 O 0.73574 0.19982 0.25724
 O933 O 0.77631 0.22398 0.24457
 O934 O 0.76175 0.26193 0.27081
 C935 C 0.66046 0.23328 0.21525
 C936 C 0.69285 0.31182 0.23400
 C937 C 0.72205 0.21562 0.17150
 O938 O 0.73419 0.16642 0.21612
 O939 O 0.77534 0.17426 0.23569
 O940 O 0.78288 0.18605 0.27583
 C941 C 0.78590 0.17041 0.25702
 O942 O 0.77742 0.29114 0.20448
 Zr943 Zr 0.77631 0.26410 0.23486
 O944 O 0.79873 0.23111 0.28779
 O945 O 0.78319 0.20012 0.19766
 O946 O 0.80555 0.25041 0.21033
 O947 O 0.78777 0.30188 0.24746
 O948 O 0.81026 0.25830 0.25576
 C949 C 0.81512 0.24511 0.27576
 O950 O 0.75302 0.19364 0.30872
 O951 O 0.68955 0.28207 0.29196
 O952 O 0.75739 0.23939 0.31626
 O953 O 0.73175 0.27579 0.30892
 O954 O 0.66678 0.22913 0.28004
 O955 O 0.69595 0.19225 0.29062
 C956 C 0.74473 0.26039 0.32342
 H957 H 0.68090 0.26371 0.24950
 H958 H 0.73542 0.18099 0.26250
 H959 H 0.77230 0.27228 0.28250
 H960 H 0.75906 0.24552 0.19311
 H961 H 0.67056 0.17398 0.25071
 H962 H 0.74507 0.15687 0.20383
 H963 H 0.78246 0.18222 0.19025
 H964 H 0.82062 0.26206 0.21230
 H965 H 0.65234 0.21683 0.27733
 H966 H 0.69038 0.30011 0.29908
 H967 H 0.73092 0.32165 0.29128
 H968 H 0.80615 0.30405 0.24288
 H969 H 0.67922 0.18302 0.29098
 H970 H 0.76894 0.19211 0.31893
 H971 H 0.70776 0.28595 0.17265
 H972 H 0.79527 0.29748 0.20228
 Zr973 Zr 0.78375 0.73408 0.71090
 O974 O 0.77503 0.70354 0.68565
 O975 O 0.81948 0.74651 0.69765
 O976 O 0.77950 0.74976 0.67434
 O977 O 0.80592 0.69356 0.75860
 O978 O 0.74868 0.78236 0.67858
 O979 O 0.80795 0.69978 0.71668
 O980 O 0.82661 0.78457 0.71909
 O981 O 0.78037 0.77536 0.71435
 O982 O 0.80291 0.74414 0.74360
 O983 O 0.74385 0.74303 0.71118
 O984 O 0.76525 0.71267 0.73940
 Zr985 Zr 0.74074 0.77448 0.77785
 Zr986 Zr 0.74089 0.78406 0.71665
 Zr987 Zr 0.78335 0.72492 0.77212
 Zr988 Zr 0.79850 0.78497 0.74748
 O989 O 0.77130 0.68858 0.78781
 O990 O 0.80063 0.82351 0.73168
 O991 O 0.78083 0.76592 0.77772
 O992 O 0.75931 0.79561 0.74934
 O993 O 0.72137 0.76467 0.74508
 O994 O 0.74388 0.73332 0.77416
 C995 C 0.83196 0.76783 0.70182
 C996 C 0.81368 0.68686 0.73688
 C997 C 0.76466 0.76848 0.66565
 O998 O 0.75146 0.82218 0.70402
 O999 O 0.71446 0.81253 0.73019
 O1000 O 0.71501 0.80724 0.77225
 C1001 C 0.70727 0.81911 0.75219
 O1002 O 0.72702 0.69128 0.71597
 Zr1003 Zr 0.72599 0.72376 0.74090
 O1004 O 0.70413 0.76297 0.78970
 O1005 O 0.70568 0.78001 0.69721
 O1006 O 0.69359 0.72793 0.71701
 O1007 O 0.71989 0.68813 0.76102
 O1008 O 0.69285 0.73034 0.76281
 C1009 C 0.68804 0.74642 0.78072
 O1010 O 0.74876 0.80608 0.80220
 O1011 O 0.82019 0.72679 0.78903
 O1012 O 0.74701 0.76099 0.81491
 O1013 O 0.77958 0.73039 0.81038
 O1014 O 0.83440 0.77876 0.76575
 O1015 O 0.80148 0.81256 0.77696
 C1016 C 0.76380 0.74412 0.82365
 H1017 H 0.82139 0.73881 0.74332
 H1018 H 0.75776 0.81497 0.75199
 H1019 H 0.73577 0.72369 0.78811
 H1020 H 0.73573 0.73771 0.69537
 H1021 H 0.81876 0.82930 0.73312
 H1022 H 0.73774 0.82840 0.69242
 H1023 H 0.70290 0.79660 0.68755
 H1024 H 0.68072 0.71471 0.72227
 H1025 H 0.84634 0.79235 0.75936
 H1026 H 0.82259 0.71032 0.79895
 H1027 H 0.78506 0.68256 0.79944
 H1028 H 0.70165 0.68320 0.75846
 H1029 H 0.81724 0.82316 0.77474
 H1030 H 0.73393 0.80774 0.81377
 H1031 H 0.78997 0.70186 0.67423
 H1032 H 0.71040 0.68190 0.71669
 Zr1033 Zr 0.22372 0.23411 0.79276
 O1034 O 0.23346 0.20662 0.82123
 O1035 O 0.18719 0.24705 0.80400
 O1036 O 0.22689 0.25351 0.82722
 O1037 O 0.20484 0.18714 0.75038
 O1038 O 0.25566 0.28661 0.82007
 O1039 O 0.20046 0.19954 0.79081
 O1040 O 0.17720 0.28067 0.77694
 O1041 O 0.22520 0.27481 0.78470
 O1042 O 0.20474 0.23971 0.75889
 O1043 O 0.26311 0.24389 0.79218
 O1044 O 0.24368 0.20952 0.76756
 Zr1045 Zr 0.26593 0.26654 0.72240
 Zr1046 Zr 0.26444 0.28409 0.78194
 Zr1047 Zr 0.22567 0.21728 0.73336
 Zr1048 Zr 0.20726 0.27986 0.75039
 O1049 O 0.23961 0.17947 0.72226
 O1050 O 0.20288 0.31941 0.76303
 O1051 O 0.22631 0.25737 0.72297
 O1052 O 0.24599 0.29090 0.74782
 O1053 O 0.28531 0.26136 0.75631
 O1054 O 0.26461 0.22615 0.73101
 C1055 C 0.17260 0.26611 0.79612
 C1056 C 0.19631 0.18366 0.77248
 C1057 C 0.24031 0.27348 0.83417
 O1058 O 0.25190 0.32330 0.78963
 O1059 O 0.29009 0.31126 0.76509
 O1060 O 0.29069 0.29940 0.72430
 C1061 C 0.29756 0.31437 0.74240
 O1062 O 0.28285 0.19302 0.79497
 Zr1063 Zr 0.28231 0.22121 0.76546
 O1064 O 0.30241 0.25240 0.71145
 O1065 O 0.29938 0.28312 0.80230
 O1066 O 0.31462 0.22974 0.78809
 O1067 O 0.28969 0.18282 0.75099
 O1068 O 0.31473 0.22377 0.74243
 C1069 C 0.31862 0.23642 0.72209
 O1070 O 0.25760 0.29557 0.69482
 O1071 O 0.18909 0.21649 0.71585
 O1072 O 0.25952 0.24995 0.68684
 O1073 O 0.23042 0.21760 0.69486
 O1074 O 0.17265 0.27149 0.73111
 O1075 O 0.20402 0.30453 0.71837
 C1076 C 0.24450 0.23116 0.68004
 H1077 H 0.18652 0.23409 0.75937
 H1078 H 0.24676 0.30978 0.74280
 H1079 H 0.27313 0.21485 0.71838
 H1080 H 0.27120 0.24066 0.80860
 H1081 H 0.18451 0.32469 0.76076
 H1082 H 0.26500 0.33101 0.80077
 H1083 H 0.30111 0.30084 0.80990
 H1084 H 0.32812 0.21607 0.78478
 H1085 H 0.15988 0.28560 0.73533
 H1086 H 0.18760 0.19882 0.70808
 H1087 H 0.22628 0.17175 0.71138
 H1088 H 0.30801 0.17820 0.75452
 H1089 H 0.18835 0.31594 0.71973
 H1090 H 0.27239 0.29575 0.68312
 H1091 H 0.21847 0.20597 0.83266
 H1092 H 0.30006 0.18423 0.79584
 Zr1093 Zr 0.28088 0.76945 0.28365
 O1094 O 0.26487 0.79444 0.31122
 O1095 O 0.31827 0.76344 0.29679
 O1096 O 0.27942 0.74859 0.31815
 O1097 O 0.29551 0.81834 0.24141
 O1098 O 0.25681 0.71132 0.30916
 O1099 O 0.29826 0.80773 0.28255
 O1100 O 0.33449 0.73110 0.27147
 O1101 O 0.28613 0.72895 0.27609
 O1102 O 0.30249 0.76685 0.25093
 O1103 O 0.24361 0.75363 0.28064
 O1104 O 0.25925 0.79053 0.25654
 Zr1105 Zr 0.24927 0.73062 0.21111
 Zr1106 Zr 0.24916 0.71370 0.27102
 Zr1107 Zr 0.28035 0.78566 0.22364
 Zr1108 Zr 0.30676 0.72671 0.24305
 O1109 O 0.26166 0.82106 0.21139
 O1110 O 0.31603 0.68833 0.25704
 O1111 O 0.28673 0.74598 0.21390
 O1112 O 0.27053 0.70949 0.23826
 O1113 O 0.22732 0.73290 0.24370
 O1114 O 0.24355 0.77079 0.21895
 C1115 C 0.33585 0.74674 0.29022
 C1116 C 0.30155 0.82367 0.26388
 C1117 C 0.26920 0.72619 0.32419
 O1118 O 0.26591 0.67597 0.27860
 O1119 O 0.22638 0.68487 0.25355
 O1120 O 0.22802 0.69517 0.21228
 C1121 C 0.22034 0.68081 0.23068
 O1122 O 0.21652 0.80197 0.27986
 Zr1123 Zr 0.22312 0.77292 0.25209
 O1124 O 0.21219 0.73749 0.19747
 O1125 O 0.21412 0.70967 0.29078
 O1126 O 0.19148 0.76031 0.27390
 O1127 O 0.20996 0.80870 0.23509
 O1128 O 0.19307 0.76216 0.22795
 C1129 C 0.19253 0.74846 0.20787
 O1130 O 0.26462 0.70310 0.18533
 O1131 O 0.31725 0.79234 0.20816
 O1132 O 0.25421 0.74885 0.17579
 O1133 O 0.27809 0.78506 0.18494
 O1134 O 0.34088 0.74039 0.22580
 O1135 O 0.31607 0.70248 0.21209
 C1136 C 0.26643 0.77001 0.16960
 H1137 H 0.31952 0.77536 0.25226
 H1138 H 0.27258 0.69062 0.23358
 H1139 H 0.23408 0.78045 0.20563
 H1140 H 0.23420 0.75544 0.29654
 H1141 H 0.33505 0.68608 0.25634
 H1142 H 0.25340 0.66630 0.28903
 H1143 H 0.21428 0.69159 0.29809
 H1144 H 0.17622 0.77122 0.26896
 H1145 H 0.35527 0.72854 0.23126
 H1146 H 0.31658 0.81016 0.20032
 H1147 H 0.27431 0.83095 0.20129
 H1148 H 0.19093 0.80944 0.23693
 H1149 H 0.33308 0.69370 0.21484
 H1150 H 0.25106 0.70027 0.17264
 H1151 H 0.27874 0.79741 0.32355
 H1152 H 0.19827 0.80810 0.27921
 Zr1153 Zr 0.21561 0.76215 0.70970
 O1154 O 0.22407 0.78907 0.68067
 O1155 O 0.17793 0.75155 0.70134
 O1156 O 0.21430 0.74226 0.67509
 O1157 O 0.20256 0.81072 0.75294
 O1158 O 0.24205 0.70713 0.68061
 O1159 O 0.19316 0.79754 0.71355
 O1160 O 0.16942 0.71837 0.72901
 O1161 O 0.21634 0.72149 0.71767
 O1162 O 0.19936 0.75757 0.74492
 O1163 O 0.25467 0.75028 0.70753
 O1164 O 0.23836 0.78525 0.73353
 Zr1165 Zr 0.26259 0.72613 0.77689
 Zr1166 Zr 0.25523 0.71009 0.71733
 Zr1167 Zr 0.22288 0.77854 0.76887
 Zr1168 Zr 0.20136 0.71725 0.75325
 O1169 O 0.23982 0.81437 0.78030
 O1170 O 0.19466 0.67804 0.74111
 O1171 O 0.22338 0.73822 0.77885
 O1172 O 0.23977 0.70365 0.75274
 O1173 O 0.27907 0.73073 0.74163
 O1174 O 0.26170 0.76686 0.76899
 C1175 C 0.16375 0.73311 0.71013
 C1176 C 0.19145 0.81400 0.73178
 C1177 C 0.22575 0.72080 0.66761
 O1178 O 0.24161 0.67134 0.71108
 O1179 O 0.28160 0.68179 0.73100
 O1180 O 0.28658 0.69173 0.77191
 C1181 C 0.29127 0.67731 0.75258
 O1182 O 0.27672 0.79960 0.70405
 Zr1183 Zr 0.27676 0.77115 0.73332
 O1184 O 0.30009 0.73804 0.78590
 O1185 O 0.28769 0.70954 0.69351
 O1186 O 0.30706 0.76062 0.70863
 O1187 O 0.28582 0.80892 0.74771
 O1188 O 0.31081 0.76617 0.75434
 C1189 C 0.31604 0.75300 0.77429
 O1190 O 0.25720 0.69656 0.80439
 O1191 O 0.18727 0.78312 0.78781
 O1192 O 0.25627 0.74129 0.81331
 O1193 O 0.22762 0.77566 0.80725
 O1194 O 0.16888 0.72800 0.77513
 O1195 O 0.20015 0.69275 0.78545
 C1196 C 0.24092 0.75990 0.82118
 H1197 H 0.18132 0.76431 0.74578
 H1198 H 0.24045 0.68464 0.75742
 H1199 H 0.27132 0.77718 0.78141
 H1200 H 0.26139 0.75303 0.69052
 H1201 H 0.17643 0.67395 0.74491
 H1202 H 0.25318 0.66301 0.69861
 H1203 H 0.28833 0.69182 0.68568
 H1204 H 0.32133 0.77314 0.71129
 H1205 H 0.15527 0.71489 0.77183
 H1206 H 0.18726 0.80082 0.79569
 H1207 H 0.22747 0.82303 0.79184
 H1208 H 0.30413 0.81233 0.74367
 H1209 H 0.18395 0.68259 0.78545
 H1210 H 0.27300 0.69600 0.81486
 H1211 H 0.20824 0.79080 0.67036
 H1212 H 0.29407 0.80743 0.70263
 Zr1213 Zr 0.28985 0.24220 0.22573
 O1214 O 0.27929 0.21377 0.19902
 O1215 O 0.32559 0.25411 0.21246
 O1216 O 0.28501 0.26019 0.19011
 O1217 O 0.31190 0.19769 0.27039
 O1218 O 0.25994 0.29699 0.19773
 O1219 O 0.31292 0.20663 0.22884
 O1220 O 0.33583 0.28885 0.23737
 O1221 O 0.28891 0.28317 0.23227
 O1222 O 0.30999 0.24860 0.25880
 O1223 O 0.25057 0.25359 0.22707
 O1224 O 0.27078 0.21954 0.25292
 Zr1225 Zr 0.25036 0.27904 0.29596
 Zr1226 Zr 0.25004 0.29417 0.23554
 Zr1227 Zr 0.29001 0.22808 0.28619
 Zr1228 Zr 0.30789 0.28907 0.26578
 O1229 O 0.27657 0.19083 0.29849
 O1230 O 0.31176 0.32839 0.25228
 O1231 O 0.28987 0.26845 0.29488
 O1232 O 0.26935 0.30175 0.26887
 O1233 O 0.23006 0.27330 0.26280
 O1234 O 0.25110 0.23834 0.28918
 C1235 C 0.33955 0.27388 0.21840
 C1236 C 0.31903 0.19239 0.24818
 C1237 C 0.27345 0.28199 0.18333
 O1238 O 0.26140 0.33335 0.22725
 O1239 O 0.22363 0.32138 0.25160
 O1240 O 0.22500 0.31217 0.29313
 C1241 C 0.21668 0.32563 0.27422
 O1242 O 0.23113 0.20266 0.22825
 Zr1243 Zr 0.23222 0.23280 0.25559
 O1244 O 0.21398 0.26821 0.30844
 O1245 O 0.21550 0.29323 0.21461
 O1246 O 0.19965 0.24103 0.23277
 O1247 O 0.22396 0.19600 0.27286
 O1248 O 0.20011 0.23960 0.27879
 C1249 C 0.19677 0.25379 0.29832
 O1250 O 0.26064 0.30858 0.32172
 O1251 O 0.32682 0.22720 0.30333
 O1252 O 0.25621 0.26246 0.33191
 O1253 O 0.28610 0.22969 0.32483
 O1254 O 0.34366 0.27977 0.28321
 O1255 O 0.31267 0.31407 0.29698
 C1256 C 0.27148 0.24346 0.33923
 H1257 H 0.32823 0.24250 0.25788
 H1258 H 0.26859 0.32082 0.27309
 H1259 H 0.24268 0.22793 0.30245
 H1260 H 0.24202 0.25016 0.21099
 H1261 H 0.33022 0.33304 0.25369
 H1262 H 0.24807 0.34111 0.21603
 H1263 H 0.21347 0.31088 0.20661
 H1264 H 0.18608 0.22829 0.23740
 H1265 H 0.35614 0.29331 0.27777
 H1266 H 0.32861 0.20990 0.31204
 H1267 H 0.29003 0.18316 0.30962
 H1268 H 0.20540 0.19259 0.27007
 H1269 H 0.32862 0.32442 0.29496
 H1270 H 0.24626 0.31018 0.33379
 H1271 H 0.29388 0.21221 0.18717
 H1272 H 0.21385 0.19457 0.22817
 Zr1273 Zr 0.71752 0.73777 0.28133
 O1274 O 0.72694 0.71379 0.31254
 O1275 O 0.67899 0.74722 0.28797
 O1276 O 0.71607 0.76025 0.31441
 O1277 O 0.70536 0.68574 0.24193
 O1278 O 0.74302 0.79471 0.30667
 O1279 O 0.69722 0.70162 0.28078
 O1280 O 0.66829 0.77730 0.25765
 O1281 O 0.71648 0.77774 0.27048
 O1282 O 0.70122 0.73892 0.24581
 O1283 O 0.75598 0.75027 0.28271
 O1284 O 0.74091 0.71257 0.25946
 Zr1285 Zr 0.76280 0.76763 0.21197
 Zr1286 Zr 0.75512 0.78954 0.26974
 Zr1287 Zr 0.72538 0.71597 0.22358
 Zr1288 Zr 0.70135 0.77846 0.23463
 O1289 O 0.74308 0.67870 0.21626
 O1290 O 0.69279 0.81802 0.24530
 O1291 O 0.72410 0.75527 0.21049
 O1292 O 0.73927 0.79238 0.23402
 O1293 O 0.77948 0.76644 0.24739
 O1294 O 0.76358 0.72785 0.22318
 C1295 C 0.66317 0.76313 0.27692
 C1296 C 0.69542 0.68387 0.26373
 C1297 C 0.72766 0.78164 0.32077
 O1298 O 0.73969 0.82845 0.27302
 O1299 O 0.78102 0.81641 0.25336
 O1300 O 0.78617 0.80175 0.21367
 C1301 C 0.79090 0.81804 0.23146
 O1302 O 0.77895 0.70152 0.29068
 Zr1303 Zr 0.77863 0.72691 0.25904
 O1304 O 0.80080 0.75563 0.20454
 O1305 O 0.78782 0.79291 0.29301
 O1306 O 0.80867 0.73993 0.28255
 O1307 O 0.78934 0.68787 0.24832
 O1308 O 0.81220 0.72950 0.23765
 C1309 C 0.81698 0.74128 0.21704
 O1310 O 0.75503 0.79434 0.18229
 O1311 O 0.69050 0.71040 0.20392
 O1312 O 0.75978 0.74820 0.17725
 O1313 O 0.73273 0.71397 0.18534
 O1314 O 0.66992 0.76625 0.21245
 O1315 O 0.69942 0.80127 0.20135
 C1316 C 0.74656 0.72794 0.17057
 H1317 H 0.68357 0.73172 0.24515
 H1318 H 0.73936 0.81088 0.22778
 H1319 H 0.77377 0.71632 0.21191
 H1320 H 0.76287 0.74901 0.29983
 H1321 H 0.67435 0.82161 0.24139
 H1322 H 0.75112 0.83799 0.28457
 H1323 H 0.78776 0.81135 0.29925
 H1324 H 0.82324 0.72706 0.28112
 H1325 H 0.65580 0.77957 0.21443
 H1326 H 0.69097 0.69197 0.19766
 H1327 H 0.73115 0.66895 0.20535
 H1328 H 0.80759 0.68486 0.25328
 H1329 H 0.68322 0.81198 0.20117
 H1330 H 0.77065 0.79463 0.17165
 H1331 H 0.71117 0.71279 0.32293
 H1332 H 0.79665 0.69437 0.29341
 Zr1333 Zr 0.78086 0.27066 0.79095
 O1334 O 0.77046 0.29469 0.82151
 O1335 O 0.81896 0.26092 0.79933
 O1336 O 0.78140 0.24746 0.82414
 O1337 O 0.79476 0.32211 0.75061
 O1338 O 0.75460 0.21322 0.81535
 O1339 O 0.80180 0.30683 0.79007
 O1340 O 0.83018 0.23036 0.77001
 O1341 O 0.78180 0.23071 0.78037
 O1342 O 0.79816 0.26939 0.75590
 O1343 O 0.74228 0.25812 0.79125
 O1344 O 0.75812 0.29584 0.76805
 Zr1345 Zr 0.73731 0.24100 0.72051
 Zr1346 Zr 0.74316 0.21891 0.77841
 Zr1347 Zr 0.77459 0.29228 0.73260
 Zr1348 Zr 0.79826 0.22990 0.74519
 O1349 O 0.75760 0.32991 0.72490
 O1350 O 0.80602 0.19012 0.75614
 O1351 O 0.77618 0.25304 0.72000
 O1352 O 0.76027 0.21618 0.74336
 O1353 O 0.71946 0.24213 0.75533
 O1354 O 0.73635 0.28070 0.73140
 C1355 C 0.83482 0.24434 0.78944
 C1356 C 0.80436 0.32422 0.77247
 C1357 C 0.76976 0.22574 0.82988
 O1358 O 0.75810 0.17981 0.78244
 O1359 O 0.71776 0.19193 0.76144
 O1360 O 0.71468 0.20643 0.72137
 C1361 C 0.70930 0.19000 0.73900
 O1362 O 0.71937 0.30701 0.79815
 Zr1363 Zr 0.72031 0.28162 0.76682
 O1364 O 0.69946 0.25341 0.71202
 O1365 O 0.70984 0.21581 0.80086
 O1366 O 0.68977 0.26876 0.78991
 O1367 O 0.70997 0.32066 0.75530
 O1368 O 0.68707 0.27906 0.74483
 C1369 C 0.68285 0.26756 0.72409
 O1370 O 0.74592 0.21476 0.69097
 O1371 O 0.80981 0.29708 0.71330
 O1372 O 0.74094 0.26051 0.68588
 O1373 O 0.76747 0.29493 0.69426
 O1374 O 0.83073 0.24220 0.72439
 O1375 O 0.80165 0.20742 0.71209
 C1376 C 0.75390 0.28100 0.67938
 H1377 H 0.81591 0.27636 0.75573
 H1378 H 0.76039 0.19771 0.73725
 H1379 H 0.72646 0.29234 0.71984
 H1380 H 0.73493 0.25925 0.80817
 H1381 H 0.82461 0.18647 0.75313
 H1382 H 0.74627 0.17032 0.79376
 H1383 H 0.70955 0.19734 0.80721
 H1384 H 0.67528 0.28170 0.78805
 H1385 H 0.84479 0.22899 0.72733
 H1386 H 0.80974 0.31548 0.70674
 H1387 H 0.76971 0.33949 0.71395
 H1388 H 0.69163 0.32375 0.75983
 H1389 H 0.81792 0.19684 0.71255
 H1390 H 0.73058 0.21446 0.67991
 H1391 H 0.78593 0.29555 0.83231
 H1392 H 0.70169 0.31439 0.80028
 C1393 C 0.46301 1.04011 0.35422
 C1394 C 0.47094 1.01445 0.36121
 N1395 N 0.46492 0.99379 0.34644
 C1396 C 0.45090 0.99746 0.32526
 C1397 C 0.44179 1.02322 0.31852
 N1398 N 0.44873 1.04376 0.33335
 N1399 N 0.46825 1.06083 0.36919
 C1400 C 0.48037 1.05692 0.39130
 C1401 C 0.48737 1.03109 0.39896
 N1402 N 0.48276 1.01039 0.38353
 H1403 H 0.44656 0.98006 0.31467
 H1404 H 0.48334 1.07366 0.40339
 C1405 C -0.02260 0.51541 0.84470
 C1406 C -0.01816 0.53873 0.85779
 N1407 N -0.02717 0.56217 0.84870
 C1408 C -0.04142 0.56342 0.82756
 C1409 C -0.04799 0.53983 0.81502
 N1410 N -0.03750 0.51644 0.82381
 N1411 N -0.01349 0.49192 0.85408
 C1412 C -0.00099 0.49073 0.87642
 C1413 C 0.00180 0.51399 0.89035
 N1414 N -0.00660 0.53744 0.88034
 H1415 H -0.04732 0.58285 0.82115
 H1416 H 0.00479 0.47165 0.88409
 C1417 C 0.02941 -0.03536 0.83954
 C1418 C 0.03684 -0.05558 0.85608
 N1419 N 0.05647 -0.07240 0.85010
 C1420 C 0.06941 -0.06980 0.82836
 C1421 C 0.06264 -0.04913 0.81171
 N1422 N 0.04254 -0.03248 0.81783
 N1423 N 0.01019 -0.01806 0.84614
 C1424 C -0.00145 -0.01974 0.86883
 C1425 C 0.00686 -0.03938 0.88583
 N1426 N 0.02562 -0.05694 0.87869
 H1427 H 0.08561 -0.08303 0.82498
 H1428 H -0.01604 -0.00518 0.87393
 C1429 C 0.53473 0.47168 0.34563
 C1430 C 0.54361 0.45400 0.36397
 N1431 N 0.56357 0.43718 0.35906
 C1432 C 0.57536 0.43728 0.33660
 C1433 C 0.56697 0.45523 0.31800
 N1434 N 0.54667 0.47203 0.32311
 N1435 N 0.51507 0.48896 0.35107
 C1436 C 0.50428 0.48960 0.37420
 C1437 C 0.51386 0.47240 0.39281
 N1438 N 0.53315 0.45491 0.38693
 H1439 H 0.59185 0.42421 0.33392
 H1440 H 0.48916 0.50400 0.37823
 C1441 C 0.54235 0.53205 0.16104
 C1442 C 0.55254 0.54971 0.14360
 N1443 N 0.57256 0.56521 0.14992
 C1444 C 0.58314 0.56378 0.17293
 C1445 C 0.57334 0.54584 0.19063
 N1446 N 0.55301 0.53043 0.18408
 N1447 N 0.52276 0.51598 0.15426
 C1448 C 0.51325 0.51651 0.13065
 C1449 C 0.52403 0.53373 0.11297
 N1450 N 0.54327 0.55004 0.12014
 H1451 H 0.59976 0.57576 0.17670
 H1452 H 0.49804 0.50310 0.12560
 C1453 C 0.03782 1.02812 0.66339
 C1454 C 0.04259 1.04879 0.64673
 N1455 N 0.05817 1.06877 0.65357
 C1456 C 0.06981 1.06886 0.67619
 C1457 C 0.06633 1.04738 0.69289
 N1458 N 0.04990 1.02779 0.68580
 N1459 N 0.02225 1.00802 0.65637
 C1460 C 0.01179 1.00741 0.63313
 C1461 C 0.01771 1.02750 0.61594
 N1462 N 0.03279 1.04785 0.62344
 H1463 H 0.08243 1.08507 0.68005
 H1464 H 0.00013 0.99078 0.62777
 C1465 C -0.04692 0.47734 0.65303
 C1466 C -0.06084 0.46371 0.63497
 N1467 N -0.08249 0.45068 0.64150
 C1468 C -0.09098 0.45056 0.66535
 C1469 C -0.07718 0.46417 0.68376
 N1470 N -0.05542 0.47735 0.67694
 N1471 N -0.02543 0.49070 0.64624
 C1472 C -0.01733 0.49116 0.62215
 C1473 C -0.03146 0.47770 0.60394
 N1474 N -0.05286 0.46426 0.61102
 H1475 H -0.10877 0.44059 0.66954
 H1476 H -0.00028 0.50214 0.61726
 C1477 C 0.43632 -0.00190 0.14640
 C1478 C 0.42101 -0.01018 0.12657
 N1479 N 0.39759 -0.02080 0.13099
 C1480 C 0.38880 -0.02392 0.15451
 C1481 C 0.40422 -0.01628 0.17468
 N1482 N 0.42761 -0.00512 0.17003
 N1483 N 0.45978 0.00881 0.14164
 C1484 C 0.46863 0.01141 0.11790
 C1485 C 0.45335 0.00270 0.09805
 N1486 N 0.42987 -0.00775 0.10310
 H1487 H 0.36984 -0.03210 0.15732
 H1488 H 0.48742 0.01982 0.11462
 C1489 C 0.37644 0.42788 0.03700
 C1490 C 0.38238 0.43496 0.01251
 N1491 N 0.36658 0.42721 -0.00612
 C1492 C 0.34501 0.41289 -0.00140
 C1493 C 0.33859 0.40602 0.02329
 N1494 N 0.35485 0.41376 0.04177
 N1495 N 0.39227 0.43533 0.05569
 C1496 C 0.41370 0.44978 0.05104
 C1497 C 0.41966 0.45739 0.02651
 N1498 N 0.40374 0.44960 0.00778
 H1499 H 0.33345 0.40671 -0.01693
 H1500 H 0.42575 0.45553 0.06645
 C1501 C -0.13194 0.92146 0.53332
 C1502 C -0.12823 0.93528 0.51106
 N1503 N -0.14475 0.93172 0.49191
 C1504 C -0.16501 0.91505 0.49392
 C1505 C -0.16907 0.90078 0.51628
 N1506 N -0.15200 0.90452 0.53532
 N1507 N -0.11541 0.92516 0.55255
 C1508 C -0.09522 0.94203 0.55043
 C1509 C -0.09122 0.95568 0.52793
 N1510 N -0.10796 0.95184 0.50880
 H1511 H -0.17695 0.91257 0.47772
 H1512 H -0.08223 0.94438 0.56598
 C1513 C -0.14596 0.06419 0.96575
 C1514 C -0.13827 0.05734 0.98994
 N1515 N -0.15170 0.06729 1.00950
 C1516 C -0.17268 0.08351 1.00600
 C1517 C -0.18091 0.09009 0.98172
 N1518 N -0.16699 0.08030 0.96221
 N1519 N -0.13246 0.05438 0.94618
 C1520 C -0.11165 0.03793 0.94967
 C1521 C -0.10392 0.03074 0.97392
 N1522 N -0.11754 0.04080 0.99349
 H1523 H -0.18260 0.09131 1.02209
 H1524 H -0.10135 0.03046 0.93363
 C1525 C 0.35707 0.57644 0.46658
 C1526 C 0.36471 0.57095 0.49107
 N1527 N 0.35035 0.58071 0.51010
 C1528 C 0.32848 0.59539 0.50580
 C1529 C 0.32025 0.60050 0.48123
 N1530 N 0.33512 0.59099 0.46222
 N1531 N 0.37151 0.56674 0.44755
 C1532 C 0.39314 0.55168 0.45187
 C1533 C 0.40076 0.54578 0.47645
 N1534 N 0.38623 0.55577 0.49545
 H1535 H 0.31780 0.60306 0.52150
 H1536 H 0.40411 0.54420 0.43625
 C1537 C 0.12521 0.57423 0.52715
 C1538 C 0.11726 0.56875 0.50288
 N1539 N 0.13082 0.57868 0.48348
 C1540 C 0.15220 0.59352 0.48719
 C1541 C 0.16082 0.59862 0.51154
 N1542 N 0.14672 0.58890 0.53093
 N1543 N 0.11146 0.56450 0.54655
 C1544 C 0.09021 0.54944 0.54280
 C1545 C 0.08228 0.54354 0.51844
 N1546 N 0.09614 0.55354 0.49907
 H1547 H 0.16213 0.60135 0.47118
 H1548 H 0.07977 0.54197 0.55870
 C1549 C 0.62067 0.08600 0.02693
 C1550 C 0.61266 0.08187 0.00241
 N1551 N 0.62745 0.09072 -0.01658
 C1552 C 0.65018 0.10304 -0.01225
 C1553 C 0.65894 0.10646 0.01232
 N1554 N 0.64357 0.09804 0.03132
 N1555 N 0.60570 0.07733 0.04592
 C1556 C 0.58320 0.06453 0.04152
 C1557 C 0.57531 0.05980 0.01692
 N1558 N 0.59035 0.06881 -0.00203
 H1559 H 0.66119 0.11006 -0.02793
 H1560 H 0.57183 0.05774 0.05708
 C1561 C 0.64314 0.92222 0.47026
 C1562 C 0.63519 0.92660 0.49477
 N1563 N 0.64867 0.91512 0.51370
 C1564 C 0.66996 0.89968 0.50931
 C1565 C 0.67842 0.89552 0.48473
 N1566 N 0.66447 0.90688 0.46582
 N1567 N 0.62954 0.93358 0.45131
 C1568 C 0.60835 0.94918 0.45575
 C1569 C 0.60034 0.95381 0.48035
 N1570 N 0.61408 0.94224 0.49925
 H1571 H 0.67994 0.89059 0.52489
 H1572 H 0.59793 0.95790 0.44022
 C1573 C 0.15106 0.41642 0.99714
 C1574 C 0.14336 0.42775 0.97431
 N1575 N 0.15869 0.42424 0.95414
 C1576 C 0.18109 0.40978 0.95569
 C1577 C 0.18877 0.39818 0.97851
 N1578 N 0.17348 0.40204 0.99875
 N1579 N 0.13583 0.41970 1.01731
 C1580 C 0.11342 0.43394 1.01588
 C1581 C 0.10558 0.44577 0.99317
 N1582 N 0.12086 0.44223 0.97278
 H1583 H 0.19286 0.40742 0.93924
 H1584 H 0.10191 0.43610 1.03252
 C1585 C 0.00030 0.34604 0.40440
 C1586 C 0.02278 0.35468 0.41626
 N1587 N 0.04614 0.34543 0.40860
 C1588 C 0.04809 0.32813 0.38945
 C1589 C 0.02558 0.31985 0.37713
 N1590 N 0.00222 0.32890 0.38526
 N1591 N -0.02309 0.35541 0.41179
 C1592 C -0.02499 0.37360 0.43014
 C1593 C -0.00247 0.38294 0.44154
 N1594 N 0.02094 0.37300 0.43451
 H1595 H 0.06701 0.32063 0.38436
 H1596 H -0.04385 0.38136 0.43524
 C1597 C 0.49514 -0.13517 -0.09552
 C1598 C 0.51519 -0.12821 -0.07937
 N1599 N 0.53868 -0.14015 -0.08152
 C1600 C 0.54315 -0.15863 -0.09926
 C1601 C 0.52321 -0.16539 -0.11577
 N1602 N 0.49956 -0.15362 -0.11322
 N1603 N 0.47173 -0.12298 -0.09359
 C1604 C 0.46760 -0.10370 -0.07653
 C1605 C 0.48784 -0.09627 -0.06071
 N1606 N 0.51111 -0.10894 -0.06237
 H1607 H 0.56194 -0.16824 -0.10006
 H1608 H 0.44890 -0.09384 -0.07574
 C1609 C -0.02291 -0.18071 1.07615
 C1610 C -0.00278 -0.16286 1.07953
 N1611 N 0.01431 -0.16676 1.09841
 C1612 C 0.01167 -0.18740 1.11454
 C1613 C -0.00933 -0.20438 1.11185
 N1614 N -0.02578 -0.20081 1.09243
 N1615 N -0.04031 -0.17672 1.05765
 C1616 C -0.03883 -0.15520 1.04257
 C1617 C -0.01932 -0.13667 1.04651
 N1618 N -0.00153 -0.14116 1.06474
 H1619 H 0.02492 -0.18964 1.12998
 H1620 H -0.05320 -0.15228 1.02816
 C1621 C 0.48544 0.34143 0.58860
 C1622 C 0.46771 0.34482 0.56907
 N1623 N 0.44945 0.32633 0.56519
 C1624 C 0.44802 0.30466 0.58017
 C1625 C 0.46567 0.30146 0.59987
 N1626 N 0.48401 0.31993 0.60343
 N1627 N 0.50365 0.35981 0.59268
 C1628 C 0.50494 0.38165 0.57806
 C1629 C 0.48716 0.38520 0.55849
 N1630 N 0.46897 0.36662 0.55442
 H1631 H 0.43344 0.29006 0.57658
 H1632 H 0.51967 0.39606 0.58180
 C1633 C 0.51670 1.13649 0.61028
 C1634 C 0.53684 1.13228 0.59328
 N1635 N 0.55887 1.14623 0.59534
 C1636 C 0.56124 1.16506 0.61305
 C1637 C 0.54038 1.17040 0.62917
 N1638 N 0.51897 1.15535 0.62765
 N1639 N 0.49429 1.12337 0.60786
 C1640 C 0.49099 1.10620 0.58898
 C1641 C 0.51099 1.10218 0.57169
 N1642 N 0.53357 1.11518 0.57437
 H1643 H 0.57840 1.17696 0.61312
 H1644 H 0.47292 1.09583 0.58755
 C1645 C 0.01232 0.63877 1.09690
 C1646 C 0.03371 0.62202 1.09307
 N1647 N 0.05347 0.62191 1.10958
 C1648 C 0.05314 0.63831 1.12952
 C1649 C 0.03200 0.65609 1.13304
 N1650 N 0.01210 0.65520 1.11652
 N1651 N -0.00791 0.63849 1.08093
 C1652 C -0.00777 0.62184 1.06126
 C1653 C 0.01370 0.60511 1.05732
 N1654 N 0.03398 0.60551 1.07335
 H1655 H 0.06946 0.63730 1.14191
 H1656 H -0.02444 0.62122 1.04916
 C1657 C 0.47154 0.65998 -0.08882
 C1658 C 0.49661 0.64948 -0.08631
 N1659 N 0.51577 0.65853 -0.10103
 C1660 C 0.51114 0.67810 -0.11794
 C1661 C 0.48597 0.68903 -0.12046
 N1662 N 0.46680 0.67917 -0.10593
 N1663 N 0.45247 0.65136 -0.07367
 C1664 C 0.45740 0.63252 -0.05609
 C1665 C 0.48246 0.62168 -0.05383
 N1666 N 0.50142 0.63043 -0.06911
 H1667 H 0.52691 0.68441 -0.12957
 H1668 H 0.44182 0.62571 -0.04442
 C1669 C -0.02541 1.15048 0.41195
 C1670 C -0.00012 1.14079 0.41516
 N1671 N 0.01901 1.15009 0.40047
 C1672 C 0.01401 1.16887 0.38279
 C1673 C -0.01156 1.17840 0.37928
 N1674 N -0.03046 1.16858 0.39406
 N1675 N -0.04455 1.14197 0.42695
 C1676 C -0.03957 1.12386 0.44505
 C1677 C -0.01440 1.11349 0.44792
 N1678 N 0.00481 1.12216 0.43283
 H1679 H 0.02973 1.17545 0.37124
 H1680 H -0.05531 1.11705 0.45652
 C1681 C 0.76832 0.71521 0.89698
 C1682 C 0.79043 0.71820 0.88243
 N1683 N 0.81339 0.70848 0.89063
 C1684 C 0.81529 0.69487 0.91236
 C1685 C 0.79285 0.68988 0.92658
 N1686 N 0.76999 0.70108 0.91858
 N1687 N 0.74529 0.72505 0.88845
 C1688 C 0.74337 0.73697 0.86566
 C1689 C 0.76538 0.73846 0.85047
 N1690 N 0.78839 0.72933 0.85958
 H1691 H 0.83431 0.68839 0.91809
 H1692 H 0.72466 0.74356 0.85885
 C1693 C 0.27184 0.21049 0.41144
 C1694 C 0.29345 0.20864 0.39601
 N1695 N 0.31413 0.19378 0.40316
 C1696 C 0.31417 0.18003 0.42488
 C1697 C 0.29201 0.18050 0.44036
 N1698 N 0.27156 0.19633 0.43306
 N1699 N 0.25111 0.22551 0.40402
 C1700 C 0.25091 0.23820 0.38154
 C1701 C 0.27221 0.23524 0.36555
 N1702 N 0.29302 0.22069 0.37350
 H1703 H 0.33146 0.16885 0.42923
 H1704 H 0.23385 0.24927 0.37572
 C1705 C 0.73727 0.28712 0.39783
 C1706 C 0.72510 0.29994 0.37781
 N1707 N 0.70968 0.32144 0.38168
 C1708 C 0.70554 0.33077 0.40487
 C1709 C 0.71732 0.31804 0.42533
 N1710 N 0.73327 0.29652 0.42129
 N1711 N 0.75253 0.26532 0.39335
 C1712 C 0.75597 0.25583 0.36976
 C1713 C 0.74357 0.26880 0.34974
 N1714 N 0.72858 0.29056 0.35464
 H1715 H 0.69334 0.34819 0.40725
 H1716 H 0.76802 0.23842 0.36674
 C1717 C 0.22198 0.78423 0.89312
 C1718 C 0.24758 0.78584 0.88476
 N1719 N 0.26496 0.79905 0.89853
 C1720 C 0.25806 0.81084 0.92020
 C1721 C 0.23209 0.80999 0.92862
 N1722 N 0.21484 0.79650 0.91451
 N1723 N 0.20439 0.77147 0.87913
 C1724 C 0.21108 0.76092 0.85685
 C1725 C 0.23641 0.76353 0.84785
 N1726 N 0.25418 0.77589 0.86215
 H1727 H 0.27267 0.82197 0.92962
 H1728 H 0.19637 0.75191 0.84552
 C1729 C 0.26437 0.80318 0.09732
 C1730 C 0.28101 0.81251 0.11558
 N1731 N 0.29557 0.83399 0.11093
 C1732 C 0.29443 0.84676 0.08871
 C1733 C 0.27763 0.83778 0.06989
 N1734 N 0.26297 0.81604 0.07506
 N1735 N 0.24955 0.78175 0.10235
 C1736 C 0.25044 0.76952 0.12504
 C1737 C 0.26673 0.77939 0.14360
 N1738 N 0.28167 0.80060 0.13812
 H1739 H 0.30600 0.86418 0.08662
 H1740 H 0.23802 0.75291 0.12876
 C1741 C 0.75440 0.30678 0.60440
 C1742 C 0.76628 0.32140 0.62313
 N1743 N 0.77841 0.34419 0.61730
 C1744 C 0.77955 0.35297 0.59346
 C1745 C 0.76819 0.33816 0.57435
 N1746 N 0.75561 0.31545 0.58047
 N1747 N 0.74208 0.28404 0.61045
 C1748 C 0.74124 0.27521 0.63441
 C1749 C 0.75342 0.28974 0.65318
 N1750 N 0.76557 0.31255 0.64691
 H1751 H 0.78895 0.37153 0.58965
 H1752 H 0.73140 0.25698 0.63867
 C1753 C 0.23885 0.20552 0.60554
 C1754 C 0.22459 0.19396 0.62471
 N1755 N 0.20899 0.17338 0.61988
 C1756 C 0.20678 0.16372 0.59659
 C1757 C 0.22078 0.17523 0.57697
 N1758 N 0.23671 0.19587 0.58208
 N1759 N 0.25481 0.22593 0.61086
 C1760 C 0.25714 0.23516 0.63455
 C1761 C 0.24285 0.22337 0.65376
 N1762 N 0.22695 0.20309 0.64809
 H1763 H 0.19476 0.14668 0.59377
 H1764 H 0.27006 0.25129 0.63832
 C1765 C 0.74505 0.70256 0.09557
 C1766 C 0.72981 0.69064 0.11384
 N1767 N 0.71403 0.67056 0.10764
 C1768 C 0.71259 0.66185 0.08388
 C1769 C 0.72765 0.67375 0.06525
 N1770 N 0.74375 0.69380 0.07172
 N1771 N 0.76079 0.72274 0.10202
 C1772 C 0.76192 0.73152 0.12592
 C1773 C 0.74663 0.71951 0.14428
 N1774 N 0.73100 0.69931 0.13756
 H1775 H 0.70015 0.64544 0.07977
 H1776 H 0.77458 0.74763 0.13049
 C1777 C 0.16929 0.61734 0.21699
 C1778 C 0.17416 0.62604 0.24118
 N1779 N 0.16217 0.61421 0.26058
 C1780 C 0.14586 0.59373 0.25701
 C1781 C 0.14139 0.58421 0.23284
 N1782 N 0.15313 0.59665 0.21336
 N1783 N 0.18108 0.62953 0.19759
 C1784 C 0.19757 0.64993 0.20129
 C1785 C 0.20282 0.65848 0.22560
 N1786 N 0.19078 0.64622 0.24492
 H1787 H 0.13646 0.58511 0.27297
 H1788 H 0.20658 0.65926 0.18544
 C1789 C 0.66410 0.12242 0.72248
 C1790 C 0.66742 0.13084 0.74703
 N1791 N 0.65652 0.11686 0.76576
 C1792 C 0.64302 0.09448 0.76123
 C1793 C 0.64059 0.08499 0.73673
 N1794 N 0.65098 0.09968 0.71789
 N1795 N 0.67467 0.13676 0.70373
 C1796 C 0.68860 0.15890 0.70841
 C1797 C 0.69268 0.16701 0.73309
 N1798 N 0.68175 0.15266 0.75178
 H1799 H 0.63441 0.08424 0.77675
 H1800 H 0.69694 0.16968 0.69304
 C1801 C 0.83412 0.10132 0.26012
 C1802 C 0.83760 0.12193 0.27709
 N1803 N 0.85718 0.11994 0.29372
 C1804 C 0.87312 0.09820 0.29455
 C1805 C 0.86943 0.07679 0.27793
 N1806 N 0.84995 0.07949 0.26092
 N1807 N 0.81484 0.10333 0.24317
 C1808 C 0.79898 0.12506 0.24230
 C1809 C 0.80233 0.14600 0.25922
 N1810 N 0.82169 0.14380 0.27636
 H1811 H 0.88870 0.09843 0.30780
 H1812 H 0.78388 0.12596 0.22841
 C1813 C 0.33865 0.60784 0.75775
 C1814 C 0.33574 0.62462 0.77824
 N1815 N 0.34781 0.61810 0.79979
 C1816 C 0.36276 0.59574 0.80183
 C1817 C 0.36593 0.57853 0.78121
 N1818 N 0.35338 0.58536 0.75975
 N1819 N 0.32664 0.61419 0.73614
 C1820 C 0.31174 0.63650 0.73408
 C1821 C 0.30840 0.65343 0.75467
 N1822 N 0.32062 0.64696 0.77638
 H1823 H 0.37101 0.59140 0.81979
 H1824 H 0.30239 0.64076 0.71650
 C1825 C 0.34374 0.38141 0.72555
 C1826 C 0.34002 0.37319 0.75020
 N1827 N 0.35078 0.38726 0.76881
 C1828 C 0.36457 0.40947 0.76403
 C1829 C 0.36753 0.41865 0.73936
 N1830 N 0.35720 0.40391 0.72070
 N1831 N 0.33326 0.36710 0.70691
 C1832 C 0.31904 0.34516 0.71177
 C1833 C 0.31462 0.33715 0.73653
 N1834 N 0.32545 0.35150 0.75515
 H1835 H 0.37308 0.41975 0.77946
 H1836 H 0.31079 0.33444 0.69643
 C1837 C 0.84152 0.88263 0.21908
 C1838 C 0.83067 0.87790 0.24243
 N1839 N 0.83623 0.89426 0.26145
 C1840 C 0.85177 0.91549 0.25828
 C1841 C 0.86247 0.92116 0.23461
 N1842 N 0.85706 0.90397 0.21573
 N1843 N 0.83599 0.86602 0.20007
 C1844 C 0.82002 0.84501 0.20338
 C1845 C 0.80884 0.84034 0.22682
 N1846 N 0.81467 0.85705 0.24576
 H1847 H 0.85576 0.92713 0.27447
 H1848 H 0.81598 0.83223 0.18784
 C1849 C 0.66009 0.88862 0.75679
 C1850 C 0.66848 0.87549 0.77846
 N1851 N 0.66240 0.88600 0.80089
 C1852 C 0.64841 0.90902 0.80264
 C1853 C 0.64017 0.92249 0.78092
 N1854 N 0.64636 0.91174 0.75850
 N1855 N 0.66619 0.87831 0.73435
 C1856 C 0.68057 0.85563 0.73250
 C1857 C 0.68963 0.84256 0.75413
 N1858 N 0.68315 0.85287 0.77670
 H1859 H 0.64448 0.91706 0.82084
 H1860 H 0.68524 0.84819 0.71422
 C1861 C 0.16428 0.38999 0.28582
 C1862 C 0.17089 0.38180 0.26180
 N1863 N 0.16078 0.39496 0.24193
 C1864 C 0.14471 0.41630 0.24492
 C1865 C 0.13855 0.42524 0.26899
 N1866 N 0.14837 0.41147 0.28888
 N1867 N 0.17434 0.37668 0.30568
 C1868 C 0.19089 0.35567 0.30261
 C1869 C 0.19797 0.34767 0.27851
 N1870 N 0.18757 0.36100 0.25870
 H1871 H 0.13685 0.42607 0.22861
 H1872 H 0.19867 0.34558 0.31882
 C1873 C 0.10497 0.27869 0.83807
 C1874 C 0.12057 0.25599 0.84157
 N1875 N 0.11376 0.23732 0.85844
 C1876 C 0.09179 0.24020 0.87190
 C1877 C 0.07604 0.26286 0.86841
 N1878 N 0.08312 0.28169 0.85165
 N1879 N 0.11162 0.29704 0.82076
 C1880 C 0.13323 0.29364 0.80671
 C1881 C 0.14890 0.27092 0.81030
 N1882 N 0.14212 0.25274 0.82775
 H1883 H 0.08663 0.22498 0.88517
 H1884 H 0.13815 0.30856 0.79306
 C1885 C 0.59425 0.76453 0.31646
 C1886 C 0.60495 0.78843 0.30823
 N1887 N 0.59473 0.81180 0.31617
 C1888 C 0.57481 0.81232 0.33259
 C1889 C 0.56508 0.78828 0.34195
 N1890 N 0.57484 0.76508 0.33307
 N1891 N 0.60450 0.74106 0.30903
 C1892 C 0.62570 0.74037 0.29439
 C1893 C 0.63733 0.76417 0.28725
 N1894 N 0.62645 0.78778 0.29389
 H1895 H 0.56700 0.83131 0.33829
 H1896 H 0.63412 0.72141 0.28928
 C1897 C 0.59257 0.22523 0.17382
 C1898 C 0.60805 0.24760 0.17122
 N1899 N 0.60226 0.26628 0.15381
 C1900 C 0.58161 0.26351 0.13862
 C1901 C 0.56638 0.24085 0.14080
 N1902 N 0.57220 0.22227 0.15845
 N1903 N 0.59854 0.20654 0.19125
 C1904 C 0.61968 0.20903 0.20598
 C1905 C 0.63566 0.23101 0.20273
 N1906 N 0.62923 0.24981 0.18555
 H1907 H 0.57752 0.27851 0.12465
 H1908 H 0.62443 0.19361 0.21936
 C1909 C 0.09783 0.71746 0.66788
 C1910 C 0.11264 0.73995 0.66316
 N1911 N 0.10653 0.75625 0.64384
 C1912 C 0.08617 0.75099 0.62889
 C1913 C 0.07158 0.72823 0.63338
 N1914 N 0.07778 0.71207 0.65284
 N1915 N 0.10391 0.70120 0.68724
 C1916 C 0.12450 0.70624 0.70198
 C1917 C 0.13976 0.72839 0.69686
 N1918 N 0.13330 0.74477 0.67762
 H1919 H 0.08169 0.76415 0.61348
 H1920 H 0.12925 0.69272 0.71704
 C1921 C 0.89230 0.78293 0.65152
 C1922 C 0.88172 0.75763 0.65384
 N1923 N 0.89105 0.73743 0.63990
 C1924 C 0.91112 0.74112 0.62419
 C1925 C 0.92246 0.76633 0.62218
 N1926 N 0.91217 0.78677 0.63559
 N1927 N 0.88331 0.80293 0.66608
 C1928 C 0.86421 0.79868 0.68290
 C1929 C 0.85354 0.77331 0.68510
 N1930 N 0.86253 0.75350 0.67031
 H1931 H 0.91781 0.72450 0.61321
 H1932 H 0.85722 0.81499 0.69414
 C1933 C 0.39678 0.29356 0.16676
 C1934 C 0.38164 0.27105 0.16357
 N1935 N 0.38520 0.25546 0.14339
 C1936 C 0.40365 0.26117 0.12637
 C1937 C 0.41905 0.28352 0.12976
 N1938 N 0.41507 0.29924 0.14982
 N1939 N 0.39360 0.30885 0.18717
 C1940 C 0.37578 0.30268 0.20463
 C1941 C 0.36049 0.28019 0.20142
 N1942 N 0.36382 0.26498 0.18088
 H1943 H 0.40665 0.24817 0.11069
 H1944 H 0.37337 0.31538 0.22060
 C1945 C 0.40159 0.74199 0.33565
 C1946 C 0.39494 0.72067 0.32043
 N1947 N 0.40944 0.69803 0.32097
 C1948 C 0.43036 0.69577 0.33611
 C1949 C 0.43711 0.71722 0.35121
 N1950 N 0.42251 0.73981 0.35050
 N1951 N 0.38699 0.76451 0.33546
 C1952 C 0.36582 0.76667 0.32075
 C1953 C 0.35912 0.74539 0.30543
 N1954 N 0.37393 0.72289 0.30556
 H1955 H 0.44187 0.67767 0.33594
 H1956 H 0.35440 0.78484 0.32101
 C1957 C 0.90286 0.23661 0.83129
 C1958 C 0.89307 0.21459 0.81877
 N1959 N 0.90436 0.19039 0.82229
 C1960 C 0.92470 0.18715 0.83808
 C1961 C 0.93403 0.20912 0.85121
 N1962 N 0.92295 0.23335 0.84709
 N1963 N 0.89152 0.26077 0.82825
 C1964 C 0.87036 0.26387 0.81367
 C1965 C 0.85994 0.24176 0.80171
 N1966 N 0.87176 0.21760 0.80425
 H1967 H 0.93344 0.16765 0.84021
 H1968 H 0.86134 0.28330 0.81195
 C1969 C 0.56597 1.03447 0.64789
 C1970 C 0.56870 1.00924 0.63730
 N1971 N 0.58449 0.99093 0.64819
 C1972 C 0.59749 0.99648 0.66939
 C1973 C 0.59531 1.02194 0.68012
 N1974 N 0.57970 1.04046 0.66870
 N1975 N 0.54924 1.05235 0.63741
 C1976 C 0.53550 1.04625 0.61666
 C1977 C 0.53910 1.02136 0.60537
 N1978 N 0.55576 1.00351 0.61610
 H1979 H 0.61009 0.98130 0.67726
 H1980 H 0.52282 1.06110 0.60841
 C1981 C 0.05493 0.53769 1.14581
 C1982 C 0.06306 0.51507 1.13278
 N1983 N 0.08267 0.49971 1.14175
 C1984 C 0.09457 0.50579 1.16336
 C1985 C 0.08670 0.52842 1.17660
 N1986 N 0.06696 0.54398 1.16749
 N1987 N 0.03517 0.55288 1.13646
 C1988 C 0.02349 0.54665 1.11454
 C1989 C 0.03211 0.52426 1.10123
 N1990 N 0.05169 0.50913 1.11094
 H1991 H 0.11002 0.49302 1.17023
 H1992 H 0.00841 0.55955 1.10715
 C1993 C -0.06298 -0.04775 1.14216
 C1994 C -0.05921 -0.02287 1.13121
 N1995 N -0.06674 -0.00072 1.14359
 C1996 C -0.07792 -0.00218 1.16643
 C1997 C -0.08275 -0.02717 1.17745
 N1998 N -0.07507 -0.04936 1.16464
 N1999 N -0.05462 -0.06987 1.13002
 C2000 C -0.04306 -0.06822 1.10729
 C2001 C -0.04036 -0.04334 1.09570
 N2002 N -0.04861 -0.02125 1.10811
 H2003 H -0.08411 0.01610 1.17509
 H2004 H -0.03717 -0.08620 1.09783
 C2005 C 0.43793 0.46345 0.64587
 C2006 C 0.43733 0.48889 0.63522
 N2007 N 0.42517 0.50896 0.64734
 C2008 C 0.41371 0.50493 0.66973
 C2009 C 0.41364 0.47928 0.68056
 N2010 N 0.42568 0.45910 0.66793
 N2011 N 0.45100 0.44362 0.63406
 C2012 C 0.46320 0.44802 0.61200
 C2013 C 0.46175 0.47329 0.60077
 N2014 N 0.44869 0.49310 0.61277
 H2015 H 0.40381 0.52153 0.67832
 H2016 H 0.47299 0.43170 0.60281
 C2017 C 0.45563 0.53635 -0.14259
 C2018 C 0.45323 0.51284 -0.12884
 N2019 N 0.43879 0.49288 -0.13794
 C2020 C 0.42618 0.49553 -0.16000
 C2021 C 0.42751 0.51952 -0.17335
 N2022 N 0.44246 0.53930 -0.16429
 N2023 N 0.47009 0.55630 -0.13345
 C2024 C 0.48183 0.55404 -0.11088
 C2025 C 0.47840 0.53100 -0.09649
 N2026 N 0.46430 0.51088 -0.10605
 H2027 H 0.41425 0.47955 -0.16644
 H2028 H 0.49260 0.57055 -0.10374
 C2029 C -0.04593 1.03125 0.35815
 C2030 C -0.05094 1.00813 0.37178
 N2031 N -0.06573 0.98906 0.36153
 C2032 C -0.07614 0.99225 0.33844
 C2033 C -0.07219 1.01592 0.32513
 N2034 N -0.05697 1.03481 0.33541
 N2035 N -0.03091 1.05020 0.36829
 C2036 C -0.02098 1.04729 0.39160
 C2037 C -0.02688 1.02467 0.40579
 N2038 N -0.04170 1.00556 0.39535
 H2039 H -0.08840 0.97701 0.33106
 H2040 H -0.00954 1.06298 0.39935
 C2041 C 0.04857 0.46507 0.35188
 C2042 C 0.05252 0.48777 0.36618
 N2043 N 0.06943 0.50628 0.35841
 C2044 C 0.08274 0.50317 0.33692
 C2045 C 0.07936 0.48026 0.32262
 N2046 N 0.06226 0.46165 0.33050
 N2047 N 0.03139 0.44674 0.35985
 C2048 C 0.01833 0.44991 0.38169
 C2049 C 0.02304 0.47223 0.39643
 N2050 N 0.03999 0.49059 0.38807
 H2051 H 0.09624 0.51821 0.33126
 H2052 H 0.00534 0.43467 0.38794
 C2053 C 0.54668 -0.02421 -0.14744
 C2054 C 0.55069 -0.00058 -0.13454
 N2055 N 0.56928 0.01622 -0.14216
 C2056 C 0.58426 0.01045 -0.16214
 C2057 C 0.58085 -0.01347 -0.17489
 N2058 N 0.56202 -0.03030 -0.16721
 N2059 N 0.52788 -0.04085 -0.13963
 C2060 C 0.51328 -0.03515 -0.11919
 C2061 C 0.51807 -0.01197 -0.10568
 N2062 N 0.53663 0.00473 -0.11394
 H2063 H 0.59909 0.02414 -0.16768
 H2064 H 0.49905 -0.04915 -0.11289
 C2065 C 0.63343 0.62841 0.00194
 C2066 C 0.63276 0.60852 -0.01611
 N2067 N 0.65489 0.60200 -0.02833
 C2068 C 0.67766 0.61402 -0.02301
 C2069 C 0.67878 0.63295 -0.00372
 N2070 N 0.65621 0.63965 0.00787
 N2071 N 0.61158 0.63519 0.01430
 C2072 C 0.58923 0.62230 0.01016
 C2073 C 0.58868 0.60104 -0.00664
 N2074 N 0.61051 0.59484 -0.01975
 H2075 H 0.69477 0.60739 -0.03275
 H2076 H 0.57236 0.62746 0.02107
 C2077 C 0.13855 1.10470 0.49466
 C2078 C 0.13289 1.08679 0.51384
 N2079 N 0.14903 1.08418 0.53351
 C2080 C 0.17041 1.09916 0.53528
 C2081 C 0.17587 1.11797 0.51674
 N2082 N 0.15993 1.12012 0.49653
 N2083 N 0.12180 1.10722 0.47521
 C2084 C 0.09951 1.09303 0.47440
 C2085 C 0.09345 1.07590 0.49420
 N2086 N 0.11063 1.07318 0.51320
 H2087 H 0.18272 1.09697 0.55145
 H2088 H 0.08625 1.09589 0.45904
 C2089 C 0.12787 -0.12488 1.00166
 C2090 C 0.11274 -0.12155 0.98036
 N2091 N 0.12183 -0.12995 0.95814
 C2092 C 0.14559 -0.14150 0.95604
 C2093 C 0.16140 -0.14478 0.97719
 N2094 N 0.15192 -0.13626 0.99963
 N2095 N 0.11850 -0.11587 1.02380
 C2096 C 0.09484 -0.10339 1.02542
 C2097 C 0.07999 -0.09941 1.00379
 N2098 N 0.08955 -0.10892 0.98195
 H2099 H 0.15225 -0.14691 0.93774
 H2100 H 0.08810 -0.09606 1.04314
 C2101 C 0.63070 0.39007 0.50989
 C2102 C 0.60941 0.38358 0.49534
 N2103 N 0.61182 0.36462 0.47782
 C2104 C 0.63483 0.35235 0.47337
 C2105 C 0.65718 0.35977 0.48665
 N2106 N 0.65408 0.37814 0.50520
 N2107 N 0.62789 0.40929 0.52744
 C2108 C 0.60490 0.42270 0.53052
 C2109 C 0.58396 0.41704 0.51491
 N2110 N 0.58690 0.39732 0.49795
 H2111 H 0.63511 0.33686 0.45967
 H2112 H 0.60349 0.43859 0.54388
 C2113 C -0.14941 0.39892 0.48479
 C2114 C -0.14494 0.42039 0.50054
 N2115 N -0.16196 0.42634 0.51881
 C2116 C -0.18306 0.41134 0.52260
 C2117 C -0.18724 0.38903 0.50774
 N2118 N -0.17048 0.38351 0.48877
 N2119 N -0.13165 0.39293 0.46691
 C2120 C -0.10938 0.40698 0.46461
 C2121 C -0.10442 0.42757 0.48134
 N2122 N -0.12268 0.43382 0.49857
 H2123 H -0.19608 0.41627 0.53766
 H2124 H -0.09515 0.40117 0.45090
 C2125 C 0.34441 -0.08363 -0.01852
 C2126 C 0.34754 -0.06181 -0.00292
 N2127 N 0.33147 -0.05810 0.01664
 C2128 C 0.31261 -0.07563 0.02177
 C2129 C 0.30976 -0.09806 0.00681
 N2130 N 0.32552 -0.10140 -0.01334
 N2131 N 0.36153 -0.08762 -0.03741
 C2132 C 0.38206 -0.07125 -0.04084
 C2133 C 0.38585 -0.05020 -0.02431
 N2134 N 0.36804 -0.04595 -0.00613
 H2135 H 0.30034 -0.07246 0.03777
 H2136 H 0.39606 -0.07566 -0.05519
 C2137 C 0.36418 1.09580 0.52074
 C2138 C 0.36962 1.07692 0.50242
 N2139 N 0.35389 1.07489 0.48245
 C2140 C 0.33315 1.09136 0.47954
 C2141 C 0.32797 1.11106 0.49722
 N2142 N 0.34347 1.11266 0.51773
 N2143 N 0.38073 1.09803 0.54030
 C2144 C 0.40277 1.08275 0.54193
 C2145 C 0.40879 1.06481 0.52282
 N2146 N 0.39167 1.06225 0.50383
 H2147 H 0.32123 1.08971 0.46312
 H2148 H 0.41608 1.08568 0.55712
 C2149 C -0.12975 0.59978 1.00112
 C2150 C -0.12044 0.58661 0.98001
 N2151 N -0.13310 0.58940 0.95812
 C2152 C -0.15444 0.60522 0.95614
 C2153 C -0.16357 0.61929 0.97694
 N2154 N -0.15113 0.61590 0.99918
 N2155 N -0.11664 0.59693 1.02292
 C2156 C -0.09453 0.58183 1.02443
 C2157 C -0.08486 0.56916 1.00306
 N2158 N -0.09837 0.57187 0.98147
 H2159 H -0.16403 0.60711 0.93834
 H2160 H -0.08431 0.58028 1.04193
 C2161 C -0.00470 0.63063 0.56743
 C2162 C 0.00900 0.60910 0.57787
 N2163 N 0.02590 0.61324 0.59662
 C2164 C 0.03019 0.63812 0.60501
 C2165 C 0.01729 0.65992 0.59374
 N2166 N -0.00012 0.65533 0.57548
 N2167 N -0.02165 0.62668 0.54875
 C2168 C -0.02511 0.60209 0.53955
 C2169 C -0.01060 0.58058 0.54925
 N2170 N 0.00590 0.58457 0.56845
 H2171 H 0.04348 0.64058 0.62024
 H2172 H -0.03845 0.59960 0.52429
 C2173 C 0.49199 0.15308 0.06223
 C2174 C 0.50185 0.13016 0.07395
 N2175 N 0.51593 0.13224 0.09503
 C2176 C 0.52099 0.15635 0.10476
 C2177 C 0.51180 0.17946 0.09261
 N2178 N 0.49725 0.17707 0.07176
 N2179 N 0.47783 0.15103 0.04119
 C2180 C 0.47338 0.12698 0.03108
 C2181 C 0.48386 0.10403 0.04243
 N2182 N 0.49768 0.10623 0.06374
 H2183 H 0.53186 0.15726 0.12186
 H2184 H 0.46234 0.12592 0.01405
 C2185 C -0.01818 0.10925 0.91262
 C2186 C -0.00735 0.10780 0.93648
 N2187 N -0.00030 0.13037 0.94805
 C2188 C -0.00369 0.15440 0.93682
 C2189 C -0.01476 0.15587 0.91295
 N2190 N -0.02161 0.13311 0.90152
 N2191 N -0.02572 0.08688 0.90113
 C2192 C -0.02329 0.06300 0.91261
 C2193 C -0.01293 0.06147 0.93674
 N2194 N -0.00496 0.08395 0.94803
 H2195 H 0.00158 0.17207 0.94675
 H2196 H -0.02971 0.04547 0.90308
 C2197 C 0.49152 0.62173 0.41093
 C2198 C 0.50285 0.62147 0.43458
 N2199 N 0.51120 0.64447 0.44451
 C2200 C 0.50826 0.66783 0.43200
 C2201 C 0.49614 0.66816 0.40860
 N2202 N 0.48842 0.64492 0.39865
 N2203 N 0.48251 0.59905 0.40109
 C2204 C 0.48385 0.57602 0.41411
 C2205 C 0.49450 0.57576 0.43813
 N2206 N 0.50409 0.59849 0.44769
 H2207 H 0.51430 0.68595 0.44074
 H2208 H 0.47627 0.55823 0.40589
 C2209 C 0.51813 0.87680 0.41437
 C2210 C 0.50826 0.87556 0.43855
 N2211 N 0.50265 0.85169 0.44880
 C2212 C 0.50659 0.82891 0.43591
 C2213 C 0.51669 0.83017 0.41168
 N2214 N 0.52202 0.85422 0.40162
 N2215 N 0.52435 0.90045 0.40418
 C2216 C 0.52143 0.92311 0.41730
 C2217 C 0.51184 0.92194 0.44167
 N2218 N 0.50528 0.89817 0.45167
 H2219 H 0.50251 0.81016 0.44477
 H2220 H 0.52673 0.94176 0.40883
 C2221 C 0.02261 0.36489 0.91825
 C2222 C 0.00643 0.36693 0.93903
 N2223 N -0.00610 0.34516 0.94731
 C2224 C -0.00292 0.32135 0.93587
 C2225 C 0.01374 0.31918 0.91529
 N2226 N 0.02590 0.34122 0.90703
 N2227 N 0.03552 0.38636 0.91008
 C2228 C 0.03325 0.40987 0.92196
 C2229 C 0.01743 0.41199 0.94313
 N2230 N 0.00419 0.39041 0.95105
 H2231 H -0.01256 0.30423 0.94340
 H2232 H 0.04392 0.42663 0.91503
 C2233 C 0.50643 0.37791 0.07339
 C2234 C 0.49352 0.39920 0.08484
 N2235 N 0.47545 0.39451 0.10240
 C2236 C 0.46908 0.36935 0.10855
 C2237 C 0.48093 0.34790 0.09609
 N2238 N 0.49977 0.35283 0.07918
 N2239 N 0.52435 0.38267 0.05564
 C2240 C 0.52927 0.40784 0.04818
 C2241 C 0.51519 0.42909 0.05862
 N2242 N 0.49802 0.42419 0.07707
 H2243 H 0.45486 0.36633 0.12291
 H2244 H 0.54298 0.41104 0.03335
 C2245 C -0.01819 0.87214 0.58197
 C2246 C -0.00412 0.87459 0.55982
 N2247 N 0.00257 0.85262 0.54684
 C2248 C -0.00407 0.82820 0.55508
 C2249 C -0.01813 0.82565 0.57729
 N2250 N -0.02491 0.84778 0.59017
 N2251 N -0.02514 0.89417 0.59478
 C2252 C -0.01901 0.91863 0.58621
 C2253 C -0.00541 0.92117 0.56373
 N2254 N 0.00185 0.89898 0.55119
 H2255 H 0.00136 0.81099 0.54426
 H2256 H -0.02527 0.93590 0.59655
 C2257 C 0.27740 0.31495 0.11090
 C2258 C 0.29071 0.32608 0.13084
 N2259 N 0.30409 0.34860 0.12726
 C2260 C 0.30512 0.36051 0.10461
 C2261 C 0.29170 0.34974 0.08418
 N2262 N 0.27784 0.32718 0.08818
 N2263 N 0.26431 0.29207 0.11466
 C2264 C 0.26375 0.28009 0.13749
 C2265 C 0.27652 0.29172 0.15761
 N2266 N 0.28961 0.31455 0.15367
 H2267 H 0.31541 0.37890 0.10316
 H2268 H 0.25277 0.26222 0.14011
 C2269 C 0.76719 0.80336 0.59483
 C2270 C 0.79023 0.79598 0.60698
 N2271 N 0.81310 0.80384 0.59738
 C2272 C 0.81398 0.81927 0.57657
 C2273 C 0.79083 0.82780 0.56493
 N2274 N 0.76804 0.81904 0.57429
 N2275 N 0.74424 0.79607 0.60458
 C2276 C 0.74320 0.78246 0.62638
 C2277 C 0.76612 0.77602 0.63926
 N2278 N 0.78922 0.78266 0.62903
 H2279 H 0.83261 0.82484 0.56938
 H2280 H 0.72456 0.77788 0.63427
 C2281 C 0.20718 0.68487 0.59894
 C2282 C 0.22855 0.67640 0.61307
 N2283 N 0.24340 0.65575 0.60518
 C2284 C 0.23800 0.64318 0.58363
 C2285 C 0.21664 0.65144 0.56928
 N2286 N 0.20158 0.67217 0.57735
 N2287 N 0.19262 0.70584 0.60697
 C2288 C 0.19840 0.71856 0.62855
 C2289 C 0.21967 0.70982 0.64289
 N2290 N 0.23411 0.68887 0.63459
 H2291 H 0.25035 0.62692 0.57764
 H2292 H 0.18621 0.73487 0.63468
 C2293 C 0.70550 0.17938 0.10282
 C2294 C 0.73008 0.17749 0.11363
 N2295 N 0.74884 0.16279 0.10260
 C2296 C 0.74438 0.15003 0.08099
 C2297 C 0.71968 0.15152 0.06978
 N2298 N 0.70070 0.16604 0.08140
 N2299 N 0.68698 0.19469 0.11388
 C2300 C 0.69193 0.20789 0.13539
 C2301 C 0.71638 0.20520 0.14662
 N2302 N 0.73477 0.19000 0.13530
 H2303 H 0.75985 0.13798 0.07337
 H2304 H 0.67670 0.21947 0.14411
 C2305 C 0.78141 0.18465 0.89797
 C2306 C 0.75993 0.18006 0.88284
 N2307 N 0.74270 0.16135 0.88942
 C2308 C 0.74586 0.14694 0.91059
 C2309 C 0.76742 0.15115 0.92583
 N2310 N 0.78483 0.16997 0.91910
 N2311 N 0.79835 0.20377 0.89122
 C2312 C 0.79488 0.21827 0.86992
 C2313 C 0.77362 0.21319 0.85450
 N2314 N 0.75674 0.19416 0.86158
 H2315 H 0.73175 0.13219 0.91545
 H2316 H 0.80889 0.23301 0.86478
 C2317 C 0.27898 0.68961 0.39473
 C2318 C 0.25808 0.68364 0.37931
 N2319 N 0.24123 0.66471 0.38633
 C2320 C 0.24429 0.65135 0.40813
 C2321 C 0.26543 0.65678 0.42356
 N2322 N 0.28238 0.67589 0.41643
 N2323 N 0.29556 0.70890 0.38758
 C2324 C 0.29235 0.72218 0.36558
 C2325 C 0.27184 0.71557 0.34975
 N2326 N 0.25523 0.69644 0.35726
 H2327 H 0.23056 0.63631 0.41322
 H2328 H 0.30617 0.73697 0.36010
 C2329 C 0.71636 0.81434 0.39234
 C2330 C 0.73808 0.82050 0.37801
 N2331 N 0.75596 0.83722 0.38711
 C2332 C 0.75317 0.84810 0.40998
 C2333 C 0.73133 0.84229 0.42438
 N2334 N 0.71331 0.82555 0.41511
 N2335 N 0.69884 0.79708 0.38328
 C2336 C 0.70203 0.78579 0.36053
 C2337 C 0.72358 0.79233 0.34596
 N2338 N 0.74102 0.80961 0.35522
 H2339 H 0.76771 0.86143 0.41675
 H2340 H 0.68770 0.77224 0.35373
 C2341 C 0.23089 0.30448 0.90630
 C2342 C 0.25431 0.30722 0.89355
 N2343 N 0.27359 0.32132 0.90393
 C2344 C 0.27034 0.33328 0.92631
 C2345 C 0.24647 0.33165 0.93860
 N2346 N 0.22737 0.31706 0.92826
 N2347 N 0.21167 0.29020 0.89602
 C2348 C 0.21464 0.27889 0.87332
 C2349 C 0.23764 0.28259 0.85998
 N2350 N 0.25700 0.29659 0.87058
 H2351 H 0.28577 0.34504 0.93381
 H2352 H 0.19881 0.26804 0.86537
 C2353 C 0.85379 0.39013 0.77260
 C2354 C 0.83100 0.39003 0.75853
 N2355 N 0.82616 0.40972 0.74186
 C2356 C 0.84336 0.42932 0.73809
 C2357 C 0.86673 0.42915 0.75130
 N2358 N 0.87138 0.40961 0.76855
 N2359 N 0.85857 0.36978 0.78883
 C2360 C 0.84196 0.34907 0.79108
 C2361 C 0.81983 0.34836 0.77595
 N2362 N 0.81494 0.36921 0.76036
 H2363 H 0.83929 0.44444 0.72420
 H2364 H 0.84676 0.33269 0.80339
 C2365 C 0.34053 0.89697 0.26257
 C2366 C 0.32393 0.88903 0.24364
 N2367 N 0.32219 0.90312 0.22230
 C2368 C 0.33701 0.92454 0.21843
 C2369 C 0.35469 0.93254 0.23678
 N2370 N 0.35542 0.91887 0.25893
 N2371 N 0.34259 0.88155 0.28347
 C2372 C 0.32925 0.85835 0.28584
 C2373 C 0.31328 0.85016 0.26626
 N2374 N 0.31095 0.86625 0.24603
 H2375 H 0.33458 0.93540 0.20118
 H2376 H 0.33194 0.84603 0.30218
 C2377 C 0.14106 0.88052 0.73437
 C2378 C 0.16630 0.88180 0.74370
 N2379 N 0.17382 0.90373 0.75605
 C2380 C 0.15707 0.92431 0.75998
 C2381 C 0.13140 0.92263 0.75183
 N2382 N 0.12398 0.90072 0.73906
 N2383 N 0.13377 0.85854 0.72183
 C2384 C 0.15037 0.83752 0.71876
 C2385 C 0.17514 0.83815 0.72942
 N2386 N 0.18246 0.86049 0.74147
 H2387 H 0.16338 0.94133 0.77037
 H2388 H 0.14378 0.81992 0.70945
 C2389 C 0.64517 0.38084 0.23533
 C2390 C 0.66550 0.37685 0.25221
 N2391 N 0.66870 0.39394 0.27122
 C2392 C 0.65219 0.41476 0.27447
 C2393 C 0.63135 0.41861 0.25812
 N2394 N 0.62834 0.40164 0.23868
 N2395 N 0.64198 0.36306 0.21666
 C2396 C 0.65787 0.34126 0.21448
 C2397 C 0.67763 0.33682 0.23205
 N2398 N 0.68092 0.35507 0.25024
 H2399 H 0.65488 0.42786 0.29007
 H2400 H 0.65442 0.32706 0.19993
 C2401 C 0.64829 0.61666 0.26962
 C2402 C 0.67123 0.61597 0.25578
 N2403 N 0.67709 0.59444 0.24180
 C2404 C 0.66069 0.57378 0.24046
 C2405 C 0.63705 0.57493 0.25315
 N2406 N 0.63140 0.59635 0.26763
 N2407 N 0.64261 0.63839 0.28354
 C2408 C 0.65846 0.65973 0.28366
 C2409 C 0.68053 0.65971 0.26847
 N2410 N 0.68645 0.63755 0.25519
 H2411 H 0.66537 0.55724 0.22847
 H2412 H 0.65315 0.67701 0.29440
 C2413 C 0.14692 0.11755 0.77296
 C2414 C 0.16816 0.11908 0.75694
 N2415 N 0.17169 0.10056 0.73909
 C2416 C 0.15465 0.08068 0.73613
 C2417 C 0.13285 0.07936 0.75149
 N2418 N 0.12948 0.09779 0.76979
 N2419 N 0.14349 0.13667 0.79050
 C2420 C 0.16001 0.15749 0.79232
 C2421 C 0.18060 0.15958 0.77545
 N2422 N 0.18412 0.13998 0.75844
 H2423 H 0.15763 0.06647 0.72139
 H2424 H 0.15633 0.17284 0.80587
 C2425 C 0.36342 0.12079 0.24833
 C2426 C 0.35871 0.13535 0.26989
 N2427 N 0.36696 0.12591 0.29215
 C2428 C 0.37980 0.10235 0.29402
 C2429 C 0.38467 0.08722 0.27260
 N2430 N 0.37617 0.09691 0.25012
 N2431 N 0.35455 0.13056 0.22616
 C2432 C 0.34094 0.15407 0.22475
 C2433 C 0.33571 0.16828 0.24662
 N2434 N 0.34505 0.15835 0.26848
 H2435 H 0.38525 0.09522 0.31228
 H2436 H 0.33375 0.16114 0.20701
 C2437 C 0.86162 0.61748 0.74015
 C2438 C 0.85053 0.62886 0.76133
 N2439 N 0.85518 0.61803 0.78398
 C2440 C 0.87076 0.59635 0.78662
 C2441 C 0.88243 0.58480 0.76566
 N2442 N 0.87735 0.59554 0.74269
 N2443 N 0.85675 0.62892 0.71756
 C2444 C 0.84139 0.65121 0.71532
 C2445 C 0.83038 0.66262 0.73671
 N2446 N 0.83539 0.65083 0.75905
 H2447 H 0.87398 0.58815 0.80500
 H2448 H 0.83791 0.65990 0.69719
 C2449 C 0.89224 0.73713 0.18903
 C2450 C 0.87266 0.75110 0.17635
 N2451 N 0.87822 0.76473 0.15540
 C2452 C 0.90277 0.76577 0.14687
 C2453 C 0.92292 0.75278 0.16020
 N2454 N 0.91672 0.73829 0.18067
 N2455 N 0.88671 0.72360 0.21012
 C2456 C 0.86235 0.72382 0.21934
 C2457 C 0.84287 0.73848 0.20695
 N2458 N 0.84850 0.75150 0.18558
 H2459 H 0.90595 0.77629 0.12968
 H2460 H 0.85844 0.71316 0.23639
 C2461 C 0.39069 0.23067 0.68742
 C2462 C 0.36807 0.23466 0.67341
 N2463 N 0.36962 0.23895 0.64863
 C2464 C 0.39291 0.24077 0.63735
 C2465 C 0.41560 0.23920 0.65174
 N2466 N 0.41389 0.23335 0.67633
 N2467 N 0.38912 0.22639 0.71223
 C2468 C 0.36587 0.22669 0.72382
 C2469 C 0.34342 0.23239 0.71001
 N2470 N 0.34502 0.23581 0.68506
 H2471 H 0.39360 0.24458 0.61758
 H2472 H 0.36507 0.22380 0.74373
 C2473 C 0.39149 0.75588 0.80362
 C2474 C 0.37105 0.74571 0.81767
 N2475 N 0.37569 0.73564 0.84064
 C2476 C 0.40003 0.73456 0.84998
 C2477 C 0.42082 0.74352 0.83550
 N2478 N 0.41589 0.75444 0.81277
 N2479 N 0.38673 0.76600 0.78064
 C2480 C 0.36249 0.76607 0.77094
 C2481 C 0.34214 0.75510 0.78469
 N2482 N 0.34698 0.74538 0.80786
 H2483 H 0.40310 0.72640 0.86838
 H2484 H 0.35932 0.77399 0.75245
 C2485 C 0.89068 0.24411 0.30433
 C2486 C 0.87109 0.22942 0.31551
 N2487 N 0.87653 0.21385 0.33541
 C2488 C 0.90091 0.21168 0.34439
 C2489 C 0.92111 0.22567 0.33274
 N2490 N 0.91506 0.24198 0.31322
 N2491 N 0.88516 0.25961 0.28428
 C2492 C 0.86086 0.26083 0.27477
 C2493 C 0.84130 0.24574 0.28581
 N2494 N 0.84697 0.23057 0.30606
 H2495 H 0.90390 0.19967 0.36081
 H2496 H 0.85698 0.27317 0.25864
 C2497 C 0.12186 0.26654 0.32474
 C2498 C 0.12600 0.25474 0.30156
 N2499 N 0.10560 0.24995 0.28648
 C2500 C 0.08116 0.25655 0.29359
 C2501 C 0.07713 0.26875 0.31668
 N2502 N 0.09765 0.27325 0.33167
 N2503 N 0.14210 0.27169 0.33978
 C2504 C 0.16658 0.26615 0.33238
 C2505 C 0.17090 0.25518 0.30881
 N2506 N 0.15044 0.24943 0.29406
 H2507 H 0.06518 0.25261 0.28128
 H2508 H 0.18249 0.27108 0.34446
 C2509 C 0.61219 0.75685 0.80685
 C2510 C 0.63326 0.76717 0.81975
 N2511 N 0.62919 0.78258 0.83987
 C2512 C 0.60490 0.78871 0.84745
 C2513 C 0.58354 0.77947 0.83393
 N2514 N 0.58785 0.76330 0.81415
 N2515 N 0.61644 0.74122 0.78679
 C2516 C 0.64087 0.73599 0.77873
 C2517 C 0.66192 0.74732 0.79106
 N2518 N 0.65748 0.76240 0.81145
 H2519 H 0.60252 0.80046 0.86402
 H2520 H 0.64370 0.72410 0.76227
 C2521 C 0.60809 0.26613 0.69476
 C2522 C 0.62977 0.26204 0.67948
 N2523 N 0.62666 0.25381 0.65581
 C2524 C 0.60288 0.24811 0.64709
 C2525 C 0.58148 0.24993 0.66304
 N2526 N 0.58442 0.25965 0.68629
 N2527 N 0.61139 0.27368 0.71865
 C2528 C 0.63545 0.27630 0.72824
 C2529 C 0.65707 0.27019 0.71344
 N2530 N 0.65366 0.26382 0.68925
 H2531 H 0.60092 0.24039 0.62849
 H2532 H 0.63760 0.28152 0.74758
 C2533 C 0.12134 0.72245 0.18236
 C2534 C 0.12326 0.73553 0.20517
 N2535 N 0.10235 0.73743 0.22026
 C2536 C 0.07947 0.72691 0.21342
 C2537 C 0.07767 0.71371 0.19064
 N2538 N 0.09867 0.71188 0.17567
 N2539 N 0.14213 0.72049 0.16722
 C2540 C 0.16512 0.73051 0.17417
 C2541 C 0.16735 0.74283 0.19740
 N2542 N 0.14624 0.74527 0.21223
 H2543 H 0.06287 0.72900 0.22548
 H2544 H 0.18165 0.72800 0.16209
   
