data_POSCAR
  _audit_creation_date              2014-09-24
  _audit_creation_method            'ToBaCCo'
  _symmetry_space_group_name_H-M    'P1'
  _symmetry_Int_Tables_number       1
  _symmetry_cell_setting            triclinic
  loop_
  _symmetry_equiv_pos_as_xyz
 x,y,z
_cell_length_a 68.1829
_cell_length_b 68.0675
_cell_length_c 68.0265
_cell_angle_alpha 89.939400
_cell_angle_beta 89.984600
_cell_angle_gamma 89.938500
loop_
  _atom_site_label
  _atom_site_type_symbol
  _atom_site_fract_x
  _atom_site_fract_y
  _atom_site_fract_z
N1 N 0.35857 1.34587 0.30450
 N2 N 0.34484 1.35948 0.30468
 C3 C 0.34776 1.37183 0.28944
 C4 C 0.36412 1.36551 0.27935
 C5 C 0.37070 1.34908 0.28920
 H6 H 0.33873 1.38443 0.28594
 H7 H 0.38334 1.34019 0.28555
 Cu8 Cu 0.32454 1.35962 0.32483
 Cu9 Cu 0.35974 1.32498 0.32405
 Cu10 Cu 0.32369 1.32496 0.36005
 N11 N 0.30437 1.35947 0.34514
 N12 N 0.30414 1.34582 0.35886
 C13 C 0.28882 1.34900 0.37096
 C14 C 0.27902 1.36545 0.36440
 C15 C 0.28915 1.37181 0.34804
 H16 H 0.28512 1.34004 0.38357
 H17 H 0.28567 1.38442 0.33899
 N18 N 0.34471 1.30508 0.35881
 N19 N 0.35844 1.30509 0.34509
 C20 C 0.37052 1.28970 0.34811
 C21 C 0.36403 1.27965 0.36443
 C22 C 0.34772 1.28967 0.37091
 H23 H 0.38310 1.28603 0.33914
 H24 H 0.33875 1.28598 0.38349
 H25 H 0.33011 1.32465 0.33032
 H26 H 0.34592 1.34037 0.34623
 N27 N 0.35866 0.84543 0.80478
 N28 N 0.34479 0.85889 0.80483
 C29 C 0.34763 0.87120 0.78956
 C30 C 0.36405 0.86498 0.77950
 C31 C 0.37076 0.84868 0.78947
 H32 H 0.33853 0.88373 0.78599
 H33 H 0.38346 0.83987 0.78584
 Cu34 Cu 0.32439 0.85892 0.82483
 Cu35 Cu 0.35997 0.82466 0.82446
 Cu36 Cu 0.32396 0.82474 0.86051
 N37 N 0.30441 0.85899 0.84527
 N38 N 0.30434 0.84553 0.85917
 C39 C 0.28910 0.84883 0.87133
 C40 C 0.27919 0.86516 0.86464
 C41 C 0.28921 0.87135 0.84816
 H42 H 0.28551 0.84005 0.88409
 H43 H 0.28569 0.88391 0.83905
 N44 N 0.34504 0.80492 0.85936
 N45 N 0.35875 0.80490 0.84563
 C46 C 0.37093 0.78961 0.84876
 C47 C 0.36451 0.77967 0.86517
 C48 C 0.34814 0.78963 0.87158
 H49 H 0.38353 0.78594 0.83983
 H50 H 0.33920 0.78598 0.88420
 H51 H 0.33044 0.82405 0.83088
 H52 H 0.34604 0.84019 0.84650
 N53 N 0.85937 1.34606 0.80455
 N54 N 0.84562 1.35964 0.80470
 C55 C 0.84849 1.37196 0.78943
 C56 C 0.86486 1.36565 0.77937
 C57 C 0.87148 1.34925 0.78923
 H58 H 0.83941 1.38451 0.78587
 H59 H 0.88411 1.34036 0.78556
 Cu60 Cu 0.82535 1.35966 0.82481
 Cu61 Cu 0.86065 1.32519 0.82420
 Cu62 Cu 0.82448 1.32524 0.86014
 N63 N 0.80508 1.35965 0.84494
 N64 N 0.80485 1.34607 0.85871
 C65 C 0.78953 1.34931 0.87078
 C66 C 0.77971 1.36571 0.86413
 C67 C 0.78987 1.37201 0.84777
 H68 H 0.78585 1.34052 0.88350
 H69 H 0.78647 1.38465 0.83874
 N70 N 0.84557 1.30541 0.85905
 N71 N 0.85932 1.30538 0.84534
 C72 C 0.87152 1.29013 0.84856
 C73 C 0.86509 1.28021 0.86499
 C74 C 0.84868 1.29017 0.87133
 H75 H 0.88416 1.28648 0.83967
 H76 H 0.83973 1.28656 0.88395
 H77 H 0.83106 1.32462 0.83044
 H78 H 0.84675 1.34043 0.84627
 N79 N 0.85879 0.84538 0.30410
 N80 N 0.84519 0.85913 0.30446
 C81 C 0.84835 0.87179 0.28953
 C82 C 0.86472 0.86549 0.27943
 C83 C 0.87104 0.84877 0.28895
 H84 H 0.83946 0.88454 0.28623
 H85 H 0.88347 0.83967 0.28506
 Cu86 Cu 0.82492 0.85903 0.32468
 Cu87 Cu 0.85906 0.82366 0.32284
 Cu88 Cu 0.82315 0.82352 0.35873
 N89 N 0.80465 0.85890 0.34490
 N90 N 0.80429 0.84509 0.35846
 C91 C 0.78914 0.84837 0.37071
 C92 C 0.77960 0.86511 0.36447
 C93 C 0.78971 0.87149 0.34811
 H94 H 0.78527 0.83923 0.38313
 H95 H 0.78640 0.88429 0.33929
 N96 N 0.84529 0.80482 0.35870
 N97 N 0.85902 0.80486 0.34497
 C98 C 0.87183 0.79023 0.34870
 C99 C 0.86579 0.78065 0.36548
 C100 C 0.84902 0.79018 0.37152
 H101 H 0.88445 0.78663 0.33976
 H102 H 0.84008 0.78652 0.38414
 H103 H 0.82959 0.82379 0.32916
 H104 H 0.84568 0.83891 0.34538
 N105 N 0.64088 0.65453 0.30494
 N106 N 0.65467 0.64100 0.30508
 C107 C 0.65171 0.62853 0.28996
 C108 C 0.63534 0.63478 0.27984
 C109 C 0.62881 0.65123 0.28962
 H110 H 0.66073 0.61586 0.28643
 H111 H 0.61623 0.66014 0.28593
 Cu112 Cu 0.67509 0.64081 0.32507
 Cu113 Cu 0.63972 0.67540 0.32440
 Cu114 Cu 0.67577 0.67557 0.36031
 N115 N 0.69522 0.64124 0.34538
 N116 N 0.69535 0.65481 0.35913
 C117 C 0.71074 0.65162 0.37114
 C118 C 0.72060 0.63521 0.36458
 C119 C 0.71041 0.62886 0.34829
 H120 H 0.71441 0.66055 0.38371
 H121 H 0.71393 0.61615 0.33932
 N122 N 0.65472 0.69538 0.35903
 N123 N 0.64099 0.69534 0.34532
 C124 C 0.62883 0.71066 0.34837
 C125 C 0.63529 0.72071 0.36469
 C126 C 0.65165 0.71072 0.37116
 H127 H 0.61620 0.71424 0.33944
 H128 H 0.66059 0.71437 0.38375
 H129 H 0.66946 0.67580 0.33056
 H130 H 0.65376 0.66000 0.34650
 N131 N 0.64074 0.15417 0.80446
 N132 N 0.65450 0.14060 0.80463
 C133 C 0.65159 0.12823 0.78942
 C134 C 0.63517 0.13450 0.77938
 C135 C 0.62857 0.15090 0.78922
 H136 H 0.66065 0.11565 0.78592
 H137 H 0.61595 0.15981 0.78555
 Cu138 Cu 0.67507 0.14071 0.82449
 Cu139 Cu 0.63952 0.17503 0.82398
 Cu140 Cu 0.67561 0.17513 0.85990
 N141 N 0.69502 0.14073 0.84497
 N142 N 0.69520 0.15433 0.85870
 C143 C 0.71049 0.15110 0.87083
 C144 C 0.72037 0.13472 0.86424
 C145 C 0.71026 0.12842 0.84787
 H146 H 0.71416 0.16001 0.88345
 H147 H 0.71374 0.11580 0.83885
 N148 N 0.65458 0.19497 0.85864
 N149 N 0.64082 0.19492 0.84496
 C150 C 0.62862 0.21019 0.84807
 C151 C 0.63507 0.22020 0.86441
 C152 C 0.65149 0.21028 0.87081
 H153 H 0.61596 0.21375 0.83919
 H154 H 0.66043 0.21394 0.88340
 H155 H 0.66908 0.17553 0.83020
 H156 H 0.65348 0.15947 0.84603
 N157 N 1.14107 0.65465 0.80479
 N158 N 1.15474 0.64098 0.80506
 C159 C 1.15185 0.62865 0.78983
 C160 C 1.13557 0.63503 0.77963
 C161 C 1.12903 0.65148 0.78943
 H162 H 1.16087 0.61604 0.78637
 H163 H 1.11647 0.66044 0.78568
 Cu164 Cu 1.17494 0.64099 0.82527
 Cu165 Cu 1.13991 0.67561 0.82428
 Cu166 Cu 1.17607 0.67559 0.86027
 N167 N 1.19528 0.64102 0.84534
 N168 N 1.19559 0.65466 0.85903
 C169 C 1.21098 0.65147 0.87102
 C170 C 1.22077 0.63504 0.86441
 C171 C 1.21053 0.62869 0.84814
 H172 H 1.21474 0.66040 0.88360
 H173 H 1.21395 0.61609 0.83910
 N174 N 1.15506 0.69550 0.85900
 N175 N 1.14131 0.69550 0.84530
 C176 C 1.12922 0.71088 0.84836
 C177 C 1.13574 0.72089 0.86466
 C178 C 1.15206 0.71087 0.87111
 H179 H 1.11661 0.71454 0.83944
 H180 H 1.16104 0.71453 0.88369
 H181 H 1.16946 0.67593 0.83068
 H182 H 1.15363 0.66032 0.84667
 N183 N 1.14074 0.15397 0.30507
 N184 N 1.15447 0.14038 0.30531
 C185 C 1.15159 0.12800 0.29010
 C186 C 1.13524 0.13429 0.27996
 C187 C 1.12867 0.15072 0.28977
 H188 H 1.16063 0.11539 0.28663
 H189 H 1.11608 0.15962 0.28603
 Cu190 Cu 1.17479 0.14050 0.32538
 Cu191 Cu 1.13953 0.17491 0.32454
 Cu192 Cu 1.17569 0.17503 0.36053
 N193 N 1.19505 0.14061 0.34553
 N194 N 1.19529 0.15419 0.35926
 C195 C 1.21062 0.15097 0.37129
 C196 C 1.22045 0.13456 0.36469
 C197 C 1.21031 0.12827 0.34835
 H198 H 1.21435 0.15985 0.38390
 H199 H 1.21377 0.11567 0.33931
 N200 N 1.15461 0.19486 0.35925
 N201 N 1.14088 0.19484 0.34554
 C202 C 1.12876 0.21020 0.34857
 C203 C 1.13524 0.22023 0.36489
 C204 C 1.15158 0.21023 0.37135
 H205 H 1.11615 0.21383 0.33964
 H206 H 1.16054 0.21389 0.38393
 H207 H 1.16916 0.17545 0.33087
 H208 H 1.15347 0.15973 0.34677
 N209 N 0.64086 1.34562 0.69481
 N210 N 0.65465 1.35913 0.69467
 C211 C 0.65166 1.37156 0.70980
 C212 C 0.63518 1.36541 0.71979
 C213 C 0.62864 1.34899 0.70998
 H214 H 0.66072 1.38411 0.71330
 H215 H 0.61594 1.34020 0.71361
 Cu216 Cu 0.67515 1.35900 0.67478
 Cu217 Cu 0.63970 1.32474 0.67528
 Cu218 Cu 0.67581 1.32462 0.63934
 N219 N 0.69519 1.35895 0.65443
 N220 N 0.69536 1.34543 0.64062
 C221 C 0.71062 1.34871 0.62849
 C222 C 0.72044 1.36508 0.63513
 C223 C 0.71038 1.37128 0.65156
 H224 H 0.71429 1.33989 0.61579
 H225 H 0.71388 1.38381 0.66066
 N226 N 0.65479 1.30482 0.64058
 N227 N 0.64105 1.30486 0.65428
 C228 C 0.62897 1.28950 0.65127
 C229 C 0.63549 1.27946 0.63498
 C230 C 0.65182 1.28943 0.62850
 H231 H 0.61639 1.28584 0.66023
 H232 H 0.66082 1.28572 0.61594
 H233 H 0.66932 1.32411 0.66896
 H234 H 0.65369 1.34014 0.65314
 N235 N 0.64112 0.84534 1.19534
 N236 N 0.65489 0.85888 1.19520
 C237 C 0.65202 0.87113 1.21049
 C238 C 0.63568 0.86481 1.22062
 C239 C 0.62907 0.84847 1.21071
 H240 H 0.66107 0.88365 1.21402
 H241 H 0.61650 0.83953 1.21445
 Cu242 Cu 0.67521 0.85897 1.17509
 Cu243 Cu 0.63988 0.82456 1.17575
 Cu244 Cu 0.67593 0.82446 1.13975
 N245 N 0.69536 0.85874 1.15482
 N246 N 0.69552 0.84520 1.14103
 C247 C 0.71086 0.84835 1.12895
 C248 C 0.72073 0.86468 1.13560
 C249 C 0.71061 0.87099 1.15196
 H250 H 0.71455 0.83946 1.11630
 H251 H 0.71408 0.88357 1.16098
 N252 N 0.65486 0.80470 1.14099
 N253 N 0.64113 0.80474 1.15470
 C254 C 0.62899 0.78943 1.15163
 C255 C 0.63548 0.77941 1.13529
 C256 C 0.65182 0.78938 1.12884
 H257 H 0.61637 0.78581 1.16055
 H258 H 0.66077 0.78571 1.11625
 H259 H 0.66957 0.82406 1.16945
 H260 H 0.65382 0.84003 1.15357
 N261 N 1.14094 1.34556 1.19484
 N262 N 1.15475 1.35904 1.19476
 C263 C 1.15178 1.37141 1.20994
 C264 C 1.13530 1.36524 1.21991
 C265 C 1.12873 1.34886 1.21005
 H266 H 1.16087 1.38392 1.21350
 H267 H 1.11606 1.34003 1.21368
 Cu268 Cu 1.17527 1.35897 1.17489
 Cu269 Cu 1.13980 1.32471 1.17529
 Cu270 Cu 1.17595 1.32464 1.13940
 N271 N 1.19528 1.35898 1.15450
 N272 N 1.19546 1.34546 1.14069
 C273 C 1.21072 1.34872 1.12857
 C274 C 1.22053 1.36510 1.13519
 C275 C 1.21045 1.37133 1.15160
 H276 H 1.21441 1.33987 1.11589
 H277 H 1.21392 1.38389 1.16068
 N278 N 1.15495 1.30482 1.14060
 N279 N 1.14117 1.30486 1.15427
 C280 C 1.12904 1.28957 1.15116
 C281 C 1.13556 1.27955 1.13485
 C282 C 1.15194 1.28949 1.12845
 H283 H 1.11640 1.28596 1.16006
 H284 H 1.16093 1.28581 1.11588
 H285 H 1.16946 1.32412 1.16904
 H286 H 1.15385 1.34021 1.15322
 N287 N 1.14088 0.84539 0.69514
 N288 N 1.15456 0.85901 0.69488
 C289 C 1.15167 0.87133 0.71012
 C290 C 1.13536 0.86502 0.72029
 C291 C 1.12882 0.84858 0.71049
 H292 H 1.16066 0.88394 0.71355
 H293 H 1.11622 0.83969 0.71420
 Cu294 Cu 1.17468 0.85938 0.67458
 Cu295 Cu 1.13962 0.82464 0.67553
 Cu296 Cu 1.17571 0.82444 0.63960
 N297 N 1.19513 0.85876 0.65461
 N298 N 1.19540 0.84509 0.64095
 C299 C 1.21083 0.84814 0.62897
 C300 C 1.22068 0.86452 0.63557
 C301 C 1.21043 0.87096 0.65180
 H302 H 1.21455 0.83922 0.61636
 H303 H 1.21384 0.88361 0.66077
 N304 N 1.15453 0.80478 0.64075
 N305 N 1.14079 0.80484 0.65446
 C306 C 1.12863 0.78955 0.65141
 C307 C 1.13508 0.77952 0.63506
 C308 C 1.15145 0.78945 0.62861
 H309 H 1.11606 0.78592 0.66039
 H310 H 1.16044 0.78572 0.61606
 H311 H 1.16938 0.82436 0.66934
 H312 H 1.15351 0.83994 0.65324
 N313 N 0.35858 0.65454 0.69505
 N314 N 0.34490 0.64091 0.69476
 C315 C 0.34761 0.62867 0.71013
 C316 C 0.36391 0.63495 0.72032
 C317 C 0.37056 0.65133 0.71044
 H318 H 0.33852 0.61612 0.71363
 H319 H 0.38314 0.66022 0.71419
 Cu320 Cu 0.32492 0.64090 0.67434
 Cu321 Cu 0.35988 0.67546 0.67548
 Cu322 Cu 0.32391 0.67547 0.63926
 N323 N 0.30467 0.64092 0.65418
 N324 N 0.30440 0.65457 0.64046
 C325 C 0.28907 0.65139 0.62840
 C326 C 0.27923 0.63500 0.63506
 C327 C 0.28937 0.62869 0.65142
 H328 H 0.28535 0.66032 0.61579
 H329 H 0.28586 0.61614 0.66053
 N330 N 0.34491 0.69532 0.64059
 N331 N 0.35859 0.69532 0.65436
 C332 C 0.37069 0.71067 0.65132
 C333 C 0.36425 0.72068 0.63495
 C334 C 0.34797 0.71067 0.62845
 H335 H 0.38326 0.71433 0.66029
 H336 H 0.33907 0.71433 0.61580
 H337 H 0.33036 0.67585 0.66898
 H338 H 0.34629 0.66024 0.65309
 N339 N 0.35895 0.15480 1.19514
 N340 N 0.34525 0.14121 1.19491
 C341 C 0.34794 0.12900 1.21029
 C342 C 0.36415 0.13537 1.22055
 C343 C 0.37083 0.15172 1.21066
 H344 H 0.33887 0.11644 1.21377
 H345 H 0.38336 0.16066 1.21446
 Cu346 Cu 0.32519 0.14078 1.17459
 Cu347 Cu 0.36022 0.17551 1.17543
 Cu348 Cu 0.32415 0.17553 1.13940
 N349 N 0.30481 0.14121 1.15457
 N350 N 0.30451 0.15481 1.14082
 C351 C 0.28901 0.15174 1.12896
 C352 C 0.27917 0.13539 1.13569
 C353 C 0.28948 0.12901 1.15193
 H354 H 0.28518 0.16067 1.11638
 H355 H 0.28607 0.11642 1.16103
 N356 N 0.34531 0.19525 1.14050
 N357 N 0.35903 0.19523 1.15422
 C358 C 0.37127 0.21043 1.15102
 C359 C 0.36487 0.22037 1.13459
 C360 C 0.34847 0.21047 1.12822
 H361 H 0.38389 0.21405 1.15992
 H362 H 0.33956 0.21412 1.11558
 H363 H 0.33053 0.17592 1.16908
 H364 H 0.34639 0.16035 1.15314
 N365 N 0.85894 0.65427 1.19497
 N366 N 0.84506 0.64086 1.19485
 C367 C 0.84782 0.62851 1.21012
 C368 C 0.86428 0.63459 1.22016
 C369 C 0.87105 0.65087 1.21023
 H370 H 0.83861 0.61608 1.21369
 H371 H 0.88375 0.65963 1.21390
 Cu372 Cu 0.82463 0.64102 1.17488
 Cu373 Cu 0.86026 0.67514 1.17542
 Cu374 Cu 0.82432 0.67541 1.13934
 N375 N 0.80483 0.64109 1.15428
 N376 N 0.80474 0.65463 1.14047
 C377 C 0.78957 0.65136 1.12824
 C378 C 0.77966 0.63502 1.13488
 C379 C 0.78963 0.62879 1.15136
 H380 H 0.78596 0.66022 1.11554
 H381 H 0.78606 0.61626 1.16048
 N382 N 0.84536 0.69519 1.14070
 N383 N 0.85908 0.69506 1.15442
 C384 C 0.87118 0.71042 1.15147
 C385 C 0.86472 0.72055 1.13519
 C386 C 0.84839 0.71064 1.12867
 H387 H 0.88374 0.71403 1.16047
 H388 H 0.83941 0.71445 1.11613
 H389 H 0.83081 0.67580 1.16888
 H390 H 0.84639 0.65964 1.15318
 N391 N 0.85871 0.15438 0.69495
 N392 N 0.84502 0.14078 0.69474
 C393 C 0.84780 0.12855 0.71010
 C394 C 0.86405 0.13492 0.72031
 C395 C 0.87068 0.15126 0.71039
 H396 H 0.83875 0.11599 0.71361
 H397 H 0.88327 0.16017 0.71410
 Cu398 Cu 0.82492 0.14044 0.67443
 Cu399 Cu 0.86005 0.17512 0.67527
 Cu400 Cu 0.82397 0.17531 0.63936
 N401 N 0.80452 0.14099 0.65441
 N402 N 0.80426 0.15468 0.64074
 C403 C 0.78881 0.15166 0.62879
 C404 C 0.77894 0.13530 0.63540
 C405 C 0.78919 0.12881 0.65163
 H406 H 0.78508 0.16063 0.61619
 H407 H 0.78575 0.11618 0.66064
 N408 N 0.84514 0.19496 0.64042
 N409 N 0.85889 0.19489 0.65411
 C410 C 0.87113 0.21010 0.65093
 C411 C 0.86471 0.22009 0.63455
 C412 C 0.84828 0.21023 0.62818
 H413 H 0.88375 0.21370 0.65985
 H414 H 0.83931 0.21394 0.61561
 H415 H 0.83037 0.17545 0.66911
 H416 H 0.84621 0.15983 0.65308
 N417 N 1.34540 0.35855 0.69507
 N418 N 1.35902 0.34484 0.69487
 C419 C 1.37136 0.34780 0.71006
 C420 C 1.36497 0.36410 0.72023
 C421 C 1.34855 0.37063 0.71041
 H422 H 1.38403 0.33886 0.71345
 H423 H 1.33958 0.38321 0.71415
 Cu424 Cu 1.35924 0.32459 0.67469
 Cu425 Cu 1.32459 0.35973 0.67551
 Cu426 Cu 1.32470 0.32374 0.63943
 N427 N 1.35919 0.30448 0.65438
 N428 N 1.34560 0.30426 0.64064
 C429 C 1.34886 0.28898 0.62850
 C430 C 1.36533 0.27926 0.63503
 C431 C 1.37162 0.28936 0.65140
 H432 H 1.33991 0.28522 0.61592
 H433 H 1.38427 0.28597 0.66039
 N434 N 1.30478 0.34470 0.64077
 N435 N 1.30475 0.35842 0.65450
 C436 C 1.28943 0.37057 0.65142
 C437 C 1.27947 0.36409 0.63506
 C438 C 1.28948 0.34775 0.62861
 H439 H 1.28580 0.38321 0.66032
 H440 H 1.28589 0.33884 0.61596
 H441 H 1.32423 0.32997 0.66911
 H442 H 1.33996 0.34586 0.65327
 N443 N 1.34559 0.85853 1.19560
 N444 N 1.35926 0.84485 1.19532
 C445 C 1.37149 0.84763 1.21064
 C446 C 1.36503 0.86386 1.22089
 C447 C 1.34866 0.87049 1.21106
 H448 H 1.38410 0.83861 1.21408
 H449 H 1.33969 0.88305 1.21482
 Cu450 Cu 1.35969 0.82483 1.17491
 Cu451 Cu 1.32481 0.85982 1.17601
 Cu452 Cu 1.32494 0.82390 1.13988
 N453 N 1.35942 0.80457 1.15472
 N454 N 1.34579 0.80435 1.14103
 C455 C 1.34894 0.78900 1.12895
 C456 C 1.36536 0.77918 1.13551
 C457 C 1.37173 0.78932 1.15184
 H458 H 1.34001 0.78529 1.11635
 H459 H 1.38432 0.78585 1.16086
 N460 N 1.30508 0.84490 1.14117
 N461 N 1.30504 0.85861 1.15492
 C462 C 1.28972 0.87075 1.15185
 C463 C 1.27977 0.86430 1.13547
 C464 C 1.28979 0.84797 1.12900
 H465 H 1.28605 0.88335 1.16080
 H466 H 1.28618 0.83906 1.11636
 H467 H 1.32469 0.83018 1.16968
 H468 H 1.34017 0.84623 1.15374
 N469 N 0.84563 0.35903 1.19568
 N470 N 0.85917 0.34523 1.19547
 C471 C 0.87151 0.34806 1.21069
 C472 C 0.86524 0.36443 1.22081
 C473 C 0.84887 0.37111 1.21100
 H474 H 0.88403 0.33893 1.21418
 H475 H 0.83999 0.38375 1.21472
 Cu476 Cu 0.85915 0.32482 1.17545
 Cu477 Cu 0.82466 0.36022 1.17626
 Cu478 Cu 0.82468 0.32427 1.14016
 N479 N 0.85921 0.30499 1.15486
 N480 N 0.84564 0.30485 1.14111
 C481 C 0.84891 0.28964 1.12889
 C482 C 0.86535 0.27982 1.13540
 C483 C 0.87159 0.28983 1.15184
 H484 H 0.84000 0.28597 1.11627
 H485 H 0.88412 0.28628 1.16091
 N486 N 0.80469 0.34513 1.14161
 N487 N 0.80469 0.35886 1.15533
 C488 C 0.78931 0.37096 1.15232
 C489 C 0.77928 0.36444 1.13601
 C490 C 0.78932 0.34813 1.12953
 H491 H 0.78568 0.38359 1.16124
 H492 H 0.78570 0.33920 1.11691
 H493 H 0.82429 0.33067 1.16996
 H494 H 0.84014 0.34650 1.15414
 N495 N 0.84557 0.85938 0.69483
 N496 N 0.85917 0.84566 0.69463
 C497 C 0.87145 0.84852 0.70989
 C498 C 0.86512 0.86487 0.72002
 C499 C 0.84874 0.87145 0.71018
 H500 H 0.88402 0.83947 0.71338
 H501 H 0.83982 0.88406 0.71390
 Cu502 Cu 0.85934 0.82539 0.67447
 Cu503 Cu 0.82468 0.86055 0.67532
 Cu504 Cu 0.82471 0.82450 0.63932
 N505 N 0.85926 0.80525 0.65419
 N506 N 0.84565 0.80501 0.64049
 C507 C 0.84887 0.78969 0.62840
 C508 C 0.86531 0.77989 0.63495
 C509 C 0.87160 0.79003 0.65130
 H510 H 0.83995 0.78594 0.61581
 H511 H 0.88420 0.78657 0.66032
 N512 N 0.80478 0.84547 0.64063
 N513 N 0.80479 0.85923 0.65433
 C514 C 0.78942 0.87133 0.65131
 C515 C 0.77938 0.86480 0.63502
 C516 C 0.78940 0.84847 0.62855
 H517 H 0.78578 0.88395 0.66023
 H518 H 0.78574 0.83950 0.61596
 H519 H 0.82436 0.83089 0.66899
 H520 H 0.84000 0.84676 0.65307
 N521 N 0.65469 0.64086 0.69508
 N522 N 0.64118 0.65468 0.69491
 C523 C 0.62882 0.65178 0.71010
 C524 C 0.63504 0.63535 0.72020
 C525 C 0.65142 0.62874 0.71038
 H526 H 0.61628 0.66087 0.71360
 H527 H 0.66029 0.61608 0.71410
 Cu528 Cu 0.64118 0.67504 0.67484
 Cu529 Cu 0.67554 0.63961 0.67553
 Cu530 Cu 0.67573 0.67581 0.63959
 N531 N 0.64142 0.69529 0.65465
 N532 N 0.65500 0.69549 0.64091
 C533 C 0.65191 0.71092 0.62890
 C534 C 0.63557 0.72082 0.63554
 C535 C 0.62919 0.71061 0.65183
 H536 H 0.66084 0.71467 0.61631
 H537 H 0.61660 0.71409 0.66086
 N538 N 0.69545 0.65465 0.64080
 N539 N 0.69540 0.64088 0.65451
 C540 C 0.71067 0.62867 0.65142
 C541 C 0.72067 0.63515 0.63507
 C542 C 0.71074 0.65156 0.62864
 H543 H 0.71426 0.61601 0.66034
 H544 H 0.71442 0.66054 0.61605
 H545 H 0.67607 0.66933 0.66923
 H546 H 0.66025 0.65364 0.65332
 N547 N 0.65467 1.14079 1.19581
 N548 N 0.64118 1.15464 1.19563
 C549 C 0.62883 1.15179 1.21086
 C550 C 0.63504 1.13535 1.22094
 C551 C 0.65138 1.12864 1.21110
 H552 H 0.61632 1.16092 1.21436
 H553 H 0.66019 1.11592 1.21475
 Cu554 Cu 0.64125 1.17509 1.17561
 Cu555 Cu 0.67552 1.13952 1.17627
 Cu556 Cu 0.67561 1.17553 1.14018
 N557 N 0.64125 1.19500 1.15503
 N558 N 0.65482 1.19512 1.14127
 C559 C 0.65165 1.21041 1.12909
 C560 C 0.63528 1.22031 1.13564
 C561 C 0.62898 1.21026 1.15207
 H562 H 0.66058 1.21407 1.11647
 H563 H 0.61646 1.21387 1.16116
 N564 N 0.69540 1.15447 1.14150
 N565 N 0.69537 1.14073 1.15524
 C566 C 0.71068 1.12856 1.15219
 C567 C 0.72069 1.13503 1.13584
 C568 C 0.71073 1.15140 1.12937
 H569 H 0.71430 1.11593 1.16115
 H570 H 0.71440 1.16036 1.11677
 H571 H 0.67606 1.16918 1.16994
 H572 H 0.66008 1.15345 1.15418
 N573 N 0.15402 0.64082 1.19514
 N574 N 0.14050 0.65465 1.19497
 C575 C 0.12808 0.65170 1.21012
 C576 C 0.13426 0.63521 1.22015
 C577 C 0.15067 0.62860 1.21035
 H578 H 0.11555 0.66081 1.21361
 H579 H 0.15952 0.61591 1.21403
 Cu580 Cu 0.14065 0.67524 1.17508
 Cu581 Cu 0.17492 0.63967 1.17565
 Cu582 Cu 0.17507 0.67582 1.13966
 N583 N 0.14072 0.69524 1.15459
 N584 N 0.15429 0.69541 1.14083
 C585 C 0.15109 0.71071 1.12867
 C586 C 0.13472 0.72056 1.13527
 C587 C 0.12840 0.71047 1.15167
 H588 H 0.16000 0.71440 1.11604
 H589 H 0.11582 0.71396 1.16072
 N590 N 0.19487 0.65476 1.14096
 N591 N 0.19484 0.64100 1.15468
 C592 C 0.21010 0.62878 1.15156
 C593 C 0.22006 0.63524 1.13518
 C594 C 0.21013 0.65165 1.12876
 H595 H 0.21369 0.61611 1.16046
 H596 H 0.21377 0.66058 1.11613
 H597 H 0.17551 0.66933 1.16929
 H598 H 0.15952 0.65369 1.15349
 N599 N 0.15394 1.14091 0.69527
 N600 N 0.14028 1.15458 0.69497
 C601 C 0.12796 1.15171 0.71022
 C602 C 0.13433 1.13538 0.72041
 C603 C 0.15075 1.12881 0.71062
 H604 H 0.11538 1.16076 0.71369
 H605 H 0.15967 1.11619 0.71435
 Cu606 Cu 0.14000 1.17475 0.67466
 Cu607 Cu 0.17490 1.13983 0.67583
 Cu608 Cu 0.17505 1.17595 0.63986
 N609 N 0.14046 1.19516 0.65461
 N610 N 0.15417 1.19547 0.64098
 C611 C 0.15109 1.21090 0.62895
 C612 C 0.13467 1.22071 0.63551
 C613 C 0.12822 1.21047 0.65176
 H614 H 0.16007 1.21465 0.61638
 H615 H 0.11562 1.21394 0.66078
 N616 N 0.19492 1.15494 0.64121
 N617 N 0.19488 1.14120 0.65494
 C618 C 0.21026 1.12910 0.65196
 C619 C 0.22032 1.13561 0.63566
 C620 C 0.21031 1.15194 0.62914
 H621 H 0.21389 1.11648 0.66093
 H622 H 0.21398 1.16092 0.61654
 H623 H 0.17491 1.16955 0.66948
 H624 H 0.15955 1.15356 0.65335
 N625 N 1.34574 0.64148 0.30500
 N626 N 1.35934 0.65519 0.30528
 C627 C 1.37166 0.65234 0.29004
 C628 C 1.36532 0.63606 0.27982
 C629 C 1.34892 0.62947 0.28962
 H630 H 1.38423 0.66138 0.28659
 H631 H 1.34003 0.61688 0.28586
 Cu632 Cu 1.35926 0.67534 0.32556
 Cu633 Cu 1.32492 0.64017 0.32459
 Cu634 Cu 1.32472 0.67620 0.36072
 N635 N 1.35918 0.69555 0.34575
 N636 N 1.34554 0.69580 0.35945
 C637 C 1.34865 0.71119 0.37148
 C638 C 1.36505 0.72099 0.36488
 C639 C 1.37146 0.71079 0.34861
 H640 H 1.33970 0.71493 0.38408
 H641 H 1.38405 0.71424 0.33957
 N642 N 1.30499 0.65505 0.35939
 N643 N 1.30510 0.64133 0.34565
 C644 C 1.28990 0.62906 0.34872
 C645 C 1.27988 0.63542 0.36508
 C646 C 1.28971 0.65186 0.37154
 H647 H 1.28637 0.61643 0.33977
 H648 H 1.28599 0.66076 0.38416
 H649 H 1.32442 0.66985 0.33118
 H650 H 1.34014 0.65399 0.34708
 N651 N 1.34549 1.14071 0.80492
 N652 N 1.35917 1.15434 0.80519
 C653 C 1.37144 1.15144 0.78992
 C654 C 1.36502 1.13521 0.77969
 C655 C 1.34860 1.12870 0.78952
 H656 H 1.38404 1.16044 0.78644
 H657 H 1.33960 1.11617 0.78575
 Cu658 Cu 1.35925 1.17455 0.82539
 Cu659 Cu 1.32459 1.13965 0.82445
 Cu660 Cu 1.32470 1.17571 0.86055
 N661 N 1.35933 1.19475 0.84561
 N662 N 1.34572 1.19508 0.85933
 C663 C 1.34897 1.21043 0.87136
 C664 C 1.36542 1.22015 0.86476
 C665 C 1.37170 1.20992 0.84845
 H666 H 1.34007 1.21424 0.88396
 H667 H 1.38428 1.21334 0.83938
 N668 N 1.30473 1.15480 0.85918
 N669 N 1.30471 1.14107 0.84545
 C670 C 1.28934 1.12900 0.84848
 C671 C 1.27935 1.13551 0.86482
 C672 C 1.28938 1.15181 0.87130
 H673 H 1.28569 1.11639 0.83955
 H674 H 1.28576 1.16074 0.88393
 H675 H 1.32436 1.16933 0.83099
 H676 H 1.33991 1.15335 0.84691
 N677 N 0.84538 0.64106 0.80482
 N678 N 0.85902 0.65472 0.80505
 C679 C 0.87126 0.65183 0.78975
 C680 C 0.86483 0.63559 0.77953
 C681 C 0.84844 0.62907 0.78939
 H682 H 0.88393 0.66075 0.78634
 H683 H 0.83944 0.61655 0.78563
 Cu684 Cu 0.85951 0.67473 0.82548
 Cu685 Cu 0.82466 0.63981 0.82446
 Cu686 Cu 0.82470 0.67574 0.86054
 N687 N 0.85913 0.69502 0.84563
 N688 N 0.84550 0.69528 0.85933
 C689 C 0.84865 0.71064 0.87139
 C690 C 0.86509 0.72041 0.86484
 C691 C 0.87144 0.71022 0.84854
 H692 H 0.83967 0.71442 0.88394
 H693 H 0.88409 0.71362 0.83958
 N694 N 0.80488 0.65474 0.85926
 N695 N 0.80488 0.64102 0.84554
 C696 C 0.78958 0.62889 0.84861
 C697 C 0.77957 0.63537 0.86496
 C698 C 0.78956 0.65170 0.87142
 H699 H 0.78596 0.61627 0.83968
 H700 H 0.78594 0.66063 0.88404
 H701 H 0.82458 0.66950 0.83081
 H702 H 0.84014 0.65345 0.84678
 N703 N 0.84528 1.14087 0.30472
 N704 N 0.85891 1.15454 0.30495
 C705 C 0.87111 1.15173 0.28960
 C706 C 0.86469 1.13549 0.27936
 C707 C 0.84835 1.12890 0.28926
 H708 H 0.88371 1.16073 0.28614
 H709 H 0.83942 1.11632 0.28554
 Cu710 Cu 0.85935 1.17464 0.32529
 Cu711 Cu 0.82465 1.13955 0.32446
 Cu712 Cu 0.82456 1.17559 0.36044
 N713 N 0.85879 1.19505 0.34530
 N714 N 0.84517 1.19532 0.35901
 C715 C 0.84822 1.21080 0.37093
 C716 C 0.86454 1.22068 0.36425
 C717 C 0.87095 1.21041 0.34803
 H718 H 0.83931 1.21453 0.38355
 H719 H 0.88354 1.21385 0.33900
 N720 N 0.80494 1.15438 0.35936
 N721 N 0.80497 1.14064 0.34565
 C722 C 0.78974 1.12843 0.34878
 C723 C 0.77978 1.13486 0.36517
 C724 C 0.78968 1.15126 0.37157
 H725 H 0.78611 1.11583 0.33983
 H726 H 0.78599 1.16024 0.38415
 H727 H 0.82440 1.16936 0.33077
 H728 H 0.83999 1.15342 0.34677
 N729 N 0.65407 0.35896 0.30479
 N730 N 0.64048 0.34525 0.30504
 C731 C 0.62824 0.34805 0.28972
 C732 C 0.63461 0.36435 0.27951
 C733 C 0.65096 0.37098 0.28936
 H734 H 0.61568 0.33901 0.28625
 H735 H 0.65986 0.38358 0.28563
 Cu736 Cu 0.64013 0.32516 0.32543
 Cu737 Cu 0.67484 0.36024 0.32442
 Cu738 Cu 0.67482 0.32421 0.36052
 N739 N 0.64043 0.30487 0.34562
 N740 N 0.65405 0.30463 0.35933
 C741 C 0.65094 0.28924 0.37139
 C742 C 0.63456 0.27942 0.36482
 C743 C 0.62817 0.28959 0.34849
 H744 H 0.65989 0.28551 0.38399
 H745 H 0.61560 0.28612 0.33945
 N746 N 0.69462 0.34526 0.35927
 N747 N 0.69460 0.35901 0.34554
 C748 C 0.70988 0.37117 0.34862
 C749 C 0.71985 0.36470 0.36499
 C750 C 0.70990 0.34833 0.37144
 H751 H 0.71352 0.38378 0.33966
 H752 H 0.71356 0.33936 0.38405
 H753 H 0.67510 0.33059 0.33074
 H754 H 0.65952 0.34654 0.34667
 N755 N 0.65481 0.85924 0.80494
 N756 N 0.64138 0.84537 0.80508
 C757 C 0.62906 0.84822 0.78984
 C758 C 0.63521 0.86466 0.77975
 C759 C 0.65151 0.87136 0.78964
 H760 H 0.61659 0.83908 0.78631
 H761 H 0.66028 0.88409 0.78599
 Cu762 Cu 0.64144 0.82496 0.82512
 Cu763 Cu 0.67559 0.86053 0.82453
 Cu764 Cu 0.67565 0.82455 0.86068
 N765 N 0.64143 0.80503 0.84565
 N766 N 0.65490 0.80494 0.85950
 C767 C 0.65165 0.78969 0.87169
 C768 C 0.63533 0.77979 0.86506
 C769 C 0.62913 0.78982 0.84859
 H770 H 0.66047 0.78607 0.88441
 H771 H 0.61663 0.78626 0.83948
 N772 N 0.69540 0.84562 0.85937
 N773 N 0.69538 0.85933 0.84560
 C774 C 0.71067 0.87149 0.84862
 C775 C 0.72064 0.86506 0.86500
 C776 C 0.71070 0.84870 0.87151
 H777 H 0.71431 0.88407 0.83962
 H778 H 0.71438 0.83976 0.88413
 H779 H 0.67622 0.83089 0.83099
 H780 H 0.66012 0.84660 0.84666
 N781 N 0.15434 0.35886 0.80528
 N782 N 0.14087 0.34503 0.80545
 C783 C 0.12851 0.34793 0.79025
 C784 C 0.13468 0.36438 0.78017
 C785 C 0.15103 0.37102 0.79001
 H786 H 0.11602 0.33881 0.78674
 H787 H 0.15985 0.38369 0.78631
 Cu788 Cu 0.14098 0.32457 0.82544
 Cu789 Cu 0.17525 0.36000 0.82473
 Cu790 Cu 0.17543 0.32395 0.86081
 N791 N 0.14102 0.30462 0.84594
 N792 N 0.15457 0.30446 0.85972
 C793 C 0.15134 0.28920 0.87191
 C794 C 0.13495 0.27939 0.86533
 C795 C 0.12868 0.28945 0.84890
 H796 H 0.16024 0.28551 0.88456
 H797 H 0.11612 0.28594 0.83984
 N798 N 0.19528 0.34494 0.85938
 N799 N 0.19520 0.35867 0.84564
 C800 C 0.21052 0.37080 0.84859
 C801 C 0.22059 0.36432 0.86490
 C802 C 0.21065 0.34798 0.87144
 H803 H 0.21410 0.38342 0.83963
 H804 H 0.21434 0.33904 0.88406
 H805 H 0.17582 0.33028 0.83117
 H806 H 0.15987 0.34601 0.84698
 N807 N 0.15433 0.85875 0.30534
 N808 N 0.14067 0.84511 0.30560
 C809 C 0.12841 0.84801 0.29032
 C810 C 0.13480 0.86428 0.28011
 C811 C 0.15122 0.87080 0.28994
 H812 H 0.11581 0.83902 0.28685
 H813 H 0.16017 0.88336 0.28618
 Cu814 Cu 0.14030 0.82493 0.32587
 Cu815 Cu 0.17515 0.85984 0.32491
 Cu816 Cu 0.17515 0.82365 0.36084
 N817 N 0.14068 0.80449 0.34589
 N818 N 0.15435 0.80410 0.35954
 C819 C 0.15122 0.78865 0.37151
 C820 C 0.13478 0.77894 0.36491
 C821 C 0.12837 0.78925 0.34869
 H822 H 0.16015 0.78483 0.38409
 H823 H 0.11571 0.78593 0.33971
 N824 N 0.19497 0.84469 0.35965
 N825 N 0.19497 0.85846 0.34595
 C826 C 0.21028 0.87058 0.34903
 C827 C 0.22027 0.86405 0.36536
 C828 C 0.21029 0.84769 0.37181
 H829 H 0.21393 0.88321 0.34010
 H830 H 0.21393 0.83870 0.38440
 H831 H 0.17531 0.83009 0.33113
 H832 H 0.15986 0.84605 0.34720
 O833 O 0.98083 0.92902 0.90219
 O834 O 0.98089 0.90606 0.87934
 C835 C 0.97406 0.92197 0.88630
 C836 C 0.95760 0.93199 0.87625
 C837 C 0.94941 0.92400 0.85908
 H838 H 0.95561 0.91085 0.85258
 O839 O 1.01936 1.07132 0.90191
 O840 O 1.01923 1.09423 0.87897
 C841 C 1.02604 1.07830 0.88593
 C842 C 1.04239 1.06815 0.87577
 C843 C 1.05033 1.07590 0.85835
 H844 H 1.04401 1.08894 0.85173
 O845 O 0.90245 0.98091 0.92892
 O846 O 0.87960 0.98098 0.90597
 C847 C 0.88654 0.97419 0.92193
 C848 C 0.87641 0.95784 0.93207
 C849 C 0.85910 0.94985 0.92425
 H850 H 0.85256 0.95613 0.91115
 O851 O 1.09767 1.01945 0.92880
 O852 O 1.12063 1.01935 0.90596
 C853 C 1.11361 1.02618 0.92186
 C854 C 1.12367 1.04256 0.93201
 C855 C 1.14099 1.05061 0.92423
 H856 H 1.14758 1.04438 0.91115
 O857 O 0.92897 0.90230 0.98081
 O858 O 0.90617 0.87934 0.98081
 C859 C 0.92207 0.88635 0.97404
 C860 C 0.93227 0.87626 0.95768
 C861 C 0.92459 0.85887 0.94969
 H862 H 0.91154 0.85227 0.95593
 O863 O 1.07115 1.09813 0.98059
 O864 O 1.09404 1.12100 0.98060
 C865 C 1.07818 1.11401 0.97375
 C866 C 1.06819 1.12402 0.95720
 C867 C 1.07613 1.14119 0.94894
 H868 H 1.08924 1.14773 0.95513
 O869 O 0.92943 1.01929 0.90215
 O870 O 0.90661 1.01938 0.87918
 C871 C 0.92245 1.02617 0.88625
 C872 C 0.93244 1.04275 0.87632
 C873 C 0.92445 1.05101 0.85916
 H874 H 0.91140 1.04475 0.85258
 O875 O 1.07076 0.98113 0.90199
 O876 O 1.09366 0.98098 0.87909
 C877 C 1.07773 0.97429 0.88609
 C878 C 1.06757 0.95791 0.87603
 C879 C 1.07524 0.94997 0.85859
 H880 H 1.08822 0.95630 0.85191
 O881 O 1.01926 0.90240 0.92922
 O882 O 1.01938 0.87947 0.90634
 C883 C 1.02612 0.88651 0.92225
 C884 C 1.04258 0.87652 0.93233
 C885 C 1.05084 0.85941 0.92430
 H886 H 1.04469 0.85294 0.91111
 O887 O 0.98119 1.09815 0.92913
 O888 O 0.98107 1.12114 0.90627
 C889 C 0.97436 1.11409 0.92221
 C890 C 0.95796 1.12411 0.93240
 C891 C 0.94999 1.14156 0.92473
 H892 H 0.95637 1.14830 0.91177
 O893 O 0.90218 1.07096 0.98078
 O894 O 0.87928 1.09385 0.98074
 C895 C 0.88630 1.07794 0.97395
 C896 C 0.87633 1.06785 0.95747
 C897 C 0.85907 1.07568 0.94930
 H898 H 0.85242 1.08872 0.95555
 O899 O 1.09755 0.92914 0.98122
 O900 O 1.12047 0.90625 0.98106
 C901 C 1.11342 0.92219 0.97433
 C902 C 1.12339 0.93233 0.95785
 C903 C 1.14072 0.92454 0.94984
 H904 H 1.14734 0.91150 0.95618
 O905 O 0.98104 1.07132 0.90223
 O906 O 0.98086 1.09427 0.87933
 C907 C 0.97414 1.07835 0.88637
 C908 C 0.95767 1.06830 0.87641
 C909 C 0.94942 1.07631 0.85926
 H910 H 0.95555 1.08949 0.85275
 O911 O 1.01914 0.92920 0.90219
 O912 O 1.01923 0.90629 0.87929
 C913 C 1.02593 0.92224 0.88625
 C914 C 1.04224 0.93244 0.87611
 C915 C 1.05017 0.92475 0.85866
 H916 H 1.04388 0.91171 0.85205
 O917 O 1.09749 0.98104 0.92900
 O918 O 1.12044 0.98090 0.90616
 C919 C 1.11338 0.97417 0.92210
 C920 C 1.12338 0.95773 0.93232
 C921 C 1.14073 0.94967 0.92458
 H922 H 1.14735 0.95593 0.91152
 O923 O 0.90249 1.01926 0.92891
 O924 O 0.87965 1.01933 0.90596
 C925 C 0.88660 1.02607 0.92191
 C926 C 0.87651 1.04247 0.93200
 C927 C 0.85926 1.05054 0.92408
 H928 H 0.85276 1.04429 0.91097
 O929 O 0.92911 1.09774 0.98075
 O930 O 0.90626 1.12069 0.98073
 C931 C 0.92218 1.11370 0.97398
 C932 C 0.93238 1.12387 0.95766
 C933 C 0.92466 1.14131 0.94973
 H934 H 0.91158 1.14787 0.95599
 O935 O 1.07088 0.90215 0.98129
 O936 O 1.09378 0.87924 0.98113
 C937 C 1.07788 0.88629 0.97440
 C938 C 1.06787 0.87638 0.95785
 C939 C 1.07589 0.85926 0.94955
 H940 H 1.08898 0.85269 0.95577
 O941 O 1.07092 1.01951 0.90182
 O942 O 1.09381 1.01942 0.87892
 C943 C 1.07791 1.02626 0.88587
 C944 C 1.06780 1.04270 0.87575
 C945 C 1.07551 1.05070 0.85832
 H946 H 1.08851 1.04438 0.85167
 O947 O 0.92927 0.98084 0.90201
 O948 O 0.90645 0.98091 0.87904
 C949 C 0.92229 0.97404 0.88610
 C950 C 0.93229 0.95750 0.87613
 C951 C 0.92434 0.94927 0.85896
 H952 H 0.91126 0.95552 0.85239
 O953 O 1.01953 1.09814 0.92884
 O954 O 1.01943 1.12109 0.90593
 C955 C 1.02629 1.11404 0.92181
 C956 C 1.04278 1.12403 0.93180
 C957 C 1.05094 1.14121 0.92380
 H958 H 1.04469 1.14776 0.91069
 O959 O 0.98092 0.90223 0.92918
 O960 O 0.98104 0.87924 0.90636
 C961 C 0.97421 0.88627 0.92226
 C962 C 0.95782 0.87620 0.93239
 C963 C 0.94990 0.85879 0.92465
 H964 H 0.95627 0.85214 0.91166
 O965 O 1.09775 1.07104 0.98075
 O966 O 1.12067 1.09387 0.98075
 C967 C 1.11366 1.07797 0.97397
 C968 C 1.12369 1.06786 0.95754
 C969 C 1.14100 1.07567 0.94953
 H970 H 1.14760 1.08868 0.95587
 O971 O 0.90218 0.92927 0.98081
 O972 O 0.87932 0.90637 0.98079
 C973 C 0.88630 0.92230 0.97402
 C974 C 0.87627 0.93246 0.95759
 C975 C 0.85894 0.92474 0.94955
 H976 H 0.85228 0.91173 0.95587
 Cu977 Cu 1.00003 0.91801 0.91798
 Cu978 Cu 1.00016 0.89045 0.89054
 Cu979 Cu 1.00030 1.08244 0.91782
 Cu980 Cu 1.00013 1.10999 0.89032
 Cu981 Cu 0.91822 1.00005 0.91778
 Cu982 Cu 0.89080 1.00016 0.89021
 Cu983 Cu 1.08192 1.00031 0.91768
 Cu984 Cu 1.10945 1.00014 0.89024
 C985 C 0.94905 0.94887 0.88455
 H986 H 0.95507 0.95491 0.89798
 C987 C 0.93283 0.93258 0.85052
 C988 C 1.05112 1.05143 0.88424
 H989 H 1.04531 1.04559 0.89787
 C990 C 1.06685 1.06726 0.84972
 C991 C 0.88478 0.94915 0.94887
 H992 H 0.89833 0.95499 0.95476
 C993 C 0.85046 0.93335 0.93292
 C994 C 1.11523 1.05118 0.94879
 H995 H 1.10169 1.04530 0.95467
 C996 C 1.14955 1.06713 0.93293
 C997 C 0.94901 0.88472 0.94903
 H998 H 0.95478 0.89835 0.95485
 C999 C 0.93331 0.85024 0.93320
 C1000 C 1.05140 1.11565 0.94862
 H1001 H 1.04540 1.10221 0.95467
 C1002 C 1.06757 1.14970 0.93229
 C1003 C 0.94917 1.05140 0.88475
 H1004 H 0.95522 1.04535 0.89818
 C1005 C 0.93286 1.06774 0.85073
 C1006 C 1.05094 0.94915 0.88458
 H1007 H 1.04517 0.95494 0.89824
 C1008 C 1.06663 0.93343 0.85001
 C1009 C 1.05108 0.88480 0.94924
 H1010 H 1.04502 0.89820 0.95532
 C1011 C 1.06745 0.85088 0.93282
 C1012 C 0.94915 1.11548 0.94900
 H1013 H 0.95496 1.10182 0.95478
 C1014 C 0.93337 1.15005 0.93329
 C1015 C 0.88483 1.05111 0.94882
 H1016 H 0.89832 1.04518 0.95480
 C1017 C 0.85063 1.06709 0.93265
 C1018 C 1.11492 0.94905 0.94909
 H1019 H 1.10136 0.95494 0.95495
 C1020 C 1.14929 0.93311 0.93326
 O1021 O 1.01922 0.92910 1.09802
 O1022 O 1.01921 0.90620 1.12098
 C1023 C 1.02598 0.92212 1.11396
 C1024 C 1.04239 0.93223 1.12402
 C1025 C 1.05030 0.92448 1.14144
 H1026 H 1.04392 0.91152 1.14813
 O1027 O 0.98090 1.07087 1.09762
 O1028 O 0.98083 1.09373 1.12057
 C1029 C 0.97409 1.07782 1.11355
 C1030 C 0.95771 1.06767 1.12363
 C1031 C 0.94960 1.07550 1.14093
 H1032 H 0.95578 1.08863 1.14748
 O1033 O 0.90234 1.01906 1.07118
 O1034 O 0.87950 1.01915 1.09413
 C1035 C 0.88650 1.02595 1.07821
 C1036 C 0.87654 1.04250 1.06817
 C1037 C 0.85942 1.05079 1.07617
 H1038 H 0.85289 1.04460 1.08932
 O1039 O 1.09826 0.98066 1.07110
 O1040 O 1.12110 0.98066 1.09404
 C1041 C 1.11415 0.97387 1.07812
 C1042 C 1.12417 0.95740 1.06803
 C1043 C 1.14148 0.94928 1.07580
 H1044 H 1.14814 0.95556 1.08882
 O1045 O 1.07106 0.90203 1.01975
 O1046 O 1.09395 0.87911 1.01962
 C1047 C 1.07810 0.88611 1.02652
 C1048 C 1.06814 0.87609 1.04308
 C1049 C 1.07613 0.85891 1.05132
 H1050 H 1.08924 0.85238 1.04510
 O1051 O 0.92904 1.09784 1.01910
 O1052 O 0.90619 1.12080 1.01912
 C1053 C 0.92211 1.11379 1.02587
 C1054 C 0.93231 1.12388 1.04220
 C1055 C 0.92461 1.14128 1.05022
 H1056 H 0.91155 1.14790 1.04399
 O1057 O 0.92903 0.98043 1.09800
 O1058 O 0.90619 0.98049 1.12096
 C1059 C 0.92203 0.97362 1.11392
 C1060 C 0.93204 0.95709 1.12394
 C1061 C 0.92411 0.94889 1.14117
 H1062 H 0.91100 0.95512 1.14771
 O1063 O 1.07118 1.01900 1.09778
 O1064 O 1.09397 1.01908 1.12079
 C1065 C 1.07807 1.02582 1.11372
 C1066 C 1.06789 1.04224 1.12371
 C1067 C 1.07563 1.05032 1.14104
 H1068 H 1.08867 1.04407 1.14768
 O1069 O 0.98104 0.90222 1.07100
 O1070 O 0.98097 0.87927 1.09390
 C1071 C 0.97422 0.88632 1.07797
 C1072 C 0.95774 0.87637 1.06788
 C1073 C 0.94958 0.85914 1.07579
 H1074 H 0.95584 0.85252 1.08887
 O1075 O 1.01926 1.09779 1.07081
 O1076 O 1.01923 1.12065 1.09376
 C1077 C 1.02603 1.11368 1.07783
 C1078 C 1.04246 1.12375 1.06778
 C1079 C 1.05061 1.14092 1.07579
 H1080 H 1.04440 1.14740 1.08895
 O1081 O 0.90203 0.92908 1.01921
 O1082 O 0.87917 0.90618 1.01924
 C1083 C 0.88615 0.92208 1.02602
 C1084 C 0.87616 0.93218 1.04250
 C1085 C 0.85891 0.92437 1.05069
 H1086 H 0.85229 0.91131 1.04446
 O1087 O 1.09776 1.07114 1.01915
 O1088 O 1.12067 1.09398 1.01916
 C1089 C 1.11365 1.07808 1.02596
 C1090 C 1.12370 1.06795 1.04240
 C1091 C 1.14100 1.07577 1.05042
 H1092 H 1.14753 1.08886 1.04413
 O1093 O 1.01925 1.07079 1.09760
 O1094 O 1.01919 1.09362 1.12057
 C1095 C 1.02601 1.07773 1.11354
 C1096 C 1.04243 1.06763 1.12362
 C1097 C 1.05043 1.07547 1.14095
 H1098 H 1.04413 1.08853 1.14752
 O1099 O 0.98087 0.92874 1.09818
 O1100 O 0.98084 0.90582 1.12112
 C1101 C 0.97403 0.92171 1.11407
 C1102 C 0.95749 0.93171 1.12403
 C1103 C 0.94932 0.92377 1.14126
 H1104 H 0.95559 0.91068 1.14786
 O1105 O 1.09805 1.01908 1.07095
 O1106 O 1.12090 1.01915 1.09388
 C1107 C 1.11390 1.02594 1.07795
 C1108 C 1.12385 1.04245 1.06782
 C1109 C 1.14116 1.05053 1.07558
 H1110 H 1.14782 1.04423 1.08862
 O1111 O 0.90231 0.98067 1.07101
 O1112 O 0.87945 0.98075 1.09395
 C1113 C 0.88640 0.97395 1.07801
 C1114 C 0.87630 0.95758 1.06793
 C1115 C 0.85907 0.94954 1.07587
 H1116 H 0.85257 0.95582 1.08898
 O1117 O 1.07091 1.09803 1.01902
 O1118 O 1.09379 1.12091 1.01907
 C1119 C 1.07789 1.11392 1.02584
 C1120 C 1.06781 1.12390 1.04232
 C1121 C 1.07572 1.14108 1.05056
 H1122 H 1.08879 1.14767 1.04434
 O1123 O 0.92911 0.90246 1.01922
 O1124 O 0.90630 0.87951 1.01926
 C1125 C 0.92218 0.88654 1.02604
 C1126 C 0.93227 0.87651 1.04251
 C1127 C 0.92437 0.85929 1.05069
 H1128 H 0.91126 0.85277 1.04449
 O1129 O 1.07124 0.98063 1.09783
 O1130 O 1.09402 0.98063 1.12084
 C1131 C 1.07814 0.97385 1.11381
 C1132 C 1.06795 0.95748 1.12391
 C1133 C 1.07563 0.94946 1.14134
 H1134 H 1.08869 0.95567 1.14794
 O1135 O 0.92936 1.01884 1.09785
 O1136 O 0.90654 1.01892 1.12083
 C1137 C 0.92242 1.02566 1.11378
 C1138 C 0.93249 1.04211 1.12376
 C1139 C 0.92465 1.05018 1.14107
 H1140 H 0.91165 1.04386 1.14770
 O1141 O 0.98095 1.09779 1.07069
 O1142 O 0.98091 1.12068 1.09361
 C1143 C 0.97418 1.11373 1.07766
 C1144 C 0.95783 1.12386 1.06751
 C1145 C 0.94991 1.14128 1.07526
 H1146 H 0.95627 1.14791 1.08826
 O1147 O 1.01939 0.90194 1.07145
 O1148 O 1.01936 0.87901 1.09437
 C1149 C 1.02620 0.88604 1.07849
 C1150 C 1.04273 0.87606 1.06850
 C1151 C 1.05097 0.85890 1.07651
 H1152 H 1.04475 0.85235 1.08964
 O1153 O 1.09790 0.92886 1.01962
 O1154 O 1.12081 0.90597 1.01946
 C1155 C 1.11384 0.92187 1.02630
 C1156 C 1.12398 0.93194 1.04267
 C1157 C 1.14127 0.92405 1.05068
 H1158 H 1.14777 0.91093 1.04441
 O1159 O 0.90232 1.07089 1.01924
 O1160 O 0.87943 1.09380 1.01925
 C1161 C 0.88647 1.07791 1.02609
 C1162 C 0.87652 1.06790 1.04266
 C1163 C 0.85940 1.07592 1.05090
 H1164 H 0.85287 1.08904 1.04465
 Cu1165 Cu 1.00014 0.91779 1.08237
 Cu1166 Cu 1.00010 0.89026 1.10990
 Cu1167 Cu 1.00009 1.08201 1.08188
 Cu1168 Cu 1.00003 1.10946 1.10944
 Cu1169 Cu 0.91785 0.91807 1.00000
 Cu1170 Cu 0.89045 0.89054 1.00001
 Cu1171 Cu 1.08204 0.91782 1.00051
 Cu1172 Cu 1.10954 0.89033 1.00030
 Cu1173 Cu 0.91794 1.08205 0.99996
 Cu1174 Cu 0.89047 1.10957 0.99995
 Cu1175 Cu 1.08209 1.08231 0.99988
 Cu1176 Cu 1.10960 1.10974 0.99990
 Cu1177 Cu 0.91805 0.99974 1.08221
 Cu1178 Cu 0.89063 0.99983 1.10978
 Cu1179 Cu 1.08242 0.99982 1.08211
 Cu1180 Cu 1.10980 0.99988 1.10970
 C1181 C 1.05121 0.94886 1.11546
 H1182 H 1.04542 0.95470 1.10182
 C1183 C 1.06688 0.93300 1.15000
 C1184 C 0.94915 1.05085 1.11526
 H1185 H 0.95507 1.04493 1.10172
 C1186 C 0.93312 1.06683 1.14955
 C1187 C 0.88488 1.05107 1.05129
 H1188 H 0.89827 1.04499 1.04524
 C1189 C 0.85094 1.06744 1.06760
 C1190 C 1.11565 0.94874 1.05133
 H1191 H 1.10212 0.95468 1.04546
 C1192 C 1.14993 0.93264 1.06719
 C1193 C 1.05132 0.88444 1.05167
 H1194 H 1.04527 0.89787 1.04563
 C1195 C 1.06761 0.85041 1.06799
 C1196 C 0.94905 1.11540 1.05084
 H1197 H 0.95485 1.10178 1.04499
 C1198 C 0.93333 1.14988 1.06671
 C1199 C 0.94885 0.94848 1.11558
 H1200 H 0.95484 0.95447 1.10211
 C1201 C 0.93268 0.93229 1.14974
 C1202 C 1.05116 1.05089 1.11521
 H1203 H 1.04531 1.04497 1.10165
 C1204 C 1.06698 1.06690 1.14955
 C1205 C 0.94909 0.88484 1.05110
 H1206 H 0.95507 0.89832 1.04512
 C1207 C 0.93294 0.85071 1.06728
 C1208 C 1.05105 1.11546 1.05092
 H1209 H 1.04507 1.10203 1.04487
 C1210 C 1.06719 1.14948 1.06725
 C1211 C 0.88463 0.94892 1.05112
 H1212 H 0.89812 0.95482 1.04513
 C1213 C 0.85047 0.93299 1.06733
 C1214 C 1.11534 1.05116 1.05110
 H1215 H 1.10181 1.04526 1.04523
 C1216 C 1.14964 1.06714 1.06695
 O1217 O 0.98086 0.42878 0.40165
 O1218 O 0.98100 0.40582 0.37880
 C1219 C 0.97408 0.42169 0.38577
 C1220 C 0.95749 0.43159 0.37580
 C1221 C 0.94918 0.42350 0.35873
 H1222 H 0.95538 0.41036 0.35222
 O1223 O 1.01955 0.57093 0.40175
 O1224 O 1.01942 0.59382 0.37879
 C1225 C 1.02628 0.57792 0.38580
 C1226 C 1.04272 0.56785 0.37571
 C1227 C 1.05067 0.57562 0.35830
 H1228 H 1.04430 0.58863 0.35166
 O1229 O 0.90215 0.48037 0.42855
 O1230 O 0.87932 0.48053 0.40559
 C1231 C 0.88624 0.47367 0.42152
 C1232 C 0.87613 0.45725 0.43160
 C1233 C 0.85890 0.44916 0.42370
 H1234 H 0.85239 0.45540 0.41056
 O1235 O 1.09810 0.51911 0.42885
 O1236 O 1.12102 0.51907 0.40598
 C1237 C 1.11402 0.52586 0.42190
 C1238 C 1.12405 0.54227 0.43204
 C1239 C 1.14145 0.55021 0.42435
 H1240 H 1.14814 0.54383 0.41138
 O1241 O 0.92893 0.40213 0.48038
 O1242 O 0.90618 0.37913 0.48039
 C1243 C 0.92204 0.38619 0.47358
 C1244 C 0.93222 0.37619 0.45715
 C1245 C 0.92449 0.35888 0.44900
 H1246 H 0.91141 0.35227 0.45518
 O1247 O 1.07096 0.59783 0.48057
 O1248 O 1.09379 0.62075 0.48064
 C1249 C 1.07792 0.61377 0.47382
 C1250 C 1.06782 0.62389 0.45740
 C1251 C 1.07549 0.64134 0.44948
 H1252 H 1.08844 0.64800 0.45586
 O1253 O 0.92934 0.51872 0.40191
 O1254 O 0.90654 0.51892 0.37892
 C1255 C 0.92241 0.52564 0.38601
 C1256 C 0.93246 0.54221 0.37610
 C1257 C 0.92446 0.55054 0.35898
 H1258 H 0.91136 0.54436 0.35242
 O1259 O 1.07111 0.48092 0.40194
 O1260 O 1.09397 0.48083 0.37900
 C1261 C 1.07804 0.47413 0.38601
 C1262 C 1.06784 0.45779 0.37592
 C1263 C 1.07554 0.44983 0.35850
 H1264 H 1.08858 0.45610 0.35188
 O1265 O 1.01928 0.40221 0.42879
 O1266 O 1.01947 0.37924 0.40595
 C1267 C 1.02613 0.38627 0.42190
 C1268 C 1.04245 0.37619 0.43217
 C1269 C 1.05046 0.35878 0.42450
 H1270 H 1.04426 0.35216 0.41142
 O1271 O 0.98117 0.59770 0.42878
 O1272 O 0.98107 0.62067 0.40588
 C1273 C 0.97435 0.61364 0.42183
 C1274 C 0.95796 0.62369 0.43200
 C1275 C 0.95005 0.64118 0.42435
 H1276 H 0.95641 0.64788 0.41136
 O1277 O 0.90232 0.57072 0.48045
 O1278 O 0.87940 0.59360 0.48038
 C1279 C 0.88644 0.57770 0.47360
 C1280 C 0.87648 0.56759 0.45711
 C1281 C 0.85921 0.57541 0.44897
 H1282 H 0.85258 0.58848 0.45520
 O1283 O 1.09793 0.42871 0.48070
 O1284 O 1.12079 0.40577 0.48067
 C1285 C 1.11379 0.42168 0.47383
 C1286 C 1.12379 0.43173 0.45728
 C1287 C 1.14105 0.42384 0.44914
 H1288 H 1.14761 0.41074 0.45539
 O1289 O 0.98118 0.57073 0.40202
 O1290 O 0.98102 0.59365 0.37909
 C1291 C 0.97429 0.57773 0.38614
 C1292 C 0.95780 0.56768 0.37618
 C1293 C 0.94953 0.57575 0.35907
 H1294 H 0.95569 0.58891 0.35257
 O1295 O 1.01922 0.42920 0.40190
 O1296 O 1.01939 0.40627 0.37902
 C1297 C 1.02606 0.42224 0.38599
 C1298 C 1.04241 0.43243 0.37591
 C1299 C 1.05036 0.42472 0.35848
 H1300 H 1.04405 0.41172 0.35183
 O1301 O 1.09801 0.48068 0.42876
 O1302 O 1.12092 0.48060 0.40588
 C1303 C 1.11388 0.47379 0.42178
 C1304 C 1.12383 0.45724 0.43186
 C1305 C 1.14109 0.44912 0.42401
 H1306 H 1.14770 0.45544 0.41096
 O1307 O 0.90240 0.51876 0.42867
 O1308 O 0.87957 0.51893 0.40571
 C1309 C 0.88656 0.52565 0.42165
 C1310 C 0.87655 0.54213 0.43172
 C1311 C 0.85930 0.55021 0.42383
 H1312 H 0.85275 0.54392 0.41075
 O1313 O 0.92922 0.59754 0.48053
 O1314 O 0.90635 0.62047 0.48046
 C1315 C 0.92228 0.61348 0.47373
 C1316 C 0.93248 0.62361 0.45738
 C1317 C 0.92483 0.64109 0.44947
 H1318 H 0.91182 0.64773 0.45579
 O1319 O 1.07083 0.40212 0.48095
 O1320 O 1.09366 0.37914 0.48094
 C1321 C 1.07776 0.38618 0.47418
 C1322 C 1.06764 0.37613 0.45778
 C1323 C 1.07540 0.35871 0.44988
 H1324 H 1.08836 0.35206 0.45628
 O1325 O 1.07141 0.51930 0.40179
 O1326 O 1.09428 0.51926 0.37886
 C1327 C 1.07839 0.52608 0.38585
 C1328 C 1.06826 0.54252 0.37575
 C1329 C 1.07596 0.55055 0.35834
 H1330 H 1.08900 0.54429 0.35171
 O1331 O 0.92906 0.48028 0.40173
 O1332 O 0.90625 0.48044 0.37875
 C1333 C 0.92207 0.47353 0.38580
 C1334 C 0.93204 0.45697 0.37582
 C1335 C 0.92398 0.44866 0.35875
 H1336 H 0.91082 0.45483 0.35226
 O1337 O 1.01950 0.59780 0.42867
 O1338 O 1.01942 0.62073 0.40575
 C1339 C 1.02622 0.61375 0.42168
 C1340 C 1.04254 0.62387 0.43185
 C1341 C 1.05046 0.64132 0.42417
 H1342 H 1.04418 0.64796 0.41111
 O1343 O 0.98095 0.40222 0.42880
 O1344 O 0.98114 0.37923 0.40598
 C1345 C 0.97426 0.38627 0.42185
 C1346 C 0.95781 0.37622 0.43189
 C1347 C 0.94983 0.35892 0.42400
 H1348 H 0.95621 0.35234 0.41097
 O1349 O 1.09786 0.57095 0.48052
 O1350 O 1.12073 0.59384 0.48058
 C1351 C 1.11378 0.57793 0.47376
 C1352 C 1.12391 0.56779 0.45737
 C1353 C 1.14129 0.57552 0.44940
 H1354 H 1.14786 0.58858 0.45567
 O1355 O 0.90193 0.42885 0.48042
 O1356 O 0.87911 0.40590 0.48046
 C1357 C 0.88606 0.42182 0.47363
 C1358 C 0.87603 0.43189 0.45713
 C1359 C 0.85879 0.42404 0.44900
 H1360 H 0.85219 0.41099 0.45531
 Cu1361 Cu 1.00008 0.41791 0.41756
 Cu1362 Cu 1.00030 0.39034 0.39013
 Cu1363 Cu 1.00038 0.58199 0.41759
 Cu1364 Cu 1.00022 0.60950 0.39006
 Cu1365 Cu 0.91803 0.49950 0.41751
 Cu1366 Cu 0.89064 0.49973 0.38992
 Cu1367 Cu 1.08238 0.50002 0.41763
 Cu1368 Cu 1.10986 0.49993 0.39014
 C1369 C 0.94891 0.44844 0.38413
 H1370 H 0.95500 0.45455 0.39749
 C1371 C 0.93247 0.43197 0.35029
 C1372 C 1.05152 0.55117 0.38421
 H1373 H 1.04570 0.54530 0.39782
 C1374 C 1.06724 0.56706 0.34970
 C1375 C 0.88446 0.44863 0.44844
 H1376 H 0.89794 0.45456 0.45441
 C1377 C 0.85031 0.43260 0.43233
 C1378 C 1.11550 0.55105 0.44869
 H1379 H 1.10190 0.54524 0.45449
 C1380 C 1.14998 0.56679 0.43294
 C1381 C 0.94901 0.38465 0.44859
 H1382 H 0.95485 0.39818 0.45454
 C1383 C 0.93323 0.35035 0.43247
 C1384 C 1.05121 0.61538 0.44859
 H1385 H 1.04542 0.60174 0.45439
 C1386 C 1.06688 0.64998 0.43293
 C1387 C 0.94926 0.55078 0.38451
 H1388 H 0.95531 0.54468 0.39791
 C1389 C 0.93290 0.56727 0.35058
 C1390 C 1.05115 0.44910 0.38442
 H1391 H 1.04535 0.45490 0.39806
 C1392 C 1.06689 0.43333 0.34990
 C1393 C 1.05103 0.38466 0.44894
 H1394 H 1.04518 0.39828 0.45474
 C1395 C 1.06689 0.35014 0.43329
 C1396 C 0.94917 0.61512 0.44865
 H1397 H 0.95493 0.60144 0.45441
 C1398 C 0.93352 0.64977 0.43299
 C1399 C 0.88494 0.55082 0.44849
 H1400 H 0.89843 0.54489 0.45445
 C1401 C 0.85072 0.56678 0.43237
 C1402 C 1.11538 0.44853 0.44861
 H1403 H 1.10188 0.45448 0.45455
 C1404 C 1.14961 0.43247 0.43255
 O1405 O 1.01907 0.42880 0.59782
 O1406 O 1.01907 0.40584 0.62071
 C1407 C 1.02584 0.42178 0.61374
 C1408 C 1.04226 0.43185 0.62380
 C1409 C 1.05038 0.42391 0.64106
 H1410 H 1.04413 0.41081 0.64762
 O1411 O 0.98072 0.57076 0.59781
 O1412 O 0.98060 0.59367 0.62071
 C1413 C 0.97389 0.57773 0.61372
 C1414 C 0.95752 0.56756 0.62380
 C1415 C 0.94942 0.57533 0.64113
 H1416 H 0.95562 0.58842 0.64773
 O1417 O 0.90242 0.51889 0.57098
 O1418 O 0.87950 0.51893 0.59386
 C1419 C 0.88653 0.52573 0.57795
 C1420 C 0.87654 0.54222 0.56784
 C1421 C 0.85937 0.55046 0.57578
 H1422 H 0.85285 0.54428 0.58894
 O1423 O 1.09776 0.48053 0.57114
 O1424 O 1.12065 0.48048 0.59404
 C1425 C 1.11366 0.47371 0.57812
 C1426 C 1.12370 0.45728 0.56798
 C1427 C 1.14100 0.44916 0.57577
 H1428 H 1.14759 0.45536 0.58886
 O1429 O 1.07123 0.40192 0.51938
 O1430 O 1.09408 0.37897 0.51938
 C1431 C 1.07823 0.38602 0.52623
 C1432 C 1.06822 0.37603 0.54280
 C1433 C 1.07619 0.35887 0.55111
 H1434 H 1.08933 0.35233 0.54496
 O1435 O 0.92900 0.59763 0.51893
 O1436 O 0.90613 0.62056 0.51889
 C1437 C 0.92202 0.61356 0.52570
 C1438 C 0.93213 0.62363 0.54212
 C1439 C 0.92444 0.64107 0.55007
 H1440 H 0.91143 0.64772 0.54376
 O1441 O 0.92912 0.48037 0.59792
 O1442 O 0.90621 0.48036 0.62081
 C1443 C 0.92210 0.47354 0.61381
 C1444 C 0.93211 0.45702 0.62384
 C1445 C 0.92423 0.44888 0.64111
 H1446 H 0.91118 0.45517 0.64770
 O1447 O 1.07092 0.51901 0.59793
 O1448 O 1.09375 0.51902 0.62088
 C1449 C 1.07788 0.52584 0.61384
 C1450 C 1.06777 0.54233 0.62383
 C1451 C 1.07559 0.55050 0.64110
 H1452 H 1.08866 0.54428 0.64771
 O1453 O 0.98094 0.40196 0.57067
 O1454 O 0.98089 0.37895 0.59351
 C1455 C 0.97417 0.38600 0.57757
 C1456 C 0.95781 0.37597 0.56737
 C1457 C 0.94984 0.35856 0.57510
 H1458 H 0.95615 0.35190 0.58812
 O1459 O 1.01907 0.59764 0.57091
 O1460 O 1.01904 0.62057 0.59379
 C1461 C 1.02587 0.61354 0.57790
 C1462 C 1.04238 0.62352 0.56785
 C1463 C 1.05059 0.64069 0.57582
 H1464 H 1.04439 0.64723 0.58894
 O1465 O 0.90208 0.42888 0.51885
 O1466 O 0.87926 0.40595 0.51897
 C1467 C 0.88624 0.42187 0.52573
 C1468 C 0.87627 0.43199 0.54222
 C1469 C 0.85892 0.42430 0.55030
 H1470 H 0.85223 0.41131 0.54402
 O1471 O 1.09773 0.57074 0.51894
 O1472 O 1.12061 0.59361 0.51902
 C1473 C 1.11361 0.57767 0.52576
 C1474 C 1.12366 0.56749 0.54218
 C1475 C 1.14101 0.57522 0.55017
 H1476 H 1.14762 0.58826 0.54386
 O1477 O 1.01906 0.57075 0.59779
 O1478 O 1.01898 0.59365 0.62071
 C1479 C 1.02582 0.57775 0.61371
 C1480 C 1.04229 0.56771 0.62377
 C1481 C 1.05036 0.57562 0.64104
 H1482 H 1.04406 0.58870 0.64759
 O1483 O 0.98074 0.42851 0.59789
 O1484 O 0.98070 0.40553 0.62077
 C1485 C 0.97391 0.42146 0.61378
 C1486 C 0.95745 0.43152 0.62381
 C1487 C 0.94932 0.42362 0.64107
 H1488 H 0.95554 0.41051 0.64764
 O1489 O 1.09767 0.51891 0.57093
 O1490 O 1.12056 0.51891 0.59382
 C1491 C 1.11358 0.52568 0.57787
 C1492 C 1.12365 0.54206 0.56767
 C1493 C 1.14101 0.55003 0.57539
 H1494 H 1.14763 0.54373 0.58845
 O1495 O 0.90245 0.48048 0.57088
 O1496 O 0.87951 0.48052 0.59374
 C1497 C 0.88653 0.47374 0.57783
 C1498 C 0.87645 0.45737 0.56770
 C1499 C 0.85911 0.44944 0.57552
 H1500 H 0.85257 0.45574 0.58860
 O1501 O 1.07088 0.59764 0.51901
 O1502 O 1.09373 0.62054 0.51911
 C1503 C 1.07784 0.61351 0.52588
 C1504 C 1.06777 0.62350 0.54239
 C1505 C 1.07571 0.64067 0.55060
 H1506 H 1.08880 0.64721 0.54435
 O1507 O 0.92904 0.40210 0.51878
 O1508 O 0.90628 0.37910 0.51885
 C1509 C 0.92217 0.38614 0.52558
 C1510 C 0.93237 0.37605 0.54196
 C1511 C 0.92466 0.35866 0.54996
 H1512 H 0.91163 0.35206 0.54368
 O1513 O 1.07079 0.48058 0.59789
 O1514 O 1.09362 0.48053 0.62085
 C1515 C 1.07774 0.47375 0.61382
 C1516 C 1.06766 0.45726 0.62384
 C1517 C 1.07552 0.44907 0.64109
 H1518 H 1.08859 0.45529 0.64768
 O1519 O 0.92924 0.51878 0.59788
 O1520 O 0.90635 0.51879 0.62078
 C1521 C 0.92224 0.52556 0.61379
 C1522 C 0.93229 0.54200 0.62385
 C1523 C 0.92444 0.55002 0.64118
 H1524 H 0.91144 0.54368 0.64780
 O1525 O 0.98072 0.59760 0.57080
 O1526 O 0.98065 0.62055 0.59365
 C1527 C 0.97392 0.61354 0.57772
 C1528 C 0.95755 0.62362 0.56753
 C1529 C 0.94964 0.64107 0.57521
 H1530 H 0.95597 0.64772 0.58821
 O1531 O 1.01931 0.40185 0.57106
 O1532 O 1.01926 0.37886 0.59393
 C1533 C 1.02613 0.38595 0.57808
 C1534 C 1.04271 0.37600 0.56812
 C1535 C 1.05092 0.35885 0.57617
 H1536 H 1.04465 0.35230 0.58927
 O1537 O 1.09784 0.42897 0.51917
 O1538 O 1.12072 0.40604 0.51915
 C1539 C 1.11373 0.42196 0.52595
 C1540 C 1.12374 0.43200 0.54242
 C1541 C 1.14103 0.42413 0.55045
 H1542 H 1.14763 0.41109 0.54410
 O1543 O 0.90236 0.57061 0.51892
 O1544 O 0.87944 0.59350 0.51888
 C1545 C 0.88647 0.57760 0.52573
 C1546 C 0.87650 0.56756 0.54227
 C1547 C 0.85932 0.57553 0.55045
 H1548 H 0.85276 0.58862 0.54416
 Cu1549 Cu 1.00000 0.41758 0.58207
 Cu1550 Cu 0.99996 0.38998 0.60953
 Cu1551 Cu 0.99988 0.58190 0.58204
 Cu1552 Cu 0.99980 0.60942 0.60951
 Cu1553 Cu 0.91776 0.41779 0.49960
 Cu1554 Cu 0.89042 0.39021 0.49968
 Cu1555 Cu 1.08218 0.41773 0.50005
 Cu1556 Cu 1.10961 0.39018 0.50002
 Cu1557 Cu 0.91801 0.58183 0.49971
 Cu1558 Cu 0.89051 0.60932 0.49964
 Cu1559 Cu 1.08207 0.58200 0.49973
 Cu1560 Cu 1.10950 0.60949 0.49985
 Cu1561 Cu 0.91811 0.49963 0.58213
 Cu1562 Cu 0.89059 0.49965 0.60960
 Cu1563 Cu 1.08200 0.49976 0.58219
 Cu1564 Cu 1.10943 0.49974 0.60971
 C1565 C 1.05090 0.44865 0.61541
 H1566 H 1.04496 0.45464 0.60190
 C1567 C 1.06696 0.43245 0.64961
 C1568 C 0.94895 0.55077 0.61537
 H1569 H 0.95486 0.54490 0.60180
 C1570 C 0.93293 0.56664 0.64972
 C1571 C 0.88490 0.55078 0.55096
 H1572 H 0.89833 0.54475 0.54496
 C1573 C 0.85086 0.56707 0.56716
 C1574 C 1.11529 0.44869 0.55118
 H1575 H 1.10175 0.45462 0.54530
 C1576 C 1.14956 0.43263 0.56707
 C1577 C 1.05136 0.38439 0.55132
 H1578 H 1.04533 0.39781 0.54524
 C1579 C 1.06760 0.35037 0.56775
 C1580 C 0.94880 0.61511 0.55087
 H1581 H 0.95459 0.60146 0.54509
 C1582 C 0.93312 0.64969 0.56657
 C1583 C 0.94885 0.44834 0.61541
 H1584 H 0.95480 0.45430 0.60190
 C1585 C 0.93275 0.43223 0.64963
 C1586 C 1.05100 0.55094 0.61538
 H1587 H 1.04509 0.54497 0.60187
 C1588 C 1.06695 0.56709 0.64962
 C1589 C 0.94907 0.38451 0.55067
 H1590 H 0.95488 0.39813 0.54484
 C1591 C 0.93330 0.35002 0.56649
 C1592 C 1.05097 0.61513 0.55101
 H1593 H 1.04496 0.60170 0.54499
 C1594 C 1.06722 0.64916 0.56726
 C1595 C 0.88482 0.44866 0.55093
 H1596 H 0.89839 0.45447 0.54503
 C1597 C 0.85044 0.43296 0.56691
 C1598 C 1.11519 0.55078 0.55093
 H1599 H 1.10161 0.54495 0.54508
 C1600 C 1.14959 0.56657 0.56673
 O1601 O 0.57081 1.01966 0.59812
 O1602 O 0.59372 1.01961 0.62100
 C1603 C 0.57785 1.02647 0.61401
 C1604 C 0.56786 1.04302 0.62400
 C1605 C 0.57580 1.05120 0.64120
 H1606 H 0.58886 1.04491 0.64777
 O1607 O 0.42889 0.98086 0.59756
 O1608 O 0.40606 0.98088 0.62054
 C1609 C 0.42192 0.97406 0.61349
 C1610 C 0.43193 0.95755 0.62351
 C1611 C 0.42385 0.94928 0.64062
 H1612 H 0.41070 0.95547 0.64708
 O1613 O 0.51903 1.09802 0.57080
 O1614 O 0.51899 1.12093 0.59371
 C1615 C 0.52579 1.11393 0.57779
 C1616 C 0.54225 1.12393 0.56773
 C1617 C 0.55051 1.14101 0.57578
 H1618 H 0.54433 1.14751 0.58895
 O1619 O 0.48078 0.90250 0.57081
 O1620 O 0.48082 0.87954 0.59371
 C1621 C 0.47401 0.88658 0.57781
 C1622 C 0.45757 0.87654 0.56777
 C1623 C 0.44942 0.85938 0.57583
 H1624 H 0.45563 0.85290 0.58900
 O1625 O 0.59743 1.07119 0.51893
 O1626 O 0.62036 1.09402 0.51891
 C1627 C 0.61333 1.07813 0.52572
 C1628 C 0.62336 1.06803 0.54220
 C1629 C 0.64065 1.07586 0.55021
 H1630 H 0.64724 1.08890 0.54386
 O1631 O 0.40201 0.92886 0.51897
 O1632 O 0.37915 0.90596 0.51912
 C1633 C 0.38617 0.92186 0.52588
 C1634 C 0.37625 0.93192 0.54243
 C1635 C 0.35915 0.92396 0.55077
 H1636 H 0.35262 0.91082 0.54462
 O1637 O 0.48084 1.07099 0.59765
 O1638 O 0.48069 1.09388 0.62057
 C1639 C 0.47398 1.07795 0.61354
 C1640 C 0.45752 1.06785 0.62351
 C1641 C 0.44935 1.07577 0.64072
 H1642 H 0.45560 1.08884 0.64731
 O1643 O 0.51905 0.92935 0.59779
 O1644 O 0.51905 0.90642 0.62071
 C1645 C 0.52583 0.92234 0.61371
 C1646 C 0.54225 0.93238 0.62378
 C1647 C 0.55043 0.92433 0.64095
 H1648 H 0.54424 0.91116 0.64742
 O1649 O 0.59742 0.98111 0.57120
 O1650 O 0.62037 0.98104 0.59404
 C1651 C 0.61331 0.97424 0.57816
 C1652 C 0.62325 0.95772 0.56808
 C1653 C 0.64043 0.94947 0.57600
 H1654 H 0.64698 0.95565 0.58913
 O1655 O 0.40194 1.01927 0.57074
 O1656 O 0.37910 1.01924 0.59370
 C1657 C 0.38606 1.02606 0.57778
 C1658 C 0.37601 1.04256 0.56777
 C1659 C 0.35875 1.05060 0.57570
 H1660 H 0.35218 1.04421 0.58873
 O1661 O 0.42895 1.09814 0.51936
 O1662 O 0.40606 1.12105 0.51923
 C1663 C 0.42195 1.11406 0.52609
 C1664 C 0.43202 1.12415 0.54252
 C1665 C 0.42424 1.14152 0.55053
 H1666 H 0.41119 1.14812 0.54424
 O1667 O 0.57079 0.90255 0.51909
 O1668 O 0.59365 0.87960 0.51910
 C1669 C 0.57779 0.88664 0.52591
 C1670 C 0.56781 0.87665 0.54246
 C1671 C 0.57591 0.85955 0.55075
 H1672 H 0.58904 0.85306 0.54453
 O1673 O 0.42894 1.01926 0.59746
 O1674 O 0.40612 1.01928 0.62044
 C1675 C 0.42199 1.02607 0.61339
 C1676 C 0.43206 1.04252 0.62342
 C1677 C 0.42412 1.05072 0.64063
 H1678 H 0.41100 1.04454 0.64716
 O1679 O 0.57062 0.98124 0.59809
 O1680 O 0.59352 0.98112 0.62097
 C1681 C 0.57762 0.97437 0.61398
 C1682 C 0.56758 0.95784 0.62394
 C1683 C 0.57551 0.94954 0.64112
 H1684 H 0.58857 0.95575 0.64772
 O1685 O 0.51913 0.90245 0.57096
 O1686 O 0.51918 0.87950 0.59387
 C1687 C 0.52597 0.88655 0.57797
 C1688 C 0.54249 0.87660 0.56794
 C1689 C 0.55083 0.85951 0.57600
 H1690 H 0.54470 0.85299 0.58918
 O1691 O 0.48071 1.09823 0.57108
 O1692 O 0.48064 1.12116 0.59396
 C1693 C 0.47388 1.11414 0.57805
 C1694 C 0.45745 1.12419 0.56792
 C1695 C 0.44943 1.14156 0.57567
 H1696 H 0.45574 1.14820 0.58869
 O1697 O 0.40200 1.07138 0.51936
 O1698 O 0.37906 1.09424 0.51925
 C1699 C 0.38607 1.07835 0.52610
 C1700 C 0.37602 1.06821 0.54254
 C1701 C 0.35876 1.07603 0.55073
 H1702 H 0.35220 1.08917 0.54457
 O1703 O 0.59748 0.92949 0.51912
 O1704 O 0.62035 0.90655 0.51914
 C1705 C 0.61333 0.92245 0.52597
 C1706 C 0.62328 0.93241 0.54254
 C1707 C 0.64045 0.92441 0.55072
 H1708 H 0.64701 0.91133 0.54443
 O1709 O 0.48071 0.92919 0.59782
 O1710 O 0.48069 0.90625 0.62074
 C1711 C 0.47388 0.92215 0.61370
 C1712 C 0.45733 0.93215 0.62364
 C1713 C 0.44901 0.92411 0.64075
 H1714 H 0.45519 0.91097 0.64731
 O1715 O 0.51920 1.07149 0.59802
 O1716 O 0.51908 1.09436 0.62096
 C1717 C 0.52597 1.07851 0.61394
 C1718 C 0.54250 1.06850 0.62396
 C1719 C 0.55071 1.07646 0.64114
 H1720 H 0.54451 1.08960 0.64768
 O1721 O 0.40210 0.98083 0.57067
 O1722 O 0.37928 0.98081 0.59364
 C1723 C 0.38627 0.97399 0.57773
 C1724 C 0.37631 0.95743 0.56777
 C1725 C 0.35921 0.94921 0.57585
 H1726 H 0.35271 0.95547 0.58898
 O1727 O 0.59745 1.01951 0.57105
 O1728 O 0.62041 1.01948 0.59387
 C1729 C 0.61338 1.02628 0.57795
 C1730 C 0.62339 1.04269 0.56775
 C1731 C 0.64068 1.05077 0.57552
 H1732 H 0.64728 1.04454 0.58862
 O1733 O 0.42900 0.90217 0.51889
 O1734 O 0.40620 0.87922 0.51906
 C1735 C 0.42208 0.88628 0.52579
 C1736 C 0.43219 0.87637 0.54233
 C1737 C 0.42431 0.85920 0.55063
 H1738 H 0.41124 0.85259 0.54444
 O1739 O 0.57062 1.09810 0.51891
 O1740 O 0.59353 1.12095 0.51894
 C1741 C 0.57764 1.11396 0.52575
 C1742 C 0.56763 1.12394 0.54229
 C1743 C 0.57567 1.14102 0.55060
 H1744 H 0.58880 1.14753 0.54443
 Cu1745 Cu 0.58178 1.00039 0.58234
 Cu1746 Cu 0.60931 1.00031 0.60977
 Cu1747 Cu 0.41775 1.00007 0.58179
 Cu1748 Cu 0.39034 1.00006 0.60938
 Cu1749 Cu 0.49996 1.08239 0.58210
 Cu1750 Cu 0.49983 1.10988 0.60961
 Cu1751 Cu 0.49992 0.91818 0.58205
 Cu1752 Cu 0.49994 0.89062 0.60956
 C1753 C 0.55109 1.05167 0.61560
 H1754 H 0.54508 1.04566 0.60215
 C1755 C 0.56730 1.06787 0.64968
 C1756 C 0.44879 0.94899 0.61523
 H1757 H 0.45488 0.95507 0.60184
 C1758 C 0.43232 0.93261 0.64914
 C1759 C 0.55080 1.11561 0.55085
 H1760 H 0.54473 1.10224 0.54476
 C1761 C 0.56718 1.14945 0.56730
 C1762 C 0.44895 0.88484 0.55090
 H1763 H 0.45491 0.89828 0.54481
 C1764 C 0.43285 0.85080 0.56734
 C1765 C 0.61493 1.05132 0.55097
 H1766 H 0.60139 1.04542 0.54510
 C1767 C 0.64922 1.06731 0.56682
 C1768 C 0.38462 0.94878 0.55094
 H1769 H 0.39800 0.95481 0.54482
 C1770 C 0.35073 0.93254 0.56743
 C1771 C 0.44889 1.05109 0.61507
 H1772 H 0.45489 1.04511 0.60160
 C1773 C 0.43270 1.06730 0.64918
 C1774 C 0.55082 0.94926 0.61549
 H1775 H 0.54482 0.95533 0.60205
 C1776 C 0.56700 0.93283 0.64952
 C1777 C 0.61488 0.94917 0.55124
 H1778 H 0.60143 0.95520 0.54526
 C1779 C 0.64893 0.93286 0.56740
 C1780 C 0.38442 1.05135 0.55107
 H1781 H 0.39792 1.04544 0.54509
 C1782 C 0.35022 1.06728 0.56727
 C1783 C 0.44874 1.11569 0.55123
 H1784 H 0.45460 1.10210 0.54540
 C1785 C 0.43287 1.15012 0.56706
 C1786 C 0.55098 0.88496 0.55104
 H1787 H 0.54486 0.89833 0.54495
 C1788 C 0.56749 0.85109 0.56747
 O1789 O 0.57060 0.98099 0.40197
 O1790 O 0.59342 0.98090 0.37899
 C1791 C 0.57753 0.97414 0.38606
 C1792 C 0.56742 0.95766 0.37610
 C1793 C 0.57530 0.94946 0.35887
 H1794 H 0.58839 0.95565 0.35229
 O1795 O 0.42932 1.01886 0.40203
 O1796 O 0.40640 1.01913 0.37916
 C1797 C 0.42232 1.02582 0.38618
 C1798 C 0.43232 1.04237 0.37624
 C1799 C 0.42426 1.05066 0.35913
 H1800 H 0.41118 1.04441 0.35259
 O1801 O 0.48082 1.09795 0.42899
 O1802 O 0.48069 1.12085 0.40604
 C1803 C 0.47396 1.11383 0.42199
 C1804 C 0.45750 1.12386 0.43206
 C1805 C 0.44939 1.14110 0.42409
 H1806 H 0.45564 1.14762 0.41097
 O1807 O 0.51867 0.90226 0.42883
 O1808 O 0.51892 0.87930 0.40599
 C1809 C 0.52562 0.88640 0.42189
 C1810 C 0.54218 0.87654 0.43198
 C1811 C 0.55054 0.85942 0.42403
 H1812 H 0.54438 0.85281 0.41092
 O1813 O 0.59767 0.92936 0.48063
 O1814 O 0.62054 0.90643 0.48068
 C1815 C 0.61355 0.92233 0.47383
 C1816 C 0.62355 0.93232 0.45730
 C1817 C 0.64076 0.92435 0.44918
 H1818 H 0.64732 0.91128 0.45550
 O1819 O 0.40243 1.07103 0.48094
 O1820 O 0.37947 1.09388 0.48076
 C1821 C 0.38655 1.07796 0.47404
 C1822 C 0.37663 1.06781 0.45756
 C1823 C 0.35936 1.07562 0.44943
 H1824 H 0.35273 1.08869 0.45566
 O1825 O 0.51923 1.07122 0.40200
 O1826 O 0.51905 1.09408 0.37901
 C1827 C 0.52593 1.07820 0.38604
 C1828 C 0.54234 1.06815 0.37593
 C1829 C 0.55030 1.07603 0.35858
 H1830 H 0.54398 1.08911 0.35203
 O1831 O 0.48028 0.92877 0.40164
 O1832 O 0.48045 0.90583 0.37877
 C1833 C 0.47354 0.92170 0.38573
 C1834 C 0.45701 0.93165 0.37571
 C1835 C 0.44867 0.92356 0.35866
 H1836 H 0.45482 0.91038 0.35219
 O1837 O 0.59755 1.01931 0.42874
 O1838 O 0.62043 1.01930 0.40582
 C1839 C 0.61345 1.02608 0.42176
 C1840 C 0.62347 1.04249 0.43190
 C1841 C 0.64080 1.05053 0.42414
 H1842 H 0.64745 1.04423 0.41111
 O1843 O 0.40222 0.98050 0.42872
 O1844 O 0.37928 0.98076 0.40587
 C1845 C 0.38628 0.97384 0.42174
 C1846 C 0.37621 0.95739 0.43178
 C1847 C 0.35901 0.94927 0.42383
 H1848 H 0.35251 0.95552 0.41069
 O1849 O 0.57071 1.09823 0.48048
 O1850 O 0.59360 1.12110 0.48048
 C1851 C 0.57771 1.11414 0.47368
 C1852 C 0.56765 1.12422 0.45721
 C1853 C 0.57552 1.14149 0.44909
 H1854 H 0.58857 1.14805 0.45536
 O1855 O 0.42867 0.90196 0.48046
 O1856 O 0.40586 0.87902 0.48057
 C1857 C 0.42169 0.88605 0.47368
 C1858 C 0.43169 0.87609 0.45713
 C1859 C 0.42377 0.85892 0.44888
 H1860 H 0.41068 0.85236 0.45510
 O1861 O 0.42886 0.98043 0.40165
 O1862 O 0.40594 0.98068 0.37879
 C1863 C 0.42177 0.97371 0.38574
 C1864 C 0.43165 0.95713 0.37571
 C1865 C 0.42354 0.94880 0.35865
 H1866 H 0.41040 0.95501 0.35217
 O1867 O 0.57091 1.01941 0.40169
 O1868 O 0.59372 1.01939 0.37870
 C1869 C 0.57786 1.02622 0.38575
 C1870 C 0.56777 1.04273 0.37576
 C1871 C 0.57549 1.05087 0.35841
 H1872 H 0.58852 1.04461 0.35173
 O1873 O 0.48030 0.90210 0.42871
 O1874 O 0.48053 0.87913 0.40587
 C1875 C 0.47361 0.88616 0.42172
 C1876 C 0.45711 0.87615 0.43171
 C1877 C 0.44894 0.85898 0.42370
 H1878 H 0.45518 0.85247 0.41058
 O1879 O 0.51917 1.09823 0.42874
 O1880 O 0.51905 1.12112 0.40578
 C1881 C 0.52589 1.11416 0.42170
 C1882 C 0.54231 1.12423 0.43175
 C1883 C 0.55043 1.14149 0.42383
 H1884 H 0.54421 1.14806 0.41071
 O1885 O 0.40195 0.92892 0.48056
 O1886 O 0.37909 0.90603 0.48064
 C1887 C 0.38607 0.92193 0.47379
 C1888 C 0.37608 0.93200 0.45728
 C1889 C 0.35887 0.92414 0.44911
 H1890 H 0.35227 0.91108 0.45539
 O1891 O 0.59739 1.07115 0.48050
 O1892 O 0.62031 1.09398 0.48048
 C1893 C 0.61330 1.07808 0.47371
 C1894 C 0.62337 1.06794 0.45731
 C1895 C 0.64070 1.07572 0.44930
 H1896 H 0.64727 1.08877 0.45559
 O1897 O 0.51861 0.92920 0.40200
 O1898 O 0.51883 0.90627 0.37912
 C1899 C 0.52551 0.92221 0.38613
 C1900 C 0.54198 0.93230 0.37614
 C1901 C 0.55011 0.92436 0.35891
 H1902 H 0.54386 0.91128 0.35235
 O1903 O 0.48088 1.07109 0.40212
 O1904 O 0.48069 1.09398 0.37915
 C1905 C 0.47400 1.07805 0.38622
 C1906 C 0.45754 1.06794 0.37627
 C1907 C 0.44920 1.07598 0.35916
 H1908 H 0.45528 1.08918 0.35266
 O1909 O 0.40252 1.01892 0.42895
 O1910 O 0.37957 1.01917 0.40610
 C1911 C 0.38665 1.02586 0.42202
 C1912 C 0.37669 1.04234 0.43215
 C1913 C 0.35943 1.05043 0.42429
 H1914 H 0.35285 1.04415 0.41122
 O1915 O 0.59767 0.98094 0.42859
 O1916 O 0.62054 0.98087 0.40566
 C1917 C 0.61355 0.97410 0.42159
 C1918 C 0.62355 0.95763 0.43172
 C1919 C 0.64076 0.94943 0.42385
 H1920 H 0.64733 0.95563 0.41073
 O1921 O 0.57062 0.90273 0.48066
 O1922 O 0.59349 0.87979 0.48068
 C1923 C 0.57761 0.88681 0.47387
 C1924 C 0.56760 0.87677 0.45739
 C1925 C 0.57569 0.85965 0.44919
 H1926 H 0.58884 0.85321 0.45541
 O1927 O 0.42899 1.09813 0.48093
 O1928 O 0.40608 1.12103 0.48074
 C1929 C 0.42200 1.11401 0.47402
 C1930 C 0.43210 1.12398 0.45750
 C1931 C 0.42424 1.14123 0.44927
 H1932 H 0.41118 1.14785 0.45549
 Cu1933 Cu 0.58190 1.00017 0.41753
 Cu1934 Cu 0.60932 1.00011 0.38998
 Cu1935 Cu 0.41804 0.99963 0.41762
 Cu1936 Cu 0.39050 0.99999 0.39018
 Cu1937 Cu 0.58173 1.08238 0.49970
 Cu1938 Cu 0.60925 1.10981 0.49969
 Cu1939 Cu 0.58185 0.91835 0.49987
 Cu1940 Cu 0.60930 0.89079 0.49989
 Cu1941 Cu 0.41788 1.08239 0.50018
 Cu1942 Cu 0.39036 1.10985 0.49998
 Cu1943 Cu 0.41769 0.91777 0.49970
 Cu1944 Cu 0.39028 0.89024 0.49987
 Cu1945 Cu 0.50006 1.08233 0.41777
 Cu1946 Cu 0.49985 1.10980 0.39018
 Cu1947 Cu 0.49943 0.91788 0.41759
 Cu1948 Cu 0.49972 0.89032 0.39014
 C1949 C 0.55064 0.94907 0.38454
 H1950 H 0.54469 0.95505 0.39804
 C1951 C 0.56672 0.93286 0.35038
 C1952 C 0.44910 1.05101 0.38460
 H1953 H 0.45519 1.04493 0.39800
 C1954 C 0.43262 1.06740 0.35070
 C1955 C 0.44886 1.11550 0.44888
 H1956 H 0.45480 1.10201 0.45490
 C1957 C 0.43282 1.14969 0.43261
 C1958 C 0.55072 0.88502 0.44879
 H1959 H 0.54460 0.89842 0.45480
 C1960 C 0.56725 0.85108 0.43256
 C1961 C 0.61516 0.94907 0.44857
 H1962 H 0.60169 0.95508 0.45452
 C1963 C 0.64928 0.93284 0.43251
 C1964 C 0.38511 1.05103 0.44891
 H1965 H 0.39862 1.04512 0.45485
 C1966 C 0.35087 1.06702 0.43283
 C1967 C 0.55107 1.05139 0.38431
 H1968 H 0.54525 1.04546 0.39788
 C1969 C 0.56682 1.06746 0.34990
 C1970 C 0.44851 0.94855 0.38400
 H1971 H 0.45464 0.95468 0.39734
 C1972 C 0.43199 0.93207 0.35021
 C1973 C 0.61497 1.05119 0.44862
 H1974 H 0.60142 1.04532 0.45448
 C1975 C 0.64932 1.06710 0.43276
 C1976 C 0.38452 0.94875 0.44862
 H1977 H 0.39798 0.95469 0.45462
 C1978 C 0.35042 0.93271 0.43244
 C1979 C 0.55092 1.11582 0.44856
 H1980 H 0.54498 1.10233 0.45453
 C1981 C 0.56699 1.15003 0.43244
 C1982 C 0.44848 0.88449 0.44853
 H1983 H 0.45447 0.89791 0.45458
 C1984 C 0.43233 0.85046 0.43222
 O1985 O 0.57082 0.51886 1.09807
 O1986 O 0.59365 0.51889 1.12102
 C1987 C 0.57775 0.52568 1.11399
 C1988 C 0.56761 0.54213 1.12401
 C1989 C 0.57534 0.55012 1.14140
 H1990 H 0.58834 0.54379 1.14805
 O1991 O 0.42886 0.48066 1.09817
 O1992 O 0.40597 0.48065 1.12108
 C1993 C 0.42186 0.47385 1.11408
 C1994 C 0.43189 0.45736 1.12414
 C1995 C 0.42395 0.44922 1.14138
 H1996 H 0.41085 0.45548 1.14790
 O1997 O 0.51904 0.59797 1.07114
 O1998 O 0.51912 0.62083 1.09408
 C1999 C 0.52587 0.61385 1.07813
 C2000 C 0.54231 0.62385 1.06798
 C2001 C 0.55042 0.64117 1.07573
 H2002 H 0.54419 0.64782 1.08879
 O2003 O 0.48090 0.40247 1.07121
 O2004 O 0.48085 0.37938 1.09398
 C2005 C 0.47415 0.38647 1.07805
 C2006 C 0.45788 0.37640 1.06776
 C2007 C 0.44998 0.35893 1.07541
 H2008 H 0.45624 0.35228 1.08847
 O2009 O 0.59774 0.57082 1.01942
 O2010 O 0.62059 0.59372 1.01946
 C2011 C 0.61359 0.57781 1.02626
 C2012 C 0.62358 0.56773 1.04279
 C2013 C 0.64075 0.57566 1.05098
 H2014 H 0.64728 0.58877 1.04475
 O2015 O 0.40237 0.42911 1.01896
 O2016 O 0.37958 0.40614 1.01905
 C2017 C 0.38654 0.42206 1.02583
 C2018 C 0.37655 0.43206 1.04236
 C2019 C 0.35938 0.42407 1.05051
 H2020 H 0.35286 0.41100 1.04421
 O2021 O 0.48068 0.57104 1.09797
 O2022 O 0.48065 0.59386 1.12095
 C2023 C 0.47387 0.57797 1.11391
 C2024 C 0.45745 0.56781 1.12394
 C2025 C 0.44940 0.57553 1.14131
 H2026 H 0.45563 0.58858 1.14794
 O2027 O 0.51911 0.42911 1.09845
 O2028 O 0.51908 0.40608 1.12127
 C2029 C 0.52591 0.42200 1.11432
 C2030 C 0.54245 0.43192 1.12433
 C2031 C 0.55062 0.42389 1.14152
 H2032 H 0.54432 0.41084 1.14810
 O2033 O 0.59782 0.48052 1.07124
 O2034 O 0.62073 0.48050 1.09411
 C2035 C 0.61373 0.47373 1.07819
 C2036 C 0.62378 0.45732 1.06801
 C2037 C 0.64112 0.44922 1.07574
 H2038 H 0.64775 0.45544 1.08880
 O2039 O 0.40200 0.51913 1.07129
 O2040 O 0.37907 0.51910 1.09416
 C2041 C 0.38608 0.52593 1.07826
 C2042 C 0.37607 0.54242 1.06817
 C2043 C 0.35878 0.55054 1.07599
 H2044 H 0.35218 0.54427 1.08906
 O2045 O 0.42886 0.59800 1.01961
 O2046 O 0.40597 0.62092 1.01950
 C2047 C 0.42187 0.61395 1.02634
 C2048 C 0.43201 0.62408 1.04271
 C2049 C 0.42430 0.64151 1.05067
 H2050 H 0.41126 0.64812 1.04439
 O2051 O 0.57085 0.40224 1.01931
 O2052 O 0.59369 0.37928 1.01936
 C2053 C 0.57784 0.38634 1.02618
 C2054 C 0.56782 0.37640 1.04276
 C2055 C 0.57575 0.35919 1.05099
 H2056 H 0.58881 0.35258 1.04474
 O2057 O 0.42904 0.51907 1.09797
 O2058 O 0.40616 0.51909 1.12088
 C2059 C 0.42206 0.52587 1.11388
 C2060 C 0.43213 0.54231 1.12393
 C2061 C 0.42434 0.55029 1.14131
 H2062 H 0.41134 0.54395 1.14793
 O2063 O 0.57110 0.48044 1.09827
 O2064 O 0.59396 0.48042 1.12119
 C2065 C 0.57809 0.47362 1.11419
 C2066 C 0.56803 0.45714 1.12423
 C2067 C 0.57596 0.44886 1.14143
 H2068 H 0.58911 0.45498 1.14793
 O2069 O 0.51922 0.40243 1.07144
 O2070 O 0.51918 0.37936 1.09423
 C2071 C 0.52601 0.38648 1.07837
 C2072 C 0.54250 0.37650 1.06829
 C2073 C 0.55068 0.35930 1.07626
 H2074 H 0.54449 0.35277 1.08941
 O2075 O 0.48069 0.59810 1.07119
 O2076 O 0.48072 0.62097 1.09412
 C2077 C 0.47392 0.61403 1.07818
 C2078 C 0.45751 0.62414 1.06806
 C2079 C 0.44956 0.64156 1.07577
 H2080 H 0.45591 0.64822 1.08876
 O2081 O 0.40213 0.57102 1.01956
 O2082 O 0.37919 0.59388 1.01944
 C2083 C 0.38620 0.57798 1.02629
 C2084 C 0.37614 0.56788 1.04273
 C2085 C 0.35885 0.57573 1.05078
 H2086 H 0.35229 0.58882 1.04448
 O2087 O 0.59778 0.42896 1.01924
 O2088 O 0.62065 0.40603 1.01925
 C2089 C 0.61367 0.42195 1.02604
 C2090 C 0.62373 0.43200 1.04248
 C2091 C 0.64105 0.42415 1.05046
 H2092 H 0.64763 0.41111 1.04411
 O2093 O 0.48072 0.42902 1.09844
 O2094 O 0.48064 0.40598 1.12125
 C2095 C 0.47385 0.42192 1.11429
 C2096 C 0.45732 0.43194 1.12427
 C2097 C 0.44913 0.42404 1.14153
 H2098 H 0.45537 0.41097 1.14815
 O2099 O 0.51904 0.57097 1.09796
 O2100 O 0.51907 0.59377 1.12096
 C2101 C 0.52584 0.57786 1.11391
 C2102 C 0.54224 0.56766 1.12396
 C2103 C 0.55024 0.57538 1.14135
 H2104 H 0.54397 0.58844 1.14797
 O2105 O 0.40227 0.48071 1.07107
 O2106 O 0.37934 0.48063 1.09394
 C2107 C 0.38640 0.47386 1.07803
 C2108 C 0.37648 0.45736 1.06792
 C2109 C 0.35932 0.44909 1.07584
 H2110 H 0.35276 0.45524 1.08898
 O2111 O 0.59778 0.51892 1.07131
 O2112 O 0.62066 0.51895 1.09421
 C2113 C 0.61364 0.52575 1.07830
 C2114 C 0.62361 0.54226 1.06822
 C2115 C 0.64079 0.55042 1.07615
 H2116 H 0.64736 0.54416 1.08925
 O2117 O 0.42931 0.40233 1.01893
 O2118 O 0.40657 0.37932 1.01901
 C2119 C 0.42244 0.38639 1.02576
 C2120 C 0.43261 0.37635 1.04219
 C2121 C 0.42496 0.35889 1.05011
 H2122 H 0.41202 0.35221 1.04374
 O2123 O 0.57083 0.59767 1.01932
 O2124 O 0.59366 0.62060 1.01929
 C2125 C 0.57777 0.61360 1.02608
 C2126 C 0.56767 0.62371 1.04249
 C2127 C 0.57551 0.64102 1.05048
 H2128 H 0.58857 0.64756 1.04416
 Cu2129 Cu 0.58209 0.49967 1.08244
 Cu2130 Cu 0.60955 0.49969 1.10994
 Cu2131 Cu 0.41783 0.49990 1.08233
 Cu2132 Cu 0.39033 0.49987 1.10981
 Cu2133 Cu 0.49986 0.58225 1.08227
 Cu2134 Cu 0.49989 0.60964 1.10984
 Cu2135 Cu 0.49998 0.41809 1.08263
 Cu2136 Cu 0.49992 0.39039 1.10998
 C2137 C 0.55094 0.55092 1.11549
 H2138 H 0.54513 0.54511 1.10187
 C2139 C 0.56676 0.56670 1.14995
 C2140 C 0.44869 0.44872 1.11580
 H2141 H 0.45468 0.45469 1.10232
 C2142 C 0.43249 0.43263 1.15000
 C2143 C 0.55093 0.61534 1.05122
 H2144 H 0.54501 0.60180 1.04536
 C2145 C 0.56698 0.64965 1.06705
 C2146 C 0.44918 0.38491 1.05103
 H2147 H 0.45493 0.39859 1.04527
 C2148 C 0.43355 0.35029 1.06669
 C2149 C 0.61522 0.55091 1.05141
 H2150 H 0.60179 0.54491 1.04541
 C2151 C 0.64926 0.56707 1.06761
 C2152 C 0.38488 0.44884 1.05106
 H2153 H 0.39830 0.45490 1.04506
 C2154 C 0.35087 0.43251 1.06719
 C2155 C 0.44881 0.55107 1.11546
 H2156 H 0.45469 0.54523 1.10187
 C2157 C 0.43289 0.56685 1.14990
 C2158 C 0.55116 0.44866 1.11590
 H2159 H 0.54517 0.45472 1.10245
 C2160 C 0.56732 0.43230 1.14999
 C2161 C 0.61530 0.44871 1.05125
 H2162 H 0.60175 0.45463 1.04541
 C2163 C 0.64965 0.43267 1.06703
 C2164 C 0.38453 0.55110 1.05142
 H2165 H 0.39805 0.54517 1.04552
 C2166 C 0.35027 0.56715 1.06736
 C2167 C 0.44874 0.61563 1.05140
 H2168 H 0.45456 0.60201 1.04558
 C2169 C 0.43299 0.65015 1.06716
 C2170 C 0.55107 0.38485 1.05142
 H2171 H 0.54508 0.39832 1.04541
 C2172 C 0.56727 0.35075 1.06770
 O2173 O 0.57103 0.48090 0.90202
 O2174 O 0.59387 0.48090 0.87907
 C2175 C 0.57797 0.47414 0.88608
 C2176 C 0.56780 0.45779 0.87598
 C2177 C 0.57551 0.44982 0.85856
 H2178 H 0.58853 0.45611 0.85193
 O2179 O 0.42927 0.51905 0.90201
 O2180 O 0.40641 0.51920 0.87908
 C2181 C 0.42228 0.52595 0.88612
 C2182 C 0.43229 0.54251 0.87618
 C2183 C 0.42435 0.55076 0.85900
 H2184 H 0.41131 0.54451 0.85238
 O2185 O 0.48088 0.59780 0.92934
 O2186 O 0.48085 0.62081 0.90649
 C2187 C 0.47412 0.61377 0.92243
 C2188 C 0.45778 0.62387 0.93262
 C2189 C 0.44984 0.64130 0.92488
 H2190 H 0.45616 0.64793 0.91184
 O2191 O 0.51937 0.40223 0.92887
 O2192 O 0.51947 0.37931 0.90599
 C2193 C 0.52619 0.38632 0.92192
 C2194 C 0.54255 0.37624 0.93209
 C2195 C 0.55055 0.35887 0.92433
 H2196 H 0.54429 0.35228 0.91127
 O2197 O 0.59774 0.42905 0.98083
 O2198 O 0.62061 0.40612 0.98083
 C2199 C 0.61365 0.42207 0.97405
 C2200 C 0.62376 0.43224 0.95767
 C2201 C 0.64124 0.42459 0.94983
 H2202 H 0.64788 0.41159 0.95621
 O2203 O 0.40229 0.57099 0.98110
 O2204 O 0.37935 0.59386 0.98094
 C2205 C 0.38643 0.57795 0.97419
 C2206 C 0.37653 0.56783 0.95765
 C2207 C 0.35926 0.57562 0.94947
 H2208 H 0.35259 0.58867 0.95570
 O2209 O 0.51906 0.57092 0.90219
 O2210 O 0.51900 0.59387 0.87928
 C2211 C 0.52577 0.57792 0.88624
 C2212 C 0.54212 0.56779 0.87609
 C2213 C 0.55003 0.57557 0.85867
 H2214 H 0.54369 0.58862 0.85207
 O2215 O 0.48090 0.42893 0.90196
 O2216 O 0.48097 0.40602 0.87907
 C2217 C 0.47410 0.42189 0.88608
 C2218 C 0.45755 0.43185 0.87610
 C2219 C 0.44928 0.42379 0.85901
 H2220 H 0.45549 0.41065 0.85251
 O2221 O 0.59783 0.51929 0.92886
 O2222 O 0.62072 0.51936 0.90595
 C2223 C 0.61371 0.52612 0.92188
 C2224 C 0.62371 0.54254 0.93204
 C2225 C 0.64097 0.55070 0.92424
 H2226 H 0.64756 0.54454 0.91111
 O2227 O 0.40230 0.48068 0.92880
 O2228 O 0.37941 0.48084 0.90590
 C2229 C 0.38639 0.47397 0.92180
 C2230 C 0.37632 0.45753 0.93186
 C2231 C 0.35909 0.44946 0.92394
 H2232 H 0.35256 0.45576 0.91084
 O2233 O 0.57098 0.59769 0.98088
 O2234 O 0.59383 0.62060 0.98085
 C2235 C 0.57798 0.61358 0.97403
 C2236 C 0.56796 0.62357 0.95748
 C2237 C 0.57591 0.64074 0.94920
 H2238 H 0.58902 0.64727 0.95538
 O2239 O 0.42918 0.40222 0.98053
 O2240 O 0.40642 0.37922 0.98059
 C2241 C 0.42228 0.38626 0.97378
 C2242 C 0.43245 0.37618 0.95740
 C2243 C 0.42473 0.35883 0.94935
 H2244 H 0.41166 0.35224 0.95558
 O2245 O 0.42919 0.48061 0.90197
 O2246 O 0.40632 0.48073 0.87906
 C2247 C 0.42217 0.47384 0.88607
 C2248 C 0.43213 0.45727 0.87609
 C2249 C 0.42410 0.44896 0.85899
 H2250 H 0.41096 0.45514 0.85248
 O2251 O 0.57092 0.51925 0.90205
 O2252 O 0.59375 0.51931 0.87908
 C2253 C 0.57783 0.52605 0.88610
 C2254 C 0.56761 0.54242 0.87602
 C2255 C 0.57526 0.55045 0.85861
 H2256 H 0.58829 0.54420 0.85195
 O2257 O 0.48107 0.40217 0.92893
 O2258 O 0.48116 0.37922 0.90607
 C2259 C 0.47435 0.38622 0.92198
 C2260 C 0.45797 0.37615 0.93209
 C2261 C 0.45001 0.35879 0.92429
 H2262 H 0.45636 0.35217 0.91127
 O2263 O 0.51922 0.59774 0.92910
 O2264 O 0.51919 0.62071 0.90622
 C2265 C 0.52602 0.61364 0.92209
 C2266 C 0.54253 0.62360 0.93210
 C2267 C 0.55071 0.64077 0.92408
 H2268 H 0.54445 0.64732 0.91097
 O2269 O 0.40219 0.42899 0.98052
 O2270 O 0.37939 0.40604 0.98057
 C2271 C 0.38632 0.42197 0.97375
 C2272 C 0.37627 0.43206 0.95728
 C2273 C 0.35903 0.42422 0.94912
 H2274 H 0.35244 0.41114 0.95537
 O2275 O 0.59777 0.57078 0.98096
 O2276 O 0.62065 0.59366 0.98099
 C2277 C 0.61366 0.57777 0.97417
 C2278 C 0.62369 0.56776 0.95767
 C2279 C 0.64095 0.57566 0.94963
 H2280 H 0.64752 0.58868 0.95600
 O2281 O 0.51924 0.42918 0.90198
 O2282 O 0.51934 0.40630 0.87906
 C2283 C 0.52604 0.42224 0.88605
 C2284 C 0.54238 0.43242 0.87596
 C2285 C 0.55034 0.42470 0.85854
 H2286 H 0.54404 0.41168 0.85191
 O2287 O 0.48075 0.57105 0.90232
 O2288 O 0.48067 0.59404 0.87944
 C2289 C 0.47392 0.57810 0.88643
 C2290 C 0.45751 0.56805 0.87637
 C2291 C 0.44933 0.57607 0.85918
 H2292 H 0.45549 0.58924 0.85270
 O2293 O 0.40261 0.51907 0.92907
 O2294 O 0.37973 0.51922 0.90616
 C2295 C 0.38674 0.52595 0.92210
 C2296 C 0.37671 0.54239 0.93221
 C2297 C 0.35945 0.55044 0.92431
 H2298 H 0.35293 0.54415 0.91122
 O2299 O 0.59785 0.48088 0.92895
 O2300 O 0.62076 0.48089 0.90606
 C2301 C 0.61376 0.47410 0.92200
 C2302 C 0.62383 0.45770 0.93221
 C2303 C 0.64132 0.44981 0.92463
 H2304 H 0.64802 0.45617 0.91164
 O2305 O 0.57096 0.40211 0.98084
 O2306 O 0.59380 0.37914 0.98087
 C2307 C 0.57793 0.38618 0.97406
 C2308 C 0.56786 0.37615 0.95760
 C2309 C 0.57564 0.35879 0.94957
 H2310 H 0.58865 0.35214 0.95589
 O2311 O 0.42909 0.59788 0.98122
 O2312 O 0.40620 0.62080 0.98108
 C2313 C 0.42215 0.61380 0.97439
 C2314 C 0.43234 0.62388 0.95802
 C2315 C 0.42465 0.64131 0.95003
 H2316 H 0.41162 0.64795 0.95631
 Cu2317 Cu 0.58213 0.50008 0.91777
 Cu2318 Cu 0.60958 0.50011 0.89024
 Cu2319 Cu 0.41815 0.49983 0.91774
 Cu2320 Cu 0.39068 0.50003 0.89024
 Cu2321 Cu 0.58204 0.58194 1.00015
 Cu2322 Cu 0.60948 0.60944 1.00016
 Cu2323 Cu 0.58204 0.41788 1.00004
 Cu2324 Cu 0.60947 0.39032 1.00007
 Cu2325 Cu 0.41787 0.58218 1.00040
 Cu2326 Cu 0.39036 0.60965 1.00023
 Cu2327 Cu 0.41803 0.41797 0.99971
 Cu2328 Cu 0.39069 0.39038 0.99982
 Cu2329 Cu 0.49998 0.58208 0.91803
 Cu2330 Cu 0.49991 0.60967 0.89056
 Cu2331 Cu 0.50015 0.41793 0.91772
 Cu2332 Cu 0.50026 0.39041 0.89023
 C2333 C 0.55111 0.44909 0.88446
 H2334 H 0.54529 0.45491 0.89809
 C2335 C 0.56687 0.43331 0.84996
 C2336 C 0.44900 0.55115 0.88466
 H2337 H 0.45500 0.54510 0.89811
 C2338 C 0.43279 0.56750 0.85060
 C2339 C 0.44903 0.61537 0.94931
 H2340 H 0.45481 0.60172 0.95513
 C2341 C 0.43331 0.64991 0.93349
 C2342 C 0.55119 0.38466 0.94885
 H2343 H 0.54532 0.39824 0.95472
 C2344 C 0.56705 0.35024 0.93298
 C2345 C 0.61527 0.44892 0.94887
 H2346 H 0.60162 0.45470 0.95461
 C2347 C 0.64994 0.43331 0.93337
 C2348 C 0.38506 0.55108 0.94901
 H2349 H 0.39856 0.54518 0.95498
 C2350 C 0.35082 0.56700 0.93284
 C2351 C 0.55090 0.55108 0.88455
 H2352 H 0.54513 0.54522 0.89818
 C2353 C 0.56656 0.56699 0.85004
 C2354 C 0.44898 0.44871 0.88442
 H2355 H 0.45507 0.45481 0.89780
 C2356 C 0.43261 0.43228 0.85054
 C2357 C 0.61528 0.55108 0.94888
 H2358 H 0.60178 0.54511 0.95477
 C2359 C 0.64950 0.56721 0.93297
 C2360 C 0.38468 0.44885 0.94865
 H2361 H 0.39815 0.45478 0.95463
 C2362 C 0.35053 0.43286 0.93250
 C2363 C 0.55115 0.61521 0.94892
 H2364 H 0.54513 0.60179 0.95498
 C2365 C 0.56735 0.64924 0.93255
 C2366 C 0.44920 0.38463 0.94877
 H2367 H 0.45502 0.39821 0.95465
 C2368 C 0.43343 0.35024 0.93283
 C2369 C 1.09277 1.09215 1.19763
 C2370 C 1.09903 1.08020 1.21347
 C2371 C 1.10792 1.08891 1.23022
 C2372 C 1.11059 1.10952 1.23100
 C2373 C 1.10457 1.12146 1.21503
 C2374 C 1.09566 1.11274 1.19827
 C2375 C 1.08988 1.12494 1.18243
 C2376 C 1.09282 1.14519 1.18312
 C2377 C 1.10148 1.15372 1.19952
 C2378 C 1.10730 1.14206 1.21534
 C2379 C 1.11403 1.07664 1.24588
 C2380 C 1.11152 1.05635 1.24498
 C2381 C 1.10288 1.04783 1.22858
 C2382 C 1.09666 1.05954 1.21296
 C2383 C 1.11948 1.11839 1.24826
 C2384 C 1.12676 1.12562 1.26270
 C2385 C 1.08343 1.08324 1.18067
 C2386 C 1.07580 1.07576 1.16656
 H2387 H 1.08310 1.11899 1.16935
 H2388 H 1.08838 1.15431 1.17085
 H2389 H 1.10373 1.16945 1.19998
 H2390 H 1.11397 1.14937 1.22777
 H2391 H 1.12084 1.08258 1.25895
 H2392 H 1.11632 1.04720 1.25708
 H2393 H 1.10100 1.03205 1.22793
 H2394 H 1.09004 1.05222 1.20051
 C2395 C 1.09266 0.59256 0.69768
 C2396 C 1.10076 0.58055 0.71262
 C2397 C 1.10981 0.58930 0.72927
 C2398 C 1.11079 0.61002 0.73085
 C2399 C 1.10290 0.62203 0.71578
 C2400 C 1.09374 0.61328 0.69918
 C2401 C 1.08583 0.62560 0.68439
 C2402 C 1.08698 0.64598 0.68592
 C2403 C 1.09608 0.65453 0.70206
 C2404 C 1.10394 0.64277 0.71689
 C2405 C 1.11777 0.57697 0.74403
 C2406 C 1.11685 0.55659 0.74236
 C2407 C 1.10803 0.54804 0.72607
 C2408 C 1.10004 0.55980 0.71133
 C2409 C 1.11971 0.61893 0.74807
 C2410 C 1.12702 0.62627 0.76245
 C2411 C 1.08335 0.58357 0.68072
 C2412 C 1.07577 0.57602 0.66662
 H2413 H 1.07867 0.61963 0.67152
 H2414 H 1.08077 0.65518 0.67453
 H2415 H 1.09703 0.67037 0.70313
 H2416 H 1.11084 0.65010 0.72917
 H2417 H 1.12481 0.58293 0.75696
 H2418 H 1.12303 0.54739 0.75378
 H2419 H 1.10737 0.53220 0.72484
 H2420 H 1.09333 0.55246 0.69895
 C2421 C 0.59315 1.09290 0.69791
 C2422 C 0.59366 1.08251 0.71595
 C2423 C 0.60261 1.09113 0.73272
 C2424 C 0.61102 1.11009 0.73137
 C2425 C 0.61067 1.12042 0.71328
 C2426 C 0.60172 1.11180 0.69650
 C2427 C 0.60158 1.12238 0.67858
 C2428 C 0.61007 1.14096 0.67726
 C2429 C 0.61881 1.14939 0.69367
 C2430 C 0.61913 1.13931 0.71151
 C2431 C 0.60294 1.08044 0.75058
 C2432 C 0.59469 1.06177 0.75183
 C2433 C 0.58595 1.05333 0.73543
 C2434 C 0.58539 1.06352 0.71766
 C2435 C 0.61988 1.11898 0.74864
 C2436 C 0.62712 1.12626 0.76308
 C2437 C 0.58386 1.08411 0.68084
 C2438 C 0.57621 1.07670 0.66669
 H2439 H 0.59499 1.11642 0.66541
 H2440 H 0.60988 1.14884 0.66343
 H2441 H 0.62540 1.16381 0.69256
 H2442 H 0.62611 1.14647 0.72386
 H2443 H 0.60958 1.08637 0.76373
 H2444 H 0.59512 1.05380 0.76560
 H2445 H 0.57959 1.03881 0.73648
 H2446 H 0.57846 1.05631 0.70532
 C2447 C 0.59261 0.59248 1.19775
 C2448 C 0.58267 0.60751 1.20813
 C2449 C 0.59160 0.61631 1.22482
 C2450 C 0.61045 0.61008 1.23098
 C2451 C 0.62054 0.59531 1.22037
 C2452 C 0.61161 0.58651 1.20369
 C2453 C 0.62204 0.57186 1.19324
 C2454 C 0.64075 0.56606 1.19914
 C2455 C 0.64943 0.57460 1.21551
 C2456 C 0.63951 0.58905 1.22607
 C2457 C 0.58134 0.63126 1.23500
 C2458 C 0.56286 0.63742 1.22880
 C2459 C 0.55417 0.62888 1.21243
 C2460 C 0.56388 0.61407 1.20217
 C2461 C 0.61940 0.61881 1.24828
 C2462 C 0.62675 0.62604 1.26267
 C2463 C 0.58330 0.58319 1.18096
 C2464 C 0.57565 0.57557 1.16694
 H2465 H 0.61591 0.56480 1.18039
 H2466 H 0.64856 0.55490 1.19094
 H2467 H 0.66396 0.57004 1.22004
 H2468 H 0.64687 0.59528 1.23870
 H2469 H 0.58750 0.63836 1.24781
 H2470 H 0.55525 0.64891 1.23673
 H2471 H 0.53984 0.63378 1.20762
 H2472 H 0.55654 0.60791 1.18949
 C2473 C 0.90729 0.90675 1.19799
 C2474 C 0.88799 0.89918 1.19674
 C2475 C 0.87898 0.89081 1.21364
 C2476 C 0.88939 0.88988 1.23163
 C2477 C 0.90882 0.89715 1.23277
 C2478 C 0.91780 0.90558 1.21590
 C2479 C 0.93727 0.91262 1.21737
 C2480 C 0.94758 0.91138 1.23501
 C2481 C 0.93878 0.90320 1.25152
 C2482 C 0.91963 0.89615 1.25051
 C2483 C 0.85963 0.88348 1.21206
 C2484 C 0.84955 0.88417 1.19425
 C2485 C 0.85845 0.89214 1.17768
 C2486 C 0.87741 0.89967 1.17885
 C2487 C 0.88028 0.88119 1.24888
 C2488 C 0.87289 0.87387 1.26323
 C2489 C 0.91631 0.91583 1.18091
 C2490 C 0.92382 0.92339 1.16675
 H2491 H 0.94476 0.91907 1.20491
 H2492 H 0.96248 0.91679 1.23585
 H2493 H 0.94685 0.90227 1.26519
 H2494 H 0.91343 0.88991 1.26375
 H2495 H 0.85212 0.87708 1.22453
 H2496 H 0.83478 0.87842 1.19328
 H2497 H 0.85064 0.89246 1.16384
 H2498 H 0.88370 0.90574 1.16556
 C2499 C 0.90730 0.40664 0.69779
 C2500 C 0.88718 0.40151 0.69733
 C2501 C 0.87820 0.39308 0.71421
 C2502 C 0.88943 0.38969 0.73139
 C2503 C 0.90963 0.39452 0.73173
 C2504 C 0.91859 0.40301 0.71488
 C2505 C 0.93880 0.40769 0.71555
 C2506 C 0.94985 0.40409 0.73241
 C2507 C 0.94109 0.39582 0.74890
 C2508 C 0.92122 0.39106 0.74865
 C2509 C 0.85803 0.38823 0.71346
 C2510 C 0.84708 0.39144 0.69646
 C2511 C 0.85591 0.39950 0.67989
 C2512 C 0.87570 0.40458 0.68027
 C2513 C 0.88030 0.38111 0.74867
 C2514 C 0.87294 0.37390 0.76308
 C2515 C 0.91636 0.41576 0.68076
 C2516 C 0.92389 0.42334 0.66663
 H2517 H 0.94628 0.41414 0.70309
 H2518 H 0.96530 0.40774 0.73266
 H2519 H 0.94973 0.39309 0.76197
 H2520 H 0.91508 0.38466 0.76185
 H2521 H 0.85053 0.38189 0.72597
 H2522 H 0.83168 0.38763 0.69613
 H2523 H 0.84739 0.40181 0.66667
 H2524 H 0.88189 0.41086 0.66703
 C2525 C 0.40626 0.90751 0.69720
 C2526 C 0.39250 0.89213 0.69479
 C2527 C 0.38365 0.88337 0.71158
 C2528 C 0.38856 0.89011 0.73064
 C2529 C 0.40215 0.90565 0.73301
 C2530 C 0.41102 0.91437 0.71624
 C2531 C 0.42453 0.92991 0.71897
 C2532 C 0.42914 0.93664 0.73774
 C2533 C 0.42047 0.92811 0.75415
 C2534 C 0.40712 0.91278 0.75190
 C2535 C 0.36998 0.86798 0.70882
 C2536 C 0.36512 0.86149 0.69001
 C2537 C 0.37371 0.87012 0.67361
 C2538 C 0.38727 0.88524 0.67588
 C2539 C 0.37969 0.88109 0.74784
 C2540 C 0.37249 0.87372 0.76226
 C2541 C 0.41554 0.91630 0.68013
 C2542 C 0.42327 0.92372 0.66603
 H2543 H 0.43163 0.93705 0.70667
 H2544 H 0.43949 0.94854 0.73956
 H2545 H 0.42408 0.93340 0.76870
 H2546 H 0.40075 0.90665 0.76511
 H2547 H 0.36288 0.86086 0.72113
 H2548 H 0.35461 0.84972 0.68815
 H2549 H 0.36985 0.86505 0.65904
 H2550 H 0.39355 0.89150 0.66267
 C2551 C 0.40667 0.40771 1.19836
 C2552 C 0.38769 0.39942 1.19680
 C2553 C 0.37874 0.39064 1.21353
 C2554 C 0.38879 0.39031 1.23175
 C2555 C 0.40772 0.39871 1.23333
 C2556 C 0.41669 0.40741 1.21658
 C2557 C 0.43564 0.41566 1.21851
 C2558 C 0.44544 0.41535 1.23647
 C2559 C 0.43666 0.40689 1.25285
 C2560 C 0.41802 0.39864 1.25139
 C2561 C 0.35981 0.38236 1.21158
 C2562 C 0.34995 0.38282 1.19364
 C2563 C 0.35864 0.39151 1.17733
 C2564 C 0.37730 0.39970 1.17879
 C2565 C 0.37969 0.38134 1.24888
 C2566 C 0.37230 0.37391 1.26317
 C2567 C 0.41590 0.41654 1.18125
 C2568 C 0.42356 0.42388 1.16706
 H2569 H 0.44307 0.42243 1.20619
 H2570 H 0.45993 0.42173 1.23768
 H2571 H 0.44433 0.40670 1.26678
 H2572 H 0.41181 0.39223 1.26455
 H2573 H 0.35244 0.37548 1.22387
 H2574 H 0.33547 0.37642 1.19240
 H2575 H 0.35087 0.39194 1.16347
 H2576 H 0.38346 0.40626 1.16567
 C2577 C 0.90721 1.09319 0.80261
 C2578 C 0.91566 1.09057 0.78379
 C2579 C 0.90658 1.09904 0.76699
 C2580 C 0.88910 1.11010 0.76911
 C2581 C 0.88069 1.11280 0.78796
 C2582 C 0.88983 1.10440 0.80478
 C2583 C 0.88130 1.10751 0.82349
 C2584 C 0.86420 1.11855 0.82554
 C2585 C 0.85514 1.12657 0.80908
 C2586 C 0.86324 1.12379 0.79047
 C2587 C 0.91531 1.09619 0.74832
 C2588 C 0.93253 1.08533 0.74632
 C2589 C 0.94143 1.07709 0.76276
 C2590 C 0.93315 1.07962 0.78131
 C2591 C 0.87995 1.11888 0.75192
 C2592 C 0.87257 1.12617 0.73754
 C2593 C 0.91632 1.08421 0.81968
 C2594 C 0.92391 1.07667 0.83380
 H2595 H 0.88778 1.10152 0.83673
 H2596 H 0.85795 1.12089 0.83997
 H2597 H 0.84179 1.13503 0.81074
 H2598 H 0.85569 1.13035 0.77810
 H2599 H 0.90894 1.10230 0.73510
 H2600 H 0.93901 1.08331 0.73194
 H2601 H 0.95482 1.06869 0.76114
 H2602 H 0.94064 1.07295 0.79366
 C2603 C 0.90739 0.59303 0.30254
 C2604 C 0.91584 0.59033 0.28373
 C2605 C 0.90682 0.59881 0.26691
 C2606 C 0.88937 0.60994 0.26900
 C2607 C 0.88104 0.61282 0.28785
 C2608 C 0.89012 0.60439 0.30469
 C2609 C 0.88163 0.60763 0.32340
 C2610 C 0.86463 0.61883 0.32542
 C2611 C 0.85566 0.62692 0.30895
 C2612 C 0.86371 0.62401 0.29034
 C2613 C 0.91557 0.59592 0.24826
 C2614 C 0.93273 0.58496 0.24629
 C2615 C 0.94155 0.57666 0.26274
 C2616 C 0.93328 0.57927 0.28128
 C2617 C 0.88017 0.61857 0.25177
 C2618 C 0.87278 0.62581 0.23738
 C2619 C 0.91641 0.58395 0.31961
 C2620 C 0.92395 0.57631 0.33370
 H2621 H 0.88806 0.60161 0.33665
 H2622 H 0.85839 0.62125 0.33985
 H2623 H 0.84240 0.63553 0.31059
 H2624 H 0.85625 0.63066 0.27798
 H2625 H 0.90927 0.60209 0.23502
 H2626 H 0.93922 0.58289 0.23191
 H2627 H 0.95489 0.56817 0.26114
 H2628 H 0.94071 0.57257 0.29364
 C2629 C 0.40637 1.09266 0.30281
 C2630 C 0.40707 1.08296 0.28443
 C2631 C 0.39822 1.09174 0.26766
 C2632 C 0.38870 1.11016 0.26939
 C2633 C 0.38785 1.11978 0.28783
 C2634 C 0.39662 1.11094 0.30462
 C2635 C 0.39531 1.12067 0.32295
 C2636 C 0.38566 1.13865 0.32465
 C2637 C 0.37732 1.14742 0.30819
 C2638 C 0.37836 1.13816 0.28995
 C2639 C 0.39913 1.08175 0.24944
 C2640 C 0.40841 1.06357 0.24786
 C2641 C 0.41700 1.05496 0.26427
 C2642 C 0.41641 1.06449 0.28237
 C2643 C 0.37980 1.11918 0.25219
 C2644 C 0.37258 1.12658 0.23780
 C2645 C 0.41575 1.08381 0.31980
 C2646 C 0.42353 1.07634 0.33385
 H2647 H 0.40163 1.11446 0.33616
 H2648 H 0.38465 1.14582 0.33881
 H2649 H 0.36994 1.16144 0.30955
 H2650 H 0.37160 1.14553 0.27758
 H2651 H 0.39266 1.08785 0.23626
 H2652 H 0.40892 1.05610 0.23382
 H2653 H 0.42416 1.04082 0.26299
 H2654 H 0.42328 1.05718 0.29472
 C2655 C 0.40720 0.59323 0.80257
 C2656 C 0.41747 0.59399 0.78450
 C2657 C 0.40841 0.60244 0.76767
 C2658 C 0.38914 0.61012 0.76902
 C2659 C 0.37896 0.60957 0.78717
 C2660 C 0.38806 0.60119 0.80402
 C2661 C 0.37772 0.60108 0.82207
 C2662 C 0.35890 0.60895 0.82342
 C2663 C 0.34991 0.61694 0.80690
 C2664 C 0.35976 0.61729 0.78895
 C2665 C 0.41900 0.60303 0.74978
 C2666 C 0.43799 0.59553 0.74855
 C2667 C 0.44685 0.58730 0.76502
 C2668 C 0.43678 0.58650 0.78282
 C2669 C 0.37993 0.61883 0.75182
 C2670 C 0.37249 0.62613 0.73748
 C2671 C 0.41630 0.58411 0.81959
 C2672 C 0.42387 0.57649 0.83367
 H2673 H 0.38410 0.59500 0.83532
 H2674 H 0.35126 0.60888 0.83736
 H2675 H 0.33525 0.62296 0.80801
 H2676 H 0.35219 0.62373 0.77654
 H2677 H 0.41274 0.60930 0.73657
 H2678 H 0.44588 0.59611 0.73475
 H2679 H 0.46161 0.58151 0.76400
 H2680 H 0.44432 0.58002 0.79523
 C2681 C 1.09265 0.90780 0.80221
 C2682 C 1.08633 0.88910 0.79572
 C2683 C 1.09527 0.88027 0.77904
 C2684 C 1.11054 0.89017 0.76898
 C2685 C 1.11713 0.90870 0.77572
 C2686 C 1.10818 0.91752 0.79241
 C2687 C 1.11510 0.93600 0.79895
 C2688 C 1.13041 0.94550 0.78927
 C2689 C 1.13911 0.93691 0.77291
 C2690 C 1.13260 0.91873 0.76615
 C2691 C 1.08867 0.86158 0.77280
 C2692 C 1.07372 0.85185 0.78281
 C2693 C 1.06502 0.86045 0.79916
 C2694 C 1.07117 0.87887 0.80560
 C2695 C 1.11945 0.88129 0.75173
 C2696 C 1.12676 0.87388 0.73739
 C2697 C 1.08322 0.91701 0.81898
 C2698 C 1.07552 0.92458 0.83301
 H2699 H 1.10882 0.94325 0.81162
 H2700 H 1.13554 0.95960 0.79449
 H2701 H 1.15098 0.94436 0.76543
 H2702 H 1.13986 0.91262 0.75339
 H2703 H 1.09500 0.85427 0.76018
 H2704 H 1.06887 0.83755 0.77786
 H2705 H 1.05344 0.85281 0.80691
 H2706 H 1.06398 0.88494 0.81840
 C2707 C 1.09276 0.40755 0.30212
 C2708 C 1.08345 0.39163 0.29256
 C2709 C 1.09235 0.38286 0.27582
 C2710 C 1.11055 0.39001 0.26881
 C2711 C 1.12007 0.40565 0.27865
 C2712 C 1.11117 0.41442 0.29538
 C2713 C 1.12102 0.42994 0.30506
 C2714 C 1.13916 0.43661 0.29839
 C2715 C 1.14783 0.42808 0.28199
 C2716 C 1.13846 0.41279 0.27216
 C2717 C 1.08273 0.36700 0.26648
 C2718 C 1.06489 0.35992 0.27353
 C2719 C 1.05623 0.36845 0.28994
 C2720 C 1.06532 0.38415 0.29939
 C2721 C 1.11946 0.38128 0.25149
 C2722 C 1.12675 0.37400 0.23708
 C2723 C 1.08343 0.41683 0.31889
 C2724 C 1.07577 0.42446 0.33291
 H2725 H 1.11488 0.43701 0.31791
 H2726 H 1.14652 0.44845 0.30600
 H2727 H 1.16192 0.43333 0.27685
 H2728 H 1.14581 0.40660 0.25949
 H2729 H 1.08891 0.35985 0.25369
 H2730 H 1.05777 0.34774 0.26623
 H2731 H 1.04239 0.36287 0.29539
 H2732 H 1.05802 0.39027 0.31212
 C2733 C 0.59262 0.90734 0.30248
 C2734 C 0.59635 0.88687 0.30229
 C2735 C 0.60554 0.87813 0.28569
 C2736 C 0.61082 0.88988 0.26934
 C2737 C 0.60714 0.91037 0.26958
 C2738 C 0.59805 0.91912 0.28622
 C2739 C 0.59458 0.93963 0.28615
 C2740 C 0.59991 0.95117 0.27009
 C2741 C 0.60873 0.94260 0.25379
 C2742 C 0.61234 0.92245 0.25346
 C2743 C 0.60919 0.85765 0.28588
 C2744 C 0.60386 0.84614 0.30197
 C2745 C 0.59478 0.85467 0.31814
 C2746 C 0.59107 0.87481 0.31840
 C2747 C 0.61982 0.88092 0.25218
 C2748 C 0.62714 0.87356 0.23782
 C2749 C 0.58327 0.91633 0.31940
 C2750 C 0.57562 0.92389 0.33346
 H2751 H 0.58775 0.94698 0.29848
 H2752 H 0.59716 0.96683 0.27029
 H2753 H 0.61282 0.95163 0.24133
 H2754 H 0.61926 0.91647 0.24045
 H2755 H 0.61619 0.85034 0.27362
 H2756 H 0.60678 0.83050 0.30187
 H2757 H 0.59057 0.84564 0.33055
 H2758 H 0.58401 0.88078 0.33134
 C2759 C 0.59281 0.40775 0.80209
 C2760 C 0.58858 0.38797 0.79727
 C2761 C 0.59747 0.37920 0.78053
 C2762 C 0.61057 0.39025 0.76873
 C2763 C 0.61512 0.40988 0.77382
 C2764 C 0.60624 0.41865 0.79056
 C2765 C 0.61110 0.43827 0.79540
 C2766 C 0.62433 0.44894 0.78402
 C2767 C 0.63299 0.44037 0.76763
 C2768 C 0.62849 0.42108 0.76251
 C2769 C 0.59301 0.35941 0.77600
 C2770 C 0.58018 0.34858 0.78771
 C2771 C 0.57152 0.35715 0.80410
 C2772 C 0.57560 0.37662 0.80888
 C2773 C 0.61934 0.38145 0.75138
 C2774 C 0.62661 0.37417 0.73696
 C2775 C 0.58341 0.41687 0.81892
 C2776 C 0.57574 0.42445 0.83296
 H2777 H 0.60478 0.44556 0.80804
 H2778 H 0.62790 0.46392 0.78794
 H2779 H 0.64327 0.44871 0.75883
 H2780 H 0.63564 0.41505 0.74966
 H2781 H 0.59942 0.35209 0.76343
 H2782 H 0.57696 0.33345 0.78406
 H2783 H 0.56158 0.34867 0.81316
 H2784 H 0.56853 0.38264 0.82179
 C2785 C 1.19767 1.09266 1.09247
 C2786 C 1.20002 1.11332 1.09189
 C2787 C 1.21653 1.12217 1.10107
 C2788 C 1.23064 1.11029 1.11071
 C2789 C 1.22826 1.08963 1.11130
 C2790 C 1.21170 1.08080 1.10222
 C2791 C 1.20955 1.06014 1.10317
 C2792 C 1.22340 1.04852 1.11278
 C2793 C 1.23966 1.05713 1.12154
 C2794 C 1.24215 1.07744 1.12085
 C2795 C 1.21851 1.14285 1.10036
 C2796 C 1.20458 1.15447 1.09085
 C2797 C 1.18850 1.14582 1.08179
 C2798 C 1.18614 1.12549 1.08229
 C2799 C 1.24769 1.11926 1.11983
 C2800 C 1.26200 1.12662 1.12720
 C2801 C 1.18075 1.08359 1.08323
 C2802 C 1.16665 1.07602 1.07571
 H2803 H 1.19717 1.05274 1.09655
 H2804 H 1.22150 1.03275 1.11340
 H2805 H 1.25040 1.04804 1.12895
 H2806 H 1.25503 1.08346 1.12789
 H2807 H 1.23080 1.15026 1.10713
 H2808 H 1.20630 1.17027 1.09048
 H2809 H 1.17778 1.15490 1.07434
 H2810 H 1.17336 1.11944 1.07508
 C2811 C 1.19737 0.59217 0.59262
 C2812 C 1.20917 0.58116 0.60574
 C2813 C 1.22585 0.58998 0.61462
 C2814 C 1.23058 0.60980 0.61041
 C2815 C 1.21856 0.62092 0.59756
 C2816 C 1.20188 0.61209 0.58868
 C2817 C 1.19000 0.62355 0.57602
 C2818 C 1.19447 0.64316 0.57223
 C2819 C 1.21082 0.65176 0.58084
 C2820 C 1.22279 0.64083 0.59336
 C2821 C 1.23745 0.57864 0.62764
 C2822 C 1.23263 0.55919 0.63187
 C2823 C 1.21627 0.55061 0.62326
 C2824 C 1.20464 0.56138 0.61030
 C2825 C 1.24778 0.61875 0.61928
 C2826 C 1.26210 0.62617 0.62653
 C2827 C 1.18057 0.58302 0.58325
 C2828 C 1.16655 0.57543 0.57560
 H2829 H 1.17712 0.61751 0.56897
 H2830 H 1.18519 0.65173 0.56256
 H2831 H 1.21426 0.66699 0.57783
 H2832 H 1.23533 0.64818 0.59972
 H2833 H 1.25030 0.58468 0.63472
 H2834 H 1.24164 0.55074 0.64189
 H2835 H 1.21256 0.53552 0.62662
 H2836 H 1.19206 0.55406 0.60398
 C2837 C 0.69721 1.09275 0.59246
 C2838 C 0.71271 1.08080 0.59947
 C2839 C 0.72932 1.08957 0.60851
 C2840 C 0.73032 1.11025 0.61054
 C2841 C 0.71472 1.12220 0.60370
 C2842 C 0.69814 1.11342 0.59457
 C2843 C 0.68280 1.12567 0.58772
 C2844 C 0.68378 1.14601 0.58985
 C2845 C 0.69992 1.15458 0.59889
 C2846 C 0.71526 1.14288 0.60574
 C2847 C 0.74466 1.07731 0.61534
 C2848 C 0.74359 1.05697 0.61335
 C2849 C 0.72732 1.04838 0.60456
 C2850 C 0.71202 1.06009 0.59767
 C2851 C 0.74746 1.11921 0.61950
 C2852 C 0.76178 1.12657 0.62683
 C2853 C 0.68029 1.08374 0.58318
 C2854 C 0.66620 1.07620 0.57562
 H2855 H 0.66991 1.11969 0.58063
 H2856 H 0.67197 1.15517 0.58443
 H2857 H 0.70057 1.17037 0.60058
 H2858 H 0.72752 1.15022 0.61265
 H2859 H 0.75761 1.08329 0.62230
 H2860 H 0.75545 1.04781 0.61866
 H2861 H 0.72655 1.03257 0.60306
 H2862 H 0.69967 1.05272 0.59094
 C2863 C 0.69730 0.59229 1.09338
 C2864 C 0.71500 0.58151 1.09494
 C2865 C 0.73181 0.59032 1.10357
 C2866 C 0.73082 0.60988 1.11059
 C2867 C 0.71303 0.62056 1.10931
 C2868 C 0.69619 0.61171 1.10075
 C2869 C 0.67850 0.62258 1.09988
 C2870 C 0.67747 0.64165 1.10722
 C2871 C 0.69397 0.65038 1.11541
 C2872 C 0.71159 0.64003 1.11647
 C2873 C 0.74932 0.57922 1.10500
 C2874 C 0.75018 0.55995 1.09815
 C2875 C 0.73374 0.55133 1.08972
 C2876 C 0.71632 0.56192 1.08808
 C2877 C 0.74807 0.61892 1.11923
 C2878 C 0.76247 0.62631 1.12638
 C2879 C 0.68029 0.58339 1.08417
 C2880 C 0.66620 0.57593 1.07653
 H2881 H 0.66528 0.61643 1.09362
 H2882 H 0.66379 0.64969 1.10658
 H2883 H 0.69311 0.66524 1.12102
 H2884 H 0.72401 0.64741 1.12304
 H2885 H 0.76248 0.58527 1.11147
 H2886 H 0.76368 0.55166 1.09941
 H2887 H 0.73448 0.53635 1.08444
 H2888 H 0.70392 0.55455 1.08146
 C2889 C 1.19734 0.90767 0.90760
 C2890 C 1.19839 0.88698 0.90566
 C2891 C 1.21499 0.87820 0.89653
 C2892 C 1.23048 0.89015 0.88950
 C2893 C 1.22936 0.91084 0.89136
 C2894 C 1.21272 0.91963 0.90039
 C2895 C 1.21189 0.94035 0.90198
 C2896 C 1.22708 0.95206 0.89489
 C2897 C 1.24338 0.94347 0.88611
 C2898 C 1.24458 0.92311 0.88433
 C2899 C 1.21565 0.85750 0.89464
 C2900 C 1.20040 0.84580 0.90166
 C2901 C 1.18426 0.85438 0.91071
 C2902 C 1.18315 0.87473 0.91268
 C2903 C 1.24766 0.88121 0.88054
 C2904 C 1.26202 0.87390 0.87321
 C2905 C 1.18040 0.91669 0.91689
 C2906 C 1.16630 0.92423 0.92446
 H2907 H 1.19951 0.94772 0.90867
 H2908 H 1.22620 0.96788 0.89622
 H2909 H 1.25515 0.95262 0.88064
 H2910 H 1.25754 0.91713 0.87736
 H2911 H 1.22793 0.85015 0.88773
 H2912 H 1.20114 0.82999 0.90008
 H2913 H 1.17252 0.84522 0.91625
 H2914 H 1.17024 0.88072 0.91974
 C2915 C 1.19769 0.40747 0.40635
 C2916 C 1.21428 0.41915 0.40189
 C2917 C 1.23106 0.41045 0.39302
 C2918 C 1.23116 0.39012 0.38863
 C2919 C 1.21444 0.37850 0.39280
 C2920 C 1.19763 0.38722 0.40160
 C2921 C 1.18101 0.37535 0.40538
 C2922 C 1.18100 0.35544 0.40065
 C2923 C 1.19749 0.34687 0.39223
 C2924 C 1.21406 0.35820 0.38831
 C2925 C 1.24745 0.42245 0.38872
 C2926 C 1.24726 0.44247 0.39300
 C2927 C 1.23084 0.45097 0.40163
 C2928 C 1.21450 0.43952 0.40606
 C2929 C 1.24842 0.38118 0.37980
 C2930 C 1.26279 0.37379 0.37252
 C2931 C 1.18072 0.41629 0.41583
 C2932 C 1.16661 0.42367 0.42359
 H2933 H 1.16783 0.38134 0.41193
 H2934 H 1.16812 0.34663 0.40351
 H2935 H 1.19743 0.33138 0.38865
 H2936 H 1.22651 0.35089 0.38169
 H2937 H 1.26055 0.41652 0.38198
 H2938 H 1.25992 0.45143 0.38958
 H2939 H 1.23075 0.46654 0.40489
 H2940 H 1.20206 0.44682 0.41272
 C2941 C 0.69755 0.90762 0.40706
 C2942 C 0.69649 0.88828 0.39948
 C2943 C 0.71329 0.87959 0.39065
 C2944 C 0.73105 0.89030 0.38943
 C2945 C 0.73206 0.90969 0.39690
 C2946 C 0.71526 0.91837 0.40572
 C2947 C 0.71661 0.93779 0.41303
 C2948 C 0.73407 0.94833 0.41167
 C2949 C 0.75050 0.93983 0.40307
 C2950 C 0.74960 0.92074 0.39575
 C2951 C 0.71188 0.86024 0.38319
 C2952 C 0.69436 0.84978 0.38437
 C2953 C 0.67792 0.85828 0.39297
 C2954 C 0.67889 0.87730 0.40048
 C2955 C 0.74826 0.88139 0.38051
 C2956 C 0.76256 0.87398 0.37316
 C2957 C 0.68046 0.91649 0.41618
 C2958 C 0.66629 0.92396 0.42370
 H2959 H 0.70422 0.94504 0.41983
 H2960 H 0.73483 0.96317 0.41732
 H2961 H 0.76403 0.94808 0.40205
 H2962 H 0.76277 0.91478 0.38918
 H2963 H 0.72426 0.85300 0.37636
 H2964 H 0.69353 0.83500 0.37856
 H2965 H 0.66434 0.85010 0.39382
 H2966 H 0.66572 0.88329 0.40703
 C2967 C 0.69831 0.40820 0.90795
 C2968 C 0.71163 0.41996 0.89716
 C2969 C 0.72818 0.41117 0.88797
 C2970 C 0.73126 0.39065 0.88951
 C2971 C 0.71785 0.37886 0.90019
 C2972 C 0.70138 0.38767 0.90951
 C2973 C 0.68831 0.37562 0.92027
 C2974 C 0.69140 0.35544 0.92177
 C2975 C 0.70738 0.34679 0.91249
 C2976 C 0.72051 0.35829 0.90181
 C2977 C 0.74135 0.42325 0.87736
 C2978 C 0.73823 0.44343 0.87581
 C2979 C 0.72202 0.45201 0.88474
 C2980 C 0.70882 0.44049 0.89531
 C2981 C 0.74833 0.38177 0.88031
 C2982 C 0.76261 0.37449 0.87280
 C2983 C 0.68134 0.41718 0.91721
 C2984 C 0.66713 0.42461 0.92472
 H2985 H 0.67561 0.38166 0.92768
 H2986 H 0.68135 0.34647 0.93021
 H2987 H 0.70965 0.33108 0.91361
 H2988 H 0.73276 0.35091 0.89490
 H2989 H 0.75417 0.41726 0.87014
 H2990 H 0.74846 0.45244 0.86764
 H2991 H 0.71965 0.46769 0.88347
 H2992 H 0.69644 0.44785 0.90200
 C2993 C 0.80250 0.90765 1.09311
 C2994 C 0.80106 0.90665 1.11386
 C2995 C 0.78445 0.89765 1.12273
 C2996 C 0.76935 0.88980 1.11080
 C2997 C 0.77084 0.89077 1.09006
 C2998 C 0.78748 0.89968 1.08119
 C2999 C 0.78869 0.90039 1.06043
 C3000 C 0.77385 0.89255 1.04875
 C3001 C 0.75756 0.88388 1.05742
 C3002 C 0.75599 0.88296 1.07782
 C3003 C 0.78338 0.89672 1.14349
 C3004 C 0.79825 0.90452 1.15516
 C3005 C 0.81442 0.91344 1.14648
 C3006 C 0.81591 0.91448 1.12608
 C3007 C 0.75222 0.88085 1.11981
 C3008 C 0.73789 0.87346 1.12709
 C3009 C 0.81944 0.91677 1.08399
 C3010 C 0.83352 0.92423 1.07633
 H3011 H 0.80108 0.90698 1.05300
 H3012 H 0.77503 0.89321 1.03289
 H3013 H 0.74607 0.87781 1.04828
 H3014 H 0.74303 0.87604 1.08386
 H3015 H 0.77106 0.88997 1.15091
 H3016 H 0.79721 0.90367 1.17102
 H3017 H 0.82587 0.91958 1.15562
 H3018 H 0.82880 0.92150 1.12001
 C3019 C 0.80229 0.40777 0.59254
 C3020 C 0.78826 0.39805 0.58072
 C3021 C 0.77159 0.38918 0.58959
 C3022 C 0.76908 0.39005 0.61024
 C3023 C 0.78325 0.39956 0.62209
 C3024 C 0.79987 0.40853 0.61320
 C3025 C 0.81373 0.41813 0.62533
 C3026 C 0.81128 0.41879 0.64566
 C3027 C 0.79513 0.40987 0.65436
 C3028 C 0.78121 0.40036 0.64278
 C3029 C 0.75773 0.37959 0.57745
 C3030 C 0.76028 0.37876 0.55714
 C3031 C 0.77660 0.38740 0.54848
 C3032 C 0.79047 0.39697 0.56006
 C3033 C 0.75188 0.38124 0.61924
 C3034 C 0.73755 0.37390 0.62657
 C3035 C 0.81926 0.41686 0.58343
 C3036 C 0.83339 0.42428 0.57581
 H3037 H 0.82655 0.42525 0.61925
 H3038 H 0.82196 0.42629 0.65471
 H3039 H 0.79334 0.41036 0.67016
 H3040 H 0.76887 0.39367 0.65021
 H3041 H 0.74481 0.37263 0.58350
 H3042 H 0.74953 0.37137 0.54808
 H3043 H 0.77853 0.38671 0.53270
 H3044 H 0.80290 0.40349 0.55263
 C3045 C 0.30264 0.90727 0.59315
 C3046 C 0.30481 0.89570 0.61032
 C3047 C 0.28808 0.88691 0.61917
 C3048 C 0.26927 0.88976 0.61079
 C3049 C 0.26711 0.90136 0.59363
 C3050 C 0.28385 0.91013 0.58478
 C3051 C 0.28132 0.92163 0.56761
 C3052 C 0.26279 0.92441 0.55943
 C3053 C 0.24643 0.91585 0.56809
 C3054 C 0.24848 0.90445 0.58499
 C3055 C 0.29061 0.87540 0.63632
 C3056 C 0.30915 0.87265 0.64451
 C3057 C 0.32550 0.88126 0.63587
 C3058 C 0.32345 0.89265 0.61897
 C3059 C 0.25215 0.88074 0.61974
 C3060 C 0.23783 0.87331 0.62703
 C3061 C 0.31970 0.91623 0.58405
 C3062 C 0.33381 0.92370 0.57643
 H3063 H 0.29360 0.92859 0.56033
 H3064 H 0.26113 0.93325 0.54630
 H3065 H 0.23207 0.91806 0.56168
 H3066 H 0.23531 0.89810 0.59118
 H3067 H 0.27833 0.86841 0.64356
 H3068 H 0.31083 0.86380 0.65764
 H3069 H 0.33986 0.87910 0.64230
 H3070 H 0.33661 0.89903 0.61278
 C3071 C 0.30267 0.40681 1.09221
 C3072 C 0.30498 0.39329 1.10788
 C3073 C 0.28818 0.38484 1.11691
 C3074 C 0.26919 0.38980 1.11008
 C3075 C 0.26691 0.40307 1.09420
 C3076 C 0.28371 0.41160 1.08524
 C3077 C 0.28107 0.42478 1.06934
 C3078 C 0.26237 0.42941 1.06250
 C3079 C 0.24594 0.42110 1.07127
 C3080 C 0.24810 0.40808 1.08695
 C3081 C 0.29084 0.37149 1.13266
 C3082 C 0.30957 0.36646 1.13915
 C3083 C 0.32600 0.37454 1.13016
 C3084 C 0.32382 0.38789 1.11476
 C3085 C 0.25200 0.38111 1.11921
 C3086 C 0.23766 0.37385 1.12661
 C3087 C 0.31976 0.41592 1.08335
 C3088 C 0.33391 0.42354 1.07597
 H3089 H 0.29340 0.43159 1.06200
 H3090 H 0.26063 0.43950 1.05031
 H3091 H 0.23145 0.42475 1.06590
 H3092 H 0.23488 0.40199 1.09328
 H3093 H 0.27850 0.36477 1.14007
 H3094 H 0.31134 0.35620 1.15119
 H3095 H 0.34052 0.37044 1.13514
 H3096 H 0.33705 0.39382 1.10827
 C3097 C 0.80248 1.09232 0.90693
 C3098 C 0.78568 1.09656 0.91840
 C3099 C 0.76897 1.10535 0.90951
 C3100 C 0.76917 1.10992 0.88919
 C3101 C 0.78605 1.10584 0.87775
 C3102 C 0.80273 1.09694 0.88663
 C3103 C 0.81936 1.09284 0.87486
 C3104 C 0.81954 1.09745 0.85489
 C3105 C 0.80330 1.10628 0.84624
 C3106 C 0.78669 1.11043 0.85746
 C3107 C 0.75233 1.10937 0.92128
 C3108 C 0.75222 1.10490 0.94127
 C3109 C 0.76857 1.09636 0.94998
 C3110 C 0.78515 1.09219 0.93875
 C3111 C 0.75196 1.11871 0.88011
 C3112 C 0.73757 1.12599 0.87278
 C3113 C 0.81950 1.08330 0.91607
 C3114 C 0.83363 1.07586 0.92370
 H3115 H 0.83238 1.08605 0.88094
 H3116 H 0.83235 1.09414 0.84609
 H3117 H 0.80355 1.10991 0.83075
 H3118 H 0.77439 1.11726 0.85008
 H3119 H 0.73924 1.11601 0.91519
 H3120 H 0.73937 1.10810 0.95006
 H3121 H 0.76843 1.09296 0.96553
 H3122 H 0.79751 1.08554 0.94620
 C3123 C 0.80250 0.59212 0.40687
 C3124 C 0.80277 0.59702 0.38664
 C3125 C 0.78612 0.60607 0.37788
 C3126 C 0.76926 0.61005 0.38938
 C3127 C 0.76900 0.60511 0.40961
 C3128 C 0.78568 0.59616 0.41839
 C3129 C 0.78509 0.59141 0.43864
 C3130 C 0.76849 0.59538 0.44991
 C3131 C 0.75215 0.60406 0.44131
 C3132 C 0.75232 0.60890 0.42141
 C3133 C 0.78675 0.61092 0.35765
 C3134 C 0.80334 0.60687 0.34637
 C3135 C 0.81957 0.59792 0.35491
 C3136 C 0.81939 0.59305 0.37481
 C3137 C 0.75210 0.61906 0.38043
 C3138 C 0.73776 0.62644 0.37314
 C3139 C 0.81954 0.58302 0.41590
 C3140 C 0.83369 0.57555 0.42347
 H3141 H 0.79743 0.58460 0.44599
 H3142 H 0.76830 0.59168 0.46539
 H3143 H 0.73926 0.60708 0.45011
 H3144 H 0.73924 0.61563 0.41540
 H3145 H 0.77445 0.61785 0.35036
 H3146 H 0.80358 0.61068 0.33092
 H3147 H 0.83236 0.59470 0.34605
 H3148 H 0.83238 0.58612 0.38078
 C3149 C 0.30271 1.09242 0.40735
 C3150 C 0.28570 1.09598 0.41873
 C3151 C 0.26891 1.10467 0.40988
 C3152 C 0.26923 1.10976 0.38969
 C3153 C 0.28631 1.10634 0.37834
 C3154 C 0.30311 1.09765 0.38720
 C3155 C 0.32001 1.09438 0.37555
 C3156 C 0.32031 1.09954 0.35572
 C3157 C 0.30389 1.10803 0.34707
 C3158 C 0.28705 1.11143 0.35818
 C3159 C 0.25207 1.10805 0.42158
 C3160 C 0.25182 1.10300 0.44143
 C3161 C 0.26825 1.09452 0.45009
 C3162 C 0.28503 1.09102 0.43894
 C3163 C 0.25199 1.11850 0.38063
 C3164 C 0.23762 1.12577 0.37325
 C3165 C 0.31975 1.08335 0.41638
 C3166 C 0.33388 1.07584 0.42393
 H3167 H 0.33315 1.08782 0.38163
 H3168 H 0.33336 1.09694 0.34702
 H3169 H 0.30419 1.11200 0.33166
 H3170 H 0.27465 1.11808 0.35080
 H3171 H 0.23894 1.11463 0.41553
 H3172 H 0.23881 1.10567 0.45015
 H3173 H 0.26799 1.09062 0.46552
 H3174 H 0.29745 1.08441 0.44634
 C3175 C 0.30275 0.59231 0.90704
 C3176 C 0.30144 0.59355 0.88630
 C3177 C 0.28480 0.60251 0.87742
 C3178 C 0.26949 0.61003 0.88932
 C3179 C 0.27087 0.60888 0.91007
 C3180 C 0.28756 0.60002 0.91895
 C3181 C 0.28863 0.59909 0.93971
 C3182 C 0.27364 0.60669 0.95138
 C3183 C 0.25732 0.61533 0.94270
 C3184 C 0.25586 0.61644 0.92230
 C3185 C 0.28389 0.60372 0.85666
 C3186 C 0.29894 0.59620 0.84501
 C3187 C 0.31512 0.58730 0.85369
 C3188 C 0.31647 0.58599 0.87409
 C3189 C 0.25229 0.61887 0.88028
 C3190 C 0.23794 0.62622 0.87294
 C3191 C 0.31973 0.58321 0.91618
 C3192 C 0.33384 0.57576 0.92385
 H3193 H 0.30103 0.59250 0.94715
 H3194 H 0.27471 0.60586 0.96724
 H3195 H 0.24571 0.62120 0.95183
 H3196 H 0.24289 0.62333 0.91625
 H3197 H 0.27158 0.61048 0.84924
 H3198 H 0.29801 0.59726 0.82916
 H3199 H 0.32670 0.58136 0.84456
 H3200 H 0.32938 0.57899 0.88016
 C3201 C 1.09261 1.19728 1.09331
 C3202 C 1.11265 1.19670 1.09873
 C3203 C 1.12159 1.21352 1.10725
 C3204 C 1.11038 1.23075 1.11046
 C3205 C 1.09023 1.23118 1.10541
 C3206 C 1.08132 1.21439 1.09683
 C3207 C 1.06114 1.21512 1.09199
 C3208 C 1.05007 1.23196 1.09552
 C3209 C 1.05879 1.24840 1.10388
 C3210 C 1.07863 1.24810 1.10878
 C3211 C 1.14168 1.21263 1.11242
 C3212 C 1.15257 1.19555 1.10947
 C3213 C 1.14377 1.17904 1.10133
 C3214 C 1.12407 1.17955 1.09592
 C3215 C 1.11950 1.24800 1.11906
 C3216 C 1.12691 1.26237 1.12624
 C3217 C 1.08361 1.18037 1.08400
 C3218 C 1.07609 1.16635 1.07629
 H3219 H 1.05368 1.20268 1.08551
 H3220 H 1.03465 1.23225 1.09177
 H3221 H 1.05013 1.26146 1.10659
 H3222 H 1.08474 1.26125 1.11527
 H3223 H 1.14915 1.22508 1.11885
 H3224 H 1.16791 1.19509 1.11356
 H3225 H 1.15223 1.16575 1.09923
 H3226 H 1.11788 1.16634 1.08963
 C3227 C 1.09322 0.69715 0.59247
 C3228 C 1.10088 0.69593 0.61178
 C3229 C 1.10949 0.71276 0.62064
 C3230 C 1.11056 0.73066 0.61005
 C3231 C 1.10323 0.73176 0.59060
 C3232 C 1.09454 0.71496 0.58179
 C3233 C 1.08738 0.71641 0.56231
 C3234 C 1.08875 0.73395 0.55184
 C3235 C 1.09721 0.75039 0.56046
 C3236 C 1.10439 0.74939 0.57962
 C3237 C 1.11691 0.71121 0.64000
 C3238 C 1.11605 0.69350 0.65027
 C3239 C 1.10782 0.67700 0.64153
 C3240 C 1.10023 0.67813 0.62255
 C3241 C 1.11927 0.74791 0.61909
 C3242 C 1.12648 0.76230 0.62645
 C3243 C 1.08391 0.68016 0.58360
 C3244 C 1.07620 0.66608 0.57615
 H3245 H 1.08073 0.70401 0.55494
 H3246 H 1.08322 0.73479 0.53695
 H3247 H 1.09825 0.76398 0.55226
 H3248 H 1.11087 0.76256 0.58567
 H3249 H 1.12352 0.72363 0.64738
 H3250 H 1.12185 0.69256 0.66505
 H3251 H 1.10736 0.66323 0.64949
 H3252 H 1.09396 0.66490 0.61639
 C3253 C 0.59256 1.19725 0.59338
 C3254 C 0.61128 1.19560 0.60223
 C3255 C 0.62026 1.21240 0.61074
 C3256 C 0.61035 1.23070 0.61054
 C3257 C 0.59145 1.23225 0.60202
 C3258 C 0.58254 1.21547 0.59343
 C3259 C 0.56361 1.21734 0.58508
 C3260 C 0.55378 1.23528 0.58519
 C3261 C 0.56250 1.25171 0.59354
 C3262 C 0.58113 1.25031 0.60188
 C3263 C 0.63906 1.21043 0.61934
 C3264 C 0.64863 1.19232 0.61972
 C3265 C 0.63974 1.17585 0.61160
 C3266 C 0.62133 1.17740 0.60286
 C3267 C 0.61947 1.24789 0.61922
 C3268 C 0.62687 1.26226 0.62640
 C3269 C 0.58364 1.18029 0.58410
 C3270 C 0.57613 1.16627 0.57637
 H3271 H 0.55619 1.20496 0.57846
 H3272 H 0.53930 1.23643 0.57876
 H3273 H 0.55479 1.26562 0.59359
 H3274 H 0.58729 1.26350 0.60822
 H3275 H 0.64653 1.22281 0.62591
 H3276 H 0.66298 1.19105 0.62640
 H3277 H 0.64714 1.16179 0.61209
 H3278 H 0.61502 1.16418 0.59672
 C3279 C 0.59271 0.69771 1.09240
 C3280 C 0.61341 0.69917 1.09320
 C3281 C 0.62231 0.71575 1.10223
 C3282 C 0.61045 0.73083 1.11028
 C3283 C 0.58975 0.72932 1.10952
 C3284 C 0.58085 0.71270 1.10060
 C3285 C 0.56013 0.71149 1.10009
 C3286 C 0.54853 0.72629 1.10815
 C3287 C 0.55722 0.74258 1.11682
 C3288 C 0.57758 0.74416 1.11754
 C3289 C 0.64302 0.71684 1.10297
 C3290 C 0.65463 0.70201 1.09494
 C3291 C 0.64594 0.68587 1.08598
 C3292 C 0.62557 0.68436 1.08512
 C3293 C 0.61948 0.74795 1.11922
 C3294 C 0.62683 0.76227 1.12659
 C3295 C 0.58357 0.68076 1.08326
 C3296 C 0.57592 0.66666 1.07579
 H3297 H 0.55268 0.69911 1.09349
 H3298 H 0.53270 0.72512 1.10765
 H3299 H 0.54814 0.75406 1.12303
 H3300 H 0.58365 0.75710 1.12445
 H3301 H 0.65046 0.72913 1.10974
 H3302 H 0.67046 0.70308 1.09563
 H3303 H 0.65503 0.67447 1.07966
 H3304 H 0.61950 0.67150 1.07805
 C3305 C 0.90764 1.19797 0.90743
 C3306 C 0.91778 1.20855 0.89268
 C3307 C 0.90893 1.22529 0.88384
 C3308 C 0.88993 1.23131 0.88976
 C3309 C 0.87963 1.22048 0.90424
 C3310 C 0.88850 1.20375 0.91307
 C3311 C 0.87789 1.19309 0.92743
 C3312 C 0.85905 1.19881 0.93294
 C3313 C 0.85039 1.21520 0.92436
 C3314 C 0.86049 1.22598 0.91017
 C3315 C 0.91940 1.23564 0.86915
 C3316 C 0.93804 1.22959 0.86332
 C3317 C 0.94666 1.21319 0.87192
 C3318 C 0.93672 1.20274 0.88644
 C3319 C 0.88104 1.24863 0.88099
 C3320 C 0.87373 1.26304 0.87370
 C3321 C 0.91689 1.18114 0.91677
 C3322 C 0.92450 1.16708 0.92442
 H3323 H 0.88399 1.18021 0.93449
 H3324 H 0.85113 1.19045 0.94391
 H3325 H 0.83575 1.21957 0.92869
 H3326 H 0.85312 1.23859 0.90389
 H3327 H 0.91329 1.24847 0.86199
 H3328 H 0.94583 1.23765 0.85203
 H3329 H 0.96113 1.20851 0.86731
 H3330 H 0.94402 1.19005 0.89266
 C3331 C 0.90795 0.69791 0.40741
 C3332 C 0.91679 0.70686 0.39084
 C3333 C 0.90807 0.72377 0.38219
 C3334 C 0.89051 0.73159 0.39011
 C3335 C 0.88137 0.72229 0.40633
 C3336 C 0.89009 0.70538 0.41498
 C3337 C 0.88058 0.69624 0.43106
 C3338 C 0.86294 0.70356 0.43837
 C3339 C 0.85444 0.72012 0.42996
 C3340 C 0.86350 0.72946 0.41414
 C3341 C 0.91718 0.73244 0.36562
 C3342 C 0.93433 0.72456 0.35774
 C3343 C 0.94282 0.70799 0.36616
 C3344 C 0.93424 0.69921 0.38255
 C3345 C 0.88179 0.74907 0.38147
 C3346 C 0.87454 0.76354 0.37424
 C3347 C 0.91716 0.68100 0.41661
 C3348 C 0.92473 0.66687 0.42418
 H3349 H 0.88660 0.68328 0.43807
 H3350 H 0.85581 0.69632 0.45061
 H3351 H 0.84073 0.72575 0.43569
 H3352 H 0.85630 0.74228 0.40807
 H3353 H 0.91110 0.74532 0.35852
 H3354 H 0.94104 0.73132 0.34500
 H3355 H 0.95610 0.70189 0.35994
 H3356 H 0.94137 0.68632 0.38855
 C3357 C 0.40722 1.19776 0.40696
 C3358 C 0.40104 1.21368 0.41882
 C3359 C 0.39200 1.23035 0.41003
 C3360 C 0.38912 1.23096 0.38942
 C3361 C 0.39515 1.21496 0.37757
 C3362 C 0.40429 1.19834 0.38635
 C3363 C 0.41031 1.18259 0.37419
 C3364 C 0.40734 1.18321 0.35393
 C3365 C 0.39829 1.19939 0.34536
 C3366 C 0.39226 1.21514 0.35696
 C3367 C 0.38602 1.24610 0.42222
 C3368 C 0.38881 1.24538 0.44250
 C3369 C 0.39759 1.22906 0.45109
 C3370 C 0.40368 1.21336 0.43946
 C3371 C 0.38010 1.24812 0.38045
 C3372 C 0.37271 1.26246 0.37310
 C3373 C 0.41644 1.18077 0.41600
 C3374 C 0.42399 1.16667 0.42362
 H3375 H 0.41737 1.16966 0.38018
 H3376 H 0.41211 1.17107 0.34483
 H3377 H 0.39594 1.19976 0.32962
 H3378 H 0.38532 1.22743 0.34962
 H3379 H 0.37911 1.25911 0.41623
 H3380 H 0.38412 1.25754 0.45160
 H3381 H 0.39971 1.22855 0.46685
 H3382 H 0.41045 1.20099 0.44683
 C3383 C 0.40748 0.69766 0.90751
 C3384 C 0.38829 0.70328 0.91313
 C3385 C 0.37932 0.71998 0.90433
 C3386 C 0.38959 0.73091 0.88990
 C3387 C 0.40863 0.72503 0.88399
 C3388 C 0.41758 0.70833 0.89279
 C3389 C 0.43656 0.70265 0.88656
 C3390 C 0.44645 0.71320 0.87207
 C3391 C 0.43775 0.72958 0.86352
 C3392 C 0.41906 0.73551 0.86935
 C3393 C 0.36015 0.72535 0.91025
 C3394 C 0.35008 0.71446 0.92437
 C3395 C 0.35882 0.69808 0.93291
 C3396 C 0.37771 0.69251 0.92742
 C3397 C 0.38059 0.74816 0.88114
 C3398 C 0.37320 0.76253 0.87386
 C3399 C 0.41681 0.68090 0.91686
 C3400 C 0.42445 0.66689 0.92455
 H3401 H 0.44392 0.68999 0.89276
 H3402 H 0.46095 0.70862 0.86746
 H3403 H 0.44551 0.73773 0.85228
 H3404 H 0.41289 0.74832 0.86224
 H3405 H 0.35272 0.73795 0.90400
 H3406 H 0.33541 0.71873 0.92870
 H3407 H 0.35094 0.68964 0.94384
 H3408 H 0.38388 0.67964 0.93445
 C3409 C 1.09287 0.80305 0.90675
 C3410 C 1.08278 0.78489 0.90652
 C3411 C 1.09169 0.76812 0.89786
 C3412 C 1.11064 0.76962 0.88943
 C3413 C 1.12065 0.78784 0.88950
 C3414 C 1.11168 0.80464 0.89809
 C3415 C 1.12184 0.82276 0.89772
 C3416 C 1.14036 0.82424 0.88919
 C3417 C 1.14924 0.80777 0.88102
 C3418 C 1.13956 0.78974 0.88112
 C3419 C 1.08132 0.75011 0.89786
 C3420 C 1.06267 0.74874 0.90612
 C3421 C 1.05393 0.76516 0.91452
 C3422 C 1.06380 0.78307 0.91477
 C3423 C 1.11972 0.75244 0.88061
 C3424 C 1.12710 0.73808 0.87332
 C3425 C 1.08392 0.82001 0.91604
 C3426 C 1.07640 0.83405 0.92377
 H3427 H 1.11555 0.83598 0.90392
 H3428 H 1.14785 0.83825 0.88890
 H3429 H 1.16368 0.80898 0.87451
 H3430 H 1.14703 0.77736 0.87453
 H3431 H 1.08749 0.73692 0.89149
 H3432 H 1.05494 0.73486 0.90598
 H3433 H 1.03942 0.76404 0.92088
 H3434 H 1.05637 0.79544 0.92144
 C3435 C 1.09247 0.30199 0.40789
 C3436 C 1.11307 0.29953 0.40873
 C3437 C 1.12198 0.28296 0.39965
 C3438 C 1.11020 0.26888 0.38990
 C3439 C 1.08959 0.27139 0.38902
 C3440 C 1.08072 0.28802 0.39799
 C3441 C 1.06011 0.29027 0.39682
 C3442 C 1.04858 0.27646 0.38712
 C3443 C 1.05725 0.26016 0.37840
 C3444 C 1.07751 0.25758 0.37929
 C3445 C 1.14262 0.28090 0.40057
 C3446 C 1.15412 0.29475 0.41028
 C3447 C 1.14539 0.31085 0.41929
 C3448 C 1.12512 0.31333 0.41852
 C3449 C 1.11922 0.25172 0.38095
 C3450 C 1.12658 0.23739 0.37358
 C3451 C 1.08335 0.31893 0.41709
 C3452 C 1.07576 0.33306 0.42457
 H3453 H 1.05268 0.30271 0.40338
 H3454 H 1.03284 0.27843 0.38636
 H3455 H 1.04822 0.24946 0.37089
 H3456 H 1.08356 0.24467 0.37226
 H3457 H 1.15007 0.26859 0.39381
 H3458 H 1.16989 0.29296 0.41084
 H3459 H 1.15437 0.32149 0.42694
 H3460 H 1.11902 0.32614 0.42568
 C3461 C 0.59335 0.80309 0.40740
 C3462 C 0.59174 0.78451 0.41661
 C3463 C 0.60046 0.76771 0.40778
 C3464 C 0.61073 0.76959 0.38977
 C3465 C 0.61253 0.78824 0.38068
 C3466 C 0.60389 0.80505 0.38956
 C3467 C 0.60607 0.82356 0.38032
 C3468 C 0.61647 0.82542 0.36278
 C3469 C 0.62476 0.80896 0.35400
 C3470 C 0.62287 0.79055 0.36278
 C3471 C 0.59867 0.74930 0.41731
 C3472 C 0.58858 0.74754 0.43504
 C3473 C 0.58006 0.76397 0.44366
 C3474 C 0.58157 0.78227 0.43461
 C3475 C 0.61947 0.75235 0.38069
 C3476 C 0.62669 0.73794 0.37331
 C3477 C 0.58407 0.82013 0.41625
 C3478 C 0.57633 0.83420 0.42369
 H3479 H 0.59985 0.83679 0.38658
 H3480 H 0.61810 0.83971 0.35598
 H3481 H 0.63275 0.81047 0.34032
 H3482 H 0.62963 0.77818 0.35543
 H3483 H 0.60507 0.73610 0.41119
 H3484 H 0.58737 0.73335 0.44213
 H3485 H 0.57224 0.76253 0.45744
 H3486 H 0.57473 0.79462 0.44192
 C3487 C 0.59229 0.30222 0.90700
 C3488 C 0.61295 0.30114 0.90513
 C3489 C 0.62177 0.28436 0.89635
 C3490 C 0.60987 0.26882 0.88938
 C3491 C 0.58919 0.27006 0.89094
 C3492 C 0.58038 0.28683 0.89975
 C3493 C 0.55967 0.28780 0.90104
 C3494 C 0.54800 0.27263 0.89386
 C3495 C 0.55661 0.25620 0.88532
 C3496 C 0.57696 0.25485 0.88384
 C3497 C 0.64245 0.28358 0.89474
 C3498 C 0.65409 0.29900 0.90146
 C3499 C 0.64545 0.31546 0.90991
 C3500 C 0.62513 0.31658 0.91181
 C3501 C 0.61887 0.25160 0.88051
 C3502 C 0.62630 0.23729 0.87316
 C3503 C 0.58330 0.31912 0.91639
 C3504 C 0.57585 0.33322 0.92409
 H3505 H 0.55229 0.30029 0.90753
 H3506 H 0.53219 0.27362 0.89494
 H3507 H 0.54748 0.24445 0.87979
 H3508 H 0.58296 0.24180 0.87705
 H3509 H 0.64985 0.27110 0.88824
 H3510 H 0.66988 0.29820 0.90007
 H3511 H 0.65452 0.32743 0.91502
 H3512 H 0.61911 0.32968 0.91849
 C3513 C 0.90754 0.80258 1.09288
 C3514 C 0.91808 0.78469 1.09403
 C3515 C 0.90924 0.76791 1.10276
 C3516 C 0.88994 0.76915 1.11035
 C3517 C 0.87945 0.78709 1.10933
 C3518 C 0.88829 0.80387 1.10059
 C3519 C 0.87757 0.82167 1.09981
 C3520 C 0.85863 0.82286 1.10744
 C3521 C 0.84996 0.80644 1.11593
 C3522 C 0.86017 0.78872 1.11689
 C3523 C 0.92006 0.75017 1.10367
 C3524 C 0.93909 0.74907 1.09626
 C3525 C 0.94774 0.76550 1.08779
 C3526 C 0.93742 0.78314 1.08663
 C3527 C 0.88090 0.75198 1.11923
 C3528 C 0.87347 0.73768 1.12655
 C3529 C 0.91653 0.81962 1.08375
 C3530 C 0.92406 0.83374 1.07618
 H3531 H 0.88370 0.83484 1.09336
 H3532 H 0.85065 0.83660 1.10676
 H3533 H 0.83525 0.80744 1.12182
 H3534 H 0.85281 0.77636 1.12364
 H3535 H 0.91396 0.73698 1.11013
 H3536 H 0.94717 0.73540 1.09710
 H3537 H 0.96254 0.76460 1.08208
 H3538 H 0.94479 0.79552 1.07992
 C3539 C 0.90755 0.30222 0.59236
 C3540 C 0.91852 0.29012 0.60525
 C3541 C 0.90961 0.27340 0.61402
 C3542 C 0.88974 0.26893 0.60992
 C3543 C 0.87867 0.28125 0.59733
 C3544 C 0.88759 0.29797 0.58855
 C3545 C 0.87620 0.31015 0.57612
 C3546 C 0.85655 0.30592 0.57243
 C3547 C 0.84784 0.28953 0.58095
 C3548 C 0.85871 0.27728 0.59325
 C3549 C 0.92090 0.26149 0.62680
 C3550 C 0.94041 0.26603 0.63087
 C3551 C 0.94909 0.28243 0.62236
 C3552 C 0.93835 0.29438 0.60967
 C3553 C 0.88075 0.25165 0.61865
 C3554 C 0.87338 0.23727 0.62589
 C3555 C 0.91680 0.31902 0.58304
 C3556 C 0.92443 0.33305 0.57539
 H3557 H 0.88230 0.32309 0.56919
 H3558 H 0.84804 0.31542 0.56293
 H3559 H 0.83258 0.28630 0.57803
 H3560 H 0.85128 0.26472 0.59956
 H3561 H 0.91479 0.24860 0.63381
 H3562 H 0.94882 0.25679 0.64071
 H3563 H 0.96423 0.28593 0.62561
 H3564 H 0.94573 0.30700 0.60345
 C3565 C 0.40720 0.80276 0.59283
 C3566 C 0.40639 0.78482 0.58236
 C3567 C 0.39738 0.76811 0.59105
 C3568 C 0.38917 0.76946 0.61013
 C3569 C 0.38987 0.78746 0.62055
 C3570 C 0.39897 0.80414 0.61189
 C3571 C 0.39963 0.82193 0.62264
 C3572 C 0.39149 0.82321 0.64138
 C3573 C 0.38248 0.80693 0.64980
 C3574 C 0.38166 0.78922 0.63957
 C3575 C 0.39681 0.75031 0.58032
 C3576 C 0.40487 0.74908 0.56153
 C3577 C 0.41364 0.76543 0.55302
 C3578 C 0.41444 0.78313 0.56325
 C3579 C 0.38018 0.75229 0.61905
 C3580 C 0.37286 0.73791 0.62635
 C3581 C 0.41641 0.81978 0.58390
 C3582 C 0.42399 0.83388 0.57634
 H3583 H 0.40645 0.83500 0.61670
 H3584 H 0.39219 0.83689 0.64942
 H3585 H 0.37612 0.80803 0.66434
 H3586 H 0.37453 0.77695 0.64674
 H3587 H 0.39014 0.73719 0.58629
 H3588 H 0.40429 0.73535 0.55353
 H3589 H 0.41986 0.76441 0.53842
 H3590 H 0.42143 0.79543 0.55602
 C3591 C 0.40766 0.30252 1.09247
 C3592 C 0.38915 0.29598 1.08573
 C3593 C 0.38020 0.27928 1.09452
 C3594 C 0.38979 0.26927 1.11004
 C3595 C 0.40811 0.27610 1.11708
 C3596 C 0.41705 0.29279 1.10828
 C3597 C 0.43530 0.29941 1.11563
 C3598 C 0.44447 0.28980 1.13122
 C3599 C 0.43577 0.27343 1.13977
 C3600 C 0.41780 0.26658 1.13284
 C3601 C 0.36171 0.27299 1.08750
 C3602 C 0.35228 0.28296 1.07229
 C3603 C 0.36100 0.29933 1.06374
 C3604 C 0.37923 0.30581 1.07030
 C3605 C 0.38087 0.25196 1.11874
 C3606 C 0.37353 0.23754 1.12595
 C3607 C 0.41702 0.31927 1.08317
 C3608 C 0.42468 0.33329 1.07554
 H3609 H 0.44263 0.31210 1.10948
 H3610 H 0.45840 0.29510 1.13669
 H3611 H 0.44296 0.26601 1.15187
 H3612 H 0.41160 0.25382 1.13999
 H3613 H 0.35432 0.26036 1.09370
 H3614 H 0.33812 0.27798 1.06712
 H3615 H 0.35360 0.30706 1.05197
 H3616 H 0.38541 0.31862 1.06321
 C3617 C 1.09249 1.09313 0.80175
 C3618 C 1.10695 1.08285 0.79090
 C3619 C 1.11571 1.09176 0.77415
 C3620 C 1.11000 1.11093 0.76837
 C3621 C 1.09587 1.12138 0.77948
 C3622 C 1.08711 1.11247 0.79624
 C3623 C 1.07311 1.12326 0.80718
 C3624 C 1.06794 1.14232 0.80174
 C3625 C 1.07645 1.15100 0.78533
 C3626 C 1.09024 1.14071 0.77426
 C3627 C 1.13011 1.08119 0.76354
 C3628 C 1.13580 1.06240 0.76938
 C3629 C 1.12729 1.05371 0.78579
 C3630 C 1.11300 1.06374 0.79647
 C3631 C 1.11872 1.11990 0.75105
 C3632 C 1.12601 1.12725 0.73666
 C3633 C 1.08323 1.08383 0.81860
 C3634 C 1.07566 1.07617 0.83267
 H3635 H 1.06610 1.11715 0.82008
 H3636 H 1.05728 1.15040 0.81033
 H3637 H 1.07238 1.16581 0.78116
 H3638 H 1.09648 1.14809 0.76163
 H3639 H 1.13718 1.08733 0.75069
 H3640 H 1.14689 1.05454 0.76113
 H3641 H 1.13180 1.03913 0.79030
 H3642 H 1.10683 1.05638 0.80915
 C3643 C 1.09270 0.59294 0.30163
 C3644 C 1.10696 0.58260 0.29057
 C3645 C 1.11564 0.59155 0.27380
 C3646 C 1.11006 0.61081 0.26820
 C3647 C 1.09611 0.62130 0.27950
 C3648 C 1.08742 0.61235 0.29627
 C3649 C 1.07359 0.62318 0.30739
 C3650 C 1.06851 0.64231 0.30211
 C3651 C 1.07698 0.65104 0.28569
 C3652 C 1.09061 0.64071 0.27445
 C3653 C 1.12986 0.58091 0.26299
 C3654 C 1.13540 0.56202 0.26864
 C3655 C 1.12695 0.55330 0.28506
 C3656 C 1.11286 0.56339 0.29594
 C3657 C 1.11871 0.61979 0.25086
 C3658 C 1.12596 0.62711 0.23643
 C3659 C 1.08353 0.58363 0.31852
 C3660 C 1.07601 0.57597 0.33263
 H3661 H 1.06661 0.61703 0.32028
 H3662 H 1.05796 0.65041 0.31081
 H3663 H 1.07297 0.66589 0.28164
 H3664 H 1.09682 0.64814 0.26183
 H3665 H 1.13689 0.58709 0.25013
 H3666 H 1.14633 0.55412 0.26023
 H3667 H 1.13133 0.53863 0.28940
 H3668 H 1.10671 0.55599 0.30860
 C3669 C 0.59209 1.09314 0.30167
 C3670 C 0.60235 1.08141 0.28790
 C3671 C 0.61135 1.09030 0.27128
 C3672 C 0.61011 1.11089 0.26856
 C3673 C 0.60002 1.12266 0.28243
 C3674 C 0.59091 1.11375 0.29900
 C3675 C 0.58077 1.12579 0.31258
 C3676 C 0.57971 1.14607 0.30990
 C3677 C 0.58875 1.15480 0.29381
 C3678 C 0.59878 1.14330 0.28016
 C3679 C 0.62147 1.07825 0.25769
 C3680 C 0.62273 1.05800 0.26048
 C3681 C 0.61397 1.04931 0.27676
 C3682 C 0.60386 1.06080 0.29034
 C3683 C 0.61913 1.11991 0.25143
 C3684 C 0.62661 1.12723 0.23712
 C3685 C 0.58294 1.08401 0.31865
 C3686 C 0.57550 1.07639 0.33281
 H3687 H 0.57355 1.11969 0.32537
 H3688 H 0.57181 1.15505 0.32037
 H3689 H 0.58796 1.17057 0.29186
 H3690 H 0.60554 1.15075 0.26784
 H3691 H 0.62854 1.08432 0.24480
 H3692 H 0.63055 1.04901 0.24995
 H3693 H 0.61501 1.03358 0.27887
 H3694 H 0.59728 1.05336 0.30276
 C3695 C 0.59239 0.59279 0.80223
 C3696 C 0.60575 0.58192 0.79059
 C3697 C 0.61462 0.59080 0.77389
 C3698 C 0.61013 0.61052 0.76898
 C3699 C 0.59706 0.62151 0.78085
 C3700 C 0.58819 0.61263 0.79755
 C3701 C 0.57527 0.62395 0.80927
 C3702 C 0.57123 0.64348 0.80461
 C3703 C 0.57985 0.65214 0.78823
 C3704 C 0.59261 0.64134 0.77642
 C3705 C 0.62789 0.57962 0.76245
 C3706 C 0.63236 0.56026 0.76743
 C3707 C 0.62376 0.55161 0.78381
 C3708 C 0.61057 0.56223 0.79530
 C3709 C 0.61894 0.61947 0.75173
 C3710 C 0.62625 0.62679 0.73735
 C3711 C 0.58302 0.58358 0.81903
 C3712 C 0.57538 0.57593 0.83306
 H3713 H 0.56824 0.61788 0.82217
 H3714 H 0.56138 0.65196 0.81376
 H3715 H 0.57666 0.66731 0.78466
 H3716 H 0.59897 0.64872 0.76386
 H3717 H 0.63499 0.58571 0.74959
 H3718 H 0.64259 0.55194 0.75854
 H3719 H 0.62733 0.53659 0.78765
 H3720 H 0.60429 0.55488 0.80792
 C3721 C 0.90742 0.90725 0.80228
 C3722 C 0.89521 0.89058 0.80451
 C3723 C 0.88650 0.88176 0.78771
 C3724 C 0.89003 0.88968 0.76878
 C3725 C 0.90218 0.90641 0.76657
 C3726 C 0.91089 0.91522 0.78337
 C3727 C 0.92295 0.93193 0.78079
 C3728 C 0.92632 0.93974 0.76216
 C3729 C 0.91783 0.93111 0.74573
 C3730 C 0.90590 0.91463 0.74782
 C3731 C 0.87437 0.86510 0.79030
 C3732 C 0.87091 0.85738 0.80897
 C3733 C 0.87940 0.86601 0.82539
 C3734 C 0.89144 0.88241 0.82328
 C3735 C 0.88117 0.88070 0.75159
 C3736 C 0.87385 0.87339 0.73721
 C3737 C 0.91645 0.91620 0.81939
 C3738 C 0.92397 0.92369 0.83354
 H3739 H 0.92990 0.93916 0.79312
 H3740 H 0.93556 0.95255 0.76046
 H3741 H 0.92051 0.93721 0.73127
 H3742 H 0.89964 0.90844 0.73459
 H3743 H 0.86745 0.85787 0.77797
 H3744 H 0.86160 0.84463 0.81068
 H3745 H 0.87666 0.85997 0.83986
 H3746 H 0.89774 0.88860 0.83649
 C3747 C 0.90668 0.40656 0.30227
 C3748 C 0.89706 0.38822 0.30407
 C3749 C 0.88854 0.37926 0.28725
 C3750 C 0.88952 0.38879 0.26875
 C3751 C 0.89890 0.40728 0.26703
 C3752 C 0.90749 0.41618 0.28383
 C3753 C 0.91674 0.43468 0.28174
 C3754 C 0.91750 0.44410 0.26357
 C3755 C 0.90912 0.43538 0.24713
 C3756 C 0.89991 0.41719 0.24875
 C3757 C 0.87915 0.36085 0.28938
 C3758 C 0.87806 0.35162 0.30765
 C3759 C 0.88622 0.36046 0.32413
 C3760 C 0.89569 0.37852 0.32244
 C3761 C 0.88078 0.37973 0.25153
 C3762 C 0.87351 0.37244 0.23712
 C3763 C 0.91584 0.41551 0.31932
 C3764 C 0.92348 0.42302 0.33341
 H3765 H 0.92343 0.44207 0.29411
 H3766 H 0.92461 0.45825 0.26224
 H3767 H 0.90974 0.44276 0.23304
 H3768 H 0.89360 0.41102 0.23554
 H3769 H 0.87254 0.35342 0.27699
 H3770 H 0.87080 0.33754 0.30903
 H3771 H 0.88518 0.35332 0.33831
 H3772 H 0.90184 0.38480 0.33568
 C3773 C 0.40667 0.90629 0.30209
 C3774 C 0.39198 0.89180 0.30453
 C3775 C 0.38336 0.88282 0.28777
 C3776 C 0.38948 0.88838 0.26866
 C3777 C 0.40416 0.90288 0.26623
 C3778 C 0.41278 0.91186 0.28299
 C3779 C 0.42744 0.92631 0.28018
 C3780 C 0.43339 0.93175 0.26135
 C3781 C 0.42496 0.92298 0.24497
 C3782 C 0.41052 0.90870 0.24729
 C3783 C 0.36870 0.86838 0.29058
 C3784 C 0.36271 0.86296 0.30941
 C3785 C 0.37114 0.87174 0.32579
 C3786 C 0.38561 0.88600 0.32347
 C3787 C 0.38063 0.87930 0.25150
 C3788 C 0.37331 0.87195 0.23715
 C3789 C 0.41556 0.91546 0.31918
 C3790 C 0.42304 0.92309 0.33330
 H3791 H 0.43444 0.93355 0.29246
 H3792 H 0.44461 0.94284 0.25948
 H3793 H 0.42964 0.92726 0.23038
 H3794 H 0.40441 0.90231 0.23409
 H3795 H 0.36172 0.86113 0.27828
 H3796 H 0.35148 0.85189 0.31130
 H3797 H 0.36645 0.86748 0.34037
 H3798 H 0.39173 0.89240 0.33667
 C3799 C 0.40737 0.40646 0.80246
 C3800 C 0.39116 0.39367 0.80481
 C3801 C 0.38233 0.38492 0.78803
 C3802 C 0.38986 0.38887 0.76903
 C3803 C 0.40614 0.40156 0.76671
 C3804 C 0.41491 0.41038 0.78347
 C3805 C 0.43118 0.42301 0.78077
 C3806 C 0.43856 0.42683 0.76205
 C3807 C 0.42998 0.41822 0.74567
 C3808 C 0.41396 0.40572 0.74788
 C3809 C 0.36605 0.37232 0.79073
 C3810 C 0.35878 0.36836 0.80947
 C3811 C 0.36753 0.37677 0.82588
 C3812 C 0.38350 0.38933 0.82366
 C3813 C 0.38094 0.37991 0.75185
 C3814 C 0.37365 0.37262 0.73745
 C3815 C 0.41626 0.41563 0.81952
 C3816 C 0.42372 0.42328 0.83363
 H3817 H 0.43839 0.43003 0.79307
 H3818 H 0.45101 0.43653 0.76026
 H3819 H 0.43576 0.42123 0.73116
 H3820 H 0.40780 0.39937 0.73469
 H3821 H 0.35879 0.36539 0.77841
 H3822 H 0.34633 0.35867 0.81128
 H3823 H 0.36192 0.37353 0.84041
 H3824 H 0.38979 0.39555 0.83687
 C3825 C 1.09239 0.90720 1.19803
 C3826 C 1.10388 0.91859 1.21106
 C3827 C 1.11264 0.90964 1.22778
 C3828 C 1.10992 0.88932 1.23135
 C3829 C 1.09867 0.87786 1.21815
 C3830 C 1.08991 0.88682 1.20142
 C3831 C 1.07883 0.87505 1.18838
 C3832 C 1.07647 0.85499 1.19176
 C3833 C 1.08497 0.84625 1.20815
 C3834 C 1.09595 0.85748 1.22125
 C3835 C 1.12402 0.92135 1.24062
 C3836 C 1.12675 0.94132 1.23699
 C3837 C 1.11825 0.95005 1.22059
 C3838 C 1.10692 0.93890 1.20774
 C3839 C 1.11871 0.88025 1.24858
 C3840 C 1.12604 0.87288 1.26294
 C3841 C 1.08319 0.91644 1.18114
 C3842 C 1.07565 0.92409 1.16705
 H3843 H 1.07193 0.88118 1.17542
 H3844 H 1.06799 0.84619 1.18161
 H3845 H 1.08307 0.83067 1.21073
 H3846 H 1.10229 0.85002 1.23379
 H3847 H 1.13095 0.91523 1.25356
 H3848 H 1.13552 0.95005 1.24695
 H3849 H 1.12045 0.96555 1.21780
 H3850 H 1.10062 0.94635 1.19517
 C3851 C 1.09255 0.40697 0.69778
 C3852 C 1.09887 0.38716 0.69697
 C3853 C 1.10755 0.37828 0.71379
 C3854 C 1.10991 0.38928 0.73129
 C3855 C 1.10383 0.40917 0.73199
 C3856 C 1.09515 0.41804 0.71518
 C3857 C 1.08929 0.43797 0.71622
 C3858 C 1.09192 0.44883 0.73336
 C3859 C 1.10035 0.44014 0.74982
 C3860 C 1.10625 0.42055 0.74923
 C3861 C 1.11374 0.35846 0.71264
 C3862 C 1.11149 0.34773 0.69535
 C3863 C 1.10305 0.35642 0.67889
 C3864 C 1.09675 0.37589 0.67962
 C3865 C 1.11865 0.38022 0.74854
 C3866 C 1.12592 0.37290 0.76295
 C3867 C 1.08339 0.41598 0.68074
 C3868 C 1.07582 0.42353 0.66661
 H3869 H 1.08267 0.44539 0.70380
 H3870 H 1.08738 0.46407 0.73388
 H3871 H 1.10235 0.44863 0.76311
 H3872 H 1.11276 0.41445 0.76240
 H3873 H 1.12040 0.35107 0.72505
 H3874 H 1.11635 0.33260 0.69472
 H3875 H 1.10137 0.34803 0.66549
 H3876 H 1.09027 0.38201 0.66645
 C3877 C 0.59240 0.90711 0.69765
 C3878 C 0.59137 0.91656 0.71615
 C3879 C 0.60018 0.90772 0.73289
 C3880 C 0.61003 0.88949 0.73105
 C3881 C 0.61112 0.88005 0.71253
 C3882 C 0.60225 0.88887 0.69579
 C3883 C 0.60346 0.87912 0.67745
 C3884 C 0.61320 0.86119 0.67570
 C3885 C 0.62192 0.85260 0.69206
 C3886 C 0.62093 0.86185 0.71030
 C3887 C 0.59891 0.91746 0.75123
 C3888 C 0.58924 0.93541 0.75296
 C3889 C 0.58064 0.94407 0.73658
 C3890 C 0.58164 0.93482 0.71835
 C3891 C 0.61900 0.88048 0.74821
 C3892 C 0.62640 0.87319 0.76257
 C3893 C 0.58337 0.91619 0.68059
 C3894 C 0.57586 0.92381 0.66647
 H3895 H 0.59691 0.88523 0.66431
 H3896 H 0.61396 0.85392 0.66158
 H3897 H 0.62948 0.83868 0.69061
 H3898 H 0.62793 0.85459 0.72260
 H3899 H 0.60537 0.91132 0.76441
 H3900 H 0.58841 0.94265 0.76710
 H3901 H 0.57315 0.95802 0.73800
 H3902 H 0.57471 0.94213 0.70604
 C3903 C 0.59270 0.40667 1.19823
 C3904 C 0.60025 0.38732 1.19700
 C3905 C 0.60894 0.37841 1.21379
 C3906 C 0.61007 0.38892 1.23171
 C3907 C 0.60264 0.40832 1.23290
 C3908 C 0.59395 0.41722 1.21611
 C3909 C 0.58668 0.43665 1.21765
 C3910 C 0.58795 0.44699 1.23527
 C3911 C 0.59640 0.43827 1.25169
 C3912 C 0.60368 0.41916 1.25061
 C3913 C 0.61636 0.35905 1.21221
 C3914 C 0.61528 0.34879 1.19452
 C3915 C 0.60682 0.35751 1.17810
 C3916 C 0.59934 0.37654 1.17924
 C3917 C 0.61893 0.37984 1.24891
 C3918 C 0.62629 0.37247 1.26326
 C3919 C 0.58365 0.41575 1.18115
 C3920 C 0.57615 0.42333 1.16699
 H3921 H 0.57997 0.44406 1.20527
 H3922 H 0.58233 0.46184 1.23617
 H3923 H 0.59734 0.44635 1.26535
 H3924 H 0.61013 0.41302 1.26379
 H3925 H 0.62308 0.35165 1.22458
 H3926 H 0.62105 0.33400 1.19357
 H3927 H 0.60603 0.34948 1.16439
 H3928 H 0.59289 0.38269 1.16606
 C3929 C 0.90752 1.09247 1.19758
 C3930 C 0.91925 1.09830 1.21371
 C3931 C 0.91041 1.10733 1.23034
 C3932 C 0.88988 1.11056 1.23071
 C3933 C 0.87817 1.10484 1.21451
 C3934 C 0.88700 1.09571 1.19792
 C3935 C 0.87496 1.08998 1.18197
 C3936 C 0.85478 1.09320 1.18238
 C3937 C 0.84617 1.10227 1.19852
 C3938 C 0.85765 1.10803 1.21445
 C3939 C 0.92245 1.11296 1.24631
 C3940 C 0.94264 1.10979 1.24586
 C3941 C 0.95128 1.10100 1.22958
 C3942 C 0.93980 1.09529 1.21365
 C3943 C 0.88085 1.11955 1.24785
 C3944 C 0.87346 1.12690 1.26218
 C3945 C 0.91660 1.08323 1.18063
 C3946 C 0.92419 1.07567 1.16654
 H3947 H 0.88100 1.08293 1.16906
 H3948 H 0.84578 1.08862 1.17012
 H3949 H 0.83049 1.10481 1.19873
 H3950 H 0.85028 1.11499 1.22670
 H3951 H 0.91642 1.11986 1.25929
 H3952 H 0.95163 1.11419 1.25821
 H3953 H 0.96698 1.09858 1.22929
 H3954 H 0.94720 1.08850 1.20133
 C3955 C 0.90746 0.59235 0.69779
 C3956 C 0.91941 0.60062 0.71264
 C3957 C 0.91062 0.60973 0.72926
 C3958 C 0.88993 0.61060 0.73089
 C3959 C 0.87798 0.60247 0.71594
 C3960 C 0.88677 0.59326 0.69938
 C3961 C 0.87451 0.58512 0.68470
 C3962 C 0.85416 0.58606 0.68634
 C3963 C 0.84557 0.59518 0.70246
 C3964 C 0.85727 0.60329 0.71715
 C3965 C 0.92289 0.61781 0.74396
 C3966 C 0.94324 0.61697 0.74226
 C3967 C 0.95182 0.60812 0.72599
 C3968 C 0.94012 0.60001 0.71131
 C3969 C 0.88098 0.61961 0.74805
 C3970 C 0.87360 0.62697 0.76238
 C3971 C 0.91648 0.58303 0.68085
 C3972 C 0.92402 0.57545 0.66674
 H3973 H 0.88051 0.57796 0.67184
 H3974 H 0.84500 0.57969 0.67503
 H3975 H 0.82975 0.59596 0.70361
 H3976 H 0.84991 0.61020 0.72944
 H3977 H 0.91690 0.62487 0.75688
 H3978 H 0.95239 0.62325 0.75362
 H3979 H 0.96764 0.60754 0.72471
 H3980 H 0.94749 0.59330 0.69892
 C3981 C 0.40761 1.09336 0.69723
 C3982 C 0.41742 1.09280 0.71555
 C3983 C 0.40865 1.10156 0.73235
 C3984 C 0.39011 1.11084 0.73073
 C3985 C 0.38042 1.11162 0.71233
 C3986 C 0.38924 1.10293 0.69550
 C3987 C 0.37940 1.10411 0.67722
 C3988 C 0.36133 1.11356 0.67561
 C3989 C 0.35261 1.12188 0.69209
 C3990 C 0.36198 1.12098 0.71028
 C3991 C 0.41874 1.10080 0.75052
 C3992 C 0.43699 1.09169 0.75203
 C3993 C 0.44558 1.08317 0.73559
 C3994 C 0.43598 1.08366 0.71753
 C3995 C 0.38108 1.11958 0.74800
 C3996 C 0.37372 1.12675 0.76243
 C3997 C 0.41642 1.08402 0.68020
 C3998 C 0.42383 1.07629 0.66611
 H3999 H 0.38559 1.09783 0.66399
 H4000 H 0.35407 1.11445 0.66149
 H4001 H 0.33853 1.12913 0.69077
 H4002 H 0.35466 1.12772 0.72267
 H4003 H 0.41267 1.10724 0.76372
 H4004 H 0.44452 1.09127 0.76603
 H4005 H 0.45978 1.07613 0.73683
 H4006 H 0.44328 1.07686 0.70515
 C4007 C 0.40762 0.59253 1.19808
 C4008 C 0.41952 0.60261 1.21182
 C4009 C 0.41081 0.61180 1.22843
 C4010 C 0.39024 0.61093 1.23117
 C4011 C 0.37832 0.60100 1.21733
 C4012 C 0.38704 0.59172 1.20077
 C4013 C 0.37484 0.58174 1.18723
 C4014 C 0.35459 0.58100 1.18995
 C4015 C 0.34605 0.59021 1.20604
 C4016 C 0.35770 0.60010 1.21963
 C4017 C 0.42302 0.62172 1.24199
 C4018 C 0.44324 0.62259 1.23920
 C4019 C 0.45175 0.61365 1.22294
 C4020 C 0.44010 0.60374 1.20936
 C4021 C 0.38140 0.62004 1.24833
 C4022 C 0.37410 0.62745 1.26267
 C4023 C 0.41657 0.58318 1.18112
 C4024 C 0.42406 0.57561 1.16698
 H4025 H 0.38080 0.57441 1.17444
 H4026 H 0.34549 0.57321 1.17951
 H4027 H 0.33030 0.58967 1.20802
 H4028 H 0.35038 0.60701 1.23194
 H4029 H 0.41708 0.62893 1.25486
 H4030 H 0.45236 0.63025 1.24971
 H4031 H 0.46747 0.61438 1.22082
 H4032 H 0.44741 0.59701 1.19695
 C4033 C 1.09265 1.19781 0.90634
 C4034 C 1.08213 1.21573 0.90535
 C4035 C 1.09095 1.23256 0.89673
 C4036 C 1.11025 1.23139 0.88913
 C4037 C 1.12068 1.21339 0.88985
 C4038 C 1.11181 1.19652 0.89839
 C4039 C 1.12240 1.17863 0.89870
 C4040 C 1.14124 1.17744 0.89084
 C4041 C 1.15000 1.19398 0.88268
 C4042 C 1.13990 1.21179 0.88215
 C4043 C 1.08014 1.25031 0.89593
 C4044 C 1.06113 1.25137 0.90337
 C4045 C 1.05248 1.23490 0.91177
 C4046 C 1.06279 1.21724 0.91280
 C4047 C 1.11930 1.24867 0.88050
 C4048 C 1.12669 1.26310 0.87336
 C4049 C 1.08379 1.18078 0.91561
 C4050 C 1.07638 1.16666 0.92330
 H4051 H 1.11622 1.16536 0.90491
 H4052 H 1.14907 1.16360 0.89105
 H4053 H 1.16467 1.19299 0.87667
 H4054 H 1.14729 1.22423 0.87558
 H4055 H 1.08622 1.26352 0.88951
 H4056 H 1.05305 1.26505 0.90261
 H4057 H 1.03770 1.23579 0.91751
 H4058 H 1.05542 1.20482 0.91942
 C4059 C 1.09216 0.69834 0.40758
 C4060 C 1.11264 0.70136 0.40934
 C4061 C 1.12155 0.71785 0.40013
 C4062 C 1.10990 0.73136 0.38941
 C4063 C 1.08942 0.72836 0.38768
 C4064 C 1.08054 0.71177 0.39673
 C4065 C 1.06006 0.70903 0.39471
 C4066 C 1.04867 0.72234 0.38411
 C4067 C 1.05734 0.73860 0.37533
 C4068 C 1.07748 0.74165 0.37703
 C4069 C 1.14207 0.72044 0.40193
 C4070 C 1.15343 0.70724 0.41270
 C4071 C 1.14468 0.69127 0.42192
 C4072 C 1.12454 0.68822 0.42022
 C4073 C 1.11892 0.74848 0.38040
 C4074 C 1.12637 0.76277 0.37305
 C4075 C 1.08309 0.68136 0.41676
 C4076 C 1.07560 0.66715 0.42424
 H4077 H 1.05264 0.69661 0.40129
 H4078 H 1.03303 0.72003 0.38272
 H4079 H 1.04842 0.74893 0.36714
 H4080 H 1.08355 0.75450 0.36991
 H4081 H 1.14953 0.73269 0.39507
 H4082 H 1.16910 0.70947 0.41396
 H4083 H 1.15353 0.68119 0.43046
 H4084 H 1.11843 0.67553 0.42759
 C4085 C 0.59304 1.19801 0.40710
 C4086 C 0.59784 1.21455 0.41873
 C4087 C 0.60651 1.23135 0.40986
 C4088 C 0.61038 1.23150 0.38940
 C4089 C 0.60595 1.21479 0.37784
 C4090 C 0.59734 1.19796 0.38673
 C4091 C 0.59331 1.18134 0.37492
 C4092 C 0.59765 1.18134 0.35491
 C4093 C 0.60587 1.19786 0.34617
 C4094 C 0.60999 1.21444 0.35743
 C4095 C 0.61117 1.24770 0.42181
 C4096 C 0.60748 1.24743 0.44196
 C4097 C 0.59906 1.23098 0.45064
 C4098 C 0.59422 1.21470 0.43923
 C4099 C 0.61906 1.24876 0.38033
 C4100 C 0.62631 1.26315 0.37295
 C4101 C 0.58366 1.18108 0.41608
 C4102 C 0.57594 1.16700 0.42356
 H4103 H 0.58688 1.16815 0.38104
 H4104 H 0.59464 1.16844 0.34614
 H4105 H 0.60913 1.19781 0.33059
 H4106 H 0.61643 1.22693 0.34999
 H4107 H 0.61776 1.26083 0.41574
 H4108 H 0.61119 1.26004 0.45088
 H4109 H 0.59626 1.23082 0.46630
 H4110 H 0.58773 1.20224 0.44666
 C4111 C 0.59246 0.69734 0.90658
 C4112 C 0.58271 0.71570 0.90721
 C4113 C 0.59156 0.73252 0.89857
 C4114 C 0.61012 0.73088 0.88935
 C4115 C 0.61975 0.71246 0.88849
 C4116 C 0.61085 0.69561 0.89705
 C4117 C 0.62063 0.67730 0.89578
 C4118 C 0.63872 0.67568 0.88637
 C4119 C 0.64751 0.69218 0.87818
 C4120 C 0.63820 0.71040 0.87917
 C4121 C 0.58153 0.75072 0.89939
 C4122 C 0.56325 0.75224 0.90844
 C4123 C 0.55458 0.73579 0.91685
 C4124 C 0.56413 0.71769 0.91629
 C4125 C 0.61920 0.74815 0.88069
 C4126 C 0.62661 0.76257 0.87355
 C4127 C 0.58360 0.68029 0.91584
 C4128 C 0.57619 0.66618 0.92354
 H4129 H 0.61438 0.66405 0.90194
 H4130 H 0.64593 0.66154 0.88540
 H4131 H 0.66161 0.69086 0.87096
 H4132 H 0.64558 0.72280 0.87252
 H4133 H 0.58765 0.76393 0.89303
 H4134 H 0.55577 0.76627 0.90890
 H4135 H 0.54037 0.73705 0.92384
 H4136 H 0.55676 0.70531 0.92298
 C4137 C 0.90780 1.19763 1.09290
 C4138 C 0.88849 1.20324 1.08766
 C4139 C 0.87969 1.21993 1.09660
 C4140 C 0.89022 1.23088 1.11079
 C4141 C 0.90936 1.22501 1.11635
 C4142 C 0.91816 1.20831 1.10740
 C4143 C 0.93727 1.20266 1.11328
 C4144 C 0.94740 1.21321 1.12758
 C4145 C 0.93882 1.22957 1.13628
 C4146 C 0.92003 1.23548 1.13077
 C4147 C 0.86039 1.22527 1.09109
 C4148 C 0.85004 1.21438 1.07720
 C4149 C 0.85862 1.19802 1.06851
 C4150 C 0.87763 1.19246 1.07359
 C4151 C 0.88140 1.24821 1.11959
 C4152 C 0.87409 1.26263 1.12684
 C4153 C 0.91697 1.18087 1.08342
 C4154 C 0.92451 1.16686 1.07567
 H4155 H 0.94454 1.19001 1.10697
 H4156 H 0.96198 1.20865 1.13195
 H4157 H 0.94676 1.23773 1.14737
 H4158 H 0.91397 1.24828 1.13799
 H4159 H 0.85308 1.23786 1.09747
 H4160 H 0.83528 1.21865 1.07320
 H4161 H 0.85051 1.18958 1.05777
 H4162 H 0.88367 1.17961 1.06645
 C4163 C 0.90770 0.69765 0.59251
 C4164 C 0.91759 0.70769 0.60778
 C4165 C 0.90881 0.72443 0.61667
 C4166 C 0.89015 0.73097 0.61029
 C4167 C 0.88008 0.72069 0.59529
 C4168 C 0.88886 0.70396 0.58640
 C4169 C 0.87845 0.69384 0.57154
 C4170 C 0.85990 0.70008 0.56561
 C4171 C 0.85134 0.71647 0.57425
 C4172 C 0.86125 0.72673 0.58892
 C4173 C 0.91900 0.73425 0.63188
 C4174 C 0.93730 0.72767 0.63821
 C4175 C 0.94586 0.71126 0.62957
 C4176 C 0.93620 0.70135 0.61451
 C4177 C 0.88133 0.74828 0.61914
 C4178 C 0.87404 0.76270 0.62641
 C4179 C 0.91684 0.68082 0.58313
 C4180 C 0.92435 0.66674 0.57544
 H4181 H 0.88449 0.68099 0.56439
 H4182 H 0.85213 0.69213 0.55426
 H4183 H 0.83694 0.72127 0.56958
 H4184 H 0.85398 0.73938 0.59522
 H4185 H 0.91294 0.74705 0.63908
 H4186 H 0.94487 0.73533 0.64989
 H4187 H 0.96005 0.70618 0.63458
 H4188 H 0.94344 0.68865 0.60826
 C4189 C 0.40729 1.19802 0.59298
 C4190 C 0.38838 1.20420 0.58699
 C4191 C 0.37957 1.22091 0.59589
 C4192 C 0.38970 1.23129 0.61079
 C4193 C 0.40845 1.22489 0.61702
 C4194 C 0.41726 1.20818 0.60812
 C4195 C 0.43598 1.20200 0.61469
 C4196 C 0.44572 1.21206 0.62961
 C4197 C 0.43714 1.22844 0.63825
 C4198 C 0.41873 1.23486 0.63208
 C4199 C 0.36068 1.22685 0.58962
 C4200 C 0.35073 1.21652 0.57503
 C4201 C 0.35932 1.20013 0.56638
 C4202 C 0.37793 1.19400 0.57221
 C4203 C 0.38088 1.24859 0.61965
 C4204 C 0.37360 1.26300 0.62693
 C4205 C 0.41646 1.18119 0.58362
 C4206 C 0.42402 1.16713 0.57595
 H4207 H 0.44324 1.18932 0.60844
 H4208 H 0.46000 1.20710 0.63449
 H4209 H 0.44476 1.23622 0.64983
 H4210 H 0.41264 1.24766 0.63928
 H4211 H 0.35339 1.23948 0.59593
 H4212 H 0.33627 1.22123 0.57045
 H4213 H 0.35151 1.19213 0.55509
 H4214 H 0.38399 1.18115 0.56506
 C4215 C 0.40747 0.69812 1.09311
 C4216 C 0.38848 0.70423 1.08729
 C4217 C 0.37968 0.72092 1.09626
 C4218 C 0.38989 0.73136 1.11106
 C4219 C 0.40873 0.72503 1.11713
 C4220 C 0.41753 0.70835 1.10815
 C4221 C 0.43633 0.70224 1.11456
 C4222 C 0.44616 0.71233 1.12939
 C4223 C 0.43759 0.72868 1.13811
 C4224 C 0.41910 0.73503 1.13210
 C4225 C 0.36071 0.72677 1.09016
 C4226 C 0.35067 0.71638 1.07569
 C4227 C 0.35923 0.70003 1.06697
 C4228 C 0.37794 0.69397 1.07262
 C4229 C 0.38103 0.74860 1.12002
 C4230 C 0.37369 0.76296 1.12736
 C4231 C 0.41662 0.68128 1.08370
 C4232 C 0.42417 0.66721 1.07603
 H4233 H 0.44359 0.68959 1.10824
 H4234 H 0.46050 0.70743 1.13414
 H4235 H 0.44529 0.73649 1.14961
 H4236 H 0.41303 0.74781 1.13934
 H4237 H 0.35342 0.73938 1.09653
 H4238 H 0.33614 0.72103 1.07123
 H4239 H 0.35135 0.69198 1.05576
 H4240 H 0.38398 0.68115 1.06542
 C4241 C 0.90776 0.80244 0.90724
 C4242 C 0.91778 0.79216 0.89219
 C4243 C 0.90896 0.77548 0.88328
 C4244 C 0.89013 0.76922 0.88942
 C4245 C 0.87995 0.77972 0.90422
 C4246 C 0.88878 0.79640 0.91313
 C4247 C 0.87827 0.80673 0.92780
 C4248 C 0.85958 0.80074 0.93352
 C4249 C 0.85099 0.78439 0.92488
 C4250 C 0.86100 0.77393 0.91040
 C4251 C 0.91930 0.76541 0.86832
 C4252 C 0.93778 0.77171 0.86224
 C4253 C 0.94636 0.78808 0.87088
 C4254 C 0.93656 0.79823 0.88571
 C4255 C 0.88125 0.75195 0.88059
 C4256 C 0.87388 0.73757 0.87336
 C4257 C 0.91694 0.81922 0.91661
 C4258 C 0.92450 0.83325 0.92430
 H4259 H 0.88431 0.81958 0.93492
 H4260 H 0.85171 0.80886 0.94471
 H4261 H 0.83647 0.77979 0.92937
 H4262 H 0.85369 0.76132 0.90409
 H4263 H 0.91322 0.75262 0.86113
 H4264 H 0.94545 0.76387 0.85073
 H4265 H 0.96068 0.79296 0.86605
 H4266 H 0.94381 0.81091 0.89194
 C4267 C 0.90793 0.30226 0.40679
 C4268 C 0.90169 0.28632 0.41860
 C4269 C 0.89272 0.26970 0.40974
 C4270 C 0.88996 0.26915 0.38912
 C4271 C 0.89613 0.28514 0.37730
 C4272 C 0.90519 0.30172 0.38616
 C4273 C 0.91136 0.31746 0.37403
 C4274 C 0.90863 0.31685 0.35374
 C4275 C 0.89966 0.30070 0.34510
 C4276 C 0.89347 0.28497 0.35667
 C4277 C 0.88670 0.25391 0.42187
 C4278 C 0.88941 0.25454 0.44216
 C4279 C 0.89812 0.27082 0.45083
 C4280 C 0.90423 0.28657 0.43926
 C4281 C 0.88088 0.25209 0.38010
 C4282 C 0.87339 0.23781 0.37279
 C4283 C 0.91705 0.31923 0.41589
 C4284 C 0.92451 0.33334 0.42351
 H4285 H 0.91837 0.33037 0.38008
 H4286 H 0.91353 0.32897 0.34468
 H4287 H 0.89753 0.30032 0.32933
 H4288 H 0.88661 0.27270 0.34927
 H4289 H 0.87984 0.24092 0.41582
 H4290 H 0.88472 0.24232 0.45121
 H4291 H 0.90018 0.27125 0.46660
 H4292 H 0.91095 0.29889 0.44668
 C4293 C 0.40707 0.80222 0.40675
 C4294 C 0.40869 0.78363 0.41596
 C4295 C 0.39996 0.76685 0.40715
 C4296 C 0.38962 0.76876 0.38920
 C4297 C 0.38796 0.78737 0.38001
 C4298 C 0.39675 0.80414 0.38879
 C4299 C 0.39497 0.82257 0.37929
 C4300 C 0.38479 0.82438 0.36162
 C4301 C 0.37615 0.80800 0.35306
 C4302 C 0.37767 0.78967 0.36208
 C4303 C 0.40183 0.74842 0.41662
 C4304 C 0.41201 0.74661 0.43429
 C4305 C 0.42050 0.76303 0.44293
 C4306 C 0.41891 0.78136 0.43394
 C4307 C 0.38071 0.75159 0.38024
 C4308 C 0.37334 0.73723 0.37295
 C4309 C 0.41605 0.81931 0.41577
 C4310 C 0.42351 0.83347 0.42331
 H4311 H 0.40142 0.83574 0.38539
 H4312 H 0.38364 0.83856 0.35453
 H4313 H 0.36824 0.80951 0.33934
 H4314 H 0.37072 0.77736 0.35486
 H4315 H 0.39548 0.73522 0.41048
 H4316 H 0.41330 0.73240 0.44132
 H4317 H 0.42837 0.76156 0.45667
 H4318 H 0.42577 0.79368 0.44123
 C4319 C 0.40773 0.30242 0.90705
 C4320 C 0.39489 0.29040 0.91813
 C4321 C 0.38612 0.27366 0.90928
 C4322 C 0.39018 0.26908 0.88939
 C4323 C 0.40271 0.28134 0.87820
 C4324 C 0.41149 0.29808 0.88705
 C4325 C 0.42388 0.31017 0.87554
 C4326 C 0.42748 0.30586 0.85585
 C4327 C 0.41895 0.28947 0.84721
 C4328 C 0.40671 0.27728 0.85820
 C4329 C 0.37336 0.26185 0.92068
 C4330 C 0.36932 0.26649 0.94021
 C4331 C 0.37785 0.28289 0.94883
 C4332 C 0.39052 0.29474 0.93800
 C4333 C 0.38147 0.25176 0.88048
 C4334 C 0.37420 0.23735 0.87323
 C4335 C 0.41702 0.31925 0.91624
 C4336 C 0.42461 0.33328 0.92389
 H4337 H 0.43083 0.32310 0.88160
 H4338 H 0.43695 0.31530 0.84724
 H4339 H 0.42181 0.28617 0.83192
 H4340 H 0.40038 0.26472 0.85082
 H4341 H 0.36634 0.24896 0.91461
 H4342 H 0.35949 0.25731 0.94869
 H4343 H 0.37463 0.28645 0.96400
 H4344 H 0.39677 0.30736 0.94535
 C4345 C 1.09277 0.80220 1.09382
 C4346 C 1.08249 0.78414 1.09416
 C4347 C 1.09125 0.76729 1.10287
 C4348 C 1.11024 0.76860 1.11121
 C4349 C 1.12045 0.78671 1.11102
 C4350 C 1.11165 0.80358 1.10237
 C4351 C 1.12204 0.82157 1.10255
 C4352 C 1.14061 0.82285 1.11099
 C4353 C 1.14930 0.80632 1.11928
 C4354 C 1.13939 0.78842 1.11934
 C4355 C 1.08069 0.74940 1.10302
 C4356 C 1.06200 0.74819 1.09484
 C4357 C 1.05343 0.76467 1.08634
 C4358 C 1.06348 0.78247 1.08596
 C4359 C 1.11919 0.75133 1.12000
 C4360 C 1.12651 0.73689 1.12723
 C4361 C 1.08391 0.81929 1.08460
 C4362 C 1.07648 0.83344 1.07695
 H4363 H 1.11591 0.83483 1.09626
 H4364 H 1.14830 0.83676 1.11112
 H4365 H 1.16377 0.80739 1.12574
 H4366 H 1.14672 0.77598 1.12602
 H4367 H 1.08673 0.73617 1.10947
 H4368 H 1.05413 0.73439 1.09509
 H4369 H 1.03890 0.76366 1.08001
 H4370 H 1.05618 0.79489 1.07922
 C4371 C 1.09252 0.30226 0.59402
 C4372 C 1.08230 0.28416 0.59426
 C4373 C 1.09105 0.26733 0.60302
 C4374 C 1.10997 0.26867 0.61149
 C4375 C 1.12006 0.28685 0.61154
 C4376 C 1.11127 0.30372 0.60286
 C4377 C 1.12153 0.32178 0.60332
 C4378 C 1.13997 0.32313 0.61205
 C4379 C 1.14864 0.30660 0.62035
 C4380 C 1.13887 0.28863 0.62014
 C4381 C 1.08053 0.24941 0.60308
 C4382 C 1.06190 0.24816 0.59477
 C4383 C 1.05334 0.26463 0.58624
 C4384 C 1.06335 0.28246 0.58593
 C4385 C 1.11898 0.25139 0.62022
 C4386 C 1.12639 0.23699 0.62743
 C4387 C 1.08378 0.31930 0.58460
 C4388 C 1.07643 0.33342 0.57681
 H4389 H 1.11539 0.33504 0.59705
 H4390 H 1.14754 0.33709 0.61241
 H4391 H 1.16300 0.30772 0.62704
 H4392 H 1.14618 0.27620 0.62685
 H4393 H 1.08655 0.23620 0.60957
 H4394 H 1.05405 0.23434 0.59499
 H4395 H 1.03885 0.26359 0.57983
 H4396 H 1.05605 0.29487 0.57918
 C4397 C 0.59329 0.80304 0.59288
 C4398 C 0.58743 0.78397 0.58706
 C4399 C 0.59617 0.76720 0.59594
 C4400 C 0.61067 0.76960 0.61064
 C4401 C 0.61662 0.78869 0.61638
 C4402 C 0.60796 0.80546 0.60741
 C4403 C 0.61430 0.82438 0.61322
 C4404 C 0.62878 0.82667 0.62750
 C4405 C 0.63711 0.81028 0.63640
 C4406 C 0.63115 0.79147 0.63096
 C4407 C 0.59013 0.74828 0.58981
 C4408 C 0.57588 0.74600 0.57531
 C4409 C 0.56732 0.76240 0.56665
 C4410 C 0.57295 0.78120 0.57241
 C4411 C 0.61955 0.75243 0.61969
 C4412 C 0.62687 0.73805 0.62702
 C4413 C 0.58418 0.82011 0.58392
 C4414 C 0.57653 0.83421 0.57641
 H4415 H 0.60821 0.83758 0.60676
 H4416 H 0.63355 0.84124 0.63168
 H4417 H 0.64827 0.81214 0.64755
 H4418 H 0.63808 0.77916 0.63828
 H4419 H 0.59635 0.73507 0.59611
 H4420 H 0.57146 0.73142 0.57078
 H4421 H 0.55625 0.76055 0.55539
 H4422 H 0.56587 0.79349 0.56523
 C4423 C 0.59250 0.30275 1.09384
 C4424 C 0.61203 0.30376 1.10084
 C4425 C 0.62089 0.28692 1.10948
 C4426 C 0.61011 0.26923 1.11123
 C4427 C 0.59045 0.26835 1.10457
 C4428 C 0.58162 0.28516 1.09585
 C4429 C 0.56194 0.28394 1.08934
 C4430 C 0.55129 0.26660 1.09136
 C4431 C 0.55992 0.25016 1.09986
 C4432 C 0.57927 0.25093 1.10641
 C4433 C 0.64048 0.28824 1.11623
 C4434 C 0.65097 0.30574 1.11464
 C4435 C 0.64224 0.32224 1.10635
 C4436 C 0.62302 0.32134 1.09944
 C4437 C 0.61917 0.25195 1.11991
 C4438 C 0.62657 0.23753 1.12709
 C4439 C 0.58361 0.31974 1.08447
 C4440 C 0.57615 0.33382 1.07672
 H4441 H 0.55456 0.29636 1.08268
 H4442 H 0.53625 0.26593 1.08631
 H4443 H 0.55159 0.23672 1.10141
 H4444 H 0.58533 0.23776 1.11295
 H4445 H 0.64787 0.27580 1.12284
 H4446 H 0.66593 0.30650 1.11990
 H4447 H 0.65039 0.33584 1.10528
 H4448 H 0.61687 0.33456 1.09310
 C4449 C 1.19760 1.09274 0.90756
 C4450 C 1.19884 1.11346 0.90621
 C4451 C 1.21543 1.12233 0.89720
 C4452 C 1.23076 1.11043 0.88971
 C4453 C 1.22947 1.08970 0.89099
 C4454 C 1.21282 1.08083 0.89990
 C4455 C 1.21182 1.06008 0.90095
 C4456 C 1.22684 1.04842 0.89342
 C4457 C 1.24314 1.05709 0.88474
 C4458 C 1.24452 1.07748 0.88350
 C4459 C 1.21627 1.14307 0.89590
 C4460 C 1.20120 1.15472 0.90338
 C4461 C 1.18505 1.14605 0.91233
 C4462 C 1.18378 1.12566 0.91373
 C4463 C 1.24790 1.11947 0.88083
 C4464 C 1.26222 1.12685 0.87350
 C4465 C 1.18066 1.08363 0.91669
 C4466 C 1.16655 1.07602 0.92417
 H4467 H 1.19944 1.05265 0.90756
 H4468 H 1.22582 1.03258 0.89432
 H4469 H 1.25478 1.04796 0.87892
 H4470 H 1.25748 1.08352 0.87660
 H4471 H 1.22856 1.15050 0.88910
 H4472 H 1.20206 1.17056 0.90225
 H4473 H 1.17344 1.15516 0.91823
 H4474 H 1.17089 1.11960 0.92076
 C4475 C 1.19799 0.59213 0.40710
 C4476 C 1.19918 0.61285 0.40576
 C4477 C 1.21590 0.62179 0.39705
 C4478 C 1.23129 0.60995 0.38962
 C4479 C 1.22991 0.58921 0.39059
 C4480 C 1.21320 0.58027 0.39933
 C4481 C 1.21208 0.55952 0.39999
 C4482 C 1.22704 0.54791 0.39225
 C4483 C 1.24342 0.55664 0.38378
 C4484 C 1.24492 0.57704 0.38293
 C4485 C 1.21677 0.64254 0.39593
 C4486 C 1.20148 0.65413 0.40305
 C4487 C 1.18509 0.64538 0.41146
 C4488 C 1.18389 0.62500 0.41289
 C4489 C 1.24849 0.61907 0.38092
 C4490 C 1.26280 0.62659 0.37371
 C4491 C 1.18113 0.58302 0.41644
 C4492 C 1.16703 0.57555 0.42409
 H4493 H 1.19961 0.55205 0.40639
 H4494 H 1.22592 0.53206 0.39281
 H4495 H 1.25501 0.54755 0.37779
 H4496 H 1.25793 0.58314 0.37617
 H4497 H 1.22920 0.65002 0.38948
 H4498 H 1.20234 0.66998 0.40201
 H4499 H 1.17321 0.65442 0.41689
 H4500 H 1.17083 0.61889 0.41954
 C4501 C 0.69747 1.09245 0.40726
 C4502 C 0.69836 1.11311 0.40496
 C4503 C 0.71514 1.12190 0.39619
 C4504 C 0.73091 1.10997 0.38975
 C4505 C 0.72988 1.08929 0.39182
 C4506 C 0.71310 1.08051 0.40057
 C4507 C 0.71237 1.05980 0.40239
 C4508 C 0.72778 1.04810 0.39576
 C4509 C 0.74421 1.05667 0.38724
 C4510 C 0.74533 1.07702 0.38527
 C4511 C 0.71569 1.14258 0.39406
 C4512 C 0.70009 1.15424 0.40032
 C4513 C 0.68367 1.14565 0.40885
 C4514 C 0.68274 1.12533 0.41121
 C4515 C 0.74817 1.11892 0.38101
 C4516 C 0.76258 1.12624 0.37378
 C4517 C 0.68047 1.08346 0.41644
 C4518 C 0.66634 1.07594 0.42397
 H4519 H 0.69989 1.05244 0.40889
 H4520 H 0.72695 1.03228 0.39723
 H4521 H 0.75614 1.04751 0.38212
 H4522 H 0.75841 1.08300 0.37853
 H4523 H 0.72814 1.14994 0.38749
 H4524 H 0.70073 1.17003 0.39853
 H4525 H 0.67157 1.15477 0.41366
 H4526 H 0.66966 1.11932 0.41791
 C4527 C 0.69763 0.59280 0.90764
 C4528 C 0.71359 0.58097 0.90152
 C4529 C 0.73027 0.58980 0.89264
 C4530 C 0.73088 0.61042 0.88985
 C4531 C 0.71484 0.62224 0.89582
 C4532 C 0.69819 0.61341 0.90481
 C4533 C 0.68242 0.62555 0.91080
 C4534 C 0.68304 0.64582 0.90796
 C4535 C 0.69924 0.65443 0.89904
 C4536 C 0.71501 0.64285 0.89303
 C4537 C 0.74606 0.57766 0.88670
 C4538 C 0.74538 0.55738 0.88943
 C4539 C 0.72905 0.54875 0.89808
 C4540 C 0.71330 0.56033 0.90409
 C4541 C 0.74805 0.61942 0.88096
 C4542 C 0.76240 0.62675 0.87363
 C4543 C 0.68063 0.58374 0.91675
 C4544 C 0.66651 0.57615 0.92422
 H4545 H 0.66948 0.61953 0.91777
 H4546 H 0.67090 0.65490 0.91273
 H4547 H 0.69962 0.67017 0.89680
 H4548 H 0.72731 0.65022 0.88620
 H4549 H 0.75907 0.58369 0.87989
 H4550 H 0.75759 0.54832 0.88481
 H4551 H 0.72858 0.53299 0.90015
 H4552 H 0.70094 0.55293 0.91077
 C4553 C 1.19802 0.90699 1.09258
 C4554 C 1.21347 0.91887 1.09972
 C4555 C 1.23012 0.91000 1.10864
 C4556 C 1.23118 0.88930 1.11046
 C4557 C 1.21565 0.87742 1.10344
 C4558 C 1.19904 0.88629 1.09443
 C4559 C 1.18375 0.87411 1.08742
 C4560 C 1.18483 0.85374 1.08929
 C4561 C 1.20101 0.84508 1.09821
 C4562 C 1.21630 0.85670 1.10521
 C4563 C 1.24542 0.92220 1.11560
 C4564 C 1.24427 0.94257 1.11384
 C4565 C 1.22796 0.95124 1.10516
 C4566 C 1.21270 0.93960 1.09815
 C4567 C 1.24830 0.88028 1.11941
 C4568 C 1.26263 0.87294 1.12678
 C4569 C 1.18105 0.91610 1.08343
 C4570 C 1.16694 0.92371 1.07594
 H4571 H 1.17084 0.88017 1.08043
 H4572 H 1.17304 0.84464 1.08378
 H4573 H 1.20174 0.82925 1.09968
 H4574 H 1.22861 0.84928 1.11200
 H4575 H 1.25841 0.91615 1.12247
 H4576 H 1.25610 0.95167 1.11925
 H4577 H 1.22712 0.96706 1.10385
 H4578 H 1.20032 0.94703 1.09151
 C4579 C 1.19762 0.40693 0.59247
 C4580 C 1.19849 0.38625 0.59457
 C4581 C 1.21511 0.37735 0.60354
 C4582 C 1.23082 0.38918 0.61023
 C4583 C 1.22988 0.40987 0.60823
 C4584 C 1.21322 0.41877 0.59936
 C4585 C 1.21259 0.43949 0.59760
 C4586 C 1.22797 0.45109 0.60440
 C4587 C 1.24428 0.44239 0.61304
 C4588 C 1.24531 0.42203 0.61497
 C4589 C 1.21557 0.35666 0.60560
 C4590 C 1.20010 0.34508 0.59893
 C4591 C 1.18392 0.35377 0.59002
 C4592 C 1.18302 0.37412 0.58787
 C4593 C 1.24798 0.38011 0.61907
 C4594 C 1.26232 0.37274 0.62638
 C4595 C 1.18067 0.41607 0.58333
 C4596 C 1.16656 0.42369 0.57584
 H4597 H 1.20021 0.44695 0.59097
 H4598 H 1.22723 0.46691 0.60295
 H4599 H 1.25621 0.45146 0.61829
 H4600 H 1.25830 0.41595 0.62182
 H4601 H 1.22786 0.34922 0.61240
 H4602 H 1.20068 0.32927 0.60064
 H4603 H 1.17201 0.34471 0.58474
 H4604 H 1.17011 0.38020 0.58090
 C4605 C 0.69698 0.90736 0.59310
 C4606 C 0.69634 0.88741 0.59901
 C4607 C 0.71313 0.87854 0.60772
 C4608 C 0.73043 0.88970 0.61052
 C4609 C 0.73096 0.90972 0.60484
 C4610 C 0.71418 0.91857 0.59613
 C4611 C 0.71503 0.93862 0.59066
 C4612 C 0.73198 0.94963 0.59370
 C4613 C 0.74840 0.94097 0.60217
 C4614 C 0.74799 0.92126 0.60769
 C4615 C 0.71214 0.85858 0.61346
 C4616 C 0.69503 0.84771 0.61079
 C4617 C 0.67860 0.85640 0.60235
 C4618 C 0.67918 0.87601 0.59646
 C4619 C 0.74767 0.88067 0.61926
 C4620 C 0.76210 0.87336 0.62647
 C4621 C 0.67997 0.91636 0.58390
 C4622 C 0.66587 0.92391 0.57630
 H4623 H 0.70263 0.94602 0.58405
 H4624 H 0.73235 0.96496 0.58946
 H4625 H 0.76153 0.94959 0.60449
 H4626 H 0.76113 0.91520 0.61424
 H4627 H 0.72454 0.85118 0.62010
 H4628 H 0.69450 0.83247 0.61531
 H4629 H 0.66533 0.84792 0.60034
 H4630 H 0.66604 0.88213 0.58996
 C4631 C 0.69775 0.40706 1.09250
 C4632 C 0.71245 0.41899 1.10104
 C4633 C 0.72905 0.41015 1.11008
 C4634 C 0.73082 0.38942 1.11063
 C4635 C 0.71606 0.37749 1.10217
 C4636 C 0.69950 0.38633 1.09304
 C4637 C 0.68499 0.37410 1.08460
 C4638 C 0.68679 0.35371 1.08518
 C4639 C 0.70293 0.34506 1.09419
 C4640 C 0.71745 0.35674 1.10260
 C4641 C 0.74359 0.42240 1.11844
 C4642 C 0.74175 0.44278 1.11792
 C4643 C 0.72549 0.45142 1.10913
 C4644 C 0.71096 0.43973 1.10076
 C4645 C 0.74789 0.38044 1.11975
 C4646 C 0.76217 0.37310 1.12724
 C4647 C 0.68080 0.41615 1.08328
 C4648 C 0.66668 0.42375 1.07578
 H4649 H 0.67215 0.38015 1.07746
 H4650 H 0.67560 0.34458 1.07858
 H4651 H 0.70422 0.32922 1.09465
 H4652 H 0.72975 0.34934 1.10941
 H4653 H 0.75651 0.41637 1.12545
 H4654 H 0.75301 0.45193 1.12438
 H4655 H 0.72411 0.46726 1.10879
 H4656 H 0.69859 0.44715 1.09408
 C4657 C 0.80291 1.09335 1.09284
 C4658 C 0.78448 1.09231 1.08334
 C4659 C 0.76769 1.10092 1.09225
 C4660 C 0.76944 1.11054 1.11062
 C4661 C 0.78794 1.11183 1.11999
 C4662 C 0.80474 1.10329 1.11103
 C4663 C 0.82313 1.10499 1.12054
 C4664 C 0.82485 1.11484 1.13841
 C4665 C 0.80839 1.12300 1.14727
 C4666 C 0.79010 1.12156 1.13823
 C4667 C 0.74942 1.09968 1.08245
 C4668 C 0.74780 1.09027 1.06435
 C4669 C 0.76422 1.08189 1.05562
 C4670 C 0.78238 1.08283 1.06495
 C4671 C 0.75223 1.11922 1.11975
 C4672 C 0.73786 1.12642 1.12718
 C4673 C 0.81993 1.08412 1.08393
 C4674 C 0.83403 1.07644 1.07648
 H4675 H 0.83635 1.09886 1.11423
 H4676 H 0.83905 1.11615 1.14539
 H4677 H 0.80980 1.13055 1.16120
 H4678 H 0.77774 1.12821 1.14566
 H4679 H 0.73622 1.10600 1.08864
 H4680 H 0.73372 1.08950 1.05704
 H4681 H 0.76290 1.07462 1.04154
 H4682 H 0.79474 1.07613 1.05754
 C4683 C 0.80289 0.59309 0.59241
 C4684 C 0.78521 0.59473 0.58163
 C4685 C 0.76843 0.60345 0.59045
 C4686 C 0.76943 0.61050 0.61000
 C4687 C 0.78720 0.60912 0.62069
 C4688 C 0.80401 0.60047 0.61183
 C4689 C 0.82168 0.59950 0.62270
 C4690 C 0.82273 0.60683 0.64178
 C4691 C 0.80625 0.61510 0.65053
 C4692 C 0.78865 0.61627 0.64017
 C4693 C 0.75092 0.60491 0.57935
 C4694 C 0.75005 0.59802 0.56009
 C4695 C 0.76648 0.58954 0.55146
 C4696 C 0.78389 0.58785 0.56204
 C4697 C 0.75221 0.61926 0.61904
 C4698 C 0.73784 0.62651 0.62641
 C4699 C 0.81988 0.58378 0.58351
 C4700 C 0.83395 0.57607 0.57605
 H4701 H 0.83489 0.59317 0.61654
 H4702 H 0.83641 0.60612 0.64981
 H4703 H 0.80712 0.62069 0.66539
 H4704 H 0.77624 0.62288 0.64757
 H4705 H 0.73776 0.61142 0.58541
 H4706 H 0.73656 0.59930 0.55180
 H4707 H 0.76574 0.58423 0.53648
 H4708 H 0.79628 0.58117 0.55468
 C4709 C 0.30205 1.09250 0.59299
 C4710 C 0.30150 1.09536 0.61360
 C4711 C 0.28490 1.10444 0.62243
 C4712 C 0.26888 1.11048 0.61061
 C4713 C 0.26943 1.10756 0.59001
 C4714 C 0.28607 1.09858 0.58117
 C4715 C 0.28628 1.09586 0.56054
 C4716 C 0.27051 1.10182 0.54897
 C4717 C 0.25423 1.11058 0.55760
 C4718 C 0.25361 1.11345 0.57787
 C4719 C 0.28475 1.10725 0.64304
 C4720 C 0.30049 1.10117 0.65462
 C4721 C 0.31664 1.09216 0.64601
 C4722 C 0.31725 1.08930 0.62573
 C4723 C 0.25178 1.11951 0.61963
 C4724 C 0.23747 1.12691 0.62700
 C4725 C 0.31907 1.08344 0.58388
 C4726 C 0.33321 1.07601 0.57625
 H4727 H 0.29862 1.08911 0.55314
 H4728 H 0.27093 1.09963 0.53322
 H4729 H 0.24200 1.11517 0.54854
 H4730 H 0.24063 1.12034 0.58390
 H4731 H 0.27248 1.11415 0.65042
 H4732 H 0.30013 1.10343 0.67037
 H4733 H 0.32877 1.08734 0.65508
 H4734 H 0.33016 1.08227 0.61971
 C4735 C 0.30225 0.59322 1.09247
 C4736 C 0.30236 0.59781 1.11276
 C4737 C 0.28555 0.60650 1.12158
 C4738 C 0.26879 0.61068 1.11001
 C4739 C 0.26886 0.60649 1.08962
 C4740 C 0.28565 0.59775 1.08082
 C4741 C 0.28541 0.59379 1.06040
 C4742 C 0.26906 0.59832 1.04899
 C4743 C 0.25263 0.60683 1.05759
 C4744 C 0.25244 0.61088 1.07766
 C4745 C 0.28598 0.61086 1.14192
 C4746 C 0.30260 0.60694 1.15318
 C4747 C 0.31909 0.59861 1.14452
 C4748 C 0.31903 0.59400 1.12457
 C4749 C 0.25153 0.61936 1.11903
 C4750 C 0.23717 0.62658 1.12645
 C4751 C 0.31919 0.58383 1.08356
 C4752 C 0.33329 0.57610 1.07616
 H4753 H 0.29787 0.58724 1.05303
 H4754 H 0.26915 0.59524 1.03338
 H4755 H 0.23996 0.61033 1.04865
 H4756 H 0.23933 0.61754 1.08367
 H4757 H 0.27353 0.61740 1.14930
 H4758 H 0.30271 0.61043 1.16870
 H4759 H 0.33202 0.59574 1.15328
 H4760 H 0.33221 0.58753 1.11850
 C4761 C 0.80261 0.90752 0.90746
 C4762 C 0.80024 0.90807 0.88679
 C4763 C 0.78354 0.89921 0.87799
 C4764 C 0.76934 0.88980 0.88992
 C4765 C 0.77189 0.88897 0.91057
 C4766 C 0.78859 0.89782 0.91935
 C4767 C 0.79089 0.89669 0.94000
 C4768 C 0.77707 0.88712 0.95165
 C4769 C 0.76070 0.87852 0.94307
 C4770 C 0.75805 0.87940 0.92278
 C4771 C 0.78147 0.89998 0.85730
 C4772 C 0.79556 0.90914 0.84563
 C4773 C 0.81192 0.91774 0.85423
 C4774 C 0.81430 0.91728 0.87457
 C4775 C 0.75212 0.88100 0.88098
 C4776 C 0.73778 0.87371 0.87365
 C4777 C 0.81946 0.91687 0.91650
 C4778 C 0.83350 0.92451 0.92404
 H4779 H 0.80341 0.90312 0.94735
 H4780 H 0.77909 0.88637 0.96742
 H4781 H 0.75000 0.87110 0.95219
 H4782 H 0.74510 0.87245 0.91679
 H4783 H 0.76901 0.89347 0.84993
 H4784 H 0.79378 0.90955 0.82982
 H4785 H 0.82285 0.92481 0.84509
 H4786 H 0.82729 0.92415 0.88057
 C4787 C 0.80217 0.40686 0.40719
 C4788 C 0.80226 0.40212 0.38692
 C4789 C 0.78547 0.39331 0.37821
 C4790 C 0.76872 0.38926 0.38984
 C4791 C 0.76875 0.39374 0.41016
 C4792 C 0.78553 0.40254 0.41886
 C4793 C 0.78526 0.40680 0.43922
 C4794 C 0.76887 0.40249 0.45067
 C4795 C 0.75245 0.39392 0.44217
 C4796 C 0.75230 0.38958 0.42215
 C4797 C 0.78591 0.38872 0.35793
 C4798 C 0.80248 0.39263 0.34659
 C4799 C 0.81890 0.40120 0.35511
 C4800 C 0.81886 0.40596 0.37503
 C4801 C 0.75145 0.38051 0.38092
 C4802 C 0.73705 0.37329 0.37361
 C4803 C 0.81919 0.41613 0.41606
 C4804 C 0.83331 0.42374 0.42349
 H4805 H 0.79769 0.41344 0.44652
 H4806 H 0.76893 0.40581 0.46623
 H4807 H 0.73975 0.39060 0.45113
 H4808 H 0.73918 0.38289 0.41622
 H4809 H 0.77350 0.38201 0.35065
 H4810 H 0.80258 0.38897 0.33110
 H4811 H 0.83174 0.40418 0.34624
 H4812 H 0.83198 0.41260 0.38099
 C4813 C 0.30224 0.90712 0.40730
 C4814 C 0.28386 0.90803 0.41695
 C4815 C 0.26715 0.89904 0.40832
 C4816 C 0.26892 0.88911 0.39012
 C4817 C 0.28732 0.88814 0.38049
 C4818 C 0.30401 0.89721 0.38909
 C4819 C 0.32222 0.89614 0.37915
 C4820 C 0.32390 0.88639 0.36123
 C4821 C 0.30760 0.87745 0.35285
 C4822 C 0.28948 0.87827 0.36231
 C4823 C 0.24893 0.90024 0.41823
 C4824 C 0.24727 0.91001 0.43614
 C4825 C 0.26363 0.91876 0.44459
 C4826 C 0.28175 0.91783 0.43517
 C4827 C 0.25177 0.88006 0.38127
 C4828 C 0.23744 0.87268 0.37399
 C4829 C 0.31928 0.91631 0.41615
 C4830 C 0.33343 0.92388 0.42359
 H4831 H 0.33533 0.90283 0.38509
 H4832 H 0.33791 0.88579 0.35380
 H4833 H 0.30901 0.86986 0.33895
 H4834 H 0.27722 0.87112 0.35521
 H4835 H 0.23578 0.89365 0.41225
 H4836 H 0.23322 0.91079 0.44352
 H4837 H 0.26228 0.92632 0.45852
 H4838 H 0.29404 0.92486 0.44233
 C4839 C 0.30233 0.40758 0.90706
 C4840 C 0.28485 0.40535 0.91807
 C4841 C 0.26818 0.39635 0.90937
 C4842 C 0.26909 0.38959 0.88971
 C4843 C 0.28658 0.39180 0.87869
 C4844 C 0.30323 0.40089 0.88737
 C4845 C 0.32049 0.40309 0.87601
 C4846 C 0.32130 0.39647 0.85665
 C4847 C 0.30508 0.38746 0.84821
 C4848 C 0.28788 0.38512 0.85903
 C4849 C 0.25086 0.39434 0.92067
 C4850 C 0.25005 0.40101 0.94002
 C4851 C 0.26636 0.40978 0.94853
 C4852 C 0.28360 0.41196 0.93775
 C4853 C 0.25200 0.38050 0.88081
 C4854 C 0.23771 0.37306 0.87352
 C4855 C 0.31938 0.41665 0.91605
 C4856 C 0.33352 0.42410 0.92359
 H4857 H 0.33350 0.40998 0.88195
 H4858 H 0.33458 0.39837 0.84815
 H4859 H 0.30582 0.38228 0.83319
 H4860 H 0.27563 0.37806 0.85182
 H4861 H 0.23779 0.38760 0.91471
 H4862 H 0.23669 0.39935 0.94845
 H4863 H 0.26567 0.41493 0.96356
 H4864 H 0.29589 0.41889 0.94502
   
