data_POSCAR
  _audit_creation_date              2014-09-24
  _audit_creation_method            'ToBaCCo'
  _symmetry_space_group_name_H-M    'P1'
  _symmetry_Int_Tables_number       1
  _symmetry_cell_setting            triclinic
  loop_
  _symmetry_equiv_pos_as_xyz
 x,y,z
_cell_length_a 57.7059
_cell_length_b 57.0456
_cell_length_c 57.0010
_cell_angle_alpha 88.939100
_cell_angle_beta 87.561100
_cell_angle_gamma 88.799700
loop_
  _atom_site_label
  _atom_site_type_symbol
  _atom_site_fract_x
  _atom_site_fract_y
  _atom_site_fract_z
Si1 Si 0.75502 0.61995 1.00011
 Si2 Si 0.74661 0.37532 0.50415
 Si3 Si 0.24788 -0.12299 0.00573
 Si4 Si 0.25507 0.11568 0.50098
 Si5 Si 0.11778 0.49710 0.25414
 Si6 Si -0.12049 0.00959 0.24781
 Si7 Si 0.37733 0.50753 0.74493
 Si8 Si 0.61828 1.00024 0.75739
 Si9 Si 0.00748 0.24581 -0.12414
 Si10 Si 0.50113 0.26517 0.11440
 Si11 Si 0.99860 0.75141 0.61502
 Si12 Si 0.50442 0.75922 0.38101
 C13 C 0.41735 -0.01615 0.26759
 H14 H 0.41735 0.00065 0.27610
 C15 C 0.42989 -0.03516 0.27682
 H16 H 0.43949 -0.03282 0.29248
 C17 C 0.40337 -0.03997 0.23788
 H18 H 0.39253 -0.04204 0.22312
 C19 C 0.41568 -0.05938 0.24646
 H20 H 0.41456 -0.07600 0.23776
 N21 N 0.40422 -0.01892 0.24861
 C22 C 0.38767 0.04966 0.21789
 H23 H 0.36917 0.04750 0.21685
 C24 C 0.39780 0.07033 0.20964
 H25 H 0.38698 0.08390 0.20193
 C26 C 0.42416 0.03428 0.22899
 H27 H 0.43429 0.02017 0.23662
 C28 C 0.43507 0.05475 0.22087
 H29 H 0.45359 0.05631 0.22250
 Zn30 Zn 0.38425 0.00606 0.23940
 N31 N 0.40080 0.03233 0.22769
 C32 C 0.36649 0.03731 0.27387
 N33 N 0.36591 0.01487 0.26630
 C34 C 0.35367 -0.00174 0.27863
 C35 C 0.34119 0.00406 0.29936
 C36 C 0.35421 0.04388 0.29436
 C37 C 0.37667 -0.00775 0.19394
 C38 C 0.36433 -0.01509 0.17499
 C39 C 0.32919 -0.01333 0.19957
 C40 C 0.34224 -0.00597 0.21809
 N41 N 0.36559 -0.00367 0.21504
 H42 H 0.37686 0.05014 0.26436
 H43 H 0.35384 -0.01957 0.27247
 H44 H 0.33149 -0.00933 0.30895
 H45 H 0.35528 0.06175 0.30025
 H46 H 0.39523 -0.00555 0.19197
 H47 H 0.37362 -0.01883 0.15854
 H48 H 0.31062 -0.01510 0.20227
 H49 H 0.33369 -0.00216 0.23485
 C50 C 0.42176 0.07323 0.21133
 C51 C 0.42878 -0.05727 0.26648
 C52 C 0.34028 -0.01810 0.17769
 C53 C 0.34139 0.02717 0.30744
 C54 C 0.09141 1.01510 0.77689
 H55 H 0.08915 0.99900 0.78698
 C56 C 0.08027 1.03579 0.78446
 H57 H 0.06949 1.03544 0.80046
 C58 C 0.10950 1.03537 0.74465
 H59 H 0.12137 1.03537 0.72950
 C60 C 0.09870 1.05637 0.75153
 H61 H 0.10199 1.07216 0.74119
 N62 N 0.10584 1.01529 0.75740
 C63 C 0.11585 0.94343 0.73371
 H64 H 0.13461 0.94291 0.73278
 C65 C 0.10363 0.92419 0.72660
 H66 H 0.11317 0.90898 0.71999
 C67 C 0.08079 0.96443 0.74260
 H68 H 0.07203 0.98027 0.74863
 C69 C 0.06781 0.94555 0.73551
 H70 H 0.04906 0.94690 0.73639
 Zn71 Zn 0.12338 0.98783 0.74985
 N72 N 0.10437 0.96293 0.74170
 C73 C 0.13772 0.95755 0.78652
 N74 N 0.14045 0.97915 0.77641
 C75 C 0.15440 0.99518 0.78572
 C76 C 0.16668 0.98953 0.80576
 C77 C 0.14973 0.95114 0.80642
 C78 C 0.13279 0.99772 0.70273
 C79 C 0.14588 1.00313 0.68232
 C80 C 0.18059 0.99972 0.70453
 C81 C 0.16679 0.99430 0.72457
 N82 N 0.14331 0.99389 0.72337
 H83 H 0.12600 0.94530 0.77940
 H84 H 0.15593 1.01240 0.77759
 H85 H 0.17789 1.00238 0.81284
 H86 H 0.14712 0.93394 0.81432
 H87 H 0.11410 0.99705 0.70228
 H88 H 0.13705 1.00696 0.66627
 H89 H 0.19924 1.00026 0.70578
 H90 H 0.17484 0.99069 0.74104
 C91 C 0.07929 0.92507 0.72744
 C92 C 0.08417 1.05688 0.77190
 C93 C 0.17010 1.00447 0.68310
 C94 C 0.16449 0.96718 0.81626
 C95 C 0.58814 0.52687 0.28253
 H96 H 0.58588 0.51029 0.29178
 C97 C 0.57625 0.54697 0.29061
 H98 H 0.56492 0.54570 0.30620
 C99 C 0.60683 0.54891 0.25187
 H100 H 0.61918 0.54984 0.23715
 C101 C 0.59527 0.56934 0.25927
 H102 H 0.59852 0.58561 0.24973
 N103 N 0.60320 0.52822 0.26355
 C104 C 0.61469 0.45756 0.23702
 H105 H 0.63345 0.45714 0.23676
 C106 C 0.60285 0.43851 0.22890
 H107 H 0.61268 0.42353 0.22216
 C108 C 0.57927 0.47813 0.24542
 H109 H 0.57022 0.49372 0.25168
 C110 C 0.56668 0.45942 0.23730
 H111 H 0.54792 0.46066 0.23765
 Zn112 Zn 0.62135 0.50137 0.25510
 N113 N 0.60284 0.47675 0.24526
 C114 C 0.63345 0.47003 0.29159
 N115 N 0.63767 0.49151 0.28178
 C116 C 0.65218 0.50659 0.29173
 C117 C 0.66340 0.50007 0.31220
 C118 C 0.64417 0.46287 0.31203
 C119 C 0.63120 0.51386 0.20886
 C120 C 0.64421 0.52095 0.18896
 C121 C 0.67892 0.51667 0.21105
 C122 C 0.66517 0.50966 0.23065
 N123 N 0.64170 0.50896 0.22932
 H124 H 0.62142 0.45850 0.28386
 H125 H 0.65481 0.52380 0.28390
 H126 H 0.67472 0.51234 0.32006
 H127 H 0.64067 0.44562 0.31944
 H128 H 0.61254 0.51275 0.20821
 H129 H 0.63544 0.52507 0.17293
 H130 H 0.69750 0.51790 0.21252
 H131 H 0.67322 0.50520 0.24695
 C132 C 0.57852 0.43924 0.22899
 C133 C 0.58004 0.56865 0.27913
 C134 C 0.66834 0.52288 0.19001
 C135 C 0.65927 0.47800 0.32269
 C136 C 0.91154 0.47254 0.77273
 H137 H 0.91221 0.48928 0.78128
 C138 C 0.92380 0.45313 0.78159
 H139 H 0.93388 0.45511 0.79699
 C140 C 0.89628 0.44930 0.74326
 H141 H 0.88509 0.44763 0.72872
 C142 C 0.90824 0.42953 0.75148
 H143 H 0.90651 0.41301 0.74272
 N144 N 0.89798 0.47026 0.75400
 C145 C 0.88304 0.53926 0.72334
 H146 H 0.86448 0.53747 0.72239
 C147 C 0.89355 0.55962 0.71480
 H148 H 0.88296 0.57331 0.70697
 C149 C 0.91928 0.52323 0.73439
 H150 H 0.92917 0.50895 0.74204
 C151 C 0.93058 0.54337 0.72594
 H152 H 0.94917 0.54455 0.72736
 Zn153 Zn 0.87867 0.49582 0.74483
 N154 N 0.89586 0.52175 0.73324
 C155 C 0.86100 0.52745 0.77891
 N156 N 0.86019 0.50496 0.77152
 C157 C 0.84738 0.48869 0.78372
 C158 C 0.83450 0.49492 0.80410
 C159 C 0.84829 0.53445 0.79897
 C160 C 0.87145 0.48273 0.69920
 C161 C 0.85930 0.47606 0.67989
 C162 C 0.82379 0.47814 0.70390
 C163 C 0.83667 0.48485 0.72280
 N164 N 0.86010 0.48671 0.72018
 H165 H 0.87179 0.54001 0.76953
 H166 H 0.84736 0.47081 0.77771
 H167 H 0.82434 0.48182 0.81361
 H168 H 0.84945 0.55238 0.80469
 H169 H 0.89008 0.48455 0.69759
 H170 H 0.86878 0.47243 0.66352
 H171 H 0.80515 0.47674 0.70622
 H172 H 0.82794 0.48856 0.73950
 C173 C 0.91759 0.56202 0.71624
 C174 C 0.92191 0.43115 0.77115
 C175 C 0.83515 0.47359 0.68210
 C176 C 0.83482 0.51813 0.81186
 C177 C 0.27110 0.40922 -0.02851
 H178 H 0.27932 0.41101 -0.01194
 C179 C 0.27956 0.42145 -0.04844
 H180 H 0.29435 0.43264 -0.04704
 C181 C 0.24282 0.39122 -0.05070
 H182 H 0.22889 0.37899 -0.05172
 C183 C 0.25069 0.40310 -0.07102
 H184 H 0.24229 0.40026 -0.08733
 N185 N 0.25313 0.39435 -0.03000
 C186 C 0.22447 0.38130 0.04092
 H187 H 0.22445 0.36235 0.04034
 C188 C 0.21617 0.39266 0.06108
 H189 H 0.20948 0.38232 0.07588
 C190 C 0.23294 0.41766 0.02201
 H191 H 0.23949 0.42727 0.00670
 C192 C 0.22467 0.42981 0.04188
 H193 H 0.22512 0.44878 0.04180
 Zn194 Zn 0.24458 0.37559 -0.00338
 N195 N 0.23299 0.39381 0.02207
 C196 C 0.28005 0.36294 0.02705
 N197 N 0.27154 0.35877 0.00567
 C198 C 0.28312 0.34442 -0.00985
 C199 C 0.30413 0.33357 -0.00400
 C200 C 0.30093 0.35259 0.03353
 C201 C 0.19978 0.36610 -0.01485
 C202 C 0.18080 0.35299 -0.02058
 C203 C 0.20462 0.31781 -0.01741
 C204 C 0.22320 0.33166 -0.01162
 N205 N 0.22051 0.35538 -0.01081
 H206 H 0.27104 0.37484 0.03896
 H207 H 0.27627 0.34182 -0.02697
 H208 H 0.31339 0.32255 -0.01668
 H209 H 0.30739 0.35623 0.05063
 H210 H 0.19811 0.38499 -0.01387
 H211 H 0.16464 0.36198 -0.02434
 H212 H 0.20700 0.29895 -0.01812
 H213 H 0.23969 0.32344 -0.00785
 C214 C 0.21642 0.41723 0.06187
 C215 C 0.26953 0.41820 -0.07016
 C216 C 0.18310 0.32851 -0.02206
 C217 C 0.31341 0.33793 0.01784
 C218 C 0.77733 0.09304 1.02058
 H219 H 0.78649 0.09069 1.00380
 C220 C 0.78568 0.08205 1.04076
 H221 H 0.80132 0.07127 1.03933
 C222 C 0.74677 0.11131 1.04300
 H223 H 0.73200 0.12323 1.04401
 C224 C 0.75446 0.10066 1.06356
 H225 H 0.74509 0.10410 1.08004
 N226 N 0.75832 0.10752 1.02207
 C227 C 0.73282 0.11749 0.95151
 H228 H 0.73238 0.13646 0.95103
 C229 C 0.72519 0.10514 0.93256
 H230 H 0.71868 0.11479 0.91760
 C231 C 0.74118 0.08205 0.97211
 H232 H 0.74725 0.07320 0.98768
 C233 C 0.73354 0.06894 0.95351
 H234 H 0.73406 0.04998 0.95478
 Zn235 Zn 0.75007 0.12518 0.99509
 N236 N 0.74084 0.10589 0.97066
 C237 C 0.78631 0.13877 0.96316
 N238 N 0.77640 0.14248 0.98488
 C239 C 0.78606 0.15712 1.00013
 C240 C 0.80644 0.16887 0.99363
 C241 C 0.80666 0.15005 0.95600
 C242 C 0.70412 0.13426 1.00806
 C243 C 0.68432 0.14725 1.01481
 C244 C 0.70637 0.18266 1.00963
 C245 C 0.72582 0.16894 1.00292
 N246 N 0.72444 0.14516 1.00277
 H247 H 0.77878 0.12666 0.95147
 H248 H 0.77812 0.15935 1.01750
 H249 H 0.81414 0.18014 1.00611
 H250 H 0.81424 0.14687 0.93861
 H251 H 0.70344 0.11535 1.00738
 H252 H 0.66836 0.13818 1.01911
 H253 H 0.70791 0.20151 1.01040
 H254 H 0.74202 0.17729 0.99818
 C255 C 0.72553 0.08054 0.93334
 C256 C 0.77442 0.08615 1.06270
 C257 C 0.68537 0.17175 1.01605
 C258 C 0.81713 0.16516 0.97138
 C259 C 0.27953 0.58954 0.51419
 H260 H 0.28850 0.58782 0.49723
 C261 C 0.28828 0.57807 0.53390
 H262 H 0.30379 0.56717 0.53189
 C263 C 0.24882 0.60648 0.53750
 H264 H 0.23392 0.61819 0.53904
 C265 C 0.25695 0.59534 0.55763
 H266 H 0.24808 0.59863 0.57440
 N267 N 0.26023 0.60354 0.51634
 C268 C 0.23469 0.61432 0.44595
 H269 H 0.23374 0.63328 0.44574
 C270 C 0.22740 0.60201 0.42681
 H271 H 0.22065 0.61167 0.41197
 C272 C 0.24383 0.57883 0.46610
 H273 H 0.25001 0.56992 0.48159
 C274 C 0.23658 0.56576 0.44731
 H275 H 0.23753 0.54680 0.44836
 Zn276 Zn 0.25133 0.62168 0.48994
 N277 N 0.24289 0.60267 0.46498
 C278 C 0.28728 0.63746 0.45864
 N279 N 0.27704 0.64016 0.48039
 C280 C 0.28613 0.65448 0.49629
 C281 C 0.30630 0.66686 0.49052
 C282 C 0.30745 0.64944 0.45217
 C283 C 0.20515 0.62843 0.50320
 C284 C 0.18483 0.64030 0.51041
 C285 C 0.20525 0.67681 0.50645
 C286 C 0.22527 0.66417 0.49924
 N287 N 0.22494 0.64037 0.49825
 H288 H 0.28021 0.62558 0.44642
 H289 H 0.27796 0.65589 0.51366
 H290 H 0.31356 0.67781 0.50356
 H291 H 0.31529 0.64706 0.43476
 H292 H 0.20532 0.60953 0.50189
 H293 H 0.16931 0.63038 0.51441
 H294 H 0.20595 0.69567 0.50788
 H295 H 0.24108 0.67337 0.49481
 C296 C 0.22829 0.57740 0.42730
 C297 C 0.27713 0.58119 0.55607
 C298 C 0.18478 0.66478 0.51251
 C299 C 0.31736 0.66419 0.46827
 C300 C 0.77574 0.91227 0.47652
 H301 H 0.78425 0.91353 0.49298
 C302 C 0.78454 0.92423 0.45654
 H303 H 0.79988 0.93464 0.45781
 C304 C 0.74624 0.89596 0.45461
 H305 H 0.73168 0.88449 0.45370
 C306 C 0.75443 0.90759 0.43426
 H307 H 0.74565 0.90533 0.41807
 N308 N 0.75697 0.89840 0.47520
 C309 C 0.72874 0.88654 0.54651
 H310 H 0.72791 0.86763 0.54597
 C311 C 0.72101 0.89825 0.56667
 H312 H 0.71398 0.88820 0.58152
 C313 C 0.73847 0.92248 0.52740
 H314 H 0.74520 0.93179 0.51198
 C315 C 0.73077 0.93498 0.54727
 H316 H 0.73186 0.95390 0.54709
 Zn317 Zn 0.74763 0.87999 0.50183
 N318 N 0.73756 0.89866 0.52754
 C319 C 0.78281 0.86465 0.53157
 N320 N 0.77359 0.86127 0.51035
 C321 C 0.78382 0.84619 0.49463
 C322 C 0.80409 0.83371 0.50011
 C323 C 0.80301 0.85268 0.53768
 C324 C 0.70207 0.87383 0.49081
 C325 C 0.68216 0.86221 0.48506
 C326 C 0.70351 0.82543 0.48780
 C327 C 0.72308 0.83781 0.49361
 N328 N 0.72208 0.86162 0.49460
 H329 H 0.77491 0.87712 0.54363
 H330 H 0.77647 0.84422 0.47765
 H331 H 0.81226 0.82208 0.48729
 H332 H 0.81003 0.85569 0.55466
 H333 H 0.70174 0.89275 0.49193
 H334 H 0.66663 0.87238 0.48143
 H335 H 0.70457 0.80649 0.48692
 H336 H 0.73901 0.82840 0.49720
 C337 C 0.72211 0.92277 0.56733
 C338 C 0.77402 0.92170 0.43496
 C339 C 0.68273 0.83769 0.48331
 C340 C 0.81407 0.83717 0.52179
 C341 C -0.02228 0.27078 0.42262
 H342 H -0.00626 0.28017 0.42353
 C343 C -0.04232 0.27893 0.43480
 H344 H -0.04154 0.29469 0.44501
 C345 C -0.04307 0.23983 0.40677
 H346 H -0.04357 0.22499 0.39536
 C347 C -0.06342 0.24729 0.41870
 H348 H -0.07917 0.23767 0.41671
 N349 N -0.02307 0.25171 0.40872
 C350 C 0.04740 0.22508 0.39429
 H351 H 0.04695 0.22460 0.37535
 C352 C 0.06728 0.21752 0.40546
 H353 H 0.08201 0.21093 0.39498
 C354 C 0.02839 0.23387 0.43085
 H355 H 0.01315 0.24026 0.44060
 C356 C 0.04797 0.22634 0.44281
 H357 H 0.04772 0.22717 0.46178
 Zn358 Zn 0.00330 0.24379 0.38928
 N359 N 0.02862 0.23337 0.40699
 C360 C 0.03293 0.28036 0.37435
 N361 N 0.01166 0.27114 0.37176
 C362 C -0.00425 0.28217 0.35822
 C363 C 0.00113 0.30320 0.34640
 C364 C 0.03897 0.30132 0.36297
 C365 C -0.00726 0.19772 0.38034
 C366 C -0.01412 0.17860 0.36765
 C367 C -0.01308 0.20301 0.33254
 C368 C -0.00616 0.22173 0.34595
 N369 N -0.00397 0.21889 0.36951
 H370 H 0.04516 0.27178 0.38563
 H371 H -0.02126 0.27480 0.35691
 H372 H -0.01181 0.31192 0.33593
 H373 H 0.05605 0.30824 0.36519
 H374 H -0.00505 0.19588 0.39904
 H375 H -0.01689 0.16198 0.37671
 H376 H -0.01559 0.20579 0.31398
 H377 H -0.00306 0.23857 0.33759
 C378 C 0.06784 0.21826 0.43003
 C379 C -0.06337 0.26739 0.43254
 C380 C -0.01758 0.18120 0.34350
 C381 C 0.02295 0.31312 0.34890
 C382 C 1.01675 0.77816 0.09199
 H383 H 1.00002 0.78693 0.09082
 C384 C 1.03612 0.78712 0.07955
 H385 H 1.03405 0.80258 0.06848
 C386 C 1.03987 0.74778 0.10845
 H387 H 1.04151 0.73293 0.12031
 C388 C 1.05962 0.75610 0.09633
 H389 H 1.07619 0.74743 0.09905
 N390 N 1.01896 0.75889 0.10619
 C391 C 0.94996 0.73050 0.12005
 H392 H 0.95037 0.72921 0.13899
 C393 C 0.93068 0.72283 0.10869
 H394 H 0.91639 0.71539 0.11904
 C395 C 0.96855 0.74121 0.08367
 H396 H 0.98344 0.74824 0.07403
 C397 C 0.94957 0.73364 0.07153
 H398 H 0.94990 0.73520 0.05256
 Zn399 Zn 0.99311 0.74939 0.12545
 N400 N 0.96826 0.73973 0.10753
 C401 C 0.96175 0.78471 0.14157
 N402 N 0.98344 0.77540 0.14389
 C403 C 0.99893 0.78570 0.15760
 C404 C 0.99281 0.80626 0.16957
 C405 C 0.95495 0.80518 0.15314
 C406 C 1.00652 0.70318 0.13227
 C407 C 1.01419 0.68306 0.14402
 C408 C 1.01119 0.70424 0.18039
 C409 C 1.00351 0.72405 0.16788
 N410 N 1.00183 0.72326 0.14417
 H411 H 0.94983 0.77669 0.13021
 H412 H 1.01625 0.77825 0.15873
 H413 H 1.00551 0.81456 0.17994
 H414 H 0.93762 0.81232 0.15096
 H415 H 1.00469 0.70299 0.11346
 H416 H 1.01800 0.66731 0.13414
 H417 H 1.01317 0.70531 0.19914
 H418 H 0.99932 0.74009 0.17705
 C419 C 0.93023 0.72445 0.08412
 C420 C 1.05799 0.77620 0.08187
 C421 C 1.01702 0.68351 0.16834
 C422 C 0.97065 0.81644 0.16709
 C423 C 0.51672 0.27491 0.59013
 H424 H 0.49996 0.28346 0.58835
 C425 C 0.53618 0.28359 0.57770
 H426 H 0.53417 0.29863 0.56604
 C427 C 0.53971 0.24525 0.60796
 H428 H 0.54119 0.23077 0.62030
 C429 C 0.55961 0.25335 0.59590
 H430 H 0.57618 0.24491 0.59914
 N431 N 0.51881 0.25611 0.60496
 C432 C 0.44913 0.22892 0.61674
 H433 H 0.44842 0.22848 0.63574
 C434 C 0.43036 0.22120 0.60458
 H435 H 0.41532 0.21460 0.61439
 C436 C 0.47000 0.23747 0.58100
 H437 H 0.48558 0.24365 0.57192
 C438 C 0.45161 0.22977 0.56809
 H439 H 0.45308 0.23039 0.54909
 Zn440 Zn 0.49243 0.24714 0.62360
 N441 N 0.46830 0.23715 0.60489
 C442 C 0.46088 0.28322 0.63799
 N443 N 0.48237 0.27371 0.64106
 C444 C 0.49755 0.28398 0.65512
 C445 C 0.49126 0.30463 0.66685
 C446 C 0.45392 0.30382 0.64931
 C447 C 0.50586 0.20106 0.63272
 C448 C 0.51232 0.18131 0.64583
 C449 C 0.50646 0.20385 0.68114
 C450 C 0.50003 0.22322 0.66731
 N451 N 0.50023 0.22157 0.64352
 H452 H 0.44923 0.27522 0.62633
 H453 H 0.51473 0.27635 0.65685
 H454 H 0.50371 0.31282 0.67761
 H455 H 0.43673 0.31107 0.64662
 H456 H 0.50567 0.20022 0.61378
 H457 H 0.51739 0.16537 0.63678
 H458 H 0.50635 0.20545 0.70004
 H459 H 0.49500 0.23953 0.67560
 C460 C 0.43138 0.22168 0.57993
 C461 C 0.55807 0.27295 0.58073
 C462 C 0.51287 0.18258 0.67037
 C463 C 0.46926 0.31493 0.66378
 C464 C 0.47702 0.77225 0.91819
 H465 H 0.49315 0.78158 0.91820
 C466 C 0.45755 0.78068 0.93115
 H467 H 0.45886 0.79657 0.94106
 C468 C 0.45532 0.74117 0.90390
 H469 H 0.45421 0.72612 0.89285
 C470 C 0.43555 0.74886 0.91665
 H471 H 0.41967 0.73923 0.91560
 N472 N 0.47550 0.75298 0.90468
 C473 C 0.54386 0.72255 0.88745
 H474 H 0.54212 0.72137 0.86869
 C475 C 0.56382 0.71376 0.89763
 H476 H 0.57748 0.70599 0.88651
 C477 C 0.52822 0.73468 0.92450
 H478 H 0.51420 0.74276 0.93484
 C479 C 0.54804 0.72614 0.93546
 H480 H 0.54907 0.72757 0.95430
 Zn481 Zn 0.50091 0.74420 0.88425
 N482 N 0.52665 0.73291 0.90085
 C483 C 0.53194 0.77833 0.86639
 N484 N 0.50969 0.77096 0.86601
 C485 C 0.49349 0.78321 0.85386
 C486 C 0.49954 0.80360 0.84120
 C487 C 0.53874 0.79843 0.85392
 C488 C 0.48911 0.69830 0.87596
 C489 C 0.48182 0.67917 0.86356
 C490 C 0.48154 0.70361 0.82849
 C491 C 0.48890 0.72235 0.84162
 N492 N 0.49207 0.71947 0.86502
 H493 H 0.54446 0.76887 0.87665
 H494 H 0.47580 0.77723 0.85418
 H495 H 0.48649 0.81310 0.83153
 H496 H 0.55647 0.80412 0.85477
 H497 H 0.49211 0.69643 0.89452
 H498 H 0.47947 0.66252 0.87268
 H499 H 0.47840 0.70637 0.81004
 H500 H 0.49170 0.73922 0.83317
 C501 C 0.56614 0.71548 0.92194
 C502 C 0.43631 0.76917 0.93011
 C503 C 0.47758 0.68175 0.83956
 C504 C 0.52249 0.81137 0.84109
 C505 C 0.48400 -0.17497 0.33604
 C506 C 0.49095 -0.19575 0.32478
 C507 C 0.49732 -0.21559 0.33804
 C508 C 0.49658 -0.21478 0.36264
 C509 C 0.49006 -0.19381 0.37379
 C510 C 0.48372 -0.17403 0.36057
 C511 C 0.47631 -0.15485 0.32265
 C512 C 0.46920 -0.13798 0.31189
 C513 C 0.45982 -0.11795 0.29950
 C514 C 0.43821 -0.11943 0.28948
 C515 C 0.42833 -0.09980 0.27848
 C516 C 0.43994 -0.07831 0.27731
 C517 C 0.46179 -0.07704 0.28724
 C518 C 0.47166 -0.09675 0.29827
 H519 H 0.49124 -0.19668 0.30581
 H520 H 0.50265 -0.23146 0.32905
 H521 H 0.48961 -0.19283 0.39277
 H522 H 0.47837 -0.15807 0.36948
 H523 H 0.42880 -0.13568 0.29050
 H524 H 0.41131 -0.10129 0.27144
 H525 H 0.47124 -0.06083 0.28646
 H526 H 0.48838 -0.09539 0.30603
 C527 C 0.98098 0.31094 0.83323
 C528 C 0.99978 0.31301 0.84772
 C529 C 1.00814 0.29342 0.86006
 C530 C 0.99787 0.27152 0.85791
 C531 C 0.97910 0.26948 0.84328
 C532 C 0.97072 0.28910 0.83094
 C533 C 0.97167 0.33143 0.82156
 C534 C 0.96363 0.34871 0.81218
 C535 C 0.95358 0.36931 0.80135
 C536 C 0.96562 0.39039 0.80015
 C537 C 0.95545 0.41053 0.79022
 C538 C 0.93310 0.40980 0.78133
 C539 C 0.92121 0.38847 0.78258
 C540 C 0.93139 0.36841 0.79250
 H541 H 1.00772 0.32984 0.84980
 H542 H 1.02229 0.29566 0.87159
 H543 H 0.97072 0.25280 0.84170
 H544 H 0.95605 0.28732 0.81992
 H545 H 0.98281 0.39130 0.80699
 H546 H 0.96511 0.42661 0.78934
 H547 H 0.90382 0.38739 0.77631
 H548 H 0.92185 0.35224 0.79349
 C549 C 0.03414 1.18154 0.83234
 C550 C 0.03564 1.18160 0.85676
 C551 C 0.02800 1.20117 0.86944
 C552 C 0.01862 1.22085 0.85786
 C553 C 0.01758 1.22102 0.83331
 C554 C 0.02527 1.20135 0.82058
 C555 C 0.04166 1.16098 0.81966
 C556 C 0.04823 1.14335 0.80988
 C557 C 0.05657 1.12202 0.79905
 C558 C 0.07897 1.12087 0.78873
 C559 C 0.08777 1.09978 0.77960
 C560 C 0.07427 1.07948 0.78067
 C561 C 0.05164 1.08088 0.79083
 C562 C 0.04286 1.10203 0.79996
 H563 H 0.04257 1.16644 0.86604
 H564 H 0.02905 1.20081 0.88837
 H565 H 0.01070 1.23612 0.82399
 H566 H 0.02416 1.20153 0.80165
 H567 H 0.08981 1.13617 0.78814
 H568 H 0.10540 1.09922 0.77229
 H569 H 0.04075 1.06563 0.79172
 H570 H 0.02552 1.10271 0.80801
 C571 C 0.52703 0.69250 0.33906
 C572 C 0.50494 0.70261 0.33643
 C573 C 0.49842 0.72300 0.34855
 C574 C 0.51398 0.73346 0.36325
 C575 C 0.53609 0.72325 0.36575
 C576 C 0.54259 0.70294 0.35365
 C577 C 0.53387 0.67118 0.32730
 C578 C 0.54059 0.65336 0.31796
 C579 C 0.54981 0.63228 0.30730
 C580 C 0.53664 0.61195 0.30719
 C581 C 0.54631 0.59124 0.29783
 C582 C 0.56928 0.59066 0.28847
 C583 C 0.58227 0.61127 0.28857
 C584 C 0.57259 0.63189 0.29790
 H585 H 0.49271 0.69462 0.32526
 H586 H 0.48115 0.73042 0.34672
 H587 H 0.54826 0.73055 0.37737
 H588 H 0.55967 0.69519 0.35593
 H589 H 0.51900 0.61204 0.31451
 H590 H 0.53581 0.57573 0.29783
 H591 H 0.60013 0.61134 0.28195
 H592 H 0.58302 0.64746 0.29810
 C593 C 0.52163 0.32699 0.16122
 C594 C 0.52391 0.32879 0.13672
 C595 C 0.51759 0.31019 0.12293
 C596 C 0.50878 0.28966 0.13349
 C597 C 0.50663 0.28780 0.15806
 C598 C 0.51299 0.30645 0.17189
 C599 C 0.52896 0.34599 0.17521
 C600 C 0.53576 0.36206 0.18631
 C601 C 0.54480 0.38130 0.19883
 C602 C 0.53687 0.40426 0.19441
 C603 C 0.54729 0.42314 0.20486
 C604 C 0.56587 0.41925 0.21975
 C605 C 0.57320 0.39605 0.22464
 C606 C 0.56275 0.37723 0.21422
 H607 H 0.53074 0.34452 0.12828
 H608 H 0.51960 0.31182 0.10400
 H609 H 0.50025 0.27198 0.16661
 H610 H 0.51137 0.30479 0.19085
 H611 H 0.52309 0.40761 0.18239
 H612 H 0.54143 0.44080 0.20058
 H613 H 0.58725 0.39249 0.23628
 H614 H 0.56904 0.35953 0.21774
 C615 C 0.02102 0.81227 0.66209
 C616 C 0.02323 0.81415 0.63760
 C617 C 0.01647 0.79577 0.62377
 C618 C 0.00726 0.77538 0.63427
 C619 C 0.00528 0.77340 0.65884
 C620 C 0.01209 0.79184 0.67272
 C621 C 0.02855 0.83118 0.67608
 C622 C 0.03549 0.84729 0.68704
 C623 C 0.04466 0.86667 0.69924
 C624 C 0.03667 0.88957 0.69463
 C625 C 0.04734 0.90861 0.70454
 C626 C 0.06624 0.90493 0.71905
 C627 C 0.07359 0.88180 0.72421
 C628 C 0.06289 0.86281 0.71434
 H629 H 0.03028 0.82979 0.62918
 H630 H 0.01834 0.79749 0.60483
 H631 H -0.00139 0.75769 0.66735
 H632 H 0.01051 0.79012 0.69168
 H633 H 0.02267 0.89275 0.68283
 H634 H 0.04145 0.92621 0.70005
 H635 H 0.08790 0.87842 0.73558
 H636 H 0.06924 0.84517 0.71799
 C637 C 0.97295 0.68487 0.65651
 C638 C 0.99266 0.68341 0.64141
 C639 C 1.00054 0.70334 0.62918
 C640 C 0.98886 0.72500 0.63205
 C641 C 0.96905 0.72639 0.64713
 C642 C 0.96116 0.70641 0.65938
 C643 C 0.96447 0.66405 0.66834
 C644 C 0.95724 0.64644 0.67783
 C645 C 0.94820 0.62537 0.68869
 C646 C 0.95955 0.60373 0.68494
 C647 C 0.94994 0.58310 0.69436
 C648 C 0.92878 0.58390 0.70756
 C649 C 0.91783 0.60581 0.71167
 C650 C 0.92746 0.62637 0.70228
 H651 H 1.00179 0.66679 0.63887
 H652 H 1.01554 0.70159 0.61729
 H653 H 0.95963 0.74288 0.64930
 H654 H 0.94576 0.70771 0.67087
 H655 H 0.97558 0.60276 0.67437
 H656 H 0.95866 0.56649 0.69073
 H657 H 0.90171 0.60703 0.72207
 H658 H 0.91856 0.64302 0.70533
 C659 C 0.47612 0.19819 0.15549
 C660 C 0.46383 0.21949 0.15812
 C661 C 0.47164 0.23966 0.14615
 C662 C 0.49183 0.23870 0.13157
 C663 C 0.50406 0.21730 0.12905
 C664 C 0.49628 0.19719 0.14101
 C665 C 0.46761 0.17711 0.16677
 C666 C 0.46042 0.15921 0.17568
 C667 C 0.45152 0.13774 0.18577
 C668 C 0.43050 0.13805 0.19892
 C669 C 0.42108 0.11711 0.20760
 C670 C 0.43254 0.09550 0.20319
 C671 C 0.45392 0.09540 0.19038
 C672 C 0.46331 0.11641 0.18168
 H673 H 0.44808 0.22043 0.16913
 H674 H 0.46179 0.25594 0.14803
 H675 H 0.51939 0.21586 0.11756
 H676 H 0.50579 0.18076 0.13866
 H677 H 0.42124 0.15446 0.20222
 H678 H 0.40478 0.11779 0.21772
 H679 H 0.46304 0.07904 0.18653
 H680 H 0.47956 0.11597 0.17143
 C681 C 0.33247 0.47877 -0.19121
 C682 C 0.34650 0.49817 -0.18854
 C683 C 0.35951 0.50718 -0.20775
 C684 C 0.35850 0.49697 -0.22989
 C685 C 0.34432 0.47760 -0.23254
 C686 C 0.33131 0.46856 -0.21328
 C687 C 0.32015 0.46885 -0.17102
 C688 C 0.31037 0.46049 -0.15381
 C689 C 0.29924 0.45032 -0.13306
 C690 C 0.29715 0.46301 -0.11226
 C691 C 0.28725 0.45272 -0.09184
 C692 C 0.27931 0.42957 -0.09197
 C693 C 0.28132 0.41706 -0.11305
 C694 C 0.29122 0.42737 -0.13342
 H695 H 0.34771 0.50608 -0.17151
 H696 H 0.37064 0.52179 -0.20501
 H697 H 0.34361 0.46926 -0.24940
 H698 H 0.32065 0.45342 -0.21552
 H699 H 0.30334 0.48079 -0.11178
 H700 H 0.28574 0.46289 -0.07597
 H701 H 0.27575 0.39908 -0.11366
 H702 H 0.29290 0.41732 -0.14937
 C703 C 0.83598 0.98139 0.31288
 C704 C 0.85025 1.00068 0.31510
 C705 C 0.86284 1.00955 0.29554
 C706 C 0.86118 0.99930 0.27349
 C707 C 0.84675 0.98004 0.27129
 C708 C 0.83415 0.97115 0.29090
 C709 C 0.82407 0.97162 0.33339
 C710 C 0.81458 0.96337 0.35082
 C711 C 0.80373 0.95331 0.37177
 C712 C 0.80271 0.96576 0.39275
 C713 C 0.79290 0.95561 0.41329
 C714 C 0.78395 0.93286 0.41310
 C715 C 0.78495 0.92058 0.39187
 C716 C 0.79477 0.93074 0.37138
 H717 H 0.85197 1.00863 0.33204
 H718 H 0.87418 1.02407 0.29793
 H719 H 0.84554 0.97166 0.25450
 H720 H 0.82330 0.95609 0.28900
 H721 H 0.80963 0.98324 0.39327
 H722 H 0.79219 0.96561 0.42928
 H723 H 0.77859 0.90289 0.39119
 H724 H 0.79561 0.92088 0.35529
 C725 C 0.83736 0.03673 1.18437
 C726 C 0.82554 0.02728 1.20424
 C727 C 0.83790 0.01948 1.22362
 C728 C 0.86216 0.02095 1.22314
 C729 C 0.87382 0.03092 1.20343
 C730 C 0.86150 0.03870 1.18412
 C731 C 0.82494 0.04433 1.16411
 C732 C 0.81512 0.05091 1.14685
 C733 C 0.80396 0.05919 1.12606
 C734 C 0.80378 0.04514 1.10619
 C735 C 0.79393 0.05372 1.08563
 C736 C 0.78411 0.07649 1.08471
 C737 C 0.78421 0.09036 1.10489
 C738 C 0.79405 0.08176 1.12538
 H739 H 0.80684 0.02582 1.20468
 H740 H 0.82851 0.01216 1.23875
 H741 H 0.89252 0.03233 1.20283
 H742 H 0.87082 0.04607 1.16891
 H743 H 0.81145 0.02764 1.10650
 H744 H 0.79394 0.04254 1.07048
 H745 H 0.77719 0.10811 1.10467
 H746 H 0.79426 0.09286 1.14059
 C747 C 0.33686 0.53428 0.68027
 C748 C 0.32457 0.52453 0.69968
 C749 C 0.33637 0.51696 0.71951
 C750 C 0.36054 0.51896 0.71990
 C751 C 0.37264 0.52932 0.70067
 C752 C 0.36088 0.53687 0.68093
 C753 C 0.32517 0.54129 0.65938
 C754 C 0.31619 0.54729 0.64147
 C755 C 0.30630 0.55478 0.61974
 C756 C 0.28232 0.55413 0.61710
 C757 C 0.27282 0.56221 0.59619
 C758 C 0.28721 0.57105 0.57766
 C759 C 0.31133 0.57125 0.58039
 C760 C 0.32077 0.56318 0.60128
 H761 H 0.30595 0.52256 0.69939
 H762 H 0.32664 0.50931 0.73425
 H763 H 0.39129 0.53112 0.70074
 H764 H 0.37056 0.54446 0.66607
 H765 H 0.27096 0.54759 0.63125
 H766 H 0.25422 0.56160 0.59453
 H767 H 0.32285 0.57829 0.56665
 H768 H 0.33935 0.56381 0.60317
 C769 C 0.16616 0.51680 0.31423
 C770 C 0.16655 0.52976 0.29315
 C771 C 0.15264 0.52338 0.27493
 C772 C 0.13801 0.50409 0.27766
 C773 C 0.13839 0.49060 0.29852
 C774 C 0.15230 0.49701 0.31676
 C775 C 0.17898 0.52462 0.33363
 C776 C 0.18919 0.53198 0.34989
 C777 C 0.20076 0.54180 0.36919
 C778 C 0.21531 0.56090 0.36517
 C779 C 0.22485 0.57200 0.38403
 C780 C 0.21992 0.56419 0.40723
 C781 C 0.20588 0.54450 0.41108
 C782 C 0.19630 0.53343 0.39215
 H783 H 0.17729 0.54507 0.29095
 H784 H 0.15317 0.53377 0.25891
 H785 H 0.12786 0.47525 0.30096
 H786 H 0.15194 0.48676 0.33297
 H787 H 0.21885 0.56755 0.34748
 H788 H 0.23586 0.58691 0.38050
 H789 H 0.20159 0.53823 0.42874
 H790 H 0.18494 0.51875 0.39548
 C791 C 0.66405 0.02035 0.81951
 C792 C 0.65054 0.00027 0.82136
 C793 C 0.63734 -0.00619 0.80258
 C794 C 0.63733 0.00753 0.78184
 C795 C 0.65155 0.02718 0.77985
 C796 C 0.66475 0.03362 0.79860
 C797 C 0.67640 0.02805 0.83931
 C798 C 0.68635 0.03532 0.85579
 C799 C 0.69780 0.04509 0.87522
 C800 C 0.69288 0.03702 0.89821
 C801 C 0.70250 0.04803 0.91717
 C802 C 0.71704 0.06734 0.91331
 C803 C 0.72241 0.07483 0.89009
 C804 C 0.71283 0.06379 0.87121
 H805 H 0.64995 -0.01021 0.83741
 H806 H 0.62710 -0.02179 0.80448
 H807 H 0.65237 0.03775 0.76395
 H808 H 0.67524 0.04914 0.79691
 H809 H 0.68116 0.02263 0.90152
 H810 H 0.69789 0.04201 0.93485
 H811 H 0.73380 0.08943 0.88655
 H812 H 0.71676 0.07019 0.85349
 C813 C 0.66127 0.98049 0.68920
 C814 C 0.63728 0.98448 0.68872
 C815 C 0.62465 0.99059 0.70921
 C816 C 0.63586 0.99273 0.73039
 C817 C 0.65994 0.98898 0.73082
 C818 C 0.67260 0.98283 0.71027
 C819 C 0.67389 0.97290 0.66828
 C820 C 0.68389 0.96587 0.65070
 C821 C 0.69519 0.95652 0.62979
 C822 C 0.69068 0.96631 0.60769
 C823 C 0.70004 0.95581 0.58730
 C824 C 0.71389 0.93529 0.58882
 C825 C 0.71886 0.92602 0.61114
 C826 C 0.70955 0.93655 0.63146
 H827 H 0.62831 0.98259 0.67257
 H828 H 0.60606 0.99341 0.70859
 H829 H 0.66891 0.99044 0.74700
 H830 H 0.69114 0.97963 0.71087
 H831 H 0.67947 0.98169 0.60620
 H832 H 0.69576 0.96322 0.57036
 H833 H 0.72974 0.91044 0.61287
 H834 H 0.71314 0.92882 0.64846
 C835 C 0.15769 0.47457 0.18507
 C836 C 0.16989 0.47713 0.20558
 C837 C 0.15811 0.48391 0.22642
 C838 C 0.13406 0.48808 0.22685
 C839 C 0.12196 0.48562 0.20625
 C840 C 0.13371 0.47887 0.18546
 C841 C 0.16948 0.46672 0.16380
 C842 C 0.17891 0.45958 0.14597
 C843 C 0.18969 0.45022 0.12483
 C844 C 0.20439 0.43049 0.12619
 C845 C 0.21352 0.42015 0.10571
 C846 C 0.20803 0.42937 0.08351
 C847 C 0.19375 0.44961 0.08228
 C848 C 0.18457 0.45992 0.10285
 H849 H 0.18843 0.47372 0.20549
 H850 H 0.16777 0.48566 0.24213
 H851 H 0.10339 0.48881 0.20629
 H852 H 0.12408 0.47685 0.16975
 H853 H 0.20848 0.42284 0.14310
 H854 H 0.22476 0.40480 0.10722
 H855 H 0.18907 0.45698 0.06545
 H856 H 0.17311 0.47514 0.10159
 C857 C -0.18709 0.33098 0.48330
 C858 C -0.19754 0.32854 0.50582
 C859 C -0.21780 0.34140 0.51183
 C860 C -0.22779 0.35667 0.49533
 C861 C -0.21726 0.35897 0.47279
 C862 C -0.19708 0.34613 0.46680
 C863 C -0.16589 0.31846 0.47697
 C864 C -0.14813 0.30848 0.47070
 C865 C -0.12708 0.29706 0.46200
 C866 C -0.10696 0.29712 0.47489
 C867 C -0.08625 0.28717 0.46555
 C868 C -0.08545 0.27706 0.44318
 C869 C -0.10587 0.27693 0.43052
 C870 C -0.12649 0.28683 0.43988
 H871 H -0.18992 0.31695 0.51877
 H872 H -0.22549 0.33970 0.52943
 H873 H -0.22423 0.37099 0.45989
 H874 H -0.18907 0.34826 0.44937
 H875 H -0.10720 0.30508 0.49201
 H876 H -0.07088 0.28739 0.47580
 H877 H -0.10579 0.26973 0.41308
 H878 H -0.14189 0.28689 0.42965
 C879 C 0.31410 0.83239 0.98506
 C880 C 0.30405 0.83050 1.00781
 C881 C 0.28376 0.84335 1.01382
 C882 C 0.27337 0.85805 0.99709
 C883 C 0.28350 0.85976 0.97433
 C884 C 0.30368 0.84694 0.96835
 C885 C 0.33531 0.81992 0.97857
 C886 C 0.35298 0.81004 0.97186
 C887 C 0.37377 0.79876 0.96232
 C888 C 0.39456 0.79920 0.97412
 C889 C 0.41493 0.78936 0.96387
 C890 C 0.41472 0.77898 0.94166
 C891 C 0.39366 0.77853 0.93008
 C892 C 0.37340 0.78832 0.94035
 H893 H 0.31200 0.81935 1.02093
 H894 H 0.27639 0.84212 1.03158
 H895 H 0.27627 0.87135 0.96121
 H896 H 0.31136 0.84864 0.95073
 H897 H 0.39507 0.80736 0.99110
 H898 H 0.43080 0.78984 0.97330
 H899 H 0.39294 0.77114 0.91277
 H900 H 0.35749 0.78810 0.93092
 C901 C 1.18145 0.83661 0.03022
 C902 C 1.20190 0.82392 0.02441
 C903 C 1.22212 0.83576 0.01730
 C904 C 1.22197 0.86035 0.01611
 C905 C 1.20143 0.87291 0.02185
 C906 C 1.18131 0.86112 0.02893
 C907 C 1.16050 0.82479 0.03761
 C908 C 1.14258 0.81573 0.04410
 C909 C 1.12094 0.80574 0.05231
 C910 C 1.11797 0.78146 0.05223
 C911 C 1.09727 0.77185 0.06127
 C912 C 1.07926 0.78642 0.07054
 C913 C 1.08227 0.81084 0.07009
 C914 C 1.10296 0.82040 0.06105
 H915 H 1.20218 0.80493 0.02529
 H916 H 1.23768 0.82572 0.01259
 H917 H 1.20095 0.89190 0.02079
 H918 H 1.16561 0.87114 0.03335
 H919 H 1.13175 0.76995 0.04546
 H920 H 1.09539 0.75301 0.06113
 H921 H 1.06892 0.82252 0.07740
 H922 H 1.10509 0.83922 0.06125
 C923 C 0.68050 0.33369 0.52705
 C924 C 0.68004 0.35822 0.52621
 C925 C 0.70000 0.37038 0.51934
 C926 C 0.72068 0.35816 0.51337
 C927 C 0.72109 0.33356 0.51393
 C928 C 0.70104 0.32135 0.52084
 C929 C 0.65984 0.32152 0.53468
 C930 C 0.64215 0.31225 0.54149
 C931 C 0.62071 0.30220 0.55018
 C932 C 0.60257 0.31693 0.55839
 C933 C 0.58204 0.30743 0.56786
 C934 C 0.57934 0.28298 0.56927
 C935 C 0.59756 0.26829 0.56063
 C936 C 0.61812 0.27786 0.55115
 H937 H 0.66426 0.36796 0.53095
 H938 H 0.69932 0.38937 0.51880
 H939 H 0.73676 0.32379 0.50904
 H940 H 0.70156 0.30235 0.52138
 H941 H 0.60444 0.33580 0.55782
 H942 H 0.56855 0.31921 0.57470
 H943 H 0.59592 0.24941 0.56124
 H944 H 0.63204 0.26629 0.54482
 C945 C 0.31813 0.15973 0.52162
 C946 C 0.30846 0.16337 0.49968
 C947 C 0.28936 0.15034 0.49360
 C948 C 0.27973 0.13377 0.50948
 C949 C 0.28964 0.13011 0.53133
 C950 C 0.30865 0.14309 0.53738
 C951 C 0.33784 0.17275 0.52828
 C952 C 0.35426 0.18302 0.53508
 C953 C 0.37362 0.19458 0.54459
 C954 C 0.39630 0.18951 0.53623
 C955 C 0.41516 0.19891 0.54723
 C956 C 0.41151 0.21334 0.56686
 C957 C 0.38862 0.21886 0.57466
 C958 C 0.36983 0.20952 0.56362
 H959 H 0.31572 0.17613 0.48729
 H960 H 0.28218 0.15311 0.47650
 H961 H 0.28301 0.11707 0.54371
 H962 H 0.31607 0.14001 0.55434
 H963 H 0.39944 0.17780 0.52163
 H964 H 0.43258 0.19418 0.54097
 H965 H 0.38526 0.23020 0.58951
 H966 H 0.35236 0.21350 0.57029
 C967 C 0.81574 0.66523 0.02426
 C968 C 0.81933 0.65015 0.00531
 C969 C 0.80103 0.63704 -0.00240
 C970 C 0.77891 0.63898 0.00869
 C971 C 0.77532 0.65426 0.02756
 C972 C 0.79365 0.66737 0.03529
 C973 C 0.83503 0.67742 0.03314
 C974 C 0.85140 0.68704 0.04088
 C975 C 0.87105 0.69786 0.05064
 C976 C 0.89339 0.69395 0.04073
 C977 C 0.91265 0.70309 0.05124
 C978 C 0.90979 0.71617 0.07188
 C979 C 0.88720 0.72046 0.08137
 C980 C 0.86800 0.71134 0.07082
 H981 H 0.83639 0.64816 -0.00320
 H982 H 0.80445 0.62504 -0.01665
 H983 H 0.75845 0.65571 0.03656
 H984 H 0.79071 0.67883 0.05012
 H985 H 0.89597 0.68343 0.02517
 H986 H 0.92981 0.69929 0.04366
 H987 H 0.88441 0.73076 0.09704
 H988 H 0.85079 0.71449 0.07864
 C989 C 0.68933 0.66031 0.97470
 C990 C 0.70782 0.67307 0.98277
 C991 C 0.72787 0.66130 0.99015
 C992 C 0.72941 0.63673 0.98961
 C993 C 0.71101 0.62414 0.98110
 C994 C 0.69108 0.63586 0.97376
 C995 C 0.66849 0.67193 0.96714
 C996 C 0.65065 0.68044 0.96031
 C997 C 0.62914 0.68926 0.95139
 C998 C 0.61910 0.71040 0.95930
 C999 C 0.59831 0.71879 0.95011
 C1000 C 0.58742 0.70615 0.93284
 C1001 C 0.59750 0.68475 0.92535
 C1002 C 0.61819 0.67641 0.93455
 H1003 H 0.70671 0.69203 0.98340
 H1004 H 0.74198 0.67136 0.99636
 H1005 H 0.71196 0.60518 0.98043
 H1006 H 0.67696 0.62581 0.96744
 H1007 H 0.62742 0.72046 0.97238
 H1008 H 0.59105 0.73541 0.95607
 H1009 H 0.58935 0.67444 0.91236
 H1010 H 0.62571 0.65995 0.92843
 C1011 C 0.18800 0.15877 0.48426
 C1012 C 0.18819 0.13424 0.48438
 C1013 C 0.20835 0.12163 0.48962
 C1014 C 0.22860 0.13339 0.49464
 C1015 C 0.22828 0.15798 0.49502
 C1016 C 0.20804 0.17064 0.48973
 C1017 C 0.16747 0.17148 0.47750
 C1018 C 0.15016 0.18140 0.47104
 C1019 C 0.12952 0.19245 0.46228
 C1020 C 0.10768 0.18718 0.47244
 C1021 C 0.08754 0.19616 0.46241
 C1022 C 0.08906 0.21037 0.44200
 C1023 C 0.11112 0.21612 0.43237
 C1024 C 0.13118 0.20719 0.44243
 H1025 H 0.17281 0.12486 0.48015
 H1026 H 0.20822 0.10264 0.48948
 H1027 H 0.24357 0.16742 0.49923
 H1028 H 0.20809 0.18963 0.48968
 H1029 H 0.10619 0.17565 0.48772
 H1030 H 0.07081 0.19128 0.47010
 H1031 H 0.11284 0.22731 0.41686
 H1032 H 0.14799 0.21135 0.43439
 C1033 C 0.57441 0.06598 0.73472
 C1034 C 0.59843 0.06500 0.73028
 C1035 C 0.61135 0.04539 0.73741
 C1036 C 0.60047 0.02658 0.74929
 C1037 C 0.57632 0.02753 0.75353
 C1038 C 0.56335 0.04721 0.74636
 C1039 C 0.56124 0.08586 0.72629
 C1040 C 0.55094 0.10265 0.71845
 C1041 C 0.53952 0.12274 0.70814
 C1042 C 0.54536 0.14538 0.71451
 C1043 C 0.53607 0.16492 0.70276
 C1044 C 0.52091 0.16202 0.68439
 C1045 C 0.51459 0.13921 0.67863
 C1046 C 0.52387 0.11971 0.69042
 H1047 H 0.60713 0.07925 0.72093
 H1048 H 0.62975 0.04471 0.73298
 H1049 H 0.56732 0.01310 0.76204
 H1050 H 0.54472 0.04765 0.74961
 H1051 H 0.55761 0.14791 0.72808
 H1052 H 0.54148 0.18223 0.70742
 H1053 H 0.50271 0.13643 0.66479
 H1054 H 0.51927 0.10226 0.68531
 C1055 C 1.07675 0.56462 0.23131
 C1056 C 1.10048 0.56199 0.22575
 C1057 C 1.11253 0.54183 0.23288
 C1058 C 1.10107 0.52410 0.24588
 C1059 C 1.07718 0.52668 0.25125
 C1060 C 1.06508 0.54692 0.24406
 C1061 C 1.06450 0.58503 0.22274
 C1062 C 1.05524 0.60224 0.21450
 C1063 C 1.04539 0.62272 0.20335
 C1064 C 1.05439 0.62986 0.18127
 C1065 C 1.04520 0.64966 0.17003
 C1066 C 1.02678 0.66266 0.18070
 C1067 C 1.01792 0.65551 0.20303
 C1068 C 1.02717 0.63560 0.21428
 H1069 H 1.10962 0.57538 0.21552
 H1070 H 1.13068 0.53988 0.22761
 H1071 H 1.06772 0.51308 0.26067
 H1072 H 1.04662 0.54863 0.24816
 H1073 H 1.06859 0.62012 0.17272
 H1074 H 1.05271 0.65495 0.15307
 H1075 H 1.00365 0.66509 0.21160
 H1076 H 1.02010 0.63022 0.23140
 C1077 C 0.92169 0.94284 0.22401
 C1078 C 0.90792 0.95516 0.20816
 C1079 C 0.89575 0.97542 0.21508
 C1080 C 0.89735 0.98376 0.23794
 C1081 C 0.91130 0.97147 0.25380
 C1082 C 0.92347 0.95107 0.24685
 C1083 C 0.93293 0.92127 0.21670
 C1084 C 0.94127 0.90320 0.20922
 C1085 C 0.94988 0.88180 0.19874
 C1086 C 0.94468 0.87734 0.17553
 C1087 C 0.95172 0.85623 0.16524
 C1088 C 0.96408 0.83916 0.17804
 C1089 C 0.96969 0.84393 0.20124
 C1090 C 0.96253 0.86513 0.21157
 H1091 H 0.90623 0.94883 0.19051
 H1092 H 0.88477 0.98414 0.20261
 H1093 H 0.91245 0.97743 0.27164
 H1094 H 0.93394 0.94156 0.25934
 H1095 H 0.93493 0.89012 0.16542
 H1096 H 0.94752 0.85326 0.14721
 H1097 H 0.97910 0.83105 0.21153
 H1098 H 0.96659 0.86838 0.22959
 C1099 C 0.41999 0.44106 0.72114
 C1100 C 0.42145 0.44909 0.74411
 C1101 C 0.40919 0.46945 0.75107
 C1102 C 0.39548 0.48189 0.73510
 C1103 C 0.39425 0.47377 0.71212
 C1104 C 0.40650 0.45356 0.70518
 C1105 C 0.43121 0.41950 0.71380
 C1106 C 0.43952 0.40144 0.70626
 C1107 C 0.44813 0.38007 0.69570
 C1108 C 0.46046 0.36322 0.70861
 C1109 C 0.46768 0.34208 0.69820
 C1110 C 0.46248 0.33756 0.67482
 C1111 C 0.45041 0.35480 0.66196
 C1112 C 0.44329 0.37585 0.67234
 H1113 H 0.43170 0.43945 0.75668
 H1114 H 0.41006 0.47525 0.76899
 H1115 H 0.38347 0.48259 0.69953
 H1116 H 0.40506 0.44740 0.68744
 H1117 H 0.46422 0.36628 0.72675
 H1118 H 0.47684 0.32907 0.70856
 H1119 H 0.44651 0.35203 0.64382
 H1120 H 0.43379 0.38878 0.66217
 C1121 C 0.41944 0.57039 0.77043
 C1122 C 0.43121 0.54956 0.76409
 C1123 C 0.41889 0.53068 0.75589
 C1124 C 0.39473 0.53250 0.75422
 C1125 C 0.38317 0.55361 0.75999
 C1126 C 0.39544 0.57242 0.76812
 C1127 C 0.43150 0.58928 0.78060
 C1128 C 0.44063 0.60523 0.78998
 C1129 C 0.45041 0.62427 0.80222
 C1130 C 0.46722 0.63856 0.79121
 C1131 C 0.47615 0.65730 0.80329
 C1132 C 0.46836 0.66190 0.82653
 C1133 C 0.45144 0.64742 0.83734
 C1134 C 0.44257 0.62877 0.82527
 H1135 H 0.44978 0.54778 0.76584
 H1136 H 0.42820 0.51467 0.75125
 H1137 H 0.36454 0.55536 0.75866
 H1138 H 0.38614 0.58841 0.77303
 H1139 H 0.47338 0.63525 0.77334
 H1140 H 0.48930 0.66801 0.79457
 H1141 H 0.44476 0.65074 0.85503
 H1142 H 0.42944 0.61793 0.83390
 C1143 C -0.07720 0.07189 0.27263
 C1144 C -0.06577 0.05099 0.26594
 C1145 C -0.07844 0.03233 0.25781
 C1146 C -0.10263 0.03444 0.25657
 C1147 C -0.11386 0.05565 0.26258
 C1148 C -0.10123 0.07425 0.27065
 C1149 C -0.06479 0.09042 0.28299
 C1150 C -0.05535 0.10603 0.29260
 C1151 C -0.04526 0.12464 0.30520
 C1152 C -0.02786 0.13852 0.29465
 C1153 C -0.01869 0.15691 0.30707
 C1154 C -0.02683 0.16155 0.33019
 C1155 C -0.04430 0.14743 0.34056
 C1156 C -0.05340 0.12914 0.32816
 H1157 H -0.04718 0.04896 0.26744
 H1158 H -0.06938 0.01625 0.25296
 H1159 H -0.13251 0.05762 0.26158
 H1160 H -0.11027 0.09029 0.27583
 H1161 H -0.02146 0.13520 0.27686
 H1162 H -0.00514 0.16734 0.29868
 H1163 H -0.05126 0.15080 0.35814
 H1164 H -0.06697 0.11861 0.33644
 C1165 C 0.07227 0.43530 0.28293
 C1166 C 0.07121 0.45694 0.29416
 C1167 C 0.08421 0.47568 0.28503
 C1168 C 0.09839 0.47295 0.26460
 C1169 C 0.09901 0.45135 0.25316
 C1170 C 0.08600 0.43264 0.26228
 C1171 C 0.06091 0.41532 0.29358
 C1172 C 0.05234 0.39828 0.30296
 C1173 C 0.04330 0.37769 0.31476
 C1174 C 0.04832 0.37329 0.33824
 C1175 C 0.04124 0.35252 0.34944
 C1176 C 0.02905 0.33579 0.33729
 C1177 C 0.02352 0.34061 0.31387
 C1178 C 0.03069 0.36143 0.30264
 H1179 H 0.06087 0.45913 0.31031
 H1180 H 0.08379 0.49207 0.29435
 H1181 H 0.11001 0.44859 0.23759
 H1182 H 0.08715 0.41590 0.25358
 H1183 H 0.05806 0.38574 0.34779
 H1184 H 0.04542 0.34948 0.36760
 H1185 H 0.01430 0.32798 0.30404
 H1186 H 0.02682 0.36462 0.28441
 C1187 C 0.57423 0.93560 0.78155
 C1188 C 0.57192 0.95664 0.79378
 C1189 C 0.58464 0.97616 0.78617
 C1190 C 0.59979 0.97483 0.76628
 C1191 C 0.60178 0.95377 0.75393
 C1192 C 0.58904 0.93428 0.76152
 C1193 C 0.56279 0.91485 0.79038
 C1194 C 0.55418 0.89702 0.79793
 C1195 C 0.54515 0.87526 0.80721
 C1196 C 0.52335 0.87456 0.81895
 C1197 C 0.51556 0.85358 0.82937
 C1198 C 0.52959 0.83312 0.82828
 C1199 C 0.55117 0.83389 0.81588
 C1200 C 0.55888 0.85481 0.80545
 H1201 H 0.56070 0.95779 0.80946
 H1202 H 0.58311 0.99213 0.79615
 H1203 H 0.61352 0.95205 0.73875
 H1204 H 0.59115 0.91802 0.75206
 H1205 H 0.51263 0.89032 0.82048
 H1206 H 0.49897 0.85355 0.83898
 H1207 H 0.56221 0.81835 0.81447
 H1208 H 0.57576 0.85513 0.79638
 C1209 C 0.73311 0.57823 0.06838
 C1210 C 0.71705 0.59277 0.05716
 C1211 C 0.72351 0.60489 0.03655
 C1212 C 0.74611 0.60247 0.02673
 C1213 C 0.76226 0.58788 0.03800
 C1214 C 0.75576 0.57572 0.05876
 C1215 C 0.72595 0.56671 0.09006
 C1216 C 0.71808 0.55822 0.10812
 C1217 C 0.70657 0.54951 0.12929
 C1218 C 0.68544 0.55998 0.13666
 C1219 C 0.67327 0.55145 0.15654
 C1220 C 0.68202 0.53221 0.16942
 C1221 C 0.70352 0.52201 0.16223
 C1222 C 0.71571 0.53058 0.14217
 H1223 H 0.69955 0.59501 0.06455
 H1224 H 0.71082 0.61642 0.02868
 H1225 H 0.77989 0.58610 0.03086
 H1226 H 0.76839 0.56462 0.06740
 H1227 H 0.67825 0.57469 0.12688
 H1228 H 0.65699 0.55995 0.16189
 H1229 H 0.71060 0.50711 0.17177
 H1230 H 0.73205 0.52233 0.13658
 C1231 C 0.23147 1.06756 0.56410
 C1232 C 0.22968 1.09199 0.56559
 C1233 C 0.23683 1.10612 0.54653
 C1234 C 0.24600 1.09599 0.52584
 C1235 C 0.24759 1.07149 0.52425
 C1236 C 0.24038 1.05730 0.54339
 C1237 C 0.22356 1.05334 0.58380
 C1238 C 0.21631 1.04243 0.60076
 C1239 C 0.20683 1.03064 0.62138
 C1240 C 0.21309 1.03758 0.64363
 C1241 C 0.20180 1.02831 0.66379
 C1242 C 0.18400 1.01206 0.66192
 C1243 C 0.17847 1.00451 0.63950
 C1244 C 0.18979 1.01380 0.61936
 H1245 H 0.22266 1.10011 0.58147
 H1246 H 0.23527 1.12500 0.54796
 H1247 H 0.25423 1.06329 0.50832
 H1248 H 0.24164 1.03840 0.54199
 H1249 H 0.22612 1.05076 0.64537
 H1250 H 0.20626 1.03469 0.68076
 H1251 H 0.16505 0.99179 0.63753
 H1252 H 0.18476 1.00837 0.60222
 C1253 C 0.22252 0.91773 0.93966
 C1254 C 0.22166 0.89326 0.94122
 C1255 C 0.22931 0.88141 0.96114
 C1256 C 0.23805 0.89386 0.97967
 C1257 C 0.23870 0.91843 0.97826
 C1258 C 0.23100 0.93035 0.95823
 C1259 C 0.21444 0.92946 0.91892
 C1260 C 0.20726 0.93788 0.90103
 C1261 C 0.19818 0.94624 0.87923
 C1262 C 0.19768 0.93092 0.86039
 C1263 C 0.18725 0.93798 0.83971
 C1264 C 0.17713 0.96051 0.83757
 C1265 C 0.17828 0.97609 0.85633
 C1266 C 0.18869 0.96894 0.87710
 H1267 H 0.21504 0.88333 0.92702
 H1268 H 0.22850 0.86245 0.96203
 H1269 H 0.24504 0.92840 0.99251
 H1270 H 0.23160 0.94931 0.95725
 H1271 H 0.20497 0.91332 0.86186
 H1272 H 0.18691 0.92573 0.82545
 H1273 H 0.17045 0.99347 0.85524
 H1274 H 0.18888 0.98089 0.89164
 C1275 C 0.72069 0.42005 0.44086
 C1276 C 0.72086 0.39554 0.44036
 C1277 C 0.72897 0.38240 0.45931
 C1278 C 0.73716 0.39364 0.47890
 C1279 C 0.73700 0.41823 0.47941
 C1280 C 0.72881 0.43141 0.46039
 C1281 C 0.71127 0.43322 0.42160
 C1282 C 0.70271 0.44320 0.40518
 C1283 C 0.69167 0.45381 0.38535
 C1284 C 0.66803 0.45031 0.38262
 C1285 C 0.65741 0.45869 0.36250
 C1286 C 0.67033 0.47067 0.34474
 C1287 C 0.69395 0.47473 0.34790
 C1288 C 0.70458 0.46624 0.36809
 H1289 H 0.71445 0.38656 0.42543
 H1290 H 0.72873 0.36344 0.45875
 H1291 H 0.74284 0.42726 0.49451
 H1292 H 0.72856 0.45038 0.46104
 H1293 H 0.65788 0.44069 0.39586
 H1294 H 0.63912 0.45563 0.36072
 H1295 H 0.70434 0.48376 0.33444
 H1296 H 0.72293 0.46892 0.36997
 C1297 C 0.77224 0.41799 0.56664
 C1298 C 0.75296 0.40366 0.56999
 C1299 C 0.74482 0.39129 0.55119
 C1300 C 0.75584 0.39326 0.52883
 C1301 C 0.77507 0.40776 0.52551
 C1302 C 0.78321 0.42013 0.54433
 C1303 C 0.78149 0.42943 0.58636
 C1304 C 0.78957 0.43845 0.60305
 C1305 C 0.79973 0.44856 0.62302
 C1306 C 0.79346 0.44059 0.64573
 C1307 C 0.80455 0.44917 0.66505
 C1308 C 0.82212 0.46580 0.66185
 C1309 C 0.82789 0.47411 0.63899
 C1310 C 0.81677 0.46552 0.61971
 H1311 H 0.74449 0.40168 0.58722
 H1312 H 0.73028 0.37985 0.55437
 H1313 H 0.78398 0.40922 0.50845
 H1314 H 0.79829 0.43102 0.54160
 H1315 H 0.78037 0.42736 0.64846
 H1316 H 0.79991 0.44224 0.68239
 H1317 H 0.84112 0.48715 0.63600
 H1318 H 0.82175 0.47181 0.60220
 C1319 C 0.27510 -0.07766 0.06552
 C1320 C 0.25571 -0.09167 0.06989
 C1321 C 0.24705 -0.10477 0.05186
 C1322 C 0.25764 -0.10387 0.02926
 C1323 C 0.27694 -0.08965 0.02488
 C1324 C 0.28561 -0.07654 0.04293
 C1325 C 0.28494 -0.06555 0.08453
 C1326 C 0.29346 -0.05602 0.10067
 C1327 C 0.30406 -0.04531 0.12008
 C1328 C 0.29840 -0.05281 0.14310
 C1329 C 0.30978 -0.04356 0.16191
 C1330 C 0.32706 -0.02674 0.15791
 C1331 C 0.33226 -0.01896 0.13474
 C1332 C 0.32085 -0.02821 0.11596
 H1333 H 0.24759 -0.09285 0.08736
 H1334 H 0.23247 -0.11596 0.05586
 H1335 H 0.28553 -0.08902 0.00762
 H1336 H 0.30075 -0.06593 0.03940
 H1337 H 0.28551 -0.06614 0.14646
 H1338 H 0.30559 -0.05012 0.17949
 H1339 H 0.34525 -0.00579 0.13112
 H1340 H 0.32536 -0.02229 0.09821
 C1341 C 0.28209 0.07587 0.43416
 C1342 C 0.26233 0.09045 0.43325
 C1343 C 0.25396 0.10209 0.45331
 C1344 C 0.26520 0.09916 0.47455
 C1345 C 0.28498 0.08450 0.47543
 C1346 C 0.29338 0.07285 0.45531
 C1347 C 0.29135 0.06519 0.41302
 C1348 C 0.29907 0.05713 0.39485
 C1349 C 0.30838 0.04866 0.37270
 C1350 C 0.30681 0.06291 0.35258
 C1351 C 0.31700 0.05561 0.33122
 C1352 C 0.32895 0.03392 0.32969
 C1353 C 0.32993 0.01939 0.34986
 C1354 C 0.31974 0.02677 0.37128
 H1355 H 0.25362 0.09314 0.41692
 H1356 H 0.23899 0.11366 0.45196
 H1357 H 0.29405 0.08229 0.49159
 H1358 H 0.30883 0.06180 0.45616
 H1359 H 0.29801 0.07986 0.35347
 H1360 H 0.31570 0.06703 0.31592
 H1361 H 0.33922 0.00271 0.34926
 H1362 H 0.32111 0.01563 0.38677
 C1363 C 0.77854 0.57480 0.93572
 C1364 C 0.77736 0.59928 0.93391
 C1365 C 0.77042 0.61251 0.95340
 C1366 C 0.76472 0.60143 0.97496
 C1367 C 0.76568 0.57686 0.97674
 C1368 C 0.77267 0.56356 0.95716
 C1369 C 0.78604 0.56161 0.91541
 C1370 C 0.79270 0.55190 0.89770
 C1371 C 0.80118 0.54199 0.87587
 C1372 C 0.79968 0.55538 0.85517
 C1373 C 0.80991 0.54719 0.83418
 C1374 C 0.82183 0.52545 0.83360
 C1375 C 0.82253 0.51165 0.85428
 C1376 C 0.81233 0.51994 0.87535
 H1377 H 0.78183 0.60816 0.91742
 H1378 H 0.76953 0.63145 0.95165
 H1379 H 0.76099 0.56793 0.99310
 H1380 H 0.77346 0.54461 0.95872
 H1381 H 0.79111 0.57247 0.85537
 H1382 H 0.80885 0.55805 0.81846
 H1383 H 0.83177 0.49493 0.85436
 H1384 H 0.81370 0.50949 0.89132
 C1385 C 0.06560 0.73025 0.57132
 C1386 C 0.04555 0.73674 0.55955
 C1387 C 0.02539 0.74371 0.57236
 C1388 C 0.02518 0.74395 0.59698
 C1389 C 0.04550 0.73809 0.60857
 C1390 C 0.06558 0.73121 0.59582
 C1391 C 0.08584 0.72109 0.55874
 C1392 C 0.10298 0.71237 0.54941
 C1393 C 0.12344 0.70072 0.53968
 C1394 C 0.13663 0.71080 0.52108
 C1395 C 0.15667 0.69920 0.51217
 C1396 C 0.16366 0.67739 0.52177
 C1397 C 0.15029 0.66756 0.54052
 C1398 C 0.13035 0.67913 0.54937
 H1399 H 0.04538 0.73601 0.54058
 H1400 H 0.01001 0.74848 0.56304
 H1401 H 0.04569 0.73834 0.62756
 H1402 H 0.08095 0.72616 0.60511
 H1403 H 0.13144 0.72754 0.51349
 H1404 H 0.16653 0.70713 0.49761
 H1405 H 0.15542 0.65103 0.54860
 H1406 H 0.12037 0.67126 0.56388
 C1407 C 0.56868 0.24369 1.07190
 C1408 C 0.56858 0.24582 1.09631
 C1409 C 0.54840 0.25303 1.10869
 C1410 C 0.52807 0.25806 1.09679
 C1411 C 0.52841 0.25682 1.07222
 C1412 C 0.54866 0.24951 1.05981
 C1413 C 0.58880 0.23363 1.05986
 C1414 C 0.60568 0.22405 1.05097
 C1415 C 0.62571 0.21127 1.04181
 C1416 C 0.63169 0.18978 1.05232
 C1417 C 0.65109 0.17704 1.04393
 C1418 C 0.66484 0.18559 1.02482
 C1419 C 0.65881 0.20731 1.01438
 C1420 C 0.63929 0.22008 1.02284
 H1421 H 0.58393 0.24126 1.10586
 H1422 H 0.54847 0.25402 1.12764
 H1423 H 0.51301 0.26092 1.06267
 H1424 H 0.54854 0.24784 1.04091
 H1425 H 0.62138 0.18288 1.06711
 H1426 H 0.65551 0.16061 1.05263
 H1427 H 0.66897 0.21425 0.99953
 H1428 H 0.63481 0.23673 1.01459
 C1429 C 0.94116 0.22267 0.91921
 C1430 C 0.95290 0.20697 0.90413
 C1431 C 0.97296 0.21374 0.89152
 C1432 C 0.98167 0.23629 0.89399
 C1433 C 0.96990 0.25205 0.90917
 C1434 C 0.94970 0.24525 0.92180
 C1435 C 0.91995 0.21542 0.93111
 C1436 C 0.90222 0.20790 0.93996
 C1437 C 0.88125 0.19729 0.94917
 C1438 C 0.87764 0.17365 0.94474
 C1439 C 0.85693 0.16320 0.95227
 C1440 C 0.83944 0.17627 0.96434
 C1441 C 0.84335 0.19994 0.96918
 C1442 C 0.86415 0.21042 0.96154
 H1443 H 0.94633 0.18954 0.90182
 H1444 H 0.98125 0.20137 0.87958
 H1445 H 0.97618 0.26965 0.91100
 H1446 H 0.94065 0.25762 0.93330
 H1447 H 0.89077 0.16332 0.93521
 H1448 H 0.85460 0.14485 0.94865
 H1449 H 0.83012 0.21045 0.97833
 H1450 H 0.86674 0.22878 0.96497
 C1451 C 0.43947 0.73081 0.42285
 C1452 C 0.46130 0.72017 0.42559
 C1453 C 0.48090 0.72937 0.41375
 C1454 C 0.47882 0.74930 0.39915
 C1455 C 0.45697 0.76014 0.39680
 C1456 C 0.43740 0.75096 0.40864
 C1457 C 0.41897 0.72007 0.43302
 C1458 C 0.40164 0.71066 0.44065
 C1459 C 0.38090 0.69888 0.44871
 C1460 C 0.37793 0.67548 0.44278
 C1461 C 0.35738 0.66418 0.44937
 C1462 C 0.33943 0.67614 0.46199
 C1463 C 0.34271 0.69956 0.46823
 C1464 C 0.36332 0.71087 0.46156
 H1465 H 0.46307 0.70443 0.43633
 H1466 H 0.49757 0.72057 0.41549
 H1467 H 0.45477 0.77522 0.38529
 H1468 H 0.42056 0.75917 0.40618
 H1469 H 0.39143 0.66603 0.43285
 H1470 H 0.35555 0.64603 0.44466
 H1471 H 0.32914 0.70926 0.47778
 H1472 H 0.36540 0.72904 0.46613
 C1473 C 0.56605 0.78275 0.42469
 C1474 C 0.56718 0.78447 0.40016
 C1475 C 0.54850 0.77755 0.38736
 C1476 C 0.52854 0.76870 0.39894
 C1477 C 0.52725 0.76729 0.42356
 C1478 C 0.54601 0.77425 0.43641
 C1479 C 0.58549 0.79002 0.43757
 C1480 C 0.60214 0.79656 0.44750
 C1481 C 0.62231 0.80506 0.45836
 C1482 C 0.64446 0.79724 0.45070
 C1483 C 0.66418 0.80724 0.45947
 C1484 C 0.66195 0.82530 0.47593
 C1485 C 0.63960 0.83248 0.48410
 C1486 C 0.61992 0.82245 0.47533
 H1487 H 0.58253 0.79114 0.39091
 H1488 H 0.54970 0.77892 0.36836
 H1489 H 0.51190 0.76083 0.43287
 H1490 H 0.54490 0.77302 0.45541
 H1491 H 0.64650 0.78390 0.43745
 H1492 H 0.68112 0.80153 0.45264
 H1493 H 0.63734 0.84612 0.49700
 H1494 H 0.60286 0.82866 0.48135
 C1495 C 0.07007 0.26657 -0.08039
 C1496 C 0.07204 0.26611 -0.10493
 C1497 C 0.05319 0.25971 -0.11776
 C1498 C 0.03212 0.25384 -0.10620
 C1499 C 0.03027 0.25385 -0.08158
 C1500 C 0.04919 0.26030 -0.06871
 C1501 C 0.08928 0.27440 -0.06753
 C1502 C 0.10559 0.28172 -0.05757
 C1503 C 0.12515 0.29144 -0.04664
 C1504 C 0.14774 0.28513 -0.05436
 C1505 C 0.16671 0.29656 -0.04568
 C1506 C 0.16327 0.31455 -0.02927
 C1507 C 0.14054 0.32016 -0.02101
 C1508 C 0.12161 0.30870 -0.02968
 H1509 H 0.08809 0.27095 -0.11416
 H1510 H 0.05497 0.25958 -0.13675
 H1511 H 0.01431 0.24903 -0.07229
 H1512 H 0.04749 0.26060 -0.04971
 H1513 H 0.15065 0.27191 -0.06763
 H1514 H 0.18398 0.29203 -0.05256
 H1515 H 0.13738 0.33371 -0.00814
 H1516 H 0.10420 0.31376 -0.02363
 C1517 C 0.43764 0.28644 0.07009
 C1518 C 0.44681 0.30253 0.08525
 C1519 C 0.46606 0.29635 0.09818
 C1520 C 0.47651 0.27405 0.09595
 C1521 C 0.46733 0.25793 0.08070
 C1522 C 0.44797 0.26412 0.06775
 C1523 C 0.41711 0.29294 0.05786
 C1524 C 0.39968 0.29965 0.04869
 C1525 C 0.37875 0.30921 0.03915
 C1526 C 0.37311 0.33287 0.04264
 C1527 C 0.35209 0.34224 0.03521
 C1528 C 0.33633 0.32805 0.02418
 C1529 C 0.34237 0.30441 0.02007
 C1530 C 0.36347 0.29500 0.02764
 H1531 H 0.43882 0.31976 0.08736
 H1532 H 0.47238 0.30895 0.11017
 H1533 H 0.47495 0.24050 0.07906
 H1534 H 0.44090 0.25146 0.05621
 H1535 H 0.38480 0.34403 0.05150
 H1536 H 0.34808 0.36059 0.03824
 H1537 H 0.33050 0.29308 0.01171
 H1538 H 0.36764 0.27662 0.02494
 C1539 C 0.93520 0.77616 0.57205
 C1540 C 0.94487 0.75366 0.56879
 C1541 C 0.96416 0.74636 0.58138
 C1542 C 0.97393 0.76155 0.59717
 C1543 C 0.96407 0.78401 0.60036
 C1544 C 0.94491 0.79128 0.58780
 C1545 C 0.91491 0.78395 0.56006
 C1546 C 0.89781 0.79194 0.55116
 C1547 C 0.87746 0.80317 0.54199
 C1548 C 0.86089 0.79035 0.53068
 C1549 C 0.84042 0.80146 0.52348
 C1550 C 0.83629 0.82544 0.52776
 C1551 C 0.85333 0.83820 0.53859
 C1552 C 0.87372 0.82714 0.54565
 H1553 H 0.93739 0.74174 0.55677
 H1554 H 0.97131 0.72882 0.57899
 H1555 H 0.97080 0.79592 0.61279
 H1556 H 0.93745 0.80864 0.59063
 H1557 H 0.86358 0.77175 0.52785
 H1558 H 0.82753 0.79121 0.51527
 H1559 H 0.85081 0.85677 0.54175
 H1560 H 0.88642 0.83724 0.55436
   
