data_POSCAR
  _audit_creation_date              2014-09-24
  _audit_creation_method            'ToBaCCo'
  _symmetry_space_group_name_H-M    'P1'
  _symmetry_Int_Tables_number       1
  _symmetry_cell_setting            triclinic
  loop_
  _symmetry_equiv_pos_as_xyz
 x,y,z
_cell_length_a 32.4083
_cell_length_b 27.2778
_cell_length_c 25.0127
_cell_angle_alpha 89.837200
_cell_angle_beta 89.925700
_cell_angle_gamma 89.948500
loop_
  _atom_site_label
  _atom_site_type_symbol
  _atom_site_fract_x
  _atom_site_fract_y
  _atom_site_fract_z
C1 C -0.00050 -0.01204 0.17204
 C2 C 0.00111 -0.01096 -0.17901
 C3 C -0.09583 -0.08571 0.07309
 C4 C -0.09456 0.07759 0.07813
 C5 C -0.09551 -0.08211 -0.08369
 C6 C 0.09632 -0.07883 -0.08865
 C7 C 0.09637 0.07631 -0.08615
 C8 C 0.09307 -0.08222 0.08096
 C9 C -0.09480 0.07938 -0.08375
 C10 C 0.09528 0.07197 0.08290
 O11 O -0.05773 -0.09356 -0.09540
 O12 O -0.10661 -0.04795 -0.05139
 O13 O -0.05685 0.08874 -0.09696
 O14 O -0.10598 0.04560 -0.05064
 O15 O 0.05747 0.08192 0.09564
 O16 O 0.10634 0.04089 0.04689
 O17 O 0.00146 0.03225 -0.15659
 O18 O 0.00013 -0.05129 -0.15325
 O19 O 0.00024 0.03129 0.15000
 O20 O -0.00184 -0.05214 0.14591
 O21 O 0.05843 -0.08993 -0.10049
 O22 O 0.10690 -0.04711 -0.05316
 O23 O -0.05817 -0.09703 0.08462
 O24 O -0.10688 -0.05016 0.04217
 O25 O 0.05532 -0.09255 0.09237
 O26 O 0.10509 -0.04987 0.04657
 O27 O 0.05851 0.08576 -0.09968
 O28 O 0.10678 0.04349 -0.05122
 O29 O 0.00172 0.13146 0.08250
 O30 O 0.00180 0.13261 -0.09075
 O31 O 0.00266 -0.14183 -0.07999
 O32 O -0.00024 -0.14253 0.07431
 O33 O -0.03643 -0.06780 -0.00439
 O34 O -0.03420 0.06086 -0.00343
 O35 O 0.03530 -0.06795 -0.00379
 O36 O -0.03832 -0.00457 0.06797
 O37 O -0.10588 0.04480 0.04410
 O38 O -0.05678 0.08668 0.09135
 O39 O 0.03759 -0.00535 0.06856
 O40 O 0.03846 -0.00402 -0.07557
 O41 O 0.03431 0.05988 -0.00301
 O42 O -0.03728 -0.00346 -0.07521
 Zr43 Zr 0.00003 0.05537 0.06789
 Zr44 Zr 0.00026 -0.06482 -0.07230
 Zr45 Zr -0.07046 -0.00239 -0.00383
 Zr46 Zr -0.00101 -0.06565 0.06428
 Zr47 Zr 0.00063 0.05670 -0.07454
 Zr48 Zr 0.07049 -0.00344 -0.00325
 H49 H 0.05190 -0.09840 -0.00427
 H50 H -0.05709 -0.00518 0.09922
 H51 H 0.05074 0.09043 -0.00238
 H52 H -0.05577 -0.00310 -0.10667
 H53 H 0.00046 0.14700 0.04670
 H54 H 0.00131 0.14854 -0.05521
 H55 H 0.00843 -0.15626 0.03952
 H56 H -0.01188 -0.15515 -0.04832
 C57 C 0.25157 0.23254 0.07374
 C58 C 0.25047 0.23938 0.42467
 C59 C 0.15561 0.32456 0.16636
 C60 C 0.15513 0.16198 0.17145
 C61 C 0.15539 0.32840 0.32892
 C62 C 0.34499 0.32660 0.33114
 C63 C 0.34535 0.17091 0.33520
 C64 C 0.34546 0.32160 0.16402
 C65 C 0.15397 0.16666 0.32833
 C66 C 0.34659 0.16422 0.16889
 O67 O 0.19319 0.33739 0.34229
 O68 O 0.14436 0.29488 0.29526
 O69 O 0.19164 0.15526 0.34055
 O70 O 0.14305 0.20079 0.29593
 O71 O 0.30882 0.15293 0.15695
 O72 O 0.35714 0.19840 0.20181
 O73 O 0.24880 0.19882 0.39964
 O74 O 0.25127 0.28239 0.40165
 O75 O 0.25118 0.19281 0.10068
 O76 O 0.25133 0.27617 0.09504
 O77 O 0.30712 0.33567 0.34433
 O78 O 0.35613 0.29359 0.29691
 O79 O 0.19346 0.33367 0.15309
 O80 O 0.14422 0.29161 0.20017
 O81 O 0.30773 0.33071 0.15045
 O82 O 0.35664 0.28988 0.19933
 O83 O 0.30760 0.15974 0.34714
 O84 O 0.35662 0.20267 0.30015
 O85 O 0.25091 0.10380 0.17482
 O86 O 0.25221 0.10760 0.32948
 O87 O 0.25066 0.38205 0.33142
 O88 O 0.25145 0.37756 0.15709
 O89 O 0.21583 0.30885 0.24727
 O90 O 0.21412 0.18017 0.25040
 O91 O 0.28406 0.30811 0.24753
 O92 O 0.21281 0.24197 0.17724
 O93 O 0.14402 0.19735 0.20252
 O94 O 0.19300 0.15029 0.16052
 O95 O 0.28873 0.24187 0.17688
 O96 O 0.28806 0.24518 0.32127
 O97 O 0.28585 0.18045 0.25094
 O98 O 0.21220 0.24543 0.32043
 Zr99 Zr 0.25069 0.18089 0.18222
 Zr100 Zr 0.25010 0.30561 0.31890
 Zr101 Zr 0.17981 0.24557 0.24862
 Zr102 Zr 0.25047 0.30223 0.17633
 Zr103 Zr 0.24982 0.18435 0.31877
 Zr104 Zr 0.32076 0.24529 0.24923
 H105 H 0.30009 0.33894 0.24670
 H106 H 0.19431 0.24128 0.14579
 H107 H 0.30249 0.15007 0.25233
 H108 H 0.19355 0.24586 0.35179
 H109 H 0.26072 0.09083 0.20949
 H110 H 0.23962 0.09337 0.29704
 H111 H 0.25103 0.39470 0.19196
 H112 H 0.24951 0.39671 0.29518
 C113 C 0.50801 -0.01444 0.17529
 C114 C 0.49702 -0.01417 -0.17358
 C115 C 0.59815 0.07702 0.07877
 C116 C 0.60501 -0.08375 0.07457
 C117 C 0.59516 0.07897 -0.08533
 C118 C 0.40434 0.06997 -0.07784
 C119 C 0.40700 -0.08590 -0.07829
 C120 C 0.40812 0.06713 0.08976
 C121 C 0.59930 -0.08154 -0.08615
 C122 C 0.42025 -0.09435 0.09462
 O123 O 0.55642 0.08680 -0.09654
 O124 O 0.60778 0.04590 -0.05216
 O125 O 0.56133 -0.09397 -0.09566
 O126 O 0.61047 -0.04767 -0.05334
 O127 O 0.45876 -0.09930 0.10351
 O128 O 0.40430 -0.06327 0.06003
 O129 O 0.49976 -0.05463 -0.14839
 O130 O 0.49680 0.02894 -0.15131
 O131 O 0.51242 -0.05436 0.14948
 O132 O 0.50433 0.02853 0.15324
 O133 O 0.44161 0.08018 -0.09282
 O134 O 0.39496 0.03663 -0.04221
 O135 O 0.56039 0.08473 0.09336
 O136 O 0.60978 0.04549 0.04343
 O137 O 0.44607 0.07913 0.09976
 O138 O 0.39700 0.03293 0.05730
 O139 O 0.44481 -0.09518 -0.09262
 O140 O 0.39620 -0.05564 -0.04151
 O141 O 0.51305 -0.14530 0.07551
 O142 O 0.50309 -0.14551 -0.07454
 O143 O 0.49660 0.12915 -0.08375
 O144 O 0.50137 0.12835 0.08634
 O145 O 0.53676 0.05883 -0.00083
 O146 O 0.54293 -0.06979 -0.00221
 O147 O 0.46751 0.05412 0.00295
 O148 O 0.54456 -0.00562 0.06991
 O149 O 0.61436 -0.04900 0.04150
 O150 O 0.56790 -0.09558 0.08768
 O151 O 0.46859 -0.01028 0.07519
 O152 O 0.46355 -0.00916 -0.06778
 O153 O 0.47081 -0.07291 0.00292
 O154 O 0.53939 -0.00570 -0.07259
 Zr155 Zr 0.50975 -0.06822 0.06816
 Zr156 Zr 0.50014 0.05299 -0.06967
 Zr157 Zr 0.57495 -0.00309 -0.00329
 Zr158 Zr 0.50379 0.05231 0.07156
 Zr159 Zr 0.50345 -0.06836 -0.06760
 Zr160 Zr 0.43274 -0.01074 0.00606
 H161 H 0.45046 0.08418 0.00396
 H162 H 0.56382 -0.00538 0.10059
 H163 H 0.45554 -0.10428 0.00360
 H164 H 0.55666 -0.00452 -0.10523
 H165 H 0.50219 -0.15889 0.04177
 H166 H 0.52151 -0.15795 -0.04603
 H167 H 0.50127 0.14393 0.05053
 H168 H 0.49877 0.14439 -0.04798
 C169 C 0.75206 0.23487 0.07620
 C170 C 0.75161 0.24062 0.42548
 C171 C 0.65557 0.32481 0.16733
 C172 C 0.65589 0.16410 0.17169
 C173 C 0.65542 0.32873 0.33073
 C174 C 0.84569 0.32634 0.33356
 C175 C 0.84660 0.17186 0.33710
 C176 C 0.84580 0.32152 0.16426
 C177 C 0.65508 0.16801 0.33193
 C178 C 0.84638 0.16766 0.16763
 O179 O 0.69328 0.33811 0.34388
 O180 O 0.64450 0.29512 0.29721
 O181 O 0.69283 0.15686 0.34404
 O182 O 0.64395 0.20125 0.29846
 O183 O 0.80862 0.15637 0.15621
 O184 O 0.85732 0.20035 0.20206
 O185 O 0.75064 0.19988 0.40081
 O186 O 0.75166 0.28356 0.40255
 O187 O 0.75148 0.19488 0.10255
 O188 O 0.75171 0.27840 0.09741
 O189 O 0.80779 0.33581 0.34649
 O190 O 0.85677 0.29389 0.29878
 O191 O 0.69341 0.33425 0.15411
 O192 O 0.64442 0.29232 0.20188
 O193 O 0.80801 0.33100 0.15115
 O194 O 0.85702 0.29067 0.20045
 O195 O 0.80873 0.16061 0.34883
 O196 O 0.85742 0.20354 0.30156
 O197 O 0.75124 0.10535 0.17730
 O198 O 0.75300 0.10824 0.32940
 O199 O 0.75130 0.38313 0.33318
 O200 O 0.75168 0.37964 0.16122
 O201 O 0.71588 0.31005 0.24923
 O202 O 0.71460 0.18110 0.25212
 O203 O 0.78474 0.30948 0.24926
 O204 O 0.71319 0.24350 0.17930
 O205 O 0.64455 0.19843 0.20397
 O206 O 0.69374 0.15274 0.16066
 O207 O 0.78880 0.24355 0.17892
 O208 O 0.78861 0.24626 0.32261
 O209 O 0.78668 0.18147 0.25222
 O210 O 0.71303 0.24626 0.32193
 Zr211 Zr 0.75101 0.18253 0.18393
 Zr212 Zr 0.75056 0.30674 0.32033
 Zr213 Zr 0.68018 0.24640 0.25055
 Zr214 Zr 0.75066 0.30392 0.17852
 Zr215 Zr 0.75079 0.18516 0.32017
 Zr216 Zr 0.82128 0.24640 0.25076
 H217 H 0.80095 0.34019 0.24841
 H218 H 0.69478 0.24290 0.14778
 H219 H 0.80361 0.15129 0.25315
 H220 H 0.69450 0.24680 0.35341
 H221 H 0.76330 0.09263 0.21087
 H222 H 0.73891 0.09463 0.29767
 H223 H 0.75054 0.39601 0.19648
 H224 H 0.75002 0.39793 0.29702
 C225 C 0.00090 0.48614 0.17482
 C226 C -0.00051 0.48861 -0.17617
 C227 C -0.09528 0.41351 0.07793
 C228 C -0.09489 0.57597 0.08356
 C229 C -0.09627 0.41682 -0.07811
 C230 C 0.09522 0.42277 -0.08556
 C231 C 0.09454 0.57637 -0.08335
 C232 C 0.09587 0.41818 0.08228
 C233 C -0.09531 0.57924 -0.07883
 C234 C 0.09450 0.57281 0.08708
 O235 O -0.05853 0.40551 -0.09028
 O236 O -0.10722 0.45126 -0.04614
 O237 O -0.05758 0.58831 -0.09267
 O238 O -0.10640 0.54543 -0.04558
 O239 O 0.05666 0.58216 0.09988
 O240 O 0.10570 0.54213 0.05060
 O241 O 0.00001 0.53188 -0.15365
 O242 O -0.00158 0.44841 -0.15003
 O243 O 0.00098 0.52958 0.15311
 O244 O -0.00021 0.44606 0.14891
 O245 O 0.05752 0.41136 -0.09736
 O246 O 0.10630 0.45428 -0.05032
 O247 O -0.05742 0.40203 0.08891
 O248 O -0.10655 0.44899 0.04709
 O249 O 0.05813 0.40688 0.09428
 O250 O 0.10662 0.45133 0.04818
 O251 O 0.05674 0.58524 -0.09691
 O252 O 0.10572 0.54438 -0.04810
 O253 O 0.00077 0.63072 0.08661
 O254 O 0.00046 0.63216 -0.08685
 O255 O 0.00253 0.35820 -0.07699
 O256 O 0.00119 0.35626 0.07706
 O257 O -0.03629 0.43157 -0.00031
 O258 O -0.03479 0.56021 0.00067
 O259 O 0.03553 0.43211 -0.00084
 O260 O -0.03779 0.49416 0.07191
 O261 O -0.10619 0.54338 0.04932
 O262 O -0.05706 0.58517 0.09651
 O263 O 0.03790 0.49431 0.07209
 O264 O 0.03763 0.49602 -0.07205
 O265 O 0.03353 0.55995 0.00042
 O266 O -0.03833 0.49603 -0.07131
 Zr267 Zr -0.00022 0.55466 0.07165
 Zr268 Zr -0.00048 0.43513 -0.06876
 Zr269 Zr -0.07070 0.49683 0.00070
 Zr270 Zr 0.00009 0.43322 0.06770
 Zr271 Zr -0.00048 0.55618 -0.07099
 Zr272 Zr 0.07019 0.49718 0.00008
 H273 H 0.05239 0.40188 -0.00163
 H274 H -0.05633 0.49340 0.10338
 H275 H 0.04972 0.59068 0.00107
 H276 H -0.05704 0.49626 -0.10256
 H277 H -0.00096 0.64637 0.05090
 H278 H 0.00027 0.64797 -0.05124
 H279 H 0.01114 0.34289 0.04268
 H280 H -0.01089 0.34455 -0.04467
 C281 C 0.24503 0.73653 0.07447
 C282 C 0.25226 0.76782 0.42277
 C283 C 0.14813 0.82428 0.16685
 C284 C 0.15343 0.66268 0.17800
 C285 C 0.15262 0.83623 0.32661
 C286 C 0.34368 0.83955 0.32201
 C287 C 0.34759 0.68399 0.33148
 C288 C 0.33191 0.83547 0.14878
 C289 C 0.15682 0.67405 0.33735
 C290 C 0.34383 0.67371 0.16570
 O291 O 0.19046 0.84888 0.33581
 O292 O 0.14147 0.79985 0.29693
 O293 O 0.19533 0.66556 0.34841
 O294 O 0.14373 0.70638 0.30411
 O295 O 0.30600 0.66004 0.15768
 O296 O 0.35483 0.71034 0.19515
 O297 O 0.25287 0.72426 0.40276
 O298 O 0.25047 0.80742 0.39486
 O299 O 0.24651 0.69709 0.10233
 O300 O 0.24288 0.78016 0.09419
 O301 O 0.30575 0.84909 0.33513
 O302 O 0.35486 0.80701 0.28748
 O303 O 0.18509 0.83334 0.15115
 O304 O 0.13812 0.79264 0.20290
 O305 O 0.29359 0.83843 0.13808
 O306 O 0.34784 0.80681 0.18565
 O307 O 0.31044 0.67468 0.34744
 O308 O 0.35728 0.71503 0.29401
 O309 O 0.25212 0.60958 0.18441
 O310 O 0.25606 0.62428 0.34545
 O311 O 0.24816 0.89652 0.31478
 O312 O 0.23937 0.88203 0.15309
 O313 O 0.20991 0.81566 0.24427
 O314 O 0.21439 0.68756 0.25616
 O315 O 0.28012 0.81871 0.23997
 O316 O 0.20765 0.74509 0.17895
 O317 O 0.14194 0.69778 0.20943
 O318 O 0.19136 0.65289 0.16552
 O319 O 0.28372 0.74907 0.17399
 O320 O 0.28814 0.76076 0.31672
 O321 O 0.28506 0.69237 0.25206
 O322 O 0.21195 0.75738 0.32110
 Zr323 Zr 0.24816 0.68679 0.18506
 Zr324 Zr 0.24793 0.81922 0.31176
 Zr325 Zr 0.17694 0.75022 0.25163
 Zr326 Zr 0.24280 0.80700 0.17352
 Zr327 Zr 0.25160 0.69870 0.32296
 Zr328 Zr 0.31911 0.75769 0.24285
 H329 H 0.29482 0.85035 0.23667
 H330 H 0.18849 0.74224 0.14833
 H331 H 0.30223 0.66242 0.25356
 H332 H 0.19424 0.75861 0.35333
 H333 H 0.24343 0.59890 0.22054
 H334 H 0.25776 0.60580 0.31154
 H335 H 0.23900 0.89988 0.18746
 H336 H 0.23814 0.90756 0.27940
 C337 C 0.49720 0.48800 0.17520
 C338 C 0.49799 0.49035 -0.17411
 C339 C 0.59425 0.57669 0.08479
 C340 C 0.59510 0.41570 0.07986
 C341 C 0.59419 0.57927 -0.07907
 C342 C 0.40389 0.57794 -0.08109
 C343 C 0.40387 0.42153 -0.08242
 C344 C 0.40413 0.57618 0.08575
 C345 C 0.59470 0.41904 -0.07891
 C346 C 0.40405 0.41843 0.08371
 O347 O 0.55639 0.58859 -0.09256
 O348 O 0.60533 0.54602 -0.04530
 O349 O 0.55699 0.40781 -0.09060
 O350 O 0.60593 0.45258 -0.04604
 O351 O 0.44185 0.40736 0.09537
 O352 O 0.39289 0.45209 0.05040
 O353 O 0.49939 0.44998 -0.14847
 O354 O 0.49765 0.53354 -0.15182
 O355 O 0.49879 0.44777 0.14975
 O356 O 0.49709 0.53133 0.15343
 O357 O 0.44169 0.58721 -0.09459
 O358 O 0.39288 0.54516 -0.04657
 O359 O 0.55637 0.58623 0.09770
 O360 O 0.60537 0.54439 0.05005
 O361 O 0.44199 0.58573 0.09851
 O362 O 0.39303 0.54369 0.05123
 O363 O 0.44162 0.41062 -0.09463
 O364 O 0.39272 0.45401 -0.04808
 O365 O 0.49944 0.35764 0.07813
 O366 O 0.49733 0.35939 -0.07551
 O367 O 0.49853 0.63357 -0.08521
 O368 O 0.49904 0.63231 0.08805
 O369 O 0.53384 0.56168 0.00150
 O370 O 0.53562 0.43269 0.00067
 O371 O 0.46519 0.56108 0.00162
 O372 O 0.53688 0.49580 0.07281
 O373 O 0.60601 0.45058 0.04795
 O374 O 0.55727 0.40429 0.09134
 O375 O 0.46131 0.49572 0.07333
 O376 O 0.46102 0.49719 -0.07070
 O377 O 0.46373 0.43330 0.00083
 O378 O 0.53690 0.49734 -0.07008
 Zr379 Zr 0.49948 0.43462 0.06890
 Zr380 Zr 0.49907 0.55754 -0.06960
 Zr381 Zr 0.56973 0.49807 0.00153
 Zr382 Zr 0.49918 0.55637 0.07241
 Zr383 Zr 0.49926 0.43637 -0.06734
 Zr384 Zr 0.42867 0.49811 0.00158
 H385 H 0.44914 0.59194 0.00198
 H386 H 0.55532 0.49511 0.10433
 H387 H 0.44724 0.40282 0.00029
 H388 H 0.55531 0.49763 -0.10168
 H389 H 0.48923 0.34416 0.04397
 H390 H 0.51118 0.34597 -0.04341
 H391 H 0.50045 0.64819 0.05244
 H392 H 0.49929 0.64927 -0.04957
 C393 C 0.75226 0.73466 0.07532
 C394 C 0.75104 0.76635 0.42390
 C395 C 0.65789 0.82760 0.16116
 C396 C 0.65510 0.66597 0.17450
 C397 C 0.65518 0.83684 0.32434
 C398 C 0.84539 0.83373 0.32909
 C399 C 0.84624 0.67984 0.33975
 C400 C 0.84658 0.82159 0.15916
 C401 C 0.65513 0.67674 0.33491
 C402 C 0.84591 0.66753 0.17168
 O403 O 0.69301 0.84815 0.33559
 O404 O 0.64423 0.80193 0.29258
 O405 O 0.69287 0.66716 0.34847
 O406 O 0.64403 0.70857 0.29963
 O407 O 0.80808 0.65609 0.16077
 O408 O 0.85702 0.70173 0.20425
 O409 O 0.75071 0.72266 0.40421
 O410 O 0.75075 0.80593 0.39588
 O411 O 0.75150 0.69524 0.10346
 O412 O 0.75222 0.77848 0.09482
 O413 O 0.80753 0.84533 0.33958
 O414 O 0.85671 0.79976 0.29623
 O415 O 0.69574 0.83617 0.14830
 O416 O 0.64593 0.79617 0.19662
 O417 O 0.80896 0.83042 0.14526
 O418 O 0.85765 0.79232 0.19702
 O419 O 0.80838 0.67062 0.35323
 O420 O 0.85741 0.70967 0.30257
 O421 O 0.75187 0.60723 0.18563
 O422 O 0.75144 0.62181 0.34765
 O423 O 0.75200 0.89467 0.31379
 O424 O 0.75369 0.88012 0.15192
 O425 O 0.71562 0.81557 0.24268
 O426 O 0.71504 0.68721 0.25582
 O427 O 0.78598 0.81472 0.24349
 O428 O 0.71347 0.74544 0.17810
 O429 O 0.64419 0.70179 0.20510
 O430 O 0.69298 0.65398 0.16390
 O431 O 0.78916 0.74461 0.17813
 O432 O 0.78849 0.75690 0.32127
 O433 O 0.78559 0.68717 0.25595
 O434 O 0.71288 0.75694 0.32021
 Zr435 Zr 0.75064 0.68456 0.18644
 Zr436 Zr 0.75047 0.81735 0.31277
 Zr437 Zr 0.68023 0.75173 0.24884
 Zr438 Zr 0.75168 0.80547 0.17409
 Zr439 Zr 0.75058 0.69633 0.32485
 Zr440 Zr 0.82143 0.75089 0.24985
 H441 H 0.80252 0.84511 0.24096
 H442 H 0.69512 0.74348 0.14659
 H443 H 0.80196 0.65662 0.25859
 H444 H 0.69429 0.75898 0.35155
 H445 H 0.74199 0.59696 0.22138
 H446 H 0.75367 0.60322 0.31386
 H447 H 0.75524 0.89851 0.18590
 H448 H 0.74208 0.90511 0.27814
 C449 C -0.00126 0.01156 0.32495
 C450 C -0.00022 0.01541 0.67590
 C451 C -0.09771 0.08553 0.42303
 C452 C -0.09614 -0.07602 0.41936
 C453 C -0.09699 0.08638 0.57954
 C454 C 0.09425 0.08191 0.58410
 C455 C 0.09397 -0.07363 0.58455
 C456 C 0.09407 0.07916 0.41587
 C457 C -0.09596 -0.07742 0.58152
 C458 C 0.09330 -0.07270 0.41538
 O459 O -0.05918 0.09768 0.59098
 O460 O -0.10805 0.05140 0.54814
 O461 O -0.05812 -0.08625 0.59499
 O462 O -0.10737 -0.04359 0.54857
 O463 O 0.05552 -0.08226 0.40260
 O464 O 0.10438 -0.04147 0.45126
 O465 O -0.00007 -0.02808 0.65420
 O466 O -0.00159 0.05543 0.64965
 O467 O -0.00077 -0.03151 0.34765
 O468 O -0.00262 0.05202 0.35041
 O469 O 0.05649 0.09338 0.59596
 O470 O 0.10499 0.04928 0.54960
 O471 O -0.05993 0.09686 0.41096
 O472 O -0.10849 0.05078 0.45497
 O473 O 0.05638 0.09066 0.40384
 O474 O 0.10504 0.04766 0.45128
 O475 O 0.05620 -0.08284 0.59817
 O476 O 0.10487 -0.04158 0.54935
 O477 O -0.00046 -0.13105 0.41743
 O478 O -0.00012 -0.12930 0.59119
 O479 O 0.00092 0.14482 0.57408
 O480 O -0.00070 0.14319 0.41987
 O481 O -0.03770 0.06961 0.50027
 O482 O -0.03588 -0.05900 0.50166
 O483 O 0.03401 0.06932 0.49988
 O484 O -0.03950 0.00561 0.42942
 O485 O -0.10742 -0.04318 0.45353
 O486 O -0.05836 -0.08538 0.40628
 O487 O 0.03626 0.00566 0.42873
 O488 O 0.03665 0.00664 0.57294
 O489 O 0.03246 -0.05868 0.50128
 O490 O -0.03912 0.00648 0.57268
 Zr491 Zr -0.00159 -0.05466 0.43019
 Zr492 Zr -0.00144 0.06768 0.56839
 Zr493 Zr -0.07198 0.00433 0.50130
 Zr494 Zr -0.00186 0.06652 0.43168
 Zr495 Zr -0.00123 -0.05381 0.57268
 Zr496 Zr 0.06875 0.00429 0.50077
 H497 H 0.05087 0.09953 0.49961
 H498 H -0.05811 0.00588 0.39808
 H499 H 0.04874 -0.08938 0.50117
 H500 H -0.05771 0.00661 0.60412
 H501 H -0.00231 -0.14584 0.45357
 H502 H 0.00007 -0.14615 0.55615
 H503 H 0.01003 0.15738 0.45341
 H504 H -0.01233 0.15741 0.54116
 C505 C 0.25010 0.25801 0.92813
 C506 C 0.25142 0.26215 0.57731
 C507 C 0.15379 0.16888 0.83217
 C508 C 0.15423 0.33203 0.83003
 C509 C 0.15487 0.17223 0.67073
 C510 C 0.34523 0.17396 0.66881
 C511 C 0.34514 0.33087 0.66919
 C512 C 0.34352 0.16823 0.83752
 C513 C 0.15454 0.33374 0.67387
 C514 C 0.34532 0.32698 0.83697
 O515 O 0.19271 0.16259 0.65766
 O516 O 0.14367 0.20522 0.70442
 O517 O 0.19239 0.34466 0.66199
 O518 O 0.14344 0.29903 0.70588
 O519 O 0.30752 0.33824 0.84848
 O520 O 0.35664 0.29415 0.80317
 O521 O 0.25040 0.30215 0.60349
 O522 O 0.25136 0.21864 0.59913
 O523 O 0.24880 0.29831 0.90239
 O524 O 0.25035 0.21482 0.90582
 O525 O 0.30745 0.16486 0.65540
 O526 O 0.35648 0.20549 0.70410
 O527 O 0.19155 0.15965 0.84615
 O528 O 0.14327 0.20278 0.79864
 O529 O 0.30550 0.15962 0.85026
 O530 O 0.35499 0.20129 0.80291
 O531 O 0.30734 0.34161 0.65731
 O532 O 0.35617 0.29760 0.70359
 O533 O 0.25089 0.38894 0.83384
 O534 O 0.25228 0.39175 0.67977
 O535 O 0.25084 0.11768 0.66368
 O536 O 0.24918 0.11468 0.83740
 O537 O 0.21511 0.18759 0.75189
 O538 O 0.21383 0.31633 0.75313
 O539 O 0.28350 0.18797 0.75240
 O540 O 0.21163 0.25167 0.82432
 O541 O 0.14304 0.29697 0.79917
 O542 O 0.19199 0.34349 0.84137
 O543 O 0.28763 0.25124 0.82522
 O544 O 0.28826 0.25346 0.68110
 O545 O 0.28560 0.31537 0.75346
 O546 O 0.21231 0.25369 0.68092
 Zr547 Zr 0.24971 0.31242 0.82146
 Zr548 Zr 0.24999 0.19331 0.68098
 Zr549 Zr 0.17939 0.25123 0.75236
 Zr550 Zr 0.24916 0.19100 0.82358
 Zr551 Zr 0.25010 0.31452 0.68496
 Zr552 Zr 0.32065 0.25050 0.75334
 H553 H 0.29945 0.15705 0.75203
 H554 H 0.19285 0.25172 0.85557
 H555 H 0.30223 0.34575 0.75371
 H556 H 0.19389 0.25427 0.64938
 H557 H 0.26007 0.40361 0.79966
 H558 H 0.23826 0.40401 0.71226
 H559 H 0.24817 0.09969 0.80140
 H560 H 0.24998 0.10112 0.69896
 C561 C 0.49908 0.00974 0.32601
 C562 C 0.49797 0.01076 0.67578
 C563 C 0.59468 -0.07692 0.41785
 C564 C 0.59553 0.08242 0.42259
 C565 C 0.59443 -0.07885 0.58179
 C566 C 0.40441 -0.07694 0.58366
 C567 C 0.40436 0.08021 0.58496
 C568 C 0.40444 -0.07362 0.41490
 C569 C 0.59498 0.08319 0.58086
 C570 C 0.40418 0.07921 0.41849
 O571 O 0.55660 -0.08820 0.59500
 O572 O 0.60573 -0.04545 0.54838
 O573 O 0.55718 0.09422 0.59260
 O574 O 0.60612 0.04886 0.54855
 O575 O 0.44188 0.09042 0.40635
 O576 O 0.39309 0.04665 0.45273
 O577 O 0.49961 0.05116 0.65030
 O578 O 0.49764 -0.03243 0.65368
 O579 O 0.49936 0.05020 0.35147
 O580 O 0.49939 -0.03338 0.34828
 O581 O 0.44215 -0.08649 0.59692
 O582 O 0.39337 -0.04408 0.54947
 O583 O 0.55688 -0.08655 0.40492
 O584 O 0.60570 -0.04482 0.45289
 O585 O 0.44227 -0.08339 0.40194
 O586 O 0.39354 -0.04278 0.45136
 O587 O 0.44212 0.09115 0.59683
 O588 O 0.39338 0.04739 0.55081
 O589 O 0.49941 0.14127 0.42119
 O590 O 0.49771 0.14175 0.57625
 O591 O 0.49896 -0.13262 0.58934
 O592 O 0.49856 -0.13316 0.41745
 O593 O 0.53432 -0.06159 0.50119
 O594 O 0.53589 0.06737 0.50104
 O595 O 0.46554 -0.06097 0.50101
 O596 O 0.53741 0.00362 0.42982
 O597 O 0.60655 0.04815 0.45485
 O598 O 0.55781 0.09409 0.41095
 O599 O 0.46183 0.00379 0.42927
 O600 O 0.46154 0.00372 0.57333
 O601 O 0.46421 0.06705 0.50105
 O602 O 0.53722 0.00344 0.57272
 Zr603 Zr 0.49986 0.06457 0.43271
 Zr604 Zr 0.49944 -0.05688 0.57207
 Zr605 Zr 0.57010 0.00201 0.50134
 Zr606 Zr 0.49972 -0.05677 0.43016
 Zr607 Zr 0.49968 0.06467 0.56928
 Zr608 Zr 0.42931 0.00225 0.50133
 H609 H 0.44928 -0.09163 0.50045
 H610 H 0.55590 0.00409 0.39831
 H611 H 0.44764 0.09751 0.50120
 H612 H 0.55570 0.00340 0.60420
 H613 H 0.48966 0.15552 0.45524
 H614 H 0.51065 0.15469 0.54326
 H615 H 0.50137 -0.14794 0.45347
 H616 H 0.49930 -0.14899 0.55404
 C617 C 0.74855 0.25888 0.92538
 C618 C 0.74947 0.26546 0.57599
 C619 C 0.65169 0.17142 0.83048
 C620 C 0.65262 0.33283 0.83039
 C621 C 0.65356 0.17482 0.66768
 C622 C 0.84331 0.17832 0.66490
 C623 C 0.84359 0.33221 0.66739
 C624 C 0.84336 0.17407 0.83312
 C625 C 0.65249 0.33565 0.67142
 C626 C 0.84360 0.32773 0.83601
 O627 O 0.69139 0.16566 0.65451
 O628 O 0.64209 0.20727 0.70193
 O629 O 0.69030 0.34696 0.65977
 O630 O 0.64146 0.30122 0.70386
 O631 O 0.80587 0.33907 0.84797
 O632 O 0.85454 0.29628 0.80064
 O633 O 0.74813 0.30553 0.60197
 O634 O 0.74963 0.22196 0.59758
 O635 O 0.74708 0.29952 0.90036
 O636 O 0.74897 0.21591 0.90282
 O637 O 0.80558 0.16874 0.65177
 O638 O 0.85429 0.20936 0.70077
 O639 O 0.68967 0.16177 0.84371
 O640 O 0.64116 0.20530 0.79690
 O641 O 0.80550 0.16415 0.84626
 O642 O 0.85413 0.20667 0.79838
 O643 O 0.80585 0.34361 0.65546
 O644 O 0.85432 0.29943 0.70194
 O645 O 0.74893 0.39111 0.83188
 O646 O 0.75007 0.39486 0.67861
 O647 O 0.74934 0.12053 0.66145
 O648 O 0.74835 0.11661 0.83454
 O649 O 0.71325 0.18984 0.74940
 O650 O 0.71174 0.31879 0.75157
 O651 O 0.78197 0.19037 0.74961
 O652 O 0.71011 0.25353 0.82195
 O653 O 0.64132 0.29893 0.79804
 O654 O 0.69036 0.34425 0.84166
 O655 O 0.78568 0.25342 0.82257
 O656 O 0.78603 0.25662 0.67865
 O657 O 0.78366 0.31854 0.75162
 O658 O 0.71048 0.25649 0.67916
 Zr659 Zr 0.74792 0.31455 0.81968
 Zr660 Zr 0.74822 0.19616 0.67874
 Zr661 Zr 0.67745 0.25349 0.75040
 Zr662 Zr 0.74763 0.19290 0.82070
 Zr663 Zr 0.74804 0.31761 0.68331
 Zr664 Zr 0.81823 0.25357 0.75055
 H665 H 0.79825 0.15969 0.74885
 H666 H 0.69147 0.25315 0.85332
 H667 H 0.80049 0.34877 0.75219
 H668 H 0.69208 0.25702 0.64762
 H669 H 0.75881 0.40571 0.79799
 H670 H 0.73546 0.40688 0.71078
 H671 H 0.74734 0.10164 0.79853
 H672 H 0.74840 0.10398 0.69673
 C673 C 0.00224 0.50997 0.32569
 C674 C -0.00023 0.51313 0.67661
 C675 C -0.09414 0.58547 0.42204
 C676 C -0.09421 0.42113 0.41871
 C677 C -0.09553 0.58349 0.57835
 C678 C 0.09541 0.57769 0.58617
 C679 C 0.09492 0.42524 0.58673
 C680 C 0.09777 0.57855 0.41852
 C681 C -0.09545 0.42300 0.58085
 C682 C 0.09539 0.42239 0.41645
 O683 O -0.05783 0.59462 0.59056
 O684 O -0.10641 0.54942 0.54580
 O685 O -0.05782 0.41349 0.59491
 O686 O -0.10621 0.45599 0.54666
 O687 O 0.05755 0.41345 0.40333
 O688 O 0.10641 0.45428 0.45191
 O689 O 0.00000 0.46956 0.65484
 O690 O -0.00097 0.55304 0.64992
 O691 O 0.00209 0.46680 0.34807
 O692 O 0.00129 0.55040 0.35094
 O693 O 0.05765 0.58929 0.59751
 O694 O 0.10658 0.54577 0.55111
 O695 O -0.05616 0.59670 0.41107
 O696 O -0.10558 0.54984 0.45244
 O697 O 0.06008 0.59001 0.40613
 O698 O 0.10823 0.54550 0.45264
 O699 O 0.05703 0.41620 0.59998
 O700 O 0.10627 0.45607 0.55055
 O701 O 0.00130 0.36666 0.41628
 O702 O 0.00049 0.36836 0.58979
 O703 O 0.00295 0.64228 0.57353
 O704 O 0.00322 0.64117 0.41948
 O705 O -0.03536 0.56771 0.49959
 O706 O -0.03427 0.43902 0.50101
 O707 O 0.03643 0.56672 0.50050
 O708 O -0.03676 0.50381 0.42837
 O709 O -0.10541 0.45485 0.45192
 O710 O -0.05631 0.41167 0.40595
 O711 O 0.03900 0.50313 0.42860
 O712 O 0.03798 0.50405 0.57276
 O713 O 0.03408 0.43886 0.50164
 O714 O -0.03785 0.50446 0.57160
 Zr715 Zr 0.00062 0.44292 0.43002
 Zr716 Zr 0.00010 0.56512 0.56832
 Zr717 Zr -0.06996 0.50269 0.49949
 Zr718 Zr 0.00135 0.56461 0.43179
 Zr719 Zr -0.00024 0.44412 0.57269
 Zr720 Zr 0.07093 0.50146 0.50093
 H721 H 0.05333 0.59690 0.50095
 H722 H -0.05531 0.50424 0.39694
 H723 H 0.05021 0.40805 0.50207
 H724 H -0.05657 0.50479 0.60289
 H725 H -0.00016 0.35150 0.45227
 H726 H 0.00010 0.35208 0.55444
 H727 H 0.01157 0.65554 0.45406
 H728 H -0.01147 0.65487 0.54145
 C729 C 0.24844 0.76269 0.92420
 C730 C 0.25044 0.74082 0.57441
 C731 C 0.15369 0.67221 0.83297
 C732 C 0.15308 0.83506 0.82496
 C733 C 0.15389 0.66717 0.67426
 C734 C 0.34397 0.67019 0.66987
 C735 C 0.34470 0.82583 0.66321
 C736 C 0.34401 0.67487 0.83706
 C737 C 0.15391 0.83018 0.66645
 C738 C 0.34479 0.82988 0.83014
 O739 O 0.19166 0.65578 0.66308
 O740 O 0.14259 0.70257 0.70488
 O741 O 0.19177 0.83953 0.65314
 O742 O 0.14271 0.79682 0.70011
 O743 O 0.30700 0.84182 0.84155
 O744 O 0.35552 0.79671 0.79649
 O745 O 0.25009 0.78409 0.59525
 O746 O 0.24951 0.70070 0.60150
 O747 O 0.24830 0.80271 0.89720
 O748 O 0.24858 0.71927 0.90366
 O749 O 0.30623 0.65893 0.65854
 O750 O 0.35510 0.70363 0.70299
 O751 O 0.19148 0.66295 0.84639
 O752 O 0.14257 0.70541 0.79898
 O753 O 0.30618 0.66607 0.85084
 O754 O 0.35502 0.70615 0.80092
 O755 O 0.30701 0.83537 0.64947
 O756 O 0.35548 0.79421 0.69898
 O757 O 0.25091 0.89266 0.81988
 O758 O 0.25041 0.88334 0.65553
 O759 O 0.25018 0.60991 0.67780
 O760 O 0.24975 0.61897 0.84410
 O761 O 0.21353 0.68689 0.75403
 O762 O 0.21361 0.81547 0.74511
 O763 O 0.28346 0.68690 0.75399
 O764 O 0.21105 0.75482 0.82092
 O765 O 0.14229 0.79989 0.79374
 O766 O 0.19093 0.84641 0.83649
 O767 O 0.28675 0.75471 0.82177
 O768 O 0.28706 0.74726 0.67770
 O769 O 0.28382 0.81475 0.74546
 O770 O 0.21124 0.74769 0.67796
 Zr771 Zr 0.24881 0.81551 0.81486
 Zr772 Zr 0.24885 0.68699 0.68423
 Zr773 Zr 0.17845 0.75118 0.74950
 Zr774 Zr 0.24875 0.69404 0.82362
 Zr775 Zr 0.24917 0.80821 0.67573
 Zr776 Zr 0.31923 0.75054 0.74985
 H777 H 0.29967 0.65619 0.75541
 H778 H 0.19220 0.75610 0.85205
 H779 H 0.30030 0.84525 0.74436
 H780 H 0.19271 0.74648 0.64655
 H781 H 0.24337 0.90464 0.78382
 H782 H 0.25159 0.90094 0.69004
 H783 H 0.25010 0.60124 0.80962
 H784 H 0.24583 0.59751 0.71460
 C785 C 0.49841 0.51305 0.32428
 C786 C 0.49664 0.51338 0.67345
 C787 C 0.59423 0.42270 0.41690
 C788 C 0.59556 0.58529 0.42057
 C789 C 0.59321 0.42431 0.58097
 C790 C 0.40353 0.42572 0.58204
 C791 C 0.40301 0.58079 0.58176
 C792 C 0.40425 0.42489 0.41332
 C793 C 0.59441 0.58299 0.57976
 C794 C 0.40554 0.58591 0.41347
 O795 O 0.55530 0.41509 0.59395
 O796 O 0.60475 0.45666 0.54651
 O797 O 0.55660 0.59443 0.59136
 O798 O 0.60552 0.54968 0.54631
 O799 O 0.44353 0.59614 0.40242
 O800 O 0.39366 0.55213 0.44667
 O801 O 0.49798 0.55364 0.64759
 O802 O 0.49654 0.47008 0.65138
 O803 O 0.50022 0.55336 0.34952
 O804 O 0.49780 0.46983 0.34627
 O805 O 0.44127 0.41672 0.59553
 O806 O 0.39241 0.45775 0.54646
 O807 O 0.55636 0.41384 0.40345
 O808 O 0.60523 0.45569 0.45105
 O809 O 0.44227 0.41546 0.40107
 O810 O 0.39280 0.45793 0.44734
 O811 O 0.44077 0.59165 0.59399
 O812 O 0.39193 0.54906 0.54652
 O813 O 0.50035 0.64392 0.42047
 O814 O 0.49668 0.64381 0.57206
 O815 O 0.49746 0.36947 0.58452
 O816 O 0.49873 0.36918 0.41252
 O817 O 0.53348 0.44037 0.49873
 O818 O 0.53568 0.56932 0.49866
 O819 O 0.46463 0.44162 0.49803
 O820 O 0.53724 0.50553 0.42693
 O821 O 0.60638 0.55023 0.45213
 O822 O 0.55786 0.59693 0.40898
 O823 O 0.46144 0.50620 0.42562
 O824 O 0.46032 0.50601 0.56926
 O825 O 0.46354 0.56908 0.49788
 O826 O 0.53619 0.50545 0.56971
 Zr827 Zr 0.49994 0.56700 0.43024
 Zr828 Zr 0.49828 0.44557 0.56937
 Zr829 Zr 0.56961 0.50370 0.49852
 Zr830 Zr 0.49921 0.44524 0.42750
 Zr831 Zr 0.49876 0.56662 0.56632
 Zr832 Zr 0.42798 0.50464 0.49691
 H833 H 0.44853 0.41084 0.49808
 H834 H 0.55598 0.50571 0.39565
 H835 H 0.44713 0.59967 0.49822
 H836 H 0.55426 0.50530 0.60156
 H837 H 0.49097 0.65772 0.45492
 H838 H 0.51345 0.65639 0.54192
 H839 H 0.49959 0.35353 0.44828
 H840 H 0.49912 0.35393 0.54884
 C841 C 0.75083 0.76049 0.92439
 C842 C 0.75034 0.73915 0.57479
 C843 C 0.65428 0.67164 0.83437
 C844 C 0.65396 0.83250 0.82624
 C845 C 0.65407 0.66672 0.67326
 C846 C 0.84463 0.67024 0.66843
 C847 C 0.84477 0.82497 0.66243
 C848 C 0.84485 0.67420 0.83712
 C849 C 0.65406 0.82738 0.66631
 C850 C 0.84479 0.82870 0.82961
 O851 O 0.69183 0.65520 0.66185
 O852 O 0.64299 0.70118 0.70521
 O853 O 0.69184 0.83691 0.65283
 O854 O 0.64303 0.79461 0.70069
 O855 O 0.80706 0.84046 0.84091
 O856 O 0.85583 0.79544 0.79627
 O857 O 0.75014 0.78242 0.59561
 O858 O 0.74964 0.69898 0.60172
 O859 O 0.74990 0.80051 0.89734
 O860 O 0.75060 0.71708 0.90380
 O861 O 0.80689 0.65859 0.65736
 O862 O 0.85571 0.70311 0.70219
 O863 O 0.69210 0.66224 0.84775
 O864 O 0.64321 0.70409 0.79963
 O865 O 0.80710 0.66502 0.85086
 O866 O 0.85571 0.70520 0.80061
 O867 O 0.80699 0.83417 0.64883
 O868 O 0.85570 0.79354 0.69843
 O869 O 0.75090 0.89073 0.82052
 O870 O 0.75021 0.88193 0.65619
 O871 O 0.75097 0.60822 0.67864
 O872 O 0.75047 0.61695 0.84309
 O873 O 0.71406 0.68497 0.75420
 O874 O 0.71393 0.81383 0.74537
 O875 O 0.78421 0.68540 0.75378
 O876 O 0.71182 0.75291 0.82126
 O877 O 0.64298 0.79761 0.79481
 O878 O 0.69178 0.84404 0.83721
 O879 O 0.78738 0.75305 0.82143
 O880 O 0.78731 0.74584 0.67762
 O881 O 0.78419 0.81335 0.74537
 O882 O 0.71173 0.74606 0.67842
 Zr883 Zr 0.74932 0.81360 0.81489
 Zr884 Zr 0.74930 0.68535 0.68428
 Zr885 Zr 0.67906 0.74937 0.74996
 Zr886 Zr 0.74955 0.69224 0.82359
 Zr887 Zr 0.74942 0.80669 0.67591
 Zr888 Zr 0.81975 0.74931 0.74945
 H889 H 0.80066 0.65485 0.75497
 H890 H 0.69333 0.75420 0.85274
 H891 H 0.80053 0.84394 0.74411
 H892 H 0.69318 0.74493 0.64705
 H893 H 0.74366 0.90289 0.78443
 H894 H 0.75095 0.89936 0.69082
 H895 H 0.75102 0.59961 0.80841
 H896 H 0.74362 0.59607 0.71472
 C897 C -0.00036 -0.01884 0.23107
 C898 C -0.00073 0.01789 0.26588
 H899 H -0.00035 -0.05610 0.24627
 H900 H -0.00094 0.05511 0.25055
 C901 C 0.25166 0.22613 1.02037
 C902 C 0.25084 0.26419 0.98371
 H903 H 0.25186 0.18893 1.00499
 H904 H 0.25048 0.30148 0.99880
 C905 C 0.12877 0.09830 0.11043
 C906 C 0.12163 0.13379 0.14619
 H907 H 0.16022 0.08894 0.09974
 H908 H 0.09018 0.14353 0.15645
 C909 C 0.37854 0.35015 0.13872
 C910 C 0.37086 0.38985 0.10880
 H911 H 0.41008 0.33888 0.14630
 H912 H 0.33933 0.40129 0.10149
 C913 C 0.38066 0.13578 0.14437
 C914 C 0.37435 0.09500 0.11566
 H915 H 0.41189 0.14859 0.15091
 H916 H 0.34310 0.08221 0.10925
 C917 C 0.12234 0.35322 0.14138
 C918 C 0.12953 0.39071 0.10809
 H919 H 0.09088 0.34299 0.15098
 H920 H 0.16097 0.40106 0.09851
 C921 C 0.37848 0.14487 0.36210
 C922 C 0.37096 0.10593 0.39260
 H923 H 0.40984 0.15719 0.35514
 H924 H 0.33961 0.09356 0.39949
 C925 C 0.12189 0.35790 0.35416
 C926 C 0.12889 0.39382 0.38999
 H927 H 0.09042 0.34931 0.34303
 H928 H 0.16035 0.40229 0.40123
 C929 C 0.12043 0.13971 0.35338
 C930 C 0.12759 0.10412 0.38845
 H931 H 0.08909 0.15025 0.34338
 H932 H 0.15892 0.09373 0.39862
 C933 C 0.37835 0.35646 0.35595
 C934 C 0.37102 0.39528 0.38791
 H935 H 0.40993 0.34640 0.34691
 H936 H 0.33942 0.40534 0.39688
 C937 C 0.50743 -0.02062 0.23390
 C938 C 0.49892 0.01562 0.26738
 H939 H 0.51370 -0.05687 0.24988
 H940 H 0.49307 0.05197 0.25143
 C941 C 0.75243 0.22795 1.01784
 C942 C 0.74914 0.26486 0.98379
 H943 H 0.75463 0.19085 1.00260
 H944 H 0.74682 0.30188 0.99927
 C945 C 0.63085 0.10513 0.10521
 C946 C 0.62296 0.13666 0.14488
 H947 H 0.66233 0.09901 0.09210
 H948 H 0.59148 0.14320 0.15767
 C949 C -0.12097 0.34834 0.13711
 C950 C -0.12852 0.38476 0.10262
 H951 H -0.08946 0.33879 0.14725
 H952 H -0.16004 0.39471 0.09297
 C953 C 0.87229 0.10582 0.10413
 C954 C 0.87977 0.14088 0.14029
 H955 H 0.84077 0.09693 0.09348
 H956 H 0.91128 0.14988 0.15089
 C957 C 0.62199 0.35240 0.14127
 C958 C 0.62883 0.38767 0.10506
 H959 H 0.59062 0.34345 0.15274
 H960 H 0.66020 0.39691 0.09385
 C961 C -0.12277 0.14881 0.36237
 C962 C -0.12968 0.11180 0.39982
 H963 H -0.09129 0.15850 0.35193
 H964 H -0.16101 0.10168 0.41053
 C965 C 0.62157 0.35782 0.35573
 C966 C 0.62801 0.39370 0.39164
 H967 H 0.59024 0.34915 0.34404
 H968 H 0.65935 0.40229 0.40339
 C969 C 0.62170 0.14183 0.35844
 C970 C 0.62895 0.10915 0.39680
 H971 H 0.59036 0.15000 0.34612
 H972 H 0.66028 0.10085 0.40903
 C973 C -0.12074 0.35491 0.35933
 C974 C -0.12771 0.39191 0.39367
 H975 H -0.08927 0.34551 0.34886
 H976 H -0.15919 0.40139 0.40403
 C977 C 0.00145 0.47932 0.23325
 C978 C 0.00284 0.51629 0.26723
 H979 H 0.00040 0.44214 0.24866
 H980 H 0.00377 0.55345 0.25171
 C981 C 0.24571 0.73028 1.01610
 C982 C 0.24764 0.76833 0.98260
 H983 H 0.24519 0.69326 1.00049
 H984 H 0.24838 0.80531 0.99835
 C985 C 0.12776 0.59952 0.11516
 C986 C 0.12034 0.63306 0.15327
 H987 H 0.15923 0.59220 0.10287
 H988 H 0.08884 0.64074 0.16521
 C989 C 0.39726 0.87447 0.12385
 C990 C 0.35550 0.86793 0.11788
 H991 H 0.41284 0.85114 0.15280
 H992 H 0.33961 0.89015 0.08824
 C993 C 0.37748 0.64509 0.14050
 C994 C 0.37062 0.60473 0.11124
 H995 H 0.40885 0.65748 0.14681
 H996 H 0.33922 0.59271 0.10431
 C997 C 0.12479 0.88965 0.10818
 C998 C 0.11548 0.85265 0.14148
 H999 H 0.15658 0.89916 0.09957
 H1000 H 0.08373 0.84329 0.15051
 C1001 C 0.38112 0.65522 0.35670
 C1002 C 0.37311 0.61578 0.38770
 H1003 H 0.41272 0.66565 0.34828
 H1004 H 0.34144 0.60520 0.39545
 C1005 C 0.11928 -0.13542 0.35240
 C1006 C 0.12664 -0.09963 0.38783
 H1007 H 0.08776 -0.14524 0.34279
 H1008 H 0.15816 -0.09030 0.39803
 C1009 C 0.12433 0.64544 0.36350
 C1010 C 0.13167 0.60587 0.39330
 H1011 H 0.09279 0.65715 0.35662
 H1012 H 0.16309 0.59392 0.40045
 C1013 C 0.37731 -0.13276 0.34830
 C1014 C 0.37065 -0.09966 0.38698
 H1015 H 0.40867 -0.14087 0.33606
 H1016 H 0.33931 -0.09166 0.39938
 C1017 C 0.49616 0.48173 0.23320
 C1018 C 0.49770 0.51919 0.26627
 H1019 H 0.49510 0.44468 0.24904
 H1020 H 0.49901 0.55621 0.25038
 C1021 C 0.75243 0.72821 1.01680
 C1022 C 0.75164 0.76616 0.98294
 H1023 H 0.75269 0.69113 1.00134
 H1024 H 0.75129 0.80320 0.99854
 C1025 C 0.62793 0.60380 0.11157
 C1026 C 0.62130 0.63789 0.14917
 H1027 H 0.65928 0.59544 0.09947
 H1028 H 0.58996 0.64666 0.16092
 C1029 C 0.87127 0.88500 0.09743
 C1030 C 0.87943 0.84808 0.13120
 H1031 H 0.83965 0.89505 0.08847
 H1032 H 0.91104 0.83853 0.14081
 C1033 C 0.87189 0.60406 0.10984
 C1034 C 0.87929 0.63954 0.14556
 H1035 H 0.84037 0.59517 0.09917
 H1036 H 0.91080 0.64866 0.15601
 C1037 C 0.63558 0.89091 0.09748
 C1038 C 0.62734 0.85387 0.13525
 H1039 H 0.66721 0.89989 0.08715
 H1040 H 0.59576 0.84530 0.14628
 C1041 C -0.12031 0.65338 0.36690
 C1042 C -0.12751 0.61474 0.39836
 H1043 H -0.08887 0.66438 0.35823
 H1044 H -0.15896 0.60334 0.40634
 C1045 C 0.62154 -0.13550 0.35059
 C1046 C 0.62830 -0.10358 0.39035
 H1047 H 0.59023 -0.14294 0.33784
 H1048 H 0.65960 -0.09647 0.40336
 C1049 C 0.62176 0.64960 0.36111
 C1050 C 0.62906 0.61343 0.39590
 H1051 H 0.59034 0.65915 0.35049
 H1052 H 0.66047 0.60355 0.40617
 C1053 C -0.12151 -0.13872 0.35614
 C1054 C -0.12922 -0.10409 0.39289
 H1055 H -0.08993 -0.14738 0.34543
 H1056 H -0.16080 -0.09563 0.40383
 C1057 C 0.00118 -0.01648 0.76761
 C1058 C 0.00072 0.02186 0.73138
 H1059 H 0.00096 -0.05350 0.75172
 H1060 H 0.00063 0.05910 0.74660
 C1061 C 0.25087 0.23294 0.48358
 C1062 C 0.25211 0.26941 0.51846
 H1063 H 0.24976 0.19569 0.49880
 H1064 H 0.25302 0.30674 0.50347
 C1065 C 0.12811 0.10826 0.61063
 C1066 C 0.12130 0.14445 0.64543
 H1067 H 0.15946 0.09809 0.60033
 H1068 H 0.08993 0.15454 0.65573
 C1069 C 0.37829 0.35940 0.64245
 C1070 C 0.37050 0.39680 0.60848
 H1071 H 0.40991 0.34967 0.65165
 H1072 H 0.33887 0.40637 0.59911
 C1073 C 0.37843 0.14594 0.64303
 C1074 C 0.37097 0.10779 0.61098
 H1075 H 0.40993 0.15665 0.65156
 H1076 H 0.33948 0.09693 0.60260
 C1077 C 0.12103 0.36214 0.64886
 C1078 C 0.12825 0.39814 0.61369
 H1079 H 0.08957 0.35249 0.65916
 H1080 H 0.15972 0.40746 0.60304
 C1081 C 0.37002 0.09954 0.89733
 C1082 C 0.37672 0.13776 0.86332
 H1083 H 0.33863 0.08997 0.90791
 H1084 H 0.40822 0.14715 0.85304
 C1085 C 0.12853 0.39730 0.88708
 C1086 C 0.12101 0.36020 0.85416
 H1087 H 0.15995 0.40806 0.89609
 H1088 H 0.08958 0.34921 0.84548
 C1089 C 0.12741 0.10244 0.89140
 C1090 C 0.12147 0.14088 0.85444
 H1091 H 0.15874 0.09379 0.90344
 H1092 H 0.09029 0.14988 0.84215
 C1093 C 0.37074 0.39423 0.89185
 C1094 C 0.37837 0.35431 0.86283
 H1095 H 0.33932 0.40662 0.89819
 H1096 H 0.40979 0.34190 0.85658
 C1097 C 0.49499 -0.02020 0.76805
 C1098 C 0.49728 0.01696 0.73420
 H1099 H 0.49316 -0.05721 0.75249
 H1100 H 0.49942 0.05395 0.74976
 C1101 C 0.75206 0.23492 0.48394
 C1102 C 0.75026 0.27214 0.51757
 H1103 H 0.75315 0.19788 0.49981
 H1104 H 0.74902 0.30923 0.50191
 C1105 C 0.62822 0.11128 0.60633
 C1106 C 0.62054 0.14677 0.64178
 H1107 H 0.65975 0.10223 0.59571
 H1108 H 0.58900 0.15559 0.65258
 C1109 C -0.12256 0.35885 0.64092
 C1110 C -0.12924 0.39499 0.60574
 H1111 H -0.09124 0.34891 0.65162
 H1112 H -0.16055 0.40486 0.59496
 C1113 C 0.86954 0.11474 0.60426
 C1114 C 0.87676 0.15146 0.63824
 H1115 H 0.83810 0.10451 0.59470
 H1116 H 0.90820 0.16137 0.64821
 C1117 C 0.61904 0.36316 0.64537
 C1118 C 0.62636 0.39679 0.60757
 H1119 H 0.58760 0.35492 0.65719
 H1120 H 0.65781 0.40475 0.59558
 C1121 C 0.87129 0.10854 0.89213
 C1122 C 0.87749 0.14596 0.85822
 H1123 H 0.83998 0.09851 0.90280
 H1124 H 0.90877 0.15596 0.84741
 C1125 C 0.62768 0.39249 0.89453
 C1126 C 0.61970 0.35963 0.85673
 H1127 H 0.65917 0.40058 0.90612
 H1128 H 0.58821 0.35150 0.84520
 C1129 C 0.62531 0.10599 0.89107
 C1130 C 0.61913 0.14405 0.85381
 H1131 H 0.65694 0.09760 0.90203
 H1132 H 0.58781 0.15310 0.84216
 C1133 C 0.87013 0.38940 0.89731
 C1134 C 0.87717 0.35296 0.86328
 H1135 H 0.83879 0.40030 0.90680
 H1136 H 0.90852 0.34224 0.85355
 C1137 C -0.00033 0.48256 0.77008
 C1138 C -0.00005 0.52014 0.73253
 H1139 H -0.00071 0.44534 0.75477
 H1140 H -0.00001 0.55758 0.74713
 C1141 C 0.25265 0.77370 0.48166
 C1142 C 0.25144 0.73554 0.51551
 H1143 H 0.25306 0.81066 0.49741
 H1144 H 0.25083 0.69862 0.49963
 C1145 C 0.12857 0.60328 0.61419
 C1146 C 0.12082 0.63877 0.64947
 H1147 H 0.16010 0.59368 0.60411
 H1148 H 0.08929 0.64861 0.65925
 C1149 C 0.37103 0.89389 0.60794
 C1150 C 0.37824 0.85411 0.63802
 H1151 H 0.33956 0.90520 0.59995
 H1152 H 0.40969 0.84287 0.64618
 C1153 C 0.37722 0.64298 0.64369
 C1154 C 0.36970 0.60691 0.60911
 H1155 H 0.40869 0.65329 0.65300
 H1156 H 0.33822 0.59676 0.59960
 C1157 C 0.12753 0.89775 0.60963
 C1158 C 0.12045 0.85944 0.64203
 H1159 H 0.15899 0.90791 0.59995
 H1160 H 0.08898 0.84921 0.65157
 C1161 C 0.37039 0.60730 0.89432
 C1162 C 0.37750 0.64630 0.86274
 H1163 H 0.33889 0.59666 0.90315
 H1164 H 0.40899 0.65683 0.85375
 C1165 C 0.12726 0.89816 0.88613
 C1166 C 0.12089 0.86140 0.84826
 H1167 H 0.15867 0.90781 0.89678
 H1168 H 0.08962 0.85121 0.83754
 C1169 C 0.12780 0.60531 0.89121
 C1170 C 0.12037 0.64292 0.85782
 H1171 H 0.15934 0.59581 0.90122
 H1172 H 0.08884 0.65250 0.84790
 C1173 C 0.37287 0.88867 0.89488
 C1174 C 0.37896 0.85555 0.85662
 H1175 H 0.34170 0.89754 0.90737
 H1176 H 0.41013 0.84634 0.84445
 C1177 C 0.49738 0.48366 0.76712
 C1178 C 0.49583 0.52022 0.73221
 H1179 H 0.49863 0.44642 0.75211
 H1180 H 0.49478 0.55748 0.74715
 C1181 C 0.75118 0.77230 0.48256
 C1182 C 0.75086 0.73400 0.51611
 H1183 H 0.75127 0.80925 0.49837
 H1184 H 0.75074 0.69709 0.50016
 C1185 C 0.62783 0.60873 0.60713
 C1186 C 0.62067 0.63997 0.64701
 H1187 H 0.65917 0.60134 0.59426
 H1188 H 0.58933 0.64748 0.65979
 C1189 C 0.87086 0.89231 0.60518
 C1190 C 0.87822 0.85347 0.63680
 H1191 H 0.83930 0.90257 0.59617
 H1192 H 0.90975 0.84332 0.64609
 C1193 C 0.87091 0.61052 0.60403
 C1194 C 0.87808 0.64429 0.64128
 H1195 H 0.83954 0.60155 0.59269
 H1196 H 0.90945 0.65320 0.65264
 C1197 C 0.62777 0.89220 0.60647
 C1198 C 0.62056 0.85571 0.64110
 H1199 H 0.65923 0.90141 0.59567
 H1200 H 0.58912 0.84653 0.65199
 C1201 C 0.87127 0.60901 0.89722
 C1202 C 0.87841 0.64638 0.86342
 H1203 H 0.83980 0.59934 0.90742
 H1204 H 0.90987 0.65588 0.85296
 C1205 C 0.62960 0.89530 0.88796
 C1206 C 0.62224 0.85828 0.85075
 H1207 H 0.66119 0.90573 0.89670
 H1208 H 0.59079 0.84784 0.84125
 C1209 C 0.62770 0.60797 0.89594
 C1210 C 0.62072 0.64365 0.86019
 H1211 H 0.65910 0.59909 0.90728
 H1212 H 0.58932 0.65248 0.84877
 C1213 C 0.87103 0.89082 0.89084
 C1214 C 0.87827 0.85511 0.85587
 H1215 H 0.83963 0.90095 0.90097
 H1216 H 0.90967 0.84501 0.84570
   
