data_POSCAR
  _audit_creation_date              2014-09-24
  _audit_creation_method            'ToBaCCo'
  _symmetry_space_group_name_H-M    'P1'
  _symmetry_Int_Tables_number       1
  _symmetry_cell_setting            triclinic
  loop_
  _symmetry_equiv_pos_as_xyz
 x,y,z
_cell_length_a 100.5213
_cell_length_b 100.7304
_cell_length_c 99.7740
_cell_angle_alpha 89.987000
_cell_angle_beta 89.996000
_cell_angle_gamma 89.982300
loop_
  _atom_site_label
  _atom_site_type_symbol
  _atom_site_fract_x
  _atom_site_fract_y
  _atom_site_fract_z
C1 C 0.34919 0.34914 0.33134
 C2 C 0.36052 0.34331 0.32563
 C3 C 0.36614 0.33178 0.33123
 C4 C 0.36034 0.32618 0.34275
 C5 C 0.34902 0.33192 0.34859
 C6 C 0.34340 0.34343 0.34286
 C7 C 0.34350 0.36054 0.32565
 C8 C 0.33204 0.36631 0.33127
 C9 C 0.32636 0.36058 0.34279
 C10 C 0.33194 0.34919 0.34859
 C11 C 0.32615 0.34337 0.35995
 C12 C 0.33163 0.33184 0.36568
 C13 C 0.34311 0.32621 0.35996
 H14 H 0.36501 0.34778 0.31685
 H15 H 0.36449 0.31719 0.34703
 H16 H 0.34803 0.36497 0.31687
 H17 H 0.31741 0.36484 0.34707
 H18 H 0.31740 0.34786 0.36440
 H19 H 0.34730 0.31722 0.36419
 C20 C 0.34959 0.84886 -0.16863
 C21 C 0.36098 0.84309 -0.17433
 C22 C 0.36676 0.83149 -0.16883
 C23 C 0.36079 0.82593 -0.15728
 C24 C 0.34942 0.83163 -0.15149
 C25 C 0.34382 0.84315 -0.15717
 C26 C 0.34385 0.86022 -0.17437
 C27 C 0.33230 0.86612 -0.16886
 C28 C 0.32675 0.86027 -0.15724
 C29 C 0.33238 0.84890 -0.15143
 C30 C 0.32659 0.84306 -0.14007
 C31 C 0.33210 0.83154 -0.13435
 C32 C 0.34357 0.82594 -0.14010
 H33 H 0.36486 0.84739 -0.18346
 H34 H 0.36515 0.81740 -0.15237
 H35 H 0.34880 0.86467 -0.18290
 H36 H 0.31763 0.86408 -0.15295
 H37 H 0.31764 0.84734 -0.13582
 H38 H 0.34797 0.81716 -0.13565
 C39 C 0.84960 0.34878 -0.16863
 C40 C 0.86099 0.34300 -0.17433
 C41 C 0.86675 0.33139 -0.16886
 C42 C 0.86077 0.32582 -0.15731
 C43 C 0.84941 0.33151 -0.15152
 C44 C 0.84382 0.34304 -0.15718
 C45 C 0.84387 0.36016 -0.17434
 C46 C 0.83232 0.36605 -0.16882
 C47 C 0.82675 0.36017 -0.15722
 C48 C 0.83238 0.34879 -0.15143
 C49 C 0.82658 0.34292 -0.14008
 C50 C 0.83208 0.33140 -0.13438
 C51 C 0.84355 0.32580 -0.14014
 H52 H 0.86487 0.34732 -0.18346
 H53 H 0.86513 0.31728 -0.15242
 H54 H 0.84882 0.36462 -0.18286
 H55 H 0.81764 0.36398 -0.15292
 H56 H 0.81763 0.34720 -0.13582
 H57 H 0.84796 0.31701 -0.13571
 C58 C 0.84921 0.84914 0.33152
 C59 C 0.86054 0.84324 0.32587
 C60 C 0.86611 0.83171 0.33151
 C61 C 0.86026 0.82617 0.34303
 C62 C 0.84896 0.83198 0.34882
 C63 C 0.84341 0.84352 0.34305
 C64 C 0.84360 0.86055 0.32577
 C65 C 0.83211 0.86656 0.33128
 C66 C 0.82649 0.86078 0.34291
 C67 C 0.83201 0.84936 0.34875
 C68 C 0.82616 0.84359 0.36011
 C69 C 0.83157 0.83205 0.36589
 C70 C 0.84301 0.82634 0.36019
 H71 H 0.86508 0.84766 0.31708
 H72 H 0.86436 0.81718 0.34734
 H73 H 0.84859 0.86492 0.31724
 H74 H 0.81740 0.86468 0.34718
 H75 H 0.81743 0.84815 0.36454
 H76 H 0.84715 0.81734 0.36446
 C77 C 0.65099 0.65087 0.33124
 C78 C 0.63966 0.65672 0.32555
 C79 C 0.63404 0.66823 0.33117
 C80 C 0.63984 0.67381 0.34269
 C81 C 0.65117 0.66807 0.34851
 C82 C 0.65679 0.65656 0.34276
 C83 C 0.65668 0.63949 0.32552
 C84 C 0.66814 0.63371 0.33113
 C85 C 0.67383 0.63942 0.34264
 C86 C 0.66826 0.65080 0.34847
 C87 C 0.67405 0.65660 0.35983
 C88 C 0.66857 0.66811 0.36559
 C89 C 0.65708 0.67375 0.35988
 H90 H 0.63515 0.65225 0.31677
 H91 H 0.63569 0.68279 0.34698
 H92 H 0.65214 0.63507 0.31674
 H93 H 0.68278 0.63515 0.34691
 H94 H 0.68281 0.65210 0.36426
 H95 H 0.65290 0.68273 0.36413
 C96 C 0.65074 0.15121 -0.16851
 C97 C 0.63937 0.15698 -0.17423
 C98 C 0.63369 0.16849 -0.16867
 C99 C 0.63947 0.17415 -0.15718
 C100 C 0.65081 0.16848 -0.15134
 C101 C 0.65647 0.15695 -0.15701
 C102 C 0.65649 0.13983 -0.17419
 C103 C 0.66803 0.13396 -0.16861
 C104 C 0.67355 0.13985 -0.15699
 C105 C 0.66789 0.15123 -0.15122
 C106 C 0.67365 0.15711 -0.13986
 C107 C 0.66812 0.16864 -0.13419
 C108 C 0.65665 0.17422 -0.13997
 H109 H 0.63509 0.15267 -0.18321
 H110 H 0.63508 0.18293 -0.15273
 H111 H 0.65157 0.13537 -0.18271
 H112 H 0.68266 0.13605 -0.15267
 H113 H 0.68259 0.15285 -0.13558
 H114 H 0.65222 0.18301 -0.13556
 C115 C 0.15083 0.65099 -0.16859
 C116 C 0.13947 0.65667 -0.17443
 C117 C 0.13369 0.66818 -0.16897
 C118 C 0.13937 0.67394 -0.15748
 C119 C 0.15073 0.66839 -0.15155
 C120 C 0.15651 0.65689 -0.15715
 C121 C 0.15667 0.63960 -0.17416
 C122 C 0.16828 0.63391 -0.16856
 C123 C 0.17377 0.63998 -0.15703
 C124 C 0.16802 0.65136 -0.15137
 C125 C 0.17366 0.65732 -0.14000
 C126 C 0.16802 0.66882 -0.13439
 C127 C 0.15651 0.67427 -0.14022
 H128 H 0.13505 0.65207 -0.18318
 H129 H 0.13510 0.68292 -0.15331
 H130 H 0.15240 0.63565 -0.18328
 H131 H 0.18230 0.63567 -0.15204
 H132 H 0.18244 0.65296 -0.13547
 H133 H 0.15220 0.68324 -0.13608
 C134 C 0.15092 0.15061 0.33168
 C135 C 0.13953 0.15630 0.32592
 C136 C 0.13362 0.16784 0.33138
 C137 C 0.13947 0.17345 0.34296
 C138 C 0.15086 0.16786 0.34880
 C139 C 0.15664 0.15643 0.34312
 C140 C 0.15673 0.13922 0.32605
 C141 C 0.16836 0.13350 0.33157
 C142 C 0.17391 0.13952 0.34310
 C143 C 0.16818 0.15087 0.34883
 C144 C 0.17387 0.15677 0.36020
 C145 C 0.16825 0.16824 0.36589
 C146 C 0.15671 0.17370 0.36014
 H147 H 0.13509 0.15132 0.31742
 H148 H 0.13564 0.18257 0.34721
 H149 H 0.15243 0.13531 0.31693
 H150 H 0.18246 0.13519 0.34804
 H151 H 0.18268 0.15240 0.36467
 H152 H 0.15241 0.18265 0.36434
 C153 C 0.65075 0.34911 0.66877
 C154 C 0.63934 0.34343 0.67448
 C155 C 0.63357 0.33200 0.66886
 C156 C 0.63929 0.32633 0.65734
 C157 C 0.65070 0.33191 0.65152
 C158 C 0.65646 0.34335 0.65725
 C159 C 0.65660 0.36042 0.67448
 C160 C 0.66813 0.36603 0.66886
 C161 C 0.67373 0.36025 0.65734
 C162 C 0.66799 0.34896 0.65150
 C163 C 0.67369 0.34307 0.64013
 C164 C 0.66806 0.33162 0.63441
 C165 C 0.65652 0.32614 0.64015
 H166 H 0.63491 0.34795 0.68327
 H167 H 0.63502 0.31741 0.65306
 H168 H 0.65212 0.36490 0.68326
 H169 H 0.68273 0.36440 0.65305
 H170 H 0.68269 0.34726 0.63589
 H171 H 0.65202 0.31741 0.63571
 C172 C 0.65089 0.84923 1.16882
 C173 C 0.63946 0.84359 1.17455
 C174 C 0.63349 0.83211 1.16901
 C175 C 0.63932 0.82654 1.15739
 C176 C 0.65075 0.83208 1.15159
 C177 C 0.65656 0.84347 1.15730
 C178 C 0.65675 0.86055 1.17450
 C179 C 0.66829 0.86614 1.16888
 C180 C 0.67388 0.86033 1.15737
 C181 C 0.66810 0.84904 1.15155
 C182 C 0.67379 0.84314 1.14018
 C183 C 0.66812 0.83170 1.13447
 C184 C 0.65656 0.82627 1.14022
 H185 H 0.63505 0.84855 1.18308
 H186 H 0.63545 0.81746 1.15311
 H187 H 0.65229 0.86506 1.18328
 H188 H 0.68289 0.86445 1.15307
 H189 H 0.68280 0.84729 1.13594
 H190 H 0.65203 0.81756 1.13578
 C191 C 0.15083 0.34882 1.16864
 C192 C 0.13944 0.34300 1.17428
 C193 C 0.13371 0.33141 1.16871
 C194 C 0.13974 0.32592 1.15715
 C195 C 0.15112 0.33165 1.15143
 C196 C 0.15669 0.34313 1.15718
 C197 C 0.15655 0.36015 1.17444
 C198 C 0.16805 0.36591 1.16892
 C199 C 0.17378 0.36023 1.15741
 C200 C 0.16819 0.34889 1.15151
 C201 C 0.17402 0.34312 1.14015
 C202 C 0.16853 0.33163 1.13436
 C203 C 0.15703 0.32601 1.14003
 H204 H 0.13553 0.34727 1.18341
 H205 H 0.13540 0.31741 1.15219
 H206 H 0.15198 0.36457 1.18321
 H207 H 0.18275 0.36449 1.15318
 H208 H 0.18299 0.34742 1.13596
 H209 H 0.15265 0.31725 1.13553
 C210 C 0.15050 0.84889 0.66846
 C211 C 0.13908 0.84324 0.67415
 C212 C 0.13311 0.83177 0.66859
 C213 C 0.13896 0.82622 0.65696
 C214 C 0.15039 0.83180 0.65117
 C215 C 0.15619 0.84317 0.65693
 C216 C 0.15635 0.86020 0.67417
 C217 C 0.16789 0.86582 0.66858
 C218 C 0.17350 0.86005 0.65705
 C219 C 0.16773 0.84877 0.65120
 C220 C 0.17344 0.84290 0.63982
 C221 C 0.16778 0.83148 0.63407
 C222 C 0.15622 0.82602 0.63980
 H223 H 0.13465 0.84817 0.68270
 H224 H 0.13510 0.81716 0.65264
 H225 H 0.15188 0.86469 0.68296
 H226 H 0.18250 0.86419 0.65278
 H227 H 0.18245 0.84708 0.63559
 H228 H 0.15170 0.81732 0.63532
 C229 C 0.34940 0.65119 0.66808
 C230 C 0.36077 0.65710 0.67361
 C231 C 0.36631 0.66857 0.66782
 C232 C 0.36038 0.67404 0.65630
 C233 C 0.34901 0.66822 0.65064
 C234 C 0.34348 0.65676 0.65656
 C235 C 0.34376 0.63987 0.67398
 C236 C 0.33226 0.63402 0.66853
 C237 C 0.32647 0.63960 0.65700
 C238 C 0.33198 0.65093 0.65100
 C239 C 0.32608 0.65660 0.63962
 C240 C 0.33150 0.66806 0.63370
 C241 C 0.34302 0.67377 0.63925
 H242 H 0.36516 0.65294 0.68260
 H243 H 0.36467 0.68278 0.65168
 H244 H 0.34838 0.63554 0.68277
 H245 H 0.31750 0.63528 0.65285
 H246 H 0.31729 0.65205 0.63531
 H247 H 0.34715 0.68271 0.63487
 C248 C 0.34903 0.15098 1.16846
 C249 C 0.36041 0.15677 1.17417
 C250 C 0.36620 0.16835 1.16865
 C251 C 0.36024 0.17389 1.15708
 C252 C 0.34887 0.16820 1.15131
 C253 C 0.34322 0.15674 1.15704
 C254 C 0.34326 0.13965 1.17423
 C255 C 0.33163 0.13384 1.16879
 C256 C 0.32604 0.13975 1.15722
 C257 C 0.33170 0.15109 1.15139
 C258 C 0.32596 0.15688 1.13998
 C259 C 0.33153 0.16832 1.13418
 C260 C 0.34303 0.17389 1.13990
 H261 H 0.36428 0.15247 1.18331
 H262 H 0.36463 0.18239 1.15215
 H263 H 0.34760 0.13581 1.18337
 H264 H 0.31750 0.13535 1.15234
 H265 H 0.31718 0.15243 1.13556
 H266 H 0.34727 0.18283 1.13562
 C267 C 0.84873 0.65054 1.16856
 C268 C 0.86005 0.65629 1.17439
 C269 C 0.86576 0.66782 1.16890
 C270 C 0.86005 0.67353 1.15739
 C271 C 0.84872 0.66792 1.15149
 C272 C 0.84301 0.65639 1.15710
 C273 C 0.84292 0.63917 1.17419
 C274 C 0.83134 0.63341 1.16860
 C275 C 0.82583 0.63940 1.15703
 C276 C 0.83155 0.65078 1.15131
 C277 C 0.82589 0.65667 1.13990
 C278 C 0.83148 0.66818 1.13426
 C279 C 0.84294 0.67371 1.14011
 H280 H 0.86429 0.65194 1.18336
 H281 H 0.86448 0.68232 1.15299
 H282 H 0.84720 0.63527 1.18333
 H283 H 0.81733 0.63504 1.15205
 H284 H 0.81694 0.65246 1.13558
 H285 H 0.84741 0.68250 1.13574
 C286 C 0.84919 0.15068 0.66848
 C287 C 0.86058 0.15631 0.67429
 C288 C 0.86643 0.16775 0.66876
 C289 C 0.86079 0.17350 0.65724
 C290 C 0.84939 0.16800 0.65133
 C291 C 0.84356 0.15655 0.65696
 C292 C 0.84328 0.13936 0.67409
 C293 C 0.83174 0.13384 0.66838
 C294 C 0.82622 0.13972 0.65687
 C295 C 0.83204 0.15103 0.65114
 C296 C 0.82643 0.15698 0.63975
 C297 C 0.83214 0.16844 0.63412
 C298 C 0.84366 0.17386 0.63996
 H299 H 0.86495 0.15172 0.68308
 H300 H 0.86511 0.18243 0.65303
 H301 H 0.84749 0.13501 0.68307
 H302 H 0.81742 0.13543 0.65232
 H303 H 0.81744 0.15285 0.63544
 H304 H 0.84821 0.18260 0.63559
 C305 C 0.34885 0.34979 0.66869
 C306 C 0.34308 0.36117 0.67434
 C307 C 0.33158 0.36684 0.66870
 C308 C 0.32595 0.36104 0.65720
 C309 C 0.33161 0.34967 0.65144
 C310 C 0.34311 0.34401 0.65719
 C311 C 0.36019 0.34402 0.67444
 C312 C 0.36589 0.33252 0.66888
 C313 C 0.36014 0.32686 0.65736
 C314 C 0.34880 0.33252 0.65150
 C315 C 0.34295 0.32675 0.64014
 C316 C 0.33145 0.33230 0.63438
 C317 C 0.32588 0.34380 0.64007
 H318 H 0.34737 0.36545 0.68332
 H319 H 0.31718 0.36543 0.65269
 H320 H 0.36465 0.34854 0.68322
 H321 H 0.36435 0.31789 0.65312
 H322 H 0.34720 0.31778 0.63593
 H323 H 0.31711 0.34824 0.63560
 C324 C 0.34904 0.84950 0.16872
 C325 C 0.34329 0.86088 0.17438
 C326 C 0.33179 0.86657 0.16876
 C327 C 0.32613 0.86079 0.15726
 C328 C 0.33177 0.84940 0.15149
 C329 C 0.34326 0.84373 0.15722
 C330 C 0.36038 0.84371 0.17445
 C331 C 0.36605 0.83220 0.16888
 C332 C 0.36027 0.82655 0.15738
 C333 C 0.34893 0.83223 0.15152
 C334 C 0.34305 0.82647 0.14018
 C335 C 0.33155 0.83204 0.13443
 C336 C 0.32601 0.84355 0.14014
 H337 H 0.34761 0.86516 0.18335
 H338 H 0.31737 0.86519 0.15277
 H339 H 0.36485 0.84822 0.18323
 H340 H 0.36446 0.81757 0.15313
 H341 H 0.34727 0.81749 0.13596
 H342 H 0.31725 0.84800 0.13568
 C343 C 0.84944 0.34948 0.16861
 C344 C 0.84353 0.36082 0.17419
 C345 C 0.83202 0.36637 0.16845
 C346 C 0.82651 0.36049 0.15693
 C347 C 0.83232 0.34915 0.15124
 C348 C 0.84382 0.34361 0.15710
 C349 C 0.86080 0.34383 0.17446
 C350 C 0.86664 0.33236 0.16897
 C351 C 0.86101 0.32661 0.15745
 C352 C 0.84964 0.33213 0.15150
 C353 C 0.84391 0.32627 0.14013
 C354 C 0.83242 0.33171 0.13425
 C355 C 0.82672 0.34320 0.13985
 H356 H 0.84774 0.36518 0.18317
 H357 H 0.81773 0.36479 0.15235
 H358 H 0.86516 0.34842 0.18325
 H359 H 0.86532 0.31766 0.15327
 H360 H 0.84846 0.31751 0.13579
 H361 H 0.81775 0.34734 0.13551
 C362 C 0.84850 0.84955 0.66893
 C363 C 0.84271 0.86092 0.67459
 C364 C 0.83121 0.86657 0.66895
 C365 C 0.82558 0.86077 0.65745
 C366 C 0.83125 0.84941 0.65168
 C367 C 0.84276 0.84376 0.65743
 C368 C 0.85985 0.84379 0.67468
 C369 C 0.86557 0.83230 0.66911
 C370 C 0.85982 0.82664 0.65760
 C371 C 0.84847 0.83228 0.65173
 C372 C 0.84263 0.82651 0.64037
 C373 C 0.83112 0.83205 0.63461
 C374 C 0.82554 0.84354 0.64031
 H375 H 0.84700 0.86520 0.68357
 H376 H 0.81680 0.86516 0.65294
 H377 H 0.86430 0.84831 0.68346
 H378 H 0.86405 0.81768 0.65335
 H379 H 0.84689 0.81755 0.63616
 H380 H 0.81676 0.84797 0.63584
 C381 C 0.65116 0.65036 0.66885
 C382 C 0.65684 0.63899 0.67463
 C383 C 0.66832 0.63320 0.66908
 C384 C 0.67404 0.63886 0.65755
 C385 C 0.66847 0.65023 0.65166
 C386 C 0.65698 0.65600 0.65732
 C387 C 0.63980 0.65621 0.67449
 C388 C 0.63419 0.66770 0.66880
 C389 C 0.64003 0.67324 0.65727
 C390 C 0.65138 0.66748 0.65150
 C391 C 0.65731 0.67312 0.64013
 C392 C 0.66881 0.66747 0.63447
 C393 C 0.67429 0.65598 0.64029
 H394 H 0.65227 0.63461 0.68342
 H395 H 0.68300 0.63458 0.65332
 H396 H 0.63528 0.65179 0.68328
 H397 H 0.63589 0.68220 0.65293
 H398 H 0.65313 0.68208 0.63583
 H399 H 0.68306 0.65147 0.63590
 C400 C 0.65090 0.15049 0.16863
 C401 C 0.65660 0.13910 0.17433
 C402 C 0.66809 0.13337 0.16874
 C403 C 0.67380 0.13911 0.15725
 C404 C 0.66821 0.15050 0.15144
 C405 C 0.65672 0.15622 0.15713
 C406 C 0.63954 0.15629 0.17430
 C407 C 0.63391 0.16781 0.16868
 C408 C 0.63974 0.17343 0.15719
 C409 C 0.65109 0.16773 0.15139
 C410 C 0.65702 0.17346 0.14005
 C411 C 0.66854 0.16786 0.13436
 C412 C 0.67403 0.15634 0.14010
 H413 H 0.65205 0.13465 0.18309
 H414 H 0.68277 0.13488 0.15300
 H415 H 0.63502 0.15180 0.18306
 H416 H 0.63558 0.18241 0.15291
 H417 H 0.65283 0.18244 0.13581
 H418 H 0.68281 0.15187 0.13569
 C419 C 0.15077 0.65044 0.16842
 C420 C 0.15659 0.63905 0.17401
 C421 C 0.16810 0.63345 0.16833
 C422 C 0.17371 0.63933 0.15685
 C423 C 0.16800 0.65072 0.15115
 C424 C 0.15649 0.65630 0.15694
 C425 C 0.13942 0.65613 0.17422
 C426 C 0.13368 0.66765 0.16872
 C427 C 0.13939 0.67339 0.15723
 C428 C 0.15075 0.66780 0.15132
 C429 C 0.15657 0.67366 0.13999
 C430 C 0.16809 0.66818 0.13419
 C431 C 0.17370 0.65666 0.13981
 H432 H 0.15232 0.63470 0.18297
 H433 H 0.18249 0.63499 0.15231
 H434 H 0.13499 0.65155 0.18298
 H435 H 0.13515 0.68237 0.15304
 H436 H 0.15229 0.68264 0.13583
 H437 H 0.18248 0.65228 0.13531
 C438 C 0.15126 0.15017 0.66870
 C439 C 0.15707 0.13880 0.67432
 C440 C 0.16858 0.13318 0.66866
 C441 C 0.17420 0.13904 0.65718
 C442 C 0.16850 0.15041 0.65145
 C443 C 0.15698 0.15601 0.65721
 C444 C 0.13990 0.15589 0.67448
 C445 C 0.13416 0.16739 0.66894
 C446 C 0.13988 0.17310 0.65744
 C447 C 0.15125 0.16750 0.65156
 C448 C 0.15708 0.17332 0.64021
 C449 C 0.16859 0.16783 0.63443
 C450 C 0.17420 0.15633 0.64009
 H451 H 0.15279 0.13447 0.68329
 H452 H 0.18298 0.13469 0.65265
 H453 H 0.13546 0.15133 0.68324
 H454 H 0.13564 0.18207 0.65323
 H455 H 0.15279 0.18229 0.63603
 H456 H 0.18298 0.15194 0.63561
 C457 C 0.34899 0.65072 0.33100
 C458 C 0.34316 0.63939 0.32534
 C459 C 0.33163 0.63378 0.33096
 C460 C 0.32600 0.63961 0.34246
 C461 C 0.33173 0.65094 0.34824
 C462 C 0.34326 0.65654 0.34249
 C463 C 0.36040 0.65639 0.32529
 C464 C 0.36616 0.66786 0.33086
 C465 C 0.36041 0.67356 0.34235
 C466 C 0.34900 0.66801 0.34817
 C467 C 0.34316 0.67382 0.35951
 C468 C 0.33162 0.66835 0.36526
 C469 C 0.32600 0.65687 0.35958
 H470 H 0.34766 0.63487 0.31658
 H471 H 0.31700 0.63547 0.34674
 H472 H 0.36485 0.65184 0.31652
 H473 H 0.36466 0.68251 0.34660
 H474 H 0.34765 0.68257 0.36392
 H475 H 0.31700 0.65270 0.36383
 C476 C 0.34888 0.15031 0.83114
 C477 C 0.34316 0.13893 0.82547
 C478 C 0.33168 0.13321 0.83111
 C479 C 0.32602 0.13897 0.84262
 C480 C 0.33164 0.15036 0.84840
 C481 C 0.34312 0.15606 0.84265
 C482 C 0.36023 0.15609 0.82541
 C483 C 0.36589 0.16761 0.83099
 C484 C 0.36011 0.17324 0.84250
 C485 C 0.34878 0.16756 0.84836
 C486 C 0.34290 0.17330 0.85971
 C487 C 0.33141 0.16773 0.86546
 C488 C 0.32588 0.15621 0.85975
 H489 H 0.34767 0.13447 0.81670
 H490 H 0.31707 0.13475 0.84692
 H491 H 0.36471 0.15159 0.81664
 H492 H 0.36430 0.18222 0.84675
 H493 H 0.34712 0.18228 0.86392
 H494 H 0.31712 0.15176 0.86421
 C495 C 0.84898 0.65058 0.83139
 C496 C 0.84320 0.63920 0.82576
 C497 C 0.83170 0.63356 0.83141
 C498 C 0.82606 0.63937 0.84290
 C499 C 0.83174 0.65074 0.84866
 C500 C 0.84324 0.65638 0.84289
 C501 C 0.86035 0.65629 0.82565
 C502 C 0.86607 0.66779 0.83120
 C503 C 0.86031 0.67349 0.84269
 C504 C 0.84894 0.66789 0.84854
 C505 C 0.84308 0.67369 0.85987
 C506 C 0.83158 0.66818 0.86565
 C507 C 0.82600 0.65666 0.86000
 H508 H 0.84770 0.63469 0.81700
 H509 H 0.81709 0.63520 0.84721
 H510 H 0.86481 0.65174 0.81689
 H511 H 0.86453 0.68246 0.84691
 H512 H 0.84754 0.68247 0.86426
 H513 H 0.81703 0.65245 0.86427
 C514 C 0.84939 0.15085 0.33146
 C515 C 0.84377 0.13949 0.32561
 C516 C 0.83229 0.13364 0.33110
 C517 C 0.82650 0.13925 0.34261
 C518 C 0.83199 0.15061 0.34856
 C519 C 0.84347 0.15645 0.34297
 C520 C 0.86074 0.15677 0.32589
 C521 C 0.86626 0.16827 0.33163
 C522 C 0.86033 0.17376 0.34313
 C523 C 0.84899 0.16794 0.34883
 C524 C 0.84299 0.17351 0.36020
 C525 C 0.83150 0.16780 0.36580
 C526 C 0.82609 0.15631 0.35992
 H527 H 0.84839 0.13515 0.31683
 H528 H 0.81754 0.13492 0.34679
 H529 H 0.86513 0.15258 0.31691
 H530 H 0.86461 0.18253 0.34772
 H531 H 0.84712 0.18248 0.36455
 H532 H 0.81732 0.15175 0.36426
 C533 C 0.65081 0.34930 0.33119
 C534 C 0.65674 0.36063 0.32561
 C535 C 0.66825 0.36616 0.33136
 C536 C 0.67374 0.36026 0.34289
 C537 C 0.66791 0.34894 0.34859
 C538 C 0.65641 0.34342 0.34272
 C539 C 0.63944 0.34367 0.32533
 C540 C 0.63358 0.33222 0.33083
 C541 C 0.63919 0.32647 0.34237
 C542 C 0.65056 0.33196 0.34832
 C543 C 0.65626 0.32610 0.35971
 C544 C 0.66775 0.33152 0.36559
 C545 C 0.67348 0.34298 0.35999
 H546 H 0.65255 0.36499 0.31662
 H547 H 0.68252 0.36455 0.34748
 H548 H 0.63510 0.34826 0.31653
 H549 H 0.63485 0.31753 0.34656
 H550 H 0.65169 0.31736 0.36405
 H551 H 0.68245 0.34711 0.36433
 C552 C 0.65078 0.84958 0.83127
 C553 C 0.65661 0.86095 0.82567
 C554 C 0.66809 0.86657 0.83139
 C555 C 0.67365 0.86073 0.84291
 C556 C 0.66792 0.84937 0.84863
 C557 C 0.65645 0.84375 0.84279
 C558 C 0.63943 0.84388 0.82546
 C559 C 0.63367 0.83239 0.83098
 C560 C 0.63935 0.82667 0.84249
 C561 C 0.65071 0.83225 0.84841
 C562 C 0.65649 0.82643 0.85977
 C563 C 0.66797 0.83192 0.86561
 C564 C 0.67359 0.84343 0.86000
 H565 H 0.65217 0.86547 0.81689
 H566 H 0.68261 0.86489 0.84727
 H567 H 0.63503 0.84845 0.81668
 H568 H 0.63510 0.81770 0.84669
 H569 H 0.65199 0.81765 0.86413
 H570 H 0.68255 0.84762 0.86432
 C571 C 0.15097 0.34964 0.83104
 C572 C 0.15674 0.36101 0.82539
 C573 C 0.16823 0.36668 0.83105
 C574 C 0.17385 0.36089 0.84256
 C575 C 0.16817 0.34953 0.84834
 C576 C 0.15670 0.34386 0.84256
 C577 C 0.13961 0.34390 0.82529
 C578 C 0.13391 0.33240 0.83085
 C579 C 0.13965 0.32673 0.84236
 C580 C 0.15101 0.33236 0.84822
 C581 C 0.15685 0.32658 0.85958
 C582 C 0.16834 0.33212 0.86537
 C583 C 0.17390 0.34364 0.85970
 H584 H 0.15225 0.36550 0.81661
 H585 H 0.18281 0.36508 0.84688
 H586 H 0.13516 0.34843 0.81651
 H587 H 0.13544 0.31776 0.84660
 H588 H 0.15240 0.31780 0.86398
 H589 H 0.18286 0.34787 0.86397
 C590 C 0.15063 0.84950 0.33082
 C591 C 0.15643 0.86085 0.32515
 C592 C 0.16794 0.86650 0.33078
 C593 C 0.17356 0.86071 0.34230
 C594 C 0.16786 0.84937 0.34810
 C595 C 0.15636 0.84373 0.34234
 C596 C 0.13925 0.84378 0.32511
 C597 C 0.13351 0.83231 0.33070
 C598 C 0.13926 0.82664 0.34221
 C599 C 0.15065 0.83225 0.34804
 C600 C 0.15649 0.82647 0.35940
 C601 C 0.16800 0.83198 0.36515
 C602 C 0.17359 0.84347 0.35946
 H603 H 0.15194 0.86534 0.31637
 H604 H 0.18254 0.86488 0.34659
 H605 H 0.13480 0.84831 0.31632
 H606 H 0.13503 0.81769 0.34647
 H607 H 0.15202 0.81771 0.36382
 H608 H 0.18257 0.84768 0.36371
 O609 O 0.23353 0.98743 0.25151
 O610 O 0.25200 1.01337 0.23337
 O611 O 0.25206 0.98750 0.23332
 O612 O 0.23346 1.01330 0.25154
 O613 O 0.24876 1.01330 0.26738
 O614 O 0.26737 0.98750 0.24915
 O615 O 0.26731 1.01338 0.24920
 O616 O 0.24884 0.98743 0.26735
 Cu617 Cu 0.24123 1.00040 0.24085
 Cu618 Cu 0.25960 1.00040 0.25986
 C619 C 0.23804 0.98295 0.26252
 C620 C 0.26280 1.01785 0.23819
 C621 C 0.26287 0.98304 0.23814
 C622 C 0.23794 1.01775 0.26256
 O623 O 0.26725 0.48775 0.74918
 O624 O 0.24873 0.51360 0.76743
 O625 O 0.24878 0.48773 0.76744
 O626 O 0.26723 0.51362 0.74920
 O627 O 0.25187 0.51362 0.73341
 O628 O 0.23342 0.48772 0.75165
 O629 O 0.23338 0.51359 0.75165
 O630 O 0.25189 0.48775 0.73340
 Cu631 Cu 0.25954 0.50068 0.75990
 Cu632 Cu 0.24110 0.50067 0.74095
 C633 C 0.26271 0.48328 0.73818
 C634 C 0.23790 0.51806 0.76265
 C635 C 0.23796 0.48325 0.76265
 C636 C 0.26269 0.51809 0.73820
 O637 O 0.75218 -0.01306 0.26681
 O638 O 0.73367 0.01274 0.24848
 O639 O 0.73374 -0.01313 0.24852
 O640 O 0.75214 0.01282 0.26673
 O641 O 0.76751 0.01281 0.25096
 O642 O 0.74911 -0.01313 0.23275
 O643 O 0.74904 0.01275 0.23271
 O644 O 0.76755 -0.01307 0.25104
 Cu645 Cu 0.74139 -0.00016 0.25922
 Cu646 Cu 0.75985 -0.00016 0.24028
 C647 C 0.76301 -0.01752 0.26204
 C648 C 0.73820 0.01720 0.23748
 C649 C 0.73829 -0.01761 0.23753
 C650 C 0.76296 0.01729 0.26194
 O651 O 0.73331 0.51234 0.74910
 O652 O 0.75180 0.48646 0.76735
 O653 O 0.75169 0.51234 0.76744
 O654 O 0.73340 0.48647 0.74902
 O655 O 0.74883 0.48657 0.73330
 O656 O 0.76712 0.51245 0.75173
 O657 O 0.76723 0.48657 0.75164
 O658 O 0.74874 0.51245 0.73339
 Cu659 Cu 0.74100 0.49939 0.75980
 Cu660 Cu 0.75953 0.49952 0.74094
 C661 C 0.73788 0.51686 0.73814
 C662 C 0.76266 0.48205 0.76260
 C663 C 0.76252 0.51687 0.76272
 C664 C 0.73800 0.48206 0.73802
 O665 O 0.25115 0.48693 0.26727
 O666 O 0.23263 0.51272 0.24891
 O667 O 0.23272 0.48684 0.24897
 O668 O 0.25105 0.51281 0.26722
 O669 O 0.26645 0.51283 0.25148
 O670 O 0.24812 0.48686 0.23323
 O671 O 0.24804 0.51273 0.23317
 O672 O 0.26655 0.48696 0.25153
 Cu673 Cu 0.24034 0.49982 0.25967
 Cu674 Cu 0.25883 0.49985 0.24078
 C675 C 0.26200 0.48250 0.26252
 C676 C 0.23719 0.51718 0.23792
 C677 C 0.23730 0.48236 0.23800
 C678 C 0.26187 0.51730 0.26245
 O679 O 0.75158 1.01343 0.73362
 O680 O 0.73324 0.98759 0.75205
 O681 O 0.73320 1.01346 0.75197
 O682 O 0.75161 0.98756 0.73371
 O683 O 0.76706 0.98761 0.74941
 O684 O 0.74863 1.01353 0.76768
 O685 O 0.74868 0.98765 0.76776
 O686 O 0.76702 1.01349 0.74932
 Cu687 Cu 0.74086 1.00050 0.74127
 Cu688 Cu 0.75939 1.00058 0.76011
 C689 C 0.76242 1.01792 0.73833
 C690 C 0.73784 0.98315 0.76304
 C691 C 0.73778 1.01797 0.76293
 C692 C 0.76246 0.98311 0.73845
 O693 O 0.75160 0.51287 0.23303
 O694 O 0.73322 0.48695 0.25133
 O695 O 0.73318 0.51283 0.25135
 O696 O 0.75164 0.48699 0.23302
 O697 O 0.76705 0.48700 0.24875
 O698 O 0.74859 0.51284 0.26708
 O699 O 0.74863 0.48696 0.26706
 O700 O 0.76701 0.51287 0.24877
 Cu701 Cu 0.74087 0.49991 0.24061
 Cu702 Cu 0.75937 0.49992 0.25949
 C703 C 0.76243 0.51734 0.23779
 C704 C 0.73780 0.48248 0.26231
 C705 C 0.73775 0.51730 0.26233
 C706 C 0.76249 0.48254 0.23777
 O707 O 0.25158 -0.01374 0.76707
 O708 O 0.23308 0.01214 0.74883
 O709 O 0.23317 -0.01374 0.74875
 O710 O 0.25150 0.01214 0.76713
 O711 O 0.26691 0.01222 0.75140
 O712 O 0.24858 -0.01365 0.73302
 O713 O 0.24849 0.01222 0.73309
 O714 O 0.26699 -0.01365 0.75134
 Cu715 Cu 0.24079 -0.00081 0.75952
 Cu716 Cu 0.25929 -0.00071 0.74064
 C717 C 0.26243 -0.01816 0.76231
 C718 C 0.23764 0.01665 0.73786
 C719 C 0.23775 -0.01816 0.73776
 C720 C 0.26233 0.01665 0.76239
 O721 O 0.24917 0.26746 0.98659
 O722 O 0.26742 0.24912 1.01270
 O723 O 0.26737 0.24909 0.98657
 O724 O 0.24923 0.26749 1.01271
 O725 O 0.23363 0.25210 1.01276
 O726 O 0.25176 0.23370 0.98663
 O727 O 0.25181 0.23373 1.01275
 O728 O 0.23357 0.25207 0.98664
 Cu729 Cu 0.25986 0.25983 0.99964
 Cu730 Cu 0.24113 0.24136 0.99970
 C731 C 0.23827 0.26289 0.98211
 C732 C 0.26272 0.23830 1.01723
 C733 C 0.26265 0.23826 0.98210
 C734 C 0.23834 0.26293 1.01725
 O735 O 0.24840 0.76705 0.48651
 O736 O 0.26658 0.74863 0.51261
 O737 O 0.26660 0.74869 0.48649
 O738 O 0.24837 0.76698 0.51264
 O739 O 0.23278 0.75158 0.51258
 O740 O 0.25101 0.73329 0.48644
 O741 O 0.25099 0.73323 0.51256
 O742 O 0.23282 0.75165 0.48646
 Cu743 Cu 0.25905 0.75938 0.49957
 Cu744 Cu 0.24034 0.74089 0.49950
 C745 C 0.23752 0.76249 0.48198
 C746 C 0.26188 0.73779 0.51708
 C747 C 0.26191 0.73787 0.48196
 C748 C 0.23747 0.76239 0.51712
 O749 O 0.25098 0.76754 0.01315
 O750 O 0.23250 0.74949 -0.01298
 O751 O 0.23255 0.74942 0.01314
 O752 O 0.25092 0.76762 -0.01297
 O753 O 0.26633 0.75203 -0.01304
 O754 O 0.24796 0.73383 0.01306
 O755 O 0.24791 0.73391 -0.01305
 O756 O 0.26639 0.75195 0.01308
 Cu757 Cu 0.24020 0.76008 0.00009
 Cu758 Cu 0.25869 0.74137 0.00000
 C759 C 0.26183 0.76282 0.01762
 C760 C 0.23706 0.73863 -0.01753
 C761 C 0.23713 0.73852 0.01760
 C762 C 0.26176 0.76293 -0.01751
 O763 O 0.25131 0.26712 0.51320
 O764 O 0.23290 0.24894 0.48712
 O765 O 0.23295 0.24892 0.51324
 O766 O 0.25128 0.26711 0.48708
 O767 O 0.26674 0.25157 0.48706
 O768 O 0.24842 0.23338 0.51320
 O769 O 0.24837 0.23340 0.48709
 O770 O 0.26677 0.25158 0.51318
 Cu771 Cu 0.24056 0.25958 0.50016
 Cu772 Cu 0.25912 0.24093 0.50013
 C773 C 0.26217 0.26244 0.51769
 C774 C 0.23750 0.23807 0.48260
 C775 C 0.23756 0.23805 0.51773
 C776 C 0.26213 0.26244 0.48256
 O777 O 0.74834 0.76687 0.98688
 O778 O 0.76658 0.74849 1.01297
 O779 O 0.76655 0.74851 0.98685
 O780 O 0.74837 0.76684 1.01301
 O781 O 0.73279 0.75144 1.01302
 O782 O 0.75097 0.73311 0.98686
 O783 O 0.75100 0.73309 1.01298
 O784 O 0.73276 0.75146 0.98689
 Cu785 Cu 0.75902 0.75922 0.99993
 Cu786 Cu 0.74032 0.74073 0.99994
 C787 C 0.73745 0.76229 0.98239
 C788 C 0.76190 0.73766 1.01748
 C789 C 0.76186 0.73769 0.98234
 C790 C 0.73749 0.76226 1.01753
 O791 O 0.73295 0.25143 0.51308
 O792 O 0.75112 0.23306 0.48696
 O793 O 0.75125 0.23317 0.51307
 O794 O 0.73283 0.25133 0.48696
 O795 O 0.74835 0.26681 0.48682
 O796 O 0.76676 0.24864 0.51293
 O797 O 0.76664 0.24853 0.48681
 O798 O 0.74847 0.26691 0.51294
 Cu799 Cu 0.74048 0.24070 0.50003
 Cu800 Cu 0.75911 0.25927 0.49986
 C801 C 0.73761 0.26230 0.51752
 C802 C 0.76197 0.23766 0.48238
 C803 C 0.76214 0.23781 0.51750
 C804 C 0.73746 0.26216 0.48239
 O805 O 0.76705 0.25147 -0.01293
 O806 O 0.74883 0.23317 0.01322
 O807 O 0.74880 0.23317 -0.01290
 O808 O 0.76713 0.25142 0.01318
 O809 O 0.75160 0.26689 0.01324
 O810 O 0.73327 0.24863 -0.01286
 O811 O 0.73330 0.24863 0.01326
 O812 O 0.75152 0.26693 -0.01289
 Cu813 Cu 0.75951 0.24075 0.00014
 Cu814 Cu 0.74086 0.25932 0.00019
 C815 C 0.76238 0.26232 -0.01742
 C816 C 0.73796 0.23778 0.01775
 C817 C 0.73791 0.23779 -0.01738
 C818 C 0.76249 0.26226 0.01771
 O819 O 0.76694 0.75132 0.48705
 O820 O 0.74878 0.73289 0.51314
 O821 O 0.74873 0.73298 0.48702
 O822 O 0.76698 0.75124 0.51317
 O823 O 0.75138 0.76665 0.51324
 O824 O 0.73314 0.74839 0.48710
 O825 O 0.73318 0.74830 0.51322
 O826 O 0.75135 0.76673 0.48712
 Cu827 Cu 0.75942 0.74057 0.50009
 Cu828 Cu 0.74070 0.75906 0.50018
 C829 C 0.76224 0.76216 0.48258
 C830 C 0.73789 0.73746 0.51769
 C831 C 0.73783 0.73758 0.48255
 C832 C 0.76229 0.76206 0.51772
 O833 O 0.98727 0.25166 0.23336
 O834 O 1.01317 0.23309 0.25152
 O835 O 0.98724 0.23319 0.25158
 O836 O 1.01319 0.25156 0.23330
 O837 O 1.01328 0.26686 0.24911
 O838 O 0.98733 0.24849 0.26738
 O839 O 1.01325 0.24839 0.26733
 O840 O 0.98736 0.26696 0.24917
 Cu841 Cu 1.00021 0.24084 0.24086
 Cu842 Cu 1.00031 0.25921 0.25983
 C843 C 0.98284 0.26247 0.23817
 C844 C 1.01768 0.23758 0.26252
 C845 C 0.98280 0.23771 0.26259
 C846 C 1.01772 0.26234 0.23809
 O847 O 0.51258 0.26674 0.74856
 O848 O 0.48667 0.24828 0.76681
 O849 O 0.51260 0.24824 0.76675
 O850 O 0.48666 0.26676 0.74860
 O851 O 0.48661 0.25148 0.73278
 O852 O 0.51256 0.23296 0.75093
 O853 O 0.48663 0.23300 0.75099
 O854 O 0.51254 0.25145 0.73274
 Cu855 Cu 0.49963 0.25904 0.75927
 Cu856 Cu 0.49958 0.24069 0.74027
 C857 C 0.51703 0.26224 0.73754
 C858 C 0.48218 0.23750 0.76201
 C859 C 0.51706 0.23745 0.76193
 C860 C 0.48216 0.26228 0.73760
 O861 O 0.01326 0.25148 0.76684
 O862 O -0.01265 0.23293 0.74870
 O863 O 0.01328 0.23294 0.74871
 O864 O -0.01267 0.25148 0.76682
 O865 O -0.01267 0.26671 0.75094
 O866 O 0.01328 0.24817 0.73282
 O867 O -0.01265 0.24816 0.73281
 O868 O 0.01326 0.26671 0.75096
 Cu869 Cu 0.00030 0.24068 0.75936
 Cu870 Cu 0.00031 0.25896 0.74029
 C871 C 0.01773 0.26225 0.76200
 C872 C -0.01712 0.23739 0.73767
 C873 C 0.01776 0.23740 0.73768
 C874 C -0.01715 0.26225 0.76196
 O875 O 0.51295 0.25141 0.26671
 O876 O 0.48701 0.23284 0.24862
 O877 O 0.51294 0.23295 0.24849
 O878 O 0.48702 0.25128 0.26686
 O879 O 0.48687 0.26660 0.25106
 O880 O 0.51280 0.24827 0.23269
 O881 O 0.48687 0.24816 0.23282
 O882 O 0.51279 0.26673 0.25091
 Cu883 Cu 0.50000 0.24059 0.25925
 Cu884 Cu 0.49981 0.25897 0.24029
 C885 C 0.51734 0.26224 0.26189
 C886 C 0.48246 0.23734 0.23764
 C887 C 0.51735 0.23749 0.23746
 C888 C 0.48247 0.26206 0.26209
 O889 O 1.01261 0.76691 0.74851
 O890 O 0.98677 0.74843 0.76685
 O891 O 1.01270 0.74845 0.76674
 O892 O 0.98668 0.76690 0.74863
 O893 O 0.98662 0.75159 0.73283
 O894 O 1.01265 0.73314 0.75094
 O895 O 0.98672 0.73313 0.75105
 O896 O 1.01255 0.75160 0.73271
 Cu897 Cu 0.99970 0.75920 0.75927
 Cu898 Cu 0.99963 0.74083 0.74030
 C899 C 1.01704 0.76240 0.73749
 C900 C 0.98229 0.73763 0.76207
 C901 C 1.01717 0.73766 0.76192
 C902 C 0.98216 0.76238 0.73765
 O903 O 0.48705 0.74861 0.26706
 O904 O 0.51291 0.76716 0.24883
 O905 O 0.48698 0.76705 0.24881
 O906 O 0.51298 0.74874 0.26710
 O907 O 0.51307 0.73340 0.25132
 O908 O 0.48707 0.75172 0.23303
 O909 O 0.51300 0.75183 0.23305
 O910 O 0.48714 0.73328 0.25128
 Cu911 Cu 0.49997 0.75942 0.25953
 Cu912 Cu 0.50008 0.74102 0.24059
 C913 C 0.48263 0.73779 0.26227
 C914 C 0.51742 0.76265 0.23784
 C915 C 0.48254 0.76251 0.23780
 C916 C 0.51751 0.73795 0.26232
 O917 O -0.01309 0.73227 0.24932
 O918 O 0.01285 0.75090 0.26735
 O919 O -0.01308 0.75076 0.26751
 O920 O 0.01284 0.73240 0.24916
 O921 O 0.01267 0.74768 0.23333
 O922 O -0.01325 0.76603 0.25167
 O923 O 0.01267 0.76617 0.25151
 O924 O -0.01326 0.74754 0.23348
 Cu925 Cu -0.00010 0.74005 0.25992
 Cu926 Cu -0.00031 0.75839 0.24091
 C927 C -0.01765 0.73674 0.23833
 C928 C 0.01723 0.76171 0.26250
 C929 C -0.01764 0.76152 0.26271
 C930 C 0.01723 0.73691 0.23813
 O931 O 0.51313 0.75183 0.76628
 O932 O 0.48723 0.73342 0.74796
 O933 O 0.51316 0.73342 0.74800
 O934 O 0.48721 0.75182 0.76625
 O935 O 0.48721 0.76718 0.75049
 O936 O 0.51318 0.74878 0.73224
 O937 O 0.48725 0.74878 0.73220
 O938 O 0.51314 0.76719 0.75052
 Cu939 Cu 0.50018 0.74108 0.75870
 Cu940 Cu 0.50020 0.75952 0.73978
 C941 C 0.51760 0.76264 0.76152
 C942 C 0.48277 0.73798 0.73696
 C943 C 0.51765 0.73797 0.73702
 C944 C 0.48273 0.76263 0.76148
 C945 C 0.39936 0.31435 0.32684
 C946 C 0.40009 0.31323 0.31288
 C947 C 0.38979 0.31825 0.30492
 C948 C 0.37878 0.32433 0.31088
 C949 C 0.37793 0.32547 0.32491
 C950 C 0.38835 0.32043 0.33283
 C951 C 0.41132 0.30682 0.30669
 C952 C 0.42063 0.30140 0.30139
 C953 C 0.43141 0.29498 0.29506
 C954 C 0.44053 0.28945 0.28955
 C955 C 0.45130 0.28277 0.28286
 C956 C 0.45639 0.28786 0.27085
 C957 C 0.46662 0.28119 0.26415
 C958 C 0.47188 0.26931 0.26936
 C959 C 0.46676 0.26434 0.28150
 C960 C 0.45654 0.27102 0.28818
 H961 H 0.40730 0.31052 0.33310
 H962 H 0.39023 0.31738 0.29411
 H963 H 0.37083 0.32794 0.30453
 H964 H 0.38805 0.32129 0.34365
 H965 H 0.45240 0.29693 0.26663
 H966 H 0.47033 0.28528 0.25483
 H967 H 0.47059 0.25522 0.28578
 H968 H 0.45266 0.26699 0.29746
 C969 C 0.39824 0.82706 0.81136
 C970 C 0.40049 0.81346 0.81285
 C971 C 0.39173 0.80584 0.82050
 C972 C 0.38070 0.81174 0.82660
 C973 C 0.37813 0.82550 0.82516
 C974 C 0.38721 0.83303 0.81742
 C975 C 0.41169 0.80727 0.80638
 C976 C 0.42097 0.80197 0.80092
 C977 C 0.43173 0.79564 0.79445
 C978 C 0.44083 0.79013 0.78889
 C979 C 0.45158 0.78342 0.78218
 C980 C 0.45676 0.77166 0.78750
 C981 C 0.46698 0.76494 0.78083
 C982 C 0.47214 0.76991 0.76872
 C983 C 0.46693 0.78181 0.76350
 C984 C 0.45671 0.78851 0.77020
 H985 H 0.40504 0.83309 0.80553
 H986 H 0.39331 0.79526 0.82162
 H987 H 0.37393 0.80527 0.83191
 H988 H 0.38620 0.84366 0.81634
 H989 H 0.45285 0.76762 0.79677
 H990 H 0.47076 0.75581 0.78512
 H991 H 0.47068 0.78591 0.75421
 H992 H 0.45276 0.79761 0.76598
 C993 C -0.10829 0.30573 0.82048
 C994 C -0.09950 0.31336 0.81286
 C995 C -0.10175 0.32696 0.81137
 C996 C -0.11278 0.33293 0.81741
 C997 C -0.12188 0.32539 0.82513
 C998 C -0.11933 0.31164 0.82656
 C999 C -0.08829 0.30716 0.80643
 C1000 C -0.07899 0.30185 0.80100
 C1001 C -0.06821 0.29549 0.79461
 C1002 C -0.05910 0.28995 0.78910
 C1003 C -0.04833 0.28320 0.78246
 C1004 C -0.04318 0.28819 0.77044
 C1005 C -0.03296 0.28144 0.76382
 C1006 C -0.02774 0.26959 0.76914
 C1007 C -0.03292 0.26471 0.78129
 C1008 C -0.04314 0.27148 0.78789
 H1009 H -0.10672 0.29515 0.82159
 H1010 H -0.09493 0.33299 0.80557
 H1011 H -0.11378 0.34357 0.81635
 H1012 H -0.12611 0.30516 0.83184
 H1013 H -0.04714 0.29725 0.76615
 H1014 H -0.02920 0.28546 0.75449
 H1015 H -0.02913 0.25562 0.78565
 H1016 H -0.04707 0.26751 0.79718
 C1017 C -0.10073 0.81413 0.32725
 C1018 C -0.09997 0.81297 0.31330
 C1019 C -0.11023 0.81800 0.30530
 C1020 C -0.12123 0.82414 0.31121
 C1021 C -0.12212 0.82533 0.32524
 C1022 C -0.11173 0.82027 0.33320
 C1023 C -0.08876 0.80649 0.30715
 C1024 C -0.07945 0.80103 0.30189
 C1025 C -0.06867 0.79457 0.29560
 C1026 C -0.05956 0.78900 0.29011
 C1027 C -0.04880 0.78229 0.28343
 C1028 C -0.04371 0.78735 0.27142
 C1029 C -0.03349 0.78066 0.26472
 C1030 C -0.02823 0.76880 0.26997
 C1031 C -0.03335 0.76385 0.28211
 C1032 C -0.04357 0.77056 0.28879
 H1033 H -0.09283 0.81029 0.33354
 H1034 H -0.10978 0.81710 0.29448
 H1035 H -0.12915 0.82777 0.30483
 H1036 H -0.11206 0.82117 0.34401
 H1037 H -0.04770 0.79642 0.26717
 H1038 H -0.02978 0.78473 0.25540
 H1039 H -0.02952 0.75475 0.28642
 H1040 H -0.04745 0.76655 0.29807
 C1041 C 0.60080 0.68566 0.32685
 C1042 C 0.60005 0.68680 0.31289
 C1043 C 0.61034 0.68179 0.30491
 C1044 C 0.62136 0.67570 0.31084
 C1045 C 0.62224 0.67455 0.32487
 C1046 C 0.61182 0.67958 0.33281
 C1047 C 0.58881 0.69321 0.30672
 C1048 C 0.57949 0.69864 0.30145
 C1049 C 0.56868 0.70505 0.29515
 C1050 C 0.55954 0.71058 0.28966
 C1051 C 0.54875 0.71726 0.28300
 C1052 C 0.54362 0.71216 0.27102
 C1053 C 0.53337 0.71882 0.26435
 C1054 C 0.52813 0.73070 0.26957
 C1055 C 0.53329 0.73569 0.28167
 C1056 C 0.54354 0.72901 0.28833
 H1057 H 0.59288 0.68949 0.33312
 H1058 H 0.60988 0.68266 0.29409
 H1059 H 0.62929 0.67210 0.30447
 H1060 H 0.61214 0.67870 0.34363
 H1061 H 0.54759 0.70308 0.26680
 H1062 H 0.52962 0.71472 0.25505
 H1063 H 0.52948 0.74481 0.28596
 H1064 H 0.54745 0.73305 0.29758
 C1065 C 0.61005 0.19453 0.81759
 C1066 C 0.59965 0.18665 0.81275
 C1067 C 0.60031 0.17283 0.81405
 C1068 C 0.61135 0.16691 0.82013
 C1069 C 0.62188 0.17475 0.82500
 C1070 C 0.62109 0.18863 0.82368
 C1071 C 0.58838 0.19278 0.80635
 C1072 C 0.57904 0.19805 0.80094
 C1073 C 0.56822 0.20435 0.79456
 C1074 C 0.55908 0.20986 0.78906
 C1075 C 0.54828 0.21657 0.78244
 C1076 C 0.54311 0.21154 0.77045
 C1077 C 0.53287 0.21826 0.76383
 C1078 C 0.52766 0.23013 0.76912
 C1079 C 0.53285 0.23504 0.78124
 C1080 C 0.54310 0.22830 0.78784
 H1081 H 0.60967 0.20524 0.81659
 H1082 H 0.59229 0.16664 0.81035
 H1083 H 0.61160 0.15621 0.82114
 H1084 H 0.62912 0.19492 0.82715
 H1085 H 0.54706 0.20248 0.76617
 H1086 H 0.52910 0.21421 0.75452
 H1087 H 0.52907 0.24415 0.78558
 H1088 H 0.54704 0.23230 0.79711
 C1089 C 1.11001 0.68130 0.80452
 C1090 C 1.09965 0.68631 0.81241
 C1091 C 1.10033 0.68528 0.82638
 C1092 C 1.11135 0.67932 0.83245
 C1093 C 1.12185 0.67430 0.82461
 C1094 C 1.12103 0.67533 0.81057
 C1095 C 1.08843 0.69268 0.80615
 C1096 C 1.07912 0.69808 0.80083
 C1097 C 1.06833 0.70450 0.79451
 C1098 C 1.05921 0.71007 0.78904
 C1099 C 1.04842 0.71680 0.78242
 C1100 C 1.04327 0.72856 0.78780
 C1101 C 1.03302 0.73529 0.78120
 C1102 C 1.02779 0.73035 0.76910
 C1103 C 1.03298 0.71847 0.76382
 C1104 C 1.04323 0.71175 0.77045
 H1105 H 1.10961 0.68209 0.79370
 H1106 H 1.09235 0.68911 0.83258
 H1107 H 1.11162 0.67853 0.84327
 H1108 H 1.12903 0.67173 0.80427
 H1109 H 1.04723 0.73256 0.79705
 H1110 H 1.02926 0.74441 0.78552
 H1111 H 1.02918 0.71440 0.75454
 H1112 H 1.04716 0.70267 0.76618
 C1113 C 1.10218 0.18750 0.32681
 C1114 C 1.09984 0.18585 0.31312
 C1115 C 1.10853 0.17812 0.30548
 C1116 C 1.11957 0.17211 0.31147
 C1117 C 1.12222 0.17373 0.32531
 C1118 C 1.11321 0.18154 0.33286
 C1119 C 1.08866 0.19226 0.30684
 C1120 C 1.07939 0.19771 0.30151
 C1121 C 1.06863 0.20418 0.29518
 C1122 C 1.05954 0.20978 0.28970
 C1123 C 1.04880 0.21657 0.28306
 C1124 C 1.04360 0.21155 0.27108
 C1125 C 1.03339 0.21832 0.26444
 C1126 C 1.02826 0.23022 0.26971
 C1127 C 1.03349 0.23514 0.28182
 C1128 C 1.04369 0.22835 0.28844
 H1129 H 1.09544 0.19339 0.33285
 H1130 H 1.10688 0.17687 0.29482
 H1131 H 1.12628 0.16674 0.30497
 H1132 H 1.11428 0.18275 0.34357
 H1133 H 1.04749 0.20245 0.26682
 H1134 H 1.02959 0.21427 0.25515
 H1135 H 1.02976 0.24427 0.28614
 H1136 H 1.04766 0.23233 0.29770
 C1137 C 0.60018 0.31490 0.67321
 C1138 C 0.59945 0.31371 0.68717
 C1139 C 0.60979 0.31862 0.69515
 C1140 C 0.62084 0.32464 0.68920
 C1141 C 0.62170 0.32582 0.67517
 C1142 C 0.61123 0.32091 0.66724
 C1143 C 0.58821 0.30730 0.69333
 C1144 C 0.57889 0.30186 0.69859
 C1145 C 0.56810 0.29541 0.70486
 C1146 C 0.55897 0.28984 0.71032
 C1147 C 0.54820 0.28311 0.71695
 C1148 C 0.54304 0.28814 0.72894
 C1149 C 0.53282 0.28142 0.73559
 C1150 C 0.52762 0.26955 0.73033
 C1151 C 0.53280 0.26462 0.71820
 C1152 C 0.54302 0.27136 0.71157
 H1153 H 0.59222 0.31115 0.66695
 H1154 H 0.60936 0.31770 0.70596
 H1155 H 0.62882 0.32815 0.69556
 H1156 H 0.61153 0.32181 0.65643
 H1157 H 0.54699 0.29721 0.73321
 H1158 H 0.52906 0.28548 0.74490
 H1159 H 0.52902 0.25551 0.71387
 H1160 H 0.54696 0.26737 0.70230
 C1161 C 0.60195 0.81260 0.17348
 C1162 C 0.59963 0.81420 0.18718
 C1163 C 0.60835 0.82184 0.19486
 C1164 C 0.61942 0.82782 0.18890
 C1165 C 0.62206 0.82626 0.17505
 C1166 C 0.61301 0.81854 0.16746
 C1167 C 0.58842 0.80782 0.19343
 C1168 C 0.57912 0.80240 0.19875
 C1169 C 0.56836 0.79596 0.20508
 C1170 C 0.55926 0.79038 0.21057
 C1171 C 0.54851 0.78361 0.21722
 C1172 C 0.54332 0.78866 0.22920
 C1173 C 0.53312 0.78191 0.23586
 C1174 C 0.52798 0.77000 0.23062
 C1175 C 0.53320 0.76506 0.21851
 C1176 C 0.54340 0.77183 0.21187
 H1177 H 0.59518 0.80678 0.16741
 H1178 H 0.60671 0.82304 0.20552
 H1179 H 0.62615 0.83312 0.19543
 H1180 H 0.61408 0.81738 0.15674
 H1181 H 0.54721 0.79777 0.23344
 H1182 H 0.52933 0.78598 0.24515
 H1183 H 0.52947 0.75592 0.21421
 H1184 H 0.54736 0.76783 0.20262
 C1185 C 1.10218 0.32685 0.18840
 C1186 C 1.09996 0.31326 0.18684
 C1187 C 1.10877 0.30568 0.17919
 C1188 C 1.11980 0.31163 0.17314
 C1189 C 1.12233 0.32538 0.17465
 C1190 C 1.11321 0.33287 0.18240
 C1191 C 1.08877 0.30702 0.19326
 C1192 C 1.07949 0.30169 0.19870
 C1193 C 1.06872 0.29533 0.20513
 C1194 C 1.05963 0.28981 0.21068
 C1195 C 1.04887 0.28311 0.21738
 C1196 C 1.04365 0.27138 0.21203
 C1197 C 1.03343 0.26467 0.21870
 C1198 C 1.02831 0.26961 0.23085
 C1199 C 1.03356 0.28147 0.23609
 C1200 C 1.04378 0.28816 0.22940
 H1201 H 1.09535 0.33284 0.19423
 H1202 H 1.10721 0.29510 0.17802
 H1203 H 1.12660 0.30519 0.16784
 H1204 H 1.11420 0.34349 0.18352
 H1205 H 1.04753 0.26737 0.20275
 H1206 H 1.02962 0.25557 0.21440
 H1207 H 1.02985 0.28554 0.24541
 H1208 H 1.04776 0.29723 0.23364
 C1209 C 1.10159 0.81222 0.67299
 C1210 C 1.09926 0.81379 0.68669
 C1211 C 1.10798 0.82141 0.69439
 C1212 C 1.11904 0.82741 0.68846
 C1213 C 1.12169 0.82588 0.67460
 C1214 C 1.11265 0.81818 0.66699
 C1215 C 1.08804 0.80740 0.69292
 C1216 C 1.07875 0.80198 0.69824
 C1217 C 1.06797 0.79555 0.70458
 C1218 C 1.05887 0.78999 0.71008
 C1219 C 1.04812 0.78326 0.71677
 C1220 C 1.04300 0.78832 0.72877
 C1221 C 1.03280 0.78160 0.73546
 C1222 C 1.02760 0.76971 0.73023
 C1223 C 1.03274 0.76477 0.71809
 C1224 C 1.04294 0.77151 0.71142
 H1225 H 1.09483 0.80641 0.66690
 H1226 H 1.10633 0.82259 0.70506
 H1227 H 1.12578 0.83270 0.69500
 H1228 H 1.11373 0.81704 0.65627
 H1229 H 1.04695 0.79740 0.73300
 H1230 H 1.02907 0.78567 0.74478
 H1231 H 1.02896 0.75565 0.71380
 H1232 H 1.04685 0.76750 0.70214
 C1233 C 0.39979 0.67330 0.68480
 C1234 C 0.40036 0.68714 0.68594
 C1235 C 0.38989 0.69491 0.68105
 C1236 C 0.37886 0.68888 0.67508
 C1237 C 0.37815 0.67498 0.67394
 C1238 C 0.38875 0.66725 0.67884
 C1239 C 0.41159 0.69338 0.69229
 C1240 C 0.42090 0.69870 0.69768
 C1241 C 0.43170 0.70504 0.70407
 C1242 C 0.44082 0.71054 0.70959
 C1243 C 0.45160 0.71723 0.71627
 C1244 C 0.45679 0.72899 0.71094
 C1245 C 0.46701 0.73569 0.71761
 C1246 C 0.47218 0.73070 0.72971
 C1247 C 0.46697 0.71881 0.73493
 C1248 C 0.45674 0.71213 0.72825
 H1249 H 0.40785 0.66720 0.68853
 H1250 H 0.39021 0.70563 0.68193
 H1251 H 0.37078 0.69508 0.67158
 H1252 H 0.38856 0.65654 0.67796
 H1253 H 0.45287 0.73303 0.70169
 H1254 H 0.47080 0.74481 0.71332
 H1255 H 0.47072 0.71470 0.74422
 H1256 H 0.45278 0.70304 0.73247
 C1257 C 0.39770 0.17275 0.18842
 C1258 C 0.39998 0.18634 0.18688
 C1259 C 0.39122 0.19396 0.17923
 C1260 C 0.38017 0.18807 0.17316
 C1261 C 0.37758 0.17433 0.17465
 C1262 C 0.38665 0.16679 0.18240
 C1263 C 0.41121 0.19252 0.19329
 C1264 C 0.42053 0.19782 0.19870
 C1265 C 0.43133 0.20416 0.20508
 C1266 C 0.44046 0.20969 0.21058
 C1267 C 0.45124 0.21642 0.21719
 C1268 C 0.45636 0.22818 0.21180
 C1269 C 0.46660 0.23494 0.21838
 C1270 C 0.47186 0.23000 0.23048
 C1271 C 0.46671 0.21811 0.23576
 C1272 C 0.45647 0.21137 0.22915
 H1273 H 0.40450 0.16672 0.19425
 H1274 H 0.39283 0.20454 0.17807
 H1275 H 0.37341 0.19455 0.16785
 H1276 H 0.38563 0.15617 0.18351
 H1277 H 0.45238 0.23219 0.20255
 H1278 H 0.47033 0.24406 0.21405
 H1279 H 0.47053 0.21405 0.24504
 H1280 H 0.45257 0.20228 0.23342
 C1281 C -0.11062 0.69378 0.18281
 C1282 C -0.10024 0.68587 0.18766
 C1283 C -0.10091 0.67205 0.18632
 C1284 C -0.11194 0.66616 0.18019
 C1285 C -0.12244 0.67404 0.17530
 C1286 C -0.12165 0.68792 0.17667
 C1287 C -0.08898 0.69196 0.19409
 C1288 C -0.07964 0.69721 0.19951
 C1289 C -0.06882 0.70351 0.20588
 C1290 C -0.05967 0.70902 0.21136
 C1291 C -0.04887 0.71576 0.21795
 C1292 C -0.04365 0.71075 0.22993
 C1293 C -0.03341 0.71750 0.23651
 C1294 C -0.02826 0.72938 0.23119
 C1295 C -0.03350 0.73428 0.21908
 C1296 C -0.04375 0.72751 0.21252
 H1297 H -0.11023 0.70448 0.18383
 H1298 H -0.09292 0.66584 0.19002
 H1299 H -0.11220 0.65547 0.17915
 H1300 H -0.12965 0.69423 0.17318
 H1301 H -0.04757 0.70168 0.23423
 H1302 H -0.02959 0.71347 0.24581
 H1303 H -0.02977 0.74338 0.21472
 H1304 H -0.04773 0.73148 0.20326
 C1305 C -0.10014 0.18471 0.67333
 C1306 C -0.09948 0.18583 0.68730
 C1307 C -0.10986 0.18091 0.69521
 C1308 C -0.12090 0.17495 0.68919
 C1309 C -0.12171 0.17384 0.67516
 C1310 C -0.11118 0.17875 0.66729
 C1311 C -0.08825 0.19220 0.69353
 C1312 C -0.07895 0.19763 0.69882
 C1313 C -0.06816 0.20407 0.70511
 C1314 C -0.05905 0.20966 0.71057
 C1315 C -0.04828 0.21642 0.71718
 C1316 C -0.04312 0.21143 0.72919
 C1317 C -0.03290 0.21818 0.73581
 C1318 C -0.02771 0.23004 0.73049
 C1319 C -0.03289 0.23492 0.71834
 C1320 C -0.04312 0.22815 0.71175
 H1321 H -0.09215 0.18846 0.66712
 H1322 H -0.10948 0.18178 0.70603
 H1323 H -0.12893 0.17143 0.69550
 H1324 H -0.11144 0.17790 0.65648
 H1325 H -0.04706 0.20237 0.73349
 H1326 H -0.02913 0.21416 0.74513
 H1327 H -0.02913 0.24402 0.71398
 H1328 H -0.04705 0.23211 0.70246
 C1329 C 0.31862 0.39006 0.30501
 C1330 C 0.31369 0.40036 0.31300
 C1331 C 0.31488 0.39963 0.32695
 C1332 C 0.32092 0.38860 0.33292
 C1333 C 0.32585 0.37815 0.32497
 C1334 C 0.32467 0.37903 0.31095
 C1335 C 0.30725 0.41158 0.30685
 C1336 C 0.30178 0.42087 0.30160
 C1337 C 0.29531 0.43164 0.29532
 C1338 C 0.28971 0.44073 0.28986
 C1339 C 0.28295 0.45147 0.28321
 C1340 C 0.27112 0.45657 0.28852
 C1341 C 0.26435 0.46675 0.28187
 C1342 C 0.26934 0.47196 0.26978
 C1343 C 0.28130 0.46684 0.26458
 C1344 C 0.28804 0.45666 0.27126
 H1345 H 0.31770 0.39050 0.29420
 H1346 H 0.31112 0.40756 0.33323
 H1347 H 0.32183 0.38828 0.34373
 H1348 H 0.32819 0.37107 0.30458
 H1349 H 0.26708 0.45261 0.29776
 H1350 H 0.25518 0.47047 0.28614
 H1351 H 0.28541 0.47062 0.25530
 H1352 H 0.29718 0.45277 0.26704
 C1353 C 0.32187 -0.10886 0.80530
 C1354 C 0.31415 -0.10019 0.81297
 C1355 C 0.31256 -0.10252 0.82667
 C1356 C 0.31857 -0.11353 0.83269
 C1357 C 0.32636 -0.12252 0.82510
 C1358 C 0.32792 -0.11987 0.81125
 C1359 C 0.30771 -0.08903 0.80672
 C1360 C 0.30224 -0.07977 0.80140
 C1361 C 0.29575 -0.06904 0.79508
 C1362 C 0.29015 -0.05996 0.78959
 C1363 C 0.28337 -0.04923 0.78293
 C1364 C 0.27155 -0.04414 0.78825
 C1365 C 0.26478 -0.03395 0.78161
 C1366 C 0.26976 -0.02872 0.76953
 C1367 C 0.28172 -0.03384 0.76432
 C1368 C 0.28847 -0.04403 0.77098
 H1369 H 0.32307 -0.10721 0.79463
 H1370 H 0.30668 -0.09580 0.83274
 H1371 H 0.31740 -0.11460 0.84341
 H1372 H 0.33328 -0.12656 0.80473
 H1373 H 0.26751 -0.04811 0.79749
 H1374 H 0.25561 -0.03024 0.78589
 H1375 H 0.28582 -0.03004 0.75504
 H1376 H 0.29761 -0.04792 0.76676
 C1377 C 0.81261 0.39744 0.82679
 C1378 C 0.81422 0.39982 0.81310
 C1379 C 0.82193 0.39116 0.80540
 C1380 C 0.82796 0.38012 0.81133
 C1381 C 0.82639 0.37743 0.82517
 C1382 C 0.81860 0.38641 0.83278
 C1383 C 0.80780 0.41101 0.80688
 C1384 C 0.80235 0.42029 0.80159
 C1385 C 0.79589 0.43106 0.79529
 C1386 C 0.79031 0.44016 0.78982
 C1387 C 0.78356 0.45092 0.78318
 C1388 C 0.78866 0.45613 0.77125
 C1389 C 0.78193 0.46635 0.76460
 C1390 C 0.76998 0.47147 0.76981
 C1391 C 0.76498 0.46623 0.78188
 C1392 C 0.77173 0.45601 0.78851
 H1393 H 0.80674 0.40416 0.83288
 H1394 H 0.82314 0.39284 0.79474
 H1395 H 0.83332 0.37344 0.80479
 H1396 H 0.81743 0.38531 0.84349
 H1397 H 0.79780 0.45225 0.76702
 H1398 H 0.78605 0.47016 0.75533
 H1399 H 0.75581 0.46994 0.78616
 H1400 H 0.76768 0.45203 0.79773
 C1401 C 0.82191 -0.10839 0.30536
 C1402 C 0.81428 -0.09964 0.31301
 C1403 C 0.81265 -0.10192 0.32671
 C1404 C 0.81855 -0.11297 0.33277
 C1405 C 0.82627 -0.12204 0.32521
 C1406 C 0.82786 -0.11944 0.31135
 C1407 C 0.80793 -0.08844 0.30672
 C1408 C 0.80255 -0.07916 0.30136
 C1409 C 0.79615 -0.06840 0.29498
 C1410 C 0.79061 -0.05931 0.28946
 C1411 C 0.78388 -0.04857 0.28277
 C1412 C 0.77209 -0.04340 0.28810
 C1413 C 0.76536 -0.03321 0.28142
 C1414 C 0.77033 -0.02806 0.26930
 C1415 C 0.78225 -0.03326 0.26408
 C1416 C 0.78897 -0.04345 0.27078
 H1417 H 0.82314 -0.10678 0.29469
 H1418 H 0.80682 -0.09513 0.33276
 H1419 H 0.81737 -0.11400 0.34348
 H1420 H 0.83316 -0.12620 0.30485
 H1421 H 0.76806 -0.04730 0.29736
 H1422 H 0.75621 -0.02944 0.28571
 H1423 H 0.78635 -0.02952 0.25478
 H1424 H 0.79808 -0.04739 0.26656
 C1425 C 0.31524 0.60071 0.67336
 C1426 C 0.31416 0.60012 0.68733
 C1427 C 0.31913 0.61052 0.69516
 C1428 C 0.32510 0.62150 0.68906
 C1429 C 0.32617 0.62223 0.67502
 C1430 C 0.32120 0.61169 0.66723
 C1431 C 0.30779 0.58896 0.69364
 C1432 C 0.30236 0.57970 0.69900
 C1433 C 0.29592 0.56897 0.70537
 C1434 C 0.29034 0.55989 0.71088
 C1435 C 0.28359 0.54917 0.71755
 C1436 C 0.28866 0.54402 0.72953
 C1437 C 0.28193 0.53383 0.73621
 C1438 C 0.27001 0.52866 0.73097
 C1439 C 0.26504 0.53384 0.71886
 C1440 C 0.27179 0.54403 0.71221
 H1441 H 0.31144 0.59270 0.66720
 H1442 H 0.31830 0.61019 0.70598
 H1443 H 0.32866 0.62953 0.69531
 H1444 H 0.32202 0.61189 0.65641
 H1445 H 0.29778 0.54794 0.73377
 H1446 H 0.28602 0.53006 0.74550
 H1447 H 0.25589 0.53008 0.71456
 H1448 H 0.26777 0.54796 0.70295
 C1449 C 0.32730 1.10246 0.18867
 C1450 C 0.31369 1.10016 0.18718
 C1451 C 0.30601 1.10889 0.17953
 C1452 C 0.31189 1.11991 0.17342
 C1453 C 0.32567 1.12250 0.17484
 C1454 C 0.33325 1.11347 0.18260
 C1455 C 0.30752 1.08896 0.19363
 C1456 C 0.30223 1.07967 0.19907
 C1457 C 0.29590 1.06890 0.20549
 C1458 C 0.29038 1.05979 0.21101
 C1459 C 0.28366 1.04903 0.21766
 C1460 C 0.27191 1.04384 0.21226
 C1461 C 0.26517 1.03362 0.21888
 C1462 C 0.27011 1.02845 0.23101
 C1463 C 0.28199 1.03366 0.23629
 C1464 C 0.28871 1.04389 0.22965
 H1465 H 0.33337 1.09569 0.19450
 H1466 H 0.29541 1.10727 0.17842
 H1467 H 0.30538 1.12664 0.16811
 H1468 H 0.34390 1.11451 0.18366
 H1469 H 0.26790 1.04776 0.20299
 H1470 H 0.25606 1.02983 0.21454
 H1471 H 0.28606 1.02991 0.24560
 H1472 H 0.29779 1.04785 0.23393
 C1473 C 0.82685 0.60191 0.18826
 C1474 C 0.81324 0.59964 0.18667
 C1475 C 0.80563 0.60841 0.17900
 C1476 C 0.81156 0.61945 0.17298
 C1477 C 0.82532 0.62203 0.17452
 C1478 C 0.83284 0.61295 0.18228
 C1479 C 0.80701 0.58844 0.19306
 C1480 C 0.80170 0.57915 0.19848
 C1481 C 0.79537 0.56837 0.20489
 C1482 C 0.78987 0.55926 0.21042
 C1483 C 0.78318 0.54850 0.21710
 C1484 C 0.77139 0.54332 0.21179
 C1485 C 0.76469 0.53310 0.21845
 C1486 C 0.76970 0.52793 0.23054
 C1487 C 0.78163 0.53313 0.23575
 C1488 C 0.78830 0.54335 0.22906
 H1489 H 0.83287 0.59511 0.19410
 H1490 H 0.79503 0.60681 0.17781
 H1491 H 0.80509 0.62621 0.16766
 H1492 H 0.84349 0.61397 0.18343
 H1493 H 0.76732 0.54725 0.20254
 H1494 H 0.75554 0.52933 0.21417
 H1495 H 0.78575 0.52938 0.24503
 H1496 H 0.79742 0.54730 0.23327
 C1497 C 0.80539 1.11040 0.68186
 C1498 C 0.81318 1.09996 0.68676
 C1499 C 0.82704 1.10050 0.68553
 C1500 C 0.83309 1.11148 0.67949
 C1501 C 0.82534 1.12206 0.67459
 C1502 C 0.81141 1.12137 0.67581
 C1503 C 0.80694 1.08879 0.69320
 C1504 C 0.80163 1.07952 0.69865
 C1505 C 0.79530 1.06878 0.70512
 C1506 C 0.78981 1.05970 0.71071
 C1507 C 0.78313 1.04897 0.71746
 C1508 C 0.78828 1.04388 0.72944
 C1509 C 0.78161 1.03370 0.73618
 C1510 C 0.76968 1.02847 0.73103
 C1511 C 0.76464 1.03359 0.71892
 C1512 C 0.77133 1.04377 0.71220
 H1513 H 0.79465 1.11010 0.68281
 H1514 H 0.83317 1.09246 0.68927
 H1515 H 0.84382 1.11165 0.67855
 H1516 H 0.80519 1.12943 0.67231
 H1517 H 0.79740 1.04785 0.73361
 H1518 H 0.78575 1.02998 0.74547
 H1519 H 0.75548 1.02979 0.71468
 H1520 H 0.76725 1.04765 0.70294
 C1521 C 0.68147 0.60995 0.30484
 C1522 C 0.68639 0.59963 0.31281
 C1523 C 0.68523 0.60036 0.32677
 C1524 C 0.67924 0.61140 0.33275
 C1525 C 0.67431 0.62186 0.32481
 C1526 C 0.67547 0.62099 0.31079
 C1527 C 0.69278 0.58839 0.30665
 C1528 C 0.69820 0.57908 0.30138
 C1529 C 0.70463 0.56829 0.29510
 C1530 C 0.71019 0.55917 0.28963
 C1531 C 0.71691 0.54841 0.28299
 C1532 C 0.72872 0.54327 0.28830
 C1533 C 0.73545 0.53306 0.28165
 C1534 C 0.73045 0.52786 0.26957
 C1535 C 0.71850 0.53302 0.26437
 C1536 C 0.71179 0.54323 0.27104
 H1537 H 0.68236 0.60951 0.29403
 H1538 H 0.68899 0.59241 0.33304
 H1539 H 0.67835 0.61171 0.34356
 H1540 H 0.67194 0.62896 0.30442
 H1541 H 0.73278 0.54723 0.29753
 H1542 H 0.74462 0.52932 0.28592
 H1543 H 0.71438 0.52924 0.25510
 H1544 H 0.70266 0.54714 0.26683
 C1545 C 0.68778 1.10258 0.82710
 C1546 C 0.68622 1.10020 0.81340
 C1547 C 0.67853 1.10884 0.80567
 C1548 C 0.67247 1.11988 0.81157
 C1549 C 0.67399 1.12258 0.82542
 C1550 C 0.68176 1.11362 0.83306
 C1551 C 0.69267 1.08901 0.80721
 C1552 C 0.69813 1.07972 0.80194
 C1553 C 0.70460 1.06896 0.79565
 C1554 C 0.71018 1.05986 0.79019
 C1555 C 0.71692 1.04910 0.78354
 C1556 C 0.71180 1.04389 0.77161
 C1557 C 0.71852 1.03368 0.76496
 C1558 C 0.73048 1.02855 0.77016
 C1559 C 0.73549 1.03379 0.78222
 C1560 C 0.72875 1.04400 0.78885
 H1561 H 0.69364 1.09588 0.83321
 H1562 H 0.67735 1.10716 0.79501
 H1563 H 0.66713 1.12655 0.80500
 H1564 H 0.68290 1.11472 0.84377
 H1565 H 0.70266 1.04778 0.76741
 H1566 H 0.71439 1.02987 0.75570
 H1567 H 0.74467 1.03006 0.78648
 H1568 H 0.73282 1.04797 0.79807
 C1569 C 0.17292 0.60236 0.81192
 C1570 C 0.18655 0.60017 0.81351
 C1571 C 0.19412 0.60900 0.82112
 C1572 C 0.18813 0.62004 0.82709
 C1573 C 0.17435 0.62254 0.82556
 C1574 C 0.16687 0.61339 0.81785
 C1575 C 0.19283 0.58897 0.80716
 C1576 C 0.19821 0.57969 0.80179
 C1577 C 0.20462 0.56894 0.79542
 C1578 C 0.21019 0.55985 0.78992
 C1579 C 0.21695 0.54911 0.78327
 C1580 C 0.22875 0.54398 0.78862
 C1581 C 0.23552 0.53380 0.78198
 C1582 C 0.23057 0.52861 0.76987
 C1583 C 0.21864 0.53377 0.76463
 C1584 C 0.21189 0.54396 0.77129
 H1585 H 0.16694 0.59551 0.80612
 H1586 H 0.20472 0.60746 0.82231
 H1587 H 0.19457 0.62685 0.83237
 H1588 H 0.15622 0.61436 0.81671
 H1589 H 0.23276 0.54792 0.79788
 H1590 H 0.24467 0.53005 0.78629
 H1591 H 0.21456 0.53001 0.75533
 H1592 H 0.20277 0.54787 0.76705
 C1593 C 0.17289 1.10201 0.31193
 C1594 C 0.18652 1.09979 0.31346
 C1595 C 0.19413 1.10860 0.32106
 C1596 C 0.18818 1.11962 0.32709
 C1597 C 0.17440 1.12214 0.32562
 C1598 C 0.16688 1.11303 0.31792
 C1599 C 0.19277 1.08860 0.30707
 C1600 C 0.19813 1.07932 0.30168
 C1601 C 0.20454 1.06857 0.29530
 C1602 C 0.21011 1.05949 0.28980
 C1603 C 0.21690 1.04877 0.28315
 C1604 C 0.22868 1.04364 0.28854
 C1605 C 0.23548 1.03346 0.28191
 C1606 C 0.23057 1.02829 0.26978
 C1607 C 0.21865 1.03344 0.26450
 C1608 C 0.21188 1.04362 0.27115
 H1609 H 0.16688 1.09517 0.30614
 H1610 H 0.20474 1.10705 0.32220
 H1611 H 0.19465 1.12642 0.33236
 H1612 H 0.15622 1.11401 0.31682
 H1613 H 0.23267 1.04757 0.29781
 H1614 H 0.24462 1.02972 0.28624
 H1615 H 0.21461 1.02968 0.25519
 H1616 H 0.20277 1.04753 0.26689
 C1617 C 0.68560 0.39918 0.67323
 C1618 C 0.68675 0.39990 0.68719
 C1619 C 0.68173 0.38962 0.69516
 C1620 C 0.67562 0.37865 0.68920
 C1621 C 0.67446 0.37780 0.67518
 C1622 C 0.67950 0.38820 0.66725
 C1623 C 0.69319 0.41109 0.69337
 C1624 C 0.69863 0.42038 0.69866
 C1625 C 0.70507 0.43113 0.70499
 C1626 C 0.71061 0.44023 0.71050
 C1627 C 0.71730 0.45097 0.71721
 C1628 C 0.71216 0.45608 0.72918
 C1629 C 0.71882 0.46627 0.73590
 C1630 C 0.73075 0.47149 0.73073
 C1631 C 0.73579 0.46636 0.71863
 C1632 C 0.72910 0.45616 0.71193
 H1633 H 0.68943 0.40710 0.66697
 H1634 H 0.68261 0.39005 0.70597
 H1635 H 0.67201 0.37071 0.69556
 H1636 H 0.67861 0.38790 0.65644
 H1637 H 0.70303 0.45212 0.73336
 H1638 H 0.71468 0.47000 0.74518
 H1639 H 0.74495 0.47015 0.71439
 H1640 H 0.73319 0.45226 0.70268
 C1641 C 0.68189 -0.11021 0.19513
 C1642 C 0.68691 -0.09996 0.18714
 C1643 C 0.68578 -0.10071 0.17318
 C1644 C 0.67968 -0.11171 0.16722
 C1645 C 0.67463 -0.12209 0.17517
 C1646 C 0.67578 -0.12121 0.18920
 C1647 C 0.69335 -0.08875 0.19329
 C1648 C 0.69879 -0.07945 0.19855
 C1649 C 0.70523 -0.06867 0.20484
 C1650 C 0.71079 -0.05955 0.21030
 C1651 C 0.71751 -0.04879 0.21695
 C1652 C 0.72928 -0.04362 0.21160
 C1653 C 0.73600 -0.03339 0.21823
 C1654 C 0.73101 -0.02820 0.23032
 C1655 C 0.71910 -0.03340 0.23556
 C1656 C 0.71241 -0.04363 0.22891
 H1657 H 0.68276 -0.10975 0.20594
 H1658 H 0.68962 -0.09281 0.16690
 H1659 H 0.67880 -0.11203 0.15641
 H1660 H 0.67216 -0.12912 0.19557
 H1661 H 0.73333 -0.04755 0.20235
 H1662 H 0.74514 -0.02962 0.21392
 H1663 H 0.71500 -0.02963 0.24485
 H1664 H 0.70330 -0.04757 0.23315
 C1665 C 0.18518 0.39921 0.17346
 C1666 C 0.18626 0.39991 0.18743
 C1667 C 0.18128 0.38957 0.19535
 C1668 C 0.17530 0.37856 0.18934
 C1669 C 0.17422 0.37773 0.17530
 C1670 C 0.17920 0.38820 0.16742
 C1671 C 0.19261 0.41113 0.19366
 C1672 C 0.19800 0.42043 0.19896
 C1673 C 0.20439 0.43122 0.20527
 C1674 C 0.20992 0.44035 0.21075
 C1675 C 0.21660 0.45114 0.21740
 C1676 C 0.21147 0.45631 0.22934
 C1677 C 0.21813 0.46655 0.23600
 C1678 C 0.23005 0.47175 0.23078
 C1679 C 0.23507 0.46655 0.21870
 C1680 C 0.22839 0.45631 0.21207
 H1681 H 0.18898 0.40717 0.16724
 H1682 H 0.18211 0.38998 0.20617
 H1683 H 0.17172 0.37058 0.19566
 H1684 H 0.17838 0.38791 0.15661
 H1685 H 0.20236 0.45236 0.23357
 H1686 H 0.21400 0.47032 0.24527
 H1687 H 0.24422 0.47033 0.21442
 H1688 H 0.23246 0.45237 0.20284
 C1689 C 0.18147 -0.11061 0.69491
 C1690 C 0.18649 -0.10033 0.68695
 C1691 C 0.18536 -0.10104 0.67299
 C1692 C 0.17927 -0.11202 0.66699
 C1693 C 0.17422 -0.12243 0.67491
 C1694 C 0.17537 -0.12159 0.68894
 C1695 C 0.19292 -0.08914 0.69315
 C1696 C 0.19836 -0.07986 0.69845
 C1697 C 0.20479 -0.06910 0.70478
 C1698 C 0.21033 -0.06000 0.71029
 C1699 C 0.21703 -0.04926 0.71699
 C1700 C 0.22882 -0.04407 0.71169
 C1701 C 0.23551 -0.03387 0.71838
 C1702 C 0.23049 -0.02873 0.73048
 C1703 C 0.21857 -0.03394 0.73567
 C1704 C 0.21189 -0.04415 0.72896
 H1705 H 0.18233 -0.11019 0.70572
 H1706 H 0.18920 -0.09312 0.66674
 H1707 H 0.17840 -0.11231 0.65618
 H1708 H 0.17175 -0.12952 0.69529
 H1709 H 0.23289 -0.04797 0.70244
 H1710 H 0.24466 -0.03008 0.71412
 H1711 H 0.21443 -0.03022 0.74496
 H1712 H 0.20278 -0.04810 0.73316
 C1713 C 0.32695 0.31448 0.39914
 C1714 C 0.31308 0.31338 0.39975
 C1715 C 0.30528 0.31839 0.38929
 C1716 C 0.31131 0.32444 0.37825
 C1717 C 0.32524 0.32556 0.37751
 C1718 C 0.33300 0.32052 0.38809
 C1719 C 0.30683 0.30699 0.41102
 C1720 C 0.30149 0.30159 0.42036
 C1721 C 0.29512 0.29521 0.43120
 C1722 C 0.28959 0.28969 0.44036
 C1723 C 0.28289 0.28303 0.45118
 C1724 C 0.27105 0.28824 0.45637
 C1725 C 0.26435 0.28161 0.46666
 C1726 C 0.26939 0.26965 0.47189
 C1727 C 0.28135 0.26454 0.46667
 C1728 C 0.28804 0.27120 0.45638
 H1729 H 0.33308 0.31065 0.40720
 H1730 H 0.29454 0.31754 0.38964
 H1731 H 0.30507 0.32805 0.37018
 H1732 H 0.34374 0.32137 0.38788
 H1733 H 0.26697 0.29739 0.45241
 H1734 H 0.25517 0.28581 0.47046
 H1735 H 0.28551 0.25536 0.47047
 H1736 H 0.29719 0.26707 0.45242
 C1737 C 0.31831 0.80543 -0.11070
 C1738 C 0.31338 0.81328 -0.10026
 C1739 C 0.31466 0.82710 -0.10088
 C1740 C 0.32079 0.83306 -0.11193
 C1741 C 0.32574 0.82525 -0.12250
 C1742 C 0.32445 0.81136 -0.12175
 C1743 C 0.30689 0.80714 -0.08899
 C1744 C 0.30140 0.80188 -0.07965
 C1745 C 0.29492 0.79561 -0.06882
 C1746 C 0.28932 0.79015 -0.05967
 C1747 C 0.28258 0.78351 -0.04885
 C1748 C 0.27077 0.78875 -0.04365
 C1749 C 0.26404 0.78212 -0.03337
 C1750 C 0.26904 0.77013 -0.02817
 C1751 C 0.28099 0.76500 -0.03339
 C1752 C 0.28770 0.77165 -0.04367
 H1753 H 0.31733 0.79472 -0.11035
 H1754 H 0.31090 0.83328 -0.09283
 H1755 H 0.32178 0.84376 -0.11214
 H1756 H 0.32799 0.80509 -0.12982
 H1757 H 0.26671 0.79792 -0.04760
 H1758 H 0.25487 0.78634 -0.02958
 H1759 H 0.28511 0.75580 -0.02961
 H1760 H 0.29683 0.76749 -0.04763
 C1761 C 0.81834 0.30521 -0.11079
 C1762 C 0.81344 0.31304 -0.10030
 C1763 C 0.81469 0.32686 -0.10089
 C1764 C 0.82079 0.33285 -0.11195
 C1765 C 0.82573 0.32507 -0.12255
 C1766 C 0.82445 0.31118 -0.12184
 C1767 C 0.80701 0.30685 -0.08903
 C1768 C 0.80159 0.30155 -0.07967
 C1769 C 0.79518 0.29522 -0.06883
 C1770 C 0.78965 0.28972 -0.05966
 C1771 C 0.78299 0.28303 -0.04882
 C1772 C 0.77114 0.28818 -0.04361
 C1773 C 0.76448 0.28151 -0.03331
 C1774 C 0.76959 0.26957 -0.02810
 C1775 C 0.78157 0.26452 -0.03335
 C1776 C 0.78821 0.27121 -0.04364
 H1777 H 0.81738 0.29451 -0.11046
 H1778 H 0.81095 0.33301 -0.09282
 H1779 H 0.82177 0.34356 -0.11214
 H1780 H 0.82798 0.30493 -0.12992
 H1781 H 0.76700 0.29731 -0.04756
 H1782 H 0.75529 0.28566 -0.02950
 H1783 H 0.78577 0.25535 -0.02957
 H1784 H 0.79736 0.26712 -0.04762
 C1785 C 0.82678 0.81473 0.39936
 C1786 C 0.81290 0.81368 0.39995
 C1787 C 0.80513 0.81874 0.38950
 C1788 C 0.81119 0.82478 0.37846
 C1789 C 0.82513 0.82584 0.37773
 C1790 C 0.83286 0.82077 0.38832
 C1791 C 0.80663 0.80726 0.41118
 C1792 C 0.80130 0.80182 0.42050
 C1793 C 0.79495 0.79536 0.43131
 C1794 C 0.78946 0.78978 0.44045
 C1795 C 0.78281 0.78303 0.45126
 C1796 C 0.77093 0.78812 0.45647
 C1797 C 0.76428 0.78140 0.46674
 C1798 C 0.76944 0.76946 0.47193
 C1799 C 0.78144 0.76448 0.46669
 C1800 C 0.78806 0.77122 0.45642
 H1801 H 0.83289 0.81086 0.40741
 H1802 H 0.79439 0.81793 0.38983
 H1803 H 0.80498 0.82842 0.37039
 H1804 H 0.84360 0.82157 0.38812
 H1805 H 0.76677 0.79725 0.45254
 H1806 H 0.75507 0.78551 0.47055
 H1807 H 0.78567 0.75532 0.47045
 H1808 H 0.79724 0.76718 0.45244
 C1809 C 0.68156 0.30536 0.61076
 C1810 C 0.68657 0.31316 0.60031
 C1811 C 0.68544 0.32700 0.60093
 C1812 C 0.67938 0.33302 0.61199
 C1813 C 0.67434 0.32526 0.62257
 C1814 C 0.67548 0.31136 0.62181
 C1815 C 0.69299 0.30695 0.58905
 C1816 C 0.69841 0.30164 0.57970
 C1817 C 0.70483 0.29530 0.56887
 C1818 C 0.71036 0.28978 0.55971
 C1819 C 0.71702 0.28307 0.54889
 C1820 C 0.72885 0.28823 0.54364
 C1821 C 0.73551 0.28153 0.53335
 C1822 C 0.73041 0.26957 0.52819
 C1823 C 0.71845 0.26452 0.53347
 C1824 C 0.71182 0.27124 0.54375
 H1825 H 0.68242 0.29465 0.61041
 H1826 H 0.68927 0.33313 0.59289
 H1827 H 0.67851 0.34373 0.61221
 H1828 H 0.67187 0.30512 0.62988
 H1829 H 0.73298 0.29737 0.54755
 H1830 H 0.74469 0.28568 0.52951
 H1831 H 0.71426 0.25534 0.52972
 H1832 H 0.70267 0.26715 0.54776
 C1833 C 0.68549 0.82699 1.10100
 C1834 C 0.68655 0.81315 1.10039
 C1835 C 0.68151 0.80537 1.11084
 C1836 C 0.67546 0.81140 1.12189
 C1837 C 0.67438 0.82531 1.12263
 C1838 C 0.67945 0.83304 1.11205
 C1839 C 0.69294 0.80690 1.08912
 C1840 C 0.69834 0.80156 1.07978
 C1841 C 0.70474 0.79521 1.06894
 C1842 C 0.71025 0.78969 1.05977
 C1843 C 0.71691 0.78299 1.04894
 C1844 C 0.71167 0.77120 1.04374
 C1845 C 0.71830 0.76450 1.03344
 C1846 C 0.73028 0.76952 1.02821
 C1847 C 0.73542 0.78144 1.03343
 C1848 C 0.72877 0.78812 1.04373
 H1849 H 0.68934 0.83310 1.09295
 H1850 H 0.68233 0.79465 1.11049
 H1851 H 0.67183 0.80519 1.12996
 H1852 H 0.67862 0.84376 1.11226
 H1853 H 0.70250 0.76713 1.04771
 H1854 H 0.71408 0.75535 1.02965
 H1855 H 0.74462 0.78557 1.02963
 H1856 H 0.73292 0.79723 1.04769
 C1857 C 0.18605 0.32732 1.10091
 C1858 C 0.18730 0.31349 1.10023
 C1859 C 0.18235 0.30560 1.11064
 C1860 C 0.17620 0.31150 1.12170
 C1861 C 0.17492 0.32538 1.12251
 C1862 C 0.17991 0.33324 1.11198
 C1863 C 0.19376 0.30738 1.08893
 C1864 C 0.19921 0.30213 1.07956
 C1865 C 0.20563 0.29585 1.06870
 C1866 C 0.21115 0.29036 1.05952
 C1867 C 0.21780 0.28368 1.04866
 C1868 C 0.21254 0.27190 1.04346
 C1869 C 0.21915 0.26520 1.03316
 C1870 C 0.23115 0.27020 1.02792
 C1871 C 0.23631 0.28211 1.03316
 C1872 C 0.22967 0.28879 1.04346
 H1873 H 0.18983 0.33352 1.09289
 H1874 H 0.18331 0.29490 1.11024
 H1875 H 0.17263 0.30520 1.12973
 H1876 H 0.17894 0.34394 1.11224
 H1877 H 0.20336 0.26785 1.04743
 H1878 H 0.21491 0.25606 1.02936
 H1879 H 0.24552 0.28622 1.02936
 H1880 H 0.23384 0.29789 1.04743
 C1881 C 0.18123 0.80523 0.61039
 C1882 C 0.18628 0.81304 0.59996
 C1883 C 0.18519 0.82688 0.60061
 C1884 C 0.17912 0.83290 0.61167
 C1885 C 0.17406 0.82513 0.62222
 C1886 C 0.17516 0.81122 0.62144
 C1887 C 0.19271 0.80684 0.58870
 C1888 C 0.19815 0.80154 0.57935
 C1889 C 0.20458 0.79522 0.56851
 C1890 C 0.21012 0.78973 0.55935
 C1891 C 0.21681 0.78306 0.54852
 C1892 C 0.22870 0.78819 0.54337
 C1893 C 0.23537 0.78153 0.53307
 C1894 C 0.23024 0.76963 0.52780
 C1895 C 0.21823 0.76461 0.53298
 C1896 C 0.21158 0.77129 0.54327
 H1897 H 0.18207 0.79452 0.61001
 H1898 H 0.18905 0.83302 0.59258
 H1899 H 0.17828 0.84361 0.61191
 H1900 H 0.17152 0.80498 0.62949
 H1901 H 0.23285 0.79729 0.54737
 H1902 H 0.24459 0.78566 0.52931
 H1903 H 0.21401 0.75548 0.52915
 H1904 H 0.20239 0.76722 0.54720
 C1905 C 0.30497 0.68132 0.61016
 C1906 C 0.31270 0.68626 0.59962
 C1907 C 0.32657 0.68512 0.60011
 C1908 C 0.33270 0.67913 0.61115
 C1909 C 0.32502 0.67420 0.62184
 C1910 C 0.31108 0.67533 0.62120
 C1911 C 0.30639 0.69266 0.58839
 C1912 C 0.30103 0.69809 0.57908
 C1913 C 0.29466 0.70455 0.56829
 C1914 C 0.28915 0.71014 0.55916
 C1915 C 0.28248 0.71690 0.54837
 C1916 C 0.28772 0.72872 0.54323
 C1917 C 0.28108 0.73547 0.53297
 C1918 C 0.26909 0.73048 0.52773
 C1919 C 0.26395 0.71854 0.53290
 C1920 C 0.27061 0.71181 0.54316
 H1921 H 0.29423 0.68220 0.60990
 H1922 H 0.33265 0.68889 0.59199
 H1923 H 0.34343 0.67827 0.61128
 H1924 H 0.30491 0.67179 0.62935
 H1925 H 0.29690 0.73276 0.54720
 H1926 H 0.28530 0.74464 0.52922
 H1927 H 0.25474 0.71443 0.52909
 H1928 H 0.26646 0.70267 0.54708
 C1929 C 0.32703 0.18562 1.10066
 C1930 C 0.31318 0.18684 1.10003
 C1931 C 0.30532 0.18191 1.11048
 C1932 C 0.31128 0.17583 1.12155
 C1933 C 0.32520 0.17459 1.12231
 C1934 C 0.33302 0.17954 1.11173
 C1935 C 0.30700 0.19329 1.08876
 C1936 C 0.30173 0.19876 1.07941
 C1937 C 0.29545 0.20522 1.06857
 C1938 C 0.28998 0.21079 1.05941
 C1939 C 0.28333 0.21752 1.04858
 C1940 C 0.27146 0.21241 1.04339
 C1941 C 0.26480 0.21911 1.03311
 C1942 C 0.26994 0.23103 1.02789
 C1943 C 0.28194 0.23603 1.03311
 C1944 C 0.28858 0.22931 1.04339
 H1945 H 0.33321 0.18938 1.09261
 H1946 H 0.29459 0.18286 1.11012
 H1947 H 0.30500 0.17229 1.12962
 H1948 H 0.34375 0.17860 1.11196
 H1949 H 0.26730 0.20329 1.04735
 H1950 H 0.25559 0.21499 1.02932
 H1951 H 0.28616 0.24518 1.02931
 H1952 H 0.29776 0.23336 1.04735
 C1953 C 0.81426 0.67287 1.10072
 C1954 C 0.81304 0.68671 1.10017
 C1955 C 0.81794 0.69448 1.11068
 C1956 C 0.82400 0.68847 1.12173
 C1957 C 0.82523 0.67457 1.12242
 C1958 C 0.82031 0.66683 1.11177
 C1959 C 0.80663 0.69294 1.08890
 C1960 C 0.80120 0.69827 1.07957
 C1961 C 0.79479 0.70463 1.06875
 C1962 C 0.78925 0.71016 1.05960
 C1963 C 0.78256 0.71687 1.04879
 C1964 C 0.78779 0.72867 1.04360
 C1965 C 0.78113 0.73539 1.03333
 C1966 C 0.76913 0.73038 1.02812
 C1967 C 0.76401 0.71845 1.03334
 C1968 C 0.77069 0.71175 1.04361
 H1969 H 0.81051 0.66676 1.09262
 H1970 H 0.81700 0.70519 1.11038
 H1971 H 0.82752 0.69468 1.12985
 H1972 H 0.82125 0.65612 1.11194
 H1973 H 0.79697 0.73273 1.04755
 H1974 H 0.78534 0.74455 1.02954
 H1975 H 0.75480 0.71433 1.02956
 H1976 H 0.76654 0.70263 1.04757
 C1977 C 0.81488 0.17328 0.60061
 C1978 C 0.81377 0.18712 0.60006
 C1979 C 0.81878 0.19486 0.61055
 C1980 C 0.82483 0.18880 0.62159
 C1981 C 0.82593 0.17489 0.62227
 C1982 C 0.82092 0.16719 0.61164
 C1983 C 0.80733 0.19340 0.58884
 C1984 C 0.80187 0.19874 0.57953
 C1985 C 0.79540 0.20508 0.56873
 C1986 C 0.78980 0.21057 0.55960
 C1987 C 0.78304 0.21723 0.54880
 C1988 C 0.78819 0.22904 0.54355
 C1989 C 0.78145 0.23569 0.53329
 C1990 C 0.76945 0.23061 0.52815
 C1991 C 0.76440 0.21867 0.53344
 C1992 C 0.77116 0.21204 0.54370
 H1993 H 0.81105 0.16720 0.59253
 H1994 H 0.81793 0.20558 0.61026
 H1995 H 0.82842 0.19498 0.62969
 H1996 H 0.82176 0.15648 0.61181
 H1997 H 0.79737 0.23315 0.54744
 H1998 H 0.78560 0.24485 0.52944
 H1999 H 0.75519 0.21450 0.52971
 H2000 H 0.76707 0.20291 0.54771
 C2001 C 0.67323 0.68543 0.39907
 C2002 C 0.68710 0.68653 0.39969
 C2003 C 0.69490 0.68153 0.38923
 C2004 C 0.68889 0.67549 0.37818
 C2005 C 0.67495 0.67437 0.37743
 C2006 C 0.66719 0.67939 0.38802
 C2007 C 0.69334 0.69292 0.41096
 C2008 C 0.69866 0.69832 0.42030
 C2009 C 0.70500 0.70472 0.43114
 C2010 C 0.71050 0.71025 0.44031
 C2011 C 0.71718 0.71692 0.45115
 C2012 C 0.72906 0.71179 0.45630
 C2013 C 0.73574 0.71844 0.46659
 C2014 C 0.73060 0.73035 0.47187
 C2015 C 0.71859 0.73537 0.46669
 C2016 C 0.71193 0.72870 0.45639
 H2017 H 0.66709 0.68925 0.40712
 H2018 H 0.70564 0.68238 0.38958
 H2019 H 0.69512 0.67189 0.37011
 H2020 H 0.65645 0.67854 0.38780
 H2021 H 0.73322 0.70269 0.45229
 H2022 H 0.74495 0.71431 0.47035
 H2023 H 0.71437 0.74450 0.47052
 H2024 H 0.70275 0.73277 0.45247
 C2025 C 0.68179 0.19486 -0.11062
 C2026 C 0.68669 0.18706 -0.10012
 C2027 C 0.68546 0.17323 -0.10069
 C2028 C 0.67938 0.16722 -0.11174
 C2029 C 0.67445 0.17499 -0.12236
 C2030 C 0.67571 0.18888 -0.12167
 C2031 C 0.69311 0.19327 -0.08885
 C2032 C 0.69853 0.19858 -0.07951
 C2033 C 0.70495 0.20492 -0.06868
 C2034 C 0.71049 0.21042 -0.05952
 C2035 C 0.71719 0.21710 -0.04871
 C2036 C 0.72905 0.21194 -0.04353
 C2037 C 0.73575 0.21860 -0.03326
 C2038 C 0.73066 0.23055 -0.02803
 C2039 C 0.71867 0.23560 -0.03323
 C2040 C 0.71199 0.22892 -0.04351
 H2041 H 0.68275 0.20557 -0.11031
 H2042 H 0.68920 0.16710 -0.09260
 H2043 H 0.67841 0.15652 -0.11191
 H2044 H 0.67218 0.19511 -0.12977
 H2045 H 0.73317 0.20281 -0.04750
 H2046 H 0.74495 0.21445 -0.02948
 H2047 H 0.71449 0.24477 -0.02944
 H2048 H 0.70283 0.23301 -0.04745
 C2049 C 0.19410 0.68270 -0.11074
 C2050 C 0.18620 0.68768 -0.10035
 C2051 C 0.17235 0.68645 -0.10102
 C2052 C 0.16641 0.68028 -0.11207
 C2053 C 0.17428 0.67526 -0.12258
 C2054 C 0.18820 0.67653 -0.12178
 C2055 C 0.19234 0.69415 -0.08908
 C2056 C 0.19761 0.69960 -0.07973
 C2057 C 0.20393 0.70602 -0.06889
 C2058 C 0.20945 0.71153 -0.05972
 C2059 C 0.21618 0.71816 -0.04889
 C2060 C 0.21108 0.73001 -0.04369
 C2061 C 0.21781 0.73663 -0.03340
 C2062 C 0.22975 0.73147 -0.02819
 C2063 C 0.23474 0.71949 -0.03343
 C2064 C 0.22799 0.71289 -0.04372
 H2065 H 0.20483 0.68365 -0.11034
 H2066 H 0.16613 0.69025 -0.09302
 H2067 H 0.15569 0.67932 -0.11233
 H2068 H 0.19450 0.67294 -0.12979
 H2069 H 0.20195 0.73419 -0.04764
 H2070 H 0.21370 0.74583 -0.02959
 H2071 H 0.24390 0.71525 -0.02965
 H2072 H 0.23204 0.70373 -0.04769
 C2073 C 0.17272 0.18574 0.39930
 C2074 C 0.18658 0.18699 0.39991
 C2075 C 0.19443 0.18206 0.38946
 C2076 C 0.18848 0.17592 0.37842
 C2077 C 0.17456 0.17464 0.37769
 C2078 C 0.16674 0.17960 0.38826
 C2079 C 0.19276 0.19344 0.41117
 C2080 C 0.19806 0.19888 0.42051
 C2081 C 0.20441 0.20529 0.43133
 C2082 C 0.20994 0.21082 0.44048
 C2083 C 0.21667 0.21748 0.45129
 C2084 C 0.22851 0.21227 0.45646
 C2085 C 0.23524 0.21890 0.46672
 C2086 C 0.23021 0.23087 0.47195
 C2087 C 0.21824 0.23598 0.46676
 C2088 C 0.21153 0.22932 0.45649
 H2089 H 0.16655 0.18950 0.40735
 H2090 H 0.20516 0.18303 0.38980
 H2091 H 0.19475 0.17237 0.37036
 H2092 H 0.15602 0.17862 0.38806
 H2093 H 0.23258 0.20312 0.45249
 H2094 H 0.24442 0.21470 0.47050
 H2095 H 0.21410 0.24516 0.47056
 H2096 H 0.20237 0.23345 0.45255
 C2097 C 0.30550 0.39052 0.68228
 C2098 C 0.31340 0.40089 0.68714
 C2099 C 0.32725 0.40020 0.68588
 C2100 C 0.33318 0.38916 0.67983
 C2101 C 0.32532 0.37867 0.67495
 C2102 C 0.31140 0.37949 0.67622
 C2103 C 0.30727 0.41213 0.69355
 C2104 C 0.30202 0.42146 0.69897
 C2105 C 0.29573 0.43226 0.70537
 C2106 C 0.29024 0.44138 0.71089
 C2107 C 0.28355 0.45216 0.71755
 C2108 C 0.28863 0.45728 0.72954
 C2109 C 0.28193 0.46750 0.73620
 C2110 C 0.27002 0.47271 0.73096
 C2111 C 0.26506 0.46756 0.71884
 C2112 C 0.27178 0.45735 0.71220
 H2113 H 0.29477 0.39093 0.68325
 H2114 H 0.33347 0.40818 0.68959
 H2115 H 0.34391 0.38888 0.67886
 H2116 H 0.30509 0.37149 0.67274
 H2117 H 0.29773 0.45332 0.73378
 H2118 H 0.28601 0.47124 0.74550
 H2119 H 0.25592 0.47135 0.71453
 H2120 H 0.26775 0.45343 0.70293
 C2121 C 0.32752 0.89994 0.18595
 C2122 C 0.31368 0.90065 0.18721
 C2123 C 0.30575 0.89029 0.18236
 C2124 C 0.31164 0.87925 0.17630
 C2125 C 0.32555 0.87841 0.17502
 C2126 C 0.33344 0.88889 0.17989
 C2127 C 0.30756 0.91191 0.19361
 C2128 C 0.30231 0.92124 0.19902
 C2129 C 0.29602 0.93204 0.20541
 C2130 C 0.29052 0.94117 0.21091
 C2131 C 0.28380 0.95194 0.21755
 C2132 C 0.27204 0.95712 0.21216
 C2133 C 0.26529 0.96733 0.21879
 C2134 C 0.27022 0.97249 0.23092
 C2135 C 0.28211 0.96729 0.23620
 C2136 C 0.28885 0.95708 0.22955
 H2137 H 0.33375 0.90792 0.18965
 H2138 H 0.29503 0.89071 0.18334
 H2139 H 0.30531 0.87126 0.17283
 H2140 H 0.34416 0.88860 0.17891
 H2141 H 0.26803 0.95320 0.20289
 H2142 H 0.25616 0.97110 0.21446
 H2143 H 0.28617 0.97103 0.24551
 H2144 H 0.29793 0.95312 0.23382
 C2145 C 0.82733 0.39975 0.18550
 C2146 C 0.81347 0.40034 0.18667
 C2147 C 0.80567 0.38990 0.18179
 C2148 C 0.81169 0.37890 0.17579
 C2149 C 0.82563 0.37818 0.17461
 C2150 C 0.83338 0.38875 0.17951
 C2151 C 0.80723 0.41154 0.19304
 C2152 C 0.80190 0.42084 0.19844
 C2153 C 0.79555 0.43160 0.20484
 C2154 C 0.79003 0.44070 0.21037
 C2155 C 0.78332 0.45145 0.21706
 C2156 C 0.77151 0.45661 0.21175
 C2157 C 0.76478 0.46681 0.21842
 C2158 C 0.76979 0.47198 0.23051
 C2159 C 0.78173 0.46680 0.23571
 C2160 C 0.78843 0.45660 0.22902
 H2161 H 0.83346 0.40779 0.18923
 H2162 H 0.79493 0.39023 0.18269
 H2163 H 0.80547 0.37084 0.17229
 H2164 H 0.84411 0.38855 0.17860
 H2165 H 0.76745 0.45268 0.20250
 H2166 H 0.75562 0.47057 0.21415
 H2167 H 0.78584 0.47055 0.24499
 H2168 H 0.79756 0.45266 0.23323
 C2169 C 0.82686 0.89994 0.68613
 C2170 C 0.81301 0.90062 0.68739
 C2171 C 0.80511 0.89025 0.68252
 C2172 C 0.81102 0.87922 0.67646
 C2173 C 0.82494 0.87840 0.67520
 C2174 C 0.83280 0.88890 0.68008
 C2175 C 0.80688 0.91187 0.69379
 C2176 C 0.80163 0.92119 0.69921
 C2177 C 0.79535 0.93200 0.70562
 C2178 C 0.78988 0.94113 0.71115
 C2179 C 0.78321 0.95192 0.71781
 C2180 C 0.77140 0.95709 0.71250
 C2181 C 0.76471 0.96732 0.71915
 C2182 C 0.76974 0.97252 0.73122
 C2183 C 0.78167 0.96733 0.73642
 C2184 C 0.78835 0.95709 0.72975
 H2185 H 0.83307 0.90792 0.68985
 H2186 H 0.79438 0.89066 0.68349
 H2187 H 0.80471 0.87122 0.67298
 H2188 H 0.84352 0.88863 0.67911
 H2189 H 0.76733 0.95314 0.70327
 H2190 H 0.75555 0.97109 0.71488
 H2191 H 0.78581 0.97110 0.74568
 H2192 H 0.79747 0.95315 0.73396
 C2193 C 0.68158 0.60953 0.69550
 C2194 C 0.68652 0.59918 0.68758
 C2195 C 0.68540 0.59987 0.67362
 C2196 C 0.67942 0.61089 0.66758
 C2197 C 0.67447 0.62137 0.67546
 C2198 C 0.67559 0.62055 0.68949
 C2199 C 0.69289 0.58796 0.69381
 C2200 C 0.69830 0.57866 0.69911
 C2201 C 0.70473 0.56788 0.70542
 C2202 C 0.71028 0.55877 0.71089
 C2203 C 0.71701 0.54800 0.71753
 C2204 C 0.72883 0.54289 0.71221
 C2205 C 0.73557 0.53267 0.71884
 C2206 C 0.73057 0.52744 0.73092
 C2207 C 0.71862 0.53258 0.73613
 C2208 C 0.71190 0.54279 0.72947
 H2209 H 0.68244 0.60913 0.70632
 H2210 H 0.68918 0.59190 0.66739
 H2211 H 0.67856 0.61116 0.65677
 H2212 H 0.67205 0.62854 0.69582
 H2213 H 0.73289 0.54686 0.70299
 H2214 H 0.74474 0.52894 0.71457
 H2215 H 0.71450 0.52878 0.74539
 H2216 H 0.70277 0.54669 0.73369
 C2217 C 0.68531 0.10008 0.17308
 C2218 C 0.68645 0.09933 0.18704
 C2219 C 0.68147 0.10961 0.19502
 C2220 C 0.67542 0.12064 0.18908
 C2221 C 0.67428 0.12152 0.17505
 C2222 C 0.67926 0.11110 0.16711
 C2223 C 0.69290 0.08812 0.19320
 C2224 C 0.69837 0.07883 0.19845
 C2225 C 0.70486 0.06807 0.20473
 C2226 C 0.71047 0.05897 0.21018
 C2227 C 0.71724 0.04824 0.21683
 C2228 C 0.71216 0.04306 0.22880
 C2229 C 0.71891 0.03288 0.23546
 C2230 C 0.73086 0.02774 0.23024
 C2231 C 0.73582 0.03294 0.21814
 C2232 C 0.72905 0.04312 0.21149
 H2233 H 0.68911 0.09216 0.16681
 H2234 H 0.68235 0.10916 0.20584
 H2235 H 0.67185 0.12858 0.19545
 H2236 H 0.67839 0.11143 0.15630
 H2237 H 0.70303 0.04696 0.23303
 H2238 H 0.71482 0.02910 0.24475
 H2239 H 0.74498 0.02921 0.21385
 H2240 H 0.73307 0.04708 0.20224
 C2241 C 0.17255 0.60004 0.18539
 C2242 C 0.18641 0.59940 0.18665
 C2243 C 0.19427 0.60980 0.18181
 C2244 C 0.18833 0.62083 0.17578
 C2245 C 0.17441 0.62161 0.17452
 C2246 C 0.16658 0.61107 0.17937
 C2247 C 0.19257 0.58816 0.19306
 C2248 C 0.19784 0.57886 0.19848
 C2249 C 0.20414 0.56808 0.20491
 C2250 C 0.20964 0.55897 0.21046
 C2251 C 0.21634 0.54822 0.21716
 C2252 C 0.22813 0.54305 0.21185
 C2253 C 0.23486 0.53286 0.21853
 C2254 C 0.22987 0.52772 0.23064
 C2255 C 0.21794 0.53291 0.23585
 C2256 C 0.21124 0.54310 0.22914
 H2257 H 0.16637 0.59202 0.18908
 H2258 H 0.20500 0.60943 0.18278
 H2259 H 0.19461 0.62887 0.17232
 H2260 H 0.15586 0.61131 0.17840
 H2261 H 0.23218 0.54695 0.20258
 H2262 H 0.24401 0.52908 0.21425
 H2263 H 0.21384 0.52918 0.24515
 H2264 H 0.20212 0.54706 0.23336
 C2265 C 0.19474 0.10951 0.68214
 C2266 C 0.18686 0.09911 0.68697
 C2267 C 0.17301 0.09977 0.68573
 C2268 C 0.16704 0.11081 0.67972
 C2269 C 0.17488 0.12135 0.67487
 C2270 C 0.18880 0.12056 0.67613
 C2271 C 0.19302 0.08785 0.69334
 C2272 C 0.19829 0.07852 0.69873
 C2273 C 0.20460 0.06772 0.70511
 C2274 C 0.21010 0.05859 0.71062
 C2275 C 0.21681 0.04781 0.71726
 C2276 C 0.21170 0.04262 0.72921
 C2277 C 0.21841 0.03240 0.73586
 C2278 C 0.23034 0.02723 0.73064
 C2279 C 0.23533 0.03243 0.71855
 C2280 C 0.22860 0.04266 0.71192
 H2281 H 0.20547 0.10913 0.68310
 H2282 H 0.16682 0.09176 0.68942
 H2283 H 0.15632 0.11107 0.67876
 H2284 H 0.19509 0.12858 0.67266
 H2285 H 0.20258 0.04655 0.73344
 H2286 H 0.21430 0.02862 0.74514
 H2287 H 0.24448 0.02868 0.71426
 H2288 H 0.23265 0.04661 0.70268
 C2289 C 0.31810 0.61004 0.30477
 C2290 C 0.31309 0.59980 0.31278
 C2291 C 0.31421 0.60059 0.32674
 C2292 C 0.32028 0.61161 0.33267
 C2293 C 0.32533 0.62198 0.32470
 C2294 C 0.32419 0.62105 0.31067
 C2295 C 0.30666 0.58856 0.30665
 C2296 C 0.30123 0.57925 0.30141
 C2297 C 0.29481 0.56845 0.29514
 C2298 C 0.28927 0.55932 0.28968
 C2299 C 0.28258 0.54853 0.28305
 C2300 C 0.27079 0.54336 0.28838
 C2301 C 0.26410 0.53312 0.28175
 C2302 C 0.26912 0.52791 0.26967
 C2303 C 0.28104 0.53311 0.26445
 C2304 C 0.28771 0.54335 0.27110
 H2305 H 0.31724 0.60955 0.29396
 H2306 H 0.31037 0.59271 0.33304
 H2307 H 0.32115 0.61197 0.34348
 H2308 H 0.32780 0.62896 0.30428
 H2309 H 0.26672 0.54731 0.29761
 H2310 H 0.25495 0.52934 0.28603
 H2311 H 0.28518 0.52933 0.25519
 H2312 H 0.29682 0.54730 0.26688
 C2313 C 0.31829 0.10941 0.80490
 C2314 C 0.31337 0.09912 0.81290
 C2315 C 0.31452 0.09989 0.82686
 C2316 C 0.32053 0.11094 0.83280
 C2317 C 0.32548 0.12136 0.82484
 C2318 C 0.32431 0.12046 0.81081
 C2319 C 0.30699 0.08786 0.80677
 C2320 C 0.30160 0.07854 0.80151
 C2321 C 0.29520 0.06773 0.79523
 C2322 C 0.28968 0.05860 0.78976
 C2323 C 0.28302 0.04781 0.78309
 C2324 C 0.27123 0.04262 0.78841
 C2325 C 0.26455 0.03239 0.78174
 C2326 C 0.26958 0.02723 0.76965
 C2327 C 0.28150 0.03245 0.76445
 C2328 C 0.28816 0.04268 0.77114
 H2329 H 0.31741 0.10894 0.79409
 H2330 H 0.31076 0.09196 0.83315
 H2331 H 0.32142 0.11128 0.84361
 H2332 H 0.32785 0.12840 0.80443
 H2333 H 0.26716 0.04653 0.79765
 H2334 H 0.25541 0.02860 0.78601
 H2335 H 0.28563 0.02871 0.75517
 H2336 H 0.29726 0.04664 0.76692
 C2337 C 0.81826 0.60973 0.80525
 C2338 C 0.81331 0.59946 0.81327
 C2339 C 0.81445 0.60027 0.82723
 C2340 C 0.82047 0.61133 0.83315
 C2341 C 0.82544 0.62172 0.82516
 C2342 C 0.82429 0.62078 0.81114
 C2343 C 0.80696 0.58819 0.80715
 C2344 C 0.80158 0.57884 0.80191
 C2345 C 0.79523 0.56801 0.79562
 C2346 C 0.78974 0.55886 0.79014
 C2347 C 0.78311 0.54806 0.78347
 C2348 C 0.77133 0.54284 0.78877
 C2349 C 0.76468 0.53260 0.78209
 C2350 C 0.76974 0.52745 0.77000
 C2351 C 0.78166 0.53270 0.76482
 C2352 C 0.78828 0.54294 0.77152
 H2353 H 0.81739 0.60923 0.79444
 H2354 H 0.81067 0.59237 0.83354
 H2355 H 0.82134 0.61170 0.84396
 H2356 H 0.82785 0.62870 0.80473
 H2357 H 0.76723 0.54674 0.79800
 H2358 H 0.75554 0.52878 0.78634
 H2359 H 0.78581 0.52897 0.75555
 H2360 H 0.79738 0.54693 0.76733
 C2361 C 0.81534 0.10027 0.32645
 C2362 C 0.81425 0.09962 0.31248
 C2363 C 0.81920 0.10999 0.30459
 C2364 C 0.82515 0.12101 0.31064
 C2365 C 0.82622 0.12180 0.32467
 C2366 C 0.82128 0.11129 0.33252
 C2367 C 0.80789 0.08841 0.30623
 C2368 C 0.80249 0.07912 0.30091
 C2369 C 0.79606 0.06835 0.29460
 C2370 C 0.79050 0.05924 0.28913
 C2371 C 0.78378 0.04848 0.28250
 C2372 C 0.78887 0.04330 0.27053
 C2373 C 0.78216 0.03308 0.26389
 C2374 C 0.77025 0.02789 0.26914
 C2375 C 0.76527 0.03309 0.28124
 C2376 C 0.77200 0.04332 0.28786
 H2377 H 0.81156 0.09228 0.33265
 H2378 H 0.81836 0.10961 0.29377
 H2379 H 0.82868 0.12902 0.30434
 H2380 H 0.82210 0.11154 0.34334
 H2381 H 0.79797 0.04724 0.26628
 H2382 H 0.78626 0.02930 0.25461
 H2383 H 0.75613 0.02933 0.28555
 H2384 H 0.76796 0.04726 0.29710
 C2385 C 0.67300 0.39955 0.31434
 C2386 C 0.68687 0.40012 0.31319
 C2387 C 0.69465 0.38966 0.31807
 C2388 C 0.68860 0.37865 0.32404
 C2389 C 0.67467 0.37795 0.32520
 C2390 C 0.66693 0.38854 0.32031
 C2391 C 0.69313 0.41133 0.30686
 C2392 C 0.69847 0.42064 0.30149
 C2393 C 0.70483 0.43142 0.29512
 C2394 C 0.71035 0.44054 0.28962
 C2395 C 0.71704 0.45131 0.28296
 C2396 C 0.72884 0.45647 0.28828
 C2397 C 0.73554 0.46670 0.28163
 C2398 C 0.73053 0.47189 0.26954
 C2399 C 0.71860 0.46670 0.26433
 C2400 C 0.71192 0.45647 0.27100
 H2401 H 0.66689 0.40760 0.31061
 H2402 H 0.70539 0.38997 0.31719
 H2403 H 0.69482 0.37058 0.32755
 H2404 H 0.65620 0.38836 0.32119
 H2405 H 0.73290 0.45254 0.29752
 H2406 H 0.74469 0.47047 0.28591
 H2407 H 0.71447 0.47047 0.25506
 H2408 H 0.70281 0.45253 0.26679
 C2409 C 0.68544 0.89982 0.82734
 C2410 C 0.68666 0.90064 0.81339
 C2411 C 0.68173 0.89040 0.80533
 C2412 C 0.67564 0.87935 0.81117
 C2413 C 0.67440 0.87840 0.82519
 C2414 C 0.67935 0.88877 0.83321
 C2415 C 0.69309 0.91191 0.80732
 C2416 C 0.69852 0.92125 0.80211
 C2417 C 0.70494 0.93206 0.79587
 C2418 C 0.71047 0.94121 0.79042
 C2419 C 0.71714 0.95200 0.78376
 C2420 C 0.71198 0.95716 0.77183
 C2421 C 0.71864 0.96739 0.76514
 C2422 C 0.73058 0.97258 0.77031
 C2423 C 0.73562 0.96739 0.78239
 C2424 C 0.72894 0.95716 0.78905
 H2425 H 0.68920 0.90771 0.83367
 H2426 H 0.68267 0.89091 0.79452
 H2427 H 0.67210 0.87145 0.80474
 H2428 H 0.67841 0.88840 0.84401
 H2429 H 0.70286 0.95322 0.76763
 H2430 H 0.71449 0.97115 0.75587
 H2431 H 0.74479 0.97116 0.78664
 H2432 H 0.73303 0.95322 0.79828
 C2433 C 0.18173 0.39047 0.80487
 C2434 C 0.18666 0.40075 0.81289
 C2435 C 0.18548 0.39996 0.82685
 C2436 C 0.17944 0.38892 0.83277
 C2437 C 0.17448 0.37852 0.82479
 C2438 C 0.17567 0.37943 0.81077
 C2439 C 0.19306 0.41200 0.80677
 C2440 C 0.19848 0.42133 0.80154
 C2441 C 0.20490 0.43214 0.79528
 C2442 C 0.21045 0.44128 0.78984
 C2443 C 0.21715 0.45207 0.78322
 C2444 C 0.22893 0.45723 0.78858
 C2445 C 0.23565 0.46746 0.78196
 C2446 C 0.23067 0.47267 0.76987
 C2447 C 0.21875 0.46748 0.76462
 C2448 C 0.21205 0.45725 0.77126
 H2449 H 0.18263 0.39095 0.79406
 H2450 H 0.18925 0.40787 0.83314
 H2451 H 0.17853 0.38857 0.84358
 H2452 H 0.17213 0.37151 0.80437
 H2453 H 0.23297 0.45328 0.79782
 H2454 H 0.24479 0.47123 0.78626
 H2455 H 0.21465 0.47126 0.75534
 H2456 H 0.20295 0.45332 0.76702
 C2457 C 0.18530 0.89972 0.32655
 C2458 C 0.18646 0.90050 0.31260
 C2459 C 0.18148 0.89025 0.30459
 C2460 C 0.17539 0.87923 0.31049
 C2461 C 0.17422 0.87831 0.32452
 C2462 C 0.17922 0.88870 0.33249
 C2463 C 0.19291 0.91173 0.30647
 C2464 C 0.19837 0.92104 0.30125
 C2465 C 0.20484 0.93183 0.29501
 C2466 C 0.21042 0.94096 0.28959
 C2467 C 0.21716 0.95174 0.28299
 C2468 C 0.21211 0.95693 0.27102
 C2469 C 0.21883 0.96717 0.26441
 C2470 C 0.23073 0.97234 0.26969
 C2471 C 0.23567 0.96713 0.28180
 C2472 C 0.22893 0.95689 0.28839
 H2473 H 0.18910 0.90762 0.33285
 H2474 H 0.18237 0.89072 0.29377
 H2475 H 0.17181 0.87131 0.30410
 H2476 H 0.17832 0.88836 0.34329
 H2477 H 0.20301 0.95301 0.26674
 H2478 H 0.21475 0.97096 0.25512
 H2479 H 0.24480 0.97088 0.28613
 H2480 H 0.23294 0.95293 0.29764
 C2481 C 0.39916 0.31520 0.67332
 C2482 C 0.39987 0.31406 0.68728
 C2483 C 0.38956 0.31907 0.69523
 C2484 C 0.37855 0.32514 0.68925
 C2485 C 0.37771 0.32628 0.67522
 C2486 C 0.38815 0.32126 0.66731
 C2487 C 0.41107 0.30760 0.69347
 C2488 C 0.42036 0.30213 0.69874
 C2489 C 0.43113 0.29564 0.70502
 C2490 C 0.44024 0.29002 0.71047
 C2491 C 0.45100 0.28324 0.71709
 C2492 C 0.45619 0.28826 0.72907
 C2493 C 0.46641 0.28151 0.73570
 C2494 C 0.47156 0.26962 0.73042
 C2495 C 0.46634 0.26471 0.71831
 C2496 C 0.45612 0.27148 0.71170
 H2497 H 0.40710 0.31137 0.66707
 H2498 H 0.38998 0.31820 0.70604
 H2499 H 0.37059 0.32874 0.69560
 H2500 H 0.38786 0.32213 0.65650
 H2501 H 0.45228 0.29735 0.73334
 H2502 H 0.47020 0.28555 0.74500
 H2503 H 0.47008 0.25559 0.71397
 H2504 H 0.45216 0.26750 0.70244
 C2505 C 0.39932 0.81486 0.17329
 C2506 C 0.40005 0.81375 0.18725
 C2507 C 0.38975 0.81876 0.19521
 C2508 C 0.37873 0.82482 0.18924
 C2509 C 0.37786 0.82594 0.17521
 C2510 C 0.38830 0.82091 0.16729
 C2511 C 0.41128 0.80733 0.19343
 C2512 C 0.42059 0.80190 0.19871
 C2513 C 0.43139 0.79547 0.20501
 C2514 C 0.44052 0.78992 0.21049
 C2515 C 0.45131 0.78323 0.21715
 C2516 C 0.45645 0.78831 0.22913
 C2517 C 0.46669 0.78164 0.23580
 C2518 C 0.47193 0.76976 0.23057
 C2519 C 0.46676 0.76478 0.21846
 C2520 C 0.45651 0.77148 0.21181
 H2521 H 0.40725 0.81103 0.16703
 H2522 H 0.39019 0.81790 0.20602
 H2523 H 0.37077 0.82842 0.19560
 H2524 H 0.38799 0.82177 0.15648
 H2525 H 0.45248 0.79739 0.23336
 H2526 H 0.47044 0.78574 0.24509
 H2527 H 0.47056 0.75567 0.21417
 H2528 H 0.45259 0.76744 0.20256
 C2529 C 0.89025 0.31916 0.19551
 C2530 C 0.90064 0.31420 0.18763
 C2531 C 0.90001 0.31530 0.17366
 C2532 C 0.88900 0.32128 0.16758
 C2533 C 0.87847 0.32624 0.17541
 C2534 C 0.87924 0.32515 0.18945
 C2535 C 0.91183 0.30779 0.19390
 C2536 C 0.92111 0.30235 0.19922
 C2537 C 0.93187 0.29588 0.20554
 C2538 C 0.94097 0.29027 0.21101
 C2539 C 0.95172 0.28348 0.21764
 C2540 C 0.95682 0.27171 0.21226
 C2541 C 0.96703 0.26492 0.21888
 C2542 C 0.97226 0.26983 0.23098
 C2543 C 0.96713 0.28174 0.23625
 C2544 C 0.95693 0.28851 0.22962
 H2545 H 0.89061 0.31831 0.20633
 H2546 H 0.90801 0.31150 0.16747
 H2547 H 0.88877 0.32212 0.15676
 H2548 H 0.87121 0.32871 0.19574
 H2549 H 0.95285 0.26772 0.20301
 H2550 H 0.97075 0.25578 0.21455
 H2551 H 0.97094 0.28579 0.24554
 H2552 H 0.95304 0.29761 0.23388
 C2553 C 0.89888 0.81505 0.67351
 C2554 C 0.89961 0.81392 0.68747
 C2555 C 0.88930 0.81890 0.69544
 C2556 C 0.87827 0.82495 0.68947
 C2557 C 0.87740 0.82608 0.67544
 C2558 C 0.88785 0.82109 0.66752
 C2559 C 0.91084 0.80749 0.69365
 C2560 C 0.92016 0.80204 0.69891
 C2561 C 0.93096 0.79558 0.70517
 C2562 C 0.94009 0.79000 0.71060
 C2563 C 0.95089 0.78325 0.71720
 C2564 C 0.95611 0.78830 0.72916
 C2565 C 0.96636 0.78158 0.73576
 C2566 C 0.97153 0.76969 0.73048
 C2567 C 0.96628 0.76475 0.71839
 C2568 C 0.95602 0.77150 0.71181
 H2569 H 0.90682 0.81124 0.66725
 H2570 H 0.88973 0.81803 0.70625
 H2571 H 0.87030 0.82853 0.69583
 H2572 H 0.88755 0.82195 0.65671
 H2573 H 0.95219 0.79739 0.73343
 H2574 H 0.97018 0.78565 0.74504
 H2575 H 0.97003 0.75563 0.71406
 H2576 H 0.95204 0.76749 0.70256
 C2577 C 0.60996 0.31903 0.30432
 C2578 C 0.59957 0.31408 0.31220
 C2579 C 0.60019 0.31522 0.32616
 C2580 C 0.61120 0.32120 0.33224
 C2581 C 0.62174 0.32613 0.32440
 C2582 C 0.62097 0.32502 0.31036
 C2583 C 0.58838 0.30767 0.30595
 C2584 C 0.57910 0.30220 0.30065
 C2585 C 0.56834 0.29571 0.29436
 C2586 C 0.55924 0.29008 0.28892
 C2587 C 0.54849 0.28328 0.28232
 C2588 C 0.54344 0.27149 0.28771
 C2589 C 0.53322 0.26468 0.28113
 C2590 C 0.52793 0.26960 0.26905
 C2591 C 0.53302 0.28152 0.26377
 C2592 C 0.54323 0.28830 0.27037
 H2593 H 0.60961 0.31815 0.29350
 H2594 H 0.59218 0.31144 0.33236
 H2595 H 0.61143 0.32206 0.34305
 H2596 H 0.62900 0.32855 0.30407
 H2597 H 0.54745 0.26750 0.29695
 H2598 H 0.52954 0.25554 0.28546
 H2599 H 0.52917 0.28557 0.25449
 H2600 H 0.54708 0.29741 0.26610
 C2601 C 0.61008 0.81910 0.80449
 C2602 C 0.59972 0.81411 0.81238
 C2603 C 0.60036 0.81520 0.82635
 C2604 C 0.61136 0.82121 0.83241
 C2605 C 0.62186 0.82622 0.82456
 C2606 C 0.62107 0.82512 0.81053
 C2607 C 0.58853 0.80770 0.80612
 C2608 C 0.57926 0.80226 0.80079
 C2609 C 0.56851 0.79581 0.79444
 C2610 C 0.55942 0.79023 0.78893
 C2611 C 0.54868 0.78349 0.78224
 C2612 C 0.54355 0.77170 0.78755
 C2613 C 0.53335 0.76496 0.78088
 C2614 C 0.52817 0.76994 0.76878
 C2615 C 0.53333 0.78186 0.76357
 C2616 C 0.54353 0.78858 0.77027
 H2617 H 0.60970 0.81826 0.79367
 H2618 H 0.59239 0.81138 0.83255
 H2619 H 0.61161 0.82205 0.84323
 H2620 H 0.62908 0.82871 0.80423
 H2621 H 0.54748 0.76767 0.79681
 H2622 H 0.52960 0.75582 0.78515
 H2623 H 0.52957 0.78596 0.75428
 H2624 H 0.54744 0.79769 0.76606
 C2625 C 0.11025 0.31900 0.80449
 C2626 C 0.09993 0.31400 0.81242
 C2627 C 0.10063 0.31512 0.82639
 C2628 C 0.11164 0.32117 0.83240
 C2629 C 0.12209 0.32618 0.82450
 C2630 C 0.12126 0.32506 0.81047
 C2631 C 0.08873 0.30756 0.80622
 C2632 C 0.07944 0.30210 0.80094
 C2633 C 0.06868 0.29562 0.79464
 C2634 C 0.05958 0.29002 0.78917
 C2635 C 0.04884 0.28324 0.78254
 C2636 C 0.04368 0.27150 0.78795
 C2637 C 0.03348 0.26472 0.78134
 C2638 C 0.02830 0.26960 0.76919
 C2639 C 0.03348 0.28147 0.76388
 C2640 C 0.04369 0.28823 0.77052
 H2641 H 0.10984 0.31814 0.79367
 H2642 H 0.09268 0.31130 0.83263
 H2643 H 0.11192 0.32202 0.84321
 H2644 H 0.12923 0.32865 0.80413
 H2645 H 0.04761 0.26754 0.79724
 H2646 H 0.02971 0.25562 0.78569
 H2647 H 0.02973 0.28549 0.75455
 H2648 H 0.04762 0.29730 0.76623
 C2649 C 0.10977 0.81887 0.30443
 C2650 C 0.09948 0.81388 0.31241
 C2651 C 0.10020 0.81506 0.32637
 C2652 C 0.11122 0.82113 0.33233
 C2653 C 0.12167 0.82611 0.32439
 C2654 C 0.12079 0.82495 0.31037
 C2655 C 0.08827 0.80739 0.30627
 C2656 C 0.07899 0.80187 0.30104
 C2657 C 0.06822 0.79533 0.29482
 C2658 C 0.05912 0.78967 0.28942
 C2659 C 0.04837 0.78284 0.28286
 C2660 C 0.04333 0.77105 0.28828
 C2661 C 0.03311 0.76422 0.28173
 C2662 C 0.02781 0.76910 0.26963
 C2663 C 0.03288 0.78101 0.26432
 C2664 C 0.04310 0.78782 0.27089
 H2665 H 0.10934 0.81796 0.29362
 H2666 H 0.09228 0.81125 0.33264
 H2667 H 0.11154 0.82202 0.34314
 H2668 H 0.12875 0.82851 0.30400
 H2669 H 0.04735 0.76710 0.29753
 H2670 H 0.02944 0.75509 0.28609
 H2671 H 0.02903 0.78504 0.25503
 H2672 H 0.04694 0.79692 0.26659
 C2673 C 0.60095 0.68517 0.67292
 C2674 C 0.60017 0.68639 0.68687
 C2675 C 0.61042 0.68141 0.69491
 C2676 C 0.62145 0.67527 0.68904
 C2677 C 0.62237 0.67404 0.67502
 C2678 C 0.61198 0.67904 0.66702
 C2679 C 0.58893 0.69287 0.69296
 C2680 C 0.57961 0.69836 0.69817
 C2681 C 0.56880 0.70484 0.70440
 C2682 C 0.55967 0.71042 0.70983
 C2683 C 0.54888 0.71715 0.71645
 C2684 C 0.54366 0.71206 0.72839
 C2685 C 0.53342 0.71877 0.73503
 C2686 C 0.52826 0.73068 0.72980
 C2687 C 0.53350 0.73566 0.71773
 C2688 C 0.54375 0.72894 0.71111
 H2689 H 0.59306 0.68897 0.66660
 H2690 H 0.60994 0.68235 0.70572
 H2691 H 0.62937 0.67170 0.69546
 H2692 H 0.61233 0.67810 0.65622
 H2693 H 0.54757 0.70295 0.73263
 H2694 H 0.52961 0.71466 0.74430
 H2695 H 0.52976 0.74481 0.71344
 H2696 H 0.54773 0.73298 0.70188
 C2697 C 0.60064 0.18519 0.17294
 C2698 C 0.59985 0.18631 0.18690
 C2699 C 0.61013 0.18130 0.19490
 C2700 C 0.62116 0.17522 0.18899
 C2701 C 0.62208 0.17409 0.17496
 C2702 C 0.61168 0.17912 0.16700
 C2703 C 0.58860 0.19272 0.19305
 C2704 C 0.57928 0.19815 0.19831
 C2705 C 0.56847 0.20457 0.20459
 C2706 C 0.55933 0.21010 0.21007
 C2707 C 0.54855 0.21679 0.21675
 C2708 C 0.54343 0.21169 0.22874
 C2709 C 0.53320 0.21836 0.23543
 C2710 C 0.52794 0.23024 0.23020
 C2711 C 0.53308 0.23522 0.21808
 C2712 C 0.54332 0.22853 0.21141
 H2713 H 0.59273 0.18901 0.16666
 H2714 H 0.60965 0.18216 0.20572
 H2715 H 0.62909 0.17162 0.19537
 H2716 H 0.61203 0.17826 0.15619
 H2717 H 0.54742 0.20262 0.23297
 H2718 H 0.52947 0.21426 0.24473
 H2719 H 0.52926 0.24433 0.21379
 H2720 H 0.54722 0.23257 0.20214
 C2721 C 0.10034 0.68481 0.17331
 C2722 C 0.09964 0.68585 0.18728
 C2723 C 0.10999 0.68084 0.19519
 C2724 C 0.12102 0.67486 0.18916
 C2725 C 0.12185 0.67381 0.17512
 C2726 C 0.11137 0.67883 0.16726
 C2727 C 0.08842 0.69220 0.19353
 C2728 C 0.07910 0.69759 0.19886
 C2729 C 0.06831 0.70398 0.20520
 C2730 C 0.05919 0.70950 0.21071
 C2731 C 0.04841 0.71619 0.21740
 C2732 C 0.04333 0.71112 0.22941
 C2733 C 0.03310 0.71779 0.23611
 C2734 C 0.02782 0.72965 0.23087
 C2735 C 0.03293 0.73460 0.21872
 C2736 C 0.04316 0.72791 0.21205
 H2737 H 0.09237 0.68864 0.16710
 H2738 H 0.10958 0.68164 0.20601
 H2739 H 0.12901 0.67126 0.19547
 H2740 H 0.11165 0.67804 0.15644
 H2741 H 0.04733 0.70206 0.23366
 H2742 H 0.02939 0.71371 0.24543
 H2743 H 0.02909 0.74370 0.21441
 H2744 H 0.04703 0.73193 0.20276
 C2745 C 0.10084 0.18461 0.67344
 C2746 C 0.10013 0.18571 0.68740
 C2747 C 0.11046 0.18069 0.69534
 C2748 C 0.12148 0.17466 0.68934
 C2749 C 0.12232 0.17357 0.67531
 C2750 C 0.11186 0.17859 0.66742
 C2751 C 0.08892 0.19213 0.69361
 C2752 C 0.07962 0.19758 0.69889
 C2753 C 0.06884 0.20405 0.70517
 C2754 C 0.05972 0.20965 0.71061
 C2755 C 0.04895 0.21643 0.71722
 C2756 C 0.04378 0.21144 0.72922
 C2757 C 0.03355 0.21819 0.73584
 C2758 C 0.02836 0.23005 0.73051
 C2759 C 0.03356 0.23493 0.71838
 C2760 C 0.04379 0.22816 0.71179
 H2761 H 0.09289 0.18844 0.66720
 H2762 H 0.11004 0.18154 0.70615
 H2763 H 0.12945 0.17107 0.69568
 H2764 H 0.11216 0.17775 0.65660
 H2765 H 0.04771 0.20237 0.73353
 H2766 H 0.02977 0.21417 0.74515
 H2767 H 0.02980 0.24403 0.71401
 H2768 H 0.04774 0.23212 0.70251
 C2769 C 0.39953 0.68498 0.32651
 C2770 C 0.40028 0.68611 0.31255
 C2771 C 0.38997 0.68115 0.30457
 C2772 C 0.37892 0.67514 0.31052
 C2773 C 0.37803 0.67401 0.32455
 C2774 C 0.38848 0.67897 0.33248
 C2775 C 0.41152 0.69253 0.30639
 C2776 C 0.42083 0.69798 0.30113
 C2777 C 0.43163 0.70445 0.29487
 C2778 C 0.44074 0.71004 0.28943
 C2779 C 0.45151 0.71681 0.28282
 C2780 C 0.45673 0.71177 0.27085
 C2781 C 0.46694 0.71852 0.26422
 C2782 C 0.47206 0.73044 0.26947
 C2783 C 0.46682 0.73537 0.28157
 C2784 C 0.45660 0.72859 0.28818
 H2785 H 0.40747 0.68877 0.33277
 H2786 H 0.39042 0.68202 0.29376
 H2787 H 0.37096 0.67158 0.30415
 H2788 H 0.38816 0.67811 0.34329
 H2789 H 0.45284 0.70266 0.26660
 H2790 H 0.47075 0.71446 0.25493
 H2791 H 0.47053 0.74451 0.28588
 H2792 H 0.45262 0.73259 0.29743
 C2793 C 0.39915 0.18494 0.82657
 C2794 C 0.39987 0.18606 0.81260
 C2795 C 0.38956 0.18105 0.80465
 C2796 C 0.37855 0.17499 0.81062
 C2797 C 0.37770 0.17387 0.82466
 C2798 C 0.38813 0.17889 0.83257
 C2799 C 0.41109 0.19247 0.80641
 C2800 C 0.42039 0.19791 0.80112
 C2801 C 0.43117 0.20435 0.79481
 C2802 C 0.44028 0.20992 0.78932
 C2803 C 0.45104 0.21665 0.78266
 C2804 C 0.45617 0.21161 0.77065
 C2805 C 0.46638 0.21832 0.76398
 C2806 C 0.47160 0.23020 0.76924
 C2807 C 0.46644 0.23513 0.78137
 C2808 C 0.45622 0.22839 0.78802
 H2809 H 0.40708 0.18877 0.83282
 H2810 H 0.39000 0.18191 0.79384
 H2811 H 0.37059 0.17139 0.80428
 H2812 H 0.38783 0.17803 0.84338
 H2813 H 0.45221 0.20253 0.76640
 H2814 H 0.47013 0.21426 0.75467
 H2815 H 0.47022 0.24424 0.78569
 H2816 H 0.45231 0.23239 0.79730
 C2817 C 0.89937 0.68503 0.82674
 C2818 C 0.90009 0.68612 0.81277
 C2819 C 0.88978 0.68112 0.80483
 C2820 C 0.87876 0.67508 0.81082
 C2821 C 0.87790 0.67399 0.82485
 C2822 C 0.88835 0.67900 0.83275
 C2823 C 0.91131 0.69254 0.80657
 C2824 C 0.92060 0.69798 0.80127
 C2825 C 0.93137 0.70443 0.79496
 C2826 C 0.94047 0.71001 0.78946
 C2827 C 0.95122 0.71675 0.78279
 C2828 C 0.95634 0.71170 0.77078
 C2829 C 0.96654 0.71842 0.76410
 C2830 C 0.97174 0.73032 0.76933
 C2831 C 0.96658 0.73525 0.78147
 C2832 C 0.95639 0.72850 0.78813
 H2833 H 0.90732 0.68885 0.83298
 H2834 H 0.89021 0.68196 0.79401
 H2835 H 0.87079 0.67149 0.80448
 H2836 H 0.88805 0.67816 0.84357
 H2837 H 0.95240 0.70261 0.76655
 H2838 H 0.97028 0.71436 0.75478
 H2839 H 0.97036 0.74437 0.78577
 H2840 H 0.95247 0.73251 0.79741
 C2841 C 0.88980 0.19462 0.31833
 C2842 C 0.90029 0.18686 0.31347
 C2843 C 0.89974 0.17302 0.31464
 C2844 C 0.88871 0.16696 0.32060
 C2845 C 0.87809 0.17468 0.32548
 C2846 C 0.87877 0.18858 0.32430
 C2847 C 0.91153 0.19311 0.30714
 C2848 C 0.92085 0.19843 0.30177
 C2849 C 0.93166 0.20478 0.29540
 C2850 C 0.94079 0.21029 0.28989
 C2851 C 0.95158 0.21697 0.28323
 C2852 C 0.95671 0.21191 0.27124
 C2853 C 0.96695 0.21858 0.26457
 C2854 C 0.97220 0.23044 0.26982
 C2855 C 0.96705 0.23540 0.28195
 C2856 C 0.95681 0.22870 0.28860
 H2857 H 0.89011 0.20533 0.31742
 H2858 H 0.90782 0.16692 0.31093
 H2859 H 0.88854 0.15625 0.32151
 H2860 H 0.87068 0.19478 0.32778
 H2861 H 0.95272 0.20284 0.26699
 H2862 H 0.97068 0.21450 0.25526
 H2863 H 0.97086 0.24450 0.28626
 H2864 H 0.95290 0.23272 0.29787
 C2865 C 0.32693 0.31481 0.60097
 C2866 C 0.31307 0.31363 0.60034
 C2867 C 0.30522 0.31862 0.61077
 C2868 C 0.31119 0.32475 0.62180
 C2869 C 0.32512 0.32595 0.62256
 C2870 C 0.33293 0.32093 0.61200
 C2871 C 0.30688 0.30718 0.58909
 C2872 C 0.30157 0.30173 0.57976
 C2873 C 0.29523 0.29529 0.56894
 C2874 C 0.28971 0.28975 0.55980
 C2875 C 0.28299 0.28307 0.54900
 C2876 C 0.27115 0.28828 0.54381
 C2877 C 0.26443 0.28163 0.53355
 C2878 C 0.26946 0.26966 0.52834
 C2879 C 0.28142 0.26455 0.53355
 C2880 C 0.28813 0.27122 0.54382
 H2881 H 0.33310 0.31100 0.59294
 H2882 H 0.29449 0.31771 0.61041
 H2883 H 0.30493 0.32834 0.62985
 H2884 H 0.34366 0.32185 0.61223
 H2885 H 0.26708 0.29744 0.54776
 H2886 H 0.25525 0.28583 0.52976
 H2887 H 0.28556 0.25536 0.52977
 H2888 H 0.29728 0.26709 0.54777
 C2889 C 0.30525 0.81847 0.11085
 C2890 C 0.31306 0.81348 0.10039
 C2891 C 0.32693 0.81461 0.10100
 C2892 C 0.33296 0.82068 0.11205
 C2893 C 0.32518 0.82571 0.12262
 C2894 C 0.31125 0.82455 0.12189
 C2895 C 0.30683 0.80709 0.08912
 C2896 C 0.30148 0.80170 0.07978
 C2897 C 0.29509 0.79534 0.06895
 C2898 C 0.28953 0.78986 0.05979
 C2899 C 0.28276 0.78325 0.04898
 C2900 C 0.28785 0.77140 0.04375
 C2901 C 0.28111 0.76480 0.03347
 C2902 C 0.26916 0.76997 0.02828
 C2903 C 0.26418 0.78194 0.03354
 C2904 C 0.27094 0.78853 0.04382
 H2905 H 0.29451 0.81760 0.11050
 H2906 H 0.33307 0.81080 0.09295
 H2907 H 0.34369 0.82157 0.11225
 H2908 H 0.30501 0.82814 0.12995
 H2909 H 0.29699 0.76722 0.04768
 H2910 H 0.28521 0.75560 0.02965
 H2911 H 0.25501 0.78619 0.02978
 H2912 H 0.26691 0.79769 0.04781
 C2913 C 0.81903 0.30531 0.11072
 C2914 C 0.81405 0.31304 0.10021
 C2915 C 0.81521 0.32688 0.10073
 C2916 C 0.82125 0.33297 0.11175
 C2917 C 0.82622 0.32527 0.12241
 C2918 C 0.82508 0.31136 0.12175
 C2919 C 0.80761 0.30678 0.08899
 C2920 C 0.80214 0.30144 0.07968
 C2921 C 0.79566 0.29510 0.06890
 C2922 C 0.79007 0.28959 0.05977
 C2923 C 0.78332 0.28292 0.04899
 C2924 C 0.77144 0.28809 0.04386
 C2925 C 0.76470 0.28143 0.03360
 C2926 C 0.76977 0.26949 0.02835
 C2927 C 0.78177 0.26443 0.03351
 C2928 C 0.78849 0.27110 0.04377
 H2929 H 0.81814 0.29459 0.11045
 H2930 H 0.81141 0.33297 0.09263
 H2931 H 0.82213 0.34368 0.11190
 H2932 H 0.82864 0.30519 0.12987
 H2933 H 0.76734 0.29722 0.04784
 H2934 H 0.75549 0.28559 0.02986
 H2935 H 0.78594 0.25526 0.02970
 H2936 H 0.79767 0.26700 0.04768
 C2937 C 0.82666 0.81458 0.60118
 C2938 C 0.81280 0.81338 0.60054
 C2939 C 0.80494 0.81836 0.61096
 C2940 C 0.81088 0.82448 0.62200
 C2941 C 0.82481 0.82570 0.62278
 C2942 C 0.83263 0.82070 0.61223
 C2943 C 0.80663 0.80691 0.58927
 C2944 C 0.80136 0.80145 0.57993
 C2945 C 0.79506 0.79501 0.56910
 C2946 C 0.78958 0.78945 0.55993
 C2947 C 0.78292 0.78275 0.54910
 C2948 C 0.77104 0.78788 0.54393
 C2949 C 0.76438 0.78121 0.53364
 C2950 C 0.76951 0.76930 0.52839
 C2951 C 0.78152 0.76427 0.53359
 C2952 C 0.78816 0.77096 0.54388
 H2953 H 0.83284 0.81077 0.59316
 H2954 H 0.79420 0.81743 0.61059
 H2955 H 0.80460 0.82807 0.63004
 H2956 H 0.84336 0.82163 0.61246
 H2957 H 0.76689 0.79699 0.54791
 H2958 H 0.75516 0.78534 0.52987
 H2959 H 0.78574 0.75513 0.52978
 H2960 H 0.79734 0.76690 0.54783
 C2961 C 0.31808 0.69471 0.38878
 C2962 C 0.31307 0.68695 0.39925
 C2963 C 0.31419 0.67312 0.39869
 C2964 C 0.32027 0.66705 0.38767
 C2965 C 0.32531 0.67476 0.37706
 C2966 C 0.32417 0.68867 0.37775
 C2967 C 0.30665 0.69322 0.41049
 C2968 C 0.30122 0.69856 0.41982
 C2969 C 0.29480 0.70492 0.43063
 C2970 C 0.28926 0.71045 0.43978
 C2971 C 0.28257 0.71715 0.45060
 C2972 C 0.27069 0.71203 0.45576
 C2973 C 0.26401 0.71870 0.46604
 C2974 C 0.26914 0.73062 0.47129
 C2975 C 0.28115 0.73563 0.46609
 C2976 C 0.28780 0.72894 0.45581
 H2977 H 0.31722 0.70543 0.38908
 H2978 H 0.31036 0.66702 0.40676
 H2979 H 0.32114 0.65634 0.38750
 H2980 H 0.32778 0.69487 0.36967
 H2981 H 0.26654 0.70292 0.45178
 H2982 H 0.25479 0.71458 0.46981
 H2983 H 0.28536 0.74478 0.46990
 H2984 H 0.29699 0.73300 0.45187
 C2985 C 0.32686 0.18523 0.89886
 C2986 C 0.31300 0.18642 0.89948
 C2987 C 0.30516 0.18140 0.88906
 C2988 C 0.31114 0.17525 0.87804
 C2989 C 0.32506 0.17406 0.87729
 C2990 C 0.33286 0.17909 0.88784
 C2991 C 0.30682 0.19293 0.91070
 C2992 C 0.30154 0.19845 0.92002
 C2993 C 0.29526 0.20497 0.93082
 C2994 C 0.28980 0.21059 0.93996
 C2995 C 0.28317 0.21736 0.95076
 C2996 C 0.27131 0.21228 0.95601
 C2997 C 0.26468 0.21901 0.96628
 C2998 C 0.26984 0.23095 0.97144
 C2999 C 0.28183 0.23593 0.96616
 C3000 C 0.28844 0.22918 0.95589
 H3001 H 0.33303 0.18906 0.90688
 H3002 H 0.29443 0.18232 0.88942
 H3003 H 0.30487 0.17165 0.87000
 H3004 H 0.34360 0.17818 0.88761
 H3005 H 0.26714 0.20315 0.95210
 H3006 H 0.25548 0.21491 0.97011
 H3007 H 0.28606 0.24509 0.96991
 H3008 H 0.29760 0.23321 0.95189
 C3009 C 0.81795 0.69451 0.88915
 C3010 C 0.81299 0.68674 0.89965
 C3011 C 0.81418 0.67291 0.89911
 C3012 C 0.82027 0.66685 0.88808
 C3013 C 0.82526 0.67458 0.87746
 C3014 C 0.82405 0.68848 0.87813
 C3015 C 0.80655 0.69299 0.91089
 C3016 C 0.80112 0.69833 0.92021
 C3017 C 0.79469 0.70469 0.93102
 C3018 C 0.78915 0.71022 0.94017
 C3019 C 0.78247 0.71693 0.95098
 C3020 C 0.77060 0.71181 0.95618
 C3021 C 0.76394 0.71850 0.96646
 C3022 C 0.76907 0.73042 0.97168
 C3023 C 0.78106 0.73544 0.96645
 C3024 C 0.78770 0.72873 0.95617
 H3025 H 0.81703 0.70522 0.88944
 H3026 H 0.81039 0.66680 0.90719
 H3027 H 0.82120 0.65614 0.88793
 H3028 H 0.82762 0.69468 0.87002
 H3029 H 0.76646 0.70268 0.95222
 H3030 H 0.75474 0.71437 0.97026
 H3031 H 0.78527 0.74459 0.97023
 H3032 H 0.79688 0.73279 0.95220
 C3033 C 0.82659 0.18497 0.39932
 C3034 C 0.81272 0.18608 0.39985
 C3035 C 0.80499 0.18109 0.38934
 C3036 C 0.81108 0.17506 0.37831
 C3037 C 0.82502 0.17396 0.37765
 C3038 C 0.83271 0.17895 0.38830
 C3039 C 0.80642 0.19250 0.41106
 C3040 C 0.80107 0.19796 0.42036
 C3041 C 0.79472 0.20443 0.43115
 C3042 C 0.78922 0.21003 0.44028
 C3043 C 0.78256 0.21680 0.45107
 C3044 C 0.77073 0.21166 0.45634
 C3045 C 0.76407 0.21839 0.46660
 C3046 C 0.76918 0.23037 0.47172
 C3047 C 0.78113 0.23540 0.46642
 C3048 C 0.78777 0.22865 0.45616
 H3049 H 0.83268 0.18878 0.40742
 H3050 H 0.79424 0.18194 0.38961
 H3051 H 0.80490 0.17148 0.37019
 H3052 H 0.84345 0.17810 0.38815
 H3053 H 0.76660 0.20250 0.45245
 H3054 H 0.75490 0.21425 0.47045
 H3055 H 0.78533 0.24459 0.47014
 H3056 H 0.79691 0.23272 0.45214
 C3057 C 0.68488 0.32667 0.39916
 C3058 C 0.68600 0.31283 0.39971
 C3059 C 0.68103 0.30509 0.38919
 C3060 C 0.67502 0.31116 0.37814
 C3061 C 0.67391 0.32507 0.37746
 C3062 C 0.67889 0.33276 0.38811
 C3063 C 0.69239 0.30655 0.41096
 C3064 C 0.69782 0.30121 0.42028
 C3065 C 0.70427 0.29487 0.43110
 C3066 C 0.70985 0.28938 0.44024
 C3067 C 0.71660 0.28273 0.45105
 C3068 C 0.71144 0.27092 0.45631
 C3069 C 0.71816 0.26428 0.46658
 C3070 C 0.73016 0.26936 0.47173
 C3071 C 0.73521 0.28129 0.46644
 C3072 C 0.72847 0.28791 0.45616
 H3073 H 0.68868 0.33275 0.40726
 H3074 H 0.68188 0.29437 0.38949
 H3075 H 0.67146 0.30498 0.37002
 H3076 H 0.67804 0.34347 0.38795
 H3077 H 0.70226 0.26681 0.45241
 H3078 H 0.71400 0.25512 0.47043
 H3079 H 0.74442 0.28547 0.47017
 H3080 H 0.73256 0.29704 0.45215
 C3081 C 0.68145 0.80555 0.88916
 C3082 C 0.68637 0.81331 0.89969
 C3083 C 0.68519 0.82714 0.89915
 C3084 C 0.67916 0.83321 0.88810
 C3085 C 0.67422 0.82550 0.87745
 C3086 C 0.67541 0.81160 0.87812
 C3087 C 0.69277 0.80704 0.91094
 C3088 C 0.69818 0.80170 0.92028
 C3089 C 0.70459 0.79533 0.93110
 C3090 C 0.71012 0.78980 0.94025
 C3091 C 0.71680 0.78308 0.95106
 C3092 C 0.72867 0.78820 0.95625
 C3093 C 0.73534 0.78151 0.96652
 C3094 C 0.73022 0.76957 0.97174
 C3095 C 0.71822 0.76456 0.96652
 C3096 C 0.71157 0.77127 0.95625
 H3097 H 0.68236 0.79484 0.88945
 H3098 H 0.68895 0.83323 0.90725
 H3099 H 0.67825 0.84392 0.88795
 H3100 H 0.67187 0.80541 0.87000
 H3101 H 0.73281 0.79733 0.95230
 H3102 H 0.74455 0.78563 0.97031
 H3103 H 0.71401 0.75540 0.97030
 H3104 H 0.70240 0.76721 0.95229
 C3105 C 0.18571 0.32749 0.89885
 C3106 C 0.18694 0.31366 0.89942
 C3107 C 0.18200 0.30587 0.88894
 C3108 C 0.17589 0.31186 0.87790
 C3109 C 0.17465 0.32576 0.87720
 C3110 C 0.17961 0.33351 0.88781
 C3111 C 0.19339 0.30745 0.91067
 C3112 C 0.19885 0.30215 0.92000
 C3113 C 0.20531 0.29582 0.93082
 C3114 C 0.21087 0.29031 0.93996
 C3115 C 0.21757 0.28362 0.95078
 C3116 C 0.21234 0.27184 0.95601
 C3117 C 0.21901 0.26514 0.96628
 C3118 C 0.23103 0.27015 0.97146
 C3119 C 0.23616 0.28206 0.96619
 C3120 C 0.22946 0.28874 0.95592
 H3121 H 0.18949 0.33362 0.90692
 H3122 H 0.18294 0.29516 0.88925
 H3123 H 0.17234 0.30564 0.86981
 H3124 H 0.17867 0.34422 0.88763
 H3125 H 0.20315 0.26778 0.95209
 H3126 H 0.21479 0.25600 0.97011
 H3127 H 0.24538 0.28618 0.96994
 H3128 H 0.23361 0.29784 0.95192
 C3129 C 0.18157 0.80571 0.38875
 C3130 C 0.18655 0.81350 0.39922
 C3131 C 0.18538 0.82733 0.39863
 C3132 C 0.17931 0.83336 0.38758
 C3133 C 0.17431 0.82561 0.37698
 C3134 C 0.17549 0.81171 0.37770
 C3135 C 0.19296 0.80727 0.41048
 C3136 C 0.19838 0.80194 0.41982
 C3137 C 0.20478 0.79558 0.43066
 C3138 C 0.21029 0.79005 0.43981
 C3139 C 0.21695 0.78332 0.45064
 C3140 C 0.22881 0.78843 0.45585
 C3141 C 0.23546 0.78171 0.46613
 C3142 C 0.23032 0.76978 0.47133
 C3143 C 0.21832 0.76478 0.46608
 C3144 C 0.21170 0.77152 0.45580
 H3145 H 0.18247 0.79499 0.38908
 H3146 H 0.18918 0.83345 0.40669
 H3147 H 0.17841 0.84407 0.38738
 H3148 H 0.17191 0.80549 0.36962
 H3149 H 0.23297 0.79755 0.45191
 H3150 H 0.24466 0.78583 0.46994
 H3151 H 0.21410 0.75563 0.46985
 H3152 H 0.20253 0.76747 0.45183
 C3153 C 0.67352 0.68473 0.60096
 C3154 C 0.68738 0.68588 0.60038
 C3155 C 0.69518 0.68090 0.61085
 C3156 C 0.68915 0.67484 0.62190
 C3157 C 0.67522 0.67369 0.62262
 C3158 C 0.66747 0.67868 0.61200
 C3159 C 0.69362 0.69231 0.58913
 C3160 C 0.69893 0.69777 0.57980
 C3161 C 0.70525 0.70424 0.56899
 C3162 C 0.71072 0.70983 0.55984
 C3163 C 0.71735 0.71658 0.54902
 C3164 C 0.72922 0.71149 0.54379
 C3165 C 0.73585 0.71821 0.53352
 C3166 C 0.73070 0.73015 0.52834
 C3167 C 0.71871 0.73514 0.53360
 C3168 C 0.71209 0.72839 0.54388
 H3169 H 0.66739 0.68853 0.59289
 H3170 H 0.70592 0.68178 0.61053
 H3171 H 0.69537 0.67127 0.62999
 H3172 H 0.65673 0.67780 0.61219
 H3173 H 0.73339 0.70236 0.54772
 H3174 H 0.74506 0.71411 0.52969
 H3175 H 0.71447 0.74430 0.52984
 H3176 H 0.70292 0.73244 0.54787
 C3177 C 0.67327 0.18528 0.10094
 C3178 C 0.68713 0.18642 0.10037
 C3179 C 0.69492 0.18141 0.11084
 C3180 C 0.68888 0.17532 0.12186
 C3181 C 0.67494 0.17416 0.12256
 C3182 C 0.66720 0.17920 0.11196
 C3183 C 0.69339 0.19286 0.08914
 C3184 C 0.69873 0.19831 0.07983
 C3185 C 0.70509 0.20475 0.06902
 C3186 C 0.71060 0.21032 0.05989
 C3187 C 0.71729 0.21704 0.04909
 C3188 C 0.72914 0.21188 0.04388
 C3189 C 0.73582 0.21857 0.03360
 C3190 C 0.73073 0.23053 0.02841
 C3191 C 0.71876 0.23558 0.03365
 C3192 C 0.71210 0.22887 0.04393
 H3193 H 0.66715 0.18911 0.09288
 H3194 H 0.70566 0.18229 0.11053
 H3195 H 0.69510 0.17171 0.12994
 H3196 H 0.65647 0.17831 0.11213
 H3197 H 0.73326 0.20274 0.04781
 H3198 H 0.74501 0.21441 0.02980
 H3199 H 0.71457 0.24476 0.02989
 H3200 H 0.70294 0.23296 0.04790
 C3201 C 0.19424 0.68206 0.11060
 C3202 C 0.18637 0.68708 0.10021
 C3203 C 0.17251 0.68585 0.10085
 C3204 C 0.16655 0.67966 0.11187
 C3205 C 0.17438 0.67461 0.12239
 C3206 C 0.18830 0.67586 0.12162
 C3207 C 0.19253 0.69359 0.08897
 C3208 C 0.19781 0.69909 0.07965
 C3209 C 0.20413 0.70557 0.06884
 C3210 C 0.20963 0.71114 0.05971
 C3211 C 0.21634 0.71785 0.04891
 C3212 C 0.21122 0.72973 0.04379
 C3213 C 0.21792 0.73642 0.03352
 C3214 C 0.22985 0.73130 0.02825
 C3215 C 0.23486 0.71929 0.03340
 C3216 C 0.22815 0.71262 0.04367
 H3217 H 0.20497 0.68300 0.11023
 H3218 H 0.16632 0.68968 0.09284
 H3219 H 0.15582 0.67871 0.11210
 H3220 H 0.19459 0.67225 0.12964
 H3221 H 0.20210 0.73388 0.04779
 H3222 H 0.21380 0.74564 0.02979
 H3223 H 0.24401 0.71507 0.02957
 H3224 H 0.23221 0.70344 0.04757
 C3225 C 0.19476 0.18165 0.61083
 C3226 C 0.18689 0.18665 0.60042
 C3227 C 0.17303 0.18542 0.60106
 C3228 C 0.16706 0.17926 0.61208
 C3229 C 0.17490 0.17423 0.62262
 C3230 C 0.18882 0.17548 0.62185
 C3231 C 0.19305 0.19315 0.58917
 C3232 C 0.19833 0.19864 0.57984
 C3233 C 0.20464 0.20511 0.56903
 C3234 C 0.21014 0.21068 0.55988
 C3235 C 0.21683 0.21738 0.54908
 C3236 C 0.21168 0.22924 0.54392
 C3237 C 0.21836 0.23592 0.53365
 C3238 C 0.23031 0.23082 0.52839
 C3239 C 0.23536 0.21884 0.53358
 C3240 C 0.22866 0.21218 0.54385
 H3241 H 0.20549 0.18259 0.61046
 H3242 H 0.16684 0.18924 0.59304
 H3243 H 0.15634 0.17831 0.61232
 H3244 H 0.19510 0.17188 0.62988
 H3245 H 0.20254 0.23336 0.54791
 H3246 H 0.21421 0.24511 0.52988
 H3247 H 0.24453 0.21465 0.52976
 H3248 H 0.23275 0.20302 0.54778
   
