data_POSCAR
  _audit_creation_date              2014-09-24
  _audit_creation_method            'ToBaCCo'
  _symmetry_space_group_name_H-M    'P1'
  _symmetry_Int_Tables_number       1
  _symmetry_cell_setting            triclinic
  loop_
  _symmetry_equiv_pos_as_xyz
 x,y,z
_cell_length_a 57.7750
_cell_length_b 56.3022
_cell_length_c 57.1026
_cell_angle_alpha 90.963000
_cell_angle_beta 90.732400
_cell_angle_gamma 89.527600
loop_
  _atom_site_label
  _atom_site_type_symbol
  _atom_site_fract_x
  _atom_site_fract_y
  _atom_site_fract_z
C1 C 0.21262 0.17987 0.23143
 C2 C 0.19403 0.18443 0.24638
 C3 C 0.18035 0.20500 0.24390
 C4 C 0.18535 0.22104 0.22608
 C5 C 0.20400 0.21677 0.21102
 C6 C 0.21771 0.19610 0.21372
 C7 C 0.22626 0.15937 0.23401
 C8 C 0.24499 0.15476 0.21909
 C9 C 0.25000 0.17105 0.20147
 C10 C 0.23657 0.19170 0.19878
 C11 C 0.24174 0.20804 0.18140
 C12 C 0.22826 0.22873 0.17867
 C13 C 0.20932 0.23291 0.19346
 H14 H 0.19004 0.17182 0.25987
 H15 H 0.17497 0.23705 0.22422
 H16 H 0.22251 0.14716 0.24792
 H17 H 0.26425 0.16754 0.18971
 H18 H 0.25616 0.20459 0.16983
 H19 H 0.19899 0.24893 0.19154
 C20 C 0.69911 0.68341 0.72077
 C21 C 0.67903 0.68737 0.73388
 C22 C 0.66451 0.70699 0.72938
 C23 C 0.67024 0.72265 0.71147
 C24 C 0.69023 0.71892 0.69820
 C25 C 0.70473 0.69924 0.70285
 C26 C 0.71377 0.66402 0.72544
 C27 C 0.73401 0.66021 0.71242
 C28 C 0.73933 0.67595 0.69443
 C29 C 0.72494 0.69548 0.68968
 C30 C 0.73055 0.71138 0.67204
 C31 C 0.71628 0.73113 0.66742
 C32 C 0.69609 0.73473 0.68055
 H33 H 0.67462 0.67507 0.74750
 H34 H 0.65934 0.73803 0.70814
 H35 H 0.70966 0.65216 0.73953
 H36 H 0.75467 0.67295 0.68402
 H37 H 0.74598 0.70831 0.66178
 H38 H 0.68514 0.75008 0.67730
 C39 C 0.29331 0.79845 0.73176
 C40 C 0.31230 0.79354 0.74655
 C41 C 0.32631 0.77338 0.74257
 C42 C 0.32121 0.75813 0.72351
 C43 C 0.30235 0.76286 0.70856
 C44 C 0.28827 0.78305 0.71272
 C45 C 0.27924 0.81845 0.73589
 C46 C 0.25995 0.82362 0.72126
 C47 C 0.25521 0.80788 0.70221
 C48 C 0.26920 0.78781 0.69785
 C49 C 0.26448 0.77244 0.67874
 C50 C 0.27851 0.75232 0.67442
 C51 C 0.29743 0.74773 0.68945
 H52 H 0.31604 0.80525 0.76136
 H53 H 0.33212 0.74272 0.72017
 H54 H 0.28299 0.82934 0.75125
 H55 H 0.24122 0.81159 0.69000
 H56 H 0.24969 0.77596 0.66741
 H57 H 0.30857 0.73250 0.68609
 C58 C 0.79476 0.31652 0.23456
 C59 C 0.81396 0.31276 0.24936
 C60 C 0.82876 0.29288 0.24616
 C61 C 0.82373 0.27685 0.22750
 C62 C 0.80477 0.28061 0.21239
 C63 C 0.79017 0.30046 0.21593
 C64 C 0.77999 0.33607 0.23823
 C65 C 0.76077 0.34002 0.22340
 C66 C 0.75645 0.32402 0.20466
 C67 C 0.77102 0.30428 0.20081
 C68 C 0.76678 0.28831 0.18211
 C69 C 0.78141 0.26852 0.17834
 C70 C 0.80036 0.26487 0.19361
 H71 H 0.81669 0.32498 0.26397
 H72 H 0.83512 0.26190 0.22389
 H73 H 0.78330 0.34808 0.25291
 H74 H 0.74190 0.32709 0.19289
 H75 H 0.75195 0.29112 0.17064
 H76 H 0.81195 0.24991 0.19065
 C77 C 0.79333 0.69553 0.26866
 C78 C 0.81229 0.69939 0.25404
 C79 C 0.82912 0.71674 0.25984
 C80 C 0.82616 0.73030 0.28066
 C81 C 0.80730 0.72670 0.29529
 C82 C 0.79081 0.70929 0.28934
 C83 C 0.77704 0.67785 0.26312
 C84 C 0.75827 0.67379 0.27797
 C85 C 0.75571 0.68793 0.29833
 C86 C 0.77181 0.70562 0.30412
 C87 C 0.76933 0.71960 0.32454
 C88 C 0.78579 0.73698 0.33054
 C89 C 0.80470 0.74041 0.31581
 H90 H 0.81428 0.68803 0.23871
 H91 H 0.83797 0.74451 0.28524
 H92 H 0.77921 0.66691 0.24748
 H93 H 0.74107 0.68521 0.30965
 H94 H 0.75482 0.71673 0.33598
 H95 H 0.81730 0.75398 0.32025
 C96 C 0.29722 0.18628 -0.21844
 C97 C 0.31658 0.19136 -0.23203
 C98 C 0.33215 0.20960 -0.22534
 C99 C 0.32764 0.22262 -0.20447
 C100 C 0.30828 0.21780 -0.19084
 C101 C 0.29303 0.19955 -0.19777
 C102 C 0.28204 0.16799 -0.22517
 C103 C 0.26270 0.16281 -0.21151
 C104 C 0.25856 0.17626 -0.19099
 C105 C 0.27356 0.19461 -0.18406
 C106 C 0.26929 0.20821 -0.16372
 C107 C 0.28431 0.22667 -0.15683
 C108 C 0.30385 0.23118 -0.17043
 H109 H 0.31984 0.18029 -0.24734
 H110 H 0.33850 0.23739 -0.19917
 H111 H 0.28542 0.15755 -0.24090
 H112 H 0.24349 0.17261 -0.18057
 H113 H 0.25407 0.20471 -0.15348
 H114 H 0.31578 0.24505 -0.16502
 C115 C 0.70730 0.31477 -0.23538
 C116 C 0.68864 0.30965 -0.25048
 C117 C 0.67304 0.29113 -0.24579
 C118 C 0.67679 0.27788 -0.22519
 C119 C 0.69549 0.28281 -0.20994
 C120 C 0.71080 0.30131 -0.21507
 C121 C 0.72242 0.33339 -0.24024
 C122 C 0.74108 0.33874 -0.22506
 C123 C 0.74459 0.32506 -0.20493
 C124 C 0.72959 0.30643 -0.19984
 C125 C 0.73302 0.29294 -0.17968
 C126 C 0.71785 0.27446 -0.17431
 C127 C 0.69912 0.26949 -0.18960
 H128 H 0.68588 0.32102 -0.26536
 H129 H 0.66582 0.26302 -0.22128
 H130 H 0.71979 0.34360 -0.25599
 H131 H 0.75874 0.32923 -0.19294
 H132 H 0.74772 0.29670 -0.16826
 H133 H 0.68714 0.25550 -0.18547
 C134 C 0.19298 0.81422 0.26738
 C135 C 0.17294 0.81140 0.25355
 C136 C 0.15662 0.79391 0.25869
 C137 C 0.16057 0.77907 0.27794
 C138 C 0.18050 0.78175 0.29204
 C139 C 0.19680 0.79935 0.28667
 C140 C 0.20926 0.83164 0.26211
 C141 C 0.22964 0.83459 0.27581
 C142 C 0.23309 0.81952 0.29513
 C143 C 0.21688 0.80213 0.30062
 C144 C 0.22041 0.78764 0.32007
 C145 C 0.20419 0.77028 0.32581
 C146 C 0.18433 0.76728 0.31156
 H147 H 0.17013 0.82267 0.23855
 H148 H 0.14794 0.76571 0.28213
 H149 H 0.20628 0.84217 0.24667
 H150 H 0.24786 0.82184 0.30677
 H151 H 0.23597 0.78974 0.33071
 H152 H 0.17166 0.75403 0.31593
 C153 C 0.43296 0.44883 0.47725
 C154 C 0.43756 0.42994 0.49242
 C155 C 0.45681 0.41488 0.48891
 C156 C 0.47158 0.41909 0.47007
 C157 C 0.46713 0.43779 0.45471
 C158 C 0.44779 0.45278 0.45829
 C159 C 0.41363 0.46368 0.48060
 C160 C 0.40872 0.48236 0.46517
 C161 C 0.42371 0.48624 0.44637
 C162 C 0.44321 0.47162 0.44284
 C163 C 0.45805 0.47528 0.42393
 C164 C 0.47723 0.46019 0.42017
 C165 C 0.48168 0.44158 0.43572
 H166 H 0.42586 0.42667 0.50668
 H167 H 0.48667 0.40786 0.46740
 H168 H 0.40246 0.46076 0.49536
 H169 H 0.41995 0.50035 0.43418
 H170 H 0.45445 0.48956 0.41188
 H171 H 0.49660 0.43009 0.43306
 C172 C -0.06077 -0.03476 0.97682
 C173 C -0.05818 -0.05295 0.99320
 C174 C -0.04071 -0.07037 0.99071
 C175 C -0.02589 -0.06942 0.97139
 C176 C -0.02843 -0.05152 0.95475
 C177 C -0.04581 -0.03399 0.95757
 C178 C -0.07806 -0.01730 0.97950
 C179 C -0.08074 0.00130 0.96328
 C180 C -0.06547 0.00173 0.94410
 C181 C -0.04821 -0.01572 0.94114
 C182 C -0.03341 -0.01527 0.92182
 C183 C -0.01625 -0.03286 0.91873
 C184 C -0.01382 -0.05086 0.93536
 H185 H -0.06998 -0.05370 1.00777
 H186 H -0.01212 -0.08246 0.96941
 H187 H -0.08868 -0.01782 0.99495
 H188 H -0.06745 0.01501 0.93073
 H189 H -0.03547 -0.00143 0.90897
 H190 H -0.00039 -0.06427 0.93328
 C191 C 1.07379 0.54826 0.97082
 C192 C 1.06917 0.56685 0.98680
 C193 C 1.05000 0.58228 0.98359
 C194 C 1.03551 0.57849 0.96376
 C195 C 1.04014 0.56020 0.94749
 C196 C 1.05941 0.54510 0.95097
 C197 C 1.09258 0.53275 0.97450
 C198 C 1.09767 0.51423 0.95831
 C199 C 1.08331 0.51170 0.93823
 C200 C 1.06425 0.52679 0.93460
 C201 C 1.04976 0.52359 0.91496
 C202 C 1.03049 0.53854 0.91132
 C203 C 1.02584 0.55687 0.92767
 H204 H 1.08011 0.56852 1.00227
 H205 H 1.02111 0.59039 0.96021
 H206 H 1.10374 0.53586 0.98961
 H207 H 1.08612 0.49723 0.92583
 H208 H 1.05326 0.50917 0.90266
 H209 H 1.01120 0.56868 0.92484
 C210 C 0.56147 0.05007 0.47831
 C211 C 0.55904 0.06984 0.49340
 C212 C 0.54107 0.08645 0.48993
 C213 C 0.52559 0.08328 0.47094
 C214 C 0.52784 0.06368 0.45566
 C215 C 0.54575 0.04692 0.45946
 C216 C 0.57915 0.03323 0.48202
 C217 C 0.58140 0.01294 0.46724
 C218 C 0.56554 0.01028 0.44834
 C219 C 0.54789 0.02699 0.44443
 C220 C 0.53236 0.02401 0.42559
 C221 C 0.51452 0.04060 0.42161
 C222 C 0.51238 0.06046 0.43671
 H223 H 0.57087 0.07207 0.50815
 H224 H 0.51188 0.09619 0.46801
 H225 H 0.59040 0.03559 0.49717
 H226 H 0.56727 -0.00434 0.43592
 H227 H 0.53431 0.00883 0.41382
 H228 H 0.49850 0.07321 0.43391
 C229 C -0.05044 0.03552 0.51472
 C230 C -0.04795 0.05578 0.50111
 C231 C -0.02974 0.07168 0.50551
 C232 C -0.01378 0.06705 0.52372
 C233 C -0.01615 0.04690 0.53766
 C234 C -0.03458 0.03108 0.53314
 C235 C -0.06864 0.01970 0.51026
 C236 C -0.07138 -0.00044 0.52411
 C237 C -0.05562 -0.00472 0.54254
 C238 C -0.03720 0.01085 0.54706
 C239 C -0.02140 0.00652 0.56534
 C240 C -0.00296 0.02213 0.56998
 C241 C -0.00048 0.04234 0.55608
 H242 H -0.06009 0.05908 0.48687
 H243 H 0.00023 0.07935 0.52727
 H244 H -0.08094 0.02325 0.49622
 H245 H -0.05757 -0.02034 0.55317
 H246 H -0.02364 -0.00888 0.57621
 H247 H 0.01379 0.05435 0.55945
 C248 C 0.43190 0.55993 0.03198
 C249 C 0.43487 0.57803 0.01576
 C250 C 0.45404 0.59344 0.01735
 C251 C 0.47008 0.59032 0.03598
 C252 C 0.46706 0.57254 0.05257
 C253 C 0.44799 0.55718 0.05049
 C254 C 0.41319 0.54432 0.02976
 C255 C 0.41019 0.52603 0.04591
 C256 C 0.42616 0.52361 0.06453
 C257 C 0.44502 0.53903 0.06691
 C258 C 0.46096 0.53661 0.08546
 C259 C 0.47987 0.55205 0.08783
 C260 C 0.48282 0.56995 0.07127
 H261 H 0.42268 0.57926 0.00126
 H262 H 0.48450 0.60233 0.03833
 H263 H 0.40115 0.54613 0.01517
 H264 H 0.42380 0.50981 0.07727
 H265 H 0.45846 0.52289 0.09826
 H266 H 0.49756 0.58168 0.07282
 C267 C 0.56753 -0.04252 0.02138
 C268 C 0.56142 -0.06019 0.00486
 C269 C 0.54220 -0.07477 0.00850
 C270 C 0.52929 -0.07176 0.02902
 C271 C 0.53526 -0.05427 0.04571
 C272 C 0.55435 -0.03948 0.04187
 C273 C 0.58650 -0.02775 0.01767
 C274 C 0.59246 -0.00987 0.03411
 C275 C 0.57920 -0.00691 0.05447
 C276 C 0.56023 -0.02163 0.05849
 C277 C 0.54700 -0.01876 0.07882
 C278 C 0.52800 -0.03358 0.08283
 C279 C 0.52238 -0.05138 0.06618
 H280 H 0.57137 -0.06238 -0.01101
 H281 H 0.51467 -0.08321 0.03207
 H282 H 0.59643 -0.02991 0.00179
 H283 H 0.58386 0.00667 0.06732
 H284 H 0.55131 -0.00478 0.09136
 H285 H 0.50806 -0.06320 0.06924
 C286 C 1.05479 0.45240 0.51389
 C287 C 1.04982 0.43321 0.49868
 C288 C 1.02944 0.41977 0.50111
 C289 C 1.01423 0.42609 0.51940
 C290 C 1.01912 0.44509 0.53479
 C291 C 1.03941 0.45835 0.53205
 C292 C 1.07483 0.46588 0.51102
 C293 C 1.07985 0.48516 0.52619
 C294 C 1.06451 0.49081 0.54446
 C295 C 1.04433 0.47755 0.54748
 C296 C 1.02896 0.48320 0.56565
 C297 C 1.00870 0.46991 0.56854
 C298 C 1.00400 0.45086 0.55304
 H299 H 1.06150 0.42953 0.48438
 H300 H 0.99894 0.41568 0.52251
 H301 H 1.08635 0.46160 0.49671
 H302 H 1.06838 0.50540 0.55646
 H303 H 1.03261 0.49809 0.57736
 H304 H 0.98865 0.44024 0.55537
 C305 C 0.42375 -0.00475 0.22057
 H306 H 0.42576 0.01013 0.23264
 C307 C 0.43848 -0.00725 0.20148
 H308 H 0.45174 0.00589 0.19884
 C309 C 0.40354 -0.03958 0.20903
 H310 H 0.39000 -0.05221 0.21207
 C311 C 0.41777 -0.04266 0.18963
 H312 H 0.41507 -0.05773 0.17791
 N313 N 0.40640 -0.02052 0.22370
 C314 C 0.34959 0.01717 0.25729
 H315 H 0.34671 0.00589 0.27210
 C316 C 0.33531 0.03689 0.25356
 H317 H 0.32152 0.04086 0.26571
 C318 C 0.37128 0.02580 0.22355
 H319 H 0.38511 0.02129 0.21171
 C320 C 0.35754 0.04579 0.21927
 H321 H 0.36093 0.05648 0.20413
 Zn322 Zn 0.38609 -0.01464 0.24890
 N323 N 0.36733 0.01219 0.24252
 C324 C 0.40139 0.01140 0.28905
 N325 N 0.40426 -0.00892 0.27616
 C326 C 0.42066 -0.02530 0.28203
 C327 C 0.43470 -0.02176 0.30184
 C328 C 0.41500 0.01562 0.30903
 C329 C 0.35007 -0.04563 0.23632
 C330 C 0.33431 -0.06400 0.23917
 C331 C 0.35167 -0.07164 0.27704
 C332 C 0.36709 -0.05315 0.27345
 N333 N 0.36615 -0.04068 0.25326
 H334 H 0.38856 0.02441 0.28392
 H335 H 0.42282 -0.04112 0.27124
 H336 H 0.44781 -0.03491 0.30608
 H337 H 0.41213 0.03169 0.31930
 H338 H 0.34943 -0.03516 0.22060
 H339 H 0.32182 -0.06784 0.22535
 H340 H 0.35247 -0.08108 0.29340
 H341 H 0.37956 -0.04857 0.28700
 C342 C 0.33936 0.05158 0.23444
 C343 C 0.43531 -0.02618 0.18551
 C344 C 0.33497 -0.07728 0.25978
 C345 C 0.43191 -0.00109 0.31568
 C346 C 0.08698 -0.01109 0.71696
 H347 H 0.08367 -0.02687 0.72690
 C348 C 0.07342 -0.00603 0.69724
 H349 H 0.05954 -0.01796 0.69221
 C350 C 0.10867 0.02397 0.71201
 H351 H 0.12227 0.03574 0.71795
 C352 C 0.09547 0.02975 0.69220
 H353 H 0.09935 0.04578 0.68284
 N354 N 0.10440 0.00368 0.72377
 C355 C 0.15378 -0.04054 0.76233
 H356 H 0.15518 -0.03066 0.77869
 C357 C 0.16745 -0.06083 0.75865
 H358 H 0.17908 -0.06668 0.77244
 C359 C 0.13704 -0.04474 0.72441
 H360 H 0.12560 -0.03817 0.71087
 C361 C 0.15031 -0.06514 0.72003
 H362 H 0.14884 -0.07403 0.70312
 Zn363 Zn 0.12168 -0.00458 0.75092
 N364 N 0.13882 -0.03300 0.74537
 C365 C 0.10044 -0.02758 0.78942
 N366 N 0.10033 -0.00818 0.77553
 C367 C 0.08487 0.00985 0.77888
 C368 C 0.06921 0.00923 0.79725
 C369 C 0.08512 -0.02888 0.80812
 C370 C 0.16074 0.02410 0.74445
 C371 C 0.17702 0.04155 0.75021
 C372 C 0.15677 0.04924 0.78633
 C373 C 0.14092 0.03168 0.77990
 N374 N 0.14301 0.01966 0.75916
 H375 H 0.11263 -0.04189 0.78631
 H376 H 0.08497 0.02494 0.76739
 H377 H 0.05707 0.02381 0.79954
 H378 H 0.08600 -0.04411 0.81943
 H379 H 0.16224 0.01400 0.72825
 H380 H 0.19112 0.04469 0.73838
 H381 H 0.15452 0.05885 0.80274
 H382 H 0.12702 0.02765 0.79160
 C383 C 0.16580 -0.07343 0.73724
 C384 C 0.07765 0.01458 0.68451
 C385 C 0.17514 0.05440 0.77143
 C386 C 0.06939 -0.01017 0.81240
 C387 C 0.57812 0.49520 0.22699
 H388 H 0.57586 0.48066 0.23888
 C389 C 0.56306 0.49781 0.20791
 H390 H 0.54908 0.48530 0.20539
 C391 C 0.59877 0.52949 0.21639
 H392 H 0.61263 0.54187 0.21984
 C393 C 0.58411 0.53276 0.19703
 H394 H 0.58711 0.54749 0.18553
 N395 N 0.59572 0.51074 0.23070
 C396 C 0.65067 0.47255 0.26744
 H397 H 0.65324 0.48395 0.28267
 C398 C 0.66522 0.45291 0.26375
 H399 H 0.67884 0.44911 0.27637
 C400 C 0.62996 0.46381 0.23230
 H401 H 0.61655 0.46834 0.21978
 C402 C 0.64392 0.44388 0.22807
 H403 H 0.64104 0.43325 0.21234
 Zn404 Zn 0.61518 0.50533 0.25702
 N405 N 0.63342 0.47759 0.25182
 C406 C 0.59717 0.48216 0.29681
 N407 N 0.59566 0.50166 0.28313
 C408 C 0.57931 0.51875 0.28698
 C409 C 0.56372 0.51671 0.30530
 C410 C 0.58195 0.47943 0.31539
 C411 C 0.65244 0.53496 0.24637
 C412 C 0.66858 0.55303 0.25017
 C413 C 0.64992 0.56276 0.28674
 C414 C 0.63418 0.54452 0.28227
 N415 N 0.63563 0.53110 0.26230
 H416 H 0.61007 0.46862 0.29329
 H417 H 0.57827 0.53390 0.27559
 H418 H 0.55060 0.53033 0.30778
 H419 H 0.58364 0.46393 0.32626
 H420 H 0.65347 0.52375 0.23084
 H421 H 0.68208 0.55553 0.23749
 H422 H 0.64830 0.57336 0.30264
 H423 H 0.62097 0.54098 0.29492
 C424 C 0.66188 0.43829 0.24385
 C425 C 0.56604 0.51670 0.19251
 C426 C 0.66753 0.56714 0.27066
 C427 C 0.56486 0.49681 0.31980
 C428 C 0.92389 0.51411 0.72043
 H429 H 0.92522 0.52866 0.73299
 C430 C 0.93976 0.51207 0.70226
 H431 H 0.95321 0.52521 0.70077
 C432 C 0.90463 0.47932 0.70709
 H433 H 0.89110 0.46645 0.70918
 C434 C 0.91996 0.47675 0.68851
 H435 H 0.91811 0.46183 0.67643
 N436 N 0.90668 0.49795 0.72243
 C437 C 0.84720 0.53080 0.75627
 H438 H 0.84475 0.51886 0.77066
 C439 C 0.83162 0.54952 0.75264
 H440 H 0.81727 0.55206 0.76447
 C441 C 0.86903 0.54207 0.72345
 H442 H 0.88348 0.53898 0.71195
 C443 C 0.85399 0.56109 0.71929
 H444 H 0.85699 0.57245 0.70454
 Zn445 Zn 0.88606 0.50196 0.74769
 N446 N 0.86557 0.52758 0.74187
 C447 C 0.89935 0.52754 0.78892
 N448 N 0.90400 0.50833 0.77494
 C449 C 0.92228 0.49368 0.77949
 C450 C 0.93668 0.49802 0.79886
 C451 C 0.91321 0.53243 0.80858
 C452 C 0.85150 0.46918 0.73530
 C453 C 0.83718 0.44957 0.73797
 C454 C 0.85730 0.44094 0.77423
 C455 C 0.87115 0.46077 0.77093
 N456 N 0.86814 0.47434 0.75162
 H457 H 0.88503 0.53923 0.78477
 H458 H 0.92571 0.47867 0.76793
 H459 H 0.95108 0.48609 0.80232
 H460 H 0.90942 0.54791 0.81943
 H461 H 0.84927 0.48045 0.72027
 H462 H 0.82411 0.44565 0.72474
 H463 H 0.85975 0.43054 0.78986
 H464 H 0.88411 0.46542 0.78396
 C465 C 0.83506 0.56504 0.73405
 C466 C 0.93777 0.49328 0.68592
 C467 C 0.83999 0.43518 0.75767
 C468 C 0.93220 0.51762 0.81368
 C469 C 0.22923 0.41046 0.02296
 H470 H 0.24101 0.41225 0.03775
 C471 C 0.21162 0.42722 0.01966
 H472 H 0.21018 0.44203 0.03191
 C473 C 0.21763 0.38944 -0.01146
 H474 H 0.22015 0.37484 -0.02367
 C475 C 0.19960 0.40562 -0.01527
 H476 H 0.18814 0.40290 -0.03020
 N477 N 0.23189 0.39203 0.00752
 C478 C 0.26479 0.33264 0.04291
 H479 H 0.28014 0.33000 0.03249
 C480 C 0.25984 0.31691 0.06079
 H481 H 0.27144 0.30208 0.06393
 C482 C 0.23052 0.35466 0.05068
 H483 H 0.21900 0.36923 0.04653
 C484 C 0.22496 0.33944 0.06876
 H485 H 0.20936 0.34280 0.07862
 Zn486 Zn 0.25693 0.37092 0.01290
 N487 N 0.25020 0.35108 0.03825
 C488 C 0.29637 0.38656 0.03930
 N489 N 0.28319 0.38975 0.01968
 C490 C 0.28751 0.40764 0.00469
 C491 C 0.30574 0.42322 0.00914
 C492 C 0.31492 0.40167 0.04435
 C493 C 0.24626 0.33449 -0.01959
 C494 C 0.24929 0.31986 -0.03934
 C495 C 0.28518 0.33998 -0.04672
 C496 C 0.28153 0.35411 -0.02679
 N497 N 0.26212 0.35142 -0.01389
 H498 H 0.29238 0.37251 0.05121
 H499 H 0.27658 0.40992 -0.01064
 H500 H 0.30897 0.43729 -0.00307
 H501 H 0.32510 0.39911 0.06018
 H502 H 0.23113 0.33251 -0.00885
 H503 H 0.23627 0.30680 -0.04388
 H504 H 0.30072 0.34239 -0.05678
 H505 H 0.29422 0.36725 -0.02171
 C506 C 0.23963 0.32018 0.07396
 C507 C 0.19645 0.42494 0.00034
 C508 C 0.26887 0.32269 -0.05331
 C509 C 0.31966 0.42039 0.02924
 C510 C 0.71889 0.10174 -0.00953
 H511 H 0.72937 0.09865 -0.02486
 C512 C 0.70044 0.08671 -0.00499
 H513 H 0.69661 0.07228 -0.01715
 C514 C 0.71116 0.12449 0.02481
 H515 H 0.71561 0.13898 0.03660
 C516 C 0.69256 0.10989 0.03004
 H517 H 0.68290 0.11334 0.04588
 N518 N 0.72372 0.12035 0.00515
 C519 C 0.75928 0.17282 -0.03639
 H520 H 0.77466 0.17568 -0.02575
 C521 C 0.75555 0.18611 -0.05656
 H522 H 0.76827 0.19906 -0.06152
 C523 C 0.72392 0.15253 -0.04278
 H524 H 0.71139 0.13979 -0.03717
 C525 C 0.71964 0.16523 -0.06320
 H526 H 0.70382 0.16207 -0.07311
 Zn527 Zn 0.74940 0.13950 -0.00196
 N528 N 0.74361 0.15632 -0.02997
 C529 C 0.78734 0.11773 -0.02571
 N530 N 0.77522 0.11877 -0.00545
 C531 C 0.78012 0.10377 0.01239
 C532 C 0.79796 0.08701 0.01034
 C533 C 0.80529 0.10116 -0.02854
 C534 C 0.73857 0.17970 0.02542
 C535 C 0.74096 0.19642 0.04363
 C536 C 0.77655 0.17691 0.05534
 C537 C 0.77359 0.16069 0.03678
 N538 N 0.75459 0.16208 0.02254
 H539 H 0.78282 0.12939 -0.03992
 H540 H 0.76996 0.10470 0.02816
 H541 H 0.80168 0.07542 0.02487
 H542 H 0.81436 0.10027 -0.04501
 H543 H 0.72371 0.18052 0.01372
 H544 H 0.72779 0.21002 0.04596
 H545 H 0.79169 0.17545 0.06662
 H546 H 0.78641 0.14692 0.03394
 C547 C 0.73554 0.18230 -0.07029
 C548 C 0.68695 0.09073 0.01501
 C549 C 0.76001 0.19495 0.05905
 C550 C 0.81073 0.08540 -0.01041
 C551 C 0.21290 0.58979 0.48420
 H552 H 0.22347 0.58637 0.46899
 C553 C 0.19410 0.57516 0.48870
 H554 H 0.19014 0.56060 0.47673
 C555 C 0.20499 0.61324 0.51805
 H556 H 0.20935 0.62796 0.52958
 C557 C 0.18597 0.59918 0.52312
 H558 H 0.17593 0.60323 0.53858
 N559 N 0.21777 0.60861 0.49863
 C560 C 0.24998 0.66418 0.45838
 H561 H 0.26544 0.66741 0.46879
 C562 C 0.24502 0.67824 0.43900
 H563 H 0.25696 0.69209 0.43441
 C564 C 0.21568 0.64215 0.45176
 H565 H 0.20407 0.62834 0.45698
 C566 C 0.21010 0.65573 0.43221
 H567 H 0.19418 0.65220 0.42260
 Zn568 Zn 0.24288 0.62851 0.49125
 N569 N 0.23546 0.64642 0.46427
 C570 C 0.28226 0.61174 0.46630
 N571 N 0.26940 0.60907 0.48587
 C572 C 0.27489 0.59218 0.50182
 C573 C 0.29423 0.57746 0.49863
 C574 C 0.30185 0.59755 0.46253
 C575 C 0.23305 0.66836 0.51960
 C576 C 0.23590 0.68454 0.53821
 C577 C 0.27062 0.66335 0.54975
 C578 C 0.26722 0.64770 0.53081
 N579 N 0.24846 0.65023 0.51640
 H580 H 0.27742 0.62488 0.45356
 H581 H 0.26424 0.59023 0.51711
 H582 H 0.29852 0.56434 0.51168
 H583 H 0.31186 0.59993 0.44685
 H584 H 0.21834 0.67005 0.50781
 H585 H 0.22322 0.69858 0.54075
 H586 H 0.28559 0.66101 0.56112
 H587 H 0.27948 0.63343 0.52780
 C588 C 0.22486 0.67407 0.42560
 C589 C 0.18019 0.57999 0.50824
 C590 C 0.25476 0.68197 0.55373
 C591 C 0.30809 0.58018 0.47884
 C592 C 0.72259 0.91394 0.51645
 H593 H 0.73312 0.91322 0.53223
 C594 C 0.70555 0.93150 0.51416
 H595 H 0.70283 0.94409 0.52842
 C596 C 0.71322 0.89811 0.47882
 H597 H 0.71649 0.88530 0.46495
 C598 C 0.69603 0.91536 0.47579
 H599 H 0.68623 0.91564 0.45950
 N600 N 0.72585 0.89749 0.49906
 C601 C 0.75570 0.83536 0.53273
 H602 H 0.77112 0.83269 0.52244
 C603 C 0.75031 0.81934 0.55020
 H604 H 0.76167 0.80429 0.55323
 C605 C 0.72163 0.85771 0.54049
 H606 H 0.71027 0.87242 0.53640
 C607 C 0.71556 0.84212 0.55808
 H608 H 0.69979 0.84535 0.56772
 Zn609 Zn 0.74920 0.87424 0.50345
 N610 N 0.74151 0.85420 0.52836
 C611 C 0.78998 0.88615 0.52954
 N612 N 0.77713 0.89049 0.50994
 C613 C 0.78321 0.90763 0.49476
 C614 C 0.80303 0.92112 0.49893
 C615 C 0.81005 0.89913 0.53431
 C616 C 0.73404 0.84010 0.47091
 C617 C 0.73520 0.82473 0.45152
 C618 C 0.77337 0.83966 0.44371
 C619 C 0.77151 0.85469 0.46330
 N620 N 0.75197 0.85477 0.47633
 H621 H 0.78466 0.87277 0.54163
 H622 H 0.77242 0.91101 0.47953
 H623 H 0.80724 0.93501 0.48685
 H624 H 0.82021 0.89518 0.54985
 H625 H 0.71886 0.84026 0.48182
 H626 H 0.72086 0.81296 0.44772
 H627 H 0.78891 0.84014 0.43334
 H628 H 0.78571 0.86621 0.46809
 C629 C 0.72997 0.82261 0.56311
 C630 C 0.69188 0.93224 0.49367
 C631 C 0.75507 0.82436 0.43761
 C632 C 0.81678 0.91696 0.51894
 C633 C 0.01976 0.21142 0.40422
 H634 H 0.03433 0.22337 0.40470
 C635 C 0.01886 0.19272 0.41993
 H636 H 0.03278 0.19049 0.43260
 C637 C -0.01644 0.20040 0.38753
 H638 H -0.03020 0.20354 0.37495
 C639 C -0.01802 0.18146 0.40289
 H640 H -0.03293 0.16995 0.40169
 N641 N 0.00233 0.21481 0.38836
 C642 C 0.03046 0.25137 0.32852
 H643 H 0.01869 0.26636 0.32739
 C644 C 0.04819 0.24859 0.31228
 H645 H 0.05014 0.26170 0.29881
 C646 C 0.04243 0.21632 0.34783
 H647 H 0.04002 0.20366 0.36155
 C648 C 0.06038 0.21288 0.33199
 H649 H 0.07158 0.19747 0.33368
 Zn650 Zn 0.00446 0.24094 0.36814
 N651 N 0.02820 0.23559 0.34611
 C652 C 0.02952 0.28219 0.38175
 N653 N 0.01127 0.26815 0.38682
 C654 C -0.00192 0.27258 0.40598
 C655 C 0.00282 0.29203 0.42071
 C656 C 0.03479 0.30189 0.39592
 C657 C -0.02824 0.22990 0.33323
 C658 C -0.04811 0.23282 0.31937
 C659 C -0.05847 0.26701 0.34323
 C660 C -0.03823 0.26363 0.35642
 N661 N -0.02365 0.24524 0.35129
 H662 H 0.04012 0.27818 0.36676
 H663 H -0.01604 0.26085 0.40989
 H664 H -0.00769 0.29502 0.43606
 H665 H 0.04912 0.31308 0.39128
 H666 H -0.01620 0.21559 0.32935
 H667 H -0.05101 0.22077 0.30468
 H668 H -0.07001 0.28150 0.34795
 H669 H -0.03422 0.27576 0.37071
 C670 C 0.06361 0.22930 0.31410
 C671 C -0.00023 0.17742 0.41940
 C672 C -0.06358 0.25162 0.32424
 C673 C 0.02137 0.30704 0.41573
 C674 C -0.01696 0.72133 0.07920
 H675 H -0.03072 0.73401 0.07576
 C676 C -0.01296 0.70257 0.06345
 H677 H -0.02359 0.70118 0.04775
 C678 C 0.01412 0.70855 0.10347
 H679 H 0.02476 0.71102 0.11898
 C680 C 0.01854 0.68935 0.08835
 H681 H 0.03232 0.67701 0.09276
 N682 N -0.00351 0.72396 0.09877
 C683 C -0.04286 0.76046 0.15311
 H684 H -0.03231 0.77598 0.15640
 C685 C -0.06219 0.75641 0.16688
 H686 H -0.06662 0.76913 0.18057
 C687 C -0.04972 0.72496 0.13133
 H688 H -0.04459 0.71251 0.11774
 C689 C -0.06920 0.72024 0.14465
 H690 H -0.07882 0.70411 0.14119
 Zn691 Zn -0.00973 0.75033 0.11875
 N692 N -0.03704 0.74483 0.13572
 C693 C -0.03219 0.79178 0.10111
 N694 N -0.01326 0.77731 0.09957
 C695 C 0.00312 0.78073 0.08309
 C696 C 0.00073 0.79917 0.06718
 C697 C -0.03511 0.81063 0.08571
 C698 C 0.01742 0.73855 0.15796
 C699 C 0.03542 0.74068 0.17440
 C700 C 0.04769 0.77624 0.15515
 C701 C 0.02941 0.77345 0.13912
 N702 N 0.01491 0.75465 0.14061
 H703 H -0.04524 0.78853 0.11401
 H704 H 0.01786 0.76879 0.08206
 H705 H 0.01388 0.80155 0.05409
 H706 H -0.05043 0.82178 0.08693
 H707 H 0.00543 0.72395 0.15896
 H708 H 0.03703 0.72773 0.18814
 H709 H 0.05938 0.79099 0.15328
 H710 H 0.02698 0.78622 0.12538
 C711 C -0.07558 0.73600 0.16281
 C712 C 0.00497 0.68618 0.06793
 C713 C 0.05097 0.75965 0.17305
 C714 C -0.01864 0.81433 0.06831
 C715 C 0.48252 0.22372 0.59481
 H716 H 0.46748 0.23525 0.59385
 C717 C 0.48543 0.20549 0.57823
 H718 H 0.47262 0.20329 0.56438
 C719 C 0.51772 0.21310 0.61382
 H720 H 0.53031 0.21619 0.62764
 C721 C 0.52127 0.19458 0.59764
 H722 H 0.53645 0.18333 0.59949
 N723 N 0.49839 0.22698 0.61233
 C724 C 0.46082 0.25915 0.67062
 H725 H 0.47057 0.27524 0.67375
 C726 C 0.44199 0.25402 0.68474
 H727 H 0.43714 0.26646 0.69852
 C728 C 0.45525 0.22352 0.64869
 H729 H 0.46065 0.21145 0.63489
 C730 C 0.43634 0.21769 0.66236
 H731 H 0.42744 0.20113 0.65889
 Zn732 Zn 0.49256 0.25188 0.63421
 N733 N 0.46686 0.24412 0.65280
 C734 C 0.46658 0.29259 0.61997
 N735 N 0.48634 0.27966 0.61682
 C736 C 0.50178 0.28542 0.60009
 C737 C 0.49768 0.30489 0.58576
 C738 C 0.46190 0.31235 0.60616
 C739 C 0.52368 0.23905 0.67001
 C740 C 0.54249 0.24157 0.68544
 C741 C 0.54996 0.27992 0.66889
 C742 C 0.53096 0.27672 0.65385
 N743 N 0.51843 0.25639 0.65446
 H744 H 0.45424 0.28746 0.63293
 H745 H 0.51721 0.27466 0.59775
 H746 H 0.51018 0.30923 0.57257
 H747 H 0.44597 0.32228 0.60870
 H748 H 0.51325 0.22319 0.67031
 H749 H 0.54663 0.22741 0.69743
 H750 H 0.55965 0.29627 0.66823
 H751 H 0.52623 0.29053 0.64176
 C752 C 0.42939 0.23309 0.68058
 C753 C 0.50491 0.19046 0.57963
 C754 C 0.55600 0.26217 0.68490
 C755 C 0.47748 0.31860 0.58869
 C756 C 0.51342 0.72432 0.91204
 H757 H 0.52777 0.73648 0.91373
 C758 C 0.51043 0.70688 0.92876
 H759 H 0.52240 0.70608 0.94346
 C760 C 0.48002 0.71140 0.89115
 H761 H 0.46817 0.71328 0.87651
 C762 C 0.47655 0.69344 0.90731
 H763 H 0.46220 0.68143 0.90460
 N764 N 0.49835 0.72625 0.89369
 C765 C 0.53330 0.75553 0.83385
 H766 H 0.52304 0.77136 0.83075
 C767 C 0.55179 0.74982 0.81923
 H768 H 0.55583 0.76149 0.80499
 C769 C 0.54081 0.72143 0.85660
 H770 H 0.53643 0.71036 0.87113
 C771 C 0.55946 0.71508 0.84247
 H772 H 0.56919 0.69903 0.84620
 Zn773 Zn 0.50396 0.75074 0.87226
 N774 N 0.52842 0.74157 0.85231
 C775 C 0.53244 0.78969 0.88576
 N776 N 0.51241 0.77809 0.89001
 C777 C 0.49854 0.78482 0.90804
 C778 C 0.50460 0.80397 0.92262
 C779 C 0.53910 0.80903 0.89982
 C780 C 0.47096 0.74070 0.83697
 C781 C 0.45190 0.74498 0.82229
 C782 C 0.44640 0.78289 0.84194
 C783 C 0.46562 0.77793 0.85615
 N784 N 0.47736 0.75703 0.85357
 H785 H 0.54345 0.78387 0.87162
 H786 H 0.48293 0.77499 0.91130
 H787 H 0.49358 0.80866 0.93720
 H788 H 0.55499 0.81817 0.89599
 H789 H 0.48087 0.72441 0.83498
 H790 H 0.44734 0.73191 0.80894
 H791 H 0.43710 0.79947 0.84458
 H792 H 0.47113 0.79087 0.86917
 C793 C 0.56530 0.72948 0.82364
 C794 C 0.49187 0.69100 0.92649
 C795 C 0.43932 0.76634 0.82467
 C796 C 0.52518 0.81633 0.91864
 C797 C 0.16389 0.20581 0.28422
 C798 C 0.16092 0.20962 0.26010
 C799 C 0.13923 0.21729 0.25155
 C800 C 0.12062 0.22066 0.26685
 C801 C 0.12379 0.21648 0.29103
 C802 C 0.14552 0.20924 0.29955
 C803 C 0.10516 0.21947 0.30630
 C804 C 0.08326 0.22649 0.29779
 C805 C 0.08031 0.23080 0.27375
 C806 C 0.09882 0.22789 0.25841
 H807 H 0.13670 0.22007 0.23295
 H808 H 0.14826 0.20608 0.31805
 H809 H 0.10775 0.21649 0.32486
 H810 H 0.09606 0.23114 0.23993
 H811 H 0.18053 0.20023 0.29125
 H812 H 0.06357 0.23605 0.26675
 C813 C 0.62275 0.71895 0.73305
 C814 C 0.64358 0.71142 0.74366
 C815 C 0.64447 0.70855 0.76807
 C816 C 0.62491 0.71331 0.78172
 C817 C 0.60412 0.72107 0.77088
 C818 C 0.60319 0.72371 0.74653
 C819 C 0.58465 0.72616 0.78459
 C820 C 0.58568 0.72360 0.80904
 C821 C 0.60642 0.71573 0.81959
 C822 C 0.62586 0.71064 0.80606
 H823 H 0.66051 0.70307 0.77651
 H824 H 0.58737 0.72954 0.73791
 H825 H 0.56868 0.73195 0.77623
 H826 H 0.64167 0.70477 0.81466
 H827 H 0.62154 0.72100 0.71425
 H828 H 0.60775 0.71392 0.83840
 C829 C 0.35029 0.74510 0.76632
 C830 C 0.34632 0.76825 0.75826
 C831 C 0.36163 0.78643 0.76511
 C832 C 0.38073 0.78155 0.77973
 C833 C 0.38453 0.75822 0.78779
 C834 C 0.36918 0.74014 0.78102
 C835 C 0.40360 0.75336 0.80247
 C836 C 0.41911 0.77148 0.80912
 C837 C 0.41519 0.79458 0.80083
 C838 C 0.39618 0.79958 0.78634
 H839 H 0.35887 0.80429 0.75876
 H840 H 0.37179 0.72216 0.78706
 H841 H 0.40619 0.73553 0.80894
 H842 H 0.39362 0.81753 0.78021
 H843 H 0.33860 0.73087 0.76144
 H844 H 0.42703 0.80880 0.80532
 C845 C -0.14007 0.30860 0.27180
 C846 C -0.15175 0.28920 0.26114
 C847 C -0.14336 0.26604 0.26573
 C848 C -0.12399 0.26243 0.28036
 C849 C -0.11236 0.28210 0.29042
 C850 C -0.12056 0.30508 0.28606
 C851 C -0.09269 0.27851 0.30463
 C852 C -0.08464 0.25538 0.30938
 C853 C -0.09671 0.23591 0.29962
 C854 C -0.11609 0.23939 0.28518
 H855 H -0.15235 0.25062 0.25876
 H856 H -0.11180 0.32041 0.29358
 H857 H -0.08349 0.29378 0.31167
 H858 H -0.12494 0.22404 0.27781
 H859 H -0.14520 0.32674 0.26836
 H860 H -0.09129 0.21789 0.30329
 C861 C -0.13054 0.72953 0.25479
 C862 C -0.15152 0.72061 0.24526
 C863 C -0.15264 0.71600 0.22083
 C864 C -0.13370 0.72072 0.20646
 C865 C -0.11311 0.72993 0.21645
 C866 C -0.11167 0.73409 0.24061
 C867 C -0.09427 0.73487 0.20214
 C868 C -0.09567 0.73083 0.17781
 C869 C -0.11624 0.72162 0.16800
 C870 C -0.13508 0.71663 0.18218
 H871 H -0.16851 0.70985 0.21259
 H872 H -0.09588 0.74085 0.24860
 H873 H -0.07839 0.74160 0.20999
 H874 H -0.15075 0.70965 0.17414
 H875 H -0.12814 0.73231 0.27345
 H876 H -0.11785 0.71854 0.14928
 C877 C 0.37186 0.22494 0.77097
 C878 C 0.35169 0.21486 0.76078
 C879 C 0.35152 0.21035 0.73633
 C880 C 0.37065 0.21590 0.72260
 C881 C 0.39053 0.22601 0.73321
 C882 C 0.39097 0.23037 0.75739
 C883 C 0.40965 0.23159 0.71947
 C884 C 0.40914 0.22728 0.69514
 C885 C 0.38919 0.21730 0.68475
 C886 C 0.37014 0.21167 0.69834
 H887 H 0.33619 0.20353 0.72754
 H888 H 0.40618 0.23791 0.76586
 H889 H 0.42501 0.23900 0.72776
 H890 H 0.35499 0.20405 0.68984
 H891 H 0.37350 0.22790 0.78968
 H892 H 0.38821 0.21411 0.66601
 C893 C 0.65518 0.29192 0.71468
 C894 C 0.65409 0.28624 0.73870
 C895 C 0.63345 0.27589 0.74674
 C896 C 0.61451 0.27197 0.73150
 C897 C 0.61598 0.27825 0.70775
 C898 C 0.63643 0.28800 0.69951
 C899 C 0.59694 0.27482 0.69262
 C900 C 0.57627 0.26520 0.70090
 C901 C 0.57503 0.25877 0.72453
 C902 C 0.59395 0.26216 0.73970
 H903 H 0.63141 0.27189 0.76506
 H904 H 0.63798 0.29260 0.68125
 H905 H 0.59824 0.27953 0.67436
 H906 H 0.59244 0.25725 0.75789
 H907 H 0.67080 0.29871 0.70712
 H908 H 0.55924 0.25152 0.73140
 C909 C 0.12294 0.81144 0.23674
 C910 C 0.13551 0.79126 0.24381
 C911 C 0.12820 0.76866 0.23607
 C912 C 0.10887 0.76631 0.22105
 C913 C 0.09653 0.78676 0.21388
 C914 C 0.10359 0.80922 0.22199
 C915 C 0.07748 0.78447 0.19853
 C916 C 0.07065 0.76198 0.18998
 C917 C 0.08299 0.74174 0.19738
 C918 C 0.10188 0.74387 0.21279
 H919 H 0.13790 0.75300 0.24124
 H920 H 0.09428 0.82509 0.21675
 H921 H 0.06794 0.80021 0.19329
 H922 H 0.11118 0.72800 0.21803
 H923 H 0.12808 0.82901 0.24271
 H924 H 0.07834 0.72423 0.19086
 C925 C 0.24917 0.11130 0.22741
 C926 C 0.25945 0.13310 0.22213
 C927 C 0.28365 0.13416 0.22006
 C928 C 0.29739 0.11381 0.22332
 C929 C 0.28687 0.09208 0.22889
 C930 C 0.26275 0.09099 0.23080
 C931 C 0.30064 0.07181 0.23248
 C932 C 0.32482 0.07293 0.23044
 C933 C 0.33509 0.09457 0.22468
 C934 C 0.32150 0.11486 0.22123
 H935 H 0.29184 0.15090 0.21631
 H936 H 0.25439 0.07445 0.23492
 H937 H 0.29256 0.05512 0.23664
 H938 H 0.32985 0.13138 0.21699
 H939 H 0.23056 0.10991 0.22874
 H940 H 0.35370 0.09588 0.22323
 C941 C 0.74093 0.61757 0.72306
 C942 C 0.74980 0.64000 0.71771
 C943 C 0.77393 0.64304 0.71724
 C944 C 0.78898 0.62394 0.72167
 C945 C 0.77988 0.60146 0.72696
 C946 C 0.75583 0.59849 0.72769
 C947 C 0.79498 0.58232 0.73124
 C948 C 0.81908 0.58532 0.73005
 C949 C 0.82790 0.60777 0.72481
 C950 C 0.81300 0.62694 0.72075
 H951 H 0.78103 0.66032 0.71355
 H952 H 0.74855 0.58136 0.73164
 H953 H 0.78801 0.56501 0.73503
 H954 H 0.82026 0.64407 0.71677
 H955 H 0.72243 0.61467 0.72328
 H956 H 0.84640 0.61055 0.72408
 C957 C 0.74760 0.38037 0.76157
 C958 C 0.75670 0.35882 0.76992
 C959 C 0.78073 0.35666 0.77369
 C960 C 0.79543 0.37578 0.76938
 C961 C 0.78604 0.39736 0.76104
 C962 C 0.76213 0.39944 0.75714
 C963 C 0.80070 0.41656 0.75696
 C964 C 0.82465 0.41458 0.76126
 C965 C 0.83380 0.39301 0.76946
 C966 C 0.81934 0.37376 0.77342
 H967 H 0.78802 0.34006 0.77983
 H968 H 0.75462 0.41587 0.75084
 H969 H 0.79340 0.43320 0.75093
 H970 H 0.82684 0.35734 0.77975
 H971 H 0.72914 0.38263 0.75884
 H972 H 0.85222 0.39098 0.77267
 C973 C 0.23936 -0.12661 0.25901
 C974 C 0.24611 -0.14767 0.27051
 C975 C 0.26974 -0.15043 0.27679
 C976 C 0.28589 -0.13270 0.27215
 C977 C 0.27865 -0.11171 0.26097
 C978 C 0.25539 -0.10890 0.25439
 C979 C 0.29474 -0.09378 0.25675
 C980 C 0.31809 -0.09657 0.26354
 C981 C 0.32516 -0.11773 0.27435
 C982 C 0.30923 -0.13562 0.27860
 H983 H 0.27599 -0.16668 0.28461
 H984 H 0.24950 -0.09283 0.24590
 H985 H 0.28898 -0.07746 0.24864
 H986 H 0.31515 -0.15170 0.28705
 H987 H 0.22146 -0.12303 0.25445
 H988 H 0.34308 -0.12051 0.27942
 C989 C 0.25485 -0.13568 0.73742
 C990 C 0.24580 -0.15597 0.72567
 C991 C 0.22222 -0.15528 0.71858
 C992 C 0.20827 -0.13523 0.72323
 C993 C 0.21775 -0.11532 0.73509
 C994 C 0.24104 -0.11572 0.74203
 C995 C 0.20382 -0.09528 0.73975
 C996 C 0.18041 -0.09482 0.73268
 C997 C 0.17112 -0.11480 0.72095
 C998 C 0.18489 -0.13482 0.71630
 H999 H 0.21420 -0.17062 0.71031
 H1000 H 0.24868 -0.10048 0.75092
 H1001 H 0.21130 -0.07989 0.74853
 H1002 H 0.17725 -0.14997 0.70727
 H1003 H 0.27293 -0.13456 0.74238
 H1004 H 0.15309 -0.11504 0.71555
 C1005 C 0.75454 0.38292 0.23460
 C1006 C 0.74525 0.36084 0.22764
 C1007 C 0.72108 0.35869 0.22518
 C1008 C 0.70644 0.37822 0.22978
 C1009 C 0.71602 0.40019 0.23707
 C1010 C 0.74009 0.40237 0.23933
 C1011 C 0.70139 0.41965 0.24189
 C1012 C 0.67727 0.41755 0.23928
 C1013 C 0.66793 0.39566 0.23189
 C1014 C 0.68236 0.37614 0.22729
 H1015 H 0.71363 0.34175 0.22009
 H1016 H 0.74774 0.41912 0.24472
 H1017 H 0.70878 0.43655 0.24728
 H1018 H 0.67470 0.35943 0.22174
 H1019 H 0.77308 0.38521 0.23625
 H1020 H 0.64938 0.39359 0.22991
 C1021 C 0.73300 0.65093 0.24955
 C1022 C 0.74148 0.65456 0.27251
 C1023 C 0.73375 0.63979 0.29037
 C1024 C 0.71765 0.62181 0.28548
 C1025 C 0.70910 0.61841 0.26238
 C1026 C 0.71693 0.63304 0.24453
 C1027 C 0.69280 0.60052 0.25757
 C1028 C 0.68493 0.58596 0.27557
 C1029 C 0.69377 0.58945 0.29843
 C1030 C 0.70994 0.60719 0.30334
 H1031 H 0.74043 0.64216 0.30808
 H1032 H 0.71055 0.63073 0.22672
 H1033 H 0.68600 0.59820 0.23991
 H1034 H 0.71643 0.60946 0.32112
 H1035 H 0.73853 0.66219 0.23552
 H1036 H 0.68835 0.57824 0.31255
 C1037 C 0.23949 0.14069 0.75788
 C1038 C 0.24679 0.14336 0.78135
 C1039 C 0.23874 0.12742 0.79803
 C1040 C 0.22347 0.10917 0.79143
 C1041 C 0.21607 0.10678 0.76783
 C1042 C 0.22423 0.12260 0.75118
 C1043 C 0.20050 0.08874 0.76131
 C1044 C 0.19219 0.07302 0.77811
 C1045 C 0.19995 0.07543 0.80147
 C1046 C 0.21542 0.09333 0.80807
 H1047 H 0.24450 0.12910 0.81612
 H1048 H 0.21873 0.12106 0.73301
 H1049 H 0.19450 0.08726 0.74329
 H1050 H 0.22102 0.09481 0.82622
 H1051 H 0.24529 0.15288 0.74475
 H1052 H 0.19415 0.06334 0.81468
 C1053 C 0.25717 0.25276 0.15718
 C1054 C 0.23408 0.24597 0.16038
 C1055 C 0.21664 0.25554 0.14589
 C1056 C 0.22221 0.27152 0.12827
 C1057 C 0.24549 0.27822 0.12521
 C1058 C 0.26283 0.26880 0.13981
 C1059 C 0.25107 0.29417 0.10757
 C1060 C 0.23370 0.30344 0.09276
 C1061 C 0.21061 0.29656 0.09595
 C1062 C 0.20492 0.28080 0.11356
 H1063 H 0.19882 0.25020 0.14806
 H1064 H 0.28076 0.27377 0.13775
 H1065 H 0.26889 0.29954 0.10553
 H1066 H 0.18700 0.27576 0.11557
 H1067 H 0.27085 0.24579 0.16832
 H1068 H 0.19693 0.30311 0.08458
 C1069 C 0.74563 0.75546 0.64678
 C1070 C 0.72258 0.74811 0.64902
 C1071 C 0.70558 0.75711 0.63365
 C1072 C 0.71150 0.77323 0.61629
 C1073 C 0.73474 0.78047 0.61420
 C1074 C 0.75166 0.77149 0.62954
 C1075 C 0.74066 0.79659 0.59684
 C1076 C 0.72366 0.80561 0.58149
 C1077 C 0.70060 0.79827 0.58373
 C1078 C 0.69457 0.78222 0.60096
 H1079 H 0.68779 0.75136 0.63502
 H1080 H 0.76955 0.77691 0.62824
 H1081 H 0.75845 0.80233 0.59548
 H1082 H 0.67669 0.77680 0.60226
 H1083 H 0.75899 0.74902 0.65861
 H1084 H 0.68723 0.80470 0.57192
 C1085 C 0.80261 0.75555 0.36698
 C1086 C 0.78337 0.75169 0.35214
 C1087 C 0.76206 0.76250 0.35766
 C1088 C 0.76013 0.77741 0.37751
 C1089 C 0.77966 0.78131 0.39220
 C1090 C 0.80076 0.77014 0.38688
 C1091 C 0.77784 0.79644 0.41185
 C1092 C 0.75679 0.80801 0.41700
 C1093 C 0.73746 0.80393 0.40229
 C1094 C 0.73910 0.78874 0.38276
 H1095 H 0.74719 0.75980 0.34618
 H1096 H 0.81588 0.77287 0.39799
 H1097 H 0.79279 0.79910 0.42323
 H1098 H 0.72397 0.78604 0.37165
 H1099 H 0.81912 0.74719 0.36318
 H1100 H 0.72112 0.81281 0.40567
 C1101 C 0.27159 0.23096 -0.11500
 C1102 C 0.27957 0.24141 -0.13556
 C1103 C 0.28328 0.26607 -0.13568
 C1104 C 0.27944 0.28004 -0.11552
 C1105 C 0.27152 0.26934 -0.09493
 C1106 C 0.26757 0.24480 -0.09488
 C1107 C 0.26788 0.28335 -0.07470
 C1108 C 0.27224 0.30789 -0.07475
 C1109 C 0.28003 0.31830 -0.09539
 C1110 C 0.28354 0.30453 -0.11560
 H1111 H 0.28905 0.27444 -0.15151
 H1112 H 0.26156 0.23628 -0.07923
 H1113 H 0.26208 0.27509 -0.05882
 H1114 H 0.28955 0.31302 -0.13127
 H1115 H 0.26884 0.21199 -0.11434
 H1116 H 0.28322 0.33721 -0.09595
 C1117 C 0.72896 0.27180 -0.13176
 C1118 C 0.72165 0.26047 -0.15270
 C1119 C 0.71833 0.23572 -0.15290
 C1120 C 0.72245 0.22251 -0.13259
 C1121 C 0.73012 0.23411 -0.11179
 C1122 C 0.73322 0.25876 -0.11155
 C1123 C 0.73451 0.22089 -0.09157
 C1124 C 0.73112 0.19620 -0.09175
 C1125 C 0.72330 0.18486 -0.11246
 C1126 C 0.71910 0.19787 -0.13273
 H1127 H 0.71294 0.22668 -0.16893
 H1128 H 0.73892 0.26798 -0.09572
 H1129 H 0.74025 0.22984 -0.07560
 H1130 H 0.71324 0.18867 -0.14850
 H1131 H 0.73125 0.29087 -0.13095
 H1132 H 0.72073 0.16582 -0.11304
 C1133 C 0.21640 0.76596 0.36779
 C1134 C 0.20810 0.75549 0.34682
 C1135 C 0.20413 0.73087 0.34593
 C1136 C 0.20884 0.71685 0.36558
 C1137 C 0.21749 0.72758 0.38644
 C1138 C 0.22104 0.75216 0.38740
 C1139 C 0.22258 0.71356 0.40595
 C1140 C 0.21916 0.68886 0.40498
 C1141 C 0.21036 0.67840 0.38422
 C1142 C 0.20527 0.69225 0.36469
 H1143 H 0.19792 0.72256 0.32980
 H1144 H 0.22753 0.76070 0.40329
 H1145 H 0.22902 0.72191 0.42197
 H1146 H 0.19868 0.68369 0.34885
 H1147 H 0.21925 0.78493 0.36905
 H1148 H 0.20778 0.65939 0.38295
 C1149 C 0.27602 0.71131 0.65673
 C1150 C 0.27364 0.73603 0.65421
 C1151 C 0.26726 0.74503 0.63218
 C1152 C 0.26377 0.72960 0.61288
 C1153 C 0.26668 0.70484 0.61561
 C1154 C 0.27261 0.69588 0.63763
 C1155 C 0.26370 0.68944 0.59625
 C1156 C 0.25772 0.69838 0.57413
 C1157 C 0.25457 0.72300 0.57165
 C1158 C 0.25764 0.73848 0.59083
 H1159 H 0.26557 0.76404 0.62991
 H1160 H 0.27473 0.67694 0.64008
 H1161 H 0.26583 0.67045 0.59844
 H1162 H 0.25533 0.75740 0.58839
 H1163 H 0.28050 0.70386 0.67357
 H1164 H 0.25009 0.73031 0.55475
 C1165 C 0.78037 0.22710 0.16146
 C1166 C 0.77715 0.25166 0.15844
 C1167 C 0.77049 0.25998 0.13622
 C1168 C 0.76752 0.24405 0.11723
 C1169 C 0.77127 0.21947 0.12045
 C1170 C 0.77751 0.21118 0.14266
 C1171 C 0.76881 0.20359 0.10140
 C1172 C 0.76248 0.21187 0.07911
 C1173 C 0.75848 0.23630 0.07615
 C1174 C 0.76106 0.25227 0.09501
 H1175 H 0.76816 0.27887 0.13356
 H1176 H 0.78027 0.19237 0.14548
 H1177 H 0.77159 0.18474 0.10395
 H1178 H 0.75810 0.27104 0.09220
 H1179 H 0.78508 0.22014 0.17845
 H1180 H 0.75371 0.24310 0.05911
 C1181 C 0.46924 0.37264 0.49535
 C1182 C 0.46141 0.39453 0.50465
 C1183 C 0.45814 0.39683 0.52897
 C1184 C 0.46278 0.37763 0.54376
 C1185 C 0.47093 0.35586 0.53418
 C1186 C 0.47402 0.35354 0.50996
 C1187 C 0.47579 0.33674 0.54894
 C1188 C 0.47245 0.33896 0.57322
 C1189 C 0.46415 0.36061 0.58257
 C1190 C 0.45945 0.37981 0.56800
 H1191 H 0.45233 0.41363 0.53644
 H1192 H 0.48009 0.33692 0.50229
 H1193 H 0.48187 0.32001 0.54151
 H1194 H 0.45321 0.39635 0.57567
 H1195 H 0.47149 0.37019 0.47667
 H1196 H 0.46159 0.36276 0.60125
 C1197 C -0.04113 0.91535 0.03226
 C1198 C -0.03788 0.91049 0.00826
 C1199 C -0.03167 0.88727 0.00113
 C1200 C -0.02847 0.86932 0.01764
 C1201 C -0.03192 0.87441 0.04167
 C1202 C -0.03828 0.89748 0.04878
 C1203 C -0.02881 0.85639 0.05816
 C1204 C -0.02198 0.83341 0.05097
 C1205 C -0.01846 0.82860 0.02704
 C1206 C -0.02179 0.84635 0.01051
 H1207 H -0.02946 0.88307 -0.01730
 H1208 H -0.04086 0.90176 0.06714
 H1209 H -0.03136 0.86031 0.07661
 H1210 H -0.01909 0.84213 -0.00784
 H1211 H -0.04552 0.93311 0.03836
 H1212 H -0.01345 0.81096 0.02108
 C1213 C 0.06373 0.61224 0.01244
 C1214 C 0.04550 0.60115 -0.00022
 C1215 C 0.02268 0.60948 0.00363
 C1216 C 0.01826 0.62820 0.01953
 C1217 C 0.03679 0.63921 0.03168
 C1218 C 0.05943 0.63110 0.02801
 C1219 C 0.03240 0.65817 0.04730
 C1220 C 0.00960 0.66606 0.05135
 C1221 C -0.00876 0.65465 0.03941
 C1222 C -0.00446 0.63599 0.02359
 H1223 H 0.00809 0.60088 -0.00493
 H1224 H 0.07388 0.63941 0.03713
 H1225 H 0.04681 0.66693 0.05605
 H1226 H -0.01894 0.62760 0.01459
 H1227 H 0.08161 0.60720 0.00966
 H1228 H -0.02653 0.65995 0.04246
 C1229 C 0.55746 0.12014 0.51401
 C1230 C 0.53819 0.10689 0.50638
 C1231 C 0.51613 0.11308 0.51474
 C1232 C 0.51333 0.13217 0.53057
 C1233 C 0.53281 0.14541 0.53810
 C1234 C 0.55479 0.13928 0.52967
 C1235 C 0.52998 0.16449 0.55398
 C1236 C 0.50793 0.17045 0.56260
 C1237 C 0.48872 0.15705 0.55500
 C1238 C 0.49139 0.13814 0.53911
 H1239 H 0.50120 0.10277 0.50921
 H1240 H 0.56991 0.14925 0.53522
 H1241 H 0.54491 0.17481 0.55944
 H1242 H 0.47629 0.12810 0.53362
 H1243 H 0.57459 0.11583 0.50764
 H1244 H 0.47161 0.16097 0.56162
 C1245 C -0.04726 0.10694 0.48568
 C1246 C -0.02757 0.09309 0.49096
 C1247 C -0.00610 0.09935 0.48164
 C1248 C -0.00443 0.11885 0.46675
 C1249 C -0.02441 0.13246 0.46136
 C1250 C -0.04568 0.12648 0.47109
 C1251 C -0.02287 0.15166 0.44614
 C1252 C -0.00163 0.15743 0.43599
 C1253 C 0.01817 0.14388 0.44162
 C1254 C 0.01680 0.12480 0.45688
 H1255 H 0.00913 0.08865 0.48545
 H1256 H -0.06116 0.13677 0.46722
 H1257 H -0.03821 0.16218 0.44228
 H1258 H 0.03229 0.11454 0.46075
 H1259 H -0.06392 0.10260 0.49288
 H1260 H 0.03469 0.14775 0.43386
 C1261 C 0.43790 0.62227 0.98936
 C1262 C 0.45712 0.61148 1.00061
 C1263 C 0.47950 0.61907 0.99459
 C1264 C 0.48257 0.63663 0.97779
 C1265 C 0.46311 0.64735 0.96702
 C1266 C 0.44088 0.64008 0.97297
 C1267 C 0.46619 0.66514 0.95043
 C1268 C 0.48856 0.67208 0.94404
 C1269 C 0.50781 0.66090 0.95461
 C1270 C 0.50485 0.64347 0.97140
 H1271 H 0.49473 0.61063 1.00207
 H1272 H 0.42573 0.64819 0.96495
 H1273 H 0.45113 0.67373 0.94274
 H1274 H 0.52001 0.63525 0.97929
 H1275 H 0.42035 0.61778 0.99384
 H1276 H 0.52525 0.66541 0.94974
 C1277 C 0.51221 0.90413 0.98418
 C1278 C 0.53553 0.90679 0.99095
 C1279 C 0.55230 0.89143 0.98131
 C1280 C 0.54581 0.87332 0.96544
 C1281 C 0.52228 0.87070 0.95888
 C1282 C 0.50564 0.88632 0.96821
 C1283 C 0.51572 0.85237 0.94331
 C1284 C 0.53231 0.83632 0.93437
 C1285 C 0.55569 0.83918 0.94095
 C1286 C 0.56238 0.85754 0.95627
 H1287 H 0.57030 0.89321 0.98661
 H1288 H 0.48754 0.88461 0.96333
 H1289 H 0.49769 0.85062 0.93815
 H1290 H 0.58048 0.85922 0.96117
 H1291 H 0.49904 0.91595 0.99122
 H1292 H 0.56880 0.82690 0.93463
 C1293 C 0.00121 0.39376 0.48076
 C1294 C 0.02436 0.40035 0.48571
 C1295 C 0.04224 0.38688 0.47507
 C1296 C 0.03719 0.36734 0.46036
 C1297 C 0.01394 0.36113 0.45574
 C1298 C -0.00388 0.37452 0.46592
 C1299 C 0.00888 0.34157 0.44107
 C1300 C 0.02679 0.32785 0.43112
 C1301 C 0.04990 0.33411 0.43599
 C1302 C 0.05505 0.35370 0.45041
 H1303 H 0.06023 0.39071 0.47900
 H1304 H -0.02183 0.37013 0.46239
 H1305 H -0.00902 0.33719 0.43725
 H1306 H 0.07301 0.35808 0.45389
 H1307 H -0.01323 0.40395 0.48757
 H1308 H 0.06406 0.32366 0.42890
 C1309 C 0.36685 0.48750 0.47575
 C1310 C 0.38778 0.49758 0.46862
 C1311 C 0.38854 0.52221 0.46486
 C1312 C 0.36878 0.53652 0.46823
 C1313 C 0.34796 0.52617 0.47563
 C1314 C 0.34718 0.50164 0.47929
 C1315 C 0.32825 0.54048 0.47918
 C1316 C 0.32897 0.56505 0.47522
 C1317 C 0.34974 0.57513 0.46772
 C1318 C 0.36948 0.56102 0.46434
 H1319 H 0.40457 0.53032 0.45962
 H1320 H 0.33134 0.49337 0.48481
 H1321 H 0.31226 0.53247 0.48469
 H1322 H 0.38528 0.56929 0.45869
 H1323 H 0.36559 0.46856 0.47836
 H1324 H 0.35079 0.59404 0.46477
 C1325 C 0.90447 0.04212 -0.04280
 C1326 C 0.90176 0.01906 -0.03382
 C1327 C 0.88106 0.01424 -0.02183
 C1328 C 0.86382 0.03174 -0.01895
 C1329 C 0.86701 0.05462 -0.02801
 C1330 C 0.88740 0.05961 -0.03987
 C1331 C 0.84976 0.07212 -0.02509
 C1332 C 0.82917 0.06700 -0.01332
 C1333 C 0.82616 0.04406 -0.00451
 C1334 C 0.84330 0.02663 -0.00727
 H1335 H 0.87767 -0.00338 -0.01549
 H1336 H 0.89023 0.07714 -0.04680
 H1337 H 0.85247 0.08977 -0.03178
 H1338 H 0.84045 0.00911 -0.00032
 H1339 H 0.92022 0.04727 -0.05134
 H1340 H 0.81035 0.03943 0.00424
 C1341 C 0.63331 -0.00382 0.02131
 C1342 C 0.61247 0.00577 0.02988
 C1343 C 0.61075 0.03040 0.03412
 C1344 C 0.62951 0.04527 0.02966
 C1345 C 0.65033 0.03542 0.02095
 C1346 C 0.65208 0.01085 0.01693
 C1347 C 0.66904 0.05030 0.01633
 C1348 C 0.66722 0.07498 0.02020
 C1349 C 0.64643 0.08456 0.02892
 C1350 C 0.62775 0.06985 0.03362
 H1351 H 0.59467 0.03803 0.04046
 H1352 H 0.66794 0.00298 0.01033
 H1353 H 0.68507 0.04262 0.00994
 H1354 H 0.61189 0.07772 0.04022
 H1355 H 0.63514 -0.02277 0.01819
 H1356 H 0.64447 0.10353 0.03178
 C1357 C 0.12198 0.48851 0.51643
 C1358 C 0.10096 0.49955 0.52269
 C1359 C 0.10011 0.52444 0.52516
 C1360 C 0.11986 0.53810 0.52127
 C1361 C 0.14080 0.52681 0.51472
 C1362 C 0.14169 0.50200 0.51246
 C1363 C 0.16046 0.54052 0.51050
 C1364 C 0.15952 0.56541 0.51287
 C1365 C 0.13863 0.57642 0.51956
 C1366 C 0.11898 0.56291 0.52366
 H1367 H 0.08397 0.53323 0.52968
 H1368 H 0.15762 0.49302 0.50759
 H1369 H 0.17654 0.53183 0.50560
 H1370 H 0.10307 0.57187 0.52863
 H1371 H 0.12322 0.46936 0.51475
 H1372 H 0.13740 0.59557 0.52124
 C1373 C 0.12833 0.48764 -0.05680
 C1374 C 0.11650 0.49837 -0.03781
 C1375 C 0.12370 0.49250 -0.01485
 C1376 C 0.14172 0.47610 -0.01103
 C1377 C 0.15329 0.46568 -0.03028
 C1378 C 0.14657 0.47169 -0.05306
 C1379 C 0.17128 0.44928 -0.02648
 C1380 C 0.17762 0.44265 -0.00361
 C1381 C 0.16579 0.45301 0.01543
 C1382 C 0.14812 0.46966 0.01177
 H1383 H 0.11458 0.49963 0.00020
 H1384 H 0.15538 0.46398 -0.06804
 H1385 H 0.18042 0.44180 -0.04137
 H1386 H 0.13930 0.47731 0.02677
 H1387 H 0.12418 0.49214 -0.07472
 H1388 H 0.16996 0.44800 0.03322
 C1389 C 0.59587 0.97170 0.46395
 C1390 C 0.59904 0.99563 0.47115
 C1391 C 0.62031 1.00175 0.48214
 C1392 C 0.63788 0.98468 0.48535
 C1393 C 0.63430 0.96100 0.47776
 C1394 C 0.61322 0.95469 0.46725
 C1395 C 0.65190 0.94399 0.48070
 C1396 C 0.67324 0.95032 0.49100
 C1397 C 0.67663 0.97393 0.49860
 C1398 C 0.65912 0.99096 0.49580
 H1399 H 0.62387 1.01996 0.48727
 H1400 H 0.61009 0.93651 0.46157
 H1401 H 0.64891 0.92577 0.47510
 H1402 H 0.66224 1.00907 0.50167
 H1403 H 0.57963 0.96563 0.45647
 H1404 H 0.69300 0.97933 0.50637
 C1405 C 0.90373 0.97576 0.49639
 C1406 C 0.90911 0.98317 0.51943
 C1407 C 0.89548 0.97525 0.53792
 C1408 C 0.87646 0.96044 0.53341
 C1409 C 0.87115 0.95319 0.51015
 C1410 C 0.88499 0.96082 0.49179
 C1411 C 0.85195 0.93867 0.50560
 C1412 C 0.83769 0.93150 0.52394
 C1413 C 0.84323 0.93877 0.54702
 C1414 C 0.86247 0.95302 0.55172
 H1415 H 0.89935 0.98109 0.55572
 H1416 H 0.88120 0.95539 0.47386
 H1417 H 0.84814 0.93293 0.48776
 H1418 H 0.86622 0.95850 0.56964
 H1419 H 0.91415 0.98147 0.48192
 H1420 H 0.83239 0.93385 0.56146
 C1421 C 0.36855 0.51771 0.03614
 C1422 C 0.39055 0.50933 0.04304
 C1423 C 0.39382 0.48485 0.04663
 C1424 C 0.37548 0.46895 0.04300
 C1425 C 0.35357 0.47759 0.03567
 C1426 C 0.35024 0.50201 0.03248
 C1427 C 0.33540 0.46167 0.03146
 C1428 C 0.33877 0.43715 0.03447
 C1429 C 0.36050 0.42876 0.04213
 C1430 C 0.37873 0.44451 0.04631
 H1431 H 0.41074 0.47810 0.05170
 H1432 H 0.33351 0.50894 0.02702
 H1433 H 0.31860 0.46837 0.02591
 H1434 H 0.39540 0.43757 0.05193
 H1435 H 0.36547 0.53650 0.03364
 H1436 H 0.36353 0.40993 0.04443
 C1437 C 0.49944 0.44381 0.38612
 C1438 C 0.49261 0.46351 0.39989
 C1439 C 0.50107 0.48612 0.39460
 C1440 C 0.51655 0.48892 0.37607
 C1441 C 0.52340 0.46892 0.36247
 C1442 C 0.51461 0.44649 0.36753
 C1443 C 0.53904 0.47163 0.34411
 C1444 C 0.54817 0.49406 0.33918
 C1445 C 0.54119 0.51384 0.35283
 C1446 C 0.52551 0.51130 0.37106
 H1447 H 0.49605 0.50139 0.40525
 H1448 H 0.51962 0.43098 0.35725
 H1449 H 0.54393 0.45627 0.33354
 H1450 H 0.52054 0.52682 0.38135
 H1451 H 0.49295 0.42627 0.38972
 H1452 H 0.54813 0.53127 0.34964
 C1453 C 0.00390 -0.05358 0.88542
 C1454 C -0.00088 -0.03252 0.89810
 C1455 C 0.00918 -0.01118 0.89105
 C1456 C 0.02391 -0.01090 0.87169
 C1457 C 0.02855 -0.03217 0.85904
 C1458 C 0.01841 -0.05340 0.86604
 C1459 C 0.04327 -0.03186 0.83966
 C1460 C 0.05359 -0.01056 0.83278
 C1461 C 0.04890 0.01045 0.84563
 C1462 C 0.03417 0.01030 0.86483
 H1463 H 0.00584 0.00511 0.90086
 H1464 H 0.02173 -0.06988 0.85654
 H1465 H 0.04647 -0.04815 0.82981
 H1466 H 0.03093 0.02674 0.87441
 H1467 H -0.00384 -0.07019 0.89038
 H1468 H 0.05691 0.02702 0.84105
 C1469 C 0.02170 -0.00597 0.59323
 C1470 C 0.01350 0.01727 0.58954
 C1471 C 0.02053 0.03561 0.60502
 C1472 C 0.03511 0.03069 0.62424
 C1473 C 0.04292 0.00717 0.62794
 C1474 C 0.03630 -0.01097 0.61221
 C1475 C 0.05702 0.00212 0.64743
 C1476 C 0.06340 0.02022 0.66346
 C1477 C 0.05577 0.04361 0.65945
 C1478 C 0.04176 0.04879 0.64002
 H1479 H 0.01414 0.05355 0.60249
 H1480 H 0.04223 -0.02907 0.61471
 H1481 H 0.06307 -0.01592 0.65012
 H1482 H 0.03592 0.06692 0.63749
 H1483 H 0.01681 -0.02032 0.58136
 H1484 H 0.06025 0.05784 0.67163
 C1485 C 0.50423 0.56964 0.12029
 C1486 C 0.49650 0.54951 0.10766
 C1487 C 0.50452 0.52691 0.11422
 C1488 C 0.51991 0.52440 0.13323
 C1489 C 0.52742 0.54473 0.14594
 C1490 C 0.51953 0.56728 0.13928
 C1491 C 0.54257 0.54217 0.16517
 C1492 C 0.55036 0.51951 0.17189
 C1493 C 0.54294 0.49946 0.15893
 C1494 C 0.52785 0.50187 0.13980
 H1495 H 0.49891 0.51129 0.10441
 H1496 H 0.52507 0.58306 0.14883
 H1497 H 0.54793 0.55777 0.17515
 H1498 H 0.52238 0.48610 0.13018
 H1499 H 0.49812 0.58721 0.11571
 H1500 H 0.54897 0.48185 0.16346
 C1501 C 0.52442 -0.02535 0.12609
 C1502 C 0.51388 -0.03058 0.10428
 C1503 C 0.48972 -0.03346 0.10311
 C1504 C 0.47636 -0.03166 0.12337
 C1505 C 0.48713 -0.02644 0.14519
 C1506 C 0.51116 -0.02321 0.14634
 C1507 C 0.47369 -0.02466 0.16547
 C1508 C 0.44964 -0.02828 0.16423
 C1509 C 0.43917 -0.03355 0.14243
 C1510 C 0.45239 -0.03513 0.12217
 H1511 H 0.48126 -0.03705 0.08639
 H1512 H 0.51973 -0.01928 0.16293
 H1513 H 0.48195 -0.02078 0.18224
 H1514 H 0.44386 -0.03911 0.10557
 H1515 H 0.54300 -0.02334 0.12758
 H1516 H 0.42064 -0.03607 0.14100
 C1517 C 0.96839 0.47430 0.58387
 C1518 C 0.99243 0.47555 0.58784
 C1519 C 1.00077 0.48126 0.61048
 C1520 C 0.98533 0.48500 0.62900
 C1521 C 0.96124 0.48302 0.62486
 C1522 C 0.95295 0.47795 0.60219
 C1523 C 0.94583 0.48592 0.64348
 C1524 C 0.95413 0.49090 0.66625
 C1525 C 0.97807 0.49333 0.67014
 C1526 C 0.99355 0.49031 0.65169
 H1527 H 1.01926 0.48209 0.61384
 H1528 H 0.93453 0.47659 0.59866
 H1529 H 0.92736 0.48436 0.64027
 H1530 H 1.01195 0.49193 0.65521
 H1531 H 0.96149 0.47039 0.56652
 H1532 H 0.98482 0.49706 0.68758
 C1533 C 1.02460 0.52891 0.86863
 C1534 C 1.01514 0.53474 0.89057
 C1535 C 0.99095 0.53646 0.89269
 C1536 C 0.97641 0.53214 0.87324
 C1537 C 0.98614 0.52596 0.85136
 C1538 C 1.01024 0.52453 0.84921
 C1539 C 0.97162 0.52126 0.83201
 C1540 C 0.94745 0.52275 0.83416
 C1541 C 0.93794 0.52915 0.85592
 C1542 C 0.95229 0.53373 0.87532
 H1543 H 0.98342 0.54067 0.90956
 H1544 H 1.01799 0.51996 0.83253
 H1545 H 0.97912 0.51666 0.81521
 H1546 H 0.94453 0.53844 0.89196
 H1547 H 1.04317 0.52784 0.86644
 H1548 H 0.91936 0.53024 0.85801
 C1549 C 0.49203 0.05612 0.38716
 C1550 C 0.49825 0.03706 0.40158
 C1551 C 0.48942 0.01435 0.39638
 C1552 C 0.47496 0.01059 0.37680
 C1553 C 0.46909 0.02980 0.36220
 C1554 C 0.47759 0.05252 0.36762
 C1555 C 0.45500 0.02591 0.34234
 C1556 C 0.44662 0.00306 0.33685
 C1557 C 0.45241 -0.01584 0.35167
 C1558 C 0.46645 -0.01212 0.37145
 H1559 H 0.49383 -0.00041 0.40759
 H1560 H 0.47326 0.06746 0.35662
 H1561 H 0.45092 0.04060 0.33093
 H1562 H 0.47070 -0.02701 0.38253
 H1563 H 0.49878 0.07372 0.39069
 H1564 H 0.44589 -0.03352 0.34809
   
