data_POSCAR
  _audit_creation_date              2014-09-24
  _audit_creation_method            'ToBaCCo'
  _symmetry_space_group_name_H-M    'P1'
  _symmetry_Int_Tables_number       1
  _symmetry_cell_setting            triclinic
  loop_
  _symmetry_equiv_pos_as_xyz
 x,y,z
_cell_length_a 46.7378
_cell_length_b 46.4880
_cell_length_c 35.1423
_cell_angle_alpha 90.276600
_cell_angle_beta 90.122800
_cell_angle_gamma 88.036700
loop_
  _atom_site_label
  _atom_site_type_symbol
  _atom_site_fract_x
  _atom_site_fract_y
  _atom_site_fract_z
C1 C 0.30556 -0.02391 0.24943
 C2 C 0.32454 -0.00349 0.23588
 C3 C 0.34177 -0.01015 0.20433
 C4 C 0.34101 -0.03710 0.18689
 C5 C 0.32216 -0.05744 0.20005
 C6 C 0.30437 -0.05090 0.23131
 C7 C 0.33110 0.02250 0.25784
 C8 C 0.35728 0.02265 0.27740
 C9 C 0.36742 0.04816 0.29271
 C10 C 0.35099 0.07372 0.28918
 C11 C 0.32463 0.07381 0.26982
 C12 C 0.31463 0.04818 0.25409
 H13 H 0.29300 -0.01930 0.27477
 H14 H 0.35728 0.00516 0.19493
 H15 H 0.37030 0.00292 0.27928
 H16 H 0.29490 0.04842 0.23782
 H17 H 0.32221 -0.07864 0.18697
 H18 H 0.35889 0.09362 0.30077
 C19 C 0.18608 -0.04834 0.75910
 C20 C 0.16796 -0.02404 0.76578
 C21 C 0.14231 -0.02709 0.78564
 C22 C 0.13430 -0.05395 0.79857
 C23 C 0.15225 -0.07812 0.79215
 C24 C 0.17814 -0.07545 0.77235
 C25 C 0.17296 0.00413 0.74843
 C26 C 0.15463 0.01340 0.71902
 C27 C 0.15460 0.04179 0.70609
 C28 C 0.17349 0.06114 0.72232
 C29 C 0.19202 0.05208 0.75187
 C30 C 0.19182 0.02355 0.76487
 H31 H 0.20556 -0.04632 0.74283
 H32 H 0.12810 -0.00843 0.79013
 H33 H 0.13956 -0.00148 0.70711
 H34 H 0.20519 0.01687 0.78868
 H35 H 0.14591 -0.09903 0.80203
 H36 H 0.17340 0.08326 0.71262
 C37 C 0.68096 0.44295 0.24467
 C38 C 0.66552 0.46912 0.25005
 C39 C 0.63919 0.46926 0.26922
 C40 C 0.62817 0.44368 0.28285
 C41 C 0.64360 0.41768 0.27757
 C42 C 0.66993 0.41722 0.25841
 C43 C 0.67377 0.49571 0.23068
 C44 C 0.65799 0.50407 0.19844
 C45 C 0.66054 0.53143 0.18292
 C46 C 0.67993 0.55037 0.19866
 C47 C 0.69624 0.54229 0.23078
 C48 C 0.69301 0.51494 0.24708
 H49 H 0.70096 0.44254 0.22910
 H50 H 0.62689 0.48932 0.27262
 H51 H 0.64216 0.48983 0.18696
 H52 H 0.70412 0.50928 0.27323
 H53 H 0.63513 0.39785 0.28824
 H54 H 0.68112 0.57196 0.18733
 C55 C 0.80589 0.47992 0.75499
 C56 C 0.82626 0.49902 0.74166
 C57 C 0.84634 0.48951 0.71436
 C58 C 0.84656 0.46127 0.70066
 C59 C 0.82631 0.44236 0.71365
 C60 C 0.80605 0.45155 0.74089
 C61 C 0.83080 0.52694 0.76038
 C62 C 0.85606 0.52953 0.78136
 C63 C 0.86426 0.55619 0.79509
 C64 C 0.84673 0.58065 0.78867
 C65 C 0.82112 0.57843 0.76791
 C66 C 0.81306 0.55149 0.75371
 H67 H 0.79094 0.48668 0.77707
 H68 H 0.86245 0.50403 0.70460
 H69 H 0.86992 0.51061 0.78588
 H70 H 0.79390 0.54982 0.73655
 H71 H 0.82649 0.42044 0.70287
 H72 H 0.85319 0.60144 0.79915
 C73 C 0.26344 0.40524 1.03572
 C74 C 0.27557 0.42160 1.00679
 C75 C 0.29911 0.43831 1.01472
 C76 C 0.31073 0.43900 1.05129
 C77 C 0.29892 0.42249 1.08031
 C78 C 0.27518 0.40545 1.07254
 C79 C 0.26433 0.42101 0.96780
 C80 C 0.23961 0.43723 0.95842
 C81 C 0.22844 0.43627 0.92145
 C82 C 0.24209 0.41891 0.89370
 C83 C 0.26709 0.40280 0.90302
 C84 C 0.27830 0.40414 0.93994
 H85 H 0.24531 0.39207 1.02931
 H86 H 0.30856 0.45063 0.99211
 H87 H 0.22863 0.44994 0.98025
 H88 H 0.29713 0.39110 0.94750
 H89 H 0.30838 0.42256 1.10852
 H90 H 0.23256 0.41684 0.86571
 C91 C 0.73770 0.09720 1.03449
 C92 C 0.72399 0.08211 1.00535
 C93 C 0.70023 0.06591 1.01365
 C94 C 0.68999 0.06453 1.05083
 C95 C 0.70340 0.07968 1.08008
 C96 C 0.72734 0.09618 1.07192
 C97 C 0.73436 0.08277 0.96602
 C98 C 0.75837 0.06587 0.95558
 C99 C 0.76876 0.06656 0.91831
 C100 C 0.75507 0.08436 0.89126
 C101 C 0.73075 0.10118 0.90163
 C102 C 0.72028 0.10013 0.93890
 H103 H 0.75604 0.10994 1.02786
 H104 H 0.68967 0.05439 0.99098
 H105 H 0.76944 0.05280 0.97686
 H106 H 0.70198 0.11366 0.94723
 H107 H 0.69500 0.07899 1.10881
 H108 H 0.76409 0.08620 0.86301
 C109 C 0.23194 0.59326 0.53423
 C110 C 0.21706 0.57794 0.50641
 C111 C 0.19222 0.56382 0.51621
 C112 C 0.18214 0.56474 0.55366
 C113 C 0.19681 0.58028 0.58146
 C114 C 0.22174 0.59471 0.57168
 C115 C 0.22711 0.57715 0.46683
 C116 C 0.25124 0.56011 0.45698
 C117 C 0.26247 0.56111 0.42013
 C118 C 0.24949 0.57933 0.39297
 C119 C 0.22524 0.59645 0.40276
 C120 C 0.21389 0.59503 0.43953
 H121 H 0.25105 0.60444 0.52652
 H122 H 0.18069 0.55218 0.49455
 H123 H 0.26198 0.54704 0.47854
 H124 H 0.19589 0.60907 0.44760
 H125 H 0.18873 0.58144 0.61034
 H126 H 0.25923 0.58151 0.36520
 C127 C 0.76991 0.90950 0.53342
 C128 C 0.78489 0.92411 0.50531
 C129 C 0.81012 0.93783 0.51472
 C130 C 0.82044 0.93730 0.55220
 C131 C 0.80554 0.92246 0.58029
 C132 C 0.78030 0.90840 0.57080
 C133 C 0.77452 0.92416 0.46580
 C134 C 0.74992 0.94052 0.45603
 C135 C 0.73769 0.93787 0.41983
 C136 C 0.75020 0.91875 0.39320
 C137 C 0.77493 0.90235 0.40289
 C138 C 0.78725 0.90540 0.43898
 H139 H 0.75055 0.89856 0.52597
 H140 H 0.82172 0.94887 0.49273
 H141 H 0.73948 0.95416 0.47733
 H142 H 0.80551 0.89175 0.44712
 H143 H 0.81370 0.92154 0.60920
 H144 H 0.73969 0.91522 0.36612
 C145 C -0.03043 0.23334 0.34319
 C146 C -0.00412 0.23562 0.36204
 C147 C 0.00728 0.21221 0.38291
 C148 C -0.00779 0.18675 0.38523
 C149 C -0.03388 0.18444 0.36590
 C150 C -0.04517 0.20769 0.34483
 C151 C 0.01067 0.26299 0.36154
 C152 C -0.00146 0.28721 0.38020
 C153 C 0.01314 0.31297 0.38120
 C154 C 0.03948 0.31481 0.36260
 C155 C 0.05148 0.29080 0.34351
 C156 C 0.03726 0.26479 0.34341
 H157 H -0.03949 0.25166 0.32776
 H158 H 0.02738 0.21418 0.39806
 H159 H -0.02182 0.28573 0.39469
 H160 H 0.04687 0.24596 0.32953
 H161 H -0.04573 0.16481 0.36801
 H162 H 0.05094 0.33471 0.36372
 C163 C -0.03587 0.75572 0.12239
 C164 C -0.01321 0.75986 0.09717
 C165 C -0.01456 0.78272 0.07158
 C166 C -0.03838 0.80157 0.07092
 C167 C -0.06109 0.79776 0.09618
 C168 C -0.05989 0.77469 0.12191
 C169 C 0.01050 0.73867 0.09379
 C170 C 0.00937 0.71788 0.06503
 C171 C 0.03267 0.69892 0.05875
 C172 C 0.05728 0.70066 0.08128
 C173 C 0.05851 0.72155 0.11005
 C174 C 0.03510 0.74060 0.11638
 H175 H -0.03515 0.73732 0.14128
 H176 H 0.00293 0.78563 0.05184
 H177 H -0.00978 0.71649 0.04766
 H178 H 0.03621 0.75718 0.13808
 H179 H -0.07963 0.81245 0.09550
 H180 H 0.07534 0.68577 0.07666
 C181 C 0.46291 0.25477 0.61164
 C182 C 0.48540 0.25832 0.58591
 C183 C 0.48335 0.27999 0.55856
 C184 C 0.45918 0.29836 0.55683
 C185 C 0.43662 0.29500 0.58251
 C186 C 0.43839 0.27301 0.60982
 C187 C 0.50998 0.23791 0.58433
 C188 C 0.51088 0.21722 0.55531
 C189 C 0.53504 0.19913 0.55060
 C190 C 0.55854 0.20156 0.57500
 C191 C 0.55787 0.22239 0.60403
 C192 C 0.53354 0.24058 0.60877
 H193 H 0.46415 0.23741 0.63213
 H194 H 0.50074 0.28256 0.53858
 H195 H 0.49263 0.21518 0.53646
 H196 H 0.53321 0.25718 0.63055
 H197 H 0.41785 0.30931 0.58120
 H198 H 0.57720 0.18728 0.57151
 C199 C 0.46727 0.73646 0.85003
 C200 C 0.49409 0.73846 0.86763
 C201 C 0.50707 0.71398 0.88472
 C202 C 0.49300 0.68778 0.88455
 C203 C 0.46642 0.68591 0.86629
 C204 C 0.45363 0.71015 0.84893
 C205 C 0.50855 0.76614 0.86783
 C206 C 0.49605 0.79039 0.88623
 C207 C 0.51009 0.81657 0.88642
 C208 C 0.53624 0.81868 0.86733
 C209 C 0.54855 0.79467 0.84857
 C210 C 0.53489 0.76838 0.84923
 H211 H 0.45712 0.75534 0.83710
 H212 H 0.52768 0.71556 0.89868
 H213 H 0.47580 0.78869 0.90091
 H214 H 0.54467 0.74968 0.83524
 H215 H 0.45537 0.66574 0.86621
 H216 H 0.54726 0.83885 0.86766
 C217 C -0.27587 0.55946 0.98662
 C218 C -0.25603 0.57928 0.99998
 C219 C -0.26430 0.59926 1.02823
 C220 C -0.29202 0.59991 1.04297
 C221 C -0.31165 0.58019 1.03007
 C222 C -0.30374 0.56001 1.00184
 C223 C -0.22822 0.58301 0.98121
 C224 C -0.22504 0.60813 0.96003
 C225 C -0.19819 0.61585 0.94702
 C226 C -0.17420 0.59798 0.95444
 C227 C -0.17703 0.57250 0.97535
 C228 C -0.20410 0.56496 0.98886
 H229 H -0.26996 0.54455 0.96391
 H230 H -0.24917 0.61484 1.03817
 H231 H -0.24357 0.62236 0.95505
 H232 H -0.20619 0.54599 1.00630
 H233 H -0.33312 0.58068 1.04189
 H234 H -0.15326 0.60410 0.94468
 C235 C -0.30567 0.44120 0.49620
 C236 C -0.27910 0.42625 0.49356
 C237 C -0.27700 0.40003 0.47366
 C238 C -0.30111 0.38840 0.45681
 C239 C -0.32759 0.40330 0.45928
 C240 C -0.32999 0.42971 0.47899
 C241 C -0.25419 0.43475 0.51619
 C242 C -0.24771 0.41887 0.54901
 C243 C -0.22088 0.42030 0.56634
 C244 C -0.20070 0.43886 0.55183
 C245 C -0.20713 0.45548 0.51937
 C246 C -0.23390 0.45330 0.50141
 H247 H -0.30752 0.46099 0.51262
 H248 H -0.25664 0.38811 0.47263
 H249 H -0.26277 0.40339 0.55911
 H250 H -0.23812 0.46433 0.47479
 H251 H -0.34638 0.39406 0.44655
 H252 H -0.17942 0.43897 0.56422
 C253 C 0.19904 -0.06143 -0.00180
 C254 C 0.22432 -0.07829 -0.00698
 C255 C 0.22358 -0.10380 -0.02835
 C256 C 0.19793 -0.11296 -0.04407
 C257 C 0.17280 -0.09611 -0.03920
 C258 C 0.17325 -0.07036 -0.01804
 C259 C 0.25069 -0.07280 0.01458
 C260 C 0.25739 -0.09097 0.04525
 C261 C 0.28457 -0.09123 0.06189
 C262 C 0.30509 -0.07261 0.04860
 C263 C 0.29860 -0.05406 0.01816
 C264 C 0.27138 -0.05414 0.00097
 H265 H 0.19924 -0.04226 0.01584
 H266 H 0.24297 -0.11716 -0.03135
 H267 H 0.24182 -0.10626 0.05456
 H268 H 0.26680 -0.04088 -0.02375
 H269 H 0.15280 -0.10329 -0.05109
 H270 H 0.32643 -0.07329 0.06090
 C271 C 0.23480 1.05386 0.50069
 C272 C 0.25319 1.07475 0.51478
 C273 C 0.24383 1.09341 0.54394
 C274 C 0.21626 1.09192 0.55866
 C275 C 0.19797 1.07113 0.54496
 C276 C 0.20708 1.05212 0.51583
 C277 C 0.28016 1.08115 0.49558
 C278 C 0.28176 1.10766 0.47701
 C279 C 0.30768 1.11673 0.46243
 C280 C 0.33232 1.09906 0.46616
 C281 C 0.33098 1.07241 0.48472
 C282 C 0.30486 1.06332 0.49936
 H283 H 0.24133 1.04037 0.47679
 H284 H 0.25776 1.11003 0.55406
 H285 H 0.26266 1.12151 0.47458
 H286 H 0.30395 1.04314 0.51455
 H287 H 0.17628 1.07048 0.55582
 H288 H 0.35253 1.10604 0.45490
 C289 C 0.15472 0.51145 0.21930
 C290 C 0.17140 0.52467 0.24723
 C291 C 0.18803 0.54790 0.23770
 C292 C 0.18815 0.55825 0.20050
 C293 C 0.17138 0.54530 0.17246
 C294 C 0.15456 0.52181 0.18188
 C295 C 0.17135 0.51473 0.28674
 C296 C 0.18910 0.49140 0.29753
 C297 C 0.18839 0.48099 0.33479
 C298 C 0.16992 0.49418 0.36156
 C299 C 0.15231 0.51789 0.35083
 C300 C 0.15323 0.52823 0.31352
 H301 H 0.14169 0.49349 0.22683
 H302 H 0.20060 0.55821 0.25955
 H303 H 0.20262 0.48062 0.27642
 H304 H 0.13898 0.54590 0.30483
 H305 H 0.17103 0.55373 0.14375
 H306 H 0.16806 0.48509 0.38976
 C307 C -0.15314 0.98182 0.21787
 C308 C -0.16780 0.96716 0.24625
 C309 C -0.18125 0.94158 0.23737
 C310 C -0.18048 0.93060 0.20019
 C311 C -0.16559 0.94512 0.17179
 C312 C -0.15172 0.97075 0.18071
 C313 C -0.16853 0.97825 0.28551
 C314 C -0.18490 1.00317 0.29432
 C315 C -0.18363 1.01541 0.33080
 C316 C -0.16570 1.00267 0.35851
 C317 C -0.14926 0.97768 0.34973
 C318 C -0.15104 0.96529 0.31344
 H319 H -0.14245 1.00149 0.22499
 H320 H -0.19241 0.93029 0.25954
 H321 H -0.19768 1.01362 0.27223
 H322 H -0.13749 0.94667 0.30614
 H323 H -0.16461 0.93643 0.14309
 H324 H -0.16317 1.01309 0.38595
 C325 C 0.34093 0.48245 -0.28827
 C326 C 0.32542 0.46829 -0.26023
 C327 C 0.31165 0.44291 -0.26929
 C328 C 0.31310 0.43159 -0.30624
 C329 C 0.32873 0.44562 -0.33426
 C330 C 0.34283 0.47106 -0.32524
 C331 C 0.32467 0.47936 -0.22098
 C332 C 0.30785 0.50394 -0.21195
 C333 C 0.30936 0.51638 -0.17560
 C334 C 0.32785 0.50404 -0.14817
 C335 C 0.34473 0.47935 -0.15717
 C336 C 0.34280 0.46688 -0.19339
 H337 H 0.35190 0.50192 -0.28102
 H338 H 0.30001 0.43184 -0.24742
 H339 H 0.29462 0.51408 -0.23386
 H340 H 0.35665 0.44853 -0.20089
 H341 H 0.33022 0.43654 -0.36272
 H342 H 0.33046 0.51456 -0.12082
 C343 C 0.65675 0.01524 -0.28441
 C344 C 0.67246 0.02897 -0.25591
 C345 C 0.68878 0.05256 -0.26497
 C346 C 0.68956 0.06271 -0.30228
 C347 C 0.67372 0.04925 -0.33083
 C348 C 0.65722 0.02544 -0.32192
 C349 C 0.67170 0.01904 -0.21638
 C350 C 0.68838 -0.00504 -0.20544
 C351 C 0.68671 -0.01563 -0.16834
 C352 C 0.66825 -0.00198 -0.14195
 C353 C 0.65166 0.02240 -0.15281
 C354 C 0.65362 0.03300 -0.18991
 H355 H 0.64393 -0.00296 -0.27720
 H356 H 0.70066 0.06325 -0.24275
 H357 H 0.70180 -0.01620 -0.22632
 H358 H 0.64013 0.05122 -0.19874
 H359 H 0.67389 0.05760 -0.35961
 H360 H 0.66563 -0.01118 -0.11393
 C361 C -0.02000 0.21624 0.89623
 C362 C -0.01779 0.24263 0.87757
 C363 C -0.04189 0.25525 0.85941
 C364 C -0.06798 0.24124 0.85948
 C365 C -0.07008 0.21493 0.87851
 C366 C -0.04615 0.20252 0.89707
 C367 C 0.00957 0.25740 0.87829
 C368 C 0.03403 0.24508 0.86052
 C369 C 0.05999 0.25930 0.86195
 C370 C 0.06163 0.28533 0.88197
 C371 C 0.03740 0.29742 0.90002
 C372 C 0.01132 0.28366 0.89777
 H373 H -0.00141 0.20651 0.91028
 H374 H -0.04021 0.27566 0.84495
 H375 H 0.03272 0.22485 0.84527
 H376 H -0.00755 0.29327 0.91128
 H377 H -0.09018 0.20395 0.87845
 H378 H 0.08167 0.29642 0.88301
 C379 C 0.51138 0.21983 0.13439
 C380 C 0.51457 0.24424 0.15749
 C381 C 0.53795 0.24575 0.18216
 C382 C 0.55821 0.22310 0.18396
 C383 C 0.55530 0.19874 0.16079
 C384 C 0.53180 0.19701 0.13603
 C385 C 0.49208 0.26690 0.15982
 C386 C 0.47177 0.26563 0.18887
 C387 C 0.45201 0.28842 0.19458
 C388 C 0.45240 0.31265 0.17108
 C389 C 0.47271 0.31401 0.14189
 C390 C 0.49258 0.29112 0.13624
 H391 H 0.49270 0.21826 0.11626
 H392 H 0.53991 0.26429 0.20075
 H393 H 0.47145 0.24688 0.20711
 H394 H 0.50879 0.29241 0.11433
 H395 H 0.57087 0.18095 0.16263
 H396 H 0.43693 0.33028 0.17540
 C397 C 0.00740 0.71463 0.63591
 C398 C 0.01126 0.73842 0.65975
 C399 C 0.03319 0.73778 0.68679
 C400 C 0.05140 0.71352 0.69016
 C401 C 0.04772 0.68963 0.66638
 C402 C 0.02563 0.69019 0.63922
 C403 C -0.00893 0.76317 0.65917
 C404 C -0.03121 0.76436 0.68562
 C405 C -0.04970 0.78854 0.68761
 C406 C -0.04588 0.81177 0.66305
 C407 C -0.02336 0.81071 0.63666
 C408 C -0.00488 0.78637 0.63470
 H409 H -0.01005 0.71493 0.61552
 H410 H 0.03610 0.75629 0.70516
 H411 H -0.03415 0.74630 0.70452
 H412 H 0.01290 0.78572 0.61492
 H413 H 0.06196 0.67082 0.66891
 H414 H -0.06029 0.83054 0.66437
 C415 C 0.48123 0.71499 0.40083
 C416 C 0.48380 0.74148 0.38246
 C417 C 0.46012 0.75412 0.36345
 C418 C 0.43411 0.74007 0.36238
 C419 C 0.43157 0.71374 0.38113
 C420 C 0.45505 0.70127 0.40053
 C421 C 0.51129 0.75593 0.38306
 C422 C 0.53485 0.74439 0.36259
 C423 C 0.56067 0.75883 0.36238
 C424 C 0.56312 0.78432 0.38328
 C425 C 0.53981 0.79569 0.40395
 C426 C 0.51380 0.78168 0.40357
 H427 H 0.49958 0.70510 0.41523
 H428 H 0.46214 0.77451 0.34900
 H429 H 0.53286 0.72467 0.34635
 H430 H 0.49552 0.79085 0.41887
 H431 H 0.41149 0.70272 0.38007
 H432 H 0.58301 0.79568 0.38278
 B433 B -0.05280 0.00701 0.99504
 B434 B -0.06332 0.00340 0.94936
 B435 B -0.03905 0.02780 0.96061
 B436 B -0.01738 0.01437 0.99531
 B437 B -0.02850 -0.01918 1.00515
 B438 B -0.05735 -0.02596 0.97664
 B439 B -0.01122 -0.01890 0.93084
 B440 B -0.00021 -0.01481 0.97597
 B441 B -0.02485 -0.03942 0.96551
 B442 B -0.04637 -0.02600 0.93045
 B443 B -0.03509 0.00759 0.92051
 B444 B -0.00652 0.01450 0.94902
 B445 B 0.44420 0.50322 0.48885
 B446 B 0.43319 0.50130 0.44320
 B447 B 0.45739 0.52545 0.45575
 B448 B 0.47951 0.51082 0.48914
 B449 B 0.46875 0.47681 0.49685
 B450 B 0.43971 0.47093 0.46834
 B451 B 0.48531 0.48026 0.42237
 B452 B 0.49670 0.48258 0.46757
 B453 B 0.47221 0.45821 0.45576
 B454 B 0.45021 0.47285 0.42203
 B455 B 0.46110 0.50693 0.41424
 B456 B 0.48989 0.51292 0.44281
 B457 B 0.55530 0.99425 0.49036
 B458 B 0.56594 0.99482 0.44457
 B459 B 0.54232 0.97065 0.45857
 B460 B 0.52021 0.98602 0.49144
 B461 B 0.53038 1.02047 0.49739
 B462 B 0.55902 1.02594 0.46827
 B463 B 0.51329 1.01405 0.42332
 B464 B 0.50237 1.01307 0.46875
 B465 B 0.52618 1.03750 0.45545
 B466 B 0.54819 1.02217 0.42220
 B467 B 0.53793 0.98758 0.41619
 B468 B 0.50952 0.98206 0.44540
 B469 B 0.04786 0.49433 0.99513
 B470 B 0.05843 0.49637 0.94939
 B471 B 0.03438 0.47215 0.96179
 B472 B 0.01255 0.48667 0.99568
 B473 B 0.02333 0.52071 1.00382
 B474 B 0.05210 0.52670 0.97508
 B475 B 0.00617 0.51735 0.92946
 B476 B -0.00487 0.51489 0.97471
 B477 B 0.01949 0.53928 0.96300
 B478 B 0.04121 0.52479 0.92886
 B479 B 0.03025 0.49074 0.92060
 B480 B 0.00177 0.48464 0.94939
 B481 B 0.01033 0.51931 0.48575
 B482 B 0.01909 0.50492 0.52844
 B483 B -0.00501 0.53268 0.52560
 B484 B -0.02495 0.52877 0.48574
 B485 B -0.01308 0.49776 0.46406
 B486 B 0.01459 0.48334 0.49033
 B487 B -0.03363 0.48366 0.53395
 B488 B -0.04247 0.49776 0.49134
 B489 B -0.01804 0.47017 0.49417
 B490 B 0.00174 0.47426 0.53397
 B491 B -0.01045 0.50502 0.55580
 B492 B -0.03786 0.51974 0.52925
 B493 B 0.51362 0.02350 -0.01251
 B494 B 0.52608 0.00666 0.02692
 B495 B 0.50309 0.03529 0.03060
 B496 B 0.47900 0.03409 -0.00522
 B497 B 0.48725 0.00404 -0.03142
 B498 B 0.51688 -0.01275 -0.01164
 B499 B 0.47375 -0.01327 0.04019
 B500 B 0.46101 0.00371 0.00126
 B501 B 0.48423 -0.02491 -0.00297
 B502 B 0.50826 -0.02368 0.03305
 B503 B 0.49982 0.00634 0.05929
 B504 B 0.47055 0.02315 0.03962
 B505 B 0.48409 0.48333 -0.01526
 B506 B 0.47254 0.50110 0.02410
 B507 B 0.49489 0.47205 0.02798
 B508 B 0.51851 0.47194 -0.00833
 B509 B 0.51071 0.50178 -0.03484
 B510 B 0.48178 0.51968 -0.01485
 B511 B 0.52574 0.51982 0.03623
 B512 B 0.53739 0.50184 -0.00275
 B513 B 0.51496 0.53104 -0.00691
 B514 B 0.49130 0.53107 0.02951
 B515 B 0.49932 0.50132 0.05600
 B516 B 0.52793 0.48338 0.03613
 B517 B -0.00835 0.98303 0.48895
 B518 B -0.01726 0.99702 0.53194
 B519 B 0.00686 0.96930 0.52856
 B520 B 0.02693 0.97358 0.48908
 B521 B 0.01509 1.00475 0.46820
 B522 B -0.01262 1.01896 0.49457
 B523 B 0.03557 1.01821 0.53871
 B524 B 0.04440 1.00450 0.49579
 B525 B 0.01999 1.03206 0.49913
 B526 B 0.00014 1.02764 0.53865
 B527 B 0.01226 0.99665 0.55969
 B528 B 0.03973 0.98217 0.53299
 B529 B 0.75825 0.19604 0.26167
 B530 B 0.75718 0.18581 0.30761
 B531 B 0.78072 0.21011 0.29401
 B532 B 0.76544 0.23145 0.26026
 B533 B 0.73142 0.22018 0.25361
 B534 B 0.72667 0.19157 0.28300
 B535 B 0.73600 0.23862 0.32737
 B536 B 0.73780 0.24892 0.28152
 B537 B 0.71371 0.22450 0.29510
 B538 B 0.72903 0.20320 0.32897
 B539 B 0.76290 0.21454 0.33581
 B540 B 0.76824 0.24289 0.30632
 B541 B 0.74393 0.80499 0.75451
 B542 B 0.74701 0.81470 0.80061
 B543 B 0.72295 0.79043 0.78799
 B544 B 0.73676 0.76939 0.75270
 B545 B 0.77019 0.78088 0.74385
 B546 B 0.77654 0.80932 0.77360
 B547 B 0.76914 0.76201 0.81742
 B548 B 0.76561 0.75184 0.77182
 B549 B 0.78990 0.77648 0.78367
 B550 B 0.77609 0.79736 0.81933
 B551 B 0.74261 0.78574 0.82826
 B552 B 0.73615 0.75757 0.79852
 B553 B 0.27155 0.26063 0.76767
 B554 B 0.25648 0.26774 0.72490
 B555 B 0.28405 0.24348 0.72849
 B556 B 0.28083 0.22520 0.76957
 B557 B 0.25046 0.23814 0.79134
 B558 B 0.23570 0.26486 0.76379
 B559 B 0.23477 0.21471 0.72324
 B560 B 0.24998 0.20755 0.76624
 B561 B 0.22237 0.23192 0.76235
 B562 B 0.22577 0.25030 0.72143
 B563 B 0.25595 0.23702 0.69948
 B564 B 0.27080 0.21029 0.72715
 B565 B 0.23015 0.73462 0.26045
 B566 B 0.24726 0.72231 0.22109
 B567 B 0.21849 0.74499 0.21733
 B568 B 0.21907 0.76924 0.25320
 B569 B 0.24896 0.76145 0.27948
 B570 B 0.26625 0.73195 0.25970
 B571 B 0.26616 0.77535 0.20788
 B572 B 0.24893 0.78784 0.24690
 B573 B 0.27777 0.76504 0.25106
 B574 B 0.27713 0.74078 0.21503
 B575 B 0.24726 0.74871 0.18877
 B576 B 0.22997 0.77792 0.20844
 B577 B 0.25675 0.69866 0.75775
 B578 B 0.25431 0.68824 0.80350
 B579 B 0.27859 0.71233 0.79123
 B580 B 0.26447 0.73413 0.75711
 B581 B 0.23069 0.72334 0.74869
 B582 B 0.22440 0.69462 0.77749
 B583 B 0.23344 0.74109 0.82298
 B584 B 0.23626 0.75183 0.77764
 B585 B 0.21181 0.72749 0.78923
 B586 B 0.22590 0.70582 0.82370
 B587 B 0.25977 0.71671 0.83221
 B588 B 0.26613 0.74522 0.80332
 B589 B 0.24982 0.30113 0.26000
 B590 B 0.25119 0.31178 0.30586
 B591 B 0.22721 0.28767 0.29237
 B592 B 0.24213 0.26568 0.25888
 B593 B 0.27612 0.27642 0.25206
 B594 B 0.28171 0.30533 0.28125
 B595 B 0.27156 0.25920 0.32616
 B596 B 0.26981 0.24814 0.28071
 B597 B 0.29398 0.27250 0.29352
 B598 B 0.27909 0.29440 0.32731
 B599 B 0.24503 0.28352 0.33420
 B600 B 0.23934 0.25487 0.30496
 B601 B 0.76964 0.75871 0.26708
 B602 B 0.75663 0.76853 0.22400
 B603 B 0.78335 0.74333 0.22743
 B604 B 0.77783 0.72292 0.26636
 B605 B 0.74692 0.73568 0.28689
 B606 B 0.73412 0.76431 0.26086
 B607 B 0.73378 0.71645 0.21564
 B608 B 0.74650 0.70649 0.25857
 B609 B 0.71999 0.73208 0.25525
 B610 B 0.72566 0.75228 0.21637
 B611 B 0.75635 0.73921 0.19566
 B612 B 0.76942 0.71084 0.22196
 B613 B 0.72736 0.23879 0.75938
 B614 B 0.74462 0.22785 0.71943
 B615 B 0.71541 0.25006 0.71673
 B616 B 0.71564 0.27336 0.75376
 B617 B 0.74576 0.26543 0.77957
 B618 B 0.76348 0.23682 0.75840
 B619 B 0.76251 0.28166 0.70873
 B620 B 0.74516 0.29266 0.74837
 B621 B 0.77443 0.27030 0.75136
 B622 B 0.77411 0.24707 0.71417
 B623 B 0.74407 0.25515 0.68836
 B624 B 0.72627 0.28350 0.70947
 C625 C 0.44326 1.03721 0.34411
 C626 C 0.44752 1.00889 0.35627
 C627 C 0.47108 1.00120 0.37863
 C628 C 0.39363 1.04762 0.30988
 C629 C 0.48801 1.04971 0.37443
 C630 C 0.46396 1.05752 0.35216
 C631 C 0.41672 1.04459 0.32505
 C632 C 0.49092 1.02183 0.38986
 H633 H 0.43193 0.99285 0.34967
 H634 H 0.47269 0.97921 0.38852
 H635 H 0.50313 1.06596 0.38165
 H636 H 0.46107 1.07949 0.34241
 C637 C -0.06225 0.54577 0.85071
 C638 C -0.05972 0.51715 0.86225
 C639 C -0.03682 0.50783 0.88472
 C640 C -0.11033 0.55734 0.81392
 C641 C -0.01729 0.55537 0.88226
 C642 C -0.04063 0.56481 0.85977
 C643 C -0.08783 0.55443 0.83047
 C644 C -0.01590 0.52708 0.89663
 H645 H -0.07607 0.50209 0.85485
 H646 H -0.03649 0.48567 0.89398
 H647 H -0.00130 0.57058 0.89002
 H648 H -0.04218 0.58697 0.85040
 C649 C 0.05767 -0.04651 0.85219
 C650 C 0.05059 -0.01738 0.85744
 C651 C 0.02733 -0.00893 0.87988
 C652 C 0.10713 -0.05582 0.81749
 C653 C 0.01612 -0.05881 0.88946
 C654 C 0.03993 -0.06733 0.86721
 C655 C 0.08422 -0.05373 0.83318
 C656 C 0.01067 -0.02949 0.89809
 H657 H 0.06382 -0.00104 0.84539
 H658 H 0.02340 0.01393 0.88416
 H659 H 0.00326 -0.07521 0.90182
 H660 H 0.04499 -0.09001 0.86284
 C661 C 0.55284 0.45526 0.33991
 C662 C 0.54796 0.48401 0.35014
 C663 C 0.52533 0.49194 0.37398
 C664 C 0.60100 0.44468 0.30227
 C665 C 0.51057 0.44256 0.37562
 C666 C 0.53368 0.43454 0.35182
 C667 C 0.57856 0.44790 0.31897
 C668 C 0.50705 0.47118 0.38869
 H669 H 0.56235 0.50032 0.34072
 H670 H 0.52307 0.51441 0.38189
 H671 H 0.49659 0.42613 0.38550
 H672 H 0.53707 0.41218 0.34371
 C673 C 0.59432 0.54812 0.11098
 C674 C 0.56894 0.53847 0.12663
 C675 C 0.54574 0.53260 0.10322
 C676 C 0.63966 0.54081 0.15506
 C677 C 0.57176 0.54969 0.04885
 C678 C 0.59532 0.55496 0.07230
 C679 C 0.61988 0.54595 0.13382
 C680 C 0.54758 0.53617 0.06353
 H681 H 0.56781 0.53334 0.15663
 H682 H 0.52731 0.52320 0.11617
 H683 H 0.57358 0.55399 0.01878
 H684 H 0.61481 0.56261 0.05983
 C685 C 0.09964 1.05002 0.62023
 C686 C 0.07228 1.06349 0.61903
 C687 C 0.05223 1.05515 0.59137
 C688 C 0.13581 1.04962 0.67788
 C689 C 0.08705 1.02016 0.56699
 C690 C 0.10703 1.02905 0.59332
 C691 C 0.11885 1.05257 0.65211
 C692 C 0.05921 1.03286 0.56530
 H693 H 0.06601 1.07934 0.64038
 H694 H 0.03089 1.06491 0.59190
 H695 H 0.09331 1.00183 0.54969
 H696 H 0.12775 1.01783 0.59450
 C697 C -0.09660 0.45160 0.61522
 C698 C -0.06911 0.43848 0.61410
 C699 C -0.04940 0.44677 0.58630
 C700 C -0.13270 0.45273 0.67232
 C701 C -0.08483 0.48104 0.56188
 C702 C -0.10452 0.47208 0.58820
 C703 C -0.11550 0.44944 0.64710
 C704 C -0.05690 0.46868 0.56012
 H705 H -0.06248 0.42306 0.63566
 H706 H -0.02788 0.43742 0.58694
 H707 H -0.09135 0.49933 0.54495
 H708 H -0.12536 0.48306 0.58944
 C709 C 0.40801 -0.04648 0.11515
 C710 C 0.40754 -0.05373 0.07653
 C711 C 0.43015 -0.04609 0.05304
 C712 C 0.36260 -0.04432 0.15918
 C713 C 0.45422 -0.02547 0.10723
 C714 C 0.43197 -0.03361 0.13070
 C715 C 0.38266 -0.04725 0.13797
 C716 C 0.45287 -0.03012 0.06767
 H717 H 0.38902 -0.06365 0.06417
 H718 H 0.42861 -0.05086 0.02303
 H719 H 0.47142 -0.01377 0.12003
 H720 H 0.43254 -0.02791 0.16064
 C721 C 0.38385 0.48390 0.05416
 C722 C 0.38952 0.49890 0.02069
 C723 C 0.41730 0.50739 0.01284
 C724 C 0.33589 0.45555 0.05703
 C725 C 0.43319 0.48836 0.07351
 C726 C 0.40544 0.47985 0.08134
 C727 C 0.35744 0.46909 0.05760
 C728 C 0.43993 0.50011 0.03790
 H729 H 0.37296 0.50218 -0.00065
 H730 H 0.42144 0.51705 -0.01449
 H731 H 0.44955 0.48415 0.09459
 H732 H 0.40124 0.46870 0.10765
 C733 C -0.10498 0.97617 0.56348
 C734 C -0.10036 0.99747 0.53643
 C735 C -0.07271 1.00650 0.52933
 C736 C -0.15461 0.95048 0.56011
 C737 C -0.05433 0.97510 0.57901
 C738 C -0.08208 0.96592 0.58594
 C739 C -0.13210 0.96234 0.56375
 C740 C -0.04899 0.99385 0.54865
 H741 H -0.11788 1.00568 0.51890
 H742 H -0.06988 1.02157 0.50639
 H743 H -0.03700 0.96622 0.59601
 H744 H -0.08540 0.94971 0.60738
 C745 C -0.15064 0.03299 0.91554
 C746 C -0.13864 0.00783 0.89911
 C747 C -0.11069 -0.00154 0.90906
 C748 C -0.20394 0.05255 0.91085
 C749 C -0.10744 0.03925 0.95174
 C750 C -0.13480 0.04865 0.94150
 C751 C -0.17994 0.04232 0.90992
 C752 C -0.09477 0.01400 0.93584
 H753 H -0.15095 -0.00472 0.87934
 H754 H -0.10186 -0.02116 0.89639
 H755 H -0.09675 0.05149 0.97339
 H756 H -0.14403 0.06784 0.95498
 C757 C 0.34405 0.52922 0.41569
 C758 C 0.36047 0.54505 0.44080
 C759 C 0.38853 0.53641 0.44873
 C760 C 0.29012 0.54753 0.41327
 C761 C 0.38473 0.49612 0.40534
 C762 C 0.35617 0.50475 0.39769
 C763 C 0.31436 0.53789 0.41181
 C764 C 0.40127 0.51176 0.43133
 H765 H 0.35124 0.56375 0.45539
 H766 H 0.39967 0.54860 0.46998
 H767 H 0.39357 0.47692 0.39162
 H768 H 0.34348 0.49210 0.37845
 C769 C 0.10639 0.52482 0.56355
 C770 C 0.08318 0.53537 0.58515
 C771 C 0.05550 0.52647 0.57699
 C772 C 0.15592 0.55057 0.56197
 C773 C 0.07449 0.49490 0.52758
 C774 C 0.10211 0.50357 0.53601
 C775 C 0.13352 0.53862 0.56488
 C776 C 0.05056 0.50782 0.54615
 H777 H 0.08622 0.55162 0.60684
 H778 H 0.03795 0.53556 0.59343
 H779 H 0.07190 0.47991 0.50428
 H780 H 0.11990 0.49515 0.51913
 C781 C 0.61551 0.02234 0.05585
 C782 C 0.59406 0.02875 0.08244
 C783 C 0.56592 0.02118 0.07498
 C784 C 0.66454 0.04872 0.05723
 C785 C 0.58109 -0.00127 0.01577
 C786 C 0.60925 0.00624 0.02332
 C787 C 0.64257 0.03603 0.05849
 C788 C 0.55876 0.00799 0.04024
 H789 H 0.59871 0.04095 0.10792
 H790 H 0.54971 0.02702 0.09565
 H791 H 0.57663 -0.01213 -0.01079
 H792 H 0.62573 0.00115 0.00249
 C793 C 0.65533 0.96788 0.41702
 C794 C 0.64231 0.99111 0.39754
 C795 C 0.61372 0.99946 0.40540
 C796 C 0.70956 0.95057 0.41356
 C797 C 0.61158 0.96127 0.45176
 C798 C 0.63973 0.95295 0.44378
 C799 C 0.68509 0.95961 0.41259
 C800 C 0.59801 0.98475 0.43298
 H801 H 0.65430 1.00298 0.37687
 H802 H 0.60418 1.01769 0.39042
 H803 H 0.60090 0.94964 0.47381
 H804 H 0.64963 0.93516 0.45938
 C805 C 0.14686 0.46800 0.91890
 C806 C 0.13455 0.49258 0.90162
 C807 C 0.10626 0.50147 0.91043
 C808 C 0.20065 0.44953 0.91482
 C809 C 0.10321 0.46136 0.95373
 C810 C 0.13096 0.45241 0.94460
 C811 C 0.17639 0.45916 0.91398
 C812 C 0.09022 0.48599 0.93688
 H813 H 0.14688 0.50508 0.88202
 H814 H 0.09725 0.52070 0.89718
 H815 H 0.09242 0.44925 0.97520
 H816 H 0.14038 0.43365 0.95865
 C817 C -0.01423 0.38463 0.43973
 C818 C -0.01137 0.38688 0.47931
 C819 C -0.01464 0.41375 0.49730
 C820 C 0.00193 0.33730 0.40255
 C821 C -0.02482 0.43580 0.43620
 C822 C -0.02175 0.40901 0.41846
 C823 C -0.00621 0.35836 0.42010
 C824 C -0.02057 0.43875 0.47581
 H825 H -0.00538 0.36810 0.49604
 H826 H -0.01104 0.41505 0.52765
 H827 H -0.02969 0.45431 0.41848
 H828 H -0.02399 0.40755 0.38781
 C829 C 0.48278 -0.11034 -0.05758
 C830 C 0.48231 -0.10815 -0.01781
 C831 C 0.48014 -0.08104 -0.00013
 C832 C 0.49851 -0.15877 -0.09297
 C833 C 0.47766 -0.05847 -0.06201
 C834 C 0.47960 -0.08546 -0.07949
 C835 C 0.49038 -0.13724 -0.07624
 C836 C 0.47845 -0.05568 -0.02200
 H837 H 0.48515 -0.12724 -0.00046
 H838 H 0.48161 -0.07994 0.03058
 H839 H 0.47725 -0.03977 -0.08024
 H840 H 0.48030 -0.08680 -0.11027
 C841 C -0.02907 -0.12799 1.00541
 C842 C -0.01063 -0.10909 1.02290
 C843 C -0.00708 -0.08195 1.00786
 C844 C -0.03808 -0.17447 1.04540
 C845 C -0.03847 -0.09320 0.95530
 C846 C -0.04236 -0.12051 0.97093
 C847 C -0.03516 -0.15386 1.02542
 C848 C -0.02145 -0.07313 0.97429
 H849 H -0.00021 -0.11469 1.04958
 H850 H 0.00544 -0.06722 1.02436
 H851 H -0.05032 -0.08715 0.92990
 H852 H -0.05667 -0.13516 0.95713
 C853 C 0.46882 0.36845 0.49071
 C854 C 0.45452 0.37712 0.45740
 C855 C 0.45832 0.40483 0.44290
 C856 C 0.45940 0.32196 0.53061
 C857 C 0.49162 0.41409 0.49404
 C858 C 0.48823 0.38653 0.50786
 C859 C 0.46243 0.34249 0.51045
 C860 C 0.47612 0.42416 0.46197
 H861 H 0.43943 0.36315 0.44383
 H862 H 0.44560 0.41180 0.41865
 H863 H 0.50466 0.42819 0.51076
 H864 H 0.49937 0.38005 0.53369
 C865 C 0.52538 1.12895 0.48433
 C866 C 0.50695 1.11072 0.50273
 C867 C 0.50520 1.08234 0.49112
 C868 C 0.53403 1.17619 0.52329
 C869 C 0.53800 1.09084 0.43941
 C870 C 0.54032 1.11940 0.45190
 C871 C 0.53107 1.15558 0.50307
 C872 C 0.52114 1.07158 0.45977
 H873 H 0.49555 1.11782 0.52812
 H874 H 0.49306 1.06841 0.50902
 H875 H 0.55110 1.08333 0.41577
 H876 H 0.55489 1.13340 0.43764
 C877 C 0.01995 0.63023 0.99449
 C878 C 0.00178 0.61183 1.01308
 C879 C -0.00025 0.58359 1.00089
 C880 C 0.03001 0.67712 1.03339
 C881 C 0.03192 0.59268 0.94864
 C882 C 0.03443 0.62105 0.96157
 C883 C 0.02613 0.65662 1.01336
 C884 C 0.01520 0.57326 0.96891
 H885 H -0.00928 0.61868 1.03884
 H886 H -0.01241 0.56942 1.01845
 H887 H 0.04467 0.58548 0.92451
 H888 H 0.04881 0.63520 0.94724
 C889 C 0.51932 0.61564 -0.06206
 C890 C 0.52063 0.59049 -0.08395
 C891 C 0.52156 0.56363 -0.06639
 C892 C 0.50415 0.66427 -0.09673
 C893 C 0.52193 0.58678 -0.00458
 C894 C 0.52065 0.61376 -0.02232
 C895 C 0.51222 0.64264 -0.08045
 C896 C 0.52170 0.56125 -0.02636
 H897 H 0.51915 0.59159 -0.11470
 H898 H 0.52038 0.54483 -0.08451
 H899 H 0.52119 0.58602 0.02618
 H900 H 0.51911 0.63308 -0.00499
 C901 C 0.01701 1.11754 0.44547
 C902 C 0.02523 1.09315 0.42440
 C903 C 0.02787 1.06643 0.44199
 C904 C 0.00214 1.16438 0.40699
 C905 C 0.01579 1.08852 0.50272
 C906 C 0.01290 1.11536 0.48482
 C907 C 0.00967 1.14369 0.42547
 C908 C 0.02253 1.06352 0.48130
 H909 H 0.02835 1.09453 0.39392
 H910 H 0.03337 1.04793 0.42434
 H911 H 0.01136 1.08723 0.53285
 H912 H 0.00630 1.13414 0.50137
 C913 C 0.79546 0.69119 0.89394
 C914 C 0.81648 0.70882 0.87927
 C915 C 0.80840 0.73314 0.85766
 C916 C 0.80383 0.64146 0.92867
 C917 C 0.75858 0.72262 0.86712
 C918 C 0.76660 0.69882 0.88890
 C919 C 0.80221 0.66441 0.91282
 C920 C 0.77932 0.73931 0.84939
 H921 H 0.83896 0.70333 0.88345
 H922 H 0.82495 0.74592 0.84562
 H923 H 0.73590 0.72701 0.86300
 H924 H 0.75012 0.68566 0.90067
 C925 C 0.29722 0.19091 0.40711
 C926 C 0.26899 0.19394 0.39453
 C927 C 0.26062 0.21671 0.37115
 C928 C 0.30799 0.14258 0.44431
 C929 C 0.30836 0.23521 0.37468
 C930 C 0.31684 0.21196 0.39805
 C931 C 0.30510 0.16521 0.42786
 C932 C 0.28043 0.23707 0.35940
 H933 H 0.25350 0.17802 0.40177
 H934 H 0.23869 0.21744 0.36122
 H935 H 0.32401 0.25074 0.36698
 H936 H 0.33875 0.20999 0.40805
 C937 C 0.71208 0.30999 0.40530
 C938 C 0.69053 0.29410 0.38841
 C939 C 0.69767 0.26960 0.36656
 C940 C 0.70163 0.36055 0.43856
 C941 C 0.74771 0.27567 0.38078
 C942 C 0.74057 0.30005 0.40262
 C943 C 0.70556 0.33729 0.42361
 C944 C 0.72651 0.26114 0.36034
 H945 H 0.66828 0.30109 0.39115
 H946 H 0.68052 0.25800 0.35394
 H947 H 0.77013 0.26946 0.37794
 H948 H 0.75746 0.31184 0.41610
 C949 C 0.20801 0.81176 0.90140
 C950 C 0.18735 0.79243 0.88953
 C951 C 0.19545 0.76825 0.86733
 C952 C 0.19798 0.86124 0.93722
 C953 C 0.24480 0.78220 0.87071
 C954 C 0.23677 0.80592 0.89296
 C955 C 0.20074 0.83834 0.92100
 C956 C 0.22414 0.76376 0.85581
 H957 H 0.16499 0.79649 0.89640
 H958 H 0.17905 0.75421 0.85734
 H959 H 0.26730 0.77926 0.86405
 H960 H 0.25305 0.82037 0.90256
 C961 C 0.29574 0.84240 0.13191
 C962 C 0.28439 0.81742 0.11672
 C963 C 0.27771 0.79473 0.14048
 C964 C 0.29143 0.88788 0.08763
 C965 C 0.29696 0.82045 0.19426
 C966 C 0.30314 0.84348 0.17045
 C967 C 0.29512 0.86780 0.10879
 C968 C 0.28225 0.79668 0.18004
 H969 H 0.27869 0.81630 0.08685
 H970 H 0.26709 0.77667 0.12791
 H971 H 0.30176 0.82240 0.22422
 H972 H 0.31204 0.86272 0.18254
 C973 C 0.79060 0.35215 0.63681
 C974 C 0.77890 0.32780 0.62029
 C975 C 0.77267 0.30412 0.64259
 C976 C 0.78671 0.39867 0.59415
 C977 C 0.79272 0.32768 0.69756
 C978 C 0.79850 0.35169 0.67523
 C979 C 0.79024 0.37828 0.61496
 C980 C 0.77798 0.30434 0.68205
 H981 H 0.77277 0.32783 0.59052
 H982 H 0.76185 0.28657 0.62906
 H983 H 0.79787 0.32847 0.72751
 H984 H 0.80764 0.37039 0.68839
 C985 C 0.20195 0.15145 0.64177
 C986 C 0.19818 0.18093 0.63444
 C987 C 0.20576 0.20115 0.66212
 C988 C 0.20724 0.11273 0.58699
 C989 C 0.21871 0.16247 0.70501
 C990 C 0.21094 0.14241 0.67769
 C991 C 0.20283 0.13064 0.61136
 C992 C 0.21783 0.19216 0.69720
 H993 H 0.19126 0.18831 0.60661
 H994 H 0.20414 0.22375 0.65485
 H995 H 0.22708 0.15398 0.73091
 H996 H 0.21417 0.11965 0.68363
 C997 C 0.70077 0.65556 0.13107
 C998 C 0.72048 0.64646 0.15849
 C999 C 0.72977 0.66552 0.18580
 C1000 C 0.70071 0.62036 0.07243
 C1001 C 0.69748 0.70276 0.16128
 C1002 C 0.68880 0.68364 0.13264
 C1003 C 0.69817 0.63717 0.09844
 C1004 C 0.71855 0.69402 0.18801
 H1005 H 0.73055 0.62511 0.15696
 H1006 H 0.74740 0.65804 0.20327
 H1007 H 0.68908 0.72473 0.16091
 H1008 H 0.67399 0.69115 0.11083
 C1009 C 0.23128 0.63233 0.19321
 C1010 C 0.22537 0.65365 0.16618
 C1011 C 0.23329 0.68189 0.17316
 C1012 C 0.20416 0.58350 0.19311
 C1013 C 0.25517 0.66708 0.23269
 C1014 C 0.24736 0.63880 0.22560
 C1015 C 0.21717 0.60537 0.19118
 C1016 C 0.24627 0.68936 0.20787
 H1017 H 0.21323 0.64884 0.14077
 H1018 H 0.22776 0.69802 0.15223
 H1019 H 0.26584 0.67176 0.25926
 H1020 H 0.25212 0.62242 0.24674
 C1021 C 0.73103 0.13775 0.68978
 C1022 C 0.72328 0.15934 0.66383
 C1023 C 0.73039 0.18780 0.67110
 C1024 C 0.70513 0.08822 0.69045
 C1025 C 0.75513 0.17274 0.72858
 C1026 C 0.74813 0.14429 0.72118
 C1027 C 0.71763 0.11041 0.68820
 C1028 C 0.74445 0.19514 0.70508
 H1029 H 0.71030 0.15450 0.63919
 H1030 H 0.72337 0.20412 0.65116
 H1031 H 0.76666 0.17732 0.75453
 H1032 H 0.75427 0.12773 0.74151
 C1033 C 0.78562 0.09628 0.33443
 C1034 C 0.80083 0.11272 0.30894
 C1035 C 0.79207 0.14092 0.30134
 C1036 C 0.80391 0.04201 0.33659
 C1037 C 0.75294 0.13728 0.34584
 C1038 C 0.76168 0.10856 0.35317
 C1039 C 0.79436 0.06643 0.33808
 C1040 C 0.76793 0.15382 0.31943
 H1041 H 0.81913 0.10340 0.29385
 H1042 H 0.80382 0.15206 0.27985
 H1043 H 0.73415 0.14623 0.36012
 H1044 H 0.74952 0.09588 0.37276
 C1045 C 0.27952 0.59759 0.82891
 C1046 C 0.29696 0.61458 0.80691
 C1047 C 0.28929 0.64317 0.79996
 C1048 C 0.29683 0.54297 0.83013
 C1049 C 0.24674 0.63881 0.83829
 C1050 C 0.25433 0.60967 0.84476
 C1051 C 0.28750 0.56748 0.83181
 C1052 C 0.26412 0.65599 0.81552
 H1053 H 0.31615 0.60537 0.79374
 H1054 H 0.30251 0.65451 0.78035
 H1055 H 0.22686 0.64754 0.85000
 H1056 H 0.24030 0.59653 0.86128
 C1057 C 0.27484 0.35445 0.68537
 C1058 C 0.25300 0.35067 0.71181
 C1059 C 0.24483 0.32302 0.72134
 C1060 C 0.29951 0.40478 0.68614
 C1061 C 0.27804 0.30284 0.67489
 C1062 C 0.28644 0.33058 0.66564
 C1063 C 0.28808 0.38195 0.68357
 C1064 C 0.25885 0.29860 0.70505
 H1065 H 0.24374 0.36897 0.72717
 H1066 H 0.22931 0.32096 0.74386
 H1067 H 0.28798 0.28481 0.66004
 H1068 H 0.30317 0.33322 0.64478
 C1069 C 0.78000 0.85588 0.19146
 C1070 C 0.78950 0.83239 0.16925
 C1071 C 0.77969 0.80484 0.17677
 C1072 C 0.80625 0.90543 0.19294
 C1073 C 0.74937 0.82457 0.22680
 C1074 C 0.75898 0.85205 0.21906
 C1075 C 0.79421 0.88292 0.19012
 C1076 C 0.76110 0.80026 0.20749
 H1077 H 0.80549 0.83508 0.14741
 H1078 H 0.78783 0.78707 0.15971
 H1079 H 0.73449 0.82230 0.25005
 H1080 H 0.75131 0.87006 0.23636
 C1081 C 0.71834 0.90264 0.83528
 C1082 C 0.70228 0.88672 0.80985
 C1083 C 0.71125 0.85905 0.79957
 C1084 C 0.70006 0.95669 0.83931
 C1085 C 0.75224 0.86209 0.84144
 C1086 C 0.74334 0.89035 0.85135
 C1087 C 0.70968 0.93234 0.84051
 C1088 C 0.73641 0.84614 0.81497
 H1089 H 0.68322 0.89617 0.79662
 H1090 H 0.69888 0.84845 0.77801
 H1091 H 0.77182 0.85310 0.85370
 H1092 H 0.75620 0.90271 0.87070
 C1093 C 0.22230 0.40025 0.33728
 C1094 C 0.20746 0.38454 0.31029
 C1095 C 0.21666 0.35681 0.30070
 C1096 C 0.20265 0.45374 0.34220
 C1097 C 0.25566 0.35958 0.34587
 C1098 C 0.24651 0.38786 0.35518
 C1099 C 0.21295 0.42967 0.34302
 C1100 C 0.24083 0.34369 0.31830
 H1101 H 0.18901 0.39408 0.29572
 H1102 H 0.20503 0.34610 0.27849
 H1103 H 0.27454 0.35044 0.35972
 H1104 H 0.25847 0.40009 0.37572
 C1105 C 0.13555 0.23454 0.81212
 C1106 C 0.13947 0.22455 0.77471
 C1107 C 0.16710 0.22230 0.75906
 C1108 C 0.08517 0.24802 0.84263
 C1109 C 0.18665 0.23950 0.81852
 C1110 C 0.15928 0.24154 0.83399
 C1111 C 0.10749 0.24065 0.82769
 C1112 C 0.19108 0.23011 0.78065
 H1113 H 0.12117 0.21938 0.75732
 H1114 H 0.16943 0.21556 0.72973
 H1115 H 0.20424 0.24609 0.83623
 H1116 H 0.15654 0.24963 0.86278
 C1117 C 0.63321 0.73485 0.30476
 C1118 C 0.63660 0.73852 0.26550
 C1119 C 0.66391 0.73612 0.24914
 C1120 C 0.58481 0.74840 0.34032
 C1121 C 0.68421 0.72570 0.31126
 C1122 C 0.65702 0.72787 0.32735
 C1123 C 0.60623 0.74137 0.32308
 C1124 C 0.68822 0.73024 0.27195
 H1125 H 0.61831 0.74429 0.24779
 H1126 H 0.66604 0.74007 0.21902
 H1127 H 0.70214 0.72094 0.32999
 H1128 H 0.65471 0.72518 0.35780
 C1129 C 0.62482 0.22817 0.25828
 C1130 C 0.63617 0.20296 0.27452
 C1131 C 0.66305 0.20288 0.29172
 C1132 C 0.58134 0.22481 0.21071
 C1133 C 0.66569 0.25397 0.28089
 C1134 C 0.63878 0.25404 0.26339
 C1135 C 0.60076 0.22662 0.23303
 C1136 C 0.67941 0.22790 0.29182
 H1137 H 0.62518 0.18292 0.27159
 H1138 H 0.67189 0.18248 0.30180
 H1139 H 0.67595 0.27415 0.28452
 H1140 H 0.62964 0.27397 0.25213
 C1141 C 0.12225 0.72464 0.75424
 C1142 C 0.14075 0.74267 0.73557
 C1143 C 0.16834 0.74586 0.74909
 C1144 C 0.07521 0.71480 0.71584
 C1145 C 0.15846 0.71498 0.80249
 C1146 C 0.13067 0.71146 0.78840
 C1147 C 0.09599 0.71827 0.73533
 C1148 C 0.17805 0.73147 0.78222
 H1149 H 0.13445 0.75292 0.70906
 H1150 H 0.18264 0.75801 0.73170
 H1151 H 0.16515 0.70319 0.82765
 H1152 H 0.11637 0.69742 0.80306
 C1153 C 0.87947 0.77972 0.74812
 C1154 C 0.86048 0.76279 0.72821
 C1155 C 0.83284 0.75986 0.74141
 C1156 C 0.92734 0.78792 0.71117
 C1157 C 0.84348 0.78893 0.79674
 C1158 C 0.87134 0.79223 0.78296
 C1159 C 0.90620 0.78524 0.73008
 C1160 C 0.82356 0.77323 0.77558
 H1161 H 0.86655 0.75305 0.70119
 H1162 H 0.81829 0.74829 0.72344
 H1163 H 0.83710 0.80002 0.82268
 H1164 H 0.88603 0.80542 0.79859
 C1165 C 0.38415 0.27417 0.26229
 C1166 C 0.36623 0.25503 0.24427
 C1167 C 0.33837 0.25231 0.25678
 C1168 C 0.42979 0.28539 0.22219
 C1169 C 0.34694 0.28560 0.30848
 C1170 C 0.37493 0.28882 0.29519
 C1171 C 0.40989 0.28108 0.24277
 C1172 C 0.32787 0.26811 0.28847
 H1173 H 0.37304 0.24387 0.21850
 H1174 H 0.32448 0.23963 0.23929
 H1175 H 0.33961 0.29859 0.33241
 H1176 H 0.38866 0.30395 0.30914
 C1177 C 0.36231 0.76803 0.30564
 C1178 C 0.33751 0.77065 0.32758
 C1179 C 0.31073 0.77215 0.31011
 C1180 C 0.41004 0.75192 0.34129
 C1181 C 0.33335 0.77067 0.24819
 C1182 C 0.36028 0.76882 0.26588
 C1183 C 0.38892 0.76028 0.32430
 C1184 C 0.30809 0.77157 0.27009
 H1185 H 0.33877 0.76971 0.35835
 H1186 H 0.29212 0.77197 0.32834
 H1187 H 0.33234 0.76943 0.21746
 H1188 H 0.37935 0.76638 0.24854
 C1189 C 0.85923 0.27077 0.80569
 C1190 C 0.83452 0.27264 0.82791
 C1191 C 0.80764 0.27526 0.81073
 C1192 C 0.90740 0.25335 0.83961
 C1193 C 0.82999 0.27641 0.74873
 C1194 C 0.85700 0.27352 0.76609
 C1195 C 0.88600 0.26220 0.82354
 C1196 C 0.80480 0.27645 0.77075
 H1197 H 0.83589 0.27028 0.85853
 H1198 H 0.78910 0.27435 0.82901
 H1199 H 0.82885 0.27657 0.71797
 H1200 H 0.87598 0.27180 0.74848
 C1201 C 0.61115 0.99504 0.59137
 C1202 C 0.62145 1.00317 0.55600
 C1203 C 0.60463 1.00051 0.52362
 C1204 C 0.64098 1.01311 0.65046
 C1205 C 0.56758 0.97897 0.56085
 C1206 C 0.58446 0.98221 0.59374
 C1207 C 0.62691 1.00361 0.62469
 C1208 C 0.57709 0.98893 0.52537
 H1209 H 0.64185 1.01345 0.55374
 H1210 H 0.61268 1.00966 0.49772
 H1211 H 0.54639 0.97054 0.56370
 H1212 H 0.57609 0.97603 0.62112
 C1213 C 0.10505 0.49224 1.09505
 C1214 C 0.11523 0.50008 1.05954
 C1215 C 0.09789 0.49831 1.02754
 C1216 C 0.13642 0.50926 1.15334
 C1217 C 0.06045 0.47803 1.06528
 C1218 C 0.07784 0.48050 1.09789
 C1219 C 0.12158 0.50022 1.12801
 C1220 C 0.06992 0.48774 1.02964
 H1221 H 0.13600 0.50958 1.05689
 H1222 H 0.10597 0.50757 1.00176
 H1223 H 0.03894 0.47049 1.06853
 H1224 H 0.06954 0.47459 1.12541
 C1225 C -0.10804 0.00632 1.09572
 C1226 C -0.11939 0.00089 1.05987
 C1227 C -0.10293 0.00440 1.02744
 C1228 C -0.13644 -0.01552 1.15347
 C1229 C -0.06437 0.02236 1.06577
 C1230 C -0.08084 0.01808 1.09868
 C1231 C -0.12309 -0.00441 1.12834
 C1232 C -0.07466 0.01429 1.02962
 H1233 H -0.14021 -0.00850 1.05709
 H1234 H -0.11169 -0.00376 1.00129
 H1235 H -0.04267 0.02946 1.06904
 H1236 H -0.07166 0.02227 1.12640
 C1237 C 0.38878 0.50347 0.58992
 C1238 C 0.41607 0.51504 0.59271
 C1239 C 0.43280 0.51839 0.55981
 C1240 C 0.35904 0.48400 0.64786
 C1241 C 0.39450 0.49940 0.52190
 C1242 C 0.37777 0.49685 0.55424
 C1243 C 0.37312 0.49415 0.62276
 C1244 C 0.42261 0.50964 0.52390
 H1245 H 0.42501 0.51999 0.62034
 H1246 H 0.45444 0.52566 0.56295
 H1247 H 0.38590 0.49075 0.49592
 H1248 H 0.35692 0.48750 0.55163
 C1249 C 0.41432 0.46009 -0.09104
 C1250 C 0.41386 0.45074 -0.05327
 C1251 C 0.43788 0.45405 -0.02988
 C1252 C 0.36764 0.47001 -0.13214
 C1253 C 0.46348 0.47365 -0.08297
 C1254 C 0.43972 0.46997 -0.10630
 C1255 C 0.38831 0.46405 -0.11273
 C1256 C 0.46216 0.46790 -0.04362
 H1257 H 0.39432 0.44289 -0.04113
 H1258 H 0.43609 0.44862 -0.00013
 H1259 H 0.48188 0.48344 -0.09547
 H1260 H 0.44049 0.47698 -0.13565
 C1261 C -0.07967 0.95923 0.41568
 C1262 C -0.07960 0.95051 0.45372
 C1263 C -0.05527 0.95429 0.47631
 C1264 C -0.12656 0.96823 0.37493
 C1265 C -0.03059 0.97338 0.42212
 C1266 C -0.05461 0.96914 0.39952
 C1267 C -0.10588 0.96254 0.39437
 C1268 C -0.03127 0.96807 0.46160
 H1269 H -0.09880 0.94245 0.46652
 H1270 H -0.05622 0.94828 0.50589
 H1271 H -0.01237 0.98293 0.40883
 H1272 H -0.05428 0.97564 0.36995
 C1273 C 0.08282 0.54049 0.41471
 C1274 C 0.08274 0.54939 0.45277
 C1275 C 0.05793 0.54699 0.47463
 C1276 C 0.12976 0.52836 0.37554
 C1277 C 0.03284 0.52932 0.41955
 C1278 C 0.05738 0.53217 0.39766
 C1279 C 0.10912 0.53536 0.39432
 C1280 C 0.03348 0.53431 0.45916
 H1281 H 0.10223 0.55638 0.46617
 H1282 H 0.05886 0.55295 0.50429
 H1283 H 0.01425 0.52080 0.40568
 H1284 H 0.05706 0.52566 0.36800
 C1285 C 0.58275 0.04600 -0.08821
 C1286 C 0.58354 0.05556 -0.05046
 C1287 C 0.55959 0.05267 -0.02708
 C1288 C 0.62912 0.03344 -0.12844
 C1289 C 0.53337 0.03335 -0.08023
 C1290 C 0.55710 0.03659 -0.10357
 C1291 C 0.60866 0.04072 -0.10948
 C1292 C 0.53509 0.03906 -0.04087
 H1293 H 0.60325 0.06311 -0.03827
 H1294 H 0.56161 0.05824 0.00267
 H1295 H 0.51475 0.02376 -0.09265
 H1296 H 0.55615 0.02939 -0.13292
 C1297 C 0.62878 0.51368 -0.02224
 C1298 C 0.60893 0.52302 -0.04978
 C1299 C 0.58005 0.51649 -0.04612
 C1300 C 0.67588 0.54196 -0.01059
 C1301 C 0.59136 0.48935 0.01085
 C1302 C 0.62017 0.49563 0.00691
 C1303 C 0.65548 0.52784 -0.01816
 C1304 C 0.57059 0.50147 -0.01413
 H1305 H 0.61533 0.53706 -0.07252
 H1306 H 0.56506 0.52487 -0.06695
 H1307 H 0.58533 0.47707 0.03545
 H1308 H 0.63528 0.48841 0.02858
 C1309 C 0.13574 1.01724 0.47576
 C1310 C 0.11635 1.04057 0.47433
 C1311 C 0.08724 1.03645 0.47717
 C1312 C 0.18582 1.03463 0.49848
 C1313 C 0.09592 0.98492 0.47651
 C1314 C 0.12560 0.98919 0.47549
 C1315 C 0.16452 1.02388 0.48626
 C1316 C 0.07631 1.00865 0.47972
 H1317 H 0.12386 1.06239 0.47540
 H1318 H 0.07438 1.05558 0.48191
 H1319 H 0.08861 0.96314 0.47880
 H1320 H 0.14045 0.97085 0.47714
 C1321 C 0.09226 -0.03679 0.99167
 C1322 C 0.08110 -0.01019 1.00494
 C1323 C 0.05151 -0.00356 1.00193
 C1324 C 0.14645 -0.05472 0.98832
 C1325 C 0.04477 -0.05009 0.97311
 C1326 C 0.07384 -0.05667 0.97629
 C1327 C 0.12242 -0.04456 0.99143
 C1328 C 0.03282 -0.02345 0.98558
 H1329 H 0.09521 0.00557 1.01675
 H1330 H 0.04347 0.01741 1.01125
 H1331 H 0.03206 -0.06601 0.95961
 H1332 H 0.08209 -0.07725 0.96564
 C1333 C 0.58910 0.46022 0.48309
 C1334 C 0.57743 0.48548 0.49974
 C1335 C 0.54792 0.49222 0.49635
 C1336 C 0.64359 0.44292 0.48265
 C1337 C 0.54219 0.44843 0.46029
 C1338 C 0.57124 0.44174 0.46376
 C1339 C 0.61923 0.45243 0.48427
 C1340 C 0.52979 0.47376 0.47630
 H1341 H 0.59111 0.50009 0.51475
 H1342 H 0.53949 0.51215 0.50862
 H1343 H 0.52972 0.43356 0.44432
 H1344 H 0.57990 0.42216 0.45067
 C1345 C -0.13412 0.48568 0.47541
 C1346 C -0.12383 0.51366 0.47517
 C1347 C -0.09415 0.51782 0.47417
 C1348 C -0.18416 0.47020 0.50137
 C1349 C -0.08568 0.46629 0.47145
 C1350 C -0.11498 0.46231 0.47106
 C1351 C -0.16253 0.47941 0.48801
 C1352 C -0.07453 0.49398 0.47517
 H1353 H -0.13846 0.53205 0.47871
 H1354 H -0.08669 0.53951 0.47712
 H1355 H -0.07258 0.44705 0.47346
 H1356 H -0.12258 0.44053 0.47158
 C1357 C 0.36919 -0.01095 -0.01146
 C1358 C 0.37857 0.00877 0.01550
 C1359 C 0.40729 0.01584 0.01685
 C1360 C 0.32124 -0.03698 0.00366
 C1361 C 0.41707 -0.01429 -0.03820
 C1362 C 0.38821 -0.02153 -0.03936
 C1363 C 0.34225 -0.02428 -0.00531
 C1364 C 0.42741 0.00285 -0.00842
 H1365 H 0.36415 0.01702 0.03740
 H1366 H 0.41385 0.02969 0.03984
 H1367 H 0.43144 -0.02372 -0.05906
 H1368 H 0.38119 -0.03683 -0.06047
 C1369 C 0.41048 1.03560 0.48706
 C1370 C 0.42740 1.05257 0.46440
 C1371 C 0.45623 1.04573 0.45979
 C1372 C 0.35712 1.05549 0.48912
 C1373 C 0.45215 1.00455 0.50088
 C1374 C 0.42279 1.01153 0.50557
 C1375 C 0.38077 1.04433 0.49016
 C1376 C 0.46936 1.02166 0.47774
 H1377 H 0.41822 1.07128 0.44996
 H1378 H 0.46802 1.05971 0.44183
 H1379 H 0.46119 0.98562 0.51483
 H1380 H 0.40979 0.99815 0.52325
 C1381 C -0.09742 0.53715 0.98877
 C1382 C -0.07935 0.55557 0.97010
 C1383 C -0.05029 0.54900 0.96739
 C1384 C -0.15125 0.55576 0.98392
 C1385 C -0.05627 0.50536 1.00311
 C1386 C -0.08590 0.51201 1.00572
 C1387 C -0.12754 0.54506 0.98821
 C1388 C -0.03796 0.52377 0.98351
 H1389 H -0.08787 0.57499 0.95664
 H1390 H -0.03785 0.56371 0.95138
 H1391 H -0.04789 0.48548 1.01539
 H1392 H -0.09972 0.49742 1.02023
 C1393 C 0.00962 0.61734 0.57880
 C1394 C -0.00220 0.59527 0.59966
 C1395 C -0.00750 0.56900 0.58234
 C1396 C 0.02068 0.66519 0.61614
 C1397 C 0.00973 0.58694 0.52237
 C1398 C 0.01516 0.61337 0.53993
 C1399 C 0.01592 0.64377 0.59806
 C1400 C -0.00049 0.56392 0.54377
 H1401 H -0.00706 0.59824 0.62960
 H1402 H -0.01653 0.55247 0.59974
 H1403 H 0.01362 0.58464 0.49221
 H1404 H 0.02376 0.63060 0.52328
 C1405 C 0.51931 0.12068 0.08117
 C1406 C 0.51515 0.09691 0.10442
 C1407 C 0.51034 0.06999 0.08837
 C1408 C 0.52755 0.17085 0.11481
 C1409 C 0.51362 0.09037 0.02539
 C1410 C 0.51842 0.11741 0.04157
 C1411 C 0.52387 0.14833 0.09854
 C1412 C 0.51022 0.06605 0.04857
 H1413 H 0.51528 0.09923 0.13512
 H1414 H 0.50635 0.05236 0.10742
 H1415 H 0.51217 0.08870 -0.00526
 H1416 H 0.52111 0.13577 0.02321
 C1417 C -0.04895 0.12099 0.93851
 C1418 C -0.05746 0.10097 0.91150
 C1419 C -0.05519 0.07172 0.91927
 C1420 C -0.04774 0.17473 0.91469
 C1421 C -0.03708 0.08201 0.98236
 C1422 C -0.03909 0.11158 0.97424
 C1423 C -0.04848 0.15070 0.92735
 C1424 C -0.04462 0.06166 0.95460
 H1425 H -0.06505 0.10796 0.88376
 H1426 H -0.06143 0.05702 0.89703
 H1427 H -0.02884 0.07511 1.00977
 H1428 H -0.03229 0.12698 0.99535
 C1429 C 0.44924 0.61930 0.43931
 C1430 C 0.45982 0.60851 0.47398
 C1431 C 0.46093 0.57871 0.48057
 C1432 C 0.45287 0.67330 0.41742
 C1433 C 0.44024 0.57096 0.41823
 C1434 C 0.43886 0.60046 0.41200
 C1435 C 0.45114 0.64912 0.42926
 C1436 C 0.45176 0.55950 0.45231
 H1437 H 0.46798 0.62298 0.49534
 H1438 H 0.46993 0.57074 0.50705
 H1439 H 0.43284 0.55714 0.39565
 H1440 H 0.43064 0.60853 0.38508
 C1441 C 0.54801 0.87677 0.44488
 C1442 C 0.56051 0.89452 0.41821
 C1443 C 0.56043 0.92409 0.42400
 C1444 C 0.54208 0.82319 0.42230
 C1445 C 0.53710 0.91838 0.48490
 C1446 C 0.53688 0.88855 0.47872
 C1447 C 0.54459 0.84714 0.43474
 C1448 C 0.54812 0.93662 0.45699
 H1449 H 0.56912 0.88562 0.39188
 H1450 H 0.56895 0.93717 0.40160
 H1451 H 0.52733 0.92718 0.51052
 H1452 H 0.52705 0.87492 0.49953
 C1453 C 0.04198 0.37858 0.94253
 C1454 C 0.05303 0.39760 0.91628
 C1455 C 0.05180 0.42700 0.92346
 C1456 C 0.03887 0.32501 0.91838
 C1457 C 0.02998 0.41872 0.98477
 C1458 C 0.03087 0.38903 0.97715
 C1459 C 0.04021 0.34894 0.93137
 C1460 C 0.03991 0.43816 0.95755
 H1461 H 0.06162 0.38978 0.88938
 H1462 H 0.05956 0.44099 0.90153
 H1463 H 0.02051 0.42647 1.01113
 H1464 H 0.02210 0.37439 0.99762
 C1465 C 0.47876 0.38883 0.08285
 C1466 C 0.48275 0.41342 0.10487
 C1467 C 0.48729 0.43971 0.08744
 C1468 C 0.47418 0.33963 0.11928
 C1469 C 0.48354 0.41713 0.02550
 C1470 C 0.47909 0.39067 0.04310
 C1471 C 0.47591 0.36169 0.10169
 C1472 C 0.48723 0.44218 0.04743
 H1473 H 0.48302 0.41217 0.13566
 H1474 H 0.49147 0.45791 0.10567
 H1475 H 0.48473 0.41777 -0.00522
 H1476 H 0.47650 0.37161 0.02577
 C1477 C -0.00731 0.88366 0.57783
 C1478 C 0.00299 0.90587 0.60027
 C1479 C 0.00806 0.93251 0.58427
 C1480 C -0.01817 0.83539 0.61346
 C1481 C -0.00656 0.91481 0.52260
 C1482 C -0.01171 0.88796 0.53880
 C1483 C -0.01342 0.85687 0.59585
 C1484 C 0.00224 0.93785 0.54547
 H1485 H 0.00691 0.90266 0.63039
 H1486 H 0.01596 0.94909 0.60286
 H1487 H -0.00953 0.91741 0.49229
 H1488 H -0.01918 0.87067 0.52098
 C1489 C 0.24840 0.35767 0.15959
 C1490 C 0.23613 0.33056 0.15704
 C1491 C 0.23357 0.31345 0.18978
 C1492 C 0.26431 0.38860 0.10049
 C1493 C 0.25459 0.35104 0.22728
 C1494 C 0.25667 0.36807 0.19504
 C1495 C 0.25590 0.37400 0.12634
 C1496 C 0.24361 0.32311 0.22532
 H1497 H 0.22983 0.32209 0.12963
 H1498 H 0.22552 0.29199 0.18675
 H1499 H 0.26376 0.35929 0.25320
 H1500 H 0.26650 0.38879 0.19747
 C1501 C 0.74414 0.86247 0.65601
 C1502 C 0.73258 0.83513 0.65209
 C1503 C 0.72858 0.81788 0.68436
 C1504 C 0.76568 0.89195 0.59912
 C1505 C 0.74647 0.85596 0.72401
 C1506 C 0.74975 0.87317 0.69221
 C1507 C 0.75467 0.87820 0.62388
 C1508 C 0.73670 0.82757 0.72080
 H1509 H 0.72836 0.82645 0.62406
 H1510 H 0.72162 0.79611 0.68030
 H1511 H 0.75465 0.86425 0.75043
 H1512 H 0.75907 0.89406 0.69570
 C1513 C 0.25658 0.64170 0.65753
 C1514 C 0.25001 0.63110 0.69329
 C1515 C 0.25285 0.64823 0.72546
 C1516 C 0.23613 0.61178 0.59986
 C1517 C 0.27210 0.68607 0.68725
 C1518 C 0.26849 0.66893 0.65452
 C1519 C 0.24675 0.62587 0.62484
 C1520 C 0.26328 0.67638 0.72322
 H1521 H 0.24037 0.61033 0.69608
 H1522 H 0.24405 0.63997 0.75137
 H1523 H 0.27953 0.70772 0.68391
 H1524 H 0.27345 0.67755 0.62682
 C1525 C 0.75844 0.14047 0.16013
 C1526 C 0.75115 0.12949 0.19550
 C1527 C 0.75389 0.14612 0.22823
 C1528 C 0.73977 0.11168 0.10026
 C1529 C 0.77398 0.18423 0.19125
 C1530 C 0.77068 0.16757 0.15809
 C1531 C 0.74948 0.12516 0.12653
 C1532 C 0.76461 0.17416 0.22676
 H1533 H 0.74135 0.10875 0.19753
 H1534 H 0.74521 0.13760 0.25414
 H1535 H 0.78178 0.20579 0.18856
 H1536 H 0.77624 0.17646 0.13075
 C1537 C 0.70616 0.16852 0.83458
 C1538 C 0.69804 0.16694 0.79631
 C1539 C 0.70049 0.19101 0.77287
 C1540 C 0.71944 0.12297 0.87629
 C1541 C 0.71665 0.21869 0.82672
 C1542 C 0.71369 0.19490 0.85015
 C1543 C 0.71186 0.14294 0.85653
 C1544 C 0.71242 0.21637 0.78710
 H1545 H 0.69185 0.14667 0.78397
 H1546 H 0.69565 0.18868 0.74296
 H1547 H 0.72474 0.23801 0.83951
 H1548 H 0.71966 0.19649 0.87989
 C1549 C 0.20562 0.66566 0.33629
 C1550 C 0.21534 0.69134 0.35161
 C1551 C 0.21967 0.71485 0.32809
 C1552 C 0.21543 0.61919 0.37780
 C1553 C 0.20095 0.68841 0.27464
 C1554 C 0.19702 0.66466 0.29819
 C1555 C 0.20939 0.63976 0.35824
 C1556 C 0.21461 0.71293 0.28861
 H1557 H 0.22180 0.69248 0.38121
 H1558 H 0.22930 0.73351 0.34058
 H1559 H 0.19590 0.68625 0.24477
 H1560 H 0.18930 0.64493 0.28599
 C1561 C 0.79325 0.83036 0.34031
 C1562 C 0.78236 0.80562 0.35645
 C1563 C 0.77831 0.78124 0.33409
 C1564 C 0.78418 0.87855 0.37909
 C1565 C 0.79951 0.80488 0.28049
 C1566 C 0.80315 0.82953 0.30280
 C1567 C 0.78984 0.85714 0.36073
 C1568 C 0.78478 0.78129 0.29490
 H1569 H 0.77495 0.80587 0.38566
 H1570 H 0.76792 0.76336 0.34714
 H1571 H 0.80622 0.80543 0.25114
 H1572 H 0.81195 0.84846 0.29006
 C1573 C 0.29244 0.33476 0.83704
 C1574 C 0.28699 0.30865 0.85463
 C1575 C 0.28455 0.28373 0.83288
 C1576 C 0.27839 0.38110 0.87732
 C1577 C 0.29740 0.30989 0.77660
 C1578 C 0.29929 0.33510 0.79833
 C1579 C 0.28622 0.36091 0.85789
 C1580 C 0.28702 0.28463 0.79291
 H1581 H 0.28226 0.30798 0.88478
 H1582 H 0.27816 0.26449 0.84733
 H1583 H 0.30216 0.31092 0.74666
 H1584 H 0.30428 0.35508 0.78446
 C1585 C 0.75796 0.38416 0.76827
 C1586 C 0.73851 0.37574 0.74051
 C1587 C 0.73180 0.34687 0.73690
 C1588 C 0.78671 0.43067 0.75469
 C1589 C 0.76134 0.33521 0.79167
 C1590 C 0.76825 0.36415 0.79506
 C1591 C 0.77243 0.41058 0.76301
 C1592 C 0.74491 0.32587 0.76070
 H1593 H 0.73056 0.39097 0.71942
 H1594 H 0.71838 0.34093 0.71322
 H1595 H 0.77064 0.32004 0.81161
 H1596 H 0.78340 0.37042 0.81668
 C1597 C 0.26164 0.88019 0.26101
 C1598 C 0.24190 0.87070 0.23433
 C1599 C 0.23542 0.84168 0.23254
 C1600 C 0.28799 0.92784 0.24513
 C1601 C 0.26591 0.83200 0.28699
 C1602 C 0.27264 0.86111 0.28850
 C1603 C 0.27505 0.90710 0.25446
 C1604 C 0.24900 0.82152 0.25716
 H1605 H 0.23330 0.88524 0.21282
 H1606 H 0.22157 0.83498 0.20971
 H1607 H 0.27559 0.81760 0.30755
 H1608 H 0.28796 0.86824 0.30940
 C1609 C 0.21405 0.84460 0.76157
 C1610 C 0.23976 0.83309 0.74637
 C1611 C 0.24649 0.80339 0.74970
 C1612 C 0.19511 0.89862 0.76490
 C1613 C 0.20182 0.79731 0.78263
 C1614 C 0.19515 0.82644 0.77918
 C1615 C 0.20599 0.87482 0.76141
 C1616 C 0.22757 0.78500 0.76824
 H1617 H 0.25472 0.84700 0.73272
 H1618 H 0.26676 0.79503 0.73875
 H1619 H 0.18667 0.78484 0.79773
 H1620 H 0.17526 0.83497 0.79125
 C1621 C 0.71116 0.33854 0.25412
 C1622 C 0.70351 0.31623 0.22950
 C1623 C 0.71348 0.28788 0.23635
 C1624 C 0.68539 0.39008 0.25365
 C1625 C 0.73992 0.30458 0.29091
 C1626 C 0.73016 0.33270 0.28398
 C1627 C 0.69746 0.36674 0.25208
 C1628 C 0.73022 0.28146 0.26884
 H1629 H 0.68893 0.32052 0.20605
 H1630 H 0.70643 0.27084 0.21782
 H1631 H 0.75448 0.30110 0.31442
 H1632 H 0.73663 0.34977 0.30290
 C1633 C 0.73014 0.61457 0.27352
 C1634 C 0.70770 0.63491 0.27645
 C1635 C 0.71297 0.66412 0.27572
 C1636 C 0.71235 0.56438 0.24930
 C1637 C 0.76387 0.65338 0.27498
 C1638 C 0.75843 0.62374 0.27419
 C1639 C 0.72266 0.58588 0.26213
 C1640 C 0.74105 0.67416 0.27335
 H1641 H 0.68569 0.62826 0.27534
 H1642 H 0.69442 0.67800 0.27265
 H1643 H 0.78582 0.65990 0.27272
 H1644 H 0.77612 0.60822 0.27142
 C1645 C 0.23453 0.11921 0.79628
 C1646 C 0.26190 0.12610 0.78390
 C1647 C 0.26887 0.15503 0.78003
 C1648 C 0.20935 0.07311 0.77036
 C1649 C 0.22321 0.16973 0.80714
 C1650 C 0.21624 0.14094 0.81090
 C1651 C 0.22207 0.09284 0.78394
 C1652 C 0.24810 0.17711 0.78750
 H1653 H 0.27657 0.10944 0.77321
 H1654 H 0.28906 0.15982 0.76686
 H1655 H 0.20765 0.18572 0.81643
 H1656 H 0.19517 0.13591 0.82126
 C1657 C 0.29177 0.15544 0.26413
 C1658 C 0.30951 0.17296 0.28518
 C1659 C 0.30305 0.20215 0.28887
 C1660 C 0.30938 0.10097 0.26472
 C1661 C 0.26095 0.19724 0.24966
 C1662 C 0.26752 0.16757 0.24592
 C1663 C 0.29948 0.12521 0.26271
 C1664 C 0.27861 0.21500 0.27155
 H1665 H 0.32835 0.16393 0.29940
 H1666 H 0.31737 0.21436 0.30608
 H1667 H 0.24177 0.20608 0.23617
 H1668 H 0.25359 0.15415 0.22942
 C1669 C 0.78716 0.65901 0.75489
 C1670 C 0.80723 0.67749 0.76962
 C1671 C 0.80084 0.70672 0.77295
 C1672 C 0.80486 0.60467 0.76000
 C1673 C 0.75430 0.70010 0.74501
 C1674 C 0.76068 0.67031 0.74198
 C1675 C 0.79460 0.62866 0.75588
 C1676 C 0.77427 0.71882 0.76112
 H1677 H 0.82772 0.66911 0.78000
 H1678 H 0.81677 0.71933 0.78646
 H1679 H 0.73339 0.70825 0.73610
 H1680 H 0.74481 0.65616 0.73062
 C1681 C 0.86915 0.75714 0.17945
 C1682 C 0.86467 0.76098 0.21858
 C1683 C 0.83787 0.75555 0.23446
 C1684 C 0.91698 0.76927 0.14394
 C1685 C 0.82064 0.74159 0.17232
 C1686 C 0.84725 0.74687 0.15666
 C1687 C 0.89574 0.76396 0.16161
 C1688 C 0.81503 0.74718 0.21115
 H1689 H 0.88173 0.76834 0.23670
 H1690 H 0.83508 0.75820 0.26480
 H1691 H 0.80425 0.73390 0.15341
 H1692 H 0.85060 0.74331 0.12647
 C1693 C 0.36758 0.25686 0.67324
 C1694 C 0.34584 0.24298 0.65390
 C1695 C 0.31997 0.23801 0.67197
 C1696 C 0.41428 0.26795 0.63415
 C1697 C 0.33770 0.25966 0.72973
 C1698 C 0.36370 0.26473 0.71147
 C1699 C 0.39344 0.26315 0.65304
 C1700 C 0.31497 0.24737 0.70971
 H1701 H 0.34873 0.23634 0.62452
 H1702 H 0.30361 0.22746 0.65575
 H1703 H 0.33554 0.26547 0.75938
 H1704 H 0.38064 0.27494 0.72705
 C1705 C 0.37173 0.70511 0.81038
 C1706 C 0.36129 0.71525 0.77532
 C1707 C 0.33175 0.71602 0.76791
 C1708 C 0.42554 0.70843 0.83246
 C1709 C 0.32353 0.69587 0.83024
 C1710 C 0.35281 0.69486 0.83733
 C1711 C 0.40138 0.70691 0.82076
 C1712 C 0.31242 0.70692 0.79570
 H1713 H 0.37584 0.72333 0.75427
 H1714 H 0.32405 0.72472 0.74111
 H1715 H 0.30958 0.68854 0.85248
 H1716 H 0.36062 0.68698 0.86455
 C1717 C 0.87423 0.20285 0.30856
 C1718 C 0.86287 0.21350 0.27428
 C1719 C 0.83315 0.21434 0.26830
 C1720 C 0.92827 0.20615 0.32921
 C1721 C 0.82663 0.19340 0.33058
 C1722 C 0.85607 0.19226 0.33619
 C1723 C 0.90405 0.20468 0.31783
 C1724 C 0.81462 0.20483 0.29680
 H1725 H 0.87683 0.22192 0.25277
 H1726 H 0.82472 0.22341 0.24209
 H1727 H 0.81331 0.18589 0.35338
 H1728 H 0.86461 0.18403 0.36286
 C1729 C 0.13366 0.29554 0.30672
 C1730 C 0.14493 0.28529 0.27207
 C1731 C 0.17465 0.28433 0.26617
 C1732 C 0.07956 0.29230 0.32712
 C1733 C 0.18139 0.30458 0.32909
 C1734 C 0.15196 0.30576 0.33469
 C1735 C 0.10382 0.29373 0.31590
 C1736 C 0.19332 0.29337 0.29505
 H1737 H 0.13088 0.27726 0.25020
 H1738 H 0.18300 0.27552 0.23970
 H1739 H 0.19478 0.31181 0.35215
 H1740 H 0.14351 0.31370 0.36160
 C1741 C 0.62996 0.79869 0.80849
 C1742 C 0.63991 0.78952 0.77265
 C1743 C 0.66942 0.78814 0.76506
 C1744 C 0.57631 0.79640 0.83126
 C1745 C 0.67859 0.80555 0.82889
 C1746 C 0.64938 0.80721 0.83614
 C1747 C 0.60031 0.79755 0.81903
 C1748 C 0.68918 0.79563 0.79344
 H1749 H 0.62499 0.78275 0.75103
 H1750 H 0.67674 0.78037 0.73754
 H1751 H 0.69284 0.81169 0.85160
 H1752 H 0.64196 0.81431 0.86396
 C1753 C 0.63184 0.23316 0.66335
 C1754 C 0.65547 0.23943 0.64103
 C1755 C 0.68185 0.24425 0.65798
 C1756 C 0.58291 0.22598 0.62726
 C1757 C 0.66126 0.23658 0.72010
 C1758 C 0.63473 0.23173 0.70296
 C1759 C 0.60475 0.22907 0.64491
 C1760 C 0.68539 0.24235 0.69777
 H1761 H 0.65342 0.24098 0.61038
 H1762 H 0.69934 0.24985 0.63963
 H1763 H 0.66263 0.23637 0.75082
 H1764 H 0.61644 0.22731 0.72060
 C1765 C 0.13419 0.72952 0.16595
 C1766 C 0.15807 0.73309 0.14291
 C1767 C 0.18476 0.73737 0.15925
 C1768 C 0.08439 0.72415 0.13168
 C1769 C 0.16389 0.73436 0.22205
 C1770 C 0.13707 0.73011 0.20556
 C1771 C 0.10674 0.72642 0.14831
 C1772 C 0.18826 0.73751 0.19909
 H1773 H 0.15597 0.73315 0.11220
 H1774 H 0.20246 0.74119 0.14037
 H1775 H 0.16530 0.73583 0.25272
 H1776 H 0.11857 0.72780 0.22366
   
