data_POSCAR
  _audit_creation_date              2014-09-24
  _audit_creation_method            'ToBaCCo'
  _symmetry_space_group_name_H-M    'P1'
  _symmetry_Int_Tables_number       1
  _symmetry_cell_setting            triclinic
  loop_
  _symmetry_equiv_pos_as_xyz
 x,y,z
_cell_length_a 59.4953
_cell_length_b 59.3956
_cell_length_c 59.4339
_cell_angle_alpha 90.044400
_cell_angle_beta 90.072100
_cell_angle_gamma 90.036400
loop_
  _atom_site_label
  _atom_site_type_symbol
  _atom_site_fract_x
  _atom_site_fract_y
  _atom_site_fract_z
C1 C 0.30453 0.44593 0.91841
 N2 N 0.32347 0.45501 0.92737
 C3 C 0.33267 0.44599 0.94622
 N4 N 0.32310 0.42766 0.95591
 C5 C 0.30415 0.41857 0.94697
 N6 N 0.29497 0.42761 0.92811
 C7 C 0.44693 0.83213 0.44649
 N8 N 0.42860 0.82243 0.45599
 C9 C 0.41950 0.80362 0.44672
 N10 N 0.42852 0.79474 0.42773
 C11 C 0.44685 0.80443 0.41822
 N12 N 0.45595 0.82323 0.42751
 C13 C 0.94741 0.92090 0.80303
 N14 N 0.95693 0.93021 0.82160
 C15 C 0.94763 0.94874 0.83116
 N16 N 0.92858 0.95773 0.82238
 C17 C 0.91905 0.94842 0.80381
 N18 N 0.92837 0.92989 0.79425
 C19 C 0.44662 -0.08180 0.30304
 N20 N 0.45564 -0.07289 0.32205
 C21 C 0.44654 -0.05411 0.33132
 N22 N 0.42821 -0.04444 0.32177
 C23 C 0.41919 -0.05333 0.30275
 N24 N 0.42829 -0.07212 0.29350
 C25 C 0.80354 0.30303 0.33082
 N26 N 0.82245 0.29396 0.32187
 C27 C 0.83208 0.30348 0.30351
 N28 N 0.82298 0.32230 0.29430
 C29 C 0.80408 0.33139 0.30325
 N30 N 0.79446 0.32185 0.32162
 C31 C -0.19774 0.83169 0.80287
 N32 N -0.20717 0.82232 0.82142
 C33 C -0.19829 0.80330 0.83042
 N34 N -0.17975 0.79386 0.82107
 C35 C -0.17031 0.80321 0.80252
 N36 N -0.17920 0.82223 0.79353
 C37 C 0.94663 0.33094 0.44664
 N38 N 0.92825 0.32124 0.45604
 C39 C 0.91934 0.30230 0.44686
 N40 N 0.92861 0.29326 0.42806
 C41 C 0.94699 0.30295 0.41865
 N42 N 0.95590 0.32188 0.42784
 C43 C 0.44592 0.44602 0.83265
 N44 N 0.42721 0.45534 0.82350
 C45 C 0.41785 0.44616 0.80478
 N46 N 0.42700 0.42746 0.79542
 C47 C 0.44571 0.41813 0.80457
 N48 N 0.45506 0.42731 0.82328
 C49 C 0.80333 0.91938 0.94780
 N50 N 0.82197 0.92880 0.95707
 C51 C 0.83132 0.94736 0.94759
 N52 N 0.82225 0.95626 0.92862
 C53 C 0.80362 0.94685 0.91934
 N54 N 0.79428 0.92830 0.92884
 C55 C 0.30271 0.83103 0.30182
 N56 N 0.29325 0.82173 0.32039
 C57 C 0.30258 0.80320 0.32993
 N58 N 0.32159 0.79420 0.32112
 C59 C 0.33107 0.80349 0.30256
 N60 N 0.32172 0.82201 0.29302
 C61 C 0.80321 0.41895 0.44680
 N62 N 0.82211 0.42806 0.45582
 C63 C 0.83167 0.44640 0.44617
 N64 N 0.82253 0.45542 0.42729
 C65 C 0.80364 0.44631 0.41826
 N66 N 0.79409 0.42796 0.42791
 C67 C 0.94858 0.83029 -0.05196
 N68 N 0.92987 0.82092 -0.04288
 C69 C 0.92070 0.80222 -0.05229
 N70 N 0.93003 0.79311 -0.07103
 C71 C 0.94874 0.80247 -0.08014
 N72 N 0.95790 0.82117 -0.07071
 C73 C 0.30347 0.33141 0.80359
 N74 N 0.29381 0.32197 0.82198
 C75 C 0.30280 0.30313 0.83123
 N76 N 0.32166 0.29393 0.82230
 C77 C 0.33133 0.30336 0.80391
 N78 N 0.32233 0.32220 0.79466
 C79 C 0.17043 0.55249 0.55166
 N80 N 0.17942 0.57152 0.54280
 C81 C 0.19793 0.58092 0.55231
 N82 N 0.20722 0.57151 0.57093
 C83 C 0.19823 0.55248 0.57980
 N84 N 0.17972 0.54310 0.57028
 C85 C 0.58097 0.69773 0.05181
 N86 N 0.57162 0.70728 0.07032
 C87 C 0.55267 0.69839 0.07938
 N88 N 0.54327 0.67972 0.07014
 C89 C 0.55259 0.67016 0.05163
 N90 N 0.57155 0.67906 0.04258
 C91 C 0.69724 0.19772 0.66958
 N92 N 0.70664 0.17914 0.67893
 C93 C 0.69773 0.17012 0.69790
 N94 N 0.67918 0.17947 0.70730
 C95 C 0.66977 0.19806 0.69798
 N96 N 0.67868 0.20707 0.67900
 C97 C 1.08262 0.05286 0.19576
 N98 N 1.07361 0.04365 0.17689
 C99 C 1.05470 0.05257 0.16772
 N100 N 1.04500 0.07091 0.17725
 C101 C 1.05398 0.08013 0.19612
 N102 N 1.07290 0.07121 0.20527
 C103 C 0.05375 0.16677 1.05474
 N104 N 0.04433 0.17654 1.07310
 C105 C 0.05352 0.19547 1.08202
 N106 N 0.07236 0.20442 1.07279
 C107 C 0.08181 0.19467 1.05444
 N108 N 0.07259 0.17575 1.04552
 C109 C 0.16786 0.69694 0.69619
 N110 N 0.17753 0.67857 0.70569
 C111 C 0.19641 0.66960 0.69656
 N112 N 0.20541 0.67879 0.67771
 C113 C 0.19575 0.69717 0.66820
 N114 N 0.17688 0.70613 0.67735
 C115 C 1.19662 0.16707 0.19529
 N116 N 1.20558 0.17632 0.17644
 C117 C 1.19652 0.19532 0.16759
 N118 N 1.17829 0.20489 0.17741
 C119 C 1.16933 0.19567 0.19627
 N120 N 1.17839 0.17666 0.20509
 C121 C 0.66968 1.05304 0.55241
 N122 N 0.67861 1.07215 0.54366
 C123 C 0.69714 1.08152 0.55317
 N124 N 0.70653 1.07195 0.57166
 C125 C 0.69761 1.05284 0.58042
 N126 N 0.67907 1.04351 0.57090
 C127 C 0.55182 0.55171 0.17037
 N128 N 0.57053 0.54257 0.17971
 C129 C 0.57973 0.55196 0.19840
 N130 N 0.57046 0.57073 0.20751
 C131 C 0.55174 0.57988 0.19818
 N132 N 0.54255 0.57048 0.17950
 C133 C 0.66966 0.69797 0.19683
 N134 N 0.67846 0.70690 0.17776
 C135 C 0.69696 0.69752 0.16826
 N136 N 0.70644 0.67899 0.17764
 C137 C 0.69765 0.67005 0.19670
 N138 N 0.67915 0.67943 0.20618
 C139 C 0.16717 0.05327 1.05426
 N140 N 0.17652 0.07196 1.04507
 C141 C 0.19529 0.08109 1.05434
 N142 N 0.20451 0.07172 1.07301
 C143 C 0.19518 0.05302 1.08221
 N144 N 0.17641 0.04390 1.07293
 C145 C 0.58055 0.19760 0.55242
 N146 N 0.57122 0.20719 0.57093
 C147 C 0.55216 0.19843 0.57989
 N148 N 0.54266 0.17985 0.57058
 C149 C 0.55197 0.17027 0.55208
 N150 N 0.57102 0.17903 0.54313
 C151 C 0.07999 0.55303 0.69830
 N152 N 0.07087 0.57198 0.70721
 C153 C 0.05233 0.58128 0.69769
 N154 N 0.04313 0.57184 0.67903
 C155 C 0.05224 0.55289 0.67011
 N156 N 0.07078 0.54361 0.67964
 C157 C 0.67005 0.55273 0.05149
 N158 N 0.67896 0.57180 0.04263
 C159 C 0.69751 0.58121 0.05206
 N160 N 0.70693 0.57174 0.07058
 C161 C 0.69803 0.55267 0.07945
 N162 N 0.67948 0.54329 0.07001
 C163 C 0.05402 0.69694 0.58212
 N164 N 0.07288 0.70595 0.57299
 C165 C 0.08192 0.69678 0.55414
 N166 N 0.07227 0.67839 0.54461
 C167 C 0.05341 0.66937 0.55372
 N168 N 0.04439 0.67854 0.57258
 C169 C 0.55161 1.05122 0.66970
 N170 N 0.54234 1.06997 0.67887
 C171 C 0.55150 1.07930 0.69762
 N172 N 0.57017 1.07009 0.70696
 C173 C 0.57946 1.05134 0.69781
 N174 N 0.57029 1.04203 0.67906
 C175 C 0.44607 0.33219 0.94667
 N176 N 0.45515 0.32315 0.92777
 C177 C 0.44618 0.30420 0.91867
 N178 N 0.42792 0.29448 0.92828
 C179 C 0.41883 0.30349 0.94718
 N180 N 0.42780 0.32245 0.95626
 C181 C 0.94570 0.44502 0.33317
 N182 N 0.92702 0.45439 0.32399
 C183 C 0.91764 0.44523 0.30527
 N184 N 0.92676 0.42650 0.29592
 C185 C 0.94544 0.41711 0.30508
 N186 N 0.95481 0.42628 0.32380
 C187 C 0.30351 0.94826 0.41927
 N188 N 0.32257 0.95720 0.42814
 C189 C 0.33198 0.94788 0.44675
 N190 N 0.32253 0.92940 0.45626
 C191 C 0.30347 0.92046 0.44740
 N192 N 0.29408 0.92978 0.42880
 O193 O 0.19017 0.52947 0.74915
 O194 O 0.19757 0.52637 0.78762
 O195 O 0.24848 0.56019 0.72143
 O196 O 0.28865 0.55131 0.72262
 O197 O 0.22124 0.50156 0.69025
 O198 O 0.22275 0.46222 0.69848
 O199 O 0.30868 0.49881 0.77987
 O200 O 0.30321 0.53658 0.77530
 O201 O 0.25179 0.47108 0.80903
 O202 O 0.21121 0.47274 0.80128
 O203 O 0.27882 0.44126 0.75182
 O204 O 0.27726 0.44938 0.71122
 O205 O 0.30872 0.47180 0.75258
 O206 O 0.30073 0.47385 0.71120
 O207 O 0.25171 0.44109 0.77879
 O208 O 0.21036 0.44973 0.77637
 O209 O 0.27911 0.49794 0.80903
 O210 O 0.27194 0.53881 0.80143
 O211 O 0.18992 0.50199 0.72226
 O212 O 0.19823 0.46208 0.72385
 O213 O 0.24847 0.52855 0.69015
 O214 O 0.28807 0.52646 0.69850
 O215 O 0.22146 0.56030 0.74857
 O216 O 0.22679 0.55133 0.78914
 Zr217 Zr 0.22284 0.52773 0.76259
 O218 O 0.24242 0.50747 0.78407
 Zr219 Zr 0.26218 0.52751 0.72282
 O220 O 0.28355 0.50776 0.74291
 Zr221 Zr 0.22254 0.48804 0.72298
 O222 O 0.24247 0.46630 0.74263
 Zr223 Zr 0.27653 0.51304 0.77711
 O224 O 0.25707 0.53523 0.75707
 Zr225 Zr 0.23709 0.47328 0.77687
 O226 O 0.21535 0.49343 0.75719
 Zr227 Zr 0.27668 0.47353 0.73743
 O228 O 0.25675 0.49325 0.71544
 O229 O 0.22824 0.52204 0.72851
 O230 O 0.27121 0.47878 0.77160
 C231 C 0.18057 0.51790 0.73359
 C232 C 0.23279 0.56972 0.73279
 C233 C 0.23271 0.51717 0.68070
 C234 C 0.31795 0.48274 0.76881
 C235 C 0.26805 0.48188 0.81828
 C236 C 0.26782 0.43188 0.76781
 H237 H 0.23892 0.51116 0.79991
 H238 H 0.23881 0.45052 0.73884
 H239 H 0.21862 0.53160 0.71886
 H240 H 0.29934 0.51166 0.73952
 H241 H 0.29649 0.55115 0.77092
 H242 H 0.28660 0.56105 0.73596
 H243 H 0.21288 0.43936 0.76359
 H244 H 0.19071 0.46316 0.73865
 H245 H 0.28476 0.53815 0.81208
 H246 H 0.21487 0.56293 0.78781
 H247 H 0.26349 0.44014 0.71251
 H248 H 0.23782 0.46255 0.69146
 H249 H 0.19118 0.51099 0.78715
 H250 H 0.21264 0.48653 0.81050
 H251 H 0.28705 0.51155 0.69111
 H252 H 0.31069 0.48697 0.71359
 O253 O 0.30985 -0.00128 0.27816
 O254 O 0.30251 0.03726 0.27471
 O255 O 0.25171 -0.02874 0.30922
 O256 O 0.21152 -0.02785 0.30043
 O257 O 0.27869 -0.06030 0.25064
 O258 O 0.27687 -0.05229 0.21129
 O259 O 0.19120 0.02924 0.24768
 O260 O 0.19683 0.02486 0.28543
 O261 O 0.24803 0.05836 0.21972
 O262 O 0.28857 0.05060 0.22119
 O263 O 0.22066 0.00094 0.19030
 O264 O 0.22236 -0.03971 0.19862
 O265 O 0.19097 0.00172 0.22090
 O266 O 0.19897 -0.03962 0.22312
 O267 O 0.24777 0.02799 0.18990
 O268 O 0.28920 0.02556 0.19830
 O269 O 0.22082 0.05846 0.24663
 O270 O 0.22815 0.05100 0.28750
 O271 O 0.30994 -0.02829 0.25081
 O272 O 0.30142 -0.02683 0.21091
 O273 O 0.25168 -0.06030 0.27779
 O274 O 0.21202 -0.05209 0.27571
 O275 O 0.27872 -0.00153 0.30904
 O276 O 0.27347 0.03894 0.29982
 Zr277 Zr 0.27721 0.01221 0.27639
 O278 O 0.25750 0.03356 0.25612
 Zr279 Zr 0.23787 -0.02766 0.27657
 O280 O 0.21638 -0.00769 0.25680
 Zr281 Zr 0.27726 -0.02764 0.23695
 O282 O 0.25720 -0.00812 0.21520
 Zr283 Zr 0.22342 0.02658 0.26184
 O284 O 0.24302 0.00667 0.28405
 Zr285 Zr 0.26265 0.02618 0.22198
 O286 O 0.28450 0.00663 0.24213
 Zr287 Zr 0.22304 -0.01334 0.22259
 O288 O 0.24308 -0.03522 0.24234
 O289 O 0.27176 -0.02192 0.27093
 O290 O 0.22855 0.02088 0.22763
 C291 C 0.31937 -0.01692 0.26666
 C292 C 0.26743 -0.01725 0.31862
 C293 C 0.26739 -0.06978 0.26640
 C294 C 0.18182 0.01805 0.23174
 C295 C 0.23185 0.06766 0.23053
 C296 C 0.23158 0.01696 0.18082
 H297 H 0.26104 0.04943 0.25972
 H298 H 0.26076 -0.01199 0.19943
 H299 H 0.28141 -0.03149 0.28053
 H300 H 0.20060 -0.01109 0.26078
 H301 H 0.20360 0.02051 0.30000
 H302 H 0.21353 -0.01439 0.31003
 H303 H 0.28656 0.01275 0.18798
 H304 H 0.30897 -0.01201 0.21193
 H305 H 0.21536 0.06167 0.28682
 H306 H 0.28550 0.03774 0.31133
 H307 H 0.23600 -0.03835 0.18923
 H308 H 0.26179 -0.05933 0.21172
 H309 H 0.30894 0.03656 0.25938
 H310 H 0.28731 0.05982 0.23499
 H311 H 0.21301 -0.05959 0.26087
 H312 H 0.18917 -0.03724 0.23634
 O313 O 0.55980 0.72160 0.24823
 O314 O 0.55255 0.72485 0.28673
 O315 O 0.50140 0.69077 0.22068
 O316 O 0.46131 0.69971 0.22152
 O317 O 0.52866 0.74952 0.18946
 O318 O 0.52703 0.78884 0.19771
 O319 O 0.44128 0.75213 0.27897
 O320 O 0.44682 0.71440 0.27441
 O321 O 0.49830 0.77991 0.30826
 O322 O 0.53880 0.77841 0.30047
 O323 O 0.47099 0.80972 0.25109
 O324 O 0.47253 0.80162 0.21046
 O325 O 0.44112 0.77909 0.25167
 O326 O 0.44912 0.77712 0.21035
 O327 O 0.49816 0.80993 0.27807
 O328 O 0.53953 0.80140 0.27559
 O329 O 0.47097 0.75306 0.30819
 O330 O 0.47816 0.71220 0.30050
 O331 O 0.55997 0.74913 0.22144
 O332 O 0.55159 0.78905 0.22314
 O333 O 0.50156 0.72240 0.18929
 O334 O 0.46190 0.72457 0.19753
 O335 O 0.52847 0.69074 0.24783
 O336 O 0.52340 0.69984 0.28833
 Zr337 Zr 0.52718 0.72337 0.26174
 O338 O 0.50759 0.74360 0.28322
 Zr339 Zr 0.48778 0.72350 0.22192
 O340 O 0.46640 0.74322 0.24204
 Zr341 Zr 0.52734 0.76304 0.22218
 O342 O 0.50739 0.78475 0.24185
 Zr343 Zr 0.47347 0.73798 0.27624
 O344 O 0.49295 0.71583 0.25618
 Zr345 Zr 0.51286 0.77779 0.27607
 O346 O 0.53460 0.75767 0.25638
 Zr347 Zr 0.47318 0.77746 0.23661
 O348 O 0.49312 0.75777 0.21460
 O349 O 0.52171 0.72902 0.22766
 O350 O 0.47872 0.77224 0.27078
 C351 C 0.56935 0.73320 0.23269
 C352 C 0.51706 0.68125 0.23212
 C353 C 0.51728 0.73383 0.17988
 C354 C 0.43193 0.76813 0.26787
 C355 C 0.48209 0.76908 0.31749
 C356 C 0.48200 0.81911 0.26712
 H357 H 0.51114 0.73991 0.29906
 H358 H 0.51102 0.80054 0.23808
 H359 H 0.53131 0.71942 0.21804
 H360 H 0.45061 0.73928 0.23862
 H361 H 0.45355 0.69983 0.27001
 H362 H 0.46319 0.69011 0.23498
 H363 H 0.53694 0.81178 0.26284
 H364 H 0.55918 0.78794 0.23793
 H365 H 0.46537 0.71285 0.31117
 H366 H 0.53536 0.68827 0.28703
 H367 H 0.48627 0.81091 0.21179
 H368 H 0.51194 0.78849 0.19070
 H369 H 0.55900 0.74021 0.28617
 H370 H 0.53752 0.76453 0.30958
 H371 H 0.46299 0.73944 0.19010
 H372 H 0.43927 0.76389 0.21261
 O373 O -0.00138 0.77999 0.81029
 O374 O 0.03704 0.77683 0.80296
 O375 O -0.02901 0.81068 0.75181
 O376 O -0.02803 0.80167 0.71164
 O377 O -0.06021 0.75207 0.77912
 O378 O -0.05202 0.71273 0.77756
 O379 O 0.02923 0.74918 0.69168
 O380 O 0.02463 0.78695 0.69714
 O381 O 0.05841 0.72155 0.74866
 O382 O 0.05071 0.72322 0.78927
 O383 O 0.00119 0.69164 0.72156
 O384 O -0.03932 0.69981 0.72298
 O385 O 0.00199 0.72216 0.69159
 O386 O -0.03935 0.72425 0.69951
 O387 O 0.02817 0.69151 0.74873
 O388 O 0.02584 0.70023 0.79008
 O389 O 0.05838 0.74840 0.72134
 O390 O 0.05075 0.78925 0.72851
 O391 O -0.02821 0.75249 0.81050
 O392 O -0.02664 0.71257 0.80214
 O393 O -0.06034 0.77905 0.75189
 O394 O -0.05210 0.77683 0.71225
 O395 O -0.00189 0.81079 0.77891
 O396 O 0.03859 0.80176 0.77374
 Zr397 Zr 0.01204 0.77819 0.77760
 O398 O 0.03347 0.75792 0.75801
 Zr399 Zr -0.02774 0.77795 0.73816
 O400 O -0.00768 0.75816 0.71679
 Zr401 Zr -0.02754 0.73852 0.77782
 O402 O -0.00792 0.71676 0.75789
 Zr403 Zr 0.02648 0.76345 0.72386
 O404 O 0.00648 0.78565 0.74333
 Zr405 Zr 0.02629 0.72374 0.76333
 O406 O 0.00665 0.74391 0.78507
 Zr407 Zr -0.01314 0.72394 0.72363
 O408 O -0.03510 0.74369 0.74357
 O409 O -0.02201 0.77252 0.77215
 O410 O 0.02100 0.72919 0.72916
 C411 C -0.01690 0.76841 0.81988
 C412 C -0.01761 0.82023 0.76750
 C413 C -0.06976 0.76770 0.76766
 C414 C 0.01819 0.73310 0.68237
 C415 C 0.06764 0.73236 0.73243
 C416 C 0.01716 0.68226 0.73262
 H417 H 0.04929 0.76162 0.76155
 H418 H -0.01171 0.70099 0.76155
 H419 H -0.03162 0.78212 0.78176
 H420 H -0.01108 0.76205 0.70097
 H421 H 0.02029 0.80154 0.70387
 H422 H -0.01465 0.81136 0.71362
 H423 H 0.01303 0.68990 0.78759
 H424 H -0.01185 0.71367 0.80971
 H425 H 0.06137 0.78860 0.71568
 H426 H 0.03730 0.81336 0.78568
 H427 H -0.03810 0.69065 0.73682
 H428 H -0.05908 0.71308 0.76247
 H429 H 0.03656 0.76146 0.80936
 H430 H 0.05990 0.73703 0.78787
 H431 H -0.05947 0.76192 0.71328
 H432 H -0.03697 0.73736 0.68955
 O433 O -0.02907 -0.06037 -0.00113
 O434 O -0.02592 -0.05326 0.03741
 O435 O -0.05988 -0.00174 -0.02832
 O436 O -0.05100 0.03849 -0.02684
 O437 O -0.00140 -0.02870 -0.05975
 O438 O 0.03789 -0.02713 -0.05156
 O439 O 0.00159 0.05817 0.03055
 O440 O -0.03615 0.05265 0.02599
 O441 O 0.02935 0.00091 0.05924
 O442 O 0.02767 -0.03964 0.05114
 O443 O 0.05893 0.02861 0.00229
 O444 O 0.05073 0.02731 -0.03837
 O445 O 0.02845 0.05848 0.00322
 O446 O 0.02633 0.05082 -0.03818
 O447 O 0.05918 0.00121 0.02903
 O448 O 0.05057 -0.04024 0.02618
 O449 O 0.00258 0.02829 0.05948
 O450 O -0.03827 0.02111 0.05187
 O451 O -0.00168 -0.06033 -0.02801
 O452 O 0.03815 -0.05191 -0.02639
 O453 O -0.02837 -0.00148 -0.05962
 O454 O -0.02623 0.03814 -0.05096
 O455 O -0.05990 -0.02906 -0.00143
 O456 O -0.05084 -0.02405 0.03917
 Zr457 Zr -0.02734 -0.02774 0.01258
 O458 O -0.00706 -0.00828 0.03421
 Zr459 Zr -0.02724 0.01201 -0.02685
 O460 O -0.00746 0.03327 -0.00659
 Zr461 Zr 0.01220 -0.02762 -0.02704
 O462 O 0.03395 -0.00779 -0.00723
 Zr463 Zr -0.01262 0.02595 0.02756
 O464 O -0.03483 0.00659 0.00737
 Zr465 Zr 0.02706 -0.01351 0.02696
 O466 O 0.00689 -0.03514 0.00711
 Zr467 Zr 0.02670 0.02650 -0.01215
 O468 O 0.00696 0.00670 -0.03430
 O469 O -0.02174 -0.02203 -0.02145
 O470 O 0.02155 0.02071 0.02197
 C471 C -0.01752 -0.06983 -0.01676
 C472 C -0.06936 -0.01757 -0.01710
 C473 C -0.01704 -0.01718 -0.06920
 C474 C 0.01759 0.06758 0.01954
 C475 C 0.01863 0.01713 0.06862
 C476 C 0.06833 0.01748 0.01821
 H477 H -0.01070 -0.01193 0.05003
 H478 H 0.04970 -0.01140 -0.01106
 H479 H -0.03131 -0.03160 -0.03116
 H480 H -0.01137 0.04912 -0.00985
 H481 H -0.05071 0.04593 0.02157
 H482 H -0.06065 0.03633 -0.01348
 H483 H 0.06096 -0.03752 0.01349
 H484 H 0.03712 -0.05957 -0.01165
 H485 H -0.03756 0.03386 0.06263
 H486 H -0.06242 -0.03600 0.03776
 H487 H 0.06004 0.01358 -0.03712
 H488 H 0.03753 -0.01196 -0.05844
 H489 H -0.01056 -0.05965 0.03688
 H490 H 0.01392 -0.03833 0.06038
 H491 H -0.01138 0.03717 -0.05840
 H492 H 0.01318 0.06070 -0.03576
 O493 O 0.00156 0.55982 0.52898
 O494 O -0.03693 0.55252 0.52575
 O495 O 0.02912 0.50150 0.55975
 O496 O 0.02812 0.46128 0.55090
 O497 O 0.06020 0.52859 0.50094
 O498 O 0.05184 0.52697 0.46169
 O499 O -0.02933 0.44104 0.49856
 O500 O -0.02469 0.44665 0.53626
 O501 O -0.05858 0.49809 0.47084
 O502 O -0.05072 0.53865 0.47224
 O503 O -0.00159 0.47061 0.44100
 O504 O 0.03906 0.47230 0.44899
 O505 O -0.00209 0.44084 0.47161
 O506 O 0.03922 0.44891 0.47352
 O507 O -0.02853 0.49778 0.44079
 O508 O -0.02591 0.53929 0.44920
 O509 O -0.05849 0.47076 0.49768
 O510 O -0.05070 0.47803 0.53850
 O511 O 0.02830 0.55997 0.50146
 O512 O 0.02644 0.55153 0.46154
 O513 O 0.06038 0.50150 0.52807
 O514 O 0.05207 0.46180 0.52604
 O515 O 0.00199 0.52855 0.55980
 O516 O -0.03850 0.52337 0.55078
 Zr517 Zr -0.01198 0.52714 0.52722
 O518 O -0.03349 0.50746 0.50705
 Zr519 Zr 0.02776 0.48772 0.52708
 O520 O 0.00762 0.46624 0.50742
 Zr521 Zr 0.02746 0.52726 0.48752
 O522 O 0.00777 0.50721 0.46586
 Zr523 Zr -0.02654 0.47331 0.51270
 O524 O -0.00644 0.49288 0.53480
 Zr525 Zr -0.02639 0.51267 0.47286
 O526 O -0.00669 0.53452 0.49293
 Zr527 Zr 0.01298 0.47297 0.47318
 O528 O 0.03501 0.49301 0.49281
 O529 O 0.02205 0.52168 0.52153
 O530 O -0.02113 0.47850 0.47845
 C531 C 0.01710 0.56937 0.51741
 C532 C 0.01773 0.51719 0.56926
 C533 C 0.06978 0.51721 0.51660
 C534 C -0.01828 0.43166 0.48257
 C535 C -0.06779 0.48186 0.48169
 C536 C -0.01764 0.48155 0.43164
 H537 H -0.04929 0.51102 0.51075
 H538 H 0.01151 0.51079 0.45007
 H539 H 0.03171 0.53132 0.53109
 H540 H 0.01102 0.45043 0.51136
 H541 H -0.02022 0.45341 0.55080
 H542 H 0.01474 0.46325 0.56056
 H543 H -0.01323 0.53663 0.43878
 H544 H 0.01167 0.55911 0.46269
 H545 H -0.06138 0.46522 0.53787
 H546 H -0.03717 0.53538 0.56232
 H547 H 0.03764 0.48598 0.43963
 H548 H 0.05877 0.51182 0.46196
 H549 H -0.03635 0.55899 0.51042
 H550 H -0.05977 0.53743 0.48613
 H551 H 0.05945 0.46281 0.51115
 H552 H 0.03694 0.43903 0.48672
 O553 O 0.55960 0.02910 0.50146
 O554 O 0.55233 0.02589 0.46298
 O555 O 0.50115 0.05973 0.52897
 O556 O 0.46110 0.05069 0.52809
 O557 O 0.52857 0.00107 0.56021
 O558 O 0.52700 -0.03824 0.55194
 O559 O 0.44112 -0.00166 0.47051
 O560 O 0.44665 0.03606 0.47508
 O561 O 0.49815 -0.02936 0.44132
 O562 O 0.53868 -0.02771 0.44919
 O563 O 0.47094 -0.05926 0.49841
 O564 O 0.47238 -0.05125 0.53897
 O565 O 0.44101 -0.02867 0.49775
 O566 O 0.44906 -0.02669 0.53915
 O567 O 0.49812 -0.05939 0.47151
 O568 O 0.53945 -0.05073 0.47403
 O569 O 0.47079 -0.00258 0.44135
 O570 O 0.47798 0.03831 0.44905
 O571 O 0.55986 0.00156 0.52824
 O572 O 0.55151 -0.03840 0.52653
 O573 O 0.50140 0.02809 0.56034
 O574 O 0.46173 0.02576 0.55200
 O575 O 0.52820 0.05986 0.50187
 O576 O 0.52312 0.05080 0.46135
 Zr577 Zr 0.52697 0.02725 0.48793
 O578 O 0.50742 0.00698 0.46638
 Zr579 Zr 0.48760 0.02697 0.52768
 O580 O 0.46625 0.00723 0.50749
 Zr581 Zr 0.52723 -0.01244 0.52747
 O582 O 0.50730 -0.03418 0.50775
 Zr583 Zr 0.47330 0.01252 0.47330
 O584 O 0.49274 0.03469 0.49344
 Zr585 Zr 0.51274 -0.02719 0.47354
 O586 O 0.53446 -0.00703 0.49328
 Zr587 Zr 0.47307 -0.02700 0.51290
 O588 O 0.49301 -0.00730 0.53498
 O589 O 0.52154 0.02156 0.52200
 O590 O 0.47860 -0.02174 0.47875
 C591 C 0.56920 0.01752 0.51699
 C592 C 0.51678 0.06930 0.51757
 C593 C 0.51716 0.01672 0.56978
 C594 C 0.43179 -0.01769 0.48155
 C595 C 0.48191 -0.01857 0.43206
 C596 C 0.48199 -0.06862 0.48242
 H597 H 0.51096 0.01069 0.45056
 H598 H 0.51095 -0.04996 0.51151
 H599 H 0.53113 0.03118 0.53164
 H600 H 0.45045 0.01113 0.51087
 H601 H 0.45337 0.05064 0.47948
 H602 H 0.46290 0.06025 0.51460
 H603 H 0.53692 -0.06109 0.48681
 H604 H 0.55910 -0.03724 0.51177
 H605 H 0.46519 0.03763 0.43835
 H606 H 0.53505 0.06241 0.46269
 H607 H 0.48625 -0.06034 0.53780
 H608 H 0.51190 -0.03795 0.55892
 H609 H 0.55876 0.01053 0.46349
 H610 H 0.53732 -0.01388 0.44003
 H611 H 0.46289 0.01091 0.55947
 H612 H 0.43912 -0.01356 0.53680
 O613 O 0.50127 0.55968 0.02891
 O614 O 0.46279 0.55239 0.02581
 O615 O 0.52879 0.50118 0.05966
 O616 O 0.52789 0.46104 0.05073
 O617 O 0.55985 0.52847 0.00089
 O618 O 0.55149 0.52676 -0.03839
 O619 O 0.47027 0.44091 -0.00156
 O620 O 0.47500 0.44650 0.03619
 O621 O 0.44106 0.49790 -0.02924
 O622 O 0.44884 0.53852 -0.02766
 O623 O 0.49806 0.47065 -0.05913
 O624 O 0.53866 0.47217 -0.05111
 O625 O 0.49742 0.44076 -0.02859
 O626 O 0.53875 0.44871 -0.02665
 O627 O 0.47114 0.49785 -0.05927
 O628 O 0.47364 0.53928 -0.05070
 O629 O 0.44116 0.47058 -0.00240
 O630 O 0.44893 0.47788 0.03842
 O631 O 0.52795 0.55981 0.00133
 O632 O 0.52614 0.55136 -0.03854
 O633 O 0.56006 0.50133 0.02798
 O634 O 0.55175 0.46160 0.02579
 O635 O 0.50173 0.52830 0.05977
 O636 O 0.46123 0.52322 0.05079
 Zr637 Zr 0.48773 0.52698 0.02720
 O638 O 0.46617 0.50733 0.00704
 Zr639 Zr 0.52744 0.48752 0.02696
 O640 O 0.50725 0.46608 0.00730
 Zr641 Zr 0.52712 0.52710 -0.01254
 O642 O 0.50738 0.50710 -0.03419
 Zr643 Zr 0.47311 0.47316 0.01263
 O644 O 0.49325 0.49270 0.03471
 Zr645 Zr 0.47321 0.51257 -0.02714
 O646 O 0.49298 0.53438 -0.00709
 Zr647 Zr 0.51258 0.47285 -0.02693
 O648 O 0.53466 0.49284 -0.00731
 O649 O 0.52174 0.52151 0.02147
 O650 O 0.47848 0.47840 -0.02162
 C651 C 0.51677 0.56924 0.01727
 C652 C 0.51743 0.51687 0.06921
 C653 C 0.56944 0.51708 0.01654
 C654 C 0.48124 0.43156 -0.01763
 C655 C 0.43185 0.48164 -0.01842
 C656 C 0.48205 0.48167 -0.06848
 H657 H 0.45036 0.51087 0.01077
 H658 H 0.51110 0.51073 -0.04997
 H659 H 0.53140 0.53114 0.03104
 H660 H 0.51064 0.45026 0.01121
 H661 H 0.47937 0.45328 0.05076
 H662 H 0.51444 0.46289 0.06032
 H663 H 0.48635 0.53671 -0.06110
 H664 H 0.51138 0.55895 -0.03740
 H665 H 0.43828 0.46504 0.03781
 H666 H 0.46259 0.53521 0.06236
 H667 H 0.53734 0.48594 -0.06037
 H668 H 0.55851 0.51166 -0.03803
 H669 H 0.46327 0.55878 0.01044
 H670 H 0.43973 0.53718 -0.01382
 H671 H 0.55913 0.46268 0.01091
 H672 H 0.53646 0.43883 -0.01346
 O673 O 0.80973 0.25036 0.47087
 O674 O 0.80227 0.21184 0.47411
 O675 O 0.75149 0.27810 0.44009
 O676 O 0.71131 0.27703 0.44894
 O677 O 0.77879 0.30935 0.49863
 O678 O 0.77724 0.30123 0.53797
 O679 O 0.69111 0.22001 0.50149
 O680 O 0.69664 0.22432 0.46380
 O681 O 0.74808 0.19064 0.52933
 O682 O 0.78856 0.19830 0.52777
 O683 O 0.72110 0.24810 0.55901
 O684 O 0.72272 0.28867 0.55077
 O685 O 0.69113 0.24741 0.52839
 O686 O 0.69927 0.28870 0.52635
 O687 O 0.74818 0.22106 0.55929
 O688 O 0.78953 0.22334 0.55060
 O689 O 0.72072 0.19064 0.50251
 O690 O 0.72786 0.19817 0.46165
 O691 O 0.81001 0.27731 0.49828
 O692 O 0.80172 0.27577 0.53818
 O693 O 0.75158 0.30946 0.47161
 O694 O 0.71194 0.30122 0.47373
 O695 O 0.77845 0.25088 0.44006
 O696 O 0.77306 0.21032 0.44912
 Zr697 Zr 0.77704 0.23694 0.47265
 O698 O 0.75742 0.21555 0.49294
 Zr699 Zr 0.73778 0.27682 0.47274
 O700 O 0.71638 0.25682 0.49252
 Zr701 Zr 0.77740 0.27666 0.51223
 O702 O 0.75744 0.25710 0.53398
 Zr703 Zr 0.72331 0.22256 0.48736
 O704 O 0.74282 0.24251 0.46513
 Zr705 Zr 0.76276 0.22282 0.52709
 O706 O 0.78454 0.24240 0.50692
 Zr707 Zr 0.72324 0.26238 0.52672
 O708 O 0.74321 0.28429 0.50697
 O709 O 0.77170 0.27106 0.47826
 O710 O 0.72863 0.22815 0.52159
 C711 C 0.81934 0.26596 0.48239
 C712 C 0.76716 0.26669 0.43060
 C713 C 0.76737 0.31889 0.48297
 C714 C 0.68183 0.23122 0.51744
 C715 C 0.73183 0.18137 0.51853
 C716 C 0.73211 0.23214 0.56846
 H717 H 0.76090 0.19968 0.48929
 H718 H 0.76112 0.26093 0.54974
 H719 H 0.78133 0.28066 0.46868
 H720 H 0.70060 0.26025 0.48859
 H721 H 0.70336 0.22874 0.44925
 H722 H 0.71334 0.26365 0.43924
 H723 H 0.78704 0.23615 0.56094
 H724 H 0.80926 0.26097 0.53709
 H725 H 0.71504 0.18751 0.46235
 H726 H 0.78501 0.21158 0.43755
 H727 H 0.73650 0.28739 0.56001
 H728 H 0.76219 0.30833 0.53758
 H729 H 0.80875 0.21241 0.48945
 H730 H 0.78727 0.18919 0.51390
 H731 H 0.71304 0.30872 0.48857
 H732 H 0.68940 0.28641 0.51314
 O733 O 0.77961 0.81035 -0.00167
 O734 O 0.77642 0.80294 0.03678
 O735 O 0.81001 0.75186 -0.02948
 O736 O 0.80091 0.71174 -0.02873
 O737 O 0.75147 0.77952 -0.06059
 O738 O 0.71224 0.77806 -0.05237
 O739 O 0.74856 0.69165 0.02862
 O740 O 0.78622 0.69707 0.02414
 O741 O 0.72113 0.74878 0.05809
 O742 O 0.72278 0.78932 0.05046
 O743 O 0.69114 0.72176 0.00074
 O744 O 0.69919 0.72335 -0.03980
 O745 O 0.72160 0.69170 0.00132
 O746 O 0.72359 0.69988 -0.04001
 O747 O 0.69108 0.74887 0.02782
 O748 O 0.69988 0.79030 0.02551
 O749 O 0.74781 0.72131 0.05797
 O750 O 0.78863 0.72837 0.05030
 O751 O 0.75210 0.81076 -0.02849
 O752 O 0.71218 0.80251 -0.02682
 O753 O 0.77838 0.75224 -0.06084
 O754 O 0.77601 0.71248 -0.05271
 O755 O 0.81024 0.77885 -0.00223
 O756 O 0.80120 0.77361 0.03828
 Zr757 Zr 0.77769 0.77763 0.01170
 O758 O 0.75740 0.75803 0.03310
 Zr759 Zr 0.77728 0.73833 -0.02826
 O760 O 0.75751 0.71692 -0.00821
 Zr761 Zr 0.73802 0.77812 -0.02787
 O762 O 0.71627 0.75814 -0.00831
 Zr763 Zr 0.76282 0.72386 0.02602
 O764 O 0.78502 0.74334 0.00603
 Zr765 Zr 0.72328 0.76345 0.02594
 O766 O 0.74347 0.78523 0.00636
 Zr767 Zr 0.72336 0.72386 -0.01364
 O768 O 0.74308 0.74386 -0.03557
 O769 O 0.77196 0.77232 -0.02240
 O770 O 0.72863 0.72926 0.02055
 C771 C 0.76808 0.82004 -0.01718
 C772 C 0.81962 0.76746 -0.01801
 C773 C 0.76705 0.76808 -0.07020
 C774 C 0.73253 0.68238 0.01748
 C775 C 0.73189 0.73248 0.06730
 C776 C 0.68181 0.73279 0.01677
 H777 H 0.76112 0.76151 0.04895
 H778 H 0.70052 0.76185 -0.01208
 H779 H 0.78157 0.78193 -0.03199
 H780 H 0.76136 0.70110 -0.01167
 H781 H 0.80078 0.70376 0.01973
 H782 H 0.81051 0.71354 -0.01525
 H783 H 0.68947 0.78778 0.01276
 H784 H 0.71339 0.81009 -0.01203
 H785 H 0.78792 0.71554 0.06094
 H786 H 0.81283 0.78552 0.03701
 H787 H 0.69009 0.73722 -0.03853
 H788 H 0.71248 0.76296 -0.05944
 H789 H 0.76111 0.80945 0.03627
 H790 H 0.73668 0.78802 0.05951
 H791 H 0.76117 0.71369 -0.06017
 H792 H 0.73669 0.68990 -0.03771
 O793 O 1.00158 0.18951 0.22066
 O794 O 0.96307 0.19685 0.22382
 O795 O 1.02923 0.24789 0.19007
 O796 O 1.02808 0.28817 0.19900
 O797 O 1.06029 0.22064 0.24866
 O798 O 1.05207 0.22229 0.28801
 O799 O 0.97078 0.30816 0.25150
 O800 O 0.97549 0.30277 0.21373
 O801 O 0.94163 0.25117 0.27897
 O802 O 0.94936 0.21055 0.27732
 O803 O 0.99883 0.27831 0.30894
 O804 O 1.03941 0.27680 0.30081
 O805 O 0.99803 0.30825 0.27852
 O806 O 1.03936 0.30038 0.27644
 O807 O 0.97182 0.25116 0.30902
 O808 O 0.97422 0.20974 0.30036
 O809 O 0.94167 0.27849 0.25212
 O810 O 0.94942 0.27138 0.21128
 O811 O 1.02838 0.18932 0.24819
 O812 O 1.02669 0.19765 0.28810
 O813 O 1.06045 0.24788 0.22168
 O814 O 1.05220 0.28757 0.22388
 O815 O 1.00210 0.22081 0.18993
 O816 O 0.96159 0.22606 0.19883
 Zr817 Zr 0.98809 0.22220 0.22246
 O818 O 0.96663 0.24182 0.24267
 Zr819 Zr 1.02785 0.26166 0.22274
 O820 O 1.00777 0.28306 0.24248
 Zr821 Zr 1.02762 0.22199 0.26218
 O822 O 1.00796 0.24194 0.28388
 Zr823 Zr 0.97361 0.27600 0.23716
 O824 O 0.99363 0.25649 0.21499
 Zr825 Zr 0.97377 0.23649 0.27684
 O826 O 0.99344 0.21472 0.25673
 Zr827 Zr 1.01320 0.27620 0.27669
 O828 O 1.03518 0.25626 0.25700
 O829 O 1.02211 0.22767 0.22820
 O830 O 0.97907 0.27067 0.27139
 C831 C 1.01715 0.17994 0.23221
 C832 C 1.01789 0.23215 0.18054
 C833 C 1.06983 0.23206 0.23302
 C834 C 0.98178 0.31745 0.26762
 C835 C 0.93240 0.26741 0.26814
 C836 C 0.98281 0.26728 0.31827
 H837 H 0.95081 0.23828 0.23894
 H838 H 1.01174 0.23828 0.29965
 H839 H 1.03174 0.21805 0.21864
 H840 H 1.01116 0.29889 0.23861
 H841 H 0.97994 0.29608 0.19916
 H842 H 1.01479 0.28607 0.18921
 H843 H 0.98699 0.21227 0.31073
 H844 H 1.01191 0.19007 0.28695
 H845 H 0.93877 0.28420 0.21194
 H846 H 0.96289 0.21407 0.18727
 H847 H 1.03809 0.26303 0.31005
 H848 H 1.05917 0.23736 0.28760
 H849 H 0.96365 0.19035 0.23915
 H850 H 0.94023 0.21190 0.26348
 H851 H 1.05955 0.28655 0.23880
 H852 H 1.03700 0.31032 0.26331
 O853 O 0.68983 1.02882 0.74897
 O854 O 0.69701 1.02573 0.78749
 O855 O 0.74829 1.05980 0.72170
 O856 O 0.78840 1.05096 0.72278
 O857 O 0.72124 1.00101 0.69035
 O858 O 0.72303 0.96164 0.69861
 O859 O 0.80842 0.99887 0.78025
 O860 O 0.80268 1.03656 0.77568
 O861 O 0.75150 0.97084 0.80933
 O862 O 0.71094 0.97227 0.80138
 O863 O 0.77888 0.94099 0.75227
 O864 O 0.77754 0.94898 0.71173
 O865 O 0.80871 0.97179 0.75304
 O866 O 0.80078 0.97362 0.71165
 O867 O 0.75162 0.94073 0.77909
 O868 O 0.71031 0.94921 0.77656
 O869 O 0.77871 0.99781 0.80936
 O870 O 0.77130 1.03858 0.80170
 O871 O 0.68983 1.00124 0.72218
 O872 O 0.69835 0.96139 0.72387
 O873 O 0.74830 1.02817 0.69035
 O874 O 0.78791 1.02607 0.69877
 O875 O 0.72110 1.05981 0.74867
 O876 O 0.72608 1.05083 0.78922
 Zr877 Zr 0.72245 1.02722 0.76263
 O878 O 0.74205 1.00711 0.78423
 Zr879 Zr 0.76197 1.02712 0.72303
 O880 O 0.78334 1.00751 0.74326
 Zr881 Zr 0.72253 0.98748 0.72308
 O882 O 0.74247 0.96588 0.74288
 Zr883 Zr 0.77616 1.01283 0.77742
 O884 O 0.75667 1.03487 0.75725
 Zr885 Zr 0.73692 0.97288 0.77709
 O886 O 0.71517 0.99288 0.75725
 Zr887 Zr 0.77668 0.97324 0.73782
 O888 O 0.75675 0.99282 0.71569
 O889 O 0.72803 1.02152 0.72859
 O890 O 0.77105 0.97852 0.77196
 C891 C 0.68035 1.01714 0.73340
 C892 C 0.73255 1.06929 0.73301
 C893 C 0.73262 1.01672 0.68085
 C894 C 0.81785 0.98288 0.76922
 C895 C 0.76767 0.98175 0.81862
 C896 C 0.76780 0.93156 0.76819
 H897 H 0.73846 1.01081 0.80005
 H898 H 0.73890 0.95008 0.73910
 H899 H 0.71842 1.03107 0.71892
 H900 H 0.79913 1.01150 0.73992
 H901 H 0.79586 1.05111 0.77136
 H902 H 0.78644 1.06061 0.73621
 H903 H 0.71285 0.93890 0.76373
 H904 H 0.69076 0.96246 0.73864
 H905 H 0.78411 1.03804 0.81238
 H906 H 0.71410 1.06236 0.78783
 H907 H 0.76369 0.93984 0.71283
 H908 H 0.73810 0.96212 0.69159
 H909 H 0.69070 1.01032 0.78698
 H910 H 0.71225 0.98610 0.81057
 H911 H 0.78687 1.01119 0.69133
 H912 H 0.81061 0.98686 0.71398
 O913 O 0.69051 0.52926 0.24837
 O914 O 0.69783 0.52620 0.28683
 O915 O 0.74895 0.56003 0.22082
 O916 O 0.78909 0.55109 0.22201
 O917 O 0.72168 0.50143 0.18954
 O918 O 0.72325 0.46209 0.19770
 O919 O 0.80890 0.49852 0.27948
 O920 O 0.80356 0.53629 0.27479
 O921 O 0.75188 0.47095 0.30840
 O922 O 0.71135 0.47254 0.30045
 O923 O 0.77915 0.44105 0.25125
 O924 O 0.77772 0.44920 0.21064
 O925 O 0.80904 0.47154 0.25216
 O926 O 0.80121 0.47367 0.21072
 O927 O 0.75200 0.44092 0.27819
 O928 O 0.71065 0.44951 0.27557
 O929 O 0.77919 0.49783 0.30850
 O930 O 0.77216 0.53869 0.30074
 O931 O 0.69031 0.50175 0.22151
 O932 O 0.69869 0.46185 0.22302
 O933 O 0.74892 0.52841 0.18950
 O934 O 0.78852 0.52622 0.19791
 O935 O 0.72184 0.56012 0.24786
 O936 O 0.72704 0.55114 0.28843
 Zr937 Zr 0.72316 0.52754 0.26186
 O938 O 0.74267 0.50728 0.28338
 Zr939 Zr 0.76260 0.52732 0.22219
 O940 O 0.78391 0.50756 0.24235
 Zr941 Zr 0.72296 0.48786 0.22224
 O942 O 0.74283 0.46611 0.24195
 Zr943 Zr 0.77680 0.51284 0.27653
 O944 O 0.75740 0.53503 0.25643
 Zr945 Zr 0.73734 0.47309 0.27616
 O946 O 0.71567 0.49325 0.25643
 Zr947 Zr 0.77706 0.47333 0.23686
 O948 O 0.75719 0.49306 0.21480
 O949 O 0.72864 0.52186 0.22779
 O950 O 0.77148 0.47858 0.27100
 C951 C 0.68092 0.51764 0.23283
 C952 C 0.73324 0.56956 0.23215
 C953 C 0.73315 0.51706 0.18002
 C954 C 0.81819 0.48243 0.26847
 C955 C 0.76807 0.48180 0.31772
 C956 C 0.76813 0.43169 0.26725
 H957 H 0.73910 0.51098 0.29921
 H958 H 0.73918 0.45033 0.23815
 H959 H 0.71903 0.53143 0.21815
 H960 H 0.79973 0.51145 0.23902
 H961 H 0.79691 0.55087 0.27032
 H962 H 0.78706 0.56080 0.23538
 H963 H 0.71325 0.43910 0.26284
 H964 H 0.69114 0.46289 0.23782
 H965 H 0.78493 0.53803 0.31146
 H966 H 0.71513 0.56275 0.28708
 H967 H 0.76393 0.43998 0.21186
 H968 H 0.73834 0.46244 0.19072
 H969 H 0.69142 0.51083 0.28635
 H970 H 0.71274 0.48633 0.30968
 H971 H 0.78749 0.51131 0.19053
 H972 H 0.81118 0.48677 0.21317
 O973 O 0.55954 0.22074 0.74895
 O974 O 0.55225 0.22368 0.78744
 O975 O 0.50114 0.18996 0.72118
 O976 O 0.46106 0.19881 0.72216
 O977 O 0.52834 0.24885 0.69026
 O978 O 0.52672 0.28811 0.69867
 O979 O 0.44101 0.25107 0.77981
 O980 O 0.44657 0.21333 0.77512
 O981 O 0.49799 0.27881 0.80915
 O982 O 0.53848 0.27728 0.80142
 O983 O 0.47071 0.30874 0.75209
 O984 O 0.47222 0.30076 0.71142
 O985 O 0.44086 0.27815 0.75263
 O986 O 0.44878 0.27629 0.71130
 O987 O 0.49790 0.30888 0.77906
 O988 O 0.53929 0.30029 0.77655
 O989 O 0.47067 0.25195 0.80902
 O990 O 0.47790 0.21109 0.80123
 O991 O 0.55967 0.24836 0.72226
 O992 O 0.55126 0.28824 0.72408
 O993 O 0.50121 0.22175 0.68998
 O994 O 0.46155 0.22381 0.69831
 O995 O 0.52823 0.18981 0.74830
 O996 O 0.52308 0.19869 0.78889
 Zr997 Zr 0.52689 0.22236 0.76242
 O998 O 0.50732 0.24251 0.78400
 Zr999 Zr 0.48748 0.22265 0.72263
 O1000 O 0.46611 0.24228 0.74284
 Zr1001 Zr 0.52702 0.26221 0.72304
 O1002 O 0.50709 0.28383 0.74278
 Zr1003 Zr 0.47320 0.23692 0.77703
 O1004 O 0.49266 0.21485 0.75686
 Zr1005 Zr 0.51258 0.27673 0.77697
 O1006 O 0.53431 0.25669 0.75721
 Zr1007 Zr 0.47289 0.27654 0.73753
 O1008 O 0.49282 0.25695 0.71544
 O1009 O 0.52142 0.22816 0.72837
 O1010 O 0.47845 0.27120 0.77167
 C1011 C 0.56908 0.23243 0.73348
 C1012 C 0.51683 0.18039 0.73253
 C1013 C 0.51692 0.23323 0.68062
 C1014 C 0.43168 0.26714 0.76880
 C1015 C 0.48176 0.26798 0.81834
 C1016 C 0.48174 0.31809 0.76813
 H1017 H 0.51087 0.23877 0.79982
 H1018 H 0.51071 0.29964 0.73907
 H1019 H 0.53103 0.21863 0.71870
 H1020 H 0.45032 0.23835 0.73942
 H1021 H 0.45331 0.19878 0.77068
 H1022 H 0.46296 0.18918 0.73560
 H1023 H 0.53666 0.31078 0.76390
 H1024 H 0.55886 0.28708 0.73885
 H1025 H 0.46512 0.21172 0.81190
 H1026 H 0.53501 0.18710 0.78751
 H1027 H 0.48594 0.31008 0.71281
 H1028 H 0.51162 0.28779 0.69165
 H1029 H 0.55861 0.23907 0.78705
 H1030 H 0.53719 0.26339 0.81049
 H1031 H 0.46263 0.23871 0.69092
 H1032 H 0.43892 0.26307 0.71355
 O1033 O 0.25132 0.77981 0.44004
 O1034 O 0.21286 0.77671 0.44734
 O1035 O 0.27901 0.81050 0.49853
 O1036 O 0.27803 0.80157 0.53868
 O1037 O 0.31000 0.75182 0.47116
 O1038 O 0.30172 0.71248 0.47276
 O1039 O 0.22057 0.74924 0.55864
 O1040 O 0.22526 0.78698 0.55314
 O1041 O 0.19132 0.72150 0.50167
 O1042 O 0.19898 0.72310 0.46109
 O1043 O 0.24849 0.69157 0.52874
 O1044 O 0.28898 0.69967 0.52738
 O1045 O 0.24772 0.72215 0.55873
 O1046 O 0.28909 0.72419 0.55080
 O1047 O 0.22152 0.69142 0.50156
 O1048 O 0.22385 0.70013 0.46020
 O1049 O 0.19142 0.74840 0.52898
 O1050 O 0.19914 0.78924 0.52178
 O1051 O 0.27805 0.75225 0.43984
 O1052 O 0.27631 0.71233 0.44819
 O1053 O 0.31022 0.77885 0.49839
 O1054 O 0.30198 0.77664 0.53807
 O1055 O 0.25190 0.81064 0.47142
 O1056 O 0.21137 0.80167 0.47657
 Zr1057 Zr 0.23786 0.77806 0.47271
 O1058 O 0.21636 0.75785 0.49229
 Zr1059 Zr 0.27763 0.77780 0.51216
 O1060 O 0.25751 0.75810 0.53353
 Zr1061 Zr 0.27730 0.73832 0.47250
 O1062 O 0.25763 0.71663 0.49243
 Zr1063 Zr 0.22335 0.76342 0.52645
 O1064 O 0.24343 0.78556 0.50698
 Zr1065 Zr 0.22344 0.72365 0.48699
 O1066 O 0.24314 0.74375 0.46524
 Zr1067 Zr 0.26287 0.72386 0.52669
 O1068 O 0.28489 0.74352 0.50675
 O1069 O 0.27188 0.77233 0.47818
 O1070 O 0.22875 0.72915 0.52115
 C1071 C 0.26682 0.76820 0.43046
 C1072 C 0.26766 0.82006 0.48283
 C1073 C 0.31959 0.76747 0.48260
 C1074 C 0.23156 0.73315 0.56794
 C1075 C 0.18213 0.73235 0.51791
 C1076 C 0.23252 0.68218 0.51766
 H1077 H 0.20055 0.76157 0.48876
 H1078 H 0.26138 0.70084 0.48877
 H1079 H 0.28151 0.78190 0.46857
 H1080 H 0.26091 0.76201 0.54935
 H1081 H 0.22963 0.80156 0.54641
 H1082 H 0.26464 0.81125 0.53674
 H1083 H 0.23662 0.68977 0.46270
 H1084 H 0.26155 0.71349 0.44056
 H1085 H 0.18852 0.78862 0.53461
 H1086 H 0.21271 0.81327 0.46463
 H1087 H 0.28780 0.69057 0.51349
 H1088 H 0.30881 0.71288 0.48783
 H1089 H 0.21330 0.76132 0.44094
 H1090 H 0.18989 0.73697 0.46243
 H1091 H 0.30935 0.76175 0.53698
 H1092 H 0.28672 0.73730 0.56079
 O1093 O 0.25099 0.27884 0.94083
 O1094 O 0.21251 0.27569 0.94815
 O1095 O 0.27870 0.30937 0.99934
 O1096 O 0.27751 0.30033 1.03955
 O1097 O 0.30974 0.25091 0.97187
 O1098 O 0.30155 0.21152 0.97337
 O1099 O 0.22028 0.24772 1.05929
 O1100 O 0.22485 0.28552 1.05396
 O1101 O 0.19108 0.22023 1.00210
 O1102 O 0.19886 0.22203 0.96152
 O1103 O 0.24814 0.19034 1.02928
 O1104 O 0.28877 0.19844 1.02775
 O1105 O 0.24755 0.22076 1.05930
 O1106 O 0.28883 0.22280 1.05137
 O1107 O 0.22119 0.19027 1.00207
 O1108 O 0.22372 0.19901 0.96069
 O1109 O 0.19112 0.24693 1.02960
 O1110 O 0.19876 0.28786 1.02262
 O1111 O 0.27779 0.25134 0.94054
 O1112 O 0.27618 0.21140 0.94874
 O1113 O 0.30989 0.27782 0.99921
 O1114 O 0.30162 0.27547 1.03888
 O1115 O 0.25160 0.30955 0.97222
 O1116 O 0.21107 0.30059 0.97747
 Zr1117 Zr 0.23754 0.27698 0.97349
 O1118 O 0.21606 0.25665 0.99297
 Zr1119 Zr 0.27728 0.27665 1.01295
 O1120 O 0.25719 0.25680 1.03423
 Zr1121 Zr 0.27707 0.23729 0.97315
 O1122 O 0.25741 0.21548 0.99297
 Zr1123 Zr 0.22302 0.26208 1.02716
 O1124 O 0.24306 0.28435 1.00779
 Zr1125 Zr 0.22322 0.22248 0.98751
 O1126 O 0.24290 0.24271 0.96587
 Zr1127 Zr 0.26262 0.22259 1.02724
 O1128 O 0.28462 0.24240 1.00742
 O1129 O 0.27157 0.27127 0.97896
 O1130 O 0.22850 0.22785 1.02170
 C1131 C 0.26653 0.26730 0.93122
 C1132 C 0.26739 0.31894 0.98361
 C1133 C 0.31928 0.26655 0.98336
 C1134 C 0.23134 0.23165 1.06855
 C1135 C 0.18186 0.23094 1.01842
 C1136 C 0.23211 0.18102 1.01822
 H1137 H 0.20024 0.26035 0.98944
 H1138 H 0.26117 0.19971 0.98925
 H1139 H 0.28119 0.28087 0.96937
 H1140 H 0.26059 0.26065 1.05006
 H1141 H 0.22929 0.30011 1.04731
 H1142 H 0.26420 0.31010 1.03748
 H1143 H 0.23642 0.18858 0.96326
 H1144 H 0.26138 0.21249 0.94118
 H1145 H 0.18811 0.28712 1.03541
 H1146 H 0.21239 0.31221 0.96556
 H1147 H 0.28740 0.18920 1.01397
 H1148 H 0.30858 0.21185 0.98847
 H1149 H 0.21302 0.26036 0.94163
 H1150 H 0.18967 0.23583 0.96297
 H1151 H 0.30903 0.26060 1.03775
 H1152 H 0.28656 0.23597 1.06130
 C1153 C 0.29482 0.35215 0.79474
 C1154 C 0.28797 0.36994 0.78782
 C1155 C 0.28043 0.39116 0.78028
 C1156 C 0.27442 0.40959 0.77432
 C1157 C 0.29425 -0.14955 0.29323
 C1158 C 0.28719 -0.13190 0.28613
 C1159 C 0.27956 -0.11074 0.27850
 C1160 C 0.27364 -0.09225 0.27261
 C1161 C 0.79425 0.85149 0.79475
 C1162 C 0.78756 0.86940 0.78796
 C1163 C 0.78021 0.89074 0.78054
 C1164 C 0.77433 0.90924 0.77465
 C1165 C 0.45485 0.89862 0.29459
 C1166 C 0.46175 0.88090 0.28752
 C1167 C 0.46931 0.85974 0.27981
 C1168 C 0.47535 0.84135 0.27372
 C1169 C -0.04375 0.90033 0.79398
 C1170 C -0.03688 0.88259 0.78695
 C1171 C -0.02948 0.86132 0.77941
 C1172 C -0.02373 0.84276 0.77360
 C1173 C -0.04323 -0.15010 -0.04349
 C1174 C -0.03647 -0.13230 -0.03646
 C1175 C -0.02920 -0.11097 -0.02886
 C1176 C -0.02355 -0.09238 -0.02298
 C1177 C -0.04487 0.35177 0.45547
 C1178 C -0.03817 0.36962 0.46242
 C1179 C -0.03079 0.39090 0.47001
 C1180 C -0.02487 0.40936 0.47602
 C1181 C 0.45513 -0.14826 0.45494
 C1182 C 0.46197 -0.13051 0.46201
 C1183 C 0.46945 -0.10931 0.46973
 C1184 C 0.47541 -0.09089 0.47582
 C1185 C 0.45421 0.35189 -0.04501
 C1186 C 0.46103 0.36969 -0.03802
 C1187 C 0.46854 0.39090 -0.03035
 C1188 C 0.47456 0.40932 -0.02426
 C1189 C 0.79411 0.39858 0.45601
 C1190 C 0.78704 0.38098 0.46319
 C1191 C 0.77945 0.35985 0.47089
 C1192 C 0.77358 0.34137 0.47681
 C1193 C 0.79491 0.89993 -0.04364
 C1194 C 0.78788 0.88226 -0.03659
 C1195 C 0.78027 0.86106 -0.02905
 C1196 C 0.77435 0.84254 -0.02325
 C1197 C 0.79432 0.29389 0.35117
 C1198 C 0.78714 0.28673 0.36871
 C1199 C 0.77941 0.27898 0.38977
 C1200 C 0.77344 0.27298 0.40819
 C1201 C 0.79325 0.79485 -0.15012
 C1202 C 0.78629 0.78781 -0.13243
 C1203 C 0.77884 0.78021 -0.11122
 C1204 C 0.77310 0.77431 -0.09270
 C1205 C 0.29564 0.45460 0.89770
 C1206 C 0.28861 0.46147 0.87995
 C1207 C 0.28090 0.46903 0.85880
 C1208 C 0.27477 0.47511 0.84045
 C1209 C 0.29449 -0.04294 0.39867
 C1210 C 0.28739 -0.03615 0.38093
 C1211 C 0.27968 -0.02888 0.35968
 C1212 C 0.27371 -0.02325 0.34113
 C1213 C -0.04379 -0.04296 -0.14934
 C1214 C -0.03668 -0.03612 -0.13161
 C1215 C -0.02905 -0.02879 -0.11034
 C1216 C -0.02318 -0.02314 -0.09176
 C1217 C -0.04569 0.45344 0.35262
 C1218 C -0.03849 0.46055 0.37021
 C1219 C -0.03062 0.46841 0.39122
 C1220 C -0.02440 0.47468 0.40949
 C1221 C 0.45517 -0.04555 0.35220
 C1222 C 0.46196 -0.03876 0.37008
 C1223 C 0.46940 -0.03128 0.39137
 C1224 C 0.47534 -0.02527 0.40982
 C1225 C 0.45442 0.45434 -0.14784
 C1226 C 0.46153 0.46131 -0.13017
 C1227 C 0.46929 0.46894 -0.10906
 C1228 C 0.47541 0.47500 -0.09069
 C1229 C 0.45547 0.79590 0.39735
 C1230 C 0.46224 0.78915 0.37947
 C1231 C 0.46965 0.78171 0.35819
 C1232 C 0.47556 0.77573 0.33974
 C1233 C -0.04290 0.79431 0.90022
 C1234 C -0.03600 0.78753 0.88240
 C1235 C -0.02861 0.78021 0.86105
 C1236 C -0.02291 0.77450 0.84245
 C1237 C 0.35198 0.79486 0.29415
 C1238 C 0.36987 0.78805 0.28752
 C1239 C 0.39118 0.78059 0.28024
 C1240 C 0.40965 0.77465 0.27439
 C1241 C -0.14976 0.79420 0.79369
 C1242 C -0.13204 0.78717 0.78683
 C1243 C -0.11080 0.77961 0.77946
 C1244 C -0.09227 0.77379 0.77374
 C1245 C 0.89896 0.29302 0.45581
 C1246 C 0.88137 0.28580 0.46280
 C1247 C 0.86025 0.27806 0.47034
 C1248 C 0.84179 0.27212 0.47619
 C1249 C 0.89997 0.79336 -0.04369
 C1250 C 0.88213 0.78649 -0.03698
 C1251 C 0.86077 0.77914 -0.02973
 C1252 C 0.84217 0.77346 -0.02406
 C1253 C -0.14919 -0.04416 -0.04400
 C1254 C -0.13150 -0.03714 -0.03697
 C1255 C -0.11031 -0.02959 -0.02934
 C1256 C -0.09182 -0.02375 -0.02340
 C1257 C -0.14754 0.45508 0.45481
 C1258 C -0.12971 0.46189 0.46162
 C1259 C -0.10846 0.46935 0.46910
 C1260 C -0.09003 0.47529 0.47507
 C1261 C 0.35180 -0.04406 0.45478
 C1262 C 0.36971 -0.03736 0.46154
 C1263 C 0.39103 -0.03004 0.46900
 C1264 C 0.40951 -0.02419 0.47497
 C1265 C 0.35235 0.45426 -0.04561
 C1266 C 0.37012 0.46121 -0.03875
 C1267 C 0.39130 0.46885 -0.03119
 C1268 C 0.40967 0.47494 -0.02514
 C1269 C 0.39725 0.45513 0.79600
 C1270 C 0.37957 0.46221 0.78909
 C1271 C 0.35846 0.46994 0.78151
 C1272 C 0.34012 0.47607 0.77547
 C1273 C 0.39886 -0.04407 0.29361
 C1274 C 0.38132 -0.03685 0.28649
 C1275 C 0.36025 -0.02910 0.27882
 C1276 C 0.34181 -0.02313 0.27289
 C1277 C 0.10054 0.54419 0.70732
 C1278 C 0.11827 0.53728 0.71430
 C1279 C 0.13951 0.52981 0.72177
 C1280 C 0.15806 0.52402 0.72753
 C1281 C 0.10227 0.04478 0.20414
 C1282 C 0.12004 0.03802 0.21120
 C1283 C 0.14122 0.03059 0.21893
 C1284 C 0.15960 0.02465 0.22507
 C1285 C 0.64917 0.70687 0.20591
 C1286 C 0.63151 0.71380 0.21300
 C1287 C 0.61032 0.72127 0.22064
 C1288 C 0.59183 0.72706 0.22653
 C1289 C 0.14712 0.70551 0.70502
 C1290 C 0.12935 0.71226 0.71200
 C1291 C 0.10818 0.71969 0.71968
 C1292 C 0.08981 0.72566 0.72577
 C1293 C 0.60154 0.20587 0.54390
 C1294 C 0.61952 0.21229 0.53716
 C1295 C 0.64094 0.21929 0.52977
 C1296 C 0.65949 0.22491 0.52390
 C1297 C 0.60183 0.70624 0.04317
 C1298 C 0.61971 0.71297 0.03641
 C1299 C 0.64102 0.72037 0.02904
 C1300 C 0.65950 0.72627 0.02319
 C1301 C 0.14764 0.04494 0.04580
 C1302 C 0.12997 0.03795 0.03872
 C1303 C 0.10887 0.03027 0.03098
 C1304 C 0.09053 0.02417 0.02487
 C1305 C 0.14988 0.54357 0.54267
 C1306 C 0.13215 0.53662 0.53572
 C1307 C 0.11089 0.52913 0.52829
 C1308 C 0.09232 0.52333 0.52258
 C1309 C 0.64914 0.04411 0.54339
 C1310 C 0.63143 0.03712 0.53641
 C1311 C 0.61021 0.02956 0.52891
 C1312 C 0.59169 0.02370 0.52311
 C1313 C 0.64949 0.54376 0.04256
 C1314 C 0.63176 0.53673 0.03565
 C1315 C 0.61052 0.52914 0.02825
 C1316 C 0.59197 0.52327 0.02255
 C1317 C 0.04646 0.04420 0.14809
 C1318 C 0.03947 0.03725 0.13034
 C1319 C 0.03173 0.02968 0.10919
 C1320 C 0.02551 0.02369 0.09082
 C1321 C 0.04354 0.54389 0.64945
 C1322 C 0.03680 0.53684 0.63165
 C1323 C 0.02953 0.52924 0.61035
 C1324 C 0.02385 0.52336 0.59178
 C1325 C 0.54337 0.04285 0.65007
 C1326 C 0.53650 0.03593 0.63226
 C1327 C 0.52907 0.02851 0.61093
 C1328 C 0.52329 0.02277 0.59234
 C1329 C 0.54315 0.54284 0.14964
 C1330 C 0.53642 0.53596 0.13179
 C1331 C 0.52917 0.52859 0.11040
 C1332 C 0.52351 0.52289 0.09178
 C1333 C 0.20698 0.54352 0.60044
 C1334 C 0.21376 0.53652 0.61823
 C1335 C 0.22102 0.52900 0.63954
 C1336 C 0.22667 0.52321 0.65813
 C1337 C 0.20360 0.04448 0.10166
 C1338 C 0.21069 0.03735 0.11928
 C1339 C 0.21849 0.02960 0.14032
 C1340 C 0.22472 0.02351 0.15864
 C1341 C 0.70571 0.20627 0.64867
 C1342 C 0.71241 0.21292 0.63074
 C1343 C 0.71976 0.22014 0.60936
 C1344 C 0.72563 0.22585 0.59082
 C1345 C 0.70536 0.70605 0.14731
 C1346 C 0.71202 0.71274 0.12937
 C1347 C 0.71938 0.72008 0.10803
 C1348 C 0.72529 0.72595 0.08955
 C1349 C 0.54377 0.70745 0.09990
 C1350 C 0.53680 0.71447 0.11760
 C1351 C 0.52927 0.72197 0.13883
 C1352 C 0.52344 0.72775 0.15737
 C1353 C 0.04532 0.70575 0.60284
 C1354 C 0.03844 0.71270 0.62061
 C1355 C 0.03088 0.72033 0.64178
 C1356 C 0.02484 0.72641 0.66016
 C1357 C 0.54296 0.60067 0.20676
 C1358 C 0.53612 0.61858 0.21340
 C1359 C 0.52876 0.64000 0.22054
 C1360 C 0.52306 0.65866 0.22612
 C1361 C 0.04365 0.60216 0.70620
 C1362 C 0.03684 0.62006 0.71290
 C1363 C 0.02943 0.64140 0.72025
 C1364 C 0.02357 0.65991 0.72612
 C1365 C 0.04531 0.14711 0.04665
 C1366 C 0.03821 0.12934 0.03986
 C1367 C 0.03043 0.10816 0.03236
 C1368 C 0.02427 0.08978 0.02632
 C1369 C 0.04418 0.64899 0.54457
 C1370 C 0.03701 0.63141 0.53740
 C1371 C 0.02931 0.61030 0.52965
 C1372 C 0.02336 0.59184 0.52367
 C1373 C 0.54295 0.14963 0.54336
 C1374 C 0.53597 0.13183 0.53659
 C1375 C 0.52851 0.11049 0.52931
 C1376 C 0.52278 0.09187 0.52364
 C1377 C 0.54358 0.64949 0.04292
 C1378 C 0.53650 0.63170 0.03618
 C1379 C 0.52885 0.61039 0.02894
 C1380 C 0.52294 0.59180 0.02331
 C1381 C 0.70522 0.10138 0.54524
 C1382 C 0.71196 0.11931 0.53855
 C1383 C 0.71935 0.14065 0.53116
 C1384 C 0.72526 0.15912 0.52520
 C1385 C 0.70601 0.60218 0.04361
 C1386 C 0.71271 0.62014 0.03698
 C1387 C 0.72008 0.64153 0.02971
 C1388 C 0.72598 0.66005 0.02391
 C1389 C 0.20566 0.64924 0.70565
 C1390 C 0.21285 0.63167 0.71278
 C1391 C 0.22058 0.61059 0.72049
 C1392 C 0.22654 0.59215 0.72647
 C1393 C 0.20484 0.14733 0.20335
 C1394 C 0.21171 0.12950 0.21016
 C1395 C 0.21923 0.10826 0.21769
 C1396 C 0.22523 0.08986 0.22376
 C1397 C 0.70660 1.14950 0.70675
 C1398 C 0.71346 1.13171 0.71366
 C1399 C 0.72082 1.11041 0.72111
 C1400 C 0.72651 1.09182 0.72689
 C1401 C 0.70667 0.64951 0.20563
 C1402 C 0.71370 0.63180 0.21260
 C1403 C 0.72126 0.61058 0.22010
 C1404 C 0.72710 0.59206 0.22594
 C1405 C 0.54270 0.10005 0.70632
 C1406 C 0.53588 0.11790 0.71314
 C1407 C 0.52855 0.13925 0.72054
 C1408 C 0.52287 0.15785 0.72633
 C1409 C 1.04465 0.10046 0.20523
 C1410 C 1.03734 0.11800 0.21233
 C1411 C 1.02948 0.13906 0.21999
 C1412 C 1.02343 0.15749 0.22593
 C1413 C 0.20646 0.60188 0.54388
 C1414 C 0.21312 0.61985 0.53722
 C1415 C 0.22039 0.64125 0.52992
 C1416 C 0.22616 0.65980 0.52409
 C1417 C 0.20433 0.10167 1.04549
 C1418 C 0.21146 0.11933 1.03853
 C1419 C 0.21927 0.14043 1.03090
 C1420 C 0.22543 0.15879 1.02485
 C1421 C 0.20443 0.70598 0.64748
 C1422 C 0.21130 0.71291 0.62972
 C1423 C 0.21886 0.72050 0.60854
 C1424 C 0.22490 0.72652 0.59016
 C1425 C 0.20461 0.20378 1.14798
 C1426 C 0.21138 0.21089 1.13025
 C1427 C 0.21880 0.21870 1.10910
 C1428 C 0.22474 0.22490 1.09074
 C1429 C 0.70695 0.54365 0.09999
 C1430 C 0.71388 0.53660 0.11770
 C1431 C 0.72131 0.52902 0.13894
 C1432 C 0.72706 0.52318 0.15749
 C1433 C 0.70650 1.04369 0.60092
 C1434 C 0.71338 1.03652 0.61860
 C1435 C 0.72077 1.02879 0.63980
 C1436 C 0.72651 1.02286 0.65833
 C1437 C 0.54330 0.20744 0.60045
 C1438 C 0.53635 0.21435 0.61819
 C1439 C 0.52884 0.22169 0.63947
 C1440 C 0.52303 0.22731 0.65805
 C1441 C 1.04498 0.20435 0.10126
 C1442 C 1.03788 0.21173 0.11875
 C1443 C 1.03020 0.21968 0.13976
 C1444 C 1.02423 0.22580 0.15815
 C1445 C 0.64919 0.20685 0.70695
 C1446 C 0.63144 0.21362 0.71397
 C1447 C 0.61017 0.22085 0.72154
 C1448 C 0.59161 0.22645 0.72738
 C1449 C 1.14910 0.20484 0.20566
 C1450 C 1.13163 0.21202 0.21297
 C1451 C 1.11063 0.21977 0.22080
 C1452 C 1.09224 0.22576 0.22680
 C1453 C 0.10265 0.70541 0.54534
 C1454 C 0.12042 0.71220 0.53836
 C1455 C 0.14159 0.71967 0.53068
 C1456 C 0.15995 0.72566 0.52458
 C1457 C 0.10250 0.20335 1.04558
 C1458 C 0.12024 0.21027 1.03864
 C1459 C 0.14137 0.21794 1.03106
 C1460 C 0.15971 0.22411 1.02504
 C1461 C 0.60048 0.54332 0.20719
 C1462 C 0.61834 0.53657 0.21397
 C1463 C 0.63972 0.52929 0.22123
 C1464 C 0.65835 0.52364 0.22685
 C1465 C 0.60014 1.04264 0.70673
 C1466 C 0.61794 1.03591 0.71373
 C1467 C 0.63925 1.02870 0.72131
 C1468 C 0.65782 1.02310 0.72720
 C1469 C 0.89712 0.45432 0.29639
 C1470 C 0.87953 0.46151 0.28933
 C1471 C 0.85854 0.46938 0.28155
 C1472 C 0.84029 0.47562 0.27533
 C1473 C 0.89808 0.95695 0.79547
 C1474 C 0.88011 0.96360 0.78888
 C1475 C 0.85871 0.97083 0.78161
 C1476 C 0.84018 0.97657 0.77576
 C1477 C 0.35208 0.29448 0.79539
 C1478 C 0.36986 0.28748 0.78868
 C1479 C 0.39106 0.27980 0.78132
 C1480 C 0.40946 0.27373 0.77540
 C1481 C 0.85285 0.29471 0.29494
 C1482 C 0.87064 0.28777 0.28819
 C1483 C 0.89184 0.28013 0.28076
 C1484 C 0.91022 0.27406 0.27480
 C1485 C 0.39916 0.79438 0.45578
 C1486 C 0.38159 0.78720 0.46286
 C1487 C 0.36050 0.77951 0.47049
 C1488 C 0.34204 0.77361 0.47639
 C1489 C 0.39858 0.29415 0.95636
 C1490 C 0.38109 0.28682 0.96350
 C1491 C 0.36008 0.27893 0.97118
 C1492 C 0.34169 0.27285 0.97712
 C1493 C 0.79490 0.45490 0.39747
 C1494 C 0.78803 0.46169 0.37964
 C1495 C 0.78054 0.46915 0.35839
 C1496 C 0.77459 0.47514 0.33996
 C1497 C 0.79490 0.95534 0.89847
 C1498 C 0.78798 0.96199 0.88061
 C1499 C 0.78035 0.96928 0.85932
 C1500 C 0.77429 0.97515 0.84088
 C1501 C 0.29352 0.79438 0.35049
 C1502 C 0.28644 0.78750 0.36820
 C1503 C 0.27883 0.78009 0.38943
 C1504 C 0.27296 0.77433 0.40795
 C1505 C 0.29355 0.29413 0.85162
 C1506 C 0.28635 0.28709 0.86920
 C1507 C 0.27863 0.27948 0.89031
 C1508 C 0.27271 0.27357 0.90877
 C1509 C 0.45488 0.29546 0.89791
 C1510 C 0.46170 0.28851 0.88013
 C1511 C 0.46917 0.28084 0.85893
 C1512 C 0.47514 0.27471 0.84055
 C1513 C 0.95585 0.29427 0.39794
 C1514 C 0.96279 0.28741 0.38017
 C1515 C 0.97034 0.27988 0.35896
 C1516 C 0.97631 0.27388 0.34054
 C1517 C 0.45449 0.39752 0.79558
 C1518 C 0.46143 0.37982 0.78853
 C1519 C 0.46905 0.35869 0.78084
 C1520 C 0.47510 0.34031 0.77476
 C1521 C 0.95426 0.39655 0.29597
 C1522 C 0.96123 0.37892 0.28874
 C1523 C 0.96889 0.35788 0.28078
 C1524 C 0.97501 0.33960 0.27447
 C1525 C 0.29447 0.89996 0.45643
 C1526 C 0.28742 0.88227 0.46342
 C1527 C 0.27981 0.86107 0.47093
 C1528 C 0.27391 0.84255 0.47672
 C1529 C 0.29495 0.39828 0.95629
 C1530 C 0.28772 0.38077 0.96355
 C1531 C 0.27989 0.35975 0.97135
 C1532 C 0.27381 0.34135 0.97735
 C1533 C 0.79531 0.35209 0.29442
 C1534 C 0.78839 0.36985 0.28746
 C1535 C 0.78080 0.39103 0.27985
 C1536 C 0.77476 0.40943 0.27382
   
