data_POSCAR
  _audit_creation_date              2014-09-24
  _audit_creation_method            'ToBaCCo'
  _symmetry_space_group_name_H-M    'P1'
  _symmetry_Int_Tables_number       1
  _symmetry_cell_setting            triclinic
  loop_
  _symmetry_equiv_pos_as_xyz
 x,y,z
_cell_length_a 61.6914
_cell_length_b 63.3688
_cell_length_c 65.8665
_cell_angle_alpha 90.020600
_cell_angle_beta 89.850000
_cell_angle_gamma 89.734900
loop_
  _atom_site_label
  _atom_site_type_symbol
  _atom_site_fract_x
  _atom_site_fract_y
  _atom_site_fract_z
N1 N 0.17173 0.22965 0.22624
 N2 N 0.17759 0.21281 0.23651
 C3 C 0.16415 0.21062 0.25258
 C4 C 0.14911 0.22695 0.25219
 C5 C 0.15450 0.23869 0.23526
 H6 H 0.16512 0.19809 0.26369
 H7 H 0.14654 0.25279 0.22981
 Cu8 Cu 0.20216 0.19552 0.22762
 Cu9 Cu 0.18629 0.23879 0.20174
 Cu10 Cu 0.23098 0.21010 0.18621
 N11 N 0.22831 0.18038 0.21910
 N12 N 0.23948 0.18641 0.20311
 C13 C 0.25672 0.17361 0.20070
 C14 C 0.25643 0.15865 0.21596
 C15 C 0.23812 0.16336 0.22736
 H16 H 0.26842 0.17500 0.18855
 H17 H 0.23248 0.15504 0.24067
 N18 N 0.21984 0.23460 0.17112
 N19 N 0.20295 0.24572 0.17729
 C20 C 0.19930 0.26148 0.16404
 C21 C 0.21461 0.26019 0.14875
 C22 C 0.22735 0.24295 0.15367
 H23 H 0.18626 0.27285 0.16528
 H24 H 0.24108 0.23700 0.14515
 H25 H 0.19844 0.20949 0.19326
 H26 H 0.21620 0.22618 0.20968
 N27 N 0.67212 0.72359 0.73453
 N28 N 0.67623 0.70486 0.74217
 C29 C 0.66398 0.70188 0.75881
 C30 C 0.65134 0.71970 0.76169
 C31 C 0.65681 0.73313 0.74594
 H32 H 0.66407 0.68768 0.76790
 H33 H 0.65026 0.74872 0.74313
 Cu34 Cu 0.69695 0.68605 0.72963
 Cu35 Cu 0.68732 0.73395 0.71057
 Cu36 Cu 0.73041 0.70338 0.69294
 N37 N 0.72344 0.67134 0.72308
 N38 N 0.73676 0.67786 0.70882
 C39 C 0.75398 0.66462 0.70812
 C40 C 0.75118 0.64916 0.72285
 C41 C 0.73159 0.65401 0.73196
 H42 H 0.76760 0.66622 0.69787
 H43 H 0.72373 0.64572 0.74424
 N44 N 0.72085 0.72990 0.67953
 N45 N 0.70469 0.74156 0.68658
 C46 C 0.70188 0.75837 0.67442
 C47 C 0.71690 0.75733 0.65886
 C48 C 0.72864 0.73903 0.66251
 H49 H 0.68942 0.77022 0.67647
 H50 H 0.74180 0.73283 0.65338
 H51 H 0.69746 0.70545 0.69775
 H52 H 0.71546 0.71724 0.71747
 N53 N 0.32408 0.77482 0.73090
 N54 N 0.31691 0.79220 0.73954
 C55 C 0.32853 0.79600 0.75639
 C56 C 0.34393 0.78021 0.75845
 C57 C 0.34067 0.76705 0.74195
 H58 H 0.32599 0.80935 0.76633
 H59 H 0.34965 0.75283 0.73834
 Cu60 Cu 0.29319 0.80869 0.72832
 Cu61 Cu 0.31108 0.76374 0.70614
 Cu62 Cu 0.26589 0.79020 0.68786
 N63 N 0.26675 0.82204 0.71868
 N64 N 0.25588 0.81465 0.70312
 C65 C 0.23825 0.82683 0.70000
 C66 C 0.23813 0.84281 0.71441
 C67 C 0.25648 0.83923 0.72597
 H68 H 0.22661 0.82430 0.68802
 H69 H 0.26186 0.84844 0.73881
 N70 N 0.27839 0.76522 0.67440
 N71 N 0.29558 0.75506 0.68131
 C72 C 0.30009 0.73880 0.66874
 C73 C 0.28501 0.73881 0.65319
 C74 C 0.27157 0.75578 0.65728
 H75 H 0.31341 0.72787 0.67073
 H76 H 0.25781 0.76082 0.64836
 H77 H 0.29850 0.79179 0.69531
 H78 H 0.28078 0.77607 0.71267
 N79 N 0.83164 0.27299 0.22490
 N80 N 0.82558 0.28883 0.23647
 C81 C 0.84016 0.29124 0.25147
 C82 C 0.85623 0.27609 0.24910
 C83 C 0.85029 0.26482 0.23200
 H84 H 0.83917 0.30306 0.26330
 H85 H 0.85855 0.25142 0.22537
 Cu86 Cu 0.79929 0.30481 0.23082
 Cu87 Cu 0.81449 0.26352 0.20214
 Cu88 Cu 0.76866 0.29250 0.18982
 N89 N 0.77436 0.32164 0.22281
 N90 N 0.76236 0.31701 0.20697
 C91 C 0.74650 0.33165 0.20524
 C92 C 0.74885 0.34625 0.22077
 C93 C 0.76669 0.33932 0.23158
 H94 H 0.73430 0.33181 0.19349
 H95 H 0.77367 0.34661 0.24485
 N96 N 0.77801 0.26706 0.17453
 N97 N 0.79536 0.25605 0.17963
 C98 C 0.79762 0.23962 0.16692
 C99 C 0.78099 0.24019 0.15298
 C100 C 0.76885 0.25788 0.15815
 H101 H 0.81071 0.22827 0.16751
 H102 H 0.75444 0.26356 0.15055
 H103 H 0.80133 0.29323 0.19559
 H104 H 0.78444 0.27530 0.21162
 N105 N 0.82888 0.72766 0.27831
 N106 N 0.82329 0.71060 0.26829
 C107 C 0.83773 0.70734 0.25315
 C108 C 0.85318 0.72314 0.25394
 C109 C 0.84696 0.73573 0.27008
 H110 H 0.83715 0.69445 0.24239
 H111 H 0.85480 0.74992 0.27534
 Cu112 Cu 0.79770 0.69462 0.27643
 Cu113 Cu 0.81249 0.73859 0.30120
 Cu114 Cu 0.76700 0.71081 0.31602
 N115 N 0.77201 0.67907 0.28502
 N116 N 0.76006 0.68565 0.30034
 C117 C 0.74336 0.67234 0.30301
 C118 C 0.74490 0.65647 0.28862
 C119 C 0.76331 0.66123 0.27748
 H120 H 0.73113 0.67407 0.31467
 H121 H 0.76977 0.65235 0.26480
 N122 N 0.77677 0.73667 0.32993
 N123 N 0.79400 0.74732 0.32404
 C124 C 0.79673 0.76397 0.33644
 C125 C 0.78050 0.76379 0.35093
 C126 C 0.76814 0.74625 0.34638
 H127 H 0.80987 0.77510 0.33529
 H128 H 0.75404 0.74082 0.35460
 H129 H 0.79981 0.70987 0.31038
 H130 H 0.78285 0.72607 0.29278
 N131 N 0.32500 0.22746 -0.22924
 N132 N 0.31913 0.21146 -0.24069
 C133 C 0.33281 0.21006 -0.25667
 C134 C 0.34806 0.22603 -0.25512
 C135 C 0.34253 0.23671 -0.23746
 H136 H 0.33176 0.19838 -0.26860
 H137 H 0.35047 0.25029 -0.23101
 Cu138 Cu 0.29381 0.19449 -0.23356
 Cu139 Cu 0.30959 0.23557 -0.20451
 Cu140 Cu 0.26535 0.20521 -0.19136
 N141 N 0.26885 0.17728 -0.22568
 N142 N 0.25789 0.18206 -0.20916
 C143 C 0.24111 0.16888 -0.20713
 C144 C 0.24129 0.15494 -0.22322
 C145 C 0.25927 0.16057 -0.23471
 H146 H 0.22962 0.16939 -0.19473
 H147 H 0.26464 0.15332 -0.24872
 N148 N 0.27510 0.22921 -0.17509
 N149 N 0.29180 0.24107 -0.18005
 C150 C 0.29390 0.25642 -0.16598
 C151 C 0.27778 0.25393 -0.15152
 C152 C 0.26620 0.23655 -0.15784
 H153 H 0.30620 0.26852 -0.16618
 H154 H 0.25213 0.22985 -0.15055
 H155 H 0.29817 0.20589 -0.19848
 H156 H 0.28009 0.22389 -0.21327
 N157 N 0.66736 0.27364 -0.22937
 N158 N 0.67300 0.28954 -0.24097
 C159 C 0.65828 0.29170 -0.25593
 C160 C 0.64257 0.27633 -0.25346
 C161 C 0.64889 0.26520 -0.23637
 H162 H 0.65891 0.30353 -0.26775
 H163 H 0.64095 0.25175 -0.22963
 Cu164 Cu 0.69894 0.30592 -0.23529
 Cu165 Cu 0.68465 0.26449 -0.20650
 Cu166 Cu 0.72957 0.29426 -0.19410
 N167 N 0.72361 0.32305 -0.22739
 N168 N 0.73549 0.31861 -0.21139
 C169 C 0.75125 0.33316 -0.20968
 C170 C 0.74906 0.34753 -0.22539
 C171 C 0.73134 0.34059 -0.23631
 H172 H 0.76338 0.33336 -0.19785
 H173 H 0.72453 0.34774 -0.24976
 N174 N 0.72077 0.26891 -0.17867
 N175 N 0.70388 0.25744 -0.18386
 C176 C 0.70211 0.24103 -0.17107
 C177 C 0.71859 0.24217 -0.15700
 C178 C 0.73009 0.26012 -0.16216
 H179 H 0.68948 0.22930 -0.17169
 H180 H 0.74425 0.26619 -0.15450
 H181 H 0.69690 0.29439 -0.20005
 H182 H 0.71436 0.27667 -0.21594
 N183 N 0.17506 0.77010 0.27595
 N184 N 0.18021 0.78665 0.26491
 C185 C 0.16631 0.78807 0.24918
 C186 C 0.15167 0.77160 0.25049
 C187 C 0.15777 0.76054 0.26769
 H188 H 0.16674 0.80016 0.23761
 H189 H 0.15029 0.74651 0.27378
 Cu190 Cu 0.20468 0.80471 0.27206
 Cu191 Cu 0.19096 0.76190 0.30023
 Cu192 Cu 0.23594 0.79151 0.31190
 N193 N 0.23097 0.82049 0.27872
 N194 N 0.24322 0.81457 0.29400
 C195 C 0.26034 0.82743 0.29544
 C196 C 0.25890 0.84254 0.28034
 C197 C 0.23996 0.83766 0.26997
 H198 H 0.27262 0.82603 0.30701
 H199 H 0.23329 0.84599 0.25707
 N200 N 0.22637 0.76773 0.32852
 N201 N 0.20925 0.75621 0.32420
 C202 C 0.20706 0.74120 0.33860
 C203 C 0.22353 0.74361 0.35267
 C204 C 0.23543 0.76054 0.34572
 H205 H 0.19437 0.72950 0.33898
 H206 H 0.24975 0.76711 0.35263
 H207 H 0.20259 0.79139 0.30680
 H208 H 0.21955 0.77424 0.28984
 N209 N 0.47548 0.42104 0.47512
 N210 N 0.45885 0.42914 0.48497
 C211 C 0.45415 0.41685 0.50102
 C212 C 0.46857 0.40007 0.50132
 C213 C 0.48187 0.40322 0.48461
 H214 H 0.44113 0.41985 0.51165
 H215 H 0.49529 0.39334 0.47983
 Cu216 Cu 0.44474 0.45497 0.47603
 Cu217 Cu 0.48759 0.43455 0.45089
 Cu218 Cu 0.46223 0.48058 0.43467
 N219 N 0.43048 0.48051 0.46651
 N220 N 0.43750 0.49057 0.45036
 C221 C 0.42496 0.50768 0.44717
 C222 C 0.40918 0.50836 0.46214
 C223 C 0.41316 0.49086 0.47412
 H224 H 0.42716 0.51872 0.43484
 H225 H 0.40409 0.48612 0.48741
 N226 N 0.48743 0.46815 0.42069
 N227 N 0.49726 0.45070 0.42675
 C228 C 0.51386 0.44651 0.41392
 C229 C 0.51436 0.46206 0.39912
 C230 C 0.49740 0.47542 0.40393
 H231 H 0.52465 0.43310 0.41520
 H232 H 0.49272 0.48949 0.39572
 H233 H 0.47784 0.46473 0.45808
 H234 H 0.45912 0.44885 0.44202
 N235 N -0.02225 -0.08057 0.97882
 N236 N -0.03946 -0.07533 0.98951
 C237 C -0.04198 -0.08941 1.00469
 C238 C -0.02552 -0.10428 1.00328
 C239 C -0.01332 -0.09813 0.98669
 H240 H -0.05476 -0.08893 1.01594
 H241 H 0.00117 -0.10565 0.98087
 Cu242 Cu -0.05671 -0.05059 0.98241
 Cu243 Cu -0.01234 -0.06415 0.95576
 Cu244 Cu -0.04176 -0.01933 0.94330
 N245 N -0.07276 -0.02507 0.97555
 N246 N -0.06680 -0.01282 0.96044
 C247 C -0.08053 0.00374 0.95933
 C248 C -0.09596 0.00171 0.97449
 C249 C -0.09049 -0.01676 0.98450
 H250 H -0.07945 0.01631 0.94828
 H251 H -0.09868 -0.02355 0.99744
 N252 N -0.01587 -0.02872 0.92790
 N253 N -0.00466 -0.04570 0.93293
 C254 C 0.01203 -0.04804 0.91995
 C255 C 0.01138 -0.03179 0.90597
 C256 C -0.00659 -0.01986 0.91140
 H257 H 0.02363 -0.06084 0.92046
 H258 H -0.01238 -0.00576 0.90389
 H259 H -0.02517 -0.03549 0.96553
 H260 H -0.04223 -0.05141 0.94790
 N261 N 1.02855 0.57835 0.98067
 N262 N 1.04540 0.57038 0.99021
 C263 C 1.04983 0.58241 1.00652
 C264 C 1.03502 0.59885 1.00722
 C265 C 1.02178 0.59580 0.99055
 H266 H 1.06294 0.57948 1.01701
 H267 H 1.00816 0.60551 0.98604
 Cu268 Cu 1.06009 0.54520 0.98031
 Cu269 Cu 1.01655 0.56536 0.95628
 Cu270 Cu 1.04242 0.52013 0.93877
 N271 N 1.07421 0.51966 0.97048
 N272 N 1.06716 0.50995 0.95418
 C273 C 1.07966 0.49290 0.95055
 C274 C 1.09544 0.49187 0.96540
 C275 C 1.09151 0.50910 0.97779
 H276 H 1.07742 0.48217 0.93798
 H277 H 1.10063 0.51356 0.99110
 N278 N 1.01717 0.53273 0.92522
 N279 N 1.00703 0.54979 0.93189
 C280 C 0.99034 0.55414 0.91933
 C281 C 0.99014 0.53911 0.90405
 C282 C 1.00735 0.52589 0.90828
 H283 H 0.97932 0.56733 0.92106
 H284 H 1.01226 0.51220 0.89959
 H285 H 1.02695 0.53519 0.96279
 H286 H 1.04511 0.55170 0.94665
 N287 N 0.52162 0.07624 0.47455
 N288 N 0.53875 0.07043 0.48501
 C289 C 0.54177 0.08440 0.50024
 C290 C 0.52572 0.09977 0.49903
 C291 C 0.51326 0.09396 0.48258
 H292 H 0.55469 0.08360 0.51128
 H293 H 0.49899 0.10190 0.47688
 Cu294 Cu 0.55523 0.04528 0.47708
 Cu295 Cu 0.51102 0.06079 0.45123
 Cu296 Cu 0.53907 0.01580 0.43717
 N297 N 0.57045 0.01935 0.46936
 N298 N 0.56399 0.00809 0.45375
 C299 C 0.57700 -0.00885 0.45166
 C300 C 0.59255 -0.00830 0.46677
 C301 C 0.58790 0.00985 0.47773
 H302 H 0.57517 -0.02068 0.43999
 H303 H 0.59658 0.01561 0.49084
 N304 N 0.51338 0.02621 0.42237
 N305 N 0.50258 0.04325 0.42802
 C306 C 0.48581 0.04630 0.41532
 C307 C 0.48601 0.03044 0.40091
 C308 C 0.50376 0.01801 0.40579
 H309 H 0.47446 0.05928 0.41635
 H310 H 0.50916 0.00400 0.39784
 H311 H 0.52312 0.03164 0.46010
 H312 H 0.54052 0.04769 0.44277
 N313 N -0.02507 0.07851 0.52367
 N314 N -0.04171 0.07299 0.51250
 C315 C -0.04455 0.08747 0.49774
 C316 C -0.02889 0.10287 0.49993
 C317 C -0.01681 0.09664 0.51654
 H318 H -0.05701 0.08692 0.48625
 H319 H -0.00284 0.10447 0.52282
 Cu320 Cu -0.05800 0.04751 0.51848
 Cu321 Cu -0.01493 0.06173 0.54630
 Cu322 Cu -0.04430 0.01717 0.55879
 N323 N -0.07478 0.02290 0.52626
 N324 N -0.06942 0.01103 0.54185
 C325 C -0.08377 -0.00484 0.54352
 C326 C -0.09900 -0.00270 0.52825
 C327 C -0.09277 0.01509 0.51760
 H328 H -0.08327 -0.01700 0.55503
 H329 H -0.10064 0.02178 0.50445
 N330 N -0.01828 0.02618 0.57393
 N331 N -0.00698 0.04296 0.56872
 C332 C 0.00990 0.04501 0.58140
 C333 C 0.00926 0.02882 0.59539
 C334 C -0.00889 0.01719 0.59030
 H335 H 0.02157 0.05765 0.58078
 H336 H -0.01473 0.00322 0.59795
 H337 H -0.02707 0.03281 0.53678
 H338 H -0.04514 0.04915 0.55340
 N339 N 0.47811 0.57739 0.02006
 N340 N 0.46138 0.57113 0.00934
 C341 C 0.45943 0.58331 -0.00721
 C342 C 0.47571 0.59814 -0.00704
 C343 C 0.48728 0.59405 0.01060
 H344 H 0.44674 0.58181 -0.01837
 H345 H 0.50131 0.60251 0.01605
 Cu346 Cu 0.44309 0.54808 0.01786
 Cu347 Cu 0.48632 0.56296 0.04534
 Cu348 Cu 0.45373 0.52084 0.06002
 N349 N 0.42477 0.52500 0.02639
 N350 N 0.42925 0.51400 0.04275
 C351 C 0.41437 0.49868 0.04494
 C352 C 0.39972 0.50035 0.02917
 C353 C 0.40683 0.51719 0.01767
 H354 H 0.41414 0.48723 0.05711
 H355 H 0.39968 0.52311 0.00383
 N356 N 0.47908 0.53009 0.07560
 N357 N 0.49159 0.54604 0.07030
 C358 C 0.50722 0.54826 0.08448
 C359 C 0.50421 0.53306 0.09937
 C360 C 0.48628 0.52186 0.09312
 H361 H 0.51976 0.56012 0.08415
 H362 H 0.47894 0.50861 0.10076
 H363 H 0.47324 0.53429 0.03772
 H364 H 0.45568 0.55271 0.05258
 N365 N 0.52813 -0.07080 0.01907
 N366 N 0.54525 -0.06367 0.00939
 C367 C 0.54889 -0.07577 -0.00712
 C368 C 0.53320 -0.09132 -0.00774
 C369 C 0.52036 -0.08770 0.00914
 H370 H 0.56192 -0.07340 -0.01787
 H371 H 0.50624 -0.09659 0.01370
 Cu372 Cu 0.56068 -0.03904 0.01934
 Cu373 Cu 0.51673 -0.05736 0.04350
 Cu374 Cu 0.54417 -0.01335 0.06121
 N375 N 0.57609 -0.01441 0.02926
 N376 N 0.56942 -0.00434 0.04560
 C377 C 0.58240 0.01231 0.04893
 C378 C 0.59809 0.01272 0.03385
 C379 C 0.59361 -0.00449 0.02167
 H380 H 0.58045 0.02331 0.06135
 H381 H 0.60236 -0.00923 0.00816
 N382 N 0.51828 -0.02496 0.07480
 N383 N 0.50776 -0.04159 0.06794
 C384 C 0.49072 -0.04541 0.08021
 C385 C 0.49053 -0.03051 0.09556
 C386 C 0.50825 -0.01785 0.09168
 H387 H 0.47937 -0.05816 0.07816
 H388 H 0.51332 -0.00435 0.10049
 H389 H 0.52817 -0.02742 0.03732
 H390 H 0.54577 -0.04479 0.05319
 N391 N 1.02749 0.42143 0.52085
 N392 N 1.04434 0.42927 0.51125
 C393 C 1.04897 0.41706 0.49506
 C394 C 1.03424 0.40068 0.49452
 C395 C 1.02088 0.40394 0.51112
 H396 H 1.06216 0.41981 0.48457
 H397 H 1.00733 0.39428 0.51575
 Cu398 Cu 1.05878 0.45452 0.52092
 Cu399 Cu 1.01551 0.43432 0.54530
 Cu400 Cu 1.04157 0.47886 0.56333
 N401 N 1.07348 0.47917 0.53163
 N402 N 1.06639 0.48887 0.54800
 C403 C 1.07920 0.50548 0.55196
 C404 C 1.09529 0.50615 0.53733
 C405 C 1.09122 0.48920 0.52471
 H406 H 1.07716 0.51603 0.56472
 H407 H 1.10050 0.48461 0.51146
 N408 N 1.01622 0.46641 0.57678
 N409 N 1.00598 0.44967 0.56983
 C410 C 0.98942 0.44512 0.58249
 C411 C 0.98945 0.45965 0.59818
 C412 C 1.00663 0.47284 0.59407
 H413 H 0.97849 0.43198 0.58067
 H414 H 1.01176 0.48612 0.60314
 H415 H 1.02590 0.46452 0.53924
 H416 H 1.04433 0.44747 0.55469
 C417 C 0.40477 0.01385 0.22085
 H418 H 0.40433 0.02758 0.23061
 C419 C 0.41959 0.01286 0.20482
 H420 H 0.42999 0.02626 0.20221
 C421 C 0.39118 -0.01994 0.21253
 H422 H 0.38038 -0.03287 0.21582
 C423 C 0.40584 -0.02167 0.19641
 H424 H 0.40595 -0.03595 0.18738
 N425 N 0.39083 -0.00231 0.22430
 C426 C 0.33999 0.02772 0.26057
 H427 H 0.34015 0.01753 0.27374
 C428 C 0.32544 0.04465 0.25966
 H429 H 0.31492 0.04751 0.27252
 C430 C 0.35404 0.03626 0.22812
 H431 H 0.36489 0.03270 0.21568
 C432 C 0.33969 0.05328 0.22652
 H433 H 0.33989 0.06273 0.21283
 Zn434 Zn 0.37227 -0.00002 0.24713
 N435 N 0.35402 0.02396 0.24502
 C436 C 0.39046 0.01957 0.28206
 N437 N 0.39042 0.00199 0.27022
 C438 C 0.40426 -0.01431 0.27388
 C439 C 0.41861 -0.01355 0.29024
 C440 C 0.40461 0.02107 0.29851
 C441 C 0.34005 -0.02762 0.23346
 C442 C 0.32549 -0.04443 0.23446
 C443 C 0.33911 -0.05252 0.26792
 C444 C 0.35346 -0.03566 0.26622
 N445 N 0.35381 -0.02371 0.24911
 H446 H 0.37978 0.03262 0.27861
 H447 H 0.40408 -0.02801 0.26408
 H448 H 0.42894 -0.02705 0.29303
 H449 H 0.40443 0.03529 0.30761
 H450 H 0.34045 -0.01765 0.22013
 H451 H 0.31520 -0.04744 0.22154
 H452 H 0.33910 -0.06170 0.28178
 H453 H 0.36403 -0.03195 0.27875
 C454 C 0.32499 0.05763 0.24235
 C455 C 0.42047 -0.00521 0.19241
 C456 C 0.32478 -0.05714 0.25196
 C457 C 0.41907 0.00443 0.30278
 C458 C 0.08854 -0.01425 0.72427
 H459 H 0.08843 -0.02767 0.73442
 C460 C 0.07398 -0.01334 0.70809
 H461 H 0.06308 -0.02642 0.70576
 C462 C 0.10350 0.01872 0.71495
 H463 H 0.11479 0.03134 0.71785
 C464 C 0.08921 0.02031 0.69862
 H465 H 0.08984 0.03418 0.68903
 N466 N 0.10305 0.00152 0.72725
 C467 C 0.15387 -0.02923 0.76235
 H468 H 0.15399 -0.01924 0.77567
 C469 C 0.16829 -0.04620 0.76091
 H470 H 0.17888 -0.04927 0.77361
 C471 C 0.13935 -0.03713 0.73000
 H472 H 0.12837 -0.03327 0.71780
 C473 C 0.15367 -0.05412 0.72781
 H474 H 0.15329 -0.06324 0.71392
 Zn475 Zn 0.12190 -0.00086 0.74973
 N476 N 0.13967 -0.02512 0.74711
 C477 C 0.10437 -0.02006 0.78517
 N478 N 0.10422 -0.00251 0.77329
 C479 C 0.09055 0.01387 0.77730
 C480 C 0.07658 0.01320 0.79404
 C481 C 0.09064 -0.02144 0.80199
 C482 C 0.15499 0.02519 0.73531
 C483 C 0.17012 0.04154 0.73567
 C484 C 0.15622 0.05188 0.76853
 C485 C 0.14137 0.03535 0.76753
 N486 N 0.14091 0.02250 0.75101
 H487 H 0.11484 -0.03320 0.78145
 H488 H 0.09054 0.02754 0.76746
 H489 H 0.06633 0.02672 0.79708
 H490 H 0.09098 -0.03565 0.81111
 H491 H 0.15445 0.01457 0.72246
 H492 H 0.18077 0.04356 0.72276
 H493 H 0.15635 0.06183 0.78190
 H494 H 0.13047 0.03265 0.78010
 C495 C 0.16860 -0.05881 0.74330
 C496 C 0.07414 0.00418 0.69499
 C497 C 0.17098 0.05511 0.75253
 C498 C 0.07637 -0.00474 0.80662
 C499 C 0.59469 0.49842 0.21753
 H500 H 0.59216 0.48350 0.22515
 C501 C 0.58209 0.50379 0.20071
 H502 H 0.56995 0.49277 0.19549
 C503 C 0.61374 0.53066 0.21515
 H504 H 0.62582 0.54130 0.22103
 C505 C 0.60144 0.53672 0.19832
 H506 H 0.60426 0.55207 0.19170
 N507 N 0.61053 0.51157 0.22410
 C508 C 0.65672 0.46905 0.25348
 H509 H 0.65832 0.47664 0.26811
 C510 C 0.66859 0.45076 0.24919
 H511 H 0.67919 0.44434 0.26074
 C512 C 0.64114 0.46851 0.22068
 H513 H 0.63087 0.47574 0.20938
 C514 C 0.65275 0.45022 0.21572
 H515 H 0.65120 0.44384 0.20057
 Zn516 Zn 0.62790 0.50255 0.24627
 N517 N 0.64309 0.47739 0.23939
 C518 C 0.60777 0.47875 0.27797
 N519 N 0.60924 0.49798 0.26888
 C520 C 0.59695 0.51453 0.27534
 C521 C 0.58285 0.51227 0.29182
 C522 C 0.59379 0.47575 0.29446
 C523 C 0.66366 0.52793 0.23759
 C524 C 0.67900 0.54377 0.24053
 C525 C 0.66438 0.54948 0.27413
 C526 C 0.64926 0.53357 0.27051
 N527 N 0.64890 0.52343 0.25231
 H528 H 0.61728 0.46563 0.27238
 H529 H 0.59828 0.52961 0.26776
 H530 H 0.57386 0.52596 0.29693
 H531 H 0.59284 0.46030 0.30141
 H532 H 0.66312 0.51953 0.22330
 H533 H 0.68987 0.54754 0.22816
 H534 H 0.66421 0.55750 0.28865
 H535 H 0.63776 0.52947 0.28223
 C536 C 0.66662 0.44095 0.23013
 C537 C 0.58560 0.52302 0.19058
 C538 C 0.67949 0.55490 0.25901
 C539 C 0.58097 0.49260 0.30159
 C540 C 0.91126 0.50627 0.72553
 H541 H 0.91128 0.52087 0.73405
 C542 C 0.92596 0.50333 0.70971
 H543 H 0.93689 0.51606 0.70599
 C544 C 0.89614 0.47248 0.71986
 H545 H 0.88464 0.46043 0.72401
 C546 C 0.91065 0.46884 0.70387
 H547 H 0.91006 0.45398 0.69577
 N548 N 0.89655 0.49110 0.73013
 C549 C 0.84690 0.53012 0.75869
 H550 H 0.84585 0.52319 0.77367
 C551 C 0.83456 0.54800 0.75398
 H552 H 0.82412 0.55472 0.76555
 C553 C 0.86175 0.52960 0.72552
 H554 H 0.87200 0.52214 0.71428
 C555 C 0.84962 0.54737 0.72011
 H556 H 0.85071 0.55305 0.70468
 Zn557 Zn 0.87761 0.49777 0.75182
 N558 N 0.86050 0.52157 0.74464
 C559 C 0.89580 0.52269 0.78396
 N560 N 0.89564 0.50371 0.77430
 C561 C 0.90934 0.48791 0.77987
 C562 C 0.92364 0.49064 0.79598
 C563 C 0.90997 0.52616 0.80016
 C564 C 0.84581 0.46696 0.74354
 C565 C 0.83259 0.44961 0.74767
 C566 C 0.84596 0.44948 0.78207
 C567 C 0.85898 0.46673 0.77726
 N568 N 0.85905 0.47484 0.75814
 H569 H 0.88517 0.53525 0.77903
 H570 H 0.90899 0.47304 0.77180
 H571 H 0.93380 0.47748 0.80038
 H572 H 0.90994 0.54139 0.80762
 H573 H 0.84578 0.47398 0.72856
 H574 H 0.82253 0.44332 0.73568
 H575 H 0.84609 0.44365 0.79750
 H576 H 0.86891 0.47370 0.78892
 C577 C 0.83598 0.55707 0.73452
 C578 C 0.92588 0.48436 0.69864
 C579 C 0.83280 0.44036 0.76708
 C580 C 0.92427 0.51006 0.80629
 C581 C 0.22275 0.40170 0.01169
 H582 H 0.23149 0.39955 0.02577
 C583 C 0.20587 0.41638 0.01064
 H584 H 0.20152 0.42497 0.02424
 C585 C 0.21791 0.39253 -0.02286
 H586 H 0.22289 0.38347 -0.03597
 C587 C 0.20098 0.40712 -0.02463
 H588 H 0.19303 0.40896 -0.03915
 N589 N 0.22833 0.39004 -0.00485
 C590 C 0.26246 0.33631 0.02133
 H591 H 0.27745 0.33703 0.01281
 C592 C 0.25992 0.32126 0.03659
 H593 H 0.27329 0.31071 0.03984
 C594 C 0.22739 0.35016 0.02788
 H595 H 0.21471 0.36138 0.02438
 C596 C 0.22413 0.33535 0.04323
 H597 H 0.20892 0.33544 0.05147
 Zn598 Zn 0.25224 0.37156 -0.00201
 N599 N 0.24653 0.35068 0.01763
 C600 C 0.28553 0.38526 0.02461
 N601 N 0.27582 0.38822 0.00631
 C602 C 0.28201 0.40403 -0.00631
 C603 C 0.29920 0.41711 -0.00109
 C604 C 0.30271 0.39810 0.03054
 C605 C 0.24346 0.34478 -0.03465
 C606 C 0.24770 0.33342 -0.05238
 C607 C 0.28362 0.34842 -0.05323
 C608 C 0.27867 0.35951 -0.03549
 N609 N 0.25878 0.35767 -0.02669
 H610 H 0.27979 0.37316 0.03480
 H611 H 0.27364 0.40633 -0.02056
 H612 H 0.30405 0.42936 -0.01159
 H613 H 0.30979 0.39564 0.04534
 H614 H 0.22794 0.34325 -0.02710
 H615 H 0.23521 0.32328 -0.05846
 H616 H 0.29974 0.34976 -0.05957
 H617 H 0.29095 0.36918 -0.02853
 C618 C 0.24060 0.32077 0.04794
 C619 C 0.19484 0.41945 -0.00779
 C620 C 0.26799 0.33518 -0.06198
 C621 C 0.30997 0.41416 0.01748
 C622 C 0.72593 0.09984 -0.01626
 H623 H 0.73532 0.10083 -0.03012
 C624 C 0.70932 0.08500 -0.01459
 H625 H 0.70588 0.07514 -0.02756
 C626 C 0.71908 0.11202 0.01713
 H627 H 0.72316 0.12229 0.02962
 C628 C 0.70247 0.09734 0.01953
 H629 H 0.69389 0.09672 0.03387
 N630 N 0.73034 0.11311 -0.00061
 C631 C 0.76456 0.16613 -0.02815
 H632 H 0.77841 0.16670 -0.01813
 C633 C 0.76274 0.18059 -0.04402
 H634 H 0.77557 0.19194 -0.04624
 C635 C 0.73151 0.14998 -0.03752
 H636 H 0.71925 0.13820 -0.03479
 C637 C 0.72902 0.16416 -0.05359
 H638 H 0.71482 0.16299 -0.06316
 Zn639 Zn 0.75368 0.13226 -0.00342
 N640 N 0.74924 0.15103 -0.02537
 C641 C 0.79002 0.11790 -0.02594
 N642 N 0.77921 0.11609 -0.00800
 C643 C 0.78545 0.10170 0.00615
 C644 C 0.80347 0.08870 0.00268
 C645 C 0.80805 0.10521 -0.03007
 C646 C 0.73887 0.16247 0.02386
 C647 C 0.73927 0.17619 0.04042
 C648 C 0.77482 0.16276 0.04887
 C649 C 0.77373 0.14926 0.03212
 N650 N 0.75587 0.14930 0.02008
 H651 H 0.78437 0.12879 -0.03738
 H652 H 0.77627 0.10018 0.02009
 H653 H 0.80816 0.07738 0.01418
 H654 H 0.81582 0.10664 -0.04473
 H655 H 0.72493 0.16225 0.01394
 H656 H 0.72528 0.18611 0.04328
 H657 H 0.78924 0.16258 0.05822
 H658 H 0.78725 0.13897 0.02864
 C659 C 0.74476 0.17975 -0.05705
 C660 C 0.69739 0.08344 0.00361
 C661 C 0.75751 0.17661 0.05314
 C662 C 0.81514 0.09039 -0.01562
 C663 C 0.22576 0.59071 0.49238
 H664 H 0.23547 0.59112 0.47869
 C665 C 0.20990 0.57533 0.49471
 H666 H 0.20731 0.56436 0.48239
 C667 C 0.21719 0.60532 0.52455
 H668 H 0.22030 0.61688 0.53622
 C669 C 0.20120 0.59009 0.52758
 H670 H 0.19200 0.59023 0.54161
 N671 N 0.22890 0.60546 0.50704
 C672 C 0.25883 0.65458 0.47060
 H673 H 0.27426 0.65643 0.47815
 C674 C 0.25419 0.66631 0.45318
 H675 H 0.26628 0.67709 0.44737
 C676 C 0.22436 0.63837 0.46919
 H677 H 0.21252 0.62788 0.47575
 C678 C 0.21902 0.64981 0.45180
 H679 H 0.20303 0.64793 0.44539
 Zn680 Zn 0.25109 0.62507 0.50169
 N681 N 0.24412 0.64067 0.47804
 C682 C 0.28687 0.60752 0.47973
 N683 N 0.27643 0.60867 0.49791
 C684 C 0.28246 0.59632 0.51379
 C685 C 0.29963 0.58209 0.51182
 C686 C 0.30407 0.59336 0.47703
 C687 C 0.23720 0.65651 0.52874
 C688 C 0.23871 0.67086 0.54477
 C689 C 0.27598 0.66020 0.54947
 C690 C 0.27373 0.64600 0.53339
 N691 N 0.25447 0.64425 0.52354
 H692 H 0.28145 0.61703 0.46710
 H693 H 0.27364 0.59735 0.52798
 H694 H 0.30422 0.57279 0.52488
 H695 H 0.31188 0.59236 0.46231
 H696 H 0.22212 0.65494 0.52053
 H697 H 0.22444 0.67986 0.54894
 H698 H 0.29147 0.66131 0.55708
 H699 H 0.28745 0.63651 0.52873
 C700 C 0.23413 0.66386 0.44338
 C701 C 0.19738 0.57478 0.51256
 C702 C 0.25836 0.67293 0.55538
 C703 C 0.31046 0.58012 0.49309
 C704 C 0.71920 0.90373 0.51996
 H705 H 0.72808 0.90244 0.53405
 C706 C 0.70265 0.91877 0.51803
 H707 H 0.69870 0.92851 0.53101
 C708 C 0.71369 0.89224 0.48617
 H709 H 0.71832 0.88224 0.47360
 C710 C 0.69714 0.90707 0.48356
 H711 H 0.68913 0.90802 0.46898
 N712 N 0.72426 0.89071 0.50421
 C713 C 0.75883 0.83720 0.53105
 H714 H 0.77273 0.83704 0.52099
 C715 C 0.75726 0.82230 0.54655
 H716 H 0.77035 0.81108 0.54844
 C717 C 0.72546 0.85280 0.54090
 H718 H 0.71302 0.86459 0.53851
 C719 C 0.72320 0.83814 0.55662
 H720 H 0.70898 0.83891 0.56627
 Zn721 Zn 0.74771 0.87142 0.50707
 N722 N 0.74322 0.85221 0.52866
 C723 C 0.78356 0.88539 0.53013
 N724 N 0.77305 0.88739 0.51210
 C725 C 0.77967 0.90160 0.49795
 C726 C 0.79789 0.91409 0.50148
 C727 C 0.80176 0.89761 0.53432
 C728 C 0.73371 0.84202 0.47872
 C729 C 0.73477 0.82850 0.46202
 C730 C 0.77097 0.84111 0.45525
 C731 C 0.76916 0.85447 0.47207
 N732 N 0.75067 0.85475 0.48335
 H733 H 0.77760 0.87463 0.54153
 H734 H 0.77074 0.90324 0.48392
 H735 H 0.80296 0.92519 0.48993
 H736 H 0.80935 0.89601 0.54902
 H737 H 0.71927 0.84243 0.48808
 H738 H 0.72077 0.81900 0.45849
 H739 H 0.78590 0.84100 0.44657
 H740 H 0.78267 0.86432 0.47625
 C741 C 0.73922 0.82258 0.55963
 C742 C 0.69140 0.92073 0.49954
 C743 C 0.75370 0.82772 0.45010
 C744 C 0.80934 0.91212 0.51982
 C745 C 0.00563 0.21879 0.40713
 H746 H 0.02110 0.22659 0.40868
 C747 C 0.00060 0.20169 0.41952
 H748 H 0.01247 0.19632 0.43047
 C749 C -0.02860 0.21667 0.39106
 H750 H -0.04016 0.22292 0.38032
 C751 C -0.03436 0.19951 0.40322
 H752 H -0.05038 0.19288 0.40163
 N753 N -0.00878 0.22574 0.39306
 C754 C 0.03287 0.25877 0.35022
 H755 H 0.02538 0.27424 0.35023
 C756 C 0.05069 0.25469 0.33769
 H757 H 0.05693 0.26727 0.32824
 C758 C 0.03333 0.22352 0.36216
 H759 H 0.02612 0.21121 0.37123
 C760 C 0.05115 0.21874 0.34985
 H761 H 0.05726 0.20272 0.34969
 Zn762 Zn -0.00040 0.24953 0.37777
 N763 N 0.02468 0.24331 0.36226
 C764 C 0.02381 0.28159 0.39828
 N765 N 0.00455 0.27138 0.39665
 C766 C -0.01233 0.27596 0.40920
 C767 C -0.01041 0.29159 0.42395
 C768 C 0.02647 0.29736 0.41291
 C769 C -0.02891 0.24335 0.34543
 C770 C -0.04546 0.24836 0.33186
 C771 C -0.04793 0.28301 0.34703
 C772 C -0.03142 0.27726 0.36041
 N773 N -0.02256 0.25759 0.35962
 H774 H 0.03715 0.27745 0.38837
 H775 H -0.02742 0.26750 0.40760
 H776 H -0.02438 0.29527 0.43327
 H777 H 0.04192 0.30532 0.41403
 H778 H -0.02127 0.22796 0.34488
 H779 H -0.05055 0.23658 0.32098
 H780 H -0.05438 0.29888 0.34783
 H781 H -0.02560 0.28864 0.37130
 C782 C 0.06015 0.23446 0.33742
 C783 C -0.01957 0.19169 0.41762
 C784 C -0.05544 0.26834 0.33268
 C785 C 0.00927 0.30245 0.42610
 C786 C -0.01110 0.72321 0.09428
 H787 H -0.02604 0.73208 0.09578
 C788 C -0.00913 0.70786 0.07922
 H789 H -0.02293 0.70481 0.06960
 C790 C 0.02462 0.71630 0.10569
 H791 H 0.03779 0.71982 0.11590
 C792 C 0.02732 0.70077 0.09077
 H793 H 0.04261 0.69238 0.08973
 N794 N 0.00554 0.72703 0.10723
 C795 C -0.02891 0.75506 0.15838
 H796 H -0.02087 0.77015 0.15948
 C797 C -0.04607 0.75032 0.17143
 H798 H -0.05115 0.76200 0.18249
 C799 C -0.03194 0.72167 0.14252
 H800 H -0.02614 0.71036 0.13148
 C801 C -0.04912 0.71623 0.15532
 H802 H -0.05610 0.70068 0.15395
 Zn803 Zn 0.00048 0.74875 0.12640
 N804 N -0.02246 0.74095 0.14403
 C805 C -0.02698 0.78241 0.11288
 N806 N -0.00722 0.77296 0.11113
 C807 C 0.00757 0.77974 0.09730
 C808 C 0.00298 0.79701 0.08490
 C809 C -0.03230 0.79973 0.10069
 C810 C 0.03381 0.73877 0.15424
 C811 C 0.05166 0.74270 0.16674
 C812 C 0.05160 0.77881 0.15511
 C813 C 0.03381 0.77419 0.14285
 N814 N 0.02541 0.75438 0.14244
 H815 H -0.03883 0.77633 0.12343
 H816 H 0.02298 0.77165 0.09593
 H817 H 0.01515 0.80218 0.07414
 H818 H -0.04831 0.80658 0.10208
 H819 H 0.02655 0.72326 0.15402
 H820 H 0.05814 0.73000 0.17593
 H821 H 0.05749 0.79485 0.15544
 H822 H 0.02647 0.78664 0.13400
 C823 C -0.05664 0.73077 0.16989
 C824 C 0.01035 0.69646 0.07717
 C825 C 0.06094 0.76292 0.16720
 C826 C -0.01714 0.80737 0.08651
 C827 C 0.49127 0.21705 0.59102
 H828 H 0.47590 0.22511 0.58918
 C829 C 0.49625 0.19958 0.57899
 H830 H 0.48443 0.19424 0.56802
 C831 C 0.52530 0.21462 0.60743
 H832 H 0.53683 0.22088 0.61814
 C833 C 0.53100 0.19708 0.59564
 H834 H 0.54693 0.19018 0.59750
 N835 N 0.50560 0.22406 0.60509
 C836 C 0.46342 0.25867 0.64716
 H837 H 0.47071 0.27416 0.64690
 C838 C 0.44560 0.25478 0.65979
 H839 H 0.43915 0.26751 0.66901
 C840 C 0.46345 0.22318 0.63592
 H841 H 0.47084 0.21068 0.62714
 C842 C 0.44566 0.21861 0.64830
 H843 H 0.43979 0.20257 0.64875
 Zn844 Zn 0.49725 0.24848 0.61986
 N845 N 0.47187 0.24298 0.63543
 C846 C 0.47410 0.28118 0.59850
 N847 N 0.49292 0.27010 0.60039
 C848 C 0.51004 0.27374 0.58787
 C849 C 0.50885 0.28926 0.57291
 C850 C 0.47219 0.29690 0.58367
 C851 C 0.52597 0.24261 0.65237
 C852 C 0.54269 0.24776 0.66570
 C853 C 0.54482 0.28213 0.65001
 C854 C 0.52819 0.27624 0.63687
 N855 N 0.51943 0.25662 0.63800
 H856 H 0.46058 0.27787 0.60844
 H857 H 0.52480 0.26466 0.58972
 H858 H 0.52304 0.29217 0.56368
 H859 H 0.45711 0.30561 0.58239
 H860 H 0.51841 0.22727 0.65324
 H861 H 0.54795 0.23613 0.67669
 H862 H 0.55116 0.29796 0.64890
 H863 H 0.52221 0.28746 0.62587
 C864 C 0.43638 0.23453 0.66045
 C865 C 0.51631 0.18924 0.58121
 C866 C 0.55262 0.26766 0.66447
 C867 C 0.48968 0.30106 0.57052
 C868 C 0.51340 0.72905 0.91077
 H869 H 0.52675 0.74003 0.90998
 C870 C 0.51371 0.71278 0.92506
 H871 H 0.52763 0.71116 0.93489
 C872 C 0.47928 0.71785 0.89848
 H873 H 0.46571 0.72012 0.88838
 C874 C 0.47893 0.70133 0.91251
 H875 H 0.46505 0.69093 0.91288
 N876 N 0.49644 0.73121 0.89776
 C877 C 0.52430 0.76851 0.84889
 H878 H 0.51354 0.78203 0.84933
 C879 C 0.54095 0.76761 0.83455
 H880 H 0.54305 0.78091 0.82450
 C881 C 0.53438 0.73508 0.86199
 H882 H 0.53146 0.72225 0.87243
 C883 C 0.55111 0.73341 0.84776
 H884 H 0.56102 0.71926 0.84762
 Zn885 Zn 0.49718 0.75440 0.87968
 N886 N 0.52139 0.75245 0.86226
 C887 C 0.51738 0.79063 0.89625
 N888 N 0.49894 0.77897 0.89591
 C889 C 0.48209 0.78339 0.90856
 C890 C 0.48335 0.80017 0.92225
 C891 C 0.51941 0.80744 0.90980
 C892 C 0.46970 0.73792 0.85024
 C893 C 0.45328 0.73788 0.83568
 C894 C 0.44327 0.77306 0.84635
 C895 C 0.45978 0.77234 0.86084
 N896 N 0.47262 0.75494 0.86247
 H897 H 0.53085 0.78651 0.88651
 H898 H 0.46773 0.77367 0.90817
 H899 H 0.46949 0.80347 0.93181
 H900 H 0.53444 0.81621 0.91007
 H901 H 0.48039 0.72442 0.85162
 H902 H 0.45124 0.72389 0.82652
 H903 H 0.43355 0.78726 0.84507
 H904 H 0.46274 0.78596 0.87028
 C905 C 0.55447 0.74969 0.83358
 C906 C 0.49623 0.69868 0.92615
 C907 C 0.43998 0.75580 0.83326
 C908 C 0.50241 0.81226 0.92331
 C909 C 0.11230 0.22213 0.29676
 C910 C 0.09755 0.23862 0.29327
 N911 N 0.09980 0.25092 0.27658
 C912 C 0.11618 0.24752 0.26317
 C913 C 0.13110 0.23099 0.26654
 N914 N 0.12872 0.21866 0.28335
 N915 N 0.11001 0.20996 0.31358
 C916 C 0.09356 0.21345 0.32700
 C917 C 0.07856 0.22992 0.32345
 N918 N 0.08116 0.24210 0.30660
 H919 H 0.11735 0.25764 0.25003
 H920 H 0.09251 0.20365 0.34038
 C921 C 0.60386 0.74184 0.78907
 C922 C 0.60366 0.72969 0.80684
 N923 N 0.61913 0.71472 0.80973
 C924 C 0.63477 0.71125 0.79553
 C925 C 0.63501 0.72337 0.77764
 N926 N 0.61954 0.73850 0.77493
 N927 N 0.58809 0.75646 0.78602
 C928 C 0.57210 0.75955 0.79997
 C929 C 0.57186 0.74750 0.81800
 N930 N 0.58779 0.73281 0.82081
 H931 H 0.64691 0.69923 0.79829
 H932 H 0.55955 0.77093 0.79659
 C933 C 0.39160 0.76062 0.78747
 C934 C 0.39140 0.77395 0.80445
 N935 N 0.37576 0.78895 0.80623
 C936 C 0.36029 0.79128 0.79174
 C937 C 0.36038 0.77797 0.77461
 N938 N 0.37611 0.76288 0.77297
 N939 N 0.40745 0.74585 0.78561
 C940 C 0.42311 0.74372 0.79999
 C941 C 0.42295 0.75698 0.81724
 N942 N 0.40697 0.77183 0.81883
 H943 H 0.34808 0.80339 0.79371
 H944 H 0.43571 0.73209 0.79756
 C945 C -0.10704 0.28135 0.29195
 C946 C -0.09172 0.26555 0.28778
 N947 N -0.09364 0.25374 0.27073
 C948 C -0.11033 0.25691 0.25764
 C949 C -0.12594 0.27268 0.26180
 N950 N -0.12371 0.28458 0.27891
 N951 N -0.10526 0.29291 0.30921
 C952 C -0.08883 0.28937 0.32252
 C953 C -0.07332 0.27348 0.31841
 N954 N -0.07533 0.26200 0.30103
 H955 H -0.11125 0.24712 0.24424
 H956 H -0.08835 0.29855 0.33633
 C957 C -0.10934 0.71826 0.20979
 C958 C -0.09347 0.73320 0.21464
 N959 N -0.09503 0.74422 0.23221
 C960 C -0.11186 0.74113 0.24516
 C961 C -0.12800 0.72630 0.24036
 N962 N -0.12623 0.71512 0.22274
 N963 N -0.10777 0.70744 0.19205
 C964 C -0.09104 0.71086 0.17895
 C965 C -0.07501 0.72586 0.18377
 N966 N -0.07683 0.73662 0.20160
 H967 H -0.11249 0.75018 0.25906
 H968 H -0.09068 0.70227 0.16478
 C969 C 0.38421 0.22197 0.70102
 C970 C 0.39861 0.23859 0.70459
 N971 N 0.39604 0.25076 0.72136
 C972 C 0.37971 0.24710 0.73479
 C973 C 0.36514 0.23036 0.73137
 N974 N 0.36788 0.21823 0.71443
 N975 N 0.38675 0.20988 0.68416
 C976 C 0.40316 0.21354 0.67078
 C977 C 0.41789 0.23009 0.67439
 N978 N 0.41502 0.24225 0.69128
 H979 H 0.37832 0.25722 0.74793
 H980 H 0.40438 0.20378 0.65736
 C981 C 0.60496 0.28110 0.70420
 C982 C 0.59004 0.26515 0.70864
 N983 N 0.59255 0.25338 0.72565
 C984 C 0.60942 0.25674 0.73845
 C985 C 0.62463 0.27268 0.73405
 N986 N 0.62183 0.28453 0.71696
 N987 N 0.60259 0.29261 0.68698
 C988 C 0.58594 0.28892 0.67398
 C989 C 0.57078 0.27292 0.67838
 N990 N 0.57341 0.26146 0.69572
 H991 H 0.61079 0.24696 0.75182
 H992 H 0.58501 0.29810 0.66020
 C993 C 0.11389 0.77543 0.20665
 C994 C 0.09958 0.75877 0.21050
 N995 N 0.10252 0.74654 0.22718
 C996 C 0.11911 0.75022 0.24024
 C997 C 0.13351 0.76699 0.23653
 N998 N 0.13047 0.77918 0.21971
 N999 N 0.11100 0.78755 0.18990
 C1000 C 0.09434 0.78391 0.17688
 C1001 C 0.07967 0.76735 0.18078
 N1002 N 0.08291 0.75513 0.19756
 H1003 H 0.12088 0.74016 0.25338
 H1004 H 0.09287 0.79369 0.16352
 C1005 C 0.28118 0.10915 0.23563
 C1006 C 0.30053 0.10809 0.22448
 N1007 N 0.30531 0.12356 0.21100
 C1008 C 0.29153 0.14005 0.20807
 C1009 C 0.27199 0.14118 0.21913
 N1010 N 0.26736 0.12564 0.23275
 N1011 N 0.27635 0.09348 0.24890
 C1012 C 0.29002 0.07680 0.25158
 C1013 C 0.30959 0.07568 0.24047
 N1014 N 0.31418 0.09150 0.22714
 H1015 H 0.29591 0.15211 0.19723
 H1016 H 0.28529 0.06443 0.26194
 C1017 C 0.79684 0.61057 0.72060
 C1018 C 0.79195 0.59730 0.73699
 N1019 N 0.77429 0.60135 0.74863
 C1020 C 0.76112 0.61801 0.74455
 C1021 C 0.76569 0.63130 0.72794
 N1022 N 0.78363 0.62725 0.71640
 N1023 N 0.81467 0.60648 0.70911
 C1024 C 0.82771 0.58961 0.71316
 C1025 C 0.82264 0.57598 0.72945
 N1026 N 0.80485 0.58045 0.74098
 H1027 H 0.74725 0.62070 0.75426
 H1028 H 0.84195 0.58717 0.70387
 C1029 C 0.79338 0.38684 0.77893
 C1030 C 0.78845 0.40083 0.76310
 N1031 N 0.77087 0.39724 0.75130
 C1032 C 0.75793 0.38027 0.75461
 C1033 C 0.76275 0.36616 0.77051
 N1034 N 0.78046 0.36988 0.78230
 N1035 N 0.81110 0.39035 0.79058
 C1036 C 0.82407 0.40731 0.78723
 C1037 C 0.81909 0.42161 0.77146
 N1038 N 0.80135 0.41778 0.75975
 H1039 H 0.74405 0.37796 0.74491
 H1040 H 0.83828 0.40923 0.79658
 C1041 C 0.28209 -0.10918 0.25923
 C1042 C 0.30096 -0.10722 0.27086
 N1043 N 0.30572 -0.12191 0.28507
 C1044 C 0.29239 -0.13853 0.28837
 C1045 C 0.27323 -0.14068 0.27687
 N1046 N 0.26867 -0.12585 0.26243
 N1047 N 0.27734 -0.09416 0.24521
 C1048 C 0.29063 -0.07731 0.24228
 C1049 C 0.30970 -0.07532 0.25393
 N1050 N 0.31419 -0.09050 0.26794
 H1051 H 0.29698 -0.14982 0.29986
 H1052 H 0.28599 -0.06548 0.23129
 C1053 C 0.21293 -0.10969 0.73490
 C1054 C 0.19430 -0.10785 0.72294
 N1055 N 0.19045 -0.12238 0.70824
 C1056 C 0.20443 -0.13871 0.70496
 C1057 C 0.22317 -0.14072 0.71705
 N1058 N 0.22682 -0.12602 0.73175
 N1059 N 0.21701 -0.09499 0.74932
 C1060 C 0.20322 -0.07852 0.75246
 C1061 C 0.18421 -0.07665 0.74069
 N1062 N 0.18042 -0.09149 0.72611
 H1063 H 0.20078 -0.14995 0.69312
 H1064 H 0.20748 -0.06693 0.76376
 C1065 C 0.70453 0.38621 0.21750
 C1066 C 0.71052 0.40054 0.23268
 N1067 N 0.72874 0.39700 0.24362
 C1068 C 0.74131 0.37972 0.24012
 C1069 C 0.73545 0.36522 0.22489
 N1070 N 0.71710 0.36891 0.21391
 N1071 N 0.68616 0.38979 0.20671
 C1072 C 0.67357 0.40711 0.21032
 C1073 C 0.67964 0.42170 0.22545
 N1074 N 0.69803 0.41781 0.23627
 H1075 H 0.75574 0.37753 0.24913
 H1076 H 0.65886 0.40914 0.20166
 C1077 C 0.72243 0.60622 0.26872
 C1078 C 0.70299 0.60452 0.27965
 N1079 N 0.69759 0.61964 0.29337
 C1080 C 0.71075 0.63645 0.29666
 C1081 C 0.73025 0.63833 0.28565
 N1082 N 0.73556 0.62305 0.27191
 N1083 N 0.72787 0.59100 0.25512
 C1084 C 0.71465 0.57423 0.25178
 C1085 C 0.69488 0.57258 0.26246
 N1086 N 0.68974 0.58785 0.27627
 H1087 H 0.70587 0.64822 0.30765
 H1088 H 0.71979 0.56227 0.24107
 C1089 C 0.21591 0.10552 0.75772
 C1090 C 0.19603 0.10580 0.76811
 N1091 N 0.19107 0.12219 0.78049
 C1092 C 0.20519 0.13829 0.78318
 C1093 C 0.22536 0.13803 0.77309
 N1094 N 0.23016 0.12163 0.76041
 N1095 N 0.22080 0.08889 0.74551
 C1096 C 0.20674 0.07254 0.74324
 C1097 C 0.18676 0.07275 0.75374
 N1098 N 0.18207 0.08954 0.76591
 H1099 H 0.20058 0.15113 0.79312
 H1100 H 0.21144 0.05937 0.73375
 C1101 C 0.23301 0.28040 0.09879
 C1102 C 0.22137 0.29938 0.09725
 N1103 N 0.20771 0.30523 0.11242
 C1104 C 0.20513 0.29293 0.12913
 C1105 C 0.21685 0.27391 0.13082
 N1106 N 0.23055 0.26814 0.11552
 N1107 N 0.24655 0.27452 0.08352
 C1108 C 0.24918 0.28690 0.06683
 C1109 C 0.23781 0.30619 0.06536
 N1110 N 0.22405 0.31177 0.08069
 H1111 H 0.19421 0.29814 0.14099
 H1112 H 0.25985 0.28153 0.05485
 C1113 C 0.73357 0.77987 0.60911
 C1114 C 0.72302 0.79951 0.60935
 N1115 N 0.71088 0.80512 0.62568
 C1116 C 0.70873 0.79193 0.64181
 C1117 C 0.71926 0.77216 0.64169
 N1118 N 0.73152 0.76666 0.62526
 N1119 N 0.74553 0.77423 0.59264
 C1120 C 0.74757 0.78743 0.57646
 C1121 C 0.73723 0.80735 0.57672
 N1122 N 0.72509 0.81271 0.59326
 H1123 H 0.69899 0.79699 0.65460
 H1124 H 0.75689 0.78217 0.56349
 C1125 C 0.76030 0.78670 0.39937
 C1126 C 0.77257 0.80520 0.40087
 N1127 N 0.78696 0.81003 0.38601
 C1128 C 0.78974 0.79713 0.36971
 C1129 C 0.77755 0.77847 0.36815
 N1130 N 0.76302 0.77380 0.38309
 N1131 N 0.74610 0.78178 0.41437
 C1132 C 0.74351 0.79456 0.43080
 C1133 C 0.75568 0.81330 0.43236
 N1134 N 0.77000 0.81799 0.41724
 H1135 H 0.80134 0.80151 0.35814
 H1136 H 0.73241 0.78979 0.44263
 C1137 C 0.28116 0.29771 -0.11407
 C1138 C 0.26538 0.29180 -0.09982
 N1139 N 0.25409 0.27375 -0.10257
 C1140 C 0.25778 0.26128 -0.11898
 C1141 C 0.27356 0.26709 -0.13341
 N1142 N 0.28492 0.28524 -0.13052
 N1143 N 0.29233 0.31588 -0.11127
 C1144 C 0.28853 0.32835 -0.09480
 C1145 C 0.27280 0.32238 -0.08034
 N1146 N 0.26160 0.30419 -0.08342
 H1147 H 0.24848 0.24697 -0.12057
 H1148 H 0.29748 0.34289 -0.09329
 C1149 C 0.73759 0.22098 -0.10748
 C1150 C 0.72785 0.20102 -0.10720
 N1151 N 0.71578 0.19470 -0.12323
 C1152 C 0.71281 0.20751 -0.13951
 C1153 C 0.72237 0.22764 -0.13985
 N1154 N 0.73469 0.23383 -0.12378
 N1155 N 0.74944 0.22731 -0.09128
 C1156 C 0.75209 0.21455 -0.07483
 C1157 C 0.74246 0.19440 -0.07454
 N1158 N 0.73050 0.18830 -0.09085
 H1159 H 0.70314 0.20191 -0.15206
 H1160 H 0.76128 0.22035 -0.06206
 C1161 C 0.22051 0.70050 0.39085
 C1162 C 0.23590 0.70701 0.40515
 N1163 N 0.24678 0.72528 0.40222
 C1164 C 0.24305 0.73737 0.38556
 C1165 C 0.22768 0.73092 0.37108
 N1166 N 0.21670 0.71258 0.37417
 N1167 N 0.20981 0.68208 0.39379
 C1168 C 0.21373 0.66992 0.41042
 C1169 C 0.22908 0.67648 0.42494
 N1170 N 0.23980 0.69493 0.42173
 H1171 H 0.25198 0.75188 0.38383
 H1172 H 0.20519 0.65515 0.41198
 C1173 C 0.26530 0.71499 0.60521
 C1174 C 0.27879 0.69727 0.60316
 N1175 N 0.29423 0.69342 0.61735
 C1176 C 0.29677 0.70649 0.63357
 C1177 C 0.28317 0.72424 0.63576
 N1178 N 0.26776 0.72800 0.62141
 N1179 N 0.25000 0.71897 0.59096
 C1180 C 0.24740 0.70591 0.57477
 C1181 C 0.26067 0.68785 0.57271
 N1182 N 0.27618 0.68416 0.58704
 H1183 H 0.30919 0.70293 0.64462
 H1184 H 0.23531 0.70990 0.56355
 C1185 C 0.76209 0.21772 0.10394
 C1186 C 0.77348 0.19852 0.10329
 N1187 N 0.78649 0.19302 0.11897
 C1188 C 0.78885 0.20595 0.13524
 C1189 C 0.77773 0.22541 0.13591
 N1190 N 0.76444 0.23074 0.12021
 N1191 N 0.74925 0.22322 0.08808
 C1192 C 0.74726 0.21039 0.07162
 C1193 C 0.75868 0.19105 0.07089
 N1194 N 0.77155 0.18575 0.08688
 H1195 H 0.79933 0.20097 0.14748
 H1196 H 0.73725 0.21555 0.05911
 C1197 C 0.48514 0.35012 0.52668
 C1198 C 0.47222 0.35034 0.54423
 N1199 N 0.45827 0.36662 0.54743
 C1200 C 0.45666 0.38274 0.53390
 C1201 C 0.46969 0.38269 0.51629
 N1202 N 0.48364 0.36626 0.51316
 N1203 N 0.49895 0.33375 0.52342
 C1204 C 0.50063 0.31767 0.53702
 C1205 C 0.48798 0.31796 0.55491
 N1206 N 0.47393 0.33436 0.55787
 H1207 H 0.44544 0.39547 0.53704
 H1208 H 0.51154 0.30474 0.53365
 C1209 C -0.02998 0.85906 0.04713
 C1210 C -0.01416 0.84389 0.04239
 N1211 N -0.00249 0.84574 0.02502
 C1212 C -0.00585 0.86216 0.01214
 C1213 C -0.02166 0.87752 0.01681
 N1214 N -0.03341 0.87550 0.03426
 N1215 N -0.04146 0.85724 0.06465
 C1216 C -0.03789 0.84087 0.07763
 C1217 C -0.02206 0.82548 0.07288
 N1218 N -0.01061 0.82759 0.05528
 H1219 H 0.00372 0.86307 -0.00159
 H1220 H -0.04705 0.84026 0.09161
 C1221 C 0.01723 0.64821 0.03279
 C1222 C 0.02959 0.64791 0.05063
 N1223 N 0.04367 0.63177 0.05393
 C1224 C 0.04593 0.61586 0.04021
 C1225 C 0.03340 0.61598 0.02236
 N1226 N 0.01935 0.63228 0.01914
 N1227 N 0.00330 0.66443 0.02940
 C1228 C 0.00093 0.68028 0.04316
 C1229 C 0.01293 0.67986 0.06137
 N1230 N 0.02715 0.66364 0.06446
 H1231 H 0.05721 0.60319 0.04339
 H1232 H -0.01004 0.69311 0.03970
 C1233 C 0.52995 0.13696 0.54266
 C1234 C 0.51475 0.15247 0.53728
 N1235 N 0.50379 0.15077 0.51958
 C1236 C 0.50720 0.13413 0.50698
 C1237 C 0.52228 0.11832 0.51230
 N1238 N 0.53341 0.12022 0.53008
 N1239 N 0.54073 0.13875 0.56054
 C1240 C 0.53698 0.15535 0.57325
 C1241 C 0.52165 0.17097 0.56789
 N1242 N 0.51099 0.16894 0.54993
 H1243 H 0.49819 0.13343 0.49296
 H1244 H 0.54554 0.15598 0.58753
 C1245 C -0.03311 0.14001 0.45653
 C1246 C -0.01797 0.15545 0.46188
 N1247 N -0.00701 0.15375 0.47961
 C1248 C -0.01037 0.13715 0.49225
 C1249 C -0.02538 0.12145 0.48690
 N1250 N -0.03649 0.12337 0.46913
 N1251 N -0.04387 0.14170 0.43865
 C1252 C -0.04016 0.15816 0.42585
 C1253 C -0.02491 0.17371 0.43115
 N1254 N -0.01425 0.17181 0.44914
 H1255 H -0.00135 0.13633 0.50627
 H1256 H -0.04868 0.15869 0.41154
 C1257 C 0.49328 0.64834 0.96868
 C1258 C 0.48264 0.64721 0.94991
 N1259 N 0.47075 0.62997 0.94528
 C1260 C 0.46874 0.61384 0.95867
 C1261 C 0.47900 0.61496 0.97773
 N1262 N 0.49123 0.63222 0.98220
 N1263 N 0.50502 0.66577 0.97324
 C1264 C 0.50658 0.68212 0.95990
 C1265 C 0.49579 0.68109 0.94106
 N1266 N 0.48409 0.66351 0.93668
 H1267 H 0.45916 0.60033 0.95437
 H1268 H 0.51569 0.69592 0.96425
 C1269 C 0.51132 0.86125 0.96657
 C1270 C 0.52385 0.86034 0.94882
 N1271 N 0.53931 0.87512 0.94552
 C1272 C 0.54281 0.89084 0.95919
 C1273 C 0.53020 0.89187 0.97701
 N1274 N 0.51473 0.87695 0.98019
 N1275 N 0.49608 0.84632 0.97002
 C1276 C 0.49269 0.83049 0.95647
 C1277 C 0.50506 0.82954 0.93843
 N1278 N 0.52045 0.84459 0.93524
 H1279 H 0.55521 0.90239 0.95606
 H1280 H 0.48079 0.81863 0.96012
 C1281 C 0.01617 0.35137 0.46960
 C1282 C 0.02895 0.35095 0.45197
 N1283 N 0.04348 0.36659 0.44861
 C1284 C 0.04573 0.38272 0.46206
 C1285 C 0.03276 0.38332 0.47967
 N1286 N 0.01831 0.36751 0.48296
 N1287 N 0.00180 0.33566 0.47307
 C1288 C -0.00061 0.31962 0.45959
 C1289 C 0.01183 0.31929 0.44159
 N1290 N 0.02649 0.33500 0.43841
 H1291 H 0.05738 0.39498 0.45886
 H1292 H -0.01195 0.30719 0.46312
 C1293 C 0.36070 0.53512 0.48357
 C1294 C 0.35912 0.55323 0.47144
 N1295 N 0.37379 0.55638 0.45636
 C1296 C 0.39004 0.54223 0.45289
 C1297 C 0.39175 0.52408 0.46511
 N1298 N 0.37693 0.52104 0.48017
 N1299 N 0.34591 0.53183 0.49847
 C1300 C 0.32964 0.54591 0.50195
 C1301 C 0.32808 0.56434 0.49001
 N1302 N 0.34293 0.56736 0.47492
 H1303 H 0.40148 0.54524 0.44078
 H1304 H 0.31789 0.54238 0.51364
 C1305 C 0.86803 0.04885 -0.02741
 C1306 C 0.85194 0.04365 -0.01323
 N1307 N 0.85312 0.02496 -0.00324
 C1308 C 0.86968 0.01120 -0.00679
 C1309 C 0.88585 0.01628 -0.02109
 N1310 N 0.88454 0.03509 -0.03105
 N1311 N 0.86695 0.06763 -0.03725
 C1312 C 0.85038 0.08139 -0.03371
 C1313 C 0.83390 0.07613 -0.01971
 N1314 N 0.83533 0.05731 -0.00974
 H1315 H 0.87004 -0.00358 0.00139
 H1316 H 0.85036 0.09634 -0.04159
 C1317 C 0.64677 0.03895 0.01244
 C1318 C 0.64848 0.05690 0.02474
 N1319 N 0.63386 0.06013 0.03987
 C1320 C 0.61754 0.04620 0.04325
 C1321 C 0.61567 0.02818 0.03089
 N1322 N 0.63044 0.02506 0.01574
 N1323 N 0.66156 0.03562 -0.00251
 C1324 C 0.67795 0.04950 -0.00583
 C1325 C 0.67968 0.06775 0.00634
 N1326 N 0.66477 0.07079 0.02142
 H1327 H 0.60615 0.04930 0.05540
 H1328 H 0.68963 0.04593 -0.01760
 C1329 C 0.14668 0.53043 0.52023
 C1330 C 0.14674 0.54947 0.53108
 N1331 N 0.13017 0.55397 0.54398
 C1332 C 0.11346 0.54029 0.54649
 C1333 C 0.11322 0.52128 0.53545
 N1334 N 0.12993 0.51686 0.52257
 N1335 N 0.16337 0.52579 0.50755
 C1336 C 0.18005 0.53946 0.50498
 C1337 C 0.17998 0.55891 0.51542
 N1338 N 0.16328 0.56323 0.52839
 H1339 H 0.10043 0.54440 0.55678
 H1340 H 0.19324 0.53495 0.49505
 C1341 C 0.14395 0.46428 -0.01439
 C1342 C 0.14587 0.44702 -0.02759
 N1343 N 0.13136 0.44463 -0.04285
 C1344 C 0.11496 0.45875 -0.04553
 C1345 C 0.11293 0.47611 -0.03230
 N1346 N 0.12758 0.47838 -0.01702
 N1347 N 0.15860 0.46678 0.00072
 C1348 C 0.17507 0.45273 0.00333
 C1349 C 0.17702 0.43519 -0.00977
 N1350 N 0.16226 0.43296 -0.02499
 H1351 H 0.10370 0.45636 -0.05785
 H1352 H 0.18667 0.45560 0.01527
 C1353 C 0.64080 0.96547 0.48967
 C1354 C 0.64295 0.94744 0.47751
 N1355 N 0.62881 0.94415 0.46213
 C1356 C 0.61252 0.95809 0.45832
 C1357 C 0.61017 0.97625 0.47049
 N1358 N 0.62449 0.97945 0.48593
 N1359 N 0.65514 0.96876 0.50493
 C1360 C 0.67151 0.95479 0.50864
 C1361 C 0.67368 0.93651 0.49653
 N1362 N 0.65922 0.93350 0.48120
 H1363 H 0.60159 0.95489 0.44592
 H1364 H 0.68282 0.95827 0.52065
 C1365 C 0.86339 0.95176 0.53114
 C1366 C 0.84752 0.95738 0.51690
 N1367 N 0.84934 0.97582 0.50662
 C1368 C 0.86634 0.98895 0.50990
 C1369 C 0.88229 0.98345 0.52423
 N1370 N 0.88034 0.96489 0.53452
 N1371 N 0.86165 0.93320 0.54125
 C1372 C 0.84466 0.92005 0.53792
 C1373 C 0.82845 0.92573 0.52384
 N1374 N 0.83052 0.94432 0.51362
 H1375 H 0.86719 1.00356 0.50148
 H1376 H 0.84415 0.90522 0.54600
 C1377 C 0.36229 0.45482 0.03162
 C1378 C 0.34661 0.46049 0.01724
 N1379 N 0.34831 0.47909 0.00723
 C1380 C 0.36512 0.49231 0.01086
 C1381 C 0.38099 0.48667 0.02520
 N1382 N 0.37908 0.46802 0.03532
 N1383 N 0.36069 0.43602 0.04135
 C1384 C 0.34408 0.42261 0.03737
 C1385 C 0.32820 0.42826 0.02296
 N1386 N 0.33006 0.44717 0.01329
 H1387 H 0.36595 0.50705 0.00266
 H1388 H 0.34371 0.40757 0.04509
 C1389 C 0.53856 0.48344 0.35183
 C1390 C 0.55657 0.47024 0.34886
 N1391 N 0.56051 0.45439 0.36227
 C1392 C 0.54725 0.45118 0.37855
 C1393 C 0.52923 0.46451 0.38164
 N1394 N 0.52541 0.48031 0.36807
 N1395 N 0.53443 0.49914 0.33839
 C1396 C 0.54760 0.50242 0.32213
 C1397 C 0.56599 0.48946 0.31913
 N1398 N 0.56983 0.47354 0.33265
 H1399 H 0.55086 0.43847 0.38898
 H1400 H 0.54340 0.51481 0.31157
 C1401 C 0.03448 -0.01119 0.85766
 C1402 C 0.05375 -0.02290 0.85604
 N1403 N 0.05904 -0.03691 0.87078
 C1404 C 0.04585 -0.03990 0.88705
 C1405 C 0.02636 -0.02836 0.88873
 N1406 N 0.02123 -0.01415 0.87394
 N1407 N 0.02917 0.00263 0.84272
 C1408 C 0.04225 0.00531 0.82624
 C1409 C 0.06168 -0.00642 0.82453
 N1410 N 0.06678 -0.02026 0.83964
 H1411 H 0.05066 -0.05117 0.89851
 H1412 H 0.03714 0.01610 0.81448
 C1413 C 0.03183 0.01001 0.64447
 C1414 C 0.05183 0.02044 0.64498
 N1415 N 0.05777 0.03291 0.62924
 C1416 C 0.04452 0.03562 0.61301
 C1417 C 0.02432 0.02539 0.61245
 N1418 N 0.01853 0.01267 0.62824
 N1419 N 0.02588 -0.00225 0.66041
 C1420 C 0.03904 -0.00461 0.67683
 C1421 C 0.05920 0.00580 0.67739
 N1422 N 0.06493 0.01810 0.66131
 H1423 H 0.04983 0.04563 0.60070
 H1424 H 0.03349 -0.01413 0.68941
 C1425 C 0.54819 0.53653 0.13790
 C1426 C 0.54115 0.52196 0.15249
 N1427 N 0.52228 0.51155 0.14967
 C1428 C 0.51009 0.51493 0.13285
 C1429 C 0.51706 0.52943 0.11801
 N1430 N 0.53603 0.53997 0.12100
 N1431 N 0.56725 0.54672 0.14075
 C1432 C 0.57957 0.54303 0.15753
 C1433 C 0.57255 0.52838 0.17227
 N1434 N 0.55341 0.51825 0.16917
 H1435 H 0.49511 0.50634 0.13125
 H1436 H 0.59487 0.55111 0.15894
 C1437 C 0.46509 -0.01167 0.14344
 C1438 C 0.44617 -0.02379 0.14431
 N1439 N 0.44202 -0.03793 0.12936
 C1440 C 0.45598 -0.04051 0.11352
 C1441 C 0.47497 -0.02832 0.11252
 N1442 N 0.47899 -0.01415 0.12760
 N1443 N 0.46935 0.00226 0.15853
 C1444 C 0.45547 0.00475 0.17444
 C1445 C 0.43622 -0.00719 0.17533
 N1446 N 0.43225 -0.02127 0.16013
 H1447 H 0.45212 -0.05187 0.10184
 H1448 H 0.45979 0.01565 0.18635
 C1449 C 0.96809 0.47598 0.64833
 C1450 C 0.94837 0.46513 0.64942
 N1451 N 0.94251 0.45226 0.63389
 C1452 C 0.95546 0.44985 0.61726
 C1453 C 0.97508 0.46101 0.61602
 N1454 N 0.98086 0.47377 0.63170
 N1455 N 0.97415 0.48865 0.66387
 C1456 C 0.96121 0.49129 0.68039
 C1457 C 0.94103 0.48097 0.68137
 N1458 N 0.93529 0.46791 0.66583
 H1459 H 0.95029 0.43963 0.60507
 H1460 H 0.96681 0.50124 0.69261
 C1461 C 0.96708 0.51964 0.85576
 C1462 C 0.94795 0.53151 0.85404
 N1463 N 0.94297 0.54601 0.86855
 C1464 C 0.95626 0.54910 0.88476
 C1465 C 0.97534 0.53701 0.88662
 N1466 N 0.98020 0.52260 0.87196
 N1467 N 0.97226 0.50533 0.84124
 C1468 C 0.95904 0.50209 0.82510
 C1469 C 0.93948 0.51356 0.82343
 N1470 N 0.93460 0.52820 0.83798
 H1471 H 0.95181 0.56067 0.89613
 H1472 H 0.96403 0.49085 0.81364
 C1473 C 0.46199 0.01064 0.35286
 C1474 C 0.44296 0.02272 0.35154
 N1475 N 0.43819 0.03690 0.36633
 C1476 C 0.45165 0.03964 0.38240
 C1477 C 0.47085 0.02761 0.38381
 N1478 N 0.47548 0.01331 0.36894
 N1479 N 0.46684 -0.00333 0.33789
 C1480 C 0.45347 -0.00584 0.32166
 C1481 C 0.43419 0.00617 0.32029
 N1482 N 0.42961 0.02021 0.33541
 H1483 H 0.44727 0.05104 0.39392
 H1484 H 0.45822 -0.01678 0.30987
   
