data_POSCAR
  _audit_creation_date              2014-09-24
  _audit_creation_method            'ToBaCCo'
  _symmetry_space_group_name_H-M    'P1'
  _symmetry_Int_Tables_number       1
  _symmetry_cell_setting            triclinic
  loop_
  _symmetry_equiv_pos_as_xyz
 x,y,z
_cell_length_a 40.8001
_cell_length_b 43.0236
_cell_length_c 53.7115
_cell_angle_alpha 89.963600
_cell_angle_beta 90.015100
_cell_angle_gamma 89.992600
loop_
  _atom_site_label
  _atom_site_type_symbol
  _atom_site_fract_x
  _atom_site_fract_y
  _atom_site_fract_z
Zr1 Zr 0.25070 0.24308 0.29029
 O2 O 0.28001 0.26472 0.31781
 O3 O 0.21727 0.21821 0.31226
 O4 O 0.22328 0.27546 0.31124
 O5 O 0.30382 0.18183 0.27913
 O6 O 0.19866 0.30596 0.28186
 O7 O 0.27975 0.21041 0.30993
 O8 O 0.18251 0.19684 0.28370
 O9 O 0.20704 0.24939 0.27037
 O10 O 0.24405 0.20283 0.26912
 O11 O 0.25759 0.28363 0.26895
 O12 O 0.29332 0.23895 0.26826
 Zr13 Zr 0.24917 0.24501 0.20331
 Zr14 Zr 0.21489 0.28826 0.24756
 Zr15 Zr 0.28472 0.19985 0.24582
 Zr16 Zr 0.20164 0.20978 0.24847
 O17 O 0.33641 0.19659 0.24362
 O18 O 0.15212 0.22470 0.24948
 O19 O 0.24195 0.20407 0.22437
 O20 O 0.20685 0.24892 0.22550
 O21 O 0.25579 0.28558 0.22418
 O22 O 0.29241 0.23884 0.22358
 C23 C 0.19209 0.20189 0.30623
 C24 C 0.29894 0.18862 0.30215
 C25 C 0.20455 0.29810 0.30453
 O26 O 0.16315 0.29136 0.24645
 O27 O 0.20042 0.30957 0.21389
 O28 O 0.22340 0.27963 0.18348
 C29 C 0.20601 0.30284 0.19091
 O30 O 0.32342 0.29227 0.27802
 Zr31 Zr 0.29798 0.27836 0.24533
 O32 O 0.28277 0.27013 0.18155
 O33 O 0.22635 0.33615 0.24967
 O34 O 0.29713 0.32763 0.24616
 O35 O 0.34810 0.26574 0.24261
 O36 O 0.31502 0.29420 0.21044
 C37 C 0.30633 0.28838 0.18786
 O38 O 0.21837 0.22505 0.17590
 O39 O 0.27326 0.15189 0.24684
 O40 O 0.27421 0.21117 0.18217
 O41 O 0.29656 0.17917 0.21155
 O42 O 0.20053 0.16052 0.24960
 O43 O 0.17859 0.19197 0.21598
 C44 C 0.29106 0.18725 0.18888
 H45 H 0.24215 0.18378 0.27935
 H46 H 0.18701 0.25133 0.21506
 H47 H 0.31195 0.23588 0.21293
 H48 H 0.26105 0.30194 0.27979
 H49 H 0.13860 0.20660 0.25445
 H50 H 0.15756 0.31373 0.24751
 H51 H 0.20525 0.34756 0.24925
 H52 H 0.31919 0.33502 0.24121
 H53 H 0.17809 0.15423 0.25455
 H54 H 0.29438 0.14052 0.24694
 H55 H 0.34185 0.17417 0.24274
 H56 H 0.36057 0.28476 0.23828
 H57 H 0.15824 0.18091 0.22073
 H58 H 0.22696 0.23158 0.15943
 H59 H 0.27158 0.25787 0.33425
 H60 H 0.34038 0.30778 0.27360
 Zr61 Zr 0.74911 0.74327 0.29687
 O62 O 0.72380 0.71727 0.32429
 O63 O 0.78145 0.76963 0.31878
 O64 O 0.78074 0.71228 0.31546
 O65 O 0.68971 0.80031 0.29095
 O66 O 0.80590 0.68553 0.28413
 O67 O 0.71875 0.77148 0.31906
 O68 O 0.81233 0.79536 0.28997
 O69 O 0.79179 0.74187 0.27532
 O70 O 0.75064 0.78532 0.27741
 O71 O 0.74419 0.70376 0.27413
 O72 O 0.70475 0.74545 0.27665
 Zr73 Zr 0.74517 0.74718 0.21027
 Zr74 Zr 0.78577 0.70395 0.25127
 Zr75 Zr 0.70820 0.78667 0.25584
 Zr76 Zr 0.79212 0.78316 0.25503
 O77 O 0.65635 0.78584 0.25528
 O78 O 0.84283 0.77248 0.25366
 O79 O 0.74985 0.78716 0.23281
 O80 O 0.78904 0.74517 0.23071
 O81 O 0.74330 0.70490 0.22943
 O82 O 0.70275 0.74870 0.23209
 C83 C 0.80464 0.78833 0.31255
 C84 C 0.69697 0.79194 0.31335
 C85 C 0.80091 0.69167 0.30725
 O86 O 0.83745 0.70507 0.24806
 O87 O 0.79945 0.68584 0.21637
 O88 O 0.77205 0.71567 0.18806
 C89 C 0.79168 0.69336 0.19393
 O90 O 0.68000 0.68920 0.28492
 Zr91 Zr 0.70196 0.70742 0.25213
 O92 O 0.71211 0.72165 0.18847
 O93 O 0.77869 0.65523 0.25193
 O94 O 0.70706 0.65842 0.25051
 O95 O 0.65081 0.71621 0.25179
 O96 O 0.68392 0.69295 0.21709
 C97 C 0.69050 0.70128 0.19460
 O98 O 0.77280 0.77078 0.18275
 O99 O 0.71531 0.83523 0.25894
 O100 O 0.71704 0.78086 0.19160
 O101 O 0.69276 0.80876 0.22274
 O102 O 0.78920 0.83220 0.25831
 O103 O 0.81093 0.80475 0.22243
 C104 C 0.69857 0.80295 0.19962
 H105 H 0.75151 0.80373 0.28844
 H106 H 0.80830 0.74498 0.21950
 H107 H 0.68244 0.75093 0.22217
 H108 H 0.74304 0.68458 0.28429
 H109 H 0.85494 0.79138 0.25878
 H110 H 0.84501 0.68318 0.24799
 H111 H 0.80063 0.64559 0.25021
 H112 H 0.68541 0.64970 0.24591
 H113 H 0.81144 0.83990 0.26245
 H114 H 0.69324 0.84470 0.26029
 H115 H 0.64895 0.80777 0.25581
 H116 H 0.63972 0.69661 0.24699
 H117 H 0.83069 0.81697 0.22675
 H118 H 0.76369 0.76479 0.16631
 H119 H 0.73268 0.72351 0.34074
 H120 H 0.66420 0.67270 0.28034
 Zr121 Zr 0.74921 0.25885 -0.29606
 O122 O 0.72462 0.28558 -0.32343
 O123 O 0.78090 0.23184 -0.31805
 O124 O 0.78158 0.28918 -0.31454
 O125 O 0.68818 0.20346 -0.29026
 O126 O 0.80738 0.31528 -0.28317
 O127 O 0.71797 0.23161 -0.31833
 O128 O 0.81128 0.20548 -0.28927
 O129 O 0.79192 0.25927 -0.27450
 O130 O 0.74979 0.21668 -0.27673
 O131 O 0.74519 0.29835 -0.27320
 O132 O 0.70485 0.25753 -0.27582
 Zr133 Zr 0.74525 0.25466 -0.20942
 Zr134 Zr 0.78678 0.29721 -0.25035
 Zr135 Zr 0.70737 0.21616 -0.25515
 Zr136 Zr 0.79133 0.21792 -0.25432
 O137 O 0.65555 0.21795 -0.25430
 O138 O 0.84227 0.22751 -0.25290
 O139 O 0.74900 0.21471 -0.23212
 O140 O 0.78913 0.25586 -0.22988
 O141 O 0.74432 0.29703 -0.22849
 O142 O 0.70279 0.25408 -0.23126
 C143 C 0.80373 0.21270 -0.31185
 C144 C 0.69552 0.21183 -0.31264
 C145 C 0.80224 0.30931 -0.30629
 O146 O 0.83840 0.29498 -0.24704
 O147 O 0.80075 0.31503 -0.21542
 O148 O 0.77267 0.28573 -0.18715
 C149 C 0.79273 0.30771 -0.19300
 O150 O 0.68139 0.31444 -0.28388
 Zr151 Zr 0.70291 0.29547 -0.25118
 O152 O 0.71260 0.28058 -0.18757
 O153 O 0.78083 0.34607 -0.25099
 O154 O 0.70917 0.34434 -0.24930
 O155 O 0.65159 0.28768 -0.25098
 O156 O 0.68510 0.31002 -0.21611
 C157 C 0.69142 0.30137 -0.19364
 O158 O 0.77248 0.23056 -0.18194
 O159 O 0.71333 0.16751 -0.25870
 O160 O 0.71657 0.22123 -0.19089
 O161 O 0.69179 0.19398 -0.22217
 O162 O 0.78724 0.16897 -0.25775
 O163 O 0.80965 0.19578 -0.22178
 C164 C 0.69778 0.19944 -0.19903
 H165 H 0.75018 0.19834 -0.28785
 H166 H 0.80839 0.25563 -0.21866
 H167 H 0.68245 0.25215 -0.22134
 H168 H 0.74448 0.31759 -0.28331
 H169 H 0.85395 0.20837 -0.25805
 H170 H 0.84648 0.31671 -0.24695
 H171 H 0.80299 0.35525 -0.24921
 H172 H 0.68773 0.35348 -0.24466
 H173 H 0.80928 0.16081 -0.26193
 H174 H 0.69104 0.15852 -0.26005
 H175 H 0.64769 0.19618 -0.25496
 H176 H 0.64090 0.30743 -0.24607
 H177 H 0.82908 0.18312 -0.22615
 H178 H 0.76345 0.23663 -0.16550
 H179 H 0.73334 0.27919 -0.33990
 H180 H 0.66597 0.33122 -0.27921
 Zr181 Zr 0.24802 0.75550 -0.29111
 O182 O 0.27640 0.73299 -0.31874
 O183 O 0.21483 0.78092 -0.31295
 O184 O 0.21968 0.72343 -0.31160
 O185 O 0.30273 0.81566 -0.28103
 O186 O 0.19480 0.69370 -0.28185
 O187 O 0.27741 0.78727 -0.31128
 O188 O 0.18118 0.80338 -0.28426
 O189 O 0.20452 0.75034 -0.27081
 O190 O 0.24271 0.79611 -0.27018
 O191 O 0.25430 0.71503 -0.26956
 O192 O 0.29112 0.75890 -0.26952
 Zr193 Zr 0.24781 0.75447 -0.20417
 Zr194 Zr 0.21182 0.71154 -0.24781
 Zr195 Zr 0.28385 0.79843 -0.24731
 Zr196 Zr 0.20047 0.79028 -0.24913
 O197 O 0.33563 0.80054 -0.24564
 O198 O 0.15059 0.77647 -0.24967
 O199 O 0.24132 0.79535 -0.22546
 O200 O 0.20506 0.75127 -0.22596
 O201 O 0.25314 0.71354 -0.22479
 O202 O 0.29089 0.75951 -0.22484
 C203 C 0.19019 0.79803 -0.30691
 C204 C 0.29730 0.80880 -0.30401
 C205 C 0.20065 0.70117 -0.30461
 O206 O 0.16004 0.70961 -0.24631
 O207 O 0.19733 0.69096 -0.21387
 O208 O 0.22152 0.72060 -0.18389
 C209 C 0.20337 0.69767 -0.19091
 O210 O 0.31976 0.70478 -0.27911
 Zr211 Zr 0.29518 0.71964 -0.24632
 O212 O 0.28117 0.72895 -0.18249
 O213 O 0.22207 0.66338 -0.24961
 O214 O 0.29313 0.67040 -0.24677
 O215 O 0.34563 0.73120 -0.24412
 O216 O 0.31240 0.70385 -0.21143
 C217 C 0.30421 0.71014 -0.18883
 O218 O 0.21790 0.77534 -0.17665
 O219 O 0.27359 0.84662 -0.24852
 O220 O 0.27386 0.78804 -0.18350
 O221 O 0.29680 0.81914 -0.21325
 O222 O 0.20049 0.83955 -0.25053
 O223 O 0.17841 0.80889 -0.21654
 C224 C 0.29128 0.81146 -0.19048
 H225 H 0.24110 0.81509 -0.28053
 H226 H 0.18533 0.74940 -0.21533
 H227 H 0.31065 0.76215 -0.21436
 H228 H 0.25719 0.69654 -0.28029
 H229 H 0.13745 0.79483 -0.25463
 H230 H 0.15390 0.68735 -0.24715
 H231 H 0.20071 0.65245 -0.24891
 H232 H 0.31507 0.66258 -0.24193
 H233 H 0.17811 0.84627 -0.25529
 H234 H 0.29500 0.85749 -0.24894
 H235 H 0.34164 0.82284 -0.24501
 H236 H 0.35771 0.71197 -0.23975
 H237 H 0.15820 0.82027 -0.22116
 H238 H 0.22658 0.76879 -0.16020
 H239 H 0.26785 0.73981 -0.33516
 H240 H 0.33643 0.68897 -0.27471
 Zr241 Zr 1.25013 1.24497 0.79693
 O242 O 1.22330 1.22096 0.82467
 O243 O 1.28306 1.27109 0.81838
 O244 O 1.28074 1.21427 0.81679
 O245 O 1.19350 1.30383 0.78875
 O246 O 1.30545 1.18560 0.78640
 O247 O 1.22095 1.27541 0.81802
 O248 O 1.31530 1.29469 0.78923
 O249 O 1.29307 1.24146 0.77589
 O250 O 1.25351 1.28603 0.77627
 O251 O 1.24421 1.20462 0.77534
 O252 O 1.20621 1.24752 0.77620
 Zr253 Zr 1.24786 1.24507 0.71008
 Zr254 Zr 1.28610 1.20274 0.75297
 Zr255 Zr 1.21154 1.28759 0.75426
 Zr256 Zr 1.29522 1.28171 0.75440
 O257 O 1.15969 1.28816 0.75348
 O258 O 1.34555 1.26947 0.75381
 O259 O 1.25350 1.28587 0.73160
 O260 O 1.29120 1.24278 0.73118
 O261 O 1.24420 1.20381 0.73051
 O262 O 1.20518 1.24882 0.73149
 C263 C 1.30702 1.28873 0.81191
 C264 C 1.20034 1.29652 0.81145
 C265 C 1.30063 1.19304 0.80926
 O266 O 1.33784 1.20205 0.75015
 O267 O 1.29991 1.18256 0.71911
 O268 O 1.27486 1.21194 0.68927
 C269 C 1.29351 1.18936 0.69634
 O270 O 1.17936 1.19232 0.78565
 Zr271 Zr 1.20258 1.20853 0.75269
 O272 O 1.21443 1.21936 0.68874
 O273 O 1.27734 1.15432 0.75514
 O274 O 1.20619 1.15937 0.75248
 O275 O 1.15177 1.21889 0.75156
 O276 O 1.18461 1.19303 0.71788
 C277 C 1.19195 1.20004 0.69522
 O278 O 1.27639 1.26668 0.68206
 O279 O 1.22014 1.33607 0.75574
 O280 O 1.22085 1.27875 0.69023
 O281 O 1.19723 1.30852 0.72054
 O282 O 1.29374 1.33093 0.75630
 O283 O 1.31537 1.30132 0.72146
 C284 C 1.20294 1.30163 0.69763
 H285 H 1.25491 1.30492 0.78672
 H286 H 1.31069 1.24151 0.72024
 H287 H 1.18509 1.25119 0.72133
 H288 H 1.24234 1.18597 0.78606
 H289 H 1.35822 1.28820 0.75856
 H290 H 1.34470 1.17997 0.75094
 H291 H 1.29897 1.14392 0.75406
 H292 H 1.18439 1.15104 0.74785
 H293 H 1.31609 1.33818 0.76062
 H294 H 1.19838 1.34623 0.75670
 H295 H 1.15298 1.31030 0.75328
 H296 H 1.14008 1.19947 0.74714
 H297 H 1.33531 1.31331 0.72571
 H298 H 1.26732 1.26004 0.66577
 H299 H 1.23213 1.22758 0.84105
 H300 H 1.16312 1.17610 0.78131
 Zr301 Zr 0.74539 0.74789 0.78937
 O302 O 0.76994 0.77530 0.81629
 O303 O 0.71332 0.72184 0.81162
 O304 O 0.71304 0.77890 0.80696
 O305 O 0.80628 0.69227 0.78539
 O306 O 0.68720 0.80395 0.77501
 O307 O 0.77562 0.72081 0.81263
 O308 O 0.68423 0.69353 0.78331
 O309 O 0.70291 0.74692 0.76752
 O310 O 0.74581 0.70516 0.77093
 O311 O 0.74882 0.78675 0.76575
 O312 O 0.79012 0.74669 0.76969
 Zr313 Zr 0.75098 0.74100 0.70297
 Zr314 Zr 0.70758 0.78415 0.74257
 Zr315 Zr 0.78864 0.70470 0.74981
 Zr316 Zr 0.70466 0.70492 0.74822
 O317 O 0.84041 0.70767 0.75040
 O318 O 0.65358 0.71354 0.74592
 O319 O 0.74748 0.70169 0.72643
 O320 O 0.70667 0.74204 0.72303
 O321 O 0.75047 0.78403 0.72112
 O322 O 0.79294 0.74206 0.72529
 C323 C 0.69101 0.70207 0.80573
 C324 C 0.79793 0.70062 0.80754
 C325 C 0.69263 0.79899 0.79830
 O326 O 0.65597 0.78085 0.73995
 O327 O 0.69258 0.79923 0.70692
 O328 O 0.72219 0.76962 0.67975
 C329 C 0.70082 0.79075 0.68478
 O330 O 0.81211 0.80393 0.77697
 Zr331 Zr 0.79149 0.78398 0.74433
 O332 O 0.78279 0.76774 0.68086
 O333 O 0.71268 0.83305 0.74102
 O334 O 0.78434 0.83268 0.74165
 O335 O 0.84302 0.77742 0.74452
 O336 O 0.80932 0.79813 0.70925
 C337 C 0.80338 0.78913 0.68685
 O338 O 0.72553 0.71468 0.67584
 O339 O 0.78346 0.65596 0.75334
 O340 O 0.78180 0.70841 0.68538
 O341 O 0.80648 0.68264 0.71751
 O342 O 0.70952 0.65619 0.75294
 O343 O 0.68742 0.68128 0.71604
 C344 C 0.80139 0.68764 0.69418
 H345 H 0.74531 0.68710 0.78235
 H346 H 0.68756 0.74086 0.71171
 H347 H 0.81356 0.74048 0.71568
 H348 H 0.74915 0.80635 0.77539
 H349 H 0.64218 0.69443 0.75150
 H350 H 0.64749 0.80241 0.73904
 H351 H 0.69032 0.84173 0.73911
 H352 H 0.80569 0.84211 0.73715
 H353 H 0.68756 0.64787 0.75713
 H354 H 0.80584 0.64736 0.75533
 H355 H 0.84878 0.68609 0.75148
 H356 H 0.85323 0.79738 0.73952
 H357 H 0.66818 0.66841 0.72051
 H358 H 0.73458 0.72049 0.65933
 H359 H 0.76099 0.76953 0.83284
 H360 H 0.82715 0.82100 0.77224
 Zr361 Zr 1.25142 0.75709 0.20451
 O362 O 1.22516 0.78172 0.17679
 O363 O 1.28430 0.73093 0.18306
 O364 O 1.28258 0.78773 0.18515
 O365 O 1.19413 0.69865 0.21183
 O366 O 1.30734 0.81580 0.21589
 O367 O 1.22213 0.72717 0.18295
 O368 O 1.31604 0.70671 0.21221
 O369 O 1.29416 0.76000 0.22587
 O370 O 1.25423 0.71574 0.22484
 O371 O 1.24566 0.79721 0.22640
 O372 O 1.20726 0.75463 0.22492
 Zr373 Zr 1.24819 0.75585 0.29132
 Zr374 Zr 1.28733 0.79850 0.24909
 Zr375 Zr 1.21201 0.71423 0.24655
 Zr376 Zr 1.29575 0.71946 0.24702
 O377 O 1.16015 0.71407 0.24704
 O378 O 1.34617 0.73133 0.24800
 O379 O 1.25374 0.71531 0.26949
 O380 O 1.29182 0.75811 0.27056
 O381 O 1.24514 0.79742 0.27122
 O382 O 1.20572 0.75275 0.26960
 C383 C 1.30802 0.71299 0.18953
 C384 C 1.20123 0.70618 0.18923
 C385 C 1.30267 0.80865 0.19294
 O386 O 1.33902 0.79873 0.25239
 O387 O 1.30070 0.81818 0.28330
 O388 O 1.27494 0.78861 0.31265
 C389 C 1.29380 0.81120 0.30596
 O390 O 1.18104 0.81020 0.21575
 Zr391 Zr 1.20372 0.79335 0.24873
 O392 O 1.21469 0.78145 0.31266
 O393 O 1.27905 0.84700 0.24714
 O394 O 1.20779 0.84247 0.24941
 O395 O 1.15281 0.78342 0.24942
 O396 O 1.18550 0.80851 0.28356
 C397 C 1.19248 0.80108 0.30620
 O398 O 1.27636 0.73371 0.31929
 O399 O 1.22019 0.66572 0.24465
 O400 O 1.22076 0.72208 0.31070
 O401 O 1.19722 0.69291 0.27997
 O402 O 1.29391 0.67028 0.24474
 O403 O 1.31540 0.69928 0.27993
 C404 C 1.20278 0.69942 0.30298
 H405 H 1.25556 0.69698 0.21424
 H406 H 1.31117 0.75910 0.28166
 H407 H 1.18551 0.75039 0.27961
 H408 H 1.24407 0.81601 0.21583
 H409 H 1.35873 0.71257 0.24316
 H410 H 1.34606 0.82077 0.25185
 H411 H 1.30075 0.85719 0.24854
 H412 H 1.18600 0.85092 0.25396
 H413 H 1.31625 0.66291 0.24052
 H414 H 1.19835 0.65574 0.24348
 H415 H 1.15324 0.69199 0.24700
 H416 H 1.14125 0.80288 0.25392
 H417 H 1.33534 0.68726 0.27571
 H418 H 1.26715 0.74013 0.33560
 H419 H 1.23410 0.77524 0.16042
 H420 H 1.16491 0.82651 0.22012
 Zr421 Zr 0.74681 1.25125 0.20879
 O422 O 0.77200 1.22492 0.18152
 O423 O 0.71431 1.27730 0.18683
 O424 O 0.71518 1.22003 0.19065
 O425 O 0.80649 1.30791 0.21382
 O426 O 0.68974 1.19387 0.22221
 O427 O 0.77666 1.27938 0.18605
 O428 O 0.68449 1.30435 0.21549
 O429 O 0.70424 1.25088 0.23053
 O430 O 0.74619 1.29354 0.22787
 O431 O 0.75106 1.21194 0.23187
 O432 O 0.79141 1.25285 0.22866
 Zr433 Zr 0.75182 1.25627 0.29534
 Zr434 Zr 0.70968 1.21319 0.25495
 Zr435 Zr 0.78890 1.29434 0.24913
 Zr436 Zr 0.70495 1.29243 0.25046
 O437 O 0.84072 1.29241 0.24871
 O438 O 0.65407 1.28271 0.25239
 O439 O 0.74757 1.29602 0.27243
 O440 O 0.70766 1.25479 0.27512
 O441 O 0.75242 1.21367 0.27656
 O442 O 0.79391 1.25656 0.27316
 C443 C 0.69159 1.29654 0.19296
 C444 C 0.79851 1.29986 0.19152
 C445 C 0.69512 1.19943 0.19900
 O446 O 0.65800 1.21539 0.25762
 O447 O 0.69508 1.19673 0.29026
 O448 O 0.72369 1.22636 0.31803
 C449 C 0.70301 1.20478 0.31257
 O450 O 0.81481 1.19618 0.22072
 Zr451 Zr 0.79355 1.21505 0.25352
 O452 O 0.78414 1.22976 0.31717
 O453 O 0.71584 1.16437 0.25560
 O454 O 0.78743 1.16616 0.25548
 O455 O 0.84490 1.22270 0.25360
 O456 O 0.81151 1.20046 0.28851
 C457 C 0.80522 1.20890 0.31100
 O458 O 0.72558 1.28139 0.32276
 O459 O 0.78265 1.34303 0.24626
 O460 O 0.78181 1.28910 0.31351
 O461 O 0.80603 1.31603 0.28179
 O462 O 0.70876 1.34136 0.24656
 O463 O 0.68696 1.31492 0.28293
 C464 C 0.80098 1.31042 0.30503
 H465 H 0.74538 1.31185 0.21673
 H466 H 0.68847 1.25527 0.28640
 H467 H 0.81445 1.25833 0.28286
 H468 H 0.75186 1.19258 0.22194
 H469 H 0.64225 1.30172 0.24707
 H470 H 0.65000 1.19365 0.25814
 H471 H 0.69368 1.15519 0.25734
 H472 H 0.80895 1.15705 0.25997
 H473 H 0.68664 1.34936 0.24243
 H474 H 0.80485 1.35212 0.24449
 H475 H 0.84862 1.31417 0.24799
 H476 H 0.85555 1.20288 0.25842
 H477 H 0.66744 1.32748 0.27859
 H478 H 0.73468 1.27538 0.33920
 H479 H 0.76300 1.23092 0.16504
 H480 H 0.83024 1.17935 0.22529
 O481 O 0.47102 1.05848 0.01666
 O482 O 0.54829 0.93935 0.01473
 O483 O 0.44806 0.96329 0.01734
 O484 O 0.57150 1.03425 0.01759
 O485 O 0.49349 0.94502 0.03014
 O486 O 0.52590 1.05156 0.03101
 O487 O 0.56586 0.98169 0.02952
 O488 O 0.45395 1.01538 0.03063
 C489 C 0.45579 1.04377 0.03294
 C490 C 0.56230 0.95346 0.03192
 C491 C 0.46389 0.94896 0.03355
 C492 C 0.55555 1.04781 0.03424
 O493 O 0.54757 1.05892 -0.01635
 O494 O 0.47091 0.93939 -0.01729
 O495 O 0.44743 1.03446 -0.01768
 O496 O 0.57121 0.96408 -0.01964
 O497 O 0.52538 0.94650 -0.03235
 O498 O 0.49249 1.05296 -0.03101
 O499 O 0.56502 1.01672 -0.03153
 O500 O 0.45336 0.98242 -0.03105
 Co501 Co 0.50929 1.04984 -0.00000
 Co502 Co 0.50953 0.94817 -0.00111
 Co503 Co 0.45638 0.99890 -0.00022
 Co504 Co 0.56282 0.99916 -0.00098
 O505 O 0.50951 0.99901 -0.00058
 C506 C 0.56142 1.04498 -0.03371
 C507 C 0.45546 0.95407 -0.03348
 C508 C 0.46280 1.04912 -0.03394
 C509 C 0.55489 0.95046 -0.03606
 O510 O 0.99288 0.55261 0.53040
 O511 O 1.02617 0.44598 0.53086
 O512 O 0.95400 0.48286 0.53049
 O513 O 1.06599 0.51658 0.52998
 O514 O 0.97118 0.43991 0.51642
 O515 O 1.04779 0.55884 0.51522
 O516 O 1.07161 0.46387 0.51757
 O517 O 0.94765 0.53484 0.51700
 C518 C 0.96322 0.54862 0.53363
 C519 C 1.05587 0.44978 0.53401
 C520 C 0.95706 0.45461 0.53322
 C521 C 1.06244 0.54488 0.53217
 O522 O 1.02598 0.55220 0.46800
 O523 O 0.99255 0.44563 0.46860
 O524 O 0.95378 0.51555 0.46862
 O525 O 1.06579 0.48155 0.46877
 O526 O 1.04759 0.43927 0.48352
 O527 O 0.97113 0.55844 0.48268
 O528 O 1.07152 0.53427 0.48110
 O529 O 0.94746 0.46354 0.48218
 Co530 Co 1.00941 0.54994 0.49915
 Co531 Co 1.00935 0.44829 0.49977
 Co532 Co 0.95640 0.49919 0.49956
 Co533 Co 1.06301 0.49908 0.49937
 O534 O 1.00957 0.49912 0.49945
 C535 C 1.05568 0.54844 0.46476
 C536 C 0.96287 0.44966 0.46552
 C537 C 0.95672 0.54382 0.46597
 C538 C 1.06245 0.45322 0.46666
 O539 O 1.04097 0.48734 0.04302
 O540 O 1.04060 0.51649 -0.04284
 O541 O 1.03937 0.44870 -0.01463
 O542 O 1.03917 0.55508 0.01496
 O543 O 1.01828 0.46467 -0.04801
 O544 O 1.01831 0.53899 0.04838
 O545 O 1.02504 0.55992 -0.02738
 O546 O 1.02549 0.44383 0.02769
 C547 C 1.04571 0.45910 0.04032
 C548 C 1.04518 0.54476 -0.04016
 C549 C 1.04090 0.45073 -0.03745
 C550 C 1.04078 0.55309 0.03778
 O551 O 0.95781 0.51629 0.04301
 O552 O 0.95763 0.48696 -0.04258
 O553 O 0.95952 0.44855 0.01517
 O554 O 0.95917 0.55496 -0.01468
 O555 O 0.97994 0.53877 -0.04808
 O556 O 0.98045 0.46466 0.04854
 O557 O 0.97323 0.55981 0.02758
 O558 O 0.97344 0.44359 -0.02710
 Co559 Co 0.99938 0.50182 0.04100
 Co560 Co 0.99913 0.50172 -0.04065
 Co561 Co 0.99944 0.45144 0.00028
 Co562 Co 0.99918 0.55217 0.00013
 O563 O 0.99930 0.50179 0.00018
 C564 C 0.95295 0.54448 0.04012
 C565 C 0.95302 0.45873 -0.03966
 C566 C 0.95801 0.45046 0.03800
 C567 C 0.95749 0.55289 -0.03749
 O568 O 0.54923 0.96991 0.53366
 O569 O 0.55102 1.02440 0.46733
 O570 O 0.51408 0.93355 0.47715
 O571 O 0.51947 1.06427 0.51999
 O572 O 0.54933 0.96911 0.47166
 O573 O 0.54674 1.02825 0.54009
 O574 O 0.51734 1.06145 0.47367
 O575 O 0.51591 0.93340 0.52235
 C576 C 0.54327 0.94175 0.53110
 C577 C 0.54498 1.05251 0.46662
 C578 C 0.54236 0.94125 0.47074
 C579 C 0.54234 1.05608 0.53444
 O580 O 0.48434 1.02381 0.55229
 O581 O 0.48877 0.96826 0.44948
 O582 O 0.45397 0.95847 0.52285
 O583 O 0.45594 1.04002 0.47615
 O584 O 0.48947 1.02441 0.44760
 O585 O 0.48855 0.96628 0.55162
 O586 O 0.45765 1.04891 0.52291
 O587 O 0.45419 0.96154 0.47865
 Co588 Co 0.51589 0.99694 0.54004
 Co589 Co 0.51814 0.99656 0.46248
 Co590 Co 0.48617 0.95106 0.50025
 Co591 Co 0.48890 1.04818 0.49813
 O592 O 0.50226 0.99856 0.50043
 C593 C 0.46121 1.04138 0.54523
 C594 C 0.46031 0.96136 0.45616
 C595 C 0.46048 0.95816 0.54524
 C596 C 0.46214 1.03574 0.45378
 O597 O 1.05343 1.03736 0.48481
 O598 O 0.94141 1.03817 0.51575
 O599 O 0.98284 1.03959 0.45779
 O600 O 1.01085 1.04002 0.54356
 O601 O 0.93666 1.02622 0.47367
 O602 O 1.05711 1.02645 0.52752
 O603 O 0.95650 1.01716 0.54894
 O604 O 1.03673 1.01595 0.45220
 C605 C 1.05091 1.03815 0.46199
 C606 C 0.94303 1.03939 0.53857
 C607 C 0.95345 1.04525 0.46135
 C608 C 1.04045 1.04526 0.54025
 O609 O 1.05299 0.96265 0.51700
 O610 O 0.94125 0.96261 0.48539
 O611 O 1.01103 0.96021 0.45801
 O612 O 0.98212 0.96082 0.54352
 O613 O 0.93621 0.97458 0.52739
 O614 O 1.05722 0.97350 0.47433
 O615 O 1.03612 0.98408 0.54955
 O616 O 0.95689 0.98344 0.45230
 Co617 Co 1.04987 1.00001 0.50090
 Co618 Co 0.94411 1.00038 0.50056
 Co619 Co 0.99679 0.99987 0.45980
 Co620 Co 0.99637 1.00046 0.54166
 O621 O 0.99679 1.00019 0.50073
 C622 C 1.05035 0.96188 0.53980
 C623 C 0.94321 0.96130 0.46259
 C624 C 1.04057 0.95480 0.46148
 C625 C 0.95278 0.95528 0.53961
 O626 O 0.55287 0.53851 -0.01543
 O627 O 0.44111 0.53849 0.01587
 O628 O 0.48222 0.54051 -0.04233
 O629 O 0.51092 0.54054 0.04330
 O630 O 0.43619 0.52688 -0.02625
 O631 O 0.55711 0.52727 0.02707
 O632 O 0.45681 0.51726 0.04879
 O633 O 0.53626 0.51725 -0.04811
 C634 C 0.55027 0.53947 -0.03822
 C635 C 0.44339 0.53965 0.03866
 C636 C 0.45279 0.54597 -0.03869
 C637 C 0.54040 0.54603 0.03978
 O638 O 0.55307 0.46352 0.01616
 O639 O 0.44114 0.46316 -0.01484
 O640 O 0.51091 0.46129 -0.04247
 O641 O 0.48266 0.46120 0.04316
 O642 O 0.43647 0.47472 0.02726
 O643 O 0.55710 0.47478 -0.02632
 O644 O 0.53662 0.48467 0.04891
 O645 O 0.45664 0.48434 -0.04782
 Co646 Co 0.54974 0.50101 0.00038
 Co647 Co 0.44396 0.50083 0.00051
 Co648 Co 0.49649 0.50087 -0.04050
 Co649 Co 0.49671 0.50090 0.04136
 O650 O 0.49673 0.50091 0.00043
 C651 C 0.55065 0.46251 0.03895
 C652 C 0.44331 0.46196 -0.03762
 C653 C 0.54044 0.45593 -0.03898
 C654 C 0.45327 0.45557 0.03949
 N655 N 0.34135 1.12719 0.15895
 C656 C 0.34045 1.13595 0.13475
 N657 N 0.32222 1.16099 0.12807
 N658 N 0.30560 1.17696 0.14519
 C659 C 0.30670 1.16836 0.16952
 N660 N 0.32478 1.14313 0.17604
 C661 C 0.36002 1.11983 0.11679
 C662 C 0.37718 1.10628 0.10214
 C663 C 0.39797 1.09023 0.08494
 N664 N 0.39833 1.05874 0.08424
 N665 N 0.41736 1.04384 0.06801
 C666 C 0.43675 1.05998 0.05203
 N667 N 0.43650 1.09152 0.05290
 N668 N 0.41747 1.10640 0.06914
 N669 N 0.86066 0.63183 0.66818
 C670 C 0.85750 0.63693 0.64339
 N671 N 0.83538 0.65817 0.63527
 N672 N 0.81712 0.67399 0.65145
 C673 C 0.82029 0.66905 0.67631
 N674 N 0.84239 0.64766 0.68437
 C675 C 0.87742 0.62030 0.62588
 C676 C 0.89369 0.60663 0.61069
 C677 C 0.91209 0.59061 0.59189
 N678 N 0.89637 0.57226 0.57525
 N679 N 0.91293 0.55852 0.55697
 C680 C 0.94577 0.56265 0.55467
 N681 N 0.96156 0.58090 0.57146
 N682 N 0.94496 0.59469 0.58978
 N683 N 0.67218 0.83397 0.13904
 C684 C 0.65146 0.85705 0.14585
 N685 N 0.64646 0.86269 0.17040
 N686 N 0.66169 0.84565 0.18762
 C687 C 0.68242 0.82244 0.18083
 N688 N 0.68739 0.81694 0.15623
 C689 C 0.63477 0.87487 0.12720
 C690 C 0.62102 0.88928 0.11104
 C691 C 0.60507 0.90587 0.09132
 N692 N 0.60777 0.93721 0.08961
 N693 N 0.59387 0.95244 0.07076
 C694 C 0.57688 0.93682 0.05298
 N695 N 0.57411 0.90546 0.05480
 N696 N 0.58801 0.89024 0.07365
 N697 N 1.17500 0.33136 0.63694
 C698 C 1.15530 0.35522 0.64387
 N699 N 1.15174 0.36178 0.66839
 N700 N 1.16730 0.34490 0.68548
 C701 C 1.18697 0.32090 0.67864
 N702 N 1.19058 0.31445 0.65404
 C703 C 1.13786 0.37289 0.62554
 C704 C 1.12306 0.38751 0.61007
 C705 C 1.10559 0.40456 0.59139
 N706 N 1.12206 0.42271 0.57499
 N707 N 1.10603 0.43759 0.55698
 C708 C 1.07301 0.43483 0.55477
 N709 N 1.05652 0.41679 0.57131
 N710 N 1.07257 0.40190 0.58934
 N711 N 0.67148 1.16720 -0.13881
 C712 C 0.65079 1.14423 -0.14595
 N713 N 0.64571 1.13917 -0.17056
 N714 N 0.66084 1.15664 -0.18754
 C715 C 0.68155 1.17972 -0.18044
 N716 N 0.68660 1.18465 -0.15576
 C717 C 0.63421 1.12587 -0.12757
 C718 C 0.62046 1.11097 -0.11171
 C719 C 0.60439 1.09385 -0.09233
 N720 N 0.60718 1.06248 -0.09105
 N721 N 0.59316 1.04679 -0.07249
 C722 C 0.57595 1.06199 -0.05460
 N723 N 0.57310 1.09338 -0.05600
 N724 N 0.58711 1.10905 -0.07455
 N725 N 1.17446 0.66863 0.36321
 C726 C 1.15475 0.64494 0.35592
 N727 N 1.15126 0.63888 0.33132
 N728 N 1.16691 0.65608 0.31448
 C729 C 1.18660 0.67989 0.32168
 N730 N 1.19013 0.68585 0.34636
 C731 C 1.13730 0.62688 0.37399
 C732 C 1.12253 0.61192 0.38925
 C733 C 1.10512 0.59448 0.40772
 N734 N 1.12166 0.57611 0.42390
 N735 N 1.10571 0.56092 0.44179
 C736 C 1.07269 0.56360 0.44406
 N737 N 1.05613 0.58185 0.42771
 N738 N 1.07210 0.59705 0.40982
 N739 N 0.34327 0.87051 -0.16087
 C740 C 0.34165 0.86229 -0.13656
 N741 N 0.32250 0.83795 -0.12976
 N742 N 0.30567 0.82212 -0.14685
 C743 C 0.30746 0.83018 -0.17126
 N744 N 0.32649 0.85471 -0.17793
 C745 C 0.36117 0.87834 -0.11852
 C746 C 0.37815 0.89180 -0.10370
 C747 C 0.39863 0.90777 -0.08622
 N748 N 0.41804 0.89155 -0.07038
 N749 N 0.43671 0.90637 -0.05386
 C750 C 0.43665 0.93789 -0.05272
 N751 N 0.41733 0.95408 -0.06873
 N752 N 0.39866 0.93925 -0.08524
 N753 N 0.83476 0.33917 0.36426
 C754 C 0.85636 0.36099 0.35635
 N755 N 0.85917 0.36674 0.33163
 N756 N 0.84108 0.35097 0.31530
 C757 C 0.81951 0.32898 0.32314
 N758 N 0.81667 0.32339 0.34793
 C759 C 0.87620 0.37754 0.37396
 C760 C 0.89251 0.39120 0.38913
 C761 C 0.91108 0.40725 0.40779
 N762 N 0.94398 0.40320 0.40971
 N763 N 0.96079 0.41713 0.42785
 C764 C 0.94519 0.43550 0.44465
 N765 N 0.91231 0.43960 0.44255
 N766 N 0.89555 0.42573 0.42444
 N767 N 1.15836 0.36577 0.16140
 C768 C 1.16266 0.35980 0.13682
 N769 N 1.18146 0.33522 0.12999
 N770 N 1.19552 0.31722 0.14718
 C771 C 1.19118 0.32310 0.17182
 N772 N 1.17240 0.34778 0.17858
 C773 C 1.14610 0.37837 0.11837
 C774 C 1.13119 0.39356 0.10318
 C775 C 1.11199 0.41095 0.08547
 N776 N 1.10926 0.44231 0.08730
 N777 N 1.08914 0.45797 0.07222
 C778 C 1.07107 0.44278 0.05479
 N779 N 1.07417 0.41143 0.05286
 N780 N 1.09427 0.39581 0.06790
 N781 N 0.64536 0.84158 0.64901
 C782 C 0.65237 0.83359 0.62519
 N783 N 0.67560 0.81167 0.62087
 N784 N 0.69119 0.79810 0.63983
 C785 C 0.68416 0.80605 0.66374
 N786 N 0.66093 0.82804 0.66795
 C787 C 0.63564 0.84874 0.60494
 C788 C 0.62114 0.86267 0.58880
 C789 C 0.60343 0.88105 0.57088
 N790 N 0.57491 0.87066 0.56085
 N791 N 0.55646 0.88941 0.54684
 C792 C 0.56592 0.91920 0.54243
 N793 N 0.59474 0.92928 0.55217
 N794 N 0.61317 0.91055 0.56610
 N795 N 1.15608 0.63772 -0.16223
 C796 C 1.16107 0.64370 -0.13774
 N797 N 1.18061 0.66789 -0.13123
 N798 N 1.19470 0.68550 -0.14865
 C799 C 1.18969 0.67967 -0.17327
 N800 N 1.17014 0.65531 -0.17965
 C801 C 1.14460 0.62545 -0.11902
 C802 C 1.12979 0.61042 -0.10366
 C803 C 1.11077 0.59307 -0.08580
 N804 N 1.10830 0.56167 -0.08744
 N805 N 1.08840 0.54600 -0.07223
 C806 C 1.07029 0.56120 -0.05483
 N807 N 1.07312 0.59259 -0.05309
 N808 N 1.09301 0.60823 -0.06827
 N809 N 0.64931 1.15088 0.34693
 C810 C 0.65575 1.15834 0.37095
 N811 N 0.67803 1.18094 0.37588
 N812 N 0.69328 1.19565 0.35733
 C813 C 0.68681 1.18824 0.33322
 N814 N 0.66454 1.16557 0.32840
 C815 C 0.63894 1.14238 0.39076
 C816 C 0.62415 1.12819 0.40660
 C817 C 0.60579 1.11019 0.42440
 N818 N 0.61486 1.08059 0.42965
 N819 N 0.59612 1.06266 0.44404
 C820 C 0.56765 1.07369 0.45372
 N821 N 0.55882 1.10350 0.44870
 N822 N 0.57757 1.12143 0.43428
 N823 N 0.84103 0.63448 0.16120
 C824 C 0.83481 0.64103 0.13697
 N825 N 0.81422 0.66481 0.13135
 N826 N 0.80026 0.68146 0.14943
 C827 C 0.80654 0.67496 0.17374
 N828 N 0.82712 0.65111 0.17925
 C829 C 0.85109 0.62370 0.11768
 C830 C 0.86600 0.60913 0.10215
 C831 C 0.88537 0.59206 0.08441
 N832 N 0.90355 0.60744 0.06725
 N833 N 0.92410 0.59202 0.05245
 C834 C 0.92723 0.56066 0.05427
 N835 N 0.90870 0.54524 0.07129
 N836 N 0.88814 0.56069 0.08611
 N837 N 0.34415 1.12776 0.66881
 C838 C 0.34180 1.13378 0.64415
 N839 N 0.32293 1.15793 0.63636
 N840 N 0.30696 1.17558 0.65281
 C841 C 0.30948 1.16963 0.67759
 N842 N 0.32828 1.14536 0.68520
 C843 C 0.36044 1.11558 0.62682
 C844 C 0.37696 1.10048 0.61268
 C845 C 0.39721 1.08333 0.59570
 N846 N 0.42196 1.06500 0.60414
 N847 N 0.44201 1.05076 0.58817
 C848 C 0.43793 1.05446 0.56324
 N849 N 0.41296 1.07263 0.55495
 N850 N 0.39296 1.08679 0.57087
 N851 N 0.84255 0.36638 -0.16042
 C852 C 0.83590 0.36033 -0.13617
 N853 N 0.81496 0.33686 -0.13048
 N854 N 0.80104 0.32005 -0.14850
 C855 C 0.80773 0.32608 -0.17283
 N856 N 0.82869 0.34961 -0.17840
 C857 C 0.85201 0.37795 -0.11694
 C858 C 0.86676 0.39281 -0.10148
 C859 C 0.88595 0.41023 -0.08382
 N860 N 0.90417 0.39517 -0.06649
 N861 N 0.92454 0.41090 -0.05175
 C862 C 0.92744 0.44225 -0.05378
 N863 N 0.90887 0.45736 -0.07096
 N864 N 0.88849 0.44161 -0.08573
 N865 N 0.32093 0.84240 0.36670
 C866 C 0.33997 0.86665 0.35941
 N867 N 0.34332 0.87272 0.33481
 N868 N 0.32821 0.85513 0.31800
 C869 C 0.30921 0.83077 0.32512
 N870 N 0.30572 0.82475 0.34982
 C871 C 0.35793 0.88491 0.37716
 C872 C 0.37427 0.90035 0.39121
 C873 C 0.39499 0.91830 0.40736
 N874 N 0.42405 0.92945 0.39893
 N875 N 0.44443 0.94427 0.41426
 C876 C 0.43638 0.94851 0.43854
 N877 N 0.40708 0.93764 0.44686
 N878 N 0.38671 0.92282 0.43152
 N879 N 1.13149 1.15443 0.34007
 C880 C 1.14146 1.15775 0.36402
 N881 N 1.16765 1.17611 0.36903
 N882 N 1.18340 1.19061 0.35064
 C883 C 1.17357 1.18721 0.32660
 N884 N 1.14724 1.16892 0.32168
 C885 C 1.12560 1.14044 0.38350
 C886 C 1.11207 1.12456 0.39893
 C887 C 1.09548 1.10384 0.41573
 N888 N 1.10031 1.10517 0.44075
 N889 N 1.08579 1.08464 0.45583
 C890 C 1.06609 1.06212 0.44629
 N891 N 1.06127 1.06107 0.42130
 N892 N 1.07568 1.08152 0.40631
 N893 N 0.66399 0.68020 -0.13116
 C894 C 0.64059 0.65869 -0.13611
 N895 N 0.63333 0.65193 -0.16014
 N896 N 0.64902 0.66612 -0.17869
 C897 C 0.67257 0.68756 -0.17383
 N898 N 0.67968 0.69442 -0.14972
 C899 C 0.62479 0.64190 -0.11636
 C900 C 0.61121 0.62626 -0.10085
 C901 C 0.59449 0.60563 -0.08411
 N902 N 0.57446 0.58356 -0.09361
 N903 N 0.56010 0.56297 -0.07873
 C904 C 0.56522 0.56365 -0.05377
 N905 N 0.58513 0.58594 -0.04414
 N906 N 0.59961 0.60659 -0.05912
 N907 N 0.86151 1.16102 0.65572
 C908 C 0.85327 1.16538 0.63152
 N909 N 0.82920 1.18595 0.62581
 N910 N 0.81380 1.20155 0.64380
 C911 C 0.82191 1.19706 0.66809
 N912 N 0.84613 1.17657 0.67368
 C913 C 0.86871 1.14692 0.61255
 C914 C 0.88206 1.12992 0.59784
 C915 C 0.89847 1.10788 0.58208
 N916 N 0.89525 1.10867 0.55691
 N917 N 0.90972 1.08713 0.54277
 C918 C 0.92777 1.06411 0.55341
 N919 N 0.93097 1.06356 0.57856
 N920 N 0.91659 1.08502 0.59262
 N921 N 0.36698 0.66256 0.15709
 C922 C 0.35823 0.66651 0.13293
 N923 N 0.33354 0.68640 0.12730
 N924 N 0.31801 0.70177 0.14532
 C925 C 0.32657 0.69769 0.16957
 N926 N 0.35144 0.67789 0.17510
 C927 C 0.37345 0.64805 0.11394
 C928 C 0.38631 0.63102 0.09905
 C929 C 0.40189 0.60888 0.08298
 N930 N 0.39765 0.60968 0.05790
 N931 N 0.41114 0.58788 0.04348
 C932 C 0.42914 0.56459 0.05376
 N933 N 0.43337 0.56404 0.07881
 N934 N 0.41998 0.58577 0.09315
 N935 N 1.16651 0.82254 0.63217
 C936 C 1.14104 0.84168 0.63743
 N937 N 1.13179 0.84550 0.66148
 N938 N 1.14759 0.83079 0.67974
 C939 C 1.17334 0.81176 0.67464
 N940 N 1.18232 0.80781 0.65043
 C941 C 1.12513 0.85920 0.61806
 C942 C 1.11157 0.87522 0.60273
 C943 C 1.09497 0.89606 0.58599
 N944 N 1.09966 0.89473 0.56096
 N945 N 1.08513 0.91531 0.54593
 C946 C 1.06555 0.93789 0.55551
 N947 N 1.06087 0.93896 0.58052
 N948 N 1.07530 0.91845 0.59547
 N949 N 0.63338 0.34700 0.15962
 C950 C 0.64103 0.34128 0.13549
 N951 N 0.66483 0.32030 0.13019
 N952 N 0.68055 0.30559 0.14851
 C953 C 0.67305 0.31142 0.17272
 N954 N 0.64909 0.33233 0.17792
 C955 C 0.62525 0.35867 0.11604
 C956 C 0.61171 0.37477 0.10079
 C957 C 0.59510 0.39583 0.08431
 N958 N 0.59965 0.39485 0.05926
 N959 N 0.58516 0.41573 0.04449
 C960 C 0.56578 0.43827 0.05437
 N961 N 0.56124 0.43899 0.07938
 N962 N 0.57562 0.41817 0.09408
 N963 N 0.83016 0.81490 0.37491
 C964 C 0.85452 0.83516 0.36925
 N965 N 0.86300 0.83934 0.34508
 N966 N 0.84754 0.82390 0.32708
 C967 C 0.82302 0.80373 0.33262
 N968 N 0.81470 0.79941 0.35689
 C969 C 0.86991 0.85360 0.38823
 C970 C 0.88315 0.87060 0.40300
 C971 C 0.89936 0.89265 0.41885
 N972 N 0.91767 0.91544 0.40842
 N973 N 0.93182 0.93696 0.42257
 C974 C 0.92817 0.93654 0.44767
 N975 N 0.90993 0.91359 0.45820
 N976 N 0.89569 0.89199 0.44399
 N977 N 0.36638 0.33878 -0.15568
 C978 C 0.35743 0.33514 -0.13155
 N979 N 0.33243 0.31561 -0.12591
 N980 N 0.31681 0.30027 -0.14391
 C981 C 0.32560 0.30403 -0.16814
 N982 N 0.35076 0.32348 -0.17368
 C983 C 0.37277 0.35359 -0.11260
 C984 C 0.38575 0.37060 -0.09775
 C985 C 0.40147 0.39272 -0.08175
 N986 N 0.39738 0.39197 -0.05666
 N987 N 0.41099 0.41376 -0.04230
 C988 C 0.42897 0.43700 -0.05265
 N989 N 0.43306 0.43751 -0.07772
 N990 N 0.41954 0.41579 -0.09200
 N991 N 1.14847 0.35366 -0.15627
 C992 C 1.15527 0.34766 -0.13203
 N993 N 1.17660 0.32457 -0.12630
 N994 N 1.19081 0.30810 -0.14434
 C995 C 1.18407 0.31410 -0.16866
 N996 N 1.16265 0.33721 -0.17428
 C997 C 1.13953 0.36541 -0.11285
 C998 C 1.12501 0.38097 -0.09782
 C999 C 1.10580 0.40022 -0.08165
 N1000 N 1.10582 0.39605 -0.05658
 N1001 N 1.08592 0.41281 -0.04211
 C1002 C 1.06539 0.43418 -0.05234
 N1003 N 1.06575 0.43839 -0.07737
 N1004 N 1.08560 0.42176 -0.09176
 N1005 N 0.64083 0.84308 0.34819
 C1006 C 0.64785 0.83555 0.37213
 N1007 N 0.67090 0.81358 0.37676
 N1008 N 0.68642 0.79960 0.35802
 C1009 C 0.67947 0.80711 0.33400
 N1010 N 0.65635 0.82911 0.32945
 C1011 C 0.63146 0.85117 0.39225
 C1012 C 0.61743 0.86507 0.40861
 C1013 C 0.60025 0.88282 0.42716
 N1014 N 0.57153 0.87240 0.43677
 N1015 N 0.55381 0.89042 0.45183
 C1016 C 0.56424 0.91946 0.45781
 N1017 N 0.59326 0.92960 0.44845
 N1018 N 0.61096 0.91159 0.43343
 N1019 N 0.85197 0.64832 -0.15713
 C1020 C 0.84338 0.65456 -0.13328
 N1021 N 0.82019 0.67643 -0.12875
 N1022 N 0.80593 0.69146 -0.14759
 C1023 C 0.81445 0.68515 -0.17154
 N1024 N 0.83774 0.66331 -0.17593
 C1025 C 0.85887 0.63786 -0.11335
 C1026 C 0.87335 0.62274 -0.09797
 C1027 C 0.89265 0.60362 -0.08170
 N1028 N 0.89286 0.60798 -0.05665
 N1029 N 0.91275 0.59117 -0.04218
 C1030 C 0.93302 0.56957 -0.05236
 N1031 N 0.93243 0.56519 -0.07737
 N1032 N 0.91259 0.58186 -0.09176
 N1033 N 0.32887 1.15585 0.36158
 C1034 C 0.34881 1.13270 0.35344
 N1035 N 0.35237 1.12820 0.32864
 N1036 N 0.33646 1.14616 0.31248
 C1037 C 0.31647 1.16935 0.32047
 N1038 N 0.31290 1.17387 0.34536
 C1039 C 0.36656 1.11348 0.37070
 C1040 C 0.38206 1.09743 0.38489
 C1041 C 0.40107 1.07901 0.40193
 N1042 N 0.42906 1.06482 0.39435
 N1043 N 0.44799 1.04979 0.41065
 C1044 C 0.43949 1.04841 0.43507
 N1045 N 0.41124 1.06231 0.44250
 N1046 N 0.39234 1.07730 0.42623
 N1047 N 1.17736 0.67893 0.12672
 C1048 C 1.15567 0.65607 0.13227
 N1049 N 1.14871 0.64999 0.15647
 N1050 N 1.16307 0.66612 0.17459
 C1051 C 1.18484 0.68898 0.16915
 N1052 N 1.19175 0.69508 0.14487
 C1053 C 1.13976 0.63859 0.11300
 C1054 C 1.12507 0.62314 0.09796
 C1055 C 1.10568 0.60393 0.08184
 N1056 N 1.08547 0.58246 0.09202
 N1057 N 1.06559 0.56576 0.07769
 C1058 C 1.06521 0.56983 0.05264
 N1059 N 1.08575 0.59114 0.04235
 N1060 N 1.10568 0.60796 0.05675
 N1061 N 0.63696 1.16306 0.65269
 C1062 C 0.64417 1.17027 0.62872
 N1063 N 0.66814 1.19129 0.62400
 N1064 N 0.68433 1.20471 0.64270
 C1065 C 0.67721 1.19748 0.66674
 N1066 N 0.65314 1.17646 0.67138
 C1067 C 0.62780 1.15438 0.60873
 C1068 C 0.61414 1.13949 0.59276
 C1069 C 0.59805 1.11952 0.57513
 N1070 N 0.57228 1.12966 0.56131
 N1071 N 0.55533 1.10983 0.54716
 C1072 C 0.56361 1.07924 0.54642
 N1073 N 0.58969 1.06940 0.56002
 N1074 N 0.60662 1.08916 0.57406
 N1075 N 0.85206 0.35361 0.15716
 C1076 C 0.84402 0.34752 0.13317
 N1077 N 0.82131 0.32534 0.12823
 N1078 N 0.80698 0.30985 0.14681
 C1079 C 0.81497 0.31599 0.17089
 N1080 N 0.83777 0.33816 0.17569
 C1081 C 0.85966 0.36459 0.11350
 C1082 C 0.87423 0.37991 0.09830
 C1083 C 0.89354 0.39917 0.08213
 N1084 N 0.89344 0.39523 0.05704
 N1085 N 0.91324 0.41219 0.04262
 C1086 C 0.93373 0.43354 0.05290
 N1087 N 0.93346 0.43750 0.07795
 N1088 N 0.91371 0.42067 0.09229
 N1089 N 0.34988 0.86569 0.66900
 C1090 C 0.34546 0.86044 0.64438
 N1091 N 0.32476 0.83747 0.63710
 N1092 N 0.30888 0.82037 0.65397
 C1093 C 0.31323 0.82561 0.67875
 N1094 N 0.33406 0.84865 0.68584
 C1095 C 0.36318 0.87870 0.62643
 C1096 C 0.37891 0.89419 0.61197
 C1097 C 0.39862 0.91238 0.59521
 N1098 N 0.38964 0.91605 0.57108
 N1099 N 0.40889 0.93153 0.55531
 C1100 C 0.43773 0.94394 0.56314
 N1101 N 0.44649 0.94047 0.58738
 N1102 N 0.42724 0.92500 0.60314
 N1103 N 0.35927 1.13851 -0.16304
 C1104 C 0.35679 1.14529 -0.13852
 N1105 N 0.33551 1.16759 -0.13097
 N1106 N 0.31729 1.18282 -0.14757
 C1107 C 0.31979 1.17609 -0.17219
 N1108 N 0.34110 1.15371 -0.17961
 C1109 C 0.37616 1.12867 -0.12086
 C1110 C 0.39228 1.11425 -0.10615
 C1111 C 0.41076 1.09677 -0.08847
 N1112 N 0.39519 1.07713 -0.07273
 N1113 N 0.41207 1.06143 -0.05568
 C1114 C 0.44505 1.06479 -0.05390
 N1115 N 0.46067 1.08430 -0.06983
 N1116 N 0.44375 1.10004 -0.08690
 N1117 N 0.83320 0.66231 0.36673
 C1118 C 0.85463 0.64028 0.35894
 N1119 N 0.85839 0.63517 0.33422
 N1120 N 0.84120 0.65160 0.31777
 C1121 C 0.81970 0.67369 0.32548
 N1122 N 0.81599 0.67876 0.35027
 C1123 C 0.87326 0.62276 0.37660
 C1124 C 0.88891 0.60825 0.39160
 C1125 C 0.90738 0.59149 0.40983
 N1126 N 0.90542 0.56007 0.41123
 N1127 N 0.92166 0.54468 0.42888
 C1128 C 0.94036 0.56026 0.44565
 N1129 N 0.94242 0.59169 0.44407
 N1130 N 0.92620 0.60705 0.42644
 N1131 N 0.66785 1.16719 0.13912
 C1132 C 0.64726 1.14426 0.14648
 N1133 N 0.64191 1.13974 0.17113
 N1134 N 0.65690 1.15754 0.18794
 C1135 C 0.67764 1.18048 0.18061
 N1136 N 0.68283 1.18498 0.15590
 C1137 C 0.63128 1.12521 0.12831
 C1138 C 0.61795 1.10975 0.11262
 C1139 C 0.60197 1.09225 0.09348
 N1140 N 0.56894 1.09344 0.09108
 N1141 N 0.55413 1.07870 0.07242
 C1142 C 0.57186 1.06234 0.05553
 N1143 N 0.60494 1.06099 0.05807
 N1144 N 0.61976 1.07575 0.07675
 N1145 N 1.14995 0.64131 0.66543
 C1146 C 1.15493 0.64724 0.64096
 N1147 N 1.17482 0.67109 0.63427
 N1148 N 1.18939 0.68845 0.65158
 C1149 C 1.18447 0.68252 0.67613
 N1150 N 1.16450 0.65864 0.68272
 C1151 C 1.13900 0.62869 0.62243
 C1152 C 1.12532 0.61325 0.60691
 C1153 C 1.10875 0.59544 0.58824
 N1154 N 1.08993 0.60996 0.57103
 N1155 N 1.07488 0.59365 0.55336
 C1156 C 1.07809 0.56228 0.55234
 N1157 N 1.09684 0.54772 0.56968
 N1158 N 1.11192 0.56406 0.58738
 N1159 N 0.63887 0.85866 -0.17428
 C1160 C 0.64437 0.85451 -0.14960
 N1161 N 0.66517 0.83182 -0.14210
 N1162 N 0.68022 0.81392 -0.15875
 C1163 C 0.67490 0.81804 -0.18349
 N1164 N 0.65394 0.84074 -0.19098
 C1165 C 0.62845 0.87373 -0.13149
 C1166 C 0.61535 0.88922 -0.11570
 C1167 C 0.59980 0.90666 -0.09630
 N1168 N 0.56687 0.90523 -0.09331
 N1169 N 0.55254 0.91976 -0.07433
 C1170 C 0.57067 0.93614 -0.05769
 N1171 N 0.60364 0.93773 -0.06082
 N1172 N 0.61798 0.92318 -0.07982
 N1173 N 1.17829 0.32729 0.36587
 C1174 C 1.15866 0.35140 0.35931
 N1175 N 1.15418 0.35790 0.33488
 N1176 N 1.16889 0.34083 0.31750
 C1177 C 1.18856 0.31667 0.32395
 N1178 N 1.19304 0.31019 0.34847
 C1179 C 1.14233 0.36960 0.37788
 C1180 C 1.12817 0.38486 0.39328
 C1181 C 1.11093 0.40263 0.41165
 N1182 N 1.11364 0.43404 0.41236
 N1183 N 1.09782 0.45038 0.42968
 C1184 C 1.07875 0.43579 0.44679
 N1185 N 1.07600 0.40436 0.44593
 N1186 N 1.09179 0.38805 0.42863
 N1187 N 0.36233 0.86250 0.16552
 C1188 C 0.35978 0.85586 0.14097
 N1189 N 0.33815 0.83390 0.13336
 N1190 N 0.31967 0.81888 0.14989
 C1191 C 0.32221 0.82547 0.17453
 N1192 N 0.34388 0.84750 0.18204
 C1193 C 0.37931 0.87228 0.12327
 C1194 C 0.39532 0.88637 0.10828
 C1195 C 0.41341 0.90334 0.09004
 N1196 N 0.39747 0.92261 0.07421
 N1197 N 0.41386 0.93762 0.05651
 C1198 C 0.44672 0.93389 0.05410
 N1199 N 0.46274 0.91475 0.07011
 N1200 N 0.44630 0.89969 0.08783
 N1201 N 0.86090 0.36456 0.66657
 C1202 C 0.85684 0.35950 0.64187
 N1203 N 0.83487 0.33793 0.63416
 N1204 N 0.81742 0.32185 0.65069
 C1205 C 0.82140 0.32686 0.67546
 N1206 N 0.84345 0.34849 0.68310
 C1207 C 0.87555 0.37673 0.62410
 C1208 C 0.89110 0.39101 0.60890
 C1209 C 0.90924 0.40754 0.59039
 N1210 N 0.90724 0.43894 0.58880
 N1211 N 0.92301 0.45412 0.57080
 C1212 C 0.94121 0.43835 0.55384
 N1213 N 0.94331 0.40694 0.55560
 N1214 N 0.92757 0.39178 0.57358
 N1215 N 1.16232 1.17803 0.63289
 C1216 C 1.13802 1.15770 0.63847
 N1217 N 1.13147 1.15125 0.66267
 N1218 N 1.14862 1.16479 0.68078
 C1219 C 1.17299 1.18515 0.67528
 N1220 N 1.17948 1.19158 0.65100
 C1221 C 1.12029 1.14217 0.61906
 C1222 C 1.10559 1.12813 0.60318
 C1223 C 1.08843 1.10994 0.58500
 N1224 N 1.10538 1.09309 0.56801
 N1225 N 1.08982 1.07347 0.55290
 C1226 C 1.05678 1.07005 0.55426
 N1227 N 1.03981 1.08731 0.57106
 N1228 N 1.05539 1.10692 0.58618
 N1229 N 0.63123 0.65196 0.16140
 C1230 C 0.63707 0.65961 0.13732
 N1231 N 0.66049 0.68096 0.13202
 N1232 N 0.67748 0.69433 0.15030
 C1233 C 0.67170 0.68669 0.17445
 N1234 N 0.64821 0.66531 0.17967
 C1235 C 0.61958 0.64421 0.11774
 C1236 C 0.60502 0.63013 0.10183
 C1237 C 0.58796 0.61175 0.08375
 N1238 N 0.60499 0.59481 0.06687
 N1239 N 0.58955 0.57484 0.05199
 C1240 C 0.55657 0.57113 0.05352
 N1241 N 0.53950 0.58847 0.07020
 N1242 N 0.55496 0.60844 0.08508
 N1243 N 1.16235 0.82231 0.36855
 C1244 C 1.13831 0.84295 0.36303
 N1245 N 1.13210 0.84986 0.33885
 N1246 N 1.14932 0.83648 0.32071
 C1247 C 1.17343 0.81580 0.32616
 N1248 N 1.17958 0.80891 0.35041
 C1249 C 1.12052 0.85830 0.38248
 C1250 C 1.10578 0.87221 0.39841
 C1251 C 1.08857 0.89025 0.41666
 N1252 N 1.10548 0.90692 0.43379
 N1253 N 1.08990 0.92647 0.44894
 C1254 C 1.05689 0.93000 0.44747
 N1255 N 1.03995 0.91292 0.43054
 N1256 N 1.05554 0.89338 0.41538
 N1257 N 0.66102 0.32125 -0.13110
 C1258 C 0.63793 0.34293 -0.13637
 N1259 N 0.63249 0.35101 -0.16042
 N1260 N 0.64954 0.33774 -0.17868
 C1261 C 0.67270 0.31601 -0.17350
 N1262 N 0.67808 0.30795 -0.14937
 C1263 C 0.62029 0.35816 -0.11680
 C1264 C 0.60559 0.37212 -0.10091
 C1265 C 0.58837 0.39038 -0.08285
 N1266 N 0.55537 0.39360 -0.08427
 N1267 N 0.53978 0.41351 -0.06942
 C1268 C 0.55672 0.43088 -0.05269
 N1269 N 0.58971 0.42725 -0.05106
 N1270 N 0.60528 0.40734 -0.06590
 N1271 N 0.83502 1.18661 0.37330
 C1272 C 0.85784 1.16481 0.36763
 N1273 N 0.86337 1.15763 0.34343
 N1274 N 0.84666 1.17182 0.32542
 C1275 C 0.82377 1.19363 0.33099
 N1276 N 0.81829 1.20084 0.35527
 C1277 C 0.87502 1.14839 0.38686
 C1278 C 0.88946 1.13330 0.40226
 C1279 C 0.90641 1.11367 0.41958
 N1280 N 0.93933 1.10988 0.41787
 N1281 N 0.95463 1.08891 0.43197
 C1282 C 0.93747 1.07099 0.44821
 N1283 N 0.90457 1.07514 0.45010
 N1284 N 0.88930 1.09611 0.43601
 N1285 N 0.36425 0.66060 -0.15661
 C1286 C 0.35669 0.66552 -0.13236
 N1287 N 0.33192 0.68528 -0.12660
 N1288 N 0.31527 0.69970 -0.14458
 C1289 C 0.32278 0.69475 -0.16890
 N1290 N 0.34762 0.67499 -0.17457
 C1291 C 0.37382 0.64882 -0.11325
 C1292 C 0.38823 0.63361 -0.09790
 C1293 C 0.40526 0.61398 -0.08061
 N1294 N 0.38823 0.59626 -0.06423
 N1295 N 0.40364 0.57542 -0.05008
 C1296 C 0.43659 0.57157 -0.05187
 N1297 N 0.45365 0.58964 -0.06807
 N1298 N 0.43822 0.61047 -0.08222
 N1299 N 0.86099 0.84089 0.65451
 C1300 C 0.85591 0.83342 0.63033
 N1301 N 0.83352 0.81124 0.62458
 N1302 N 0.81679 0.79691 0.64257
 C1303 C 0.82183 0.80442 0.66685
 N1304 N 0.84429 0.82662 0.67246
 C1305 C 0.87315 0.84998 0.61122
 C1306 C 0.88776 0.86536 0.59612
 C1307 C 0.90503 0.88546 0.57935
 N1308 N 0.88821 0.90357 0.56312
 N1309 N 0.90373 0.92505 0.54970
 C1310 C 0.93656 0.92920 0.55212
 N1311 N 0.95343 0.91075 0.56815
 N1312 N 0.93790 0.88927 0.58158
 N1313 N 0.36679 0.33743 0.15570
 C1314 C 0.35859 0.33328 0.13149
 N1315 N 0.33330 0.31415 0.12569
 N1316 N 0.31675 0.29956 0.14363
 C1317 C 0.32487 0.30376 0.16794
 N1318 N 0.35025 0.32289 0.17362
 C1319 C 0.37549 0.35035 0.11249
 C1320 C 0.38973 0.36595 0.09731
 C1321 C 0.40653 0.38611 0.08032
 N1322 N 0.38930 0.40405 0.06421
 N1323 N 0.40446 0.42540 0.05043
 C1324 C 0.43736 0.42957 0.05233
 N1325 N 0.45462 0.41130 0.06825
 N1326 N 0.43944 0.38994 0.08204
   
