data_POSCAR
  _audit_creation_date              2014-09-24
  _audit_creation_method            'ToBaCCo'
  _symmetry_space_group_name_H-M    'P1'
  _symmetry_Int_Tables_number       1
  _symmetry_cell_setting            triclinic
  loop_
  _symmetry_equiv_pos_as_xyz
 x,y,z
_cell_length_a 89.7002
_cell_length_b 89.6701
_cell_length_c 89.8212
_cell_angle_alpha 90.061600
_cell_angle_beta 90.044500
_cell_angle_gamma 89.974500
loop_
  _atom_site_label
  _atom_site_type_symbol
  _atom_site_fract_x
  _atom_site_fract_y
  _atom_site_fract_z
C1 C 0.35552 0.33420 0.34493
 C2 C 0.34448 0.33417 0.35598
 C3 C 0.33362 0.34511 0.35605
 C4 C 0.33364 0.35624 0.34509
 C5 C 0.34453 0.35628 0.33422
 C6 C 0.35553 0.34516 0.33411
 C7 C 0.36717 0.32470 0.34182
 N8 N 0.37425 0.32961 0.32937
 C9 C 0.36717 0.34214 0.32461
 C10 C 0.34152 0.36801 0.32483
 N11 N 0.32903 0.37510 0.32971
 C12 C 0.32417 0.36794 0.34213
 C13 C 0.32412 0.34203 0.36766
 N14 N 0.32895 0.32949 0.37468
 C15 C 0.34143 0.32464 0.36757
 H16 H 0.37001 0.31472 0.34798
 H17 H 0.37024 0.34865 0.31494
 H18 H 0.34773 0.37088 0.31491
 H19 H 0.31444 0.37097 0.34858
 H20 H 0.31441 0.34850 0.37076
 H21 H 0.34763 0.31466 0.37035
 C22 C 0.35534 0.83318 -0.15594
 C23 C 0.34434 0.83310 -0.14485
 C24 C 0.33342 0.84398 -0.14474
 C25 C 0.33333 0.85506 -0.15575
 C26 C 0.34414 0.85512 -0.16664
 C27 C 0.35523 0.84407 -0.16674
 C28 C 0.36704 0.82377 -0.15905
 N29 N 0.37418 0.82859 -0.17159
 C30 C 0.36686 0.84112 -0.17626
 C31 C 0.34106 0.86684 -0.17600
 N32 N 0.32852 0.87404 -0.17117
 C33 C 0.32383 0.86673 -0.15867
 C34 C 0.32404 0.84091 -0.13303
 N35 N 0.32897 0.82840 -0.12602
 C36 C 0.34141 0.82358 -0.13321
 H37 H 0.36971 0.81396 -0.15262
 H38 H 0.36956 0.84782 -0.18587
 H39 H 0.34749 0.86948 -0.18581
 H40 H 0.31422 0.86947 -0.15197
 H41 H 0.31411 0.84712 -0.13010
 H42 H 0.34791 0.81386 -0.13022
 C43 C 0.85558 0.33318 -0.15576
 C44 C 0.84458 0.33309 -0.14468
 C45 C 0.83362 0.34392 -0.14461
 C46 C 0.83349 0.35498 -0.15565
 C47 C 0.84429 0.35503 -0.16654
 C48 C 0.85544 0.34403 -0.16660
 C49 C 0.86732 0.32380 -0.15882
 N50 N 0.87445 0.32860 -0.17137
 C51 C 0.86708 0.34108 -0.17610
 C52 C 0.84116 0.36669 -0.17596
 N53 N 0.82862 0.37389 -0.17113
 C54 C 0.82397 0.36662 -0.15859
 C55 C 0.82424 0.34086 -0.13288
 N56 N 0.82922 0.32839 -0.12584
 C57 C 0.84169 0.32359 -0.13301
 H58 H 0.87002 0.31402 -0.15236
 H59 H 0.86976 0.34775 -0.18574
 H60 H 0.84775 0.36950 -0.18562
 H61 H 0.81420 0.36919 -0.15205
 H62 H 0.81430 0.34704 -0.12997
 H63 H 0.84822 0.31391 -0.12998
 C64 C 0.85537 0.83390 0.34464
 C65 C 0.84434 0.83387 0.35570
 C66 C 0.83342 0.84475 0.35573
 C67 C 0.83336 0.85579 0.34466
 C68 C 0.84423 0.85581 0.33383
 C69 C 0.85532 0.84477 0.33381
 C70 C 0.86706 0.82447 0.34160
 N71 N 0.87428 0.82926 0.32909
 C72 C 0.86700 0.84179 0.32436
 C73 C 0.84119 0.86749 0.32441
 N74 N 0.82864 0.87471 0.32916
 C75 C 0.82388 0.86745 0.34166
 C76 C 0.82399 0.84172 0.36741
 N77 N 0.82890 0.82923 0.37448
 C78 C 0.84137 0.82439 0.36735
 H79 H 0.86987 0.81482 0.34822
 H80 H 0.86958 0.84830 0.31459
 H81 H 0.84767 0.87011 0.31463
 H82 H 0.81425 0.87022 0.34831
 H83 H 0.81405 0.84793 0.37028
 H84 H 0.84786 0.81468 0.37039
 C85 C 0.64437 0.66602 0.34549
 C86 C 0.65538 0.66588 0.35659
 C87 C 0.66623 0.65493 0.35654
 C88 C 0.66621 0.64394 0.34543
 C89 C 0.65533 0.64404 0.33452
 C90 C 0.64433 0.65517 0.33455
 C91 C 0.63278 0.67560 0.34247
 N92 N 0.62569 0.67085 0.32995
 C93 C 0.63271 0.65832 0.32506
 C94 C 0.65835 0.63242 0.32497
 N95 N 0.67082 0.62526 0.32980
 C96 C 0.67567 0.63227 0.34233
 C97 C 0.67573 0.65788 0.36821
 N98 N 0.67093 0.67036 0.37536
 C99 C 0.65845 0.67530 0.36830
 H100 H 0.62976 0.68532 0.34896
 H101 H 0.62986 0.65216 0.31509
 H102 H 0.65214 0.62966 0.31501
 H103 H 0.68538 0.62914 0.34877
 H104 H 0.68544 0.65138 0.37123
 H105 H 0.65228 0.68527 0.37117
 C106 C 0.64366 0.16605 -0.15488
 C107 C 0.65468 0.16611 -0.14379
 C108 C 0.66560 0.15523 -0.14373
 C109 C 0.66568 0.14417 -0.15478
 C110 C 0.65484 0.14413 -0.16566
 C111 C 0.64375 0.15517 -0.16572
 C112 C 0.63198 0.17548 -0.15796
 N113 N 0.62482 0.17068 -0.17053
 C114 C 0.63213 0.15816 -0.17524
 C115 C 0.65793 0.13245 -0.17509
 N116 N 0.67048 0.12526 -0.17030
 C117 C 0.67519 0.13253 -0.15777
 C118 C 0.67503 0.15831 -0.13203
 N119 N 0.67012 0.17081 -0.12499
 C120 C 0.65765 0.17564 -0.13214
 H121 H 0.62932 0.18529 -0.15151
 H122 H 0.62943 0.15148 -0.18488
 H123 H 0.65148 0.12983 -0.18491
 H124 H 0.68482 0.12979 -0.15109
 H125 H 0.68498 0.15210 -0.12915
 H126 H 0.65118 0.18536 -0.12912
 C127 C 0.14357 0.66544 -0.15490
 C128 C 0.15463 0.66534 -0.14385
 C129 C 0.16550 0.65441 -0.14394
 C130 C 0.16542 0.64340 -0.15505
 C131 C 0.15454 0.64351 -0.16588
 C132 C 0.14351 0.65461 -0.16579
 C133 C 0.13194 0.67498 -0.15787
 N134 N 0.12467 0.67029 -0.17042
 C135 C 0.13184 0.65773 -0.17522
 C136 C 0.15751 0.63190 -0.17543
 N137 N 0.17004 0.62458 -0.17075
 C138 C 0.17484 0.63171 -0.15817
 C139 C 0.17503 0.65736 -0.13230
 N140 N 0.17023 0.66984 -0.12514
 C141 C 0.15772 0.67476 -0.13216
 H142 H 0.12922 0.68461 -0.15119
 H143 H 0.12922 0.65130 -0.18506
 H144 H 0.15084 0.62922 -0.18508
 H145 H 0.18466 0.62905 -0.15173
 H146 H 0.18475 0.65087 -0.12931
 H147 H 0.15154 0.68472 -0.12926
 C148 C 0.14463 0.16573 0.34429
 C149 C 0.15566 0.16563 0.35538
 C150 C 0.16651 0.15469 0.35534
 C151 C 0.16647 0.14368 0.34423
 C152 C 0.15562 0.14377 0.33338
 C153 C 0.14460 0.15489 0.33341
 C154 C 0.13301 0.17525 0.34128
 N155 N 0.12576 0.17055 0.32874
 C156 C 0.13295 0.15798 0.32396
 C157 C 0.15860 0.13211 0.32388
 N158 N 0.17112 0.12481 0.32860
 C159 C 0.17590 0.13199 0.34116
 C160 C 0.17601 0.15763 0.36701
 N161 N 0.17119 0.17011 0.37416
 C162 C 0.15871 0.17505 0.36709
 H163 H 0.13026 0.18488 0.34796
 H164 H 0.13034 0.15153 0.31414
 H165 H 0.15211 0.12957 0.31407
 H166 H 0.18554 0.12916 0.34780
 H167 H 0.18571 0.15113 0.37004
 H168 H 0.15252 0.18500 0.36998
 C169 C 0.64353 0.33370 0.65492
 C170 C 0.65452 0.33376 0.64383
 C171 C 0.66541 0.34466 0.64384
 C172 C 0.66548 0.35565 0.65497
 C173 C 0.65463 0.35561 0.66589
 C174 C 0.64357 0.34455 0.66586
 C175 C 0.63192 0.32417 0.65795
 N176 N 0.62488 0.32895 0.67048
 C177 C 0.63195 0.34144 0.67537
 C178 C 0.65771 0.36723 0.67542
 N179 N 0.67019 0.37432 0.67057
 C180 C 0.67499 0.36728 0.65804
 C181 C 0.67485 0.34166 0.63215
 N182 N 0.66999 0.32917 0.62504
 C183 C 0.65753 0.32429 0.63215
 H184 H 0.62885 0.31446 0.65147
 H185 H 0.62915 0.34761 0.68534
 H186 H 0.65153 0.37003 0.68538
 H187 H 0.68469 0.37037 0.65158
 H188 H 0.68479 0.34788 0.62932
 H189 H 0.65109 0.31456 0.62909
 C190 C 0.64447 0.83429 1.15499
 C191 C 0.65554 0.83444 1.14396
 C192 C 0.66634 0.84544 1.14406
 C193 C 0.66619 0.85646 1.15514
 C194 C 0.65527 0.85628 1.16599
 C195 C 0.64432 0.84511 1.16588
 C196 C 0.63290 0.82469 1.15793
 N197 N 0.62558 0.82934 1.17045
 C198 C 0.63267 0.84194 1.17528
 C199 C 0.65816 0.86792 1.17556
 N200 N 0.67059 0.87517 1.17079
 C201 C 0.67554 0.86821 1.15828
 C202 C 0.67588 0.84254 1.13242
 N203 N 0.67115 0.83005 1.12524
 C204 C 0.65868 0.82505 1.13225
 H205 H 0.63023 0.81504 1.15124
 H206 H 0.62999 0.84836 1.18510
 H207 H 0.65167 0.87086 1.18528
 H208 H 0.68546 0.87118 1.15211
 H209 H 0.68555 0.84910 1.12943
 H210 H 0.65256 0.81507 1.12934
 C211 C 0.14416 0.33403 1.15544
 C212 C 0.15526 0.33399 1.14444
 C213 C 0.16617 0.34487 1.14446
 C214 C 0.16614 0.35595 1.15550
 C215 C 0.15522 0.35594 1.16635
 C216 C 0.14415 0.34489 1.16629
 C217 C 0.13249 0.32457 1.15842
 N218 N 0.12525 0.32932 1.17094
 C219 C 0.13248 0.34186 1.17573
 C220 C 0.15823 0.36760 1.17585
 N221 N 0.17072 0.37471 1.17105
 C222 C 0.17561 0.36762 1.15857
 C223 C 0.17566 0.34181 1.13282
 N224 N 0.17081 0.32930 1.12575
 C225 C 0.15830 0.32447 1.13282
 H226 H 0.12992 0.31475 1.15194
 H227 H 0.12971 0.34850 1.18537
 H228 H 0.15175 0.37066 1.18555
 H229 H 0.18556 0.37047 1.15239
 H230 H 0.18560 0.34802 1.13000
 H231 H 0.15185 0.31475 1.12975
 C232 C 0.14418 0.83348 0.65541
 C233 C 0.15521 0.83348 0.64436
 C234 C 0.16610 0.84437 0.64436
 C235 C 0.16613 0.85541 0.65545
 C236 C 0.15528 0.85542 0.66630
 C237 C 0.14420 0.84438 0.66630
 C238 C 0.13253 0.82399 0.65845
 N239 N 0.12546 0.82885 0.67093
 C240 C 0.13255 0.84136 0.67578
 C241 C 0.15831 0.86709 0.67576
 N242 N 0.17086 0.87432 0.67102
 C243 C 0.17561 0.86707 0.65849
 C244 C 0.17556 0.84133 0.63269
 N245 N 0.17069 0.82883 0.62561
 C246 C 0.15821 0.82398 0.63271
 H247 H 0.12947 0.81425 0.65201
 H248 H 0.12972 0.84759 0.68571
 H249 H 0.15184 0.86970 0.68555
 H250 H 0.18524 0.86984 0.65185
 H251 H 0.18549 0.84755 0.62984
 H252 H 0.15176 0.81425 0.62966
 C253 C 0.35580 0.66541 0.65476
 C254 C 0.34471 0.66539 0.64375
 C255 C 0.33380 0.65450 0.64380
 C256 C 0.33385 0.64345 0.65483
 C257 C 0.34477 0.64348 0.66570
 C258 C 0.35582 0.65454 0.66566
 C259 C 0.36747 0.67490 0.65778
 N260 N 0.37456 0.67009 0.67027
 C261 C 0.36747 0.65761 0.67514
 C262 C 0.34174 0.63188 0.67523
 N263 N 0.32923 0.62477 0.67042
 C264 C 0.32436 0.63181 0.65792
 C265 C 0.32427 0.65752 0.63218
 N266 N 0.32910 0.66999 0.62506
 C267 C 0.34163 0.67485 0.63209
 H268 H 0.37030 0.68483 0.65155
 H269 H 0.37054 0.65119 0.68487
 H270 H 0.34819 0.62886 0.68495
 H271 H 0.31439 0.62896 0.65174
 H272 H 0.31453 0.65107 0.62916
 H273 H 0.34785 0.68477 0.62922
 C274 C 0.35567 0.16576 1.15539
 C275 C 0.34465 0.16575 1.14430
 C276 C 0.33381 0.15480 1.14423
 C277 C 0.33385 0.14369 1.15522
 C278 C 0.34469 0.14369 1.16609
 C279 C 0.35568 0.15481 1.16621
 C280 C 0.36730 0.17527 1.15851
 N281 N 0.37436 0.17039 1.17100
 C282 C 0.36729 0.15785 1.17575
 C283 C 0.34168 0.13197 1.17548
 N284 N 0.32917 0.12472 1.17066
 C285 C 0.32441 0.13199 1.15816
 C286 C 0.32432 0.15783 1.13258
 N287 N 0.32913 0.17037 1.12556
 C288 C 0.34159 0.17526 1.13268
 H289 H 0.37013 0.18524 1.15235
 H290 H 0.37035 0.15137 1.18544
 H291 H 0.34814 0.12937 1.18529
 H292 H 0.31478 0.12923 1.15148
 H293 H 0.31463 0.15134 1.12948
 H294 H 0.34777 0.18523 1.12989
 C295 C 0.85555 0.66637 1.15507
 C296 C 0.84454 0.66636 1.14396
 C297 C 0.83366 0.65545 1.14390
 C298 C 0.83363 0.64438 1.15491
 C299 C 0.84448 0.64437 1.16584
 C300 C 0.85550 0.65547 1.16594
 C301 C 0.86720 0.67585 1.15817
 N302 N 0.87423 0.67100 1.17068
 C303 C 0.86711 0.65851 1.17549
 C304 C 0.84140 0.63270 1.17528
 N305 N 0.82892 0.62562 1.17036
 C306 C 0.82412 0.63273 1.15788
 C307 C 0.82420 0.65849 1.13222
 N308 N 0.82907 0.67099 1.12517
 C309 C 0.84154 0.67584 1.13230
 H310 H 0.87007 0.68578 1.15197
 H311 H 0.87014 0.65206 1.18520
 H312 H 0.84757 0.62985 1.18524
 H313 H 0.81441 0.62968 1.15139
 H314 H 0.81449 0.65204 1.12912
 H315 H 0.84776 0.68579 1.12950
 C316 C 0.85568 0.16621 0.65544
 C317 C 0.84463 0.16621 0.64438
 C318 C 0.83369 0.15536 0.64440
 C319 C 0.83367 0.14434 0.65546
 C320 C 0.84457 0.14434 0.66634
 C321 C 0.85564 0.15539 0.66633
 C322 C 0.86738 0.17564 0.65844
 N323 N 0.87460 0.17091 0.67099
 C324 C 0.86732 0.15842 0.67578
 C325 C 0.84151 0.13271 0.67584
 N326 N 0.82898 0.12565 0.67101
 C327 C 0.82413 0.13273 0.65852
 C328 C 0.82420 0.15840 0.63276
 N329 N 0.82909 0.17084 0.62564
 C330 C 0.84162 0.17567 0.63270
 H331 H 0.87002 0.18541 0.65193
 H332 H 0.87007 0.15179 0.68542
 H333 H 0.84772 0.12987 0.68577
 H334 H 0.81439 0.12970 0.65210
 H335 H 0.81444 0.15198 0.62973
 H336 H 0.84787 0.18557 0.62984
 C337 C 0.33390 0.35585 0.65503
 C338 C 0.33383 0.34475 0.64401
 C339 C 0.34468 0.33380 0.64401
 C340 C 0.35574 0.33375 0.65506
 C341 C 0.35578 0.34467 0.66594
 C342 C 0.34479 0.35579 0.66592
 C343 C 0.32446 0.36756 0.65807
 N344 N 0.32933 0.37461 0.67057
 C345 C 0.34179 0.36745 0.67542
 C346 C 0.36739 0.34157 0.67545
 N347 N 0.37444 0.32903 0.67063
 C348 C 0.36736 0.32421 0.65812
 C349 C 0.34159 0.32432 0.63235
 N350 N 0.32910 0.32923 0.62528
 C351 C 0.32431 0.34175 0.63237
 H352 H 0.31453 0.37043 0.65186
 H353 H 0.34822 0.37046 0.68517
 H354 H 0.37046 0.34801 0.68518
 H355 H 0.37016 0.31424 0.65192
 H356 H 0.34776 0.31434 0.62951
 H357 H 0.31462 0.34825 0.62931
 C358 C 0.33464 0.85573 0.15454
 C359 C 0.33460 0.84473 0.14343
 C360 C 0.34552 0.83384 0.14332
 C361 C 0.35664 0.83381 0.15429
 C362 C 0.35670 0.84467 0.16523
 C363 C 0.34559 0.85569 0.16537
 C364 C 0.32515 0.86737 0.15769
 N365 N 0.33005 0.87439 0.17019
 C366 C 0.34258 0.86729 0.17494
 C367 C 0.36841 0.84159 0.17463
 N368 N 0.37547 0.82910 0.16969
 C369 C 0.36831 0.82430 0.15723
 C370 C 0.34242 0.82438 0.13166
 N371 N 0.32987 0.82924 0.12466
 C372 C 0.32505 0.84171 0.13181
 H373 H 0.31517 0.87023 0.15153
 H374 H 0.34907 0.87031 0.18465
 H375 H 0.37129 0.84776 0.18459
 H376 H 0.37133 0.81458 0.15073
 H377 H 0.34886 0.81466 0.12854
 H378 H 0.31508 0.84793 0.12906
 C379 C 0.83455 0.35606 0.15504
 C380 C 0.83450 0.34495 0.14404
 C381 C 0.84536 0.33401 0.14406
 C382 C 0.85642 0.33400 0.15511
 C383 C 0.85645 0.34492 0.16598
 C384 C 0.84544 0.35603 0.16595
 C385 C 0.82510 0.36776 0.15806
 N386 N 0.82996 0.37484 0.17056
 C387 C 0.84242 0.36770 0.17543
 C388 C 0.86807 0.34185 0.17549
 N389 N 0.87513 0.32932 0.17068
 C390 C 0.86805 0.32447 0.15818
 C391 C 0.84229 0.32451 0.13241
 N392 N 0.82980 0.32939 0.12533
 C393 C 0.82499 0.34192 0.13240
 H394 H 0.81516 0.37062 0.15184
 H395 H 0.84885 0.37074 0.18517
 H396 H 0.87113 0.34831 0.18521
 H397 H 0.87087 0.31450 0.15198
 H398 H 0.84848 0.31454 0.12959
 H399 H 0.81529 0.34840 0.12933
 C400 C 0.83435 0.85653 0.65535
 C401 C 0.83440 0.84546 0.64430
 C402 C 0.84534 0.83459 0.64432
 C403 C 0.85641 0.83466 0.65535
 C404 C 0.85634 0.84555 0.66625
 C405 C 0.84524 0.85656 0.66625
 C406 C 0.82480 0.86815 0.65841
 N407 N 0.82961 0.87523 0.67093
 C408 C 0.84213 0.86817 0.67577
 C409 C 0.86797 0.84253 0.67578
 N410 N 0.87511 0.83006 0.67094
 C411 C 0.86809 0.82519 0.65842
 C412 C 0.84233 0.82507 0.63268
 N413 N 0.82983 0.82987 0.62558
 C414 C 0.82493 0.84237 0.63264
 H415 H 0.81485 0.87096 0.65220
 H416 H 0.84855 0.87123 0.68551
 H417 H 0.87096 0.84897 0.68553
 H418 H 0.87096 0.81524 0.65222
 H419 H 0.84882 0.81536 0.62964
 H420 H 0.81497 0.84856 0.62979
 C421 C 0.66674 0.64441 0.65574
 C422 C 0.66681 0.65540 0.64464
 C423 C 0.65594 0.66633 0.64454
 C424 C 0.64487 0.66645 0.65556
 C425 C 0.64478 0.65561 0.66648
 C426 C 0.65580 0.64449 0.66657
 C427 C 0.67617 0.63271 0.65884
 N428 N 0.67123 0.62567 0.67130
 C429 C 0.65874 0.63283 0.67607
 C430 C 0.63306 0.65872 0.67586
 N431 N 0.62603 0.67122 0.67092
 C432 C 0.63322 0.67599 0.65848
 C433 C 0.65903 0.67573 0.63285
 N434 N 0.67153 0.67079 0.62584
 C435 C 0.67634 0.65833 0.63302
 H436 H 0.68590 0.62957 0.65245
 H437 H 0.65246 0.63004 0.68597
 H438 H 0.63014 0.65254 0.68578
 H439 H 0.63020 0.68569 0.65197
 H440 H 0.65284 0.68567 0.62994
 H441 H 0.68606 0.65184 0.63003
 C442 C 0.66632 0.14474 0.15559
 C443 C 0.66632 0.15574 0.14450
 C444 C 0.65538 0.16659 0.14439
 C445 C 0.64426 0.16659 0.15536
 C446 C 0.64424 0.15574 0.16628
 C447 C 0.65537 0.14476 0.16641
 C448 C 0.67583 0.13311 0.15872
 N449 N 0.67094 0.12607 0.17120
 C450 C 0.65841 0.13316 0.17595
 C451 C 0.63250 0.15878 0.17566
 N452 N 0.62540 0.17124 0.17073
 C453 C 0.63255 0.17606 0.15828
 C454 C 0.65842 0.17604 0.13274
 N455 N 0.67096 0.17121 0.12573
 C456 C 0.67584 0.15876 0.13288
 H457 H 0.68580 0.13026 0.15257
 H458 H 0.65191 0.13011 0.18563
 H459 H 0.62964 0.15260 0.18560
 H460 H 0.62949 0.18575 0.15180
 H461 H 0.65194 0.18573 0.12961
 H462 H 0.68582 0.15256 0.13011
 C463 C 0.16588 0.64463 0.15525
 C464 C 0.16595 0.65573 0.14426
 C465 C 0.15508 0.66667 0.14425
 C466 C 0.14400 0.66669 0.15527
 C467 C 0.14397 0.65578 0.16613
 C468 C 0.15498 0.64467 0.16612
 C469 C 0.17533 0.63293 0.15828
 N470 N 0.17045 0.62586 0.17075
 C471 C 0.15798 0.63300 0.17559
 C472 C 0.13232 0.65884 0.17560
 N473 N 0.12525 0.67136 0.17077
 C474 C 0.13235 0.67620 0.15831
 C475 C 0.15816 0.67614 0.13261
 N476 N 0.17065 0.67125 0.12556
 C477 C 0.17546 0.65874 0.13264
 H478 H 0.18527 0.63006 0.15208
 H479 H 0.15152 0.62997 0.18529
 H480 H 0.12924 0.65238 0.18529
 H481 H 0.12953 0.68616 0.15211
 H482 H 0.15196 0.68610 0.12976
 H483 H 0.18517 0.65225 0.12959
 C484 C 0.16636 0.14406 0.65522
 C485 C 0.16639 0.15504 0.64412
 C486 C 0.15553 0.16598 0.64405
 C487 C 0.14450 0.16611 0.65511
 C488 C 0.14446 0.15527 0.66604
 C489 C 0.15547 0.14416 0.66610
 C490 C 0.17582 0.13238 0.65831
 N491 N 0.17094 0.12536 0.67080
 C492 C 0.15846 0.13252 0.67562
 C493 C 0.13278 0.15840 0.67547
 N494 N 0.12574 0.17089 0.67056
 C495 C 0.13287 0.17566 0.65808
 C496 C 0.15860 0.17537 0.63234
 N497 N 0.17108 0.17042 0.62530
 C498 C 0.17589 0.15796 0.63247
 H499 H 0.18553 0.12925 0.65189
 H500 H 0.15223 0.12974 0.68554
 H501 H 0.12990 0.15222 0.68541
 H502 H 0.12983 0.18535 0.65158
 H503 H 0.15241 0.18532 0.62944
 H504 H 0.18560 0.15146 0.62947
 C505 C 0.33440 0.64490 0.34438
 C506 C 0.33438 0.65590 0.35548
 C507 C 0.34529 0.66679 0.35558
 C508 C 0.35639 0.66681 0.34460
 C509 C 0.35643 0.65595 0.33367
 C510 C 0.34534 0.64493 0.33354
 C511 C 0.32493 0.63324 0.34125
 N512 N 0.32983 0.62620 0.32875
 C513 C 0.34233 0.63331 0.32399
 C514 C 0.36814 0.65901 0.32427
 N515 N 0.37522 0.67148 0.32921
 C516 C 0.36807 0.67630 0.34167
 C517 C 0.34222 0.67624 0.36726
 N518 N 0.32971 0.67137 0.37427
 C519 C 0.32487 0.65891 0.36712
 H520 H 0.31498 0.63037 0.34742
 H521 H 0.34882 0.63028 0.31429
 H522 H 0.37101 0.65282 0.31433
 H523 H 0.37110 0.68601 0.34817
 H524 H 0.34867 0.68595 0.37039
 H525 H 0.31492 0.65268 0.36989
 C526 C 0.33375 0.14389 0.84503
 C527 C 0.33376 0.15494 0.85610
 C528 C 0.34467 0.16581 0.85613
 C529 C 0.35575 0.16579 0.84512
 C530 C 0.35576 0.15489 0.83423
 C531 C 0.34466 0.14388 0.83417
 C532 C 0.32425 0.13223 0.84196
 N533 N 0.32911 0.12515 0.82947
 C534 C 0.34161 0.13223 0.82466
 C535 C 0.36744 0.15792 0.82478
 N536 N 0.37452 0.17042 0.82965
 C537 C 0.36741 0.17528 0.84211
 C538 C 0.34164 0.17533 0.86775
 N539 N 0.32913 0.17051 0.87482
 C540 C 0.32427 0.15801 0.86773
 H541 H 0.31431 0.12940 0.84816
 H542 H 0.34807 0.12916 0.81496
 H543 H 0.37027 0.15170 0.81484
 H544 H 0.37045 0.18501 0.84856
 H545 H 0.34810 0.18505 0.87082
 H546 H 0.31431 0.15181 0.87055
 C547 C 0.83386 0.64389 0.84497
 C548 C 0.83391 0.65505 0.85594
 C549 C 0.84486 0.66589 0.85586
 C550 C 0.85594 0.66573 0.84485
 C551 C 0.85587 0.65476 0.83404
 C552 C 0.84476 0.64376 0.83410
 C553 C 0.82433 0.63225 0.84200
 N554 N 0.82915 0.62506 0.82955
 C555 C 0.84167 0.63206 0.82468
 C556 C 0.86753 0.65768 0.82453
 N557 N 0.87468 0.67017 0.82931
 C558 C 0.86764 0.67514 0.84176
 C559 C 0.84187 0.67550 0.86743
 N560 N 0.82936 0.67077 0.87455
 C561 C 0.82445 0.65823 0.86757
 H562 H 0.81438 0.62949 0.84822
 H563 H 0.84810 0.62891 0.81498
 H564 H 0.87054 0.65116 0.81484
 H565 H 0.87052 0.68512 0.84791
 H566 H 0.84837 0.68522 0.87042
 H567 H 0.81449 0.65207 0.87045
 C568 C 0.83486 0.14414 0.34554
 C569 C 0.83501 0.15519 0.35660
 C570 C 0.84594 0.16605 0.35652
 C571 C 0.85691 0.16599 0.34540
 C572 C 0.85679 0.15508 0.33452
 C573 C 0.84568 0.14407 0.33459
 C574 C 0.82528 0.13254 0.34256
 N575 N 0.83001 0.12540 0.33005
 C576 C 0.84252 0.13241 0.32513
 C577 C 0.86839 0.15807 0.32497
 N578 N 0.87554 0.17057 0.32976
 C579 C 0.86855 0.17546 0.34228
 C580 C 0.84300 0.17560 0.36815
 N581 N 0.83054 0.17082 0.37531
 C582 C 0.82560 0.15831 0.36829
 H583 H 0.81558 0.12954 0.34905
 H584 H 0.84866 0.12953 0.31517
 H585 H 0.87114 0.15183 0.31502
 H586 H 0.87167 0.18519 0.34869
 H587 H 0.84949 0.18533 0.37113
 H588 H 0.81564 0.15215 0.37118
 C589 C 0.66637 0.35582 0.34456
 C590 C 0.66640 0.34485 0.35568
 C591 C 0.65551 0.33395 0.35578
 C592 C 0.64444 0.33385 0.34473
 C593 C 0.64440 0.34468 0.33379
 C594 C 0.65544 0.35575 0.33370
 C595 C 0.67585 0.36745 0.34145
 N596 N 0.67097 0.37447 0.32895
 C597 C 0.65845 0.36736 0.32417
 C598 C 0.63269 0.34158 0.32437
 N599 N 0.62563 0.32911 0.32931
 C600 C 0.63278 0.32433 0.34178
 C601 C 0.65859 0.32455 0.36748
 N602 N 0.67111 0.32946 0.37449
 C603 C 0.67593 0.34190 0.36731
 H604 H 0.68559 0.37055 0.34786
 H605 H 0.65220 0.37015 0.31424
 H606 H 0.62980 0.34774 0.31443
 H607 H 0.62974 0.31465 0.34829
 H608 H 0.65238 0.31463 0.37039
 H609 H 0.68567 0.34836 0.37029
 C610 C 0.66548 0.85617 0.84480
 C611 C 0.66553 0.84516 0.85587
 C612 C 0.65463 0.83427 0.85594
 C613 C 0.64351 0.83424 0.84495
 C614 C 0.64345 0.84511 0.83405
 C615 C 0.65454 0.85614 0.83395
 C616 C 0.67496 0.86782 0.84169
 N617 N 0.67005 0.87486 0.82921
 C618 C 0.65754 0.86775 0.82443
 C619 C 0.63175 0.84204 0.82462
 N620 N 0.62470 0.82954 0.82952
 C621 C 0.63186 0.82473 0.84197
 C622 C 0.65772 0.82479 0.86756
 N623 N 0.67025 0.82965 0.87459
 C624 C 0.67507 0.84213 0.86749
 H625 H 0.68492 0.87069 0.84787
 H626 H 0.65105 0.87078 0.81473
 H627 H 0.62887 0.84822 0.81468
 H628 H 0.62885 0.81500 0.84843
 H629 H 0.65129 0.81507 0.87065
 H630 H 0.68503 0.84835 0.87028
 C631 C 0.16586 0.35582 0.84514
 C632 C 0.16589 0.34484 0.85625
 C633 C 0.15501 0.33392 0.85631
 C634 C 0.14398 0.33381 0.84525
 C635 C 0.14393 0.34465 0.83431
 C636 C 0.15496 0.35574 0.83426
 C637 C 0.17533 0.36747 0.84204
 N638 N 0.17046 0.37448 0.82954
 C639 C 0.15797 0.36735 0.82473
 C640 C 0.13227 0.34153 0.82486
 N641 N 0.12522 0.32903 0.82976
 C642 C 0.13235 0.32426 0.84225
 C643 C 0.15809 0.32451 0.86801
 N644 N 0.17060 0.32943 0.87505
 C645 C 0.17541 0.34189 0.86789
 H646 H 0.18506 0.37057 0.84846
 H647 H 0.15174 0.37012 0.81479
 H648 H 0.12940 0.34769 0.81490
 H649 H 0.12931 0.31457 0.84874
 H650 H 0.15191 0.31457 0.87090
 H651 H 0.18514 0.34837 0.87089
 C652 C 0.16603 0.85606 0.34495
 C653 C 0.16603 0.84508 0.35606
 C654 C 0.15511 0.83421 0.35614
 C655 C 0.14405 0.83414 0.34509
 C656 C 0.14404 0.84498 0.33415
 C657 C 0.15511 0.85602 0.33409
 C658 C 0.17556 0.86765 0.34184
 N659 N 0.17071 0.87469 0.32933
 C660 C 0.15817 0.86762 0.32455
 C661 C 0.13235 0.84192 0.32472
 N662 N 0.12525 0.82946 0.32963
 C663 C 0.13237 0.82465 0.34211
 C664 C 0.15817 0.82479 0.36783
 N665 N 0.17070 0.82965 0.37485
 C666 C 0.17556 0.84209 0.36768
 H667 H 0.18532 0.87071 0.34824
 H668 H 0.15194 0.87042 0.31461
 H669 H 0.12949 0.84810 0.31477
 H670 H 0.12931 0.81497 0.34860
 H671 H 0.15194 0.81487 0.37073
 H672 H 0.18532 0.84852 0.37067
 O673 O 0.25164 1.01411 0.23046
 O674 O 0.23108 0.98510 0.25090
 O675 O 0.23108 1.01416 0.25088
 O676 O 0.25164 0.98505 0.23048
 O677 O 0.26898 0.98508 0.24790
 O678 O 0.24844 1.01418 0.26829
 O679 O 0.24843 0.98513 0.26831
 O680 O 0.26898 1.01413 0.24787
 Cu681 Cu 0.23962 0.99960 0.23894
 Cu682 Cu 0.26045 0.99963 0.25984
 C683 C 0.26381 1.01912 0.23568
 C684 C 0.23625 0.98011 0.26309
 C685 C 0.23626 1.01919 0.26306
 C686 C 0.26382 0.98005 0.23572
 O687 O 0.24766 0.51434 0.76861
 O688 O 0.26822 0.48532 0.74812
 O689 O 0.26815 0.51437 0.74814
 O690 O 0.24771 0.48529 0.76857
 O691 O 0.23032 0.48525 0.75120
 O692 O 0.25077 0.51434 0.73076
 O693 O 0.25084 0.48528 0.73074
 O694 O 0.23027 0.51431 0.75124
 Cu695 Cu 0.25967 0.49983 0.76010
 Cu696 Cu 0.23881 0.49979 0.73924
 C697 C 0.23546 0.51933 0.76342
 C698 C 0.26304 0.48030 0.73594
 C699 C 0.26295 0.51936 0.73597
 C700 C 0.23553 0.48025 0.76337
 O701 O 0.74861 -0.01411 0.23136
 O702 O 0.76925 0.01482 0.25194
 O703 O 0.76909 -0.01425 0.25188
 O704 O 0.74875 0.01496 0.23143
 O705 O 0.73136 0.01503 0.24876
 O706 O 0.75169 -0.01416 0.26922
 O707 O 0.75185 0.01490 0.26927
 O708 O 0.73121 -0.01403 0.24870
 Cu709 Cu 0.76067 0.00034 0.23992
 Cu710 Cu 0.73978 0.00044 0.26072
 C711 C 0.73639 -0.01906 0.23653
 C712 C 0.76406 0.01984 0.26411
 C713 C 0.76385 -0.01924 0.26404
 C714 C 0.73659 0.02003 0.23661
 O715 O 0.74775 0.48501 0.73178
 O716 O 0.76828 0.51396 0.75241
 O717 O 0.76824 0.48490 0.75228
 O718 O 0.74782 0.51407 0.73189
 O719 O 0.73041 0.51407 0.74922
 O720 O 0.75084 0.48488 0.76962
 O721 O 0.75088 0.51395 0.76975
 O722 O 0.73034 0.48500 0.74911
 Cu723 Cu 0.75977 0.49948 0.74036
 Cu724 Cu 0.73887 0.49947 0.76116
 C725 C 0.73554 0.48001 0.73693
 C726 C 0.76308 0.51895 0.76459
 C727 C 0.76302 0.47986 0.76442
 C728 C 0.73564 0.51911 0.73708
 O729 O 0.23128 0.51505 0.24822
 O730 O 0.25178 0.48609 0.26881
 O731 O 0.25180 0.51515 0.26869
 O732 O 0.23129 0.48599 0.24831
 O733 O 0.24867 0.48590 0.23095
 O734 O 0.26918 0.51505 0.25134
 O735 O 0.26916 0.48598 0.25146
 O736 O 0.24865 0.51497 0.23086
 Cu737 Cu 0.23979 0.50058 0.26024
 Cu738 Cu 0.26066 0.50047 0.23941
 C739 C 0.23647 0.52001 0.23603
 C740 C 0.26396 0.48104 0.26364
 C741 C 0.26398 0.52013 0.26348
 C742 C 0.23648 0.48092 0.23616
 O743 O 0.74815 1.01479 0.76938
 O744 O 0.76863 0.98579 0.74878
 O745 O 0.76866 1.01484 0.74893
 O746 O 0.74815 0.98573 0.76926
 O747 O 0.73076 0.98580 0.75189
 O748 O 0.75127 1.01492 0.73156
 O749 O 0.75125 0.98586 0.73140
 O750 O 0.73076 1.01486 0.75201
 Cu751 Cu 0.76014 1.00028 0.76083
 Cu752 Cu 0.73927 1.00037 0.73998
 C753 C 0.73596 1.01982 0.76421
 C754 C 0.76343 0.98082 0.73658
 C755 C 0.76346 1.01990 0.73678
 C756 C 0.73596 0.98074 0.76404
 O757 O 0.73086 0.48551 0.25102
 O758 O 0.75133 0.51464 0.23067
 O759 O 0.75140 0.48558 0.23058
 O760 O 0.73082 0.51458 0.25113
 O761 O 0.74820 0.51456 0.26851
 O762 O 0.76877 0.48558 0.24798
 O763 O 0.76871 0.51463 0.24805
 O764 O 0.74824 0.48550 0.26841
 Cu765 Cu 0.73936 0.50008 0.23911
 Cu766 Cu 0.76022 0.50007 0.25998
 C767 C 0.73606 0.48048 0.26318
 C768 C 0.76351 0.51966 0.23589
 C769 C 0.76359 0.48058 0.23578
 C770 C 0.73601 0.51957 0.26332
 O771 O 0.24803 -0.01493 0.73141
 O772 O 0.26849 0.01410 0.75200
 O773 O 0.26848 -0.01496 0.75195
 O774 O 0.24801 0.01413 0.73149
 O775 O 0.23059 0.01412 0.74880
 O776 O 0.25107 -0.01498 0.76927
 O777 O 0.25108 0.01409 0.76933
 O778 O 0.23061 -0.01495 0.74873
 Cu779 Cu 0.26000 -0.00042 0.73998
 Cu780 Cu 0.23909 -0.00043 0.76077
 C781 C 0.23583 -0.01995 0.73656
 C782 C 0.26327 0.01911 0.76417
 C783 C 0.26326 -0.01999 0.76410
 C784 C 0.23582 0.01915 0.73666
 O785 O 0.24841 0.26888 0.98575
 O786 O 0.26897 0.24837 1.01472
 O787 O 0.26886 0.24830 0.98570
 O788 O 0.24851 0.26893 1.01476
 O789 O 0.23109 0.25159 1.01482
 O790 O 0.25143 0.23096 0.98576
 O791 O 0.25154 0.23102 1.01477
 O792 O 0.23098 0.25154 0.98580
 Cu793 Cu 0.26043 0.26036 1.00022
 Cu794 Cu 0.23951 0.23954 1.00030
 C795 C 0.23619 0.26370 0.98078
 C796 C 0.26376 0.23620 1.01974
 C797 C 0.26361 0.23612 0.98072
 C798 C 0.23633 0.26377 1.01980
 O799 O 0.24843 0.76890 0.48551
 O800 O 0.26896 0.74828 0.51444
 O801 O 0.26894 0.74839 0.48543
 O802 O 0.24848 0.76883 0.51453
 O803 O 0.23109 0.75145 0.51446
 O804 O 0.25155 0.73101 0.48535
 O805 O 0.25157 0.73091 0.51437
 O806 O 0.23104 0.75152 0.48545
 Cu807 Cu 0.26044 0.76034 0.49998
 Cu808 Cu 0.23957 0.73948 0.49990
 C809 C 0.23623 0.76372 0.48049
 C810 C 0.26376 0.73608 0.51939
 C811 C 0.26374 0.73622 0.48037
 C812 C 0.23630 0.76362 0.51951
 O813 O 0.24803 0.73119 0.01439
 O814 O 0.26852 0.75141 -0.01479
 O815 O 0.26858 0.75164 0.01421
 O816 O 0.24798 0.73095 -0.01462
 O817 O 0.23062 0.74838 -0.01473
 O818 O 0.25123 0.76908 0.01413
 O819 O 0.25117 0.76885 -0.01489
 O820 O 0.23067 0.74862 0.01429
 Cu821 Cu 0.26001 0.73955 -0.00019
 Cu822 Cu 0.23919 0.76048 -0.00031
 C823 C 0.23586 0.73646 0.01937
 C824 C 0.26334 0.76358 -0.01987
 C825 C 0.26341 0.76388 0.01915
 C826 C 0.23579 0.73614 -0.01965
 O827 O 0.23112 0.24801 0.48529
 O828 O 0.25159 0.26856 0.51433
 O829 O 0.25158 0.26855 0.48531
 O830 O 0.23111 0.24803 0.51430
 O831 O 0.24853 0.23067 0.51431
 O832 O 0.26900 0.25119 0.48531
 O833 O 0.26901 0.25120 0.51433
 O834 O 0.24854 0.23064 0.48529
 Cu835 Cu 0.23960 0.26003 0.49981
 Cu836 Cu 0.26052 0.23919 0.49981
 C837 C 0.23634 0.23582 0.48028
 C838 C 0.26378 0.26338 0.51934
 C839 C 0.26378 0.26337 0.48031
 C840 C 0.23634 0.23586 0.51931
 O841 O 0.75171 0.73166 0.98524
 O842 O 0.73131 0.75227 1.01427
 O843 O 0.73127 0.75225 0.98526
 O844 O 0.75179 0.73173 1.01425
 O845 O 0.76922 0.74907 1.01422
 O846 O 0.74869 0.76960 0.98523
 O847 O 0.74874 0.76962 1.01425
 O848 O 0.76913 0.74901 0.98520
 Cu849 Cu 0.73978 0.74024 0.99976
 Cu850 Cu 0.76069 0.76106 0.99972
 C851 C 0.76390 0.73682 0.98021
 C852 C 0.73655 0.76445 1.01927
 C853 C 0.73648 0.76442 0.98025
 C854 C 0.76400 0.73690 1.01923
 O855 O 0.74872 0.26920 0.48551
 O856 O 0.76917 0.24880 0.51464
 O857 O 0.76932 0.24876 0.48563
 O858 O 0.74859 0.26924 0.51452
 O859 O 0.73127 0.25179 0.51442
 O860 O 0.75200 0.23131 0.48553
 O861 O 0.75186 0.23135 0.51454
 O862 O 0.73141 0.25174 0.48541
 Cu863 Cu 0.76068 0.26075 0.50008
 Cu864 Cu 0.73990 0.23980 0.49997
 C865 C 0.73658 0.26395 0.48044
 C866 C 0.76400 0.23660 0.51961
 C867 C 0.76419 0.23654 0.48060
 C868 C 0.73640 0.26400 0.51945
 O869 O 0.76927 0.25122 -0.01448
 O870 O 0.74885 0.23084 0.01463
 O871 O 0.74868 0.23080 -0.01438
 O872 O 0.76941 0.25128 0.01454
 O873 O 0.75209 0.26874 0.01459
 O874 O 0.73137 0.24827 -0.01431
 O875 O 0.73153 0.24830 0.01470
 O876 O 0.75195 0.26868 -0.01442
 Cu877 Cu 0.76079 0.23928 0.00007
 Cu878 Cu 0.74000 0.26025 0.00014
 C879 C 0.76409 0.26342 -0.01948
 C880 C 0.73671 0.23610 0.01969
 C881 C 0.73649 0.23605 -0.01933
 C882 C 0.76428 0.26350 0.01955
 O883 O 0.73116 0.74876 0.48596
 O884 O 0.75170 0.76944 0.51487
 O885 O 0.75157 0.76936 0.48585
 O886 O 0.73129 0.74883 0.51498
 O887 O 0.74877 0.73152 0.51493
 O888 O 0.76903 0.75204 0.48581
 O889 O 0.76917 0.75212 0.51482
 O890 O 0.74863 0.73145 0.48593
 Cu891 Cu 0.73968 0.76084 0.50042
 Cu892 Cu 0.76065 0.74005 0.50037
 C893 C 0.73639 0.73658 0.48096
 C894 C 0.76394 0.76430 0.51983
 C895 C 0.76376 0.76419 0.48080
 C896 C 0.73658 0.73667 0.51998
 O897 O 1.01502 0.26860 0.24819
 O898 O 0.98608 0.24800 0.26865
 O899 O 1.01512 0.24808 0.26864
 O900 O 0.98598 0.26850 0.24819
 O901 O 0.98602 0.25111 0.23081
 O902 O 1.01516 0.23068 0.25126
 O903 O 0.98610 0.23060 0.25127
 O904 O 1.01507 0.25121 0.23081
 Cu905 Cu 1.00055 0.26004 0.26016
 Cu906 Cu 1.00059 0.23916 0.23929
 C907 C 1.02004 0.26342 0.23601
 C908 C 0.98110 0.23580 0.26345
 C909 C 1.02016 0.23590 0.26343
 C910 C 0.98098 0.26329 0.23601
 O911 O 0.51435 0.23055 0.75161
 O912 O 0.48527 0.25094 0.73103
 O913 O 0.51432 0.25102 0.73111
 O914 O 0.48529 0.23050 0.75157
 O915 O 0.48524 0.24795 0.76889
 O916 O 0.51425 0.26847 0.74844
 O917 O 0.48520 0.26838 0.74836
 O918 O 0.51428 0.24800 0.76894
 Cu919 Cu 0.49982 0.23901 0.73959
 Cu920 Cu 0.49974 0.25995 0.76039
 C921 C 0.51933 0.23580 0.76379
 C922 C 0.48022 0.26313 0.73619
 C923 C 0.51929 0.26324 0.73629
 C924 C 0.48026 0.23573 0.76372
 O925 O -0.01454 0.23093 0.74817
 O926 O 0.01445 0.25143 0.76877
 O927 O -0.01460 0.25143 0.76868
 O928 O 0.01452 0.23096 0.74822
 O929 O 0.01453 0.24838 0.73091
 O930 O -0.01458 0.26885 0.75136
 O931 O 0.01447 0.26885 0.75146
 O932 O -0.01453 0.24835 0.73085
 Cu933 Cu -0.00004 0.23944 0.76019
 Cu934 Cu -0.00003 0.26035 0.73941
 C935 C -0.01954 0.23615 0.73600
 C936 C 0.01946 0.26363 0.76363
 C937 C -0.01962 0.26363 0.76350
 C938 C 0.01955 0.23619 0.73608
 O939 O 0.48520 0.26905 0.25182
 O940 O 0.51423 0.24857 0.23127
 O941 O 0.48517 0.24857 0.23130
 O942 O 0.51426 0.26907 0.25178
 O943 O 0.51431 0.25166 0.26910
 O944 O 0.48523 0.23116 0.24863
 O945 O 0.51428 0.23116 0.24860
 O946 O 0.48525 0.25165 0.26916
 Cu947 Cu 0.49971 0.26056 0.23981
 Cu948 Cu 0.49977 0.23967 0.26061
 C949 C 0.48022 0.26384 0.26399
 C950 C 0.51926 0.23638 0.23643
 C951 C 0.48019 0.23637 0.23647
 C952 C 0.51930 0.26386 0.26393
 O953 O 1.01455 0.76882 0.74891
 O954 O 0.98542 0.74833 0.76925
 O955 O 1.01446 0.74829 0.76935
 O956 O 0.98550 0.76887 0.74881
 O957 O 0.98552 0.75150 0.73141
 O958 O 1.01449 0.73091 0.75195
 O959 O 0.98544 0.73096 0.75184
 O960 O 1.01457 0.75145 0.73151
 Cu961 Cu 0.99998 0.76032 0.76082
 Cu962 Cu 1.00001 0.73947 0.73994
 C963 C 1.01958 0.76362 0.73674
 C964 C 0.98041 0.73615 0.76401
 C965 C 1.01947 0.73609 0.76415
 C966 C 0.98052 0.76370 0.73661
 O967 O 0.51533 0.76901 0.24792
 O968 O 0.48624 0.74871 0.26850
 O969 O 0.51529 0.74868 0.26856
 O970 O 0.48628 0.76906 0.24788
 O971 O 0.48628 0.75152 0.23065
 O972 O 0.51530 0.73114 0.25133
 O973 O 0.48625 0.73117 0.25127
 O974 O 0.51533 0.75148 0.23069
 Cu975 Cu 0.50079 0.76062 0.25994
 Cu976 Cu 0.50079 0.73957 0.23925
 C977 C 0.52034 0.76371 0.23579
 C978 C 0.48123 0.73648 0.26339
 C979 C 0.52029 0.73644 0.26347
 C980 C 0.48128 0.76376 0.23574
 O981 O -0.01487 0.73177 0.24822
 O982 O 0.01416 0.75222 0.26878
 O983 O -0.01488 0.75223 0.26876
 O984 O 0.01418 0.73181 0.24819
 O985 O 0.01414 0.74926 0.23090
 O986 O -0.01492 0.76968 0.25148
 O987 O 0.01414 0.76968 0.25150
 O988 O -0.01492 0.74921 0.23093
 Cu989 Cu -0.00035 0.74026 0.26022
 Cu990 Cu -0.00040 0.76121 0.23947
 C991 C -0.01991 0.73700 0.23607
 C992 C 0.01916 0.76443 0.26364
 C993 C -0.01992 0.76443 0.26363
 C994 C 0.01917 0.73706 0.23604
 O995 O 0.51417 0.75168 0.76845
 O996 O 0.48530 0.73107 0.74780
 O997 O 0.51436 0.73117 0.74796
 O998 O 0.48513 0.75156 0.76832
 O999 O 0.48512 0.76896 0.75098
 O1000 O 0.51436 0.74857 0.73063
 O1001 O 0.48530 0.74847 0.73046
 O1002 O 0.51418 0.76909 0.75112
 Cu1003 Cu 0.49974 0.73963 0.75987
 Cu1004 Cu 0.49974 0.76052 0.73906
 C1005 C 0.51915 0.76390 0.76331
 C1006 C 0.48032 0.73626 0.73561
 C1007 C 0.51941 0.73640 0.73583
 C1008 C 0.48009 0.76374 0.76312
 C1009 C 0.41102 0.30832 0.30820
 C1010 C 0.40103 0.31689 0.29983
 C1011 C 0.38900 0.32394 0.30678
 C1012 C 0.38678 0.32251 0.32223
 C1013 C 0.39694 0.31392 0.33055
 C1014 C 0.40897 0.30688 0.32357
 C1015 C 0.42325 0.30089 0.30095
 C1016 C 0.43340 0.29462 0.29477
 C1017 C 0.44540 0.28708 0.28725
 C1018 C 0.45113 0.29288 0.27398
 C1019 C 0.46255 0.28539 0.26646
 C1020 C 0.46837 0.27196 0.27213
 C1021 C 0.46259 0.26628 0.28553
 C1022 C 0.45118 0.27379 0.29303
 H1023 H 0.40248 0.31803 0.28791
 H1024 H 0.38129 0.33028 0.30002
 H1025 H 0.39567 0.31275 0.34247
 H1026 H 0.41666 0.30029 0.33016
 H1027 H 0.44672 0.30315 0.26940
 H1028 H 0.46674 0.29007 0.25618
 H1029 H 0.46682 0.25597 0.29019
 H1030 H 0.44680 0.26919 0.30328
 C1031 C 0.41077 0.80794 0.80744
 C1032 C 0.40396 0.82032 0.80092
 C1033 C 0.39188 0.82727 0.80789
 C1034 C 0.38626 0.82194 0.82163
 C1035 C 0.39346 0.80945 0.82808
 C1036 C 0.40553 0.80257 0.82104
 C1037 C 0.42299 0.80062 0.80006
 C1038 C 0.43314 0.79440 0.79381
 C1039 C 0.44514 0.78689 0.78628
 C1040 C 0.45090 0.79271 0.77303
 C1041 C 0.46235 0.78524 0.76554
 C1042 C 0.46818 0.77182 0.77121
 C1043 C 0.46238 0.76612 0.78460
 C1044 C 0.45093 0.77361 0.79207
 H1045 H 0.40792 0.82456 0.79034
 H1046 H 0.38698 0.83666 0.80221
 H1047 H 0.39000 0.80485 0.83862
 H1048 H 0.41077 0.79299 0.82622
 H1049 H 0.44648 0.80297 0.76845
 H1050 H 0.46656 0.78993 0.75526
 H1051 H 0.46662 0.75583 0.78927
 H1052 H 0.44655 0.76900 0.80231
 C1053 C -0.08890 0.30796 0.80775
 C1054 C -0.09411 0.30265 0.82139
 C1055 C -0.10620 0.30953 0.82840
 C1056 C -0.11344 0.32196 0.82188
 C1057 C -0.10785 0.32723 0.80811
 C1058 C -0.09575 0.32028 0.80117
 C1059 C -0.07667 0.30062 0.80040
 C1060 C -0.06651 0.29439 0.79418
 C1061 C -0.05451 0.28686 0.78667
 C1062 C -0.04875 0.27356 0.79245
 C1063 C -0.03732 0.26605 0.78498
 C1064 C -0.03149 0.27175 0.77160
 C1065 C -0.03729 0.28518 0.76594
 C1066 C -0.04872 0.29267 0.77343
 H1067 H -0.08884 0.29311 0.82661
 H1068 H -0.10963 0.30498 0.83896
 H1069 H -0.11278 0.33657 0.80238
 H1070 H -0.09181 0.32448 0.79057
 H1071 H -0.05316 0.26895 0.80269
 H1072 H -0.03311 0.25574 0.78964
 H1073 H -0.03306 0.28987 0.75567
 H1074 H -0.05311 0.30295 0.76885
 C1075 C -0.08909 0.80858 0.30821
 C1076 C -0.09575 0.80198 0.32059
 C1077 C -0.10783 0.80886 0.32762
 C1078 C -0.11362 0.82258 0.32237
 C1079 C -0.10658 0.82912 0.30986
 C1080 C -0.09449 0.82217 0.30290
 C1081 C -0.07687 0.80128 0.30080
 C1082 C -0.06673 0.79508 0.29453
 C1083 C -0.05474 0.78758 0.28696
 C1084 C -0.04896 0.77427 0.29269
 C1085 C -0.03755 0.76679 0.28517
 C1086 C -0.03177 0.77253 0.27179
 C1087 C -0.03759 0.78597 0.26617
 C1088 C -0.04900 0.79344 0.27372
 H1089 H -0.09166 0.79141 0.32479
 H1090 H -0.11260 0.80311 0.33702
 H1091 H -0.11017 0.83965 0.30530
 H1092 H -0.08938 0.82741 0.29331
 H1093 H -0.05334 0.76964 0.30293
 H1094 H -0.03332 0.75647 0.28979
 H1095 H -0.03339 0.79069 0.25590
 H1096 H -0.05341 0.80372 0.26918
 C1097 C 0.58910 0.69223 0.30856
 C1098 C 0.59911 0.70058 0.31713
 C1099 C 0.61107 0.69355 0.32424
 C1100 C 0.61320 0.67806 0.32284
 C1101 C 0.60302 0.66976 0.31424
 C1102 C 0.59106 0.67681 0.30716
 C1103 C 0.57696 0.69954 0.30104
 C1104 C 0.56688 0.70575 0.29468
 C1105 C 0.55497 0.71327 0.28702
 C1106 C 0.54924 0.72665 0.29267
 C1107 C 0.53788 0.73414 0.28507
 C1108 C 0.53211 0.72835 0.27169
 C1109 C 0.53788 0.71484 0.26615
 C1110 C 0.54924 0.70737 0.27377
 H1111 H 0.59773 0.71253 0.31824
 H1112 H 0.61880 0.70030 0.33058
 H1113 H 0.60423 0.65781 0.31310
 H1114 H 0.58336 0.67024 0.30056
 H1115 H 0.55361 0.73133 0.30291
 H1116 H 0.53369 0.74451 0.28963
 H1117 H 0.53368 0.71008 0.25589
 H1118 H 0.55360 0.69703 0.26929
 C1119 C 0.58832 0.19147 0.80847
 C1120 C 0.59509 0.17906 0.80194
 C1121 C 0.60713 0.17207 0.80893
 C1122 C 0.61277 0.17737 0.82269
 C1123 C 0.60561 0.18989 0.82915
 C1124 C 0.59357 0.19682 0.82209
 C1125 C 0.57614 0.19884 0.80107
 C1126 C 0.56604 0.20508 0.79478
 C1127 C 0.55409 0.21261 0.78718
 C1128 C 0.54838 0.20678 0.77390
 C1129 C 0.53699 0.21425 0.76633
 C1130 C 0.53117 0.22770 0.77196
 C1131 C 0.53692 0.23343 0.78538
 C1132 C 0.54831 0.22592 0.79293
 H1133 H 0.59111 0.17483 0.79135
 H1134 H 0.61199 0.16265 0.80324
 H1135 H 0.60908 0.19448 0.83970
 H1136 H 0.58837 0.20642 0.82728
 H1137 H 0.55279 0.19649 0.76934
 H1138 H 0.53282 0.20955 0.75603
 H1139 H 0.53269 0.24374 0.79001
 H1140 H 0.55266 0.23055 0.80320
 C1141 C 1.08823 0.69137 0.80877
 C1142 C 1.09501 0.69792 0.82115
 C1143 C 1.10703 0.69090 0.82816
 C1144 C 1.11263 0.67710 0.82289
 C1145 C 1.10546 0.67061 0.81041
 C1146 C 1.09344 0.67769 0.80346
 C1147 C 1.07609 0.69879 0.80138
 C1148 C 1.06601 0.70509 0.79510
 C1149 C 1.05410 0.71269 0.78751
 C1150 C 1.04836 0.72600 0.79329
 C1151 C 1.03702 0.73357 0.78576
 C1152 C 1.03126 0.72792 0.77231
 C1153 C 1.03704 0.71447 0.76664
 C1154 C 1.04839 0.70692 0.77420
 H1155 H 1.09106 0.70854 0.82535
 H1156 H 1.11191 0.69661 0.83754
 H1157 H 1.10890 0.66002 0.80586
 H1158 H 1.08823 0.67249 0.79389
 H1159 H 1.05272 0.73057 0.80359
 H1160 H 1.03282 0.74389 0.79042
 H1161 H 1.03286 0.70982 0.75632
 H1162 H 1.05276 0.69663 0.76962
 C1163 C 1.08926 0.19151 0.30791
 C1164 C 1.09453 0.17786 0.30258
 C1165 C 1.10658 0.17082 0.30953
 C1166 C 1.11371 0.17732 0.32203
 C1167 C 1.10805 0.19110 0.32730
 C1168 C 1.09601 0.19808 0.32029
 C1169 C 1.07708 0.19889 0.30052
 C1170 C 1.06696 0.20514 0.29426
 C1171 C 1.05499 0.21268 0.28670
 C1172 C 1.04926 0.20687 0.27341
 C1173 C 1.03785 0.21436 0.26588
 C1174 C 1.03203 0.22779 0.27156
 C1175 C 1.03781 0.23349 0.28498
 C1176 C 1.04922 0.22598 0.29248
 H1177 H 1.08935 0.17265 0.29300
 H1178 H 1.11006 0.16025 0.30497
 H1179 H 1.11290 0.19682 0.33670
 H1180 H 1.09202 0.20868 0.32450
 H1181 H 1.05367 0.19659 0.26883
 H1182 H 1.03366 0.20968 0.25558
 H1183 H 1.03358 0.24379 0.28965
 H1184 H 1.05359 0.23058 0.30276
 C1185 C 0.58825 0.30765 0.69181
 C1186 C 0.59026 0.32306 0.69326
 C1187 C 0.60225 0.33008 0.68621
 C1188 C 0.61239 0.32176 0.67760
 C1189 C 0.61022 0.30628 0.67617
 C1190 C 0.59824 0.29929 0.68323
 C1191 C 0.57607 0.30036 0.69925
 C1192 C 0.56596 0.29413 0.70552
 C1193 C 0.55401 0.28657 0.71307
 C1194 C 0.54822 0.29240 0.72631
 C1195 C 0.53684 0.28487 0.73383
 C1196 C 0.53111 0.27139 0.72818
 C1197 C 0.53695 0.26568 0.71479
 C1198 C 0.54833 0.27323 0.70730
 H1199 H 0.58258 0.32964 0.69985
 H1200 H 0.60349 0.34202 0.68738
 H1201 H 0.61793 0.29952 0.66982
 H1202 H 0.59683 0.28734 0.68209
 H1203 H 0.55256 0.30271 0.73088
 H1204 H 0.53260 0.28957 0.74409
 H1205 H 0.53280 0.25534 0.71015
 H1206 H 0.55275 0.26861 0.69706
 C1207 C 0.58920 0.80813 0.19115
 C1208 C 0.59605 0.80158 0.17882
 C1209 C 0.60806 0.80863 0.17185
 C1210 C 0.61356 0.82248 0.17711
 C1211 C 0.60632 0.82896 0.18955
 C1212 C 0.59432 0.82184 0.19645
 C1213 C 0.57706 0.80068 0.19851
 C1214 C 0.56698 0.79440 0.20478
 C1215 C 0.55506 0.78686 0.21238
 C1216 C 0.54935 0.77349 0.20670
 C1217 C 0.53798 0.76599 0.21426
 C1218 C 0.53218 0.77178 0.22762
 C1219 C 0.53793 0.78528 0.23319
 C1220 C 0.54930 0.79275 0.22561
 H1221 H 0.59218 0.79092 0.17464
 H1222 H 0.61300 0.80293 0.16251
 H1223 H 0.60968 0.83958 0.19409
 H1224 H 0.58905 0.82704 0.20599
 H1225 H 0.55375 0.76882 0.19647
 H1226 H 0.53380 0.75563 0.20967
 H1227 H 0.53372 0.79004 0.24344
 H1228 H 0.55366 0.80309 0.23012
 C1229 C 1.08878 0.30832 0.19169
 C1230 C 1.09547 0.32072 0.19830
 C1231 C 1.10750 0.32779 0.19139
 C1232 C 1.11320 0.32257 0.17764
 C1233 C 1.10611 0.31006 0.17108
 C1234 C 1.09408 0.30305 0.17806
 C1235 C 1.07664 0.30085 0.19901
 C1236 C 1.06656 0.29453 0.20524
 C1237 C 1.05465 0.28689 0.21277
 C1238 C 1.04889 0.29265 0.22606
 C1239 C 1.03755 0.28508 0.23358
 C1240 C 1.03183 0.27161 0.22789
 C1241 C 1.03763 0.26597 0.21446
 C1242 C 1.04897 0.27357 0.20697
 H1243 H 1.09145 0.32489 0.20889
 H1244 H 1.11230 0.33720 0.19715
 H1245 H 1.10962 0.30554 0.16053
 H1246 H 1.08894 0.29345 0.17281
 H1247 H 1.05322 0.30295 0.23066
 H1248 H 1.03333 0.28972 0.24388
 H1249 H 1.03348 0.25564 0.20979
 H1250 H 1.05337 0.26900 0.19670
 C1251 C 1.08873 0.80777 0.69230
 C1252 C 1.09077 0.82318 0.69366
 C1253 C 1.10279 0.83013 0.68659
 C1254 C 1.11293 0.82174 0.67805
 C1255 C 1.11073 0.80626 0.67671
 C1256 C 1.09872 0.79933 0.68380
 C1257 C 1.07652 0.80055 0.69976
 C1258 C 1.06639 0.79437 0.70604
 C1259 C 1.05441 0.78685 0.71358
 C1260 C 1.04866 0.79266 0.72685
 C1261 C 1.03725 0.78517 0.73435
 C1262 C 1.03144 0.77174 0.72866
 C1263 C 1.03724 0.76605 0.71525
 C1264 C 1.04865 0.77357 0.70777
 H1265 H 1.08309 0.82982 0.70020
 H1266 H 1.10405 0.84208 0.68769
 H1267 H 1.11843 0.79944 0.67042
 H1268 H 1.09728 0.78738 0.68272
 H1269 H 1.05306 0.80293 0.73145
 H1270 H 1.03304 0.78985 0.74464
 H1271 H 1.03302 0.75575 0.71056
 H1272 H 1.05303 0.76896 0.69751
 C1273 C 0.41132 0.69152 0.69133
 C1274 C 0.40928 0.69284 0.67594
 C1275 C 0.39725 0.68575 0.66900
 C1276 C 0.38710 0.67723 0.67737
 C1277 C 0.38931 0.67593 0.69283
 C1278 C 0.40133 0.68303 0.69975
 C1279 C 0.42354 0.69901 0.69854
 C1280 C 0.43368 0.70532 0.70472
 C1281 C 0.44564 0.71289 0.71226
 C1282 C 0.45137 0.72620 0.70649
 C1283 C 0.46275 0.73375 0.71401
 C1284 C 0.46853 0.72809 0.72743
 C1285 C 0.46277 0.71464 0.73308
 C1286 C 0.45140 0.70711 0.72553
 H1287 H 0.41697 0.69936 0.66931
 H1288 H 0.39598 0.68682 0.65707
 H1289 H 0.38160 0.66966 0.69964
 H1290 H 0.40277 0.68199 0.71168
 H1291 H 0.44698 0.73078 0.69622
 H1292 H 0.46693 0.74407 0.70936
 H1293 H 0.46697 0.70998 0.74338
 H1294 H 0.44703 0.69683 0.73011
 C1295 C 0.41106 0.19174 0.19226
 C1296 C 0.40107 0.18318 0.20060
 C1297 C 0.38906 0.17610 0.19363
 C1298 C 0.38687 0.17750 0.17817
 C1299 C 0.39703 0.18609 0.16987
 C1300 C 0.40903 0.19315 0.17687
 C1301 C 0.42326 0.19920 0.19953
 C1302 C 0.43339 0.20550 0.20573
 C1303 C 0.44537 0.21307 0.21325
 C1304 C 0.45115 0.20728 0.22651
 C1305 C 0.46256 0.21479 0.23402
 C1306 C 0.46833 0.22823 0.22835
 C1307 C 0.46251 0.23390 0.21495
 C1308 C 0.45110 0.22636 0.20746
 H1309 H 0.40249 0.18206 0.21253
 H1310 H 0.38135 0.16977 0.20038
 H1311 H 0.39578 0.18723 0.15794
 H1312 H 0.41672 0.19973 0.17030
 H1313 H 0.44678 0.19700 0.23110
 H1314 H 0.46679 0.21013 0.24431
 H1315 H 0.46670 0.24421 0.21029
 H1316 H 0.44669 0.23095 0.19721
 C1317 C -0.08905 0.69236 0.19188
 C1318 C -0.09907 0.68387 0.20026
 C1319 C -0.11108 0.67678 0.19330
 C1320 C -0.11325 0.67811 0.17783
 C1321 C -0.10306 0.68663 0.16950
 C1322 C -0.09105 0.69370 0.17649
 C1323 C -0.07684 0.69984 0.19912
 C1324 C -0.06670 0.70614 0.20531
 C1325 C -0.05472 0.71371 0.21283
 C1326 C -0.04891 0.70790 0.22607
 C1327 C -0.03750 0.71541 0.23358
 C1328 C -0.03176 0.72886 0.22794
 C1329 C -0.03760 0.73457 0.21456
 C1330 C -0.04901 0.72703 0.20706
 H1331 H -0.09765 0.68280 0.21219
 H1332 H -0.11881 0.67050 0.20007
 H1333 H -0.10429 0.68772 0.15757
 H1334 H -0.08334 0.70023 0.16989
 H1335 H -0.05326 0.69760 0.23064
 H1336 H -0.03326 0.71072 0.24385
 H1337 H -0.03343 0.74489 0.20992
 H1338 H -0.05344 0.73164 0.19683
 C1339 C -0.08874 0.19173 0.69169
 C1340 C -0.09548 0.17938 0.69830
 C1341 C -0.10758 0.17238 0.69142
 C1342 C -0.11329 0.17761 0.67767
 C1343 C -0.10616 0.19008 0.67112
 C1344 C -0.09406 0.19702 0.67807
 C1345 C -0.07650 0.19911 0.69898
 C1346 C -0.06635 0.20536 0.70519
 C1347 C -0.05435 0.21290 0.71272
 C1348 C -0.04857 0.20708 0.72597
 C1349 C -0.03716 0.21457 0.73349
 C1350 C -0.03138 0.22802 0.72785
 C1351 C -0.03719 0.23372 0.71446
 C1352 C -0.04861 0.22620 0.70696
 H1353 H -0.09145 0.17520 0.70888
 H1354 H -0.11242 0.16301 0.69717
 H1355 H -0.10969 0.19461 0.66058
 H1356 H -0.08888 0.20657 0.67282
 H1357 H -0.05295 0.19680 0.73054
 H1358 H -0.03293 0.20988 0.74377
 H1359 H -0.03300 0.24403 0.70981
 H1360 H -0.05302 0.23081 0.69671
 C1361 C 0.30798 0.41195 0.30846
 C1362 C 0.32339 0.40990 0.30714
 C1363 C 0.33033 0.39786 0.31418
 C1364 C 0.32193 0.38768 0.32266
 C1365 C 0.30646 0.38991 0.32398
 C1366 C 0.29954 0.40195 0.31692
 C1367 C 0.30078 0.42418 0.30098
 C1368 C 0.29462 0.43431 0.29466
 C1369 C 0.28714 0.44629 0.28706
 C1370 C 0.29296 0.45196 0.27377
 C1371 C 0.28550 0.46336 0.26620
 C1372 C 0.27208 0.46922 0.27183
 C1373 C 0.26637 0.46351 0.28525
 C1374 C 0.27386 0.45212 0.29280
 H1375 H 0.33003 0.41760 0.30064
 H1376 H 0.34227 0.39658 0.31311
 H1377 H 0.29963 0.38219 0.33022
 H1378 H 0.28760 0.40340 0.31796
 H1379 H 0.30323 0.44752 0.26922
 H1380 H 0.29019 0.46750 0.25590
 H1381 H 0.25607 0.46777 0.28989
 H1382 H 0.26924 0.44779 0.30307
 C1383 C 0.30761 -0.08929 0.80827
 C1384 C 0.30107 -0.09608 0.82062
 C1385 C 0.30802 -0.10818 0.82754
 C1386 C 0.32177 -0.11385 0.82221
 C1387 C 0.32825 -0.10668 0.80975
 C1388 C 0.32122 -0.09457 0.80290
 C1389 C 0.30025 -0.07705 0.80098
 C1390 C 0.29401 -0.06688 0.79478
 C1391 C 0.28648 -0.05487 0.78727
 C1392 C 0.27318 -0.04912 0.79305
 C1393 C 0.26567 -0.03769 0.78558
 C1394 C 0.27138 -0.03186 0.77220
 C1395 C 0.28482 -0.03765 0.76655
 C1396 C 0.29231 -0.04908 0.77404
 H1397 H 0.29049 -0.09207 0.82487
 H1398 H 0.30232 -0.11306 0.83691
 H1399 H 0.33879 -0.11017 0.80516
 H1400 H 0.32642 -0.08936 0.79334
 H1401 H 0.26857 -0.05354 0.80328
 H1402 H 0.25536 -0.03349 0.79023
 H1403 H 0.28952 -0.03341 0.75629
 H1404 H 0.30259 -0.05347 0.76946
 C1405 C 0.80754 0.41049 0.80834
 C1406 C 0.81994 0.40384 0.80169
 C1407 C 0.82702 0.39175 0.80852
 C1408 C 0.82183 0.38596 0.82223
 C1409 C 0.80931 0.39300 0.82881
 C1410 C 0.80228 0.40508 0.82192
 C1411 C 0.80010 0.42272 0.80111
 C1412 C 0.79381 0.43288 0.79495
 C1413 C 0.78626 0.44490 0.78749
 C1414 C 0.79206 0.45072 0.77426
 C1415 C 0.78457 0.46218 0.76680
 C1416 C 0.77114 0.46796 0.77249
 C1417 C 0.76544 0.46209 0.78586
 C1418 C 0.77296 0.45064 0.79329
 H1419 H 0.82410 0.40793 0.79113
 H1420 H 0.83643 0.38700 0.80274
 H1421 H 0.80479 0.38940 0.83933
 H1422 H 0.79269 0.41018 0.82719
 H1423 H 0.80234 0.44635 0.76966
 H1424 H 0.78925 0.46643 0.75655
 H1425 H 0.75514 0.46629 0.79053
 H1426 H 0.76836 0.44620 0.80352
 C1427 C 0.80786 -0.08864 0.30840
 C1428 C 0.80125 -0.09540 0.32073
 C1429 C 0.80816 -0.10749 0.32772
 C1430 C 0.82192 -0.11319 0.32248
 C1431 C 0.82847 -0.10605 0.31003
 C1432 C 0.82149 -0.09396 0.30311
 C1433 C 0.80056 -0.07640 0.30105
 C1434 C 0.79437 -0.06624 0.29481
 C1435 C 0.78689 -0.05421 0.28726
 C1436 C 0.77363 -0.04838 0.29303
 C1437 C 0.76618 -0.03692 0.28554
 C1438 C 0.77191 -0.03115 0.27215
 C1439 C 0.78531 -0.03703 0.26650
 C1440 C 0.79274 -0.04848 0.27401
 H1441 H 0.79065 -0.09137 0.32492
 H1442 H 0.80240 -0.11234 0.33707
 H1443 H 0.83903 -0.10957 0.30549
 H1444 H 0.82674 -0.08877 0.29357
 H1445 H 0.76899 -0.05275 0.30328
 H1446 H 0.75589 -0.03265 0.29019
 H1447 H 0.79002 -0.03284 0.25622
 H1448 H 0.80300 -0.05293 0.26944
 C1449 C 0.30777 0.58821 0.69169
 C1450 C 0.30640 0.59015 0.67630
 C1451 C 0.31351 0.60211 0.66928
 C1452 C 0.32209 0.61229 0.67760
 C1453 C 0.32344 0.61018 0.69306
 C1454 C 0.31632 0.59822 0.70005
 C1455 C 0.30025 0.57606 0.69897
 C1456 C 0.29391 0.56598 0.70518
 C1457 C 0.28630 0.55406 0.71272
 C1458 C 0.27301 0.54833 0.70692
 C1459 C 0.26544 0.53696 0.71442
 C1460 C 0.27110 0.53119 0.72785
 C1461 C 0.28453 0.53697 0.73354
 C1462 C 0.29207 0.54834 0.72602
 H1463 H 0.29983 0.58245 0.66971
 H1464 H 0.31240 0.60331 0.65735
 H1465 H 0.32977 0.61791 0.69982
 H1466 H 0.31740 0.59685 0.71198
 H1467 H 0.26844 0.55269 0.69663
 H1468 H 0.25514 0.53276 0.70974
 H1469 H 0.28918 0.53279 0.74385
 H1470 H 0.30234 0.55271 0.73062
 C1471 C 0.30835 1.08811 0.19136
 C1472 C 0.30181 1.09480 0.17894
 C1473 C 0.30874 1.10687 0.17197
 C1474 C 0.32245 1.11262 0.17732
 C1475 C 0.32893 1.10553 0.18984
 C1476 C 0.32193 1.09346 0.19675
 C1477 C 0.30099 1.07591 0.19871
 C1478 C 0.29474 1.06580 0.20495
 C1479 C 0.28717 1.05384 0.21247
 C1480 C 0.27388 1.04810 0.20665
 C1481 C 0.26633 1.03672 0.21414
 C1482 C 0.27197 1.03094 0.22757
 C1483 C 0.28540 1.03673 0.23328
 C1484 C 0.29293 1.04811 0.22577
 H1485 H 0.29125 1.09074 0.17469
 H1486 H 0.30304 1.11167 0.16255
 H1487 H 0.33945 1.10909 0.19446
 H1488 H 0.32713 1.08832 0.20636
 H1489 H 0.26931 1.05247 0.19637
 H1490 H 0.25603 1.03251 0.20945
 H1491 H 0.29004 1.03254 0.24359
 H1492 H 0.30320 1.05249 0.23038
 C1493 C 0.80772 0.58886 0.19156
 C1494 C 0.79933 0.59886 0.18303
 C1495 C 0.80629 0.61089 0.17600
 C1496 C 0.82177 0.61308 0.17742
 C1497 C 0.83011 0.60291 0.18598
 C1498 C 0.82312 0.59088 0.19299
 C1499 C 0.80046 0.57664 0.19897
 C1500 C 0.79427 0.56650 0.20522
 C1501 C 0.78674 0.55451 0.21274
 C1502 C 0.77345 0.54875 0.20694
 C1503 C 0.76594 0.53733 0.21440
 C1504 C 0.77163 0.53153 0.22780
 C1505 C 0.78505 0.53732 0.23350
 C1506 C 0.79255 0.54874 0.22601
 H1507 H 0.78739 0.59743 0.18190
 H1508 H 0.79951 0.61861 0.16970
 H1509 H 0.84205 0.60417 0.18714
 H1510 H 0.82972 0.58318 0.19954
 H1511 H 0.76885 0.55315 0.19669
 H1512 H 0.75564 0.53313 0.20972
 H1513 H 0.78973 0.53310 0.24378
 H1514 H 0.80282 0.55313 0.23061
 C1515 C 0.80777 1.08900 0.69239
 C1516 C 0.79937 1.09902 0.68389
 C1517 C 0.80633 1.11101 0.67681
 C1518 C 0.82182 1.11316 0.67814
 C1519 C 0.83017 1.10299 0.68668
 C1520 C 0.82318 1.09099 0.69375
 C1521 C 0.80051 1.07680 0.69984
 C1522 C 0.79431 1.06668 0.70611
 C1523 C 0.78676 1.05471 0.71364
 C1524 C 0.77345 1.04899 0.70784
 C1525 C 0.76591 1.03759 0.71531
 C1526 C 0.77160 1.03176 0.72870
 C1527 C 0.78505 1.03752 0.73438
 C1528 C 0.79256 1.04892 0.72689
 H1529 H 0.78742 1.09762 0.68281
 H1530 H 0.79955 1.11873 0.67052
 H1531 H 0.84212 1.10421 0.68778
 H1532 H 0.82979 1.08328 0.70029
 H1533 H 0.76885 1.05341 0.69760
 H1534 H 0.75560 1.03341 0.71063
 H1535 H 0.78973 1.03328 0.74466
 H1536 H 0.80285 1.05328 0.73149
 C1537 C 0.69184 0.58856 0.30821
 C1538 C 0.70028 0.59847 0.31680
 C1539 C 0.69338 0.61047 0.32396
 C1540 C 0.67791 0.61274 0.32261
 C1541 C 0.66951 0.60266 0.31399
 C1542 C 0.67644 0.59066 0.30684
 C1543 C 0.69904 0.57636 0.30067
 C1544 C 0.70521 0.56624 0.29432
 C1545 C 0.71273 0.55429 0.28671
 C1546 C 0.72603 0.54850 0.29247
 C1547 C 0.73355 0.53713 0.28493
 C1548 C 0.72786 0.53138 0.27149
 C1549 C 0.71443 0.53720 0.26584
 C1550 C 0.70693 0.54859 0.27341
 H1551 H 0.71222 0.59699 0.31789
 H1552 H 0.70020 0.61812 0.33032
 H1553 H 0.65757 0.60397 0.31287
 H1554 H 0.66980 0.58303 0.30024
 H1555 H 0.73063 0.55285 0.30276
 H1556 H 0.74386 0.53290 0.28958
 H1557 H 0.70975 0.53304 0.25552
 H1558 H 0.69665 0.55300 0.26884
 C1559 C 0.69146 1.08875 0.80888
 C1560 C 0.67781 1.09399 0.80357
 C1561 C 0.67076 1.10604 0.81051
 C1562 C 0.67726 1.11320 0.82300
 C1563 C 0.69104 1.10756 0.82826
 C1564 C 0.69802 1.09551 0.82125
 C1565 C 0.69885 1.07657 0.80148
 C1566 C 0.70511 1.06647 0.79520
 C1567 C 0.71267 1.05453 0.78761
 C1568 C 0.70687 1.04882 0.77431
 C1569 C 0.71438 1.03745 0.76674
 C1570 C 0.72782 1.03164 0.77238
 C1571 C 0.73351 1.03739 0.78582
 C1572 C 0.72597 1.04876 0.79337
 H1573 H 0.67259 1.08879 0.79399
 H1574 H 0.66018 1.10951 0.80596
 H1575 H 0.69676 1.11242 0.83765
 H1576 H 0.70863 1.09153 0.82545
 H1577 H 0.69659 1.05322 0.76974
 H1578 H 0.70971 1.03327 0.75643
 H1579 H 0.74382 1.03317 0.79047
 H1580 H 0.73057 1.05312 0.80365
 C1581 C 0.19083 0.58814 0.80813
 C1582 C 0.19616 0.59333 0.82178
 C1583 C 0.18923 0.60535 0.82888
 C1584 C 0.17672 0.61254 0.82243
 C1585 C 0.17144 0.60696 0.80864
 C1586 C 0.17844 0.59494 0.80161
 C1587 C 0.19822 0.57600 0.80069
 C1588 C 0.20449 0.56592 0.79438
 C1589 C 0.21208 0.55400 0.78678
 C1590 C 0.22539 0.54826 0.79255
 C1591 C 0.23295 0.53691 0.78502
 C1592 C 0.22729 0.53114 0.77157
 C1593 C 0.21385 0.53692 0.76591
 C1594 C 0.20631 0.54828 0.77347
 H1595 H 0.20575 0.58811 0.82696
 H1596 H 0.19380 0.60878 0.83945
 H1597 H 0.16204 0.61184 0.80296
 H1598 H 0.17423 0.59100 0.79100
 H1599 H 0.22996 0.55262 0.80284
 H1600 H 0.24327 0.53271 0.78967
 H1601 H 0.20919 0.53274 0.75559
 H1602 H 0.19602 0.55266 0.76890
 C1603 C 0.19182 1.08826 0.30758
 C1604 C 0.19840 1.09486 0.32003
 C1605 C 0.19151 1.10692 0.32710
 C1606 C 0.17780 1.11274 0.32183
 C1607 C 0.17129 1.10574 0.30926
 C1608 C 0.17825 1.09368 0.30225
 C1609 C 0.19914 1.07607 0.30013
 C1610 C 0.20537 1.06595 0.29385
 C1611 C 0.21293 1.05398 0.28629
 C1612 C 0.22621 1.04823 0.29210
 C1613 C 0.23376 1.03683 0.28461
 C1614 C 0.22811 1.03104 0.27117
 C1615 C 0.21469 1.03684 0.26547
 C1616 C 0.20716 1.04824 0.27299
 H1617 H 0.20895 1.09075 0.32424
 H1618 H 0.19724 1.11164 0.33656
 H1619 H 0.16077 1.10936 0.30469
 H1620 H 0.17303 1.08861 0.29261
 H1621 H 0.23079 1.05260 0.30239
 H1622 H 0.24406 1.03261 0.28930
 H1623 H 0.21004 1.03264 0.25516
 H1624 H 0.19689 1.05264 0.26839
 C1625 C 0.69136 0.41102 0.69204
 C1626 C 0.67596 0.40897 0.69343
 C1627 C 0.66898 0.39697 0.68633
 C1628 C 0.67733 0.38684 0.67772
 C1629 C 0.69280 0.38906 0.67634
 C1630 C 0.69975 0.40106 0.68346
 C1631 C 0.69860 0.42321 0.69955
 C1632 C 0.70478 0.43333 0.70588
 C1633 C 0.71230 0.44529 0.71349
 C1634 C 0.70647 0.45102 0.72677
 C1635 C 0.71396 0.46240 0.73435
 C1636 C 0.72741 0.46820 0.72874
 C1637 C 0.73312 0.46244 0.71532
 C1638 C 0.72560 0.45106 0.70777
 H1639 H 0.66935 0.41663 0.70002
 H1640 H 0.65704 0.39570 0.68745
 H1641 H 0.69959 0.38137 0.67000
 H1642 H 0.71169 0.40251 0.68236
 H1643 H 0.69619 0.44663 0.73131
 H1644 H 0.70927 0.46659 0.74464
 H1645 H 0.74344 0.46664 0.71070
 H1646 H 0.73022 0.44669 0.69750
 C1647 C 0.69165 -0.08802 0.19215
 C1648 C 0.68321 -0.09812 0.20048
 C1649 C 0.67620 -0.11015 0.19347
 C1650 C 0.67757 -0.11226 0.17799
 C1651 C 0.68603 -0.10198 0.16971
 C1652 C 0.69302 -0.08995 0.17675
 C1653 C 0.69908 -0.07582 0.19946
 C1654 C 0.70538 -0.06570 0.20568
 C1655 C 0.71297 -0.05374 0.21322
 C1656 C 0.70720 -0.04796 0.22650
 C1657 C 0.71475 -0.03659 0.23403
 C1658 C 0.72820 -0.03086 0.22837
 C1659 C 0.73386 -0.03667 0.21495
 C1660 C 0.72628 -0.04804 0.20744
 H1661 H 0.68213 -0.09677 0.21242
 H1662 H 0.66997 -0.11795 0.20020
 H1663 H 0.68714 -0.10316 0.15778
 H1664 H 0.69951 -0.08217 0.17019
 H1665 H 0.69692 -0.05231 0.23108
 H1666 H 0.71010 -0.03237 0.24433
 H1667 H 0.74418 -0.03251 0.21030
 H1668 H 0.73085 -0.05245 0.19718
 C1669 C 0.19196 0.41155 0.19218
 C1670 C 0.18346 0.40155 0.20057
 C1671 C 0.17642 0.38949 0.19363
 C1672 C 0.17780 0.38727 0.17818
 C1673 C 0.18634 0.39744 0.16984
 C1674 C 0.19336 0.40949 0.17680
 C1675 C 0.19939 0.42380 0.19941
 C1676 C 0.20566 0.43397 0.20557
 C1677 C 0.21321 0.44599 0.21306
 C1678 C 0.20743 0.45181 0.22631
 C1679 C 0.21493 0.46326 0.23378
 C1680 C 0.22835 0.46903 0.22808
 C1681 C 0.23401 0.46318 0.21468
 C1682 C 0.22649 0.45173 0.20724
 H1683 H 0.18235 0.40300 0.21250
 H1684 H 0.17013 0.38178 0.20041
 H1685 H 0.18747 0.39616 0.15791
 H1686 H 0.19990 0.41719 0.17020
 H1687 H 0.19717 0.44743 0.23092
 H1688 H 0.21027 0.46751 0.24406
 H1689 H 0.24431 0.46737 0.21000
 H1690 H 0.23107 0.44730 0.19699
 C1691 C 0.19164 -0.08910 0.69190
 C1692 C 0.17800 -0.09439 0.69717
 C1693 C 0.17102 -0.10646 0.69020
 C1694 C 0.17758 -0.11360 0.67774
 C1695 C 0.19135 -0.10792 0.67253
 C1696 C 0.19826 -0.09585 0.67956
 C1697 C 0.19896 -0.07688 0.69931
 C1698 C 0.20517 -0.06675 0.70559
 C1699 C 0.21267 -0.05476 0.71318
 C1700 C 0.20683 -0.04902 0.72645
 C1701 C 0.21430 -0.03761 0.73401
 C1702 C 0.22773 -0.03179 0.72839
 C1703 C 0.23345 -0.03757 0.71498
 C1704 C 0.22596 -0.04898 0.70744
 H1705 H 0.17275 -0.08920 0.70672
 H1706 H 0.16045 -0.10996 0.69472
 H1707 H 0.19711 -0.11278 0.66317
 H1708 H 0.20887 -0.09184 0.67540
 H1709 H 0.19656 -0.05343 0.73099
 H1710 H 0.20960 -0.03342 0.74430
 H1711 H 0.24376 -0.03335 0.71036
 H1712 H 0.23059 -0.05335 0.69719
 C1713 C 0.30785 0.30804 0.41131
 C1714 C 0.29943 0.31661 0.40137
 C1715 C 0.30636 0.32372 0.38939
 C1716 C 0.32183 0.32233 0.38716
 C1717 C 0.33020 0.31373 0.39726
 C1718 C 0.32325 0.30664 0.40925
 C1719 C 0.30063 0.30056 0.42350
 C1720 C 0.29446 0.29425 0.43362
 C1721 C 0.28696 0.28668 0.44557
 C1722 C 0.27365 0.29245 0.45132
 C1723 C 0.26616 0.28493 0.46271
 C1724 C 0.27188 0.27152 0.46849
 C1725 C 0.28533 0.26586 0.46270
 C1726 C 0.29280 0.27340 0.45131
 H1727 H 0.28749 0.31772 0.40283
 H1728 H 0.29955 0.33006 0.38173
 H1729 H 0.34214 0.31259 0.39598
 H1730 H 0.32987 0.30005 0.41689
 H1731 H 0.26902 0.30271 0.44695
 H1732 H 0.25584 0.28958 0.46691
 H1733 H 0.29003 0.25557 0.46690
 H1734 H 0.30308 0.26883 0.44693
 C1735 C 0.30789 0.80729 -0.08918
 C1736 C 0.30651 0.82270 -0.09119
 C1737 C 0.31350 0.82966 -0.10324
 C1738 C 0.32197 0.82128 -0.11345
 C1739 C 0.32334 0.80580 -0.11127
 C1740 C 0.31634 0.79886 -0.09922
 C1741 C 0.30047 0.80007 -0.07696
 C1742 C 0.29419 0.79394 -0.06680
 C1743 C 0.28662 0.78651 -0.05479
 C1744 C 0.27336 0.79240 -0.04907
 C1745 C 0.26583 0.78501 -0.03763
 C1746 C 0.27147 0.77159 -0.03176
 C1747 C 0.28487 0.76581 -0.03753
 C1748 C 0.29238 0.77323 -0.04897
 H1749 H 0.30002 0.82933 -0.08347
 H1750 H 0.31238 0.84161 -0.10448
 H1751 H 0.32958 0.79899 -0.11902
 H1752 H 0.31742 0.78691 -0.09781
 H1753 H 0.26880 0.80266 -0.05351
 H1754 H 0.25555 0.78975 -0.03345
 H1755 H 0.28951 0.75552 -0.03327
 H1756 H 0.30263 0.76856 -0.05333
 C1757 C 0.80829 0.30730 -0.08890
 C1758 C 0.80683 0.32270 -0.09096
 C1759 C 0.81376 0.32965 -0.10304
 C1760 C 0.82226 0.32128 -0.11324
 C1761 C 0.82371 0.30581 -0.11100
 C1762 C 0.81676 0.29889 -0.09892
 C1763 C 0.80094 0.30009 -0.07663
 C1764 C 0.79472 0.29394 -0.06645
 C1765 C 0.78723 0.28648 -0.05441
 C1766 C 0.77401 0.29237 -0.04859
 C1767 C 0.76653 0.28494 -0.03714
 C1768 C 0.77219 0.27149 -0.03136
 C1769 C 0.78555 0.26572 -0.03722
 C1770 C 0.79300 0.27317 -0.04867
 H1771 H 0.80032 0.32933 -0.08325
 H1772 H 0.81258 0.34159 -0.10433
 H1773 H 0.82998 0.29901 -0.11874
 H1774 H 0.81791 0.28695 -0.09747
 H1775 H 0.76943 0.30265 -0.05297
 H1776 H 0.75627 0.28967 -0.03288
 H1777 H 0.79020 0.25540 -0.03303
 H1778 H 0.80322 0.26851 -0.05311
 C1779 C 0.80779 0.80821 0.41135
 C1780 C 0.80638 0.82361 0.40928
 C1781 C 0.81336 0.83054 0.39722
 C1782 C 0.82186 0.82214 0.38705
 C1783 C 0.82326 0.80667 0.38929
 C1784 C 0.81626 0.79977 0.40135
 C1785 C 0.80042 0.80101 0.42363
 C1786 C 0.79421 0.79486 0.43381
 C1787 C 0.78675 0.78737 0.44585
 C1788 C 0.77347 0.79317 0.45163
 C1789 C 0.76603 0.78570 0.46309
 C1790 C 0.77180 0.77231 0.46891
 C1791 C 0.78522 0.76664 0.46309
 C1792 C 0.79263 0.77413 0.45163
 H1793 H 0.79987 0.83026 0.41698
 H1794 H 0.81222 0.84248 0.39593
 H1795 H 0.82952 0.79984 0.38157
 H1796 H 0.81738 0.78782 0.40281
 H1797 H 0.76881 0.80340 0.44723
 H1798 H 0.75573 0.79036 0.46732
 H1799 H 0.78995 0.75637 0.46731
 H1800 H 0.80289 0.76954 0.44722
 C1801 C 0.69137 0.30810 0.58831
 C1802 C 0.69269 0.32351 0.59036
 C1803 C 0.68561 0.33046 0.60237
 C1804 C 0.67709 0.32206 0.61251
 C1805 C 0.67578 0.30658 0.61028
 C1806 C 0.68287 0.29966 0.59827
 C1807 C 0.69888 0.30088 0.57612
 C1808 C 0.70522 0.29471 0.56601
 C1809 C 0.71285 0.28721 0.55407
 C1810 C 0.72614 0.29307 0.54840
 C1811 C 0.73375 0.28559 0.53705
 C1812 C 0.72817 0.27212 0.53123
 C1813 C 0.71474 0.26638 0.53694
 C1814 C 0.70715 0.27388 0.54829
 H1815 H 0.69923 0.33015 0.58269
 H1816 H 0.68669 0.34241 0.60365
 H1817 H 0.66950 0.29976 0.61797
 H1818 H 0.68182 0.28771 0.59682
 H1819 H 0.73066 0.30337 0.55281
 H1820 H 0.74406 0.29030 0.53290
 H1821 H 0.71014 0.25605 0.53272
 H1822 H 0.69688 0.26924 0.55262
 C1823 C 0.69245 0.80902 1.08843
 C1824 C 0.67705 0.80754 1.09043
 C1825 C 0.67003 0.81451 1.10247
 C1826 C 0.67833 0.82306 1.11268
 C1827 C 0.69380 0.82453 1.11051
 C1828 C 0.70080 0.81755 1.09847
 C1829 C 0.69973 0.80162 1.07621
 C1830 C 0.70593 0.79536 1.06607
 C1831 C 0.71342 0.78779 1.05408
 C1832 C 0.70757 0.77453 1.04831
 C1833 C 0.71502 0.76698 1.03690
 C1834 C 0.72846 0.77261 1.03111
 C1835 C 0.73420 0.78602 1.03692
 C1836 C 0.72672 0.79354 1.04833
 H1837 H 0.67048 0.80098 1.08270
 H1838 H 0.65810 0.81331 1.10371
 H1839 H 0.70055 0.83084 1.11826
 H1840 H 0.71273 0.81872 1.09706
 H1841 H 0.69729 0.76997 1.05270
 H1842 H 0.71031 0.75669 1.03269
 H1843 H 0.74452 0.79066 1.03272
 H1844 H 0.73136 0.80380 1.05273
 C1845 C 0.19210 0.30813 1.08901
 C1846 C 0.19349 0.32354 1.09106
 C1847 C 0.18646 0.33051 1.10309
 C1848 C 0.17792 0.32216 1.11323
 C1849 C 0.17655 0.30667 1.11102
 C1850 C 0.18360 0.29972 1.09900
 C1851 C 0.19951 0.30088 1.07678
 C1852 C 0.20575 0.29468 1.06663
 C1853 C 0.21324 0.28713 1.05463
 C1854 C 0.22652 0.29290 1.04884
 C1855 C 0.23399 0.28537 1.03742
 C1856 C 0.22826 0.27194 1.03165
 C1857 C 0.21485 0.26629 1.03748
 C1858 C 0.20740 0.27384 1.04889
 H1859 H 0.20002 0.33015 1.08337
 H1860 H 0.18758 0.34246 1.10436
 H1861 H 0.17026 0.29988 1.11872
 H1862 H 0.18249 0.28778 1.09755
 H1863 H 0.23115 0.30317 1.05322
 H1864 H 0.24428 0.29002 1.03319
 H1865 H 0.21014 0.25599 1.03329
 H1866 H 0.19714 0.26927 1.05331
 C1867 C 0.19191 0.80771 0.58880
 C1868 C 0.19330 0.82312 0.59086
 C1869 C 0.18628 0.83008 0.60291
 C1870 C 0.17777 0.82171 0.61306
 C1871 C 0.17641 0.80622 0.61084
 C1872 C 0.18344 0.79929 0.59880
 C1873 C 0.19932 0.80048 0.57656
 C1874 C 0.20558 0.79431 0.56640
 C1875 C 0.21310 0.78680 0.55439
 C1876 C 0.22637 0.79262 0.54864
 C1877 C 0.23387 0.78515 0.53721
 C1878 C 0.22819 0.77173 0.53138
 C1879 C 0.21477 0.76603 0.53717
 C1880 C 0.20730 0.77352 0.54860
 H1881 H 0.19981 0.82975 0.58317
 H1882 H 0.18739 0.84203 0.60419
 H1883 H 0.17014 0.79942 0.61855
 H1884 H 0.18235 0.78734 0.59734
 H1885 H 0.23097 0.80289 0.55306
 H1886 H 0.24417 0.78984 0.53301
 H1887 H 0.21010 0.75573 0.53294
 H1888 H 0.19704 0.76891 0.55298
 C1889 C 0.30792 0.69130 0.58835
 C1890 C 0.29952 0.68283 0.59836
 C1891 C 0.30647 0.67576 0.61037
 C1892 C 0.32196 0.67708 0.61254
 C1893 C 0.33032 0.68558 0.60236
 C1894 C 0.32334 0.69264 0.59035
 C1895 C 0.30068 0.69878 0.57616
 C1896 C 0.29450 0.70509 0.56604
 C1897 C 0.28699 0.71268 0.55409
 C1898 C 0.27369 0.70692 0.54830
 C1899 C 0.26619 0.71446 0.53693
 C1900 C 0.27189 0.72790 0.53120
 C1901 C 0.28532 0.73355 0.53702
 C1902 C 0.29281 0.72598 0.54840
 H1903 H 0.28757 0.68178 0.59695
 H1904 H 0.29968 0.66950 0.61809
 H1905 H 0.34227 0.68666 0.60359
 H1906 H 0.32996 0.69915 0.58265
 H1907 H 0.26908 0.69664 0.55264
 H1908 H 0.25588 0.70981 0.53270
 H1909 H 0.29001 0.74386 0.53286
 H1910 H 0.30308 0.73054 0.55281
 C1911 C 0.30799 0.19169 1.08882
 C1912 C 0.29959 0.18313 1.09876
 C1913 C 0.30653 0.17606 1.11078
 C1914 C 0.32200 0.17748 1.11304
 C1915 C 0.33035 0.18608 1.10294
 C1916 C 0.32339 0.19312 1.09091
 C1917 C 0.30076 0.19913 1.07661
 C1918 C 0.29457 0.20540 1.06647
 C1919 C 0.28704 0.21294 1.05449
 C1920 C 0.27372 0.20718 1.04878
 C1921 C 0.26620 0.21467 1.03739
 C1922 C 0.27191 0.22807 1.03156
 C1923 C 0.28537 0.23372 1.03732
 C1924 C 0.29287 0.22620 1.04871
 H1925 H 0.28766 0.18199 1.09728
 H1926 H 0.29974 0.16973 1.11845
 H1927 H 0.34229 0.18723 1.10424
 H1928 H 0.33000 0.19971 1.08327
 H1929 H 0.26910 0.19693 1.05319
 H1930 H 0.25586 0.21002 1.03321
 H1931 H 0.29006 0.24400 1.03309
 H1932 H 0.30317 0.23077 1.05307
 C1933 C 0.80807 0.69234 1.08838
 C1934 C 0.79963 0.68383 1.09832
 C1935 C 0.80652 0.67675 1.11036
 C1936 C 0.82199 0.67811 1.11263
 C1937 C 0.83039 0.68665 1.10252
 C1938 C 0.82347 0.69371 1.09048
 C1939 C 0.80088 0.69979 1.07615
 C1940 C 0.79473 0.70608 1.06600
 C1941 C 0.78723 0.71362 1.05401
 C1942 C 0.77392 0.70786 1.04826
 C1943 C 0.76641 0.71536 1.03686
 C1944 C 0.77213 0.72876 1.03106
 C1945 C 0.78558 0.73441 1.03685
 C1946 C 0.79307 0.72688 1.04825
 H1947 H 0.78769 0.68274 1.09683
 H1948 H 0.79969 0.67046 1.11803
 H1949 H 0.84233 0.68776 1.10384
 H1950 H 0.83012 0.70025 1.08283
 H1951 H 0.76929 0.69761 1.05266
 H1952 H 0.75609 0.71071 1.03266
 H1953 H 0.79028 0.74470 1.03263
 H1954 H 0.80335 0.73145 1.05263
 C1955 C 0.80804 0.19216 0.58886
 C1956 C 0.79959 0.18373 0.59888
 C1957 C 0.80650 0.17666 0.61091
 C1958 C 0.82199 0.17795 0.61310
 C1959 C 0.83039 0.18641 0.60293
 C1960 C 0.82345 0.19346 0.59089
 C1961 C 0.80083 0.19960 0.57663
 C1962 C 0.79467 0.20587 0.56648
 C1963 C 0.78717 0.21341 0.55448
 C1964 C 0.77393 0.20757 0.54866
 C1965 C 0.76643 0.21505 0.53723
 C1966 C 0.77210 0.22850 0.53149
 C1967 C 0.78549 0.23422 0.53735
 C1968 C 0.79296 0.22672 0.54878
 H1969 H 0.78764 0.18270 0.59744
 H1970 H 0.79968 0.17043 0.61863
 H1971 H 0.84234 0.18747 0.60419
 H1972 H 0.83010 0.19994 0.58319
 H1973 H 0.76934 0.19729 0.55301
 H1974 H 0.75616 0.21035 0.53297
 H1975 H 0.79015 0.24454 0.53318
 H1976 H 0.80320 0.23134 0.55322
 C1977 C 0.69214 0.69164 0.41210
 C1978 C 0.70052 0.68310 0.40211
 C1979 C 0.69356 0.67603 0.39010
 C1980 C 0.67808 0.67742 0.38791
 C1981 C 0.66974 0.68598 0.39807
 C1982 C 0.67673 0.69303 0.41009
 C1983 C 0.69940 0.69913 0.42429
 C1984 C 0.70559 0.70546 0.43439
 C1985 C 0.71312 0.71308 0.44633
 C1986 C 0.72647 0.70737 0.45204
 C1987 C 0.73399 0.71495 0.46339
 C1988 C 0.72825 0.72837 0.46918
 C1989 C 0.71477 0.73396 0.46342
 C1990 C 0.70726 0.72636 0.45207
 H1991 H 0.71247 0.68199 0.40353
 H1992 H 0.70034 0.66972 0.38238
 H1993 H 0.65780 0.68712 0.39682
 H1994 H 0.67013 0.69960 0.41778
 H1995 H 0.73111 0.69711 0.44766
 H1996 H 0.74434 0.71034 0.46757
 H1997 H 0.71005 0.74426 0.46762
 H1998 H 0.69695 0.73089 0.44771
 C1999 C 0.69143 0.19198 -0.08823
 C2000 C 0.68292 0.20039 -0.09823
 C2001 C 0.67584 0.19344 -0.11024
 C2002 C 0.67719 0.17795 -0.11244
 C2003 C 0.68571 0.16958 -0.10226
 C2004 C 0.69278 0.17656 -0.09025
 C2005 C 0.69893 0.19922 -0.07605
 C2006 C 0.70528 0.20539 -0.06594
 C2007 C 0.71293 0.21288 -0.05400
 C2008 C 0.70723 0.22621 -0.04821
 C2009 C 0.71483 0.23369 -0.03685
 C2010 C 0.72826 0.22794 -0.03113
 C2011 C 0.73384 0.21447 -0.03695
 C2012 C 0.72622 0.20701 -0.04831
 H2013 H 0.68185 0.21234 -0.09681
 H2014 H 0.66956 0.20024 -0.11796
 H2015 H 0.68681 0.15763 -0.10351
 H2016 H 0.69931 0.16994 -0.08256
 H2017 H 0.69696 0.23086 -0.05255
 H2018 H 0.71023 0.24403 -0.03262
 H2019 H 0.74415 0.20975 -0.03280
 H2020 H 0.73074 0.19671 -0.05273
 C2021 C 0.19148 0.69112 -0.08842
 C2022 C 0.19986 0.68261 -0.09844
 C2023 C 0.19288 0.67553 -0.11044
 C2024 C 0.17740 0.67690 -0.11260
 C2025 C 0.16906 0.68543 -0.10240
 C2026 C 0.17607 0.69249 -0.09040
 C2027 C 0.19875 0.69863 -0.07625
 C2028 C 0.20495 0.70497 -0.06616
 C2029 C 0.21249 0.71261 -0.05424
 C2030 C 0.22577 0.70684 -0.04844
 C2031 C 0.23331 0.71443 -0.03710
 C2032 C 0.22764 0.72792 -0.03141
 C2033 C 0.21421 0.73357 -0.03724
 C2034 C 0.20670 0.72595 -0.04859
 H2035 H 0.21181 0.68153 -0.09705
 H2036 H 0.19966 0.66924 -0.11818
 H2037 H 0.15711 0.68655 -0.10363
 H2038 H 0.16947 0.69904 -0.08269
 H2039 H 0.23036 0.69653 -0.05275
 H2040 H 0.24361 0.70978 -0.03287
 H2041 H 0.20955 0.74392 -0.03312
 H2042 H 0.19643 0.73053 -0.05301
 C2043 C 0.19230 0.19126 0.41104
 C2044 C 0.17690 0.19267 0.40898
 C2045 C 0.16994 0.18567 0.39692
 C2046 C 0.17831 0.17714 0.38674
 C2047 C 0.19378 0.17574 0.38897
 C2048 C 0.20071 0.18276 0.40103
 C2049 C 0.19953 0.19868 0.42328
 C2050 C 0.20569 0.20496 0.43344
 C2051 C 0.21318 0.21251 0.44545
 C2052 C 0.20733 0.22579 0.45121
 C2053 C 0.21480 0.23332 0.46263
 C2054 C 0.22824 0.22767 0.46843
 C2055 C 0.23397 0.21426 0.46263
 C2056 C 0.22648 0.20674 0.45121
 H2057 H 0.17028 0.19921 0.41668
 H2058 H 0.15800 0.18681 0.39564
 H2059 H 0.20058 0.16946 0.38125
 H2060 H 0.21265 0.18164 0.40248
 H2061 H 0.19705 0.23036 0.44681
 H2062 H 0.21009 0.24362 0.46684
 H2063 H 0.24428 0.20961 0.46684
 H2064 H 0.23112 0.19649 0.44681
 C2065 C 0.30794 0.41134 0.69174
 C2066 C 0.30662 0.40936 0.67634
 C2067 C 0.31371 0.39735 0.66936
 C2068 C 0.32222 0.38715 0.67771
 C2069 C 0.32353 0.38931 0.69318
 C2070 C 0.31643 0.40131 0.70013
 C2071 C 0.30043 0.42353 0.69898
 C2072 C 0.29409 0.43364 0.70517
 C2073 C 0.28647 0.44559 0.71270
 C2074 C 0.27316 0.45129 0.70689
 C2075 C 0.26557 0.46267 0.71438
 C2076 C 0.27121 0.46848 0.72782
 C2077 C 0.28466 0.46273 0.73351
 C2078 C 0.29222 0.45135 0.72599
 H2079 H 0.30009 0.41707 0.66973
 H2080 H 0.31263 0.39612 0.65743
 H2081 H 0.32981 0.38156 0.69997
 H2082 H 0.31747 0.40271 0.71207
 H2083 H 0.26860 0.44689 0.69661
 H2084 H 0.25526 0.46684 0.70971
 H2085 H 0.28930 0.46695 0.74382
 H2086 H 0.30251 0.44700 0.73059
 C2087 C 0.30869 0.91104 0.19153
 C2088 C 0.31725 0.90103 0.19986
 C2089 C 0.32435 0.88904 0.19286
 C2090 C 0.32295 0.88690 0.17739
 C2091 C 0.31436 0.89709 0.16911
 C2092 C 0.30728 0.90907 0.17614
 C2093 C 0.30119 0.92321 0.19883
 C2094 C 0.29485 0.93332 0.20503
 C2095 C 0.28723 0.94527 0.21255
 C2096 C 0.29297 0.95103 0.22585
 C2097 C 0.28541 0.96242 0.23335
 C2098 C 0.27199 0.96820 0.22762
 C2099 C 0.26636 0.96239 0.21418
 C2100 C 0.27394 0.95099 0.20671
 H2101 H 0.31836 0.90242 0.21180
 H2102 H 0.33068 0.88131 0.19960
 H2103 H 0.31322 0.89587 0.15718
 H2104 H 0.30070 0.91678 0.16958
 H2105 H 0.30324 0.94667 0.23048
 H2106 H 0.29004 0.96664 0.24366
 H2107 H 0.25607 0.96658 0.20948
 H2108 H 0.26940 0.94659 0.19643
 C2109 C 0.80852 0.41160 0.19164
 C2110 C 0.81702 0.40159 0.20006
 C2111 C 0.82414 0.38958 0.19313
 C2112 C 0.82283 0.38739 0.17767
 C2113 C 0.81431 0.39756 0.16930
 C2114 C 0.80721 0.40958 0.17625
 C2115 C 0.80100 0.42379 0.19886
 C2116 C 0.79465 0.43391 0.20503
 C2117 C 0.78703 0.44587 0.21254
 C2118 C 0.79278 0.45164 0.22584
 C2119 C 0.78522 0.46301 0.23335
 C2120 C 0.77178 0.46876 0.22765
 C2121 C 0.76614 0.46296 0.21422
 C2122 C 0.77373 0.45158 0.20672
 H2123 H 0.81806 0.40302 0.21199
 H2124 H 0.83042 0.38186 0.19994
 H2125 H 0.81324 0.39631 0.15736
 H2126 H 0.80067 0.41727 0.16962
 H2127 H 0.80306 0.44728 0.23045
 H2128 H 0.78986 0.46723 0.24366
 H2129 H 0.75583 0.46713 0.20953
 H2130 H 0.76917 0.44717 0.19645
 C2131 C 0.80809 0.91186 0.69214
 C2132 C 0.80673 0.90986 0.67674
 C2133 C 0.81384 0.89787 0.66975
 C2134 C 0.82242 0.88771 0.67808
 C2135 C 0.82375 0.88987 0.69355
 C2136 C 0.81662 0.90186 0.70051
 C2137 C 0.80060 0.92405 0.69940
 C2138 C 0.79429 0.93416 0.70561
 C2139 C 0.78672 0.94611 0.71319
 C2140 C 0.77343 0.95189 0.70741
 C2141 C 0.76590 0.96327 0.71495
 C2142 C 0.77157 0.96901 0.72840
 C2143 C 0.78500 0.96319 0.73406
 C2144 C 0.79251 0.95181 0.72650
 H2145 H 0.80017 0.91756 0.67015
 H2146 H 0.81275 0.89663 0.65782
 H2147 H 0.83007 0.88216 0.70033
 H2148 H 0.81770 0.90327 0.71245
 H2149 H 0.76885 0.94754 0.69712
 H2150 H 0.75559 0.96750 0.71030
 H2151 H 0.78966 0.96735 0.74438
 H2152 H 0.80278 0.94741 0.73108
 C2153 C 0.69200 0.58873 0.69270
 C2154 C 0.70052 0.59867 0.68425
 C2155 C 0.69370 0.61075 0.67717
 C2156 C 0.67824 0.61308 0.67844
 C2157 C 0.66976 0.60299 0.68693
 C2158 C 0.67661 0.59090 0.69400
 C2159 C 0.69911 0.57643 0.70015
 C2160 C 0.70520 0.56622 0.70642
 C2161 C 0.71262 0.55415 0.71393
 C2162 C 0.72588 0.54832 0.70816
 C2163 C 0.73332 0.53683 0.71562
 C2164 C 0.72758 0.53103 0.72899
 C2165 C 0.71417 0.53689 0.73465
 C2166 C 0.70676 0.54838 0.72716
 H2167 H 0.71246 0.59713 0.68322
 H2168 H 0.70059 0.61841 0.67091
 H2169 H 0.65782 0.60434 0.68798
 H2170 H 0.66990 0.58325 0.70050
 H2171 H 0.73053 0.55271 0.69793
 H2172 H 0.74361 0.53257 0.71096
 H2173 H 0.70946 0.53268 0.74491
 H2174 H 0.69650 0.55283 0.73174
 C2175 C 0.69224 0.08934 0.19244
 C2176 C 0.68369 0.09936 0.20079
 C2177 C 0.67663 0.11137 0.19382
 C2178 C 0.67805 0.11355 0.17837
 C2179 C 0.68664 0.10337 0.17007
 C2180 C 0.69368 0.09136 0.17707
 C2181 C 0.69967 0.07712 0.19970
 C2182 C 0.70594 0.06697 0.20590
 C2183 C 0.71346 0.05496 0.21342
 C2184 C 0.70765 0.04922 0.22668
 C2185 C 0.71511 0.03778 0.23418
 C2186 C 0.72851 0.03193 0.22850
 C2187 C 0.73421 0.03771 0.21510
 C2188 C 0.72673 0.04915 0.20762
 H2189 H 0.68255 0.09794 0.21272
 H2190 H 0.67029 0.11910 0.20058
 H2191 H 0.68780 0.10461 0.15814
 H2192 H 0.70026 0.08365 0.17049
 H2193 H 0.69739 0.05365 0.23127
 H2194 H 0.71042 0.03359 0.24446
 H2195 H 0.74450 0.03345 0.21044
 H2196 H 0.73133 0.05353 0.19737
 C2197 C 0.19179 0.58907 0.19183
 C2198 C 0.19314 0.59109 0.17644
 C2199 C 0.18608 0.60312 0.16949
 C2200 C 0.17754 0.61330 0.17785
 C2201 C 0.17620 0.61111 0.19331
 C2202 C 0.18328 0.59908 0.20023
 C2203 C 0.19927 0.57685 0.19904
 C2204 C 0.20557 0.56672 0.20522
 C2205 C 0.21315 0.55475 0.21274
 C2206 C 0.22643 0.54898 0.20695
 C2207 C 0.23398 0.53759 0.21445
 C2208 C 0.22832 0.53183 0.22788
 C2209 C 0.21489 0.53763 0.23355
 C2210 C 0.20737 0.54902 0.22602
 H2211 H 0.19968 0.58339 0.16982
 H2212 H 0.18718 0.60438 0.15757
 H2213 H 0.16991 0.61883 0.20011
 H2214 H 0.18221 0.59765 0.21216
 H2215 H 0.23101 0.55335 0.19668
 H2216 H 0.24428 0.53337 0.20979
 H2217 H 0.21023 0.53345 0.24385
 H2218 H 0.19710 0.55342 0.23061
 C2219 C 0.19188 0.08852 0.69220
 C2220 C 0.17649 0.09065 0.69356
 C2221 C 0.16958 0.10271 0.68649
 C2222 C 0.17800 0.11281 0.67795
 C2223 C 0.19347 0.11051 0.67661
 C2224 C 0.20034 0.09846 0.68370
 C2225 C 0.19905 0.07626 0.69965
 C2226 C 0.20519 0.06608 0.70592
 C2227 C 0.21267 0.05405 0.71345
 C2228 C 0.20682 0.04828 0.72669
 C2229 C 0.21428 0.03684 0.73419
 C2230 C 0.22771 0.03102 0.72855
 C2231 C 0.23344 0.03683 0.71517
 C2232 C 0.22596 0.04827 0.70769
 H2233 H 0.16982 0.08301 0.70010
 H2234 H 0.15765 0.10404 0.68759
 H2235 H 0.20031 0.11817 0.67032
 H2236 H 0.21228 0.09695 0.68262
 H2237 H 0.19655 0.05269 0.73126
 H2238 H 0.20958 0.03262 0.74446
 H2239 H 0.24375 0.03260 0.71052
 H2240 H 0.23059 0.05267 0.69746
 C2241 C 0.30858 0.58942 0.30751
 C2242 C 0.31710 0.59944 0.29915
 C2243 C 0.32414 0.61147 0.30613
 C2244 C 0.32275 0.61365 0.32159
 C2245 C 0.31421 0.60347 0.32990
 C2246 C 0.30718 0.59143 0.32290
 C2247 C 0.30114 0.57719 0.30025
 C2248 C 0.29486 0.56704 0.29407
 C2249 C 0.28728 0.55503 0.28659
 C2250 C 0.29306 0.54922 0.27333
 C2251 C 0.28555 0.53778 0.26586
 C2252 C 0.27212 0.53201 0.27156
 C2253 C 0.26646 0.53787 0.28496
 C2254 C 0.27400 0.54931 0.29241
 H2255 H 0.31820 0.59801 0.28723
 H2256 H 0.33044 0.61920 0.29937
 H2257 H 0.31308 0.60471 0.34182
 H2258 H 0.30064 0.58372 0.32948
 H2259 H 0.30333 0.55358 0.26872
 H2260 H 0.29020 0.53352 0.25558
 H2261 H 0.25617 0.53369 0.28965
 H2262 H 0.26943 0.55375 0.30266
 C2263 C 0.30777 0.08835 0.80835
 C2264 C 0.31628 0.09834 0.79996
 C2265 C 0.32336 0.11038 0.80689
 C2266 C 0.32200 0.11260 0.82235
 C2267 C 0.31345 0.10245 0.83070
 C2268 C 0.30640 0.09041 0.82374
 C2269 C 0.30032 0.07611 0.80113
 C2270 C 0.29404 0.06595 0.79495
 C2271 C 0.28650 0.05395 0.78743
 C2272 C 0.29231 0.04817 0.77418
 C2273 C 0.28482 0.03675 0.76666
 C2274 C 0.27139 0.03096 0.77231
 C2275 C 0.26570 0.03677 0.78571
 C2276 C 0.27321 0.04820 0.79321
 H2277 H 0.31737 0.09689 0.78803
 H2278 H 0.32965 0.11809 0.80010
 H2279 H 0.31234 0.10372 0.84262
 H2280 H 0.29986 0.08272 0.83035
 H2281 H 0.30258 0.05255 0.76960
 H2282 H 0.28951 0.03252 0.75638
 H2283 H 0.25539 0.03257 0.79036
 H2284 H 0.26861 0.05261 0.80346
 C2285 C 0.80767 0.58821 0.80867
 C2286 C 0.81621 0.59812 0.80021
 C2287 C 0.82332 0.61018 0.80707
 C2288 C 0.82198 0.61250 0.82251
 C2289 C 0.81340 0.60242 0.83092
 C2290 C 0.80631 0.59036 0.82404
 C2291 C 0.80020 0.57594 0.80151
 C2292 C 0.79390 0.56577 0.79537
 C2293 C 0.78636 0.55376 0.78787
 C2294 C 0.79216 0.54797 0.77461
 C2295 C 0.78466 0.53656 0.76709
 C2296 C 0.77123 0.53078 0.77275
 C2297 C 0.76554 0.53660 0.78615
 C2298 C 0.77307 0.54802 0.79365
 H2299 H 0.81729 0.59659 0.78829
 H2300 H 0.82964 0.61782 0.80023
 H2301 H 0.81230 0.60378 0.84284
 H2302 H 0.79974 0.58273 0.83070
 H2303 H 0.80243 0.55235 0.77003
 H2304 H 0.78934 0.53233 0.75681
 H2305 H 0.75523 0.53241 0.79081
 H2306 H 0.76847 0.55243 0.80390
 C2307 C 0.80860 0.08873 0.30880
 C2308 C 0.82401 0.09068 0.30737
 C2309 C 0.83107 0.10268 0.31441
 C2310 C 0.82279 0.11289 0.32298
 C2311 C 0.80731 0.11077 0.32440
 C2312 C 0.80028 0.09878 0.31735
 C2313 C 0.80128 0.07655 0.30135
 C2314 C 0.79504 0.06645 0.29505
 C2315 C 0.78746 0.05451 0.28747
 C2316 C 0.79326 0.04873 0.27420
 C2317 C 0.78572 0.03737 0.26664
 C2318 C 0.77225 0.03164 0.27227
 C2319 C 0.76657 0.03746 0.28568
 C2320 C 0.77413 0.04882 0.29321
 H2321 H 0.83057 0.08295 0.30080
 H2322 H 0.84301 0.10388 0.31325
 H2323 H 0.80058 0.11852 0.33072
 H2324 H 0.78834 0.09740 0.31848
 H2325 H 0.80356 0.05307 0.26965
 H2326 H 0.79039 0.03314 0.25636
 H2327 H 0.75623 0.03330 0.29031
 H2328 H 0.76954 0.05323 0.30346
 C2329 C 0.69199 0.41120 0.30752
 C2330 C 0.67659 0.40914 0.30617
 C2331 C 0.66966 0.39711 0.31324
 C2332 C 0.67806 0.38698 0.32178
 C2333 C 0.69354 0.38920 0.32311
 C2334 C 0.70044 0.40122 0.31601
 C2335 C 0.69919 0.42343 0.30007
 C2336 C 0.70535 0.43359 0.29381
 C2337 C 0.71286 0.44560 0.28630
 C2338 C 0.70705 0.45137 0.27304
 C2339 C 0.71453 0.46280 0.26556
 C2340 C 0.72795 0.46861 0.27126
 C2341 C 0.73364 0.46279 0.28466
 C2342 C 0.72614 0.45136 0.29211
 H2343 H 0.66994 0.41681 0.29963
 H2344 H 0.65771 0.39583 0.31216
 H2345 H 0.70037 0.38151 0.32940
 H2346 H 0.71238 0.40268 0.31708
 H2347 H 0.69678 0.44697 0.26843
 H2348 H 0.70985 0.46702 0.25528
 H2349 H 0.74394 0.46701 0.28934
 H2350 H 0.73075 0.44696 0.30236
 C2351 C 0.69132 0.91158 0.80801
 C2352 C 0.68279 0.90156 0.79964
 C2353 C 0.67573 0.88955 0.80660
 C2354 C 0.67713 0.88739 0.82206
 C2355 C 0.68570 0.89757 0.83038
 C2356 C 0.69274 0.90959 0.82340
 C2357 C 0.69878 0.92379 0.80076
 C2358 C 0.70507 0.93392 0.79459
 C2359 C 0.71265 0.94590 0.78711
 C2360 C 0.70687 0.95169 0.77385
 C2361 C 0.71439 0.96311 0.76639
 C2362 C 0.72782 0.96888 0.77210
 C2363 C 0.73348 0.96304 0.78551
 C2364 C 0.72594 0.95162 0.79295
 H2365 H 0.68167 0.90297 0.78771
 H2366 H 0.66942 0.88182 0.79983
 H2367 H 0.68684 0.89634 0.84231
 H2368 H 0.69930 0.91730 0.82999
 H2369 H 0.69660 0.94733 0.76923
 H2370 H 0.70973 0.96735 0.75610
 H2371 H 0.74379 0.96723 0.79020
 H2372 H 0.73052 0.94720 0.80320
 C2373 C 0.19149 0.41116 0.80802
 C2374 C 0.17609 0.40909 0.80667
 C2375 C 0.16915 0.39709 0.81379
 C2376 C 0.17755 0.38698 0.82236
 C2377 C 0.19303 0.38922 0.82369
 C2378 C 0.19993 0.40121 0.81656
 C2379 C 0.19869 0.42336 0.80052
 C2380 C 0.20485 0.43348 0.79421
 C2381 C 0.21235 0.44546 0.78664
 C2382 C 0.20653 0.45117 0.77336
 C2383 C 0.21400 0.46257 0.76583
 C2384 C 0.22743 0.46840 0.77149
 C2385 C 0.23313 0.46264 0.78491
 C2386 C 0.22564 0.45124 0.79242
 H2387 H 0.16944 0.41674 0.80011
 H2388 H 0.15721 0.39581 0.81269
 H2389 H 0.19986 0.38154 0.83001
 H2390 H 0.21188 0.40267 0.81763
 H2391 H 0.19626 0.44675 0.76878
 H2392 H 0.20931 0.46675 0.75553
 H2393 H 0.24343 0.46688 0.78957
 H2394 H 0.23025 0.44689 0.80268
 C2395 C 0.19190 0.91125 0.30779
 C2396 C 0.17649 0.90926 0.30646
 C2397 C 0.16950 0.89730 0.31358
 C2398 C 0.17786 0.88715 0.32215
 C2399 C 0.19335 0.88930 0.32345
 C2400 C 0.20030 0.90126 0.31632
 C2401 C 0.19916 0.92341 0.30028
 C2402 C 0.20536 0.93350 0.29396
 C2403 C 0.21292 0.94543 0.28638
 C2404 C 0.20714 0.95114 0.27308
 C2405 C 0.21467 0.96250 0.26554
 C2406 C 0.22810 0.96830 0.27122
 C2407 C 0.23376 0.96255 0.28466
 C2408 C 0.22621 0.95119 0.29217
 H2409 H 0.16987 0.91695 0.29990
 H2410 H 0.15755 0.89608 0.31250
 H2411 H 0.20014 0.88160 0.32976
 H2412 H 0.21226 0.90266 0.31737
 H2413 H 0.19687 0.94674 0.26849
 H2414 H 0.21001 0.96667 0.25523
 H2415 H 0.24406 0.96677 0.28934
 H2416 H 0.23079 0.94684 0.30246
 C2417 C 0.41110 0.30757 0.69181
 C2418 C 0.40111 0.31612 0.70019
 C2419 C 0.38911 0.32322 0.69324
 C2420 C 0.38693 0.32186 0.67777
 C2421 C 0.39708 0.31327 0.66944
 C2422 C 0.40908 0.30618 0.67642
 C2423 C 0.42331 0.30011 0.69906
 C2424 C 0.43344 0.29383 0.70527
 C2425 C 0.44542 0.28630 0.71283
 C2426 C 0.45114 0.29214 0.72611
 C2427 C 0.46255 0.28466 0.73367
 C2428 C 0.46837 0.27123 0.72802
 C2429 C 0.46261 0.26550 0.71460
 C2430 C 0.45121 0.27300 0.70707
 H2431 H 0.40254 0.31722 0.71212
 H2432 H 0.38141 0.32955 0.70001
 H2433 H 0.39583 0.31215 0.65751
 H2434 H 0.41677 0.29960 0.66983
 H2435 H 0.44673 0.30242 0.73068
 H2436 H 0.46672 0.28937 0.74396
 H2437 H 0.46685 0.25519 0.70996
 H2438 H 0.44685 0.26838 0.69681
 C2439 C 0.41226 0.80786 0.19088
 C2440 C 0.40224 0.79948 0.18236
 C2441 C 0.39021 0.80645 0.17532
 C2442 C 0.38803 0.82194 0.17673
 C2443 C 0.39822 0.83028 0.18527
 C2444 C 0.41025 0.82327 0.19229
 C2445 C 0.42446 0.80059 0.19834
 C2446 C 0.43458 0.79440 0.20465
 C2447 C 0.44654 0.78690 0.21227
 C2448 C 0.45227 0.77354 0.20660
 C2449 C 0.46365 0.76605 0.21417
 C2450 C 0.46945 0.77185 0.22754
 C2451 C 0.46369 0.78535 0.23309
 C2452 C 0.45230 0.79282 0.22550
 H2453 H 0.40365 0.78753 0.18125
 H2454 H 0.38248 0.79968 0.16903
 H2455 H 0.39698 0.84222 0.18642
 H2456 H 0.41796 0.82987 0.19884
 H2457 H 0.44787 0.76885 0.19638
 H2458 H 0.46784 0.75569 0.20960
 H2459 H 0.46790 0.79011 0.24335
 H2460 H 0.44794 0.80315 0.22999
 C2461 C 0.91181 0.30788 0.19185
 C2462 C 0.90979 0.30649 0.17646
 C2463 C 0.89778 0.31358 0.16948
 C2464 C 0.88763 0.32217 0.17782
 C2465 C 0.88983 0.32353 0.19328
 C2466 C 0.90183 0.31643 0.20023
 C2467 C 0.92402 0.30040 0.19909
 C2468 C 0.93415 0.29410 0.20528
 C2469 C 0.94613 0.28654 0.21280
 C2470 C 0.95190 0.27325 0.20699
 C2471 C 0.96332 0.26573 0.21447
 C2472 C 0.96911 0.27141 0.22790
 C2473 C 0.96329 0.28483 0.23360
 C2474 C 0.95187 0.29232 0.22609
 H2475 H 0.91747 0.29991 0.16986
 H2476 H 0.89653 0.31246 0.15755
 H2477 H 0.88212 0.32986 0.20006
 H2478 H 0.90326 0.31753 0.21216
 H2479 H 0.94752 0.26867 0.19671
 H2480 H 0.96755 0.25543 0.20979
 H2481 H 0.96749 0.28950 0.24390
 H2482 H 0.94747 0.30259 0.23070
 C2483 C 0.91174 0.80863 0.69221
 C2484 C 0.90171 0.81714 0.70058
 C2485 C 0.88973 0.82425 0.69359
 C2486 C 0.88762 0.82293 0.67812
 C2487 C 0.89782 0.81439 0.66980
 C2488 C 0.90980 0.80730 0.67681
 C2489 C 0.92390 0.80111 0.69949
 C2490 C 0.93399 0.79477 0.70571
 C2491 C 0.94590 0.78715 0.71327
 C2492 C 0.95161 0.79289 0.72660
 C2493 C 0.96296 0.78533 0.73415
 C2494 C 0.96873 0.77188 0.72846
 C2495 C 0.96298 0.76625 0.71500
 C2496 C 0.95163 0.77384 0.70747
 H2497 H 0.90307 0.81819 0.71252
 H2498 H 0.88198 0.83054 0.70036
 H2499 H 0.89663 0.81331 0.65786
 H2500 H 0.91753 0.80075 0.67023
 H2501 H 0.94724 0.80318 0.73120
 H2502 H 0.96714 0.78996 0.74447
 H2503 H 0.96717 0.75594 0.71032
 H2504 H 0.94727 0.76929 0.69717
 C2505 C 0.58871 0.30794 0.30825
 C2506 C 0.59077 0.32334 0.30680
 C2507 C 0.60285 0.33031 0.31377
 C2508 C 0.61304 0.32197 0.32229
 C2509 C 0.61082 0.30650 0.32373
 C2510 C 0.59874 0.29955 0.31674
 C2511 C 0.57645 0.30070 0.30086
 C2512 C 0.56626 0.29453 0.29463
 C2513 C 0.55423 0.28704 0.28711
 C2514 C 0.54842 0.29287 0.27388
 C2515 C 0.53697 0.28541 0.26639
 C2516 C 0.53118 0.27197 0.27204
 C2517 C 0.53702 0.26625 0.28541
 C2518 C 0.54847 0.27374 0.29289
 H2519 H 0.58306 0.32995 0.30027
 H2520 H 0.60413 0.34225 0.31260
 H2521 H 0.61855 0.29971 0.33001
 H2522 H 0.59729 0.28761 0.31788
 H2523 H 0.55281 0.30315 0.26931
 H2524 H 0.53272 0.29011 0.25612
 H2525 H 0.53282 0.25594 0.29006
 H2526 H 0.55290 0.26912 0.30311
 C2527 C 0.58797 0.80829 0.80821
 C2528 C 0.58996 0.82371 0.80685
 C2529 C 0.60197 0.83071 0.81391
 C2530 C 0.61216 0.82238 0.82244
 C2531 C 0.61001 0.80689 0.82379
 C2532 C 0.59800 0.79991 0.81672
 C2533 C 0.57579 0.80102 0.80072
 C2534 C 0.56569 0.79481 0.79440
 C2535 C 0.55376 0.78725 0.78678
 C2536 C 0.54804 0.79306 0.77350
 C2537 C 0.53669 0.78553 0.76591
 C2538 C 0.53093 0.77207 0.77151
 C2539 C 0.53668 0.76638 0.78494
 C2540 C 0.54803 0.77393 0.79251
 H2541 H 0.58224 0.83031 0.80031
 H2542 H 0.60319 0.84266 0.81280
 H2543 H 0.61775 0.80011 0.83008
 H2544 H 0.59660 0.78796 0.81780
 H2545 H 0.55241 0.80336 0.76896
 H2546 H 0.53251 0.79021 0.75561
 H2547 H 0.53250 0.75605 0.78956
 H2548 H 0.55239 0.76933 0.80277
 C2549 C 0.08849 0.30779 0.80847
 C2550 C 0.09849 0.29941 0.81700
 C2551 C 0.11050 0.30639 0.82407
 C2552 C 0.11269 0.32187 0.82268
 C2553 C 0.10251 0.33020 0.81413
 C2554 C 0.09050 0.32320 0.80707
 C2555 C 0.07629 0.30052 0.80099
 C2556 C 0.06617 0.29433 0.79467
 C2557 C 0.05421 0.28683 0.78706
 C2558 C 0.04844 0.27352 0.79278
 C2559 C 0.03705 0.26602 0.78522
 C2560 C 0.03128 0.27174 0.77182
 C2561 C 0.03709 0.28519 0.76621
 C2562 C 0.04848 0.29267 0.77379
 H2563 H 0.09708 0.28746 0.81811
 H2564 H 0.11823 0.29961 0.83038
 H2565 H 0.10375 0.34214 0.81299
 H2566 H 0.08280 0.32979 0.80051
 H2567 H 0.05281 0.26889 0.80303
 H2568 H 0.03283 0.25570 0.78984
 H2569 H 0.03291 0.28990 0.75593
 H2570 H 0.05288 0.30296 0.76926
 C2571 C 0.08840 0.80838 0.30838
 C2572 C 0.09837 0.79996 0.31690
 C2573 C 0.11042 0.80688 0.32396
 C2574 C 0.11267 0.82235 0.32257
 C2575 C 0.10252 0.83073 0.31402
 C2576 C 0.09047 0.82378 0.30698
 C2577 C 0.07616 0.80117 0.30091
 C2578 C 0.06601 0.79502 0.29460
 C2579 C 0.05401 0.78755 0.28701
 C2580 C 0.04823 0.77424 0.29272
 C2581 C 0.03681 0.76677 0.28519
 C2582 C 0.03102 0.77253 0.27181
 C2583 C 0.03683 0.78598 0.26621
 C2584 C 0.04825 0.79342 0.27377
 H2585 H 0.09690 0.78801 0.31800
 H2586 H 0.11812 0.80007 0.33026
 H2587 H 0.10382 0.84266 0.31289
 H2588 H 0.08280 0.83041 0.30043
 H2589 H 0.05262 0.76958 0.30296
 H2590 H 0.03260 0.75645 0.28980
 H2591 H 0.03262 0.79070 0.25595
 H2592 H 0.05265 0.80371 0.26924
 C2593 C 0.58906 0.69242 0.69183
 C2594 C 0.59110 0.67701 0.69326
 C2595 C 0.60320 0.67003 0.68635
 C2596 C 0.61343 0.67837 0.67789
 C2597 C 0.61122 0.69384 0.67647
 C2598 C 0.59912 0.70080 0.68340
 C2599 C 0.57676 0.69966 0.69915
 C2600 C 0.56655 0.70583 0.70534
 C2601 C 0.55448 0.71331 0.71280
 C2602 C 0.54865 0.70746 0.72601
 C2603 C 0.53716 0.71490 0.73345
 C2604 C 0.53134 0.72832 0.72777
 C2605 C 0.53720 0.73405 0.71442
 C2606 C 0.54870 0.72659 0.70700
 H2607 H 0.58336 0.67041 0.69975
 H2608 H 0.60447 0.65808 0.68751
 H2609 H 0.61898 0.70063 0.67023
 H2610 H 0.59768 0.71275 0.68226
 H2611 H 0.55306 0.69719 0.73060
 H2612 H 0.53290 0.71019 0.74370
 H2613 H 0.53298 0.74435 0.70975
 H2614 H 0.55314 0.73122 0.69679
 C2615 C 0.58848 0.19232 0.19185
 C2616 C 0.59057 0.17692 0.19325
 C2617 C 0.60264 0.16997 0.18625
 C2618 C 0.61280 0.17834 0.17774
 C2619 C 0.61054 0.19382 0.17635
 C2620 C 0.59847 0.20074 0.18336
 C2621 C 0.57624 0.19954 0.19928
 C2622 C 0.56608 0.20570 0.20555
 C2623 C 0.55407 0.21320 0.21311
 C2624 C 0.54835 0.20736 0.22637
 C2625 C 0.53693 0.21483 0.23391
 C2626 C 0.53110 0.22826 0.22828
 C2627 C 0.53687 0.23398 0.21488
 C2628 C 0.54828 0.22649 0.20736
 H2629 H 0.58288 0.17029 0.19978
 H2630 H 0.60394 0.15803 0.18739
 H2631 H 0.61825 0.20063 0.17008
 H2632 H 0.59700 0.21268 0.18226
 H2633 H 0.55277 0.19708 0.23093
 H2634 H 0.53274 0.21013 0.24419
 H2635 H 0.53263 0.24429 0.21024
 H2636 H 0.55265 0.23111 0.19712
 C2637 C 0.08846 0.69271 0.19184
 C2638 C 0.09845 0.68418 0.20024
 C2639 C 0.11049 0.67712 0.19333
 C2640 C 0.11272 0.67849 0.17788
 C2641 C 0.10257 0.68706 0.16952
 C2642 C 0.09053 0.69411 0.17646
 C2643 C 0.07621 0.70014 0.19905
 C2644 C 0.06604 0.70640 0.20523
 C2645 C 0.05403 0.71391 0.21275
 C2646 C 0.04828 0.70806 0.22599
 C2647 C 0.03685 0.71552 0.23352
 C2648 C 0.03103 0.72896 0.22789
 C2649 C 0.03682 0.73469 0.21450
 C2650 C 0.04825 0.72720 0.20700
 H2651 H 0.09699 0.68308 0.21216
 H2652 H 0.11819 0.67080 0.20012
 H2653 H 0.10385 0.68818 0.15760
 H2654 H 0.08284 0.70067 0.16985
 H2655 H 0.05269 0.69779 0.23055
 H2656 H 0.03265 0.71082 0.24379
 H2657 H 0.03259 0.74500 0.20987
 H2658 H 0.05263 0.73184 0.19676
 C2659 C 0.08890 0.19212 0.69168
 C2660 C 0.09094 0.17672 0.69310
 C2661 C 0.10299 0.16972 0.68611
 C2662 C 0.11317 0.17805 0.67759
 C2663 C 0.11096 0.19353 0.67618
 C2664 C 0.09891 0.20050 0.68318
 C2665 C 0.07666 0.19938 0.69909
 C2666 C 0.06649 0.20555 0.70534
 C2667 C 0.05447 0.21305 0.71288
 C2668 C 0.04869 0.20720 0.72611
 C2669 C 0.03725 0.21465 0.73361
 C2670 C 0.03143 0.22809 0.72797
 C2671 C 0.03725 0.23382 0.71460
 C2672 C 0.04869 0.22634 0.70712
 H2673 H 0.08323 0.17011 0.69963
 H2674 H 0.10425 0.15778 0.68726
 H2675 H 0.11869 0.20031 0.66989
 H2676 H 0.09747 0.21244 0.68206
 H2677 H 0.05310 0.19692 0.73067
 H2678 H 0.03303 0.20994 0.74387
 H2679 H 0.03303 0.24414 0.70996
 H2680 H 0.05310 0.23098 0.69689
 C2681 C 0.41205 0.69261 0.30807
 C2682 C 0.41001 0.67720 0.30666
 C2683 C 0.39796 0.67024 0.31367
 C2684 C 0.38779 0.67861 0.32219
 C2685 C 0.39000 0.69409 0.32360
 C2686 C 0.40205 0.70102 0.31657
 C2687 C 0.42427 0.69983 0.30063
 C2688 C 0.43441 0.70599 0.29434
 C2689 C 0.44640 0.71345 0.28676
 C2690 C 0.45217 0.70752 0.27354
 C2691 C 0.46358 0.71494 0.26598
 C2692 C 0.46937 0.72843 0.27155
 C2693 C 0.46356 0.73424 0.28491
 C2694 C 0.45215 0.72679 0.29244
 H2695 H 0.41771 0.67057 0.30013
 H2696 H 0.39670 0.65829 0.31253
 H2697 H 0.38228 0.70089 0.32988
 H2698 H 0.40349 0.71297 0.31769
 H2699 H 0.44778 0.69720 0.26904
 H2700 H 0.46780 0.71017 0.25574
 H2701 H 0.46777 0.74459 0.28949
 H2702 H 0.44775 0.73149 0.30265
 C2703 C 0.41124 0.19154 0.80832
 C2704 C 0.40125 0.19996 0.81682
 C2705 C 0.38924 0.19302 0.82390
 C2706 C 0.38705 0.17754 0.82255
 C2707 C 0.39721 0.16916 0.81402
 C2708 C 0.40922 0.17612 0.80696
 C2709 C 0.42344 0.19877 0.80085
 C2710 C 0.43356 0.20495 0.79456
 C2711 C 0.44552 0.21247 0.78699
 C2712 C 0.45125 0.22580 0.79274
 C2713 C 0.46263 0.23332 0.78524
 C2714 C 0.46844 0.22760 0.77185
 C2715 C 0.46267 0.21413 0.76621
 C2716 C 0.45129 0.20663 0.77374
 H2717 H 0.40268 0.21191 0.81790
 H2718 H 0.38153 0.19984 0.83019
 H2719 H 0.39595 0.15721 0.81291
 H2720 H 0.41691 0.16949 0.80042
 H2721 H 0.44685 0.23043 0.80299
 H2722 H 0.46681 0.24366 0.78988
 H2723 H 0.46689 0.20943 0.75593
 H2724 H 0.44692 0.19633 0.76918
 C2725 C 0.91140 0.69140 0.80807
 C2726 C 0.90139 0.68285 0.79972
 C2727 C 0.88939 0.67579 0.80669
 C2728 C 0.88722 0.67721 0.82214
 C2729 C 0.89741 0.68578 0.83046
 C2730 C 0.90942 0.69282 0.82346
 C2731 C 0.92358 0.69887 0.80081
 C2732 C 0.93369 0.70519 0.79463
 C2733 C 0.94564 0.71279 0.78713
 C2734 C 0.95140 0.70704 0.77383
 C2735 C 0.96279 0.71458 0.76636
 C2736 C 0.96856 0.72800 0.77208
 C2737 C 0.96275 0.73365 0.78551
 C2738 C 0.95136 0.72608 0.79297
 H2739 H 0.90279 0.68172 0.78779
 H2740 H 0.88165 0.66947 0.79993
 H2741 H 0.89618 0.68694 0.84238
 H2742 H 0.91712 0.69940 0.83004
 H2743 H 0.94703 0.69677 0.76921
 H2744 H 0.96700 0.70993 0.75605
 H2745 H 0.96694 0.74395 0.79022
 H2746 H 0.94697 0.73064 0.80324
 C2747 C 0.91217 0.19158 0.30816
 C2748 C 0.90225 0.20003 0.31672
 C2749 C 0.89026 0.19314 0.32387
 C2750 C 0.88802 0.17765 0.32255
 C2751 C 0.89811 0.16924 0.31396
 C2752 C 0.91009 0.17617 0.30682
 C2753 C 0.92435 0.19878 0.30064
 C2754 C 0.93446 0.20495 0.29432
 C2755 C 0.94641 0.21248 0.28674
 C2756 C 0.95216 0.22579 0.29252
 C2757 C 0.96353 0.23332 0.28501
 C2758 C 0.96929 0.22764 0.27159
 C2759 C 0.96351 0.21419 0.26592
 C2760 C 0.95214 0.20668 0.27346
 H2761 H 0.90371 0.21198 0.31778
 H2762 H 0.88261 0.19997 0.33021
 H2763 H 0.89681 0.15730 0.31287
 H2764 H 0.91773 0.16952 0.30024
 H2765 H 0.94780 0.23039 0.30279
 H2766 H 0.96773 0.24364 0.28967
 H2767 H 0.96769 0.20952 0.25562
 H2768 H 0.94775 0.19639 0.26888
 C2769 C 0.30792 0.30797 0.58851
 C2770 C 0.32332 0.30654 0.59056
 C2771 C 0.33030 0.31357 0.60259
 C2772 C 0.32196 0.32214 0.61274
 C2773 C 0.30649 0.32357 0.61052
 C2774 C 0.29953 0.31652 0.59849
 C2775 C 0.30067 0.30054 0.57628
 C2776 C 0.29449 0.29426 0.56614
 C2777 C 0.28698 0.28670 0.55415
 C2778 C 0.29282 0.27342 0.54838
 C2779 C 0.28535 0.26589 0.53697
 C2780 C 0.27190 0.27154 0.53118
 C2781 C 0.26617 0.28495 0.53699
 C2782 C 0.27367 0.29246 0.54840
 H2783 H 0.32992 0.29996 0.58288
 H2784 H 0.34224 0.31240 0.60387
 H2785 H 0.29970 0.32989 0.61823
 H2786 H 0.28759 0.31765 0.59704
 H2787 H 0.30311 0.26885 0.55277
 H2788 H 0.29005 0.25559 0.53275
 H2789 H 0.25585 0.28960 0.53279
 H2790 H 0.26904 0.30272 0.55280
 C2791 C 0.30829 0.80819 0.08800
 C2792 C 0.30693 0.82360 0.09010
 C2793 C 0.31407 0.83054 0.10209
 C2794 C 0.32268 0.82214 0.11216
 C2795 C 0.32403 0.80666 0.10990
 C2796 C 0.31688 0.79975 0.09791
 C2797 C 0.30076 0.80098 0.07581
 C2798 C 0.29442 0.79480 0.06570
 C2799 C 0.28683 0.78726 0.05376
 C2800 C 0.27354 0.79308 0.04802
 C2801 C 0.26597 0.78554 0.03666
 C2802 C 0.27160 0.77206 0.03092
 C2803 C 0.28503 0.76637 0.03670
 C2804 C 0.29257 0.77392 0.04805
 H2805 H 0.30033 0.83024 0.08247
 H2806 H 0.31296 0.84248 0.10340
 H2807 H 0.33038 0.79984 0.11754
 H2808 H 0.31796 0.78781 0.09642
 H2809 H 0.26898 0.80339 0.05238
 H2810 H 0.25566 0.79023 0.03246
 H2811 H 0.28966 0.75602 0.03253
 H2812 H 0.30284 0.76931 0.05244
 C2813 C 0.80866 0.30804 0.08859
 C2814 C 0.80026 0.31659 0.09856
 C2815 C 0.80720 0.32367 0.11058
 C2816 C 0.82267 0.32228 0.11280
 C2817 C 0.83103 0.31369 0.10267
 C2818 C 0.82406 0.30663 0.09065
 C2819 C 0.80142 0.30058 0.07638
 C2820 C 0.79522 0.29429 0.06624
 C2821 C 0.78767 0.28675 0.05427
 C2822 C 0.77439 0.29258 0.04853
 C2823 C 0.76684 0.28509 0.03715
 C2824 C 0.77247 0.27163 0.03136
 C2825 C 0.78590 0.26591 0.03714
 C2826 C 0.79343 0.27343 0.04852
 H2827 H 0.78832 0.31770 0.09711
 H2828 H 0.80040 0.33000 0.11827
 H2829 H 0.84297 0.31256 0.10395
 H2830 H 0.83068 0.30006 0.08298
 H2831 H 0.76983 0.30288 0.05291
 H2832 H 0.75654 0.28979 0.03295
 H2833 H 0.79053 0.25558 0.03294
 H2834 H 0.80370 0.26881 0.05291
 C2835 C 0.80854 0.80867 0.58884
 C2836 C 0.81708 0.80028 0.59883
 C2837 C 0.82414 0.80724 0.61084
 C2838 C 0.82274 0.82272 0.61305
 C2839 C 0.81418 0.83107 0.60289
 C2840 C 0.80714 0.82408 0.59087
 C2841 C 0.80109 0.80141 0.57663
 C2842 C 0.79480 0.79521 0.56650
 C2843 C 0.78724 0.78766 0.55453
 C2844 C 0.79307 0.77439 0.54875
 C2845 C 0.78556 0.76684 0.53738
 C2846 C 0.77208 0.77248 0.53163
 C2847 C 0.76638 0.78590 0.53745
 C2848 C 0.77391 0.79342 0.54883
 H2849 H 0.81819 0.78833 0.59739
 H2850 H 0.83045 0.80045 0.61855
 H2851 H 0.81304 0.84301 0.60415
 H2852 H 0.80058 0.83069 0.58318
 H2853 H 0.80337 0.76982 0.55310
 H2854 H 0.79025 0.75655 0.53315
 H2855 H 0.75604 0.79053 0.53328
 H2856 H 0.76930 0.80368 0.55324
 C2857 C 0.30830 0.69232 0.41107
 C2858 C 0.30693 0.67693 0.40894
 C2859 C 0.31401 0.67002 0.39689
 C2860 C 0.32257 0.67844 0.38682
 C2861 C 0.32392 0.69391 0.38912
 C2862 C 0.31683 0.70079 0.40116
 C2863 C 0.30083 0.69950 0.42332
 C2864 C 0.29454 0.70563 0.43348
 C2865 C 0.28699 0.71310 0.44549
 C2866 C 0.27371 0.70727 0.45120
 C2867 C 0.26619 0.71472 0.46263
 C2868 C 0.27186 0.72813 0.46850
 C2869 C 0.28529 0.73384 0.46275
 C2870 C 0.29278 0.72637 0.45132
 H2871 H 0.30037 0.67026 0.41656
 H2872 H 0.31290 0.65808 0.39555
 H2873 H 0.33023 0.70075 0.38148
 H2874 H 0.31792 0.71273 0.40268
 H2875 H 0.26912 0.69701 0.44676
 H2876 H 0.25589 0.71003 0.46681
 H2877 H 0.28996 0.74413 0.46701
 H2878 H 0.30305 0.73099 0.44696
 C2879 C 0.30784 0.19171 0.91154
 C2880 C 0.30643 0.17630 0.90949
 C2881 C 0.31347 0.16931 0.89747
 C2882 C 0.32202 0.17766 0.88733
 C2883 C 0.32340 0.19314 0.88954
 C2884 C 0.31636 0.20010 0.90156
 C2885 C 0.30043 0.19896 0.92377
 C2886 C 0.29419 0.20518 0.93391
 C2887 C 0.28670 0.21274 0.94590
 C2888 C 0.27342 0.20697 0.95169
 C2889 C 0.26595 0.21451 0.96311
 C2890 C 0.27168 0.22794 0.96887
 C2891 C 0.28510 0.23359 0.96304
 C2892 C 0.29254 0.22603 0.95163
 H2893 H 0.29989 0.16969 0.91718
 H2894 H 0.31233 0.15737 0.89620
 H2895 H 0.32971 0.19993 0.88184
 H2896 H 0.31747 0.21205 0.90301
 H2897 H 0.26879 0.19670 0.94733
 H2898 H 0.25566 0.20986 0.96734
 H2899 H 0.28980 0.24389 0.96722
 H2900 H 0.30280 0.23060 0.94721
 C2901 C 0.80820 0.69223 0.91119
 C2902 C 0.80676 0.67682 0.90924
 C2903 C 0.81376 0.66974 0.89725
 C2904 C 0.82230 0.67801 0.88704
 C2905 C 0.82372 0.69350 0.88915
 C2906 C 0.81671 0.70055 0.90114
 C2907 C 0.80080 0.69957 0.92338
 C2908 C 0.79456 0.70583 0.93349
 C2909 C 0.78704 0.71342 0.94545
 C2910 C 0.77376 0.70766 0.95123
 C2911 C 0.76627 0.71520 0.96262
 C2912 C 0.77198 0.72864 0.96838
 C2913 C 0.78540 0.73429 0.96256
 C2914 C 0.79287 0.72672 0.95117
 H2915 H 0.80021 0.67027 0.91697
 H2916 H 0.81260 0.65779 0.89606
 H2917 H 0.83003 0.70023 0.88140
 H2918 H 0.81785 0.71250 0.90251
 H2919 H 0.76915 0.69737 0.94688
 H2920 H 0.75597 0.71056 0.96685
 H2921 H 0.79010 0.74460 0.96673
 H2922 H 0.80313 0.73129 0.94676
 C2923 C 0.80927 0.19219 0.41195
 C2924 C 0.80790 0.17677 0.40999
 C2925 C 0.81495 0.16972 0.39802
 C2926 C 0.82348 0.17802 0.38782
 C2927 C 0.82486 0.19352 0.38995
 C2928 C 0.81779 0.20054 0.40193
 C2929 C 0.80178 0.19950 0.42408
 C2930 C 0.79543 0.20573 0.43415
 C2931 C 0.78777 0.21327 0.44605
 C2932 C 0.77448 0.20743 0.45172
 C2933 C 0.76685 0.21493 0.46305
 C2934 C 0.77243 0.22841 0.46884
 C2935 C 0.78586 0.23414 0.46313
 C2936 C 0.79347 0.22661 0.45180
 H2937 H 0.80135 0.17019 0.41770
 H2938 H 0.81383 0.15777 0.39681
 H2939 H 0.83115 0.20027 0.38221
 H2940 H 0.81888 0.21249 0.40330
 H2941 H 0.76997 0.19711 0.44734
 H2942 H 0.75655 0.21022 0.46719
 H2943 H 0.79046 0.24449 0.46733
 H2944 H 0.80374 0.23125 0.44747
 C2945 C 0.69236 0.30832 0.41126
 C2946 C 0.67694 0.30696 0.40928
 C2947 C 0.66994 0.31395 0.39725
 C2948 C 0.67828 0.32242 0.38703
 C2949 C 0.69376 0.32377 0.38918
 C2950 C 0.70074 0.31676 0.40120
 C2951 C 0.69963 0.30091 0.42347
 C2952 C 0.70583 0.29466 0.43361
 C2953 C 0.71336 0.28713 0.44560
 C2954 C 0.70758 0.27382 0.45131
 C2955 C 0.71507 0.26632 0.46273
 C2956 C 0.72846 0.27205 0.46857
 C2957 C 0.73412 0.28549 0.46281
 C2958 C 0.72661 0.29296 0.45139
 H2959 H 0.67034 0.30047 0.41702
 H2960 H 0.65799 0.31285 0.39603
 H2961 H 0.70054 0.33001 0.38142
 H2962 H 0.71269 0.31784 0.40259
 H2963 H 0.69733 0.26920 0.44689
 H2964 H 0.71041 0.25601 0.46691
 H2965 H 0.74440 0.29019 0.46705
 H2966 H 0.73119 0.30325 0.44703
 C2967 C 0.69176 0.80858 0.91125
 C2968 C 0.68321 0.80015 0.90130
 C2969 C 0.67609 0.80706 0.88931
 C2970 C 0.67743 0.82254 0.88709
 C2971 C 0.68602 0.83093 0.89720
 C2972 C 0.69313 0.82399 0.90920
 C2973 C 0.69926 0.80137 0.92345
 C2974 C 0.70558 0.79520 0.93356
 C2975 C 0.71316 0.78768 0.94552
 C2976 C 0.70736 0.77441 0.95129
 C2977 C 0.71488 0.76689 0.96267
 C2978 C 0.72833 0.77256 0.96843
 C2979 C 0.73402 0.78597 0.96262
 C2980 C 0.72647 0.79347 0.95124
 H2981 H 0.68213 0.78820 0.90276
 H2982 H 0.66976 0.80024 0.88164
 H2983 H 0.68712 0.84288 0.89592
 H2984 H 0.69970 0.83063 0.91685
 H2985 H 0.69707 0.76982 0.94693
 H2986 H 0.71021 0.75659 0.96689
 H2987 H 0.74434 0.79063 0.96680
 H2988 H 0.73107 0.80373 0.94684
 C2989 C 0.19185 0.30825 0.91179
 C2990 C 0.20022 0.31673 0.90176
 C2991 C 0.19325 0.32376 0.88975
 C2992 C 0.17776 0.32239 0.88758
 C2993 C 0.16943 0.31388 0.89778
 C2994 C 0.17644 0.30687 0.90979
 C2995 C 0.19912 0.30082 0.92399
 C2996 C 0.20533 0.29455 0.93411
 C2997 C 0.21287 0.28699 0.94607
 C2998 C 0.22620 0.29275 0.95178
 C2999 C 0.23374 0.28525 0.96315
 C3000 C 0.22804 0.27185 0.96897
 C3001 C 0.21457 0.26620 0.96322
 C3002 C 0.20705 0.27373 0.95185
 H3003 H 0.21217 0.31783 0.90317
 H3004 H 0.20002 0.33003 0.88201
 H3005 H 0.15749 0.31276 0.89654
 H3006 H 0.16984 0.30035 0.91751
 H3007 H 0.23082 0.30300 0.94737
 H3008 H 0.24408 0.28989 0.96732
 H3009 H 0.20987 0.25592 0.96745
 H3010 H 0.19675 0.26917 0.94749
 C3011 C 0.19193 0.80840 0.41156
 C3012 C 0.17651 0.80708 0.40959
 C3013 C 0.16952 0.81411 0.39758
 C3014 C 0.17786 0.82258 0.38737
 C3015 C 0.19336 0.82389 0.38951
 C3016 C 0.20033 0.81684 0.40152
 C3017 C 0.19920 0.80096 0.42376
 C3018 C 0.20540 0.79467 0.43387
 C3019 C 0.21294 0.78709 0.44582
 C3020 C 0.20713 0.77380 0.45154
 C3021 C 0.21464 0.76624 0.46290
 C3022 C 0.22809 0.77189 0.46870
 C3023 C 0.23378 0.78533 0.46295
 C3024 C 0.22624 0.79286 0.45158
 H3025 H 0.16991 0.80059 0.41732
 H3026 H 0.15756 0.81303 0.39637
 H3027 H 0.20014 0.83012 0.38176
 H3028 H 0.21228 0.81789 0.40290
 H3029 H 0.19685 0.76923 0.44715
 H3030 H 0.20996 0.75593 0.46708
 H3031 H 0.24409 0.78997 0.46715
 H3032 H 0.23085 0.80313 0.44722
 C3033 C 0.69272 0.69196 0.58909
 C3034 C 0.70112 0.68347 0.59912
 C3035 C 0.69416 0.67644 0.61113
 C3036 C 0.67868 0.67782 0.61330
 C3037 C 0.67033 0.68632 0.60309
 C3038 C 0.67732 0.69333 0.59108
 C3039 C 0.69997 0.69941 0.57690
 C3040 C 0.70612 0.70572 0.56678
 C3041 C 0.71358 0.71331 0.55480
 C3042 C 0.72689 0.70759 0.54902
 C3043 C 0.73433 0.71512 0.53761
 C3044 C 0.72854 0.72852 0.53184
 C3045 C 0.71510 0.73413 0.53767
 C3046 C 0.70768 0.72657 0.54908
 H3047 H 0.71307 0.68238 0.59772
 H3048 H 0.70095 0.67017 0.61887
 H3049 H 0.65839 0.68744 0.60432
 H3050 H 0.67070 0.69986 0.58337
 H3051 H 0.73156 0.69734 0.55339
 H3052 H 0.74464 0.71050 0.53338
 H3053 H 0.71034 0.74441 0.53347
 H3054 H 0.69739 0.73111 0.55349
 C3055 C 0.69230 0.19220 0.08897
 C3056 C 0.68373 0.20064 0.09889
 C3057 C 0.67667 0.19375 0.11092
 C3058 C 0.67809 0.17829 0.11320
 C3059 C 0.68669 0.16989 0.10313
 C3060 C 0.69375 0.17681 0.09109
 C3061 C 0.69974 0.19938 0.07673
 C3062 C 0.70600 0.20553 0.06658
 C3063 C 0.71353 0.21300 0.05457
 C3064 C 0.70776 0.22631 0.04883
 C3065 C 0.71523 0.23378 0.03740
 C3066 C 0.72860 0.22802 0.03156
 C3067 C 0.73426 0.21457 0.03734
 C3068 C 0.72676 0.20712 0.04877
 H3069 H 0.68259 0.21257 0.09738
 H3070 H 0.67032 0.20058 0.11856
 H3071 H 0.68786 0.15795 0.10445
 H3072 H 0.70033 0.17016 0.08346
 H3073 H 0.69753 0.23097 0.05326
 H3074 H 0.71058 0.24410 0.03321
 H3075 H 0.74452 0.20984 0.03309
 H3076 H 0.73133 0.19683 0.05314
 C3077 C 0.19177 0.69243 0.08878
 C3078 C 0.17637 0.69386 0.09083
 C3079 C 0.16941 0.68686 0.10287
 C3080 C 0.17778 0.67832 0.11303
 C3081 C 0.19325 0.67692 0.11081
 C3082 C 0.20018 0.68393 0.09878
 C3083 C 0.19899 0.69981 0.07653
 C3084 C 0.20517 0.70603 0.06636
 C3085 C 0.21267 0.71349 0.05433
 C3086 C 0.20687 0.72675 0.04851
 C3087 C 0.21434 0.73418 0.03705
 C3088 C 0.22775 0.72843 0.03127
 C3089 C 0.23343 0.71503 0.03714
 C3090 C 0.22594 0.70763 0.04859
 H3091 H 0.16975 0.70040 0.08313
 H3092 H 0.15748 0.68801 0.10413
 H3093 H 0.20005 0.67062 0.11852
 H3094 H 0.21212 0.68280 0.09733
 H3095 H 0.19661 0.73139 0.05289
 H3096 H 0.20967 0.74446 0.03279
 H3097 H 0.24372 0.71031 0.03295
 H3098 H 0.23054 0.69738 0.05303
 C3099 C 0.19224 0.19147 0.58847
 C3100 C 0.20064 0.18299 0.59851
 C3101 C 0.19369 0.17601 0.61055
 C3102 C 0.17822 0.17742 0.61274
 C3103 C 0.16986 0.18593 0.60254
 C3104 C 0.17684 0.19290 0.59049
 C3105 C 0.19948 0.19886 0.57624
 C3106 C 0.20566 0.20510 0.56609
 C3107 C 0.21316 0.21262 0.55410
 C3108 C 0.22646 0.20684 0.54836
 C3109 C 0.23395 0.21433 0.53696
 C3110 C 0.22823 0.22773 0.53114
 C3111 C 0.21478 0.23339 0.53692
 C3112 C 0.20731 0.22588 0.54832
 H3113 H 0.21258 0.18187 0.59708
 H3114 H 0.20048 0.16975 0.61829
 H3115 H 0.15792 0.18708 0.60379
 H3116 H 0.17023 0.19941 0.58278
 H3117 H 0.23109 0.19659 0.55277
 H3118 H 0.24427 0.20967 0.53277
 H3119 H 0.21007 0.24368 0.53269
 H3120 H 0.19703 0.23047 0.55270
   
