data_POSCAR
  _audit_creation_date              2014-09-24
  _audit_creation_method            'ToBaCCo'
  _symmetry_space_group_name_H-M    'P1'
  _symmetry_Int_Tables_number       1
  _symmetry_cell_setting            triclinic
  loop_
  _symmetry_equiv_pos_as_xyz
 x,y,z
_cell_length_a 44.2352
_cell_length_b 44.1359
_cell_length_c 43.6475
_cell_angle_alpha 90.055800
_cell_angle_beta 89.938700
_cell_angle_gamma 89.937000
loop_
  _atom_site_label
  _atom_site_type_symbol
  _atom_site_fract_x
  _atom_site_fract_y
  _atom_site_fract_z
N1 N 0.30345 0.43168 0.93893
 N2 N 0.44218 0.81941 0.44247
 N3 N 0.93994 0.93476 0.80798
 N4 N 0.42927 -0.04982 0.31686
 N5 N 0.80468 0.31779 0.30428
 N6 N -0.18514 0.80165 0.80884
 N7 N 0.94670 0.31174 0.42265
 N8 N 0.43938 0.44555 0.81349
 N9 N 0.81444 0.93232 0.94455
 N10 N 0.30131 0.82300 0.31210
 N11 N 0.81209 0.43748 0.44277
 N12 N 0.93880 0.79977 -0.06184
 N13 N 0.32389 0.29951 0.80119
 N14 N 0.19658 0.55465 0.55083
 N15 N 0.55364 0.69215 0.05682
 N16 N 0.70642 0.19079 0.69167
 N17 N 1.05088 0.06452 0.19090
 N18 N 0.05854 0.18248 1.04216
 N19 N 0.18978 0.68174 0.69379
 N20 N 1.18402 0.19843 0.18248
 N21 N 0.69621 1.05802 0.56253
 N22 N 0.54811 0.56715 0.20224
 N23 N 0.68047 0.70230 0.19623
 N24 N 0.19382 0.05358 1.06771
 N25 N 0.57197 0.19099 0.56484
 N26 N 0.06346 0.55262 0.68903
 N27 N 0.67690 0.55889 0.06715
 N28 N 0.06471 0.68538 0.55103
 N29 N 0.56358 1.06406 0.69913
 N30 N 0.44707 0.30621 0.94717
 N31 N 0.93396 0.44558 0.30196
 N32 N 0.30864 0.94263 0.45356
 O33 O 0.23404 0.56743 0.70680
 O34 O 0.28648 0.56487 0.70494
 O35 O 0.20806 0.48217 0.66315
 O36 O 0.21223 0.43262 0.67242
 O37 O 0.16619 0.51509 0.74600
 O38 O 0.18066 0.50822 0.79972
 O39 O 0.30080 0.41322 0.73515
 O40 O 0.28879 0.42307 0.68452
 O41 O 0.33236 0.49075 0.77506
 O42 O 0.31546 0.54666 0.77135
 O43 O 0.26662 0.44817 0.82119
 O44 O 0.21367 0.43956 0.81553
 O45 O 0.27056 0.40746 0.77697
 O46 O 0.21338 0.41002 0.78034
 O47 O 0.29515 0.49085 0.81891
 O48 O 0.28743 0.54339 0.80743
 O49 O 0.33455 0.45804 0.73492
 O50 O 0.31820 0.46879 0.68182
 O51 O 0.20382 0.56113 0.74854
 O52 O 0.20859 0.54638 0.80086
 O53 O 0.16794 0.47823 0.70967
 O54 O 0.18741 0.42555 0.71343
 O55 O 0.23562 0.52566 0.66246
 O56 O 0.29094 0.52781 0.66906
 Zr57 Zr 0.25830 0.52611 0.70473
 O58 O 0.29349 0.50330 0.72764
 Zr59 Zr 0.21366 0.46525 0.70789
 O60 O 0.24709 0.44013 0.73091
 Zr61 Zr 0.21088 0.51644 0.76309
 O62 O 0.24423 0.49374 0.78869
 Zr63 Zr 0.28994 0.45664 0.71919
 O64 O 0.25673 0.47958 0.69342
 Zr65 Zr 0.28764 0.50777 0.77496
 O66 O 0.25407 0.53337 0.75223
 Zr67 Zr 0.24360 0.44715 0.77853
 O68 O 0.20744 0.46954 0.75555
 O69 O 0.21509 0.51161 0.71602
 O70 O 0.28679 0.46135 0.76671
 C71 C 0.21445 0.57707 0.72644
 C72 C 0.21795 0.50621 0.64987
 C73 C 0.15388 0.49867 0.72505
 C74 C 0.29110 0.39803 0.75826
 C75 C 0.34647 0.47177 0.75774
 C76 C 0.28507 0.46755 0.83300
 H77 H 0.31333 0.51110 0.72081
 H78 H 0.24038 0.49780 0.81063
 H79 H 0.19993 0.52328 0.70426
 H80 H 0.24511 0.41850 0.72540
 H81 H 0.27925 0.43254 0.66638
 H82 H 0.23019 0.41952 0.67488
 H83 H 0.26972 0.54027 0.82091
 H84 H 0.22672 0.55945 0.79966
 H85 H 0.33444 0.45337 0.68006
 H86 H 0.28514 0.54394 0.65436
 H87 H 0.20870 0.45962 0.82431
 H88 H 0.17187 0.48788 0.79625
 H89 H 0.28791 0.57170 0.72648
 H90 H 0.33121 0.54267 0.75575
 H91 H 0.17704 0.42727 0.73348
 H92 H 0.21695 0.39737 0.76197
 O93 O 0.22933 0.09364 0.22609
 O94 O 0.28165 0.08595 0.22822
 O95 O 0.19675 0.00704 0.19338
 O96 O 0.19101 -0.04021 0.21082
 O97 O 0.15488 0.05533 0.27260
 O98 O 0.16821 0.05689 0.32514
 O99 O 0.27589 -0.06183 0.27880
 O100 O 0.26970 -0.05671 0.22686
 O101 O 0.31736 0.02113 0.30726
 O102 O 0.30511 0.07401 0.30234
 O103 O 0.24668 -0.01736 0.35460
 O104 O 0.19032 -0.01340 0.35016
 O105 O 0.23961 -0.05968 0.31576
 O106 O 0.18570 -0.04668 0.31909
 O107 O 0.27949 0.02198 0.35072
 O108 O 0.27278 0.07723 0.33452
 O109 O 0.31588 -0.02091 0.27726
 O110 O 0.30400 -0.01535 0.22100
 O111 O 0.19745 0.09721 0.26699
 O112 O 0.20212 0.08992 0.32166
 O113 O 0.15406 0.01767 0.23707
 O114 O 0.16546 -0.03729 0.24972
 O115 O 0.22906 0.04659 0.18764
 O116 O 0.28399 0.04370 0.19830
 Zr117 Zr 0.24947 0.05059 0.23144
 O118 O 0.28053 0.02739 0.25970
 Zr119 Zr 0.19729 -0.00276 0.24030
 O120 O 0.22664 -0.02870 0.26751
 Zr121 Zr 0.19965 0.05487 0.28871
 O122 O 0.22824 0.03117 0.31898
 Zr123 Zr 0.27222 -0.01938 0.25724
 O124 O 0.24267 0.00349 0.22671
 Zr125 Zr 0.27325 0.03846 0.30589
 O126 O 0.24479 0.06467 0.27746
 Zr127 Zr 0.22172 -0.01567 0.31353
 O128 O 0.18989 0.00832 0.28652
 O129 O 0.20443 0.04349 0.24263
 O130 O 0.26704 -0.00822 0.30324
 C131 C 0.20999 0.10800 0.24280
 C132 C 0.21000 0.02720 0.17702
 C133 C 0.14161 0.03983 0.25164
 C134 C 0.26033 -0.07362 0.30066
 C135 C 0.32955 -0.00263 0.29564
 C136 C 0.26816 -0.00073 0.36509
 H137 H 0.30140 0.03214 0.25314
 H138 H 0.22453 0.03776 0.34029
 H139 H 0.19113 0.05495 0.22857
 H140 H 0.22174 -0.05028 0.26397
 H141 H 0.26181 -0.04876 0.20722
 H142 H 0.21060 -0.05097 0.21006
 H143 H 0.25841 0.07347 0.35147
 H144 H 0.22161 0.10040 0.31826
 H145 H 0.31899 -0.03194 0.22322
 H146 H 0.28087 0.05809 0.18113
 H147 H 0.19525 0.00451 0.36283
 H148 H 0.16133 0.03584 0.32865
 H149 H 0.28143 0.09677 0.24810
 H150 H 0.31470 0.07243 0.28192
 H151 H 0.15288 -0.03014 0.26707
 H152 H 0.18558 -0.06002 0.30086
 O153 O 0.48763 0.68331 0.20432
 O154 O 0.43954 0.69646 0.19712
 O155 O 0.53539 0.76387 0.16821
 O156 O 0.54113 0.81213 0.18094
 O157 O 0.56451 0.72137 0.25482
 O158 O 0.54573 0.72048 0.30421
 O159 O 0.45027 0.84451 0.23873
 O160 O 0.46323 0.83560 0.18893
 O161 O 0.40467 0.77236 0.27445
 O162 O 0.40907 0.71725 0.27092
 O163 O 0.47687 0.80112 0.32467
 O164 O 0.52874 0.80199 0.32069
 O165 O 0.47750 0.84230 0.28286
 O166 O 0.53649 0.82992 0.28408
 O167 O 0.44114 0.76451 0.31989
 O168 O 0.43973 0.70993 0.30342
 O169 O 0.40989 0.80684 0.23620
 O170 O 0.42683 0.79568 0.18230
 O171 O 0.52019 0.68077 0.24459
 O172 O 0.50895 0.69208 0.29909
 O173 O 0.57182 0.75627 0.21734
 O174 O 0.56155 0.81287 0.22380
 O175 O 0.50087 0.72608 0.16300
 O176 O 0.44446 0.73700 0.16626
 Zr177 Zr 0.47433 0.72872 0.20335
 O178 O 0.44270 0.75557 0.22721
 Zr179 Zr 0.52964 0.77866 0.21347
 O180 O 0.49961 0.80886 0.23540
 Zr181 Zr 0.51837 0.72454 0.26475
 O182 O 0.49005 0.75319 0.29045
 Zr183 Zr 0.45490 0.80093 0.22134
 O184 O 0.48550 0.77433 0.19556
 Zr185 Zr 0.44555 0.74807 0.27470
 O186 O 0.47367 0.71763 0.25037
 Zr187 Zr 0.49963 0.79937 0.28242
 O188 O 0.53165 0.77033 0.26083
 O189 O 0.51880 0.73311 0.21809
 O190 O 0.45516 0.79372 0.26862
 C191 C 0.50572 0.66880 0.22196
 C192 C 0.52293 0.74239 0.15299
 C193 C 0.58119 0.73511 0.23529
 C194 C 0.45962 0.85596 0.26394
 C195 C 0.39477 0.79429 0.25790
 C196 C 0.45538 0.78476 0.33540
 H197 H 0.42210 0.75188 0.21929
 H198 H 0.49259 0.74758 0.31222
 H199 H 0.53275 0.71951 0.20684
 H200 H 0.50562 0.83001 0.23110
 H201 H 0.47223 0.82567 0.17072
 H202 H 0.52314 0.82526 0.17885
 H203 H 0.45534 0.71103 0.31961
 H204 H 0.49093 0.68063 0.29227
 H205 H 0.41310 0.81343 0.18136
 H206 H 0.44920 0.72258 0.14948
 H207 H 0.53066 0.78117 0.32881
 H208 H 0.55489 0.74065 0.30762
 H209 H 0.43125 0.69235 0.21776
 H210 H 0.39892 0.72086 0.25108
 H211 H 0.57222 0.80650 0.24266
 H212 H 0.53098 0.84817 0.27217
 O213 O 0.08492 0.71618 0.74937
 O214 O 0.06878 0.72273 0.80178
 O215 O 0.01763 0.66657 0.70582
 O216 O -0.03259 0.66973 0.69829
 O217 O 0.04895 0.75180 0.66642
 O218 O 0.04007 0.80453 0.67907
 O219 O -0.08167 0.74503 0.77300
 O220 O -0.07040 0.69240 0.76447
 O221 O -0.01663 0.78354 0.82260
 O222 O 0.03833 0.78908 0.81888
 O223 O -0.04463 0.82243 0.73715
 O224 O -0.03205 0.80903 0.68172
 O225 O -0.08064 0.77798 0.73299
 O226 O -0.06454 0.77717 0.68109
 O227 O -0.01650 0.82524 0.78058
 O228 O 0.03957 0.82108 0.78622
 O229 O -0.04737 0.74271 0.81705
 O230 O -0.03302 0.69038 0.80530
 O231 O 0.08560 0.75497 0.71501
 O232 O 0.06959 0.80585 0.71584
 O233 O 0.01901 0.71017 0.66200
 O234 O -0.03591 0.70756 0.66609
 O235 O 0.04715 0.67114 0.74816
 O236 O 0.03462 0.68362 0.80072
 Zr237 Zr 0.03930 0.71515 0.76428
 O238 O 0.00560 0.73824 0.78925
 Zr239 Zr -0.00538 0.70877 0.70340
 O240 O -0.04080 0.73218 0.72568
 Zr241 Zr 0.04035 0.76834 0.71080
 O242 O 0.00735 0.79402 0.73378
 Zr243 Zr -0.03757 0.72621 0.77319
 O244 O -0.00402 0.69991 0.75071
 Zr245 Zr 0.00863 0.78486 0.78115
 O246 O 0.04446 0.76214 0.75839
 Zr247 Zr -0.03534 0.77909 0.71943
 O248 O -0.00223 0.75555 0.69391
 O249 O 0.03744 0.72176 0.71719
 O250 O -0.03439 0.77279 0.76677
 C251 C 0.09851 0.73361 0.73001
 C252 C 0.03678 0.65602 0.72540
 C253 C 0.03846 0.72909 0.65139
 C254 C -0.09406 0.76505 0.75546
 C255 C -0.03699 0.76508 0.83254
 C256 C -0.03550 0.83623 0.76132
 H257 H 0.00798 0.73322 0.81119
 H258 H 0.01063 0.81570 0.72923
 H259 H 0.05297 0.71016 0.70580
 H260 H -0.06067 0.72519 0.71813
 H261 H -0.05912 0.67369 0.75929
 H262 H -0.05217 0.67408 0.70832
 H263 H 0.03786 0.83413 0.76789
 H264 H 0.07494 0.80686 0.73783
 H265 H -0.05231 0.68855 0.81677
 H266 H 0.05320 0.67104 0.80192
 H267 H -0.01897 0.82615 0.68788
 H268 H 0.02313 0.80074 0.66477
 H269 H 0.07740 0.74327 0.79934
 H270 H 0.03894 0.76924 0.82936
 H271 H -0.03424 0.72731 0.65549
 H272 H -0.07244 0.75628 0.67966
 O273 O -0.00041 0.06392 0.03937
 O274 O -0.04924 0.04649 0.03940
 O275 O 0.04744 -0.01218 0.08183
 O276 O 0.05855 -0.05977 0.07110
 O277 O 0.08407 0.03105 -0.00175
 O278 O 0.07009 0.03036 -0.05382
 O279 O -0.02291 -0.09897 -0.00363
 O280 O -0.01334 -0.09341 0.04891
 O281 O -0.07108 -0.02881 -0.03571
 O282 O -0.06722 0.02577 -0.03590
 O283 O 0.01147 -0.05451 -0.07986
 O284 O 0.06451 -0.04704 -0.06930
 O285 O 0.01476 -0.09516 -0.03894
 O286 O 0.06916 -0.07751 -0.03570
 O287 O -0.03071 -0.02514 -0.07884
 O288 O -0.03459 0.03120 -0.06733
 O289 O -0.06586 -0.06331 0.00253
 O290 O -0.05208 -0.05529 0.05653
 O291 O 0.03632 0.06842 0.00308
 O292 O 0.03201 0.05770 -0.05152
 O293 O 0.08920 -0.00270 0.03722
 O294 O 0.08437 -0.05955 0.03089
 O295 O 0.00977 0.02288 0.08187
 O296 O -0.04412 0.00708 0.07230
 Zr297 Zr -0.01105 0.01753 0.03867
 O298 O -0.03699 -0.01227 0.01176
 Zr299 Zr 0.04876 -0.02793 0.03640
 O300 O 0.02484 -0.06038 0.01065
 Zr301 Zr 0.03952 0.02500 -0.01697
 O302 O 0.01636 -0.00540 -0.04573
 Zr303 Zr -0.02176 -0.05676 0.01881
 O304 O 0.00256 -0.02733 0.04820
 Zr305 Zr -0.03001 -0.00440 -0.03517
 O306 O -0.00710 0.02831 -0.00823
 Zr307 Zr 0.02986 -0.05004 -0.03596
 O308 O 0.05625 -0.01918 -0.01035
 O309 O 0.03504 0.01654 0.02956
 O310 O -0.01659 -0.04890 -0.02796
 C311 C 0.01899 0.07942 0.02405
 C312 C 0.03156 0.00850 0.09490
 C313 C 0.09924 0.01859 0.01989
 C314 C -0.00673 -0.10969 -0.02567
 C315 C -0.08120 -0.05029 -0.01863
 C316 C -0.01234 -0.04349 -0.09228
 H317 H -0.05843 -0.00987 0.01774
 H318 H 0.02038 0.00009 -0.06729
 H319 H 0.04656 0.03107 0.04228
 H320 H 0.03207 -0.08103 0.01551
 H321 H -0.00680 -0.08442 0.06860
 H322 H 0.04308 -0.07582 0.06942
 H323 H -0.01770 0.02961 -0.08211
 H324 H 0.01115 0.06532 -0.04859
 H325 H -0.06423 -0.07417 0.05639
 H326 H -0.04334 0.02267 0.08867
 H327 H 0.06087 -0.02845 -0.08139
 H328 H 0.08207 0.01143 -0.05490
 H329 H -0.05189 0.05408 0.01825
 H330 H -0.07794 0.02374 -0.01611
 H331 H 0.09610 -0.05315 0.01268
 H332 H 0.06692 -0.09277 -0.01928
 O333 O 0.07792 0.54872 0.49028
 O334 O 0.06521 0.54580 0.43883
 O335 O -0.00720 0.57666 0.53158
 O336 O -0.05539 0.55908 0.52948
 O337 O 0.04341 0.50772 0.57399
 O338 O 0.05155 0.45440 0.56309
 O339 O -0.07394 0.48047 0.45579
 O340 O -0.07396 0.53275 0.45879
 O341 O 0.01016 0.45916 0.41163
 O342 O 0.06433 0.47294 0.42363
 O343 O -0.02065 0.41306 0.48478
 O344 O -0.01501 0.41637 0.53819
 O345 O -0.06617 0.44649 0.49417
 O346 O -0.04848 0.44832 0.54963
 O347 O 0.01825 0.41906 0.45142
 O348 O 0.06959 0.43942 0.45435
 O349 O -0.03462 0.48436 0.41364
 O350 O -0.03506 0.54019 0.42146
 O351 O 0.08492 0.51425 0.52845
 O352 O 0.08375 0.46003 0.52890
 O353 O -0.00040 0.53464 0.57369
 O354 O -0.05200 0.52131 0.56184
 O355 O 0.02993 0.58274 0.49605
 O356 O 0.02060 0.57143 0.44062
 Zr357 Zr 0.03375 0.54008 0.47497
 O358 O 0.01255 0.50848 0.44598
 Zr359 Zr -0.01739 0.52994 0.52942
 O360 O -0.04069 0.49783 0.50295
 Zr361 Zr 0.04505 0.48815 0.52937
 O362 O 0.02465 0.45416 0.50221
 Zr363 Zr -0.03390 0.50657 0.45622
 O364 O -0.01328 0.54109 0.48283
 Zr365 Zr 0.02911 0.46504 0.45551
 O366 O 0.05267 0.49691 0.48248
 Zr367 Zr -0.02213 0.45435 0.50962
 O368 O -0.00131 0.48593 0.53967
 O369 O 0.02884 0.53141 0.52156
 O370 O -0.01732 0.46304 0.46319
 C371 C 0.09402 0.53605 0.51116
 C372 C 0.01280 0.59272 0.51761
 C373 C 0.02335 0.52468 0.58703
 C374 C -0.08257 0.45861 0.47331
 C375 C -0.01509 0.46764 0.39987
 C376 C -0.00330 0.40348 0.46305
 H377 H 0.01595 0.51433 0.42438
 H378 H 0.03336 0.43406 0.50692
 H379 H 0.03971 0.54615 0.53461
 H380 H -0.06227 0.49901 0.50874
 H381 H -0.06777 0.55353 0.46461
 H382 H -0.07105 0.54953 0.51654
 H383 H 0.07009 0.42655 0.47288
 H384 H 0.09225 0.46136 0.50796
 H385 H -0.05221 0.53555 0.40762
 H386 H 0.03333 0.58984 0.44242
 H387 H 0.00473 0.41934 0.54827
 H388 H 0.03263 0.45340 0.57520
 H389 H 0.07800 0.52739 0.43841
 H390 H 0.05702 0.48796 0.40854
 H391 H -0.04572 0.50329 0.57373
 H392 H -0.06632 0.46174 0.54779
 O393 O 0.49210 0.08713 0.54543
 O394 O 0.44092 0.06949 0.53721
 O395 O 0.53866 0.01726 0.58729
 O396 O 0.54584 -0.03332 0.57992
 O397 O 0.57640 0.05443 0.50314
 O398 O 0.56063 0.05408 0.44998
 O399 O 0.47418 -0.07728 0.50113
 O400 O 0.48300 -0.07033 0.55474
 O401 O 0.42179 -0.00949 0.46976
 O402 O 0.42676 0.04870 0.47039
 O403 O 0.50553 -0.03226 0.42566
 O404 O 0.56006 -0.01909 0.43792
 O405 O 0.51233 -0.07180 0.46660
 O406 O 0.56374 -0.05330 0.46809
 O407 O 0.46178 -0.00529 0.42656
 O408 O 0.45519 0.04646 0.43218
 O409 O 0.42954 -0.04441 0.50717
 O410 O 0.44155 -0.03461 0.56085
 O411 O 0.52897 0.09171 0.50928
 O412 O 0.52439 0.08314 0.45496
 O413 O 0.58146 0.02198 0.54324
 O414 O 0.57851 -0.03220 0.54125
 O415 O 0.49590 0.04592 0.58619
 O416 O 0.44447 0.03208 0.57403
 Zr417 Zr 0.47932 0.04104 0.54178
 O418 O 0.45523 0.00879 0.51600
 Zr419 Zr 0.54077 -0.00269 0.54303
 O420 O 0.51947 -0.03628 0.51629
 Zr421 Zr 0.53143 0.04885 0.48800
 O422 O 0.50890 0.01778 0.45925
 Zr423 Zr 0.47272 -0.03487 0.52379
 O424 O 0.49427 -0.00319 0.55297
 Zr425 Zr 0.46230 0.01658 0.46928
 O426 O 0.48437 0.05102 0.49493
 Zr427 Zr 0.52436 -0.02602 0.46948
 O428 O 0.54910 0.00535 0.49607
 O429 O 0.52584 0.04084 0.53443
 O430 O 0.47787 -0.02707 0.47710
 C431 C 0.51283 0.10229 0.53142
 C432 C 0.51928 0.03540 0.59976
 C433 C 0.59180 0.04224 0.52489
 C434 C 0.49126 -0.08726 0.47933
 C435 C 0.41317 -0.03199 0.48651
 C436 C 0.48077 -0.02309 0.41342
 H437 H 0.43365 0.01020 0.52177
 H438 H 0.51249 0.02322 0.43758
 H439 H 0.53732 0.05509 0.54747
 H440 H 0.52765 -0.05656 0.52119
 H441 H 0.48799 -0.06059 0.57454
 H442 H 0.53826 -0.05325 0.57298
 H443 H 0.47407 0.05814 0.42972
 H444 H 0.50373 0.09114 0.45837
 H445 H 0.43092 -0.05439 0.56115
 H446 H 0.44254 0.04970 0.58805
 H447 H 0.55296 -0.00457 0.42223
 H448 H 0.57437 0.03637 0.45003
 H449 H 0.44350 0.08137 0.51815
 H450 H 0.41332 0.04328 0.48766
 H451 H 0.58774 -0.02966 0.52074
 H452 H 0.56465 -0.06494 0.48742
 O453 O 0.44956 0.41874 0.01653
 O454 O 0.45717 0.42887 0.06735
 O455 O 0.40012 0.49350 -0.01820
 O456 O 0.40414 0.54486 -0.01252
 O457 O 0.47397 0.46448 -0.06921
 O458 O 0.52655 0.46648 -0.06497
 O459 O 0.48539 0.57971 0.05404
 O460 O 0.43599 0.56791 0.05762
 O461 O 0.53217 0.50072 0.08762
 O462 O 0.53410 0.44849 0.07364
 O463 O 0.56097 0.54329 0.00436
 O464 O 0.54237 0.54380 -0.04758
 O465 O 0.51870 0.58176 0.01434
 O466 O 0.50778 0.57243 -0.04210
 O467 O 0.56726 0.50841 0.04199
 O468 O 0.55898 0.45097 0.03531
 O469 O 0.49739 0.53827 0.09290
 O470 O 0.44210 0.52585 0.09126
 O471 O 0.48010 0.42045 -0.02550
 O472 O 0.53357 0.43474 -0.03065
 O473 O 0.43847 0.50142 -0.06415
 O474 O 0.43772 0.55410 -0.04799
 O475 O 0.40580 0.45763 0.01870
 O476 O 0.42326 0.46750 0.07295
 Zr477 Zr 0.45105 0.46273 0.03357
 O478 O 0.48122 0.48907 0.05949
 Zr479 Zr 0.44203 0.51625 -0.01855
 O480 O 0.47033 0.54582 0.00616
 Zr481 Zr 0.49701 0.46542 -0.02692
 O482 O 0.52820 0.49358 -0.00405
 Zr483 Zr 0.47040 0.53482 0.05302
 O484 O 0.43820 0.50829 0.02891
 Zr485 Zr 0.52572 0.48470 0.04305
 O486 O 0.49623 0.45473 0.01997
 Zr487 Zr 0.51527 0.53930 -0.00787
 O488 O 0.48665 0.51146 -0.03471
 O489 O 0.45253 0.47076 -0.01340
 O490 O 0.51528 0.53052 0.03894
 C491 C 0.46244 0.40647 -0.00665
 C492 C 0.39034 0.47099 -0.00230
 C493 C 0.45262 0.48125 -0.07982
 C494 C 0.50476 0.59363 0.03732
 C495 C 0.51956 0.52210 0.10282
 C496 C 0.57694 0.53011 0.02494
 H497 H 0.47944 0.48321 0.08129
 H498 H 0.54871 0.49004 -0.01232
 H499 H 0.43945 0.45723 -0.02566
 H500 H 0.46346 0.56690 0.00295
 H501 H 0.41660 0.55757 0.05329
 H502 H 0.41038 0.56104 0.00181
 H503 H 0.57242 0.45801 0.01866
 H504 H 0.53468 0.42372 -0.01095
 H505 H 0.44483 0.54247 0.10631
 H506 H 0.40768 0.45135 0.07263
 H507 H 0.55437 0.52500 -0.04969
 H508 H 0.52577 0.48742 -0.07302
 H509 H 0.47807 0.42120 0.06495
 H510 H 0.51658 0.44716 0.08767
 H511 H 0.45586 0.55425 -0.06127
 H512 H 0.49200 0.58650 -0.03458
 O513 O 0.79085 0.32599 0.48971
 O514 O 0.78591 0.31776 0.54352
 O515 O 0.84243 0.25406 0.45553
 O516 O 0.84180 0.20242 0.45886
 O517 O 0.75990 0.27736 0.41340
 O518 O 0.70686 0.26572 0.42556
 O519 O 0.77378 0.16324 0.53855
 O520 O 0.82365 0.17779 0.52804
 O521 O 0.72852 0.23268 0.57740
 O522 O 0.72315 0.28971 0.56453
 O523 O 0.68885 0.19383 0.49865
 O524 O 0.70187 0.19264 0.44425
 O525 O 0.73425 0.15868 0.50557
 O526 O 0.73719 0.16451 0.44760
 O527 O 0.68559 0.22832 0.53714
 O528 O 0.68809 0.28197 0.53599
 O529 O 0.77099 0.20365 0.57641
 O530 O 0.82194 0.22068 0.56316
 O531 O 0.75203 0.32005 0.45605
 O532 O 0.70217 0.30095 0.45735
 O533 O 0.79936 0.24430 0.41312
 O534 O 0.80449 0.19293 0.42613
 O535 O 0.83779 0.28936 0.49329
 O536 O 0.82601 0.28566 0.54732
 Zr537 Zr 0.79423 0.28308 0.51093
 O538 O 0.77282 0.25304 0.54140
 Zr539 Zr 0.80181 0.22880 0.45825
 O540 O 0.77993 0.19675 0.48630
 Zr541 Zr 0.74141 0.27361 0.45804
 O542 O 0.71704 0.24403 0.48681
 Zr543 Zr 0.78707 0.20853 0.53210
 O544 O 0.81144 0.23885 0.50422
 Zr545 Zr 0.72616 0.25305 0.53334
 O546 O 0.74716 0.28547 0.50442
 Zr547 Zr 0.73277 0.19954 0.48053
 O548 O 0.75496 0.22880 0.44918
 O549 O 0.78776 0.27324 0.46481
 O550 O 0.74015 0.20869 0.52657
 C551 C 0.77238 0.33615 0.46929
 C552 C 0.85261 0.27621 0.47183
 C553 C 0.78198 0.26355 0.40005
 C554 C 0.75147 0.14849 0.52700
 C555 C 0.74773 0.21444 0.58988
 C556 C 0.67458 0.20678 0.52080
 H557 H 0.77776 0.25896 0.56267
 H558 H 0.69532 0.24613 0.48194
 H559 H 0.79862 0.28747 0.45119
 H560 H 0.78758 0.17611 0.48213
 H561 H 0.84135 0.18979 0.52131
 H562 H 0.83725 0.18336 0.46981
 H563 H 0.67795 0.28129 0.51581
 H564 H 0.70060 0.31028 0.47793
 H565 H 0.82529 0.20342 0.57730
 H566 H 0.83805 0.30451 0.54509
 H567 H 0.68798 0.21022 0.44409
 H568 H 0.71261 0.24720 0.41414
 H569 H 0.76475 0.32451 0.54074
 H570 H 0.73980 0.28767 0.57949
 H571 H 0.78354 0.18873 0.41943
 H572 H 0.75459 0.15167 0.45343
 O573 O 0.83184 0.74783 -0.02949
 O574 O 0.82604 0.69617 -0.01707
 O575 O 0.75969 0.77273 -0.08458
 O576 O 0.70912 0.76733 -0.08469
 O577 O 0.78087 0.82555 -0.00770
 O578 O 0.77155 0.82225 0.04571
 O579 O 0.67106 0.69816 -0.00547
 O580 O 0.68820 0.69624 -0.05503
 O581 O 0.74519 0.66994 0.04938
 O582 O 0.79511 0.68442 0.05686
 O583 O 0.69737 0.75181 0.07343
 O584 O 0.69451 0.80141 0.05330
 O585 O 0.66372 0.73714 0.02786
 O586 O 0.67028 0.79366 0.01540
 O587 O 0.73341 0.71678 0.08432
 O588 O 0.79118 0.72391 0.07990
 O589 O 0.71218 0.66282 0.01019
 O590 O 0.73110 0.66483 -0.04392
 O591 O 0.82486 0.78641 0.00448
 O592 O 0.80481 0.79063 0.05650
 O593 O 0.74753 0.81930 -0.04681
 O594 O 0.69539 0.80086 -0.05161
 O595 O 0.79596 0.73738 -0.07523
 O596 O 0.79217 0.68483 -0.05494
 Zr597 Zr 0.78983 0.72537 -0.02883
 O598 O 0.76160 0.69836 -0.00113
 Zr599 Zr 0.73410 0.77366 -0.04393
 O600 O 0.70321 0.74768 -0.01840
 Zr601 Zr 0.77857 0.78467 0.01648
 O602 O 0.74868 0.76077 0.04508
 Zr603 Zr 0.71694 0.70216 -0.01674
 O604 O 0.74549 0.72730 -0.04636
 Zr605 Zr 0.76027 0.71469 0.04409
 O606 O 0.79210 0.73911 0.01747
 Zr607 Zr 0.70448 0.76218 0.02731
 O608 O 0.73361 0.79016 0.00128
 O609 O 0.77845 0.77104 -0.02894
 O610 O 0.71575 0.71643 0.02885
 C611 C 0.84127 0.77098 -0.01431
 C612 C 0.78264 0.75669 -0.09267
 C613 C 0.76623 0.83521 -0.03110
 C614 C 0.65461 0.71351 0.01321
 C615 C 0.72593 0.65396 0.03451
 C616 C 0.71052 0.73334 0.09168
 H617 H 0.76868 0.67710 -0.00199
 H618 H 0.74985 0.76946 0.06593
 H619 H 0.79213 0.78350 -0.04169
 H620 H 0.68279 0.74951 -0.02740
 H621 H 0.70053 0.70059 -0.07346
 H622 H 0.69424 0.75118 -0.08045
 H623 H 0.78297 0.74092 0.09214
 H624 H 0.81717 0.77207 0.05888
 H625 H 0.71495 0.64928 -0.04323
 H626 H 0.81004 0.68592 -0.06866
 H627 H 0.71268 0.80608 0.06561
 H628 H 0.75141 0.83059 0.04051
 H629 H 0.83264 0.70191 0.00381
 H630 H 0.80247 0.67475 0.03781
 H631 H 0.69355 0.81467 -0.03382
 H632 H 0.65754 0.78444 -0.00071
 O633 O 1.06926 0.22546 0.21898
 O634 O 1.05758 0.22812 0.27177
 O635 O 0.98913 0.18232 0.18190
 O636 O 0.94185 0.19298 0.17135
 O637 O 1.03048 0.26540 0.14088
 O638 O 1.02485 0.31799 0.15400
 O639 O 0.90770 0.26505 0.25973
 O640 O 0.91381 0.21282 0.24842
 O641 O 0.98143 0.29688 0.30304
 O642 O 1.03462 0.29931 0.29393
 O643 O 0.94711 0.34104 0.22149
 O644 O 0.95018 0.33163 0.16782
 O645 O 0.90767 0.30004 0.22153
 O646 O 0.92101 0.29655 0.16464
 O647 O 0.97875 0.33969 0.26245
 O648 O 1.03602 0.33109 0.26078
 O649 O 0.94743 0.25848 0.29978
 O650 O 0.95506 0.20545 0.28386
 O651 O 1.06970 0.26541 0.18603
 O652 O 1.05637 0.31788 0.18982
 O653 O 0.99696 0.22647 0.13820
 O654 O 0.93973 0.23275 0.14689
 O655 O 1.02701 0.18239 0.21702
 O656 O 1.01972 0.19311 0.27182
 Zr657 Zr 1.02449 0.22609 0.23675
 O658 O 0.99574 0.25121 0.26585
 Zr659 Zr 0.97377 0.22735 0.18050
 O660 O 0.94261 0.25157 0.20770
 Zr661 Zr 1.02523 0.28180 0.18572
 O662 O 0.99632 0.30888 0.21239
 Zr663 Zr 0.95023 0.24335 0.25435
 O664 O 0.97875 0.21568 0.22700
 Zr665 Zr 1.00156 0.29787 0.25898
 O666 O 1.03306 0.27288 0.23235
 Zr667 Zr 0.95121 0.29794 0.20225
 O668 O 0.98029 0.27382 0.17247
 O669 O 1.01889 0.23532 0.19059
 O670 O 0.95642 0.28971 0.24902
 C671 C 1.08264 0.24320 0.19972
 C672 C 1.01028 0.16911 0.19701
 C673 C 1.01813 0.24305 0.12687
 C674 C 0.89522 0.28680 0.24450
 C675 C 0.96136 0.27922 0.31475
 C676 C 0.95893 0.35279 0.24546
 H677 H 1.00013 0.24514 0.28720
 H678 H 1.00079 0.33043 0.20826
 H679 H 1.03273 0.22265 0.17817
 H680 H 0.92163 0.24622 0.20207
 H681 H 0.92263 0.19389 0.24013
 H682 H 0.92798 0.19260 0.18910
 H683 H 1.03139 0.34677 0.24530
 H684 H 1.06488 0.31663 0.21074
 H685 H 0.93746 0.20505 0.29796
 H686 H 1.03653 0.17828 0.27013
 H687 H 0.96949 0.34285 0.16892
 H688 H 1.00609 0.31589 0.14182
 H689 H 1.06652 0.24866 0.27109
 H690 H 1.03590 0.27875 0.30282
 H691 H 0.94584 0.24999 0.13378
 H692 H 0.90570 0.28075 0.16872
 O693 O 0.66669 1.02922 0.75224
 O694 O 0.67601 1.02647 0.80602
 O695 O 0.74252 1.07437 0.71493
 O696 O 0.79283 1.06667 0.71074
 O697 O 0.70955 0.98817 0.67650
 O698 O 0.71766 0.93590 0.69261
 O699 O 0.82894 1.00538 0.79463
 O700 O 0.81584 1.05450 0.78330
 O701 O 0.76004 0.96400 0.83950
 O702 O 0.70067 0.96623 0.83078
 O703 O 0.79119 0.91758 0.76544
 O704 O 0.78884 0.92797 0.70767
 O705 O 0.83020 0.96306 0.76478
 O706 O 0.82381 0.95825 0.71175
 O707 O 0.75476 0.91937 0.80206
 O708 O 0.70360 0.92767 0.80559
 O709 O 0.79102 1.00485 0.83563
 O710 O 0.77526 1.05655 0.82040
 O711 O 0.66845 0.98815 0.72063
 O712 O 0.68359 0.93652 0.72575
 O713 O 0.74103 1.02865 0.67314
 O714 O 0.79569 1.02695 0.68204
 O715 O 0.70681 1.07351 0.75246
 O716 O 0.71048 1.06456 0.80642
 Zr717 Zr 0.71000 1.03049 0.77197
 O718 O 0.73942 1.00918 0.80294
 Zr719 Zr 0.76204 1.03044 0.71641
 O720 O 0.79322 1.00799 0.74506
 Zr721 Zr 0.71370 0.97354 0.72237
 O722 O 0.74227 0.94902 0.75194
 Zr723 Zr 0.78410 1.01939 0.79076
 O724 O 0.75478 1.04381 0.76210
 Zr725 Zr 0.73561 0.96234 0.79777
 O726 O 0.70386 0.98341 0.76850
 Zr727 Zr 0.78752 0.96058 0.74320
 O728 O 0.75896 0.98297 0.71096
 O729 O 0.71735 1.02033 0.72598
 O730 O 0.78061 0.97216 0.78874
 C731 C 0.65467 1.01072 0.73297
 C732 C 0.72182 1.08701 0.73144
 C733 C 0.72151 1.01033 0.66168
 C734 C 0.84238 0.98211 0.78348
 C735 C 0.78032 0.98214 0.85018
 C736 C 0.77573 0.90554 0.78742
 H737 H 0.73488 1.01573 0.82414
 H738 H 0.73819 0.92723 0.74872
 H739 H 0.70356 1.03187 0.71248
 H740 H 0.81406 1.01374 0.73932
 H741 H 0.80434 1.07202 0.77520
 H742 H 0.81045 1.06257 0.72401
 H743 H 0.70009 0.91769 0.78561
 H744 H 0.67345 0.93834 0.74590
 H745 H 0.79307 1.05930 0.83389
 H746 H 0.69231 1.07760 0.80414
 H747 H 0.77290 0.91287 0.71208
 H748 H 0.73634 0.93897 0.68048
 H749 H 0.66710 1.00598 0.80415
 H750 H 0.70798 0.97930 0.84764
 H751 H 0.79289 1.00708 0.67189
 H752 H 0.82583 0.97861 0.70260
 O753 O 0.74159 0.58848 0.21667
 O754 O 0.78701 0.57385 0.20485
 O755 O 0.69475 0.50254 0.18681
 O756 O 0.68947 0.45616 0.20527
 O757 O 0.66156 0.55494 0.26674
 O758 O 0.67742 0.56276 0.31542
 O759 O 0.77857 0.43267 0.27036
 O760 O 0.77007 0.43577 0.21913
 O761 O 0.82258 0.51599 0.29511
 O762 O 0.81411 0.56551 0.28854
 O763 O 0.75106 0.48034 0.34576
 O764 O 0.69966 0.48359 0.34553
 O765 O 0.74305 0.43666 0.30784
 O766 O 0.68671 0.45475 0.31036
 O767 O 0.78634 0.51715 0.33944
 O768 O 0.77885 0.57300 0.32223
 O769 O 0.81904 0.47302 0.26661
 O770 O 0.80527 0.47542 0.21035
 O771 O 0.70571 0.59481 0.25343
 O772 O 0.71547 0.58911 0.31022
 O773 O 0.65636 0.51607 0.23302
 O774 O 0.66702 0.46044 0.24626
 O775 O 0.72850 0.54033 0.17838
 O776 O 0.78587 0.53164 0.18562
 Zr777 Zr 0.75369 0.54291 0.21972
 O778 O 0.78472 0.52058 0.24842
 Zr779 Zr 0.69901 0.49378 0.23356
 O780 O 0.72889 0.46702 0.25967
 Zr781 Zr 0.70718 0.55369 0.27864
 O782 O 0.73437 0.52840 0.30895
 Zr783 Zr 0.77460 0.47426 0.24772
 O784 O 0.74410 0.49645 0.21743
 Zr785 Zr 0.77912 0.53349 0.29452
 O786 O 0.75223 0.56007 0.26501
 Zr787 Zr 0.72601 0.48155 0.30517
 O788 O 0.69458 0.50748 0.27944
 O789 O 0.70877 0.53980 0.23310
 O790 O 0.77119 0.48696 0.29340
 C791 C 0.72195 0.60450 0.23093
 C792 C 0.70721 0.52237 0.16959
 C793 C 0.64594 0.53895 0.24814
 C794 C 0.76340 0.42180 0.29285
 C795 C 0.83374 0.49170 0.28389
 C796 C 0.77383 0.49579 0.35496
 H797 H 0.80554 0.52461 0.24118
 H798 H 0.73135 0.53543 0.33025
 H799 H 0.69524 0.55187 0.21978
 H800 H 0.72309 0.44554 0.25699
 H801 H 0.76059 0.44295 0.19992
 H802 H 0.70883 0.44523 0.20271
 H803 H 0.76773 0.56854 0.34138
 H804 H 0.73258 0.60108 0.30204
 H805 H 0.82005 0.45874 0.21321
 H806 H 0.77774 0.51406 0.17417
 H807 H 0.69295 0.50484 0.34774
 H808 H 0.66946 0.54289 0.32212
 H809 H 0.80135 0.57612 0.22206
 H810 H 0.80676 0.58020 0.27314
 H811 H 0.65441 0.46923 0.26279
 H812 H 0.68906 0.43675 0.29703
 O813 O 0.52530 0.29915 0.84073
 O814 O 0.57619 0.29945 0.82774
 O815 O 0.47958 0.33876 0.76553
 O816 O 0.47754 0.33158 0.71423
 O817 O 0.44680 0.25068 0.79797
 O818 O 0.46327 0.20453 0.80416
 O819 O 0.56054 0.26605 0.67585
 O820 O 0.54968 0.31620 0.68607
 O821 O 0.60571 0.22854 0.74753
 O822 O 0.60322 0.22871 0.80142
 O823 O 0.53063 0.18211 0.71822
 O824 O 0.47876 0.18876 0.72163
 O825 O 0.53053 0.22424 0.67717
 O826 O 0.47396 0.22516 0.68870
 O827 O 0.56755 0.18474 0.75426
 O828 O 0.56930 0.19964 0.81059
 O829 O 0.60172 0.26778 0.71410
 O830 O 0.58682 0.32079 0.72618
 O831 O 0.49064 0.26108 0.84115
 O832 O 0.50292 0.20600 0.82844
 O833 O 0.44118 0.29085 0.76599
 O834 O 0.45076 0.29059 0.71069
 O835 O 0.51886 0.34112 0.79903
 O836 O 0.57333 0.33386 0.78890
 Zr837 Zr 0.54067 0.29919 0.79522
 O838 O 0.57012 0.27543 0.76602
 Zr839 Zr 0.48408 0.29530 0.74513
 O840 O 0.51183 0.27219 0.71326
 Zr841 Zr 0.49308 0.24125 0.79712
 O842 O 0.51974 0.21529 0.76713
 Zr843 Zr 0.55731 0.28331 0.72050
 O844 O 0.52932 0.30961 0.74953
 Zr845 Zr 0.56501 0.22867 0.77228
 O846 O 0.53853 0.25255 0.80461
 Zr847 Zr 0.50976 0.22517 0.72104
 O848 O 0.47967 0.24804 0.75126
 O849 O 0.49516 0.28769 0.79056
 O850 O 0.55497 0.23641 0.72644
 C851 C 0.50513 0.28291 0.85408
 C852 C 0.49561 0.35259 0.78590
 C853 C 0.43077 0.27114 0.78497
 C854 C 0.54924 0.24215 0.66354
 C855 C 0.61611 0.24553 0.72609
 C856 C 0.55225 0.17037 0.73400
 H857 H 0.59117 0.28205 0.76962
 H858 H 0.51621 0.19374 0.77213
 H859 H 0.48132 0.29900 0.80427
 H860 H 0.50582 0.27749 0.69213
 H861 H 0.54196 0.33453 0.69660
 H862 H 0.49112 0.32794 0.69660
 H863 H 0.55390 0.18353 0.80844
 H864 H 0.51927 0.21336 0.84202
 H865 H 0.60004 0.32195 0.70785
 H866 H 0.57129 0.34889 0.80571
 H867 H 0.46143 0.19537 0.73437
 H868 H 0.46443 0.19181 0.78555
 H869 H 0.57808 0.27852 0.83564
 H870 H 0.60978 0.24997 0.80388
 H871 H 0.44292 0.26965 0.71228
 H872 H 0.47805 0.24086 0.67310
 O873 O 0.33826 0.76407 0.46962
 O874 O 0.33933 0.71088 0.47409
 O875 O 0.25756 0.78454 0.42261
 O876 O 0.20726 0.77578 0.42898
 O877 O 0.28283 0.83195 0.50366
 O878 O 0.27492 0.82015 0.55791
 O879 O 0.18616 0.69443 0.49651
 O880 O 0.19986 0.70023 0.44669
 O881 O 0.26788 0.66593 0.54164
 O882 O 0.32028 0.68667 0.54184
 O883 O 0.21639 0.73226 0.58218
 O884 O 0.20897 0.78820 0.57184
 O885 O 0.17812 0.72681 0.53631
 O886 O 0.17810 0.78159 0.53899
 O887 O 0.26002 0.70516 0.58320
 O888 O 0.31344 0.71760 0.57446
 O889 O 0.23116 0.66177 0.50556
 O890 O 0.24546 0.67211 0.45035
 O891 O 0.33059 0.79604 0.50993
 O892 O 0.31433 0.79421 0.56171
 O893 O 0.24758 0.82643 0.46626
 O894 O 0.19669 0.80505 0.46708
 O895 O 0.29902 0.75407 0.42450
 O896 O 0.30460 0.70101 0.43700
 Zr897 Zr 0.29927 0.73682 0.46914
 O898 O 0.27697 0.70259 0.49372
 Zr899 Zr 0.23741 0.77983 0.46633
 O900 O 0.21261 0.74738 0.49114
 Zr901 Zr 0.28572 0.78823 0.52343
 O902 O 0.26333 0.75579 0.55074
 Zr903 Zr 0.23067 0.70403 0.48358
 O904 O 0.25342 0.73605 0.45602
 Zr905 Zr 0.27973 0.71219 0.54051
 O906 O 0.30470 0.74500 0.51627
 Zr907 Zr 0.21735 0.75415 0.53869
 O908 O 0.23921 0.78937 0.51364
 O909 O 0.28308 0.78050 0.47656
 O910 O 0.23361 0.71072 0.53079
 C911 C 0.34676 0.78519 0.48808
 C912 C 0.28103 0.77205 0.41043
 C913 C 0.26633 0.84246 0.48179
 C914 C 0.16960 0.70564 0.51787
 C915 C 0.24745 0.65091 0.52725
 C916 C 0.23537 0.71431 0.59542
 H917 H 0.28568 0.68254 0.48870
 H918 H 0.26620 0.76096 0.57257
 H919 H 0.29427 0.79551 0.46412
 H920 H 0.19128 0.74859 0.48456
 H921 H 0.20998 0.70903 0.42851
 H922 H 0.19408 0.75821 0.43322
 H923 H 0.30700 0.73423 0.58822
 H924 H 0.32725 0.77592 0.56281
 H925 H 0.23131 0.65471 0.45079
 H926 H 0.32163 0.70583 0.42298
 H927 H 0.22638 0.78859 0.58604
 H928 H 0.25393 0.82691 0.55396
 H929 H 0.34669 0.71402 0.49526
 H930 H 0.32091 0.67359 0.52344
 H931 H 0.19603 0.81579 0.48700
 H932 H 0.16932 0.78081 0.51818
 O933 O 0.33289 0.24025 0.94595
 O934 O 0.32760 0.19014 0.94727
 O935 O 0.24720 0.26881 0.90415
 O936 O 0.19813 0.26380 0.91542
 O937 O 0.28329 0.31882 0.97944
 O938 O 0.28542 0.31277 1.03162
 O939 O 0.18011 0.18602 0.98997
 O940 O 0.19034 0.18464 0.93985
 O941 O 0.26479 0.15931 1.03309
 O942 O 0.31506 0.17591 1.03004
 O943 O 0.21538 0.23079 1.06794
 O944 O 0.20932 0.28113 1.05830
 O945 O 0.17442 0.22382 1.02499
 O946 O 0.18209 0.28229 1.01993
 O947 O 0.25843 0.20287 1.07051
 O948 O 0.31375 0.21427 1.05494
 O949 O 0.22434 0.15287 1.00183
 O950 O 0.23496 0.15588 0.94389
 O951 O 0.33073 0.27909 0.98025
 O952 O 0.31831 0.28020 1.03652
 O953 O 0.24429 0.31304 0.94614
 O954 O 0.19159 0.29274 0.95241
 O955 O 0.28992 0.24019 0.90458
 O956 O 0.28583 0.18336 0.91843
 Zr957 Zr 0.29053 0.22042 0.94902
 O958 O 0.27043 0.19014 0.98028
 Zr959 Zr 0.23188 0.26696 0.94945
 O960 O 0.20767 0.23703 0.97765
 Zr961 Zr 0.28673 0.27619 1.00037
 O962 O 0.26293 0.24929 1.03230
 Zr963 Zr 0.22372 0.19219 0.97372
 O964 O 0.24391 0.22135 0.94090
 Zr965 Zr 0.27677 0.20439 1.02585
 O966 O 0.30160 0.23138 0.99489
 Zr967 Zr 0.21596 0.24858 1.02340
 O968 O 0.23925 0.28014 0.99510
 O969 O 0.27847 0.26559 0.95496
 O970 O 0.23006 0.20390 1.01945
 C971 C 0.34478 0.26251 0.96029
 C972 C 0.27103 0.25821 0.89131
 C973 C 0.26476 0.32907 0.95936
 C974 C 0.16448 0.20080 1.00963
 C975 C 0.24238 0.14390 1.02322
 C976 C 0.23417 0.21388 1.08239
 H977 H 0.27819 0.16936 0.97697
 H978 H 0.26712 0.25658 1.05330
 H979 H 0.28971 0.27944 0.94125
 H980 H 0.18610 0.23869 0.97196
 H981 H 0.19898 0.19164 0.92016
 H982 H 0.19052 0.24277 0.91627
 H983 H 0.30683 0.22904 1.07052
 H984 H 0.33345 0.26392 1.03365
 H985 H 0.22101 0.13889 0.94841
 H986 H 0.29847 0.18726 0.90007
 H987 H 0.22886 0.29163 1.06098
 H988 H 0.26389 0.31860 1.03358
 H989 H 0.33502 0.18819 0.96856
 H990 H 0.31674 0.16407 1.01088
 H991 H 0.19453 0.30790 0.96886
 H992 H 0.16665 0.27484 1.00537
 N993 N 0.32290 0.35557 0.74346
 N994 N 0.33200 0.32897 0.75399
 C995 C 0.31841 0.32506 0.78136
 C996 C 0.30053 0.35014 0.78736
 N997 N 0.30410 0.36865 0.76308
 H998 H 0.28716 0.35493 0.80758
 N999 N 0.24500 -0.12137 0.32294
 N1000 N 0.25479 -0.14955 0.32576
 C1001 C 0.28208 -0.15068 0.31202
 C1002 C 0.28881 -0.12231 0.30054
 N1003 N 0.26506 -0.10475 0.30801
 H1004 H 0.30906 -0.11484 0.28886
 N1005 N 0.75918 0.85900 0.81082
 N1006 N 0.76834 0.83113 0.81680
 C1007 C 0.79640 0.82848 0.80519
 C1008 C 0.80418 0.85586 0.79135
 N1009 N 0.78016 0.87432 0.79569
 H1010 H 0.82527 0.86203 0.78043
 N1011 N 0.43250 0.90234 0.25211
 N1012 N 0.42335 0.92764 0.26557
 C1013 C 0.43387 0.92661 0.29450
 C1014 C 0.44992 0.89996 0.29841
 N1015 N 0.44858 0.88558 0.27131
 H1016 H 0.46066 0.89141 0.31894
 N1017 N -0.06185 0.88245 0.74663
 N1018 N -0.06847 0.90939 0.75827
 C1019 C -0.05714 0.90976 0.78696
 C1020 C -0.04341 0.88232 0.79265
 N1021 N -0.04686 0.86600 0.76692
 H1022 H -0.03247 0.87466 0.81342
 N1023 N 0.00474 -0.15553 -0.05452
 N1024 N -0.00927 -0.17995 -0.06500
 C1025 C -0.03781 -0.17877 -0.05413
 C1026 C -0.04084 -0.15296 -0.03643
 N1027 N -0.01373 -0.13922 -0.03719
 H1028 H -0.06105 -0.14397 -0.02575
 N1029 N 0.00938 0.36095 0.42983
 N1030 N -0.00355 0.33663 0.41775
 C1031 C -0.03144 0.33487 0.43009
 C1032 C -0.03516 0.35880 0.45032
 N1033 N -0.00906 0.37438 0.44961
 H1034 H -0.05522 0.36527 0.46295
 N1035 N 0.50447 -0.13087 0.44789
 N1036 N 0.49180 -0.15576 0.43678
 C1037 C 0.46399 -0.15732 0.44927
 C1038 C 0.46001 -0.13272 0.46856
 N1039 N 0.48590 -0.11692 0.46716
 H1040 H 0.43986 -0.12591 0.48086
 N1041 N 0.44119 0.35808 0.00812
 N1042 N 0.43650 0.33077 -0.00342
 C1043 C 0.44876 0.33100 -0.03168
 C1044 C 0.46117 0.35910 -0.03725
 N1045 N 0.45592 0.37526 -0.01177
 H1046 H 0.47169 0.36739 -0.05802
 N1047 N 0.75334 0.38298 0.44659
 N1048 N 0.76321 0.41034 0.43899
 C1049 C 0.79250 0.41165 0.44749
 C1050 C 0.80023 0.38419 0.46070
 N1051 N 0.77514 0.36712 0.45985
 H1052 H 0.82203 0.37667 0.46894
 N1053 N 0.75122 0.88343 -0.05333
 N1054 N 0.76335 0.91015 -0.05953
 C1055 C 0.79247 0.90877 -0.05033
 C1056 C 0.79785 0.88051 -0.03821
 N1057 N 0.77160 0.86554 -0.04054
 H1058 H 0.81886 0.87104 -0.02988
 N1059 N 0.80116 0.25133 0.34934
 N1060 N 0.80802 0.26521 0.32335
 C1061 C 0.79989 0.29447 0.32691
 C1062 C 0.78756 0.29806 0.35583
 N1063 N 0.78860 0.27058 0.36886
 H1064 H 0.78034 0.31869 0.36710
 N1065 N 0.81074 0.74096 -0.13806
 N1066 N 0.81971 0.75229 -0.16466
 C1067 C 0.80931 0.78104 -0.16597
 C1068 C 0.79345 0.78692 -0.13928
 N1069 N 0.79481 0.76131 -0.12268
 H1070 H 0.78295 0.80785 -0.13192
 N1071 N 0.30688 0.48655 0.88009
 N1072 N 0.31184 0.47813 0.90873
 C1073 C 0.30207 0.44934 0.91113
 C1074 C 0.29076 0.44031 0.88290
 N1075 N 0.29427 0.46429 0.86427
 H1076 H 0.28128 0.41866 0.87638
 N1077 N 0.29870 0.00970 0.41028
 N1078 N 0.31016 -0.00483 0.43416
 C1079 C 0.29969 -0.03351 0.43280
 C1080 C 0.28121 -0.03608 0.40739
 N1081 N 0.28118 -0.00857 0.39406
 H1082 H 0.27040 -0.05619 0.39838
 N1083 N 0.00147 -0.06680 -0.14068
 N1084 N -0.01039 -0.07288 -0.16782
 C1085 C -0.03877 -0.06175 -0.16736
 C1086 C -0.04405 -0.04854 -0.13913
 N1087 N -0.01831 -0.05226 -0.12322
 H1088 H -0.06465 -0.03833 -0.13058
 N1089 N -0.00253 0.44377 0.35112
 N1090 N -0.01542 0.43766 0.32442
 C1091 C -0.04399 0.44829 0.32610
 C1092 C -0.04830 0.46113 0.35459
 N1093 N -0.02188 0.45783 0.36943
 H1094 H -0.06861 0.47128 0.36391
 N1095 N 0.49341 -0.04777 0.36517
 N1096 N 0.48037 -0.05523 0.33892
 C1097 C 0.45151 -0.04542 0.34060
 C1098 C 0.44721 -0.03160 0.36865
 N1099 N 0.47393 -0.03356 0.38320
 H1100 H 0.42668 -0.02191 0.37798
 N1101 N 0.42784 0.49810 -0.12636
 N1102 N 0.42419 0.48962 -0.15521
 C1103 C 0.43868 0.46292 -0.15845
 C1104 C 0.45153 0.45527 -0.13060
 N1105 N 0.44411 0.47785 -0.11126
 H1106 H 0.46444 0.43525 -0.12475
 N1107 N 0.43542 0.76544 0.38312
 N1108 N 0.43277 0.77330 0.41223
 C1109 C 0.44429 0.80147 0.41488
 C1110 C 0.45432 0.81071 0.38634
 N1111 N 0.44804 0.78756 0.36719
 H1112 H 0.46419 0.83222 0.37991
 N1113 N -0.06576 0.74787 0.87649
 N1114 N -0.07256 0.75604 0.90486
 C1115 C -0.05928 0.78307 0.90968
 C1116 C -0.04386 0.79124 0.88319
 N1117 N -0.04860 0.76856 0.86308
 H1118 H -0.03084 0.81153 0.87880
 N1119 N 0.34996 0.82516 0.24759
 N1120 N 0.32461 0.83342 0.26159
 C1121 C 0.32434 0.81917 0.28895
 C1122 C 0.35022 0.80189 0.29128
 N1123 N 0.36546 0.80614 0.26500
 H1124 H 0.35806 0.78868 0.31058
 N1125 N -0.14053 0.79137 0.74252
 N1126 N -0.16478 0.80263 0.75628
 C1127 C -0.16329 0.79362 0.78572
 C1128 C -0.13753 0.77622 0.78958
 N1129 N -0.12412 0.77521 0.76197
 H1130 H -0.12834 0.76701 0.81058
 N1131 N 0.89934 0.30066 0.48698
 N1132 N 0.92480 0.31067 0.47468
 C1133 C 0.92358 0.30384 0.44460
 C1134 C 0.89659 0.28901 0.43882
 N1135 N 0.88231 0.28745 0.46593
 H1136 H 0.88749 0.28141 0.41714
 N1137 N 0.88801 0.79591 0.00103
 N1138 N 0.91434 0.80393 -0.01097
 C1139 C 0.91453 0.79405 -0.04027
 C1140 C 0.88737 0.77941 -0.04577
 N1141 N 0.87165 0.78101 -0.01939
 H1142 H 0.87900 0.76993 -0.06698
 N1143 N -0.12648 -0.07627 -0.00174
 N1144 N -0.15476 -0.08085 -0.01039
 C1145 C -0.15821 -0.06668 -0.03751
 C1146 C -0.13107 -0.05310 -0.04529
 N1147 N -0.11190 -0.05980 -0.02233
 H1148 H -0.12552 -0.04029 -0.06566
 N1149 N -0.12589 0.43170 0.49311
 N1150 N -0.15442 0.42604 0.48622
 C1151 C -0.15956 0.43908 0.45883
 C1152 C -0.13330 0.45313 0.44907
 N1153 N -0.11289 0.44781 0.47118
 H1154 H -0.12923 0.46550 0.42807
 N1155 N 0.37074 -0.06167 0.50428
 N1156 N 0.34272 -0.06880 0.49664
 C1157 C 0.33701 -0.05495 0.46979
 C1158 C 0.36260 -0.03875 0.46119
 N1159 N 0.38309 -0.04371 0.48344
 H1160 H 0.36622 -0.02525 0.44083
 N1161 N 0.34548 0.44018 0.00762
 N1162 N 0.32213 0.42888 -0.00766
 C1163 C 0.32369 0.44007 -0.03640
 C1164 C 0.34871 0.45880 -0.03816
 N1165 N 0.36149 0.45840 -0.01019
 H1166 H 0.35809 0.46993 -0.05808
 N1167 N 0.39620 0.45136 0.74567
 N1168 N 0.42141 0.44354 0.76002
 C1169 C 0.41771 0.45156 0.78962
 C1170 C 0.38956 0.46469 0.79299
 N1171 N 0.37703 0.46430 0.76501
 H1172 H 0.37836 0.47198 0.81379
 N1173 N 0.37719 0.01094 0.31944
 N1174 N 0.40404 -0.00078 0.32567
 C1175 C 0.40419 -0.02903 0.31395
 C1176 C 0.37647 -0.03430 0.30006
 N1177 N 0.36033 -0.00867 0.30410
 H1178 H 0.36849 -0.05480 0.28914
 N1179 N 0.10613 0.48591 0.70084
 N1180 N 0.08182 0.49986 0.69012
 C1181 C 0.08407 0.52914 0.69871
 C1182 C 0.11043 0.53268 0.71532
 N1183 N 0.12340 0.50509 0.71625
 H1184 H 0.12055 0.55347 0.72353
 N1185 N 0.09475 0.06820 0.25860
 N1186 N 0.07030 0.07572 0.24277
 C1187 C 0.07226 0.06114 0.21567
 C1188 C 0.09863 0.04427 0.21542
 N1189 N 0.11188 0.04920 0.24269
 H1190 H 0.10826 0.03129 0.19676
 N1191 N 0.62654 0.71127 0.25530
 N1192 N 0.65335 0.70191 0.24561
 C1193 C 0.65548 0.71014 0.21594
 C1194 C 0.62919 0.72503 0.20772
 N1195 N 0.61189 0.72532 0.23301
 H1196 H 0.62238 0.73311 0.18537
 N1197 N 0.14738 0.74778 0.70933
 N1198 N 0.17189 0.73445 0.69819
 C1199 C 0.16890 0.70464 0.70409
 C1200 C 0.14196 0.70008 0.71947
 N1201 N 0.12937 0.72763 0.72247
 H1202 H 0.13129 0.67882 0.72542
 N1203 N 0.62739 0.18237 0.50651
 N1204 N 0.59964 0.17832 0.51714
 C1205 C 0.59850 0.19114 0.54520
 C1206 C 0.62672 0.20348 0.55137
 N1207 N 0.64403 0.19735 0.52663
 H1208 H 0.63412 0.21536 0.57171
 N1209 N 0.60946 0.68532 -0.00099
 N1210 N 0.58214 0.67928 0.00987
 C1211 C 0.57960 0.69410 0.03680
 C1212 C 0.60627 0.70961 0.04210
 N1213 N 0.62419 0.70351 0.01795
 H1214 H 0.61264 0.72292 0.06189
 N1215 N 0.14642 0.04161 0.00366
 N1216 N 0.17222 0.05104 0.01565
 C1217 C 0.17093 0.04486 0.04590
 C1218 C 0.14358 0.03110 0.05212
 N1219 N 0.12910 0.02953 0.02514
 H1220 H 0.13435 0.02431 0.07403
 N1221 N 0.13945 0.56263 0.49467
 N1222 N 0.16744 0.56754 0.50427
 C1223 C 0.16987 0.55410 0.53191
 C1224 C 0.14255 0.54076 0.53899
 N1225 N 0.12426 0.54665 0.51520
 H1226 H 0.13629 0.52841 0.55944
 N1227 N 0.63846 0.06520 0.50674
 N1228 N 0.66678 0.06917 0.51570
 C1229 C 0.66901 0.05741 0.54413
 C1230 C 0.64105 0.04593 0.55233
 N1231 N 0.62267 0.05137 0.52837
 H1232 H 0.63449 0.03512 0.57356
 N1233 N 0.62225 0.55637 0.00798
 N1234 N 0.64917 0.56446 0.01841
 C1235 C 0.65137 0.55354 0.04718
 C1236 C 0.62485 0.53823 0.05403
 N1237 N 0.60738 0.54055 0.02889
 H1238 H 0.61824 0.52768 0.07538
 N1239 N 0.05305 -0.00186 0.14520
 N1240 N 0.05852 0.01242 0.17133
 C1241 C 0.04794 0.04094 0.16807
 C1242 C 0.03560 0.04363 0.13909
 N1243 N 0.03918 0.01643 0.12571
 H1244 H 0.02630 0.06354 0.12812
 N1245 N 0.00584 0.54871 0.63356
 N1246 N 0.01558 0.55694 0.66095
 C1247 C 0.04436 0.54725 0.66294
 C1248 C 0.05206 0.53253 0.63595
 N1249 N 0.02723 0.53408 0.61821
 H1250 H 0.07361 0.52280 0.62947
 N1251 N 0.50446 0.06323 0.64524
 N1252 N 0.51560 0.07191 0.67197
 C1253 C 0.54337 0.05957 0.67385
 C1254 C 0.54902 0.04293 0.64760
 N1255 N 0.52405 0.04583 0.63039
 H1256 H 0.56947 0.03105 0.64112
 N1257 N 0.54631 0.50707 0.14878
 N1258 N 0.55420 0.51816 0.17578
 C1259 C 0.54335 0.54669 0.17695
 C1260 C 0.52835 0.55278 0.14983
 N1261 N 0.53080 0.52742 0.13299
 H1262 H 0.51769 0.57364 0.14252
 N1263 N 0.19413 0.49226 0.60148
 N1264 N 0.18841 0.50443 0.57433
 C1265 C 0.19982 0.53277 0.57505
 C1266 C 0.21262 0.53771 0.60334
 N1267 N 0.20858 0.51190 0.61910
 H1268 H 0.22288 0.55823 0.61206
 N1269 N 0.18901 0.00439 0.13131
 N1270 N 0.18452 0.01032 0.10197
 C1271 C 0.19607 0.03807 0.09673
 C1272 C 0.20809 0.04903 0.12394
 N1273 N 0.20303 0.02721 0.14493
 H1274 H 0.21836 0.07086 0.12832
 N1275 N 0.76393 0.18911 0.63611
 N1276 N 0.75373 0.18202 0.66366
 C1277 C 0.72578 0.19396 0.66556
 C1278 C 0.71901 0.20865 0.63851
 N1279 N 0.74353 0.20505 0.62082
 H1280 H 0.69822 0.21984 0.63193
 N1281 N 0.68290 0.75423 0.13474
 N1282 N 0.67460 0.74697 0.16292
 C1283 C 0.68587 0.71913 0.16844
 C1284 C 0.70162 0.70952 0.14274
 N1285 N 0.69910 0.73216 0.12231
 H1286 H 0.71272 0.68801 0.13873
 N1287 N 0.55189 0.75500 0.10723
 N1288 N 0.56070 0.74227 0.08119
 C1289 C 0.54901 0.71406 0.08095
 C1290 C 0.53260 0.70991 0.10760
 N1291 N 0.53490 0.73601 0.12322
 H1292 H 0.52110 0.68975 0.11551
 N1293 N 0.06518 0.74476 0.60530
 N1294 N 0.07225 0.73397 0.57788
 C1295 C 0.06030 0.70591 0.57628
 C1296 C 0.04568 0.69973 0.60346
 N1297 N 0.04933 0.72455 0.62091
 H1298 H 0.03451 0.67901 0.61036
 N1299 N 0.48887 0.62071 0.20157
 N1300 N 0.49926 0.59314 0.19600
 C1301 C 0.52779 0.59231 0.20679
 C1302 C 0.53458 0.62026 0.21949
 N1303 N 0.50960 0.63725 0.21564
 H1304 H 0.55590 0.62807 0.22871
 N1305 N 0.06296 0.61145 0.74415
 N1306 N 0.07057 0.58373 0.73545
 C1307 C 0.05982 0.58005 0.70682
 C1308 C 0.04513 0.60656 0.69821
 N1309 N 0.04765 0.62550 0.72229
 H1310 H 0.03426 0.61184 0.67666
 N1311 N -0.00018 0.12788 0.04252
 N1312 N 0.00959 0.15585 0.04738
 C1313 C 0.03899 0.15640 0.03908
 C1314 C 0.04693 0.12784 0.02878
 N1315 N 0.02186 0.11088 0.03126
 H1316 H 0.06883 0.11965 0.02141
 N1317 N -0.00062 0.63929 0.54495
 N1318 N 0.01288 0.66446 0.55441
 C1319 C 0.04150 0.66356 0.54358
 C1320 C 0.04505 0.63716 0.52706
 N1321 N 0.01829 0.62284 0.52830
 H1322 H 0.06545 0.62795 0.51701
 N1323 N 0.50358 0.14894 0.56066
 N1324 N 0.51911 0.17283 0.57037
 C1325 C 0.54734 0.17019 0.55878
 C1326 C 0.54849 0.14398 0.54151
 N1327 N 0.52077 0.13162 0.54300
 H1328 H 0.56785 0.13363 0.53053
 N1329 N 0.49076 0.64285 0.05766
 N1330 N 0.50294 0.66975 0.06279
 C1331 C 0.53176 0.66826 0.05275
 C1332 C 0.53690 0.63959 0.04105
 N1333 N 0.51073 0.62457 0.04463
 H1334 H 0.55775 0.62999 0.03237
 N1335 N 0.76279 0.10243 0.55612
 N1336 N 0.74850 0.07793 0.56617
 C1337 C 0.71977 0.07980 0.55589
 C1338 C 0.71694 0.10618 0.53914
 N1339 N 0.74426 0.11945 0.53965
 H1340 H 0.69688 0.11578 0.52883
 N1341 N 0.73974 0.60793 0.06137
 N1342 N 0.72751 0.58199 0.07013
 C1343 C 0.69877 0.58203 0.05981
 C1344 C 0.69374 0.60879 0.04415
 N1345 N 0.71991 0.62421 0.04576
 H1346 H 0.67295 0.61706 0.03412
 N1347 N 0.18797 0.62092 0.74637
 N1348 N 0.18101 0.64905 0.73866
 C1349 C 0.19256 0.65364 0.71046
 C1350 C 0.20704 0.62733 0.70107
 N1351 N 0.20358 0.60755 0.72425
 H1352 H 0.21848 0.62278 0.67962
 N1353 N 0.18533 0.15650 0.25125
 N1354 N 0.17773 0.18113 0.23575
 C1355 C 0.18874 0.17741 0.20718
 C1356 C 0.20346 0.14987 0.20556
 N1357 N 0.20083 0.13764 0.23358
 H1358 H 0.21366 0.13909 0.18580
 N1359 N 0.70259 1.13506 0.74933
 N1360 N 0.69840 1.16319 0.73988
 C1361 C 0.70875 1.16439 0.71089
 C1362 C 0.71975 1.13606 0.70279
 N1363 N 0.71529 1.11848 0.72752
 H1364 H 0.72890 1.12863 0.68103
 N1365 N 0.73982 0.64975 0.20549
 N1366 N 0.72962 0.67619 0.19563
 C1367 C 0.70058 0.67807 0.20476
 C1368 C 0.69324 0.65205 0.22081
 N1369 N 0.71846 0.63504 0.22067
 H1370 H 0.67148 0.64528 0.22985
 N1371 N 0.57186 0.12304 0.75304
 N1372 N 0.57454 0.09428 0.74511
 C1373 C 0.56266 0.09166 0.71683
 C1374 C 0.55226 0.11988 0.70761
 N1375 N 0.55872 0.13877 0.73095
 H1376 H 0.54200 0.12625 0.68606
 N1377 N 0.99518 0.12029 0.17645
 N1378 N 1.00497 0.09198 0.17478
 C1379 C 1.03191 0.09115 0.18918
 C1380 C 1.03836 0.11997 0.19994
 N1381 N 1.01484 0.13743 0.19136
 H1382 H 1.05832 0.12769 0.21194
 N1383 N 0.26027 0.60321 0.55256
 N1384 N 0.24722 0.57695 0.55911
 C1385 C 0.21919 0.57790 0.54689
 C1386 C 0.21546 0.60549 0.53261
 N1387 N 0.24157 0.62046 0.53656
 H1388 H 0.19541 0.61468 0.52190
 N1389 N 0.25602 0.10261 1.05738
 N1390 N 0.24355 0.07862 1.07054
 C1391 C 0.21523 0.07673 1.05941
 C1392 C 0.21070 0.10015 1.03887
 N1393 N 0.23680 0.11559 1.03814
 H1394 H 0.19024 0.10625 1.02677
 N1395 N 0.24996 0.68752 0.64128
 N1396 N 0.23881 0.67814 0.66771
 C1397 C 0.21015 0.68829 0.66896
 C1398 C 0.20397 0.70451 0.64245
 N1399 N 0.22958 0.70331 0.62576
 H1400 H 0.18292 0.71502 0.63557
 N1401 N 0.24710 0.19379 1.13268
 N1402 N 0.23448 0.18955 1.15988
 C1403 C 0.20593 0.20021 1.15798
 C1404 C 0.20141 0.21122 1.12871
 N1405 N 0.22767 0.20675 1.11372
 H1406 H 0.18097 0.22062 1.11893
 N1407 N 0.67968 0.50331 0.12540
 N1408 N 0.67077 0.51233 0.09790
 C1409 C 0.68163 0.54059 0.09411
 C1410 C 0.69770 0.54860 0.12010
 N1411 N 0.69600 0.52463 0.13892
 H1412 H 0.70853 0.56995 0.12539
 N1413 N 0.69386 0.99706 0.61520
 N1414 N 0.68654 1.00917 0.58842
 C1415 C 0.69996 1.03659 0.58725
 C1416 C 0.71586 1.04091 0.61415
 N1417 N 0.71147 1.01569 0.63092
 H1418 H 0.72816 1.06083 0.62147
 N1419 N 0.57573 0.25320 0.61594
 N1420 N 0.58249 0.24027 0.58939
 C1421 C 0.56937 0.21272 0.58952
 C1422 C 0.55413 0.20917 0.61707
 N1423 N 0.55871 0.23504 0.63285
 H1424 H 0.54191 0.18955 0.62527
 N1425 N 1.04838 0.25198 0.08108
 N1426 N 1.06016 0.23614 0.05816
 C1427 C 1.04942 0.20768 0.06099
 C1428 C 1.03060 0.20654 0.08613
 N1429 N 1.03043 0.23463 0.09786
 H1430 H 1.02000 0.18692 0.09639
 N1431 N 0.66212 0.25718 0.69772
 N1432 N 0.68681 0.24306 0.68808
 C1433 C 0.68509 0.21441 0.69876
 C1434 C 0.65877 0.21135 0.71525
 N1435 N 0.64525 0.23851 0.71415
 H1436 H 0.64937 0.19115 0.72556
 N1437 N 1.12986 0.25682 0.17494
 N1438 N 1.15710 0.24559 0.16940
 C1439 C 1.15817 0.21838 0.18328
 C1440 C 1.13070 0.21326 0.19773
 N1441 N 1.11373 0.23791 0.19193
 H1442 H 1.12341 0.19338 0.21021
 N1443 N 0.12523 0.67971 0.49815
 N1444 N 0.09676 0.67438 0.50590
 C1445 C 0.09273 0.68640 0.53402
 C1446 C 0.11968 0.69936 0.54332
 N1447 N 0.13929 0.69463 0.52027
 H1448 H 0.12477 0.71086 0.56460
 N1449 N 0.12066 0.17326 0.99241
 N1450 N 0.09216 0.16811 0.99978
 C1451 C 0.08684 0.18356 1.02583
 C1452 C 0.11309 0.19868 1.03425
 N1453 N 0.13365 0.19140 1.01269
 H1454 H 0.11710 0.21273 1.05417
 N1455 N 0.60001 0.56491 0.26360
 N1456 N 0.57368 0.57337 0.25198
 C1457 C 0.57250 0.56179 0.22343
 C1458 C 0.59888 0.54575 0.21791
 N1459 N 0.61528 0.54819 0.24365
 H1460 H 0.60634 0.53507 0.19689
 N1461 N 0.60679 0.99734 0.70883
 N1462 N 0.58198 1.01115 0.69906
 C1463 C 0.58471 1.04055 0.70716
 C1464 C 0.61174 1.04435 0.72223
 N1465 N 0.62464 1.01690 0.72300
 H1466 H 0.62213 1.06517 0.73002
 N1467 N 0.88170 0.50566 0.30632
 N1468 N 0.90876 0.49422 0.31199
 C1469 C 0.90860 0.46591 0.30051
 C1470 C 0.88064 0.46026 0.28743
 N1471 N 0.86459 0.48578 0.29159
 H1472 H 0.87252 0.43966 0.27679
 N1473 N 0.88940 0.99669 0.80830
 N1474 N 0.91594 0.98468 0.81543
 C1475 C 0.91575 0.95620 0.80424
 C1476 C 0.88844 0.95102 0.79001
 N1477 N 0.87277 0.97687 0.79299
 H1478 H 0.88019 0.93033 0.77967
 N1479 N 0.38490 0.24790 0.80412
 N1480 N 0.35603 0.25447 0.80857
 C1481 C 0.35209 0.28324 0.79902
 C1482 C 0.37945 0.29417 0.78837
 N1483 N 0.39924 0.27134 0.79202
 H1484 H 0.38478 0.31655 0.77981
 N1485 N 0.84992 0.31730 0.23728
 N1486 N 0.82579 0.32670 0.25264
 C1487 C 0.82684 0.31320 0.28029
 C1488 C 0.85244 0.29492 0.28130
 N1489 N 0.86611 0.29810 0.25389
 H1490 H 0.86103 0.28182 0.30036
 N1491 N 0.39231 0.81110 0.50527
 N1492 N 0.41838 0.82057 0.49377
 C1493 C 0.41808 0.81321 0.46375
 C1494 C 0.39119 0.79893 0.45717
 N1495 N 0.37598 0.79792 0.48365
 H1496 H 0.38291 0.79081 0.43534
 N1497 N 0.39315 0.24800 0.93914
 N1498 N 0.42084 0.25856 0.93527
 C1499 C 0.42114 0.28651 0.94761
 C1500 C 0.39266 0.29282 0.95943
 N1501 N 0.37594 0.26809 0.95353
 H1502 H 0.38465 0.31336 0.97031
 N1503 N 0.80526 0.50513 0.39988
 N1504 N 0.81580 0.49007 0.42385
 C1505 C 0.80366 0.46202 0.42267
 C1506 C 0.78519 0.46036 0.39730
 N1507 N 0.78680 0.48772 0.38380
 H1508 H 0.77341 0.44082 0.38828
 N1509 N 0.80979 0.99552 0.89529
 N1510 N 0.81989 0.98274 0.92078
 C1511 C 0.80882 0.95430 0.92096
 C1512 C 0.79160 0.94999 0.89501
 N1513 N 0.79263 0.97628 0.87978
 H1514 H 0.78050 0.92955 0.88719
 N1515 N 0.30133 0.75882 0.36050
 N1516 N 0.30715 0.77164 0.33372
 C1517 C 0.29741 0.80053 0.33577
 C1518 C 0.28514 0.80501 0.36462
 N1519 N 0.28799 0.77839 0.37916
 H1520 H 0.27663 0.82572 0.37475
 N1521 N 0.25767 0.28289 0.84337
 N1522 N 0.27114 0.29510 0.81921
 C1523 C 0.30087 0.28909 0.82211
 C1524 C 0.30522 0.27256 0.84869
 N1525 N 0.27766 0.26902 0.86112
 H1526 H 0.32632 0.26563 0.85909
 N1527 N 0.51436 0.30679 0.90348
 N1528 N 0.49935 0.31349 0.92888
 C1529 C 0.47151 0.30136 0.92584
 C1530 C 0.46991 0.28688 0.89787
 N1531 N 0.49713 0.29074 0.88477
 H1532 H 0.45049 0.27651 0.88707
 N1533 N 0.94160 0.25899 0.36207
 N1534 N 0.93786 0.26642 0.39116
 C1535 C 0.94900 0.29463 0.39454
 C1536 C 0.96001 0.30434 0.36643
 N1537 N 0.95469 0.28132 0.34681
 H1538 H 0.96978 0.32605 0.36058
 N1539 N 0.50472 0.39969 0.81288
 N1540 N 0.49046 0.42481 0.82106
 C1541 C 0.46268 0.42324 0.80860
 C1542 C 0.46028 0.39642 0.79227
 N1543 N 0.48712 0.38243 0.79561
 H1544 H 0.44073 0.38734 0.78053
 N1545 N 0.93318 0.40032 0.23547
 N1546 N 0.92604 0.42570 0.24992
 C1547 C 0.93794 0.42341 0.27825
 C1548 C 0.95263 0.39605 0.28087
 N1549 N 0.94914 0.38243 0.25365
 H1550 H 0.96359 0.38637 0.30075
 N1551 N 0.24844 0.88984 0.45956
 N1552 N 0.25905 0.91674 0.45139
 C1553 C 0.28843 0.91746 0.45964
 C1554 C 0.29543 0.89001 0.47344
 N1555 N 0.26979 0.87360 0.47307
 H1556 H 0.31714 0.88191 0.48138
 N1557 N 0.24725 0.37504 0.93413
 N1558 N 0.25675 0.40296 0.92854
 C1559 C 0.28403 0.40567 0.94206
 C1560 C 0.29103 0.37864 0.95620
 N1561 N 0.26749 0.36016 0.95062
 H1562 H 0.31165 0.37250 0.96800
 N1563 N 0.74934 0.37450 0.31743
 N1564 N 0.75923 0.34633 0.32021
 C1565 C 0.78581 0.34463 0.30507
 C1566 C 0.79189 0.37285 0.29269
 N1567 N 0.76858 0.39080 0.30112
 H1568 H 0.81138 0.37988 0.27949
   
