data_POSCAR
  _audit_creation_date              2014-09-24
  _audit_creation_method            'ToBaCCo'
  _symmetry_space_group_name_H-M    'P1'
  _symmetry_Int_Tables_number       1
  _symmetry_cell_setting            triclinic
  loop_
  _symmetry_equiv_pos_as_xyz
 x,y,z
_cell_length_a 42.3898
_cell_length_b 42.8067
_cell_length_c 42.0238
_cell_angle_alpha 90.086500
_cell_angle_beta 89.868000
_cell_angle_gamma 91.635400
loop_
  _atom_site_label
  _atom_site_type_symbol
  _atom_site_fract_x
  _atom_site_fract_y
  _atom_site_fract_z
C1 C 0.69347 0.63947 0.95527
 H2 H 0.70693 0.62313 0.94165
 C3 C 0.66836 0.65422 0.94076
 H4 H 0.66265 0.64902 0.91617
 C5 C 0.68342 0.66540 1.00393
 H6 H 0.68930 0.66966 1.02856
 C7 C 0.65808 0.68073 0.99030
 H8 H 0.64435 0.69650 1.00456
 N9 N 0.69973 0.64422 0.98670
 C10 C 0.77562 0.62103 1.05143
 H11 H 0.76758 0.59721 1.05578
 C12 C 0.80353 0.63218 1.06528
 H13 H 0.81673 0.61705 1.08064
 C14 C 0.76964 0.66885 1.02389
 H15 H 0.75696 0.68240 1.00667
 C16 C 0.79769 0.68097 1.03727
 H17 H 0.80646 0.70407 1.03064
 Zn18 Zn 0.72817 0.61715 1.00728
 N19 N 0.75967 0.63909 1.03071
 C20 C 0.78041 0.59999 0.97086
 N21 N 0.74936 0.59282 0.97619
 C22 C 0.73413 0.56988 0.95918
 C23 C 0.75065 0.55207 0.93711
 C24 C 0.79751 0.58343 0.94846
 C25 C 0.69082 0.60592 1.06124
 C26 C 0.67299 0.58888 1.08347
 C27 C 0.68542 0.54171 1.05530
 C28 C 0.70323 0.55972 1.03375
 N29 N 0.70498 0.59136 1.03652
 H30 H 0.79202 0.61895 0.98360
 H31 H 0.70914 0.56536 0.96274
 H32 H 0.73839 0.53353 0.92417
 H33 H 0.82200 0.59000 0.94409
 H34 H 0.69410 0.63082 1.06432
 H35 H 0.66384 0.60136 1.10377
 H36 H 0.68356 0.51678 1.05112
 H37 H 0.71569 0.54813 1.01497
 C38 C 0.81518 0.66214 1.05764
 C39 C 0.64965 0.67412 0.95871
 C40 C 0.66908 0.55612 1.08053
 C41 C 0.78293 0.55850 0.93197
 C42 C 0.74119 0.34346 0.52782
 H43 H 0.76406 0.33848 0.53763
 C44 C 0.71397 0.32918 0.54080
 H45 H 0.71600 0.31278 0.56024
 C46 C 0.71025 0.37269 0.49233
 H47 H 0.70857 0.39047 0.47430
 C48 C 0.68260 0.35908 0.50461
 H49 H 0.66002 0.36647 0.49578
 N50 N 0.73885 0.36508 0.50424
 C51 C 0.82789 0.38075 0.45405
 H52 H 0.82638 0.40579 0.45151
 C53 C 0.85104 0.36504 0.43745
 H54 H 0.86767 0.37806 0.42259
 C55 C 0.80712 0.33304 0.47505
 H56 H 0.78956 0.32063 0.48919
 C57 C 0.83020 0.31633 0.45893
 H58 H 0.83052 0.29112 0.46088
 Zn59 Zn 0.77479 0.38936 0.49087
 N60 N 0.80650 0.36474 0.47242
 C61 C 0.81949 0.42772 0.52405
 N62 N 0.79105 0.41225 0.52620
 C63 C 0.77319 0.41379 0.55309
 C64 C 0.78379 0.43128 0.57917
 C65 C 0.83099 0.44551 0.54963
 C66 C 0.75459 0.40529 0.43019
 C67 C 0.74268 0.42429 0.40644
 C68 C 0.74690 0.46823 0.44257
 C69 C 0.75882 0.44837 0.46570
 N70 N 0.76196 0.41746 0.45923
 H71 H 0.83322 0.42652 0.50246
 H72 H 0.75039 0.40196 0.55422
 H73 H 0.76934 0.43240 0.60041
 H74 H 0.85356 0.45787 0.54766
 H75 H 0.75715 0.38057 0.42587
 H76 H 0.73584 0.41413 0.38377
 H77 H 0.74359 0.49264 0.44813
 H78 H 0.76463 0.45741 0.48906
 C79 C 0.85215 0.33250 0.43964
 C80 C 0.68424 0.33719 0.52926
 C81 C 0.73856 0.45609 0.41263
 C82 C 0.81282 0.44763 0.57737
 C83 C 0.22141 -0.15879 0.02850
 H84 H 0.24495 -0.16092 0.03799
 C85 C 0.19655 -0.17746 0.04070
 H86 H 0.20110 -0.19416 0.05936
 C87 C 0.18625 -0.13326 -0.00590
 H88 H 0.18196 -0.11573 -0.02368
 C89 C 0.16087 -0.15125 0.00565
 H90 H 0.13736 -0.14704 -0.00310
 N91 N 0.21577 -0.13678 0.00599
 C92 C 0.30067 -0.10840 -0.04698
 H93 H 0.29581 -0.08387 -0.04922
 C94 C 0.32626 -0.12045 -0.06321
 H95 H 0.34130 -0.10507 -0.07745
 C96 C 0.28669 -0.15848 -0.02649
 H97 H 0.27116 -0.17323 -0.01226
 C98 C 0.31237 -0.17152 -0.04220
 H99 H 0.31657 -0.19626 -0.04000
 Zn100 Zn 0.24782 -0.10751 -0.00754
 N101 N 0.28148 -0.12732 -0.02895
 C102 C 0.29032 -0.06593 0.02354
 N103 N 0.26470 -0.08532 0.02809
 C104 C 0.25243 -0.09014 0.05774
 C105 C 0.26704 -0.07652 0.08433
 C106 C 0.30573 -0.05202 0.04945
 C107 C 0.22939 -0.08652 -0.06759
 C108 C 0.21256 -0.06888 -0.08919
 C109 C 0.19499 -0.03688 -0.04559
 C110 C 0.21276 -0.05486 -0.02486
 N111 N 0.22914 -0.07938 -0.03610
 H112 H 0.29938 -0.06177 -0.00010
 H113 H 0.23161 -0.10492 0.06094
 H114 H 0.25762 -0.08109 0.10790
 H115 H 0.32665 -0.03738 0.04566
 H116 H 0.24167 -0.10677 -0.07590
 H117 H 0.21239 -0.07624 -0.11386
 H118 H 0.18283 -0.01701 -0.03606
 H119 H 0.21284 -0.04976 0.00036
 C120 C 0.33226 -0.15231 -0.06091
 C121 C 0.16579 -0.17355 0.02936
 C122 C 0.19372 -0.04430 -0.07835
 C123 C 0.29437 -0.05785 0.08021
 C124 C 0.22223 0.14162 0.44962
 H125 H 0.23921 0.12850 0.43638
 C126 C 0.19575 0.15265 0.43398
 H127 H 0.19232 0.14748 0.40897
 C128 C 0.20511 0.16334 0.49834
 H129 H 0.20836 0.16677 0.52358
 C130 C 0.17854 0.17524 0.48351
 H131 H 0.16154 0.18789 0.49741
 N132 N 0.22541 0.14544 0.48164
 C133 C 0.30301 0.12997 0.54706
 H134 H 0.29656 0.10617 0.55347
 C135 C 0.32924 0.14465 0.56100
 H136 H 0.34294 0.13219 0.57834
 C137 C 0.29384 0.17471 0.51550
 H138 H 0.28022 0.18593 0.49726
 C139 C 0.32009 0.19035 0.52893
 H140 H 0.32674 0.21371 0.52108
 Zn141 Zn 0.25413 0.12046 0.50448
 N142 N 0.28624 0.14488 0.52441
 C143 C 0.30541 0.09104 0.47464
 N144 N 0.27335 0.09157 0.47631
 C145 C 0.25504 0.07268 0.45737
 C146 C 0.26888 0.05289 0.43523
 C147 C 0.32019 0.07109 0.45338
 C148 C 0.22389 0.11529 0.56354
 C149 C 0.20742 0.10089 0.58856
 C150 C 0.20645 0.05264 0.55865
 C151 C 0.22317 0.06790 0.53427
 N152 N 0.23134 0.09878 0.53699
 H153 H 0.31972 0.10640 0.48942
 H154 H 0.22961 0.07372 0.45874
 H155 H 0.25400 0.03899 0.41943
 H156 H 0.34572 0.07112 0.45223
 H157 H 0.23122 0.13960 0.56554
 H158 H 0.20182 0.11425 0.60963
 H159 H 0.19980 0.02814 0.55614
 H160 H 0.22952 0.05497 0.51329
 C161 C 0.33821 0.17499 0.55166
 C162 C 0.17274 0.16816 0.45142
 C163 C 0.19876 0.06916 0.58630
 C164 C 0.30189 0.05176 0.43327
 C165 C 0.16076 0.45216 0.20999
 H166 H 0.14759 0.43613 0.22512
 C167 C 0.18080 0.44028 0.18684
 H168 H 0.18206 0.41522 0.18385
 C169 C 0.17370 0.50398 0.19408
 H170 H 0.17043 0.52876 0.19644
 C171 C 0.19429 0.49309 0.17077
 H172 H 0.20657 0.50964 0.15533
 N173 N 0.15636 0.48346 0.21221
 C174 C 0.11449 0.53960 0.28697
 H175 H 0.09128 0.54151 0.27663
 C176 C 0.12138 0.55433 0.31581
 H177 H 0.10353 0.56784 0.32758
 C178 C 0.16545 0.51810 0.28515
 H179 H 0.18214 0.50330 0.27337
 C180 C 0.17334 0.53247 0.31410
 H181 H 0.19629 0.52898 0.32457
 Zn182 Zn 0.12201 0.49801 0.23712
 N183 N 0.13621 0.52149 0.27259
 C184 C 0.09284 0.46012 0.28434
 N185 N 0.09723 0.46326 0.25239
 C186 C 0.08539 0.44139 0.23173
 C187 C 0.06889 0.41492 0.24307
 C188 C 0.07595 0.43442 0.29660
 C189 C 0.10941 0.55364 0.20558
 C190 C 0.09240 0.57481 0.18777
 C191 C 0.04988 0.53625 0.18367
 C192 C 0.06776 0.51571 0.20158
 N193 N 0.09714 0.52456 0.21183
 H194 H 0.10269 0.47734 0.30056
 H195 H 0.08951 0.44410 0.20645
 H196 H 0.06040 0.39724 0.22647
 H197 H 0.07267 0.43232 0.32209
 H198 H 0.13215 0.56072 0.21512
 H199 H 0.10233 0.59798 0.18324
 H200 H 0.02653 0.52904 0.17564
 H201 H 0.05798 0.49289 0.20743
 C202 C 0.15077 0.55014 0.33001
 C203 C 0.19723 0.46082 0.16628
 C204 C 0.06243 0.56603 0.17634
 C205 C 0.06371 0.41146 0.27589
 C206 C -0.14229 0.02406 0.22491
 H207 H -0.13781 0.03620 0.24711
 C208 C -0.15273 0.04062 0.19849
 H209 H -0.15603 0.06552 0.20082
 C210 C -0.14082 -0.02253 0.19457
 H211 H -0.13555 -0.04703 0.19296
 C212 C -0.15140 -0.00697 0.16768
 H213 H -0.15522 -0.02005 0.14587
 N214 N -0.13517 -0.00658 0.22204
 C215 C -0.12135 -0.06578 0.30472
 H216 H -0.09620 -0.06900 0.30266
 C217 C -0.13854 -0.08140 0.32840
 H218 H -0.12657 -0.09653 0.34478
 C219 C -0.16750 -0.04161 0.28622
 H220 H -0.17851 -0.02593 0.26973
 C221 C -0.18563 -0.05665 0.30983
 H222 H -0.21066 -0.05252 0.31159
 Zn223 Zn -0.11034 -0.02578 0.25335
 N224 N -0.13593 -0.04629 0.28429
 C225 C -0.08220 0.00720 0.30537
 N226 N -0.08437 0.00564 0.27308
 C227 C -0.07036 0.02798 0.25434
 C228 C -0.05437 0.05363 0.26797
 C229 C -0.06600 0.03219 0.31995
 C230 C -0.09647 -0.08587 0.23135
 C231 C -0.08135 -0.10788 0.21267
 C232 C -0.04366 -0.06761 0.19631
 C233 C -0.05950 -0.04631 0.21534
 N234 N -0.08553 -0.05567 0.23224
 H235 H -0.09362 -0.01047 0.31999
 H236 H -0.07282 0.02665 0.22877
 H237 H -0.04424 0.07174 0.25281
 H238 H -0.06468 0.03331 0.34566
 H239 H -0.11771 -0.09268 0.24413
 H240 H -0.09059 -0.13172 0.21168
 H241 H -0.02334 -0.05983 0.18247
 H242 H -0.05147 -0.02217 0.21590
 C243 C -0.17105 -0.07693 0.33107
 C244 C -0.15530 0.02556 0.16872
 C245 C -0.05506 -0.09858 0.19441
 C246 C -0.05277 0.05626 0.30117
 C247 C 0.33037 0.50871 0.71061
 H248 H 0.32043 0.49380 0.72904
 C249 C 0.31110 0.51971 0.68615
 H250 H 0.28620 0.51335 0.68570
 C251 C 0.37496 0.53520 0.68803
 H252 H 0.39997 0.54087 0.68875
 C253 C 0.35676 0.54658 0.66343
 H254 H 0.36772 0.56124 0.64530
 N255 N 0.36176 0.51645 0.71080
 C256 C 0.37940 0.48763 0.80493
 H257 H 0.39328 0.50840 0.81020
 C258 C 0.36789 0.46973 0.83022
 H259 H 0.37195 0.47794 0.85430
 C260 C 0.35940 0.45047 0.76786
 H261 H 0.35665 0.44293 0.74342
 C262 C 0.34877 0.43097 0.79272
 H263 H 0.33827 0.40825 0.78724
 Zn264 Zn 0.39198 0.50280 0.74025
 N265 N 0.37437 0.47834 0.77432
 C266 C 0.39491 0.55749 0.77626
 N267 N 0.41207 0.53992 0.75602
 C268 C 0.44136 0.54971 0.74633
 C269 C 0.45472 0.57776 0.75797
 C270 C 0.40828 0.58414 0.79034
 C271 C 0.41116 0.46586 0.68913
 C272 C 0.43027 0.44569 0.67228
 C273 C 0.46856 0.44959 0.71469
 C274 C 0.44847 0.46954 0.73099
 N275 N 0.42054 0.47753 0.71783
 H276 H 0.37114 0.54998 0.78259
 H277 H 0.45413 0.53612 0.72914
 H278 H 0.47779 0.58543 0.74949
 H279 H 0.39514 0.59572 0.80880
 H280 H 0.38837 0.47143 0.67958
 H281 H 0.42204 0.43598 0.64987
 H282 H 0.49071 0.44327 0.72536
 H283 H 0.45503 0.47850 0.75421
 C284 C 0.35251 0.44086 0.82446
 C285 C 0.32456 0.53876 0.66224
 C286 C 0.45952 0.43763 0.68483
 C287 C 0.43828 0.59533 0.78065
 C288 C 0.65775 0.97218 0.72371
 H289 H 0.65113 0.96076 0.74577
 C290 C 0.66916 0.95447 0.69848
 H291 H 0.67094 0.92943 0.70124
 C292 C 0.66017 1.01798 0.69213
 H293 H 0.65549 1.04243 0.68919
 C294 C 0.67236 1.00131 0.66656
 H295 H 0.67723 1.01321 0.64429
 N296 N 0.65227 1.00310 0.71973
 C297 C 0.63919 1.06793 0.79677
 H298 H 0.61740 1.07751 0.78841
 C299 C 0.65487 1.08196 0.82237
 H300 H 0.64445 1.10200 0.83360
 C301 C 0.67680 1.02814 0.79430
 H302 H 0.68488 1.00689 0.78341
 C303 C 0.69316 1.04129 0.82017
 H304 H 0.71421 1.03018 0.82854
 Zn305 Zn 0.62633 1.02288 0.75016
 N306 N 0.65045 1.04170 0.78311
 C307 C 0.59445 0.99067 0.80004
 N308 N 0.59869 0.99210 0.76798
 C309 C 0.58457 0.97079 0.74821
 C310 C 0.56590 0.94635 0.76061
 C311 C 0.57537 0.96698 0.81340
 C312 C 0.61773 1.08112 0.72125
 C313 C 0.60118 1.10495 0.70684
 C314 C 0.55369 1.07250 0.71008
 C315 C 0.57110 1.04933 0.72467
 N316 N 0.60258 1.05395 0.72984
 H317 H 0.60601 1.00778 0.81532
 H318 H 0.58850 0.97235 0.72281
 H319 H 0.55570 0.92892 0.74468
 H320 H 0.57220 0.96603 0.83896
 H321 H 0.64268 1.08437 0.72596
 H322 H 0.61346 1.12653 0.70025
 H323 H 0.52872 1.06851 0.70576
 H324 H 0.55943 1.02770 0.73179
 C325 C 0.68257 1.06899 0.83439
 C326 C 0.67599 0.96894 0.66923
 C327 C 0.56874 1.10081 0.70138
 C328 C 0.56083 0.94448 0.79356
 C329 C 0.05244 0.24039 -0.13655
 H330 H 0.06778 0.25919 -0.12809
 C331 C 0.06545 0.21471 -0.15167
 H332 H 0.09083 0.21371 -0.15430
 C333 C 0.00102 0.21763 -0.14130
 H334 H -0.02395 0.21847 -0.13609
 C335 C 0.01302 0.19164 -0.15683
 H336 H -0.00285 0.17258 -0.16384
 N337 N 0.02087 0.24086 -0.13070
 C338 C -0.03165 0.32384 -0.10606
 H339 H -0.02985 0.32296 -0.08040
 C340 C -0.04944 0.34676 -0.12032
 H341 H -0.06123 0.36371 -0.10567
 C342 C -0.01895 0.30248 -0.15646
 H343 H -0.00716 0.28497 -0.17031
 C344 C -0.03636 0.32533 -0.17179
 H345 H -0.03796 0.32550 -0.19751
 Zn346 Zn 0.00464 0.27057 -0.10211
 N347 N -0.01711 0.30207 -0.12411
 C348 C 0.04352 0.32064 -0.07773
 N349 N 0.03879 0.28903 -0.07840
 C350 C 0.05930 0.26985 -0.06373
 C351 C 0.08552 0.28223 -0.04758
 C352 C 0.06914 0.33402 -0.06130
 C353 C -0.05543 0.25572 -0.07534
 C354 C -0.07715 0.24001 -0.05571
 C355 C -0.03500 0.20898 -0.03575
 C356 C -0.01402 0.22557 -0.05559
 N357 N -0.02431 0.24891 -0.07448
 H358 H 0.02784 0.33566 -0.09031
 H359 H 0.05617 0.24483 -0.06569
 H360 H 0.10211 0.26660 -0.03687
 H361 H 0.07256 0.35919 -0.06095
 H362 H -0.06389 0.27269 -0.09196
 H363 H -0.10186 0.24515 -0.05845
 H364 H -0.02549 0.19133 -0.02035
 H365 H 0.01046 0.21944 -0.05605
 C366 C -0.05209 0.34744 -0.15348
 C367 C 0.04571 0.18966 -0.16143
 C368 C -0.06724 0.21653 -0.03474
 C369 C 0.09037 0.31471 -0.04580
 C370 C 0.46826 0.21392 0.17060
 H371 H 0.46290 0.23793 0.17588
 C372 C 0.44998 0.18957 0.18406
 H373 H 0.43096 0.19485 0.20028
 C374 C 0.49858 0.17757 0.14201
 H375 H 0.51682 0.17286 0.12484
 C376 C 0.48065 0.15269 0.15448
 H377 H 0.48560 0.12904 0.14716
 N378 N 0.49202 0.20752 0.14995
 C379 C 0.55099 0.29191 0.13762
 H380 H 0.55395 0.28926 0.11219
 C381 C 0.56559 0.31704 0.15322
 H382 H 0.57976 0.33382 0.13971
 C383 C 0.52800 0.27374 0.18592
 H384 H 0.51330 0.25679 0.19847
 C385 C 0.54205 0.29894 0.20254
 H386 H 0.53799 0.30145 0.22785
 Zn387 Zn 0.51330 0.24015 0.12738
 N388 N 0.53234 0.27107 0.15391
 C389 C 0.47635 0.28970 0.10614
 N390 N 0.48327 0.25926 0.10097
 C391 C 0.46820 0.24213 0.07798
 C392 C 0.44644 0.25610 0.05792
 C393 C 0.45445 0.30439 0.08700
 C394 C 0.57019 0.21031 0.11955
 C395 C 0.59564 0.19743 0.10360
 C396 C 0.57211 0.21215 0.05367
 C397 C 0.54711 0.22487 0.07057
 N398 N 0.54641 0.22334 0.10293
 H399 H 0.48761 0.30263 0.12527
 H400 H 0.47345 0.21772 0.07497
 H401 H 0.43507 0.24246 0.03926
 H402 H 0.44908 0.32859 0.09148
 H403 H 0.56923 0.20982 0.14527
 H404 H 0.61441 0.18696 0.11699
 H405 H 0.57253 0.21331 0.02793
 H406 H 0.52851 0.23608 0.05781
 C407 C 0.56112 0.32084 0.18600
 C408 C 0.45561 0.15859 0.17521
 C409 C 0.59656 0.19824 0.07034
 C410 C 0.43988 0.28779 0.06200
 C411 C 0.95187 0.73539 0.67280
 H412 H 0.94504 0.75916 0.67719
 C413 C 0.93611 0.71063 0.68839
 H414 H 0.91750 0.71538 0.70528
 C415 C 0.98292 0.69982 0.64393
 H416 H 1.00023 0.69545 0.62573
 C417 C 0.96754 0.67452 0.65859
 H418 H 0.97350 0.65097 0.65185
 N419 N 0.97453 0.72954 0.65074
 C420 C 1.02313 0.81783 0.62736
 H421 H 1.02297 0.81462 0.60182
 C422 C 1.03678 0.84484 0.64043
 H423 H 1.04721 0.86254 0.62495
 C424 C 1.00919 0.79883 0.67867
 H425 H 0.99840 0.78078 0.69336
 C426 C 1.02256 0.82573 0.69282
 H427 H 1.02198 0.82849 0.71843
 Zn428 Zn 0.99013 0.76203 0.62403
 N429 N 1.00927 0.79575 0.64642
 C430 C 0.94566 0.80635 0.60541
 N431 N 0.95523 0.77657 0.60101
 C432 C 0.93904 0.75633 0.58165
 C433 C 0.91284 0.76620 0.56473
 C434 C 0.91918 0.81695 0.58954
 C435 C 1.04810 0.73655 0.61072
 C436 C 1.07134 0.72215 0.59287
 C437 C 1.03941 0.72853 0.54586
 C438 C 1.01686 0.74311 0.56457
 N439 N 1.02119 0.74602 0.59654
 H440 H 0.95822 0.82183 0.62160
 H441 H 0.94666 0.73254 0.57920
 H442 H 0.90073 0.75016 0.54864
 H443 H 0.91174 0.84067 0.59335
 H444 H 1.05102 0.73942 0.63614
 H445 H 1.09234 0.71394 0.60447
 H446 H 1.03549 0.72547 0.52057
 H447 H 0.99577 0.75152 0.55356
 C448 C 1.03614 0.84915 0.67341
 C449 C 0.94318 0.67978 0.68031
 C450 C 1.06676 0.71766 0.56021
 C451 C 0.90238 0.79674 0.56901
 C452 C 0.53306 0.71710 0.34533
 H453 H 0.53584 0.74113 0.33777
 C454 C 0.55255 0.69439 0.33238
 H455 H 0.57059 0.70130 0.31531
 C456 C 0.50905 0.67945 0.37944
 H457 H 0.49398 0.67392 0.39950
 C458 C 0.52659 0.65587 0.36595
 H459 H 0.52344 0.63225 0.37483
 N460 N 0.51150 0.70922 0.36823
 C461 C 0.44284 0.77509 0.35631
 H462 H 0.42635 0.75677 0.36366
 C463 C 0.43138 0.80285 0.34408
 H464 H 0.40608 0.80528 0.34231
 C465 C 0.49543 0.79491 0.35251
 H466 H 0.52029 0.79218 0.35711
 C467 C 0.48496 0.82309 0.34019
 H468 H 0.50217 0.84124 0.33388
 Zn469 Zn 0.48739 0.74016 0.38924
 N470 N 0.47426 0.77213 0.36151
 C471 C 0.50620 0.78830 0.43162
 N472 N 0.51339 0.75944 0.42058
 C473 C 0.54068 0.74569 0.42899
 C474 C 0.56237 0.76138 0.44866
 C475 C 0.52734 0.80488 0.45125
 C476 C 0.43726 0.69553 0.39462
 C477 C 0.41163 0.68009 0.40896
 C478 C 0.41070 0.72085 0.44864
 C479 C 0.43774 0.73445 0.43468
 N480 N 0.45073 0.72141 0.40836
 H481 H 0.48462 0.79897 0.42412
 H482 H 0.54613 0.72293 0.41968
 H483 H 0.58449 0.75064 0.45432
 H484 H 0.52189 0.82823 0.45909
 H485 H 0.44680 0.68638 0.37276
 H486 H 0.40302 0.65818 0.39890
 H487 H 0.40048 0.73178 0.46935
 H488 H 0.44823 0.75550 0.44479
 C489 C 0.45237 0.82822 0.33787
 C490 C 0.54885 0.66307 0.34214
 C491 C 0.39736 0.69310 0.43590
 C492 C 0.55588 0.79143 0.45973
 C493 C 0.36180 -0.01601 0.21658
 C494 C 0.37546 -0.00009 0.24250
 C495 C 0.38761 0.03052 0.23850
 C496 C 0.38650 0.04515 0.20868
 C497 C 0.37299 0.02884 0.18285
 C498 C 0.36032 -0.00150 0.18675
 C499 C 0.37632 -0.01500 0.27404
 C500 C 0.39301 -0.04248 0.27874
 C501 C 0.39525 -0.05538 0.30930
 C502 C 0.37968 -0.04130 0.33489
 C503 C 0.36183 -0.01460 0.33016
 C504 C 0.36079 -0.00126 0.29974
 H505 H 0.35181 -0.03941 0.21972
 H506 H 0.39818 0.04284 0.25855
 H507 H 0.40500 -0.05322 0.25890
 H508 H 0.34759 0.01974 0.29596
 H509 H 0.37247 0.03970 0.15957
 H510 H 0.38142 -0.05122 0.35852
 C511 C 0.12356 1.02647 0.71700
 C512 C 0.10750 1.01197 0.74244
 C513 C 0.09234 0.98272 0.73787
 C514 C 0.09267 0.96832 0.70785
 C515 C 0.10941 0.98272 0.68277
 C516 C 0.12515 1.01157 0.68739
 C517 C 0.10883 1.02637 0.77428
 C518 C 0.09818 1.05670 0.77916
 C519 C 0.10182 1.07129 0.80894
 C520 C 0.11631 1.05521 0.83385
 C521 C 0.12624 1.02450 0.82940
 C522 C 0.12236 1.01025 0.79954
 H523 H 0.13610 1.04861 0.72066
 H524 H 0.08028 0.97121 0.75758
 H525 H 0.08690 1.06886 0.75985
 H526 H 0.13061 0.98679 0.79573
 H527 H 0.11057 0.97129 0.65978
 H528 H 0.11963 1.06650 0.85675
 C529 C 0.62463 0.50698 0.21621
 C530 C 0.62006 0.49177 0.24544
 C531 C 0.61077 0.45998 0.24595
 C532 C 0.60606 0.44372 0.21724
 C533 C 0.61083 0.45923 0.18816
 C534 C 0.62010 0.49088 0.18751
 C535 C 0.62753 0.50917 0.27491
 C536 C 0.61349 0.53789 0.28081
 C537 C 0.62439 0.55758 0.30552
 C538 C 0.64882 0.54722 0.32517
 C539 C 0.66171 0.51772 0.32060
 C540 C 0.65097 0.49878 0.29539
 H541 H 0.63290 0.53119 0.21578
 H542 H 0.60762 0.44792 0.26844
 H543 H 0.59405 0.54478 0.26594
 H544 H 0.66129 0.47622 0.29139
 H545 H 0.60770 0.44650 0.16602
 H546 H 0.65752 0.56183 0.34450
 C547 C 0.85954 0.50036 0.71694
 C548 C 0.87050 0.51620 0.74420
 C549 C 0.88119 0.54750 0.74172
 C550 C 0.88110 0.56281 0.71221
 C551 C 0.87037 0.54652 0.68512
 C552 C 0.85892 0.51560 0.68751
 C553 C 0.86953 0.50026 0.77536
 C554 C 0.88182 0.47032 0.77876
 C555 C 0.87938 0.45453 0.80791
 C556 C 0.86428 0.46879 0.83365
 C557 C 0.85265 0.49902 0.83086
 C558 C 0.85534 0.51459 0.80158
 H559 H 0.85058 0.47645 0.71877
 H560 H 0.88972 0.55988 0.76265
 H561 H 0.89342 0.45937 0.75880
 H562 H 0.84582 0.53769 0.79905
 H563 H 0.87069 0.55799 0.66213
 H564 H 0.86206 0.45648 0.85610
 C565 C 0.23377 0.36475 -0.00635
 C566 C 0.26166 0.37819 0.00620
 C567 C 0.26054 0.39547 0.03464
 C568 C 0.23158 0.39952 0.05023
 C569 C 0.20388 0.38632 0.03712
 C570 C 0.20489 0.36817 0.00939
 C571 C 0.29191 0.37268 -0.01001
 C572 C 0.29629 0.38172 -0.04185
 C573 C 0.32365 0.37364 -0.05865
 C574 C 0.34672 0.35662 -0.04276
 C575 C 0.34365 0.34961 -0.01024
 C576 C 0.31591 0.35723 0.00587
 H577 H 0.23470 0.35086 -0.02791
 H578 H 0.28202 0.40577 0.04452
 H579 H 0.27852 0.39553 -0.05323
 H580 H 0.31293 0.35098 0.03071
 H581 H 0.18146 0.38964 0.04896
 H582 H 0.36787 0.34997 -0.05530
 C583 C 0.72738 0.13433 1.01963
 C584 C 0.75223 0.12058 1.00323
 C585 C 0.74799 0.11080 0.97162
 C586 C 0.71900 0.11484 0.95640
 C587 C 0.69433 0.12894 0.97288
 C588 C 0.69862 0.13930 1.00427
 C589 C 0.78346 0.11928 1.01821
 C590 C 0.78844 0.09983 1.04445
 C591 C 0.81821 0.09949 1.05895
 C592 C 0.84244 0.11986 1.04811
 C593 C 0.83740 0.13980 1.02233
 C594 C 0.80809 0.13881 1.00694
 H595 H 0.73084 0.14237 1.04388
 H596 H 0.76733 0.10056 0.95875
 H597 H 0.76943 0.08466 1.05317
 H598 H 0.80416 0.15397 0.98676
 H599 H 0.67204 0.13249 0.96100
 H600 H 0.86519 0.12025 1.05985
 C601 C 0.18579 0.63634 0.51162
 C602 C 0.20830 0.61742 0.49760
 C603 C 0.20173 0.60259 0.46853
 C604 C 0.17264 0.60633 0.45351
 C605 C 0.15049 0.62611 0.46714
 C606 C 0.15715 0.64151 0.49601
 C607 C 0.24016 0.61587 0.51099
 C608 C 0.24605 0.59909 0.53882
 C609 C 0.27718 0.59619 0.54953
 C610 C 0.30232 0.60888 0.53135
 C611 C 0.29653 0.62596 0.50350
 C612 C 0.26515 0.63041 0.49448
 H613 H 0.19110 0.64814 0.53390
 H614 H 0.21944 0.58837 0.45740
 H615 H 0.22664 0.58827 0.55198
 H616 H 0.25997 0.64478 0.47404
 H617 H 0.12828 0.62975 0.45516
 H618 H 0.32636 0.60568 0.53916
 C619 C 0.68909 0.85847 0.49894
 C620 C 0.71663 0.87339 0.51040
 C621 C 0.71557 0.89069 0.53872
 C622 C 0.68737 0.89241 0.55613
 C623 C 0.65993 0.87720 0.54450
 C624 C 0.66080 0.85998 0.51611
 C625 C 0.74706 0.86840 0.49445
 C626 C 0.75170 0.87649 0.46240
 C627 C 0.78052 0.87056 0.44734
 C628 C 0.80431 0.85572 0.46434
 C629 C 0.79967 0.84708 0.49622
 C630 C 0.77134 0.85442 0.51138
 H631 H 0.68995 0.84462 0.47735
 H632 H 0.73680 0.90255 0.54738
 H633 H 0.73316 0.88777 0.44937
 H634 H 0.76789 0.84859 0.53627
 H635 H 0.63802 0.87837 0.55774
 H636 H 0.82662 0.85121 0.45281
 C637 C -0.00025 0.19479 0.35028
 C638 C 0.01559 0.22144 0.36227
 C639 C 0.04383 0.21836 0.37919
 C640 C 0.05582 0.18863 0.38473
 C641 C 0.03998 0.16210 0.37214
 C642 C 0.01159 0.16498 0.35549
 C643 C 0.00134 0.25221 0.35884
 C644 C -0.02770 0.25782 0.37361
 C645 C -0.04161 0.28693 0.37055
 C646 C -0.02630 0.31046 0.35263
 C647 C 0.00220 0.30483 0.33684
 C648 C 0.01631 0.27577 0.34061
 H649 H -0.02208 0.19723 0.33725
 H650 H 0.05575 0.23889 0.38905
 H651 H -0.03933 0.23962 0.38763
 H652 H 0.03856 0.27130 0.32894
 H653 H 0.04926 0.13911 0.37621
 H654 H -0.03668 0.33325 0.35093
 C655 C 1.00708 0.69379 0.11693
 C656 C 0.99061 0.71992 0.10686
 C657 C 0.95880 0.71626 0.09793
 C658 C 0.94323 0.68697 0.09987
 C659 C 0.96002 0.66100 0.11007
 C660 C 0.99198 0.66424 0.11836
 C661 C 1.00622 0.75123 0.10651
 C662 C 1.03585 0.75609 0.09200
 C663 C 1.04974 0.78626 0.09047
 C664 C 1.03447 0.81128 0.10497
 C665 C 1.00521 0.80652 0.12002
 C666 C 0.99124 0.77648 0.12073
 H667 H 1.03150 0.69651 0.12429
 H668 H 0.94613 0.73623 0.08940
 H669 H 1.04770 0.73665 0.08115
 H670 H 0.96878 0.77273 0.13272
 H671 H 0.94823 0.63824 0.11146
 H672 H 1.04519 0.83457 0.10418
 C673 C 0.51858 0.22622 0.62987
 C674 C 0.50358 0.25005 0.61342
 C675 C 0.47314 0.24455 0.60111
 C676 C 0.45780 0.21532 0.60523
 C677 C 0.47296 0.19177 0.62202
 C678 C 0.50316 0.19726 0.63462
 C679 C 0.51963 0.28084 0.60984
 C680 C 0.54942 0.28335 0.59533
 C681 C 0.56494 0.31259 0.59229
 C682 C 0.55133 0.33908 0.60573
 C683 C 0.52155 0.33681 0.62039
 C684 C 0.50569 0.30763 0.62204
 H685 H 0.54195 0.23046 0.63968
 H686 H 0.46163 0.26276 0.58797
 H687 H 0.56027 0.26266 0.58588
 H688 H 0.48281 0.30564 0.63356
 H689 H 0.46124 0.16917 0.62534
 H690 H 0.56377 0.36153 0.60450
 C691 C 0.49223 0.72836 0.84753
 C692 C 0.50652 0.75199 0.86597
 C693 C 0.53088 0.74480 0.88693
 C694 C 0.53966 0.71369 0.89075
 C695 C 0.52335 0.68981 0.87400
 C696 C 0.49918 0.69684 0.85246
 C697 C 0.49303 0.78323 0.86585
 C698 C 0.46318 0.78716 0.87954
 C699 C 0.44903 0.81625 0.87862
 C700 C 0.46498 0.84159 0.86412
 C701 C 0.49445 0.83774 0.84946
 C702 C 0.50870 0.80852 0.85094
 H703 H 0.47476 0.73468 0.83009
 H704 H 0.54232 0.76316 0.90089
 H705 H 0.45083 0.76748 0.89062
 H706 H 0.53147 0.80526 0.83984
 H707 H 0.52962 0.66576 0.87789
 H708 H 0.45419 0.86424 0.86380
 C709 C 0.45213 -0.11362 0.34518
 C710 C 0.44058 -0.14194 0.33058
 C711 C 0.41551 -0.14025 0.30877
 C712 C 0.40224 -0.11189 0.30107
 C713 C 0.41337 -0.08400 0.31483
 C714 C 0.43916 -0.08449 0.33618
 C715 C 0.47428 -0.11346 0.37040
 C716 C 0.48583 -0.08551 0.38357
 C717 C 0.47512 -0.05711 0.37264
 C718 C 0.45181 -0.05648 0.34940
 H719 H 0.48230 -0.13471 0.38107
 H720 H 0.50306 -0.08593 0.40254
 H721 H 0.48437 -0.03547 0.38277
 H722 H 0.44370 -0.03389 0.34199
 H723 H 0.40618 -0.16114 0.29713
 H724 H 0.38246 -0.11183 0.28478
 C725 C 0.89528 0.37100 0.83439
 C726 C 0.92860 0.37155 0.83160
 C727 C 0.94416 0.39720 0.81741
 C728 C 0.92746 0.42318 0.80807
 C729 C 0.89472 0.42417 0.81258
 C730 C 0.87814 0.39741 0.82452
 C731 C 0.87864 0.34473 0.84689
 C732 C 0.84581 0.34441 0.84931
 C733 C 0.82901 0.37004 0.83922
 C734 C 0.84490 0.39630 0.82683
 H735 H 0.89080 0.32416 0.85452
 H736 H 0.83333 0.32408 0.85884
 H737 H 0.80351 0.36952 0.84088
 H738 H 0.83093 0.41548 0.81872
 H739 H 0.96964 0.39783 0.81516
 H740 H 0.94046 0.44339 0.79890
 C741 C 0.08163 1.15809 0.80260
 C742 C 0.05949 1.15989 0.82789
 C743 C 0.05190 1.13299 0.84557
 C744 C 0.06605 1.10481 0.83908
 C745 C 0.08854 1.10248 0.81481
 C746 C 0.09682 1.12934 0.79647
 C747 C 0.08882 1.18414 0.78306
 C748 C 0.11149 1.18239 0.75908
 C749 C 0.12740 1.15480 0.75411
 C750 C 0.12027 1.12850 0.77259
 H751 H 0.07685 1.20594 0.78594
 H752 H 0.11687 1.20260 0.74439
 H753 H 0.14528 1.15374 0.73574
 H754 H 0.13349 1.10771 0.76812
 H755 H 0.03525 1.13393 0.86514
 H756 H 0.05935 1.08452 0.85321
 C757 C 0.57667 0.63258 0.29776
 C758 C 0.56987 0.63808 0.33044
 C759 C 0.58320 0.61876 0.35342
 C760 C 0.60117 0.59353 0.34483
 C761 C 0.60830 0.58740 0.31289
 C762 C 0.59759 0.60830 0.28917
 C763 C 0.56268 0.64998 0.27328
 C764 C 0.57139 0.64578 0.24157
 C765 C 0.59411 0.62429 0.23359
 C766 C 0.60724 0.60579 0.25709
 H767 H 0.54467 0.66667 0.27818
 H768 H 0.56069 0.65953 0.22311
 H769 H 0.60134 0.62167 0.20903
 H770 H 0.62515 0.58972 0.24989
 H771 H 0.57894 0.62265 0.37852
 H772 H 0.60881 0.57815 0.36356
 C773 C 0.60768 0.35639 0.20051
 C774 C 0.57485 0.34909 0.20172
 C775 C 0.55416 0.37145 0.21326
 C776 C 0.56511 0.40161 0.22067
 C777 C 0.59701 0.41014 0.21678
 C778 C 0.61881 0.38722 0.20791
 C779 C 0.62963 0.33378 0.19160
 C780 C 0.66177 0.34151 0.18970
 C781 C 0.67261 0.37177 0.19663
 C782 C 0.65142 0.39451 0.20566
 H783 H 0.62215 0.30993 0.18638
 H784 H 0.67835 0.32392 0.18287
 H785 H 0.69758 0.37762 0.19512
 H786 H 0.66077 0.41768 0.21116
 H787 H 0.52902 0.36622 0.21426
 H788 H 0.54825 0.41901 0.22740
 C789 C 0.02959 0.90330 0.69639
 C790 C 0.04919 0.87867 0.68685
 C791 C 0.08195 0.88353 0.68611
 C792 C 0.09552 0.91247 0.69398
 C793 C 0.07674 0.93751 0.70265
 C794 C 0.04347 0.93306 0.70424
 C795 C -0.00358 0.89934 0.69713
 C796 C -0.02264 0.92406 0.70555
 C797 C -0.00914 0.95317 0.71295
 C798 C 0.02354 0.95781 0.71212
 H799 H -0.01508 0.87724 0.69112
 H800 H -0.04804 0.92067 0.70607
 H801 H -0.02410 0.97235 0.71914
 H802 H 0.03289 0.98100 0.71741
 H803 H 0.09709 0.86497 0.67845
 H804 H 0.12094 0.91560 0.69256
 C805 C 0.89197 0.64762 0.68489
 C806 C 0.92434 0.65269 0.69258
 C807 C 0.94021 0.62979 0.70954
 C808 C 0.92520 0.60152 0.71748
 C809 C 0.89374 0.59534 0.70894
 C810 C 0.87637 0.61909 0.69406
 C811 C 0.87497 0.66964 0.66729
 C812 C 0.84302 0.66449 0.66063
 C813 C 0.82741 0.63741 0.67119
 C814 C 0.84383 0.61488 0.68776
 H815 H 0.88601 0.69090 0.65832
 H816 H 0.83027 0.68170 0.64734
 H817 H 0.80251 0.63373 0.66634
 H818 H 0.83079 0.59431 0.69584
 H819 H 0.96494 0.63329 0.71543
 H820 H 0.93879 0.58367 0.72892
 C821 C 0.40268 0.12896 0.17951
 C822 C 0.43537 0.13204 0.18667
 C823 C 0.45002 0.10802 0.20315
 C824 C 0.43338 0.08075 0.21143
 C825 C 0.40140 0.07662 0.20377
 C826 C 0.38541 0.10140 0.18897
 C827 C 0.38689 0.15211 0.16228
 C828 C 0.35461 0.14907 0.15627
 C829 C 0.33747 0.12298 0.16706
 C830 C 0.35261 0.09931 0.18324
 H831 H 0.39916 0.17265 0.15311
 H832 H 0.34280 0.16715 0.14327
 H833 H 0.31234 0.12096 0.16267
 H834 H 0.33835 0.07953 0.19139
 H835 H 0.47495 0.10999 0.20873
 H836 H 0.44598 0.06212 0.22275
 C837 C 0.31336 0.40605 -0.14353
 C838 C 0.34371 0.42048 -0.14793
 C839 C 0.36679 0.41645 -0.12457
 C840 C 0.36002 0.40045 -0.09660
 C841 C 0.33020 0.38643 -0.09119
 C842 C 0.30713 0.38767 -0.11566
 C843 C 0.28874 0.41002 -0.16561
 C844 C 0.25975 0.39423 -0.16184
 C845 C 0.25463 0.37434 -0.13608
 C846 C 0.27802 0.37099 -0.11319
 H847 H 0.29141 0.42546 -0.18579
 H848 H 0.24123 0.39725 -0.17917
 H849 H 0.23230 0.36165 -0.13366
 H850 H 0.27319 0.35501 -0.09375
 H851 H 0.39026 0.42677 -0.12749
 H852 H 0.37817 0.40003 -0.07852
 C853 C 0.80920 0.87498 0.36110
 C854 C 0.81109 0.90790 0.35742
 C855 C 0.79868 0.92704 0.38112
 C856 C 0.78690 0.91427 0.40934
 C857 C 0.78715 0.88197 0.41466
 C858 C 0.79706 0.86190 0.38993
 C859 C 0.81907 0.85477 0.33668
 C860 C 0.81711 0.82243 0.34065
 C861 C 0.80514 0.80964 0.36878
 C862 C 0.79506 0.82909 0.39321
 H863 H 0.82794 0.86375 0.31423
 H864 H 0.82470 0.80720 0.32170
 H865 H 0.80344 0.78452 0.37160
 H866 H 0.78533 0.81822 0.41444
 H867 H 0.79986 0.95224 0.37856
 H868 H 0.77929 0.92990 0.42797
 C869 C 0.85594 0.03812 1.11158
 C870 C 0.83907 0.04285 1.14067
 C871 C 0.81599 0.06584 1.14149
 C872 C 0.80876 0.08305 1.11454
 C873 C 0.82432 0.07809 1.08572
 C874 C 0.84748 0.05498 1.08376
 C875 C 0.88264 0.01899 1.10982
 C876 C 0.89797 0.01385 1.08098
 C877 C 0.88771 0.02816 1.05338
 C878 C 0.86292 0.04876 1.05468
 H879 H 0.89270 0.00849 1.13067
 H880 H 0.91804 -0.00121 1.08010
 H881 H 0.89951 0.02387 1.03099
 H882 H 0.85608 0.05986 1.03273
 H883 H 0.80271 0.07012 1.16305
 H884 H 0.79114 0.10083 1.11633
 C885 C 0.28761 0.57756 0.63798
 C886 C 0.30602 0.55058 0.63528
 C887 C 0.31178 0.53787 0.60518
 C888 C 0.30090 0.55220 0.57779
 C889 C 0.28396 0.57973 0.57962
 C890 C 0.27654 0.59237 0.60990
 C891 C 0.28111 0.59092 0.66792
 C892 C 0.26392 0.61812 0.67020
 C893 C 0.25328 0.63271 0.64283
 C894 C 0.25964 0.62018 0.61292
 H895 H 0.28922 0.58049 0.68974
 H896 H 0.25903 0.62807 0.69333
 H897 H 0.24021 0.65399 0.64477
 H898 H 0.25137 0.63262 0.59233
 H899 H 0.32622 0.51750 0.60281
 H900 H 0.30683 0.54240 0.55482
 C901 C 0.15950 0.54364 0.38932
 C902 C 0.15693 0.56305 0.36216
 C903 C 0.15830 0.59558 0.36580
 C904 C 0.16289 0.60911 0.39563
 C905 C 0.16619 0.59053 0.42275
 C906 C 0.16420 0.55751 0.41987
 C907 C 0.15658 0.51076 0.38695
 C908 C 0.15872 0.49202 0.41392
 C909 C 0.16338 0.50556 0.44372
 C910 C 0.16591 0.53797 0.44682
 H911 H 0.15231 0.49921 0.36441
 H912 H 0.15648 0.46686 0.41172
 H913 H 0.16473 0.49089 0.46460
 H914 H 0.16876 0.54748 0.47053
 H915 H 0.15590 0.61062 0.34529
 H916 H 0.16431 0.63436 0.39755
 C917 C 0.70054 0.11477 0.86732
 C918 C 0.69732 0.08189 0.86187
 C919 C 0.70654 0.06150 0.88621
 C920 C 0.71472 0.07275 0.91625
 C921 C 0.71435 0.10471 0.92303
 C922 C 0.70852 0.12615 0.89826
 C923 C 0.69785 0.13661 0.84230
 C924 C 0.70073 0.16865 0.84805
 C925 C 0.70714 0.17967 0.87856
 C926 C 0.71135 0.15872 0.90344
 H927 H 0.69432 0.12916 0.81793
 H928 H 0.69836 0.18500 0.82864
 H929 H 0.70956 0.20456 0.88285
 H930 H 0.71755 0.16829 0.92651
 H931 H 0.70482 0.03639 0.88306
 H932 H 0.71977 0.05619 0.93491
 C933 C 0.70522 0.92651 0.63914
 C934 C 0.68211 0.94984 0.64040
 C935 C 0.66210 0.95369 0.61425
 C936 C 0.66427 0.93485 0.58746
 C937 C 0.68618 0.91106 0.58590
 C938 C 0.70663 0.90633 0.61212
 C939 C 0.72717 0.92293 0.66400
 C940 C 0.74872 0.89894 0.66318
 C941 C 0.74885 0.87812 0.63773
 C942 C 0.72803 0.88162 0.61244
 H943 H 0.72807 0.93874 0.68409
 H944 H 0.76527 0.89636 0.68252
 H945 H 0.76529 0.85923 0.63750
 H946 H 0.72873 0.86463 0.59342
 H947 H 0.64409 0.97114 0.61480
 H948 H 0.64853 0.93885 0.56768
 C949 C 0.23401 0.42328 0.13824
 C950 C 0.21290 0.44842 0.13734
 C951 C 0.20263 0.45928 0.10777
 C952 C 0.21073 0.44423 0.07972
 C953 C 0.22927 0.41769 0.08017
 C954 C 0.24176 0.40735 0.10951
 C955 C 0.24732 0.41343 0.16714
 C956 C 0.26678 0.38772 0.16799
 C957 C 0.27326 0.37136 0.14019
 C958 C 0.26086 0.38092 0.11119
 H959 H 0.24302 0.42566 0.18921
 H960 H 0.27675 0.38036 0.19035
 H961 H 0.28809 0.35121 0.14108
 H962 H 0.26644 0.36740 0.09029
 H963 H 0.18647 0.47839 0.10646
 H964 H 0.20104 0.45240 0.05749
 C965 C -0.12491 0.31467 0.38733
 C966 C -0.12391 0.31591 0.42102
 C967 C -0.09799 0.30406 0.43712
 C968 C -0.07217 0.29309 0.42031
 C969 C -0.07165 0.29358 0.38698
 C970 C -0.09869 0.30314 0.37018
 C971 C -0.15147 0.32469 0.37033
 C972 C -0.15217 0.32323 0.33718
 C973 C -0.12670 0.31155 0.32042
 C974 C -0.10025 0.30141 0.33667
 H975 H -0.17198 0.33338 0.38249
 H976 H -0.17270 0.33094 0.32445
 H977 H -0.12752 0.31015 0.29472
 H978 H -0.08132 0.29177 0.32284
 H979 H -0.09703 0.30487 0.46287
 H980 H -0.05173 0.28566 0.43344
 C981 C 0.36195 0.83511 0.88854
 C982 C 0.35982 0.83515 0.92221
 C983 C 0.38564 0.82599 0.94032
 C984 C 0.41404 0.81872 0.92569
 C985 C 0.41734 0.82033 0.89256
 C986 C 0.39089 0.82742 0.87359
 C987 C 0.33584 0.84237 0.86939
 C988 C 0.33824 0.84205 0.83628
 C989 C 0.36645 0.83423 0.82167
 C990 C 0.39252 0.82679 0.84005
 H991 H 0.31331 0.84795 0.87979
 H992 H 0.31802 0.84761 0.82189
 H993 H 0.36808 0.83369 0.79597
 H994 H 0.41373 0.82006 0.82780
 H995 H 0.38425 0.82590 0.96606
 H996 H 0.43403 0.81302 0.94040
 C997 C 1.11417 0.79471 0.02634
 C998 C 1.13813 0.81023 0.04443
 C999 C 1.13362 0.81444 0.07716
 C1000 C 1.10527 0.80543 0.09168
 C1001 C 1.08034 0.79212 0.07396
 C1002 C 1.08471 0.78636 0.04096
 C1003 C 1.11878 0.78758 -0.00612
 C1004 C 1.09451 0.77396 -0.02417
 C1005 C 1.06523 0.76732 -0.01035
 C1006 C 1.06022 0.77351 0.02183
 H1007 H 1.14123 0.79228 -0.01773
 H1008 H 1.09835 0.76877 -0.04907
 H1009 H 1.04631 0.75722 -0.02462
 H1010 H 1.03695 0.76832 0.03130
 H1011 H 1.15159 0.82630 0.09137
 H1012 H 1.10233 0.80988 0.11689
 C1013 C 0.62907 0.31225 0.52761
 C1014 C 0.65470 0.32577 0.54496
 C1015 C 0.65080 0.33241 0.57736
 C1016 C 0.62177 0.32734 0.59230
 C1017 C 0.59560 0.31563 0.57532
 C1018 C 0.59907 0.30787 0.54264
 C1019 C 0.63260 0.30311 0.49553
 C1020 C 0.60690 0.29132 0.47822
 C1021 C 0.57727 0.28850 0.49240
 C1022 C 0.57325 0.29675 0.52423
 H1023 H 0.65526 0.30478 0.48366
 H1024 H 0.60994 0.28455 0.45359
 H1025 H 0.55730 0.27978 0.47868
 H1026 H 0.54970 0.29451 0.53403
 H1027 H 0.67006 0.34289 0.59094
 H1028 H 0.61950 0.33329 0.61726
 C1029 C 0.36906 0.21350 0.58672
 C1030 C 0.36806 0.18901 0.56398
 C1031 C 0.39612 0.17522 0.55452
 C1032 C 0.42487 0.18476 0.56761
 C1033 C 0.42658 0.20836 0.59068
 C1034 C 0.39859 0.22321 0.60032
 C1035 C 0.34126 0.22781 0.59705
 C1036 C 0.34250 0.25126 0.62012
 C1037 C 0.37125 0.26060 0.63356
 C1038 C 0.39906 0.24665 0.62399
 H1039 H 0.31841 0.22093 0.58754
 H1040 H 0.32100 0.26208 0.62780
 H1041 H 0.37198 0.27861 0.65167
 H1042 H 0.42075 0.25423 0.63549
 H1043 H 0.39563 0.15636 0.53728
 H1044 H 0.44604 0.17319 0.56006
 C1045 C 0.85318 0.69394 0.09254
 C1046 C 0.84732 0.67169 0.06814
 C1047 C 0.87256 0.65586 0.05475
 C1048 C 0.90326 0.66144 0.06523
 C1049 C 0.90984 0.68291 0.08967
 C1050 C 0.88467 0.69944 0.10366
 C1051 C 0.82830 0.71017 0.10678
 C1052 C 0.83423 0.73134 0.13143
 C1053 C 0.86483 0.73638 0.14265
 C1054 C 0.88983 0.72046 0.12918
 H1055 H 0.80413 0.70654 0.09908
 H1056 H 0.81493 0.74368 0.14212
 H1057 H 0.86919 0.75255 0.16209
 H1058 H 0.91301 0.72455 0.13926
 H1059 H 0.86835 0.63866 0.03617
 H1060 H 0.92215 0.64870 0.05423
 C1061 C 0.58994 0.67556 0.95472
 C1062 C 0.62040 0.68623 0.94470
 C1063 C 0.62323 0.70708 0.91915
 C1064 C 0.59664 0.71684 0.90296
 C1065 C 0.56640 0.70591 0.91169
 C1066 C 0.56272 0.68585 0.93834
 C1067 C 0.58591 0.65418 0.98009
 C1068 C 0.55582 0.64419 0.98983
 C1069 C 0.52924 0.65510 0.97452
 C1070 C 0.53253 0.67571 0.94899
 H1071 H 0.60582 0.64487 0.99257
 H1072 H 0.55311 0.62795 1.00943
 H1073 H 0.50594 0.64745 0.98237
 H1074 H 0.51125 0.68375 0.93786
 H1075 H 0.64635 0.71524 0.91117
 H1076 H 0.59978 0.73215 0.88261
 C1077 C 0.11317 0.16021 0.44804
 C1078 C 0.14177 0.17438 0.43668
 C1079 C 0.14112 0.19370 0.40982
 C1080 C 0.11293 0.19885 0.39390
 C1081 C 0.08448 0.18496 0.40443
 C1082 C 0.08422 0.16638 0.43238
 C1083 C 0.11270 0.13936 0.47411
 C1084 C 0.08431 0.12658 0.48567
 C1085 C 0.05591 0.13410 0.47151
 C1086 C 0.05574 0.15376 0.44513
 H1087 H 0.13410 0.13242 0.48572
 H1088 H 0.08436 0.11085 0.50582
 H1089 H 0.03391 0.12444 0.48086
 H1090 H 0.03308 0.15911 0.43502
 H1091 H 0.16277 0.20448 0.40078
 H1092 H 0.11345 0.21317 0.37265
 C1093 C 0.52529 0.14061 0.70075
 C1094 C 0.55095 0.12580 0.68580
 C1095 C 0.56036 0.13509 0.65519
 C1096 C 0.54456 0.15825 0.63905
 C1097 C 0.51876 0.17270 0.65294
 C1098 C 0.50891 0.16412 0.68405
 C1099 C 0.51611 0.13331 0.73227
 C1100 C 0.49095 0.14823 0.74664
 C1101 C 0.47473 0.17090 0.73017
 C1102 C 0.48365 0.17900 0.69925
 H1103 H 0.52845 0.11639 0.74626
 H1104 H 0.48415 0.14232 0.77079
 H1105 H 0.45534 0.18251 0.74153
 H1106 H 0.47079 0.19717 0.68755
 H1107 H 0.58004 0.12412 0.64358
 H1108 H 0.55240 0.16485 0.61537
 C1109 C 1.05425 0.60195 0.12915
 C1110 C 1.04372 0.58876 0.15839
 C1111 C 1.01551 0.59867 0.17198
 C1112 C 0.99859 0.62242 0.15805
 C1113 C 1.00934 0.63701 0.13009
 C1114 C 1.03691 0.62627 0.11487
 C1115 C 1.08137 0.59113 0.11351
 C1116 C 1.09134 0.60418 0.08469
 C1117 C 1.07440 0.62791 0.07073
 C1118 C 1.04733 0.63880 0.08548
 H1119 H 1.09482 0.57225 0.12313
 H1120 H 1.11218 0.59565 0.07297
 H1121 H 1.08211 0.63774 0.04821
 H1122 H 1.03449 0.65674 0.07342
 H1123 H 1.00712 0.58870 0.19423
 H1124 H 0.97747 0.63027 0.16982
 C1125 C 0.94389 0.86534 0.14645
 C1126 C 0.95999 0.87887 0.17287
 C1127 C 0.99089 0.87029 0.17952
 C1128 C 1.00545 0.84753 0.16146
 C1129 C 0.98957 0.83270 0.13617
 C1130 C 0.95882 0.84208 0.12791
 C1131 C 0.91348 0.87484 0.13768
 C1132 C 0.89802 0.86147 0.11154
 C1133 C 0.91261 0.83879 0.09341
 C1134 C 0.94279 0.82928 0.10127
 H1135 H 0.90154 0.89292 0.15062
 H1136 H 0.87470 0.86897 0.10513
 H1137 H 0.90061 0.82872 0.07296
 H1138 H 0.95354 0.81220 0.08601
 H1139 H 1.00350 0.88068 0.19948
 H1140 H 1.02900 0.84069 0.16792
 C1141 C 0.48748 0.41781 0.63531
 C1142 C 0.47895 0.41453 0.66787
 C1143 C 0.48613 0.38702 0.68396
 C1144 C 0.50028 0.36250 0.66817
 C1145 C 0.50749 0.36445 0.63566
 C1146 C 0.50104 0.39228 0.61884
 C1147 C 0.48285 0.44598 0.61874
 C1148 C 0.48981 0.44842 0.58638
 C1149 C 0.50143 0.42295 0.56993
 C1150 C 0.50695 0.39509 0.58586
 H1151 H 0.47408 0.46641 0.63065
 H1152 H 0.48596 0.47011 0.57397
 H1153 H 0.50631 0.42483 0.54470
 H1154 H 0.51563 0.37586 0.57198
 H1155 H 0.47973 0.38404 0.70877
 H1156 H 0.50522 0.34149 0.68140
 C1157 C 0.43557 0.64988 0.80579
 C1158 C 0.45317 0.62369 0.79605
 C1159 C 0.48520 0.62292 0.80434
 C1160 C 0.49952 0.64682 0.82208
 C1161 C 0.48199 0.67141 0.83443
 C1162 C 0.44909 0.67196 0.82763
 C1163 C 0.40482 0.65483 0.79428
 C1164 C 0.38628 0.67796 0.80740
 C1165 C 0.39796 0.69649 0.83214
 C1166 C 0.42898 0.69349 0.84236
 H1167 H 0.39490 0.64098 0.77502
 H1168 H 0.36253 0.68106 0.79878
 H1169 H 0.38308 0.71361 0.84315
 H1170 H 0.43684 0.70801 0.86202
 H1171 H 0.49941 0.60340 0.79747
 H1172 H 0.52463 0.64576 0.82642
 C1173 C -0.05404 0.10397 0.33741
 C1174 C -0.03765 0.08432 0.31610
 C1175 C -0.00596 0.09133 0.30887
 C1176 C 0.00965 0.11717 0.32228
 C1177 C -0.00583 0.13677 0.34358
 C1178 C -0.03771 0.12979 0.35201
 C1179 C -0.08647 0.09892 0.34412
 C1180 C -0.10188 0.11758 0.36610
 C1181 C -0.08545 0.14160 0.38176
 C1182 C -0.05369 0.14771 0.37490
 H1183 H -0.10033 0.08078 0.33233
 H1184 H -0.12667 0.11327 0.37115
 H1185 H -0.09742 0.15570 0.39916
 H1186 H -0.04183 0.16642 0.38789
 H1187 H 0.00683 0.07660 0.29262
 H1188 H 0.03398 0.12218 0.31565
 C1189 C 0.01597 0.37390 0.27993
 C1190 C 0.04706 0.38332 0.28903
 C1191 C 0.06298 0.36568 0.31169
 C1192 C 0.04853 0.33968 0.32596
 C1193 C 0.01777 0.33008 0.31775
 C1194 C 0.00170 0.34645 0.29358
 C1195 C -0.00165 0.39150 0.25820
 C1196 C -0.03165 0.38122 0.24857
 C1197 C -0.04470 0.35337 0.26035
 C1198 C -0.02825 0.33607 0.28258
 H1199 H 0.00733 0.41342 0.24863
 H1200 H -0.04475 0.39484 0.23172
 H1201 H -0.06778 0.34523 0.25239
 H1202 H -0.03905 0.31436 0.29076
 H1203 H 0.08677 0.37243 0.31881
 H1204 H 0.06118 0.32747 0.34430
 C1205 C 0.51103 0.90981 0.79712
 C1206 C 0.54206 0.91800 0.80741
 C1207 C 0.55648 0.89963 0.83048
 C1208 C 0.54090 0.87353 0.84333
 C1209 C 0.51054 0.86454 0.83319
 C1210 C 0.49569 0.88219 0.80916
 C1211 C 0.49465 0.92864 0.77547
 C1212 C 0.46490 0.91939 0.76426
 C1213 C 0.45090 0.89131 0.77431
 C1214 C 0.46609 0.87280 0.79645
 H1215 H 0.50447 0.95077 0.76722
 H1216 H 0.45276 0.93394 0.74748
 H1217 H 0.42806 0.88392 0.76506
 H1218 H 0.45459 0.85097 0.80316
 H1219 H 0.58020 0.90544 0.83852
 H1220 H 0.55257 0.86035 0.86164
 C1221 C 0.62540 0.55034 0.11936
 C1222 C 0.65237 0.53893 0.10270
 C1223 C 0.66323 0.50923 0.11147
 C1224 C 0.65142 0.49361 0.13808
 C1225 C 0.62805 0.50657 0.15700
 C1226 C 0.61396 0.53453 0.14718
 C1227 C 0.60773 0.57540 0.10753
 C1228 C 0.58206 0.58667 0.12437
 C1229 C 0.57247 0.57253 0.15265
 C1230 C 0.58780 0.54637 0.16373
 H1231 H 0.61294 0.58598 0.08470
 H1232 H 0.56923 0.60618 0.11513
 H1233 H 0.55238 0.58125 0.16552
 H1234 H 0.57835 0.53503 0.18481
 H1235 H 0.68336 0.49902 0.10000
 H1236 H 0.66209 0.47197 0.14509
 C1237 C 0.19345 1.02788 0.62960
 C1238 C 0.18128 1.05354 0.61267
 C1239 C 0.15174 1.06496 0.62107
 C1240 C 0.13390 1.05110 0.64534
 C1241 C 0.14501 1.02529 0.66180
 C1242 C 0.17501 1.01348 0.65421
 C1243 C 0.22389 1.01675 0.62329
 C1244 C 0.23549 0.99155 0.64021
 C1245 C 0.21728 0.97722 0.66391
 C1246 C 0.18740 0.98810 0.67106
 H1247 H 0.23918 1.02757 0.60561
 H1248 H 0.25883 0.98324 0.63504
 H1249 H 0.22648 0.95776 0.67705
 H1250 H 0.17428 0.97662 0.69005
 H1251 H 0.14228 1.08468 0.60849
 H1252 H 0.11111 1.06042 0.65121
 C1253 C 0.14431 0.98182 0.90765
 C1254 C 0.17569 0.97186 0.90076
 C1255 C 0.18846 0.97892 0.87049
 C1256 C 0.17233 0.99647 0.84851
 C1257 C 0.14234 1.00746 0.85517
 C1258 C 0.12789 1.00009 0.88480
 C1259 C 0.12727 0.97105 0.93478
 C1260 C 0.09661 0.98040 0.94077
 C1261 C 0.08148 0.99950 0.91933
 C1262 C 0.09660 1.00878 0.89134
 H1263 H 0.13666 0.95422 0.95105
 H1264 H 0.08423 0.97213 0.96183
 H1265 H 0.05749 1.00629 0.92390
 H1266 H 0.08310 1.02208 0.87463
 H1267 H 0.21215 0.97237 0.86409
 H1268 H 0.18360 1.00175 0.82590
 C1269 C 0.73384 0.47985 0.35746
 C1270 C 0.72246 0.47560 0.38897
 C1271 C 0.69353 0.48807 0.39774
 C1272 C 0.67493 0.50282 0.37547
 C1273 C 0.68465 0.50561 0.34371
 C1274 C 0.71479 0.49505 0.33463
 C1275 C 0.76392 0.46970 0.34827
 C1276 C 0.77484 0.47418 0.31724
 C1277 C 0.75628 0.48911 0.29496
 C1278 C 0.72660 0.49964 0.30350
 H1279 H 0.77939 0.45866 0.36503
 H1280 H 0.79797 0.46630 0.31052
 H1281 H 0.76503 0.49278 0.27100
 H1282 H 0.71326 0.51178 0.28568
 H1283 H 0.68456 0.48506 0.42174
 H1284 H 0.65203 0.51092 0.38280
 C1285 C 0.80767 0.49307 0.61567
 C1286 C 0.82412 0.46677 0.60460
 C1287 C 0.85127 0.45753 0.62053
 C1288 C 0.86203 0.47352 0.64743
 C1289 C 0.84597 0.49925 0.65918
 C1290 C 0.81834 0.50907 0.64355
 C1291 C 0.78099 0.50401 0.59949
 C1292 C 0.76454 0.52934 0.61118
 C1293 C 0.77422 0.54418 0.63913
 C1294 C 0.80076 0.53416 0.65529
 H1295 H 0.77273 0.49328 0.57761
 H1296 H 0.74407 0.53740 0.59859
 H1297 H 0.76112 0.56358 0.64832
 H1298 H 0.80714 0.54604 0.67714
 H1299 H 0.86401 0.43746 0.61229
 H1300 H 0.88315 0.46581 0.65920
 C1301 C 0.33979 -0.05858 0.11911
 C1302 C 0.31171 -0.04514 0.10798
 C1303 C 0.30032 -0.01848 0.12285
 C1304 C 0.31650 -0.00475 0.14829
 C1305 C 0.34438 -0.01744 0.15973
 C1306 C 0.35638 -0.04453 0.14514
 C1307 C 0.35175 -0.08572 0.10490
 C1308 C 0.37967 -0.09842 0.11579
 C1309 C 0.39618 -0.08436 0.14085
 C1310 C 0.38479 -0.05763 0.15541
 H1311 H 0.33966 -0.09734 0.08535
 H1312 H 0.38860 -0.11920 0.10464
 H1313 H 0.41794 -0.09422 0.14903
 H1314 H 0.39853 -0.04731 0.17458
 H1315 H 0.27892 -0.00801 0.11444
 H1316 H 0.30716 0.01599 0.15923
 C1317 C 0.31033 0.00033 0.40386
 C1318 C 0.31732 0.03268 0.40844
 C1319 C 0.33870 0.04802 0.38788
 C1320 C 0.35277 0.03222 0.36295
 C1321 C 0.34561 0.00057 0.35721
 C1322 C 0.32374 -0.01558 0.37742
 C1323 C 0.29062 -0.01670 0.42516
 C1324 C 0.28265 -0.04802 0.41946
 C1325 C 0.29408 -0.06298 0.39257
 C1326 C 0.31437 -0.04702 0.37166
 H1327 H 0.28144 -0.00614 0.44652
 H1328 H 0.26732 -0.06070 0.43588
 H1329 H 0.28735 -0.08714 0.38798
 H1330 H 0.32233 -0.05951 0.35091
 H1331 H 0.34429 0.07270 0.39088
 H1332 H 0.36945 0.04492 0.34786
 C1333 C 0.83114 0.52852 0.91437
 C1334 C 0.80100 0.54076 0.90794
 C1335 C 0.78869 0.53831 0.87711
 C1336 C 0.80579 0.52474 0.85272
 C1337 C 0.83619 0.51381 0.85801
 C1338 C 0.84945 0.51630 0.88896
 C1339 C 0.84344 0.52789 0.94558
 C1340 C 0.87391 0.51785 0.95124
 C1341 C 0.89268 0.50826 0.92607
 C1342 C 0.88072 0.50751 0.89521
 H1343 H 0.82961 0.53484 0.96590
 H1344 H 0.88311 0.51779 0.97525
 H1345 H 0.91656 0.50112 0.93052
 H1346 H 0.89634 0.50029 0.87639
 H1347 H 0.76578 0.54753 0.87166
 H1348 H 0.79517 0.52288 0.82933
 C1349 C 0.11976 0.71355 0.53294
 C1350 C 0.08997 0.70032 0.54150
 C1351 C 0.08229 0.66937 0.53323
 C1352 C 0.10410 0.65097 0.51778
 C1353 C 0.13417 0.66306 0.50999
 C1354 C 0.14196 0.69489 0.51667
 C1355 C 0.12779 0.74506 0.53984
 C1356 C 0.15695 0.75800 0.53063
 C1357 C 0.17843 0.73998 0.51418
 C1358 C 0.17107 0.70879 0.50706
 H1359 H 0.11153 0.75999 0.55209
 H1360 H 0.16278 0.78221 0.53599
 H1361 H 0.20087 0.75028 0.50674
 H1362 H 0.18819 0.69591 0.49363
 H1363 H 0.05948 0.65911 0.53962
 H1364 H 0.09777 0.62679 0.51263
 C1365 C 0.65192 0.20177 1.04785
 C1366 C 0.62327 0.18474 1.05307
 C1367 C 0.61977 0.15409 1.04178
 C1368 C 0.64438 0.13990 1.02587
 C1369 C 0.67318 0.15599 1.02073
 C1370 C 0.67702 0.18742 1.03122
 C1371 C 0.65601 0.23292 1.05848
 C1372 C 0.68408 0.24968 1.05254
 C1373 C 0.70839 0.23592 1.03574
 C1374 C 0.70495 0.20518 1.02498
 H1375 H 0.63753 0.24459 1.07127
 H1376 H 0.68689 0.27357 1.06078
 H1377 H 0.72999 0.24918 1.03089
 H1378 H 0.72423 0.19571 1.01150
 H1379 H 0.59786 0.14096 1.04561
 H1380 H 0.64107 0.11599 1.01777
 C1381 C 0.88424 0.21392 0.99780
 C1382 C 0.91147 0.20017 0.98381
 C1383 C 0.91509 0.16771 0.98793
 C1384 C 0.89120 0.14889 1.00107
 C1385 C 0.86290 0.16155 1.01122
 C1386 C 0.85961 0.19437 1.01083
 C1387 C 0.88222 0.24667 1.00196
 C1388 C 0.85557 0.25974 1.01545
 C1389 C 0.83083 0.24060 1.02631
 C1390 C 0.83293 0.20825 1.02457
 H1391 H 0.90159 0.26252 0.99583
 H1392 H 0.85438 0.28484 1.01802
 H1393 H 0.81032 0.25086 1.03706
 H1394 H 0.81388 0.19436 1.03498
 H1395 H 0.93514 0.15583 0.97817
 H1396 H 0.89427 0.12385 1.00196
 C1397 C 0.34488 0.66185 0.43458
 C1398 C 0.37002 0.67670 0.45178
 C1399 C 0.37057 0.67376 0.48503
 C1400 C 0.34701 0.65692 0.50120
 C1401 C 0.32289 0.64077 0.48470
 C1402 C 0.32291 0.64170 0.45084
 C1403 C 0.34065 0.66685 0.40164
 C1404 C 0.31815 0.64944 0.38453
 C1405 C 0.29941 0.62687 0.39982
 C1406 C 0.30173 0.62290 0.43263
 H1407 H 0.35441 0.68440 0.38885
 H1408 H 0.31557 0.65317 0.35921
 H1409 H 0.28263 0.61273 0.38629
 H1410 H 0.28691 0.60490 0.44348
 H1411 H 0.38949 0.68457 0.49881
 H1412 H 0.34759 0.65680 0.52696
 C1413 C 0.59312 0.79945 0.50659
 C1414 C 0.58033 0.80973 0.47739
 C1415 C 0.59290 0.83683 0.46298
 C1416 C 0.61856 0.85306 0.47626
 C1417 C 0.63234 0.84281 0.50445
 C1418 C 0.61959 0.81592 0.52006
 C1419 C 0.58015 0.77317 0.52272
 C1420 C 0.59353 0.76279 0.55094
 C1421 C 0.61995 0.77829 0.56359
 C1422 C 0.63298 0.80458 0.54838
 H1423 H 0.55950 0.76059 0.51382
 H1424 H 0.58338 0.74255 0.56301
 H1425 H 0.63037 0.76995 0.58537
 H1426 H 0.65360 0.81578 0.55898
 H1427 H 0.58345 0.84489 0.44060
 H1428 H 0.62815 0.87354 0.46411
 C1429 C 0.12667 0.32121 0.00220
 C1430 C 0.11873 0.32836 -0.02973
 C1431 C 0.13903 0.34793 -0.04760
 C1432 C 0.16686 0.36024 -0.03460
 C1433 C 0.17560 0.35311 -0.00340
 C1434 C 0.15583 0.33279 0.01509
 C1435 C 0.10612 0.30314 0.02179
 C1436 C 0.11493 0.29498 0.05255
 C1437 C 0.14422 0.30463 0.06441
 C1438 C 0.16457 0.32330 0.04596
 H1439 H 0.08301 0.29535 0.01372
 H1440 H 0.09902 0.28091 0.06719
 H1441 H 0.15116 0.29778 0.08811
 H1442 H 0.18723 0.32990 0.05605
 H1443 H 0.13342 0.35353 -0.07204
 H1444 H 0.18168 0.37567 -0.04903
 C1445 C 0.42476 0.33165 0.02470
 C1446 C 0.41703 0.30344 0.04105
 C1447 C 0.38622 0.29085 0.03926
 C1448 C 0.36296 0.30604 0.02241
 C1449 C 0.36961 0.33453 0.00709
 C1450 C 0.40065 0.34788 0.00856
 C1451 C 0.45600 0.34404 0.02387
 C1452 C 0.46297 0.37264 0.00928
 C1453 C 0.43908 0.38944 -0.00469
 C1454 C 0.40820 0.37735 -0.00504
 H1455 H 0.47537 0.33169 0.03421
 H1456 H 0.48699 0.38192 0.00905
 H1457 H 0.44452 0.41191 -0.01547
 H1458 H 0.39043 0.39150 -0.01580
 H1459 H 0.37994 0.26935 0.05160
 H1460 H 0.33941 0.29556 0.02151
 C1461 C 0.84480 0.79264 0.55142
 C1462 C 0.87487 0.80815 0.55109
 C1463 C 0.87940 0.83514 0.53264
 C1464 C 0.85493 0.84698 0.51479
 C1465 C 0.82516 0.83195 0.51423
 C1466 C 0.82012 0.80396 0.53191
 C1467 C 0.83844 0.76648 0.57111
 C1468 C 0.80931 0.75057 0.56996
 C1469 C 0.78599 0.76035 0.54931
 C1470 C 0.79124 0.78673 0.53040
 H1471 H 0.85569 0.75821 0.58778
 H1472 H 0.80490 0.73040 0.58500
 H1473 H 0.76362 0.74757 0.54810
 H1474 H 0.77255 0.79323 0.51447
 H1475 H 0.90219 0.84725 0.53205
 H1476 H 0.85922 0.86838 0.50153
   
