data_POSCAR
  _audit_creation_date              2014-09-24
  _audit_creation_method            'ToBaCCo'
  _symmetry_space_group_name_H-M    'P1'
  _symmetry_Int_Tables_number       1
  _symmetry_cell_setting            triclinic
  loop_
  _symmetry_equiv_pos_as_xyz
 x,y,z
_cell_length_a 45.3186
_cell_length_b 45.3344
_cell_length_c 45.3559
_cell_angle_alpha 90.028800
_cell_angle_beta 90.018100
_cell_angle_gamma 89.910300
loop_
  _atom_site_label
  _atom_site_type_symbol
  _atom_site_fract_x
  _atom_site_fract_y
  _atom_site_fract_z
O1 O 0.23820 1.03018 0.46711
 O2 O 0.23664 0.97364 0.52504
 O3 O 0.23747 1.03052 0.52474
 O4 O 0.23827 0.97263 0.46753
 O5 O 0.28693 0.97244 0.46845
 O6 O 0.28611 1.03032 0.52534
 O7 O 0.28536 0.97273 0.52568
 O8 O 0.28690 1.03026 0.46840
 Cu9 Cu 0.23277 1.00178 0.49587
 Cu10 Cu 0.29121 1.00135 0.49699
 C11 C 0.26276 1.04018 0.45813
 C12 C 0.26069 0.96360 0.53532
 C13 C 0.26171 1.04034 0.53493
 C14 C 0.26277 0.96247 0.45837
 O15 O 0.76678 -0.02946 0.47728
 O16 O 0.76673 0.03249 0.52924
 O17 O 0.76656 -0.02523 0.53487
 O18 O 0.76429 0.02743 0.47251
 O19 O 0.71566 0.02762 0.47495
 O20 O 0.71799 -0.02694 0.53467
 O21 O 0.71813 0.03057 0.53214
 O22 O 0.71811 -0.02992 0.47740
 Cu23 Cu 0.77097 0.00128 0.50352
 Cu24 Cu 0.71262 0.00020 0.50493
 C25 C 0.74258 -0.04000 0.46800
 C26 C 0.74255 0.04229 0.53938
 C27 C 0.74252 -0.03544 0.54522
 C28 C 0.73944 0.03682 0.46340
 O29 O 0.24364 0.47085 0.96779
 O30 O 0.24174 0.52874 1.02447
 O31 O 0.24299 0.52837 0.96688
 O32 O 0.24359 0.47145 1.02510
 O33 O 0.29212 0.47374 1.02664
 O34 O 0.29167 0.52803 0.96645
 O35 O 0.29038 0.53132 1.02349
 O36 O 0.29231 0.47103 0.96887
 Cu37 Cu 0.23812 0.49976 0.99601
 Cu38 Cu 0.29650 0.50103 0.99653
 C39 C 0.26822 0.46097 0.95864
 C40 C 0.26568 0.54016 1.03340
 C41 C 0.26732 0.53766 0.95647
 C42 C 0.26801 0.46304 1.03612
 O43 O 0.47094 0.24035 1.02724
 O44 O 0.52795 0.23925 0.96961
 O45 O 0.52832 0.24038 1.02654
 O46 O 0.47037 0.23895 0.96968
 O47 O 0.46938 0.28767 0.96928
 O48 O 0.52759 0.28898 1.02595
 O49 O 0.52708 0.28791 0.96797
 O50 O 0.47003 0.28906 1.02564
 Cu51 Cu 0.49941 0.23485 0.99833
 Cu52 Cu 0.49875 0.29333 0.99706
 C53 C 0.46055 0.26487 1.03600
 C54 C 0.53731 0.26339 0.95900
 C55 C 0.53791 0.26491 1.03609
 C56 C 0.45967 0.26305 0.96016
 O57 O 0.47257 0.77968 -0.02803
 O58 O 0.52751 0.77839 0.03163
 O59 O 0.53034 0.77738 -0.02557
 O60 O 0.47018 0.78030 0.02908
 O61 O 0.46842 0.73167 0.02954
 O62 O 0.52855 0.72882 -0.02495
 O63 O 0.52556 0.72977 0.03252
 O64 O 0.47125 0.73101 -0.02794
 Cu65 Cu 0.50035 0.78380 0.00164
 Cu66 Cu 0.49829 0.72545 0.00229
 C67 C 0.46242 0.75560 -0.03810
 C68 C 0.53580 0.75390 0.04243
 C69 C 0.53991 0.75257 -0.03456
 C70 C 0.45905 0.75646 0.03871
 O71 O 1.02437 0.47069 0.23016
 O72 O 0.96638 0.52759 0.22969
 O73 O 1.02348 0.52830 0.23228
 O74 O 0.96663 0.47063 0.22734
 O75 O 0.96619 0.46693 0.27589
 O76 O 1.02064 0.52710 0.28077
 O77 O 0.96313 0.52445 0.27813
 O78 O 1.02354 0.47027 0.27883
 Cu79 Cu 0.99552 0.49939 0.22498
 Cu80 Cu 0.99307 0.49698 0.28328
 C81 C 1.03424 0.46120 0.25462
 C82 C 0.95460 0.53552 0.25384
 C83 C 1.03170 0.53783 0.25735
 C84 C 0.95674 0.45894 0.25076
 O85 O -0.02785 0.47497 0.75994
 O86 O 0.03238 0.52891 0.76565
 O87 O -0.02527 0.53249 0.76379
 O88 O 0.02926 0.47204 0.76121
 O89 O 0.03192 0.47686 0.71286
 O90 O -0.02504 0.53479 0.71527
 O91 O 0.03225 0.53420 0.71724
 O92 O -0.02602 0.47792 0.71140
 Cu93 Cu 0.00191 0.50183 0.76752
 Cu94 Cu 0.00348 0.50621 0.70932
 C95 C -0.03714 0.46712 0.73472
 C96 C 0.04253 0.54081 0.74245
 C97 C -0.03486 0.54377 0.73994
 C98 C 0.04025 0.46446 0.73658
 O99 O 0.46554 0.96864 0.22218
 O100 O 0.52451 1.02469 0.22118
 O101 O 0.52302 0.96747 0.22290
 O102 O 0.46708 1.02600 0.21897
 O103 O 0.46805 1.03029 0.26736
 O104 O 0.51938 0.96708 0.27143
 O105 O 0.52547 1.02393 0.26988
 O106 O 0.46216 0.97353 0.27052
 Cu107 Cu 0.49512 0.99650 0.21641
 Cu108 Cu 0.49364 0.99897 0.27469
 C109 C 0.45337 0.96209 0.24655
 C110 C 0.53558 1.03317 0.24549
 C111 C 0.53053 0.95701 0.24776
 C112 C 0.45815 1.03851 0.24241
 O113 O 1.02608 0.20786 0.52513
 O114 O 0.96796 0.21250 0.46848
 O115 O 1.02521 0.20938 0.46743
 O116 O 0.96889 0.20992 0.52590
 O117 O 0.97100 0.25852 0.52754
 O118 O 1.02735 0.25797 0.46903
 O119 O 0.96991 0.26110 0.47053
 O120 O 1.02837 0.25645 0.52640
 Cu121 Cu 0.99688 0.20503 0.49653
 Cu122 Cu 0.99945 0.26337 0.49853
 C123 C 1.03704 0.23144 0.53557
 C124 C 0.95889 0.23764 0.45997
 C125 C 1.03583 0.23356 0.45812
 C126 C 0.96028 0.23431 0.53670
 O127 O -0.02754 0.76947 0.53530
 O128 O 0.02190 0.77335 0.47126
 O129 O -0.03521 0.77171 0.47919
 O130 O 0.02958 0.76957 0.52851
 O131 O 0.03008 0.72098 0.52581
 O132 O -0.03367 0.72314 0.47570
 O133 O 0.02360 0.72472 0.46931
 O134 O -0.02667 0.72079 0.53310
 Cu135 Cu -0.00272 0.77592 0.50376
 Cu136 Cu -0.00171 0.71753 0.50064
 C137 C -0.03567 0.74454 0.54502
 C138 C 0.03138 0.74977 0.45947
 C139 C -0.04552 0.74769 0.46915
 C140 C 0.04079 0.74485 0.53573
 O141 O 0.78638 0.47281 1.03092
 O142 O 0.78122 0.53333 0.97711
 O143 O 0.78187 0.53035 1.03423
 O144 O 0.78496 0.47599 0.97378
 O145 O 0.73638 0.47273 0.97442
 O146 O 0.73332 0.52667 1.03508
 O147 O 0.73265 0.52963 0.97743
 O148 O 0.73781 0.46961 1.03181
 Cu149 Cu 0.78848 0.50347 1.00400
 Cu150 Cu 0.73017 0.49935 1.00481
 C151 C 0.76297 0.46081 1.04051
 C152 C 0.75608 0.54166 0.96791
 C153 C 0.75705 0.53782 1.04495
 C154 C 0.76115 0.46514 0.96370
 O155 O 0.47085 1.03060 0.77494
 O156 O 0.53302 0.97802 0.77902
 O157 O 0.52805 1.03527 0.77857
 O158 O 0.47576 0.97366 0.77740
 O159 O 0.47883 0.97156 0.72891
 O160 O 0.52958 1.03537 0.72995
 O161 O 0.53635 0.97871 0.73044
 O162 O 0.47295 1.02888 0.72643
 Cu163 Cu 0.50170 1.00445 0.78234
 Cu164 Cu 0.50458 1.00337 0.72405
 C165 C 0.46121 1.03876 0.74987
 C166 C 0.54561 0.96990 0.75532
 C167 C 0.53766 1.04604 0.75460
 C168 C 0.46827 0.96202 0.75309
 C169 C 0.24853 0.23016 0.26928
 C170 C 0.22603 0.25165 0.26852
 C171 C 0.22619 0.27348 0.24634
 C172 C 0.24936 0.27451 0.22547
 C173 C 0.27254 0.25354 0.22694
 C174 C 0.27193 0.23119 0.24874
 C175 C 0.73038 0.75704 0.29146
 C176 C 0.75342 0.73591 0.29092
 C177 C 0.75293 0.71301 0.26963
 C178 C 0.73042 0.71215 0.24809
 C179 C 0.70804 0.73380 0.24807
 C180 C 0.70778 0.75595 0.26997
 C181 C 0.74183 0.24090 0.72057
 C182 C 0.71877 0.24411 0.74142
 C183 C 0.71971 0.26725 0.76228
 C184 C 0.74355 0.28725 0.76244
 C185 C 0.76627 0.28438 0.74134
 C186 C 0.76527 0.26149 0.72015
 C187 C 0.26262 0.76742 0.71800
 C188 C 0.23813 0.74822 0.71897
 C189 C 0.23589 0.72699 0.74177
 C190 C 0.25819 0.72526 0.76364
 C191 C 0.28256 0.74470 0.76258
 C192 C 0.28476 0.76577 0.73979
 C193 C 0.22314 0.24496 0.72911
 C194 C 0.24448 0.22228 0.72999
 C195 C 0.26652 0.22243 0.75201
 C196 C 0.26778 0.24584 0.77269
 C197 C 0.24580 0.26811 0.77232
 C198 C 0.22336 0.26745 0.75065
 C199 C 0.78181 0.76014 0.74123
 C200 C 0.76024 0.78287 0.74180
 C201 C 0.73876 0.78341 0.76450
 C202 C 0.73984 0.76224 0.78744
 C203 C 0.76192 0.74022 0.78732
 C204 C 0.78275 0.73892 0.76416
 C205 C 0.22277 0.74795 0.27111
 C206 C 0.22204 0.72581 0.24916
 C207 C 0.24466 0.72441 0.22766
 C208 C 0.26760 0.74563 0.22782
 C209 C 0.26791 0.76819 0.24947
 C210 C 0.24540 0.76937 0.27109
 C211 C 0.77466 0.23726 0.26431
 C212 C 0.75146 0.21646 0.26342
 C213 C 0.72865 0.21942 0.24233
 C214 C 0.72935 0.24300 0.22191
 C215 C 0.75221 0.26417 0.22329
 C216 C 0.77500 0.26126 0.24440
 C217 C 0.28722 0.08337 0.43428
 C218 C 0.28705 0.10661 0.41405
 C219 C 0.26333 0.11026 0.39465
 C220 C 0.23946 0.09055 0.39586
 C221 C 0.23928 0.06771 0.41653
 C222 C 0.26321 0.06387 0.43587
 N223 N 0.26375 0.13431 0.37425
 N224 N 0.24707 0.13487 0.35170
 C225 C 0.24700 0.15923 0.33168
 C226 C 0.23627 0.15503 0.30306
 C227 C 0.23678 0.17816 0.28275
 C228 C 0.24729 0.20598 0.29117
 C229 C 0.25721 0.21053 0.32009
 C230 C 0.25741 0.18718 0.34018
 H231 H 0.30582 0.08103 0.44911
 H232 H 0.30552 0.12173 0.41336
 H233 H 0.22079 0.09310 0.38118
 H234 H 0.22052 0.05296 0.41731
 H235 H 0.22810 0.13363 0.29633
 H236 H 0.22901 0.17445 0.26047
 H237 H 0.26528 0.23197 0.32683
 H238 H 0.26549 0.19095 0.36233
 C239 C 0.76938 0.92944 0.43069
 C240 C 0.77015 0.90688 0.40974
 C241 C 0.74496 0.89012 0.40393
 C242 C 0.71865 0.89639 0.41915
 C243 C 0.71773 0.91925 0.43989
 C244 C 0.74315 0.93592 0.44597
 N245 N 0.74671 0.86707 0.38240
 N246 N 0.72602 0.84851 0.37859
 C247 C 0.72782 0.82573 0.35678
 C248 C 0.70624 0.80370 0.35642
 C249 C 0.70734 0.78116 0.33544
 C250 C 0.72986 0.78062 0.31421
 C251 C 0.75146 0.80276 0.31442
 C252 C 0.75057 0.82510 0.33568
 H253 H 0.78930 0.94198 0.43474
 H254 H 0.79051 0.90231 0.39809
 H255 H 0.69883 0.88379 0.41491
 H256 H 0.69723 0.92372 0.45133
 H257 H 0.68863 0.80393 0.37254
 H258 H 0.69060 0.76415 0.33567
 H259 H 0.76888 0.80275 0.29808
 H260 H 0.76744 0.84197 0.33543
 C261 C 0.76376 0.09054 0.55463
 C262 C 0.76436 0.11518 0.57310
 C263 C 0.74502 0.11721 0.59702
 C264 C 0.72432 0.09464 0.60185
 C265 C 0.72307 0.07037 0.58278
 C266 C 0.74306 0.06799 0.55926
 N267 N 0.74679 0.14234 0.61602
 N268 N 0.73844 0.14124 0.64277
 C269 C 0.73974 0.16650 0.66165
 C270 C 0.74101 0.16227 0.69215
 C271 C 0.74256 0.18645 0.71116
 C272 C 0.74174 0.21532 0.69995
 C273 C 0.74012 0.21959 0.66932
 C274 C 0.73952 0.19533 0.65025
 H275 H 0.77921 0.08927 0.53645
 H276 H 0.78031 0.13249 0.56912
 H277 H 0.70899 0.09597 0.62010
 H278 H 0.70692 0.05323 0.58671
 H279 H 0.74123 0.14016 0.70118
 H280 H 0.74407 0.18269 0.73468
 H281 H 0.73915 0.24166 0.66025
 H282 H 0.73828 0.19906 0.62671
 C283 C 0.23576 0.94019 0.57832
 C284 C 0.23485 0.91913 0.60074
 C285 C 0.25747 0.89831 0.60352
 C286 C 0.28152 0.89912 0.58399
 C287 C 0.28283 0.92067 0.56198
 C288 C 0.25981 0.94121 0.55882
 N289 N 0.25560 0.87679 0.62646
 N290 N 0.27039 0.85293 0.62580
 C291 C 0.26868 0.83191 0.64923
 C292 C 0.27733 0.80272 0.64395
 C293 C 0.27509 0.78160 0.66626
 C294 C 0.26488 0.78971 0.69428
 C295 C 0.25687 0.81906 0.69983
 C296 C 0.25845 0.84001 0.67736
 H297 H 0.21786 0.95594 0.57646
 H298 H 0.21629 0.91876 0.61577
 H299 H 0.29937 0.88334 0.58595
 H300 H 0.30157 0.92101 0.54717
 H301 H 0.28532 0.79628 0.62239
 H302 H 0.28145 0.75899 0.66180
 H303 H 0.24910 0.82557 0.72147
 H304 H 0.25193 0.86252 0.68198
 C305 C 0.41385 0.28608 0.05561
 C306 C 0.39058 0.28596 0.07577
 C307 C 0.39041 0.26584 0.09912
 C308 C 0.41349 0.24528 0.10183
 C309 C 0.43631 0.24476 0.08110
 C310 C 0.43675 0.26532 0.05800
 N311 N 0.36632 0.26621 0.11943
 N312 N 0.36925 0.25724 0.14583
 C313 C 0.34481 0.25659 0.16571
 C314 C 0.35003 0.25900 0.19600
 C315 C 0.32648 0.25870 0.21584
 C316 C 0.29747 0.25482 0.20566
 C317 C 0.29234 0.25179 0.17529
 C318 C 0.31580 0.25312 0.15538
 H319 H 0.41365 0.30195 0.03775
 H320 H 0.37280 0.30178 0.07342
 H321 H 0.41354 0.22934 0.11960
 H322 H 0.45377 0.22855 0.08328
 H323 H 0.37232 0.26164 0.20417
 H324 H 0.33087 0.26129 0.23917
 H325 H 0.27018 0.24838 0.16704
 H326 H 0.31141 0.25085 0.13203
 C327 C 0.42173 0.78116 0.93482
 C328 C 0.39985 0.78155 0.91312
 C329 C 0.39624 0.75746 0.89419
 C330 C 0.41455 0.73262 0.89743
 C331 C 0.43602 0.73193 0.91958
 C332 C 0.43990 0.75626 0.93838
 N333 N 0.37359 0.75858 0.87221
 N334 N 0.37331 0.74115 0.85022
 C335 C 0.35020 0.74198 0.82872
 C336 C 0.35494 0.72902 0.80110
 C337 C 0.33299 0.73003 0.77948
 C338 C 0.30573 0.74336 0.78559
 C339 C 0.30068 0.75584 0.81342
 C340 C 0.32288 0.75542 0.83480
 H341 H 0.42411 0.80012 0.94916
 H342 H 0.38580 0.80076 0.91088
 H343 H 0.41198 0.71366 0.88315
 H344 H 0.44976 0.71249 0.92184
 H345 H 0.37587 0.71855 0.79620
 H346 H 0.33712 0.72033 0.75805
 H347 H 0.27970 0.76620 0.81836
 H348 H 0.31865 0.76535 0.85610
 C349 C 0.57342 0.77917 0.07394
 C350 C 0.59379 0.77895 0.09706
 C351 C 0.59831 0.75337 0.11368
 C352 C 0.58242 0.72769 0.10672
 C353 C 0.56227 0.72777 0.08336
 C354 C 0.55747 0.75356 0.06682
 N355 N 0.61929 0.75403 0.13727
 N356 N 0.62211 0.73288 0.15549
 C357 C 0.64352 0.73368 0.17870
 C358 C 0.64326 0.71152 0.20019
 C359 C 0.66398 0.71170 0.22303
 C360 C 0.68545 0.73391 0.22439
 C361 C 0.68586 0.75601 0.20278
 C362 C 0.66495 0.75604 0.18017
 H363 H 0.57030 0.79934 0.06154
 H364 H 0.60598 0.79883 0.10218
 H365 H 0.58567 0.70760 0.11919
 H366 H 0.55026 0.70773 0.07843
 H367 H 0.62690 0.69416 0.19926
 H368 H 0.66340 0.69449 0.23958
 H369 H 0.70251 0.77312 0.20337
 H370 H 0.66573 0.77331 0.16372
 C371 C 0.58005 0.23873 0.93458
 C372 C 0.60231 0.23813 0.91332
 C373 C 0.60496 0.26110 0.89294
 C374 C 0.58540 0.28514 0.89434
 C375 C 0.56352 0.28611 0.91607
 C376 C 0.56053 0.26278 0.93624
 N377 N 0.62788 0.25957 0.87133
 N378 N 0.62764 0.27530 0.84811
 C379 C 0.65110 0.27374 0.82706
 C380 C 0.64629 0.28403 0.79835
 C381 C 0.66856 0.28183 0.77714
 C382 C 0.69611 0.26993 0.78471
 C383 C 0.70123 0.26029 0.81361
 C384 C 0.67879 0.26190 0.83462
 H385 H 0.57837 0.22058 0.95001
 H386 H 0.61735 0.21957 0.91249
 H387 H 0.58724 0.30324 0.87890
 H388 H 0.54871 0.30486 0.91688
 H389 H 0.62508 0.29326 0.79231
 H390 H 0.66441 0.28942 0.75488
 H391 H 0.72247 0.25114 0.81970
 H392 H 0.68308 0.25406 0.85675
 C393 C 0.07784 0.43852 0.27938
 C394 C 0.10134 0.41857 0.27977
 C395 C 0.10558 0.39901 0.25631
 C396 C 0.08637 0.39997 0.23199
 C397 C 0.06326 0.42043 0.23124
 C398 C 0.05867 0.43971 0.25506
 N399 N 0.12962 0.37859 0.25763
 N400 N 0.13049 0.35560 0.24156
 C401 C 0.15484 0.33554 0.24266
 C402 C 0.15108 0.30681 0.23203
 C403 C 0.17425 0.28653 0.23348
 C404 C 0.20171 0.29508 0.24484
 C405 C 0.20575 0.32399 0.25500
 C406 C 0.18235 0.34408 0.25418
 H407 H 0.07493 0.45333 0.29791
 H408 H 0.11609 0.41808 0.29856
 H409 H 0.08943 0.38516 0.21350
 H410 H 0.04876 0.42093 0.21226
 H411 H 0.13000 0.30003 0.22308
 H412 H 0.17092 0.26423 0.22558
 H413 H 0.22688 0.33081 0.26381
 H414 H 0.18578 0.36627 0.26230
 C415 C 0.92021 0.44486 0.70771
 C416 C 0.89658 0.42511 0.70630
 C417 C 0.89150 0.40521 0.72932
 C418 C 0.91019 0.40543 0.75404
 C419 C 0.93342 0.42559 0.75578
 C420 C 0.93868 0.44545 0.73260
 N421 N 0.86694 0.38549 0.72744
 N422 N 0.86505 0.36272 0.74373
 C423 C 0.84009 0.34346 0.74269
 C424 C 0.84270 0.31501 0.75437
 C425 C 0.81874 0.29569 0.75366
 C426 C 0.79165 0.30493 0.74190
 C427 C 0.78879 0.33358 0.73064
 C428 C 0.81297 0.35269 0.73073
 H429 H 0.92367 0.46007 0.68964
 H430 H 0.88225 0.42521 0.68719
 H431 H 0.90654 0.39038 0.77220
 H432 H 0.94736 0.42556 0.77518
 H433 H 0.86345 0.30773 0.76374
 H434 H 0.82118 0.27361 0.76247
 H435 H 0.76794 0.34096 0.72156
 H436 H 0.81041 0.37470 0.72186
 C437 C 0.08879 0.55853 0.76630
 C438 C 0.11246 0.57819 0.76790
 C439 C 0.11393 0.60233 0.74876
 C440 C 0.09172 0.60638 0.72752
 C441 C 0.06852 0.58620 0.72529
 C442 C 0.06680 0.56223 0.74480
 N443 N 0.13853 0.62195 0.75070
 N444 N 0.13678 0.64864 0.74221
 C445 C 0.16180 0.66782 0.74288
 C446 C 0.15733 0.69830 0.74474
 C447 C 0.18140 0.71750 0.74519
 C448 C 0.21028 0.70648 0.74262
 C449 C 0.21471 0.67590 0.74041
 C450 C 0.19067 0.65665 0.74094
 H451 H 0.08802 0.54005 0.78141
 H452 H 0.12955 0.57479 0.78424
 H453 H 0.09266 0.62476 0.71231
 H454 H 0.05178 0.58945 0.70855
 H455 H 0.13517 0.70713 0.74622
 H456 H 0.17753 0.74098 0.74727
 H457 H 0.23677 0.66699 0.73811
 H458 H 0.19454 0.63315 0.73913
 C459 C 0.92419 0.57345 0.22765
 C460 C 0.90149 0.59431 0.22730
 C461 C 0.88473 0.59959 0.25263
 C462 C 0.89106 0.58394 0.27861
 C463 C 0.91395 0.56324 0.27908
 C464 C 0.93068 0.55771 0.25357
 N465 N 0.86159 0.62106 0.25138
 N466 N 0.84375 0.62516 0.27265
 C467 C 0.82095 0.64699 0.27125
 C468 C 0.80039 0.64875 0.29421
 C469 C 0.77801 0.66998 0.29352
 C470 C 0.77612 0.68985 0.26989
 C471 C 0.79684 0.68824 0.24698
 C472 C 0.81901 0.66686 0.24753
 H473 H 0.93673 0.56976 0.20767
 H474 H 0.89683 0.60631 0.20719
 H475 H 0.87844 0.58776 0.29851
 H476 H 0.91838 0.55142 0.29935
 H477 H 0.80173 0.63363 0.31263
 H478 H 0.76227 0.67109 0.31145
 H479 H 0.79604 0.70380 0.22889
 H480 H 0.83479 0.66610 0.22964
 C481 C 0.06487 0.20352 0.57434
 C482 C 0.08554 0.20256 0.59723
 C483 C 0.10170 0.22774 0.60473
 C484 C 0.09700 0.25405 0.58905
 C485 C 0.07613 0.25514 0.56642
 C486 C 0.05980 0.22991 0.55887
 N487 N 0.12234 0.22624 0.62859
 N488 N 0.13998 0.24732 0.63418
 C489 C 0.16030 0.24635 0.65830
 C490 C 0.18225 0.26794 0.66013
 C491 C 0.20265 0.26747 0.68320
 C492 C 0.20100 0.24564 0.70502
 C493 C 0.17868 0.22429 0.70355
 C494 C 0.15855 0.22448 0.68020
 H495 H 0.05253 0.18376 0.56912
 H496 H 0.08895 0.18217 0.60919
 H497 H 0.10917 0.27385 0.59450
 H498 H 0.07276 0.27578 0.55487
 H499 H 0.18374 0.28493 0.64344
 H500 H 0.21985 0.28402 0.68399
 H501 H 0.17696 0.20747 0.72040
 H502 H 0.14158 0.20772 0.67936
 C503 C 0.94677 0.72143 0.59190
 C504 C 0.92794 0.72130 0.61637
 C505 C 0.90552 0.74244 0.61892
 C506 C 0.90244 0.76415 0.59706
 C507 C 0.92179 0.76485 0.57314
 C508 C 0.94399 0.74341 0.57028
 N509 N 0.88639 0.74197 0.64400
 N510 N 0.86031 0.75229 0.64249
 C511 C 0.84125 0.75350 0.66756
 C512 C 0.81072 0.75287 0.66315
 C513 C 0.79151 0.75444 0.68714
 C514 C 0.80258 0.75788 0.71586
 C515 C 0.83326 0.75909 0.72022
 C516 C 0.85250 0.75644 0.69626
 H517 H 0.96389 0.70481 0.59019
 H518 H 0.93058 0.70453 0.63316
 H519 H 0.88543 0.78085 0.59879
 H520 H 0.91923 0.78197 0.55667
 H521 H 0.80184 0.75073 0.64108
 H522 H 0.76796 0.75316 0.68332
 H523 H 0.84224 0.76207 0.74214
 H524 H 0.87607 0.75741 0.70001
 C525 C 0.05199 0.77620 0.41567
 C526 C 0.07196 0.77798 0.39223
 C527 C 0.09271 0.75556 0.38764
 C528 C 0.09271 0.73076 0.40622
 C529 C 0.07229 0.72860 0.42919
 C530 C 0.05198 0.75147 0.43434
 N531 N 0.11363 0.75841 0.36416
 N532 N 0.13768 0.74389 0.36416
 C533 C 0.15863 0.74586 0.34066
 C534 C 0.18750 0.73607 0.34561
 C535 C 0.20847 0.73739 0.32312
 C536 C 0.20057 0.74785 0.29512
 C537 C 0.17160 0.75750 0.28998
 C538 C 0.15076 0.75678 0.31272
 H539 H 0.03644 0.79404 0.41909
 H540 H 0.07168 0.79714 0.37798
 H541 H 0.10840 0.71303 0.40290
 H542 H 0.07279 0.70936 0.44333
 H543 H 0.19377 0.72754 0.36701
 H544 H 0.23075 0.72978 0.32732
 H545 H 0.16523 0.76554 0.26841
 H546 H 0.12848 0.76424 0.30838
 C547 C 0.91947 0.26613 0.43387
 C548 C 0.89721 0.26817 0.41265
 C549 C 0.89077 0.24410 0.39449
 C550 C 0.90654 0.21762 0.39807
 C551 C 0.92851 0.21539 0.41960
 C552 C 0.93532 0.23971 0.43757
 N553 N 0.86819 0.24709 0.37263
 N554 N 0.86467 0.22808 0.35230
 C555 C 0.84191 0.23080 0.33061
 C556 C 0.84258 0.21225 0.30597
 C557 C 0.82086 0.21449 0.28426
 C558 C 0.79778 0.23490 0.28732
 C559 C 0.79701 0.25351 0.31200
 C560 C 0.81901 0.25159 0.33351
 H561 H 0.92413 0.28517 0.44752
 H562 H 0.88514 0.28864 0.41014
 H563 H 0.90181 0.19865 0.38436
 H564 H 0.94040 0.19478 0.42193
 H565 H 0.86020 0.19629 0.30343
 H566 H 0.82213 0.20048 0.26497
 H567 H 0.77941 0.26951 0.31450
 H568 H 0.81803 0.26613 0.35241
 C569 C 0.29487 0.43074 0.92065
 C570 C 0.29486 0.40946 0.89829
 C571 C 0.26883 0.39463 0.89086
 C572 C 0.24265 0.40137 0.90604
 C573 C 0.24255 0.42283 0.92814
 C574 C 0.26864 0.43777 0.93568
 N575 N 0.26942 0.37305 0.86777
 N576 N 0.24727 0.35667 0.86241
 C577 C 0.24722 0.33521 0.83926
 C578 C 0.22401 0.31494 0.83793
 C579 C 0.22349 0.29327 0.81606
 C580 C 0.24597 0.29192 0.79485
 C581 C 0.26900 0.31258 0.79579
 C582 C 0.26976 0.33399 0.81799
 H583 H 0.31529 0.44197 0.92587
 H584 H 0.31518 0.40448 0.88674
 H585 H 0.22221 0.39027 0.90066
 H586 H 0.22200 0.42770 0.93934
 H587 H 0.20654 0.31567 0.85419
 H588 H 0.20576 0.27729 0.81589
 H589 H 0.28651 0.31184 0.77955
 H590 H 0.28784 0.34956 0.81850
 C591 C 0.79130 0.42022 0.06515
 C592 C 0.79290 0.39670 0.08504
 C593 C 0.76848 0.38931 0.10238
 C594 C 0.74218 0.40551 0.09937
 C595 C 0.74039 0.42868 0.07916
 C596 C 0.76497 0.43634 0.06192
 N597 N 0.77072 0.36519 0.12265
 N598 N 0.75145 0.36114 0.14263
 C599 C 0.75266 0.33685 0.16271
 C600 C 0.73414 0.33720 0.18735
 C601 C 0.73433 0.31373 0.20723
 C602 C 0.75252 0.28919 0.20227
 C603 C 0.77129 0.28880 0.17769
 C604 C 0.77148 0.31258 0.15802
 H605 H 0.81053 0.42554 0.05202
 H606 H 0.81326 0.38433 0.08710
 H607 H 0.72294 0.40009 0.11241
 H608 H 0.71984 0.44074 0.07718
 H609 H 0.71968 0.35584 0.19126
 H610 H 0.72032 0.31469 0.22654
 H611 H 0.78566 0.27010 0.17378
 H612 H 0.78594 0.31185 0.13905
 C613 C 0.72968 0.56711 0.92673
 C614 C 0.72837 0.58890 0.90497
 C615 C 0.75101 0.60967 0.90233
 C616 C 0.77529 0.60829 0.92157
 C617 C 0.77695 0.58612 0.94291
 C618 C 0.75413 0.56537 0.94572
 N619 N 0.74925 0.63140 0.87954
 N620 N 0.76491 0.65467 0.87997
 C621 C 0.76385 0.67580 0.85657
 C622 C 0.77436 0.70438 0.86163
 C623 C 0.77347 0.72548 0.83920
 C624 C 0.76273 0.71793 0.81120
 C625 C 0.75264 0.68919 0.80592
 C626 C 0.75291 0.66829 0.82854
 H627 H 0.71190 0.55126 0.92831
 H628 H 0.70962 0.58968 0.89018
 H629 H 0.79316 0.62401 0.91976
 H630 H 0.79600 0.58528 0.95731
 H631 H 0.78294 0.71037 0.88310
 H632 H 0.78137 0.74761 0.84351
 H633 H 0.74433 0.68310 0.78437
 H634 H 0.74495 0.64624 0.82407
 C635 C 0.28550 0.58685 0.05489
 C636 C 0.28389 0.60988 0.07536
 C637 C 0.26213 0.60981 0.09725
 C638 C 0.24149 0.58675 0.09813
 C639 C 0.24253 0.56420 0.07715
 C640 C 0.26467 0.56396 0.05549
 N641 N 0.26112 0.63347 0.11812
 N642 N 0.24959 0.63018 0.14348
 C643 C 0.24772 0.65400 0.16408
 C644 C 0.24738 0.64771 0.19426
 C645 C 0.24652 0.67058 0.21488
 C646 C 0.24486 0.70008 0.20554
 C647 C 0.24414 0.70629 0.17520
 C648 C 0.24606 0.68344 0.15459
 H649 H 0.30262 0.58722 0.03824
 H650 H 0.29984 0.62761 0.07442
 H651 H 0.22433 0.58644 0.11474
 H652 H 0.22625 0.54674 0.07803
 H653 H 0.24856 0.62508 0.20179
 H654 H 0.24737 0.66531 0.23815
 H655 H 0.24249 0.72885 0.16754
 H656 H 0.24588 0.68868 0.13131
 C657 C 0.42831 0.06951 0.72022
 C658 C 0.40562 0.09025 0.71818
 C659 C 0.39147 0.10051 0.74354
 C660 C 0.40027 0.08981 0.77125
 C661 C 0.42328 0.06932 0.77343
 C662 C 0.43770 0.05891 0.74791
 N663 N 0.36888 0.12238 0.74053
 N664 N 0.35223 0.12995 0.76182
 C665 C 0.33043 0.15260 0.75853
 C666 C 0.30956 0.15681 0.78089
 C667 C 0.28838 0.17912 0.77847
 C668 C 0.28811 0.19778 0.75379
 C669 C 0.30916 0.19372 0.73148
 C670 C 0.33002 0.17114 0.73368
 H671 H 0.43875 0.06217 0.70002
 H672 H 0.39904 0.09842 0.69673
 H673 H 0.38969 0.09759 0.79119
 H674 H 0.42976 0.06172 0.79513
 H675 H 0.30974 0.14277 0.80020
 H676 H 0.27239 0.18210 0.79597
 H677 H 0.30975 0.20836 0.71265
 H678 H 0.34615 0.16855 0.71627
 C679 C 0.40508 0.94557 0.26678
 C680 C 0.38171 0.92554 0.26780
 C681 C 0.38211 0.90028 0.25011
 C682 C 0.40570 0.89567 0.23052
 C683 C 0.42864 0.91621 0.22878
 C684 C 0.42867 0.94109 0.24721
 N685 N 0.35837 0.87966 0.25234
 N686 N 0.36196 0.85247 0.24638
 C687 C 0.33810 0.83191 0.24782
 C688 C 0.34438 0.80197 0.25183
 C689 C 0.32153 0.78139 0.25327
 C690 C 0.29208 0.79040 0.24961
 C691 C 0.28581 0.82043 0.24532
 C692 C 0.30863 0.84113 0.24481
 H693 H 0.40460 0.96474 0.28105
 H694 H 0.36356 0.92936 0.28287
 H695 H 0.40622 0.87638 0.21645
 H696 H 0.44667 0.91234 0.21358
 H697 H 0.36701 0.79464 0.25418
 H698 H 0.32679 0.75836 0.25683
 H699 H 0.26328 0.82777 0.24215
 H700 H 0.30336 0.86417 0.24141
 C701 C 0.58391 0.04954 0.26570
 C702 C 0.60804 0.06867 0.26574
 C703 C 0.60882 0.09272 0.24645
 C704 C 0.58559 0.09699 0.22636
 C705 C 0.56190 0.07725 0.22561
 C706 C 0.56074 0.05361 0.24554
 N707 N 0.63341 0.11241 0.24756
 N708 N 0.63088 0.13943 0.24047
 C709 C 0.65562 0.15896 0.24093
 C710 C 0.65084 0.18907 0.24568
 C711 C 0.67465 0.20856 0.24680
 C712 C 0.70352 0.19833 0.24204
 C713 C 0.70824 0.16819 0.23662
 C714 C 0.68450 0.14854 0.23652
 H715 H 0.58353 0.03128 0.28109
 H716 H 0.62589 0.06512 0.28122
 H717 H 0.58599 0.11533 0.21108
 H718 H 0.54422 0.08074 0.20990
 H719 H 0.62867 0.19733 0.24911
 H720 H 0.67057 0.23167 0.25128
 H721 H 0.73025 0.15994 0.23234
 H722 H 0.68857 0.12536 0.23244
 C723 C 0.59485 0.95432 0.73660
 C724 C 0.61935 0.93561 0.73730
 C725 C 0.62035 0.91201 0.75712
 C726 C 0.59702 0.90791 0.77711
 C727 C 0.57291 0.92722 0.77708
 C728 C 0.57146 0.95027 0.75649
 N729 N 0.64500 0.89229 0.75629
 N730 N 0.64256 0.86556 0.76439
 C731 C 0.66705 0.84564 0.76402
 C732 C 0.66155 0.81537 0.76222
 C733 C 0.68492 0.79532 0.76153
 C734 C 0.71418 0.80523 0.76376
 C735 C 0.71973 0.83562 0.76590
 C736 C 0.69631 0.85577 0.76563
 H737 H 0.59425 0.97214 0.72070
 H738 H 0.63725 0.93902 0.72187
 H739 H 0.59755 0.88991 0.79279
 H740 H 0.55509 0.92373 0.79260
 H741 H 0.63910 0.80735 0.76092
 H742 H 0.68020 0.77199 0.75957
 H743 H 0.74213 0.84367 0.76788
 H744 H 0.70098 0.87913 0.76726
 C745 C 0.71613 0.93122 0.57832
 C746 C 0.71613 0.91006 0.60067
 C747 C 0.74252 0.90109 0.61381
 C748 C 0.76925 0.91349 0.60419
 C749 C 0.76940 0.93448 0.58149
 C750 C 0.74278 0.94368 0.56821
 N751 N 0.74142 0.87913 0.63652
 N752 N 0.76371 0.87233 0.65220
 C753 C 0.76218 0.84999 0.67454
 C754 C 0.78591 0.84656 0.69400
 C755 C 0.78506 0.82504 0.71606
 C756 C 0.76056 0.80628 0.71871
 C757 C 0.73686 0.80951 0.69901
 C758 C 0.73754 0.83133 0.67723
 H759 H 0.69513 0.93753 0.56879
 H760 H 0.69540 0.90063 0.60787
 H761 H 0.78999 0.90678 0.61398
 H762 H 0.79036 0.94348 0.57442
 H763 H 0.80504 0.86072 0.69216
 H764 H 0.80357 0.82287 0.73102
 H765 H 0.71793 0.79502 0.70045
 H766 H 0.71900 0.83339 0.66232
 C767 C 0.29503 0.43383 0.07271
 C768 C 0.29528 0.41304 0.09549
 C769 C 0.26913 0.39951 0.10458
 C770 C 0.24244 0.40730 0.09086
 C771 C 0.24201 0.42842 0.06840
 C772 C 0.26835 0.44192 0.05886
 N773 N 0.27021 0.37806 0.12777
 N774 N 0.24836 0.36145 0.13361
 C775 C 0.24907 0.34017 0.15694
 C776 C 0.22678 0.31890 0.15830
 C777 C 0.22697 0.29753 0.18047
 C778 C 0.24916 0.29754 0.20207
 C779 C 0.27134 0.31911 0.20098
 C780 C 0.27145 0.34017 0.17843
 H781 H 0.31578 0.44370 0.06618
 H782 H 0.31599 0.40726 0.10593
 H783 H 0.22188 0.39724 0.09763
 H784 H 0.22101 0.43396 0.05840
 H785 H 0.20946 0.31864 0.14186
 H786 H 0.20993 0.28082 0.18068
 H787 H 0.28861 0.31947 0.21749
 H788 H 0.28883 0.35651 0.17792
 C789 C 0.28807 0.07611 0.56551
 C790 C 0.28795 0.09817 0.58703
 C791 C 0.26169 0.10622 0.60106
 C792 C 0.23521 0.09245 0.59284
 C793 C 0.23509 0.07099 0.57065
 C794 C 0.26159 0.06230 0.55684
 N795 N 0.26238 0.12877 0.62314
 N796 N 0.24289 0.13054 0.64326
 C797 C 0.24336 0.15374 0.66467
 C798 C 0.22992 0.14929 0.69211
 C799 C 0.23062 0.17143 0.71359
 C800 C 0.24400 0.19860 0.70744
 C801 C 0.25680 0.20339 0.67972
 C802 C 0.25686 0.18096 0.65858
 H803 H 0.30892 0.07025 0.55538
 H804 H 0.30847 0.10877 0.59312
 H805 H 0.21461 0.09861 0.60324
 H806 H 0.21425 0.06094 0.56468
 H807 H 0.21935 0.12846 0.69700
 H808 H 0.22055 0.16754 0.73488
 H809 H 0.26703 0.22436 0.67466
 H810 H 0.26707 0.18496 0.63739
 C811 C 0.28952 0.92325 0.42995
 C812 C 0.28989 0.90036 0.40929
 C813 C 0.26419 0.89264 0.39405
 C814 C 0.23788 0.90807 0.39985
 C815 C 0.23739 0.93077 0.42075
 C816 C 0.26323 0.93865 0.43600
 N817 N 0.26537 0.86903 0.37305
 N818 N 0.24375 0.86305 0.35616
 C819 C 0.24468 0.83930 0.33532
 C820 C 0.22184 0.83672 0.31473
 C821 C 0.22216 0.81406 0.29386
 C822 C 0.24516 0.79329 0.29359
 C823 C 0.26794 0.79562 0.31445
 C824 C 0.26782 0.81858 0.33509
 H825 H 0.30976 0.92868 0.44141
 H826 H 0.31029 0.88862 0.40506
 H827 H 0.21769 0.90245 0.38841
 H828 H 0.21682 0.94222 0.42489
 H829 H 0.20390 0.85254 0.31467
 H830 H 0.20455 0.81278 0.27777
 H831 H 0.28581 0.77973 0.31463
 H832 H 0.28566 0.82003 0.35090
 C833 C 0.71234 0.07567 0.43501
 C834 C 0.71108 0.09689 0.41270
 C835 C 0.73519 0.10130 0.39399
 C836 C 0.76090 0.08437 0.39804
 C837 C 0.76238 0.06346 0.42069
 C838 C 0.73806 0.05883 0.43935
 N839 N 0.73320 0.12340 0.37149
 N840 N 0.75196 0.12516 0.35069
 C841 C 0.75052 0.14772 0.32862
 C842 C 0.76871 0.14539 0.30380
 C843 C 0.76847 0.16738 0.28224
 C844 C 0.75047 0.19235 0.28555
 C845 C 0.73193 0.19461 0.31021
 C846 C 0.73184 0.17236 0.33159
 H847 H 0.69331 0.07274 0.44914
 H848 H 0.69119 0.10987 0.40988
 H849 H 0.77991 0.08753 0.38396
 H850 H 0.78247 0.05078 0.42349
 H851 H 0.78309 0.12647 0.30119
 H852 H 0.78245 0.16504 0.26303
 H853 H 0.71783 0.21371 0.31298
 H854 H 0.71762 0.17467 0.35063
 C855 C 0.57280 0.72402 0.93347
 C856 C 0.59586 0.72275 0.91306
 C857 C 0.61013 0.74849 0.90397
 C858 C 0.60084 0.77581 0.91529
 C859 C 0.57747 0.77723 0.93541
 C860 C 0.56316 0.75132 0.94491
 N861 N 0.63356 0.74627 0.88288
 N862 N 0.65041 0.76786 0.87679
 C863 C 0.67326 0.76554 0.85506
 C864 C 0.69371 0.78850 0.85222
 C865 C 0.71582 0.78714 0.83075
 C866 C 0.71749 0.76292 0.81152
 C867 C 0.69699 0.73991 0.81436
 C868 C 0.67517 0.74108 0.83608
 H869 H 0.56242 0.70355 0.94007
 H870 H 0.60276 0.70157 0.90439
 H871 H 0.61145 0.79605 0.90841
 H872 H 0.57082 0.79867 0.94363
 H873 H 0.69243 0.80750 0.86663
 H874 H 0.73139 0.80513 0.82881
 H875 H 0.69758 0.72132 0.79938
 H876 H 0.65948 0.72317 0.83765
 C877 C 0.07396 0.25898 0.42723
 C878 C 0.09495 0.25871 0.40465
 C879 C 0.10026 0.23276 0.38851
 C880 C 0.08440 0.20722 0.39533
 C881 C 0.06362 0.20736 0.41811
 C882 C 0.05812 0.23329 0.43427
 N883 N 0.12152 0.23179 0.36515
 N884 N 0.13892 0.25320 0.36003
 C885 C 0.16011 0.25246 0.33663
 C886 C 0.18123 0.27489 0.33501
 C887 C 0.20260 0.27458 0.31284
 C888 C 0.20286 0.25201 0.29168
 C889 C 0.18142 0.22975 0.29294
 C890 C 0.16026 0.22984 0.31538
 H891 H 0.07025 0.27928 0.43928
 H892 H 0.10688 0.27878 0.39972
 H893 H 0.08826 0.18710 0.38303
 H894 H 0.05170 0.18725 0.42290
 H895 H 0.18132 0.29244 0.35121
 H896 H 0.21909 0.29185 0.31224
 H897 H 0.18117 0.21232 0.27661
 H898 H 0.14403 0.21237 0.31607
 C899 C 0.56928 0.29207 0.07073
 C900 C 0.59096 0.29223 0.09270
 C901 C 0.60427 0.26591 0.10178
 C902 C 0.59537 0.23918 0.08895
 C903 C 0.57331 0.23885 0.06743
 C904 C 0.55999 0.26532 0.05788
 N905 N 0.62635 0.26675 0.12438
 N906 N 0.64352 0.24502 0.12913
 C907 C 0.66499 0.24531 0.15230
 C908 C 0.68756 0.22419 0.15213
 C909 C 0.70872 0.22378 0.17456
 C910 C 0.70725 0.24423 0.19772
 C911 C 0.68422 0.26495 0.19829
 C912 C 0.66343 0.26576 0.17554
 H913 H 0.55959 0.31290 0.06413
 H914 H 0.59758 0.31297 0.10252
 H915 H 0.60520 0.21852 0.09581
 H916 H 0.56689 0.21779 0.05816
 H917 H 0.68883 0.20814 0.13448
 H918 H 0.72612 0.20739 0.17403
 H919 H 0.68209 0.28017 0.21654
 H920 H 0.64585 0.28193 0.17642
 C921 C 0.41261 0.28374 0.94064
 C922 C 0.38873 0.28280 0.92117
 C923 C 0.38757 0.26137 0.89901
 C924 C 0.41029 0.24033 0.89687
 C925 C 0.43373 0.24067 0.91695
 C926 C 0.43518 0.26255 0.93881
 N927 N 0.36302 0.26117 0.87917
 N928 N 0.36514 0.25050 0.85331
 C929 C 0.34045 0.24955 0.83369
 C930 C 0.34553 0.24961 0.80329
 C931 C 0.32187 0.24907 0.78359
 C932 C 0.29275 0.24731 0.79403
 C933 C 0.28768 0.24662 0.82458
 C934 C 0.31135 0.24821 0.84431
 H935 H 0.41315 0.30062 0.95754
 H936 H 0.37129 0.29904 0.92308
 H937 H 0.40962 0.22341 0.88004
 H938 H 0.45089 0.22410 0.91521
 H939 H 0.36787 0.25062 0.79488
 H940 H 0.32626 0.24987 0.76013
 H941 H 0.26544 0.24485 0.83309
 H942 H 0.30702 0.24779 0.86777
 C943 C 0.42060 0.78430 0.06716
 C944 C 0.39795 0.78530 0.08806
 C945 C 0.38957 0.75979 0.10323
 C946 C 0.40394 0.73301 0.09702
 C947 C 0.42638 0.73190 0.07589
 C948 C 0.43504 0.75757 0.06082
 N949 N 0.36643 0.76166 0.12467
 N950 N 0.36000 0.74020 0.14157
 C951 C 0.33669 0.74199 0.16282
 C952 C 0.33331 0.71907 0.18321
 C953 C 0.31097 0.72026 0.20442
 C954 C 0.29139 0.74428 0.20521
 C955 C 0.29458 0.76714 0.18458
 C956 C 0.31716 0.76611 0.16363
 H957 H 0.42668 0.80443 0.05585
 H958 H 0.38700 0.80606 0.09261
 H959 H 0.39777 0.71295 0.10838
 H960 H 0.43711 0.71098 0.07155
 H961 H 0.34820 0.70037 0.18280
 H962 H 0.30893 0.70251 0.22025
 H963 H 0.27958 0.78576 0.18480
 H964 H 0.31924 0.78403 0.14801
 C965 C 0.93107 0.57690 0.71431
 C966 C 0.90924 0.59869 0.71496
 C967 C 0.89978 0.61061 0.74176
 C968 C 0.91219 0.60021 0.76818
 C969 C 0.93368 0.57800 0.76767
 C970 C 0.94354 0.56609 0.74069
 N971 N 0.87745 0.63301 0.74148
 N972 N 0.87175 0.64877 0.76401
 C973 C 0.84912 0.67088 0.76369
 C974 C 0.84844 0.69191 0.78627
 C975 C 0.82703 0.71412 0.78629
 C976 C 0.80550 0.71517 0.76404
 C977 C 0.80584 0.69377 0.74166
 C978 C 0.82766 0.67192 0.74130
 H979 H 0.93787 0.56835 0.69307
 H980 H 0.89979 0.60649 0.69445
 H981 H 0.90507 0.60902 0.78920
 H982 H 0.94265 0.57035 0.78845
 H983 H 0.86485 0.69135 0.80362
 H984 H 0.82730 0.73059 0.80357
 H985 H 0.78932 0.69415 0.72440
 H986 H 0.82763 0.65576 0.72373
 C987 C 0.42466 0.06920 0.21324
 C988 C 0.40301 0.09110 0.21152
 C989 C 0.39356 0.10581 0.23689
 C990 C 0.40602 0.09836 0.26427
 C991 C 0.42745 0.07620 0.26615
 C992 C 0.43706 0.06123 0.24064
 N993 N 0.37101 0.12782 0.23430
 N994 N 0.36387 0.14450 0.25572
 C995 C 0.34091 0.16610 0.25328
 C996 C 0.33724 0.18660 0.27604
 C997 C 0.31503 0.20792 0.27441
 C998 C 0.29578 0.20866 0.25017
 C999 C 0.29934 0.18806 0.22735
 C1000 C 0.32187 0.16699 0.22878
 H1001 H 0.43133 0.05828 0.19306
 H1002 H 0.39354 0.09664 0.19031
 H1003 H 0.39897 0.10939 0.28424
 H1004 H 0.43641 0.07081 0.28764
 H1005 H 0.35179 0.18618 0.29498
 H1006 H 0.31287 0.22393 0.29200
 H1007 H 0.28467 0.18834 0.20850
 H1008 H 0.32421 0.15128 0.21095
 C1009 C 0.06418 0.56945 0.28671
 C1010 C 0.08608 0.59107 0.28839
 C1011 C 0.09708 0.60421 0.26278
 C1012 C 0.08603 0.59536 0.23523
 C1013 C 0.06446 0.57342 0.23342
 C1014 C 0.05318 0.56012 0.25915
 N1015 N 0.11983 0.62598 0.26527
 N1016 N 0.12759 0.64196 0.24355
 C1017 C 0.15093 0.66310 0.24578
 C1018 C 0.15492 0.68344 0.22292
 C1019 C 0.17774 0.70410 0.22425
 C1020 C 0.19722 0.70435 0.24831
 C1021 C 0.19343 0.68376 0.27110
 C1022 C 0.17030 0.66344 0.27001
 H1023 H 0.05620 0.55980 0.30704
 H1024 H 0.09448 0.59767 0.30974
 H1025 H 0.09433 0.60510 0.21510
 H1026 H 0.05663 0.56697 0.21179
 H1027 H 0.14023 0.68331 0.20409
 H1028 H 0.18039 0.71976 0.20643
 H1029 H 0.20858 0.68325 0.28956
 H1030 H 0.16786 0.64771 0.28779
 C1031 C 0.91089 0.43917 0.22786
 C1032 C 0.88836 0.41821 0.22634
 C1033 C 0.88885 0.39348 0.24476
 C1034 C 0.91182 0.39019 0.26533
 C1035 C 0.93384 0.41170 0.26757
 C1036 C 0.93365 0.43621 0.24866
 N1037 N 0.86547 0.37239 0.24270
 N1038 N 0.86933 0.34534 0.24908
 C1039 C 0.84553 0.32466 0.24793
 C1040 C 0.85154 0.29504 0.24163
 C1041 C 0.82858 0.27456 0.23989
 C1042 C 0.79937 0.28325 0.24558
 C1043 C 0.79347 0.31283 0.25266
 C1044 C 0.81631 0.33351 0.25335
 H1045 H 0.91020 0.45805 0.21324
 H1046 H 0.87068 0.42103 0.21052
 H1047 H 0.91237 0.37135 0.27998
 H1048 H 0.95120 0.40903 0.28377
 H1049 H 0.87399 0.28796 0.23746
 H1050 H 0.83357 0.25191 0.23416
 H1051 H 0.77121 0.31987 0.25771
 H1052 H 0.81129 0.35624 0.25869
 C1053 C 0.08330 0.43993 0.71206
 C1054 C 0.10570 0.41867 0.71176
 C1055 C 0.10797 0.39800 0.73456
 C1056 C 0.08766 0.39898 0.75796
 C1057 C 0.06564 0.42061 0.75860
 C1058 C 0.06319 0.44125 0.73562
 N1059 N 0.13126 0.37660 0.73375
 N1060 N 0.13078 0.35356 0.74976
 C1061 C 0.15432 0.33245 0.74969
 C1062 C 0.14915 0.30426 0.76114
 C1063 C 0.17158 0.28309 0.76124
 C1064 C 0.19973 0.29014 0.75058
 C1065 C 0.20516 0.31849 0.73952
 C1066 C 0.18251 0.33949 0.73880
 H1067 H 0.08206 0.45570 0.69417
 H1068 H 0.12127 0.41820 0.69366
 H1069 H 0.08909 0.38334 0.77593
 H1070 H 0.05042 0.42110 0.77700
 H1071 H 0.12757 0.29862 0.76966
 H1072 H 0.16711 0.26125 0.76982
 H1073 H 0.22681 0.32418 0.73120
 H1074 H 0.18706 0.36123 0.73008
 C1075 C 0.90574 0.76899 0.45465
 C1076 C 0.88058 0.76909 0.43676
 C1077 C 0.87812 0.74923 0.41325
 C1078 C 0.90081 0.72866 0.40824
 C1079 C 0.92553 0.72792 0.42668
 C1080 C 0.92832 0.74827 0.44985
 N1081 N 0.85246 0.75011 0.39485
 N1082 N 0.85346 0.74154 0.36816
 C1083 C 0.82795 0.74123 0.34956
 C1084 C 0.83185 0.74278 0.31903
 C1085 C 0.80754 0.74198 0.30018
 C1086 C 0.77893 0.73841 0.31153
 C1087 C 0.77499 0.73669 0.34221
 C1088 C 0.79933 0.73850 0.36116
 H1089 H 0.90732 0.78472 0.47256
 H1090 H 0.86319 0.78496 0.44090
 H1091 H 0.89919 0.71293 0.39034
 H1092 H 0.94268 0.71176 0.42260
 H1093 H 0.85381 0.74490 0.30986
 H1094 H 0.81104 0.74376 0.27663
 H1095 H 0.75316 0.73371 0.35141
 H1096 H 0.79591 0.73697 0.38473
 C1097 C 0.92984 0.20843 0.57490
 C1098 C 0.90828 0.20877 0.59695
 C1099 C 0.89377 0.23503 0.60427
 C1100 C 0.90138 0.26120 0.58952
 C1101 C 0.92317 0.26098 0.56774
 C1102 C 0.93753 0.23457 0.56008
 N1103 N 0.87145 0.23464 0.62663
 N1104 N 0.85488 0.25684 0.63126
 C1105 C 0.83264 0.25716 0.65364
 C1106 C 0.81284 0.28083 0.65448
 C1107 C 0.79082 0.28200 0.67593
 C1108 C 0.78860 0.25968 0.69722
 C1109 C 0.80852 0.23595 0.69656
 C1110 C 0.83035 0.23458 0.67477
 H1111 H 0.94061 0.18777 0.56957
 H1112 H 0.90266 0.18847 0.60819
 H1113 H 0.89057 0.28183 0.59488
 H1114 H 0.92856 0.28145 0.55670
 H1115 H 0.81438 0.29833 0.63830
 H1116 H 0.77545 0.30032 0.67597
 H1117 H 0.80714 0.21859 0.71289
 H1118 H 0.84551 0.21611 0.67460
 C1119 C 0.08177 0.71695 0.56012
 C1120 C 0.10554 0.71539 0.57968
 C1121 C 0.11426 0.74027 0.59566
 C1122 C 0.09917 0.76708 0.59149
 C1123 C 0.07552 0.76875 0.57169
 C1124 C 0.06641 0.74362 0.55597
 N1125 N 0.13814 0.73754 0.61618
 N1126 N 0.14541 0.75837 0.63352
 C1127 C 0.16915 0.75550 0.65421
 C1128 C 0.17388 0.77816 0.67461
 C1129 C 0.19630 0.77578 0.69560
 C1130 C 0.21461 0.75079 0.69623
 C1131 C 0.21012 0.72815 0.67561
 C1132 C 0.18746 0.73040 0.65478
 H1133 H 0.07542 0.69721 0.54826
 H1134 H 0.11701 0.69463 0.58266
 H1135 H 0.10557 0.78666 0.60355
 H1136 H 0.06412 0.78959 0.56900
 H1137 H 0.15987 0.79753 0.67447
 H1138 H 0.19920 0.79327 0.71160
 H1139 H 0.22405 0.70871 0.67583
 H1140 H 0.18425 0.71260 0.63921
 C1141 C 0.77859 0.58040 0.07267
 C1142 C 0.77700 0.60169 0.09493
 C1143 C 0.75299 0.60232 0.11432
 C1144 C 0.73024 0.58155 0.11098
 C1145 C 0.73148 0.56065 0.08830
 C1146 C 0.75574 0.55980 0.06900
 N1147 N 0.75197 0.62455 0.13676
 N1148 N 0.73497 0.62264 0.15902
 C1149 C 0.73361 0.64540 0.18091
 C1150 C 0.72184 0.63893 0.20872
 C1151 C 0.72084 0.66059 0.23068
 C1152 C 0.73097 0.68919 0.22476
 C1153 C 0.74206 0.69593 0.19671
 C1154 C 0.74368 0.67412 0.17499
 H1155 H 0.79745 0.58037 0.05800
 H1156 H 0.79460 0.61765 0.09722
 H1157 H 0.71136 0.58177 0.12560
 H1158 H 0.71360 0.54500 0.08600
 H1159 H 0.71390 0.61694 0.21350
 H1160 H 0.71216 0.65515 0.25224
 H1161 H 0.74986 0.71797 0.19186
 H1162 H 0.75257 0.67970 0.15356
 C1163 C 0.29362 0.56488 0.91644
 C1164 C 0.29413 0.58558 0.89367
 C1165 C 0.26884 0.60181 0.88668
 C1166 C 0.24269 0.59689 0.90258
 C1167 C 0.24202 0.57585 0.92518
 C1168 C 0.26756 0.55973 0.93243
 N1169 N 0.27045 0.62290 0.86325
 N1170 N 0.24984 0.64119 0.85773
 C1171 C 0.25208 0.66186 0.83393
 C1172 C 0.23109 0.68443 0.83144
 C1173 C 0.23310 0.70518 0.80871
 C1174 C 0.25597 0.70333 0.78792
 C1175 C 0.27673 0.68046 0.79013
 C1176 C 0.27495 0.65998 0.81305
 H1177 H 0.31362 0.55273 0.92135
 H1178 H 0.31438 0.58913 0.88151
 H1179 H 0.22281 0.60912 0.89744
 H1180 H 0.22164 0.57239 0.93714
 H1181 H 0.21333 0.68609 0.84733
 H1182 H 0.21687 0.72269 0.80730
 H1183 H 0.29426 0.67844 0.77404
 H1184 H 0.29132 0.64262 0.81433
 C1185 C 0.78866 0.42886 0.93222
 C1186 C 0.78944 0.40812 0.90939
 C1187 C 0.76405 0.40204 0.89291
 C1188 C 0.73763 0.41681 0.89970
 C1189 C 0.73669 0.43722 0.92280
 C1190 C 0.76221 0.44352 0.93927
 N1191 N 0.76548 0.38046 0.86985
 N1192 N 0.74468 0.37720 0.85128
 C1193 C 0.74552 0.35508 0.82872
 C1194 C 0.72418 0.35569 0.80642
 C1195 C 0.72391 0.33402 0.78450
 C1196 C 0.74475 0.31110 0.78492
 C1197 C 0.76618 0.31044 0.80725
 C1198 C 0.76672 0.33239 0.82892
 H1199 H 0.80864 0.43316 0.94459
 H1200 H 0.80991 0.39680 0.90444
 H1201 H 0.71765 0.41236 0.88739
 H1202 H 0.71602 0.44822 0.92765
 H1203 H 0.70770 0.37301 0.80606
 H1204 H 0.70728 0.33489 0.76737
 H1205 H 0.78222 0.29274 0.80808
 H1206 H 0.78331 0.33132 0.84607
 C1207 C 0.57337 0.93008 0.22603
 C1208 C 0.59492 0.90806 0.22726
 C1209 C 0.59583 0.88840 0.25097
 C1210 C 0.57513 0.89123 0.27388
 C1211 C 0.55393 0.91371 0.27302
 C1212 C 0.55278 0.93322 0.24898
 N1213 N 0.61828 0.86618 0.25145
 N1214 N 0.61676 0.84357 0.26798
 C1215 C 0.63984 0.82198 0.26854
 C1216 C 0.63398 0.79390 0.27995
 C1217 C 0.65600 0.77226 0.28019
 C1218 C 0.68434 0.77878 0.26967
 C1219 C 0.69042 0.80703 0.25873
 C1220 C 0.66825 0.82845 0.25790
 H1221 H 0.57313 0.94496 0.20736
 H1222 H 0.61085 0.90616 0.20956
 H1223 H 0.57560 0.87636 0.29255
 H1224 H 0.53829 0.91566 0.29096
 H1225 H 0.61221 0.78868 0.28826
 H1226 H 0.65108 0.75051 0.28873
 H1227 H 0.71225 0.81232 0.25059
 H1228 H 0.67335 0.85008 0.24921
 C1229 C 0.57172 0.07938 0.78238
 C1230 C 0.59197 0.10255 0.78334
 C1231 C 0.59922 0.11802 0.75771
 C1232 C 0.58596 0.11004 0.73084
 C1233 C 0.56590 0.08663 0.72977
 C1234 C 0.55859 0.07104 0.75555
 N1235 N 0.62065 0.14111 0.75950
 N1236 N 0.62639 0.15808 0.73792
 C1237 C 0.64864 0.18041 0.73988
 C1238 C 0.65217 0.20019 0.71645
 C1239 C 0.67445 0.22147 0.71728
 C1240 C 0.69369 0.22300 0.74148
 C1241 C 0.69004 0.20332 0.76506
 C1242 C 0.66758 0.18228 0.76437
 H1243 H 0.56665 0.06777 0.80260
 H1244 H 0.60212 0.10844 0.80414
 H1245 H 0.59136 0.12162 0.71069
 H1246 H 0.55610 0.08076 0.70879
 H1247 H 0.63778 0.19892 0.69743
 H1248 H 0.67706 0.23643 0.69885
 H1249 H 0.70502 0.20383 0.78365
 H1250 H 0.66545 0.16711 0.78266
 C1251 C 0.43088 0.93118 0.77919
 C1252 C 0.40996 0.90865 0.77963
 C1253 C 0.40465 0.89173 0.75444
 C1254 C 0.42058 0.89763 0.72850
 C1255 C 0.44138 0.92048 0.72791
 C1256 C 0.44673 0.93749 0.75330
 N1257 N 0.38247 0.86933 0.75581
 N1258 N 0.37825 0.85067 0.73527
 C1259 C 0.35527 0.82906 0.73721
 C1260 C 0.35377 0.80662 0.71604
 C1261 C 0.33124 0.78559 0.71719
 C1262 C 0.30968 0.78704 0.73935
 C1263 C 0.31116 0.80949 0.76057
 C1264 C 0.33386 0.83025 0.75965
 H1265 H 0.43433 0.94393 0.79909
 H1266 H 0.39774 0.90437 0.79969
 H1267 H 0.41671 0.88488 0.70869
 H1268 H 0.45325 0.92481 0.70766
 H1269 H 0.37008 0.80546 0.69863
 H1270 H 0.33040 0.76836 0.70066
 H1271 H 0.29449 0.81110 0.77761
 H1272 H 0.33440 0.84747 0.77618
   
