data_POSCAR
  _audit_creation_date              2014-09-24
  _audit_creation_method            'ToBaCCo'
  _symmetry_space_group_name_H-M    'P1'
  _symmetry_Int_Tables_number       1
  _symmetry_cell_setting            triclinic
  loop_
  _symmetry_equiv_pos_as_xyz
 x,y,z
_cell_length_a 44.4481
_cell_length_b 44.4316
_cell_length_c 44.4636
_cell_angle_alpha 89.698500
_cell_angle_beta 90.194500
_cell_angle_gamma 89.785800
loop_
  _atom_site_label
  _atom_site_type_symbol
  _atom_site_fract_x
  _atom_site_fract_y
  _atom_site_fract_z
C1 C 0.24442 0.96361 -0.02153
 C2 C 0.25578 0.96294 0.00831
 C3 C 0.26283 0.99008 0.02269
 C4 C 0.25786 1.01851 0.00934
 C5 C 0.24698 1.01951 -0.02088
 C6 C 0.24065 0.99205 -0.03539
 H7 H 0.23518 0.99279 -0.05913
 H8 H 0.26905 0.98883 0.04626
 C9 C 0.74767 0.51838 0.47763
 C10 C 0.74948 0.51567 0.50931
 C11 C 0.74763 0.48698 0.52242
 C12 C 0.74279 0.46114 0.50529
 C13 C 0.73980 0.46372 0.47376
 C14 C 0.74267 0.49234 0.46045
 H15 H 0.74076 0.49442 0.43621
 H16 H 0.74984 0.48464 0.54664
 C17 C 0.73661 1.00539 1.01799
 C18 C 0.74382 0.97420 1.01911
 C19 C 0.74955 0.95951 0.99154
 C20 C 0.74888 0.97459 0.96358
 C21 C 0.74170 1.00561 0.96297
 C22 C 0.73590 1.02028 0.99015
 H23 H 0.73192 1.04439 0.98975
 H24 H 0.75293 0.93536 0.99148
 C25 C 0.25054 0.47681 0.52072
 C26 C 0.24575 0.50829 0.52065
 C27 C 0.24400 0.52350 0.49303
 C28 C 0.24655 0.50859 0.46542
 C29 C 0.25251 0.47727 0.46528
 C30 C 0.25384 0.46192 0.49307
 H31 H 0.25662 0.43767 0.49317
 H32 H 0.24096 0.54774 0.49295
 C33 C 0.96425 0.23527 -0.01158
 C34 C 0.96269 0.24391 0.01908
 C35 C 0.98963 0.24800 0.03527
 C36 C 1.01836 0.24516 0.02211
 C37 C 1.01977 0.23753 -0.00883
 C38 C 0.99297 0.23212 -0.02459
 H39 H 0.99462 0.22827 -0.04859
 H40 H 0.98792 0.25195 0.05923
 C41 C 0.46416 0.74311 0.49642
 C42 C 0.46484 0.74407 0.52816
 C43 C 0.49300 0.74419 0.54277
 C44 C 0.52022 0.74502 0.52676
 C45 C 0.51917 0.74718 0.49507
 C46 C 0.49124 0.74552 0.48053
 H47 H 0.49057 0.74589 0.45612
 H48 H 0.49378 0.74354 0.56716
 C49 C 0.00986 0.76589 -0.01732
 C50 C -0.02174 0.76013 -0.01779
 C51 C -0.03690 0.75846 0.01010
 C52 C -0.02220 0.76152 0.03799
 C53 C 0.00896 0.76763 0.03819
 C54 C 0.02411 0.76997 0.01073
 H55 H 0.04837 0.77237 0.01154
 H56 H -0.06119 0.75661 0.01027
 C57 C 0.50784 0.24153 0.53344
 C58 C 0.47646 0.24731 0.53329
 C59 C 0.46125 0.24815 0.50539
 C60 C 0.47629 0.24412 0.47787
 C61 C 0.50759 0.23840 0.47832
 C62 C 0.52269 0.23746 0.50597
 H63 H 0.54691 0.23425 0.50605
 H64 H 0.43707 0.25133 0.50504
 C65 C 0.97655 -0.00559 0.23721
 C66 C 0.97722 0.02561 0.24369
 C67 C 1.00518 0.04016 0.24575
 C68 C 1.03275 0.02484 0.24247
 C69 C 1.03233 -0.00637 0.23559
 C70 C 1.00416 -0.02053 0.23269
 H71 H 1.00380 -0.04479 0.23034
 H72 H 1.00541 0.06433 0.24896
 C73 C 0.53755 0.52035 0.75821
 C74 C 0.53776 0.48912 0.76464
 C75 C 0.51035 0.47424 0.76904
 C76 C 0.48265 0.48925 0.76780
 C77 C 0.48217 0.52051 0.76172
 C78 C 0.50965 0.53553 0.75738
 H79 H 0.50933 0.55970 0.75394
 H80 H 0.51056 0.45008 0.77271
 C81 C 1.02499 0.97839 0.73998
 C82 C 0.99434 0.97859 0.73172
 C83 C 0.97953 1.00623 0.72788
 C84 C 0.99350 1.03416 0.73347
 C85 C 1.02422 1.03381 0.74281
 C86 C 1.03945 1.00598 0.74479
 H87 H 1.06325 1.00575 0.75025
 H88 H 0.95556 1.00561 0.72334
 C89 C 0.52000 0.48346 0.24945
 C90 C 0.48839 0.48550 0.24678
 C91 C 0.47484 0.51398 0.24626
 C92 C 0.49146 0.54051 0.24973
 C93 C 0.52282 0.53850 0.25496
 C94 C 0.53661 0.50994 0.25390
 H95 H 0.56082 0.50823 0.25658
 H96 H 0.45064 0.51556 0.24327
 O97 O 0.26670 0.17441 0.19045
 O98 O 0.30109 0.16662 0.23284
 O99 O 0.18849 0.20784 0.23833
 O100 O 0.17771 0.24699 0.26790
 O101 O 0.21939 0.25173 0.15637
 O102 O 0.26038 0.28613 0.14658
 O103 O 0.26770 0.29484 0.30943
 O104 O 0.23384 0.25195 0.31894
 O105 O 0.34439 0.25300 0.27090
 O106 O 0.35094 0.21869 0.22662
 O107 O 0.30516 0.32971 0.23348
 O108 O 0.26076 0.33750 0.19736
 O109 O 0.26350 0.33030 0.27262
 O110 O 0.23063 0.33911 0.23093
 O111 O 0.34182 0.29411 0.22948
 O112 O 0.35130 0.25269 0.19676
 O113 O 0.30975 0.25634 0.30826
 O114 O 0.27474 0.22175 0.32122
 O115 O 0.26126 0.21068 0.15448
 O116 O 0.29386 0.25216 0.14436
 O117 O 0.18521 0.25089 0.19437
 O118 O 0.17857 0.28432 0.23698
 O119 O 0.22537 0.17264 0.23281
 O120 O 0.26773 0.16416 0.26519
 Zr121 Zr 0.26518 0.19796 0.23159
 O122 O 0.29348 0.22441 0.25878
 Zr123 Zr 0.21102 0.24944 0.23413
 O124 O 0.23728 0.27860 0.26060
 Zr125 Zr 0.26116 0.25093 0.17876
 O126 O 0.29010 0.27925 0.20308
 Zr127 Zr 0.26818 0.25345 0.28614
 O128 O 0.23960 0.22364 0.26222
 Zr129 Zr 0.31842 0.25331 0.23107
 O130 O 0.29226 0.22473 0.20354
 Zr131 Zr 0.26445 0.30550 0.23268
 O132 O 0.23504 0.27921 0.20610
 O133 O 0.23519 0.22232 0.20499
 O134 O 0.29460 0.28168 0.25985
 C135 C 0.26419 0.18317 0.16291
 C136 C 0.19778 0.18042 0.23647
 C137 C 0.19231 0.25201 0.16638
 C138 C 0.26529 0.32230 0.30031
 C139 C 0.33692 0.25500 0.29871
 C140 C 0.33286 0.32148 0.23153
 H141 H 0.30652 0.21107 0.27108
 H142 H 0.30173 0.29181 0.18892
 H143 H 0.22198 0.20930 0.19273
 H144 H 0.22386 0.29068 0.27353
 H145 H 0.22155 0.23390 0.31467
 H146 H 0.18576 0.25741 0.28578
 H147 H 0.34400 0.26579 0.18022
 H148 H 0.31014 0.23816 0.15061
 H149 H 0.27374 0.20169 0.31188
 H150 H 0.25210 0.16890 0.28028
 H151 H 0.27916 0.33624 0.18497
 H152 H 0.24596 0.30137 0.15403
 H153 H 0.31539 0.17274 0.21694
 H154 H 0.34905 0.20507 0.24418
 H155 H 0.18342 0.29917 0.22105
 H156 H 0.21478 0.33321 0.24534
 O157 O 0.74828 0.84533 0.22647
 O158 O 0.71509 0.85357 0.26902
 O159 O 0.82776 0.81128 0.27004
 O160 O 0.83799 0.77371 0.30373
 O161 O 0.79404 0.76500 0.19304
 O162 O 0.75119 0.73319 0.18424
 O163 O 0.75127 0.72685 0.34842
 O164 O 0.78520 0.76877 0.35545
 O165 O 0.67315 0.76624 0.31116
 O166 O 0.66471 0.80193 0.26736
 O167 O 0.70951 0.69052 0.27290
 O168 O 0.75321 0.68161 0.23716
 O169 O 0.75204 0.69073 0.31242
 O170 O 0.78389 0.68028 0.27019
 O171 O 0.67325 0.72658 0.26896
 O172 O 0.66323 0.76871 0.23692
 O173 O 0.70936 0.76379 0.34735
 O174 O 0.74358 0.80046 0.35713
 O175 O 0.75226 0.80854 0.19121
 O176 O 0.71887 0.76733 0.18257
 O177 O 0.82949 0.76878 0.22985
 O178 O 0.83714 0.73516 0.27204
 O179 O 0.79101 0.84707 0.26847
 O180 O 0.74840 0.85632 0.30082
 Zr181 Zr 0.75087 0.82209 0.26799
 O182 O 0.72340 0.79613 0.29659
 Zr183 Zr 0.80463 0.77007 0.26989
 O184 O 0.77915 0.74143 0.29772
 Zr185 Zr 0.75265 0.76828 0.21614
 O186 O 0.72427 0.74061 0.24197
 Zr187 Zr 0.74970 0.76737 0.32366
 O188 O 0.77760 0.79665 0.29829
 Zr189 Zr 0.69724 0.76708 0.27031
 O190 O 0.72269 0.79503 0.24136
 Zr191 Zr 0.75058 0.71439 0.27146
 O192 O 0.77933 0.74003 0.24340
 O193 O 0.77955 0.79705 0.24093
 O194 O 0.72193 0.73895 0.29897
 C195 C 0.74976 0.83622 0.19907
 C196 C 0.81872 0.83881 0.26896
 C197 C 0.82152 0.76605 0.20222
 C198 C 0.75220 0.69924 0.33997
 C199 C 0.68183 0.76410 0.33871
 C200 C 0.68185 0.69905 0.27083
 H201 H 0.71097 0.80956 0.30919
 H202 H 0.71205 0.72810 0.22831
 H203 H 0.79234 0.80968 0.22782
 H204 H 0.79292 0.72934 0.31048
 H205 H 0.79757 0.78659 0.35043
 H206 H 0.83171 0.76094 0.32085
 H207 H 0.66983 0.75570 0.22019
 H208 H 0.70308 0.78173 0.18888
 H209 H 0.75351 0.81884 0.34964
 H210 H 0.76517 0.85292 0.31515
 H211 H 0.73509 0.68365 0.22431
 H212 H 0.76478 0.71716 0.19184
 H213 H 0.70000 0.84674 0.25415
 H214 H 0.66703 0.81494 0.28520
 H215 H 0.83108 0.71988 0.25709
 H216 H 0.80034 0.68641 0.28385
 O217 O 0.75570 0.16869 0.78676
 O218 O 0.72337 0.15848 0.74668
 O219 O 0.83120 0.21061 0.74732
 O220 O 0.84163 0.25034 0.71950
 O221 O 0.79055 0.24890 0.82640
 O222 O 0.74884 0.27752 0.83611
 O223 O 0.74911 0.28814 0.66839
 O224 O 0.78183 0.25060 0.65874
 O225 O 0.67250 0.25036 0.70704
 O226 O 0.66205 0.21635 0.74409
 O227 O 0.70851 0.32531 0.74488
 O228 O 0.74884 0.33715 0.77701
 O229 O 0.74653 0.32476 0.70389
 O230 O 0.78444 0.33319 0.74808
 O231 O 0.67288 0.28898 0.74918
 O232 O 0.66729 0.24135 0.78308
 O233 O 0.70773 0.24818 0.67009
 O234 O 0.75220 0.21212 0.66264
 O235 O 0.75049 0.20356 0.82377
 O236 O 0.71470 0.24640 0.83158
 O237 O 0.82756 0.24996 0.79119
 O238 O 0.83252 0.28793 0.74807
 O239 O 0.79720 0.17255 0.74432
 O240 O 0.75307 0.16353 0.71097
 Zr241 Zr 0.75464 0.19420 0.74717
 O242 O 0.72426 0.21929 0.72047
 Zr243 Zr 0.80470 0.24936 0.74928
 O244 O 0.77819 0.27544 0.71953
 Zr245 Zr 0.75108 0.24572 0.80101
 O246 O 0.72346 0.27469 0.77527
 Zr247 Zr 0.74947 0.24836 0.69340
 O248 O 0.78025 0.22206 0.71894
 Zr249 Zr 0.69733 0.24798 0.74684
 O250 O 0.72370 0.21855 0.77390
 Zr251 Zr 0.74902 0.30155 0.74562
 O252 O 0.77684 0.27668 0.77569
 O253 O 0.78078 0.21968 0.77618
 O254 O 0.72107 0.27626 0.71805
 C255 C 0.75289 0.17624 0.81437
 C256 C 0.82432 0.18274 0.74513
 C257 C 0.81824 0.24994 0.81861
 C258 C 0.74728 0.31567 0.67645
 C259 C 0.68035 0.24968 0.67939
 C260 C 0.68122 0.31665 0.74725
 H261 H 0.71165 0.20552 0.70848
 H262 H 0.71109 0.28694 0.78905
 H263 H 0.79416 0.20705 0.78888
 H264 H 0.79135 0.28786 0.70662
 H265 H 0.79990 0.23988 0.66633
 H266 H 0.83359 0.25651 0.69965
 H267 H 0.66742 0.25985 0.79537
 H268 H 0.70207 0.22865 0.82715
 H269 H 0.73339 0.20035 0.66389
 H270 H 0.76937 0.16923 0.69695
 H271 H 0.73766 0.33003 0.79484
 H272 H 0.75870 0.29594 0.82841
 H273 H 0.70663 0.16456 0.75999
 H274 H 0.67151 0.19669 0.73978
 H275 H 0.82849 0.29947 0.76662
 H276 H 0.79482 0.33347 0.72843
 O277 O 0.23456 0.80904 0.79604
 O278 O 0.26735 0.81728 0.75305
 O279 O 0.15609 0.77197 0.75323
 O280 O 0.14501 0.73189 0.72540
 O281 O 0.19432 0.73326 0.83374
 O282 O 0.23574 0.69786 0.84198
 O283 O 0.23386 0.68736 0.67884
 O284 O 0.19795 0.72782 0.67090
 O285 O 0.31106 0.73217 0.71213
 O286 O 0.32139 0.76430 0.75531
 O287 O 0.27694 0.65326 0.75776
 O288 O 0.23347 0.64474 0.79090
 O289 O 0.23818 0.65218 0.71596
 O290 O 0.20252 0.64335 0.75795
 O291 O 0.31232 0.68955 0.75145
 O292 O 0.32245 0.73213 0.78667
 O293 O 0.27448 0.72801 0.67655
 O294 O 0.23453 0.76087 0.66615
 O295 O 0.23796 0.77324 0.83269
 O296 O 0.26938 0.73114 0.84178
 O297 O 0.15739 0.73116 0.79816
 O298 O 0.15031 0.69477 0.75751
 O299 O 0.19212 0.80825 0.75508
 O300 O 0.23267 0.81714 0.72067
 Zr301 Zr 0.23305 0.78453 0.75546
 O302 O 0.26063 0.75856 0.72726
 Zr303 Zr 0.18070 0.73137 0.75702
 O304 O 0.20630 0.70285 0.72915
 Zr305 Zr 0.23469 0.73250 0.80917
 O306 O 0.26269 0.70431 0.78360
 Zr307 Zr 0.23441 0.72878 0.70159
 O308 O 0.20630 0.75770 0.72697
 Zr309 Zr 0.28821 0.73031 0.75348
 O310 O 0.26306 0.75892 0.78198
 Zr311 Zr 0.23601 0.67707 0.75589
 O312 O 0.20774 0.70297 0.78405
 O313 O 0.20594 0.75980 0.78410
 O314 O 0.26340 0.70128 0.72649
 C315 C 0.23687 0.80075 0.82377
 C316 C 0.16461 0.79961 0.75373
 C317 C 0.16654 0.73261 0.82557
 C318 C 0.23638 0.66004 0.68821
 C319 C 0.30209 0.73065 0.68467
 C320 C 0.30423 0.66199 0.75453
 H321 H 0.27257 0.77227 0.71448
 H322 H 0.27551 0.69226 0.79734
 H323 H 0.19335 0.77308 0.79673
 H324 H 0.19278 0.69015 0.71696
 H325 H 0.18388 0.74408 0.67682
 H326 H 0.15155 0.71995 0.70788
 H327 H 0.31978 0.71484 0.80049
 H328 H 0.28629 0.74282 0.83329
 H329 H 0.24475 0.77908 0.67358
 H330 H 0.21784 0.81024 0.70556
 H331 H 0.24897 0.64985 0.80603
 H332 H 0.21983 0.68335 0.83643
 H333 H 0.28284 0.81134 0.76802
 H334 H 0.31566 0.78007 0.74055
 H335 H 0.15734 0.68064 0.77335
 H336 H 0.18820 0.64687 0.74122
 O337 O 0.25035 0.34121 0.72413
 O338 O 0.21789 0.35020 0.76600
 O339 O 0.32883 0.30499 0.77123
 O340 O 0.33917 0.26545 0.80098
 O341 O 0.29576 0.26258 0.69024
 O342 O 0.25384 0.22931 0.68085
 O343 O 0.24889 0.22248 0.84517
 O344 O 0.28417 0.26256 0.85279
 O345 O 0.17305 0.25994 0.80652
 O346 O 0.16594 0.29903 0.76352
 O347 O 0.20840 0.18665 0.76678
 O348 O 0.25291 0.17644 0.73447
 O349 O 0.24664 0.18652 0.80901
 O350 O 0.28318 0.17586 0.76811
 O351 O 0.17280 0.22328 0.76238
 O352 O 0.16384 0.26618 0.73232
 O353 O 0.20829 0.26358 0.84356
 O354 O 0.24781 0.29637 0.85431
 O355 O 0.25451 0.30494 0.68841
 O356 O 0.22100 0.26373 0.67864
 O357 O 0.33066 0.26178 0.72782
 O358 O 0.33620 0.22783 0.76996
 O359 O 0.29286 0.34134 0.76605
 O360 O 0.25130 0.35031 0.79915
 Zr361 Zr 0.25234 0.31730 0.76509
 O362 O 0.22356 0.29193 0.79275
 Zr363 Zr 0.30518 0.26407 0.76758
 O364 O 0.27838 0.23620 0.79503
 Zr365 Zr 0.25414 0.26433 0.71285
 O366 O 0.22481 0.23683 0.73787
 Zr367 Zr 0.24916 0.26299 0.82042
 O368 O 0.27816 0.29118 0.79547
 Zr369 Zr 0.19752 0.26326 0.76593
 O370 O 0.22403 0.29112 0.73775
 Zr371 Zr 0.24977 0.20995 0.76798
 O372 O 0.27948 0.23509 0.74039
 O373 O 0.28133 0.29211 0.73848
 O374 O 0.22123 0.23499 0.79518
 C375 C 0.25214 0.33251 0.69668
 C376 C 0.32024 0.33267 0.76950
 C377 C 0.32306 0.26130 0.69992
 C378 C 0.24702 0.19500 0.83658
 C379 C 0.18108 0.26120 0.83433
 C380 C 0.18095 0.19560 0.76390
 H381 H 0.21077 0.30562 0.80463
 H382 H 0.21276 0.22469 0.72372
 H383 H 0.29466 0.30479 0.72596
 H384 H 0.29139 0.22371 0.80820
 H385 H 0.29854 0.27853 0.84697
 H386 H 0.33207 0.25353 0.81839
 H387 H 0.17104 0.25441 0.71494
 H388 H 0.20551 0.27870 0.68436
 H389 H 0.23656 0.31387 0.84625
 H390 H 0.26588 0.34379 0.81479
 H391 H 0.23739 0.18087 0.71906
 H392 H 0.26783 0.21363 0.68847
 H393 H 0.20172 0.34292 0.75255
 H394 H 0.16562 0.30928 0.78321
 H395 H 0.32930 0.21254 0.75539
 H396 H 0.29700 0.17974 0.78513
 O397 O 0.77096 0.66749 0.69574
 O398 O 0.80611 0.66182 0.73775
 O399 O 0.69267 0.70224 0.73658
 O400 O 0.68053 0.74206 0.76556
 O401 O 0.72787 0.74364 0.65606
 O402 O 0.76920 0.77782 0.64728
 O403 O 0.76934 0.79172 0.81025
 O404 O 0.73373 0.75202 0.81963
 O405 O 0.84639 0.75094 0.77738
 O406 O 0.85666 0.71532 0.73563
 O407 O 0.80854 0.82530 0.73234
 O408 O 0.76443 0.83098 0.69656
 O409 O 0.76610 0.82612 0.77230
 O410 O 0.73428 0.83370 0.72976
 O411 O 0.84542 0.78989 0.73670
 O412 O 0.85648 0.74693 0.70292
 O413 O 0.80973 0.75080 0.81291
 O414 O 0.76917 0.71758 0.82378
 O415 O 0.77246 0.70273 0.65837
 O416 O 0.80296 0.74500 0.64817
 O417 O 0.69175 0.74166 0.69221
 O418 O 0.68271 0.77868 0.73136
 O419 O 0.73027 0.66744 0.73972
 O420 O 0.77280 0.66052 0.77080
 Zr421 Zr 0.76990 0.69278 0.73579
 O422 O 0.79664 0.72029 0.76335
 Zr423 Zr 0.71528 0.74378 0.73315
 O424 O 0.73987 0.77388 0.76019
 Zr425 Zr 0.76855 0.74393 0.68084
 O426 O 0.79579 0.77343 0.70580
 Zr427 Zr 0.76938 0.74971 0.78832
 O428 O 0.74227 0.71924 0.76377
 Zr429 Zr 0.82266 0.74880 0.73630
 O430 O 0.79827 0.71899 0.70847
 Zr431 Zr 0.76822 0.80030 0.73300
 O432 O 0.74065 0.77287 0.70561
 O433 O 0.74140 0.71584 0.70657
 O434 O 0.79690 0.77764 0.76273
 C435 C 0.77239 0.67541 0.66789
 C436 C 0.70237 0.67502 0.73940
 C437 C 0.70029 0.74229 0.66465
 C438 C 0.76727 0.81889 0.80025
 C439 C 0.83743 0.75120 0.80483
 C440 C 0.83626 0.81719 0.73462
 H441 H 0.80930 0.70736 0.77641
 H442 H 0.80804 0.78567 0.69187
 H443 H 0.72903 0.70201 0.69435
 H444 H 0.72587 0.78636 0.77208
 H445 H 0.71907 0.73631 0.81387
 H446 H 0.68554 0.75657 0.78160
 H447 H 0.85257 0.76329 0.68823
 H448 H 0.82008 0.73347 0.65673
 H449 H 0.78375 0.70153 0.81879
 H450 H 0.75973 0.66792 0.78719
 H451 H 0.78227 0.82833 0.68357
 H452 H 0.75383 0.79291 0.65298
 H453 H 0.82079 0.66830 0.72235
 H454 H 0.85274 0.70110 0.75234
 H455 H 0.68867 0.79250 0.71490
 H456 H 0.71749 0.82733 0.74284
 O457 O 0.25211 0.67522 0.29405
 O458 O 0.21997 0.66643 0.25325
 O459 O 0.32885 0.71613 0.25625
 O460 O 0.34010 0.75576 0.22842
 O461 O 0.28839 0.75438 0.33520
 O462 O 0.24679 0.78305 0.34534
 O463 O 0.24702 0.79694 0.17776
 O464 O 0.28109 0.75950 0.16794
 O465 O 0.17100 0.75392 0.21505
 O466 O 0.16016 0.72471 0.25588
 O467 O 0.20870 0.83337 0.25651
 O468 O 0.24885 0.84421 0.28675
 O469 O 0.24805 0.83301 0.21391
 O470 O 0.28492 0.83923 0.25934
 O471 O 0.17232 0.79781 0.25212
 O472 O 0.16520 0.75344 0.29122
 O473 O 0.20634 0.75842 0.17845
 O474 O 0.24985 0.72127 0.17010
 O475 O 0.24750 0.70962 0.33158
 O476 O 0.21208 0.75294 0.33938
 O477 O 0.32567 0.75523 0.30024
 O478 O 0.33194 0.79328 0.25740
 O479 O 0.29415 0.67874 0.25268
 O480 O 0.25093 0.67138 0.21807
 Zr481 Zr 0.25209 0.70135 0.25486
 O482 O 0.22240 0.72735 0.22833
 Zr483 Zr 0.30311 0.75545 0.25814
 O484 O 0.27727 0.78258 0.22869
 Zr485 Zr 0.24901 0.75209 0.30949
 O486 O 0.22216 0.78190 0.28394
 Zr487 Zr 0.24804 0.75665 0.20191
 O488 O 0.27824 0.72926 0.22718
 Zr489 Zr 0.19575 0.75610 0.25486
 O490 O 0.22142 0.72587 0.28170
 Zr491 Zr 0.24862 0.80879 0.25520
 O492 O 0.27570 0.78288 0.28496
 O493 O 0.27842 0.72591 0.28447
 O494 O 0.22016 0.78466 0.22691
 C495 C 0.24937 0.68240 0.32177
 C496 C 0.32140 0.68842 0.25403
 C497 C 0.31615 0.75516 0.32759
 C498 C 0.24722 0.82437 0.18631
 C499 C 0.17890 0.75620 0.18750
 C500 C 0.18122 0.82533 0.25399
 H501 H 0.20983 0.71370 0.21614
 H502 H 0.20981 0.79432 0.29759
 H503 H 0.29141 0.71291 0.29721
 H504 H 0.29073 0.79497 0.21605
 H505 H 0.29833 0.74710 0.17488
 H506 H 0.33227 0.76250 0.20867
 H507 H 0.16372 0.77360 0.30046
 H508 H 0.19903 0.73573 0.33412
 H509 H 0.23085 0.70982 0.17121
 H510 H 0.26714 0.67761 0.20417
 H511 H 0.23946 0.83631 0.30530
 H512 H 0.25755 0.80129 0.33849
 H513 H 0.20323 0.67265 0.26649
 H514 H 0.16819 0.70579 0.24743
 H515 H 0.32836 0.80459 0.27618
 H516 H 0.29575 0.83970 0.23994
 O517 O 0.72605 0.31408 0.28515
 O518 O 0.75985 0.32373 0.24328
 O519 O 0.64975 0.27518 0.24294
 O520 O 0.64108 0.23613 0.21186
 O521 O 0.68844 0.23330 0.32136
 O522 O 0.73233 0.20232 0.32973
 O523 O 0.72979 0.19441 0.16601
 O524 O 0.69441 0.23354 0.15784
 O525 O 0.80650 0.23978 0.20084
 O526 O 0.81404 0.27409 0.24493
 O527 O 0.77489 0.16053 0.24227
 O528 O 0.73213 0.15020 0.27772
 O529 O 0.73471 0.15868 0.20254
 O530 O 0.70117 0.14754 0.24453
 O531 O 0.80918 0.19838 0.24300
 O532 O 0.81801 0.24087 0.27461
 O533 O 0.77023 0.23479 0.16501
 O534 O 0.72823 0.26915 0.15572
 O535 O 0.72968 0.27770 0.32125
 O536 O 0.76336 0.23715 0.33026
 O537 O 0.65190 0.23414 0.28535
 O538 O 0.64610 0.19815 0.24478
 O539 O 0.68480 0.31236 0.24123
 O540 O 0.72636 0.32350 0.21033
 Zr541 Zr 0.72638 0.29004 0.24428
 O542 O 0.75506 0.26549 0.21586
 Zr543 Zr 0.67570 0.23540 0.24468
 O544 O 0.70245 0.20815 0.21662
 Zr545 Zr 0.72903 0.23712 0.29725
 O546 O 0.75832 0.21051 0.27142
 Zr547 Zr 0.72991 0.23534 0.18959
 O548 O 0.70069 0.26286 0.21522
 Zr549 Zr 0.78327 0.23795 0.24210
 O550 O 0.75678 0.26496 0.27085
 Zr551 Zr 0.73299 0.18284 0.24287
 O552 O 0.70348 0.20720 0.27119
 O553 O 0.69972 0.26412 0.27246
 O554 O 0.75979 0.20852 0.21425
 C555 C 0.72822 0.30534 0.31274
 C556 C 0.65750 0.30299 0.24120
 C557 C 0.66077 0.23283 0.31282
 C558 C 0.73246 0.16697 0.17496
 C559 C 0.79773 0.23777 0.17333
 C560 C 0.80199 0.17044 0.24295
 H561 H 0.76675 0.27967 0.20339
 H562 H 0.77144 0.19872 0.28510
 H563 H 0.68643 0.27658 0.28521
 H564 H 0.68933 0.19522 0.20425
 H565 H 0.67886 0.24803 0.16454
 H566 H 0.64726 0.22270 0.19531
 H567 H 0.81291 0.22702 0.29129
 H568 H 0.77903 0.25115 0.32296
 H569 H 0.74401 0.28416 0.15998
 H570 H 0.71493 0.31508 0.19319
 H571 H 0.74944 0.15398 0.29121
 H572 H 0.71879 0.18604 0.32297
 H573 H 0.77522 0.31785 0.25839
 H574 H 0.80971 0.28814 0.22812
 H575 H 0.65364 0.18384 0.26023
 H576 H 0.68531 0.15205 0.22951
 C577 C 0.26084 0.09221 0.07020
 C578 C 0.28228 0.06874 0.07217
 C579 C 0.28222 0.04559 0.05089
 C580 C 0.25997 0.04416 0.02824
 C581 C 0.23825 0.06730 0.02700
 C582 C 0.23889 0.09112 0.04733
 C583 C 0.26166 0.11647 0.09344
 C584 C 0.24320 0.14226 0.09189
 C585 C 0.24438 0.16393 0.11442
 C586 C 0.26359 0.16021 0.13923
 C587 C 0.28239 0.13490 0.14087
 C588 C 0.28209 0.11343 0.11781
 C589 C 0.30297 0.06782 0.09601
 C590 C 0.30243 0.08931 0.11871
 H591 H 0.31929 0.04968 0.09762
 H592 H 0.31839 0.08719 0.13709
 H593 H 0.29958 0.02842 0.05222
 H594 H 0.21969 0.06641 0.01121
 H595 H 0.22986 0.18350 0.11268
 H596 H 0.29778 0.13236 0.15970
 H597 H 0.22125 0.10776 0.04548
 H598 H 0.22798 0.14631 0.07335
 C599 C 0.76215 0.58650 0.57386
 C600 C 0.73895 0.56507 0.57734
 C601 C 0.73404 0.54348 0.55512
 C602 C 0.75291 0.54156 0.52997
 C603 C 0.77628 0.56238 0.52669
 C604 C 0.78068 0.58486 0.54818
 C605 C 0.76638 0.60935 0.59818
 C606 C 0.78671 0.63351 0.59572
 C607 C 0.78916 0.65463 0.61875
 C608 C 0.77202 0.65172 0.64498
 C609 C 0.75206 0.62763 0.64788
 C610 C 0.74853 0.60697 0.62444
 C611 C 0.72140 0.56456 0.60342
 C612 C 0.72649 0.58469 0.62674
 H613 H 0.70382 0.54793 0.60613
 H614 H 0.71259 0.58311 0.64666
 H615 H 0.71603 0.52729 0.55788
 H616 H 0.79160 0.56082 0.50787
 H617 H 0.80437 0.67344 0.61600
 H618 H 0.73811 0.62591 0.66779
 H619 H 0.79922 0.60008 0.54477
 H620 H 0.80026 0.63692 0.57593
 C621 C 0.74626 0.92062 0.09917
 C622 C 0.76618 0.91487 0.07514
 C623 C 0.76577 0.93328 0.04946
 C624 C 0.74488 0.95706 0.04624
 C625 C 0.72452 0.96204 0.06996
 C626 C 0.72539 0.94438 0.09610
 C627 C 0.74750 0.90026 0.12620
 C628 C 0.73037 0.90521 0.15240
 C629 C 0.73163 0.88482 0.17649
 C630 C 0.74957 0.85890 0.17476
 C631 C 0.76737 0.85429 0.14924
 C632 C 0.76690 0.87493 0.12532
 C633 C 0.78593 0.89027 0.07641
 C634 C 0.78586 0.87039 0.10069
 H635 H 0.80113 0.88581 0.05793
 H636 H 0.80102 0.85123 0.10024
 H637 H 0.78224 0.92911 0.03203
 H638 H 0.70679 0.97866 0.06795
 H639 H 0.71797 0.88891 0.19620
 H640 H 0.78190 0.83464 0.14815
 H641 H 0.70889 0.94905 0.11320
 H642 H 0.71598 0.92466 0.15472
 C643 C 0.25123 0.42026 0.59995
 C644 C 0.27338 0.41685 0.57742
 C645 C 0.27375 0.43636 0.55257
 C646 C 0.25137 0.45843 0.54876
 C647 C 0.22886 0.46119 0.57062
 C648 C 0.22897 0.44266 0.59611
 C649 C 0.25164 0.39884 0.62610
 C650 C 0.23253 0.40193 0.65117
 C651 C 0.23313 0.38068 0.67446
 C652 C 0.25233 0.35568 0.67295
 C653 C 0.27202 0.35284 0.64861
 C654 C 0.27231 0.37453 0.62561
 C655 C 0.29432 0.39327 0.57916
 C656 C 0.29335 0.37215 0.60238
 H657 H 0.31115 0.39055 0.56179
 H658 H 0.30948 0.35381 0.60229
 H659 H 0.29107 0.43386 0.53564
 H660 H 0.21078 0.47735 0.56771
 H661 H 0.21806 0.38339 0.69336
 H662 H 0.28749 0.33394 0.64786
 H663 H 0.21092 0.44554 0.61201
 H664 H 0.21716 0.42065 0.65328
 C665 C 0.74689 0.07218 0.89303
 C666 C 0.72071 0.06939 0.91081
 C667 C 0.71790 0.04528 0.93100
 C668 C 0.74161 0.02475 0.93545
 C669 C 0.76717 0.02687 0.91724
 C670 C 0.76969 0.05010 0.89600
 C671 C 0.74964 0.09933 0.87298
 C672 C 0.77393 0.10359 0.85315
 C673 C 0.77527 0.12915 0.83481
 C674 C 0.75291 0.15140 0.83630
 C675 C 0.72885 0.14773 0.85614
 C676 C 0.72670 0.12161 0.87396
 C677 C 0.69825 0.09157 0.90975
 C678 C 0.70140 0.11733 0.89208
 H679 H 0.67828 0.08941 0.92351
 H680 H 0.68365 0.13411 0.89253
 H681 H 0.69808 0.04375 0.94510
 H682 H 0.78594 0.01159 0.92061
 H683 H 0.79375 0.13148 0.81914
 H684 H 0.71110 0.16454 0.85661
 H685 H 0.79026 0.05121 0.88325
 H686 H 0.79171 0.08718 0.85096
 C687 C 0.24181 0.57721 0.39834
 C688 C 0.26626 0.55666 0.39795
 C689 C 0.26693 0.53219 0.41822
 C690 C 0.24301 0.52766 0.43819
 C691 C 0.21734 0.54601 0.43585
 C692 C 0.21670 0.57054 0.41626
 C693 C 0.24378 0.60533 0.37981
 C694 C 0.22348 0.62962 0.38296
 C695 C 0.22618 0.65540 0.36505
 C696 C 0.24881 0.65725 0.34337
 C697 C 0.26974 0.63367 0.34073
 C698 C 0.26791 0.60817 0.35939
 C699 C 0.29003 0.56119 0.37783
 C700 C 0.29036 0.58593 0.35830
 H701 H 0.30855 0.54527 0.37704
 H702 H 0.30902 0.58823 0.34285
 H703 H 0.28668 0.51785 0.41971
 H704 H 0.19843 0.54248 0.45077
 H705 H 0.20995 0.67348 0.36740
 H706 H 0.28765 0.63540 0.32430
 H707 H 0.19672 0.58441 0.41598
 H708 H 0.20557 0.62921 0.39928
 C709 C 0.23363 0.89129 0.91731
 C710 C 0.25404 0.88818 0.94159
 C711 C 0.25664 0.91131 0.96306
 C712 C 0.23857 0.93746 0.96100
 C713 C 0.21595 0.93826 0.93864
 C714 C 0.21360 0.91576 0.91713
 C715 C 0.23421 0.86840 0.89272
 C716 C 0.21874 0.87250 0.86527
 C717 C 0.22039 0.85085 0.84271
 C718 C 0.23700 0.82433 0.84710
 C719 C 0.25292 0.82021 0.87419
 C720 C 0.25237 0.84247 0.89660
 C721 C 0.27204 0.86227 0.94386
 C722 C 0.27057 0.83951 0.92230
 H723 H 0.28736 0.85946 0.96268
 H724 H 0.28472 0.81979 0.92524
 H725 H 0.27435 0.90970 0.97976
 H726 H 0.20003 0.95675 0.93740
 H727 H 0.20815 0.85463 0.82193
 H728 H 0.26637 0.80004 0.87747
 H729 H 0.19607 0.91803 0.90041
 H730 H 0.20573 0.89253 0.86056
 C731 C 0.72776 0.39398 0.40808
 C732 C 0.74924 0.39017 0.43139
 C733 C 0.75245 0.41234 0.45361
 C734 C 0.73369 0.43779 0.45368
 C735 C 0.71090 0.44024 0.43186
 C736 C 0.70796 0.41873 0.40931
 C737 C 0.72726 0.37158 0.38299
 C738 C 0.71005 0.37577 0.35656
 C739 C 0.71085 0.35453 0.33351
 C740 C 0.72834 0.32839 0.33650
 C741 C 0.74575 0.32411 0.36256
 C742 C 0.74596 0.34584 0.38538
 C743 C 0.76759 0.36448 0.43214
 C744 C 0.76543 0.34241 0.41003
 H745 H 0.78373 0.36128 0.45021
 H746 H 0.77994 0.32281 0.41177
 H747 H 0.77047 0.41039 0.46989
 H748 H 0.69587 0.45949 0.43171
 H749 H 0.69733 0.35827 0.31351
 H750 H 0.75981 0.30420 0.36469
 H751 H 0.69027 0.42201 0.39294
 H752 H 0.69627 0.39552 0.35305
 C753 C 0.09334 0.25411 0.08133
 C754 C 0.09516 0.23449 0.05648
 C755 C 0.07055 0.23166 0.03674
 C756 C 0.04424 0.24909 0.04057
 C757 C 0.04371 0.26995 0.06435
 C758 C 0.06770 0.27240 0.08436
 C759 C 0.11884 0.25459 0.10338
 C760 C 0.11721 0.27006 0.13092
 C761 C 0.14116 0.26913 0.15120
 C762 C 0.16750 0.25324 0.14437
 C763 C 0.16948 0.23777 0.11702
 C764 C 0.14503 0.23765 0.09689
 C765 C 0.12148 0.21776 0.05159
 C766 C 0.14615 0.21985 0.07098
 H767 H 0.12313 0.20300 0.03233
 H768 H 0.16608 0.20664 0.06610
 H769 H 0.07158 0.21475 0.01933
 H770 H 0.02479 0.28506 0.06736
 H771 H 0.13915 0.28104 0.17231
 H772 H 0.18957 0.22487 0.11199
 H773 H 0.06579 0.28897 0.10190
 H774 H 0.09741 0.28241 0.13757
 C775 C 0.60031 0.73766 0.58119
 C776 C 0.59793 0.76103 0.55953
 C777 C 0.57195 0.76348 0.54144
 C778 C 0.54869 0.74234 0.54413
 C779 C 0.55195 0.71840 0.56452
 C780 C 0.57733 0.71600 0.58278
 C781 C 0.62699 0.73721 0.60185
 C782 C 0.62933 0.71715 0.62639
 C783 C 0.65359 0.71871 0.64615
 C784 C 0.67644 0.73984 0.64179
 C785 C 0.67495 0.75947 0.61703
 C786 C 0.64994 0.75882 0.59747
 C787 C 0.62138 0.78178 0.55628
 C788 C 0.64706 0.78037 0.57448
 H789 H 0.61986 0.79943 0.53941
 H790 H 0.66452 0.79701 0.57112
 H791 H 0.56961 0.78203 0.52566
 H792 H 0.53453 0.70152 0.56650
 H793 H 0.65441 0.70343 0.66520
 H794 H 0.69238 0.77621 0.61396
 H795 H 0.57841 0.69702 0.59795
 H796 H 0.61228 0.70069 0.63135
 C797 C 0.07393 0.75637 0.91307
 C798 C 0.04800 0.73806 0.91296
 C799 C 0.02600 0.74174 0.93534
 C800 C 0.02894 0.76444 0.95721
 C801 C 0.05341 0.78437 0.95493
 C802 C 0.07555 0.78040 0.93334
 C803 C 0.09856 0.74961 0.89141
 C804 C 0.12717 0.76292 0.89361
 C805 C 0.14945 0.75626 0.87277
 C806 C 0.14367 0.73650 0.84904
 C807 C 0.11556 0.72232 0.84710
 C808 C 0.09329 0.72806 0.86872
 C809 C 0.04444 0.71618 0.89062
 C810 C 0.06620 0.71196 0.86837
 H811 H 0.02436 0.70243 0.89007
 H812 H 0.06220 0.69517 0.85124
 H813 H 0.00755 0.72592 0.93653
 H814 H 0.05568 0.80310 0.97028
 H815 H 0.17103 0.76738 0.87467
 H816 H 0.11127 0.70655 0.82907
 H817 H 0.09377 0.79638 0.93293
 H818 H 0.13289 0.77827 0.91145
 C819 C 0.56875 0.22927 0.40435
 C820 C 0.54686 0.25249 0.40376
 C821 C 0.52611 0.25509 0.42741
 C822 C 0.52609 0.23394 0.45096
 C823 C 0.54610 0.20948 0.44992
 C824 C 0.56724 0.20716 0.42703
 C825 C 0.59272 0.22927 0.38085
 C826 C 0.61836 0.21054 0.38263
 C827 C 0.64061 0.21198 0.36063
 C828 C 0.63746 0.23157 0.33610
 C829 C 0.61218 0.25046 0.33413
 C830 C 0.59030 0.25013 0.35681
 C831 C 0.54604 0.27297 0.37970
 C832 C 0.56680 0.27126 0.35627
 H833 H 0.52896 0.29044 0.37887
 H834 H 0.56509 0.28744 0.33800
 H835 H 0.51061 0.27397 0.42793
 H836 H 0.54597 0.19254 0.46754
 H837 H 0.66019 0.19749 0.36257
 H838 H 0.61019 0.26623 0.31552
 H839 H 0.58228 0.18805 0.42759
 H840 H 0.62200 0.19520 0.40119
 C841 C 0.91691 0.76168 0.11344
 C842 C 0.91426 0.73996 0.09049
 C843 C 0.93585 0.73850 0.06763
 C844 C 0.95907 0.75984 0.06573
 C845 C 0.96150 0.78158 0.08837
 C846 C 0.94099 0.78226 0.11217
 C847 C 0.89299 0.76278 0.13714
 C848 C 0.89505 0.78130 0.16263
 C849 C 0.87189 0.78196 0.18372
 C850 C 0.84580 0.76480 0.17968
 C851 C 0.84367 0.74587 0.15466
 C852 C 0.86739 0.74412 0.13388
 C853 C 0.88923 0.72089 0.08950
 C854 C 0.86595 0.72344 0.11028
 H855 H 0.88710 0.70441 0.07173
 H856 H 0.84666 0.70877 0.10801
 H857 H 0.93368 0.72158 0.05027
 H858 H 0.97853 0.79889 0.08707
 H859 H 0.87426 0.79623 0.20316
 H860 H 0.82393 0.73187 0.15188
 H861 H 0.94354 0.79991 0.12853
 H862 H 0.91452 0.79508 0.16690
 C863 C 0.41740 0.25517 0.60995
 C864 C 0.41476 0.27506 0.58512
 C865 C 0.43565 0.27376 0.56159
 C866 C 0.45831 0.25162 0.56114
 C867 C 0.46087 0.23181 0.58571
 C868 C 0.44095 0.23376 0.60999
 C869 C 0.39400 0.25684 0.63423
 C870 C 0.39568 0.23986 0.66107
 C871 C 0.37279 0.24165 0.68253
 C872 C 0.34744 0.25988 0.67748
 C873 C 0.34578 0.27728 0.65116
 C874 C 0.36911 0.27645 0.62993
 C875 C 0.39046 0.29514 0.58311
 C876 C 0.36781 0.29537 0.60469
 H877 H 0.38837 0.31026 0.56400
 H878 H 0.34903 0.31072 0.60162
 H879 H 0.43342 0.28923 0.54276
 H880 H 0.47752 0.21397 0.58566
 H881 H 0.37464 0.22831 0.70292
 H882 H 0.32658 0.29200 0.64753
 H883 H 0.44358 0.21753 0.62795
 H884 H 0.41456 0.22530 0.66598
 C885 C 0.89818 0.23511 0.92016
 C886 C 0.89423 0.25417 0.94521
 C887 C 0.91486 0.25299 0.96932
 C888 C 0.93904 0.23234 0.96901
 C889 C 0.93988 0.21084 0.94580
 C890 C 0.91997 0.21227 0.92170
 C891 C 0.87890 0.23992 0.89300
 C892 C 0.88518 0.22634 0.86512
 C893 C 0.86630 0.23111 0.84044
 C894 C 0.84054 0.24905 0.84313
 C895 C 0.83480 0.26378 0.87042
 C896 C 0.85435 0.26006 0.89506
 C897 C 0.87013 0.27461 0.94556
 C898 C 0.84998 0.27674 0.92140
 H899 H 0.86659 0.28892 0.96491
 H900 H 0.83136 0.29247 0.92294
 H901 H 0.91335 0.26985 0.98674
 H902 H 0.95690 0.19330 0.94571
 H903 H 0.87120 0.21979 0.81953
 H904 H 0.81520 0.27825 0.87236
 H905 H 0.92224 0.19559 0.90428
 H906 H 0.90467 0.21217 0.86192
 C907 C 0.39551 0.74141 0.42978
 C908 C 0.39308 0.76242 0.45347
 C909 C 0.41409 0.76177 0.47726
 C910 C 0.43662 0.73958 0.47801
 C911 C 0.43620 0.71653 0.45657
 C912 C 0.41601 0.71743 0.43264
 C913 C 0.37627 0.74562 0.40249
 C914 C 0.38168 0.73020 0.37541
 C915 C 0.36303 0.73473 0.35049
 C916 C 0.33827 0.75414 0.35225
 C917 C 0.33337 0.77054 0.37873
 C918 C 0.35287 0.76719 0.40347
 C919 C 0.37013 0.78414 0.45273
 C920 C 0.34974 0.78573 0.42873
 H921 H 0.36771 0.79991 0.47108
 H922 H 0.33203 0.80255 0.42940
 H923 H 0.41401 0.77937 0.49405
 H924 H 0.45306 0.69886 0.45723
 H925 H 0.36734 0.72222 0.33014
 H926 H 0.31459 0.78614 0.37987
 H927 H 0.41724 0.69965 0.41624
 H928 H 0.40038 0.71486 0.37297
 C929 C 0.10866 0.08528 0.24093
 C930 C 0.08681 0.08710 0.26390
 C931 C 0.06371 0.06575 0.26551
 C932 C 0.06063 0.04346 0.24342
 C933 C 0.08221 0.04173 0.22054
 C934 C 0.10615 0.06209 0.21948
 C935 C 0.13256 0.10907 0.23967
 C936 C 0.15679 0.10809 0.21934
 C937 C 0.17803 0.13119 0.21863
 C938 C 0.17534 0.15607 0.23772
 C939 C 0.15160 0.15714 0.25831
 C940 C 0.13069 0.13354 0.25992
 C941 C 0.08719 0.11104 0.28428
 C942 C 0.10825 0.13408 0.28193
 H943 H 0.07032 0.11251 0.30176
 H944 H 0.10707 0.15253 0.29774
 H945 H 0.04713 0.06734 0.28327
 H946 H 0.07999 0.02527 0.20281
 H947 H 0.19641 0.12985 0.20273
 H948 H 0.14988 0.17602 0.27359
 H949 H 0.12171 0.06007 0.20103
 H950 H 0.15989 0.08958 0.20405
 C951 C 0.61359 0.57979 0.74837
 C952 C 0.58873 0.58162 0.72848
 C953 C 0.56547 0.56049 0.73041
 C954 C 0.56531 0.53842 0.75315
 C955 C 0.58996 0.53656 0.77288
 C956 C 0.61399 0.55671 0.77033
 C957 C 0.63748 0.60352 0.74611
 C958 C 0.66429 0.60266 0.76313
 C959 C 0.68540 0.62580 0.76072
 C960 C 0.68004 0.65063 0.74182
 C961 C 0.65370 0.65151 0.72446
 C962 C 0.63283 0.62789 0.72590
 C963 C 0.58638 0.60540 0.70779
 C964 C 0.60762 0.62836 0.70696
 H965 H 0.56725 0.60684 0.69266
 H966 H 0.60432 0.64672 0.69112
 H967 H 0.54655 0.56214 0.71500
 H968 H 0.59011 0.52034 0.79113
 H969 H 0.70583 0.62454 0.77405
 H970 H 0.64981 0.67028 0.70927
 H971 H 0.63199 0.55468 0.78654
 H972 H 0.66947 0.58421 0.77816
 C973 C 0.92825 0.10400 0.73658
 C974 C 0.92806 0.08273 0.71311
 C975 C 0.95167 0.06200 0.71050
 C976 C 0.97491 0.06024 0.73215
 C977 C 0.97571 0.08233 0.75470
 C978 C 0.95286 0.10403 0.75675
 C979 C 0.90152 0.12452 0.73960
 C980 C 0.89992 0.14739 0.76133
 C981 C 0.87448 0.16576 0.76327
 C982 C 0.84977 0.16148 0.74411
 C983 C 0.85089 0.13871 0.72254
 C984 C 0.87678 0.12067 0.71973
 C985 C 0.90355 0.08104 0.69329
 C986 C 0.87827 0.09928 0.69682
 H987 H 0.90348 0.06466 0.67532
 H988 H 0.85961 0.09659 0.68132
 H989 H 0.95113 0.04604 0.69212
 H990 H 0.99243 0.08151 0.77241
 H991 H 0.87411 0.18352 0.77982
 H992 H 0.83209 0.13586 0.70721
 H993 H 0.95410 0.11957 0.77526
 H994 H 0.91819 0.15179 0.77668
 C995 C 0.42665 0.61144 0.25165
 C996 C 0.43167 0.59498 0.22498
 C997 C 0.45559 0.57444 0.22348
 C998 C 0.47402 0.56893 0.24859
 C999 C 0.47027 0.58636 0.27442
 C1000 C 0.44701 0.60764 0.27590
 C1001 C 0.39909 0.63101 0.25324
 C1002 C 0.39173 0.64809 0.27881
 C1003 C 0.36579 0.66584 0.27916
 C1004 C 0.34633 0.66670 0.25436
 C1005 C 0.35297 0.64955 0.22896
 C1006 C 0.37933 0.63197 0.22810
 C1007 C 0.41182 0.59768 0.20058
 C1008 C 0.38615 0.61567 0.20214
 H1009 H 0.41578 0.58507 0.18016
 H1010 H 0.37126 0.61662 0.18280
 H1011 H 0.45842 0.56077 0.20353
 H1012 H 0.48406 0.58213 0.29414
 H1013 H 0.36093 0.67921 0.29885
 H1014 H 0.33816 0.65074 0.20955
 H1015 H 0.44452 0.61976 0.29669
 H1016 H 0.40583 0.64836 0.29859
 C1017 C 0.08007 0.89897 0.75184
 C1018 C 0.06037 0.90120 0.72685
 C1019 C 0.04219 0.92695 0.72302
 C1020 C 0.04269 0.95018 0.74435
 C1021 C 0.06097 0.94695 0.76993
 C1022 C 0.07942 0.92180 0.77368
 C1023 C 0.10103 0.87256 0.75381
 C1024 C 0.12405 0.87049 0.77558
 C1025 C 0.14415 0.84639 0.77555
 C1026 C 0.14158 0.82345 0.75426
 C1027 C 0.11841 0.82475 0.73283
 C1028 C 0.09861 0.84959 0.73196
 C1029 C 0.05909 0.87780 0.70587
 C1030 C 0.07739 0.85228 0.70870
 H1031 H 0.04369 0.87921 0.68697
 H1032 H 0.07555 0.83483 0.69186
 H1033 H 0.02804 0.92916 0.70322
 H1034 H 0.06114 0.96417 0.78710
 H1035 H 0.16199 0.84570 0.79219
 H1036 H 0.11678 0.80726 0.71599
 H1037 H 0.09293 0.92072 0.79384
 H1038 H 0.12755 0.88763 0.79228
 C1039 C 0.57185 0.40144 0.24369
 C1040 C 0.57856 0.42667 0.22535
 C1041 C 0.56076 0.45266 0.22681
 C1042 C 0.53679 0.45464 0.24709
 C1043 C 0.53032 0.42991 0.26565
 C1044 C 0.54743 0.40347 0.26381
 C1045 C 0.59203 0.37434 0.24180
 C1046 C 0.58668 0.34734 0.25775
 C1047 C 0.60731 0.32349 0.25655
 C1048 C 0.63379 0.32622 0.23975
 C1049 C 0.63863 0.35239 0.22280
 C1050 C 0.61788 0.37617 0.22335
 C1051 C 0.60361 0.42632 0.20637
 C1052 C 0.62313 0.40181 0.20577
 H1053 H 0.60871 0.44569 0.19240
 H1054 H 0.64271 0.40299 0.19136
 H1055 H 0.56594 0.47182 0.21254
 H1056 H 0.51228 0.43121 0.28191
 H1057 H 0.60313 0.30333 0.26968
 H1058 H 0.65882 0.35434 0.20931
 H1059 H 0.54172 0.38523 0.27881
 H1060 H 0.56691 0.34434 0.27143
 C1061 C 0.90495 0.93248 0.24451
 C1062 C 0.90435 0.95873 0.26223
 C1063 C 0.92724 0.98033 0.25906
 C1064 C 0.95007 0.97660 0.23734
 C1065 C 0.94767 0.95225 0.21729
 C1066 C 0.92566 0.93046 0.22089
 C1067 C 0.88346 0.90781 0.25152
 C1068 C 0.88709 0.87864 0.23997
 C1069 C 0.86665 0.85615 0.24707
 C1070 C 0.84173 0.86225 0.26521
 C1071 C 0.83838 0.89102 0.27778
 C1072 C 0.85985 0.91352 0.27195
 C1073 C 0.88113 0.96283 0.28314
 C1074 C 0.85865 0.94115 0.28705
 H1075 H 0.88009 0.98322 0.29637
 H1076 H 0.84085 0.94554 0.30304
 H1077 H 0.92825 0.99868 0.27495
 H1078 H 0.96347 0.94958 0.19898
 H1079 H 0.86985 0.83404 0.23758
 H1080 H 0.81954 0.89560 0.29251
 H1081 H 0.92532 0.91208 0.20511
 H1082 H 0.90588 0.87265 0.22586
 C1083 C 0.40962 0.42682 0.77538
 C1084 C 0.40908 0.44888 0.75228
 C1085 C 0.43224 0.47027 0.75038
 C1086 C 0.45531 0.47063 0.77200
 C1087 C 0.45408 0.45051 0.79637
 C1088 C 0.43163 0.42882 0.79807
 C1089 C 0.38684 0.40217 0.77459
 C1090 C 0.38873 0.37648 0.79329
 C1091 C 0.36733 0.35367 0.79123
 C1092 C 0.34331 0.35625 0.77097
 C1093 C 0.34134 0.38153 0.75201
 C1094 C 0.36341 0.40402 0.75305
 C1095 C 0.38565 0.44913 0.73113
 C1096 C 0.36282 0.42765 0.73204
 H1097 H 0.38484 0.46630 0.71374
 H1098 H 0.34502 0.42894 0.71535
 H1099 H 0.43291 0.48587 0.73158
 H1100 H 0.47131 0.45090 0.81367
 H1101 H 0.36929 0.33417 0.80585
 H1102 H 0.32314 0.38316 0.73576
 H1103 H 0.43206 0.41366 0.81711
 H1104 H 0.40688 0.37329 0.80917
 C1105 C 0.09361 0.24813 0.92959
 C1106 C 0.07573 0.22187 0.92911
 C1107 C 0.05363 0.21740 0.95109
 C1108 C 0.04754 0.23961 0.97260
 C1109 C 0.06525 0.26565 0.97307
 C1110 C 0.08829 0.26972 0.95213
 C1111 C 0.11637 0.25242 0.90514
 C1112 C 0.13702 0.27641 0.90489
 C1113 C 0.15770 0.27944 0.88152
 C1114 C 0.15780 0.25911 0.85757
 C1115 C 0.13749 0.23513 0.85749
 C1116 C 0.11733 0.23122 0.88144
 C1117 C 0.07883 0.20098 0.90583
 C1118 C 0.09875 0.20586 0.88218
 H1119 H 0.06497 0.18096 0.90539
 H1120 H 0.09981 0.18937 0.86433
 H1121 H 0.03986 0.19731 0.95044
 H1122 H 0.06050 0.28345 0.98893
 H1123 H 0.17374 0.29773 0.88212
 H1124 H 0.13828 0.21884 0.83942
 H1125 H 0.10071 0.29049 0.95316
 H1126 H 0.13800 0.29267 0.92278
 C1127 C 0.59286 0.75437 0.43303
 C1128 C 0.56846 0.77484 0.43185
 C1129 C 0.54582 0.77343 0.45359
 C1130 C 0.54605 0.75086 0.47577
 C1131 C 0.56998 0.73029 0.47679
 C1132 C 0.59336 0.73221 0.45592
 C1133 C 0.61636 0.75646 0.40904
 C1134 C 0.64275 0.73886 0.40946
 C1135 C 0.66382 0.74149 0.38646
 C1136 C 0.65893 0.76128 0.36230
 C1137 C 0.63285 0.77899 0.36158
 C1138 C 0.61192 0.77724 0.38510
 C1139 C 0.56602 0.79577 0.40829
 C1140 C 0.58698 0.79655 0.38510
 H1141 H 0.54716 0.81129 0.40734
 H1142 H 0.58377 0.81273 0.36703
 H1143 H 0.52713 0.78918 0.45252
 H1144 H 0.57015 0.71217 0.49317
 H1145 H 0.68396 0.72777 0.38739
 H1146 H 0.62938 0.79479 0.34321
 H1147 H 0.61096 0.71550 0.45744
 H1148 H 0.64776 0.72329 0.42749
 C1149 C 0.92318 0.75608 0.90339
 C1150 C 0.91651 0.73849 0.92907
 C1151 C 0.93550 0.73911 0.95424
 C1152 C 0.96068 0.75831 0.95542
 C1153 C 0.96650 0.77661 0.93012
 C1154 C 0.94834 0.77524 0.90439
 C1155 C 0.90231 0.75441 0.87684
 C1156 C 0.90832 0.76849 0.84901
 C1157 C 0.88763 0.76681 0.82528
 C1158 C 0.86027 0.75166 0.82900
 C1159 C 0.85451 0.73688 0.85628
 C1160 C 0.87552 0.73754 0.87984
 C1161 C 0.89039 0.72098 0.92995
 C1162 C 0.86997 0.72109 0.90615
 H1163 H 0.88518 0.70764 0.94973
 H1164 H 0.84968 0.70781 0.90825
 H1165 H 0.93060 0.72424 0.97299
 H1166 H 0.98449 0.79295 0.93044
 H1167 H 0.89276 0.77786 0.80419
 H1168 H 0.83377 0.72438 0.85900
 H1169 H 0.95375 0.79007 0.88591
 H1170 H 0.92893 0.78064 0.84509
 C1171 C 0.42273 0.24945 0.39668
 C1172 C 0.41967 0.27125 0.41958
 C1173 C 0.43795 0.26978 0.44531
 C1174 C 0.45844 0.24602 0.44952
 C1175 C 0.46067 0.22378 0.42734
 C1176 C 0.44337 0.22563 0.40106
 C1177 C 0.40263 0.25186 0.36959
 C1178 C 0.40550 0.23304 0.34429
 C1179 C 0.38491 0.23502 0.32047
 C1180 C 0.36088 0.25546 0.32163
 C1181 C 0.35867 0.27522 0.34596
 C1182 C 0.37964 0.27400 0.36956
 C1183 C 0.39765 0.29378 0.41723
 C1184 C 0.37761 0.29470 0.39309
 H1185 H 0.39521 0.31038 0.43484
 H1186 H 0.36032 0.31196 0.39279
 H1187 H 0.43583 0.28692 0.46246
 H1188 H 0.47558 0.20469 0.43049
 H1189 H 0.38705 0.21975 0.30168
 H1190 H 0.34046 0.29150 0.34652
 H1191 H 0.44582 0.20779 0.38488
 H1192 H 0.42332 0.21660 0.34258
 C1193 C 0.07510 0.76376 0.10858
 C1194 C 0.07373 0.78871 0.08873
 C1195 C 0.04979 0.79154 0.06830
 C1196 C 0.02793 0.76891 0.06581
 C1197 C 0.02863 0.74474 0.08616
 C1198 C 0.05172 0.74232 0.10754
 C1199 C 0.10217 0.76061 0.12869
 C1200 C 0.10521 0.73737 0.15017
 C1201 C 0.13075 0.73554 0.16844
 C1202 C 0.15419 0.75633 0.16537
 C1203 C 0.15174 0.77929 0.14384
 C1204 C 0.12567 0.78197 0.12597
 C1205 C 0.09713 0.80976 0.08807
 C1206 C 0.12270 0.80624 0.10598
 H1207 H 0.09605 0.82882 0.07279
 H1208 H 0.14043 0.82284 0.10419
 H1209 H 0.04939 0.81026 0.05254
 H1210 H 0.01234 0.72677 0.08436
 H1211 H 0.13208 0.71794 0.18537
 H1212 H 0.16949 0.79583 0.14199
 H1213 H 0.05164 0.72274 0.12196
 H1214 H 0.08790 0.72080 0.15368
 C1215 C 0.57539 0.24551 0.60220
 C1216 C 0.57229 0.21964 0.58407
 C1217 C 0.54781 0.21713 0.56434
 C1218 C 0.52710 0.24082 0.56080
 C1219 C 0.52941 0.26599 0.57947
 C1220 C 0.55309 0.26822 0.60021
 C1221 C 0.60299 0.24802 0.62161
 C1222 C 0.60775 0.27210 0.64155
 C1223 C 0.63360 0.27309 0.65944
 C1224 C 0.65564 0.25057 0.65739
 C1225 C 0.65156 0.22681 0.63732
 C1226 C 0.62517 0.22504 0.61992
 C1227 C 0.59449 0.19719 0.58430
 C1228 C 0.62054 0.20002 0.60153
 H1229 H 0.59209 0.17745 0.57029
 H1230 H 0.63728 0.18226 0.60051
 H1231 H 0.54613 0.19765 0.54983
 H1232 H 0.51395 0.28472 0.57677
 H1233 H 0.63625 0.29130 0.67534
 H1234 H 0.66822 0.20893 0.63643
 H1235 H 0.55434 0.28851 0.61334
 H1236 H 0.59150 0.28997 0.64420
 C1237 C 0.88744 0.24753 0.07947
 C1238 C 0.88930 0.22386 0.05836
 C1239 C 0.91302 0.22320 0.03741
 C1240 C 0.93428 0.24653 0.03661
 C1241 C 0.93035 0.27137 0.05559
 C1242 C 0.90737 0.27189 0.07679
 C1243 C 0.86443 0.24558 0.10392
 C1244 C 0.86451 0.26495 0.12892
 C1245 C 0.84313 0.26184 0.15161
 C1246 C 0.82077 0.23983 0.14965
 C1247 C 0.82056 0.22018 0.12502
 C1248 C 0.84285 0.22228 0.10267
 C1249 C 0.86769 0.20095 0.05869
 C1250 C 0.84444 0.20068 0.07983
 H1251 H 0.86865 0.18306 0.04225
 H1252 H 0.82813 0.18263 0.07896
 H1253 H 0.91561 0.20408 0.02259
 H1254 H 0.94600 0.29000 0.05480
 H1255 H 0.84373 0.27706 0.17056
 H1256 H 0.80368 0.20266 0.12383
 H1257 H 0.90580 0.29137 0.09109
 H1258 H 0.88130 0.28219 0.13171
 C1259 C 0.39178 0.74423 0.59124
 C1260 C 0.39120 0.72375 0.56697
 C1261 C 0.41437 0.72419 0.54537
 C1262 C 0.43753 0.74555 0.54729
 C1263 C 0.43630 0.76741 0.56989
 C1264 C 0.41384 0.76681 0.59158
 C1265 C 0.36891 0.74099 0.61566
 C1266 C 0.37085 0.75691 0.64290
 C1267 C 0.34935 0.75291 0.66528
 C1268 C 0.32510 0.73336 0.66098
 C1269 C 0.32307 0.71702 0.63408
 C1270 C 0.34533 0.72005 0.61178
 C1271 C 0.36767 0.70293 0.56471
 C1272 C 0.34478 0.70169 0.58621
 H1273 H 0.36681 0.68752 0.54592
 H1274 H 0.32693 0.68541 0.58328
 H1275 H 0.41495 0.70735 0.52784
 H1276 H 0.45349 0.78459 0.57131
 H1277 H 0.35143 0.76562 0.68591
 H1278 H 0.30470 0.70134 0.63094
 H1279 H 0.41430 0.78408 0.60853
 H1280 H 0.38909 0.77212 0.64764
 C1281 C 0.24077 0.09709 0.92267
 C1282 C 0.26360 0.09529 0.94482
 C1283 C 0.26557 0.06987 0.96379
 C1284 C 0.24437 0.04639 0.96172
 C1285 C 0.22072 0.04955 0.94074
 C1286 C 0.21891 0.07436 0.92163
 C1287 C 0.24099 0.12299 0.90102
 C1288 C 0.22178 0.12439 0.87580
 C1289 C 0.22379 0.14808 0.85534
 C1290 C 0.24452 0.17126 0.85963
 C1291 C 0.26349 0.17055 0.88491
 C1292 C 0.26243 0.14611 0.90518
 C1293 C 0.28439 0.11877 0.94770
 C1294 C 0.28342 0.14393 0.92871
 H1295 H 0.30165 0.11772 0.96496
 H1296 H 0.29997 0.16149 0.93189
 H1297 H 0.28435 0.06797 0.97929
 H1298 H 0.20307 0.03287 0.93931
 H1299 H 0.20908 0.14830 0.83595
 H1300 H 0.27998 0.18822 0.88794
 H1301 H 0.20007 0.07531 0.90631
 H1302 H 0.20565 0.10702 0.87090
 C1303 C 0.75291 0.60055 0.42581
 C1304 C 0.77031 0.57500 0.41813
 C1305 C 0.76965 0.54918 0.43629
 C1306 C 0.75060 0.54750 0.46130
 C1307 C 0.73291 0.57258 0.46869
 C1308 C 0.73430 0.59896 0.45142
 C1309 C 0.75384 0.62744 0.40527
 C1310 C 0.73945 0.65497 0.41186
 C1311 C 0.73978 0.67877 0.39111
 C1312 C 0.75387 0.67540 0.36316
 C1313 C 0.76928 0.64858 0.35698
 C1314 C 0.76989 0.62495 0.37794
 C1315 C 0.78724 0.57475 0.39165
 C1316 C 0.78650 0.59894 0.37165
 H1317 H 0.80045 0.55511 0.38575
 H1318 H 0.79920 0.59726 0.35096
 H1319 H 0.78322 0.52979 0.43031
 H1320 H 0.71743 0.57153 0.48741
 H1321 H 0.72837 0.69955 0.39662
 H1322 H 0.78102 0.64617 0.33577
 H1323 H 0.71987 0.61743 0.45779
 H1324 H 0.72792 0.65854 0.43286
 C1325 C 0.72916 0.07044 0.08844
 C1326 C 0.75285 0.04906 0.08937
 C1327 C 0.75478 0.02682 0.06708
 C1328 C 0.73255 0.02487 0.04469
 C1329 C 0.70766 0.04432 0.04570
 C1330 C 0.70596 0.06689 0.06720
 C1331 C 0.72977 0.09597 0.11015
 C1332 C 0.71050 0.12112 0.10745
 C1333 C 0.71204 0.14456 0.12812
 C1334 C 0.73237 0.14316 0.15217
 C1335 C 0.75210 0.11857 0.15475
 C1336 C 0.75158 0.09546 0.13337
 C1337 C 0.77442 0.05026 0.11237
 C1338 C 0.77325 0.07245 0.13447
 H1339 H 0.79228 0.03361 0.11350
 H1340 H 0.79017 0.07221 0.15207
 H1341 H 0.77394 0.01166 0.06658
 H1342 H 0.68997 0.04273 0.02896
 H1343 H 0.69682 0.16353 0.12571
 H1344 H 0.76833 0.11786 0.17298
 H1345 H 0.68649 0.08147 0.06667
 H1346 H 0.69448 0.12334 0.08929
 C1347 C 0.24107 0.56719 0.59729
 C1348 C 0.21950 0.56910 0.57388
 C1349 C 0.22010 0.54838 0.55027
 C1350 C 0.24299 0.52664 0.54840
 C1351 C 0.26461 0.52491 0.57139
 C1352 C 0.26348 0.54466 0.59576
 C1353 C 0.23989 0.59023 0.62179
 C1354 C 0.25859 0.58904 0.64744
 C1355 C 0.25710 0.61157 0.66920
 C1356 C 0.23739 0.63602 0.66559
 C1357 C 0.21834 0.63721 0.64050
 C1358 C 0.21893 0.61421 0.61901
 C1359 C 0.19829 0.59248 0.57334
 C1360 C 0.19844 0.61492 0.59507
 H1361 H 0.18191 0.59399 0.55527
 H1362 H 0.18209 0.63300 0.59320
 H1363 H 0.20337 0.54995 0.53251
 H1364 H 0.28291 0.50883 0.57006
 H1365 H 0.27181 0.61019 0.68865
 H1366 H 0.20257 0.65577 0.63807
 H1367 H 0.28098 0.54267 0.61254
 H1368 H 0.27428 0.57081 0.65122
 C1369 C 0.75931 0.91485 0.88802
 C1370 C 0.77922 0.91328 0.91286
 C1371 C 0.77716 0.93452 0.93599
 C1372 C 0.75425 0.95641 0.93599
 C1373 C 0.73449 0.95795 0.91136
 C1374 C 0.73718 0.93772 0.88749
 C1375 C 0.76165 0.89102 0.86431
 C1376 C 0.74453 0.89169 0.83759
 C1377 C 0.74678 0.86839 0.81674
 C1378 C 0.76570 0.84363 0.82221
 C1379 C 0.78334 0.84298 0.84838
 C1380 C 0.78195 0.86677 0.86906
 C1381 C 0.80004 0.88963 0.91533
 C1382 C 0.80094 0.86655 0.89424
 H1383 H 0.81519 0.88837 0.93446
 H1384 H 0.81684 0.84828 0.89766
 H1385 H 0.79255 0.93308 0.95493
 H1386 H 0.71610 0.97400 0.91110
 H1387 H 0.73321 0.86944 0.79647
 H1388 H 0.79857 0.82423 0.85231
 H1389 H 0.72091 0.93953 0.86951
 H1390 H 0.72946 0.91006 0.83230
 C1391 C 0.25971 0.41751 0.38930
 C1392 C 0.28033 0.41570 0.41353
 C1393 C 0.27925 0.43698 0.43669
 C1394 C 0.25664 0.45917 0.43741
 C1395 C 0.23617 0.46098 0.41338
 C1396 C 0.23787 0.44069 0.38943
 C1397 C 0.26114 0.39367 0.36549
 C1398 C 0.24331 0.39456 0.33924
 C1399 C 0.24496 0.37142 0.31815
 C1400 C 0.26394 0.34653 0.32290
 C1401 C 0.28209 0.34555 0.34870
 C1402 C 0.28136 0.36922 0.36959
 C1403 C 0.30093 0.39180 0.41539
 C1404 C 0.30100 0.36875 0.39425
 H1405 H 0.31662 0.39036 0.43407
 H1406 H 0.31681 0.35033 0.39720
 H1407 H 0.29520 0.43532 0.45514
 H1408 H 0.21797 0.47723 0.41369
 H1409 H 0.23097 0.37276 0.29818
 H1410 H 0.29731 0.32672 0.35213
 H1411 H 0.22111 0.44270 0.37194
 H1412 H 0.22821 0.41305 0.33446
 C1413 C 0.25034 0.89759 0.07886
 C1414 C 0.27838 0.91047 0.07118
 C1415 C 0.28074 0.92912 0.04577
 C1416 C 0.25535 0.93594 0.02814
 C1417 C 0.22807 0.92161 0.03449
 C1418 C 0.22558 0.90247 0.05943
 C1419 C 0.24818 0.88016 0.10781
 C1420 C 0.22111 0.86740 0.11821
 C1421 C 0.22053 0.85077 0.14496
 C1422 C 0.24669 0.84690 0.16214
 C1423 C 0.27352 0.86017 0.15266
 C1424 C 0.27450 0.87669 0.12565
 C1425 C 0.30359 0.90589 0.08963
 C1426 C 0.30172 0.88926 0.11621
 H1427 H 0.32507 0.91567 0.08364
 H1428 H 0.32187 0.88647 0.12975
 H1429 H 0.30186 0.94025 0.04089
 H1430 H 0.20816 0.92682 0.02132
 H1431 H 0.19975 0.84021 0.15190
 H1432 H 0.29390 0.85651 0.16570
 H1433 H 0.20381 0.89276 0.06376
 H1434 H 0.20030 0.86950 0.10583
 C1435 C 0.73906 0.39248 0.57159
 C1436 C 0.76572 0.39659 0.55476
 C1437 C 0.76613 0.41714 0.53072
 C1438 C 0.73998 0.43278 0.52234
 C1439 C 0.71297 0.42666 0.53723
 C1440 C 0.71240 0.40666 0.56158
 C1441 C 0.74069 0.37381 0.59973
 C1442 C 0.71691 0.37209 0.62062
 C1443 C 0.71966 0.35437 0.64657
 C1444 C 0.74599 0.33787 0.65201
 C1445 C 0.76999 0.33986 0.63182
 C1446 C 0.76784 0.35826 0.60619
 C1447 C 0.79203 0.38100 0.56266
 C1448 C 0.79283 0.36160 0.58738
 H1449 H 0.81232 0.38379 0.54950
 H1450 H 0.81365 0.34981 0.59243
 H1451 H 0.78722 0.42247 0.51976
 H1452 H 0.69273 0.43906 0.53137
 H1453 H 0.70082 0.35265 0.66185
 H1454 H 0.79037 0.32704 0.63619
 H1455 H 0.69120 0.40334 0.57283
 H1456 H 0.69612 0.38431 0.61736
 C1457 C 0.08610 0.10643 0.75808
 C1458 C 0.06545 0.10850 0.73385
 C1459 C 0.04421 0.08547 0.72924
 C1460 C 0.04249 0.06108 0.74942
 C1461 C 0.06098 0.06102 0.77511
 C1462 C 0.08260 0.08321 0.77934
 C1463 C 0.11085 0.12910 0.76014
 C1464 C 0.13568 0.12549 0.77965
 C1465 C 0.15864 0.14681 0.78027
 C1466 C 0.15708 0.17262 0.76216
 C1467 C 0.13264 0.17627 0.74231
 C1468 C 0.11012 0.15416 0.74043
 C1469 C 0.06641 0.13343 0.71442
 C1470 C 0.08766 0.15626 0.71825
 H1471 H 0.05029 0.13549 0.69617
 H1472 H 0.08722 0.17527 0.70288
 H1473 H 0.02975 0.08602 0.70957
 H1474 H 0.05942 0.04297 0.79150
 H1475 H 0.17753 0.14328 0.79524
 H1476 H 0.13178 0.19579 0.72758
 H1477 H 0.09649 0.08170 0.79925
 H1478 H 0.13813 0.10597 0.79401
 C1479 C 0.58719 0.60938 0.26862
 C1480 C 0.56429 0.61302 0.24665
 C1481 C 0.54236 0.59054 0.24280
 C1482 C 0.54238 0.56486 0.26134
 C1483 C 0.56361 0.56275 0.28473
 C1484 C 0.58577 0.58456 0.28831
 C1485 C 0.61204 0.63208 0.26991
 C1486 C 0.63814 0.62804 0.28767
 C1487 C 0.66101 0.64956 0.28759
 C1488 C 0.65815 0.67585 0.27029
 C1489 C 0.63238 0.67998 0.25234
 C1490 C 0.60978 0.65798 0.25141
 C1491 C 0.56369 0.63891 0.22853
 C1492 C 0.58551 0.66126 0.23140
 H1493 H 0.54595 0.64204 0.21201
 H1494 H 0.58388 0.68098 0.21704
 H1495 H 0.52609 0.59250 0.22469
 H1496 H 0.56362 0.54352 0.29981
 H1497 H 0.68079 0.64587 0.30145
 H1498 H 0.63038 0.69998 0.23838
 H1499 H 0.60168 0.58147 0.30645
 H1500 H 0.64158 0.60817 0.30131
 C1501 C 0.10174 0.92822 0.24112
 C1502 C 0.07974 0.92677 0.21820
 C1503 C 0.05894 0.95024 0.21458
 C1504 C 0.05825 0.97488 0.23448
 C1505 C 0.08140 0.97717 0.25598
 C1506 C 0.10291 0.95425 0.25918
 C1507 C 0.12201 0.90146 0.24571
 C1508 C 0.14469 0.90054 0.26786
 C1509 C 0.16308 0.87523 0.27109
 C1510 C 0.15904 0.84997 0.25276
 C1511 C 0.13619 0.85025 0.23104
 C1512 C 0.11797 0.87592 0.22710
 C1513 C 0.07759 0.90130 0.19987
 C1514 C 0.09616 0.87635 0.20434
 H1515 H 0.06074 0.90032 0.18223
 H1516 H 0.09328 0.85702 0.18985
 H1517 H 0.04213 0.94861 0.19691
 H1518 H 0.08156 0.99528 0.27215
 H1519 H 0.18087 0.87549 0.28781
 H1520 H 0.13350 0.83101 0.21636
 H1521 H 0.11935 0.95676 0.27686
 H1522 H 0.14896 0.91924 0.28261
 C1523 C 0.60426 0.42013 0.76214
 C1524 C 0.60326 0.44172 0.73861
 C1525 C 0.58328 0.46630 0.74034
 C1526 C 0.56509 0.46996 0.76578
 C1527 C 0.56908 0.45059 0.79051
 C1528 C 0.58831 0.42588 0.78874
 C1529 C 0.62226 0.39203 0.75775
 C1530 C 0.62014 0.36688 0.77714
 C1531 C 0.63798 0.34139 0.77251
 C1532 C 0.65853 0.34068 0.74879
 C1533 C 0.65984 0.36500 0.72857
 C1534 C 0.64120 0.39024 0.73236
 C1535 C 0.62171 0.43814 0.71338
 C1536 C 0.64104 0.41341 0.71081
 H1537 H 0.62144 0.45484 0.69553
 H1538 H 0.65532 0.41190 0.69116
 H1539 H 0.58057 0.48143 0.72130
 H1540 H 0.55560 0.45345 0.81056
 H1541 H 0.63675 0.32277 0.78829
 H1542 H 0.67549 0.36424 0.70994
 H1543 H 0.58986 0.41117 0.80808
 H1544 H 0.60482 0.36650 0.79591
 C1545 C 0.90061 0.08517 0.24843
 C1546 C 0.90164 0.06264 0.22609
 C1547 C 0.92655 0.04314 0.22451
 C1548 C 0.94977 0.04475 0.24597
 C1549 C 0.94753 0.06581 0.26925
 C1550 C 0.92340 0.08584 0.27046
 C1551 C 0.87516 0.10729 0.24778
 C1552 C 0.87475 0.13320 0.26589
 C1553 C 0.85095 0.15361 0.26401
 C1554 C 0.82673 0.14843 0.24454
 C1555 C 0.82683 0.12278 0.22632
 C1556 C 0.85133 0.10268 0.22713
 C1557 C 0.87775 0.05969 0.20568
 C1558 C 0.85274 0.07878 0.20672
 H1559 H 0.87822 0.04212 0.18886
 H1560 H 0.83468 0.07538 0.19067
 H1561 H 0.92800 0.02689 0.20648
 H1562 H 0.96479 0.06698 0.28646
 H1563 H 0.85131 0.17346 0.27806
 H1564 H 0.80842 0.11914 0.21073
 H1565 H 0.92293 0.10151 0.28890
 H1566 H 0.89290 0.13850 0.28110
 C1567 C 0.40201 0.57561 0.75842
 C1568 C 0.42461 0.57859 0.73629
 C1569 C 0.44981 0.55955 0.73687
 C1570 C 0.45389 0.53847 0.76016
 C1571 C 0.43195 0.53620 0.78265
 C1572 C 0.40613 0.55422 0.78163
 C1573 C 0.37547 0.59649 0.75698
 C1574 C 0.35036 0.59364 0.77605
 C1575 C 0.32681 0.61452 0.77464
 C1576 C 0.32803 0.63890 0.75459
 C1577 C 0.35237 0.64141 0.73483
 C1578 C 0.37568 0.62005 0.73541
 C1579 C 0.42258 0.60129 0.71440
 C1580 C 0.39899 0.62203 0.71441
 H1581 H 0.44001 0.60368 0.69758
 H1582 H 0.39890 0.63976 0.69757
 H1583 H 0.46677 0.56165 0.71951
 H1584 H 0.43504 0.52086 0.80142
 H1585 H 0.30795 0.61208 0.78983
 H1586 H 0.35294 0.65984 0.71875
 H1587 H 0.39018 0.55177 0.79970
 H1588 H 0.34845 0.57543 0.79208
 C1589 C 0.93208 0.90481 0.73285
 C1590 C 0.93264 0.92516 0.70828
 C1591 C 0.95483 0.94743 0.70681
 C1592 C 0.97563 0.95098 0.73034
 C1593 C 0.97510 0.93079 0.75464
 C1594 C 0.95391 0.90773 0.75574
 C1595 C 0.90738 0.88202 0.73408
 C1596 C 0.90597 0.85952 0.75646
 C1597 C 0.88244 0.83890 0.75672
 C1598 C 0.85955 0.84047 0.73508
 C1599 C 0.86051 0.86272 0.71274
 C1600 C 0.88460 0.88307 0.71170
 C1601 C 0.91017 0.92420 0.68613
 C1602 C 0.88638 0.90394 0.68808
 H1603 H 0.91053 0.93992 0.66742
 H1604 H 0.86922 0.90451 0.67072
 H1605 H 0.95493 0.96320 0.68810
 H1606 H 0.99026 0.93363 0.77352
 H1607 H 0.88205 0.82160 0.77394
 H1608 H 0.84314 0.86341 0.69556
 H1609 H 0.95420 0.89334 0.77534
 H1610 H 0.92300 0.85709 0.77363
 C1611 C 0.42580 0.41219 0.23877
 C1612 C 0.42185 0.43476 0.26073
 C1613 C 0.44336 0.45742 0.26402
 C1614 C 0.46827 0.45902 0.24483
 C1615 C 0.47197 0.43707 0.22263
 C1616 C 0.45118 0.41368 0.21981
 C1617 C 0.40218 0.38836 0.23610
 C1618 C 0.40510 0.36340 0.21690
 C1619 C 0.38243 0.34179 0.21532
 C1620 C 0.35614 0.34488 0.23236
 C1621 C 0.35297 0.36953 0.25156
 C1622 C 0.37601 0.39084 0.25407
 C1623 C 0.39599 0.43529 0.27861
 C1624 C 0.37329 0.41412 0.27496
 H1625 H 0.39293 0.45276 0.29527
 H1626 H 0.35345 0.41579 0.28898
 H1627 H 0.44026 0.47455 0.28104
 H1628 H 0.49059 0.43837 0.20704
 H1629 H 0.38537 0.32265 0.20062
 H1630 H 0.33299 0.37150 0.26537
 H1631 H 0.45490 0.39758 0.20213
 H1632 H 0.42487 0.35987 0.20335
   
