data_POSCAR
  _audit_creation_date              2014-09-24
  _audit_creation_method            'ToBaCCo'
  _symmetry_space_group_name_H-M    'P1'
  _symmetry_Int_Tables_number       1
  _symmetry_cell_setting            triclinic
  loop_
  _symmetry_equiv_pos_as_xyz
 x,y,z
_cell_length_a 54.2687
_cell_length_b 54.1881
_cell_length_c 54.1880
_cell_angle_alpha 90.032300
_cell_angle_beta 90.020900
_cell_angle_gamma 90.041600
loop_
  _atom_site_label
  _atom_site_type_symbol
  _atom_site_fract_x
  _atom_site_fract_y
  _atom_site_fract_z
C1 C 0.24307 0.99726 -0.01316
 C2 C 0.24248 0.99677 0.01187
 C3 C 0.24113 0.97317 0.02548
 C4 C 0.24364 1.01939 0.02733
 C5 C 0.24527 1.02048 -0.02741
 C6 C 0.24173 0.97434 -0.02811
 C7 C 0.21855 0.96099 0.02873
 C8 C 0.21710 0.94032 0.04413
 C9 C 0.23833 0.93135 0.05589
 C10 C 0.26101 0.94310 0.05193
 C11 C 0.26233 0.96409 0.03710
 C12 C 0.22632 1.02262 0.04616
 C13 C 0.22818 1.04233 0.06255
 C14 C 0.24754 1.05981 0.06073
 C15 C 0.26444 1.05677 0.04096
 C16 C 0.26270 1.03666 0.02482
 C17 C 0.26473 1.02290 -0.04423
 C18 C 0.26581 1.04306 -0.06010
 C19 C 0.24731 1.06116 -0.05966
 C20 C 0.22830 1.05931 -0.04211
 C21 C 0.22723 1.03900 -0.02613
 C22 C 0.26042 0.95650 -0.02695
 C23 C 0.26028 0.93642 -0.04318
 C24 C 0.24162 0.93406 -0.06105
 C25 C 0.22271 0.95174 -0.06183
 C26 C 0.22281 0.97171 -0.04556
 H27 H 0.20200 0.96801 0.02005
 H28 H 0.19944 0.93146 0.04708
 H29 H 0.27752 0.93654 0.06104
 H30 H 0.27981 0.97350 0.03492
 H31 H 0.21120 1.00974 0.04827
 H32 H 0.21354 1.04412 0.07594
 H33 H 0.27676 1.03417 0.01086
 H34 H 0.27884 1.00882 -0.04543
 H35 H 0.28089 1.04425 -0.07314
 H36 H 0.21373 1.07293 -0.04151
 H37 H 0.21190 1.03726 -0.01346
 H38 H 0.27558 0.95859 -0.01413
 H39 H 0.27526 0.92325 -0.04239
 H40 H 0.20795 0.95024 -0.07521
 H41 H 0.20835 0.98542 -0.04685
 H42 H 0.28026 1.06867 0.03872
 C43 C 0.73883 0.49709 0.50742
 C44 C 0.73916 0.49643 0.48246
 C45 C 0.73844 0.47289 0.46878
 C46 C 0.73998 0.51925 0.46739
 C47 C 0.74021 0.52063 0.52105
 C48 C 0.73710 0.47456 0.52278
 C49 C 0.76037 0.46302 0.45939
 C50 C 0.75980 0.44211 0.44434
 C51 C 0.73720 0.43121 0.43797
 C52 C 0.71525 0.44095 0.44763
 C53 C 0.71589 0.46155 0.46319
 C54 C 0.76038 0.53517 0.46834
 C55 C 0.76132 0.55608 0.45322
 C56 C 0.74204 0.56117 0.43666
 C57 C 0.72162 0.54524 0.43588
 C58 C 0.72062 0.52448 0.45108
 C59 C 0.71894 0.53470 0.52523
 C60 C 0.71999 0.55543 0.54056
 C61 C 0.74242 0.56254 0.55136
 C62 C 0.76381 0.54890 0.54643
 C63 C 0.76263 0.52786 0.53164
 C64 C 0.71718 0.47186 0.53904
 C65 C 0.71692 0.45282 0.55635
 C66 C 0.73665 0.43613 0.55782
 C67 C 0.75616 0.43824 0.54086
 C68 C 0.75646 0.45743 0.52357
 H69 H 0.77786 0.47180 0.46337
 H70 H 0.77689 0.43500 0.43689
 H71 H 0.69766 0.43276 0.44291
 H72 H 0.69882 0.46913 0.47021
 H73 H 0.77578 0.53114 0.48038
 H74 H 0.77743 0.56787 0.45396
 H75 H 0.70471 0.51246 0.45007
 H76 H 0.70148 0.52914 0.51728
 H77 H 0.70331 0.56575 0.54428
 H78 H 0.78121 0.55402 0.55483
 H79 H 0.77911 0.51697 0.52872
 H80 H 0.70209 0.48492 0.53876
 H81 H 0.70150 0.45143 0.56896
 H82 H 0.77172 0.42577 0.54176
 H83 H 0.77228 0.45955 0.51160
 H84 H 0.70638 0.54886 0.42349
 C85 C 0.75842 1.00861 0.99540
 C86 C 0.75953 0.98362 0.99593
 C87 C 0.76062 0.96822 0.97334
 C88 C 0.75916 0.97005 1.01960
 C89 C 0.75957 1.02346 1.01835
 C90 C 0.75671 1.02308 0.97222
 C91 C 0.74157 0.96843 0.95579
 C92 C 0.74188 0.95173 0.93601
 C93 C 0.76109 0.93446 0.93373
 C94 C 0.78046 0.93493 0.95091
 C95 C 0.78019 0.95158 0.97050
 C96 C 0.73691 0.96004 1.02808
 C97 C 0.73639 0.94579 1.04953
 C98 C 0.75826 0.94083 1.06242
 C99 C 0.78055 0.95098 1.05400
 C100 C 0.78095 0.96577 1.03284
 C101 C 0.77938 1.03973 1.02171
 C102 C 0.77935 1.05647 1.04125
 C103 C 0.75943 1.05733 1.05776
 C104 C 0.73999 1.04039 1.05493
 C105 C 0.73998 1.02367 1.03524
 C106 C 0.77482 1.02169 0.95384
 C107 C 0.77461 1.03829 0.93401
 C108 C 0.75657 1.05709 0.93245
 C109 C 0.73790 1.05746 0.95060
 C110 C 0.73803 1.04076 0.97010
 H111 H 0.72613 0.98091 0.95784
 H112 H 0.72664 0.95164 0.92311
 H113 H 0.79570 0.92213 0.94937
 H114 H 0.79514 0.95119 0.98372
 H115 H 0.71999 0.96309 1.01791
 H116 H 0.71907 0.93794 1.05561
 H117 H 0.79827 0.97334 1.02641
 H118 H 0.79456 1.03991 1.00873
 H119 H 0.79470 1.06912 1.04318
 H120 H 0.72428 1.04087 1.06725
 H121 H 0.72424 1.01167 1.03257
 H122 H 0.78974 1.00852 0.95540
 H123 H 0.78969 1.03730 0.92101
 H124 H 0.72279 1.07044 0.94974
 H125 H 0.72373 1.04200 0.98400
 H126 H 0.79760 0.94732 1.06372
 C127 C 0.25580 0.48471 0.49791
 C128 C 0.25637 0.50968 0.49917
 C129 C 0.25638 0.52283 0.52310
 C130 C 0.25736 0.52556 0.47693
 C131 C 0.25723 0.47144 0.47408
 C132 C 0.25488 0.46917 0.52043
 C133 C 0.23515 0.53545 0.53069
 C134 C 0.23574 0.55043 0.55166
 C135 C 0.25776 0.55353 0.56486
 C136 C 0.27891 0.54055 0.55752
 C137 C 0.27814 0.52503 0.53689
 C138 C 0.23832 0.52524 0.45939
 C139 C 0.23776 0.54281 0.44047
 C140 C 0.25609 0.56112 0.43901
 C141 C 0.27555 0.56081 0.45609
 C142 C 0.27615 0.54324 0.47486
 C143 C 0.27987 0.46877 0.46189
 C144 C 0.28181 0.45316 0.44140
 C145 C 0.26102 0.44047 0.43255
 C146 C 0.23818 0.44403 0.44417
 C147 C 0.23638 0.45913 0.46500
 C148 C 0.27338 0.45159 0.52455
 C149 C 0.27232 0.43608 0.54505
 C150 C 0.25266 0.43777 0.56184
 C151 C 0.23425 0.45556 0.55787
 C152 C 0.23526 0.47101 0.53722
 H153 H 0.21832 0.53411 0.52003
 H154 H 0.21933 0.56050 0.55693
 H155 H 0.29608 0.54284 0.56746
 H156 H 0.29473 0.51560 0.53103
 H157 H 0.22336 0.51211 0.46098
 H158 H 0.22245 0.54276 0.42765
 H159 H 0.29102 0.54382 0.48818
 H160 H 0.29618 0.47794 0.46889
 H161 H 0.29960 0.45063 0.43269
 H162 H 0.22198 0.43424 0.43777
 H163 H 0.21885 0.46083 0.47440
 H164 H 0.28870 0.44987 0.51186
 H165 H 0.28691 0.42274 0.54782
 H166 H 0.21873 0.45702 0.57035
 H167 H 0.22049 0.48406 0.53408
 H168 H 0.29011 0.57445 0.45516
 C169 C 0.99825 0.24769 0.01589
 C170 C 0.99847 0.24711 -0.00913
 C171 C 0.97561 0.24548 -0.02406
 C172 C 1.02160 0.24796 -0.02366
 C173 C 1.02116 0.24658 0.03082
 C174 C 0.97504 0.24894 0.03024
 C175 C 0.97353 0.22634 -0.04128
 C176 C 0.95464 0.22632 -0.05863
 C177 C 0.93711 0.24554 -0.05935
 C178 C 0.93839 0.26394 -0.04084
 C179 C 0.95765 0.26406 -0.02360
 C180 C 1.03952 0.22944 -0.02185
 C181 C 1.05952 0.22909 -0.03818
 C182 C 1.06167 0.24695 -0.05711
 C183 C 1.04388 0.26593 -0.05801
 C184 C 1.02421 0.26637 -0.04156
 C185 C 1.03967 0.26456 0.02901
 C186 C 1.05993 0.26408 0.04507
 C187 C 1.06180 0.24591 0.06373
 C188 C 1.04336 0.22752 0.06465
 C189 C 1.02341 0.22793 0.04851
 C190 C 0.97182 0.26850 0.04685
 C191 C 0.95196 0.26863 0.06312
 C192 C 0.93496 0.24908 0.06324
 C193 C 0.93758 0.22994 0.04590
 C194 C 0.95759 0.22979 0.02957
 H195 H 0.98709 0.21168 -0.04175
 H196 H 0.95383 0.21095 -0.07135
 H197 H 0.92575 0.27936 -0.04066
 H198 H 0.95919 0.27926 -0.01070
 H199 H 1.03752 0.21474 -0.00848
 H200 H 1.07223 0.21379 -0.03684
 H201 H 1.01062 0.28093 -0.04312
 H202 H 1.03805 0.27940 0.01573
 H203 H 1.07316 0.27896 0.04372
 H204 H 1.04437 0.21231 0.07752
 H205 H 1.00946 0.21369 0.05000
 H206 H 0.98513 0.28339 0.04765
 H207 H 0.95018 0.28380 0.07603
 H208 H 0.92482 0.21457 0.04575
 H209 H 0.96002 0.21432 0.01715
 H210 H 1.04520 0.28089 -0.07115
 C211 C 0.49451 0.75274 0.51344
 C212 C 0.49452 0.75019 0.48856
 C213 C 0.51751 0.75007 0.47372
 C214 C 0.47117 0.74961 0.47446
 C215 C 0.47112 0.75295 0.52750
 C216 C 0.51755 0.75395 0.52822
 C217 C 0.53388 0.77015 0.47436
 C218 C 0.55417 0.77093 0.45842
 C219 C 0.55824 0.75177 0.44139
 C220 C 0.54216 0.73146 0.44122
 C221 C 0.52203 0.73063 0.45720
 C222 C 0.46059 0.77178 0.46639
 C223 C 0.44061 0.77145 0.45011
 C224 C 0.43126 0.74892 0.44134
 C225 C 0.44125 0.72673 0.45026
 C226 C 0.46092 0.72708 0.46693
 C227 C 0.46110 0.73070 0.53607
 C228 C 0.44082 0.73086 0.55199
 C229 C 0.43059 0.75333 0.55987
 C230 C 0.44009 0.77555 0.55049
 C231 C 0.46005 0.77535 0.53419
 C232 C 0.53485 0.73468 0.52765
 C233 C 0.55520 0.73495 0.54359
 C234 C 0.55838 0.75436 0.56053
 C235 C 0.54147 0.77397 0.56044
 C236 C 0.52130 0.77375 0.54450
 H237 H 0.53053 0.78554 0.48666
 H238 H 0.56617 0.78690 0.45881
 H239 H 0.54509 0.71625 0.42859
 H240 H 0.50986 0.71484 0.45646
 H241 H 0.46839 0.78931 0.47204
 H242 H 0.43326 0.78877 0.44338
 H243 H 0.46874 0.70981 0.47322
 H244 H 0.46950 0.71327 0.53105
 H245 H 0.43386 0.71352 0.55908
 H246 H 0.43234 0.79307 0.55617
 H247 H 0.46742 0.79267 0.52748
 H248 H 0.53217 0.71907 0.51545
 H249 H 0.56788 0.71953 0.54338
 H250 H 0.54369 0.78937 0.57299
 H251 H 0.50845 0.78898 0.54514
 H252 H 0.43416 0.70915 0.44390
 C253 C -0.01739 0.74782 0.00031
 C254 C 0.00761 0.74717 0.00061
 C255 C 0.02241 0.74815 -0.02224
 C256 C 0.02191 0.74601 0.02377
 C257 C -0.03228 0.74735 0.02330
 C258 C -0.03143 0.74952 -0.02314
 C259 C 0.02936 0.72631 -0.03413
 C260 C 0.04544 0.72694 -0.05425
 C261 C 0.05591 0.74944 -0.06226
 C262 C 0.04858 0.77135 -0.05013
 C263 C 0.03189 0.77068 -0.03051
 C264 C 0.02929 0.72316 0.03336
 C265 C 0.04556 0.72216 0.05339
 C266 C 0.05435 0.74402 0.06422
 C267 C 0.04652 0.76685 0.05485
 C268 C 0.03076 0.76783 0.03452
 C269 C -0.03064 0.76637 0.04074
 C270 C -0.04630 0.76679 0.06124
 C271 C -0.06466 0.74853 0.06447
 C272 C -0.06600 0.72942 0.04673
 C273 C -0.05005 0.72889 0.02652
 C274 C -0.04666 0.76992 -0.02733
 C275 C -0.06159 0.77101 -0.04830
 C276 C -0.06171 0.75163 -0.06579
 C277 C -0.04587 0.73136 -0.06153
 C278 C -0.03126 0.73019 -0.04030
 H279 H 0.02282 0.70866 -0.02741
 H280 H 0.05093 0.70950 -0.06226
 H281 H 0.05530 0.78921 -0.05601
 H282 H 0.02681 0.78771 -0.02137
 H283 H 0.02303 0.70617 0.02488
 H284 H 0.05145 0.70437 0.06032
 H285 H 0.02579 0.78560 0.02687
 H286 H -0.01794 0.78151 0.03802
 H287 H -0.04489 0.78243 0.07356
 H288 H -0.07895 0.71436 0.04860
 H289 H -0.05172 0.71410 0.01316
 H290 H -0.04710 0.78500 -0.01420
 H291 H -0.07250 0.78749 -0.05093
 H292 H -0.04577 0.71551 -0.07366
 H293 H -0.02050 0.71376 -0.03687
 H294 H 0.05336 0.78392 0.06271
 C295 C 0.51072 0.25308 0.50322
 C296 C 0.48573 0.25361 0.50324
 C297 C 0.47134 0.25392 0.47998
 C298 C 0.47103 0.25393 0.52633
 C299 C 0.52550 0.25400 0.52618
 C300 C 0.52515 0.25098 0.48010
 C301 C 0.45509 0.27353 0.47565
 C302 C 0.44014 0.27364 0.45475
 C303 C 0.44101 0.25401 0.43782
 C304 C 0.45764 0.23456 0.44190
 C305 C 0.47261 0.23443 0.46294
 C306 C 0.47360 0.27281 0.54392
 C307 C 0.45773 0.27385 0.56429
 C308 C 0.43890 0.25623 0.56711
 C309 C 0.43681 0.23710 0.54975
 C310 C 0.45268 0.23600 0.52958
 C311 C 0.52403 0.23526 0.54398
 C312 C 0.54064 0.23484 0.56375
 C313 C 0.55906 0.25303 0.56580
 C314 C 0.55983 0.27219 0.54839
 C315 C 0.54328 0.27261 0.52874
 C316 C 0.54134 0.23103 0.47732
 C317 C 0.55661 0.22946 0.45674
 C318 C 0.55611 0.24790 0.43856
 C319 C 0.53946 0.26763 0.44102
 C320 C 0.52417 0.26924 0.46176
 H321 H 0.45387 0.28870 0.48862
 H322 H 0.42772 0.28901 0.45189
 H323 H 0.45847 0.21908 0.42928
 H324 H 0.48475 0.21893 0.46622
 H325 H 0.48733 0.28711 0.54149
 H326 H 0.45959 0.28889 0.57732
 H327 H 0.45038 0.22131 0.51620
 H328 H 0.51070 0.22050 0.54203
 H329 H 0.53976 0.21976 0.57682
 H330 H 0.57353 0.28667 0.54975
 H331 H 0.54471 0.28717 0.51512
 H332 H 0.54233 0.21678 0.49130
 H333 H 0.56902 0.21389 0.45512
 H334 H 0.53890 0.28220 0.42737
 H335 H 0.51206 0.28498 0.46381
 H336 H 0.42271 0.22308 0.55167
 C337 C 1.00255 0.01694 0.24934
 C338 C 1.00143 -0.00798 0.25149
 C339 C 0.97747 -0.02090 0.25338
 C340 C 1.02358 -0.02404 0.25218
 C341 C 1.02611 0.03080 0.24780
 C342 C 0.97987 0.03220 0.25009
 C343 C 0.96633 -0.02455 0.27637
 C344 C 0.94570 -0.03986 0.27848
 C345 C 0.93529 -0.05127 0.25746
 C346 C 0.94590 -0.04614 0.23421
 C347 C 0.96703 -0.03156 0.23232
 C348 C 1.02631 -0.04077 0.27167
 C349 C 1.04474 -0.05860 0.27119
 C350 C 1.06121 -0.06037 0.25111
 C351 C 1.05930 -0.04244 0.23221
 C352 C 1.04052 -0.02467 0.23264
 C353 C 1.02910 0.04835 0.22901
 C354 C 1.04934 0.06423 0.22902
 C355 C 1.06702 0.06301 0.24792
 C356 C 1.06452 0.04483 0.26629
 C357 C 1.04414 0.02895 0.26632
 C358 C 0.96246 0.03139 0.23093
 C359 C 0.94221 0.04738 0.23112
 C360 C 0.93930 0.06462 0.25030
 C361 C 0.95654 0.06498 0.26966
 C362 C 0.97664 0.04897 0.26951
 H363 H 0.97414 -0.01623 0.29279
 H364 H 0.93775 -0.04237 0.29662
 H365 H 0.93911 -0.05482 0.21754
 H366 H 0.97565 -0.02907 0.21446
 H367 H 1.01385 -0.04033 0.28726
 H368 H 1.04614 -0.07074 0.28697
 H369 H 1.03857 -0.01210 0.21723
 H370 H 1.01536 0.05017 0.21462
 H371 H 1.05097 0.07778 0.21442
 H372 H 1.07775 0.04362 0.28120
 H373 H 1.04191 0.01595 0.28133
 H374 H 0.96496 0.01894 0.21551
 H375 H 0.92936 0.04693 0.21583
 H376 H 0.95460 0.07787 0.28481
 H377 H 0.98994 0.04987 0.28440
 H378 H 1.07111 -0.04301 0.21615
 C379 C 0.50315 0.51325 0.75085
 C380 C 0.50203 0.48833 0.75286
 C381 C 0.52415 0.47224 0.75289
 C382 C 0.47813 0.47547 0.75534
 C383 C 0.48061 0.52870 0.75200
 C384 C 0.52670 0.52695 0.74855
 C385 C 0.54081 0.47203 0.73305
 C386 C 0.55983 0.45455 0.73225
 C387 C 0.56222 0.43688 0.75112
 C388 C 0.54600 0.43773 0.77126
 C389 C 0.52719 0.45518 0.77212
 C390 C 0.46867 0.46231 0.73519
 C391 C 0.44739 0.44810 0.73784
 C392 C 0.43569 0.44635 0.76086
 C393 C 0.44496 0.45986 0.78096
 C394 C 0.46595 0.47458 0.77814
 C395 C 0.47863 0.54665 0.77053
 C396 C 0.45888 0.56308 0.77067
 C397 C 0.44074 0.56197 0.75220
 C398 C 0.44233 0.54352 0.73402
 C399 C 0.46223 0.52709 0.73383
 C400 C 0.54508 0.52536 0.76673
 C401 C 0.56538 0.54131 0.76609
 C402 C 0.56741 0.55926 0.74745
 C403 C 0.54943 0.56013 0.72883
 C404 C 0.52929 0.54418 0.72942
 H405 H 0.53857 0.48477 0.71783
 H406 H 0.57204 0.45420 0.71645
 H407 H 0.54768 0.42463 0.78626
 H408 H 0.51465 0.45506 0.78766
 H409 H 0.47805 0.46273 0.71755
 H410 H 0.44066 0.43760 0.72221
 H411 H 0.47323 0.48453 0.79387
 H412 H 0.49267 0.54819 0.78466
 H413 H 0.45795 0.57691 0.78508
 H414 H 0.42873 0.54244 0.71943
 H415 H 0.46372 0.51370 0.71907
 H416 H 0.54317 0.51256 0.78195
 H417 H 0.57889 0.54039 0.78077
 H418 H 0.55073 0.57350 0.71404
 H419 H 0.51525 0.54575 0.71528
 H420 H 0.43618 0.45867 0.79887
 C421 C 1.01626 1.00105 0.74831
 C422 C 0.99128 1.00182 0.74695
 C423 C 0.97601 0.97910 0.74674
 C424 C 0.97725 1.02528 0.74537
 C425 C 1.03160 1.02366 0.75026
 C426 C 1.03018 0.97746 0.74739
 C427 C 0.97767 0.96176 0.72755
 C428 C 0.96127 0.94181 0.72660
 C429 C 0.94282 0.93914 0.74464
 C430 C 0.94160 0.95630 0.76403
 C431 C 0.95798 0.97609 0.76502
 C432 C 0.96040 1.02824 0.72604
 C433 C 0.94451 1.04838 0.72549
 C434 C 0.94490 1.06634 0.74437
 C435 C 0.96285 1.06387 0.76317
 C436 C 0.97861 1.04339 0.76381
 C437 C 1.04831 1.02564 0.76991
 C438 C 1.06519 1.04500 0.77081
 C439 C 1.06582 1.06279 0.75199
 C440 C 1.04851 1.06134 0.73271
 C441 C 1.03162 1.04179 0.73175
 C442 C 1.02690 0.95884 0.76505
 C443 C 1.04180 0.93773 0.76472
 C444 C 1.06079 0.93503 0.74702
 C445 C 1.06329 0.95369 0.72898
 C446 C 1.04828 0.97452 0.72925
 H447 H 0.99116 0.96406 0.71301
 H448 H 0.96247 0.92898 0.71133
 H449 H 0.92784 0.95449 0.77839
 H450 H 0.95637 0.98935 0.77989
 H451 H 0.95923 1.01459 0.71146
 H452 H 0.93219 1.04989 0.70987
 H453 H 0.99116 1.04121 0.77919
 H454 H 1.04862 1.01179 0.78433
 H455 H 1.07807 1.04586 0.78606
 H456 H 1.04875 1.07472 0.71787
 H457 H 1.01920 1.04033 0.71617
 H458 H 1.01331 0.96098 0.77952
 H459 H 1.03928 0.92441 0.77935
 H460 H 1.07649 0.95217 0.71411
 H461 H 1.05093 0.98857 0.71528
 H462 H 0.96377 1.07672 0.77842
 C463 C 0.51513 0.50454 0.25037
 C464 C 0.49019 0.50474 0.24866
 C465 C 0.47591 0.48152 0.24761
 C466 C 0.47536 0.52769 0.24844
 C467 C 0.53010 0.52733 0.25303
 C468 C 0.52922 0.48112 0.24881
 C469 C 0.47204 0.46925 0.22514
 C470 C 0.45621 0.44887 0.22408
 C471 C 0.44460 0.44028 0.24558
 C472 C 0.44914 0.45214 0.26814
 C473 C 0.46441 0.47284 0.26907
 C474 C 0.45856 0.53145 0.22912
 C475 C 0.44181 0.55088 0.23001
 C476 C 0.44147 0.56702 0.25026
 C477 C 0.45897 0.56395 0.26917
 C478 C 0.47571 0.54428 0.26835
 C479 C 0.54716 0.52880 0.27242
 C480 C 0.56383 0.54834 0.27375
 C481 C 0.56394 0.56684 0.25560
 C482 C 0.54622 0.56592 0.23665
 C483 C 0.52950 0.54622 0.23529
 C484 C 0.52740 0.46299 0.26722
 C485 C 0.54213 0.44182 0.26613
 C486 C 0.55914 0.43867 0.24681
 C487 C 0.56062 0.45674 0.22828
 C488 C 0.54585 0.47777 0.22932
 H489 H 0.48067 0.47591 0.20840
 H490 H 0.45287 0.43991 0.20652
 H491 H 0.44018 0.44586 0.28486
 H492 H 0.46708 0.48232 0.28648
 H493 H 0.45802 0.51895 0.21353
 H494 H 0.42881 0.55310 0.21500
 H495 H 0.48825 0.54146 0.28364
 H496 H 0.54795 0.51441 0.28627
 H497 H 0.57698 0.54876 0.28878
 H498 H 0.54602 0.57982 0.22230
 H499 H 0.51679 0.54521 0.21991
 H500 H 0.51510 0.46554 0.28272
 H501 H 0.54085 0.42835 0.28083
 H502 H 0.57336 0.45468 0.21304
 H503 H 0.54756 0.49163 0.21501
 H504 H 0.45899 0.57610 0.28504
 O505 O 0.25615 0.18712 0.21073
 O506 O 0.28466 0.18033 0.24417
 O507 O 0.19337 0.21670 0.24778
 O508 O 0.18519 0.24886 0.27255
 O509 O 0.22096 0.25107 0.18156
 O510 O 0.25495 0.27846 0.17370
 O511 O 0.26100 0.28564 0.30815
 O512 O 0.23125 0.25397 0.31589
 O513 O 0.32179 0.25158 0.27699
 O514 O 0.32816 0.22379 0.24130
 O515 O 0.29128 0.31486 0.24389
 O516 O 0.25482 0.32203 0.21687
 O517 O 0.25870 0.31514 0.27841
 O518 O 0.23012 0.32271 0.24428
 O519 O 0.32071 0.28504 0.24473
 O520 O 0.32744 0.25029 0.21535
 O521 O 0.29295 0.25272 0.30731
 O522 O 0.25929 0.22441 0.31631
 O523 O 0.25635 0.21665 0.18089
 O524 O 0.28233 0.25125 0.17279
 O525 O 0.19247 0.25046 0.21232
 O526 O 0.18751 0.27978 0.24620
 O527 O 0.22308 0.18717 0.24683
 O528 O 0.25818 0.18015 0.27232
 Zr529 Zr 0.25626 0.20701 0.24411
 O530 O 0.27993 0.22821 0.26639
 Zr531 Zr 0.21298 0.25019 0.24519
 O532 O 0.23475 0.27345 0.26756
 Zr533 Zr 0.25494 0.25012 0.20050
 O534 O 0.27865 0.27325 0.22089
 Zr535 Zr 0.25913 0.25213 0.28868
 O536 O 0.23520 0.22861 0.26864
 Zr537 Zr 0.30105 0.25173 0.24410
 O538 O 0.27941 0.22839 0.22145
 Zr539 Zr 0.25776 0.29518 0.24508
 O540 O 0.23378 0.27399 0.22258
 O541 O 0.23271 0.22724 0.22174
 O542 O 0.28155 0.27509 0.26757
 C543 C 0.25656 0.19403 0.18802
 C544 C 0.20046 0.19403 0.24815
 C545 C 0.19858 0.25098 0.18942
 C546 C 0.26039 0.30826 0.30104
 C547 C 0.31537 0.25236 0.29981
 C548 C 0.31386 0.30770 0.24437
 H549 H 0.29043 0.21705 0.27623
 H550 H 0.28851 0.28339 0.20940
 H551 H 0.22192 0.21649 0.21165
 H552 H 0.22407 0.28363 0.27827
 H553 H 0.21857 0.24166 0.31123
 H554 H 0.19061 0.25941 0.28644
 H555 H 0.32426 0.26425 0.20404
 H556 H 0.29600 0.24068 0.17865
 H557 H 0.27196 0.21205 0.31197
 H558 H 0.24767 0.18621 0.28597
 H559 H 0.26797 0.31879 0.20465
 H560 H 0.24347 0.29132 0.17971
 H561 H 0.29705 0.18592 0.23198
 H562 H 0.32504 0.21163 0.25453
 H563 H 0.19234 0.29146 0.23301
 H564 H 0.21792 0.31868 0.25722
 O565 O 0.74907 0.82158 0.22178
 O566 O 0.72212 0.82836 0.25614
 O567 O 0.81374 0.79353 0.25995
 O568 O 0.82396 0.76104 0.28242
 O569 O 0.78592 0.75655 0.19307
 O570 O 0.75138 0.73017 0.18554
 O571 O 0.74961 0.72419 0.32056
 O572 O 0.77829 0.75718 0.32711
 O573 O 0.68698 0.75578 0.29008
 O574 O 0.67975 0.78433 0.25392
 O575 O 0.71803 0.69372 0.25732
 O576 O 0.75393 0.68670 0.22966
 O577 O 0.75017 0.69461 0.29086
 O578 O 0.77935 0.68720 0.25658
 O579 O 0.68776 0.72260 0.25645
 O580 O 0.67925 0.75676 0.22908
 O581 O 0.71626 0.75706 0.32002
 O582 O 0.74908 0.78538 0.32812
 O583 O 0.75215 0.79185 0.19226
 O584 O 0.72433 0.75785 0.18512
 O585 O 0.81518 0.75946 0.22298
 O586 O 0.82070 0.73024 0.25738
 O587 O 0.78371 0.82260 0.25598
 O588 O 0.74949 0.82902 0.28351
 Zr589 Zr 0.75085 0.80206 0.25533
 O590 O 0.72799 0.78065 0.27826
 Zr591 Zr 0.79504 0.75965 0.25626
 O592 O 0.77406 0.73639 0.27932
 Zr593 Zr 0.75230 0.75858 0.21228
 O594 O 0.72940 0.73522 0.23325
 Zr595 Zr 0.74967 0.75753 0.30060
 O596 O 0.77275 0.78117 0.27978
 Zr597 Zr 0.70689 0.75639 0.25664
 O598 O 0.72766 0.77996 0.23334
 Zr599 Zr 0.75106 0.71408 0.25740
 O600 O 0.77423 0.73532 0.23422
 O601 O 0.77457 0.78199 0.23289
 O602 O 0.72726 0.73385 0.28016
 C603 C 0.75039 0.81449 0.19917
 C604 C 0.80628 0.81602 0.25868
 C605 C 0.80848 0.75739 0.20029
 C606 C 0.74956 0.70153 0.31352
 C607 C 0.69373 0.75630 0.31284
 C608 C 0.69523 0.70011 0.25693
 H609 H 0.71742 0.79172 0.28814
 H610 H 0.71960 0.72475 0.22199
 H611 H 0.78518 0.79266 0.22255
 H612 H 0.78511 0.72654 0.28996
 H613 H 0.79036 0.76992 0.32202
 H614 H 0.81827 0.75214 0.29730
 H615 H 0.68466 0.74563 0.21567
 H616 H 0.71149 0.76961 0.19059
 H617 H 0.73763 0.79847 0.32270
 H618 H 0.76139 0.82379 0.29633
 H619 H 0.74035 0.68931 0.21777
 H620 H 0.76243 0.71699 0.19163
 H621 H 0.70913 0.82217 0.24490
 H622 H 0.68163 0.79544 0.26829
 H623 H 0.81606 0.71857 0.24410
 H624 H 0.79108 0.69105 0.27002
 O625 O 0.75731 0.18574 0.78154
 O626 O 0.72994 0.17767 0.74825
 O627 O 0.81871 0.22007 0.74674
 O628 O 0.82555 0.25261 0.72258
 O629 O 0.78801 0.25162 0.81269
 O630 O 0.75297 0.27573 0.82134
 O631 O 0.74872 0.28500 0.68569
 O632 O 0.77807 0.25470 0.67730
 O633 O 0.68835 0.24821 0.71715
 O634 O 0.68216 0.22071 0.75128
 O635 O 0.71618 0.31257 0.74948
 O636 O 0.75076 0.32200 0.77663
 O637 O 0.74793 0.31422 0.71574
 O638 O 0.77760 0.32214 0.75089
 O639 O 0.68795 0.28164 0.75010
 O640 O 0.68370 0.24506 0.77924
 O641 O 0.71675 0.25103 0.68651
 O642 O 0.75239 0.22344 0.67790
 O643 O 0.75537 0.21446 0.81211
 O644 O 0.72635 0.24785 0.82017
 O645 O 0.81706 0.25323 0.78249
 O646 O 0.82029 0.28345 0.74823
 O647 O 0.79076 0.18878 0.74612
 O648 O 0.75570 0.18057 0.71960
 Zr649 Zr 0.75627 0.20643 0.74884
 O650 O 0.73125 0.22664 0.72721
 Zr651 Zr 0.79703 0.25206 0.74918
 O652 O 0.77426 0.27395 0.72651
 Zr653 Zr 0.75461 0.24863 0.79333
 O654 O 0.73034 0.27129 0.77316
 Zr655 Zr 0.75090 0.25160 0.70509
 O656 O 0.77630 0.22960 0.72500
 Zr657 Zr 0.70904 0.24898 0.74979
 O658 O 0.73166 0.22598 0.77173
 Zr659 Zr 0.75025 0.29430 0.74907
 O660 O 0.77469 0.27414 0.77194
 O661 O 0.77836 0.22757 0.77192
 O662 O 0.72743 0.27331 0.72639
 C663 C 0.75647 0.19200 0.80439
 C664 C 0.81297 0.19708 0.74571
 C665 C 0.81045 0.25309 0.80529
 C666 C 0.74756 0.30752 0.69297
 C667 C 0.69442 0.24946 0.69430
 C668 C 0.69390 0.30462 0.74969
 H669 H 0.72122 0.21508 0.71730
 H670 H 0.72001 0.28090 0.78469
 H671 H 0.78966 0.21737 0.78198
 H672 H 0.78453 0.28468 0.71593
 H673 H 0.79195 0.24399 0.68236
 H674 H 0.81919 0.26153 0.70800
 H675 H 0.68506 0.25983 0.78989
 H676 H 0.71447 0.23502 0.81488
 H677 H 0.73883 0.21164 0.68100
 H678 H 0.76692 0.18702 0.70672
 H679 H 0.73897 0.31709 0.78965
 H680 H 0.76214 0.29021 0.81503
 H681 H 0.71668 0.18260 0.75978
 H682 H 0.68746 0.20746 0.73992
 H683 H 0.81552 0.29411 0.76228
 H684 H 0.78814 0.32060 0.73609
 O685 O 0.24292 0.80731 0.78560
 O686 O 0.26949 0.81553 0.75113
 O687 O 0.17978 0.77474 0.75087
 O688 O 0.17218 0.74247 0.72626
 O689 O 0.21154 0.74326 0.81574
 O690 O 0.24603 0.71587 0.82228
 O691 O 0.24876 0.70913 0.68775
 O692 O 0.21746 0.73929 0.68088
 O693 O 0.30871 0.74622 0.71712
 O694 O 0.31565 0.77325 0.75241
 O695 O 0.28181 0.68101 0.75037
 O696 O 0.24721 0.67212 0.77877
 O697 O 0.24824 0.67954 0.71747
 O698 O 0.22086 0.67103 0.75276
 O699 O 0.31000 0.71200 0.74995
 O700 O 0.31618 0.74754 0.77869
 O701 O 0.27922 0.74355 0.68745
 O702 O 0.24372 0.77052 0.68009
 O703 O 0.24554 0.77768 0.81517
 O704 O 0.27300 0.74386 0.82230
 O705 O 0.18171 0.74059 0.78631
 O706 O 0.17708 0.71134 0.75201
 O707 O 0.20835 0.80547 0.75034
 O708 O 0.24238 0.81423 0.72385
 Zr709 Zr 0.24252 0.78737 0.75213
 O710 O 0.26637 0.76726 0.72911
 Zr711 Zr 0.20102 0.74223 0.75255
 O712 O 0.22305 0.72017 0.72919
 Zr713 Zr 0.24462 0.74427 0.79557
 O714 O 0.26843 0.72212 0.77440
 Zr715 Zr 0.24594 0.74250 0.70734
 O716 O 0.22160 0.76476 0.72834
 Zr717 Zr 0.28916 0.74462 0.75063
 O718 O 0.26740 0.76708 0.77394
 Zr719 Zr 0.24763 0.69940 0.75082
 O720 O 0.22366 0.71943 0.77433
 O721 O 0.22065 0.76612 0.77521
 O722 O 0.26995 0.72048 0.72766
 C723 C 0.24458 0.80034 0.80825
 C724 C 0.18599 0.79764 0.74991
 C725 C 0.18891 0.74166 0.80890
 C726 C 0.24921 0.68651 0.69485
 C727 C 0.30177 0.74536 0.69446
 C728 C 0.30411 0.68904 0.75001
 H729 H 0.27606 0.77894 0.71901
 H730 H 0.27906 0.71239 0.78555
 H731 H 0.20984 0.77651 0.78562
 H732 H 0.21247 0.70957 0.71877
 H733 H 0.20421 0.75074 0.68606
 H734 H 0.17768 0.73254 0.71197
 H735 H 0.31411 0.73338 0.79002
 H736 H 0.28585 0.75539 0.81636
 H737 H 0.25645 0.78308 0.68371
 H738 H 0.23163 0.80774 0.71059
 H739 H 0.26001 0.67649 0.79102
 H740 H 0.23453 0.70284 0.81665
 H741 H 0.28269 0.81049 0.76268
 H742 H 0.31085 0.78602 0.74029
 H743 H 0.18260 0.70004 0.76525
 H744 H 0.20855 0.67407 0.73965
 O745 O 0.24865 0.31950 0.72343
 O746 O 0.22074 0.32477 0.75755
 O747 O 0.31322 0.29168 0.76175
 O748 O 0.32366 0.25876 0.78370
 O749 O 0.28664 0.25687 0.69382
 O750 O 0.25327 0.22869 0.68564
 O751 O 0.25047 0.21957 0.82002
 O752 O 0.27829 0.25379 0.82730
 O753 O 0.18707 0.25098 0.78996
 O754 O 0.17909 0.27991 0.75534
 O755 O 0.21935 0.19029 0.75580
 O756 O 0.25564 0.18477 0.72795
 O757 O 0.25177 0.19083 0.78954
 O758 O 0.28061 0.18453 0.75526
 O759 O 0.18866 0.21876 0.75546
 O760 O 0.18024 0.25431 0.72849
 O761 O 0.21628 0.25005 0.81999
 O762 O 0.24423 0.27989 0.82896
 O763 O 0.25099 0.29019 0.69353
 O764 O 0.22537 0.25538 0.68515
 O765 O 0.31555 0.25871 0.72412
 O766 O 0.32157 0.22898 0.75796
 O767 O 0.28282 0.32034 0.75815
 O768 O 0.24688 0.32616 0.78492
 Zr769 Zr 0.25023 0.29932 0.75673
 O770 O 0.22781 0.27681 0.77912
 Zr771 Zr 0.29512 0.25767 0.75714
 O772 O 0.27451 0.23326 0.77926
 Zr773 Zr 0.25282 0.25670 0.71281
 O774 O 0.23013 0.23254 0.73296
 Zr775 Zr 0.24958 0.25332 0.80086
 O776 O 0.27227 0.27826 0.78102
 Zr777 Zr 0.20717 0.25284 0.75672
 O778 O 0.22767 0.27725 0.73410
 Zr779 Zr 0.25209 0.21113 0.75658
 O780 O 0.27512 0.23341 0.73429
 O781 O 0.27442 0.28016 0.73407
 O782 O 0.22779 0.22988 0.77960
 C783 C 0.24928 0.31273 0.70067
 C784 C 0.30547 0.31408 0.76100
 C785 C 0.30913 0.25777 0.70129
 C786 C 0.25103 0.19711 0.81238
 C787 C 0.19380 0.24964 0.81268
 C788 C 0.19646 0.19638 0.75536
 H789 H 0.21726 0.28731 0.78965
 H790 H 0.22056 0.22224 0.72134
 H791 H 0.28480 0.29134 0.72404
 H792 H 0.28574 0.22338 0.78968
 H793 H 0.28853 0.26850 0.82374
 H794 H 0.31728 0.25071 0.79877
 H795 H 0.18470 0.24191 0.71586
 H796 H 0.21168 0.26596 0.69096
 H797 H 0.25326 0.29482 0.82376
 H798 H 0.26103 0.32400 0.79624
 H799 H 0.24198 0.18741 0.71615
 H800 H 0.26525 0.21613 0.69130
 H801 H 0.20826 0.31864 0.74571
 H802 H 0.18184 0.29155 0.76914
 H803 H 0.31736 0.21745 0.74442
 H804 H 0.29270 0.18873 0.76826
 O805 O 0.75355 0.68588 0.70555
 O806 O 0.78320 0.67834 0.73797
 O807 O 0.69185 0.71432 0.74416
 O808 O 0.68366 0.74582 0.76964
 O809 O 0.71872 0.75038 0.67853
 O810 O 0.75242 0.77836 0.67126
 O811 O 0.75858 0.78140 0.80587
 O812 O 0.73046 0.74878 0.81299
 O813 O 0.82050 0.74898 0.77300
 O814 O 0.82653 0.72172 0.73669
 O815 O 0.78964 0.81260 0.74259
 O816 O 0.75316 0.82077 0.71589
 O817 O 0.75749 0.81182 0.77707
 O818 O 0.72840 0.82039 0.74336
 O819 O 0.81908 0.78293 0.74036
 O820 O 0.82559 0.74852 0.71132
 O821 O 0.79193 0.75000 0.80364
 O822 O 0.75883 0.71978 0.81182
 O823 O 0.75396 0.71632 0.67662
 O824 O 0.77991 0.75123 0.66921
 O825 O 0.69049 0.74980 0.70950
 O826 O 0.68583 0.77746 0.74468
 O827 O 0.72170 0.68496 0.74254
 O828 O 0.75734 0.67720 0.76676
 Zr829 Zr 0.75470 0.70489 0.73943
 O830 O 0.77859 0.72542 0.76212
 Zr831 Zr 0.71131 0.74797 0.74220
 O832 O 0.73329 0.77049 0.76508
 Zr833 Zr 0.75283 0.74921 0.69717
 O834 O 0.77671 0.77174 0.71800
 Zr835 Zr 0.75792 0.74859 0.78530
 O836 O 0.73383 0.72573 0.76476
 Zr837 Zr 0.79943 0.74960 0.74027
 O838 O 0.77759 0.72692 0.71715
 Zr839 Zr 0.75612 0.79292 0.74312
 O840 O 0.73192 0.77244 0.72017
 O841 O 0.73080 0.72572 0.71794
 O842 O 0.78017 0.77220 0.76471
 C843 C 0.75379 0.69351 0.68308
 C844 C 0.69908 0.69169 0.74425
 C845 C 0.69641 0.75075 0.68654
 C846 C 0.75842 0.80425 0.79953
 C847 C 0.81427 0.74982 0.79588
 C848 C 0.81225 0.80557 0.74140
 H849 H 0.78924 0.71407 0.77156
 H850 H 0.78642 0.78221 0.70667
 H851 H 0.71978 0.71531 0.70774
 H852 H 0.72264 0.78028 0.77617
 H853 H 0.71778 0.73665 0.80790
 H854 H 0.68955 0.75527 0.78411
 H855 H 0.82163 0.76200 0.69968
 H856 H 0.79338 0.74000 0.67425
 H857 H 0.77290 0.70883 0.80804
 H858 H 0.74771 0.68317 0.78108
 H859 H 0.76611 0.81778 0.70340
 H860 H 0.74106 0.79103 0.67788
 H861 H 0.79528 0.68436 0.72567
 H862 H 0.82355 0.70929 0.74971
 H863 H 0.69060 0.78973 0.73202
 H864 H 0.71656 0.81621 0.75660
 O865 O 0.24816 0.68687 0.28654
 O866 O 0.22190 0.67664 0.25343
 O867 O 0.31121 0.71735 0.24873
 O868 O 0.31889 0.74825 0.22290
 O869 O 0.28151 0.75385 0.31270
 O870 O 0.24696 0.77973 0.31935
 O871 O 0.24286 0.77865 0.18346
 O872 O 0.27151 0.74717 0.17749
 O873 O 0.18161 0.74706 0.21727
 O874 O 0.17529 0.72037 0.25346
 O875 O 0.21054 0.81168 0.24532
 O876 O 0.24516 0.82262 0.27112
 O877 O 0.24176 0.81007 0.21125
 O878 O 0.27236 0.81986 0.24564
 O879 O 0.18178 0.78143 0.24893
 O880 O 0.17635 0.74694 0.27918
 O881 O 0.21013 0.74505 0.18662
 O882 O 0.24527 0.71665 0.18028
 O883 O 0.24813 0.71785 0.31487
 O884 O 0.21975 0.75218 0.32045
 O885 O 0.31052 0.75230 0.28246
 O886 O 0.31394 0.78074 0.24636
 O887 O 0.28292 0.68650 0.25160
 O888 O 0.24798 0.67709 0.22502
 Zr889 Zr 0.24865 0.70498 0.25233
 O890 O 0.22400 0.72399 0.22918
 Zr891 Zr 0.29025 0.74980 0.24933
 O892 O 0.26788 0.77030 0.22503
 Zr893 Zr 0.24793 0.75046 0.29357
 O894 O 0.22402 0.77192 0.27174
 Zr895 Zr 0.24418 0.74678 0.20530
 O896 O 0.26915 0.72592 0.22689
 Zr897 Zr 0.20225 0.74842 0.25000
 O898 O 0.22449 0.72676 0.27366
 Zr899 Zr 0.24425 0.79274 0.24598
 O900 O 0.26839 0.77396 0.27036
 O901 O 0.27115 0.72735 0.27378
 O902 O 0.22111 0.77051 0.22486
 C903 C 0.24791 0.69485 0.30887
 C904 C 0.30524 0.69444 0.25006
 C905 C 0.30398 0.75383 0.30523
 C906 C 0.24169 0.80163 0.18907
 C907 C 0.18777 0.74573 0.19443
 C908 C 0.18815 0.80419 0.24677
 H909 H 0.21373 0.71197 0.22010
 H910 H 0.21393 0.78253 0.28259
 H911 H 0.28214 0.71757 0.28458
 H912 H 0.27834 0.78002 0.21370
 H913 H 0.28523 0.73673 0.18350
 H914 H 0.31264 0.75606 0.20766
 H915 H 0.17910 0.76148 0.28987
 H916 H 0.20760 0.73926 0.31608
 H917 H 0.23190 0.70503 0.18460
 H918 H 0.25970 0.68224 0.21201
 H919 H 0.23422 0.81840 0.28509
 H920 H 0.25698 0.79323 0.31221
 H921 H 0.20794 0.68319 0.26318
 H922 H 0.17883 0.70756 0.24095
 H923 H 0.30964 0.79215 0.25996
 H924 H 0.28231 0.81745 0.23054
 O925 O 0.73897 0.30737 0.28354
 O926 O 0.76736 0.31612 0.25049
 O927 O 0.67721 0.27668 0.24551
 O928 O 0.67028 0.24508 0.21961
 O929 O 0.70616 0.24156 0.31040
 O930 O 0.74069 0.21493 0.31773
 O931 O 0.74655 0.21209 0.18306
 O932 O 0.71658 0.24337 0.17622
 O933 O 0.80670 0.24651 0.21562
 O934 O 0.81264 0.27376 0.25151
 O935 O 0.77847 0.18180 0.24607
 O936 O 0.74231 0.17262 0.27313
 O937 O 0.74623 0.18168 0.21189
 O938 O 0.71754 0.17202 0.24553
 O939 O 0.80672 0.21265 0.24807
 O940 O 0.81220 0.24753 0.27735
 O941 O 0.77826 0.24557 0.18488
 O942 O 0.74378 0.27362 0.17699
 O943 O 0.74046 0.27684 0.31233
 O944 O 0.76733 0.24268 0.31951
 O945 O 0.67736 0.24188 0.27993
 O946 O 0.67363 0.21335 0.24508
 O947 O 0.70608 0.30705 0.24725
 O948 O 0.74103 0.31618 0.22216
 Zr949 Zr 0.73990 0.28844 0.24956
 O950 O 0.76430 0.26877 0.22673
 Zr951 Zr 0.69799 0.24384 0.24708
 O952 O 0.72060 0.22213 0.22400
 Zr953 Zr 0.74002 0.24397 0.29171
 O954 O 0.76441 0.22226 0.27078
 Zr955 Zr 0.74433 0.24490 0.20359
 O956 O 0.71958 0.26688 0.22435
 Zr957 Zr 0.78606 0.24529 0.24841
 O958 O 0.76374 0.26723 0.27163
 Zr959 Zr 0.74432 0.20045 0.24579
 O960 O 0.71963 0.22008 0.26891
 O961 O 0.71702 0.26673 0.27122
 O962 O 0.76747 0.22205 0.22405
 C963 C 0.73983 0.29968 0.30599
 C964 C 0.68367 0.29954 0.24572
 C965 C 0.68373 0.24106 0.30277
 C966 C 0.74714 0.18927 0.18945
 C967 C 0.80060 0.24620 0.19270
 C968 C 0.80079 0.18974 0.24710
 H969 H 0.77450 0.28052 0.21727
 H970 H 0.77456 0.21215 0.28204
 H971 H 0.70590 0.27681 0.28160
 H972 H 0.71026 0.21194 0.21295
 H973 H 0.70347 0.25498 0.18139
 H974 H 0.67610 0.23516 0.20544
 H975 H 0.80933 0.23344 0.28860
 H976 H 0.78045 0.25431 0.31443
 H977 H 0.75657 0.28585 0.18142
 H978 H 0.73090 0.31009 0.20823
 H979 H 0.75545 0.17585 0.28537
 H980 H 0.72984 0.20179 0.31115
 H981 H 0.78005 0.31044 0.26232
 H982 H 0.80884 0.28637 0.23888
 H983 H 0.67883 0.20149 0.25796
 H984 H 0.70536 0.17597 0.23254
 C985 C 0.25404 0.11768 0.11278
 C986 C 0.24195 0.09548 0.11903
 C987 C 0.23969 0.07649 0.10159
 C988 C 0.24988 0.07855 0.07760
 C989 C 0.26280 0.10055 0.07207
 C990 C 0.26466 0.11975 0.08920
 C991 C 0.25529 0.13782 0.13177
 C992 C 0.26502 0.16142 0.12678
 C993 C 0.26546 0.17961 0.14506
 C994 C 0.25652 0.17465 0.16883
 C995 C 0.24679 0.15124 0.17398
 C996 C 0.24573 0.13302 0.15560
 C997 C 0.23253 0.09206 0.14286
 C998 C 0.23468 0.11028 0.16085
 H999 H 0.22347 0.07491 0.14777
 H1000 H 0.22722 0.10666 0.17904
 H1001 H 0.23118 0.05947 0.10765
 H1002 H 0.27048 0.10395 0.05399
 H1003 H 0.27296 0.19759 0.14061
 H1004 H 0.23938 0.14738 0.19216
 H1005 H 0.27452 0.13609 0.08356
 H1006 H 0.27205 0.16634 0.10883
 C1007 C 0.74776 0.62069 0.60492
 C1008 C 0.73235 0.60002 0.60920
 C1009 C 0.72987 0.58170 0.59107
 C1010 C 0.74336 0.58309 0.56911
 C1011 C 0.75906 0.60317 0.56505
 C1012 C 0.76111 0.62191 0.58262
 C1013 C 0.74976 0.63993 0.62469
 C1014 C 0.76281 0.66219 0.62146
 C1015 C 0.76415 0.67951 0.64049
 C1016 C 0.75289 0.67490 0.66328
 C1017 C 0.73973 0.65290 0.66668
 C1018 C 0.73765 0.63568 0.64744
 C1019 C 0.72017 0.59734 0.63182
 C1020 C 0.72311 0.61457 0.65069
 H1021 H 0.70854 0.58142 0.63516
 H1022 H 0.71361 0.61146 0.66801
 H1023 H 0.71819 0.56579 0.59442
 H1024 H 0.76984 0.60425 0.54826
 H1025 H 0.77419 0.69652 0.63742
 H1026 H 0.73043 0.64954 0.68408
 H1027 H 0.77363 0.63684 0.57863
 H1028 H 0.77178 0.66676 0.60430
 C1029 C 0.75456 0.88984 0.12314
 C1030 C 0.77020 0.88514 0.10274
 C1031 C 0.77210 0.90242 0.08355
 C1032 C 0.75783 0.92395 0.08380
 C1033 C 0.74197 0.92840 0.10368
 C1034 C 0.74047 0.91170 0.12325
 C1035 C 0.75314 0.87090 0.14328
 C1036 C 0.73974 0.87460 0.16527
 C1037 C 0.73886 0.85628 0.18339
 C1038 C 0.75095 0.83370 0.17987
 C1039 C 0.76452 0.82991 0.15817
 C1040 C 0.76610 0.84845 0.14016
 C1041 C 0.78324 0.86289 0.10122
 C1042 C 0.78090 0.84477 0.11931
 H1043 H 0.79507 0.85922 0.08554
 H1044 H 0.79105 0.82770 0.11706
 H1045 H 0.78396 0.89871 0.06787
 H1046 H 0.73064 0.94485 0.10399
 H1047 H 0.72850 0.85969 0.20013
 H1048 H 0.77446 0.81274 0.15562
 H1049 H 0.72780 0.91598 0.13797
 H1050 H 0.73009 0.89159 0.16899
 C1051 C 0.24914 0.38693 0.62303
 C1052 C 0.25498 0.37855 0.59897
 C1053 C 0.25598 0.39524 0.57925
 C1054 C 0.25110 0.42038 0.58290
 C1055 C 0.24484 0.42866 0.60660
 C1056 C 0.24392 0.41220 0.62646
 C1057 C 0.24875 0.36842 0.64365
 C1058 C 0.24403 0.37480 0.66846
 C1059 C 0.24412 0.35679 0.68696
 C1060 C 0.24876 0.33197 0.68121
 C1061 C 0.25347 0.32552 0.65656
 C1062 C 0.25365 0.34342 0.63792
 C1063 C 0.25974 0.35354 0.59462
 C1064 C 0.25897 0.33634 0.61365
 H1065 H 0.26411 0.34715 0.57618
 H1066 H 0.26277 0.31719 0.60931
 H1067 H 0.26034 0.38860 0.56088
 H1068 H 0.24104 0.44801 0.60986
 H1069 H 0.24050 0.36235 0.70582
 H1070 H 0.25736 0.30647 0.65179
 H1071 H 0.23913 0.41963 0.64429
 H1072 H 0.24040 0.39356 0.67399
 C1073 C 0.75885 0.11274 0.87668
 C1074 C 0.74870 0.11784 0.90013
 C1075 C 0.74785 0.09937 0.91824
 C1076 C 0.75744 0.07555 0.91383
 C1077 C 0.76824 0.07095 0.89063
 C1078 C 0.76880 0.08913 0.87234
 C1079 C 0.75873 0.13286 0.85764
 C1080 C 0.76690 0.12923 0.83324
 C1081 C 0.76613 0.14845 0.81613
 C1082 C 0.75739 0.17189 0.82286
 C1083 C 0.74929 0.17575 0.84713
 C1084 C 0.74958 0.15640 0.86439
 C1085 C 0.73973 0.14147 0.90558
 C1086 C 0.74040 0.16039 0.88819
 H1087 H 0.73215 0.14546 0.92365
 H1088 H 0.73331 0.17836 0.89338
 H1089 H 0.74066 0.10420 0.93624
 H1090 H 0.77546 0.05294 0.88597
 H1091 H 0.77256 0.14493 0.79754
 H1092 H 0.74224 0.19369 0.85248
 H1093 H 0.77712 0.08426 0.85494
 H1094 H 0.77371 0.11165 0.82688
 C1095 C 0.25153 0.62014 0.38580
 C1096 C 0.24707 0.59541 0.37851
 C1097 C 0.24833 0.57625 0.39593
 C1098 C 0.25440 0.58126 0.42058
 C1099 C 0.25890 0.60574 0.42773
 C1100 C 0.25746 0.62493 0.41066
 C1101 C 0.25006 0.64005 0.36662
 C1102 C 0.25363 0.66527 0.37204
 C1103 C 0.25258 0.68304 0.35340
 C1104 C 0.24802 0.67617 0.32885
 C1105 C 0.24405 0.65113 0.32337
 C1106 C 0.24493 0.63315 0.34197
 C1107 C 0.24166 0.58991 0.35385
 C1108 C 0.24076 0.60835 0.33596
 H1109 H 0.23829 0.57101 0.34824
 H1110 H 0.23672 0.60308 0.31708
 H1111 H 0.24507 0.55735 0.39022
 H1112 H 0.26331 0.61011 0.44673
 H1113 H 0.25569 0.70219 0.35821
 H1114 H 0.24026 0.64553 0.30453
 H1115 H 0.26118 0.64331 0.41732
 H1116 H 0.25731 0.67171 0.39050
 C1117 C 0.24397 0.87529 0.88520
 C1118 C 0.23824 0.89970 0.87793
 C1119 C 0.23738 0.91866 0.89557
 C1120 C 0.24233 0.91381 0.92053
 C1121 C 0.24824 0.88968 0.92768
 C1122 C 0.24901 0.87063 0.91032
 C1123 C 0.24449 0.85555 0.86577
 C1124 C 0.24941 0.83061 0.87114
 C1125 C 0.24954 0.81290 0.85245
 C1126 C 0.24486 0.81948 0.82783
 C1127 C 0.24000 0.84432 0.82226
 C1128 C 0.23966 0.86228 0.84098
 C1129 C 0.23353 0.90512 0.85310
 C1130 C 0.23432 0.88684 0.83502
 H1131 H 0.22921 0.92384 0.84753
 H1132 H 0.23056 0.89201 0.81607
 H1133 H 0.23325 0.93736 0.88979
 H1134 H 0.25200 0.88546 0.94685
 H1135 H 0.25334 0.79392 0.85739
 H1136 H 0.23617 0.84968 0.80337
 H1137 H 0.25362 0.85247 0.91698
 H1138 H 0.25309 0.82430 0.88964
 C1139 C 0.73811 0.37267 0.38438
 C1140 C 0.72407 0.39429 0.38017
 C1141 C 0.72303 0.41282 0.39825
 C1142 C 0.73662 0.41063 0.42013
 C1143 C 0.75090 0.38951 0.42412
 C1144 C 0.75152 0.37063 0.40659
 C1145 C 0.73869 0.35330 0.36462
 C1146 C 0.75049 0.33036 0.36773
 C1147 C 0.75075 0.31303 0.34867
 C1148 C 0.73954 0.31822 0.32595
 C1149 C 0.72751 0.34088 0.32271
 C1150 C 0.72661 0.35821 0.34198
 C1151 C 0.71181 0.39763 0.35767
 C1152 C 0.71339 0.38017 0.33884
 H1153 H 0.70121 0.41426 0.35438
 H1154 H 0.70390 0.38382 0.32161
 H1155 H 0.71243 0.42945 0.39493
 H1156 H 0.76168 0.38768 0.44085
 H1157 H 0.75998 0.29557 0.35165
 H1158 H 0.71831 0.34478 0.30537
 H1159 H 0.76301 0.35490 0.41056
 H1160 H 0.75940 0.32530 0.38478
 C1161 C 0.11865 0.24742 0.11818
 C1162 C 0.12316 0.25689 0.09430
 C1163 C 0.10433 0.25670 0.07640
 C1164 C 0.08098 0.24640 0.08160
 C1165 C 0.07704 0.23665 0.10540
 C1166 C 0.09541 0.23718 0.12330
 C1167 C 0.13891 0.24840 0.13694
 C1168 C 0.13558 0.24089 0.16159
 C1169 C 0.15495 0.24197 0.17838
 C1170 C 0.17829 0.25044 0.17117
 C1171 C 0.18185 0.25815 0.14667
 C1172 C 0.16226 0.25749 0.12964
 C1173 C 0.14656 0.26611 0.08833
 C1174 C 0.16576 0.26613 0.10552
 H1175 H 0.15018 0.27322 0.07000
 H1176 H 0.18356 0.27325 0.09990
 H1177 H 0.10844 0.26360 0.05811
 H1178 H 0.05929 0.22944 0.11091
 H1179 H 0.15165 0.23584 0.19712
 H1180 H 0.19974 0.26499 0.14097
 H1181 H 0.09091 0.22941 0.14104
 H1182 H 0.11815 0.23426 0.16843
 C1183 C 0.61582 0.75329 0.61568
 C1184 C 0.62136 0.74733 0.59084
 C1185 C 0.60258 0.74737 0.57289
 C1186 C 0.57833 0.75372 0.57928
 C1187 C 0.57298 0.75968 0.60388
 C1188 C 0.59136 0.75945 0.62184
 C1189 C 0.63627 0.75292 0.63432
 C1190 C 0.63244 0.75787 0.65956
 C1191 C 0.65199 0.75724 0.67623
 C1192 C 0.67600 0.75179 0.66833
 C1193 C 0.68007 0.74687 0.64319
 C1194 C 0.66041 0.74721 0.62623
 C1195 C 0.64561 0.74159 0.58406
 C1196 C 0.66472 0.74167 0.60133
 H1197 H 0.64992 0.73709 0.56506
 H1198 H 0.68316 0.73720 0.59510
 H1199 H 0.60691 0.74295 0.55387
 H1200 H 0.55435 0.76432 0.60934
 H1201 H 0.64822 0.76113 0.69547
 H1202 H 0.69848 0.74239 0.63684
 H1203 H 0.58597 0.76426 0.64036
 H1204 H 0.61450 0.76214 0.66692
 C1205 C 0.11250 0.74869 0.88326
 C1206 C 0.09263 0.73190 0.88171
 C1207 C 0.07403 0.73214 0.89974
 C1208 C 0.07407 0.74980 0.91891
 C1209 C 0.09312 0.76751 0.91917
 C1210 C 0.11210 0.76684 0.90183
 C1211 C 0.13283 0.74678 0.86467
 C1212 C 0.15499 0.76019 0.86673
 C1213 C 0.17333 0.75792 0.84885
 C1214 C 0.16992 0.74258 0.82831
 C1215 C 0.14814 0.72878 0.82626
 C1216 C 0.12991 0.73026 0.84463
 C1217 C 0.09122 0.71530 0.86190
 C1218 C 0.10913 0.71495 0.84342
 H1219 H 0.07581 0.70265 0.86044
 H1220 H 0.10697 0.70208 0.82826
 H1221 H 0.05897 0.71910 0.89814
 H1222 H 0.09433 0.78126 0.93361
 H1223 H 0.19007 0.76867 0.85081
 H1224 H 0.14565 0.71651 0.81063
 H1225 H 0.12626 0.78074 0.90325
 H1226 H 0.15863 0.77226 0.88214
 C1227 C 0.60788 0.24440 0.37834
 C1228 C 0.61556 0.23980 0.40288
 C1229 C 0.59853 0.24100 0.42226
 C1230 C 0.57379 0.24695 0.41777
 C1231 C 0.56622 0.25194 0.39356
 C1232 C 0.58300 0.25063 0.37404
 C1233 C 0.62674 0.24277 0.35817
 C1234 C 0.62100 0.24633 0.33305
 C1235 C 0.63939 0.24523 0.31507
 C1236 C 0.66398 0.24058 0.32162
 C1237 C 0.66976 0.23647 0.34652
 C1238 C 0.65143 0.23744 0.36471
 C1239 C 0.64020 0.23422 0.40804
 C1240 C 0.65779 0.23321 0.38939
 H1241 H 0.64605 0.23075 0.42685
 H1242 H 0.67668 0.22904 0.39437
 H1243 H 0.60464 0.23764 0.44102
 H1244 H 0.54719 0.25653 0.38968
 H1245 H 0.63436 0.24849 0.29600
 H1246 H 0.68864 0.23264 0.35185
 H1247 H 0.57612 0.25461 0.35580
 H1248 H 0.60249 0.25011 0.32690
 C1249 C 0.88391 0.75292 0.12408
 C1250 C 0.87720 0.74171 0.10149
 C1251 C 0.89436 0.73990 0.08217
 C1252 C 0.91835 0.74975 0.08443
 C1253 C 0.92463 0.76131 0.10690
 C1254 C 0.90782 0.76274 0.12639
 C1255 C 0.86505 0.75420 0.14433
 C1256 C 0.87023 0.76364 0.16803
 C1257 C 0.85193 0.76451 0.18618
 C1258 C 0.82795 0.75622 0.18115
 C1259 C 0.82267 0.74663 0.15766
 C1260 C 0.84101 0.74528 0.13944
 C1261 C 0.85320 0.73281 0.09803
 C1262 C 0.83543 0.73481 0.11648
 H1263 H 0.84796 0.72437 0.08066
 H1264 H 0.81708 0.72784 0.11276
 H1265 H 0.88830 0.73192 0.06488
 H1266 H 0.94293 0.76860 0.11002
 H1267 H 0.85654 0.77196 0.20415
 H1268 H 0.80431 0.73981 0.15364
 H1269 H 0.91393 0.77173 0.14307
 H1270 H 0.88829 0.77030 0.17301
 C1271 C 0.38577 0.25960 0.62620
 C1272 C 0.37813 0.25552 0.60155
 C1273 C 0.39557 0.25476 0.58249
 C1274 C 0.42072 0.25811 0.58743
 C1275 C 0.42827 0.26285 0.61171
 C1276 C 0.41106 0.26354 0.63091
 C1277 C 0.36653 0.25945 0.64610
 C1278 C 0.37218 0.26233 0.67133
 C1279 C 0.35359 0.26174 0.68915
 C1280 C 0.32885 0.25831 0.68235
 C1281 C 0.32306 0.25547 0.65725
 C1282 C 0.34160 0.25587 0.63922
 C1283 C 0.35316 0.25214 0.59600
 C1284 C 0.33528 0.25245 0.61441
 H1285 H 0.34733 0.24916 0.57709
 H1286 H 0.31620 0.24972 0.60914
 H1287 H 0.38953 0.25162 0.56367
 H1288 H 0.44760 0.26551 0.61593
 H1289 H 0.35867 0.26402 0.70835
 H1290 H 0.30407 0.25273 0.65167
 H1291 H 0.41796 0.26705 0.64924
 H1292 H 0.39082 0.26493 0.67773
 C1293 C 0.88541 0.24962 0.88151
 C1294 C 0.87920 0.25902 0.90505
 C1295 C 0.89638 0.25802 0.92448
 C1296 C 0.91959 0.24676 0.92122
 C1297 C 0.92517 0.23689 0.89778
 C1298 C 0.90850 0.23837 0.87832
 C1299 C 0.86683 0.25141 0.86114
 C1300 C 0.87202 0.24440 0.83663
 C1301 C 0.85385 0.24557 0.81848
 C1302 C 0.83000 0.25362 0.82427
 C1303 C 0.82482 0.26136 0.84845
 C1304 C 0.84312 0.26065 0.86678
 C1305 C 0.85567 0.26880 0.90922
 C1306 C 0.83788 0.26921 0.89061
 H1307 H 0.85075 0.27585 0.92728
 H1308 H 0.81980 0.27653 0.89491
 H1309 H 0.89101 0.26497 0.94243
 H1310 H 0.94298 0.22885 0.89384
 H1311 H 0.85836 0.23959 0.79994
 H1312 H 0.80655 0.26803 0.85301
 H1313 H 0.91409 0.23044 0.86096
 H1314 H 0.88997 0.23798 0.83103
 C1315 C 0.37845 0.74994 0.38203
 C1316 C 0.37347 0.76268 0.40430
 C1317 C 0.39074 0.76234 0.42365
 C1318 C 0.41254 0.74862 0.42150
 C1319 C 0.41692 0.73516 0.39987
 C1320 C 0.40020 0.73585 0.38032
 C1321 C 0.36004 0.75158 0.36145
 C1322 C 0.36438 0.74167 0.33779
 C1323 C 0.34641 0.74313 0.31941
 C1324 C 0.32359 0.75428 0.32417
 C1325 C 0.31933 0.76480 0.34746
 C1326 C 0.33751 0.76394 0.36591
 C1327 C 0.35117 0.77535 0.40724
 C1328 C 0.33338 0.77554 0.38865
 H1329 H 0.34723 0.78492 0.42436
 H1330 H 0.31623 0.78522 0.39201
 H1331 H 0.38713 0.77246 0.44053
 H1332 H 0.43367 0.72446 0.39788
 H1333 H 0.35017 0.73490 0.30158
 H1334 H 0.30189 0.77382 0.35116
 H1335 H 0.40458 0.72512 0.36414
 H1336 H 0.38152 0.73279 0.33306
 C1337 C 0.12569 0.11692 0.25034
 C1338 C 0.10118 0.12416 0.24512
 C1339 C 0.08228 0.10648 0.24441
 C1340 C 0.08725 0.08147 0.24896
 C1341 C 0.11143 0.07435 0.25457
 C1342 C 0.13044 0.09178 0.25520
 C1343 C 0.14540 0.13641 0.25042
 C1344 C 0.17047 0.13108 0.25453
 C1345 C 0.18816 0.14981 0.25401
 C1346 C 0.18139 0.17442 0.24951
 C1347 C 0.15643 0.17994 0.24557
 C1348 C 0.13851 0.16119 0.24581
 C1349 C 0.09561 0.14901 0.24069
 C1350 C 0.11384 0.16712 0.24113
 H1351 H 0.07682 0.15455 0.23680
 H1352 H 0.10855 0.18607 0.23755
 H1353 H 0.06355 0.11226 0.24057
 H1354 H 0.11573 0.05516 0.25810
 H1355 H 0.20726 0.14493 0.25711
 H1356 H 0.15092 0.19880 0.24183
 H1357 H 0.14867 0.08516 0.25950
 H1358 H 0.17689 0.11258 0.25798
 C1359 C 0.62533 0.61383 0.74830
 C1360 C 0.60061 0.62078 0.74380
 C1361 C 0.58195 0.60286 0.74359
 C1362 C 0.58738 0.57793 0.74797
 C1363 C 0.61178 0.57110 0.75293
 C1364 C 0.63056 0.58876 0.75304
 C1365 C 0.64478 0.63353 0.74780
 C1366 C 0.67001 0.62847 0.75109
 C1367 C 0.68744 0.64738 0.75009
 C1368 C 0.68026 0.67192 0.74591
 C1369 C 0.65514 0.67720 0.74277
 C1370 C 0.63746 0.65825 0.74348
 C1371 C 0.59459 0.64556 0.73960
 C1372 C 0.61259 0.66390 0.73958
 H1373 H 0.57562 0.65087 0.73628
 H1374 H 0.60697 0.68279 0.73623
 H1375 H 0.56303 0.60839 0.74027
 H1376 H 0.61640 0.55196 0.75636
 H1377 H 0.70667 0.64268 0.75261
 H1378 H 0.64932 0.69602 0.73931
 H1379 H 0.64898 0.58237 0.75686
 H1380 H 0.67676 0.61003 0.75424
 C1381 C 0.89135 0.12406 0.74532
 C1382 C 0.88577 0.10084 0.73484
 C1383 C 0.90362 0.08216 0.73431
 C1384 C 0.92722 0.08567 0.74471
 C1385 C 0.93231 0.10865 0.75582
 C1386 C 0.91479 0.12756 0.75596
 C1387 C 0.87178 0.14363 0.74510
 C1388 C 0.87590 0.16790 0.75353
 C1389 C 0.85692 0.18529 0.75328
 C1390 C 0.83331 0.17893 0.74482
 C1391 C 0.82913 0.15495 0.73602
 C1392 C 0.84818 0.13745 0.73579
 C1393 C 0.86220 0.09611 0.72538
 C1394 C 0.84373 0.11391 0.72614
 H1395 H 0.85786 0.07824 0.71751
 H1396 H 0.82571 0.10921 0.71886
 H1397 H 0.89839 0.06436 0.72686
 H1398 H 0.95021 0.11259 0.76368
 H1399 H 0.86064 0.20369 0.76018
 H1400 H 0.81104 0.14994 0.72911
 H1401 H 0.91994 0.14473 0.76462
 H1402 H 0.89362 0.17384 0.76030
 C1403 C 0.38510 0.62298 0.25287
 C1404 C 0.37904 0.59821 0.24725
 C1405 C 0.39752 0.58014 0.24667
 C1406 C 0.42212 0.58621 0.25189
 C1407 C 0.42803 0.61056 0.25828
 C1408 C 0.40980 0.62877 0.25871
 C1409 C 0.36490 0.64187 0.25235
 C1410 C 0.36919 0.66720 0.25626
 C1411 C 0.34983 0.68409 0.25533
 C1412 C 0.32561 0.67625 0.25060
 C1413 C 0.32112 0.65105 0.24668
 C1414 C 0.34054 0.63392 0.24726
 C1415 C 0.35460 0.59156 0.24224
 C1416 C 0.33573 0.60899 0.24247
 H1417 H 0.34996 0.57254 0.23811
 H1418 H 0.31712 0.60288 0.23853
 H1419 H 0.39274 0.56121 0.24226
 H1420 H 0.44689 0.61561 0.26244
 H1421 H 0.35389 0.70340 0.25855
 H1422 H 0.30253 0.64477 0.24284
 H1423 H 0.41547 0.64721 0.26360
 H1424 H 0.38735 0.67442 0.25989
 C1425 C 0.11101 0.87429 0.74845
 C1426 C 0.11830 0.89750 0.73904
 C1427 C 0.10159 0.91719 0.73846
 C1428 C 0.07736 0.91470 0.74757
 C1429 C 0.07048 0.89166 0.75754
 C1430 C 0.08693 0.87177 0.75782
 C1431 C 0.12953 0.85368 0.74845
 C1432 C 0.12397 0.82946 0.75622
 C1433 C 0.14213 0.81112 0.75626
 C1434 C 0.16629 0.81651 0.74876
 C1435 C 0.17182 0.84043 0.74057
 C1436 C 0.15373 0.85885 0.74016
 C1437 C 0.14242 0.90119 0.73063
 C1438 C 0.15981 0.88237 0.73141
 H1439 H 0.14804 0.91903 0.72355
 H1440 H 0.17830 0.88627 0.72493
 H1441 H 0.10818 0.93489 0.73196
 H1442 H 0.05202 0.88845 0.76435
 H1443 H 0.13735 0.79278 0.76263
 H1444 H 0.19033 0.84475 0.73436
 H1445 H 0.08044 0.85461 0.76552
 H1446 H 0.10576 0.82431 0.76230
 C1447 C 0.60934 0.37689 0.24584
 C1448 C 0.61777 0.40114 0.24090
 C1449 C 0.60124 0.42099 0.24116
 C1450 C 0.57623 0.41732 0.24652
 C1451 C 0.56789 0.39340 0.25178
 C1452 C 0.58417 0.37339 0.25137
 C1453 C 0.62774 0.35620 0.24527
 C1454 C 0.62135 0.33127 0.24924
 C1455 C 0.63937 0.31280 0.24896
 C1456 C 0.66421 0.31871 0.24480
 C1457 C 0.67062 0.34343 0.24041
 C1458 C 0.65272 0.36205 0.24052
 C1459 C 0.64269 0.40555 0.23598
 C1460 C 0.65981 0.38646 0.23593
 H1461 H 0.64912 0.42413 0.23226
 H1462 H 0.67893 0.39089 0.23221
 H1463 H 0.60796 0.43950 0.23759
 H1464 H 0.54864 0.39012 0.25592
 H1465 H 0.63387 0.29390 0.25241
 H1466 H 0.68969 0.34829 0.23692
 H1467 H 0.57672 0.35541 0.25552
 H1468 H 0.60260 0.32565 0.25266
 C1469 C 0.87922 0.89398 0.26212
 C1470 C 0.87980 0.91049 0.24195
 C1471 C 0.89824 0.92863 0.24054
 C1472 C 0.91566 0.93158 0.25964
 C1473 C 0.91356 0.91632 0.28059
 C1474 C 0.89584 0.89766 0.28171
 C1475 C 0.86064 0.87354 0.26189
 C1476 C 0.86111 0.85385 0.27890
 C1477 C 0.84359 0.83499 0.27763
 C1478 C 0.82492 0.83567 0.25982
 C1479 C 0.82436 0.85501 0.24267
 C1480 C 0.84250 0.87348 0.24311
 C1481 C 0.86178 0.90900 0.22348
 C1482 C 0.84312 0.89132 0.22442
 H1483 H 0.86191 0.92192 0.20822
 H1484 H 0.82941 0.89113 0.20987
 H1485 H 0.89840 0.94099 0.22483
 H1486 H 0.92655 0.91762 0.29569
 H1487 H 0.84439 0.81999 0.29082
 H1488 H 0.81029 0.85515 0.22845
 H1489 H 0.89547 0.88629 0.29804
 H1490 H 0.87515 0.85243 0.29292
 C1491 C 0.37875 0.39172 0.76676
 C1492 C 0.37607 0.41171 0.75016
 C1493 C 0.39447 0.42987 0.74867
 C1494 C 0.41513 0.42886 0.76414
 C1495 C 0.41696 0.41001 0.78170
 C1496 C 0.39905 0.39157 0.78299
 C1497 C 0.35989 0.37153 0.76620
 C1498 C 0.36267 0.34930 0.77939
 C1499 C 0.34498 0.33068 0.77762
 C1500 C 0.32390 0.33394 0.76306
 C1501 C 0.32088 0.35600 0.74989
 C1502 C 0.33898 0.37450 0.75085
 C1503 C 0.35513 0.41339 0.73514
 C1504 C 0.33671 0.39545 0.73589
 H1505 H 0.35289 0.42888 0.72270
 H1506 H 0.32079 0.39765 0.72400
 H1507 H 0.39287 0.44473 0.73536
 H1508 H 0.43278 0.40906 0.79386
 H1509 H 0.34770 0.31370 0.78782
 H1510 H 0.30486 0.35836 0.73815
 H1511 H 0.40151 0.37734 0.79668
 H1512 H 0.37860 0.34568 0.79072
 C1513 C 0.11871 0.24424 0.88879
 C1514 C 0.09541 0.25427 0.88297
 C1515 C 0.07681 0.25509 0.90089
 C1516 C 0.08062 0.24569 0.92488
 C1517 C 0.10362 0.23485 0.93016
 C1518 C 0.12237 0.23426 0.91251
 C1519 C 0.13838 0.24470 0.86936
 C1520 C 0.16270 0.23680 0.87380
 C1521 C 0.18051 0.23827 0.85531
 C1522 C 0.17455 0.24745 0.83184
 C1523 C 0.15033 0.25505 0.82710
 C1524 C 0.13237 0.25408 0.84571
 C1525 C 0.09063 0.26328 0.85922
 C1526 C 0.10864 0.26296 0.84092
 H1527 H 0.07267 0.27073 0.85468
 H1528 H 0.10402 0.27017 0.82285
 H1529 H 0.05896 0.26224 0.89556
 H1530 H 0.10777 0.22770 0.94833
 H1531 H 0.19907 0.23216 0.85944
 H1532 H 0.14559 0.26239 0.80910
 H1533 H 0.13962 0.22598 0.91790
 H1534 H 0.16848 0.22976 0.89149
 C1535 C 0.61768 0.75517 0.38855
 C1536 C 0.59372 0.74797 0.38111
 C1537 C 0.57455 0.74691 0.39845
 C1538 C 0.57867 0.75317 0.42325
 C1539 C 0.60228 0.76077 0.43052
 C1540 C 0.62157 0.76171 0.41346
 C1541 C 0.63774 0.75563 0.36948
 C1542 C 0.66238 0.76155 0.37513
 C1543 C 0.68039 0.76168 0.35675
 C1544 C 0.67439 0.75604 0.33217
 C1545 C 0.64989 0.75004 0.32635
 C1546 C 0.63166 0.74960 0.34477
 C1547 C 0.58898 0.74200 0.35640
 C1548 C 0.60749 0.74296 0.33861
 H1549 H 0.57061 0.73658 0.35070
 H1550 H 0.60283 0.73825 0.31973
 H1551 H 0.55623 0.74149 0.39255
 H1552 H 0.60592 0.76564 0.44956
 H1553 H 0.69911 0.76638 0.36185
 H1554 H 0.64502 0.74538 0.30751
 H1555 H 0.63931 0.76763 0.42019
 H1556 H 0.66821 0.76601 0.39362
 C1557 C 0.88902 0.75185 0.87266
 C1558 C 0.88282 0.76426 0.89477
 C1559 C 0.89941 0.76467 0.91464
 C1560 C 0.92217 0.75213 0.91351
 C1561 C 0.92797 0.73954 0.89147
 C1562 C 0.91181 0.73954 0.87138
 C1563 C 0.87063 0.75175 0.85193
 C1564 C 0.87543 0.74119 0.82861
 C1565 C 0.85732 0.74094 0.81023
 C1566 C 0.83393 0.75094 0.81474
 C1567 C 0.82921 0.76205 0.83765
 C1568 C 0.84736 0.76280 0.85605
 C1569 C 0.85977 0.77560 0.89727
 C1570 C 0.84231 0.77461 0.87846
 H1571 H 0.85495 0.78502 0.91424
 H1572 H 0.82458 0.78331 0.88149
 H1573 H 0.89365 0.77360 0.93156
 H1574 H 0.94544 0.73022 0.88920
 H1575 H 0.86145 0.73245 0.79261
 H1576 H 0.81136 0.77035 0.84111
 H1577 H 0.91743 0.72955 0.85511
 H1578 H 0.89302 0.73306 0.82419
 C1579 C 0.39019 0.25298 0.37661
 C1580 C 0.38218 0.25947 0.40062
 C1581 C 0.39889 0.25973 0.42031
 C1582 C 0.42368 0.25346 0.41669
 C1583 C 0.43162 0.24666 0.39302
 C1584 C 0.41513 0.24647 0.37318
 C1585 C 0.37162 0.25308 0.35608
 C1586 C 0.37766 0.24764 0.33135
 C1587 C 0.35950 0.24764 0.31302
 C1588 C 0.33489 0.25293 0.31889
 C1589 C 0.32883 0.25875 0.34339
 C1590 C 0.34688 0.25898 0.36186
 C1591 C 0.35749 0.26548 0.40497
 C1592 C 0.34019 0.26512 0.38603
 H1593 H 0.35138 0.27040 0.42337
 H1594 H 0.32126 0.26976 0.39039
 H1595 H 0.39249 0.26450 0.43866
 H1596 H 0.45070 0.24180 0.38980
 H1597 H 0.36473 0.24320 0.29425
 H1598 H 0.30996 0.26323 0.34818
 H1599 H 0.42226 0.24113 0.35539
 H1600 H 0.39623 0.24333 0.32576
 C1601 C 0.10874 0.74435 0.12208
 C1602 C 0.11302 0.73119 0.09991
 C1603 C 0.09477 0.73034 0.08153
 C1604 C 0.07257 0.74324 0.08449
 C1605 C 0.06851 0.75662 0.10621
 C1606 C 0.08624 0.75706 0.12489
 C1607 C 0.12867 0.74474 0.14127
 C1608 C 0.12560 0.75584 0.16458
 C1609 C 0.14478 0.75595 0.18172
 C1610 C 0.16762 0.74525 0.17606
 C1611 C 0.17085 0.73396 0.15298
 C1612 C 0.15146 0.73326 0.13577
 C1613 C 0.13572 0.71956 0.09592
 C1614 C 0.15465 0.72089 0.11329
 H1615 H 0.13907 0.70963 0.07888
 H1616 H 0.17199 0.71190 0.10914
 H1617 H 0.09816 0.72041 0.06448
 H1618 H 0.05153 0.76683 0.10870
 H1619 H 0.14180 0.76475 0.19943
 H1620 H 0.18831 0.72528 0.14860
 H1621 H 0.08213 0.76784 0.14110
 H1622 H 0.10851 0.76435 0.17006
 C1623 C 0.61491 0.24958 0.62234
 C1624 C 0.62127 0.25519 0.59765
 C1625 C 0.60296 0.25615 0.57942
 C1626 C 0.57818 0.25157 0.58528
 C1627 C 0.57192 0.24563 0.60964
 C1628 C 0.58999 0.24467 0.62798
 C1629 C 0.63503 0.24915 0.64132
 C1630 C 0.63058 0.24440 0.66647
 C1631 C 0.64988 0.24443 0.68346
 C1632 C 0.67419 0.24913 0.67593
 C1633 C 0.67884 0.25382 0.65089
 C1634 C 0.65951 0.25398 0.63364
 C1635 C 0.64585 0.25980 0.59125
 C1636 C 0.66457 0.25914 0.60884
 H1637 H 0.65071 0.26402 0.57232
 H1638 H 0.68328 0.26287 0.60294
 H1639 H 0.60806 0.26025 0.56051
 H1640 H 0.55291 0.24210 0.61460
 H1641 H 0.64565 0.24073 0.70264
 H1642 H 0.69749 0.25764 0.64480
 H1643 H 0.58401 0.24013 0.64639
 H1644 H 0.61236 0.24072 0.67348
 C1645 C 0.87939 0.24726 0.12006
 C1646 C 0.87304 0.24162 0.09532
 C1647 C 0.89122 0.24189 0.07682
 C1648 C 0.91567 0.24809 0.08257
 C1649 C 0.92186 0.25356 0.10709
 C1650 C 0.90406 0.25314 0.12559
 C1651 C 0.85950 0.24694 0.13925
 C1652 C 0.86408 0.25187 0.16438
 C1653 C 0.84496 0.25159 0.18153
 C1654 C 0.82069 0.24648 0.17420
 C1655 C 0.81592 0.24139 0.14921
 C1656 C 0.83510 0.24148 0.13178
 C1657 C 0.84858 0.23604 0.08920
 C1658 C 0.83001 0.23606 0.10701
 H1659 H 0.84367 0.23174 0.07029
 H1660 H 0.81136 0.23176 0.10128
 H1661 H 0.88628 0.23779 0.05787
 H1662 H 0.94068 0.25800 0.11205
 H1663 H 0.84925 0.25554 0.20066
 H1664 H 0.79730 0.23715 0.14331
 H1665 H 0.91008 0.25760 0.14401
 H1666 H 0.88225 0.25596 0.17127
 C1667 C 0.37641 0.75242 0.61794
 C1668 C 0.37229 0.73895 0.59591
 C1669 C 0.39000 0.73926 0.57697
 C1670 C 0.41139 0.75362 0.57925
 C1671 C 0.41489 0.76781 0.60059
 C1672 C 0.39773 0.76718 0.61975
 C1673 C 0.35767 0.75066 0.63820
 C1674 C 0.36132 0.76112 0.66175
 C1675 C 0.34329 0.75905 0.68000
 C1676 C 0.32101 0.74683 0.67519
 C1677 C 0.31731 0.73607 0.65190
 C1678 C 0.33565 0.73742 0.63364
 C1679 C 0.35042 0.72554 0.59283
 C1680 C 0.33228 0.72520 0.61108
 H1681 H 0.34711 0.71542 0.57589
 H1682 H 0.31554 0.71483 0.60766
 H1683 H 0.38706 0.72857 0.56030
 H1684 H 0.43129 0.77904 0.60267
 H1685 H 0.34664 0.76741 0.69785
 H1686 H 0.30033 0.72622 0.64816
 H1687 H 0.40144 0.77846 0.63573
 H1688 H 0.37807 0.77071 0.66655
 C1689 C 0.24834 0.11766 0.88436
 C1690 C 0.24305 0.12398 0.90917
 C1691 C 0.24237 0.10552 0.92743
 C1692 C 0.24720 0.08082 0.92132
 C1693 C 0.25215 0.07467 0.89669
 C1694 C 0.25272 0.09274 0.87846
 C1695 C 0.24919 0.13781 0.86545
 C1696 C 0.25425 0.13329 0.84036
 C1697 C 0.25491 0.15257 0.82341
 C1698 C 0.25065 0.17699 0.83089
 C1699 C 0.24561 0.18176 0.85588
 C1700 C 0.24479 0.16238 0.87314
 C1701 C 0.23868 0.14865 0.91557
 C1702 C 0.23955 0.16743 0.89796
 H1703 H 0.23460 0.15353 0.93453
 H1704 H 0.23610 0.18622 0.90389
 H1705 H 0.23859 0.11043 0.94646
 H1706 H 0.25546 0.05567 0.89143
 H1707 H 0.25885 0.14824 0.80430
 H1708 H 0.24209 0.20051 0.86191
 H1709 H 0.25669 0.08668 0.85995
 H1710 H 0.25772 0.11503 0.83331
 C1711 C 0.74593 0.62313 0.38675
 C1712 C 0.73837 0.59958 0.37827
 C1713 C 0.73707 0.57963 0.39469
 C1714 C 0.74349 0.58252 0.41959
 C1715 C 0.75137 0.60572 0.42795
 C1716 C 0.75252 0.62581 0.41180
 C1717 C 0.74682 0.64400 0.36855
 C1718 C 0.75314 0.66839 0.37514
 C1719 C 0.75388 0.68709 0.35736
 C1720 C 0.74850 0.68194 0.33256
 C1721 C 0.74191 0.65778 0.32591
 C1722 C 0.74086 0.63895 0.34361
 C1723 C 0.73235 0.59596 0.35341
 C1724 C 0.73373 0.61517 0.33643
 H1725 H 0.72664 0.57791 0.34692
 H1726 H 0.72904 0.61136 0.31735
 H1727 H 0.73143 0.56164 0.38797
 H1728 H 0.75636 0.60839 0.44712
 H1729 H 0.75891 0.70559 0.36303
 H1730 H 0.73730 0.65359 0.30688
 H1731 H 0.75868 0.64320 0.41928
 H1732 H 0.75752 0.67344 0.39388
 C1733 C 0.75542 0.11511 0.11236
 C1734 C 0.74975 0.09043 0.11887
 C1735 C 0.75103 0.07162 0.10104
 C1736 C 0.75828 0.07695 0.07678
 C1737 C 0.76419 0.10134 0.07049
 C1738 C 0.76278 0.12018 0.08795
 C1739 C 0.75341 0.13472 0.13178
 C1740 C 0.75774 0.15991 0.12692
 C1741 C 0.75558 0.17749 0.14561
 C1742 C 0.74914 0.17050 0.16968
 C1743 C 0.74476 0.14544 0.17471
 C1744 C 0.74665 0.12762 0.15598
 C1745 C 0.74298 0.08467 0.14313
 C1746 C 0.74163 0.10283 0.16131
 H1747 H 0.73874 0.06578 0.14817
 H1748 H 0.73639 0.09739 0.17983
 H1749 H 0.74668 0.05275 0.10610
 H1750 H 0.76957 0.10596 0.05180
 H1751 H 0.75917 0.19665 0.14118
 H1752 H 0.73961 0.13978 0.19319
 H1753 H 0.76754 0.13851 0.08190
 H1754 H 0.76273 0.16652 0.10884
 C1755 C 0.25827 0.60989 0.62059
 C1756 C 0.24365 0.58846 0.62373
 C1757 C 0.24372 0.56991 0.60560
 C1758 C 0.25901 0.57193 0.58488
 C1759 C 0.27460 0.59239 0.58254
 C1760 C 0.27420 0.61124 0.60009
 C1761 C 0.25626 0.63010 0.63937
 C1762 C 0.26740 0.65340 0.63624
 C1763 C 0.26473 0.67175 0.65413
 C1764 C 0.25129 0.66723 0.67573
 C1765 C 0.23995 0.64418 0.67897
 C1766 C 0.24180 0.62588 0.66069
 C1767 C 0.22919 0.58566 0.64495
 C1768 C 0.22875 0.60371 0.66331
 H1769 H 0.21825 0.56912 0.64754
 H1770 H 0.21750 0.60054 0.67952
 H1771 H 0.23194 0.55385 0.60757
 H1772 H 0.28660 0.59411 0.56665
 H1773 H 0.27353 0.68945 0.65122
 H1774 H 0.22910 0.64076 0.69542
 H1775 H 0.28646 0.62666 0.59729
 H1776 H 0.27789 0.65796 0.61997
 C1777 C 0.76048 0.87746 0.87807
 C1778 C 0.75465 0.90212 0.87166
 C1779 C 0.75455 0.92066 0.88986
 C1780 C 0.76052 0.91505 0.91442
 C1781 C 0.76624 0.89060 0.92067
 C1782 C 0.76621 0.87206 0.90284
 C1783 C 0.76033 0.85819 0.85818
 C1784 C 0.76547 0.83312 0.86280
 C1785 C 0.76489 0.81582 0.84375
 C1786 C 0.75929 0.82295 0.81950
 C1787 C 0.75434 0.84794 0.81464
 C1788 C 0.75468 0.86550 0.83376
 C1789 C 0.74914 0.90813 0.84713
 C1790 C 0.74924 0.89024 0.82859
 H1791 H 0.74474 0.92699 0.84216
 H1792 H 0.74488 0.89587 0.80990
 H1793 H 0.75028 0.93955 0.88484
 H1794 H 0.77056 0.88573 0.93956
 H1795 H 0.76893 0.79674 0.84810
 H1796 H 0.74990 0.85372 0.79601
 H1797 H 0.77078 0.85370 0.90892
 H1798 H 0.76989 0.82638 0.88097
 C1799 C 0.26514 0.38459 0.37620
 C1800 C 0.24937 0.40519 0.37317
 C1801 C 0.24824 0.42352 0.39150
 C1802 C 0.26334 0.42215 0.41245
 C1803 C 0.27993 0.40249 0.41477
 C1804 C 0.28078 0.38386 0.39697
 C1805 C 0.26453 0.36457 0.35707
 C1806 C 0.27714 0.34199 0.35985
 C1807 C 0.27559 0.32372 0.34172
 C1808 C 0.26181 0.32763 0.32018
 C1809 C 0.24917 0.35000 0.31721
 C1810 C 0.24993 0.36818 0.33571
 C1811 C 0.23496 0.40741 0.35184
 C1812 C 0.23564 0.38957 0.33328
 H1813 H 0.22313 0.42332 0.34934
 H1814 H 0.22431 0.39227 0.31703
 H1815 H 0.23567 0.43895 0.38949
 H1816 H 0.29179 0.40120 0.43080
 H1817 H 0.28544 0.30655 0.34441
 H1818 H 0.23809 0.35294 0.30082
 H1819 H 0.29379 0.36908 0.39980
 H1820 H 0.28793 0.33791 0.37606
 C1821 C 0.23779 0.87280 0.10925
 C1822 C 0.22377 0.89447 0.11324
 C1823 C 0.22297 0.91293 0.09508
 C1824 C 0.23687 0.91062 0.07342
 C1825 C 0.25104 0.88940 0.06960
 C1826 C 0.25135 0.87057 0.08715
 C1827 C 0.23844 0.85368 0.12921
 C1828 C 0.25034 0.83076 0.12636
 C1829 C 0.25110 0.81387 0.14576
 C1830 C 0.24028 0.81947 0.16856
 C1831 C 0.22791 0.84200 0.17148
 C1832 C 0.22653 0.85890 0.15187
 C1833 C 0.21144 0.89801 0.13568
 C1834 C 0.21315 0.88081 0.15474
 H1835 H 0.20082 0.91465 0.13879
 H1836 H 0.20373 0.88467 0.17195
 H1837 H 0.21247 0.92966 0.09824
 H1838 H 0.26209 0.88755 0.05306
 H1839 H 0.26056 0.79648 0.14302
 H1840 H 0.21899 0.84619 0.18889
 H1841 H 0.26286 0.85481 0.08336
 H1842 H 0.25905 0.82543 0.10929
 C1843 C 0.73987 0.38298 0.61702
 C1844 C 0.74566 0.37583 0.59255
 C1845 C 0.74462 0.39317 0.57329
 C1846 C 0.73749 0.41761 0.57795
 C1847 C 0.73144 0.42455 0.60214
 C1848 C 0.73262 0.40755 0.62143
 C1849 C 0.74167 0.36403 0.63713
 C1850 C 0.73722 0.36949 0.66219
 C1851 C 0.73924 0.35120 0.68023
 C1852 C 0.74564 0.32695 0.67381
 C1853 C 0.75011 0.32135 0.64889
 C1854 C 0.74837 0.33965 0.63064
 C1855 C 0.75234 0.35140 0.58741
 C1856 C 0.75350 0.33368 0.60601
 H1857 H 0.75666 0.34587 0.56869
 H1858 H 0.75868 0.31501 0.60104
 H1859 H 0.74906 0.38760 0.55460
 H1860 H 0.72614 0.44337 0.60626
 H1861 H 0.73560 0.35607 0.69927
 H1862 H 0.75523 0.30273 0.64365
 H1863 H 0.72778 0.41407 0.63958
 H1864 H 0.73227 0.38774 0.66833
 C1865 C 0.12323 0.11792 0.75308
 C1866 C 0.09860 0.12474 0.74771
 C1867 C 0.07995 0.10671 0.74702
 C1868 C 0.08540 0.08191 0.75202
 C1869 C 0.10979 0.07525 0.75733
 C1870 C 0.12846 0.09291 0.75783
 C1871 C 0.14261 0.13768 0.75367
 C1872 C 0.16768 0.13271 0.75831
 C1873 C 0.18501 0.15174 0.75877
 C1874 C 0.17789 0.17629 0.75472
 C1875 C 0.15295 0.18144 0.75002
 C1876 C 0.13537 0.16239 0.74934
 C1877 C 0.09271 0.14952 0.74334
 C1878 C 0.11067 0.16794 0.74425
 H1879 H 0.07388 0.15479 0.73929
 H1880 H 0.10511 0.18684 0.74086
 H1881 H 0.06109 0.11203 0.74310
 H1882 H 0.11451 0.05616 0.76093
 H1883 H 0.20408 0.14715 0.76249
 H1884 H 0.14717 0.20029 0.74669
 H1885 H 0.14679 0.08655 0.76208
 H1886 H 0.17438 0.11428 0.76158
 C1887 C 0.62142 0.62204 0.25673
 C1888 C 0.59674 0.62893 0.25173
 C1889 C 0.57803 0.61092 0.25116
 C1890 C 0.58350 0.58604 0.25583
 C1891 C 0.60797 0.57934 0.26077
 C1892 C 0.62666 0.59699 0.26121
 C1893 C 0.64088 0.64175 0.25705
 C1894 C 0.66598 0.63671 0.26144
 C1895 C 0.68342 0.65564 0.26139
 C1896 C 0.67642 0.68019 0.25706
 C1897 C 0.65141 0.68544 0.25281
 C1898 C 0.63370 0.66647 0.25265
 C1899 C 0.59088 0.65374 0.24746
 C1900 C 0.60893 0.67210 0.24799
 H1901 H 0.57201 0.65908 0.24369
 H1902 H 0.60340 0.69101 0.24460
 H1903 H 0.55915 0.61631 0.24750
 H1904 H 0.61276 0.56021 0.26405
 H1905 H 0.70251 0.65096 0.26488
 H1906 H 0.64569 0.70429 0.24938
 H1907 H 0.64504 0.59055 0.26511
 H1908 H 0.67262 0.61829 0.26488
 C1909 C 0.11263 0.88007 0.24797
 C1910 C 0.11829 0.90292 0.23669
 C1911 C 0.10114 0.92241 0.23726
 C1912 C 0.07849 0.91995 0.24984
 C1913 C 0.07333 0.89711 0.26121
 C1914 C 0.08997 0.87758 0.26024
 C1915 C 0.13132 0.85973 0.24699
 C1916 C 0.12678 0.83587 0.25634
 C1917 C 0.14510 0.81782 0.25582
 C1918 C 0.16847 0.82306 0.24614
 C1919 C 0.17296 0.84655 0.23612
 C1920 C 0.15452 0.86475 0.23620
 C1921 C 0.14130 0.90639 0.22546
 C1922 C 0.15914 0.88784 0.22552
 H1923 H 0.14578 0.92389 0.21689
 H1924 H 0.17680 0.89162 0.21698
 H1925 H 0.10620 0.93987 0.22897
 H1926 H 0.05588 0.89366 0.27022
 H1927 H 0.14107 0.79980 0.26348
 H1928 H 0.19081 0.85067 0.22812
 H1929 H 0.08470 0.86073 0.26941
 H1930 H 0.10925 0.83071 0.26413
 C1931 C 0.61610 0.37841 0.74871
 C1932 C 0.62299 0.40294 0.74280
 C1933 C 0.60529 0.42190 0.74304
 C1934 C 0.58079 0.41687 0.74956
 C1935 C 0.57401 0.39254 0.75522
 C1936 C 0.59132 0.37356 0.75476
 C1937 C 0.63559 0.35878 0.74868
 C1938 C 0.63057 0.33379 0.75396
 C1939 C 0.64944 0.31630 0.75416
 C1940 C 0.67386 0.32319 0.74923
 C1941 C 0.67900 0.34800 0.74364
 C1942 C 0.66013 0.36572 0.74322
 C1943 C 0.64755 0.40846 0.73709
 C1944 C 0.66573 0.39028 0.73741
 H1945 H 0.65286 0.42720 0.73256
 H1946 H 0.68450 0.39557 0.73308
 H1947 H 0.61072 0.44069 0.73883
 H1948 H 0.55512 0.38815 0.75996
 H1949 H 0.64488 0.29731 0.75843
 H1950 H 0.69773 0.35357 0.73944
 H1951 H 0.58492 0.35532 0.75943
 H1952 H 0.61223 0.32730 0.75800
 C1953 C 0.88165 0.11937 0.24871
 C1954 C 0.87617 0.09443 0.24312
 C1955 C 0.89501 0.07659 0.24340
 C1956 C 0.91927 0.08322 0.24957
 C1957 C 0.92456 0.10792 0.25511
 C1958 C 0.90610 0.12575 0.25469
 C1959 C 0.86112 0.13786 0.24822
 C1960 C 0.86492 0.16312 0.25296
 C1961 C 0.84532 0.17965 0.25250
 C1962 C 0.82126 0.17162 0.24737
 C1963 C 0.81723 0.14646 0.24246
 C1964 C 0.83697 0.12960 0.24273
 C1965 C 0.85192 0.08746 0.23753
 C1966 C 0.83274 0.10463 0.23746
 H1967 H 0.84767 0.06838 0.23329
 H1968 H 0.81430 0.09826 0.23315
 H1969 H 0.89074 0.05748 0.23928
 H1970 H 0.94319 0.11356 0.25956
 H1971 H 0.84911 0.19890 0.25636
 H1972 H 0.79879 0.13999 0.23826
 H1973 H 0.91147 0.14436 0.25920
 H1974 H 0.88286 0.17062 0.25704
 C1975 C 0.38413 0.61774 0.75031
 C1976 C 0.37793 0.59262 0.74654
 C1977 C 0.39644 0.57446 0.74687
 C1978 C 0.42109 0.58094 0.75131
 C1979 C 0.42712 0.60582 0.75501
 C1980 C 0.40898 0.62398 0.75451
 C1981 C 0.36390 0.63656 0.74994
 C1982 C 0.36830 0.66199 0.75302
 C1983 C 0.34890 0.67880 0.75290
 C1984 C 0.32448 0.67083 0.74976
 C1985 C 0.31988 0.64552 0.74641
 C1986 C 0.33936 0.62841 0.74638
 C1987 C 0.35331 0.58579 0.74275
 C1988 C 0.33444 0.60327 0.74279
 H1989 H 0.34852 0.56658 0.73989
 H1990 H 0.31568 0.59700 0.73995
 H1991 H 0.39162 0.55522 0.74417
 H1992 H 0.44607 0.61132 0.75811
 H1993 H 0.35311 0.69817 0.75548
 H1994 H 0.30114 0.63909 0.74374
 H1995 H 0.41489 0.64272 0.75756
 H1996 H 0.38656 0.66940 0.75556
 C1997 C 0.88904 0.88055 0.74124
 C1998 C 0.88176 0.90500 0.74680
 C1999 C 0.89938 0.92393 0.74768
 C2000 C 0.92434 0.91902 0.74302
 C2001 C 0.93148 0.89490 0.73706
 C2002 C 0.91412 0.87587 0.73620
 C2003 C 0.86966 0.86078 0.74100
 C2004 C 0.87505 0.83578 0.73644
 C2005 C 0.85641 0.81804 0.73659
 C2006 C 0.83183 0.82467 0.74120
 C2007 C 0.82624 0.84955 0.74576
 C2008 C 0.84491 0.86754 0.74582
 C2009 C 0.85697 0.91046 0.75145
 C2010 C 0.83893 0.89216 0.75087
 H2011 H 0.85141 0.92921 0.75562
 H2012 H 0.82001 0.89735 0.75461
 H2013 H 0.89361 0.94264 0.75182
 H2014 H 0.95065 0.89065 0.73348
 H2015 H 0.86135 0.79901 0.73299
 H2016 H 0.80738 0.85495 0.74952
 H2017 H 0.92076 0.85770 0.73163
 H2018 H 0.89353 0.82945 0.73284
 C2019 C 0.39127 0.38163 0.24520
 C2020 C 0.38733 0.40321 0.23101
 C2021 C 0.40537 0.42181 0.23037
 C2022 C 0.42687 0.41969 0.24452
 C2023 C 0.43053 0.39864 0.25901
 C2024 C 0.41309 0.37970 0.25922
 C2025 C 0.37166 0.36212 0.24523
 C2026 C 0.37466 0.33918 0.25706
 C2027 C 0.35584 0.32165 0.25666
 C2028 C 0.33345 0.32659 0.24474
 C2029 C 0.33026 0.34931 0.23278
 C2030 C 0.34935 0.36686 0.23252
 C2031 C 0.36516 0.40643 0.21818
 C2032 C 0.34641 0.38885 0.21927
 H2033 H 0.36205 0.42304 0.20749
 H2034 H 0.32944 0.39240 0.20932
 H2035 H 0.40230 0.43840 0.21962
 H2036 H 0.44695 0.39693 0.27027
 H2037 H 0.35874 0.30418 0.26594
 H2038 H 0.31315 0.35305 0.22313
 H2039 H 0.41681 0.36403 0.27089
 H2040 H 0.39146 0.33425 0.26647
   
