data_POSCAR
  _audit_creation_date              2014-09-24
  _audit_creation_method            'ToBaCCo'
  _symmetry_space_group_name_H-M    'P1'
  _symmetry_Int_Tables_number       1
  _symmetry_cell_setting            triclinic
  loop_
  _symmetry_equiv_pos_as_xyz
 x,y,z
_cell_length_a 66.8436
_cell_length_b 66.7238
_cell_length_c 66.5485
_cell_angle_alpha 89.981800
_cell_angle_beta 89.990600
_cell_angle_gamma 90.006300
loop_
  _atom_site_label
  _atom_site_type_symbol
  _atom_site_fract_x
  _atom_site_fract_y
  _atom_site_fract_z
N1 N 0.35026 1.35064 0.35126
 N2 N 0.35082 0.85115 0.85183
 N3 N 0.85062 1.35105 0.85166
 N4 N 0.85008 0.85049 0.35101
 N5 N 0.64933 0.64915 0.35145
 N6 N 0.64996 0.14973 0.85092
 N7 N 1.14996 0.64967 0.85058
 N8 N 1.14965 0.14913 0.35121
 N9 N 0.64946 1.35077 0.64874
 N10 N 0.64990 0.85057 1.14913
 N11 N 1.14973 1.35066 1.14878
 N12 N 1.14935 0.85063 0.64856
 N13 N 0.35011 0.64928 0.64875
 N14 N 0.35090 0.14907 1.14861
 N15 N 0.85043 0.64938 1.14864
 N16 N 0.85040 0.14895 0.64871
 N17 N 1.35004 0.35059 0.64900
 N18 N 1.35030 0.85063 1.14912
 N19 N 0.85035 0.35058 1.14866
 N20 N 0.85034 0.85053 0.64889
 N21 N 0.64957 0.64912 0.64854
 N22 N 0.64974 1.14943 1.14895
 N23 N 0.14939 0.64919 1.14851
 N24 N 0.14944 1.14898 0.64844
 N25 N 1.35050 0.64902 0.35158
 N26 N 1.35068 1.14948 0.85136
 N27 N 0.85028 0.64954 0.85096
 N28 N 0.85028 1.14909 0.35120
 N29 N 0.64958 0.35064 0.35120
 N30 N 0.64960 0.85102 0.85160
 N31 N 0.14956 0.35108 0.85130
 N32 N 0.14963 0.85056 0.35109
 O33 O 1.07235 1.02011 1.09997
 O34 O 1.09556 1.02027 1.12351
 C35 C 1.07926 1.02699 1.11635
 C36 C 1.06842 1.04326 1.12688
 C37 C 1.07492 1.05012 1.14574
 H38 H 1.08777 1.04322 1.15282
 O39 O 0.92785 0.98000 1.09999
 O40 O 0.90458 0.97980 1.12349
 C41 C 0.92090 0.97310 1.11637
 C42 C 0.93173 0.95683 1.12692
 C43 C 0.92519 0.94994 1.14576
 H44 H 0.91232 0.95685 1.15283
 O45 O 1.01897 1.09989 1.07242
 O46 O 1.01881 1.12331 1.09579
 C47 C 1.02569 1.11626 1.07946
 C48 C 1.04200 1.12688 1.06878
 C49 C 1.04863 1.14572 1.07541
 H50 H 1.04118 1.15295 1.08791
 O51 O 0.98123 0.90023 1.07248
 O52 O 0.98135 0.87679 1.09585
 C53 C 0.97450 0.88386 1.07950
 C54 C 0.95823 0.87324 1.06878
 C55 C 0.95156 0.85440 1.07541
 H56 H 0.95895 0.84718 1.08795
 O57 O 1.09955 1.07313 1.01961
 O58 O 1.12280 1.09659 1.01965
 C59 C 1.11581 1.08023 1.02647
 C60 C 1.12638 1.06955 1.04285
 C61 C 1.14517 1.07615 1.04960
 H62 H 1.15218 1.08898 1.04253
 O63 O 0.90096 0.92704 1.01944
 O64 O 0.87773 0.90357 1.01944
 C65 C 0.88471 0.91992 1.02629
 C66 C 0.87412 0.93053 1.04270
 C67 C 0.85535 0.92385 1.04941
 H68 H 0.84816 0.91134 1.04196
 O69 O 0.98008 1.07217 1.09991
 O70 O 0.97989 1.09548 1.12339
 C71 C 0.97318 1.07914 1.11627
 C72 C 0.95687 1.06837 1.12680
 C73 C 0.95004 1.07497 1.14563
 H74 H 0.95734 1.08751 1.15290
 O75 O 1.02007 0.92790 1.10002
 O76 O 1.02024 0.90459 1.12352
 C77 C 1.02695 0.92093 1.11639
 C78 C 1.04323 0.93174 1.12692
 C79 C 1.05008 0.92520 1.14578
 H80 H 1.04314 0.91234 1.15286
 O81 O 1.10002 0.98119 1.07252
 O82 O 1.12338 0.98128 1.09592
 C83 C 1.11634 0.97442 1.07957
 C84 C 1.12691 0.95809 1.06885
 C85 C 1.14567 0.95129 1.07550
 H86 H 1.15267 0.95832 1.08838
 O87 O 0.90020 1.01890 1.07245
 O88 O 0.87680 1.01875 1.09582
 C89 C 0.88385 1.02563 1.07948
 C90 C 0.87326 1.04195 1.06876
 C91 C 0.85446 1.04863 1.07538
 H92 H 0.84725 1.04120 1.08792
 O93 O 0.92709 1.09931 1.01952
 O94 O 0.90370 1.12261 1.01954
 C95 C 0.92002 1.11559 1.02638
 C96 C 0.93068 1.12618 1.04275
 C97 C 0.92408 1.14500 1.04951
 H98 H 0.91126 1.15200 1.04245
 O99 O 1.07300 0.90075 1.01955
 O100 O 1.09639 0.87744 1.01957
 C101 C 1.08007 0.88446 1.02640
 C102 C 1.06941 0.87386 1.04278
 C103 C 1.07599 0.85503 1.04953
 H104 H 1.08879 0.84801 1.04244
 O105 O 0.92758 1.01909 1.09997
 O106 O 0.90433 1.01895 1.12347
 C107 C 0.92055 1.02588 1.11633
 C108 C 0.93114 1.04232 1.12686
 C109 C 0.92451 1.04915 1.14569
 H110 H 0.91173 1.04208 1.15276
 O111 O 1.07254 0.98102 1.09995
 O112 O 1.09577 0.98114 1.12348
 C113 C 1.07955 0.97422 1.11633
 C114 C 1.06896 0.95779 1.12686
 C115 C 1.07558 0.95104 1.14571
 H116 H 1.08801 0.95850 1.15300
 O117 O 1.02025 0.90047 1.07249
 O118 O 1.02041 0.87703 1.09586
 C119 C 1.02717 0.88418 1.07951
 C120 C 1.04356 0.87376 1.06877
 C121 C 1.05034 0.85493 1.07529
 H122 H 1.04296 0.84758 1.08778
 O123 O 0.97993 1.09963 1.07239
 O124 O 0.97975 1.12306 1.09575
 C125 C 0.97299 1.11591 1.07941
 C126 C 0.95658 1.12632 1.06869
 C127 C 0.94978 1.14513 1.07522
 H128 H 0.95716 1.15249 1.08769
 O129 O 0.89983 1.07173 1.01949
 O130 O 0.87629 1.09489 1.01950
 C131 C 0.88349 1.07863 1.02635
 C132 C 0.87305 1.06784 1.04276
 C133 C 0.85426 1.07432 1.04961
 H134 H 0.84714 1.08711 1.04257
 O135 O 1.10021 0.92838 1.01958
 O136 O 1.12373 0.90520 1.01961
 C137 C 1.11654 0.92146 1.02645
 C138 C 1.12696 0.93218 1.04288
 C139 C 1.14572 0.92562 1.04973
 H140 H 1.15302 0.91314 1.04233
 O141 O 0.98104 0.92765 1.10001
 O142 O 0.98117 0.90433 1.12350
 C143 C 0.97425 0.92059 1.11637
 C144 C 0.95780 0.93114 1.12690
 C145 C 0.95107 0.92448 1.14575
 H146 H 0.95854 0.91205 1.15304
 O147 O 1.01912 1.07243 1.09993
 O148 O 1.01896 1.09573 1.12342
 C149 C 1.02589 1.07949 1.11630
 C150 C 1.04233 1.06893 1.12684
 C151 C 1.04903 1.07558 1.14570
 H152 H 1.04153 1.08799 1.15299
 O153 O 0.90048 0.97981 1.07245
 O154 O 0.87707 0.97960 1.09580
 C155 C 0.88423 0.97284 1.07946
 C156 C 0.87385 0.95642 1.06869
 C157 C 0.85509 0.94951 1.07520
 H158 H 0.84795 0.95650 1.08803
 O159 O 1.09979 1.02028 1.07249
 O160 O 1.12315 1.02043 1.09589
 C161 C 1.11604 1.02721 1.07954
 C162 C 1.12647 1.04363 1.06882
 C163 C 1.14526 1.05043 1.07535
 H164 H 1.15258 1.04302 1.08783
 O165 O 0.92856 0.89980 1.01945
 O166 O 0.90546 0.87620 1.01946
 C167 C 0.92167 0.88343 1.02632
 C168 C 0.93242 0.87300 1.04275
 C169 C 0.92595 0.85417 1.04960
 H170 H 0.91321 0.84702 1.04255
 O171 O 1.07189 1.10030 1.01962
 O172 O 1.09498 1.12391 1.01968
 C173 C 1.07875 1.11667 1.02649
 C174 C 1.06794 1.12709 1.04288
 C175 C 1.07437 1.14593 1.04973
 H176 H 1.08714 1.15308 1.04272
 Cu177 Cu 1.08385 1.00064 1.08388
 Cu178 Cu 1.11181 1.00080 1.11206
 Cu179 Cu 0.91636 0.99946 1.08388
 Cu180 Cu 0.88835 0.99926 1.11200
 Cu181 Cu 0.99954 1.08369 1.08382
 Cu182 Cu 0.99933 1.11174 1.11194
 Cu183 Cu 1.00064 0.91640 1.08391
 Cu184 Cu 1.00081 0.88834 1.11204
 C185 C 1.05200 1.05265 1.11766
 H186 H 1.04708 1.04762 1.10299
 C187 C 1.06531 1.06627 1.15527
 C188 C 0.94815 0.94744 1.11771
 H189 H 0.95310 0.95248 1.10306
 C190 C 0.93477 0.93378 1.15530
 C191 C 1.05163 1.11778 1.05239
 H192 H 1.04677 1.10313 1.04737
 C193 C 1.06480 1.15538 1.06597
 C194 C 0.94868 0.88231 1.05232
 H195 H 0.95357 0.89696 1.04730
 C196 C 0.93544 0.84474 1.06591
 C197 C 1.11726 1.05317 1.05244
 H198 H 1.10265 1.04818 1.04749
 C199 C 1.15474 1.06667 1.06584
 C200 C 0.88315 0.94694 1.05231
 H201 H 0.89774 0.95200 1.04738
 C202 C 0.84570 0.93324 1.06565
 C203 C 0.94745 1.05192 1.11764
 H204 H 0.95247 1.04693 1.10300
 C205 C 0.93386 1.06546 1.15519
 C206 C 1.05265 0.94816 1.11769
 H207 H 1.04764 0.95311 1.10303
 C208 C 1.06625 0.93476 1.15529
 C209 C 1.11778 0.94855 1.05242
 H210 H 1.10319 0.95352 1.04739
 C211 C 1.15519 0.93506 1.06603
 C212 C 0.88233 1.05153 1.05231
 H213 H 0.89695 1.04663 1.04730
 C214 C 0.84483 1.06480 1.06591
 C215 C 0.94705 1.11706 1.05232
 H216 H 0.95205 1.10243 1.04737
 C217 C 0.93355 1.15460 1.06572
 C218 C 1.05307 0.88300 1.05239
 H219 H 1.04808 0.89764 1.04745
 C220 C 1.06654 0.84544 1.06576
 O221 O 1.07256 0.98108 0.89993
 O222 O 1.09583 0.98124 0.87644
 C223 C 1.07961 0.97430 0.88357
 C224 C 1.06907 0.95784 0.87302
 C225 C 1.07572 0.95112 0.85417
 H226 H 1.08813 0.95862 0.84688
 O227 O 0.92795 1.01920 0.89983
 O228 O 0.90474 1.01908 0.87629
 C229 C 0.92095 1.02601 0.88346
 C230 C 0.93155 1.04246 0.87296
 C231 C 0.92500 1.04923 0.85408
 H232 H 0.91228 1.04210 0.84695
 O233 O 0.98007 1.09985 0.92759
 O234 O 0.97991 1.12331 0.90424
 C235 C 0.97313 1.11614 0.92057
 C236 C 0.95670 1.12652 0.93128
 C237 C 0.94991 1.14535 0.92476
 H238 H 0.95732 1.15273 0.91232
 O239 O 1.02039 0.90036 0.92734
 O240 O 1.02058 0.87693 0.90397
 C241 C 1.02733 0.88407 0.92032
 C242 C 1.04371 0.87366 0.93109
 C243 C 1.05061 0.85488 0.92455
 H244 H 1.04364 0.84774 0.91171
 O245 O 1.10025 0.92838 0.98038
 O246 O 1.12380 0.90524 0.98037
 C247 C 1.11660 0.92149 0.97353
 C248 C 1.12704 0.93229 0.95715
 C249 C 1.14587 0.92586 0.95034
 H250 H 1.15301 0.91309 0.95739
 O251 O 0.89992 1.07174 0.98028
 O252 O 0.87638 1.09489 0.98024
 C253 C 0.88360 1.07865 0.97339
 C254 C 0.87322 1.06789 0.95695
 C255 C 0.85443 1.07436 0.95007
 H256 H 0.84728 1.08712 0.95711
 O257 O 1.01929 1.07270 0.90007
 O258 O 1.01916 1.09602 0.87658
 C259 C 1.02607 1.07976 0.88370
 C260 C 1.04246 1.06916 0.87314
 C261 C 1.04913 1.07575 0.85425
 H262 H 1.04166 1.08819 0.84695
 O263 O 0.98122 0.92760 0.89983
 O264 O 0.98137 0.90431 0.87633
 C265 C 0.97445 0.92056 0.88346
 C266 C 0.95804 0.93115 0.87292
 C267 C 0.95130 0.92449 0.85408
 H268 H 0.95875 0.91204 0.84680
 O269 O 1.09972 1.02035 0.92746
 O270 O 1.12311 1.02053 0.90408
 C271 C 1.11598 1.02729 0.92043
 C272 C 1.12640 1.04370 0.93117
 C273 C 1.14519 1.05050 0.92464
 H274 H 1.15252 1.04311 0.91215
 O275 O 0.90078 0.97991 0.92731
 O276 O 0.87742 0.97975 0.90391
 C277 C 0.88454 0.97297 0.92027
 C278 C 0.87412 0.95655 0.93099
 C279 C 0.85534 0.94975 0.92445
 H280 H 0.84802 0.95715 0.91197
 O281 O 1.07196 1.10040 0.98044
 O282 O 1.09505 1.12400 0.98043
 C283 C 1.07883 1.11679 0.97359
 C284 C 1.06804 1.12725 0.95722
 C285 C 1.07449 1.14610 0.95039
 H286 H 1.08727 1.15322 0.95741
 O287 O 0.92857 0.89979 0.98025
 O288 O 0.90547 0.87619 0.98021
 C289 C 0.92170 0.88341 0.97338
 C290 C 0.93247 0.87297 0.95698
 C291 C 0.92601 0.85413 0.95014
 H292 H 0.91324 0.84700 0.95717
 O293 O 0.92815 0.98009 0.89976
 O294 O 0.90493 0.97993 0.87623
 C295 C 0.92123 0.97321 0.88338
 C296 C 0.93203 0.95691 0.87285
 C297 C 0.92550 0.95003 0.85401
 H298 H 0.91265 0.95696 0.84693
 O299 O 1.07230 1.02018 0.89997
 O300 O 1.09556 1.02037 0.87646
 C301 C 1.07925 1.02708 0.88360
 C302 C 1.06844 1.04338 0.87307
 C303 C 1.07491 1.05019 0.85417
 H304 H 1.08771 1.04321 0.84706
 O305 O 0.98137 0.90013 0.92733
 O306 O 0.98151 0.87671 0.90396
 C307 C 0.97464 0.88377 0.92029
 C308 C 0.95833 0.87316 0.93100
 C309 C 0.95167 0.85432 0.92438
 H310 H 0.95908 0.84710 0.91185
 O311 O 1.01911 1.10013 0.92760
 O312 O 1.01899 1.12357 0.90424
 C313 C 1.02584 1.11649 0.92058
 C314 C 1.04214 1.12709 0.93128
 C315 C 1.04880 1.14594 0.92467
 H316 H 1.04136 1.15319 0.91217
 O317 O 0.90100 0.92706 0.98024
 O318 O 0.87775 0.90360 0.98020
 C319 C 0.88475 0.91996 0.97337
 C320 C 0.87420 0.93063 0.95698
 C321 C 0.85541 0.92403 0.95021
 H322 H 0.84839 0.91121 0.95729
 O323 O 1.09950 1.07312 0.98042
 O324 O 1.12275 1.09658 0.98040
 C325 C 1.11575 1.08023 0.97356
 C326 C 1.12632 1.06957 0.95717
 C327 C 1.14511 1.07618 0.95041
 H328 H 1.15212 1.08899 0.95750
 O329 O 1.02024 0.92783 0.89984
 O330 O 1.02044 0.90455 0.87634
 C331 C 1.02714 0.92089 0.88348
 C332 C 1.04340 0.93173 0.87295
 C333 C 1.05028 0.92522 0.85410
 H334 H 1.04337 0.91234 0.84701
 O335 O 0.98028 1.07243 0.90005
 O336 O 0.98012 1.09577 0.87657
 C337 C 0.97342 1.07941 0.88368
 C338 C 0.95718 1.06860 0.87310
 C339 C 0.95043 1.07514 0.85422
 H340 H 0.95773 1.08769 0.84695
 O341 O 0.90046 1.01900 0.92726
 O342 O 0.87712 1.01888 0.90385
 C343 C 0.88414 1.02574 0.92021
 C344 C 0.87351 1.04204 0.93092
 C345 C 0.85471 1.04871 0.92426
 H346 H 0.84753 1.04130 0.91170
 O347 O 1.09992 0.98126 0.92748
 O348 O 1.12332 0.98140 0.90411
 C349 C 1.11626 0.97452 0.92045
 C350 C 1.12685 0.95821 0.93117
 C351 C 1.14568 0.95158 0.92459
 H352 H 1.15291 0.95903 0.91208
 O353 O 1.07303 0.90077 0.98035
 O354 O 1.09644 0.87749 0.98035
 C355 C 1.08013 0.88449 0.97350
 C356 C 1.06954 0.87390 0.95709
 C357 C 1.07622 0.85511 0.95035
 H358 H 1.08871 0.84791 0.95780
 O359 O 0.92711 1.09939 0.98035
 O360 O 0.90372 1.12269 0.98032
 C361 C 0.92005 1.11569 0.97351
 C362 C 0.93075 1.12632 0.95717
 C363 C 0.92416 1.14515 0.95043
 H364 H 0.91132 1.15214 0.95748
 Cu365 Cu 1.08379 1.00070 0.91605
 Cu366 Cu 1.11180 1.00090 0.88792
 Cu367 Cu 0.91667 0.99956 0.91588
 Cu368 Cu 0.88871 0.99940 0.88771
 Cu369 Cu 1.08342 1.08438 1.00002
 Cu370 Cu 1.11122 1.11264 1.00004
 Cu371 Cu 1.08428 0.91689 0.99996
 Cu372 Cu 1.11245 0.88901 0.99998
 Cu373 Cu 0.91583 1.08321 0.99991
 Cu374 Cu 0.88766 1.11110 0.99990
 Cu375 Cu 0.91709 0.91577 0.99984
 Cu376 Cu 0.88927 0.88752 0.99982
 Cu377 Cu 0.99970 1.08394 0.91618
 Cu378 Cu 0.99953 1.11202 0.88806
 Cu379 Cu 1.00079 0.91631 0.91593
 Cu380 Cu 1.00100 0.88828 0.88779
 C381 C 1.05279 0.94817 0.88219
 H382 H 1.04775 0.95310 0.89685
 C383 C 1.06642 0.93483 0.84459
 C384 C 0.94777 1.05213 0.88224
 H385 H 0.95272 1.04717 0.89692
 C386 C 0.93435 1.06555 0.84459
 C387 C 0.94714 1.11723 0.94761
 H388 H 0.95214 1.10259 0.95255
 C389 C 0.93365 1.15479 0.93425
 C390 C 1.05316 0.88295 0.94748
 H391 H 1.04810 0.89756 0.95243
 C392 C 1.06686 0.84547 0.93409
 C393 C 1.11776 0.94859 0.94758
 H394 H 1.10311 0.95346 0.95256
 C395 C 1.15532 0.93542 0.93408
 C396 C 0.88253 1.05161 0.94738
 H397 H 0.89715 1.04671 0.95243
 C398 C 0.84505 1.06486 0.93374
 C399 C 1.05209 1.05285 0.88233
 H400 H 1.04720 1.04785 0.89702
 C401 C 1.06534 1.06636 0.84464
 C402 C 0.94843 0.94748 0.88208
 H403 H 0.95337 0.95252 0.89673
 C404 C 0.93504 0.93383 0.84450
 C405 C 1.11719 1.05321 0.94756
 H406 H 1.10257 1.04821 0.95251
 C407 C 1.15467 1.06672 0.93417
 C408 C 0.88333 0.94701 0.94738
 H409 H 0.89794 0.95201 0.95234
 C410 C 0.84586 0.93351 0.93397
 C411 C 1.05174 1.11797 0.94768
 H412 H 1.04686 1.10331 0.95268
 C413 C 1.06496 1.15557 0.93413
 C414 C 0.94876 0.88226 0.94743
 H415 H 0.95365 0.89691 0.95244
 C416 C 0.93552 0.84468 0.93386
 O417 O 0.98125 0.42688 0.40009
 O418 O 0.98150 0.40351 0.37667
 C419 C 0.97452 0.41976 0.38373
 C420 C 0.95809 0.43026 0.37313
 C421 C 0.95145 0.42359 0.35427
 H422 H 0.95897 0.41116 0.34701
 O423 O 1.01883 0.57207 0.39952
 O424 O 1.01867 0.59528 0.37593
 C425 C 1.02563 0.57908 0.38314
 C426 C 1.04210 0.56850 0.37268
 C427 C 1.04892 0.57510 0.35384
 H428 H 1.04182 0.58784 0.34669
 O429 O 0.90057 0.47904 0.42729
 O430 O 0.87720 0.47867 0.40390
 C431 C 0.88434 0.47200 0.42029
 C432 C 0.87398 0.45561 0.43112
 C433 C 0.85519 0.44872 0.42467
 H434 H 0.84803 0.45570 0.41185
 O435 O 1.09939 0.52011 0.42749
 O436 O 1.12283 0.52025 0.40416
 C437 C 1.11564 0.52706 0.42046
 C438 C 1.12599 0.54355 0.43114
 C439 C 1.14478 0.55037 0.42462
 H440 H 1.15215 0.54293 0.41219
 O441 O 0.92870 0.39918 0.48059
 O442 O 0.90565 0.37553 0.48062
 C443 C 0.92186 0.38277 0.47377
 C444 C 0.93266 0.37230 0.45740
 C445 C 0.92622 0.35345 0.45059
 H446 H 0.91345 0.34632 0.45763
 O447 O 1.07121 0.60031 0.47999
 O448 O 1.09424 0.62398 0.47989
 C449 C 1.07805 0.61668 0.47307
 C450 C 1.06727 0.62703 0.45661
 C451 C 1.07365 0.64588 0.44973
 H452 H 1.08637 0.65308 0.45677
 O453 O 0.92762 0.51830 0.39966
 O454 O 0.90440 0.51798 0.37613
 C455 C 0.92058 0.52501 0.38325
 C456 C 0.93109 0.54147 0.37267
 C457 C 0.92443 0.54816 0.35381
 H458 H 0.91203 0.54063 0.34654
 O459 O 1.07240 0.48067 0.40007
 O460 O 1.09570 0.48080 0.37661
 C461 C 1.07949 0.47384 0.38374
 C462 C 1.06900 0.45733 0.37323
 C463 C 1.07566 0.45061 0.35439
 H464 H 1.08804 0.45813 0.34708
 O465 O 1.02050 0.39990 0.42774
 O466 O 1.02079 0.37638 0.40447
 C467 C 1.02750 0.38361 0.42080
 C468 C 1.04390 0.37329 0.43162
 C469 C 1.05082 0.35448 0.42518
 H470 H 1.04387 0.34728 0.41238
 O471 O 0.97951 0.59920 0.42690
 O472 O 0.97929 0.62256 0.40345
 C473 C 0.97253 0.61544 0.41981
 C474 C 0.95608 0.62583 0.43049
 C475 C 0.94926 0.64463 0.42393
 H476 H 0.95665 0.65199 0.41145
 O477 O 0.89951 0.57115 0.47981
 O478 O 0.87588 0.59421 0.47966
 C479 C 0.88315 0.57796 0.47290
 C480 C 0.87279 0.56708 0.45653
 C481 C 0.85396 0.57344 0.44965
 H482 H 0.84679 0.58622 0.45663
 O483 O 1.10024 0.42833 0.48075
 O484 O 1.12387 0.40527 0.48085
 C485 C 1.11662 0.42147 0.47393
 C486 C 1.12702 0.43223 0.45749
 C487 C 1.14584 0.42577 0.45065
 H488 H 1.15299 0.41302 0.45773
 O489 O 0.97981 0.57167 0.39948
 O490 O 0.97959 0.59489 0.37589
 C491 C 0.97293 0.57855 0.38308
 C492 C 0.95670 0.56764 0.37257
 C493 C 0.94982 0.57412 0.35371
 H494 H 0.95669 0.58701 0.34660
 O495 O 1.02027 0.42725 0.40012
 O496 O 1.02057 0.40388 0.37670
 C497 C 1.02719 0.42027 0.38379
 C498 C 1.04342 0.43114 0.37323
 C499 C 1.05030 0.42462 0.35439
 H500 H 1.04343 0.41171 0.34732
 O501 O 1.09975 0.48101 0.42763
 O502 O 1.12318 0.48113 0.40428
 C503 C 1.11612 0.47429 0.42064
 C504 C 1.12675 0.45804 0.43142
 C505 C 1.14556 0.45139 0.42481
 H506 H 1.15275 0.45879 0.41224
 O507 O 0.90014 0.51813 0.42709
 O508 O 0.87679 0.51781 0.40369
 C509 C 0.88379 0.52477 0.42001
 C510 C 0.87312 0.54109 0.43064
 C511 C 0.85429 0.54766 0.42398
 H512 H 0.84712 0.54016 0.41147
 O513 O 0.92664 0.59886 0.47974
 O514 O 0.90315 0.62207 0.47960
 C515 C 0.91951 0.61510 0.47282
 C516 C 0.93017 0.62569 0.45642
 C517 C 0.92355 0.64449 0.44964
 H518 H 0.91072 0.65148 0.45669
 O519 O 1.07311 0.40064 0.48080
 O520 O 1.09660 0.37743 0.48091
 C521 C 1.08027 0.38436 0.47402
 C522 C 1.06972 0.37368 0.45763
 C523 C 1.07642 0.35486 0.45099
 H524 H 1.08891 0.34771 0.45849
 O525 O 1.07205 0.51977 0.39992
 O526 O 1.09536 0.51993 0.37647
 C527 C 1.07902 0.52662 0.38354
 C528 C 1.06823 0.54286 0.37291
 C529 C 1.07482 0.54966 0.35406
 H530 H 1.08739 0.54238 0.34684
 O531 O 0.92799 0.47920 0.39979
 O532 O 0.90477 0.47884 0.37626
 C533 C 0.92110 0.47222 0.38344
 C534 C 0.93199 0.45593 0.37297
 C535 C 0.92555 0.44904 0.35411
 H536 H 0.91272 0.45593 0.34698
 O537 O 1.01853 0.59959 0.42695
 O538 O 1.01837 0.62294 0.40349
 C539 C 1.02522 0.61595 0.41987
 C540 C 1.04146 0.62666 0.43058
 C541 C 1.04805 0.64551 0.42393
 H542 H 1.04063 0.65268 0.41137
 O543 O 0.98148 0.39952 0.42769
 O544 O 0.98172 0.37601 0.40440
 C545 C 0.97481 0.38311 0.42071
 C546 C 0.95853 0.37249 0.43143
 C547 C 0.95189 0.35363 0.42484
 H548 H 0.95932 0.34640 0.41233
 O549 O 1.09889 0.57317 0.48016
 O550 O 1.12208 0.59669 0.48007
 C551 C 1.11514 0.58029 0.47330
 C552 C 1.12577 0.56957 0.45699
 C553 C 1.14456 0.57619 0.45025
 H554 H 1.15153 0.58906 0.45728
 O555 O 0.90107 0.42639 0.48046
 O556 O 0.87788 0.40287 0.48051
 C557 C 0.88484 0.41922 0.47362
 C558 C 0.87425 0.42979 0.45719
 C559 C 0.85545 0.42312 0.45053
 H560 H 0.84826 0.41065 0.45805
 Cu561 Cu 1.00085 0.41573 0.41625
 Cu562 Cu 1.00118 0.38759 0.38821
 Cu563 Cu 0.99919 0.58331 0.41556
 Cu564 Cu 0.99896 0.61126 0.38733
 Cu565 Cu 0.91641 0.49869 0.41580
 Cu566 Cu 0.88845 0.49829 0.38763
 Cu567 Cu 1.08356 0.50038 0.41611
 Cu568 Cu 1.11162 0.50054 0.38803
 C569 C 0.94838 0.44657 0.38226
 H570 H 0.95325 0.45162 0.39693
 C571 C 0.93520 0.43288 0.34463
 C572 C 1.05174 0.55226 0.38199
 H573 H 1.04674 0.54726 0.39665
 C574 C 1.06527 0.56577 0.34440
 C575 C 0.88329 0.44616 0.44751
 H576 H 0.89790 0.45121 0.45239
 C577 C 0.84580 0.43250 0.43430
 C578 C 1.11671 0.55313 0.44746
 H579 H 1.10210 0.54812 0.45240
 C580 C 1.15419 0.56667 0.43407
 C581 C 0.94894 0.38160 0.44784
 H582 H 0.95381 0.39626 0.45283
 C583 C 0.93575 0.34399 0.43432
 C584 C 1.05105 0.61763 0.44704
 H585 H 1.04622 0.60297 0.45209
 C586 C 1.06413 0.65525 0.43341
 C587 C 0.94736 0.55119 0.38183
 H588 H 0.95240 0.54629 0.39649
 C589 C 0.93370 0.56447 0.34421
 C590 C 1.05275 0.44762 0.38243
 H591 H 1.04771 0.45257 0.39708
 C592 C 1.06641 0.43426 0.34484
 C593 C 1.05333 0.38266 0.44797
 H594 H 1.04825 0.39729 0.45285
 C595 C 1.06707 0.34514 0.43479
 C596 C 0.94656 0.61658 0.44687
 H597 H 0.95157 0.60196 0.45184
 C598 C 0.93301 0.65409 0.43341
 C599 C 0.88214 0.55077 0.44704
 H600 H 0.89678 0.54596 0.45208
 C601 C 0.84458 0.56382 0.43339
 C602 C 1.11770 0.44849 0.44789
 H603 H 1.10307 0.45337 0.45289
 C604 C 1.15523 0.43526 0.43432
 O605 O 1.01991 0.42800 0.60030
 O606 O 1.02015 0.40479 0.62389
 C607 C 1.02680 0.42113 0.61670
 C608 C 1.04300 0.43206 0.62722
 C609 C 1.04988 0.42561 0.64609
 H610 H 1.04301 0.41272 0.65321
 O611 O 0.97945 0.57241 0.59952
 O612 O 0.97916 0.59581 0.62291
 C613 C 0.97253 0.57941 0.61585
 C614 C 0.95628 0.56860 0.62643
 C615 C 0.94944 0.57522 0.64524
 H616 H 0.95668 0.58782 0.65246
 O617 O 0.89999 0.51863 0.57223
 O618 O 0.87656 0.51852 0.59556
 C619 C 0.88362 0.52535 0.57920
 C620 C 0.87299 0.54158 0.56840
 C621 C 0.85416 0.54823 0.57498
 H622 H 0.84697 0.54083 0.58755
 O623 O 1.09953 0.48155 0.57264
 O624 O 1.12287 0.48185 0.59605
 C625 C 1.11587 0.47489 0.57973
 C626 C 1.12653 0.45856 0.56911
 C627 C 1.14535 0.45197 0.57579
 H628 H 1.15252 0.45947 0.58830
 O629 O 1.07305 0.40075 0.51999
 O630 O 1.09653 0.37754 0.52015
 C631 C 1.08017 0.38451 0.52692
 C632 C 1.06952 0.37394 0.54332
 C633 C 1.07612 0.35514 0.55011
 H634 H 1.08894 0.34812 0.54305
 O635 O 0.92657 0.59902 0.51893
 O636 O 0.90307 0.62221 0.51883
 C637 C 0.91941 0.61530 0.52571
 C638 C 0.92997 0.62600 0.54208
 C639 C 0.92326 0.64481 0.54873
 H640 H 0.91075 0.65194 0.54125
 O641 O 0.92768 0.47992 0.60001
 O642 O 0.90437 0.47975 0.62346
 C643 C 0.92072 0.47307 0.61639
 C644 C 0.93155 0.45685 0.62702
 C645 C 0.92502 0.45003 0.64589
 H646 H 0.91215 0.45695 0.65293
 O647 O 1.07170 0.52050 0.59992
 O648 O 1.09491 0.52084 0.62347
 C649 C 1.07859 0.52747 0.61628
 C650 C 1.06772 0.54377 0.62673
 C651 C 1.07419 0.55070 0.64557
 H652 H 1.08704 0.54381 0.65270
 O653 O 0.98121 0.40006 0.57285
 O654 O 0.98139 0.37671 0.59632
 C655 C 0.97453 0.38369 0.57994
 C656 C 0.95831 0.37297 0.56923
 C657 C 0.95171 0.35412 0.57589
 H658 H 0.95911 0.34697 0.58847
 O659 O 1.01827 0.60016 0.57197
 O660 O 1.01802 0.62367 0.59525
 C661 C 1.02493 0.61656 0.57895
 C662 C 1.04123 0.62719 0.56825
 C663 C 1.04786 0.64604 0.57485
 H664 H 1.04041 0.65327 0.58736
 O665 O 0.90103 0.42652 0.51966
 O666 O 0.87784 0.40300 0.51974
 C667 C 0.88478 0.41940 0.52652
 C668 C 0.87414 0.43007 0.54286
 C669 C 0.85535 0.42341 0.54954
 H670 H 0.84820 0.41087 0.54211
 O671 O 1.09882 0.57333 0.51934
 O672 O 1.12201 0.59685 0.51930
 C673 C 1.11505 0.58050 0.52619
 C674 C 1.12562 0.56992 0.54264
 C675 C 1.14437 0.57661 0.54942
 H676 H 1.15136 0.58943 0.54232
 O677 O 1.01848 0.57283 0.59960
 O678 O 1.01823 0.59621 0.62301
 C679 C 1.02521 0.57995 0.61596
 C680 C 1.04164 0.56946 0.62656
 C681 C 1.04832 0.57617 0.64541
 H682 H 1.04082 0.58862 0.65264
 O683 O 0.98090 0.42764 0.60022
 O684 O 0.98108 0.40442 0.62382
 C685 C 0.97412 0.42062 0.61661
 C686 C 0.95765 0.43119 0.62710
 C687 C 0.95093 0.42459 0.64596
 H688 H 0.95842 0.41220 0.65331
 O689 O 1.09914 0.52065 0.57244
 O690 O 1.12248 0.52098 0.59586
 C691 C 1.11536 0.52767 0.57947
 C692 C 1.12574 0.54409 0.56870
 C693 C 1.14448 0.55097 0.57525
 H694 H 1.15181 0.54363 0.58777
 O695 O 0.90035 0.47954 0.57243
 O696 O 0.87689 0.47938 0.59574
 C697 C 0.88410 0.47257 0.57944
 C698 C 0.87378 0.45608 0.56872
 C699 C 0.85499 0.44920 0.57520
 H700 H 0.84780 0.45625 0.58796
 O701 O 1.07116 0.60050 0.51918
 O702 O 1.09420 0.62416 0.51915
 C703 C 1.07799 0.61692 0.52599
 C704 C 1.06716 0.62738 0.54233
 C705 C 1.07359 0.64623 0.54917
 H706 H 1.08637 0.65336 0.54216
 O707 O 0.92865 0.39931 0.51979
 O708 O 0.90560 0.37566 0.51987
 C709 C 0.92179 0.38294 0.52670
 C710 C 0.93255 0.37259 0.54317
 C711 C 0.92615 0.35374 0.55005
 H712 H 0.91344 0.34653 0.54299
 O713 O 1.07207 0.48140 0.60009
 O714 O 1.09529 0.48171 0.62363
 C715 C 1.07910 0.47469 0.61650
 C716 C 1.06859 0.45824 0.62709
 C717 C 1.07524 0.45159 0.64597
 H718 H 1.08763 0.45913 0.65324
 O719 O 0.92729 0.51902 0.59983
 O720 O 0.90399 0.51890 0.62330
 C721 C 0.92020 0.52586 0.61616
 C722 C 0.93071 0.54240 0.62662
 C723 C 0.92406 0.54925 0.64543
 H724 H 0.91133 0.54213 0.65255
 O725 O 0.97923 0.59980 0.57193
 O726 O 0.97895 0.62333 0.59519
 C727 C 0.97224 0.61609 0.57887
 C728 C 0.95583 0.62641 0.56805
 C729 C 0.94890 0.64521 0.57450
 H730 H 0.95586 0.65242 0.58730
 O731 O 1.02022 0.40049 0.57286
 O732 O 1.02045 0.37714 0.59632
 C733 C 1.02720 0.38425 0.57995
 C734 C 1.04363 0.37384 0.56927
 C735 C 1.05043 0.35504 0.57583
 H736 H 1.04304 0.34770 0.58832
 O737 O 1.10015 0.42849 0.51994
 O738 O 1.12378 0.40542 0.52010
 C739 C 1.11650 0.42167 0.52686
 C740 C 1.12686 0.43256 0.54324
 C741 C 1.14567 0.42617 0.55014
 H742 H 1.15284 0.41338 0.54317
 O743 O 0.89948 0.57127 0.51902
 O744 O 0.87584 0.59433 0.51892
 C745 C 0.88311 0.57813 0.52583
 C746 C 0.87271 0.56737 0.54229
 C747 C 0.85389 0.57382 0.54911
 H748 H 0.84673 0.58655 0.54202
 Cu749 Cu 1.00054 0.41638 0.58421
 Cu750 Cu 1.00079 0.38843 0.61245
 Cu751 Cu 0.99888 0.58396 0.58342
 Cu752 Cu 0.99856 0.61211 0.61144
 Cu753 Cu 0.91718 0.41520 0.50012
 Cu754 Cu 0.88942 0.38690 0.50019
 Cu755 Cu 1.08429 0.41687 0.50036
 Cu756 Cu 1.11257 0.38909 0.50052
 Cu757 Cu 0.91540 0.58276 0.49939
 Cu758 Cu 0.88712 0.61053 0.49924
 Cu759 Cu 1.08272 0.58447 0.49968
 Cu760 Cu 1.11045 0.61280 0.49959
 Cu761 Cu 0.91616 0.49929 0.58380
 Cu762 Cu 0.88810 0.49913 0.61187
 Cu763 Cu 1.08328 0.50099 0.58393
 Cu764 Cu 1.11123 0.50138 0.61211
 C765 C 1.05235 0.44850 0.61794
 H766 H 1.04731 0.45338 0.60326
 C767 C 1.06598 0.43528 0.65559
 C768 C 0.94694 0.55207 0.61734
 H769 H 0.95198 0.54705 0.60271
 C770 C 0.93333 0.56565 0.65486
 C771 C 0.88204 0.55113 0.55192
 H772 H 0.89668 0.54626 0.54693
 C773 C 0.84449 0.56433 0.56544
 C774 C 1.11752 0.44888 0.55270
 H775 H 1.10289 0.45371 0.54764
 C776 C 1.15504 0.43579 0.56640
 C777 C 1.05315 0.38307 0.55288
 H778 H 1.04814 0.39769 0.54790
 C779 C 1.06666 0.34556 0.56635
 C780 C 0.94638 0.61702 0.55172
 H781 H 0.95147 0.60240 0.54684
 C782 C 0.93263 0.65454 0.56492
 C783 C 0.94799 0.44744 0.61785
 H784 H 0.95293 0.45244 0.60317
 C785 C 0.93462 0.43391 0.65548
 C786 C 1.05132 0.55313 0.61745
 H787 H 1.04643 0.54805 0.60280
 C788 C 1.06457 0.56688 0.65504
 C789 C 0.94876 0.38198 0.55274
 H790 H 0.95360 0.39664 0.54769
 C791 C 0.93564 0.34438 0.56639
 C792 C 1.05085 0.61808 0.55186
 H793 H 1.04599 0.60342 0.54685
 C794 C 1.06403 0.65568 0.56542
 C795 C 0.88314 0.44653 0.55242
 H796 H 0.89774 0.45157 0.54751
 C797 C 0.84565 0.43288 0.56569
 C798 C 1.11652 0.55354 0.55227
 H799 H 1.10194 0.54847 0.54730
 C800 C 1.15392 0.56722 0.56571
 O801 O 0.48118 0.92717 0.40032
 O802 O 0.48140 0.90384 0.37685
 C803 C 0.47442 0.92008 0.38396
 C804 C 0.45797 0.93061 0.37341
 C805 C 0.45132 0.92398 0.35453
 H806 H 0.45884 0.91158 0.34723
 O807 O 0.51872 1.07232 0.39994
 O808 O 0.51851 1.09558 0.37639
 C809 C 0.52548 1.07936 0.38355
 C810 C 0.54194 1.06882 0.37304
 C811 C 0.54867 1.07547 0.35419
 H812 H 0.54118 1.08788 0.34688
 O813 O 0.40040 0.97926 0.42766
 O814 O 0.37702 0.97899 0.40429
 C815 C 0.38416 0.97227 0.42065
 C816 C 0.37380 0.95584 0.43143
 C817 C 0.35502 0.94894 0.42494
 H818 H 0.34787 0.95594 0.41213
 O819 O 0.59930 1.02036 0.42760
 O820 O 0.62269 1.02058 0.40423
 C821 C 0.61553 1.02735 0.42057
 C822 C 0.62588 1.04382 0.43126
 C823 C 0.64464 1.05068 0.42470
 H824 H 0.65198 1.04329 0.41223
 O825 O 0.42859 0.89933 0.48068
 O826 O 0.40557 0.87565 0.48071
 C827 C 0.42177 0.88292 0.47385
 C828 C 0.43258 0.87247 0.45748
 C829 C 0.42617 0.85361 0.45066
 H830 H 0.41341 0.84646 0.45769
 O831 O 0.57117 1.10044 0.48037
 O832 O 0.59422 1.12409 0.48030
 C833 C 0.57802 1.11681 0.47347
 C834 C 0.56724 1.12719 0.45703
 C835 C 0.57365 1.14603 0.45015
 H836 H 0.58639 1.15321 0.45718
 O837 O 0.42750 1.01856 0.40011
 O838 O 0.40426 1.01831 0.37660
 C839 C 0.42046 1.02530 0.38372
 C840 C 0.43097 1.04177 0.37315
 C841 C 0.42433 1.04844 0.35428
 H842 H 0.41194 1.04090 0.34700
 O843 O 0.57231 0.98094 0.40017
 O844 O 0.59557 0.98113 0.37667
 C845 C 0.57938 0.97414 0.38382
 C846 C 0.56889 0.95763 0.37332
 C847 C 0.57556 0.95089 0.35448
 H848 H 0.58794 0.95841 0.34717
 O849 O 0.52047 0.90013 0.42785
 O850 O 0.52073 0.87665 0.40454
 C851 C 0.52746 0.88386 0.42087
 C852 C 0.54389 0.87353 0.43164
 C853 C 0.55080 0.85472 0.42518
 H854 H 0.54381 0.84752 0.41240
 O855 O 0.47945 1.09945 0.42742
 O856 O 0.47921 1.12284 0.40400
 C857 C 0.47248 1.11570 0.42036
 C858 C 0.45608 1.12611 0.43109
 C859 C 0.44925 1.14492 0.42455
 H860 H 0.45662 1.15226 0.41206
 O861 O 0.39964 1.07140 0.48040
 O862 O 0.37601 1.09446 0.48032
 C863 C 0.38328 1.07823 0.47352
 C864 C 0.37289 1.06737 0.45713
 C865 C 0.35408 1.07378 0.45026
 H866 H 0.34693 1.08657 0.45725
 O867 O 0.60039 0.92857 0.48071
 O868 O 0.62401 0.90549 0.48072
 C869 C 0.61674 0.92171 0.47385
 C870 C 0.62711 0.93249 0.45741
 C871 C 0.64591 0.92605 0.45053
 H872 H 0.65308 0.91330 0.45757
 O873 O 0.47970 1.07195 0.39996
 O874 O 0.47944 1.09520 0.37640
 C875 C 0.47279 1.07885 0.38357
 C876 C 0.45657 1.06794 0.37306
 C877 C 0.44970 1.07441 0.35419
 H878 H 0.45658 1.08729 0.34708
 O879 O 0.52020 0.92750 0.40025
 O880 O 0.52046 0.90417 0.37679
 C881 C 0.52710 0.92055 0.38389
 C882 C 0.54332 0.93143 0.37333
 C883 C 0.55021 0.92489 0.35449
 H884 H 0.54335 0.91197 0.34744
 O885 O 0.59975 0.98127 0.42763
 O886 O 0.62314 0.98145 0.40425
 C887 C 0.61612 0.97458 0.42061
 C888 C 0.62678 0.95833 0.43135
 C889 C 0.64559 0.95168 0.42470
 H890 H 0.65275 0.95910 0.41212
 O891 O 0.40012 1.01837 0.42764
 O892 O 0.37675 1.01813 0.40425
 C893 C 0.38378 1.02506 0.42058
 C894 C 0.37315 1.04139 0.43124
 C895 C 0.35433 1.04800 0.42459
 H896 H 0.34714 1.04052 0.41208
 O897 O 0.42675 1.09912 0.48038
 O898 O 0.40327 1.12234 0.48031
 C899 C 0.41962 1.11538 0.47350
 C900 C 0.43024 1.12598 0.45710
 C901 C 0.42361 1.14479 0.45033
 H902 H 0.41081 1.15179 0.45742
 O903 O 0.57325 0.90087 0.48076
 O904 O 0.59673 0.87766 0.48078
 C905 C 0.58039 0.88460 0.47394
 C906 C 0.56979 0.87393 0.45758
 C907 C 0.57648 0.85511 0.45092
 H908 H 0.58898 0.84796 0.45838
 O909 O 0.57197 1.02004 0.40002
 O910 O 0.59523 1.02026 0.37652
 C911 C 0.57890 1.02692 0.38364
 C912 C 0.56804 1.04316 0.37306
 C913 C 0.57457 1.05003 0.35421
 H914 H 0.58746 1.04314 0.34715
 O915 O 0.42789 0.97946 0.40023
 O916 O 0.40465 0.97917 0.37671
 C917 C 0.42099 0.97253 0.38387
 C918 C 0.43186 0.95627 0.37335
 C919 C 0.42541 0.94942 0.35447
 H920 H 0.41257 0.95633 0.34737
 O921 O 0.51847 1.09981 0.42740
 O922 O 0.51827 1.12320 0.40397
 C923 C 0.52515 1.11618 0.42033
 C924 C 0.54141 1.12686 0.43102
 C925 C 0.54804 1.14570 0.42436
 H926 H 0.54062 1.15288 0.41180
 O927 O 0.48144 0.89972 0.42783
 O928 O 0.48165 0.87626 0.40449
 C929 C 0.47476 0.88333 0.42082
 C930 C 0.45848 0.87269 0.43153
 C931 C 0.45187 0.85382 0.42494
 H932 H 0.45932 0.84659 0.41243
 O933 O 0.59887 1.07330 0.48043
 O934 O 0.62205 1.09682 0.48036
 C935 C 0.61510 1.08044 0.47356
 C936 C 0.62570 1.06977 0.45719
 C937 C 0.64447 1.07644 0.45040
 H938 H 0.65144 1.08930 0.45745
 O939 O 0.40094 0.92651 0.48064
 O940 O 0.37778 0.90297 0.48067
 C941 C 0.38471 0.91934 0.47381
 C942 C 0.37409 0.92993 0.45741
 C943 C 0.35531 0.92325 0.45072
 H944 H 0.34814 0.91074 0.45819
 Cu945 Cu 0.50080 0.91596 0.41640
 Cu946 Cu 0.50108 0.88788 0.38832
 Cu947 Cu 0.49910 1.08355 0.41602
 Cu948 Cu 0.49883 1.11155 0.38783
 Cu949 Cu 0.41630 0.99893 0.41626
 Cu950 Cu 0.38833 0.99862 0.38811
 Cu951 Cu 0.58350 1.00063 0.41620
 Cu952 Cu 0.61150 1.00088 0.38806
 C953 C 0.44827 0.94688 0.38260
 H954 H 0.45315 0.95190 0.39728
 C955 C 0.43506 0.93330 0.34494
 C956 C 0.55160 1.05254 0.38225
 H957 H 0.54666 1.04750 0.39691
 C958 C 0.56498 1.06617 0.34465
 C959 C 0.38311 0.94635 0.44779
 H960 H 0.39771 0.95141 0.45270
 C961 C 0.34565 0.93267 0.43451
 C962 C 0.61663 1.05335 0.44763
 H963 H 0.60205 1.04830 0.45260
 C964 C 0.65406 1.06698 0.43417
 C965 C 0.44886 0.88179 0.44793
 H966 H 0.45371 0.89646 0.45292
 C967 C 0.43573 0.84416 0.43441
 C968 C 0.55099 1.11783 0.44749
 H969 H 0.54614 1.10318 0.45254
 C970 C 0.56414 1.15541 0.43383
 C971 C 0.44722 1.05150 0.38232
 H972 H 0.45225 1.04660 0.39699
 C973 C 0.43359 1.06475 0.34468
 C974 C 0.55265 0.94792 0.38252
 H975 H 0.54760 0.95287 0.39717
 C976 C 0.56632 0.93453 0.34495
 C977 C 0.55338 0.88292 0.44796
 H978 H 0.54831 0.89754 0.45285
 C979 C 0.56708 0.84539 0.43474
 C980 C 0.44659 1.11686 0.44749
 H981 H 0.45161 1.10224 0.45245
 C982 C 0.43304 1.15438 0.43408
 C983 C 0.38221 1.05105 0.44764
 H984 H 0.39684 1.04620 0.45267
 C985 C 0.34468 1.06419 0.43401
 C986 C 0.61777 0.94876 0.44783
 H987 H 0.60315 0.95362 0.45287
 C988 C 0.65527 0.93556 0.43419
 O989 O 0.52015 0.92793 0.60026
 O990 O 0.52038 0.90464 0.62378
 C991 C 0.52704 0.92100 0.61663
 C992 C 0.54330 0.93183 0.62717
 C993 C 0.55015 0.92527 0.64600
 H994 H 0.54289 0.91269 0.65328
 O995 O 0.47969 1.07226 0.60008
 O996 O 0.47943 1.09558 0.62356
 C997 C 0.47278 1.07921 0.61644
 C998 C 0.45655 1.06834 0.62699
 C999 C 0.44968 1.07485 0.64584
 H1000 H 0.45656 1.08774 0.65291
 O1001 O 0.40011 1.01859 0.57257
 O1002 O 0.37671 1.01842 0.59594
 C1003 C 0.38375 1.02528 0.57958
 C1004 C 0.37311 1.04155 0.56883
 C1005 C 0.35424 1.04812 0.57538
 H1006 H 0.34703 1.04066 0.58790
 O1007 O 0.59980 0.98147 0.57280
 O1008 O 0.62318 0.98172 0.59618
 C1009 C 0.61616 0.97480 0.57985
 C1010 C 0.62682 0.95851 0.56916
 C1011 C 0.64564 0.95190 0.57580
 H1012 H 0.65282 0.95936 0.58833
 O1013 O 0.57325 0.90091 0.51994
 O1014 O 0.59673 0.87768 0.52001
 C1015 C 0.58038 0.88464 0.52681
 C1016 C 0.56973 0.87402 0.54318
 C1017 C 0.57634 0.85520 0.54992
 H1018 H 0.58916 0.84821 0.54285
 O1019 O 0.42672 1.09918 0.51957
 O1020 O 0.40322 1.12238 0.51956
 C1021 C 0.41956 1.11544 0.52641
 C1022 C 0.43016 1.12608 0.54280
 C1023 C 0.42346 1.14486 0.54957
 H1024 H 0.41063 1.15182 0.54250
 O1025 O 0.42785 0.97980 0.60018
 O1026 O 0.40458 0.97958 0.62368
 C1027 C 0.42092 0.97291 0.61656
 C1028 C 0.43178 0.95668 0.62714
 C1029 C 0.42529 0.94984 0.64601
 H1030 H 0.41243 0.95674 0.65309
 O1031 O 0.57198 1.02031 0.60022
 O1032 O 0.59523 1.02063 0.62373
 C1033 C 0.57889 1.02726 0.61658
 C1034 C 0.56801 1.04352 0.62709
 C1035 C 0.57449 1.05041 0.64594
 H1036 H 0.58735 1.04352 0.65304
 O1037 O 0.48139 0.90005 0.57279
 O1038 O 0.48159 0.87664 0.59620
 C1039 C 0.47472 0.88367 0.57985
 C1040 C 0.45848 0.87297 0.56914
 C1041 C 0.45192 0.85409 0.57575
 H1042 H 0.45937 0.84689 0.58828
 O1043 O 0.51846 1.10005 0.57253
 O1044 O 0.51826 1.12350 0.59587
 C1045 C 0.52514 1.11644 0.57954
 C1046 C 0.54141 1.12709 0.56882
 C1047 C 0.54805 1.14593 0.57545
 H1048 H 0.54064 1.15313 0.58799
 O1049 O 0.40093 0.92655 0.51982
 O1050 O 0.37776 0.90302 0.51991
 C1051 C 0.38470 0.91940 0.52670
 C1052 C 0.37408 0.93008 0.54306
 C1053 C 0.35530 0.92344 0.54981
 H1054 H 0.34833 0.91059 0.54275
 O1055 O 0.59880 1.07330 0.51962
 O1056 O 0.62199 1.09682 0.51960
 C1057 C 0.61504 1.08046 0.52646
 C1058 C 0.62565 1.06987 0.54287
 C1059 C 0.64445 1.07652 0.54951
 H1060 H 0.65163 1.08901 0.54201
 O1061 O 0.51871 1.07262 0.60007
 O1062 O 0.51849 1.09594 0.62355
 C1063 C 0.52546 1.07970 0.61644
 C1064 C 0.54191 1.06918 0.62700
 C1065 C 0.54859 1.07585 0.64585
 H1066 H 0.54109 1.08827 0.65313
 O1067 O 0.48112 0.92755 0.60025
 O1068 O 0.48132 0.90427 0.62378
 C1069 C 0.47435 0.92049 0.61662
 C1070 C 0.45790 0.93103 0.62714
 C1071 C 0.45121 0.92441 0.64602
 H1072 H 0.45872 0.91202 0.65334
 O1073 O 0.59938 1.02055 0.57271
 O1074 O 0.62278 1.02086 0.59607
 C1075 C 0.61561 1.02757 0.57970
 C1076 C 0.62596 1.04399 0.56889
 C1077 C 0.64475 1.05087 0.57533
 H1078 H 0.65193 1.04388 0.58813
 O1079 O 0.40048 0.97949 0.57264
 O1080 O 0.37708 0.97928 0.59600
 C1081 C 0.38424 0.97251 0.57967
 C1082 C 0.37389 0.95603 0.56897
 C1083 C 0.35511 0.94920 0.57550
 H1084 H 0.34774 0.95660 0.58795
 O1085 O 0.57120 1.10053 0.51957
 O1086 O 0.59424 1.12418 0.51956
 C1087 C 0.57804 1.11692 0.52641
 C1088 C 0.56725 1.12735 0.54282
 C1089 C 0.57369 1.14619 0.54967
 H1090 H 0.58645 1.15334 0.54263
 O1091 O 0.42863 0.89942 0.51986
 O1092 O 0.40560 0.87575 0.51995
 C1093 C 0.42181 0.88304 0.52676
 C1094 C 0.43263 0.87265 0.54316
 C1095 C 0.42628 0.85377 0.54999
 H1096 H 0.41356 0.84657 0.54294
 O1097 O 0.57240 0.98122 0.60031
 O1098 O 0.59564 0.98148 0.62382
 C1099 C 0.57945 0.97447 0.61669
 C1100 C 0.56891 0.95799 0.62723
 C1101 C 0.57557 0.95120 0.64607
 H1102 H 0.58831 0.95832 0.65315
 O1103 O 0.42750 1.01889 0.60008
 O1104 O 0.40423 1.01871 0.62358
 C1105 C 0.42043 1.02568 0.61644
 C1106 C 0.43094 1.04218 0.62696
 C1107 C 0.42429 1.04889 0.64581
 H1108 H 0.41190 1.04137 0.65311
 O1109 O 0.47943 1.09967 0.57251
 O1110 O 0.47919 1.12312 0.59586
 C1111 C 0.47245 1.11594 0.57952
 C1112 C 0.45601 1.12629 0.56878
 C1113 C 0.44912 1.14507 0.57533
 H1114 H 0.45645 1.15244 0.58782
 O1115 O 0.52041 0.90046 0.57278
 O1116 O 0.52064 0.87704 0.59618
 C1117 C 0.52739 0.88420 0.57983
 C1118 C 0.54382 0.87382 0.56911
 C1119 C 0.55064 0.85500 0.57563
 H1120 H 0.54324 0.84762 0.58809
 O1121 O 0.60038 0.92862 0.51991
 O1122 O 0.62400 0.90554 0.51998
 C1123 C 0.61674 0.92178 0.52679
 C1124 C 0.62712 0.93260 0.54319
 C1125 C 0.64594 0.92620 0.55005
 H1126 H 0.65311 0.91343 0.54303
 O1127 O 0.39964 1.07142 0.51959
 O1128 O 0.37600 1.09448 0.51957
 C1129 C 0.38326 1.07826 0.52643
 C1130 C 0.37285 1.06743 0.54282
 C1131 C 0.35399 1.07380 0.54959
 H1132 H 0.34682 1.08653 0.54252
 Cu1133 Cu 0.50075 0.91633 0.58417
 Cu1134 Cu 0.50101 0.88830 0.61235
 Cu1135 Cu 0.49910 1.08381 0.58396
 Cu1136 Cu 0.49882 1.11189 0.61206
 Cu1137 Cu 0.41708 0.91531 0.50024
 Cu1138 Cu 0.38936 0.88697 0.50032
 Cu1139 Cu 0.58447 0.91706 0.50033
 Cu1140 Cu 0.61274 0.88927 0.50038
 Cu1141 Cu 0.41554 1.08297 0.49999
 Cu1142 Cu 0.38726 1.11074 0.49994
 Cu1143 Cu 0.58270 1.08454 0.50000
 Cu1144 Cu 0.61044 1.11285 0.49995
 Cu1145 Cu 0.41632 0.99921 0.58403
 Cu1146 Cu 0.38830 0.99898 0.61215
 Cu1147 Cu 0.58356 1.00086 0.58417
 Cu1148 Cu 0.61155 1.00121 0.61231
 C1149 C 0.55266 0.94832 0.61801
 H1150 H 0.54762 0.95330 0.60336
 C1151 C 0.56627 0.93484 0.65557
 C1152 C 0.44720 1.05188 0.61777
 H1153 H 0.45223 1.04694 0.60311
 C1154 C 0.43356 1.06521 0.65537
 C1155 C 0.38219 1.05118 0.55242
 H1156 H 0.39686 1.04636 0.54746
 C1157 C 0.34456 1.06422 0.56585
 C1158 C 0.61779 0.94889 0.55273
 H1159 H 0.60315 0.95373 0.54770
 C1160 C 0.65533 0.93576 0.56634
 C1161 C 0.55335 0.88311 0.55276
 H1162 H 0.54834 0.89774 0.54782
 C1163 C 0.56687 0.84556 0.56612
 C1164 C 0.44656 1.11702 0.55239
 H1165 H 0.45163 1.10242 0.54744
 C1166 C 0.43286 1.15448 0.56582
 C1167 C 0.44821 0.94729 0.61793
 H1168 H 0.45312 0.95231 0.60325
 C1169 C 0.43492 0.93372 0.65558
 C1170 C 0.55160 1.05289 0.61784
 H1171 H 0.54670 1.04784 0.60317
 C1172 C 0.56487 1.06656 0.65545
 C1173 C 0.44886 0.88203 0.55272
 H1174 H 0.45366 0.89671 0.54772
 C1175 C 0.43584 0.84436 0.56626
 C1176 C 0.55099 1.11802 0.55238
 H1177 H 0.54612 1.10337 0.54736
 C1178 C 0.56418 1.15560 0.56597
 C1179 C 0.38316 0.94650 0.55262
 H1180 H 0.39776 0.95152 0.54768
 C1181 C 0.34569 0.93292 0.56601
 C1182 C 0.61663 1.05347 0.55253
 H1183 H 0.60201 1.04842 0.54766
 C1184 C 0.65413 1.06712 0.56572
 O1185 O 0.48132 0.42797 0.89969
 O1186 O 0.48152 0.40471 0.87614
 C1187 C 0.47456 0.42093 0.88330
 C1188 C 0.45811 0.43149 0.87278
 C1189 C 0.45136 0.42481 0.85395
 H1190 H 0.45883 0.41238 0.84666
 O1191 O 0.51914 0.57293 0.90025
 O1192 O 0.51901 0.59633 0.87684
 C1193 C 0.52594 0.58006 0.88391
 C1194 C 0.54238 0.56954 0.87335
 C1195 C 0.54906 0.57620 0.85449
 H1196 H 0.54156 0.58862 0.84720
 O1197 O 0.40062 0.48006 0.92714
 O1198 O 0.37726 0.47993 0.90375
 C1199 C 0.38438 0.47312 0.92009
 C1200 C 0.37397 0.45669 0.93082
 C1201 C 0.35519 0.44984 0.92429
 H1202 H 0.34806 0.45688 0.91149
 O1203 O 0.59969 0.52074 0.92769
 O1204 O 0.62313 0.52103 0.90437
 C1205 C 0.61595 0.52772 0.92073
 C1206 C 0.62633 0.54409 0.93157
 C1207 C 0.64513 0.55096 0.92513
 H1208 H 0.65229 0.54399 0.91231
 O1209 O 0.42862 0.39996 0.97999
 O1210 O 0.40554 0.37634 0.97986
 C1211 C 0.42177 0.38360 0.97308
 C1212 C 0.43260 0.37320 0.95668
 C1213 C 0.42620 0.35435 0.94983
 H1214 H 0.41344 0.34718 0.95684
 O1215 O 0.57157 0.60054 0.98088
 O1216 O 0.59465 0.62416 0.98096
 C1217 C 0.57845 0.61694 0.97407
 C1218 C 0.56770 0.62742 0.95767
 C1219 C 0.57416 0.64628 0.95088
 H1220 H 0.58691 0.65340 0.95794
 O1221 O 0.42780 0.51941 0.89978
 O1222 O 0.40460 0.51932 0.87623
 C1223 C 0.42080 0.52625 0.88342
 C1224 C 0.43140 0.54273 0.87296
 C1225 C 0.42482 0.54958 0.85412
 H1226 H 0.41211 0.54248 0.84698
 O1227 O 0.57264 0.48153 0.90001
 O1228 O 0.59594 0.48178 0.87655
 C1229 C 0.57972 0.47480 0.88363
 C1230 C 0.56919 0.45837 0.87303
 C1231 C 0.57585 0.45171 0.85416
 H1232 H 0.58827 0.45922 0.84691
 O1233 O 0.52053 0.40074 0.92717
 O1234 O 0.52077 0.37735 0.90375
 C1235 C 0.52749 0.38448 0.92012
 C1236 C 0.54388 0.37405 0.93088
 C1237 C 0.55078 0.35527 0.92432
 H1238 H 0.54381 0.34816 0.91147
 O1239 O 0.47986 0.59992 0.92783
 O1240 O 0.47970 0.62346 0.90456
 C1241 C 0.47292 0.61623 0.92087
 C1242 C 0.45648 0.62658 0.93161
 C1243 C 0.44968 0.64541 0.92513
 H1244 H 0.45708 0.65282 0.91269
 O1245 O 0.39975 0.57172 0.98049
 O1246 O 0.37618 0.59484 0.98049
 C1247 C 0.38343 0.57863 0.97361
 C1248 C 0.37307 0.56792 0.95710
 C1249 C 0.35430 0.57441 0.95020
 H1250 H 0.34714 0.58716 0.95727
 O1251 O 0.60033 0.42867 0.98039
 O1252 O 0.62391 0.40556 0.98033
 C1253 C 0.61669 0.42182 0.97353
 C1254 C 0.62713 0.43268 0.95718
 C1255 C 0.64597 0.42626 0.95036
 H1256 H 0.65310 0.41348 0.95738
 O1257 O 0.48012 0.57263 0.90017
 O1258 O 0.47995 0.59604 0.87677
 C1259 C 0.47326 0.57965 0.88382
 C1260 C 0.45703 0.56888 0.87319
 C1261 C 0.45026 0.57549 0.85434
 H1262 H 0.45755 0.58808 0.84712
 O1263 O 0.52035 0.42829 0.89974
 O1264 O 0.52060 0.40505 0.87619
 C1265 C 0.52726 0.42138 0.88336
 C1266 C 0.54352 0.43226 0.87287
 C1267 C 0.55041 0.42580 0.85401
 H1268 H 0.54351 0.41295 0.84688
 O1269 O 0.59998 0.48165 0.92757
 O1270 O 0.62341 0.48190 0.90425
 C1271 C 0.61634 0.47497 0.92056
 C1272 C 0.62694 0.45864 0.93125
 C1273 C 0.64577 0.45203 0.92465
 H1274 H 0.65300 0.45950 0.91216
 O1275 O 0.40038 0.51914 0.92727
 O1276 O 0.37704 0.51906 0.90385
 C1277 C 0.38405 0.52589 0.92023
 C1278 C 0.37341 0.54216 0.93098
 C1279 C 0.35463 0.54886 0.92431
 H1280 H 0.34748 0.54149 0.91171
 O1281 O 0.42695 0.59936 0.98066
 O1282 O 0.40352 0.62263 0.98066
 C1283 C 0.41986 0.61566 0.97384
 C1284 C 0.43055 0.62633 0.95752
 C1285 C 0.42395 0.64517 0.95081
 H1286 H 0.41111 0.65214 0.95788
 O1287 O 0.57314 0.40103 0.98025
 O1288 O 0.59658 0.37778 0.98019
 C1289 C 0.58027 0.38478 0.97335
 C1290 C 0.56970 0.37423 0.95690
 C1291 C 0.57637 0.35545 0.95013
 H1292 H 0.58884 0.34824 0.95759
 O1293 O 0.57233 0.52061 0.90013
 O1294 O 0.59563 0.52092 0.87666
 C1295 C 0.57929 0.52757 0.88379
 C1296 C 0.56846 0.54386 0.87327
 C1297 C 0.57494 0.55073 0.85441
 H1298 H 0.58778 0.54381 0.84730
 O1299 O 0.42810 0.48031 0.89970
 O1300 O 0.40488 0.48016 0.87616
 C1301 C 0.42119 0.47344 0.88331
 C1302 C 0.43202 0.45717 0.87276
 C1303 C 0.42547 0.45027 0.85393
 H1304 H 0.41259 0.45716 0.84687
 O1305 O 0.51889 0.60027 0.92786
 O1306 O 0.51876 0.62379 0.90458
 C1307 C 0.52561 0.61667 0.92090
 C1308 C 0.54188 0.62727 0.93166
 C1309 C 0.54854 0.64613 0.92509
 H1310 H 0.54114 0.65338 0.91257
 O1311 O 0.48151 0.40048 0.92715
 O1312 O 0.48170 0.37710 0.90374
 C1313 C 0.47481 0.38412 0.92009
 C1314 C 0.45851 0.37347 0.93076
 C1315 C 0.45191 0.35461 0.92413
 H1316 H 0.45938 0.34740 0.91162
 O1317 O 0.59919 0.57333 0.98085
 O1318 O 0.62240 0.59681 0.98094
 C1319 C 0.61544 0.58048 0.97405
 C1320 C 0.62606 0.56990 0.95763
 C1321 C 0.64487 0.57655 0.95099
 H1322 H 0.65206 0.58902 0.95851
 O1323 O 0.40099 0.42717 0.98004
 O1324 O 0.37778 0.40368 0.97990
 C1325 C 0.38476 0.42006 0.97313
 C1326 C 0.37419 0.43073 0.95675
 C1327 C 0.35540 0.42411 0.95003
 H1328 H 0.34820 0.41160 0.95747
 Cu1329 Cu 0.50091 0.41670 0.91578
 Cu1330 Cu 0.50117 0.38871 0.88759
 Cu1331 Cu 0.49951 0.58409 0.91636
 Cu1332 Cu 0.49934 0.61227 0.88834
 Cu1333 Cu 0.41655 0.49974 0.91582
 Cu1334 Cu 0.38861 0.49961 0.88763
 Cu1335 Cu 0.58382 0.50111 0.91619
 Cu1336 Cu 0.61188 0.50144 0.88810
 C1337 C 0.44846 0.44779 0.88196
 H1338 H 0.45341 0.45285 0.89660
 C1339 C 0.43505 0.43410 0.84440
 C1340 C 0.55206 0.55324 0.88252
 H1341 H 0.54715 0.54820 0.89719
 C1342 C 0.56532 0.56688 0.84489
 C1343 C 0.38325 0.44715 0.94717
 H1344 H 0.39785 0.45217 0.95211
 C1345 C 0.34578 0.43356 0.93382
 C1346 C 0.61701 0.55354 0.94795
 H1347 H 0.60239 0.54850 0.95282
 C1348 C 0.65453 0.56717 0.93477
 C1349 C 0.44888 0.38254 0.94716
 H1350 H 0.45372 0.39720 0.95219
 C1351 C 0.43577 0.34493 0.93357
 C1352 C 0.55143 0.61813 0.94808
 H1353 H 0.54655 0.60347 0.95306
 C1354 C 0.56467 0.65575 0.93460
 C1355 C 0.44762 0.55237 0.88227
 H1356 H 0.45259 0.54736 0.89693
 C1357 C 0.43417 0.56594 0.84469
 C1358 C 0.55290 0.44867 0.88216
 H1359 H 0.54786 0.45356 0.89683
 C1360 C 0.56656 0.43544 0.84453
 C1361 C 0.55332 0.38331 0.94729
 H1362 H 0.54826 0.39791 0.95226
 C1363 C 0.56701 0.34585 0.93386
 C1364 C 0.44694 0.61726 0.94793
 H1365 H 0.45195 0.60261 0.95284
 C1366 C 0.43342 0.65483 0.93463
 C1367 C 0.38241 0.55166 0.94750
 H1368 H 0.39701 0.54675 0.95256
 C1369 C 0.34496 0.56497 0.93382
 C1370 C 0.61784 0.44899 0.94764
 H1371 H 0.60320 0.45384 0.95263
 C1372 C 0.65541 0.43585 0.93412
 O1373 O 0.51993 0.42751 1.09985
 O1374 O 0.52010 0.40411 1.12326
 C1375 C 0.52678 0.42050 1.11620
 C1376 C 0.54301 0.43129 1.12681
 C1377 C 0.54977 0.42471 1.14567
 H1378 H 0.54249 0.41214 1.15291
 O1379 O 0.47979 0.57201 1.10027
 O1380 O 0.47955 0.59526 1.12381
 C1381 C 0.47288 0.57892 1.11664
 C1382 C 0.45660 0.56809 1.12715
 C1383 C 0.44973 0.57463 1.14598
 H1384 H 0.45699 0.58718 1.15328
 O1385 O 0.40015 0.51867 1.07261
 O1386 O 0.37673 0.51841 1.09595
 C1387 C 0.38379 0.52535 1.07963
 C1388 C 0.37317 0.54167 1.06894
 C1389 C 0.35435 0.54829 1.07556
 H1390 H 0.34715 0.54083 1.08808
 O1391 O 0.59967 0.48110 1.07271
 O1392 O 0.62299 0.48118 1.09614
 C1393 C 0.61600 0.47436 1.07976
 C1394 C 0.62665 0.45812 1.06901
 C1395 C 0.64546 0.45146 1.07564
 H1396 H 0.65263 0.45886 1.08822
 O1397 O 0.57306 0.40087 1.01944
 O1398 O 0.59651 0.37762 1.01942
 C1399 C 0.58017 0.38457 1.02625
 C1400 C 0.56953 0.37389 1.04259
 C1401 C 0.57621 0.35509 1.04929
 H1402 H 0.58874 0.34794 1.04187
 O1403 O 0.42686 0.59924 1.01984
 O1404 O 0.40343 0.62251 1.01989
 C1405 C 0.41974 0.61550 1.02673
 C1406 C 0.43036 0.62606 1.04315
 C1407 C 0.42371 0.64484 1.04997
 H1408 H 0.41089 0.65185 1.04291
 O1409 O 0.42782 0.47969 1.10002
 O1410 O 0.40453 0.47938 1.12350
 C1411 C 0.42086 0.47272 1.11636
 C1412 C 0.43168 0.45639 1.12684
 C1413 C 0.42518 0.44949 1.14570
 H1414 H 0.41236 0.45643 1.15281
 O1415 O 0.57188 0.51988 1.10027
 O1416 O 0.59510 0.52002 1.12380
 C1417 C 0.57880 0.52674 1.11666
 C1418 C 0.56801 0.54302 1.12721
 C1419 C 0.57455 0.54983 1.14606
 H1420 H 0.58707 0.54252 1.15334
 O1421 O 0.48116 0.39984 1.07221
 O1422 O 0.48127 0.37631 1.09549
 C1423 C 0.47443 0.38344 1.07917
 C1424 C 0.45817 0.37287 1.06838
 C1425 C 0.45140 0.35404 1.07495
 H1426 H 0.45841 0.34698 1.08781
 O1427 O 0.51864 0.59987 1.07289
 O1428 O 0.51844 0.62324 1.09632
 C1429 C 0.52533 0.61623 1.07997
 C1430 C 0.54162 0.62690 1.06931
 C1431 C 0.54824 0.64574 1.07597
 H1432 H 0.54079 0.65293 1.08849
 O1433 O 0.40095 0.42705 1.01924
 O1434 O 0.37773 0.40357 1.01914
 C1435 C 0.38470 0.41989 1.02605
 C1436 C 0.37409 0.43044 1.04249
 C1437 C 0.35530 0.42376 1.04915
 H1438 H 0.34811 0.41129 1.04163
 O1439 O 0.59910 0.57320 1.02004
 O1440 O 0.62233 0.59667 1.02018
 C1441 C 0.61534 0.58029 1.02695
 C1442 C 0.62589 0.56958 1.04331
 C1443 C 0.64468 0.57616 1.05009
 H1444 H 0.65169 0.58901 1.04304
 O1445 O 0.51881 0.57235 1.10034
 O1446 O 0.51861 0.59559 1.12390
 C1447 C 0.52556 0.57936 1.11674
 C1448 C 0.54196 0.56875 1.12728
 C1449 C 0.54874 0.57537 1.14613
 H1450 H 0.54165 0.58814 1.15322
 O1451 O 0.48091 0.42720 1.09980
 O1452 O 0.48103 0.40381 1.12322
 C1453 C 0.47412 0.42009 1.11614
 C1454 C 0.45769 0.43063 1.12671
 C1455 C 0.45099 0.42396 1.14557
 H1456 H 0.45846 0.41151 1.15283
 O1457 O 0.59935 0.52018 1.07282
 O1458 O 0.62270 0.52030 1.09623
 C1459 C 0.61559 0.52712 1.07989
 C1460 C 0.62599 0.54359 1.06922
 C1461 C 0.64478 0.55038 1.07578
 H1462 H 0.65211 0.54295 1.08824
 O1463 O 0.40045 0.47959 1.07249
 O1464 O 0.37701 0.47928 1.09581
 C1465 C 0.38419 0.47259 1.07945
 C1466 C 0.37382 0.45622 1.06859
 C1467 C 0.35504 0.44931 1.07505
 H1468 H 0.34789 0.45626 1.08789
 O1469 O 0.57150 0.60043 1.02006
 O1470 O 0.59458 0.62405 1.02020
 C1471 C 0.57835 0.61679 1.02698
 C1472 C 0.56753 0.62719 1.04338
 C1473 C 0.57394 0.64602 1.05025
 H1474 H 0.58671 0.65319 1.04325
 O1475 O 0.42853 0.39979 1.01919
 O1476 O 0.40543 0.37619 1.01908
 C1477 C 0.42163 0.38339 1.02598
 C1478 C 0.43233 0.37288 1.04238
 C1479 C 0.42580 0.35405 1.04914
 H1480 H 0.41336 0.34675 1.04171
 O1481 O 0.57221 0.48078 1.10017
 O1482 O 0.59541 0.48088 1.12373
 C1483 C 0.57921 0.47394 1.11654
 C1484 C 0.56863 0.45745 1.12700
 C1485 C 0.57519 0.45065 1.14586
 H1486 H 0.58789 0.45777 1.15301
 O1487 O 0.42747 0.51879 1.10019
 O1488 O 0.40419 0.51853 1.12367
 C1489 C 0.42041 0.52552 1.11657
 C1490 C 0.43095 0.54196 1.12715
 C1491 C 0.42428 0.54874 1.14598
 H1492 H 0.41151 0.54162 1.15304
 O1493 O 0.47961 0.59951 1.07280
 O1494 O 0.47937 0.62289 1.09622
 C1495 C 0.47264 0.61576 1.07985
 C1496 C 0.45622 0.62617 1.06914
 C1497 C 0.44936 0.64495 1.07572
 H1498 H 0.45672 0.65227 1.08823
 O1499 O 0.52019 0.40014 1.07227
 O1500 O 0.52035 0.37661 1.09554
 C1501 C 0.52714 0.38384 1.07924
 C1502 C 0.54358 0.37351 1.06848
 C1503 C 0.55048 0.35470 1.07498
 H1504 H 0.54347 0.34751 1.08776
 O1505 O 0.60027 0.42851 1.01959
 O1506 O 0.62385 0.40539 1.01957
 C1507 C 0.61660 0.42161 1.02645
 C1508 C 0.62698 0.43234 1.04292
 C1509 C 0.64578 0.42588 1.04977
 H1510 H 0.65295 0.41315 1.04270
 O1511 O 0.39968 0.57157 1.01971
 O1512 O 0.37611 0.59469 1.01977
 C1513 C 0.38333 0.57843 1.02658
 C1514 C 0.37291 0.56760 1.04297
 C1515 C 0.35409 0.57402 1.04982
 H1516 H 0.34695 0.58679 1.04279
 Cu1517 Cu 0.50053 0.41601 1.08369
 Cu1518 Cu 0.50070 0.38785 1.11173
 Cu1519 Cu 0.49924 0.58361 1.08423
 Cu1520 Cu 0.49897 0.61159 1.11242
 Cu1521 Cu 0.41709 0.41585 0.99962
 Cu1522 Cu 0.38929 0.38758 0.99948
 Cu1523 Cu 0.58435 0.41709 0.99992
 Cu1524 Cu 0.61258 0.38926 0.99987
 Cu1525 Cu 0.41565 0.58315 1.00017
 Cu1526 Cu 0.38744 0.61099 1.00021
 Cu1527 Cu 0.58303 0.58452 1.00045
 Cu1528 Cu 0.61082 0.61279 1.00058
 Cu1529 Cu 0.41631 0.49921 1.08399
 Cu1530 Cu 0.38827 0.49887 1.11209
 Cu1531 Cu 0.58345 0.50047 1.08415
 Cu1532 Cu 0.61139 0.50061 1.11234
 C1533 C 0.55241 0.44779 1.11770
 H1534 H 0.54745 0.45278 1.10303
 C1535 C 0.56585 0.43430 1.15532
 C1536 C 0.44723 0.55163 1.11796
 H1537 H 0.45228 0.54667 1.10331
 C1538 C 0.43358 0.56507 1.15551
 C1539 C 0.38223 0.55130 1.05252
 H1540 H 0.39687 0.54644 1.04750
 C1541 C 0.34469 0.56445 1.06610
 C1542 C 0.61764 0.44858 1.05253
 H1543 H 0.60301 0.45346 1.04750
 C1544 C 0.65515 0.43536 1.06612
 C1545 C 0.55309 0.38288 1.05216
 H1546 H 0.54802 0.39750 1.04725
 C1547 C 0.56679 0.34537 1.06547
 C1548 C 0.44674 0.61695 1.05273
 H1549 H 0.45178 0.60234 1.04774
 C1550 C 0.43312 0.65441 1.06623
 C1551 C 0.44805 0.44697 1.11757
 H1552 H 0.45297 0.45203 1.10291
 C1553 C 0.43476 0.43330 1.15519
 C1554 C 0.55159 0.55245 1.11804
 H1555 H 0.54663 0.54745 1.10338
 C1556 C 0.56502 0.56600 1.15564
 C1557 C 0.44864 0.38207 1.05197
 H1558 H 0.45359 0.39672 1.04701
 C1559 C 0.43523 0.34451 1.06542
 C1560 C 0.55125 0.61785 1.05289
 H1561 H 0.54640 0.60319 1.04784
 C1562 C 0.56438 0.65543 1.06653
 C1563 C 0.38313 0.44680 1.05219
 H1564 H 0.39774 0.45187 1.04730
 C1565 C 0.34565 0.43310 1.06541
 C1566 C 0.61677 0.55317 1.05287
 H1567 H 0.60217 0.54818 1.04790
 C1568 C 0.65425 0.56664 1.06630
 C1569 C 1.12586 1.14536 1.30023
 C1570 C 1.12394 1.12458 1.29813
 C1571 C 1.13027 1.11189 1.31364
 C1572 C 1.13859 1.11995 1.33114
 C1573 C 1.14067 1.14081 1.33332
 C1574 C 1.13417 1.15344 1.31771
 C1575 C 1.11574 1.11631 1.27994
 C1576 C 1.10900 1.10956 1.26456
 C1577 C 1.10124 1.10187 1.24642
 C1578 C 1.09472 1.09548 1.23080
 C1579 C 1.08705 1.08809 1.21200
 C1580 C 1.08564 1.06745 1.20854
 C1581 C 1.07849 1.06032 1.19013
 C1582 C 1.07263 1.07378 1.17495
 C1583 C 1.07405 1.09450 1.17861
 C1584 C 1.08122 1.10158 1.19701
 H1585 H 1.12107 1.15531 1.28830
 H1586 H 1.12885 1.09578 1.31217
 H1587 H 1.14339 1.10996 1.34301
 H1588 H 1.13580 1.16953 1.31897
 H1589 H 1.09010 1.05687 1.22005
 H1590 H 1.07736 1.04429 1.18783
 H1591 H 1.06994 1.10523 1.16712
 H1592 H 1.08233 1.11759 1.19949
 C1593 C 1.12610 0.64596 0.79963
 C1594 C 1.12415 0.62518 0.79752
 C1595 C 1.13055 0.61247 0.81297
 C1596 C 1.13893 0.62051 0.83045
 C1597 C 1.14102 0.64136 0.83266
 C1598 C 1.13448 0.65401 0.81709
 C1599 C 1.11580 0.61695 0.77937
 C1600 C 1.10891 0.61024 0.76405
 C1601 C 1.10097 0.60258 0.74596
 C1602 C 1.09430 0.59621 0.73039
 C1603 C 1.08648 0.58880 0.71166
 C1604 C 1.08499 0.56816 0.70827
 C1605 C 1.07775 0.56100 0.68991
 C1606 C 1.07189 0.57443 0.67470
 C1607 C 1.07335 0.59516 0.67831
 C1608 C 1.08061 0.60227 0.69667
 H1609 H 1.12125 0.65593 0.78774
 H1610 H 1.12911 0.59636 0.81150
 H1611 H 1.14376 0.61050 0.84231
 H1612 H 1.13611 0.67010 0.81837
 H1613 H 1.08948 0.55759 0.71979
 H1614 H 1.07659 0.54497 0.68766
 H1615 H 1.06924 0.60587 0.66680
 H1616 H 1.08178 0.61829 0.69910
 C1617 C 0.63052 1.11238 0.81349
 C1618 C 0.62413 1.12502 0.79797
 C1619 C 0.62608 1.14581 0.80000
 C1620 C 0.63445 1.15394 0.81743
 C1621 C 0.64098 1.14135 0.83306
 C1622 C 0.63890 1.12049 0.83094
 C1623 C 0.61583 1.11672 0.77984
 C1624 C 0.60899 1.10995 0.76452
 C1625 C 0.60111 1.10224 0.74643
 C1626 C 0.59449 1.09585 0.73086
 C1627 C 0.58673 1.08844 0.71211
 C1628 C 0.58084 1.10192 0.69712
 C1629 C 0.57362 1.09482 0.67875
 C1630 C 0.57219 1.07409 0.67512
 C1631 C 0.57807 1.06065 0.69031
 C1632 C 0.58528 1.06779 0.70869
 H1633 H 0.62909 1.09627 0.81207
 H1634 H 0.62124 1.15573 0.78806
 H1635 H 0.63608 1.17003 0.81864
 H1636 H 0.64373 1.11052 0.84283
 H1637 H 0.58198 1.11793 0.69958
 H1638 H 0.56949 1.10553 0.66726
 H1639 H 0.57693 1.04462 0.68803
 H1640 H 0.58977 1.05723 0.72020
 C1641 C 0.62956 0.61211 1.31388
 C1642 C 0.62317 0.62487 1.29847
 C1643 C 0.62519 0.64564 1.30062
 C1644 C 0.63367 0.65362 1.31806
 C1645 C 0.64022 0.64092 1.33358
 C1646 C 0.63804 0.62008 1.33135
 C1647 C 0.61486 0.61669 1.28028
 C1648 C 0.60809 0.60996 1.26491
 C1649 C 0.60038 0.60221 1.24677
 C1650 C 0.59400 0.59570 1.23114
 C1651 C 0.58665 0.58802 1.21233
 C1652 C 0.60016 0.58241 1.19728
 C1653 C 0.59313 0.57518 1.17889
 C1654 C 0.57246 0.57346 1.17529
 C1655 C 0.55899 0.57911 1.19052
 C1656 C 0.56606 0.58633 1.20893
 H1657 H 0.62807 0.59601 1.31237
 H1658 H 0.62036 0.65565 1.28875
 H1659 H 0.63537 0.66971 1.31936
 H1660 H 0.64288 0.61002 1.34316
 H1661 H 0.61613 0.58374 1.19972
 H1662 H 0.60387 0.57125 1.16736
 H1663 H 0.54300 0.57776 1.18826
 H1664 H 0.55547 0.59061 1.22049
 C1665 C 0.87389 0.85439 1.30003
 C1666 C 0.87586 0.87518 1.29799
 C1667 C 0.86955 0.88782 1.31353
 C1668 C 0.86121 0.87971 1.33101
 C1669 C 0.85908 0.85885 1.33314
 C1670 C 0.86555 0.84627 1.31749
 C1671 C 0.88408 0.88349 1.27982
 C1672 C 0.89085 0.89028 1.26447
 C1673 C 0.89864 0.89802 1.24635
 C1674 C 0.90519 0.90444 1.23074
 C1675 C 0.91290 0.91187 1.21197
 C1676 C 0.91431 0.93252 1.20853
 C1677 C 0.92151 0.93968 1.19015
 C1678 C 0.92740 0.92624 1.17496
 C1679 C 0.92597 0.90552 1.17859
 C1680 C 0.91877 0.89840 1.19697
 H1681 H 0.87867 0.84447 1.28808
 H1682 H 0.87100 0.90393 1.31211
 H1683 H 0.85643 0.88968 1.34292
 H1684 H 0.86389 0.83017 1.31870
 H1685 H 0.90983 0.94308 1.22005
 H1686 H 0.92264 0.95571 1.18786
 H1687 H 0.93011 0.89480 1.16710
 H1688 H 0.91765 0.88239 1.19944
 C1689 C 0.86996 0.38833 0.81407
 C1690 C 0.87628 0.37566 0.79855
 C1691 C 0.87439 0.35487 0.80066
 C1692 C 0.86611 0.34677 0.81816
 C1693 C 0.85961 0.35939 0.83377
 C1694 C 0.86167 0.38025 0.83158
 C1695 C 0.88442 0.38394 0.78033
 C1696 C 0.89110 0.39071 0.76493
 C1697 C 0.89880 0.39842 0.74676
 C1698 C 0.90527 0.40481 0.73111
 C1699 C 0.91289 0.41218 0.71227
 C1700 C 0.91874 0.39866 0.69731
 C1701 C 0.92588 0.40572 0.67889
 C1702 C 0.92727 0.42644 0.67517
 C1703 C 0.92139 0.43992 0.69032
 C1704 C 0.91425 0.43282 0.70875
 H1705 H 0.87135 0.40444 0.81259
 H1706 H 0.87918 0.34493 0.78873
 H1707 H 0.86450 0.33068 0.81942
 H1708 H 0.85687 0.39023 0.84346
 H1709 H 0.91766 0.38266 0.69985
 H1710 H 0.93001 0.39497 0.66743
 H1711 H 0.92249 0.45594 0.68797
 H1712 H 0.90978 0.44342 0.72024
 C1713 C 0.37468 0.85483 0.80086
 C1714 C 0.37657 0.87561 0.79870
 C1715 C 0.37022 0.88832 0.81417
 C1716 C 0.36191 0.88029 0.83169
 C1717 C 0.35984 0.85944 0.83393
 C1718 C 0.36636 0.84678 0.81836
 C1719 C 0.38474 0.88384 0.78047
 C1720 C 0.39145 0.89057 0.76507
 C1721 C 0.39917 0.89825 0.74688
 C1722 C 0.40565 0.90461 0.73123
 C1723 C 0.41327 0.91198 0.71240
 C1724 C 0.41464 0.93262 0.70888
 C1725 C 0.42176 0.93972 0.69044
 C1726 C 0.42762 0.92624 0.67528
 C1727 C 0.42623 0.90553 0.67900
 C1728 C 0.41911 0.89846 0.69743
 H1729 H 0.37948 0.84485 0.78896
 H1730 H 0.37162 0.90443 0.81265
 H1731 H 0.35709 0.89031 0.84353
 H1732 H 0.36475 0.83069 0.81967
 H1733 H 0.41018 0.94322 0.72037
 H1734 H 0.42285 0.95574 0.68810
 H1735 H 0.43034 0.89478 0.66753
 H1736 H 0.41802 0.88246 0.69996
 C1737 C 0.36969 0.38781 1.31359
 C1738 C 0.37601 0.37509 1.29811
 C1739 C 0.37405 0.35431 1.30026
 C1740 C 0.36572 0.34627 1.31775
 C1741 C 0.35924 0.35893 1.33334
 C1742 C 0.36136 0.37978 1.33111
 C1743 C 0.38423 0.38331 1.27990
 C1744 C 0.39099 0.39004 1.26452
 C1745 C 0.39878 0.39771 1.24636
 C1746 C 0.40532 0.40408 1.23074
 C1747 C 0.41301 0.41147 1.21193
 C1748 C 0.41880 0.39797 1.19693
 C1749 C 0.42597 0.40506 1.17853
 C1750 C 0.42744 0.42579 1.17487
 C1751 C 0.42164 0.43924 1.19008
 C1752 C 0.41448 0.43211 1.20849
 H1753 H 0.37114 0.40391 1.31209
 H1754 H 0.37883 0.34433 1.28835
 H1755 H 0.36407 0.33018 1.31905
 H1756 H 0.35658 0.38980 1.34297
 H1757 H 0.41764 0.38197 1.19941
 H1758 H 0.43003 0.39434 1.16702
 H1759 H 0.42281 0.45527 1.18779
 H1760 H 0.41006 0.44269 1.22001
 C1761 C 0.88762 1.12929 0.68611
 C1762 C 0.87499 1.12296 0.70165
 C1763 C 0.85424 1.12494 0.69962
 C1764 C 0.84615 1.13333 0.68218
 C1765 C 0.85873 1.13985 0.66654
 C1766 C 0.87955 1.13768 0.66865
 C1767 C 0.88329 1.11479 0.71984
 C1768 C 0.89012 1.10813 0.73522
 C1769 C 0.89799 1.10055 0.75337
 C1770 C 0.90461 1.09427 0.76900
 C1771 C 0.91237 1.08700 0.78781
 C1772 C 0.91793 1.10059 0.80281
 C1773 C 0.92518 1.09363 0.82123
 C1774 C 0.92696 1.07293 0.82489
 C1775 C 0.92139 1.05938 0.80968
 C1776 C 0.91415 1.06639 0.79126
 H1777 H 0.90370 1.12783 0.68754
 H1778 H 0.84433 1.12016 0.71158
 H1779 H 0.83009 1.13502 0.68097
 H1780 H 0.88950 1.14249 0.65676
 H1781 H 0.91653 1.11658 0.80032
 H1782 H 0.92906 1.10442 0.83273
 H1783 H 0.92280 1.04338 0.81199
 H1784 H 0.90991 1.05574 0.77974
 C1785 C 0.85434 0.62540 0.19955
 C1786 C 0.87509 0.62343 0.20157
 C1787 C 0.88771 0.62979 0.18603
 C1788 C 0.87961 0.63818 0.16858
 C1789 C 0.85879 0.64032 0.16648
 C1790 C 0.84623 0.63379 0.18212
 C1791 C 0.88339 0.61516 0.21972
 C1792 C 0.89018 0.60837 0.23506
 C1793 C 0.89792 0.60055 0.25317
 C1794 C 0.90434 0.59398 0.26876
 C1795 C 0.91177 0.58627 0.28753
 C1796 C 0.93239 0.58488 0.29094
 C1797 C 0.93955 0.57769 0.30933
 C1798 C 0.92616 0.57180 0.32454
 C1799 C 0.90546 0.57320 0.32093
 C1800 C 0.89834 0.58039 0.30255
 H1801 H 0.84444 0.62059 0.21151
 H1802 H 0.90379 0.62833 0.18744
 H1803 H 0.88955 0.64300 0.15668
 H1804 H 0.83016 0.63546 0.18092
 H1805 H 0.94292 0.58937 0.27941
 H1806 H 0.95555 0.57659 0.31160
 H1807 H 0.89478 0.56907 0.33244
 H1808 H 0.88235 0.58150 0.30010
 C1809 C 0.38799 1.12941 0.18615
 C1810 C 0.37530 1.12312 0.20166
 C1811 C 0.35456 1.12513 0.19956
 C1812 C 0.34653 1.13350 0.18208
 C1813 C 0.35917 1.13996 0.16647
 C1814 C 0.37998 1.13778 0.16865
 C1815 C 0.38353 1.11492 0.21988
 C1816 C 0.39026 1.10820 0.23527
 C1817 C 0.39796 1.10047 0.25344
 C1818 C 0.40435 1.09399 0.26908
 C1819 C 0.41175 1.08637 0.28790
 C1820 C 0.39830 1.08054 0.30291
 C1821 C 0.40539 1.07342 0.32133
 C1822 C 0.42608 1.07205 0.32499
 C1823 C 0.43950 1.07790 0.30978
 C1824 C 0.43236 1.08501 0.29135
 H1825 H 0.40406 1.12792 0.18763
 H1826 H 0.34461 1.12037 0.21150
 H1827 H 0.33048 1.13521 0.18082
 H1828 H 0.38998 1.14255 0.15678
 H1829 H 0.38231 1.08161 0.30043
 H1830 H 0.39469 1.06931 0.33283
 H1831 H 0.45550 1.07681 0.31208
 H1832 H 0.44291 1.08947 0.27983
 C1833 C 0.36866 0.61171 0.68645
 C1834 C 0.37524 0.62429 0.70193
 C1835 C 0.37370 0.64511 0.69979
 C1836 C 0.36554 0.65332 0.68230
 C1837 C 0.35883 0.64080 0.66670
 C1838 C 0.36050 0.61991 0.66893
 C1839 C 0.38337 0.61592 0.72011
 C1840 C 0.39009 0.60911 0.73547
 C1841 C 0.39787 0.60139 0.75360
 C1842 C 0.40443 0.59501 0.76922
 C1843 C 0.41215 0.58766 0.78801
 C1844 C 0.41772 0.60118 0.80307
 C1845 C 0.42498 0.59413 0.82145
 C1846 C 0.42675 0.57341 0.82503
 C1847 C 0.42116 0.55993 0.80977
 C1848 C 0.41392 0.56703 0.79138
 H1849 H 0.36978 0.59558 0.68794
 H1850 H 0.37869 0.65498 0.71170
 H1851 H 0.36423 0.66944 0.68101
 H1852 H 0.35552 0.60999 0.65707
 H1853 H 0.41634 0.61718 0.80065
 H1854 H 0.42887 0.60487 0.83300
 H1855 H 0.42256 0.54392 0.81200
 H1856 H 0.40967 0.55643 0.77981
 C1857 C 1.14558 0.87437 0.69959
 C1858 C 1.12484 0.87639 0.70165
 C1859 C 1.11218 0.87016 0.68610
 C1860 C 1.12023 0.86184 0.66859
 C1861 C 1.14105 0.85965 0.66645
 C1862 C 1.15365 0.86605 0.68210
 C1863 C 1.11658 0.88455 0.71987
 C1864 C 1.10982 0.89126 0.73525
 C1865 C 1.10210 0.89898 0.75341
 C1866 C 1.09570 0.90547 0.76905
 C1867 C 1.08829 0.91310 0.78786
 C1868 C 1.06768 0.91450 0.79130
 C1869 C 1.06053 0.92164 0.80971
 C1870 C 1.07394 0.92748 0.82492
 C1871 C 1.09463 0.92607 0.82128
 C1872 C 1.10174 0.91892 0.80287
 H1873 H 1.15551 0.87908 0.71155
 H1874 H 1.09611 0.87165 0.68754
 H1875 H 1.11026 0.85712 0.65668
 H1876 H 1.16971 0.86434 0.68087
 H1877 H 1.05713 0.91005 0.77976
 H1878 H 1.04453 0.92276 0.81199
 H1879 H 1.10533 0.93016 0.83278
 H1880 H 1.11772 0.91781 0.80041
 C1881 C 1.14577 0.37434 0.19980
 C1882 C 1.12502 0.37624 0.20185
 C1883 C 1.11241 0.36995 0.18628
 C1884 C 1.12053 0.36170 0.16877
 C1885 C 1.14136 0.35963 0.16665
 C1886 C 1.15390 0.36609 0.18232
 C1887 C 1.11669 0.38433 0.22007
 C1888 C 1.10989 0.39097 0.23546
 C1889 C 1.10214 0.39862 0.25363
 C1890 C 1.09571 0.40505 0.26928
 C1891 C 1.08829 0.41261 0.28810
 C1892 C 1.06767 0.41394 0.29156
 C1893 C 1.06052 0.42104 0.30998
 C1894 C 1.07393 0.42693 0.32518
 C1895 C 1.09462 0.42557 0.32152
 C1896 C 1.10173 0.41846 0.30311
 H1897 H 1.15566 0.37910 0.21179
 H1898 H 1.09633 0.37135 0.18771
 H1899 H 1.11059 0.35693 0.15685
 H1900 H 1.16997 0.36447 0.18111
 H1901 H 1.05714 0.40947 0.28003
 H1902 H 1.04452 0.42211 0.31228
 H1903 H 1.10531 0.42970 0.33302
 H1904 H 1.11771 0.41741 0.30063
 C1905 C 0.64589 0.87434 0.20012
 C1906 C 0.62513 0.87624 0.20213
 C1907 C 0.61254 0.86993 0.18656
 C1908 C 0.62068 0.86165 0.16908
 C1909 C 0.64151 0.85957 0.16698
 C1910 C 0.65404 0.86606 0.18265
 C1911 C 0.61678 0.88437 0.22033
 C1912 C 0.60996 0.89105 0.23570
 C1913 C 0.60218 0.89873 0.25384
 C1914 C 0.59572 0.90519 0.26946
 C1915 C 0.58827 0.91279 0.28827
 C1916 C 0.56766 0.91411 0.29170
 C1917 C 0.56048 0.92125 0.31010
 C1918 C 0.57387 0.92717 0.32530
 C1919 C 0.59456 0.92582 0.32167
 C1920 C 0.60170 0.91867 0.30328
 H1921 H 0.65576 0.87912 0.21210
 H1922 H 0.59646 0.87133 0.18796
 H1923 H 0.61076 0.85685 0.15715
 H1924 H 0.67011 0.86444 0.18146
 H1925 H 0.55713 0.90961 0.28017
 H1926 H 0.54447 0.92231 0.31238
 H1927 H 0.60524 0.92997 0.33317
 H1928 H 0.61769 0.91763 0.30081
 C1929 C 0.64564 0.37462 0.69970
 C1930 C 0.62490 0.37663 0.70175
 C1931 C 0.61225 0.37033 0.68622
 C1932 C 0.62031 0.36196 0.66874
 C1933 C 0.64113 0.35979 0.66661
 C1934 C 0.65372 0.36626 0.68224
 C1935 C 0.61663 0.38488 0.71992
 C1936 C 0.60988 0.39167 0.73528
 C1937 C 0.60219 0.39948 0.75340
 C1938 C 0.59580 0.40603 0.76901
 C1939 C 0.58840 0.41372 0.78780
 C1940 C 0.56779 0.41517 0.79122
 C1941 C 0.56066 0.42233 0.80963
 C1942 C 0.57407 0.42814 0.82485
 C1943 C 0.59476 0.42670 0.82121
 C1944 C 0.60186 0.41953 0.80281
 H1945 H 0.65556 0.37939 0.71165
 H1946 H 0.59617 0.37181 0.68765
 H1947 H 0.61035 0.35719 0.65684
 H1948 H 0.66978 0.36457 0.68102
 H1949 H 0.55725 0.41074 0.77969
 H1950 H 0.54466 0.42348 0.81191
 H1951 H 0.60546 0.43077 0.83273
 H1952 H 0.61784 0.41839 0.80035
 C1953 C 1.31300 1.11223 1.12930
 C1954 C 1.29771 1.12508 1.12292
 C1955 C 1.30007 1.14584 1.12478
 C1956 C 1.31759 1.15373 1.13308
 C1957 C 1.33298 1.14094 1.13962
 C1958 C 1.33054 1.12010 1.13759
 C1959 C 1.27945 1.11699 1.11482
 C1960 C 1.26404 1.11033 1.10821
 C1961 C 1.24586 1.10263 1.10067
 C1962 C 1.23022 1.09615 1.09442
 C1963 C 1.21141 1.08852 1.08719
 C1964 C 1.19656 1.08280 1.10086
 C1965 C 1.17817 1.07562 1.09392
 C1966 C 1.17438 1.07406 1.07318
 C1967 C 1.18943 1.07980 1.05955
 C1968 C 1.20782 1.08698 1.06653
 H1969 H 1.31134 1.09614 1.12794
 H1970 H 1.28830 1.15593 1.11996
 H1971 H 1.31904 1.16982 1.13466
 H1972 H 1.34225 1.10998 1.14243
 H1973 H 1.19914 1.08401 1.11689
 H1974 H 1.16680 1.07160 1.10479
 H1975 H 1.18703 1.07857 1.04351
 H1976 H 1.21923 1.09134 1.05581
 C1977 C 1.31240 0.63082 0.61122
 C1978 C 1.29684 0.62464 0.62387
 C1979 C 1.29895 0.62635 0.64473
 C1980 C 1.31649 0.63431 0.65291
 C1981 C 1.33215 0.64065 0.64032
 C1982 C 1.32996 0.63878 0.61939
 C1983 C 1.27859 0.61680 0.61551
 C1984 C 1.26318 0.61034 0.60869
 C1985 C 1.24500 0.60286 0.60096
 C1986 C 1.22935 0.59654 0.59458
 C1987 C 1.21051 0.58906 0.58725
 C1988 C 1.19558 0.58343 0.60087
 C1989 C 1.17721 0.57629 0.59387
 C1990 C 1.17351 0.57469 0.57311
 C1991 C 1.18862 0.58039 0.55953
 C1992 C 1.20701 0.58752 0.56658
 H1993 H 1.31093 0.62956 0.59505
 H1994 H 1.28698 0.62167 0.65465
 H1995 H 1.31775 0.63578 0.66906
 H1996 H 1.34187 0.64346 0.60941
 H1997 H 1.19811 0.58464 0.61690
 H1998 H 1.16578 0.57231 0.60469
 H1999 H 1.18629 0.57912 0.54348
 H2000 H 1.21848 0.59181 0.55591
 C2001 C 0.81254 1.11203 0.62950
 C2002 C 0.79717 1.12485 0.62323
 C2003 C 0.79947 1.14561 0.62512
 C2004 C 0.81700 1.15354 0.63334
 C2005 C 0.83247 1.14078 0.63978
 C2006 C 0.83009 1.11995 0.63772
 C2007 C 0.77891 1.11673 0.61517
 C2008 C 0.76350 1.11008 0.60855
 C2009 C 0.74531 1.10248 0.60095
 C2010 C 0.72966 1.09615 0.59457
 C2011 C 0.71085 1.08881 0.58707
 C2012 C 0.69585 1.10234 0.58148
 C2013 C 0.67745 1.09530 0.57445
 C2014 C 0.67379 1.07458 0.57294
 C2015 C 0.68897 1.06109 0.57855
 C2016 C 0.70738 1.06818 0.58556
 H2017 H 0.81091 1.09593 0.62811
 H2018 H 0.78765 1.15567 0.62037
 H2019 H 0.81841 1.16963 0.63495
 H2020 H 0.84185 1.10985 0.64248
 H2021 H 0.69835 1.11834 0.58267
 H2022 H 0.66596 1.10605 0.57053
 H2023 H 0.68667 1.04507 0.57734
 H2024 H 0.71890 1.05757 0.58983
 C2025 C 0.79950 0.64600 1.12506
 C2026 C 0.79721 0.62523 1.12319
 C2027 C 0.81258 0.61243 1.12948
 C2028 C 0.83012 0.62036 1.13770
 C2029 C 0.83249 0.64120 1.13973
 C2030 C 0.81702 0.65395 1.13328
 C2031 C 0.77895 0.61709 1.11515
 C2032 C 0.76353 0.61038 1.10859
 C2033 C 0.74536 0.60264 1.10110
 C2034 C 0.72972 0.59613 1.09487
 C2035 C 0.71092 0.58847 1.08765
 C2036 C 0.70732 0.58696 1.06699
 C2037 C 0.68893 0.57978 1.06001
 C2038 C 0.67390 0.57402 1.07365
 C2039 C 0.67770 0.57554 1.09439
 C2040 C 0.69608 0.58273 1.10132
 H2041 H 0.78767 0.65604 1.12030
 H2042 H 0.81096 0.59633 1.12811
 H2043 H 0.84189 0.61027 1.14247
 H2044 H 0.81843 0.67003 1.13487
 H2045 H 0.71872 0.59134 1.05627
 H2046 H 0.68653 0.57857 1.04397
 H2047 H 0.66633 0.57150 1.10525
 H2048 H 0.69867 0.58392 1.11735
 C2049 C 1.30012 0.87511 0.85544
 C2050 C 1.29792 0.87696 0.87627
 C2051 C 1.31327 0.87053 0.88905
 C2052 C 1.33072 0.86219 0.88102
 C2053 C 1.33299 0.86017 0.86012
 C2054 C 1.31754 0.86677 0.84740
 C2055 C 1.27977 0.88517 0.88449
 C2056 C 1.26444 0.89192 0.89120
 C2057 C 1.24633 0.89968 0.89883
 C2058 C 1.23074 0.90619 0.90516
 C2059 C 1.21197 0.91383 0.91247
 C2060 C 1.20849 0.91541 0.93315
 C2061 C 1.19011 0.92252 0.94021
 C2062 C 1.17497 0.92816 0.92664
 C2063 C 1.17866 0.92658 0.90589
 C2064 C 1.19703 0.91945 0.89887
 H2065 H 1.28830 0.87998 0.84542
 H2066 H 1.31172 0.87190 0.90520
 H2067 H 1.34247 0.85731 0.89109
 H2068 H 1.31887 0.86519 0.83126
 H2069 H 1.21996 0.91112 0.94381
 H2070 H 1.18778 0.92378 0.95626
 H2071 H 1.16720 0.93051 0.89508
 H2072 H 1.19954 0.91820 0.88283
 C2073 C 1.31289 0.37005 0.38865
 C2074 C 1.29751 0.37654 0.37594
 C2075 C 1.29963 0.37473 0.35510
 C2076 C 1.31700 0.36636 0.34698
 C2077 C 1.33249 0.35970 0.35963
 C2078 C 1.33029 0.36168 0.38055
 C2079 C 1.27941 0.38478 0.38425
 C2080 C 1.26411 0.39155 0.39103
 C2081 C 1.24605 0.39933 0.39875
 C2082 C 1.23049 0.40587 0.40514
 C2083 C 1.21176 0.41354 0.41253
 C2084 C 1.19677 0.41914 0.39898
 C2085 C 1.17843 0.42630 0.40606
 C2086 C 1.17484 0.42795 0.42683
 C2087 C 1.19003 0.42234 0.44034
 C2088 C 1.20838 0.41519 0.43322
 H2089 H 1.31140 0.37139 0.40481
 H2090 H 1.28779 0.37964 0.34513
 H2091 H 1.31828 0.36481 0.33084
 H2092 H 1.34207 0.35676 0.39056
 H2093 H 1.19920 0.41783 0.38293
 H2094 H 1.16693 0.43021 0.39529
 H2095 H 1.18778 0.42365 0.45640
 H2096 H 1.21990 0.41092 0.44384
 C2097 C 0.81268 0.86982 0.38842
 C2098 C 0.79734 0.87640 0.37571
 C2099 C 0.79947 0.87463 0.35486
 C2100 C 0.81683 0.86623 0.34674
 C2101 C 0.83229 0.85951 0.35939
 C2102 C 0.83007 0.86143 0.38031
 C2103 C 0.77926 0.88470 0.38401
 C2104 C 0.76400 0.89153 0.39079
 C2105 C 0.74597 0.89940 0.39850
 C2106 C 0.73044 0.90600 0.40490
 C2107 C 0.71175 0.91375 0.41231
 C2108 C 0.69675 0.91938 0.39878
 C2109 C 0.67843 0.92659 0.40588
 C2110 C 0.67488 0.92825 0.42666
 C2111 C 0.69008 0.92262 0.44015
 C2112 C 0.70840 0.91542 0.43300
 H2113 H 0.81119 0.87112 0.40458
 H2114 H 0.78766 0.87961 0.34490
 H2115 H 0.81813 0.86474 0.33059
 H2116 H 0.84183 0.85645 0.39032
 H2117 H 0.69915 0.91807 0.38273
 H2118 H 0.66693 0.93052 0.39513
 H2119 H 0.68786 0.92393 0.45621
 H2120 H 0.71992 0.91112 0.44361
 C2121 C 0.79994 0.37505 0.85536
 C2122 C 0.79777 0.37689 0.87620
 C2123 C 0.81312 0.37042 0.88895
 C2124 C 0.83054 0.36204 0.88090
 C2125 C 0.83279 0.36005 0.85998
 C2126 C 0.81733 0.36667 0.84729
 C2127 C 0.77966 0.38518 0.88444
 C2128 C 0.76436 0.39199 0.89116
 C2129 C 0.74630 0.39984 0.89880
 C2130 C 0.73074 0.40643 0.90513
 C2131 C 0.71201 0.41416 0.91246
 C2132 C 0.70854 0.41573 0.93314
 C2133 C 0.69019 0.42290 0.94022
 C2134 C 0.67506 0.42859 0.92666
 C2135 C 0.67873 0.42703 0.90590
 C2136 C 0.69709 0.41985 0.89887
 H2137 H 0.78812 0.37995 0.84536
 H2138 H 0.81160 0.37177 0.90510
 H2139 H 0.84230 0.35714 0.89094
 H2140 H 0.81865 0.36512 0.83115
 H2141 H 0.72001 0.41139 0.94380
 H2142 H 0.68787 0.42414 0.95627
 H2143 H 0.66729 0.43101 0.89510
 H2144 H 0.69958 0.41861 0.88283
 C2145 C 0.70079 0.85420 1.12548
 C2146 C 0.70302 0.87498 1.12368
 C2147 C 0.68763 0.88771 1.13004
 C2148 C 0.67011 0.87970 1.13826
 C2149 C 0.66780 0.85884 1.14023
 C2150 C 0.68330 0.84616 1.13370
 C2151 C 0.72124 0.88320 1.11560
 C2152 C 0.73661 0.88992 1.10895
 C2153 C 0.75475 0.89761 1.10129
 C2154 C 0.77036 0.90399 1.09486
 C2155 C 0.78913 0.91139 1.08728
 C2156 C 0.79253 0.93204 1.08575
 C2157 C 0.81090 0.93918 1.07865
 C2158 C 0.82610 0.92573 1.07297
 C2159 C 0.82249 0.90500 1.07451
 C2160 C 0.80414 0.89791 1.08163
 H2161 H 0.71264 0.84421 1.12066
 H2162 H 0.68920 0.90382 1.12872
 H2163 H 0.65833 0.88973 1.14309
 H2164 H 0.68194 0.83007 1.13523
 H2165 H 0.78101 0.94261 1.09007
 H2166 H 0.81315 0.95520 1.07742
 H2167 H 0.83399 0.89428 1.07054
 H2168 H 0.80170 0.88190 1.08283
 C2169 C 0.70038 0.35423 0.62513
 C2170 C 0.70267 0.37500 0.62332
 C2171 C 0.68730 0.38778 0.62963
 C2172 C 0.66975 0.37983 0.63784
 C2173 C 0.66738 0.35898 0.63982
 C2174 C 0.68285 0.34625 0.63333
 C2175 C 0.72092 0.38316 0.61527
 C2176 C 0.73633 0.38984 0.60866
 C2177 C 0.75451 0.39747 0.60105
 C2178 C 0.77016 0.40381 0.59467
 C2179 C 0.78897 0.41117 0.58716
 C2180 C 0.79239 0.43180 0.58554
 C2181 C 0.81079 0.43889 0.57850
 C2182 C 0.82601 0.42541 0.57296
 C2183 C 0.82239 0.40470 0.57459
 C2184 C 0.80400 0.39764 0.58165
 H2185 H 0.71220 0.34420 0.62034
 H2186 H 0.68891 0.40389 0.62830
 H2187 H 0.65799 0.38990 0.64264
 H2188 H 0.68145 0.33016 0.63489
 H2189 H 0.78084 0.44240 0.58974
 H2190 H 0.81305 0.45491 0.57720
 H2191 H 0.83391 0.39395 0.57073
 H2192 H 0.80155 0.38164 0.58292
 C2193 C 0.18736 0.88747 0.62945
 C2194 C 0.20264 0.87461 0.62306
 C2195 C 0.20025 0.85385 0.62487
 C2196 C 0.18271 0.84596 0.63312
 C2197 C 0.16732 0.85876 0.63967
 C2198 C 0.16979 0.87960 0.63770
 C2199 C 0.22091 0.88269 0.61498
 C2200 C 0.23634 0.88934 0.60837
 C2201 C 0.25454 0.89700 0.60083
 C2202 C 0.27019 0.90345 0.59458
 C2203 C 0.28901 0.91106 0.58735
 C2204 C 0.30384 0.91680 0.60102
 C2205 C 0.32224 0.92397 0.59409
 C2206 C 0.32605 0.92550 0.57335
 C2207 C 0.31103 0.91972 0.55971
 C2208 C 0.29263 0.91256 0.56669
 H2209 H 0.18905 0.90356 0.62812
 H2210 H 0.21201 0.84376 0.62005
 H2211 H 0.18122 0.82988 0.63466
 H2212 H 0.15809 0.88973 0.64253
 H2213 H 0.30123 0.91562 0.61705
 H2214 H 0.33360 0.92802 0.60496
 H2215 H 0.31345 0.92093 0.54367
 H2216 H 0.28124 0.90818 0.55597
 C2217 C 0.18750 0.38777 1.12971
 C2218 C 0.20288 0.37502 1.12334
 C2219 C 0.20063 0.35424 1.12513
 C2220 C 0.18312 0.34622 1.13335
 C2221 C 0.16764 0.35892 1.13989
 C2222 C 0.16998 0.37977 1.13793
 C2223 C 0.22109 0.38321 1.11524
 C2224 C 0.23647 0.38991 1.10858
 C2225 C 0.25462 0.39756 1.10092
 C2226 C 0.27023 0.40392 1.09447
 C2227 C 0.28902 0.41130 1.08691
 C2228 C 0.30399 0.39780 1.08121
 C2229 C 0.32237 0.40488 1.07413
 C2230 C 0.32601 0.42560 1.07266
 C2231 C 0.31083 0.43906 1.07836
 C2232 C 0.29245 0.43194 1.08544
 H2233 H 0.18909 0.40387 1.12840
 H2234 H 0.21245 0.34423 1.12031
 H2235 H 0.18175 0.33013 1.13488
 H2236 H 0.15821 0.38982 1.14276
 H2237 H 0.30152 0.38179 1.08237
 H2238 H 0.33385 0.39414 1.07013
 H2239 H 0.31312 0.45508 1.07719
 H2240 H 0.28095 0.44252 1.08978
 C2241 C 0.68753 1.13056 0.88826
 C2242 C 0.70286 1.12401 0.87552
 C2243 C 0.70067 1.12577 0.85467
 C2244 C 0.68326 1.13410 0.84659
 C2245 C 0.66781 1.14079 0.85927
 C2246 C 0.67010 1.13890 0.88019
 C2247 C 0.72097 1.11574 0.88378
 C2248 C 0.73626 1.10892 0.89051
 C2249 C 0.75431 1.10106 0.89819
 C2250 C 0.76985 1.09446 0.90455
 C2251 C 0.78856 1.08671 0.91193
 C2252 C 0.80353 1.08104 0.89838
 C2253 C 0.82185 1.07382 0.90546
 C2254 C 0.82544 1.07218 0.92624
 C2255 C 0.81026 1.07784 0.93975
 C2256 C 0.79194 1.08505 0.93262
 H2257 H 0.68907 1.12927 0.90441
 H2258 H 0.71246 1.12081 0.84468
 H2259 H 0.68192 1.13558 0.83044
 H2260 H 0.65835 1.14384 0.89023
 H2261 H 0.80111 1.08235 0.88234
 H2262 H 0.83333 1.06987 0.89470
 H2263 H 0.81250 1.07654 0.95581
 H2264 H 0.78043 1.08937 0.94324
 C2265 C 0.68702 0.62962 0.38847
 C2266 C 0.70226 0.62308 0.37561
 C2267 C 0.69995 0.62495 0.35479
 C2268 C 0.68253 0.63340 0.34685
 C2269 C 0.66719 0.64009 0.35965
 C2270 C 0.66958 0.63807 0.38054
 C2271 C 0.72038 0.61472 0.38373
 C2272 C 0.73569 0.60783 0.39037
 C2273 C 0.75375 0.59990 0.39795
 C2274 C 0.76930 0.59326 0.40427
 C2275 C 0.78801 0.58549 0.41162
 C2276 C 0.80295 0.57977 0.39806
 C2277 C 0.82129 0.57259 0.40512
 C2278 C 0.82493 0.57104 0.42589
 C2279 C 0.80978 0.57674 0.43941
 C2280 C 0.79143 0.58391 0.43231
 H2281 H 0.68865 0.62825 0.40461
 H2282 H 0.71168 0.62000 0.34470
 H2283 H 0.68112 0.63497 0.33072
 H2284 H 0.65791 0.64302 0.39068
 H2285 H 0.80049 0.58101 0.38201
 H2286 H 0.83275 0.56860 0.39434
 H2287 H 0.81206 0.57551 0.45548
 H2288 H 0.77996 0.58827 0.44294
 C2289 C 0.18712 1.12976 0.38853
 C2290 C 0.20247 1.12326 0.37579
 C2291 C 0.20032 1.12510 0.35495
 C2292 C 0.18293 1.13349 0.34687
 C2293 C 0.16747 1.14013 0.35955
 C2294 C 0.16971 1.13814 0.38047
 C2295 C 0.22057 1.11496 0.38404
 C2296 C 0.23585 1.10812 0.39078
 C2297 C 0.25390 1.10026 0.39845
 C2298 C 0.26944 1.09365 0.40482
 C2299 C 0.28814 1.08591 0.41220
 C2300 C 0.30310 1.08019 0.39865
 C2301 C 0.32143 1.07300 0.40573
 C2302 C 0.32505 1.07145 0.42650
 C2303 C 0.30989 1.07716 0.44001
 C2304 C 0.29155 1.08434 0.43289
 H2305 H 0.18864 1.12840 0.40468
 H2306 H 0.21213 1.12018 0.34495
 H2307 H 0.18162 1.13504 0.33073
 H2308 H 0.15795 1.14306 0.39050
 H2309 H 0.30065 1.08142 0.38260
 H2310 H 0.33289 1.06901 0.39496
 H2311 H 0.31216 1.07593 0.45607
 H2312 H 0.28007 1.08871 0.44351
 C2313 C 0.20067 0.62572 0.85441
 C2314 C 0.20281 0.62393 0.87525
 C2315 C 0.18743 0.63042 0.88797
 C2316 C 0.17001 0.63875 0.87987
 C2317 C 0.16778 0.64070 0.85895
 C2318 C 0.18327 0.63405 0.84629
 C2319 C 0.22092 0.61570 0.88355
 C2320 C 0.23621 0.60892 0.89033
 C2321 C 0.25426 0.60111 0.89806
 C2322 C 0.26980 0.59454 0.90447
 C2323 C 0.28851 0.58683 0.91190
 C2324 C 0.29183 0.58514 0.93259
 C2325 C 0.31015 0.57794 0.93975
 C2326 C 0.32537 0.57233 0.92628
 C2327 C 0.32184 0.57402 0.90550
 C2328 C 0.30354 0.58123 0.89838
 H2329 H 0.21250 0.62080 0.84443
 H2330 H 0.18894 0.62911 0.90412
 H2331 H 0.15823 0.64367 0.88989
 H2332 H 0.18198 0.63557 0.83015
 H2333 H 0.28029 0.58941 0.94319
 H2334 H 0.31234 0.57660 0.95582
 H2335 H 0.33336 0.57011 0.89475
 H2336 H 0.30115 0.58256 0.88233
 C2337 C 1.13045 1.31316 1.11139
 C2338 C 1.12393 1.29777 1.12411
 C2339 C 1.12574 1.29990 1.14496
 C2340 C 1.13411 1.31731 1.15306
 C2341 C 1.14077 1.33281 1.14041
 C2342 C 1.13882 1.33059 1.11949
 C2343 C 1.11564 1.27966 1.11583
 C2344 C 1.10880 1.26436 1.10909
 C2345 C 1.10093 1.24629 1.10143
 C2346 C 1.09431 1.23073 1.09507
 C2347 C 1.08656 1.21200 1.08771
 C2348 C 1.08083 1.19704 1.10128
 C2349 C 1.07363 1.17868 1.09422
 C2350 C 1.07207 1.17503 1.07346
 C2351 C 1.07779 1.19021 1.05993
 C2352 C 1.08498 1.20857 1.06703
 H2353 H 1.12912 1.31167 1.09524
 H2354 H 1.12081 1.28806 1.15493
 H2355 H 1.13563 1.31860 1.16921
 H2356 H 1.14375 1.34239 1.10947
 H2357 H 1.08208 1.19950 1.11733
 H2358 H 1.06963 1.16720 1.10501
 H2359 H 1.07655 1.18792 1.04387
 H2360 H 1.08935 1.22006 1.05639
 C2361 C 1.12507 0.80002 0.64466
 C2362 C 1.12327 0.79793 0.62381
 C2363 C 1.12986 0.81331 0.61112
 C2364 C 1.13830 0.83068 0.61924
 C2365 C 1.14026 0.83286 0.64017
 C2366 C 1.13351 0.81737 0.65280
 C2367 C 1.11494 0.77985 0.61550
 C2368 C 1.10808 0.76458 0.60872
 C2369 C 1.10020 0.74653 0.60100
 C2370 C 1.09358 0.73099 0.59461
 C2371 C 1.08582 0.71227 0.58722
 C2372 C 1.08425 0.70886 0.56653
 C2373 C 1.07706 0.69050 0.55940
 C2374 C 1.07132 0.67532 0.57292
 C2375 C 1.07288 0.67895 0.59369
 C2376 C 1.08008 0.69729 0.60077
 H2377 H 1.12008 0.78818 0.65462
 H2378 H 1.12853 0.81184 0.59496
 H2379 H 1.14329 0.84247 0.60924
 H2380 H 1.13504 0.81863 0.66895
 H2381 H 1.08864 0.72036 0.55591
 H2382 H 1.07583 0.68823 0.54334
 H2383 H 1.06887 0.66746 0.60446
 H2384 H 1.08132 0.69974 0.61682
 C2385 C 0.62530 1.30009 0.64498
 C2386 C 0.62352 1.29792 0.62413
 C2387 C 0.63011 1.31327 0.61140
 C2388 C 0.63852 1.33069 0.61947
 C2389 C 0.64044 1.33294 0.64039
 C2390 C 0.63371 1.31748 0.65307
 C2391 C 0.61520 1.27982 0.61587
 C2392 C 0.60834 1.26452 0.60914
 C2393 C 0.60044 1.24646 0.60147
 C2394 C 0.59380 1.23091 0.59510
 C2395 C 0.58602 1.21219 0.58774
 C2396 C 0.58438 1.20879 0.56705
 C2397 C 0.57716 1.19044 0.55994
 C2398 C 0.57149 1.17525 0.57346
 C2399 C 0.57311 1.17886 0.59423
 C2400 C 0.58034 1.19720 0.60130
 H2401 H 0.62031 1.28828 0.65497
 H2402 H 0.62880 1.31174 0.59524
 H2403 H 0.64350 1.34245 0.60944
 H2404 H 0.63521 1.31880 0.66921
 H2405 H 0.58872 1.22031 0.55642
 H2406 H 0.57587 1.18818 0.54388
 H2407 H 0.56915 1.16736 0.60501
 H2408 H 0.58163 1.19964 0.61734
 C2409 C 0.63059 0.81301 1.11183
 C2410 C 0.62404 0.79766 1.12458
 C2411 C 0.62587 0.79983 1.14542
 C2412 C 0.63427 0.81723 1.15349
 C2413 C 0.64095 0.83270 1.14080
 C2414 C 0.63900 0.83044 1.11988
 C2415 C 0.61566 0.77957 1.11634
 C2416 C 0.60874 0.76429 1.10964
 C2417 C 0.60077 0.74624 1.10200
 C2418 C 0.59408 0.73071 1.09566
 C2419 C 0.58624 0.71201 1.08830
 C2420 C 0.58050 0.69704 1.10187
 C2421 C 0.57325 0.67871 1.09480
 C2422 C 0.57165 0.67509 1.07403
 C2423 C 0.57737 0.69027 1.06051
 C2424 C 0.58460 0.70861 1.06762
 H2425 H 0.62924 0.81149 1.09568
 H2426 H 0.62091 0.78801 1.15542
 H2427 H 0.63580 0.81855 1.16963
 H2428 H 0.64394 0.84221 1.10984
 H2429 H 0.58178 0.69949 1.11791
 H2430 H 0.56925 0.66722 1.10557
 H2431 H 0.57610 0.68800 1.04445
 H2432 H 0.58898 0.72010 1.05699
 C2433 C 0.88762 1.31326 0.87088
 C2434 C 0.87488 1.29787 0.87726
 C2435 C 0.85414 1.30011 0.87544
 C2436 C 0.84616 1.31763 0.86717
 C2437 C 0.85884 1.33313 0.86061
 C2438 C 0.87965 1.33080 0.86261
 C2439 C 0.88306 1.27961 0.88534
 C2440 C 0.88980 1.26420 0.89194
 C2441 C 0.89755 1.24601 0.89946
 C2442 C 0.90408 1.23036 0.90570
 C2443 C 0.91176 1.21154 0.91292
 C2444 C 0.91327 1.20792 0.93359
 C2445 C 0.92046 1.18950 0.94055
 C2446 C 0.92626 1.17447 0.92691
 C2447 C 0.92474 1.17829 0.90617
 C2448 C 0.91753 1.19671 0.89925
 H2449 H 0.90370 1.31168 0.87222
 H2450 H 0.84415 1.28826 0.88026
 H2451 H 0.83010 1.31900 0.86560
 H2452 H 0.88969 1.34259 0.85777
 H2453 H 0.90886 1.21931 0.94431
 H2454 H 0.92167 1.18707 0.95660
 H2455 H 0.92880 1.16693 0.89530
 H2456 H 0.91635 1.19932 0.88322
 C2457 C 0.88703 0.81259 0.37011
 C2458 C 0.87427 0.79720 0.37645
 C2459 C 0.85353 0.79948 0.37464
 C2460 C 0.84557 0.81703 0.36642
 C2461 C 0.85828 0.83252 0.35991
 C2462 C 0.87909 0.83016 0.36189
 C2463 C 0.88242 0.77891 0.38450
 C2464 C 0.88915 0.76348 0.39107
 C2465 C 0.89690 0.74528 0.39857
 C2466 C 0.90342 0.72963 0.40480
 C2467 C 0.91110 0.71081 0.41203
 C2468 C 0.91264 0.70722 0.43270
 C2469 C 0.91984 0.68881 0.43968
 C2470 C 0.92561 0.67376 0.42605
 C2471 C 0.92406 0.67755 0.40531
 C2472 C 0.91685 0.69595 0.39837
 H2473 H 0.90310 0.81098 0.37145
 H2474 H 0.84352 0.78763 0.37943
 H2475 H 0.82951 0.81843 0.36486
 H2476 H 0.88914 0.84195 0.35708
 H2477 H 0.90825 0.71863 0.44341
 H2478 H 0.92107 0.68641 0.45572
 H2479 H 0.92811 0.66617 0.39445
 H2480 H 0.91564 0.69855 0.38234
 C2481 C 0.38719 1.31280 0.37051
 C2482 C 0.37442 1.29744 0.37691
 C2483 C 0.35369 1.29972 0.37507
 C2484 C 0.34574 1.31724 0.36678
 C2485 C 0.35845 1.33271 0.36022
 C2486 C 0.37926 1.33034 0.36222
 C2487 C 0.38256 1.27918 0.38502
 C2488 C 0.38926 1.26377 0.39165
 C2489 C 0.39699 1.24558 0.39920
 C2490 C 0.40349 1.22993 0.40546
 C2491 C 0.41114 1.21110 0.41270
 C2492 C 0.41683 1.19622 0.39904
 C2493 C 0.42403 1.17782 0.40598
 C2494 C 0.42562 1.17404 0.42673
 C2495 C 0.41990 1.18912 0.44035
 C2496 C 0.41271 1.20753 0.43337
 H2497 H 0.40326 1.31119 0.37186
 H2498 H 0.34367 1.28790 0.37991
 H2499 H 0.32968 1.31864 0.36522
 H2500 H 0.38932 1.34211 0.35737
 H2501 H 0.41559 1.19880 0.38301
 H2502 H 0.42803 1.16642 0.39513
 H2503 H 0.42117 1.18673 0.45640
 H2504 H 0.40837 1.21896 0.44408
 C2505 C 0.38773 0.81335 0.87120
 C2506 C 0.37495 0.79798 0.87757
 C2507 C 0.35422 0.80024 0.87568
 C2508 C 0.34628 0.81775 0.86736
 C2509 C 0.35900 0.83322 0.86082
 C2510 C 0.37981 0.83088 0.86288
 C2511 C 0.38308 0.77973 0.88571
 C2512 C 0.38977 0.76431 0.89234
 C2513 C 0.39747 0.74612 0.89990
 C2514 C 0.40394 0.73045 0.90615
 C2515 C 0.41157 0.71161 0.91336
 C2516 C 0.41308 0.70797 0.93402
 C2517 C 0.42025 0.68954 0.94098
 C2518 C 0.42602 0.67451 0.92732
 C2519 C 0.42449 0.67835 0.90658
 C2520 C 0.41731 0.69677 0.89968
 H2521 H 0.40380 0.81175 0.87259
 H2522 H 0.34420 0.78841 0.88049
 H2523 H 0.33023 0.81914 0.86575
 H2524 H 0.38987 0.84265 0.85805
 H2525 H 0.40869 0.71936 0.94475
 H2526 H 0.42145 0.68710 0.95702
 H2527 H 0.42853 0.66698 0.89571
 H2528 H 0.41613 0.69940 0.88365
 C2529 C 1.14616 0.70059 0.87432
 C2530 C 1.12541 0.70273 0.87613
 C2531 C 1.11275 0.68726 0.86978
 C2532 C 1.12082 0.66976 0.86154
 C2533 C 1.14164 0.66754 0.85955
 C2534 C 1.15424 0.68311 0.86608
 C2535 C 1.11713 0.72094 0.88421
 C2536 C 1.11036 0.73632 0.89084
 C2537 C 1.10262 0.75446 0.89847
 C2538 C 1.09619 0.77008 0.90489
 C2539 C 1.08877 0.78887 0.91244
 C2540 C 1.06815 0.79224 0.91395
 C2541 C 1.06099 0.81062 0.92105
 C2542 C 1.07439 0.82586 0.92675
 C2543 C 1.09508 0.82229 0.92521
 C2544 C 1.10220 0.80393 0.91810
 H2545 H 1.15609 0.71249 0.87913
 H2546 H 1.09667 0.68876 0.87111
 H2547 H 1.11085 0.65792 0.85671
 H2548 H 1.17031 0.68182 0.86452
 H2549 H 1.05762 0.78068 0.90962
 H2550 H 1.04499 0.81285 0.92226
 H2551 H 1.10577 0.83383 0.92920
 H2552 H 1.11819 0.80151 0.91691
 C2553 C 1.14605 0.20005 0.37498
 C2554 C 1.12531 0.20227 0.37681
 C2555 C 1.11259 0.18686 0.37043
 C2556 C 1.12058 0.16934 0.36216
 C2557 C 1.14140 0.16704 0.36017
 C2558 C 1.15406 0.18255 0.36672
 C2559 C 1.11711 0.22049 0.38494
 C2560 C 1.11040 0.23588 0.39161
 C2561 C 1.10273 0.25404 0.39929
 C2562 C 1.09635 0.26966 0.40574
 C2563 C 1.08895 0.28845 0.41330
 C2564 C 1.06834 0.29183 0.41483
 C2565 C 1.06119 0.31023 0.42190
 C2566 C 1.07460 0.32548 0.42754
 C2567 C 1.09529 0.32190 0.42601
 C2568 C 1.10240 0.30351 0.41893
 H2569 H 1.15603 0.21191 0.37981
 H2570 H 1.09651 0.18842 0.37177
 H2571 H 1.11056 0.15754 0.35732
 H2572 H 1.17012 0.18120 0.36516
 H2573 H 1.05780 0.28026 0.41054
 H2574 H 1.04519 0.31246 0.42312
 H2575 H 1.10598 0.33344 0.42995
 H2576 H 1.11838 0.30109 0.41773
 C2577 C 0.61241 0.68688 0.37092
 C2578 C 0.62518 0.70229 0.37720
 C2579 C 0.64591 0.70005 0.37528
 C2580 C 0.65386 0.68254 0.36699
 C2581 C 0.64115 0.66704 0.36051
 C2582 C 0.62035 0.66935 0.36263
 C2583 C 0.61703 0.72055 0.38529
 C2584 C 0.61034 0.73597 0.39191
 C2585 C 0.60268 0.75416 0.39951
 C2586 C 0.59630 0.76982 0.40588
 C2587 C 0.58891 0.78865 0.41336
 C2588 C 0.60237 0.80373 0.41891
 C2589 C 0.59528 0.82214 0.42593
 C2590 C 0.57459 0.82573 0.42750
 C2591 C 0.56117 0.81045 0.42193
 C2592 C 0.56830 0.79203 0.41491
 H2593 H 0.59634 0.68846 0.37234
 H2594 H 0.65592 0.71191 0.38003
 H2595 H 0.66992 0.68118 0.36533
 H2596 H 0.61029 0.65756 0.35785
 H2597 H 0.61835 0.80130 0.41768
 H2598 H 0.60597 0.83370 0.42982
 H2599 H 0.54517 0.81269 0.42318
 H2600 H 0.55776 0.78045 0.41068
 C2601 C 0.61279 0.18741 0.87001
 C2602 C 0.62546 0.20290 0.87629
 C2603 C 0.64621 0.20074 0.87447
 C2604 C 0.65428 0.18322 0.86630
 C2605 C 0.64166 0.16763 0.85984
 C2606 C 0.62084 0.16987 0.86184
 C2607 C 0.61720 0.22115 0.88429
 C2608 C 0.61043 0.23656 0.89085
 C2609 C 0.60271 0.25474 0.89841
 C2610 C 0.59629 0.27039 0.90477
 C2611 C 0.58888 0.28921 0.91226
 C2612 C 0.60232 0.30425 0.91792
 C2613 C 0.59522 0.32264 0.92500
 C2614 C 0.57453 0.32623 0.92651
 C2615 C 0.56112 0.31100 0.92080
 C2616 C 0.56827 0.29260 0.91373
 H2617 H 0.59671 0.18892 0.87135
 H2618 H 0.65615 0.21266 0.87923
 H2619 H 0.67034 0.18191 0.86474
 H2620 H 0.61086 0.15802 0.85706
 H2621 H 0.61831 0.30181 0.91676
 H2622 H 0.60591 0.33416 0.92899
 H2623 H 0.54512 0.31325 0.92200
 H2624 H 0.55772 0.28105 0.90941
 C2625 C 0.87453 0.70009 1.14491
 C2626 C 0.87630 0.70230 1.12406
 C2627 C 0.86973 0.68696 1.11132
 C2628 C 0.86135 0.66952 1.11938
 C2629 C 0.85943 0.66723 1.14030
 C2630 C 0.86616 0.68268 1.15299
 C2631 C 0.88458 0.72042 1.11581
 C2632 C 0.89141 0.73574 1.10907
 C2633 C 0.89927 0.75382 1.10140
 C2634 C 0.90587 0.76939 1.09504
 C2635 C 0.91361 0.78813 1.08768
 C2636 C 0.91527 0.79154 1.06699
 C2637 C 0.92247 0.80990 1.05988
 C2638 C 0.92812 0.82509 1.07340
 C2639 C 0.92647 0.82148 1.09417
 C2640 C 0.91926 0.80312 1.10124
 H2641 H 0.87951 0.71189 1.15491
 H2642 H 0.87102 0.68851 1.09516
 H2643 H 0.85637 0.65777 1.10934
 H2644 H 0.86467 0.68133 1.16913
 H2645 H 0.91096 0.78003 1.05636
 H2646 H 0.92378 0.81217 1.04382
 H2647 H 0.93041 0.83297 1.10495
 H2648 H 0.91795 0.80067 1.11728
 C2649 C 0.86976 0.18662 0.61152
 C2650 C 0.87635 0.20191 0.62432
 C2651 C 0.87456 0.19965 0.64516
 C2652 C 0.86614 0.18222 0.65318
 C2653 C 0.85941 0.16682 0.64044
 C2654 C 0.86134 0.16917 0.61953
 C2655 C 0.88470 0.22004 0.61613
 C2656 C 0.89157 0.23536 0.60945
 C2657 C 0.89949 0.25344 0.60184
 C2658 C 0.90613 0.26900 0.59551
 C2659 C 0.91391 0.28774 0.58816
 C2660 C 0.91951 0.30274 0.60172
 C2661 C 0.92671 0.32111 0.59465
 C2662 C 0.92839 0.32471 0.57389
 C2663 C 0.92281 0.30949 0.56037
 C2664 C 0.91562 0.29113 0.56747
 H2665 H 0.87108 0.18822 0.59538
 H2666 H 0.87954 0.21141 0.65520
 H2667 H 0.86463 0.18083 0.66931
 H2668 H 0.85636 0.15746 0.60945
 H2669 H 0.91816 0.30031 0.61776
 H2670 H 0.93060 0.33262 0.60543
 H2671 H 0.92414 0.31175 0.54431
 H2672 H 0.91135 0.27960 0.55684
 C2673 C 0.35485 0.70017 0.62510
 C2674 C 0.37564 0.70195 0.62334
 C2675 C 0.38801 0.68626 0.62970
 C2676 C 0.37962 0.66888 0.63790
 C2677 C 0.35876 0.66702 0.63983
 C2678 C 0.34645 0.68281 0.63329
 C2679 C 0.38425 0.72005 0.61535
 C2680 C 0.39132 0.73534 0.60881
 C2681 C 0.39942 0.75339 0.60134
 C2682 C 0.40619 0.76894 0.59510
 C2683 C 0.41408 0.78765 0.58783
 C2684 C 0.41974 0.80259 0.60145
 C2685 C 0.42698 0.82096 0.59445
 C2686 C 0.42863 0.82465 0.57369
 C2687 C 0.42301 0.80949 0.56012
 C2688 C 0.41579 0.79112 0.56716
 H2689 H 0.34514 0.71225 0.62028
 H2690 H 0.40412 0.68749 0.62842
 H2691 H 0.38938 0.65686 0.64274
 H2692 H 0.33035 0.68180 0.63480
 H2693 H 0.41840 0.80010 0.61748
 H2694 H 0.43090 0.83243 0.60526
 H2695 H 0.42433 0.81181 0.54406
 H2696 H 0.41147 0.77965 0.55648
 C2697 C 0.37049 0.18663 1.11143
 C2698 C 0.37703 0.20194 1.12423
 C2699 C 0.37515 0.19972 1.14506
 C2700 C 0.36669 0.18231 1.15307
 C2701 C 0.35999 0.16690 1.14034
 C2702 C 0.36203 0.16920 1.11943
 C2703 C 0.38534 0.22008 1.11602
 C2704 C 0.39212 0.23541 1.10928
 C2705 C 0.39985 0.25352 1.10153
 C2706 C 0.40623 0.26911 1.09501
 C2707 C 0.41358 0.28789 1.08734
 C2708 C 0.43418 0.29135 1.08581
 C2709 C 0.44126 0.30973 1.07861
 C2710 C 0.42779 0.32488 1.07284
 C2711 C 0.40711 0.32122 1.07440
 C2712 C 0.40008 0.30286 1.08161
 H2713 H 0.37187 0.18819 1.09529
 H2714 H 0.38010 0.21150 1.15509
 H2715 H 0.36511 0.18096 1.16921
 H2716 H 0.35707 0.15747 1.10935
 H2717 H 0.44477 0.27985 1.09019
 H2718 H 0.45725 0.31203 1.07739
 H2719 H 0.39638 0.33269 1.07037
 H2720 H 0.38411 0.30037 1.08282
 C2721 C 1.14534 1.12516 0.69941
 C2722 C 1.12456 1.12357 0.70154
 C2723 C 1.11199 1.13012 0.68605
 C2724 C 1.12015 1.13834 0.66854
 C2725 C 1.14100 1.14009 0.66633
 C2726 C 1.15352 1.13337 0.68192
 C2727 C 1.11619 1.11552 0.71976
 C2728 C 1.10932 1.10895 0.73515
 C2729 C 1.10143 1.10143 0.75332
 C2730 C 1.09482 1.09517 0.76896
 C2731 C 1.08708 1.08789 0.78778
 C2732 C 1.08555 1.06727 0.79131
 C2733 C 1.07837 1.06023 0.80975
 C2734 C 1.07262 1.07377 0.82491
 C2735 C 1.07414 1.09447 0.82116
 C2736 C 1.08132 1.10146 0.80273
 H2737 H 1.15520 1.12019 0.71133
 H2738 H 1.09589 1.12897 0.68754
 H2739 H 1.11024 1.14332 0.65668
 H2740 H 1.16960 1.13474 0.68064
 H2741 H 1.08994 1.05663 0.77984
 H2742 H 1.07717 1.04422 0.81212
 H2743 H 1.07011 1.10526 0.83262
 H2744 H 1.08253 1.11746 0.80018
 C2745 C 1.12977 0.61208 0.18612
 C2746 C 1.12338 0.62481 0.20155
 C2747 C 1.12535 0.64559 0.19940
 C2748 C 1.13377 0.65361 0.18193
 C2749 C 1.14032 0.64093 0.16639
 C2750 C 1.13819 0.62008 0.16863
 C2751 C 1.11512 0.61660 0.21976
 C2752 C 1.10838 0.60984 0.23513
 C2753 C 1.10069 0.60205 0.25328
 C2754 C 1.09433 0.59550 0.26891
 C2755 C 1.08697 0.58779 0.28771
 C2756 C 1.10046 0.58224 0.30280
 C2757 C 1.09341 0.57500 0.32119
 C2758 C 1.07273 0.57321 0.32475
 C2759 C 1.05928 0.57879 0.30947
 C2760 C 1.06637 0.58603 0.29107
 H2761 H 1.12832 0.59598 0.18763
 H2762 H 1.12052 0.65558 0.21128
 H2763 H 1.13543 0.66969 0.18063
 H2764 H 1.14303 0.61004 0.15681
 H2765 H 1.11643 0.58363 0.30039
 H2766 H 1.10413 0.57112 0.33275
 H2767 H 1.04329 0.57739 0.31169
 H2768 H 1.05580 0.59026 0.27949
 C2769 C 0.63044 1.11206 0.18648
 C2770 C 0.62406 1.12469 0.20199
 C2771 C 0.62594 1.14549 0.19993
 C2772 C 0.63426 1.15362 0.18247
 C2773 C 0.64079 1.14104 0.16684
 C2774 C 0.63875 1.12018 0.16899
 C2775 C 0.61582 1.11638 0.22016
 C2776 C 0.60904 1.10959 0.23551
 C2777 C 0.60122 1.10186 0.25362
 C2778 C 0.59464 1.09546 0.26922
 C2779 C 0.58690 1.08804 0.28799
 C2780 C 0.58100 1.10152 0.30296
 C2781 C 0.57377 1.09442 0.32133
 C2782 C 0.57235 1.07370 0.32499
 C2783 C 0.57827 1.06025 0.30982
 C2784 C 0.58549 1.06740 0.29144
 H2785 H 0.62904 1.09594 0.18791
 H2786 H 0.62111 1.15540 0.21187
 H2787 H 0.63585 1.16972 0.18124
 H2788 H 0.64358 1.11022 0.15710
 H2789 H 0.58211 1.11754 0.30048
 H2790 H 0.56961 1.10514 0.33281
 H2791 H 0.57716 1.04422 0.31212
 H2792 H 0.59001 1.05683 0.27994
 C2793 C 0.63015 0.61205 0.68630
 C2794 C 0.62390 0.62480 0.70178
 C2795 C 0.62590 0.64557 0.69961
 C2796 C 0.63421 0.65357 0.68208
 C2797 C 0.64062 0.64087 0.66649
 C2798 C 0.63846 0.62003 0.66875
 C2799 C 0.61570 0.61662 0.72002
 C2800 C 0.60895 0.60993 0.73542
 C2801 C 0.60118 0.60231 0.75360
 C2802 C 0.59465 0.59597 0.76925
 C2803 C 0.58699 0.58862 0.78808
 C2804 C 0.58118 0.60214 0.80305
 C2805 C 0.57403 0.59508 0.82147
 C2806 C 0.57261 0.57436 0.82518
 C2807 C 0.57843 0.56088 0.81000
 C2808 C 0.58557 0.56798 0.79157
 H2809 H 0.62867 0.59595 0.68783
 H2810 H 0.62117 0.65557 0.71152
 H2811 H 0.63589 0.66965 0.68076
 H2812 H 0.64319 0.60998 0.65690
 H2813 H 0.58230 0.61814 0.80053
 H2814 H 0.56995 0.60583 0.83295
 H2815 H 0.57730 0.54486 0.81234
 H2816 H 0.59000 0.55738 0.78007
 C2817 C 0.87427 0.85441 0.69980
 C2818 C 0.87620 0.87520 0.70185
 C2819 C 0.86984 0.88785 0.68632
 C2820 C 0.86149 0.87975 0.66886
 C2821 C 0.85939 0.85889 0.66673
 C2822 C 0.86592 0.84630 0.68236
 C2823 C 0.88442 0.88351 0.72002
 C2824 C 0.89118 0.89031 0.73536
 C2825 C 0.89895 0.89806 0.75348
 C2826 C 0.90549 0.90448 0.76908
 C2827 C 0.91318 0.91191 0.78786
 C2828 C 0.91464 0.93256 0.79125
 C2829 C 0.92183 0.93973 0.80964
 C2830 C 0.92767 0.92630 0.82486
 C2831 C 0.92619 0.90557 0.82125
 C2832 C 0.91899 0.89845 0.80288
 H2833 H 0.87909 0.84449 0.71174
 H2834 H 0.87126 0.90397 0.68775
 H2835 H 0.85666 0.88972 0.65697
 H2836 H 0.86428 0.83020 0.68114
 H2837 H 0.91020 0.94312 0.77972
 H2838 H 0.92299 0.95575 0.81189
 H2839 H 0.93028 0.89486 0.83277
 H2840 H 0.91784 0.88243 0.80044
 C2841 C 0.86985 0.38763 0.18636
 C2842 C 0.87623 0.37487 0.20178
 C2843 C 0.87427 0.35410 0.19959
 C2844 C 0.86589 0.34611 0.18210
 C2845 C 0.85936 0.35881 0.16657
 C2846 C 0.86146 0.37966 0.16885
 C2847 C 0.88452 0.38304 0.21998
 C2848 C 0.89134 0.38972 0.23535
 C2849 C 0.89919 0.39734 0.25348
 C2850 C 0.90578 0.40369 0.26909
 C2851 C 0.91350 0.41107 0.28788
 C2852 C 0.91934 0.39757 0.30287
 C2853 C 0.92651 0.40465 0.32127
 C2854 C 0.92793 0.42537 0.32493
 C2855 C 0.92211 0.43883 0.30973
 C2856 C 0.91495 0.43171 0.29133
 H2857 H 0.87129 0.40373 0.18789
 H2858 H 0.87910 0.34408 0.21146
 H2859 H 0.86425 0.33002 0.18077
 H2860 H 0.85664 0.38971 0.15703
 H2861 H 0.91820 0.38156 0.30039
 H2862 H 0.93060 0.39392 0.33276
 H2863 H 0.92324 0.45486 0.31203
 H2864 H 0.91049 0.44229 0.27981
 C2865 C 0.38798 0.86936 0.18654
 C2866 C 0.37550 0.87588 0.20212
 C2867 C 0.35472 0.87429 0.20012
 C2868 C 0.34643 0.86612 0.18268
 C2869 C 0.35885 0.85944 0.16699
 C2870 C 0.37971 0.86119 0.16907
 C2871 C 0.38398 0.88391 0.22029
 C2872 C 0.39092 0.89049 0.23564
 C2873 C 0.39888 0.89803 0.25377
 C2874 C 0.40553 0.90432 0.26937
 C2875 C 0.41331 0.91164 0.28815
 C2876 C 0.41916 0.89810 0.30310
 C2877 C 0.42636 0.90513 0.32151
 C2878 C 0.42778 0.92584 0.32522
 C2879 C 0.42195 0.93934 0.31007
 C2880 C 0.41476 0.93227 0.29165
 H2881 H 0.40409 0.87052 0.18793
 H2882 H 0.34492 0.87923 0.21211
 H2883 H 0.33033 0.86475 0.18150
 H2884 H 0.38954 0.85624 0.15713
 H2885 H 0.41802 0.88210 0.30058
 H2886 H 0.43045 0.89437 0.33297
 H2887 H 0.42308 0.95536 0.31241
 H2888 H 0.41029 0.94288 0.28018
 C2889 C 0.37409 0.35447 0.69985
 C2890 C 0.37603 0.37526 0.70189
 C2891 C 0.36965 0.38791 0.68638
 C2892 C 0.36126 0.37980 0.66893
 C2893 C 0.35914 0.35894 0.66681
 C2894 C 0.36570 0.34635 0.68242
 C2895 C 0.38429 0.38357 0.72005
 C2896 C 0.39107 0.39038 0.73538
 C2897 C 0.39887 0.39815 0.75348
 C2898 C 0.40542 0.40461 0.76906
 C2899 C 0.41313 0.41207 0.78782
 C2900 C 0.41453 0.43273 0.79120
 C2901 C 0.42173 0.43993 0.80956
 C2902 C 0.42765 0.42653 0.82478
 C2903 C 0.42624 0.40579 0.82119
 C2904 C 0.41902 0.39864 0.80283
 H2905 H 0.37892 0.34454 0.71179
 H2906 H 0.37108 0.40402 0.68780
 H2907 H 0.35641 0.38977 0.65706
 H2908 H 0.36405 0.33025 0.68121
 H2909 H 0.41002 0.44327 0.77967
 H2910 H 0.42285 0.45596 0.81181
 H2911 H 0.43039 0.39510 0.83270
 H2912 H 0.41792 0.38262 0.80040
 C2913 C 1.11229 0.87007 1.31372
 C2914 C 1.12488 0.87638 1.29815
 C2915 C 1.14564 0.87445 1.30015
 C2916 C 1.15379 0.86613 1.31760
 C2917 C 1.14125 0.85963 1.33327
 C2918 C 1.12042 0.86174 1.33119
 C2919 C 1.11654 0.88453 1.27996
 C2920 C 1.10972 0.89122 1.26459
 C2921 C 1.10195 0.89891 1.24645
 C2922 C 1.09552 0.90538 1.23082
 C2923 C 1.08810 0.91299 1.21200
 C2924 C 1.10155 0.91876 1.19696
 C2925 C 1.09445 0.92591 1.17856
 C2926 C 1.07376 0.92738 1.17495
 C2927 C 1.06034 0.92157 1.19017
 C2928 C 1.06749 0.91443 1.20859
 H2929 H 1.09621 0.87149 1.31233
 H2930 H 1.15552 0.87924 1.28816
 H2931 H 1.16986 0.86448 1.31878
 H2932 H 1.11050 0.85693 1.34312
 H2933 H 1.11753 0.91763 1.19942
 H2934 H 1.10514 0.92998 1.16704
 H2935 H 1.04434 0.92273 1.18791
 H2936 H 1.05695 0.91001 1.22014
 C2937 C 1.14546 0.37487 0.80033
 C2938 C 1.12470 0.37678 0.79836
 C2939 C 1.11213 0.37044 0.81395
 C2940 C 1.12030 0.36213 0.83141
 C2941 C 1.14113 0.36006 0.83346
 C2942 C 1.15364 0.36656 0.81776
 C2943 C 1.11633 0.38497 0.78020
 C2944 C 1.10951 0.39170 0.76485
 C2945 C 1.10174 0.39945 0.74673
 C2946 C 1.09531 0.40596 0.73111
 C2947 C 1.08788 0.41361 0.71232
 C2948 C 1.06727 0.41498 0.70889
 C2949 C 1.06011 0.42211 0.69048
 C2950 C 1.07351 0.42798 0.67527
 C2951 C 1.09421 0.42661 0.67890
 C2952 C 1.10132 0.41946 0.69730
 H2953 H 1.15531 0.37967 0.78833
 H2954 H 1.09605 0.37185 0.81258
 H2955 H 1.11040 0.35732 0.84335
 H2956 H 1.16971 0.36494 0.81892
 H2957 H 1.05673 0.41050 0.72043
 H2958 H 1.04411 0.42320 0.68820
 H2959 H 1.10489 0.43072 0.66739
 H2960 H 1.11731 0.41838 0.69976
 C2961 C 0.63099 0.88870 0.81405
 C2962 C 0.62444 0.87616 0.79852
 C2963 C 0.62595 0.85534 0.80060
 C2964 C 0.63407 0.84707 0.81808
 C2965 C 0.64078 0.85954 0.83372
 C2966 C 0.63911 0.88044 0.83156
 C2967 C 0.61645 0.88461 0.78031
 C2968 C 0.60986 0.89149 0.76492
 C2969 C 0.60226 0.89930 0.74675
 C2970 C 0.59584 0.90574 0.73110
 C2971 C 0.58825 0.91312 0.71226
 C2972 C 0.58271 0.89961 0.69718
 C2973 C 0.57551 0.90666 0.67878
 C2974 C 0.57376 0.92738 0.67520
 C2975 C 0.57937 0.94086 0.69046
 C2976 C 0.58656 0.93376 0.70887
 H2977 H 0.62989 0.90483 0.81260
 H2978 H 0.62099 0.84550 0.78865
 H2979 H 0.63539 0.83095 0.81932
 H2980 H 0.64408 0.89032 0.84345
 H2981 H 0.58404 0.88360 0.69961
 H2982 H 0.57161 0.89592 0.66724
 H2983 H 0.57799 0.95687 0.68822
 H2984 H 0.59079 0.94435 0.72045
 C2985 C 0.64581 0.37461 1.30027
 C2986 C 0.62507 0.37662 1.29822
 C2987 C 0.61241 0.37031 1.31375
 C2988 C 0.62046 0.36192 1.33122
 C2989 C 0.64127 0.35973 1.33335
 C2990 C 0.65387 0.36621 1.31773
 C2991 C 0.61679 0.38481 1.28002
 C2992 C 0.60999 0.39150 1.26465
 C2993 C 0.60214 0.39911 1.24650
 C2994 C 0.59556 0.40542 1.23087
 C2995 C 0.58781 0.41273 1.21207
 C2996 C 0.58603 0.43335 1.20866
 C2997 C 0.57880 0.44039 1.19024
 C2998 C 0.57325 0.42687 1.17501
 C2999 C 0.57503 0.40617 1.17862
 C3000 C 0.58227 0.39917 1.19703
 H3001 H 0.65573 0.37937 1.28832
 H3002 H 0.59633 0.37179 1.31231
 H3003 H 0.61049 0.35712 1.34311
 H3004 H 0.66993 0.36451 1.31895
 H3005 H 0.59026 0.44398 1.22021
 H3006 H 0.57739 0.45640 1.18797
 H3007 H 0.57116 0.39540 1.16710
 H3008 H 0.58368 0.38317 1.19948
 C3009 C 0.86879 1.11147 1.31355
 C3010 C 0.87537 1.12403 1.29804
 C3011 C 0.87388 1.14485 1.30016
 C3012 C 0.86577 1.15309 1.31766
 C3013 C 0.85904 1.14059 1.33327
 C3014 C 0.86067 1.11969 1.33107
 C3015 C 0.88341 1.11562 1.27984
 C3016 C 0.89004 1.10877 1.26446
 C3017 C 0.89771 1.10100 1.24630
 C3018 C 0.90419 1.09458 1.23067
 C3019 C 0.91183 1.08720 1.21185
 C3020 C 0.91748 1.10071 1.19680
 C3021 C 0.92471 1.09365 1.17842
 C3022 C 0.92639 1.07293 1.17483
 C3023 C 0.92070 1.05945 1.19006
 C3024 C 0.91348 1.06656 1.20846
 H3025 H 0.86987 1.09533 1.31207
 H3026 H 0.87888 1.15471 1.28823
 H3027 H 0.86449 1.16921 1.31893
 H3028 H 0.85568 1.10979 1.34295
 H3029 H 0.91619 1.11671 1.19923
 H3030 H 0.92868 1.10439 1.16688
 H3031 H 0.92202 1.04344 1.18782
 H3032 H 0.90917 1.05597 1.22002
 C3033 C 0.86889 0.61191 0.81338
 C3034 C 0.87534 0.62446 0.79780
 C3035 C 0.87376 0.64527 0.79987
 C3036 C 0.86568 0.65353 0.81737
 C3037 C 0.85906 0.64104 0.83305
 C3038 C 0.86079 0.62015 0.83090
 C3039 C 0.88331 0.61602 0.77958
 C3040 C 0.88987 0.60915 0.76419
 C3041 C 0.89745 0.60133 0.74601
 C3042 C 0.90385 0.59488 0.73036
 C3043 C 0.91141 0.58747 0.71153
 C3044 C 0.91691 0.60095 0.69640
 C3045 C 0.92408 0.59386 0.67801
 C3046 C 0.92586 0.57315 0.67449
 C3047 C 0.92030 0.55969 0.68979
 C3048 C 0.91313 0.56683 0.70820
 H3049 H 0.87004 0.59578 0.81194
 H3050 H 0.87866 0.65512 0.78789
 H3051 H 0.86431 0.66965 0.81860
 H3052 H 0.85589 0.61025 0.84283
 H3053 H 0.91555 0.61696 0.69879
 H3054 H 0.92795 0.60459 0.66642
 H3055 H 0.92170 0.54367 0.68760
 H3056 H 0.90894 0.55625 0.71982
 C3057 C 0.35444 1.12556 0.80042
 C3058 C 0.37518 1.12363 0.79832
 C3059 C 0.38785 1.12996 0.81382
 C3060 C 0.37980 1.13830 0.83131
 C3061 C 0.35898 1.14041 0.83350
 C3062 C 0.34637 1.13390 0.81790
 C3063 C 0.38344 1.11545 0.78010
 C3064 C 0.39019 1.10873 0.76472
 C3065 C 0.39790 1.10102 0.74656
 C3066 C 0.40431 1.09453 0.73093
 C3067 C 0.41171 1.08692 0.71211
 C3068 C 0.43232 1.08555 0.70866
 C3069 C 0.43946 1.07842 0.69024
 C3070 C 0.42605 1.07255 0.67505
 C3071 C 0.40536 1.07393 0.67870
 C3072 C 0.39826 1.08107 0.69711
 H3073 H 0.34450 1.12077 0.78849
 H3074 H 0.40393 1.12853 0.81234
 H3075 H 0.38978 1.14311 0.84318
 H3076 H 0.33031 1.13555 0.81916
 H3077 H 0.44287 1.09002 0.72018
 H3078 H 0.45546 1.07733 0.68794
 H3079 H 0.39466 1.06981 0.66721
 H3080 H 0.38228 1.08215 0.69959
 C3081 C 0.37408 0.64460 1.30054
 C3082 C 0.37553 0.62377 1.29848
 C3083 C 0.36898 0.61127 1.31404
 C3084 C 0.36090 0.61955 1.33155
 C3085 C 0.35928 0.64046 1.33369
 C3086 C 0.36600 0.65290 1.31803
 C3087 C 0.38348 0.61529 1.28027
 C3088 C 0.39004 0.60839 1.26488
 C3089 C 0.39761 0.60057 1.24671
 C3090 C 0.40401 0.59413 1.23105
 C3091 C 0.41157 0.58675 1.21220
 C3092 C 0.41324 0.56611 1.20880
 C3093 C 0.42043 0.55902 1.19039
 C3094 C 0.42607 0.57251 1.17515
 C3095 C 0.42435 0.59323 1.17874
 C3096 C 0.41715 0.60027 1.19714
 H3097 H 0.37905 0.65441 1.28856
 H3098 H 0.37004 0.59513 1.31261
 H3099 H 0.35592 0.60969 1.34347
 H3100 H 0.36473 0.66903 1.31925
 H3101 H 0.40898 0.55551 1.22038
 H3102 H 0.42178 0.54301 1.18814
 H3103 H 0.42828 0.60398 1.16720
 H3104 H 0.41584 0.61627 1.19958
 C3105 C 1.12565 1.30029 0.85517
 C3106 C 1.12395 1.29810 0.87602
 C3107 C 1.13051 1.31347 0.88873
 C3108 C 1.13882 1.33093 0.88062
 C3109 C 1.14066 1.33320 0.85969
 C3110 C 1.13396 1.31772 0.84704
 C3111 C 1.11571 1.27997 0.88431
 C3112 C 1.10891 1.26465 0.89106
 C3113 C 1.10107 1.24655 0.89873
 C3114 C 1.09449 1.23097 0.90509
 C3115 C 1.08675 1.21222 0.91243
 C3116 C 1.08516 1.20876 0.93312
 C3117 C 1.07797 1.19039 0.94020
 C3118 C 1.07226 1.17523 0.92666
 C3119 C 1.07384 1.17890 0.90590
 C3120 C 1.08104 1.19727 0.89885
 H3121 H 1.12068 1.28846 0.84519
 H3122 H 1.12926 1.31194 0.90489
 H3123 H 1.14378 1.34271 0.89063
 H3124 H 1.13540 1.31904 0.83089
 H3125 H 1.08952 1.22024 0.94376
 H3126 H 1.07672 1.18808 0.95626
 H3127 H 1.06984 1.16744 0.89511
 H3128 H 1.08229 1.19976 0.88281
 C3129 C 1.12553 0.79984 0.35471
 C3130 C 1.12370 0.79762 0.37554
 C3131 C 1.13027 0.81293 0.38832
 C3132 C 1.13870 0.83037 0.38030
 C3133 C 1.14066 0.83268 0.35939
 C3134 C 1.13396 0.81726 0.34667
 C3135 C 1.11531 0.77951 0.38375
 C3136 C 1.10839 0.76422 0.39042
 C3137 C 1.10042 0.74616 0.39803
 C3138 C 1.09374 0.73061 0.40435
 C3139 C 1.08591 0.71189 0.41168
 C3140 C 1.08420 0.70849 0.43237
 C3141 C 1.07698 0.69013 0.43946
 C3142 C 1.07138 0.67493 0.42593
 C3143 C 1.07305 0.67855 0.40516
 C3144 C 1.08027 0.69690 0.39811
 H3145 H 1.12055 0.78806 0.34468
 H3146 H 1.12893 0.81136 0.40447
 H3147 H 1.14366 0.84210 0.39037
 H3148 H 1.13548 0.81862 0.33053
 H3149 H 1.08850 0.71999 0.44301
 H3150 H 1.07565 0.68786 0.45552
 H3151 H 1.06913 0.66705 0.39438
 H3152 H 1.08162 0.69935 0.38207
 C3153 C 0.63015 1.31306 0.38845
 C3154 C 0.62356 1.29775 0.37568
 C3155 C 0.62536 1.29998 0.35484
 C3156 C 0.63379 1.31738 0.34679
 C3157 C 0.64054 1.33280 0.35951
 C3158 C 0.63859 1.33049 0.38042
 C3159 C 0.61520 1.27964 0.38390
 C3160 C 0.60831 1.26434 0.39061
 C3161 C 0.60038 1.24628 0.39826
 C3162 C 0.59373 1.23073 0.40462
 C3163 C 0.58594 1.21201 0.41200
 C3164 C 0.58028 1.19701 0.39845
 C3165 C 0.57306 1.17866 0.40554
 C3166 C 0.57142 1.17507 0.42631
 C3167 C 0.57706 1.19028 0.43981
 C3168 C 0.58427 1.20863 0.43269
 H3169 H 0.62883 1.31149 0.40460
 H3170 H 0.62036 1.28820 0.34482
 H3171 H 0.63531 1.31874 0.33065
 H3172 H 0.64358 1.34221 0.39048
 H3173 H 0.58160 1.19944 0.38240
 H3174 H 0.56912 1.16716 0.39477
 H3175 H 0.57576 1.18803 0.45588
 H3176 H 0.58859 1.22015 0.44330
 C3177 C 0.64519 0.80011 0.87528
 C3178 C 0.62442 0.79821 0.87712
 C3179 C 0.61195 0.81383 0.87076
 C3180 C 0.62021 0.83124 0.86250
 C3181 C 0.64106 0.83321 0.86051
 C3182 C 0.65348 0.81749 0.86703
 C3183 C 0.61594 0.78010 0.88521
 C3184 C 0.60899 0.76479 0.89183
 C3185 C 0.60101 0.74672 0.89940
 C3186 C 0.59434 0.73115 0.90570
 C3187 C 0.58653 0.71241 0.91300
 C3188 C 0.58085 0.69748 0.89940
 C3189 C 0.57362 0.67911 0.90641
 C3190 C 0.57198 0.67542 0.92717
 C3191 C 0.57765 0.69057 0.94073
 C3192 C 0.58488 0.70894 0.93368
 H3193 H 0.65498 0.78809 0.88009
 H3194 H 0.59585 0.81252 0.87210
 H3195 H 0.61038 0.84320 0.85768
 H3196 H 0.66956 0.81859 0.86547
 H3197 H 0.58216 0.69997 0.88336
 H3198 H 0.56966 0.66765 0.89560
 H3199 H 0.57636 0.68825 0.95679
 H3200 H 0.58921 0.72041 0.94434
 C3201 C 0.85387 1.29973 1.12473
 C3202 C 0.87461 1.29751 1.12285
 C3203 C 0.88734 1.31290 1.12924
 C3204 C 0.87938 1.33040 1.13756
 C3205 C 0.85857 1.33270 1.13962
 C3206 C 0.84589 1.31721 1.13306
 C3207 C 0.88279 1.27928 1.11474
 C3208 C 0.88954 1.26388 1.10812
 C3209 C 0.89733 1.24572 1.10058
 C3210 C 0.90388 1.23009 1.09433
 C3211 C 0.91159 1.21129 1.08709
 C3212 C 0.91733 1.19643 1.10076
 C3213 C 0.92456 1.17804 1.09382
 C3214 C 0.92614 1.17426 1.07307
 C3215 C 0.92037 1.18932 1.05945
 C3216 C 0.91315 1.20772 1.06643
 H3217 H 0.84388 1.28788 1.11991
 H3218 H 0.90342 1.31133 1.12786
 H3219 H 0.88941 1.34218 1.14241
 H3220 H 0.82982 1.31856 1.13466
 H3221 H 0.91611 1.19900 1.11678
 H3222 H 0.92860 1.16664 1.10468
 H3223 H 0.92162 1.18693 1.04340
 H3224 H 0.90877 1.21913 1.05571
 C3225 C 0.88731 0.81273 0.62961
 C3226 C 0.87455 0.79734 0.62326
 C3227 C 0.85382 0.79959 0.62514
 C3228 C 0.84585 0.81710 0.63343
 C3229 C 0.85855 0.83260 0.63994
 C3230 C 0.87936 0.83027 0.63790
 C3231 C 0.88270 0.77912 0.61508
 C3232 C 0.88937 0.76374 0.60835
 C3233 C 0.89701 0.74559 0.60062
 C3234 C 0.90337 0.72998 0.59412
 C3235 C 0.91076 0.71120 0.58650
 C3236 C 0.89731 0.69614 0.58086
 C3237 C 0.90441 0.67777 0.57375
 C3238 C 0.92510 0.67419 0.57218
 C3239 C 0.93851 0.68945 0.57782
 C3240 C 0.93137 0.70783 0.58492
 H3241 H 0.90338 0.81115 0.62821
 H3242 H 0.84381 0.78775 0.62034
 H3243 H 0.82979 0.81847 0.63503
 H3244 H 0.88941 0.84205 0.64270
 H3245 H 0.88133 0.69856 0.58210
 H3246 H 0.89372 0.66622 0.56981
 H3247 H 0.95451 0.68722 0.57657
 H3248 H 0.94191 0.71939 0.58922
 C3249 C 0.38688 1.31272 0.62961
 C3250 C 0.37408 1.29736 0.62328
 C3251 C 0.35335 1.29965 0.62522
 C3252 C 0.34544 1.31717 0.63354
 C3253 C 0.35819 1.33264 0.64003
 C3254 C 0.37899 1.33026 0.63793
 C3255 C 0.38218 1.27911 0.61512
 C3256 C 0.38886 1.26370 0.60846
 C3257 C 0.39658 1.24553 0.60086
 C3258 C 0.40308 1.22989 0.59456
 C3259 C 0.41076 1.21109 0.58728
 C3260 C 0.41231 1.20755 0.56661
 C3261 C 0.41956 1.18917 0.55960
 C3262 C 0.42536 1.17410 0.57320
 C3263 C 0.42377 1.17784 0.59395
 C3264 C 0.41652 1.19621 0.60092
 H3265 H 0.40294 1.31111 0.62819
 H3266 H 0.34331 1.28783 0.62043
 H3267 H 0.32939 1.31857 0.63517
 H3268 H 0.38907 1.34202 0.64272
 H3269 H 0.40792 1.21898 0.55592
 H3270 H 0.42081 1.18681 0.54355
 H3271 H 0.42784 1.16644 0.60479
 H3272 H 0.41531 1.19876 0.61695
 C3273 C 0.37339 0.79947 1.14515
 C3274 C 0.37504 0.79731 1.12430
 C3275 C 0.36873 0.81282 1.11162
 C3276 C 0.36071 0.83039 1.11977
 C3277 C 0.35892 0.83264 1.14070
 C3278 C 0.36538 0.81702 1.15331
 C3279 C 0.38300 0.77907 1.11597
 C3280 C 0.38957 0.76367 1.10919
 C3281 C 0.39717 0.74549 1.10149
 C3282 C 0.40360 0.72985 1.09513
 C3283 C 0.41119 0.71104 1.08781
 C3284 C 0.41273 0.70753 1.06713
 C3285 C 0.41992 0.68914 1.06008
 C3286 C 0.42567 0.67403 1.07365
 C3287 C 0.42409 0.67773 1.09441
 C3288 C 0.41690 0.69611 1.10142
 H3289 H 0.37818 0.78755 1.15510
 H3290 H 0.36994 0.81131 1.09546
 H3291 H 0.35594 0.84227 1.10978
 H3292 H 0.36397 0.81833 1.16947
 H3293 H 0.40838 0.71900 1.05647
 H3294 H 0.42116 0.68681 1.04403
 H3295 H 0.42812 0.66629 1.10523
 H3296 H 0.41569 0.69863 1.11746
 C3297 C 0.88797 0.68676 0.86994
 C3298 C 0.87551 0.70235 0.87637
 C3299 C 0.85473 0.70043 0.87465
 C3300 C 0.84643 0.68304 0.86644
 C3301 C 0.85883 0.66735 0.85984
 C3302 C 0.87969 0.66935 0.86173
 C3303 C 0.88401 0.72047 0.88443
 C3304 C 0.89099 0.73577 0.89103
 C3305 C 0.89901 0.75383 0.89857
 C3306 C 0.90573 0.76938 0.90486
 C3307 C 0.91358 0.78809 0.91218
 C3308 C 0.91523 0.79152 0.93287
 C3309 C 0.92248 0.80987 0.93994
 C3310 C 0.92820 0.82503 0.92639
 C3311 C 0.92658 0.82138 0.90563
 C3312 C 0.91932 0.80304 0.89860
 H3313 H 0.90408 0.68809 0.87120
 H3314 H 0.84495 0.71243 0.87952
 H3315 H 0.83034 0.68192 0.86496
 H3316 H 0.88951 0.65741 0.85685
 H3317 H 0.91086 0.78005 0.94352
 H3318 H 0.92376 0.81216 0.95600
 H3319 H 0.93058 0.83285 0.89484
 H3320 H 0.91802 0.80057 0.88256
 C3321 C 0.88809 0.18612 0.37032
 C3322 C 0.87568 0.20176 0.37672
 C3323 C 0.85489 0.19994 0.37492
 C3324 C 0.84654 0.18260 0.36667
 C3325 C 0.85889 0.16685 0.36011
 C3326 C 0.87975 0.16875 0.36207
 C3327 C 0.88423 0.21984 0.38482
 C3328 C 0.89124 0.23511 0.39145
 C3329 C 0.89928 0.25315 0.39902
 C3330 C 0.90600 0.26868 0.40533
 C3331 C 0.91385 0.28739 0.41266
 C3332 C 0.91549 0.29082 0.43334
 C3333 C 0.92273 0.30918 0.44041
 C3334 C 0.92844 0.32433 0.42687
 C3335 C 0.92683 0.32068 0.40610
 C3336 C 0.91958 0.30233 0.39907
 H3337 H 0.90419 0.18737 0.37164
 H3338 H 0.84515 0.21199 0.37976
 H3339 H 0.83045 0.18156 0.36513
 H3340 H 0.88954 0.15676 0.35722
 H3341 H 0.91112 0.27935 0.44399
 H3342 H 0.92401 0.31147 0.45647
 H3343 H 0.93082 0.33215 0.39531
 H3344 H 0.91829 0.29987 0.38303
 C3345 C 0.35508 0.69993 0.37518
 C3346 C 0.37586 0.70178 0.37697
 C3347 C 0.38828 0.68612 0.37061
 C3348 C 0.37996 0.66873 0.36240
 C3349 C 0.35910 0.66680 0.36044
 C3350 C 0.34674 0.68256 0.36697
 C3351 C 0.38440 0.71987 0.38503
 C3352 C 0.39139 0.73517 0.39162
 C3353 C 0.39941 0.75323 0.39917
 C3354 C 0.40611 0.76878 0.40546
 C3355 C 0.41394 0.78750 0.41277
 C3356 C 0.41965 0.80244 0.39917
 C3357 C 0.42687 0.82081 0.40620
 C3358 C 0.42846 0.82448 0.42696
 C3359 C 0.42277 0.80933 0.44052
 C3360 C 0.41556 0.79096 0.43345
 H3361 H 0.34533 0.71198 0.37999
 H3362 H 0.40439 0.68739 0.37192
 H3363 H 0.38975 0.65674 0.35758
 H3364 H 0.33065 0.68150 0.36544
 H3365 H 0.41838 0.79996 0.38313
 H3366 H 0.43086 0.83227 0.39539
 H3367 H 0.42402 0.81164 0.45657
 H3368 H 0.41119 0.77948 0.44411
 C3369 C 0.37014 0.18708 0.88854
 C3370 C 0.37664 0.20241 0.87574
 C3371 C 0.37477 0.20020 0.85491
 C3372 C 0.36635 0.18278 0.84689
 C3373 C 0.35971 0.16734 0.85963
 C3374 C 0.36173 0.16963 0.88054
 C3375 C 0.38497 0.22054 0.88393
 C3376 C 0.39183 0.23586 0.89060
 C3377 C 0.39973 0.25395 0.89821
 C3378 C 0.40634 0.26952 0.90453
 C3379 C 0.41409 0.28826 0.91187
 C3380 C 0.41978 0.30323 0.89829
 C3381 C 0.42696 0.32160 0.90533
 C3382 C 0.42853 0.32526 0.92610
 C3383 C 0.42286 0.31008 0.93964
 C3384 C 0.41569 0.29170 0.93255
 H3385 H 0.37152 0.18864 0.90468
 H3386 H 0.37969 0.21200 0.84487
 H3387 H 0.36478 0.18143 0.83076
 H3388 H 0.35681 0.15788 0.89061
 H3389 H 0.41852 0.30076 0.88225
 H3390 H 0.43093 0.33308 0.89454
 H3391 H 0.42411 0.31237 0.95570
 H3392 H 0.41135 0.28020 0.94320
 C3393 C 1.14599 0.70010 1.12466
 C3394 C 1.12526 0.70235 1.12275
 C3395 C 1.11249 0.68696 1.12907
 C3396 C 1.12041 0.66942 1.13738
 C3397 C 1.14122 0.66710 1.13948
 C3398 C 1.15393 0.68259 1.13298
 C3399 C 1.11711 0.72061 1.11465
 C3400 C 1.11039 0.73603 1.10805
 C3401 C 1.10264 0.75422 1.10053
 C3402 C 1.09611 0.76987 1.09429
 C3403 C 1.08843 0.78869 1.08708
 C3404 C 1.08274 0.80355 1.10076
 C3405 C 1.07553 0.82196 1.09383
 C3406 C 1.07393 0.82576 1.07310
 C3407 C 1.07964 0.81070 1.05945
 C3408 C 1.08684 0.79228 1.06642
 H3409 H 1.15601 0.71195 1.11988
 H3410 H 1.09642 0.68855 1.12766
 H3411 H 1.11035 0.65764 1.14219
 H3412 H 1.16999 0.68121 1.13461
 H3413 H 1.08399 0.80096 1.11678
 H3414 H 1.07153 0.83335 1.10470
 H3415 H 1.07837 0.81310 1.04341
 H3416 H 1.09119 0.78087 1.05569
 C3417 C 1.13074 0.18690 0.61118
 C3418 C 1.12452 0.20237 0.62394
 C3419 C 1.12631 0.20014 0.64478
 C3420 C 1.13437 0.18257 0.65283
 C3421 C 1.14074 0.16699 0.64013
 C3422 C 1.13881 0.16931 0.61922
 C3423 C 1.11655 0.22065 0.61571
 C3424 C 1.10997 0.23608 0.60900
 C3425 C 1.10237 0.25429 0.60138
 C3426 C 1.09597 0.26996 0.59508
 C3427 C 1.08841 0.28881 0.58780
 C3428 C 1.08272 0.30371 0.60145
 C3429 C 1.07559 0.32213 0.59448
 C3430 C 1.07404 0.32590 0.57373
 C3431 C 1.07976 0.31080 0.56012
 C3432 C 1.08689 0.29238 0.56713
 H3433 H 1.12943 0.18847 0.59503
 H3434 H 1.12160 0.21204 0.65479
 H3435 H 1.13589 0.18120 0.66897
 H3436 H 1.14352 0.15746 0.60916
 H3437 H 1.08392 0.30114 0.61748
 H3438 H 1.07158 0.33355 0.60532
 H3439 H 1.07853 0.31319 0.54407
 H3440 H 1.09123 0.28093 0.55644
 C3441 C 0.64617 0.70004 0.62473
 C3442 C 0.62543 0.70236 0.62295
 C3443 C 0.61265 0.68701 0.62937
 C3444 C 0.62058 0.66945 0.63763
 C3445 C 0.64138 0.66706 0.63959
 C3446 C 0.65411 0.68251 0.63300
 C3447 C 0.61729 0.72064 0.61489
 C3448 C 0.61060 0.73607 0.60831
 C3449 C 0.60288 0.75428 0.60081
 C3450 C 0.59638 0.76995 0.59459
 C3451 C 0.58873 0.78879 0.58739
 C3452 C 0.58301 0.80363 0.60108
 C3453 C 0.57582 0.82205 0.59418
 C3454 C 0.57427 0.82588 0.57344
 C3455 C 0.58002 0.81085 0.55978
 C3456 C 0.58720 0.79242 0.56673
 H3457 H 0.65619 0.71186 0.61988
 H3458 H 0.59658 0.68865 0.62807
 H3459 H 0.61051 0.65770 0.64251
 H3460 H 0.67017 0.68108 0.63453
 H3461 H 0.58422 0.80100 0.61710
 H3462 H 0.57180 0.83342 0.60505
 H3463 H 0.57879 0.81328 0.54374
 H3464 H 0.59156 0.78102 0.55600
 C3465 C 0.64596 0.20040 1.12529
 C3466 C 0.62521 0.20256 1.12349
 C3467 C 0.61255 0.18709 1.12984
 C3468 C 0.62060 0.16957 1.13807
 C3469 C 0.64142 0.16733 1.14004
 C3470 C 0.65403 0.18290 1.13351
 C3471 C 0.61695 0.22077 1.11540
 C3472 C 0.61020 0.23616 1.10875
 C3473 C 0.60248 0.25431 1.10110
 C3474 C 0.59608 0.26993 1.09466
 C3475 C 0.58867 0.28873 1.08709
 C3476 C 0.56806 0.29207 1.08549
 C3477 C 0.56091 0.31046 1.07839
 C3478 C 0.57431 0.32573 1.07278
 C3479 C 0.59500 0.32219 1.07440
 C3480 C 0.60211 0.30381 1.08151
 H3481 H 0.65590 0.21230 1.12048
 H3482 H 0.59646 0.18860 1.12851
 H3483 H 0.61062 0.15773 1.14289
 H3484 H 0.67010 0.18160 1.13506
 H3485 H 0.55752 0.28048 1.08974
 H3486 H 0.54491 0.31267 1.07710
 H3487 H 0.60569 0.33375 1.07049
 H3488 H 0.61809 0.30141 1.08277
 C3489 C 1.31290 1.11253 0.87070
 C3490 C 1.29756 1.12533 0.87705
 C3491 C 1.29985 1.14610 0.87518
 C3492 C 1.31735 1.15405 0.86687
 C3493 C 1.33278 1.14130 0.86034
 C3494 C 1.33041 1.12045 0.86239
 C3495 C 1.27933 1.11719 0.88517
 C3496 C 1.26393 1.11049 0.89179
 C3497 C 1.24577 1.10276 0.89933
 C3498 C 1.23013 1.09626 0.90558
 C3499 C 1.21133 1.08860 0.91281
 C3500 C 1.19648 1.08292 0.89915
 C3501 C 1.17809 1.07572 0.90608
 C3502 C 1.17431 1.07412 0.92682
 C3503 C 1.18936 1.07983 0.94045
 C3504 C 1.20776 1.08702 0.93348
 H3505 H 1.31128 1.09643 0.87207
 H3506 H 1.28805 1.15615 0.87998
 H3507 H 1.31875 1.17013 0.86527
 H3508 H 1.34215 1.11036 0.85757
 H3509 H 1.19906 1.08416 0.88312
 H3510 H 1.16671 1.07173 0.89522
 H3511 H 1.18697 1.07856 0.95650
 H3512 H 1.21916 1.09135 0.94419
 C3513 C 1.29934 0.62608 0.35549
 C3514 C 1.29719 0.62434 0.37634
 C3515 C 1.31271 0.63053 0.38903
 C3516 C 1.33028 0.63851 0.38090
 C3517 C 1.33252 0.64041 0.35998
 C3518 C 1.31689 0.63407 0.34735
 C3519 C 1.27895 0.61643 0.38465
 C3520 C 1.26354 0.60990 0.39141
 C3521 C 1.24535 0.60236 0.39908
 C3522 C 1.22970 0.59598 0.40540
 C3523 C 1.21086 0.58845 0.41267
 C3524 C 1.20726 0.58700 0.43334
 C3525 C 1.18885 0.57988 0.44034
 C3526 C 1.17382 0.57408 0.42672
 C3527 C 1.17762 0.57556 0.40597
 C3528 C 1.19602 0.58270 0.39902
 H3529 H 1.28741 0.62140 0.34554
 H3530 H 1.31121 0.62924 0.40519
 H3531 H 1.34217 0.64320 0.39090
 H3532 H 1.31820 0.63556 0.33120
 H3533 H 1.21866 0.59139 0.44404
 H3534 H 1.18644 0.57870 0.45638
 H3535 H 1.16626 0.57150 0.39512
 H3536 H 1.19862 0.58383 0.38299
 C3537 C 0.79912 1.12616 0.35519
 C3538 C 0.79700 1.12441 0.37604
 C3539 C 0.81256 1.13056 0.38870
 C3540 C 0.83012 1.13853 0.38055
 C3541 C 0.83232 1.14045 0.35962
 C3542 C 0.81666 1.13413 0.34701
 C3543 C 0.77876 1.11655 0.38439
 C3544 C 0.76334 1.11007 0.39119
 C3545 C 0.74515 1.10259 0.39892
 C3546 C 0.72950 1.09626 0.40529
 C3547 C 0.71067 1.08877 0.41262
 C3548 C 0.70712 1.08731 0.43330
 C3549 C 0.68873 1.08019 0.44034
 C3550 C 0.67365 1.07442 0.42677
 C3551 C 0.67739 1.07594 0.40601
 C3552 C 0.69577 1.08307 0.39901
 H3553 H 0.78716 1.12150 0.34525
 H3554 H 0.81108 1.12927 0.40486
 H3555 H 0.84203 1.14320 0.39053
 H3556 H 0.81794 1.13564 0.33087
 H3557 H 0.71857 1.09166 0.44397
 H3558 H 0.68637 1.07899 0.45640
 H3559 H 0.66598 1.07191 0.39519
 H3560 H 0.69832 1.08422 0.38297
 C3561 C 0.81269 0.63078 0.88848
 C3562 C 0.79718 0.62451 0.87582
 C3563 C 0.79926 0.62630 0.85497
 C3564 C 0.81674 0.63441 0.84680
 C3565 C 0.83236 0.64083 0.85939
 C3566 C 0.83019 0.63889 0.88032
 C3567 C 0.77900 0.61651 0.88419
 C3568 C 0.76364 0.60995 0.89105
 C3569 C 0.74553 0.60243 0.89891
 C3570 C 0.72994 0.59615 0.90548
 C3571 C 0.71118 0.58883 0.91317
 C3572 C 0.69624 0.60237 0.91887
 C3573 C 0.67787 0.59534 0.92600
 C3574 C 0.67419 0.57463 0.92752
 C3575 C 0.68934 0.56113 0.92184
 C3576 C 0.70771 0.56820 0.91471
 H3577 H 0.81124 0.62946 0.90464
 H3578 H 0.78732 0.62156 0.84504
 H3579 H 0.81799 0.63593 0.83065
 H3580 H 0.84208 0.64363 0.89029
 H3581 H 0.69873 0.61837 0.91765
 H3582 H 0.66641 0.60610 0.92998
 H3583 H 0.68703 0.54511 0.92305
 H3584 H 0.71919 0.55759 0.91037
 C3585 C 1.31315 0.88845 1.13025
 C3586 C 1.29750 0.87600 1.12398
 C3587 C 1.29937 0.85518 1.12574
 C3588 C 1.31676 0.84683 1.13384
 C3589 C 1.33252 0.85923 1.14029
 C3590 C 1.33057 0.88012 1.13835
 C3591 C 1.27939 0.88453 1.11602
 C3592 C 1.26407 0.89148 1.10946
 C3593 C 1.24599 0.89935 1.10190
 C3594 C 1.23040 0.90584 1.09552
 C3595 C 1.21164 0.91326 1.08797
 C3596 C 1.19666 0.89977 1.08226
 C3597 C 1.17834 0.90686 1.07509
 C3598 C 1.17474 0.92758 1.07352
 C3599 C 1.18989 0.94104 1.07929
 C3600 C 1.20823 0.93391 1.08646
 H3601 H 1.31186 0.90459 1.12895
 H3602 H 1.28732 0.84540 1.12099
 H3603 H 1.31784 0.83071 1.13537
 H3604 H 1.34256 0.88994 1.14312
 H3605 H 1.19911 0.88376 1.08345
 H3606 H 1.16687 0.89613 1.07106
 H3607 H 1.18763 0.95706 1.07806
 H3608 H 1.21974 0.94448 1.09082
 C3609 C 1.29943 0.37476 0.64543
 C3610 C 1.29720 0.37659 0.62460
 C3611 C 1.31249 0.37004 0.61180
 C3612 C 1.32990 0.36161 0.61981
 C3613 C 1.33221 0.35963 0.64072
 C3614 C 1.31682 0.36633 0.65345
 C3615 C 1.27910 0.38494 0.61640
 C3616 C 1.26382 0.39181 0.60970
 C3617 C 1.24578 0.39972 0.60205
 C3618 C 1.23025 0.40634 0.59568
 C3619 C 1.21156 0.41410 0.58828
 C3620 C 1.20817 0.41567 0.56759
 C3621 C 1.18984 0.42284 0.56044
 C3622 C 1.17467 0.42856 0.57394
 C3623 C 1.17827 0.42702 0.59471
 C3624 C 1.19659 0.41983 0.60182
 H3625 H 1.28766 0.37972 0.65547
 H3626 H 1.31092 0.37139 0.59566
 H3627 H 1.34161 0.35666 0.60973
 H3628 H 1.31818 0.36478 0.66959
 H3629 H 1.21966 0.41130 0.55698
 H3630 H 1.18759 0.42407 0.54438
 H3631 H 1.16679 0.43102 0.60547
 H3632 H 1.19902 0.41860 0.61787
 C3633 C 0.81281 0.86992 0.61164
 C3634 C 0.79750 0.87646 0.62441
 C3635 C 0.79970 0.87463 0.64525
 C3636 C 0.81709 0.86622 0.65329
 C3637 C 0.83251 0.85954 0.64058
 C3638 C 0.83023 0.86151 0.61967
 C3639 C 0.77941 0.88480 0.61619
 C3640 C 0.76413 0.89167 0.60948
 C3641 C 0.74609 0.89958 0.60183
 C3642 C 0.73055 0.90621 0.59548
 C3643 C 0.71186 0.91399 0.58812
 C3644 C 0.69690 0.91968 0.60168
 C3645 C 0.67857 0.92688 0.59461
 C3646 C 0.67496 0.92849 0.57384
 C3647 C 0.69012 0.92282 0.56032
 C3648 C 0.70845 0.91562 0.56743
 H3649 H 0.81127 0.87127 0.59549
 H3650 H 0.78792 0.87958 0.65527
 H3651 H 0.81843 0.86468 0.66943
 H3652 H 0.84196 0.85657 0.60961
 H3653 H 0.69934 0.91840 0.61772
 H3654 H 0.66710 0.93085 0.60538
 H3655 H 0.68786 0.92409 0.54426
 H3656 H 0.71994 0.91128 0.55680
 C3657 C 0.79968 0.37462 1.14504
 C3658 C 0.79750 0.37650 1.12420
 C3659 C 0.81284 0.37005 1.11143
 C3660 C 0.83027 0.36167 1.11946
 C3661 C 0.83253 0.35963 1.14036
 C3662 C 0.81708 0.36623 1.15308
 C3663 C 0.77937 0.38477 1.11598
 C3664 C 0.76406 0.39156 1.10926
 C3665 C 0.74599 0.39938 1.10160
 C3666 C 0.73043 0.40594 1.09524
 C3667 C 0.71170 0.41363 1.08787
 C3668 C 0.70831 0.41532 1.06719
 C3669 C 0.68997 0.42248 1.06008
 C3670 C 0.67477 0.42806 1.07361
 C3671 C 0.67836 0.42638 1.09437
 C3672 C 0.69670 0.41921 1.10144
 H3673 H 0.78787 0.37950 1.15506
 H3674 H 0.81131 0.37144 1.09528
 H3675 H 0.84202 0.35678 1.10939
 H3676 H 0.81840 0.36464 1.16921
 H3677 H 0.71983 0.41107 1.05656
 H3678 H 0.68772 0.42382 1.04402
 H3679 H 0.66687 0.43027 1.10515
 H3680 H 0.69914 0.41788 1.11748
 C3681 C 0.68723 1.13027 1.11154
 C3682 C 0.70261 1.12377 1.12425
 C3683 C 0.70046 1.12553 1.14510
 C3684 C 0.68306 1.13385 1.15322
 C3685 C 0.66757 1.14050 1.14057
 C3686 C 0.66980 1.13858 1.11965
 C3687 C 0.72072 1.11554 1.11595
 C3688 C 0.73601 1.10875 1.10918
 C3689 C 0.75407 1.10094 1.10148
 C3690 C 0.76962 1.09436 1.09509
 C3691 C 0.78833 1.08664 1.08771
 C3692 C 0.80329 1.08094 1.10126
 C3693 C 0.82161 1.07374 1.09418
 C3694 C 0.82523 1.07214 1.07341
 C3695 C 0.81007 1.07784 1.05989
 C3696 C 0.79174 1.08504 1.06702
 H3697 H 0.68873 1.12897 1.09539
 H3698 H 0.71230 1.12061 1.15507
 H3699 H 0.68176 1.13534 1.16937
 H3700 H 0.65802 1.14350 1.10964
 H3701 H 0.80085 1.08220 1.11730
 H3702 H 0.83308 1.06975 1.10495
 H3703 H 0.81233 1.07658 1.04383
 H3704 H 0.78025 1.08938 1.05639
 C3705 C 0.68685 0.62963 0.61110
 C3706 C 0.70224 0.62313 0.62378
 C3707 C 0.70016 0.62496 0.64463
 C3708 C 0.68281 0.63336 0.65278
 C3709 C 0.66731 0.64003 0.64015
 C3710 C 0.66948 0.63803 0.61923
 C3711 C 0.72032 0.61487 0.61546
 C3712 C 0.73560 0.60808 0.60867
 C3713 C 0.75365 0.60028 0.60095
 C3714 C 0.76921 0.59374 0.59455
 C3715 C 0.78794 0.58605 0.58718
 C3716 C 0.80293 0.58048 0.60075
 C3717 C 0.82127 0.57332 0.59368
 C3718 C 0.82487 0.57164 0.57292
 C3719 C 0.80968 0.57722 0.55939
 C3720 C 0.79133 0.58438 0.56650
 H3721 H 0.68831 0.62828 0.59494
 H3722 H 0.71201 0.62003 0.65458
 H3723 H 0.68156 0.63492 0.66892
 H3724 H 0.65769 0.64297 0.60923
 H3725 H 0.80049 0.58180 0.61679
 H3726 H 0.83277 0.56942 0.60446
 H3727 H 0.81194 0.57590 0.54333
 H3728 H 0.77981 0.58863 0.55586
 C3729 C 0.20023 1.14464 0.62472
 C3730 C 0.20213 1.12383 0.62287
 C3731 C 0.18654 1.11132 0.62919
 C3732 C 0.16916 1.11958 0.63744
 C3733 C 0.16718 1.14046 0.63947
 C3734 C 0.18287 1.15291 0.63296
 C3735 C 0.22023 1.11535 0.61483
 C3736 C 0.23553 1.10838 0.60826
 C3737 C 0.25359 1.10039 0.60077
 C3738 C 0.26915 1.09371 0.59454
 C3739 C 0.28788 1.08590 0.58730
 C3740 C 0.30278 1.08028 0.60095
 C3741 C 0.32115 1.07309 0.59399
 C3742 C 0.32488 1.07144 0.57324
 C3743 C 0.30976 1.07704 0.55963
 C3744 C 0.29138 1.08422 0.56663
 H3745 H 0.21224 1.15445 0.61993
 H3746 H 0.18785 1.09519 0.62784
 H3747 H 0.15722 1.10971 0.64225
 H3748 H 0.18177 1.16902 0.63455
 H3749 H 0.30026 1.08161 0.61698
 H3750 H 0.33258 1.06918 0.60483
 H3751 H 0.31211 1.07573 0.54358
 H3752 H 0.27994 1.08851 0.55594
 C3753 C 0.20004 0.62508 1.14496
 C3754 C 0.20227 0.62325 1.12413
 C3755 C 0.18697 0.62975 1.11133
 C3756 C 0.16953 0.63814 1.11934
 C3757 C 0.16722 0.64013 1.14024
 C3758 C 0.18263 0.63347 1.15298
 C3759 C 0.22041 0.61498 1.11592
 C3760 C 0.23572 0.60818 1.10922
 C3761 C 0.25380 0.60036 1.10157
 C3762 C 0.26937 0.59380 1.09522
 C3763 C 0.28810 0.58611 1.08785
 C3764 C 0.29153 0.58453 1.06717
 C3765 C 0.30989 0.57739 1.06006
 C3766 C 0.32505 0.57171 1.07358
 C3767 C 0.32141 0.57328 1.09435
 C3768 C 0.30306 0.58044 1.10142
 H3769 H 0.21182 0.62015 1.15500
 H3770 H 0.18854 0.62841 1.09518
 H3771 H 0.15781 0.64307 1.10925
 H3772 H 0.18126 0.63502 1.16911
 H3773 H 0.28005 0.58886 1.05653
 H3774 H 0.31217 0.57614 1.04400
 H3775 H 0.33288 0.56932 1.10513
 H3776 H 0.30059 0.58168 1.11746
 C3777 C 0.68739 0.86961 0.88898
 C3778 C 0.70288 0.87583 0.87627
 C3779 C 0.70071 0.87407 0.85542
 C3780 C 0.68318 0.86604 0.84731
 C3781 C 0.66757 0.85968 0.85997
 C3782 C 0.66983 0.86159 0.88089
 C3783 C 0.72112 0.88376 0.88455
 C3784 C 0.73653 0.89030 0.89129
 C3785 C 0.75471 0.89786 0.89894
 C3786 C 0.77037 0.90424 0.90526
 C3787 C 0.78919 0.91177 0.91253
 C3788 C 0.80409 0.91743 0.89889
 C3789 C 0.82248 0.92456 0.90585
 C3790 C 0.82623 0.92612 0.92660
 C3791 C 0.81115 0.92042 0.94021
 C3792 C 0.79275 0.91330 0.93320
 H3793 H 0.68891 0.87091 0.90514
 H3794 H 0.71264 0.87877 0.84544
 H3795 H 0.68186 0.86454 0.83117
 H3796 H 0.65796 0.85688 0.89091
 H3797 H 0.80152 0.91623 0.88286
 H3798 H 0.83389 0.92854 0.89501
 H3799 H 0.81352 0.92166 0.95626
 H3800 H 0.78131 0.90899 0.94390
 C3801 C 0.70049 0.35397 0.37484
 C3802 C 0.70280 0.37474 0.37670
 C3803 C 0.68745 0.38756 0.37040
 C3804 C 0.66990 0.37964 0.36217
 C3805 C 0.66751 0.35880 0.36014
 C3806 C 0.68296 0.34604 0.36661
 C3807 C 0.72105 0.38285 0.38477
 C3808 C 0.73647 0.38950 0.39140
 C3809 C 0.75465 0.39711 0.39901
 C3810 C 0.77029 0.40344 0.40540
 C3811 C 0.78910 0.41078 0.41291
 C3812 C 0.79257 0.43142 0.41439
 C3813 C 0.81097 0.43851 0.42141
 C3814 C 0.82614 0.42502 0.42707
 C3815 C 0.82248 0.40431 0.42558
 C3816 C 0.80408 0.39726 0.41855
 H3817 H 0.71230 0.34391 0.37961
 H3818 H 0.68908 0.40365 0.37177
 H3819 H 0.65815 0.38974 0.35739
 H3820 H 0.68154 0.32995 0.36502
 H3821 H 0.78106 0.44202 0.41008
 H3822 H 0.81327 0.45453 0.42260
 H3823 H 0.83396 0.39356 0.42954
 H3824 H 0.80159 0.38125 0.41739
 C3825 C 0.20055 0.85399 0.37471
 C3826 C 0.20283 0.87476 0.37655
 C3827 C 0.18746 0.88755 0.37023
 C3828 C 0.16993 0.87961 0.36200
 C3829 C 0.16756 0.85876 0.36000
 C3830 C 0.18303 0.84603 0.36648
 C3831 C 0.22106 0.88291 0.38465
 C3832 C 0.23645 0.88958 0.39131
 C3833 C 0.25461 0.89721 0.39896
 C3834 C 0.27023 0.90355 0.40540
 C3835 C 0.28902 0.91091 0.41297
 C3836 C 0.29245 0.93155 0.41451
 C3837 C 0.31083 0.93865 0.42159
 C3838 C 0.32602 0.92518 0.42723
 C3839 C 0.32239 0.90446 0.42568
 C3840 C 0.30402 0.89740 0.41859
 H3841 H 0.21237 0.84396 0.37950
 H3842 H 0.18907 0.90365 0.37159
 H3843 H 0.15817 0.88969 0.35721
 H3844 H 0.18163 0.82994 0.36491
 H3845 H 0.28093 0.94214 0.41021
 H3846 H 0.31310 0.95467 0.42282
 H3847 H 0.33388 0.89372 0.42963
 H3848 H 0.30155 0.88139 0.41738
 C3849 C 0.18734 0.38825 0.87020
 C3850 C 0.20278 0.37553 0.87647
 C3851 C 0.20057 0.35474 0.87469
 C3852 C 0.18304 0.34670 0.86657
 C3853 C 0.16749 0.35936 0.86013
 C3854 C 0.16978 0.38022 0.86209
 C3855 C 0.22103 0.38376 0.88443
 C3856 C 0.23645 0.39049 0.89097
 C3857 C 0.25464 0.39816 0.89850
 C3858 C 0.27029 0.40453 0.90484
 C3859 C 0.28911 0.41188 0.91231
 C3860 C 0.30411 0.39835 0.91789
 C3861 C 0.32251 0.40539 0.92494
 C3862 C 0.32615 0.42611 0.92651
 C3863 C 0.31097 0.43960 0.92089
 C3864 C 0.29256 0.43251 0.91385
 H3865 H 0.18889 0.40436 0.87151
 H3866 H 0.21245 0.34477 0.87943
 H3867 H 0.18169 0.33060 0.86504
 H3868 H 0.15796 0.39024 0.85733
 H3869 H 0.30163 0.38235 0.91668
 H3870 H 0.33399 0.39464 0.92886
 H3871 H 0.31326 0.45562 0.92214
 H3872 H 0.28104 0.44312 0.90960
   
