data_POSCAR
  _audit_creation_date              2014-09-24
  _audit_creation_method            'ToBaCCo'
  _symmetry_space_group_name_H-M    'P1'
  _symmetry_Int_Tables_number       1
  _symmetry_cell_setting            triclinic
  loop_
  _symmetry_equiv_pos_as_xyz
 x,y,z
_cell_length_a 88.9841
_cell_length_b 89.1112
_cell_length_c 89.1287
_cell_angle_alpha 89.981000
_cell_angle_beta 89.977000
_cell_angle_gamma 89.948300
loop_
  _atom_site_label
  _atom_site_type_symbol
  _atom_site_fract_x
  _atom_site_fract_y
  _atom_site_fract_z
N1 N 0.35976 0.31845 0.32856
 N2 N 0.35951 0.32896 0.31819
 C3 C 0.37126 0.32694 0.30884
 C4 C 0.37916 0.31455 0.31369
 C5 C 0.37164 0.30940 0.32618
 H6 H 0.37394 0.33396 0.29931
 H7 H 0.37464 0.29985 0.33305
 Cu8 Cu 0.34398 0.34433 0.31824
 Cu9 Cu 0.34481 0.31738 0.34453
 Cu10 Cu 0.31712 0.34486 0.34468
 N11 N 0.32841 0.35966 0.31829
 N12 N 0.31796 0.35984 0.32875
 C13 C 0.30873 0.37158 0.32637
 C14 C 0.31369 0.37906 0.31378
 C15 C 0.32616 0.37130 0.30889
 H16 H 0.29917 0.37449 0.33328
 H17 H 0.33307 0.37399 0.29928
 N18 N 0.31818 0.32873 0.35978
 N19 N 0.32870 0.31825 0.35971
 C20 C 0.32639 0.30891 0.37139
 C21 C 0.31388 0.31382 0.37907
 C22 C 0.30892 0.32635 0.37151
 H23 H 0.33327 0.29930 0.37415
 H24 H 0.29930 0.33319 0.37438
 H25 H 0.32773 0.32792 0.33294
 H26 H 0.33987 0.34004 0.34496
 N27 N 0.36012 0.81834 -0.17144
 N28 N 0.35982 0.82860 -0.18205
 C29 C 0.37119 0.82602 -0.19172
 C30 C 0.37891 0.81352 -0.18680
 C31 C 0.37168 0.80889 -0.17395
 H32 H 0.37384 0.83283 -0.20142
 H33 H 0.37475 0.79957 -0.16680
 Cu34 Cu 0.34494 0.84470 -0.18186
 Cu35 Cu 0.34613 0.81863 -0.15467
 Cu36 Cu 0.31741 0.84484 -0.15581
 N37 N 0.32923 0.85996 -0.18179
 N38 N 0.31850 0.85990 -0.17162
 C39 C 0.30916 0.87154 -0.17415
 C40 C 0.31435 0.87919 -0.18654
 C41 C 0.32706 0.87164 -0.19117
 H42 H 0.29937 0.87424 -0.16747
 H43 H 0.33414 0.87444 -0.20063
 N44 N 0.31840 0.82870 -0.14069
 N45 N 0.32935 0.81868 -0.14027
 C46 C 0.32696 0.80927 -0.12867
 C47 C 0.31397 0.81366 -0.12150
 C48 C 0.30879 0.82596 -0.12931
 H49 H 0.33416 0.79999 -0.12558
 H50 H 0.29885 0.83248 -0.12679
 H51 H 0.32897 0.82813 -0.16713
 H52 H 0.34001 0.84124 -0.15509
 N53 N 0.85972 0.31894 -0.17125
 N54 N 0.85969 0.32955 -0.18152
 C55 C 0.87135 0.32732 -0.19093
 C56 C 0.87896 0.31470 -0.18623
 C57 C 0.87137 0.30962 -0.17375
 H58 H 0.87411 0.33431 -0.20047
 H59 H 0.87413 0.29991 -0.16701
 Cu60 Cu 0.84426 0.34503 -0.18153
 Cu61 Cu 0.84468 0.31798 -0.15537
 Cu62 Cu 0.81714 0.34561 -0.15537
 N63 N 0.82884 0.36052 -0.18154
 N64 N 0.81819 0.36061 -0.17127
 C65 C 0.80893 0.37230 -0.17378
 C66 C 0.81409 0.37984 -0.18625
 C67 C 0.82670 0.37217 -0.19096
 H68 H 0.79920 0.37510 -0.16705
 H69 H 0.83373 0.37489 -0.20049
 N70 N 0.81803 0.32947 -0.14023
 N71 N 0.82852 0.31896 -0.14025
 C72 C 0.82624 0.30973 -0.12849
 C73 C 0.81379 0.31471 -0.12080
 C74 C 0.80880 0.32719 -0.12844
 H75 H 0.83315 0.30016 -0.12564
 H76 H 0.79925 0.33412 -0.12555
 H77 H 0.82775 0.32866 -0.16711
 H78 H 0.83980 0.34065 -0.15490
 N79 N 0.85946 0.81845 0.32861
 N80 N 0.85937 0.82899 0.31826
 C81 C 0.87102 0.82675 0.30884
 C82 C 0.87870 0.81419 0.31362
 C83 C 0.87115 0.80917 0.32615
 H84 H 0.87375 0.83370 0.29928
 H85 H 0.87397 0.79953 0.33297
 Cu86 Cu 0.84394 0.84449 0.31825
 Cu87 Cu 0.84449 0.81758 0.34455
 Cu88 Cu 0.81696 0.84522 0.34453
 N89 N 0.82851 0.85997 0.31821
 N90 N 0.81795 0.86015 0.32855
 C91 C 0.80871 0.87187 0.32606
 C92 C 0.81380 0.87933 0.31352
 C93 C 0.82634 0.87160 0.30875
 H94 H 0.79906 0.87475 0.33287
 H95 H 0.83333 0.87426 0.29918
 N96 N 0.81790 0.82914 0.35973
 N97 N 0.82838 0.81862 0.35971
 C98 C 0.82606 0.80938 0.37146
 C99 C 0.81360 0.81437 0.37913
 C100 C 0.80865 0.82687 0.37149
 H101 H 0.83294 0.79978 0.37429
 H102 H 0.79907 0.83378 0.37435
 H103 H 0.82749 0.82817 0.33281
 H104 H 0.83960 0.84021 0.34490
 N105 N 0.64025 0.68190 0.32876
 N106 N 0.64045 0.67143 0.31835
 C107 C 0.62882 0.67365 0.30892
 C108 C 0.62104 0.68613 0.31374
 C109 C 0.62851 0.69113 0.32631
 H110 H 0.62615 0.66673 0.29932
 H111 H 0.62559 0.70070 0.33318
 Cu112 Cu 0.65583 0.65591 0.31828
 Cu113 Cu 0.65513 0.68272 0.34476
 Cu114 Cu 0.68268 0.65515 0.34478
 N115 N 0.67131 0.64049 0.31839
 N116 N 0.68180 0.64028 0.32879
 C117 C 0.69101 0.62853 0.32636
 C118 C 0.68597 0.62107 0.31381
 C119 C 0.67349 0.62886 0.30898
 H120 H 0.70060 0.62561 0.33321
 H121 H 0.66656 0.62620 0.29938
 N122 N 0.68165 0.67116 0.36000
 N123 N 0.67114 0.68164 0.35999
 C124 C 0.67337 0.69083 0.37179
 C125 C 0.68582 0.68584 0.37948
 C126 C 0.69084 0.67340 0.37180
 H127 H 0.66648 0.70042 0.37462
 H128 H 0.70045 0.66652 0.37463
 H129 H 0.67216 0.67217 0.33304
 H130 H 0.65997 0.66003 0.34501
 N131 N 0.64024 0.18136 -0.17138
 N132 N 0.64047 0.17094 -0.18184
 C133 C 0.62883 0.17316 -0.19126
 C134 C 0.62101 0.18559 -0.18638
 C135 C 0.62847 0.19055 -0.17378
 H136 H 0.62617 0.16626 -0.20087
 H137 H 0.62550 0.20008 -0.16686
 Cu138 Cu 0.65589 0.15544 -0.18186
 Cu139 Cu 0.65506 0.18212 -0.15531
 Cu140 Cu 0.68270 0.15461 -0.15534
 N141 N 0.67145 0.14008 -0.18189
 N142 N 0.68192 0.13985 -0.17147
 C143 C 0.69116 0.12812 -0.17392
 C144 C 0.68614 0.12071 -0.18652
 C145 C 0.67366 0.12849 -0.19136
 H146 H 0.70072 0.12517 -0.16703
 H147 H 0.66672 0.12584 -0.20096
 N148 N 0.68155 0.17054 -0.14000
 N149 N 0.67101 0.18100 -0.14001
 C150 C 0.67317 0.19015 -0.12817
 C151 C 0.68559 0.18517 -0.12043
 C152 C 0.69069 0.17277 -0.12815
 H153 H 0.66625 0.19972 -0.12536
 H154 H 0.70032 0.16592 -0.12531
 H155 H 0.67217 0.17161 -0.16698
 H156 H 0.66000 0.15940 -0.15509
 N157 N 0.14021 0.68175 -0.17117
 N158 N 0.14019 0.67107 -0.18137
 C159 C 0.12853 0.67327 -0.19077
 C160 C 0.12097 0.68596 -0.18615
 C161 C 0.12858 0.69109 -0.17372
 H162 H 0.12575 0.66624 -0.20026
 H163 H 0.12589 0.70088 -0.16707
 Cu164 Cu 0.15559 0.65557 -0.18138
 Cu165 Cu 0.15531 0.68279 -0.15537
 Cu166 Cu 0.18281 0.65514 -0.15533
 N167 N 0.17097 0.64005 -0.18129
 N168 N 0.18166 0.64002 -0.17108
 C169 C 0.19090 0.62831 -0.17357
 C170 C 0.18568 0.62068 -0.18594
 C171 C 0.17305 0.62834 -0.19062
 H172 H 0.20068 0.62557 -0.16691
 H173 H 0.16600 0.62557 -0.20010
 N174 N 0.18203 0.67139 -0.14034
 N175 N 0.17154 0.68190 -0.14034
 C176 C 0.17395 0.69123 -0.12869
 C177 C 0.18650 0.68631 -0.12111
 C178 C 0.19138 0.67376 -0.12870
 H179 H 0.16708 0.70083 -0.12586
 H180 H 0.20096 0.66685 -0.12586
 H181 H 0.17218 0.67203 -0.16715
 H182 H 0.16015 0.66011 -0.15481
 N183 N 0.14011 0.18171 0.32886
 N184 N 0.14014 0.17109 0.31860
 C185 C 0.12845 0.17327 0.30923
 C186 C 0.12083 0.18589 0.31392
 C187 C 0.12844 0.19100 0.32636
 H188 H 0.12566 0.16624 0.29974
 H189 H 0.12568 0.20073 0.33309
 Cu190 Cu 0.15546 0.15550 0.31859
 Cu191 Cu 0.15516 0.18268 0.34469
 Cu192 Cu 0.18273 0.15511 0.34464
 N193 N 0.17104 0.14017 0.31855
 N194 N 0.18169 0.14011 0.32879
 C195 C 0.19098 0.12845 0.32626
 C196 C 0.18583 0.12087 0.31382
 C197 C 0.17319 0.12850 0.30916
 H198 H 0.20072 0.12567 0.33297
 H199 H 0.16613 0.12573 0.29968
 N200 N 0.18185 0.17125 0.35973
 N201 N 0.17135 0.18175 0.35975
 C202 C 0.17372 0.19103 0.37145
 C203 C 0.18624 0.18609 0.37905
 C204 C 0.19117 0.17358 0.37142
 H205 H 0.16683 0.20062 0.37430
 H206 H 0.20077 0.16669 0.37424
 H207 H 0.17200 0.17194 0.33287
 H208 H 0.16002 0.15998 0.34521
 N209 N 0.64007 0.31830 0.67120
 N210 N 0.64025 0.32878 0.68160
 C211 C 0.62855 0.32663 0.69097
 C212 C 0.62077 0.31418 0.68613
 C213 C 0.62830 0.30914 0.67360
 H214 H 0.62587 0.33356 0.70057
 H215 H 0.62541 0.29954 0.66676
 Cu216 Cu 0.65578 0.34416 0.68178
 Cu217 Cu 0.65507 0.31733 0.65530
 Cu218 Cu 0.68264 0.34484 0.65527
 N219 N 0.67118 0.35967 0.68156
 N220 N 0.68167 0.35984 0.67115
 C221 C 0.69085 0.37161 0.67354
 C222 C 0.68581 0.37912 0.68608
 C223 C 0.67334 0.37134 0.69094
 H224 H 0.70046 0.37449 0.66669
 H225 H 0.66641 0.37401 0.70054
 N226 N 0.68171 0.32870 0.64016
 N227 N 0.67120 0.31823 0.64016
 C228 C 0.67352 0.30896 0.62844
 C229 C 0.68604 0.31387 0.62080
 C230 C 0.69099 0.32635 0.62843
 H231 H 0.66662 0.29939 0.62561
 H232 H 0.70059 0.33322 0.62559
 H233 H 0.67211 0.32785 0.66700
 H234 H 0.65994 0.34002 0.65505
 N235 N 0.64025 0.81817 1.17145
 N236 N 0.64025 0.82884 1.18165
 C237 C 0.62857 0.82670 1.19104
 C238 C 0.62098 0.81406 1.18642
 C239 C 0.62859 0.80888 1.17399
 H240 H 0.62576 0.83378 1.20050
 H241 H 0.62584 0.79914 1.16731
 Cu242 Cu 0.65558 0.84440 1.18158
 Cu243 Cu 0.65528 0.81710 1.15561
 Cu244 Cu 0.68284 0.84464 1.15554
 N245 N 0.67112 0.85974 1.18155
 N246 N 0.68180 0.85972 1.17133
 C247 C 0.69107 0.87139 1.17379
 C248 C 0.68588 0.87905 1.18618
 C249 C 0.67325 0.87145 1.19087
 H250 H 0.70082 0.87412 1.16708
 H251 H 0.66617 0.87428 1.20034
 N252 N 0.68197 0.82844 1.14052
 N253 N 0.67146 0.81796 1.14054
 C254 C 0.67380 0.80867 1.12884
 C255 C 0.68631 0.81359 1.12121
 C256 C 0.69125 0.82608 1.12881
 H257 H 0.66690 0.79910 1.12601
 H258 H 0.70083 0.83297 1.12593
 H259 H 0.67208 0.82785 1.16737
 H260 H 0.66011 0.83979 1.15500
 N261 N 0.14019 0.31839 1.17131
 N262 N 0.14030 0.32892 1.18166
 C263 C 0.12864 0.32671 1.19106
 C264 C 0.12094 0.31419 1.18627
 C265 C 0.12849 0.30915 1.17376
 H266 H 0.12591 0.33365 1.20063
 H267 H 0.12566 0.29951 1.16695
 Cu268 Cu 0.15568 0.34443 1.18176
 Cu269 Cu 0.15517 0.31745 1.15540
 Cu270 Cu 0.18267 0.34500 1.15539
 N271 N 0.17117 0.35983 1.18164
 N272 N 0.18170 0.35996 1.17128
 C273 C 0.19093 0.37167 1.17371
 C274 C 0.18587 0.37920 1.18621
 C275 C 0.17335 0.37148 1.19103
 H276 H 0.20058 0.37451 1.16689
 H277 H 0.16639 0.37419 1.20061
 N278 N 0.18176 0.32893 1.14025
 N279 N 0.17128 0.31843 1.14026
 C280 C 0.17366 0.30915 1.12856
 C281 C 0.18616 0.31409 1.12094
 C282 C 0.19107 0.32660 1.12855
 H283 H 0.16681 0.29954 1.12575
 H284 H 0.20067 0.33348 1.12573
 H285 H 0.17208 0.32802 1.16720
 H286 H 0.15995 0.34010 1.15509
 N287 N 0.14026 0.81828 0.67131
 N288 N 0.14040 0.82881 0.68166
 C289 C 0.12877 0.82661 0.69110
 C290 C 0.12106 0.81407 0.68635
 C291 C 0.12856 0.80903 0.67381
 H292 H 0.12606 0.83356 0.70067
 H293 H 0.12571 0.79940 0.66701
 Cu294 Cu 0.15578 0.84432 0.68172
 Cu295 Cu 0.15519 0.81733 0.65537
 Cu296 Cu 0.18273 0.84485 0.65530
 N297 N 0.17128 0.85971 0.68155
 N298 N 0.18181 0.85982 0.67119
 C299 C 0.19105 0.87153 0.67360
 C300 C 0.18600 0.87908 0.68610
 C301 C 0.17347 0.87138 0.69092
 H302 H 0.20069 0.87436 0.66676
 H303 H 0.16652 0.87411 0.70050
 N304 N 0.18176 0.82876 0.64018
 N305 N 0.17126 0.81828 0.64019
 C306 C 0.17358 0.80902 0.62847
 C307 C 0.18608 0.81395 0.62082
 C308 C 0.19103 0.82643 0.62845
 H309 H 0.16669 0.79943 0.62565
 H310 H 0.20063 0.83329 0.62560
 H311 H 0.17212 0.82791 0.66710
 H312 H 0.16000 0.84001 0.65502
 N313 N 0.35991 0.68157 0.67124
 N314 N 0.35974 0.67109 0.68165
 C315 C 0.37144 0.67324 0.69100
 C316 C 0.37923 0.68569 0.68614
 C317 C 0.37169 0.69073 0.67362
 H318 H 0.37412 0.66632 0.70061
 H319 H 0.37456 0.70034 0.66678
 Cu320 Cu 0.34417 0.65574 0.68192
 Cu321 Cu 0.34490 0.68259 0.65540
 Cu322 Cu 0.31734 0.65511 0.65537
 N323 N 0.32879 0.64021 0.68160
 N324 N 0.31830 0.64008 0.67120
 C325 C 0.30910 0.62832 0.67356
 C326 C 0.31415 0.62075 0.68606
 C327 C 0.32662 0.62849 0.69093
 H328 H 0.29947 0.62549 0.66673
 H329 H 0.33354 0.62579 0.70053
 N330 N 0.31825 0.67127 0.64029
 N331 N 0.32876 0.68173 0.64029
 C332 C 0.32642 0.69104 0.62860
 C333 C 0.31390 0.68615 0.62098
 C334 C 0.30895 0.67365 0.62859
 H335 H 0.33332 0.70062 0.62578
 H336 H 0.29934 0.66680 0.62576
 H337 H 0.32787 0.67209 0.66716
 H338 H 0.34006 0.65992 0.65521
 N339 N 0.36004 0.18133 1.17077
 N340 N 0.35983 0.17097 1.18129
 C341 C 0.37170 0.17301 1.19046
 C342 C 0.37964 0.18526 1.18534
 C343 C 0.37201 0.19032 1.17288
 H344 H 0.37440 0.16614 1.20009
 H345 H 0.37496 0.19979 1.16589
 Cu346 Cu 0.34416 0.15577 1.18161
 Cu347 Cu 0.34487 0.18238 1.15503
 Cu348 Cu 0.31705 0.15508 1.15551
 N349 N 0.32860 0.14046 1.18191
 N350 N 0.31805 0.14024 1.17156
 C351 C 0.30889 0.12849 1.17404
 C352 C 0.31400 0.12102 1.18656
 C353 C 0.32649 0.12881 1.19133
 H354 H 0.29930 0.12554 1.16720
 H355 H 0.33352 0.12610 1.20085
 N356 N 0.31799 0.17107 1.14025
 N357 N 0.32855 0.18149 1.14010
 C358 C 0.32616 0.19073 1.12838
 C359 C 0.31356 0.18585 1.12089
 C360 C 0.30861 0.17341 1.12861
 H361 H 0.33307 0.20026 1.12543
 H362 H 0.29894 0.16659 1.12590
 H363 H 0.32785 0.17209 1.16691
 H364 H 0.33980 0.15976 1.15491
 N365 N 0.85950 0.68201 1.17159
 N366 N 0.85937 0.67149 1.18195
 C367 C 0.87104 0.67367 1.19133
 C368 C 0.87876 0.68618 1.18653
 C369 C 0.87122 0.69123 1.17402
 H370 H 0.87377 0.66671 1.20090
 H371 H 0.87408 0.70085 1.16719
 Cu372 Cu 0.84399 0.65597 1.18204
 Cu373 Cu 0.84452 0.68297 1.15571
 Cu374 Cu 0.81701 0.65541 1.15568
 N375 N 0.82851 0.64055 1.18192
 N376 N 0.81799 0.64042 1.17155
 C377 C 0.80877 0.62868 1.17396
 C378 C 0.81383 0.62114 1.18647
 C379 C 0.82634 0.62887 1.19129
 H380 H 0.79915 0.62583 1.16713
 H381 H 0.83330 0.62615 1.20086
 N382 N 0.81792 0.67154 1.14058
 N383 N 0.82841 0.68203 1.14059
 C384 C 0.82604 0.69134 1.12891
 C385 C 0.81352 0.68643 1.12130
 C386 C 0.80861 0.67391 1.12890
 H387 H 0.83290 0.70095 1.12609
 H388 H 0.79900 0.66705 1.12607
 H389 H 0.82758 0.67237 1.16748
 H390 H 0.83971 0.66031 1.15537
 N391 N 0.85995 0.18142 0.67108
 N392 N 0.85992 0.17076 0.68130
 C393 C 0.87161 0.17289 0.69069
 C394 C 0.87924 0.18551 0.68602
 C395 C 0.87162 0.19068 0.67360
 H396 H 0.87438 0.16584 0.70019
 H397 H 0.87437 0.20043 0.66691
 Cu398 Cu 0.84450 0.15530 0.68138
 Cu399 Cu 0.84492 0.18247 0.65524
 Cu400 Cu 0.81736 0.15496 0.65522
 N401 N 0.82899 0.13992 0.68129
 N402 N 0.81834 0.13992 0.67106
 C403 C 0.80903 0.12828 0.67357
 C404 C 0.81416 0.12067 0.68602
 C405 C 0.82681 0.12826 0.69069
 H406 H 0.79928 0.12556 0.66687
 H407 H 0.83385 0.12548 0.70019
 N408 N 0.81827 0.17110 0.64014
 N409 N 0.82876 0.18159 0.64014
 C410 C 0.82645 0.19084 0.62839
 C411 C 0.81398 0.18587 0.62073
 C412 C 0.80902 0.17340 0.62838
 H413 H 0.83335 0.20040 0.62553
 H414 H 0.79945 0.16650 0.62553
 H415 H 0.82806 0.17181 0.66706
 H416 H 0.84010 0.15981 0.65478
 N417 N 0.31809 0.35984 0.67115
 N418 N 0.32856 0.35962 0.68157
 C419 C 0.32639 0.37128 0.69097
 C420 C 0.31393 0.37908 0.68611
 C421 C 0.30890 0.37161 0.67356
 H422 H 0.33332 0.37394 0.70057
 H423 H 0.29932 0.37453 0.66669
 Cu424 Cu 0.34401 0.34416 0.68161
 Cu425 Cu 0.31713 0.34488 0.65523
 Cu426 Cu 0.34470 0.31728 0.65528
 N427 N 0.35945 0.32869 0.68163
 N428 N 0.35965 0.31823 0.67122
 C429 C 0.37141 0.30902 0.67365
 C430 C 0.37889 0.31403 0.68621
 C431 C 0.37111 0.32651 0.69104
 H432 H 0.37432 0.29944 0.66680
 H433 H 0.37378 0.33343 0.70064
 N434 N 0.32859 0.31825 0.64014
 N435 N 0.31810 0.32876 0.64011
 C436 C 0.30879 0.32640 0.62843
 C437 C 0.31370 0.31385 0.62086
 C438 C 0.32621 0.30893 0.62847
 H439 H 0.29917 0.33326 0.62559
 H440 H 0.33306 0.29929 0.62569
 H441 H 0.32768 0.32788 0.66691
 H442 H 0.33984 0.33997 0.65489
 N443 N 0.31834 0.86006 0.17096
 N444 N 0.32884 0.85988 0.18135
 C445 C 0.32671 0.87159 0.19068
 C446 C 0.31426 0.87940 0.18581
 C447 C 0.30918 0.87186 0.17331
 H448 H 0.33364 0.87427 0.20028
 H449 H 0.29957 0.87475 0.16647
 Cu450 Cu 0.34415 0.84429 0.18167
 Cu451 Cu 0.31732 0.84504 0.15515
 Cu452 Cu 0.34481 0.81744 0.15519
 N453 N 0.35964 0.82888 0.18145
 N454 N 0.35982 0.81840 0.17105
 C455 C 0.37157 0.80919 0.17345
 C456 C 0.37908 0.81420 0.18599
 C457 C 0.37131 0.82668 0.19083
 H458 H 0.37445 0.79959 0.16660
 H459 H 0.37400 0.83359 0.20044
 N460 N 0.32867 0.81838 0.14010
 N461 N 0.31818 0.82888 0.14009
 C462 C 0.30886 0.82654 0.12840
 C463 C 0.31377 0.81400 0.12081
 C464 C 0.32629 0.80907 0.12842
 H465 H 0.29927 0.83343 0.12556
 H466 H 0.33317 0.79946 0.12560
 H467 H 0.32784 0.82803 0.16691
 H468 H 0.34005 0.84015 0.15495
 N469 N 0.81820 0.36010 0.17111
 N470 N 0.82873 0.35993 0.18147
 C471 C 0.82656 0.37159 0.19086
 C472 C 0.81405 0.37934 0.18606
 C473 C 0.80899 0.37184 0.17354
 H474 H 0.83352 0.37428 0.20043
 H475 H 0.79936 0.37473 0.16671
 Cu476 Cu 0.84422 0.34451 0.18156
 Cu477 Cu 0.81722 0.34513 0.15522
 Cu478 Cu 0.84474 0.31755 0.15520
 N479 N 0.85961 0.32898 0.18145
 N480 N 0.85974 0.31848 0.17107
 C481 C 0.87149 0.30925 0.17348
 C482 C 0.87903 0.31427 0.18600
 C483 C 0.87129 0.32678 0.19082
 H484 H 0.87435 0.29964 0.16664
 H485 H 0.87402 0.33372 0.20039
 N486 N 0.82860 0.31851 0.14008
 N487 N 0.81811 0.32902 0.14008
 C488 C 0.80880 0.32668 0.12839
 C489 C 0.81370 0.31415 0.12078
 C490 C 0.82622 0.30921 0.12840
 H491 H 0.79920 0.33357 0.12557
 H492 H 0.83309 0.29959 0.12558
 H493 H 0.82780 0.32816 0.16699
 H494 H 0.83992 0.34022 0.15488
 N495 N 0.81837 0.86034 0.67099
 N496 N 0.82905 0.86033 0.68119
 C497 C 0.82692 0.87203 0.69054
 C498 C 0.81427 0.87965 0.68588
 C499 C 0.80908 0.87202 0.67349
 H500 H 0.83397 0.87480 0.70001
 H501 H 0.79930 0.87475 0.66682
 Cu502 Cu 0.84453 0.84488 0.68130
 Cu503 Cu 0.81728 0.84523 0.65522
 Cu504 Cu 0.84482 0.81763 0.65524
 N505 N 0.85992 0.82934 0.68124
 N506 N 0.85991 0.81868 0.67103
 C507 C 0.87156 0.80935 0.67356
 C508 C 0.87918 0.81448 0.68599
 C509 C 0.87159 0.82715 0.69062
 H510 H 0.87428 0.79958 0.66689
 H511 H 0.87438 0.83418 0.70011
 N512 N 0.82859 0.81851 0.64021
 N513 N 0.81810 0.82901 0.64020
 C514 C 0.80878 0.82665 0.62852
 C515 C 0.81369 0.81411 0.62093
 C516 C 0.82622 0.80919 0.62854
 H517 H 0.79920 0.83355 0.62566
 H518 H 0.83311 0.79960 0.62571
 H519 H 0.82801 0.82836 0.66707
 H520 H 0.84002 0.84030 0.65471
 N521 N 0.68162 0.63991 0.67117
 N522 N 0.67093 0.63995 0.68139
 C523 C 0.67304 0.62825 0.69075
 C524 C 0.68567 0.62060 0.68607
 C525 C 0.69087 0.62822 0.67367
 H526 H 0.66599 0.62549 0.70024
 H527 H 0.70065 0.62547 0.66699
 Cu528 Cu 0.65552 0.65545 0.68145
 Cu529 Cu 0.68274 0.65500 0.65537
 Cu530 Cu 0.65520 0.68262 0.65537
 N531 N 0.64006 0.67091 0.68138
 N532 N 0.64008 0.68158 0.67116
 C533 C 0.62840 0.69087 0.67366
 C534 C 0.62073 0.68569 0.68606
 C535 C 0.62834 0.67305 0.69072
 H536 H 0.62569 0.70065 0.66699
 H537 H 0.62554 0.66601 0.70020
 N538 N 0.67144 0.68173 0.64033
 N539 N 0.68193 0.67121 0.64032
 C540 C 0.69123 0.67354 0.62861
 C541 C 0.68632 0.68607 0.62100
 C542 C 0.67381 0.69101 0.62863
 H543 H 0.70081 0.66663 0.62576
 H544 H 0.66692 0.70060 0.62578
 H545 H 0.67208 0.67190 0.66716
 H546 H 0.66007 0.65996 0.65486
 N547 N 0.68180 0.13974 0.17102
 N548 N 0.67111 0.13974 0.18123
 C549 C 0.67321 0.12801 0.19055
 C550 C 0.68585 0.12038 0.18587
 C551 C 0.69106 0.12804 0.17350
 H552 H 0.66614 0.12522 0.20002
 H553 H 0.70085 0.12531 0.16683
 Cu554 Cu 0.65570 0.15526 0.18131
 Cu555 Cu 0.68293 0.15484 0.15523
 Cu556 Cu 0.65540 0.18247 0.15528
 N557 N 0.64027 0.17075 0.18131
 N558 N 0.64030 0.18144 0.17111
 C559 C 0.62865 0.19076 0.17364
 C560 C 0.62100 0.18561 0.18605
 C561 C 0.62857 0.17293 0.19068
 H562 H 0.62595 0.20055 0.16698
 H563 H 0.62576 0.16587 0.20015
 N564 N 0.67161 0.18157 0.14021
 N565 N 0.68211 0.17107 0.14020
 C566 C 0.69141 0.17340 0.12849
 C567 C 0.68648 0.18592 0.12087
 C568 C 0.67397 0.19086 0.12851
 H569 H 0.70098 0.16649 0.12563
 H570 H 0.66708 0.20044 0.12566
 H571 H 0.67228 0.17172 0.16704
 H572 H 0.66026 0.15978 0.15473
 N573 N 0.18160 0.64013 0.17101
 N574 N 0.17110 0.64033 0.18141
 C575 C 0.17321 0.62863 0.19076
 C576 C 0.18567 0.62082 0.18590
 C577 C 0.19076 0.62833 0.17339
 H578 H 0.16627 0.62596 0.20036
 H579 H 0.20037 0.62543 0.16656
 Cu580 Cu 0.15577 0.65591 0.18168
 Cu581 Cu 0.18263 0.65512 0.15516
 Cu582 Cu 0.15515 0.68272 0.15515
 N583 N 0.14026 0.67131 0.18141
 N584 N 0.14012 0.68180 0.17101
 C585 C 0.12835 0.69100 0.17339
 C586 C 0.12079 0.68596 0.18591
 C587 C 0.12856 0.67349 0.19076
 H588 H 0.12549 0.70061 0.16655
 H589 H 0.12585 0.66656 0.20035
 N590 N 0.17130 0.68175 0.14004
 N591 N 0.18178 0.67124 0.14004
 C592 C 0.19108 0.67355 0.12833
 C593 C 0.18617 0.68605 0.12070
 C594 C 0.17366 0.69102 0.12832
 H595 H 0.20068 0.66664 0.12551
 H596 H 0.16680 0.70063 0.12548
 H597 H 0.17213 0.67214 0.16690
 H598 H 0.15992 0.66001 0.15495
 N599 N 0.18153 0.13972 0.67108
 N600 N 0.17102 0.13989 0.68147
 C601 C 0.17312 0.12815 0.69079
 C602 C 0.18558 0.12034 0.68592
 C603 C 0.19068 0.12790 0.67344
 H604 H 0.16616 0.12546 0.70036
 H605 H 0.20032 0.12504 0.66661
 Cu606 Cu 0.15570 0.15550 0.68181
 Cu607 Cu 0.18256 0.15479 0.65527
 Cu608 Cu 0.15506 0.18239 0.65531
 N609 N 0.14017 0.17091 0.68154
 N610 N 0.14003 0.18141 0.67116
 C611 C 0.12827 0.19063 0.67357
 C612 C 0.12073 0.18559 0.68608
 C613 C 0.12847 0.17308 0.69090
 H614 H 0.12543 0.20027 0.66675
 H615 H 0.12576 0.16614 0.70048
 N616 N 0.17123 0.18149 0.64023
 N617 N 0.18173 0.17099 0.64022
 C618 C 0.19106 0.17337 0.62854
 C619 C 0.18617 0.18592 0.62096
 C620 C 0.17362 0.19083 0.62857
 H621 H 0.20066 0.16649 0.62570
 H622 H 0.16675 0.20043 0.62575
 H623 H 0.17202 0.17179 0.66705
 H624 H 0.15981 0.15967 0.65509
 N625 N 0.31828 0.63993 0.32884
 N626 N 0.32895 0.63993 0.31861
 C627 C 0.32679 0.62826 0.30924
 C628 C 0.31414 0.62067 0.31391
 C629 C 0.30898 0.62829 0.32633
 H630 H 0.33383 0.62548 0.29974
 H631 H 0.29921 0.62557 0.33302
 Cu632 Cu 0.34439 0.65537 0.31854
 Cu633 Cu 0.31718 0.65502 0.34462
 Cu634 Cu 0.34475 0.68256 0.34458
 N635 N 0.35985 0.67079 0.31856
 N636 N 0.35985 0.68145 0.32878
 C637 C 0.37151 0.69074 0.32625
 C638 C 0.37912 0.68559 0.31381
 C639 C 0.37153 0.67295 0.30917
 H640 H 0.37423 0.70050 0.33292
 H641 H 0.37431 0.66593 0.29967
 N642 N 0.32852 0.68173 0.35961
 N643 N 0.31803 0.67124 0.35964
 C644 C 0.30870 0.67364 0.37131
 C645 C 0.31359 0.68618 0.37887
 C646 C 0.32612 0.69107 0.37126
 H647 H 0.29910 0.66676 0.37417
 H648 H 0.33299 0.70067 0.37407
 H649 H 0.32786 0.67188 0.33283
 H650 H 0.33987 0.65990 0.34513
 N651 N 0.31822 0.13976 0.82893
 N652 N 0.32869 0.13997 0.81850
 C653 C 0.32655 0.12829 0.80915
 C654 C 0.31412 0.12047 0.81404
 C655 C 0.30907 0.12797 0.82657
 H656 H 0.33346 0.12563 0.79952
 H657 H 0.29948 0.12507 0.83344
 Cu658 Cu 0.34401 0.15554 0.81821
 Cu659 Cu 0.31720 0.15474 0.84480
 Cu660 Cu 0.34469 0.18231 0.84477
 N661 N 0.35951 0.17094 0.81844
 N662 N 0.35968 0.18138 0.82888
 C663 C 0.37144 0.19059 0.82649
 C664 C 0.37895 0.18561 0.81393
 C665 C 0.37119 0.17316 0.80905
 H666 H 0.37431 0.20016 0.83337
 H667 H 0.37387 0.16627 0.79943
 N668 N 0.32856 0.18135 0.85989
 N669 N 0.31808 0.17086 0.85991
 C670 C 0.30879 0.17319 0.87162
 C671 C 0.31370 0.18570 0.87923
 C672 C 0.32621 0.19063 0.87160
 H673 H 0.29920 0.16631 0.87447
 H674 H 0.33307 0.20023 0.87442
 H675 H 0.32768 0.17177 0.83305
 H676 H 0.33992 0.15960 0.84495
 N677 N 0.81840 0.64004 0.82900
 N678 N 0.82891 0.64021 0.81860
 C679 C 0.82674 0.62854 0.80922
 C680 C 0.81426 0.62077 0.81405
 C681 C 0.80920 0.62829 0.82659
 H682 H 0.83369 0.62586 0.79963
 H683 H 0.79959 0.62540 0.83344
 Cu684 Cu 0.84437 0.65564 0.81846
 Cu685 Cu 0.81742 0.65504 0.84487
 Cu686 Cu 0.84492 0.68263 0.84477
 N687 N 0.85975 0.67116 0.81850
 N688 N 0.85989 0.68168 0.82886
 C689 C 0.87159 0.69092 0.82640
 C690 C 0.87911 0.68589 0.81385
 C691 C 0.87140 0.67337 0.80907
 H692 H 0.87445 0.70054 0.83321
 H693 H 0.87411 0.66643 0.79950
 N694 N 0.82882 0.68169 0.85993
 N695 N 0.81835 0.67118 0.85998
 C696 C 0.80904 0.67356 0.87168
 C697 C 0.81394 0.68610 0.87923
 C698 C 0.82645 0.69102 0.87159
 H699 H 0.79944 0.66669 0.87453
 H700 H 0.83329 0.70065 0.87436
 H701 H 0.82796 0.67199 0.83307
 H702 H 0.84012 0.65994 0.84515
 N703 N 0.81847 0.13969 0.32876
 N704 N 0.82904 0.13984 0.31843
 C705 C 0.82687 0.12822 0.30899
 C706 C 0.81432 0.12051 0.31374
 C707 C 0.80923 0.12800 0.32626
 H708 H 0.83384 0.12555 0.29942
 H709 H 0.79956 0.12515 0.33305
 Cu710 Cu 0.84446 0.15529 0.31842
 Cu711 Cu 0.81747 0.15461 0.34471
 Cu712 Cu 0.84502 0.18219 0.34472
 N713 N 0.85990 0.17073 0.31844
 N714 N 0.86000 0.18126 0.32879
 C715 C 0.87169 0.19053 0.32631
 C716 C 0.87922 0.18549 0.31379
 C717 C 0.87153 0.17295 0.30901
 H718 H 0.87450 0.20018 0.33310
 H719 H 0.87424 0.16602 0.29943
 N720 N 0.82891 0.18118 0.35988
 N721 N 0.81842 0.17069 0.35989
 C722 C 0.80914 0.17300 0.37162
 C723 C 0.81407 0.18550 0.37924
 C724 C 0.82656 0.19045 0.37160
 H725 H 0.79954 0.16613 0.37445
 H726 H 0.83342 0.20006 0.37441
 H727 H 0.82799 0.17163 0.33296
 H728 H 0.84009 0.15956 0.34506
 N729 N 0.68166 0.35996 0.32871
 N730 N 0.67120 0.35977 0.31828
 C731 C 0.67337 0.37146 0.30892
 C732 C 0.68581 0.37925 0.31382
 C733 C 0.69084 0.37174 0.32635
 H734 H 0.66648 0.37413 0.29929
 H735 H 0.70042 0.37462 0.33322
 Cu736 Cu 0.65588 0.34420 0.31794
 Cu737 Cu 0.68264 0.34500 0.34458
 Cu738 Cu 0.65515 0.31745 0.34453
 N739 N 0.64036 0.32882 0.31820
 N740 N 0.64017 0.31837 0.32862
 C741 C 0.62842 0.30917 0.32622
 C742 C 0.62091 0.31418 0.31366
 C743 C 0.62869 0.32663 0.30881
 H744 H 0.62553 0.29958 0.33308
 H745 H 0.62603 0.33354 0.29918
 N746 N 0.67124 0.31840 0.35969
 N747 N 0.68173 0.32890 0.35971
 C748 C 0.69100 0.32657 0.37143
 C749 C 0.68607 0.31407 0.37905
 C750 C 0.67358 0.30913 0.37141
 H751 H 0.70059 0.33345 0.37427
 H752 H 0.66671 0.29953 0.37423
 H753 H 0.67222 0.32801 0.33282
 H754 H 0.65995 0.34019 0.34469
 N755 N 0.68178 0.86001 0.82885
 N756 N 0.67121 0.85991 0.81853
 C757 C 0.67342 0.87153 0.80910
 C758 C 0.68599 0.87920 0.81385
 C759 C 0.69106 0.87167 0.82636
 H760 H 0.66643 0.87428 0.79957
 H761 H 0.70072 0.87450 0.83315
 Cu762 Cu 0.65554 0.84470 0.81858
 Cu763 Cu 0.68272 0.84510 0.84478
 Cu764 Cu 0.65519 0.81759 0.84480
 N765 N 0.64030 0.82905 0.81856
 N766 N 0.64022 0.81849 0.82888
 C767 C 0.62853 0.80922 0.82642
 C768 C 0.62097 0.81429 0.81392
 C769 C 0.62865 0.82684 0.80915
 H770 H 0.62571 0.79958 0.83322
 H771 H 0.62590 0.83383 0.79962
 N772 N 0.67128 0.81855 0.85996
 N773 N 0.68177 0.82904 0.85994
 C774 C 0.69111 0.82668 0.87161
 C775 C 0.68622 0.81416 0.87923
 C776 C 0.67368 0.80925 0.87165
 H777 H 0.70074 0.83353 0.87440
 H778 H 0.66683 0.79963 0.87446
 H779 H 0.67208 0.82826 0.83293
 H780 H 0.66005 0.84027 0.84520
 N781 N 0.18151 0.35987 0.82887
 N782 N 0.17105 0.35967 0.81844
 C783 C 0.17321 0.37135 0.80907
 C784 C 0.18566 0.37915 0.81395
 C785 C 0.19068 0.37164 0.82649
 H786 H 0.16631 0.37401 0.79944
 H787 H 0.20027 0.37453 0.83336
 Cu788 Cu 0.15571 0.34411 0.81817
 Cu789 Cu 0.18249 0.34490 0.84475
 Cu790 Cu 0.15499 0.31734 0.84475
 N791 N 0.14020 0.32871 0.81841
 N792 N 0.14002 0.31826 0.82884
 C793 C 0.12826 0.30907 0.82645
 C794 C 0.12076 0.31406 0.81389
 C795 C 0.12854 0.32652 0.80902
 H796 H 0.12537 0.29949 0.83332
 H797 H 0.12587 0.33341 0.79940
 N798 N 0.17109 0.31831 0.85989
 N799 N 0.18158 0.32880 0.85988
 C800 C 0.19086 0.32648 0.87160
 C801 C 0.18593 0.31398 0.87923
 C802 C 0.17343 0.30904 0.87160
 H803 H 0.20046 0.33336 0.87443
 H804 H 0.16656 0.29945 0.87444
 H805 H 0.17200 0.32787 0.83304
 H806 H 0.15975 0.34005 0.84492
 N807 N 0.18167 0.86006 0.32875
 N808 N 0.17117 0.85987 0.31835
 C809 C 0.17333 0.87154 0.30896
 C810 C 0.18578 0.87932 0.31382
 C811 C 0.19084 0.87182 0.32635
 H812 H 0.16639 0.87421 0.29936
 H813 H 0.20048 0.87468 0.33316
 Cu814 Cu 0.15579 0.84437 0.31821
 Cu815 Cu 0.18266 0.84508 0.34464
 Cu816 Cu 0.15512 0.81753 0.34464
 N817 N 0.14031 0.82897 0.31833
 N818 N 0.14012 0.81848 0.32873
 C819 C 0.12836 0.80930 0.32632
 C820 C 0.12085 0.81435 0.31378
 C821 C 0.12864 0.82680 0.30893
 H822 H 0.12550 0.79968 0.33314
 H823 H 0.12597 0.83374 0.29933
 N824 N 0.17125 0.81847 0.35977
 N825 N 0.18174 0.82896 0.35976
 C826 C 0.19108 0.82658 0.37142
 C827 C 0.18619 0.81405 0.37903
 C828 C 0.17365 0.80915 0.37144
 H829 H 0.20070 0.83343 0.37422
 H830 H 0.16679 0.79954 0.37426
 H831 H 0.17216 0.82808 0.33288
 H832 H 0.15997 0.84022 0.34488
 O833 O 0.25133 1.01470 0.23083
 O834 O 0.23086 0.98538 0.25146
 O835 O 0.23107 1.01482 0.25154
 O836 O 0.25141 0.98530 0.23095
 O837 O 0.26909 0.98528 0.24840
 O838 O 0.24874 1.01474 0.26900
 O839 O 0.24853 0.98530 0.26890
 O840 O 0.26899 1.01468 0.24828
 Cu841 Cu 0.23937 1.00005 0.23944
 Cu842 Cu 0.26062 0.99999 0.26042
 C843 C 0.26346 1.01984 0.23623
 C844 C 0.23638 0.98020 0.26351
 C845 C 0.23664 1.01998 0.26358
 C846 C 0.26356 0.98015 0.23634
 O847 O 0.25137 0.51466 0.73104
 O848 O 0.23089 0.48521 0.75157
 O849 O 0.23084 0.51465 0.75155
 O850 O 0.25144 0.48522 0.73111
 O851 O 0.26900 0.48526 0.74867
 O852 O 0.24840 0.51468 0.76911
 O853 O 0.24845 0.48524 0.76913
 O854 O 0.26893 0.51470 0.74860
 Cu855 Cu 0.23936 0.49993 0.73954
 Cu856 Cu 0.26047 0.49997 0.76065
 C857 C 0.26346 0.51985 0.73650
 C858 C 0.23636 0.48006 0.76366
 C859 C 0.23629 0.51982 0.76363
 C860 C 0.26355 0.48007 0.73659
 O861 O 0.74878 -0.01501 0.23092
 O862 O 0.76932 0.01442 0.25135
 O863 O 0.76938 -0.01502 0.25134
 O864 O 0.74874 0.01442 0.23092
 O865 O 0.73122 0.01441 0.24852
 O866 O 0.75185 -0.01503 0.26895
 O867 O 0.75179 0.01440 0.26896
 O868 O 0.73126 -0.01502 0.24853
 Cu869 Cu 0.76083 -0.00029 0.23936
 Cu870 Cu 0.73976 -0.00031 0.26052
 C871 C 0.73670 -0.02017 0.23642
 C872 C 0.76387 0.01958 0.26345
 C873 C 0.76394 -0.02019 0.26344
 C874 C 0.73664 0.01957 0.23642
 O875 O 0.74850 0.48517 0.73108
 O876 O 0.76918 0.51463 0.75141
 O877 O 0.76921 0.48518 0.75141
 O878 O 0.74848 0.51462 0.73109
 O879 O 0.73105 0.51462 0.74878
 O880 O 0.75177 0.48518 0.76910
 O881 O 0.75175 0.51462 0.76911
 O882 O 0.73107 0.48517 0.74878
 Cu883 Cu 0.76060 0.49990 0.73946
 Cu884 Cu 0.73965 0.49990 0.76073
 C885 C 0.73644 0.48000 0.73664
 C886 C 0.76381 0.51979 0.76355
 C887 C 0.76384 0.48002 0.76354
 C888 C 0.73642 0.51979 0.73665
 O889 O 0.24843 0.48538 0.23074
 O890 O 0.26898 0.51481 0.25118
 O891 O 0.26906 0.48536 0.25110
 O892 O 0.24838 0.51480 0.23076
 O893 O 0.23088 0.51476 0.24839
 O894 O 0.25155 0.48532 0.26873
 O895 O 0.25147 0.51475 0.26881
 O896 O 0.23093 0.48535 0.24837
 Cu897 Cu 0.26049 0.50010 0.23916
 Cu898 Cu 0.23944 0.50004 0.26036
 C899 C 0.23635 0.48021 0.23625
 C900 C 0.26354 0.51994 0.26329
 C901 C 0.26364 0.48017 0.26320
 C902 C 0.23629 0.51993 0.23628
 O903 O 0.73072 0.98558 0.75175
 O904 O 0.75136 1.01490 0.73125
 O905 O 0.75128 0.98550 0.73127
 O906 O 0.73081 1.01503 0.75172
 O907 O 0.74836 1.01499 0.76929
 O908 O 0.76883 0.98544 0.74883
 O909 O 0.76891 1.01484 0.74882
 O910 O 0.74827 0.98552 0.76931
 Cu911 Cu 0.73926 1.00025 0.73973
 Cu912 Cu 0.76036 1.00019 0.76085
 C913 C 0.73617 0.98039 0.76383
 C914 C 0.76348 1.02000 0.73671
 C915 C 0.76338 0.98031 0.73673
 C916 C 0.73629 1.02021 0.76379
 O917 O 0.74847 0.51480 0.26922
 O918 O 0.76912 0.48544 0.24875
 O919 O 0.76901 0.51485 0.24874
 O920 O 0.74855 0.48537 0.26921
 O921 O 0.73100 0.48535 0.25163
 O922 O 0.75146 0.51482 0.23117
 O923 O 0.75157 0.48541 0.23118
 O924 O 0.73093 0.51478 0.25164
 Cu925 Cu 0.76056 0.50011 0.26076
 Cu926 Cu 0.73946 0.50008 0.23963
 C927 C 0.73637 0.51995 0.26372
 C928 C 0.76369 0.48028 0.23665
 C929 C 0.76354 0.52000 0.23665
 C930 C 0.73647 0.48019 0.26372
 O931 O 0.25176 -0.01524 0.76905
 O932 O 0.23123 0.01443 0.74876
 O933 O 0.23117 -0.01500 0.74863
 O934 O 0.25183 0.01425 0.76921
 O935 O 0.26936 0.01428 0.75160
 O936 O 0.24869 -0.01497 0.73102
 O937 O 0.24876 0.01446 0.73116
 O938 O 0.26928 -0.01520 0.75145
 Cu939 Cu 0.23974 -0.00039 0.76069
 Cu940 Cu 0.26080 -0.00035 0.73954
 C941 C 0.26382 -0.02044 0.76351
 C942 C 0.23666 0.01963 0.73667
 C943 C 0.23659 -0.02011 0.73650
 C944 C 0.26392 0.01941 0.76372
 O945 O 0.24817 0.26897 0.98530
 O946 O 0.26900 0.24878 1.01473
 O947 O 0.26901 0.24876 0.98532
 O948 O 0.24822 0.26900 1.01473
 O949 O 0.23089 0.25122 1.01478
 O950 O 0.25168 0.23099 0.98535
 O951 O 0.25166 0.23100 1.01475
 O952 O 0.23084 0.25119 0.98535
 Cu953 Cu 0.26035 0.26068 1.00001
 Cu954 Cu 0.23952 0.23931 1.00005
 C955 C 0.23614 0.26334 0.98017
 C956 C 0.26368 0.23664 1.01990
 C957 C 0.26372 0.23660 0.98019
 C958 C 0.23621 0.26337 1.01993
 O959 O 0.24883 0.76916 0.48527
 O960 O 0.26911 0.74842 0.51473
 O961 O 0.26926 0.74857 0.48529
 O962 O 0.24888 0.76921 0.51469
 O963 O 0.23114 0.75184 0.51468
 O964 O 0.25151 0.73120 0.48524
 O965 O 0.25137 0.73105 0.51467
 O966 O 0.23109 0.75179 0.48526
 Cu967 Cu 0.26082 0.76059 0.50000
 Cu968 Cu 0.23949 0.73971 0.49996
 C969 C 0.23668 0.76382 0.48010
 C970 C 0.26351 0.73638 0.51987
 C971 C 0.26366 0.73656 0.48009
 C972 C 0.23673 0.76386 0.51984
 O973 O 0.26944 0.75129 -0.01492
 O974 O 0.24882 0.73097 0.01462
 O975 O 0.24892 0.73081 -0.01481
 O976 O 0.26953 0.75126 0.01454
 O977 O 0.25203 0.76890 0.01451
 O978 O 0.23143 0.74846 -0.01487
 O979 O 0.23132 0.74861 0.01455
 O980 O 0.25195 0.76893 -0.01492
 Cu981 Cu 0.26095 0.73930 -0.00014
 Cu982 Cu 0.23992 0.76050 -0.00019
 C983 C 0.26401 0.76339 -0.02011
 C984 C 0.23673 0.73651 0.01976
 C985 C 0.23686 0.73633 -0.02000
 C986 C 0.26410 0.76337 0.01968
 O987 O 0.26908 0.25133 0.48526
 O988 O 0.24856 0.23082 0.51468
 O989 O 0.24850 0.23089 0.48526
 O990 O 0.26907 0.25129 0.51469
 O991 O 0.25150 0.26887 0.51471
 O992 O 0.23094 0.24848 0.48530
 O993 O 0.23100 0.24840 0.51472
 O994 O 0.25151 0.26891 0.48530
 Cu995 Cu 0.26058 0.23930 0.49996
 Cu996 Cu 0.23947 0.26044 0.50001
 C997 C 0.26361 0.26343 0.48012
 C998 C 0.23647 0.23630 0.51987
 C999 C 0.23639 0.23639 0.48012
 C1000 C 0.26359 0.26337 0.51987
 O1001 O 0.75155 0.73113 0.98535
 O1002 O 0.73099 0.75160 1.01475
 O1003 O 0.73109 0.75170 0.98533
 O1004 O 0.75141 0.73103 1.01477
 O1005 O 0.76905 0.74850 1.01487
 O1006 O 0.74873 0.76917 0.98543
 O1007 O 0.74864 0.76907 1.01484
 O1008 O 0.76919 0.74860 0.98544
 Cu1009 Cu 0.73948 0.73960 1.00003
 Cu1010 Cu 0.76069 0.76060 1.00015
 C1011 C 0.76368 0.73656 0.98023
 C1012 C 0.73651 0.76364 1.01996
 C1013 C 0.73663 0.76377 0.98022
 C1014 C 0.76349 0.73645 1.02000
 O1015 O 0.74843 0.26876 0.48506
 O1016 O 0.76892 0.24833 0.51463
 O1017 O 0.76927 0.24855 0.48521
 O1018 O 0.74870 0.26914 0.51450
 O1019 O 0.73114 0.25160 0.51461
 O1020 O 0.75168 0.23103 0.48516
 O1021 O 0.75136 0.23078 0.51458
 O1022 O 0.73084 0.25123 0.48518
 Cu1023 Cu 0.76060 0.26047 0.49984
 Cu1024 Cu 0.73948 0.23939 0.49988
 C1025 C 0.73630 0.26328 0.47995
 C1026 C 0.76343 0.23623 0.51977
 C1027 C 0.76381 0.23647 0.48004
 C1028 C 0.73662 0.26371 0.51971
 O1029 O 0.76937 0.25103 -0.01484
 O1030 O 0.74838 0.23089 0.01450
 O1031 O 0.74820 0.23111 -0.01498
 O1032 O 0.76908 0.25117 0.01456
 O1033 O 0.75184 0.26908 0.01449
 O1034 O 0.73096 0.24900 -0.01493
 O1035 O 0.73115 0.24880 0.01454
 O1036 O 0.75212 0.26891 -0.01489
 Cu1037 Cu 0.76049 0.23923 -0.00021
 Cu1038 Cu 0.73977 0.26074 -0.00022
 C1039 C 0.76418 0.26325 -0.01997
 C1040 C 0.73641 0.23661 0.01971
 C1041 C 0.73618 0.23681 -0.02011
 C1042 C 0.76382 0.26338 0.01970
 O1043 O 0.73104 0.74891 0.48528
 O1044 O 0.75186 0.76905 0.51469
 O1045 O 0.75197 0.76899 0.48530
 O1046 O 0.73107 0.74887 0.51472
 O1047 O 0.74834 0.73101 0.51473
 O1048 O 0.76926 0.75114 0.48533
 O1049 O 0.76915 0.75120 0.51473
 O1050 O 0.74832 0.73105 0.48528
 Cu1051 Cu 0.73973 0.76075 0.49999
 Cu1052 Cu 0.76051 0.73929 0.50002
 C1053 C 0.73631 0.73673 0.48012
 C1054 C 0.76387 0.76339 0.51986
 C1055 C 0.76401 0.76333 0.48018
 C1056 C 0.73634 0.73670 0.51990
 O1057 O 1.01464 0.26913 0.24868
 O1058 O 0.98517 0.24844 0.26895
 O1059 O 1.01463 0.24848 0.26899
 O1060 O 0.98518 0.26914 0.24863
 O1061 O 0.98524 0.25175 0.23093
 O1062 O 1.01470 0.23109 0.25129
 O1063 O 0.98523 0.23104 0.25124
 O1064 O 1.01471 0.25173 0.23098
 Cu1065 Cu 0.99989 0.26056 0.26060
 Cu1066 Cu 0.99997 0.23964 0.23932
 C1067 C 1.01985 0.26377 0.23657
 C1068 C 0.98004 0.23639 0.26337
 C1069 C 1.01984 0.23646 0.26342
 C1070 C 0.98005 0.26379 0.23648
 O1071 O 0.51463 0.26886 0.74863
 O1072 O 0.48513 0.24831 0.76903
 O1073 O 0.51461 0.24828 0.76907
 O1074 O 0.48516 0.26889 0.74864
 O1075 O 0.48517 0.25141 0.73102
 O1076 O 0.51463 0.23080 0.75146
 O1077 O 0.48514 0.23083 0.75142
 O1078 O 0.51465 0.25138 0.73101
 Cu1079 Cu 0.49989 0.26035 0.76062
 Cu1080 Cu 0.49991 0.23934 0.73945
 C1081 C 0.51980 0.26345 0.73651
 C1082 C 0.47995 0.23626 0.76351
 C1083 C 0.51978 0.23620 0.76357
 C1084 C 0.47999 0.26348 0.73654
 O1085 O 0.01461 0.24834 0.73104
 O1086 O -0.01492 0.26905 0.75127
 O1087 O 0.01457 0.26900 0.75134
 O1088 O -0.01486 0.24833 0.73100
 O1089 O -0.01489 0.23095 0.74872
 O1090 O 0.01453 0.25161 0.76906
 O1091 O -0.01496 0.25166 0.76899
 O1092 O 0.01457 0.23095 0.74876
 Cu1093 Cu -0.00015 0.26044 0.73937
 Cu1094 Cu -0.00019 0.23954 0.76067
 C1095 C 0.01977 0.23630 0.73663
 C1096 C -0.02012 0.26370 0.76340
 C1097 C 0.01972 0.26363 0.76347
 C1098 C -0.02003 0.23629 0.73657
 O1099 O 0.48515 0.26865 0.25181
 O1100 O 0.51462 0.24828 0.23108
 O1101 O 0.48513 0.24829 0.23109
 O1102 O 0.51460 0.26887 0.25143
 O1103 O 0.51482 0.25128 0.26895
 O1104 O 0.48525 0.23072 0.24861
 O1105 O 0.51474 0.23069 0.24859
 O1106 O 0.48536 0.25108 0.26934
 Cu1107 Cu 0.49984 0.26029 0.23958
 Cu1108 Cu 0.50004 0.23916 0.26064
 C1109 C 0.48014 0.26319 0.26397
 C1110 C 0.51987 0.23620 0.23651
 C1111 C 0.48004 0.23617 0.23653
 C1112 C 0.51990 0.26340 0.26346
 O1113 O 1.01470 0.76921 0.74875
 O1114 O 0.98526 0.74856 0.76906
 O1115 O 1.01473 0.74853 0.76901
 O1116 O 0.98524 0.76916 0.74866
 O1117 O 0.98530 0.75175 0.73098
 O1118 O 1.01475 0.73111 0.75134
 O1119 O 0.98528 0.73114 0.75138
 O1120 O 1.01476 0.75178 0.73107
 Cu1121 Cu 0.99997 0.76062 0.76066
 Cu1122 Cu 1.00002 0.73968 0.73941
 C1123 C 1.01991 0.76382 0.73665
 C1124 C 0.98010 0.73652 0.76350
 C1125 C 1.01993 0.73650 0.76344
 C1126 C 0.98011 0.76379 0.73653
 O1127 O 0.51463 0.76909 0.24873
 O1128 O 0.48514 0.74848 0.26902
 O1129 O 0.51461 0.74845 0.26904
 O1130 O 0.48517 0.76907 0.24862
 O1131 O 0.48524 0.75163 0.23096
 O1132 O 0.51465 0.73100 0.25139
 O1133 O 0.48518 0.73104 0.25137
 O1134 O 0.51470 0.75164 0.23108
 Cu1135 Cu 0.49987 0.76053 0.26064
 Cu1136 Cu 0.49994 0.73956 0.23942
 C1137 C 0.51985 0.76368 0.23664
 C1138 C 0.47998 0.73644 0.26347
 C1139 C 0.51980 0.73641 0.26350
 C1140 C 0.48005 0.76368 0.23649
 O1141 O 0.01466 0.75175 0.26901
 O1142 O -0.01481 0.73111 0.24874
 O1143 O 0.01465 0.73118 0.24858
 O1144 O -0.01483 0.75188 0.26893
 O1145 O -0.01482 0.76927 0.25122
 O1146 O 0.01461 0.74857 0.23087
 O1147 O -0.01487 0.74850 0.23103
 O1148 O 0.01466 0.76914 0.25129
 Cu1149 Cu -0.00008 0.73972 0.26060
 Cu1150 Cu -0.00010 0.76063 0.23932
 C1151 C 0.01983 0.76378 0.26343
 C1152 C -0.02002 0.73647 0.23663
 C1153 C 0.01979 0.73653 0.23643
 C1154 C -0.02001 0.76391 0.26334
 O1155 O 0.48517 0.73116 0.74880
 O1156 O 0.51464 0.75173 0.76922
 O1157 O 0.48513 0.75179 0.76919
 O1158 O 0.51466 0.73116 0.74880
 O1159 O 0.51467 0.74863 0.73116
 O1160 O 0.48515 0.76925 0.75155
 O1161 O 0.51465 0.76920 0.75158
 O1162 O 0.48518 0.74862 0.73117
 Cu1163 Cu 0.49990 0.73970 0.76078
 Cu1164 Cu 0.49991 0.76069 0.73959
 C1165 C 0.48002 0.73656 0.73668
 C1166 C 0.51982 0.76379 0.76369
 C1167 C 0.47996 0.76385 0.76367
 C1168 C 0.51984 0.73656 0.73668
 C1169 C 0.44383 0.28288 0.28408
 C1170 C 0.44386 0.29820 0.28828
 C1171 C 0.43060 0.30487 0.29421
 C1172 C 0.41736 0.29620 0.29581
 C1173 C 0.41738 0.28084 0.29173
 C1174 C 0.43071 0.27411 0.28604
 C1175 C 0.43058 0.25863 0.28250
 C1176 C 0.41764 0.25006 0.28447
 C1177 C 0.40450 0.25671 0.28965
 C1178 C 0.40430 0.27192 0.29326
 C1179 C 0.43093 0.32018 0.29841
 C1180 C 0.44399 0.32865 0.29683
 C1181 C 0.45694 0.32214 0.29101
 C1182 C 0.45693 0.30709 0.28675
 C1183 C 0.40384 0.30293 0.30198
 C1184 C 0.39258 0.30833 0.30724
 C1185 C 0.45712 0.27622 0.27734
 C1186 C 0.46786 0.27046 0.27143
 H1187 H 0.44049 0.25294 0.27835
 H1188 H 0.41781 0.23817 0.28200
 H1189 H 0.39442 0.25004 0.29097
 H1190 H 0.39383 0.27657 0.29733
 H1191 H 0.42113 0.32574 0.30298
 H1192 H 0.44406 0.34034 0.30014
 H1193 H 0.46706 0.32877 0.28981
 H1194 H 0.46729 0.30251 0.28233
 C1195 C 0.44305 0.78341 0.78288
 C1196 C 0.43049 0.78639 0.77358
 C1197 C 0.41718 0.79263 0.77986
 C1198 C 0.41649 0.79583 0.79541
 C1199 C 0.42902 0.79275 0.80472
 C1200 C 0.44233 0.78652 0.79844
 C1201 C 0.45467 0.78346 0.80798
 C1202 C 0.45388 0.78644 0.82330
 C1203 C 0.44088 0.79254 0.82945
 C1204 C 0.42856 0.79569 0.82032
 C1205 C 0.40477 0.79546 0.77034
 C1206 C 0.40544 0.79217 0.75507
 C1207 C 0.41843 0.78604 0.74894
 C1208 C 0.43085 0.78318 0.75803
 C1209 C 0.40288 0.80221 0.80181
 C1210 C 0.39159 0.80752 0.80713
 C1211 C 0.45655 0.77683 0.77645
 C1212 C 0.46748 0.77111 0.77083
 H1213 H 0.46502 0.77870 0.80372
 H1214 H 0.46341 0.78399 0.83045
 H1215 H 0.44033 0.79482 0.84137
 H1216 H 0.41870 0.80042 0.82562
 H1217 H 0.39440 0.80020 0.77458
 H1218 H 0.39583 0.79437 0.74796
 H1219 H 0.41890 0.78349 0.73708
 H1220 H 0.44069 0.77840 0.75273
 C1221 C -0.05692 0.28339 0.78259
 C1222 C -0.06953 0.28637 0.77335
 C1223 C -0.08274 0.29276 0.77967
 C1224 C -0.08328 0.29610 0.79519
 C1225 C -0.07075 0.29293 0.80446
 C1226 C -0.05753 0.28656 0.79814
 C1227 C -0.04518 0.28341 0.80764
 C1228 C -0.04587 0.28644 0.82296
 C1229 C -0.05879 0.29267 0.82914
 C1230 C -0.07111 0.29592 0.82005
 C1231 C -0.09521 0.29559 0.77021
 C1232 C -0.09466 0.29215 0.75497
 C1233 C -0.08176 0.28589 0.74880
 C1234 C -0.06929 0.28303 0.75782
 C1235 C -0.09673 0.30272 0.80166
 C1236 C -0.10784 0.30820 0.80713
 C1237 C -0.04349 0.27675 0.77613
 C1238 C -0.03259 0.27099 0.77052
 H1239 H -0.03490 0.27854 0.80335
 H1240 H -0.03634 0.28391 0.83007
 H1241 H -0.05928 0.29498 0.84105
 H1242 H -0.08091 0.30075 0.82539
 H1243 H -0.10551 0.30043 0.77450
 H1244 H -0.10432 0.29434 0.74791
 H1245 H -0.08140 0.28322 0.73695
 H1246 H -0.05952 0.27814 0.75249
 C1247 C -0.05689 0.78354 0.28239
 C1248 C -0.07080 0.78211 0.27480
 C1249 C -0.08407 0.78830 0.28119
 C1250 C -0.08333 0.79600 0.29507
 C1251 C -0.06940 0.79751 0.30261
 C1252 C -0.05615 0.79124 0.29626
 C1253 C -0.04237 0.79285 0.30401
 C1254 C -0.04168 0.80047 0.31764
 C1255 C -0.05463 0.80662 0.32384
 C1256 C -0.06836 0.80518 0.31647
 C1257 C -0.09786 0.78663 0.27345
 C1258 C -0.09850 0.77917 0.25972
 C1259 C -0.08551 0.77323 0.25341
 C1260 C -0.07180 0.77459 0.26084
 C1261 C -0.09686 0.80241 0.30158
 C1262 C -0.10804 0.80777 0.30704
 C1263 C -0.04342 0.77693 0.27599
 C1264 C -0.03249 0.77118 0.27044
 H1265 H -0.03199 0.78828 0.29962
 H1266 H -0.03105 0.80160 0.32341
 H1267 H -0.05404 0.81253 0.33443
 H1268 H -0.07812 0.81016 0.32175
 H1269 H -0.10827 0.79108 0.27789
 H1270 H -0.10914 0.77801 0.25394
 H1271 H -0.08606 0.76752 0.24271
 H1272 H -0.06203 0.76973 0.25549
 C1273 C 0.55673 0.71697 0.28262
 C1274 C 0.57038 0.72512 0.28232
 C1275 C 0.58361 0.71876 0.28861
 C1276 C 0.58312 0.70426 0.29510
 C1277 C 0.56950 0.69604 0.29522
 C1278 C 0.55626 0.70243 0.28898
 C1279 C 0.54279 0.69400 0.28920
 C1280 C 0.54241 0.67964 0.29538
 C1281 C 0.55535 0.67338 0.30147
 C1282 C 0.56877 0.68144 0.30144
 C1283 C 0.59712 0.72713 0.28820
 C1284 C 0.59757 0.74135 0.28170
 C1285 C 0.58465 0.74755 0.27550
 C1286 C 0.57118 0.73959 0.27579
 C1287 C 0.59659 0.69782 0.30167
 C1288 C 0.60777 0.69248 0.30716
 C1289 C 0.54324 0.72351 0.27621
 C1290 C 0.53229 0.72919 0.27062
 H1291 H 0.53244 0.69839 0.28458
 H1292 H 0.53202 0.67334 0.29543
 H1293 H 0.55500 0.66222 0.30624
 H1294 H 0.57855 0.67609 0.30630
 H1295 H 0.60747 0.72278 0.29286
 H1296 H 0.60800 0.74759 0.28146
 H1297 H 0.58506 0.75859 0.27043
 H1298 H 0.56143 0.74490 0.27083
 C1299 C 0.55648 0.21653 0.78297
 C1300 C 0.56261 0.20326 0.77672
 C1301 C 0.57591 0.19693 0.78289
 C1302 C 0.58301 0.20391 0.79528
 C1303 C 0.57701 0.21731 0.80138
 C1304 C 0.56371 0.22364 0.79520
 C1305 C 0.55800 0.23711 0.80140
 C1306 C 0.56525 0.24416 0.81333
 C1307 C 0.57825 0.23797 0.81937
 C1308 C 0.58409 0.22468 0.81353
 C1309 C 0.58189 0.18372 0.77638
 C1310 C 0.57496 0.17700 0.76408
 C1311 C 0.56196 0.18320 0.75804
 C1312 C 0.55579 0.19616 0.76426
 C1313 C 0.59651 0.19735 0.80170
 C1314 C 0.60770 0.19196 0.80710
 C1315 C 0.54307 0.22318 0.77646
 C1316 C 0.53221 0.22893 0.77078
 H1317 H 0.54793 0.24237 0.79708
 H1318 H 0.56077 0.25449 0.81789
 H1319 H 0.58385 0.24350 0.82862
 H1320 H 0.59425 0.22032 0.81859
 H1321 H 0.59200 0.17850 0.78066
 H1322 H 0.57972 0.16695 0.75919
 H1323 H 0.55663 0.17796 0.74847
 H1324 H 0.54567 0.20056 0.75916
 C1325 C 1.05690 0.71704 0.78246
 C1326 C 1.05617 0.70304 0.78991
 C1327 C 1.06940 0.69664 0.79616
 C1328 C 1.08328 0.70433 0.79496
 C1329 C 1.08404 0.71828 0.78739
 C1330 C 1.07081 0.72464 0.78109
 C1331 C 1.07186 0.73855 0.77347
 C1332 C 1.08557 0.74597 0.77213
 C1333 C 1.09849 0.73978 0.77835
 C1334 C 1.09780 0.72610 0.78591
 C1335 C 1.06840 0.68258 0.80348
 C1336 C 1.05472 0.67506 0.80459
 C1337 C 1.04178 0.68133 0.79851
 C1338 C 1.04243 0.69516 0.79125
 C1339 C 1.09673 0.69788 0.80157
 C1340 C 1.10783 0.69246 0.80714
 C1341 C 1.04340 0.72360 0.77608
 C1342 C 1.03245 0.72929 0.77053
 H1343 H 1.06213 0.74384 0.76845
 H1344 H 1.08617 0.75659 0.76624
 H1345 H 1.10911 0.74560 0.77730
 H1346 H 1.10815 0.72173 0.79054
 H1347 H 1.07816 0.67723 0.80838
 H1348 H 1.05417 0.66429 0.81020
 H1349 H 1.03118 0.67544 0.79940
 H1350 H 1.03206 0.69959 0.78668
 C1351 C 1.05670 0.21698 0.28265
 C1352 C 1.05644 0.20208 0.28815
 C1353 C 1.06967 0.19566 0.29438
 C1354 C 1.08307 0.20420 0.29513
 C1355 C 1.08336 0.21906 0.28949
 C1356 C 1.07014 0.22546 0.28322
 C1357 C 1.07072 0.24032 0.27759
 C1358 C 1.08399 0.24860 0.27813
 C1359 C 1.09691 0.24234 0.28428
 C1360 C 1.09666 0.22775 0.28992
 C1361 C 1.06916 0.18071 0.29973
 C1362 C 1.05595 0.17235 0.29894
 C1363 C 1.04302 0.17864 0.29286
 C1364 C 1.04319 0.19334 0.28752
 C1365 C 1.09650 0.19772 0.30173
 C1366 C 1.10762 0.19233 0.30728
 C1367 C 1.04324 0.22353 0.27618
 C1368 C 1.03231 0.22922 0.27056
 H1369 H 1.06097 0.24568 0.27271
 H1370 H 1.08424 0.25993 0.27376
 H1371 H 1.10718 0.24882 0.28467
 H1372 H 1.10701 0.22337 0.29457
 H1373 H 1.07893 0.17532 0.30454
 H1374 H 1.05577 0.16092 0.30305
 H1375 H 1.03279 0.17210 0.29227
 H1376 H 1.03285 0.19774 0.28289
 C1377 C 0.55644 0.28309 0.71702
 C1378 C 0.56031 0.29814 0.72034
 C1379 C 0.57358 0.30451 0.71414
 C1380 C 0.58290 0.29579 0.70465
 C1381 C 0.57914 0.28068 0.70149
 C1382 C 0.56588 0.27431 0.70769
 C1383 C 0.56241 0.25915 0.70446
 C1384 C 0.57181 0.25051 0.69540
 C1385 C 0.58477 0.25674 0.68934
 C1386 C 0.58844 0.27165 0.69229
 C1387 C 0.57726 0.31953 0.71772
 C1388 C 0.56812 0.32801 0.72718
 C1389 C 0.55515 0.32179 0.73323
 C1390 C 0.55122 0.30704 0.72987
 C1391 C 0.59635 0.30236 0.69816
 C1392 C 0.60750 0.30778 0.69271
 C1393 C 0.54306 0.27648 0.72359
 C1394 C 0.53221 0.27073 0.72930
 H1395 H 0.55246 0.25380 0.70892
 H1396 H 0.56901 0.23892 0.69310
 H1397 H 0.59204 0.24997 0.68233
 H1398 H 0.59866 0.27598 0.68734
 H1399 H 0.58725 0.32486 0.71331
 H1400 H 0.57114 0.33947 0.72985
 H1401 H 0.54810 0.32842 0.74059
 H1402 H 0.54102 0.30269 0.73486
 C1403 C 0.55680 0.78312 0.21763
 C1404 C 0.55632 0.79765 0.21124
 C1405 C 0.56957 0.80403 0.20503
 C1406 C 0.58320 0.79581 0.20520
 C1407 C 0.58371 0.78133 0.21173
 C1408 C 0.57047 0.77497 0.21799
 C1409 C 0.57127 0.76051 0.22455
 C1410 C 0.58476 0.75257 0.22490
 C1411 C 0.59769 0.75876 0.21873
 C1412 C 0.59724 0.77297 0.21219
 C1413 C 0.56883 0.81862 0.19878
 C1414 C 0.55540 0.82667 0.19869
 C1415 C 0.54245 0.82041 0.20475
 C1416 C 0.54283 0.80607 0.21095
 C1417 C 0.59666 0.80225 0.19862
 C1418 C 0.60778 0.80763 0.19309
 C1419 C 0.54330 0.77658 0.22401
 C1420 C 0.53235 0.77090 0.22956
 H1421 H 0.56152 0.75521 0.22949
 H1422 H 0.58517 0.74154 0.22999
 H1423 H 0.60814 0.75253 0.21902
 H1424 H 0.60760 0.77732 0.20756
 H1425 H 0.57861 0.82397 0.19395
 H1426 H 0.55505 0.83783 0.19390
 H1427 H 0.53204 0.82671 0.20465
 H1428 H 0.53247 0.80168 0.21554
 C1429 C 1.05673 0.28325 0.21744
 C1430 C 1.06996 0.27448 0.21615
 C1431 C 1.08318 0.28085 0.20986
 C1432 C 1.08310 0.29596 0.20494
 C1433 C 1.06994 0.30478 0.20642
 C1434 C 1.05671 0.29840 0.21268
 C1435 C 1.04370 0.30744 0.21409
 C1436 C 1.04376 0.32238 0.20948
 C1437 C 1.05670 0.32863 0.20338
 C1438 C 1.06966 0.31998 0.20182
 C1439 C 1.09626 0.27187 0.20870
 C1440 C 1.09630 0.25704 0.21367
 C1441 C 1.08339 0.25082 0.21985
 C1442 C 1.07034 0.25938 0.22109
 C1443 C 1.09655 0.30243 0.19836
 C1444 C 1.10769 0.30780 0.19286
 C1445 C 1.04326 0.27671 0.22388
 C1446 C 1.03233 0.27101 0.22947
 H1447 H 1.03337 0.30307 0.21879
 H1448 H 1.03372 0.32914 0.21068
 H1449 H 1.05669 0.34025 0.19983
 H1450 H 1.07945 0.32536 0.19702
 H1451 H 1.10659 0.27622 0.20400
 H1452 H 1.10642 0.25035 0.21273
 H1453 H 1.08349 0.23930 0.22371
 H1454 H 1.06058 0.25403 0.22598
 C1455 C 1.05685 0.78326 0.71763
 C1456 C 1.07068 0.77544 0.71866
 C1457 C 1.08391 0.78174 0.71233
 C1458 C 1.08324 0.79588 0.70508
 C1459 C 1.06945 0.80379 0.70425
 C1460 C 1.05622 0.79745 0.71053
 C1461 C 1.04257 0.80557 0.70959
 C1462 C 1.04203 0.81959 0.70269
 C1463 C 1.05497 0.82580 0.69655
 C1464 C 1.06855 0.81804 0.69727
 C1465 C 1.09758 0.77369 0.71345
 C1466 C 1.09820 0.75986 0.72073
 C1467 C 1.08528 0.75373 0.72700
 C1468 C 1.07165 0.76136 0.72599
 C1469 C 1.09671 0.80229 0.69851
 C1470 C 1.10785 0.80766 0.69299
 C1471 C 1.04335 0.77674 0.72401
 C1472 C 1.03240 0.77105 0.72957
 H1473 H 1.03221 0.80121 0.71422
 H1474 H 1.03151 0.82567 0.70211
 H1475 H 1.05449 0.83670 0.69121
 H1476 H 1.07831 0.82334 0.69235
 H1477 H 1.10794 0.77801 0.70877
 H1478 H 1.10876 0.75387 0.72151
 H1479 H 1.08583 0.74299 0.73267
 H1480 H 1.06192 0.75612 0.73104
 C1481 C 0.44339 0.71684 0.71724
 C1482 C 0.43948 0.72003 0.70218
 C1483 C 0.42624 0.71372 0.69588
 C1484 C 0.41699 0.70423 0.70468
 C1485 C 0.42079 0.70122 0.71981
 C1486 C 0.43402 0.70754 0.72611
 C1487 C 0.43752 0.70445 0.74130
 C1488 C 0.42818 0.69543 0.75002
 C1489 C 0.41524 0.68926 0.74387
 C1490 C 0.41154 0.69206 0.72893
 C1491 C 0.42250 0.71718 0.68084
 C1492 C 0.43155 0.72664 0.67228
 C1493 C 0.44450 0.73280 0.67843
 C1494 C 0.44849 0.72955 0.69320
 C1495 C 0.40358 0.69761 0.69817
 C1496 C 0.39246 0.69214 0.69272
 C1497 C 0.45677 0.72350 0.72378
 C1498 C 0.46761 0.72928 0.72947
 H1499 H 0.44746 0.70900 0.74660
 H1500 H 0.43100 0.69324 0.76164
 H1501 H 0.40801 0.68229 0.75070
 H1502 H 0.40134 0.68704 0.72466
 H1503 H 0.41252 0.71270 0.67556
 H1504 H 0.42849 0.72922 0.66081
 H1505 H 0.45149 0.74015 0.67174
 H1506 H 0.45866 0.73462 0.69749
 C1507 C 0.44360 0.21648 0.21673
 C1508 C 0.44449 0.20955 0.20247
 C1509 C 0.43144 0.20307 0.19594
 C1510 C 0.41758 0.20353 0.20374
 C1511 C 0.41665 0.21061 0.21793
 C1512 C 0.42967 0.21716 0.22441
 C1513 C 0.42840 0.22439 0.23850
 C1514 C 0.41465 0.22511 0.24595
 C1515 C 0.40194 0.21860 0.23968
 C1516 C 0.40287 0.21139 0.22584
 C1517 C 0.43260 0.19630 0.18163
 C1518 C 0.44624 0.19599 0.17395
 C1519 C 0.45900 0.20232 0.18033
 C1520 C 0.45821 0.20901 0.19444
 C1521 C 0.40422 0.19693 0.19712
 C1522 C 0.39303 0.19155 0.19172
 C1523 C 0.45690 0.22311 0.22344
 C1524 C 0.46769 0.22887 0.22925
 H1525 H 0.43795 0.22963 0.24387
 H1526 H 0.41384 0.23077 0.25664
 H1527 H 0.39130 0.21917 0.24554
 H1528 H 0.39266 0.20652 0.22141
 H1529 H 0.42298 0.19124 0.17620
 H1530 H 0.44691 0.19082 0.16298
 H1531 H 0.46956 0.20207 0.17431
 H1532 H 0.46842 0.21381 0.19893
 C1533 C -0.05688 0.71679 0.21770
 C1534 C -0.05579 0.70710 0.20517
 C1535 C -0.06902 0.70080 0.19883
 C1536 C -0.08326 0.70428 0.20503
 C1537 C -0.08434 0.71392 0.21761
 C1538 C -0.07111 0.72013 0.22402
 C1539 C -0.07247 0.72956 0.23673
 C1540 C -0.08649 0.73276 0.24293
 C1541 C -0.09943 0.72683 0.23657
 C1542 C -0.09844 0.71751 0.22405
 C1543 C -0.06763 0.69109 0.18634
 C1544 C -0.05358 0.68768 0.18031
 C1545 C -0.04066 0.69385 0.18651
 C1546 C -0.04169 0.70346 0.19879
 C1547 C -0.09677 0.69787 0.19851
 C1548 C -0.10795 0.69254 0.19307
 C1549 C -0.04343 0.72343 0.22405
 C1550 C -0.03250 0.72920 0.22957
 H1551 H -0.06273 0.73450 0.24207
 H1552 H -0.08731 0.73988 0.25274
 H1553 H -0.11030 0.72941 0.24138
 H1554 H -0.10883 0.71313 0.21952
 H1555 H -0.07736 0.68602 0.18112
 H1556 H -0.05272 0.68021 0.17077
 H1557 H -0.02977 0.69116 0.18179
 H1558 H -0.03132 0.70797 0.20324
 C1559 C -0.05666 0.21658 0.71722
 C1560 C -0.06133 0.22083 0.70264
 C1561 C -0.07459 0.21454 0.69638
 C1562 C -0.08309 0.20401 0.70473
 C1563 C -0.07856 0.19995 0.71941
 C1564 C -0.06530 0.20626 0.72567
 C1565 C -0.06104 0.20211 0.74040
 C1566 C -0.06967 0.19207 0.74873
 C1567 C -0.08263 0.18591 0.74262
 C1568 C -0.08707 0.18974 0.72812
 C1569 C -0.07910 0.21905 0.68183
 C1570 C -0.07078 0.22953 0.67373
 C1571 C -0.05781 0.23567 0.67985
 C1572 C -0.05307 0.23140 0.69412
 C1573 C -0.09650 0.19740 0.69821
 C1574 C -0.10759 0.19195 0.69269
 C1575 C -0.04328 0.22323 0.72373
 C1576 C -0.03243 0.22900 0.72939
 H1577 H -0.05105 0.20661 0.74566
 H1578 H -0.06628 0.18907 0.76001
 H1579 H -0.08931 0.17814 0.74915
 H1580 H -0.09726 0.18468 0.72386
 H1581 H -0.08913 0.21462 0.67660
 H1582 H -0.07443 0.23291 0.66264
 H1583 H -0.05139 0.24382 0.67351
 H1584 H -0.04292 0.23651 0.69841
 C1585 C 0.28308 0.44335 0.28249
 C1586 C 0.28777 0.44333 0.29766
 C1587 C 0.29403 0.43011 0.30404
 C1588 C 0.29555 0.41698 0.29522
 C1589 C 0.29073 0.41696 0.28007
 C1590 C 0.28446 0.43018 0.27370
 C1591 C 0.27960 0.42985 0.25857
 C1592 C 0.28091 0.41684 0.25000
 C1593 C 0.28709 0.40394 0.25622
 C1594 C 0.29198 0.40393 0.27107
 C1595 C 0.29861 0.43035 0.31925
 C1596 C 0.29698 0.44326 0.32792
 C1597 C 0.29083 0.45618 0.32168
 C1598 C 0.28628 0.45628 0.30673
 C1599 C 0.30196 0.40349 0.30175
 C1600 C 0.30731 0.39232 0.30722
 C1601 C 0.27656 0.45680 0.27598
 C1602 C 0.27088 0.46771 0.27034
 H1603 H 0.27472 0.43961 0.25322
 H1604 H 0.27710 0.41678 0.23846
 H1605 H 0.28809 0.39386 0.24950
 H1606 H 0.29670 0.39361 0.27541
 H1607 H 0.30344 0.42058 0.32461
 H1608 H 0.30050 0.44324 0.33954
 H1609 H 0.28956 0.46617 0.32847
 H1610 H 0.28155 0.46660 0.30238
 C1611 C 0.28334 -0.05738 0.78268
 C1612 C 0.27634 -0.07148 0.78045
 C1613 C 0.28280 -0.08467 0.78672
 C1614 C 0.29624 -0.08370 0.79518
 C1615 C 0.30327 -0.06961 0.79734
 C1616 C 0.29680 -0.05642 0.79108
 C1617 C 0.30405 -0.04248 0.79339
 C1618 C 0.31732 -0.04159 0.80163
 C1619 C 0.32365 -0.05447 0.80774
 C1620 C 0.31675 -0.06835 0.80567
 C1621 C 0.27560 -0.09862 0.78432
 C1622 C 0.26241 -0.09953 0.77595
 C1623 C 0.25610 -0.08665 0.76981
 C1624 C 0.26292 -0.07275 0.77201
 C1625 C 0.30279 -0.09716 0.80170
 C1626 C 0.30824 -0.10830 0.80719
 C1627 C 0.27673 -0.04392 0.77622
 C1628 C 0.27103 -0.03298 0.77062
 H1629 H 0.29955 -0.03215 0.78885
 H1630 H 0.32272 -0.03083 0.80326
 H1631 H 0.33397 -0.05372 0.81413
 H1632 H 0.32211 -0.07806 0.81065
 H1633 H 0.28008 -0.10896 0.78886
 H1634 H 0.25706 -0.11030 0.77421
 H1635 H 0.24585 -0.08742 0.76331
 H1636 H 0.25758 -0.06306 0.76701
 C1637 C 0.78349 0.44331 0.78288
 C1638 C 0.78072 0.43970 0.79810
 C1639 C 0.78698 0.42643 0.80439
 C1640 C 0.79599 0.41686 0.79542
 C1641 C 0.79854 0.42035 0.78013
 C1642 C 0.79227 0.43361 0.77384
 C1643 C 0.79488 0.43680 0.75850
 C1644 C 0.80340 0.42714 0.74961
 C1645 C 0.80953 0.41417 0.75576
 C1646 C 0.80719 0.41077 0.77085
 C1647 C 0.78396 0.42300 0.81960
 C1648 C 0.77496 0.43237 0.82833
 C1649 C 0.76885 0.44534 0.82218
 C1650 C 0.77168 0.44904 0.80725
 C1651 C 0.80257 0.40344 0.80194
 C1652 C 0.80801 0.39233 0.80744
 C1653 C 0.77688 0.45672 0.77636
 C1654 C 0.77113 0.46759 0.77071
 H1655 H 0.79034 0.44674 0.75319
 H1656 H 0.80522 0.42972 0.73788
 H1657 H 0.81611 0.40669 0.74880
 H1658 H 0.81216 0.40054 0.77511
 H1659 H 0.78843 0.41301 0.82489
 H1660 H 0.77271 0.42953 0.83992
 H1661 H 0.76186 0.45258 0.82900
 H1662 H 0.76666 0.45924 0.80297
 C1663 C 0.78344 -0.05699 0.28277
 C1664 C 0.78129 -0.06023 0.29817
 C1665 C 0.78750 -0.07352 0.30446
 C1666 C 0.79585 -0.08350 0.29531
 C1667 C 0.79780 -0.08038 0.27985
 C1668 C 0.79157 -0.06709 0.27356
 C1669 C 0.79356 -0.06429 0.25805
 C1670 C 0.80143 -0.07433 0.24900
 C1671 C 0.80754 -0.08731 0.25515
 C1672 C 0.80580 -0.09034 0.27040
 C1673 C 0.78511 -0.07656 0.31987
 C1674 C 0.77675 -0.06679 0.32879
 C1675 C 0.77067 -0.05380 0.32264
 C1676 C 0.77290 -0.05049 0.30752
 C1677 C 0.80237 -0.09698 0.30179
 C1678 C 0.80776 -0.10813 0.30726
 C1679 C 0.77689 -0.04354 0.27627
 C1680 C 0.77119 -0.03265 0.27062
 H1681 H 0.78901 -0.05435 0.25274
 H1682 H 0.80279 -0.07204 0.23715
 H1683 H 0.81364 -0.09508 0.24807
 H1684 H 0.81073 -0.10060 0.27465
 H1685 H 0.78958 -0.08654 0.32516
 H1686 H 0.77497 -0.06932 0.34053
 H1687 H 0.76417 -0.04626 0.32961
 H1688 H 0.76793 -0.04026 0.30324
 C1689 C 0.28294 0.55657 0.71704
 C1690 C 0.27373 0.56917 0.71396
 C1691 C 0.28015 0.58239 0.70774
 C1692 C 0.29576 0.58293 0.70464
 C1693 C 0.30499 0.57039 0.70789
 C1694 C 0.29856 0.55717 0.71410
 C1695 C 0.30802 0.54480 0.71729
 C1696 C 0.32341 0.54548 0.71449
 C1697 C 0.32970 0.55841 0.70844
 C1698 C 0.32065 0.57075 0.70513
 C1699 C 0.27073 0.59486 0.70482
 C1700 C 0.25540 0.59431 0.70799
 C1701 C 0.24912 0.58140 0.71407
 C1702 C 0.25811 0.56893 0.71702
 C1703 C 0.30230 0.59637 0.69810
 C1704 C 0.30772 0.60750 0.69263
 C1705 C 0.27637 0.54316 0.72358
 C1706 C 0.27068 0.53228 0.72928
 H1707 H 0.30364 0.53450 0.72202
 H1708 H 0.33048 0.53593 0.71704
 H1709 H 0.34167 0.55889 0.70630
 H1710 H 0.32607 0.58056 0.70046
 H1711 H 0.27510 0.60517 0.70012
 H1712 H 0.24837 0.60397 0.70573
 H1713 H 0.23721 0.58103 0.71652
 H1714 H 0.25270 0.55915 0.72175
 C1715 C 0.28276 1.05660 0.21680
 C1716 C 0.27583 1.07070 0.21927
 C1717 C 0.28240 1.08393 0.21326
 C1718 C 0.29577 1.08297 0.20469
 C1719 C 0.30260 1.06884 0.20208
 C1720 C 0.29608 1.05562 0.20818
 C1721 C 0.30311 1.04163 0.20545
 C1722 C 0.31618 1.04072 0.19689
 C1723 C 0.32254 1.05364 0.19090
 C1724 C 0.31589 1.06757 0.19344
 C1725 C 0.27533 1.09791 0.21598
 C1726 C 0.26206 1.09877 0.22424
 C1727 C 0.25555 1.08582 0.22997
 C1728 C 0.26234 1.07192 0.22763
 C1729 C 0.30236 1.09647 0.19838
 C1730 C 0.30773 1.10768 0.19306
 C1731 C 0.27625 1.04316 0.22330
 C1732 C 0.27062 1.03227 0.22899
 H1733 H 0.29856 1.03126 0.20985
 H1734 H 0.32139 1.02992 0.19488
 H1735 H 0.33269 1.05286 0.18424
 H1736 H 0.32126 1.07730 0.18855
 H1737 H 0.27995 1.10831 0.21172
 H1738 H 0.25678 1.10955 0.22617
 H1739 H 0.24517 1.08653 0.23627
 H1740 H 0.25686 1.06217 0.23237
 C1741 C 0.78288 0.55682 0.21732
 C1742 C 0.77577 0.57087 0.21957
 C1743 C 0.78215 0.58409 0.21333
 C1744 C 0.79560 0.58319 0.20488
 C1745 C 0.80273 0.56914 0.20268
 C1746 C 0.79635 0.55592 0.20892
 C1747 C 0.80368 0.54201 0.20660
 C1748 C 0.81697 0.54119 0.19837
 C1749 C 0.82322 0.55412 0.19227
 C1750 C 0.81623 0.56796 0.19436
 C1751 C 0.77484 0.59801 0.21574
 C1752 C 0.76163 0.59884 0.22411
 C1753 C 0.75540 0.58591 0.23023
 C1754 C 0.76233 0.57206 0.22801
 C1755 C 0.80208 0.59669 0.19842
 C1756 C 0.80746 0.60786 0.19300
 C1757 C 0.77639 0.54336 0.22380
 C1758 C 0.77073 0.53245 0.22946
 H1759 H 0.79924 0.53165 0.21112
 H1760 H 0.82244 0.53046 0.19672
 H1761 H 0.83355 0.55342 0.18589
 H1762 H 0.82153 0.57770 0.18940
 H1763 H 0.77926 0.60838 0.21122
 H1764 H 0.75621 0.60957 0.22587
 H1765 H 0.74515 0.58661 0.23673
 H1766 H 0.75704 0.56233 0.23299
 C1767 C 0.78306 1.05666 0.71733
 C1768 C 0.79247 1.05556 0.70458
 C1769 C 0.79886 1.06874 0.69825
 C1770 C 0.79578 1.08294 0.70471
 C1771 C 0.78631 1.08403 0.71744
 C1772 C 0.77993 1.07085 0.72377
 C1773 C 0.77046 1.07223 0.73647
 C1774 C 0.76738 1.08622 0.74274
 C1775 C 0.77363 1.09911 0.73655
 C1776 C 0.78300 1.09809 0.72406
 C1777 C 0.80821 1.06736 0.68548
 C1778 C 0.81115 1.05337 0.67913
 C1779 C 0.80490 1.04049 0.68532
 C1780 C 0.79566 1.04151 0.69791
 C1781 C 0.80228 1.09639 0.69819
 C1782 C 0.80770 1.10750 0.69267
 C1783 C 0.77649 1.04323 0.72382
 C1784 C 0.77076 1.03238 0.72949
 H1785 H 0.76532 1.06254 0.74169
 H1786 H 0.76010 1.08707 0.75244
 H1787 H 0.77119 1.10995 0.74146
 H1788 H 0.78759 1.10844 0.71965
 H1789 H 0.81334 1.07705 0.68025
 H1790 H 0.81832 1.05252 0.66935
 H1791 H 0.80721 1.02965 0.68035
 H1792 H 0.79104 1.03118 0.70232
 C1793 C 0.71687 0.55673 0.28297
 C1794 C 0.70246 0.56160 0.27829
 C1795 C 0.69614 0.57489 0.28446
 C1796 C 0.70426 0.58323 0.29527
 C1797 C 0.71878 0.57851 0.29975
 C1798 C 0.72511 0.56523 0.29358
 C1799 C 0.73970 0.56080 0.29812
 C1800 C 0.74782 0.56929 0.30844
 C1801 C 0.74162 0.58227 0.31449
 C1802 C 0.72726 0.58686 0.31026
 C1803 C 0.68176 0.57958 0.27953
 C1804 C 0.67390 0.57142 0.26875
 C1805 C 0.68010 0.55844 0.26271
 C1806 C 0.69420 0.55351 0.26741
 C1807 C 0.69772 0.59667 0.30175
 C1808 C 0.69233 0.60782 0.30722
 C1809 C 0.72343 0.54329 0.27651
 C1810 C 0.72914 0.53240 0.27088
 H1811 H 0.74500 0.55080 0.29372
 H1812 H 0.75899 0.56578 0.31173
 H1813 H 0.74799 0.58883 0.32249
 H1814 H 0.72294 0.59706 0.31526
 H1815 H 0.67649 0.58963 0.28387
 H1816 H 0.66295 0.57521 0.26505
 H1817 H 0.67396 0.55215 0.25432
 H1818 H 0.69855 0.54335 0.26237
 C1819 C 0.71686 1.05712 0.78296
 C1820 C 0.70145 1.06035 0.78067
 C1821 C 0.69507 1.07361 0.78684
 C1822 C 0.70413 1.08357 0.79528
 C1823 C 0.71960 1.08047 0.79735
 C1824 C 0.72600 1.06722 0.79116
 C1825 C 0.74152 1.06445 0.79325
 C1826 C 0.75048 1.07448 0.80122
 C1827 C 0.74422 1.08741 0.80731
 C1828 C 0.72897 1.09042 0.80546
 C1829 C 0.67966 1.07663 0.78432
 C1830 C 0.67082 1.06688 0.77587
 C1831 C 0.67707 1.05392 0.76983
 C1832 C 0.69220 1.05062 0.77219
 C1833 C 0.69757 1.09701 0.80178
 C1834 C 0.69217 1.10816 0.80725
 C1835 C 0.72344 1.04365 0.77653
 C1836 C 0.72912 1.03272 0.77093
 H1837 H 0.74691 1.05455 0.78872
 H1838 H 0.76235 1.07221 0.80267
 H1839 H 0.75123 1.09517 0.81349
 H1840 H 0.72463 1.10064 0.81039
 H1841 H 0.67429 1.08659 0.78876
 H1842 H 0.65907 1.06940 0.77399
 H1843 H 0.67018 1.04639 0.76326
 H1844 H 0.69655 1.04041 0.76725
 C1845 C 0.21673 0.55653 0.78299
 C1846 C 0.22475 0.56471 0.79400
 C1847 C 0.21843 0.57800 0.80018
 C1848 C 0.20413 0.58302 0.79532
 C1849 C 0.19624 0.57498 0.78411
 C1850 C 0.20256 0.56169 0.77794
 C1851 C 0.19451 0.55388 0.76669
 C1852 C 0.18064 0.55910 0.76163
 C1853 C 0.17447 0.57210 0.76766
 C1854 C 0.18211 0.57998 0.77879
 C1855 C 0.22670 0.58606 0.81108
 C1856 C 0.24084 0.58116 0.81572
 C1857 C 0.24701 0.56816 0.80969
 C1858 C 0.23909 0.55997 0.79897
 C1859 C 0.19755 0.59641 0.80187
 C1860 C 0.19211 0.60750 0.80739
 C1861 C 0.22332 0.54312 0.77649
 C1862 C 0.22904 0.53225 0.77082
 H1863 H 0.19886 0.54372 0.76165
 H1864 H 0.17467 0.55303 0.75297
 H1865 H 0.16371 0.57613 0.76367
 H1866 H 0.17687 0.59006 0.78311
 H1867 H 0.22239 0.59626 0.81608
 H1868 H 0.24704 0.58749 0.82401
 H1869 H 0.25799 0.56440 0.81331
 H1870 H 0.24437 0.54993 0.79461
 C1871 C 0.21742 1.05681 0.28306
 C1872 C 0.22434 1.07092 0.28069
 C1873 C 0.21775 1.08413 0.28676
 C1874 C 0.20437 1.08312 0.29532
 C1875 C 0.19754 1.06898 0.29781
 C1876 C 0.20408 1.05579 0.29165
 C1877 C 0.19707 1.04179 0.29430
 C1878 C 0.18397 1.04084 0.30281
 C1879 C 0.17758 1.05373 0.30885
 C1880 C 0.18423 1.06767 0.30640
 C1881 C 0.22480 1.09812 0.28413
 C1882 C 0.23808 1.09902 0.27589
 C1883 C 0.24463 1.08609 0.27011
 C1884 C 0.23785 1.07219 0.27237
 C1885 C 0.19775 1.09656 0.30174
 C1886 C 0.19228 1.10768 0.30719
 C1887 C 0.22394 1.04339 0.27650
 C1888 C 0.22955 1.03247 0.27080
 H1889 H 0.20164 1.03145 0.28986
 H1890 H 0.17877 1.03003 0.30475
 H1891 H 0.16741 1.05292 0.31547
 H1892 H 0.17882 1.07737 0.31132
 H1893 H 0.22015 1.10849 0.28843
 H1894 H 0.24335 1.10981 0.27402
 H1895 H 0.25502 1.08684 0.26384
 H1896 H 0.24335 1.06246 0.26759
 C1897 C 0.71675 0.44335 0.71722
 C1898 C 0.70586 0.43509 0.72535
 C1899 C 0.69956 0.42185 0.71906
 C1900 C 0.70420 0.41693 0.70467
 C1901 C 0.71527 0.42506 0.69665
 C1902 C 0.72156 0.43830 0.70294
 C1903 C 0.73268 0.44616 0.69475
 C1904 C 0.73750 0.44106 0.68077
 C1905 C 0.73135 0.42812 0.67462
 C1906 C 0.72034 0.42018 0.68240
 C1907 C 0.68877 0.41374 0.72745
 C1908 C 0.68437 0.41853 0.74167
 C1909 C 0.69053 0.43147 0.74782
 C1910 C 0.70112 0.43972 0.73979
 C1911 C 0.69764 0.40349 0.69815
 C1912 C 0.69222 0.39236 0.69268
 C1913 C 0.72339 0.45673 0.72378
 C1914 C 0.72915 0.46758 0.72946
 H1915 H 0.73781 0.45629 0.69907
 H1916 H 0.74607 0.44718 0.67470
 H1917 H 0.73515 0.42420 0.66377
 H1918 H 0.71592 0.41016 0.67716
 H1919 H 0.68368 0.40359 0.72315
 H1920 H 0.67615 0.41216 0.74796
 H1921 H 0.68709 0.43513 0.75888
 H1922 H 0.70559 0.44970 0.74506
 C1923 C 0.71709 -0.05683 0.21708
 C1924 C 0.72569 -0.06593 0.20728
 C1925 C 0.71931 -0.07920 0.20113
 C1926 C 0.70438 -0.08327 0.20481
 C1927 C 0.69588 -0.07430 0.21483
 C1928 C 0.70225 -0.06103 0.22096
 C1929 C 0.69357 -0.05228 0.23100
 C1930 C 0.67903 -0.05656 0.23492
 C1931 C 0.67281 -0.06954 0.22894
 C1932 C 0.68107 -0.07834 0.21898
 C1933 C 0.72817 -0.08818 0.19145
 C1934 C 0.74290 -0.08419 0.18798
 C1935 C 0.74913 -0.07122 0.19398
 C1936 C 0.74066 -0.06214 0.20351
 C1937 C 0.69777 -0.09665 0.19828
 C1938 C 0.69232 -0.10775 0.19279
 C1939 C 0.72371 -0.04344 0.22357
 C1940 C 0.72945 -0.03258 0.22923
 H1941 H 0.69793 -0.04209 0.23596
 H1942 H 0.67258 -0.04977 0.24266
 H1943 H 0.66152 -0.07283 0.23204
 H1944 H 0.67575 -0.08836 0.21465
 H1945 H 0.72384 -0.09839 0.18653
 H1946 H 0.74954 -0.09122 0.18060
 H1947 H 0.76059 -0.06818 0.19126
 H1948 H 0.74601 -0.05216 0.20790
 C1949 C 0.21683 0.44351 0.21693
 C1950 C 0.20208 0.43914 0.22098
 C1951 C 0.19575 0.42585 0.21482
 C1952 C 0.20421 0.41703 0.20465
 C1953 C 0.21905 0.42127 0.20080
 C1954 C 0.22538 0.43455 0.20696
 C1955 C 0.24029 0.43849 0.20305
 C1956 C 0.24871 0.42956 0.19335
 C1957 C 0.24251 0.41659 0.18730
 C1958 C 0.22785 0.41246 0.19092
 C1959 C 0.18103 0.42165 0.21912
 C1960 C 0.17282 0.43029 0.22926
 C1961 C 0.17900 0.44327 0.23528
 C1962 C 0.19345 0.44772 0.23120
 C1963 C 0.19767 0.40358 0.19819
 C1964 C 0.19226 0.39244 0.19277
 C1965 C 0.22340 0.45692 0.22342
 C1966 C 0.22912 0.46779 0.22907
 H1967 H 0.24561 0.44847 0.20747
 H1968 H 0.26011 0.43271 0.19053
 H1969 H 0.24911 0.40968 0.17979
 H1970 H 0.22354 0.40225 0.18595
 H1971 H 0.17574 0.41162 0.21477
 H1972 H 0.16160 0.42687 0.23248
 H1973 H 0.17259 0.44993 0.24317
 H1974 H 0.19778 0.45790 0.23620
 C1975 C 0.21697 -0.05666 0.71697
 C1976 C 0.22540 -0.06541 0.70670
 C1977 C 0.21908 -0.07868 0.70051
 C1978 C 0.20436 -0.08312 0.70462
 C1979 C 0.19603 -0.07449 0.71506
 C1980 C 0.20235 -0.06122 0.72124
 C1981 C 0.19384 -0.05284 0.73173
 C1982 C 0.17952 -0.05746 0.73603
 C1983 C 0.17334 -0.07044 0.72999
 C1984 C 0.18143 -0.07889 0.71960
 C1985 C 0.22777 -0.08729 0.69036
 C1986 C 0.24231 -0.08296 0.68649
 C1987 C 0.24849 -0.06999 0.69255
 C1988 C 0.24018 -0.06126 0.70252
 C1989 C 0.19782 -0.09655 0.69812
 C1990 C 0.19241 -0.10768 0.69266
 C1991 C 0.22357 -0.04329 0.72353
 C1992 C 0.22931 -0.03247 0.72925
 H1993 H 0.19818 -0.04266 0.73674
 H1994 H 0.17320 -0.05095 0.74412
 H1995 H 0.16222 -0.07400 0.73340
 H1996 H 0.17616 -0.08891 0.71523
 H1997 H 0.22346 -0.09749 0.68537
 H1998 H 0.24882 -0.08972 0.67877
 H1999 H 0.25979 -0.06668 0.68952
 H2000 H 0.24548 -0.05127 0.70693
 C2001 C 0.28309 0.28286 0.44341
 C2002 C 0.27976 0.29788 0.43946
 C2003 C 0.28597 0.30418 0.42618
 C2004 C 0.29548 0.29540 0.41692
 C2005 C 0.29861 0.28029 0.42076
 C2006 C 0.29240 0.27401 0.43404
 C2007 C 0.29560 0.25885 0.43758
 C2008 C 0.30465 0.25014 0.42824
 C2009 C 0.31073 0.25629 0.41526
 C2010 C 0.30781 0.27119 0.41152
 C2011 C 0.28238 0.31919 0.42240
 C2012 C 0.27289 0.32772 0.43147
 C2013 C 0.26683 0.32157 0.44446
 C2014 C 0.27021 0.30684 0.44848
 C2015 C 0.30200 0.30189 0.40347
 C2016 C 0.30743 0.30731 0.39232
 C2017 C 0.27653 0.27633 0.45682
 C2018 C 0.27083 0.27065 0.46770
 H2019 H 0.29112 0.25355 0.44755
 H2020 H 0.30693 0.23855 0.43109
 H2021 H 0.31773 0.24946 0.40803
 H2022 H 0.31277 0.27546 0.40129
 H2023 H 0.28680 0.32446 0.41239
 H2024 H 0.27022 0.33917 0.42838
 H2025 H 0.25945 0.32824 0.45145
 H2026 H 0.26521 0.30254 0.45868
 C2027 C 0.28320 0.78263 -0.05710
 C2028 C 0.28559 0.77348 -0.06988
 C2029 C 0.29184 0.77978 -0.08314
 C2030 C 0.29558 0.79522 -0.08359
 C2031 C 0.29299 0.80441 -0.07088
 C2032 C 0.28679 0.79809 -0.05760
 C2033 C 0.28423 0.80751 -0.04508
 C2034 C 0.28767 0.82275 -0.04565
 C2035 C 0.29375 0.82893 -0.05862
 C2036 C 0.29642 0.81991 -0.07112
 C2037 C 0.29414 0.77040 -0.09575
 C2038 C 0.29029 0.75524 -0.09530
 C2039 C 0.28413 0.74910 -0.08236
 C2040 C 0.28179 0.75805 -0.06976
 C2041 C 0.30205 0.80167 -0.09712
 C2042 C 0.30746 0.80710 -0.10828
 C2043 C 0.27679 0.77615 -0.04358
 C2044 C 0.27118 0.77052 -0.03262
 H2045 H 0.27950 0.80322 -0.03474
 H2046 H 0.28559 0.82980 -0.03598
 H2047 H 0.29640 0.84077 -0.05901
 H2048 H 0.30115 0.82524 -0.08095
 H2049 H 0.29888 0.77466 -0.10609
 H2050 H 0.29209 0.74824 -0.10506
 H2051 H 0.28112 0.73733 -0.08208
 H2052 H 0.27694 0.75274 -0.05996
 C2053 C 0.78447 0.28267 -0.05626
 C2054 C 0.78446 0.27457 -0.06993
 C2055 C 0.79031 0.28128 -0.08317
 C2056 C 0.79637 0.29596 -0.08261
 C2057 C 0.79675 0.30390 -0.06885
 C2058 C 0.79074 0.29725 -0.05565
 C2059 C 0.79122 0.30540 -0.04203
 C2060 C 0.79749 0.31971 -0.04146
 C2061 C 0.80338 0.32621 -0.05436
 C2062 C 0.80303 0.31846 -0.06794
 C2063 C 0.78996 0.27304 -0.09675
 C2064 C 0.78426 0.25849 -0.09717
 C2065 C 0.77882 0.25182 -0.08417
 C2066 C 0.77875 0.25976 -0.07070
 C2067 C 0.80242 0.30277 -0.09614
 C2068 C 0.80753 0.30830 -0.10739
 C2069 C 0.77768 0.27611 -0.04297
 C2070 C 0.77172 0.27043 -0.03223
 H2071 H 0.78682 0.30078 -0.03169
 H2072 H 0.79780 0.32577 -0.03094
 H2073 H 0.80826 0.33732 -0.05385
 H2074 H 0.80775 0.32398 -0.07767
 H2075 H 0.79414 0.27772 -0.10715
 H2076 H 0.78412 0.25233 -0.10764
 H2077 H 0.77460 0.24044 -0.08451
 H2078 H 0.77430 0.25412 -0.06091
 C2079 C 0.78387 0.78268 0.44363
 C2080 C 0.78436 0.77428 0.43015
 C2081 C 0.79028 0.78087 0.41687
 C2082 C 0.79584 0.79575 0.41720
 C2083 C 0.79553 0.80407 0.43074
 C2084 C 0.78950 0.79752 0.44398
 C2085 C 0.78926 0.80606 0.45736
 C2086 C 0.79486 0.82066 0.45767
 C2087 C 0.80079 0.82705 0.44474
 C2088 C 0.80114 0.81891 0.43139
 C2089 C 0.79049 0.77231 0.40349
 C2090 C 0.78518 0.75760 0.40328
 C2091 C 0.77959 0.75109 0.41630
 C2092 C 0.77906 0.75931 0.42959
 C2093 C 0.80202 0.80243 0.40368
 C2094 C 0.80724 0.80792 0.39246
 C2095 C 0.77724 0.77613 0.45700
 C2096 C 0.77142 0.77047 0.46782
 H2097 H 0.78479 0.80156 0.46772
 H2098 H 0.79461 0.82703 0.46801
 H2099 H 0.80515 0.83839 0.44504
 H2100 H 0.80586 0.82437 0.42162
 H2101 H 0.79477 0.77687 0.39308
 H2102 H 0.78544 0.75121 0.39296
 H2103 H 0.77560 0.73962 0.41611
 H2104 H 0.77453 0.75377 0.43940
 C2105 C 0.71737 0.28344 0.55640
 C2106 C 0.72569 0.28357 0.56995
 C2107 C 0.71920 0.28964 0.58321
 C2108 C 0.70450 0.29571 0.58280
 C2109 C 0.69624 0.29572 0.56922
 C2110 C 0.70269 0.28954 0.55599
 C2111 C 0.69422 0.28965 0.54256
 C2112 C 0.67978 0.29569 0.54219
 C2113 C 0.67346 0.30173 0.55511
 C2114 C 0.68154 0.30177 0.56851
 C2115 C 0.72768 0.28947 0.59665
 C2116 C 0.74221 0.28365 0.59694
 C2117 C 0.74863 0.27790 0.58394
 C2118 C 0.74049 0.27775 0.57059
 C2119 C 0.69793 0.30209 0.59631
 C2120 C 0.69249 0.30743 0.60750
 C2121 C 0.72384 0.27678 0.54300
 C2122 C 0.72945 0.27099 0.53214
 H2123 H 0.69866 0.28510 0.53221
 H2124 H 0.67346 0.29569 0.53181
 H2125 H 0.66224 0.30642 0.55477
 H2126 H 0.67615 0.30658 0.57827
 H2127 H 0.72318 0.29385 0.60705
 H2128 H 0.74854 0.28362 0.60731
 H2129 H 0.75997 0.27349 0.58421
 H2130 H 0.74596 0.27308 0.56080
 C2131 C 0.71730 0.78294 1.05684
 C2132 C 0.72161 0.77739 1.07110
 C2133 C 0.71520 0.78362 1.08431
 C2134 C 0.70461 0.79544 1.08319
 C2135 C 0.70045 0.80111 1.06893
 C2136 C 0.70680 0.79482 1.05572
 C2137 C 0.70250 0.80067 1.04159
 C2138 C 0.69225 0.81246 1.04055
 C2139 C 0.68605 0.81863 1.05347
 C2140 C 0.69005 0.81305 1.06753
 C2141 C 0.71963 0.77785 1.09844
 C2142 C 0.73022 0.76637 1.09949
 C2143 C 0.73659 0.76036 1.08658
 C2144 C 0.73233 0.76571 1.07252
 C2145 C 0.69810 0.80184 1.09669
 C2146 C 0.69272 0.80718 1.10789
 C2147 C 0.72374 0.77644 1.04337
 C2148 C 0.72935 0.77080 1.03244
 H2149 H 0.70704 0.79625 1.03123
 H2150 H 0.68913 0.81683 1.02966
 H2151 H 0.67811 0.82779 1.05260
 H2152 H 0.68493 0.81822 1.07725
 H2153 H 0.71502 0.78218 1.10881
 H2154 H 0.73354 0.76214 1.11039
 H2155 H 0.74490 0.75154 1.08747
 H2156 H 0.73759 0.76065 1.06281
 C2157 C 0.21670 0.28259 1.05673
 C2158 C 0.21936 0.27584 1.07088
 C2159 C 0.21327 0.28240 1.08409
 C2160 C 0.20441 0.29557 1.08305
 C2161 C 0.20165 0.30224 1.06889
 C2162 C 0.20784 0.29574 1.05569
 C2163 C 0.20495 0.30262 1.04167
 C2164 C 0.19617 0.31553 1.04070
 C2165 C 0.19009 0.32188 1.05359
 C2166 C 0.19277 0.31536 1.06755
 C2167 C 0.21619 0.27553 1.09811
 C2168 C 0.22474 0.26246 1.09905
 C2169 C 0.23055 0.25594 1.08612
 C2170 C 0.22801 0.26255 1.07218
 C2171 C 0.19802 0.30217 1.09652
 C2172 C 0.19264 0.30762 1.10768
 C2173 C 0.22324 0.27607 1.04330
 C2174 C 0.22894 0.27046 1.03240
 H2175 H 0.20942 0.29808 1.03132
 H2176 H 0.19406 0.32063 1.02987
 H2177 H 0.18327 0.33190 1.05277
 H2178 H 0.18781 0.32072 1.07726
 H2179 H 0.21188 0.28016 1.10848
 H2180 H 0.22683 0.25733 1.10986
 H2181 H 0.23707 0.24571 1.08690
 H2182 H 0.23283 0.25709 1.06246
 C2183 C 0.21754 0.78346 0.55659
 C2184 C 0.20506 0.79324 0.55545
 C2185 C 0.19859 0.79947 0.56864
 C2186 C 0.20463 0.79584 0.58289
 C2187 C 0.21719 0.78614 0.58402
 C2188 C 0.22373 0.78000 0.57082
 C2189 C 0.23643 0.77052 0.57221
 C2190 C 0.24251 0.76721 0.58624
 C2191 C 0.23601 0.77307 0.59915
 C2192 C 0.22350 0.78243 0.59812
 C2193 C 0.18616 0.80929 0.56721
 C2194 C 0.18030 0.81285 0.55316
 C2195 C 0.18661 0.80674 0.54027
 C2196 C 0.19884 0.79702 0.54134
 C2197 C 0.19801 0.80219 0.59637
 C2198 C 0.19255 0.80752 0.60754
 C2199 C 0.22400 0.77687 0.54317
 C2200 C 0.22960 0.77113 0.53228
 H2201 H 0.24186 0.76564 0.56250
 H2202 H 0.25232 0.76008 0.58708
 H2203 H 0.24073 0.77040 0.61002
 H2204 H 0.21887 0.78675 0.60849
 H2205 H 0.18087 0.81433 0.57691
 H2206 H 0.17081 0.82041 0.55227
 H2207 H 0.18202 0.80954 0.52937
 H2208 H 0.20338 0.79257 0.53099
 C2209 C 0.28262 0.71670 0.55664
 C2210 C 0.29655 0.70907 0.55587
 C2211 C 0.30299 0.70286 0.56909
 C2212 C 0.29546 0.70436 0.58302
 C2213 C 0.28150 0.71197 0.58378
 C2214 C 0.27502 0.71809 0.57055
 C2215 C 0.26098 0.72550 0.57157
 C2216 C 0.25355 0.72683 0.58528
 C2217 C 0.25996 0.72098 0.59824
 C2218 C 0.27377 0.71362 0.59757
 C2219 C 0.31692 0.69526 0.56802
 C2220 C 0.32428 0.69383 0.55428
 C2221 C 0.31799 0.69991 0.54137
 C2222 C 0.30429 0.70746 0.54208
 C2223 C 0.30201 0.69797 0.59651
 C2224 C 0.30744 0.69261 0.60769
 C2225 C 0.27617 0.72332 0.54322
 C2226 C 0.27060 0.72908 0.53232
 H2227 H 0.25555 0.73030 0.56182
 H2228 H 0.24277 0.73245 0.58585
 H2229 H 0.25419 0.72213 0.60887
 H2230 H 0.27829 0.70924 0.60796
 H2231 H 0.32226 0.69034 0.57775
 H2232 H 0.33492 0.68797 0.55366
 H2233 H 0.32375 0.69877 0.53073
 H2234 H 0.29983 0.71198 0.53173
 C2235 C 0.28320 0.21740 1.05667
 C2236 C 0.29155 0.20392 1.05571
 C2237 C 0.29770 0.19741 1.06892
 C2238 C 0.29539 0.20440 1.08300
 C2239 C 0.28706 0.21791 1.08395
 C2240 C 0.28101 0.22448 1.07073
 C2241 C 0.27287 0.23809 1.07193
 C2242 C 0.27079 0.24502 1.08579
 C2243 C 0.27658 0.23852 1.09873
 C2244 C 0.28463 0.22513 1.09789
 C2245 C 0.30607 0.18395 1.06767
 C2246 C 0.30829 0.17712 1.05378
 C2247 C 0.30225 0.18348 1.04088
 C2248 C 0.29396 0.19672 1.04177
 C2249 C 0.30172 0.19777 1.09648
 C2250 C 0.30707 0.19231 1.10764
 C2251 C 0.27668 0.22393 1.04324
 C2252 C 0.27097 0.22955 1.03235
 H2253 H 0.26809 0.24356 1.06220
 H2254 H 0.26465 0.25549 1.08649
 H2255 H 0.27485 0.24391 1.10948
 H2256 H 0.28894 0.22052 1.10827
 H2257 H 0.31099 0.17858 1.07739
 H2258 H 0.31474 0.16685 1.05302
 H2259 H 0.30400 0.17813 1.03011
 H2260 H 0.28950 0.20125 1.03142
 C2261 C 0.78260 0.71709 1.05691
 C2262 C 0.79777 0.71232 1.05699
 C2263 C 0.80411 0.70615 1.07026
 C2264 C 0.79524 0.70481 1.08339
 C2265 C 0.78009 0.70969 1.08335
 C2266 C 0.77374 0.71581 1.07006
 C2267 C 0.75854 0.72056 1.07027
 C2268 C 0.74989 0.71930 1.08324
 C2269 C 0.75613 0.71341 1.09626
 C2270 C 0.77105 0.70863 1.09638
 C2271 C 0.81932 0.70146 1.07006
 C2272 C 0.82801 0.70286 1.05713
 C2273 C 0.82181 0.70892 1.04415
 C2274 C 0.80686 0.71360 1.04402
 C2275 C 0.80167 0.69834 1.09689
 C2276 C 0.80706 0.69292 1.10806
 C2277 C 0.77616 0.72357 1.04343
 C2278 C 0.77058 0.72923 1.03249
 H2279 H 0.75319 0.72529 1.06045
 H2280 H 0.73829 0.72297 1.08320
 H2281 H 0.74938 0.71252 1.10633
 H2282 H 0.77540 0.70412 1.10679
 H2283 H 0.82465 0.69671 1.07988
 H2284 H 0.83962 0.69924 1.05717
 H2285 H 0.82860 0.70999 1.03414
 H2286 H 0.80254 0.71824 1.03366
 C2287 C 0.78250 0.21644 0.55651
 C2288 C 0.79339 0.20492 0.55527
 C2289 C 0.79985 0.19861 0.56842
 C2290 C 0.79542 0.20389 0.58274
 C2291 C 0.78435 0.21526 0.58399
 C2292 C 0.77779 0.22147 0.57084
 C2293 C 0.76650 0.23258 0.57238
 C2294 C 0.76186 0.23742 0.58651
 C2295 C 0.76843 0.23151 0.59936
 C2296 C 0.77956 0.22057 0.59818
 C2297 C 0.81064 0.18704 0.56689
 C2298 C 0.81490 0.18183 0.55276
 C2299 C 0.80858 0.18801 0.53991
 C2300 C 0.79796 0.19945 0.54108
 C2301 C 0.80209 0.19753 0.59619
 C2302 C 0.80755 0.19223 0.60739
 C2303 C 0.77612 0.22315 0.54310
 C2304 C 0.77057 0.22896 0.53222
 H2305 H 0.76107 0.23756 0.56273
 H2306 H 0.75308 0.24576 0.58749
 H2307 H 0.76484 0.23539 0.61030
 H2308 H 0.78430 0.21627 0.60851
 H2309 H 0.81586 0.18186 0.57656
 H2310 H 0.82313 0.17293 0.55179
 H2311 H 0.81191 0.18392 0.52897
 H2312 H 0.79333 0.20388 0.53076
 C2313 C 0.71642 0.71764 0.44347
 C2314 C 0.70436 0.70738 0.44475
 C2315 C 0.69805 0.70084 0.43164
 C2316 C 0.70390 0.70455 0.41733
 C2317 C 0.71583 0.71498 0.41603
 C2318 C 0.72203 0.72163 0.42913
 C2319 C 0.73372 0.73229 0.42753
 C2320 C 0.73912 0.73624 0.41339
 C2321 C 0.73322 0.72956 0.40061
 C2322 C 0.72171 0.71904 0.40184
 C2323 C 0.68591 0.69070 0.43320
 C2324 C 0.68015 0.68716 0.44730
 C2325 C 0.68634 0.69354 0.46012
 C2326 C 0.69832 0.70352 0.45892
 C2327 C 0.69752 0.69781 0.40393
 C2328 C 0.69221 0.69230 0.39278
 C2329 C 0.72311 0.72409 0.45685
 C2330 C 0.72894 0.72966 0.46770
 H2331 H 0.73872 0.73777 0.43714
 H2332 H 0.74789 0.74456 0.41235
 H2333 H 0.73753 0.73261 0.38966
 H2334 H 0.71744 0.71420 0.39156
 H2335 H 0.68072 0.68546 0.42356
 H2336 H 0.67083 0.67943 0.44829
 H2337 H 0.68181 0.69076 0.47105
 H2338 H 0.70273 0.70823 0.46921
 C2339 C 0.71596 0.21770 -0.05664
 C2340 C 0.70375 0.20762 -0.05527
 C2341 C 0.69745 0.20092 -0.06831
 C2342 C 0.70344 0.20428 -0.08264
 C2343 C 0.71542 0.21464 -0.08404
 C2344 C 0.72160 0.22148 -0.07102
 C2345 C 0.73328 0.23212 -0.07275
 C2346 C 0.73869 0.23589 -0.08693
 C2347 C 0.73286 0.22899 -0.09963
 C2348 C 0.72137 0.21847 -0.09827
 C2349 C 0.68515 0.19100 -0.06665
 C2350 C 0.67921 0.18783 -0.05253
 C2351 C 0.68539 0.19436 -0.03979
 C2352 C 0.69754 0.20413 -0.04107
 C2353 C 0.69714 0.19732 -0.09597
 C2354 C 0.69191 0.19168 -0.10711
 C2355 C 0.72278 0.22417 -0.04331
 C2356 C 0.72872 0.22974 -0.03250
 H2357 H 0.73823 0.23777 -0.06321
 H2358 H 0.74741 0.24425 -0.08808
 H2359 H 0.73719 0.23188 -0.11061
 H2360 H 0.71714 0.21347 -0.10849
 H2361 H 0.67995 0.18566 -0.07623
 H2362 H 0.66975 0.18027 -0.05147
 H2363 H 0.68073 0.19187 -0.02885
 H2364 H 0.70193 0.20899 -0.03085
 C2365 C 0.21751 0.71707 -0.05682
 C2366 C 0.20542 0.70683 -0.05571
 C2367 C 0.19908 0.70055 -0.06893
 C2368 C 0.20488 0.70456 -0.08318
 C2369 C 0.21697 0.71483 -0.08429
 C2370 C 0.22331 0.72110 -0.07107
 C2371 C 0.23538 0.73136 -0.07246
 C2372 C 0.24102 0.73531 -0.08650
 C2373 C 0.23483 0.72916 -0.09942
 C2374 C 0.22294 0.71904 -0.09840
 C2375 C 0.18699 0.69034 -0.06753
 C2376 C 0.18132 0.68645 -0.05348
 C2377 C 0.18752 0.69259 -0.04056
 C2378 C 0.19944 0.70267 -0.04160
 C2379 C 0.19840 0.69813 -0.09668
 C2380 C 0.19299 0.69275 -0.10785
 C2381 C 0.22399 0.72353 -0.04335
 C2382 C 0.22965 0.72916 -0.03244
 H2383 H 0.24059 0.73644 -0.06274
 H2384 H 0.25024 0.74318 -0.08735
 H2385 H 0.23925 0.73227 -0.11031
 H2386 H 0.21850 0.71457 -0.10877
 H2387 H 0.18179 0.68526 -0.07725
 H2388 H 0.17206 0.67862 -0.05262
 H2389 H 0.18308 0.68954 -0.02967
 H2390 H 0.20389 0.70716 -0.03123
 C2391 C 0.21694 0.21709 0.44338
 C2392 C 0.21736 0.22518 0.42970
 C2393 C 0.21111 0.21881 0.41648
 C2394 C 0.20449 0.20437 0.41702
 C2395 C 0.20416 0.19625 0.43067
 C2396 C 0.21039 0.20263 0.44389
 C2397 C 0.20997 0.19428 0.45740
 C2398 C 0.20360 0.18002 0.45783
 C2399 C 0.19750 0.17377 0.44492
 C2400 C 0.19773 0.18175 0.43146
 C2401 C 0.21170 0.22710 0.40294
 C2402 C 0.21832 0.24126 0.40246
 C2403 C 0.22444 0.24749 0.41538
 C2404 C 0.22399 0.23960 0.42887
 C2405 C 0.19805 0.19789 0.40353
 C2406 C 0.19268 0.19251 0.39234
 C2407 C 0.22346 0.22357 0.45681
 C2408 C 0.22916 0.22921 0.46770
 H2409 H 0.21458 0.19867 0.46774
 H2410 H 0.20340 0.17378 0.46825
 H2411 H 0.19257 0.16268 0.44531
 H2412 H 0.19285 0.17641 0.42171
 H2413 H 0.20710 0.22273 0.39260
 H2414 H 0.21870 0.24744 0.39201
 H2415 H 0.22958 0.25849 0.41494
 H2416 H 0.22890 0.24493 0.43861
 C2417 C 0.28304 0.44328 0.71732
 C2418 C 0.27919 0.42901 0.72320
 C2419 C 0.28556 0.41582 0.71686
 C2420 C 0.29572 0.41697 0.70468
 C2421 C 0.29955 0.43124 0.69881
 C2422 C 0.29319 0.44443 0.70515
 C2423 C 0.29715 0.45855 0.69907
 C2424 C 0.30713 0.45963 0.68707
 C2425 C 0.31337 0.44674 0.68088
 C2426 C 0.30967 0.43267 0.68663
 C2427 C 0.28153 0.40169 0.72291
 C2428 C 0.27150 0.40062 0.73487
 C2429 C 0.26527 0.41352 0.74107
 C2430 C 0.26903 0.42758 0.73535
 C2431 C 0.30219 0.40350 0.69816
 C2432 C 0.30755 0.39234 0.69269
 C2433 C 0.27648 0.45672 0.72380
 C2434 C 0.27078 0.46762 0.72943
 H2435 H 0.29258 0.46890 0.70351
 H2436 H 0.31003 0.47053 0.68255
 H2437 H 0.32112 0.44763 0.67156
 H2438 H 0.31481 0.42297 0.68144
 H2439 H 0.28608 0.39134 0.71847
 H2440 H 0.26854 0.38973 0.73936
 H2441 H 0.25748 0.41263 0.75036
 H2442 H 0.26388 0.43728 0.74055
 C2443 C 0.28315 0.94358 0.21675
 C2444 C 0.29888 0.94132 0.21735
 C2445 C 0.30528 0.92808 0.21116
 C2446 C 0.29591 0.91719 0.20439
 C2447 C 0.28015 0.91935 0.20396
 C2448 C 0.27375 0.93259 0.21016
 C2449 C 0.25795 0.93446 0.20969
 C2450 C 0.24874 0.92355 0.20333
 C2451 C 0.25500 0.91060 0.19727
 C2452 C 0.27051 0.90848 0.19752
 C2453 C 0.32104 0.92601 0.21200
 C2454 C 0.33020 0.93671 0.21880
 C2455 C 0.32393 0.94966 0.22484
 C2456 C 0.30847 0.95202 0.22413
 C2457 C 0.30246 0.90377 0.19785
 C2458 C 0.30787 0.89264 0.19238
 C2459 C 0.27655 0.95695 0.22333
 C2460 C 0.27081 0.96777 0.22906
 H2461 H 0.25255 0.94434 0.21426
 H2462 H 0.23668 0.92514 0.20312
 H2463 H 0.24779 0.90215 0.19236
 H2464 H 0.27485 0.89821 0.19269
 H2465 H 0.32643 0.91611 0.20749
 H2466 H 0.34221 0.93492 0.21940
 H2467 H 0.33110 0.95793 0.23012
 H2468 H 0.30412 0.96227 0.22899
 C2469 C 0.78324 0.44358 0.21729
 C2470 C 0.78018 0.42940 0.22380
 C2471 C 0.78650 0.41619 0.21745
 C2472 C 0.79585 0.41725 0.20463
 C2473 C 0.79887 0.43143 0.19811
 C2474 C 0.79254 0.44463 0.20446
 C2475 C 0.79569 0.45867 0.19773
 C2476 C 0.80484 0.45964 0.18508
 C2477 C 0.81104 0.44674 0.17887
 C2478 C 0.80813 0.43276 0.18526
 C2479 C 0.78327 0.40215 0.22414
 C2480 C 0.77403 0.40118 0.23674
 C2481 C 0.76784 0.41408 0.24295
 C2482 C 0.77084 0.42806 0.23661
 C2483 C 0.80230 0.40376 0.19811
 C2484 C 0.80767 0.39260 0.19264
 C2485 C 0.77669 0.45702 0.22378
 C2486 C 0.77097 0.46789 0.22944
 H2487 H 0.79112 0.46901 0.20216
 H2488 H 0.80712 0.47047 0.18007
 H2489 H 0.81814 0.44756 0.16904
 H2490 H 0.81321 0.42305 0.18002
 H2491 H 0.78781 0.39179 0.21972
 H2492 H 0.77166 0.39035 0.24171
 H2493 H 0.76067 0.41327 0.25273
 H2494 H 0.76575 0.43776 0.24185
 C2495 C 0.78294 0.94368 0.71715
 C2496 C 0.79762 0.94415 0.71106
 C2497 C 0.80410 0.93097 0.70480
 C2498 C 0.79584 0.91739 0.70464
 C2499 C 0.78118 0.91690 0.71081
 C2500 C 0.77471 0.93008 0.71707
 C2501 C 0.76004 0.92930 0.72320
 C2502 C 0.75201 0.91589 0.72316
 C2503 C 0.75834 0.90300 0.71705
 C2504 C 0.77274 0.90344 0.71091
 C2505 C 0.81883 0.93172 0.69885
 C2506 C 0.82692 0.94510 0.69906
 C2507 C 0.82057 0.95798 0.70516
 C2508 C 0.80609 0.95759 0.71109
 C2509 C 0.80239 0.90397 0.69806
 C2510 C 0.80782 0.89286 0.69254
 C2511 C 0.77636 0.95707 0.72374
 C2512 C 0.77064 0.96791 0.72948
 H2513 H 0.75463 0.93902 0.72808
 H2514 H 0.74082 0.91549 0.72792
 H2515 H 0.75205 0.89260 0.71706
 H2516 H 0.77718 0.89311 0.70630
 H2517 H 0.82425 0.92199 0.69400
 H2518 H 0.83819 0.94546 0.69449
 H2519 H 0.82691 0.96835 0.70530
 H2520 H 0.80163 0.96790 0.71570
 C2521 C 0.71674 0.55648 0.71731
 C2522 C 0.71980 0.56029 0.70220
 C2523 C 0.71352 0.57355 0.69591
 C2524 C 0.70420 0.58291 0.70477
 C2525 C 0.70134 0.57923 0.71996
 C2526 C 0.70763 0.56597 0.72625
 C2527 C 0.70471 0.56259 0.74149
 C2528 C 0.69588 0.57205 0.75029
 C2529 C 0.68973 0.58501 0.74414
 C2530 C 0.69237 0.58860 0.72915
 C2531 C 0.71684 0.57718 0.68080
 C2532 C 0.72614 0.56801 0.67218
 C2533 C 0.73227 0.55504 0.67833
 C2534 C 0.72915 0.55116 0.69315
 C2535 C 0.69759 0.59632 0.69825
 C2536 C 0.69212 0.60741 0.69274
 C2537 C 0.72336 0.54308 0.72383
 C2538 C 0.72912 0.53221 0.72949
 H2539 H 0.70925 0.55264 0.74679
 H2540 H 0.69381 0.56932 0.76194
 H2541 H 0.68291 0.59234 0.75103
 H2542 H 0.68738 0.59882 0.72488
 H2543 H 0.71237 0.58717 0.67552
 H2544 H 0.72862 0.57100 0.66067
 H2545 H 0.73950 0.54797 0.67159
 H2546 H 0.73420 0.54097 0.69744
 C2547 C 0.71700 0.05622 0.21696
 C2548 C 0.72549 0.06508 0.20685
 C2549 C 0.71914 0.07835 0.20065
 C2550 C 0.70434 0.08268 0.20459
 C2551 C 0.69595 0.07395 0.21488
 C2552 C 0.70229 0.06067 0.22108
 C2553 C 0.69371 0.05217 0.23139
 C2554 C 0.67930 0.05668 0.23554
 C2555 C 0.67310 0.06967 0.22950
 C2556 C 0.68126 0.07823 0.21927
 C2557 C 0.72789 0.08708 0.19066
 C2558 C 0.74250 0.08284 0.18693
 C2559 C 0.74870 0.06986 0.19298
 C2560 C 0.74034 0.06103 0.20281
 C2561 C 0.69776 0.09609 0.19803
 C2562 C 0.69230 0.10718 0.19252
 C2563 C 0.72361 0.04284 0.22352
 C2564 C 0.72936 0.03199 0.22922
 H2565 H 0.69805 0.04198 0.23640
 H2566 H 0.67292 0.05007 0.24349
 H2567 H 0.66191 0.07314 0.23278
 H2568 H 0.67597 0.08826 0.21490
 H2569 H 0.72358 0.09729 0.18568
 H2570 H 0.74906 0.08968 0.17931
 H2571 H 0.76006 0.06662 0.19005
 H2572 H 0.74565 0.05103 0.20722
 C2573 C 0.21665 0.55656 0.21686
 C2574 C 0.20197 0.56107 0.22104
 C2575 C 0.19564 0.57434 0.21484
 C2576 C 0.20401 0.58301 0.20447
 C2577 C 0.21878 0.57862 0.20047
 C2578 C 0.22511 0.56536 0.20668
 C2579 C 0.23993 0.56125 0.20259
 C2580 C 0.24828 0.57003 0.19269
 C2581 C 0.24208 0.58300 0.18661
 C2582 C 0.22750 0.58729 0.19039
 C2583 C 0.18099 0.57869 0.21928
 C2584 C 0.17286 0.57019 0.22960
 C2585 C 0.17906 0.55722 0.23566
 C2586 C 0.19343 0.55264 0.23145
 C2587 C 0.19746 0.59644 0.19796
 C2588 C 0.19205 0.60757 0.19249
 C2589 C 0.22324 0.54318 0.22341
 C2590 C 0.22899 0.53234 0.22910
 H2591 H 0.24525 0.55127 0.20702
 H2592 H 0.25962 0.56676 0.18973
 H2593 H 0.24862 0.58979 0.17894
 H2594 H 0.22318 0.59749 0.18539
 H2595 H 0.17571 0.58871 0.21490
 H2596 H 0.16170 0.57372 0.23293
 H2597 H 0.17271 0.55066 0.24368
 H2598 H 0.19777 0.54247 0.23648
 C2599 C 0.21687 0.05620 0.71707
 C2600 C 0.20226 0.06078 0.72140
 C2601 C 0.19586 0.07401 0.71516
 C2602 C 0.20409 0.08258 0.70460
 C2603 C 0.21878 0.07810 0.70041
 C2604 C 0.22518 0.06487 0.70666
 C2605 C 0.23991 0.06067 0.70235
 C2606 C 0.24811 0.06931 0.69221
 C2607 C 0.24186 0.08225 0.68612
 C2608 C 0.22737 0.08664 0.69011
 C2609 C 0.18128 0.07842 0.71975
 C2610 C 0.17326 0.07001 0.73023
 C2611 C 0.17951 0.05707 0.73631
 C2612 C 0.19383 0.05244 0.73197
 C2613 C 0.19747 0.09598 0.69804
 C2614 C 0.19201 0.10710 0.69254
 C2615 C 0.22357 0.04287 0.72371
 C2616 C 0.22936 0.03205 0.72945
 H2617 H 0.24526 0.05070 0.70678
 H2618 H 0.25938 0.06596 0.68908
 H2619 H 0.24829 0.08895 0.67827
 H2620 H 0.22301 0.09681 0.68510
 H2621 H 0.17596 0.08842 0.71537
 H2622 H 0.16215 0.07358 0.73367
 H2623 H 0.17324 0.05058 0.74445
 H2624 H 0.19821 0.04229 0.73702
 C2625 C 0.28295 0.55669 0.28268
 C2626 C 0.29636 0.55571 0.29114
 C2627 C 0.30279 0.56889 0.29741
 C2628 C 0.29574 0.58298 0.29520
 C2629 C 0.28235 0.58397 0.28668
 C2630 C 0.27593 0.57078 0.28041
 C2631 C 0.26253 0.57206 0.27193
 C2632 C 0.25568 0.58595 0.26971
 C2633 C 0.26196 0.59884 0.27584
 C2634 C 0.27513 0.59793 0.28424
 C2635 C 0.31624 0.56763 0.30580
 C2636 C 0.32313 0.55375 0.30794
 C2637 C 0.31683 0.54086 0.30183
 C2638 C 0.30360 0.54176 0.29352
 C2639 C 0.30225 0.59641 0.30174
 C2640 C 0.30767 0.60751 0.30725
 C2641 C 0.27642 0.54327 0.27615
 C2642 C 0.27075 0.53238 0.27048
 H2643 H 0.25720 0.56236 0.26694
 H2644 H 0.24544 0.58671 0.26319
 H2645 H 0.25660 0.60960 0.27407
 H2646 H 0.27960 0.60827 0.28877
 H2647 H 0.32157 0.57734 0.31077
 H2648 H 0.33342 0.55299 0.31437
 H2649 H 0.32222 0.53010 0.30353
 H2650 H 0.29912 0.53143 0.28899
 C2651 C 0.28336 0.05616 0.78309
 C2652 C 0.29637 0.06260 0.77660
 C2653 C 0.30261 0.07590 0.78281
 C2654 C 0.29580 0.08268 0.79548
 C2655 C 0.28262 0.07640 0.80178
 C2656 C 0.27638 0.06310 0.79557
 C2657 C 0.26311 0.05711 0.80198
 C2658 C 0.25618 0.06409 0.81415
 C2659 C 0.26229 0.07708 0.82023
 C2660 C 0.27537 0.08320 0.81419
 C2661 C 0.31556 0.08219 0.77606
 C2662 C 0.32210 0.07559 0.76348
 C2663 C 0.31599 0.06260 0.75740
 C2664 C 0.30329 0.05611 0.76386
 C2665 C 0.30232 0.09611 0.80199
 C2666 C 0.30773 0.10724 0.80746
 C2667 C 0.27684 0.04272 0.77659
 C2668 C 0.27115 0.03183 0.77092
 H2669 H 0.25793 0.04704 0.79763
 H2670 H 0.24600 0.05941 0.81886
 H2671 H 0.25685 0.08247 0.82967
 H2672 H 0.27967 0.09334 0.81929
 H2673 H 0.32070 0.09232 0.78036
 H2674 H 0.33195 0.08059 0.75841
 H2675 H 0.32109 0.05752 0.74761
 H2676 H 0.29895 0.04601 0.75871
 C2677 C 0.78350 0.55645 0.78294
 C2678 C 0.79233 0.56613 0.77393
 C2679 C 0.79859 0.57938 0.78023
 C2680 C 0.79599 0.58289 0.79551
 C2681 C 0.78699 0.57332 0.80447
 C2682 C 0.78074 0.56006 0.79817
 C2683 C 0.77169 0.55073 0.80731
 C2684 C 0.76886 0.55442 0.82224
 C2685 C 0.77497 0.56737 0.82840
 C2686 C 0.78397 0.57674 0.81968
 C2687 C 0.80729 0.58893 0.77097
 C2688 C 0.80968 0.58551 0.75590
 C2689 C 0.80355 0.57257 0.74974
 C2690 C 0.79499 0.56293 0.75860
 C2691 C 0.80250 0.59636 0.80201
 C2692 C 0.80788 0.60751 0.80747
 C2693 C 0.77687 0.54306 0.77641
 C2694 C 0.77110 0.53221 0.77073
 H2695 H 0.76668 0.54054 0.80303
 H2696 H 0.76187 0.54719 0.82906
 H2697 H 0.77272 0.57019 0.84000
 H2698 H 0.78844 0.58671 0.82497
 H2699 H 0.81227 0.59914 0.77524
 H2700 H 0.81630 0.59297 0.74895
 H2701 H 0.80542 0.56998 0.73802
 H2702 H 0.79046 0.55300 0.75329
 C2703 C 0.78326 0.05635 0.28279
 C2704 C 0.79661 0.05537 0.29136
 C2705 C 0.80303 0.06857 0.29760
 C2706 C 0.79604 0.08267 0.29524
 C2707 C 0.78269 0.08364 0.28666
 C2708 C 0.77628 0.07044 0.28041
 C2709 C 0.76294 0.07171 0.27184
 C2710 C 0.75614 0.08560 0.26951
 C2711 C 0.76240 0.09850 0.27563
 C2712 C 0.77552 0.09760 0.28412
 C2713 C 0.81640 0.06731 0.30611
 C2714 C 0.82324 0.05342 0.30837
 C2715 C 0.81695 0.04052 0.30227
 C2716 C 0.80379 0.04142 0.29385
 C2717 C 0.80256 0.09613 0.30171
 C2718 C 0.80794 0.10728 0.30715
 C2719 C 0.77675 0.04291 0.27629
 C2720 C 0.77108 0.03202 0.27063
 H2721 H 0.75763 0.06200 0.26684
 H2722 H 0.74595 0.08636 0.26291
 H2723 H 0.75707 0.10927 0.27379
 H2724 H 0.77996 0.10795 0.28865
 H2725 H 0.82171 0.07703 0.31109
 H2726 H 0.83346 0.05266 0.31490
 H2727 H 0.82231 0.02975 0.30405
 H2728 H 0.79933 0.03107 0.28933
 C2729 C 0.71699 0.44342 0.28299
 C2730 C 0.70151 0.44038 0.28096
 C2731 C 0.69513 0.42712 0.28712
 C2732 C 0.70427 0.41699 0.29529
 C2733 C 0.71981 0.41990 0.29710
 C2734 C 0.72619 0.43315 0.29092
 C2735 C 0.74177 0.43575 0.29275
 C2736 C 0.75080 0.42555 0.30044
 C2737 C 0.74456 0.41261 0.30652
 C2738 C 0.72924 0.40978 0.30493
 C2739 C 0.67965 0.42427 0.28485
 C2740 C 0.67074 0.43420 0.27667
 C2741 C 0.67698 0.44717 0.27065
 C2742 C 0.69218 0.45030 0.27276
 C2743 C 0.69770 0.40358 0.30180
 C2744 C 0.69225 0.39246 0.30725
 C2745 C 0.72356 0.45685 0.27653
 C2746 C 0.72926 0.46774 0.27089
 H2747 H 0.74716 0.44565 0.28822
 H2748 H 0.76271 0.42769 0.30168
 H2749 H 0.75162 0.40472 0.31248
 H2750 H 0.72491 0.39954 0.30983
 H2751 H 0.67429 0.41432 0.28929
 H2752 H 0.65894 0.43181 0.27498
 H2753 H 0.67002 0.45484 0.26428
 H2754 H 0.69652 0.46052 0.26784
 C2755 C 0.71674 0.94360 0.78310
 C2756 C 0.72486 0.93531 0.79397
 C2757 C 0.71859 0.92201 0.80014
 C2758 C 0.70424 0.91706 0.79538
 C2759 C 0.69624 0.92520 0.78431
 C2760 C 0.70251 0.93851 0.77815
 C2761 C 0.69437 0.94639 0.76701
 C2762 C 0.68044 0.94124 0.76206
 C2763 C 0.67430 0.92823 0.76810
 C2764 C 0.68204 0.92027 0.77912
 C2765 C 0.72695 0.91386 0.81092
 C2766 C 0.74114 0.91869 0.81543
 C2767 C 0.74728 0.93169 0.80939
 C2768 C 0.73927 0.93997 0.79880
 C2769 C 0.69774 0.90360 0.80185
 C2770 C 0.69237 0.89244 0.80728
 C2771 C 0.72326 0.95705 0.77663
 C2772 C 0.72894 0.96795 0.77099
 H2773 H 0.69869 0.95655 0.76196
 H2774 H 0.67440 0.94737 0.75348
 H2775 H 0.66349 0.92427 0.76420
 H2776 H 0.67682 0.91020 0.78345
 H2777 H 0.72267 0.90366 0.81593
 H2778 H 0.74742 0.91229 0.82364
 H2779 H 0.75832 0.93537 0.81290
 H2780 H 0.74453 0.95000 0.79441
 C2781 C 0.21685 0.44331 0.78303
 C2782 C 0.22588 0.43345 0.79164
 C2783 C 0.21949 0.42021 0.79785
 C2784 C 0.20413 0.41689 0.79538
 C2785 C 0.19518 0.42662 0.78654
 C2786 C 0.20156 0.43988 0.78035
 C2787 C 0.19242 0.44938 0.77148
 C2788 C 0.17741 0.44586 0.76874
 C2789 C 0.17117 0.43290 0.77478
 C2790 C 0.17989 0.42337 0.78361
 C2791 C 0.22875 0.41048 0.80636
 C2792 C 0.24391 0.41371 0.80861
 C2793 C 0.25015 0.42664 0.80253
 C2794 C 0.24129 0.43645 0.79416
 C2795 C 0.19754 0.40348 0.80190
 C2796 C 0.19209 0.39237 0.80736
 C2797 C 0.22344 0.45673 0.77652
 C2798 C 0.22915 0.46761 0.77086
 H2799 H 0.19677 0.45957 0.76652
 H2800 H 0.17060 0.45321 0.76186
 H2801 H 0.15952 0.43021 0.77260
 H2802 H 0.17454 0.41341 0.78804
 H2803 H 0.22442 0.40027 0.81130
 H2804 H 0.25085 0.40611 0.81509
 H2805 H 0.26194 0.42908 0.80429
 H2806 H 0.24667 0.44636 0.78965
 C2807 C 0.21677 0.94357 0.28294
 C2808 C 0.22484 0.93527 0.29383
 C2809 C 0.21850 0.92200 0.30001
 C2810 C 0.20414 0.91711 0.29525
 C2811 C 0.19618 0.92528 0.28417
 C2812 C 0.20252 0.93855 0.27800
 C2813 C 0.19442 0.94646 0.26684
 C2814 C 0.18048 0.94138 0.26189
 C2815 C 0.17427 0.92841 0.26793
 C2816 C 0.18197 0.92042 0.27897
 C2817 C 0.22683 0.91383 0.31081
 C2818 C 0.24104 0.91859 0.31531
 C2819 C 0.24724 0.93156 0.30926
 C2820 C 0.23927 0.93987 0.29867
 C2821 C 0.19759 0.90367 0.30173
 C2822 C 0.19218 0.89254 0.30721
 C2823 C 0.22339 0.95696 0.27642
 C2824 C 0.22913 0.96781 0.27074
 H2825 H 0.19879 0.95661 0.26179
 H2826 H 0.17447 0.94753 0.25330
 H2827 H 0.16345 0.92449 0.26403
 H2828 H 0.17669 0.91037 0.28330
 H2829 H 0.22250 0.90365 0.31582
 H2830 H 0.24728 0.91216 0.32353
 H2831 H 0.25829 0.93520 0.31278
 H2832 H 0.24458 0.94987 0.29428
 C2833 C 0.44314 0.28294 0.71726
 C2834 C 0.42953 0.28286 0.72552
 C2835 C 0.41633 0.28926 0.71922
 C2836 C 0.41678 0.29563 0.70467
 C2837 C 0.43034 0.29553 0.69634
 C2838 C 0.44356 0.28917 0.70266
 C2839 C 0.45696 0.28914 0.69410
 C2840 C 0.45729 0.29519 0.67969
 C2841 C 0.44437 0.30141 0.67350
 C2842 C 0.43103 0.30163 0.68168
 C2843 C 0.40286 0.28904 0.72769
 C2844 C 0.40244 0.28262 0.74194
 C2845 C 0.41534 0.27632 0.74808
 C2846 C 0.42876 0.27643 0.74003
 C2847 C 0.40330 0.30219 0.69822
 C2848 C 0.39214 0.30762 0.69279
 C2849 C 0.45661 0.27639 0.72373
 C2850 C 0.46753 0.27070 0.72937
 H2851 H 0.46729 0.28442 0.69843
 H2852 H 0.46763 0.29503 0.67328
 H2853 H 0.44468 0.30607 0.66229
 H2854 H 0.42127 0.30657 0.67638
 H2855 H 0.39253 0.29379 0.72338
 H2856 H 0.39204 0.28252 0.74825
 H2857 H 0.41494 0.27132 0.75915
 H2858 H 0.43849 0.27138 0.74529
 C2859 C 0.44325 0.78312 0.21714
 C2860 C 0.42961 0.78291 0.22533
 C2861 C 0.41640 0.78929 0.21901
 C2862 C 0.41691 0.79577 0.20451
 C2863 C 0.43051 0.79580 0.19625
 C2864 C 0.44372 0.78947 0.20259
 C2865 C 0.45717 0.78958 0.19411
 C2866 C 0.45755 0.79574 0.17975
 C2867 C 0.44463 0.80193 0.17354
 C2868 C 0.43124 0.80201 0.18165
 C2869 C 0.40290 0.78895 0.22741
 C2870 C 0.40244 0.78243 0.24162
 C2871 C 0.41534 0.77614 0.24778
 C2872 C 0.42880 0.77637 0.23979
 C2873 C 0.40344 0.80232 0.19804
 C2874 C 0.39230 0.80776 0.19259
 C2875 C 0.45671 0.77660 0.22363
 C2876 C 0.46761 0.77091 0.22930
 H2877 H 0.46751 0.78487 0.19846
 H2878 H 0.46793 0.79569 0.17340
 H2879 H 0.44498 0.80669 0.16237
 H2880 H 0.42149 0.80694 0.17633
 H2881 H 0.39257 0.79367 0.22309
 H2882 H 0.39201 0.78224 0.24788
 H2883 H 0.41492 0.77107 0.25881
 H2884 H 0.43852 0.77133 0.24507
 C2885 C 0.94338 0.28346 0.21710
 C2886 C 0.94080 0.28241 0.20146
 C2887 C 0.92753 0.28866 0.19514
 C2888 C 0.91692 0.29594 0.20450
 C2889 C 0.91940 0.29681 0.22017
 C2890 C 0.93267 0.29055 0.22649
 C2891 C 0.93485 0.29146 0.24219
 C2892 C 0.92421 0.29831 0.25140
 C2893 C 0.91125 0.30444 0.24522
 C2894 C 0.90882 0.30376 0.22979
 C2895 C 0.92515 0.28737 0.17949
 C2896 C 0.93556 0.28007 0.17036
 C2897 C 0.94853 0.27396 0.17654
 C2898 C 0.95120 0.27511 0.19190
 C2899 C 0.90345 0.30246 0.19801
 C2900 C 0.89229 0.30786 0.19257
 C2901 C 0.95678 0.27684 0.22361
 C2902 C 0.96764 0.27108 0.22929
 H2903 H 0.94475 0.28684 0.24754
 H2904 H 0.92603 0.29885 0.26340
 H2905 H 0.90301 0.30974 0.25243
 H2906 H 0.89855 0.30866 0.22552
 H2907 H 0.91522 0.29192 0.17416
 H2908 H 0.93353 0.27913 0.15842
 H2909 H 0.95657 0.26829 0.16940
 H2910 H 0.96144 0.27016 0.19619
 C2911 C 0.94329 0.78324 0.71720
 C2912 C 0.94375 0.78961 0.70267
 C2913 C 0.93054 0.79597 0.69634
 C2914 C 0.91693 0.79592 0.70460
 C2915 C 0.91643 0.78939 0.71908
 C2916 C 0.92964 0.78300 0.72539
 C2917 C 0.92884 0.77640 0.73983
 C2918 C 0.91537 0.77613 0.74781
 C2919 C 0.90247 0.78243 0.74167
 C2920 C 0.90293 0.78901 0.72748
 C2921 C 0.93127 0.80220 0.68175
 C2922 C 0.94466 0.80212 0.67363
 C2923 C 0.95758 0.79592 0.67983
 C2924 C 0.95720 0.78974 0.69419
 C2925 C 0.90347 0.80252 0.69815
 C2926 C 0.89236 0.80799 0.69266
 C2927 C 0.95676 0.77671 0.72369
 C2928 C 0.96766 0.77103 0.72935
 H2929 H 0.93856 0.77135 0.74509
 H2930 H 0.91496 0.77101 0.75881
 H2931 H 0.89204 0.78220 0.74792
 H2932 H 0.89259 0.79373 0.72317
 H2933 H 0.92151 0.80714 0.67644
 H2934 H 0.94500 0.80689 0.66247
 H2935 H 0.96794 0.79587 0.67348
 H2936 H 0.96753 0.78502 0.69852
 C2937 C 0.55676 0.28301 0.28251
 C2938 C 0.57040 0.27479 0.28250
 C2939 C 0.58360 0.28120 0.28878
 C2940 C 0.58311 0.29584 0.29497
 C2941 C 0.56952 0.30413 0.29477
 C2942 C 0.55631 0.29769 0.28853
 C2943 C 0.54287 0.30620 0.28844
 C2944 C 0.54250 0.32069 0.29430
 C2945 C 0.55541 0.32699 0.30039
 C2946 C 0.56879 0.31886 0.30067
 C2947 C 0.59708 0.27275 0.28867
 C2948 C 0.59753 0.25841 0.28247
 C2949 C 0.58464 0.25215 0.27627
 C2950 C 0.57120 0.26018 0.27628
 C2951 C 0.59655 0.30235 0.30154
 C2952 C 0.60768 0.30775 0.30704
 C2953 C 0.54330 0.27639 0.27612
 C2954 C 0.53238 0.27065 0.27056
 H2955 H 0.53255 0.30178 0.28381
 H2956 H 0.53213 0.32706 0.29410
 H2957 H 0.55506 0.33826 0.30492
 H2958 H 0.57853 0.32426 0.30552
 H2959 H 0.60740 0.27714 0.29334
 H2960 H 0.60794 0.25211 0.28245
 H2961 H 0.58505 0.24102 0.27144
 H2962 H 0.56148 0.25483 0.27134
 C2963 C 0.55664 0.78324 0.78304
 C2964 C 0.55706 0.79875 0.78646
 C2965 C 0.57031 0.80516 0.79265
 C2966 C 0.58304 0.79603 0.79542
 C2967 C 0.58266 0.78054 0.79188
 C2968 C 0.56942 0.77413 0.78567
 C2969 C 0.56934 0.75863 0.78216
 C2970 C 0.58198 0.74973 0.78470
 C2971 C 0.59491 0.75600 0.79077
 C2972 C 0.59531 0.77121 0.79436
 C2973 C 0.57048 0.82071 0.79591
 C2974 C 0.55794 0.82966 0.79310
 C2975 C 0.54500 0.82338 0.78705
 C2976 C 0.54450 0.80811 0.78375
 C2977 C 0.59651 0.80254 0.80192
 C2978 C 0.60769 0.80792 0.80736
 C2979 C 0.54319 0.77670 0.77652
 C2980 C 0.53229 0.77101 0.77086
 H2981 H 0.55955 0.75323 0.77741
 H2982 H 0.58173 0.73791 0.78192
 H2983 H 0.60470 0.74904 0.79271
 H2984 H 0.60564 0.77557 0.79904
 H2985 H 0.58029 0.82611 0.80060
 H2986 H 0.55827 0.84154 0.79562
 H2987 H 0.53529 0.83038 0.78488
 H2988 H 0.53418 0.80374 0.77905
 C2989 C 0.05657 0.28307 0.78270
 C2990 C 0.07016 0.27478 0.78275
 C2991 C 0.08337 0.28115 0.78907
 C2992 C 0.08292 0.29578 0.79524
 C2993 C 0.06936 0.30413 0.79503
 C2994 C 0.05615 0.29774 0.78876
 C2995 C 0.04274 0.30630 0.78865
 C2996 C 0.04241 0.32078 0.79453
 C2997 C 0.05532 0.32703 0.80066
 C2998 C 0.06867 0.31885 0.80095
 C2999 C 0.09682 0.27264 0.78900
 C3000 C 0.09722 0.25829 0.78280
 C3001 C 0.08433 0.25208 0.77658
 C3002 C 0.07092 0.26018 0.77654
 C3003 C 0.09638 0.30226 0.80181
 C3004 C 0.10752 0.30765 0.80730
 C3005 C 0.04311 0.27655 0.77622
 C3006 C 0.03219 0.27087 0.77060
 H3007 H 0.03241 0.30192 0.78399
 H3008 H 0.03206 0.32718 0.79432
 H3009 H 0.05500 0.33829 0.80519
 H3010 H 0.07843 0.32421 0.80582
 H3011 H 0.10715 0.27699 0.79368
 H3012 H 0.10761 0.25195 0.78281
 H3013 H 0.08470 0.24094 0.77176
 H3014 H 0.06119 0.25486 0.77157
 C3015 C 0.05662 0.78327 0.28274
 C3016 C 0.05661 0.79847 0.28733
 C3017 C 0.06983 0.80491 0.29355
 C3018 C 0.08299 0.79609 0.29515
 C3019 C 0.08303 0.78091 0.29046
 C3020 C 0.06981 0.77448 0.28422
 C3021 C 0.07015 0.75930 0.27954
 C3022 C 0.08318 0.75072 0.28096
 C3023 C 0.09609 0.75700 0.28707
 C3024 C 0.09608 0.77190 0.29180
 C3025 C 0.06955 0.82015 0.29799
 C3026 C 0.05660 0.82879 0.29632
 C3027 C 0.04367 0.82249 0.29025
 C3028 C 0.04361 0.80750 0.28580
 C3029 C 0.09644 0.80259 0.30168
 C3030 C 0.10760 0.80797 0.30717
 C3031 C 0.04319 0.77672 0.27622
 C3032 C 0.03229 0.77102 0.27057
 H3033 H 0.06040 0.75391 0.27472
 H3034 H 0.08324 0.73914 0.27730
 H3035 H 0.10618 0.75029 0.28815
 H3036 H 0.10641 0.77628 0.29646
 H3037 H 0.07933 0.82556 0.30275
 H3038 H 0.05659 0.84045 0.29974
 H3039 H 0.03364 0.82925 0.28897
 H3040 H 0.03329 0.80310 0.28114
 C3041 C 0.55656 0.71691 0.71724
 C3042 C 0.56105 0.70225 0.72143
 C3043 C 0.57433 0.69588 0.71523
 C3044 C 0.58303 0.70421 0.70484
 C3045 C 0.57866 0.71896 0.70083
 C3046 C 0.56539 0.72532 0.70704
 C3047 C 0.56130 0.74012 0.70292
 C3048 C 0.57011 0.74841 0.69300
 C3049 C 0.58309 0.74219 0.68694
 C3050 C 0.58736 0.72763 0.69075
 C3051 C 0.57866 0.68126 0.71969
 C3052 C 0.57013 0.67316 0.73001
 C3053 C 0.55714 0.67938 0.73606
 C3054 C 0.55259 0.69374 0.73185
 C3055 C 0.59643 0.69760 0.69826
 C3056 C 0.60753 0.69215 0.69272
 C3057 C 0.54315 0.72353 0.72380
 C3058 C 0.53228 0.72928 0.72949
 H3059 H 0.55131 0.74545 0.70734
 H3060 H 0.56685 0.75973 0.69002
 H3061 H 0.58991 0.74869 0.67926
 H3062 H 0.59757 0.72330 0.68576
 H3063 H 0.58869 0.67596 0.71531
 H3064 H 0.57364 0.66202 0.73335
 H3065 H 0.55057 0.67305 0.74409
 H3066 H 0.54241 0.69810 0.73687
 C3067 C 0.55680 0.21680 0.21726
 C3068 C 0.55638 0.20216 0.21113
 C3069 C 0.56963 0.19573 0.20492
 C3070 C 0.58322 0.20400 0.20484
 C3071 C 0.58367 0.21860 0.21113
 C3072 C 0.57043 0.22500 0.21738
 C3073 C 0.57119 0.23956 0.22369
 C3074 C 0.58463 0.24757 0.22381
 C3075 C 0.59756 0.24133 0.21766
 C3076 C 0.59715 0.22702 0.21137
 C3077 C 0.56894 0.18104 0.19892
 C3078 C 0.55556 0.17293 0.19907
 C3079 C 0.54261 0.17922 0.20512
 C3080 C 0.54295 0.19367 0.21108
 C3081 C 0.59668 0.19752 0.19826
 C3082 C 0.60780 0.19209 0.19273
 C3083 C 0.54331 0.22336 0.22368
 C3084 C 0.53236 0.22904 0.22930
 H3085 H 0.56144 0.24491 0.22860
 H3086 H 0.58501 0.25868 0.22870
 H3087 H 0.60797 0.24761 0.21777
 H3088 H 0.60750 0.22263 0.20674
 H3089 H 0.57872 0.17565 0.19411
 H3090 H 0.55524 0.16170 0.19447
 H3091 H 0.53224 0.17288 0.20521
 H3092 H 0.53259 0.19809 0.21568
 C3093 C 0.05655 0.71701 0.21703
 C3094 C 0.06900 0.72629 0.21358
 C3095 C 0.08223 0.71990 0.20732
 C3096 C 0.08294 0.70426 0.20456
 C3097 C 0.07057 0.69496 0.20820
 C3098 C 0.05733 0.70136 0.21444
 C3099 C 0.04512 0.69184 0.21804
 C3100 C 0.04599 0.67643 0.21559
 C3101 C 0.05893 0.67016 0.20950
 C3102 C 0.07111 0.67927 0.20580
 C3103 C 0.09455 0.72939 0.20401
 C3104 C 0.09384 0.74475 0.20686
 C3105 C 0.08091 0.75100 0.21300
 C3106 C 0.06859 0.74194 0.21632
 C3107 C 0.09639 0.69776 0.19799
 C3108 C 0.10754 0.69237 0.19249
 C3109 C 0.04312 0.72356 0.22358
 C3110 C 0.03223 0.72926 0.22926
 H3111 H 0.03482 0.69620 0.22280
 H3112 H 0.03657 0.66930 0.21845
 H3113 H 0.05956 0.65817 0.20764
 H3114 H 0.08094 0.67387 0.20112
 H3115 H 0.10486 0.72505 0.19925
 H3116 H 0.10338 0.75184 0.20431
 H3117 H 0.08041 0.76293 0.21521
 H3118 H 0.05879 0.74733 0.22108
 C3119 C 0.05662 0.21674 0.71743
 C3120 C 0.05620 0.20206 0.71138
 C3121 C 0.06942 0.19566 0.70510
 C3122 C 0.08297 0.20398 0.70487
 C3123 C 0.08342 0.21862 0.71104
 C3124 C 0.07021 0.22500 0.71737
 C3125 C 0.07096 0.23961 0.72357
 C3126 C 0.08437 0.24768 0.72351
 C3127 C 0.09726 0.24146 0.71729
 C3128 C 0.09686 0.22710 0.71110
 C3129 C 0.06874 0.18093 0.69918
 C3130 C 0.05539 0.17277 0.69948
 C3131 C 0.04247 0.17905 0.70561
 C3132 C 0.04280 0.19353 0.71150
 C3133 C 0.09641 0.19749 0.69827
 C3134 C 0.10752 0.19206 0.69273
 C3135 C 0.04316 0.22330 0.72390
 C3136 C 0.03224 0.22902 0.72952
 H3137 H 0.06123 0.24495 0.72853
 H3138 H 0.08474 0.25883 0.72832
 H3139 H 0.10765 0.24778 0.71726
 H3140 H 0.10720 0.22273 0.70641
 H3141 H 0.07849 0.17556 0.69431
 H3142 H 0.05507 0.16151 0.69494
 H3143 H 0.03212 0.17266 0.70582
 H3144 H 0.03246 0.19793 0.71615
 C3145 C 0.44313 0.71699 0.28268
 C3146 C 0.44343 0.71119 0.29746
 C3147 C 0.43022 0.70481 0.30376
 C3148 C 0.41681 0.70423 0.29523
 C3149 C 0.41646 0.71021 0.28051
 C3150 C 0.42966 0.71663 0.27422
 C3151 C 0.42901 0.72265 0.25953
 C3152 C 0.41572 0.72234 0.25129
 C3153 C 0.40283 0.71601 0.25742
 C3154 C 0.40314 0.70998 0.27185
 C3155 C 0.43077 0.69917 0.31860
 C3156 C 0.44397 0.69986 0.32698
 C3157 C 0.45688 0.70609 0.32081
 C3158 C 0.45668 0.71169 0.30621
 C3159 C 0.40337 0.69759 0.30166
 C3160 C 0.39228 0.69209 0.30714
 C3161 C 0.45659 0.72353 0.27622
 C3162 C 0.46751 0.72921 0.27060
 H3163 H 0.43874 0.72770 0.25427
 H3164 H 0.41542 0.72704 0.24009
 H3165 H 0.39253 0.71579 0.25096
 H3166 H 0.39282 0.70520 0.27614
 H3167 H 0.42102 0.69423 0.32391
 H3168 H 0.44418 0.69554 0.33833
 H3169 H 0.46710 0.70661 0.32736
 H3170 H 0.46700 0.71645 0.30190
 C3171 C 0.44308 0.21685 0.78280
 C3172 C 0.42962 0.21634 0.77432
 C3173 C 0.41644 0.20994 0.78064
 C3174 C 0.41676 0.20414 0.79544
 C3175 C 0.43016 0.20484 0.80398
 C3176 C 0.44335 0.21121 0.79764
 C3177 C 0.45659 0.21184 0.80641
 C3178 C 0.45678 0.20638 0.82106
 C3179 C 0.44388 0.20016 0.82727
 C3180 C 0.43070 0.19935 0.81888
 C3181 C 0.40313 0.20955 0.77195
 C3182 C 0.40284 0.21541 0.75745
 C3183 C 0.41571 0.22172 0.75128
 C3184 C 0.42899 0.22219 0.75955
 C3185 C 0.40331 0.19754 0.80190
 C3186 C 0.39218 0.19207 0.80734
 C3187 C 0.45653 0.22339 0.77630
 C3188 C 0.46745 0.22907 0.77066
 H3189 H 0.46690 0.21660 0.80208
 H3190 H 0.46699 0.20701 0.82763
 H3191 H 0.44408 0.19595 0.83866
 H3192 H 0.42095 0.19442 0.82421
 H3193 H 0.39282 0.20478 0.77626
 H3194 H 0.39255 0.21506 0.75097
 H3195 H 0.41542 0.22628 0.74003
 H3196 H 0.43870 0.22721 0.75426
 C3197 C 0.94327 0.71705 0.78275
 C3198 C 0.94358 0.71125 0.79753
 C3199 C 0.93037 0.70489 0.80386
 C3200 C 0.91694 0.70435 0.79535
 C3201 C 0.91659 0.71031 0.78062
 C3202 C 0.92979 0.71671 0.77432
 C3203 C 0.92912 0.72274 0.75963
 C3204 C 0.91581 0.72245 0.75140
 C3205 C 0.90293 0.71613 0.75755
 C3206 C 0.90325 0.71010 0.77198
 C3207 C 0.93094 0.69925 0.81869
 C3208 C 0.94416 0.69991 0.82705
 C3209 C 0.95707 0.70613 0.82085
 C3210 C 0.95685 0.71174 0.80626
 C3211 C 0.90348 0.69777 0.80180
 C3212 C 0.89234 0.69232 0.80725
 C3213 C 0.95672 0.72359 0.77627
 C3214 C 0.96764 0.72928 0.77064
 H3215 H 0.93884 0.72778 0.75435
 H3216 H 0.91550 0.72714 0.74021
 H3217 H 0.89262 0.71591 0.75111
 H3218 H 0.89293 0.70533 0.77628
 H3219 H 0.92119 0.69432 0.82401
 H3220 H 0.94438 0.69559 0.83840
 H3221 H 0.96730 0.70664 0.82739
 H3222 H 0.96717 0.71648 0.80193
 C3223 C 0.94336 0.21663 0.28263
 C3224 C 0.94291 0.21312 0.29811
 C3225 C 0.92971 0.20675 0.30445
 C3226 C 0.91704 0.20392 0.29526
 C3227 C 0.91744 0.20757 0.27980
 C3228 C 0.93064 0.21395 0.27347
 C3229 C 0.93073 0.21760 0.25800
 C3230 C 0.91815 0.21504 0.24906
 C3231 C 0.90526 0.20879 0.25525
 C3232 C 0.90485 0.20505 0.27043
 C3233 C 0.92951 0.20342 0.31998
 C3234 C 0.94196 0.20634 0.32899
 C3235 C 0.95486 0.21256 0.32278
 C3236 C 0.95540 0.21592 0.30752
 C3237 C 0.90359 0.19735 0.30173
 C3238 C 0.89245 0.19192 0.30719
 C3239 C 0.95676 0.22329 0.27616
 C3240 C 0.96762 0.22908 0.27053
 H3241 H 0.94049 0.22250 0.25266
 H3242 H 0.91841 0.21795 0.23727
 H3243 H 0.89552 0.20683 0.24826
 H3244 H 0.89456 0.20023 0.27473
 H3245 H 0.91972 0.19858 0.32533
 H3246 H 0.94159 0.20377 0.34085
 H3247 H 0.96450 0.21482 0.32983
 H3248 H 0.96568 0.22077 0.30321
 C3249 C 0.28281 0.28271 0.55671
 C3250 C 0.28660 0.27335 0.56899
 C3251 C 0.29286 0.27971 0.58220
 C3252 C 0.29520 0.29540 0.58310
 C3253 C 0.29114 0.30479 0.57093
 C3254 C 0.28494 0.29842 0.55769
 C3255 C 0.28090 0.30802 0.54570
 C3256 C 0.28287 0.32349 0.54677
 C3257 C 0.28892 0.32973 0.55972
 C3258 C 0.29306 0.32053 0.57168
 C3259 C 0.29656 0.27012 0.59432
 C3260 C 0.29405 0.25471 0.59345
 C3261 C 0.28787 0.24850 0.58056
 C3262 C 0.28420 0.25765 0.56842
 C3263 C 0.30173 0.30190 0.59653
 C3264 C 0.30718 0.30734 0.60765
 C3265 C 0.27638 0.27619 0.54325
 C3266 C 0.27077 0.27053 0.53233
 H3267 H 0.27612 0.30370 0.53540
 H3268 H 0.27965 0.33068 0.53752
 H3269 H 0.29041 0.34176 0.56051
 H3270 H 0.29770 0.32591 0.58152
 H3271 H 0.30137 0.27443 0.60461
 H3272 H 0.29690 0.24755 0.60285
 H3273 H 0.28591 0.23653 0.57995
 H3274 H 0.27942 0.25229 0.55863
 C3275 C 0.28346 0.78270 0.05647
 C3276 C 0.28352 0.77440 0.07003
 C3277 C 0.28957 0.78087 0.08329
 C3278 C 0.29562 0.79556 0.08288
 C3279 C 0.29558 0.80384 0.06932
 C3280 C 0.28946 0.79739 0.05608
 C3281 C 0.28949 0.80589 0.04266
 C3282 C 0.29543 0.82035 0.04232
 C3283 C 0.30144 0.82665 0.05526
 C3284 C 0.30155 0.81854 0.06863
 C3285 C 0.28940 0.77240 0.09673
 C3286 C 0.28354 0.75791 0.09704
 C3287 C 0.27773 0.75153 0.08405
 C3288 C 0.27764 0.75965 0.07068
 C3289 C 0.30197 0.80211 0.09638
 C3290 C 0.30732 0.80754 0.10755
 C3291 C 0.27698 0.77618 0.04303
 C3292 C 0.27132 0.77053 0.03213
 H3293 H 0.28495 0.80147 0.03231
 H3294 H 0.29537 0.82670 0.03197
 H3295 H 0.30605 0.83788 0.05494
 H3296 H 0.30634 0.82393 0.07840
 H3297 H 0.29380 0.77687 0.10713
 H3298 H 0.28351 0.75159 0.10741
 H3299 H 0.27325 0.74025 0.08434
 H3300 H 0.27294 0.75422 0.06090
 C3301 C 0.78329 0.28273 0.05645
 C3302 C 0.78337 0.27445 0.07002
 C3303 C 0.78942 0.28094 0.08328
 C3304 C 0.79546 0.29564 0.08287
 C3305 C 0.79539 0.30391 0.06929
 C3306 C 0.78927 0.29745 0.05606
 C3307 C 0.78926 0.30595 0.04264
 C3308 C 0.79517 0.32042 0.04230
 C3309 C 0.80120 0.32673 0.05522
 C3310 C 0.80133 0.31862 0.06860
 C3311 C 0.78927 0.27249 0.09673
 C3312 C 0.78340 0.25799 0.09705
 C3313 C 0.77760 0.25160 0.08407
 C3314 C 0.77749 0.25971 0.07070
 C3315 C 0.80185 0.30220 0.09636
 C3316 C 0.80722 0.30766 0.10753
 C3317 C 0.77682 0.27618 0.04301
 C3318 C 0.77113 0.27051 0.03213
 H3319 H 0.78471 0.30152 0.03230
 H3320 H 0.79509 0.32677 0.03194
 H3321 H 0.80578 0.33797 0.05490
 H3322 H 0.80612 0.32402 0.07836
 H3323 H 0.79367 0.27697 0.10712
 H3324 H 0.78338 0.25168 0.10743
 H3325 H 0.77311 0.24032 0.08437
 H3326 H 0.77278 0.25426 0.06092
 C3327 C 0.78345 0.78267 0.55656
 C3328 C 0.78215 0.77507 0.57046
 C3329 C 0.78821 0.78158 0.58370
 C3330 C 0.79566 0.79560 0.58294
 C3331 C 0.79706 0.80314 0.56901
 C3332 C 0.79091 0.79667 0.55580
 C3333 C 0.79240 0.80443 0.54202
 C3334 C 0.79980 0.81819 0.54130
 C3335 C 0.80585 0.82450 0.55421
 C3336 C 0.80452 0.81713 0.56794
 C3337 C 0.78667 0.77382 0.59747
 C3338 C 0.77946 0.75995 0.59814
 C3339 C 0.77366 0.75352 0.58518
 C3340 C 0.77488 0.76097 0.57148
 C3341 C 0.80197 0.80220 0.59644
 C3342 C 0.80728 0.80765 0.60763
 C3343 C 0.77692 0.77615 0.54314
 C3344 C 0.77119 0.77051 0.53228
 H3345 H 0.78790 0.79995 0.53167
 H3346 H 0.80085 0.82396 0.53067
 H3347 H 0.81160 0.83518 0.55359
 H3348 H 0.80940 0.82249 0.57767
 H3349 H 0.79102 0.77835 0.60786
 H3350 H 0.77840 0.75416 0.60876
 H3351 H 0.76816 0.74270 0.58573
 H3352 H 0.77012 0.75552 0.56173
 C3353 C 0.28280 0.71720 0.44318
 C3354 C 0.28506 0.70151 0.44223
 C3355 C 0.29126 0.69515 0.42897
 C3356 C 0.29519 0.70454 0.41676
 C3357 C 0.29274 0.72022 0.41764
 C3358 C 0.28648 0.72657 0.43088
 C3359 C 0.28397 0.74225 0.43143
 C3360 C 0.28753 0.75140 0.41926
 C3361 C 0.29372 0.74521 0.40635
 C3362 C 0.29633 0.72981 0.40549
 C3363 C 0.29331 0.67942 0.42824
 C3364 C 0.28931 0.67022 0.44024
 C3365 C 0.28325 0.67645 0.45321
 C3366 C 0.28115 0.69190 0.45426
 C3367 C 0.30169 0.69806 0.40329
 C3368 C 0.30711 0.69266 0.39213
 C3369 C 0.27638 0.72370 0.45667
 C3370 C 0.27078 0.72936 0.46760
 H3371 H 0.27918 0.74760 0.44123
 H3372 H 0.28549 0.76336 0.41986
 H3373 H 0.29649 0.75237 0.39693
 H3374 H 0.30114 0.72551 0.39519
 H3375 H 0.29796 0.67405 0.41839
 H3376 H 0.29089 0.65820 0.43947
 H3377 H 0.28014 0.66926 0.46249
 H3378 H 0.27639 0.69622 0.46457
 C3379 C 0.28340 0.21729 0.94352
 C3380 C 0.28154 0.22456 0.92950
 C3381 C 0.28761 0.21800 0.91628
 C3382 C 0.29563 0.20430 0.91718
 C3383 C 0.29762 0.19712 0.93122
 C3384 C 0.29146 0.20363 0.94443
 C3385 C 0.29356 0.19624 0.95833
 C3386 C 0.30157 0.18282 0.95917
 C3387 C 0.30761 0.17647 0.94627
 C3388 C 0.30569 0.18348 0.93242
 C3389 C 0.28551 0.22542 0.90239
 C3390 C 0.27777 0.23900 0.90160
 C3391 C 0.27197 0.24549 0.91454
 C3392 C 0.27373 0.23837 0.92835
 C3393 C 0.30195 0.19766 0.90369
 C3394 C 0.30727 0.19218 0.89251
 C3395 C 0.27682 0.22381 0.95693
 C3396 C 0.27105 0.22945 0.96779
 H3397 H 0.28909 0.20076 0.96867
 H3398 H 0.30309 0.17733 0.96990
 H3399 H 0.31383 0.16605 0.94699
 H3400 H 0.31060 0.17810 0.92270
 H3401 H 0.28984 0.22083 0.89201
 H3402 H 0.27629 0.24453 0.89088
 H3403 H 0.26607 0.25609 0.91388
 H3404 H 0.26896 0.24384 0.93809
 C3405 C 0.78299 0.71723 0.94341
 C3406 C 0.78516 0.70153 0.94243
 C3407 C 0.79139 0.69517 0.92919
 C3408 C 0.79544 0.70457 0.91702
 C3409 C 0.79307 0.72026 0.91793
 C3410 C 0.78678 0.72661 0.93115
 C3411 C 0.78435 0.74230 0.93173
 C3412 C 0.78801 0.75146 0.91960
 C3413 C 0.79422 0.74526 0.90670
 C3414 C 0.79676 0.72985 0.90581
 C3415 C 0.79333 0.67942 0.92842
 C3416 C 0.78920 0.67022 0.94038
 C3417 C 0.78312 0.67645 0.95333
 C3418 C 0.78112 0.69192 0.95441
 C3419 C 0.80198 0.69808 0.90357
 C3420 C 0.80743 0.69263 0.89245
 C3421 C 0.77652 0.72374 0.95687
 C3422 C 0.77088 0.72939 0.96778
 H3423 H 0.77955 0.74766 0.94152
 H3424 H 0.78602 0.76343 0.92022
 H3425 H 0.79706 0.75243 0.89731
 H3426 H 0.80158 0.72556 0.89553
 H3427 H 0.79799 0.67405 0.91858
 H3428 H 0.79070 0.65819 0.93958
 H3429 H 0.77991 0.66926 0.96258
 H3430 H 0.77633 0.69624 0.96471
 C3431 C 0.78361 0.21715 0.44343
 C3432 C 0.79203 0.20371 0.44443
 C3433 C 0.79824 0.19719 0.43125
 C3434 C 0.79596 0.20415 0.41714
 C3435 C 0.78765 0.21767 0.41615
 C3436 C 0.78154 0.22424 0.42935
 C3437 C 0.77347 0.23790 0.42810
 C3438 C 0.77151 0.24485 0.41424
 C3439 C 0.77732 0.23832 0.40132
 C3440 C 0.78531 0.22489 0.40220
 C3441 C 0.80667 0.18377 0.43256
 C3442 C 0.80890 0.17700 0.44647
 C3443 C 0.80281 0.18337 0.45935
 C3444 C 0.79445 0.19656 0.45840
 C3445 C 0.80230 0.19748 0.40368
 C3446 C 0.80763 0.19199 0.39252
 C3447 C 0.77693 0.22364 0.45680
 C3448 C 0.77111 0.22927 0.46765
 H3449 H 0.76868 0.24339 0.43782
 H3450 H 0.76545 0.25536 0.41351
 H3451 H 0.77567 0.24371 0.39056
 H3452 H 0.78965 0.22027 0.39183
 H3453 H 0.81163 0.17840 0.42286
 H3454 H 0.81539 0.16675 0.44727
 H3455 H 0.80457 0.17807 0.47014
 H3456 H 0.78996 0.20111 0.46873
 C3457 C 0.71651 0.28242 0.44325
 C3458 C 0.70717 0.29523 0.44438
 C3459 C 0.70096 0.30175 0.43120
 C3460 C 0.70416 0.29544 0.41697
 C3461 C 0.71338 0.28253 0.41586
 C3462 C 0.71949 0.27593 0.42904
 C3463 C 0.72844 0.26286 0.42767
 C3464 C 0.73129 0.25650 0.41367
 C3465 C 0.72550 0.26307 0.40076
 C3466 C 0.71665 0.27594 0.40177
 C3467 C 0.69161 0.31453 0.43263
 C3468 C 0.68846 0.32066 0.44667
 C3469 C 0.69453 0.31428 0.45954
 C3470 C 0.70380 0.30171 0.45848
 C3471 C 0.69781 0.30211 0.40351
 C3472 C 0.69249 0.30759 0.39234
 C3473 C 0.72321 0.27599 0.45664
 C3474 C 0.72902 0.27041 0.46751
 H3475 H 0.73324 0.25735 0.43737
 H3476 H 0.73801 0.24641 0.41283
 H3477 H 0.72785 0.25815 0.38991
 H3478 H 0.71236 0.28061 0.39142
 H3479 H 0.68661 0.31989 0.42295
 H3480 H 0.68126 0.33042 0.44757
 H3481 H 0.69204 0.31907 0.47042
 H3482 H 0.70823 0.29712 0.46881
 C3483 C 0.71742 0.78324 0.94341
 C3484 C 0.70566 0.79388 0.94456
 C3485 C 0.69931 0.80019 0.93135
 C3486 C 0.70475 0.79580 0.91707
 C3487 C 0.71652 0.78515 0.91592
 C3488 C 0.72288 0.77886 0.92914
 C3489 C 0.73466 0.76825 0.92771
 C3490 C 0.73999 0.76397 0.91365
 C3491 C 0.73374 0.77010 0.90073
 C3492 C 0.72215 0.78057 0.90179
 C3493 C 0.68756 0.81082 0.93279
 C3494 C 0.68224 0.81508 0.94687
 C3495 C 0.68845 0.80890 0.95978
 C3496 C 0.70003 0.79841 0.95870
 C3497 C 0.69823 0.80225 0.90358
 C3498 C 0.69277 0.80766 0.89244
 C3499 C 0.72388 0.77672 0.95687
 C3500 C 0.72949 0.77103 0.96778
 H3501 H 0.73988 0.76316 0.93743
 H3502 H 0.74900 0.75584 0.91277
 H3503 H 0.73790 0.76672 0.88983
 H3504 H 0.71765 0.78502 0.89142
 H3505 H 0.68237 0.81594 0.92308
 H3506 H 0.67325 0.82322 0.94776
 H3507 H 0.68428 0.81224 0.97069
 H3508 H 0.70450 0.79392 0.96906
 C3509 C 0.21642 0.28249 0.94346
 C3510 C 0.20703 0.29527 0.94456
 C3511 C 0.20081 0.30175 0.93137
 C3512 C 0.20407 0.29544 0.91715
 C3513 C 0.21340 0.28259 0.91606
 C3514 C 0.21952 0.27605 0.92926
 C3515 C 0.22863 0.26308 0.92790
 C3516 C 0.23160 0.25677 0.91391
 C3517 C 0.22576 0.26327 0.90099
 C3518 C 0.21676 0.27604 0.90198
 C3519 C 0.19139 0.31448 0.93277
 C3520 C 0.18821 0.32062 0.94680
 C3521 C 0.19432 0.31430 0.95968
 C3522 C 0.20364 0.30177 0.95864
 C3523 C 0.19771 0.30205 0.90368
 C3524 C 0.19237 0.30751 0.89251
 C3525 C 0.22304 0.27603 0.95687
 C3526 C 0.22881 0.27044 0.96775
 H3527 H 0.23349 0.25764 0.93761
 H3528 H 0.23846 0.24676 0.91309
 H3529 H 0.22818 0.25836 0.89015
 H3530 H 0.21244 0.28066 0.89162
 H3531 H 0.18638 0.31980 0.92307
 H3532 H 0.18096 0.33035 0.94767
 H3533 H 0.19181 0.31911 0.97055
 H3534 H 0.20810 0.29723 0.96899
 C3535 C 0.21740 0.78320 0.44326
 C3536 C 0.20558 0.79377 0.44438
 C3537 C 0.19921 0.80005 0.43116
 C3538 C 0.20470 0.79570 0.41689
 C3539 C 0.21653 0.78511 0.41576
 C3540 C 0.22290 0.77885 0.42899
 C3541 C 0.23473 0.76829 0.42758
 C3542 C 0.24009 0.76403 0.41352
 C3543 C 0.23385 0.77014 0.40059
 C3544 C 0.22220 0.78056 0.40163
 C3545 C 0.18741 0.81061 0.43259
 C3546 C 0.18204 0.81483 0.44666
 C3547 C 0.18825 0.80867 0.45958
 C3548 C 0.19989 0.79826 0.45852
 C3549 C 0.19819 0.80214 0.40339
 C3550 C 0.19273 0.80755 0.39225
 C3551 C 0.22390 0.77673 0.45673
 C3552 C 0.22954 0.77107 0.46764
 H3553 H 0.23995 0.76321 0.43729
 H3554 H 0.24915 0.75595 0.41265
 H3555 H 0.23804 0.76678 0.38969
 H3556 H 0.21770 0.78499 0.39126
 H3557 H 0.18221 0.81571 0.42287
 H3558 H 0.17300 0.82293 0.44754
 H3559 H 0.18404 0.81198 0.47048
 H3560 H 0.20436 0.79377 0.46888
 C3561 C 0.71669 0.71758 0.55669
 C3562 C 0.72027 0.72364 0.57095
 C3563 C 0.71415 0.71707 0.58414
 C3564 C 0.70437 0.70459 0.58301
 C3565 C 0.70064 0.69868 0.56874
 C3566 C 0.70684 0.70517 0.55555
 C3567 C 0.70297 0.69906 0.54142
 C3568 C 0.69320 0.68690 0.54033
 C3569 C 0.68711 0.68056 0.55322
 C3570 C 0.69076 0.68632 0.56729
 C3571 C 0.71799 0.72324 0.59827
 C3572 C 0.72744 0.73566 0.59931
 C3573 C 0.73327 0.74219 0.58640
 C3574 C 0.72984 0.73624 0.57236
 C3575 C 0.69804 0.69796 0.59649
 C3576 C 0.69273 0.69250 0.60768
 C3577 C 0.72327 0.72406 0.54326
 C3578 C 0.72902 0.72964 0.53236
 H3579 H 0.70741 0.70363 0.53107
 H3580 H 0.69034 0.68238 0.52943
 H3581 H 0.67951 0.67113 0.55232
 H3582 H 0.68574 0.68101 0.57699
 H3583 H 0.71370 0.71858 0.60863
 H3584 H 0.73021 0.74027 0.61020
 H3585 H 0.74048 0.75192 0.58727
 H3586 H 0.73471 0.74169 0.56266
 C3587 C 0.71693 0.21744 0.05658
 C3588 C 0.72163 0.22250 0.07089
 C3589 C 0.71551 0.21592 0.08408
 C3590 C 0.70459 0.20442 0.08288
 C3591 C 0.69976 0.19949 0.06856
 C3592 C 0.70598 0.20600 0.05538
 C3593 C 0.70099 0.20088 0.04120
 C3594 C 0.69012 0.18969 0.04007
 C3595 C 0.68403 0.18334 0.05295
 C3596 C 0.68876 0.18813 0.06707
 C3597 C 0.72046 0.22110 0.09825
 C3598 C 0.73103 0.23258 0.09938
 C3599 C 0.73690 0.23912 0.08649
 C3600 C 0.73236 0.23414 0.07239
 C3601 C 0.69822 0.19780 0.09636
 C3602 C 0.69290 0.19235 0.10755
 C3603 C 0.72344 0.22396 0.04313
 C3604 C 0.72913 0.22956 0.03220
 H3605 H 0.70538 0.20549 0.03086
 H3606 H 0.68641 0.18594 0.02914
 H3607 H 0.67557 0.17467 0.05201
 H3608 H 0.68369 0.18285 0.07676
 H3609 H 0.71620 0.21638 0.10860
 H3610 H 0.73464 0.23645 0.11030
 H3611 H 0.74498 0.24813 0.08743
 H3612 H 0.73729 0.23956 0.06270
 C3613 C 0.21703 0.71737 0.05652
 C3614 C 0.20597 0.70603 0.05530
 C3615 C 0.19966 0.69959 0.06847
 C3616 C 0.20447 0.70451 0.08279
 C3617 C 0.21545 0.71594 0.08402
 C3618 C 0.22168 0.72245 0.07085
 C3619 C 0.23247 0.73403 0.07237
 C3620 C 0.23697 0.73902 0.08648
 C3621 C 0.23101 0.73253 0.09935
 C3622 C 0.22037 0.72112 0.09820
 C3623 C 0.18857 0.68832 0.06695
 C3624 C 0.18384 0.68355 0.05282
 C3625 C 0.19003 0.68984 0.03996
 C3626 C 0.20098 0.70094 0.04111
 C3627 C 0.19803 0.69793 0.09625
 C3628 C 0.19264 0.69250 0.10741
 C3629 C 0.22367 0.72381 0.04310
 C3630 C 0.22945 0.72939 0.03221
 H3631 H 0.23747 0.73941 0.06269
 H3632 H 0.24510 0.74798 0.08744
 H3633 H 0.23460 0.73640 0.11029
 H3634 H 0.21604 0.71645 0.10854
 H3635 H 0.18342 0.68309 0.07663
 H3636 H 0.17533 0.67494 0.05187
 H3637 H 0.18632 0.68610 0.02901
 H3638 H 0.20545 0.70551 0.03078
 C3639 C 0.21718 0.21693 0.55670
 C3640 C 0.22253 0.22141 0.57098
 C3641 C 0.21617 0.21511 0.58419
 C3642 C 0.20453 0.20433 0.58305
 C3643 C 0.19921 0.19984 0.56876
 C3644 C 0.20555 0.20617 0.55555
 C3645 C 0.20006 0.20151 0.54140
 C3646 C 0.18863 0.19090 0.54032
 C3647 C 0.18242 0.18471 0.55322
 C3648 C 0.18761 0.18909 0.56731
 C3649 C 0.22169 0.21979 0.59833
 C3650 C 0.23317 0.23036 0.59940
 C3651 C 0.23942 0.23649 0.58648
 C3652 C 0.23419 0.23212 0.57241
 C3653 C 0.19806 0.19784 0.59654
 C3654 C 0.19265 0.19242 0.60770
 C3655 C 0.22365 0.22344 0.54324
 C3656 C 0.22929 0.22911 0.53232
 H3657 H 0.20454 0.20600 0.53104
 H3658 H 0.18457 0.18746 0.52940
 H3659 H 0.17354 0.17647 0.55232
 H3660 H 0.18242 0.18396 0.57702
 H3661 H 0.21719 0.21534 0.60870
 H3662 H 0.23726 0.23381 0.61030
 H3663 H 0.24835 0.24469 0.58736
 H3664 H 0.23940 0.23722 0.56270
   
