data_POSCAR
  _audit_creation_date              2014-09-24
  _audit_creation_method            'ToBaCCo'
  _symmetry_space_group_name_H-M    'P1'
  _symmetry_Int_Tables_number       1
  _symmetry_cell_setting            triclinic
  loop_
  _symmetry_equiv_pos_as_xyz
 x,y,z
_cell_length_a 61.6917
_cell_length_b 61.6582
_cell_length_c 59.3420
_cell_angle_alpha 89.935700
_cell_angle_beta 89.987600
_cell_angle_gamma 92.707000
loop_
  _atom_site_label
  _atom_site_type_symbol
  _atom_site_fract_x
  _atom_site_fract_y
  _atom_site_fract_z
O1 O -0.01925 0.27377 0.02713
 O2 O 0.02379 0.27520 -0.01587
 O3 O -0.01845 0.27547 -0.01672
 O4 O 0.02285 0.27349 0.02790
 O5 O 0.02113 0.23772 0.02631
 O6 O -0.02031 0.23969 -0.01824
 O7 O 0.02171 0.23946 -0.01755
 O8 O -0.02117 0.23799 0.02567
 Cu9 Cu 0.00241 0.27806 0.00575
 Cu10 Cu 0.00014 0.23513 0.00394
 C11 C -0.02757 0.25564 0.03380
 C12 C 0.03014 0.25758 -0.02417
 C13 C -0.02642 0.25793 -0.02517
 C14 C 0.02911 0.25528 0.03471
 O15 O 0.52152 0.77746 0.48194
 O16 O 0.47965 0.77600 0.52622
 O17 O 0.52180 0.77597 0.52582
 O18 O 0.47941 0.77756 0.48230
 O19 O 0.47755 0.74176 0.48111
 O20 O 0.52006 0.74018 0.52459
 O21 O 0.47785 0.74022 0.52493
 O22 O 0.51990 0.74166 0.48082
 Cu23 Cu 0.50076 0.78033 0.50420
 Cu24 Cu 0.49865 0.73737 0.50271
 C25 C 0.52793 0.75980 0.47385
 C26 C 0.47158 0.75787 0.53317
 C27 C 0.52820 0.75782 0.53266
 C28 C 0.47120 0.75994 0.47426
 O29 O 0.97706 0.72283 -0.01896
 O30 O 1.01959 0.72401 0.02460
 O31 O 0.97743 0.72417 0.02484
 O32 O 1.01936 0.72267 -0.01924
 O33 O 1.02104 0.75842 -0.02060
 O34 O 0.97914 0.75995 0.02351
 O35 O 1.02146 0.75980 0.02331
 O36 O 0.97903 0.75858 -0.02035
 Cu37 Cu 0.99819 0.71984 0.00293
 Cu38 Cu 1.00036 0.76277 0.00139
 C39 C 0.97074 0.74050 -0.02719
 C40 C 1.02782 0.74211 0.03142
 C41 C 0.97106 0.74231 0.03169
 C42 C 1.02739 0.74029 -0.02757
 O43 O 0.52084 0.22687 0.52864
 O44 O 0.47903 0.22485 0.48432
 O45 O 0.52134 0.22488 0.48480
 O46 O 0.47877 0.22673 0.52809
 O47 O 0.48032 0.26251 0.52633
 O48 O 0.52285 0.26065 0.48289
 O49 O 0.48077 0.26062 0.48249
 O50 O 0.52260 0.26264 0.52680
 Cu51 Cu 0.49985 0.22225 0.50661
 Cu52 Cu 0.50182 0.26520 0.50447
 C53 C 0.52884 0.24510 0.53536
 C54 C 0.47274 0.24239 0.47582
 C55 C 0.52935 0.24244 0.47638
 C56 C 0.47226 0.24492 0.53465
 O57 O 0.72482 0.01950 -0.02776
 O58 O 0.72326 -0.02313 0.01582
 O59 O 0.72274 0.01919 0.01613
 O60 O 0.72529 -0.02254 -0.02797
 O61 O 0.76104 -0.02029 -0.02636
 O62 O 0.75847 0.02087 0.01837
 O63 O 0.75898 -0.02112 0.01754
 O64 O 0.76055 0.02213 -0.02533
 Cu65 Cu 0.72045 -0.00195 -0.00611
 Cu66 Cu 0.76335 0.00058 -0.00383
 C67 C 0.74296 0.02818 -0.03390
 C68 C 0.74086 -0.02948 0.02418
 C69 C 0.74017 0.02710 0.02487
 C70 C 0.74359 -0.02852 -0.03477
 O71 O 0.22299 0.47762 0.51678
 O72 O 0.22419 0.51949 0.47244
 O73 O 0.22472 0.47739 0.47301
 O74 O 0.22230 0.51984 0.51637
 O75 O 0.25806 0.52249 0.51753
 O76 O 0.26047 0.47928 0.47485
 O77 O 0.25996 0.52150 0.47379
 O78 O 0.25872 0.48029 0.51874
 Cu79 Cu 0.21997 0.49838 0.49451
 Cu80 Cu 0.26289 0.50110 0.49640
 C81 C 0.24066 0.47183 0.52539
 C82 C 0.24229 0.52759 0.46544
 C83 C 0.24299 0.47101 0.46654
 C84 C 0.23976 0.52851 0.52430
 O85 O 0.27597 0.97971 -0.02745
 O86 O 0.27738 1.02241 0.01594
 O87 O 0.27752 0.98011 0.01638
 O88 O 0.27579 1.02187 -0.02787
 O89 O 0.24006 1.02019 -0.02638
 O90 O 0.24176 0.97839 0.01785
 O91 O 0.24162 1.02044 0.01747
 O92 O 0.24024 0.97786 -0.02604
 Cu93 Cu 0.28024 1.00120 -0.00589
 Cu94 Cu 0.23734 0.99903 -0.00418
 C95 C 0.25787 0.97142 -0.03423
 C96 C 0.25974 1.02870 0.02418
 C97 C 0.25993 0.97213 0.02473
 C98 C 0.25764 1.02827 -0.03472
 O99 O 0.77653 0.52227 0.51544
 O100 O 0.77554 0.47947 0.47220
 O101 O 0.77471 0.52156 0.47165
 O102 O 0.77736 0.48006 0.51609
 O103 O 0.74160 0.47727 0.51728
 O104 O 0.73897 0.51955 0.47358
 O105 O 0.73977 0.47735 0.47354
 O106 O 0.74081 0.51947 0.51749
 Cu107 Cu 0.77962 0.50107 0.49371
 Cu108 Cu 0.73670 0.49820 0.49564
 C109 C 0.75884 0.52815 0.52393
 C110 C 0.75749 0.47114 0.46539
 C111 C 0.75640 0.52770 0.46502
 C112 C 0.75993 0.47145 0.52420
 C113 C 0.24780 0.25244 0.25060
 C114 C 0.26319 0.23732 0.25040
 C115 C 0.26417 0.22101 0.23213
 C116 C 0.27973 0.23639 0.26847
 C117 C 0.24808 0.27014 0.26757
 C118 C 0.22990 0.25203 0.23387
 C119 C 0.26245 0.19882 0.23736
 C120 C 0.26252 0.18332 0.22021
 C121 C 0.26466 0.18975 0.19756
 C122 C 0.26695 0.21200 0.19241
 C123 C 0.26668 0.22751 0.20956
 C124 C 0.27353 0.23353 0.29108
 C125 C 0.28924 0.23330 0.30803
 C126 C 0.31139 0.23598 0.30265
 C127 C 0.31754 0.23846 0.27995
 C128 C 0.30184 0.23849 0.26299
 C129 C 0.26630 0.28445 0.27004
 C130 C 0.26631 0.30110 0.28602
 C131 C 0.24803 0.30383 0.29971
 C132 C 0.22975 0.28955 0.29703
 C133 C 0.22975 0.27294 0.28104
 C134 C 0.22662 0.27042 0.22062
 C135 C 0.20983 0.27029 0.20483
 C136 C 0.19583 0.25180 0.20214
 C137 C 0.19902 0.23345 0.21565
 C138 C 0.21585 0.23360 0.23142
 H139 H 0.26063 0.19353 0.25469
 H140 H 0.26101 0.16627 0.22465
 H141 H 0.26852 0.21740 0.17509
 H142 H 0.26827 0.24458 0.20526
 H143 H 0.25653 0.23163 0.29557
 H144 H 0.28406 0.23146 0.32540
 H145 H 0.30690 0.24058 0.24562
 H146 H 0.28045 0.28282 0.25947
 H147 H 0.28049 0.31205 0.28739
 H148 H 0.21552 0.29102 0.30750
 H149 H 0.21553 0.26208 0.27935
 H150 H 0.23727 0.28481 0.22231
 H151 H 0.20800 0.28457 0.19450
 H152 H 0.18830 0.21911 0.21427
 H153 H 0.21785 0.21940 0.24183
 H154 H 0.33451 0.24027 0.27533
 C155 C 0.75213 0.74516 0.24762
 C156 C 0.73750 0.76103 0.24847
 C157 C 0.73671 0.77771 0.23048
 C158 C 0.72153 0.76240 0.26715
 C159 C 0.75162 0.72684 0.26392
 C160 C 0.76962 0.74546 0.23038
 C161 C 0.73990 0.79976 0.23588
 C162 C 0.73984 0.81552 0.21895
 C163 C 0.73620 0.80950 0.19637
 C164 C 0.73250 0.78743 0.19108
 C165 C 0.73280 0.77166 0.20799
 C166 C 0.72815 0.76185 0.28980
 C167 C 0.71286 0.76242 0.30714
 C168 C 0.69073 0.76408 0.30217
 C169 C 0.68422 0.76536 0.27955
 C170 C 0.69948 0.76451 0.26221
 C171 C 0.73279 0.71345 0.26694
 C172 C 0.73253 0.69642 0.28253
 C173 C 0.75116 0.69236 0.29525
 C174 C 0.77005 0.70566 0.29193
 C175 C 0.77029 0.72264 0.27634
 C176 C 0.77185 0.72743 0.21634
 C177 C 0.78836 0.72743 0.20023
 C178 C 0.80311 0.74542 0.19799
 C179 C 0.80092 0.76340 0.21223
 C180 C 0.78438 0.76338 0.22833
 H181 H 0.74281 0.80471 0.25317
 H182 H 0.74248 0.83245 0.22349
 H183 H 0.72977 0.78236 0.17381
 H184 H 0.73007 0.75471 0.20357
 H185 H 0.74514 0.76088 0.29405
 H186 H 0.71833 0.76176 0.32446
 H187 H 0.69402 0.76511 0.24488
 H188 H 0.71833 0.71619 0.25720
 H189 H 0.71785 0.68626 0.28442
 H190 H 0.78456 0.70317 0.30166
 H191 H 0.78498 0.73278 0.27424
 H192 H 0.76065 0.71342 0.21772
 H193 H 0.78943 0.71344 0.18934
 H194 H 0.81224 0.77733 0.21122
 H195 H 0.78320 0.77727 0.23935
 H196 H 0.66726 0.76654 0.27526
 C197 C 0.73695 0.23653 0.24965
 C198 C 0.75300 0.25247 0.24932
 C199 C 0.77096 0.25241 0.23267
 C200 C 0.75336 0.27071 0.26564
 C201 C 0.72045 0.23526 0.26783
 C202 C 0.73519 0.21967 0.23187
 C203 C 0.78409 0.23451 0.23081
 C204 C 0.80083 0.23457 0.21494
 C205 C 0.80488 0.25260 0.20076
 C206 C 0.79187 0.27062 0.20292
 C207 C 0.77515 0.27055 0.21880
 C208 C 0.77163 0.27483 0.27930
 C209 C 0.77196 0.29166 0.29505
 C210 C 0.75408 0.30482 0.29729
 C211 C 0.73595 0.30090 0.28324
 C212 C 0.73564 0.28405 0.26751
 C213 C 0.69840 0.23635 0.26248
 C214 C 0.68281 0.23628 0.27956
 C215 C 0.68902 0.23475 0.30228
 C216 C 0.71108 0.23302 0.30756
 C217 C 0.72667 0.23330 0.29046
 C218 C 0.73301 0.22547 0.20914
 C219 C 0.73222 0.20952 0.19241
 C220 C 0.73366 0.18752 0.19817
 C221 C 0.73540 0.18175 0.22099
 C222 C 0.73599 0.19769 0.23771
 H223 H 0.78140 0.22054 0.24170
 H224 H 0.81081 0.22061 0.21399
 H225 H 0.79439 0.28465 0.19208
 H226 H 0.76522 0.28453 0.22003
 H227 H 0.78547 0.26472 0.27804
 H228 H 0.78605 0.29409 0.30577
 H229 H 0.72157 0.28140 0.25677
 H230 H 0.69332 0.23776 0.24508
 H231 H 0.66589 0.23737 0.27504
 H232 H 0.71629 0.23194 0.32493
 H233 H 0.74362 0.23222 0.29487
 H234 H 0.73213 0.24237 0.20436
 H235 H 0.73098 0.21441 0.17494
 H236 H 0.73627 0.16488 0.22588
 H237 H 0.73755 0.19293 0.25519
 H238 H 0.72210 0.31100 0.28425
 C239 C 0.26137 0.76199 0.24951
 C240 C 0.24598 0.74541 0.24831
 C241 C 0.22832 0.74537 0.23130
 C242 C 0.24592 0.72663 0.26400
 C243 C 0.27746 0.76365 0.26816
 C244 C 0.26292 0.77910 0.23190
 C245 C 0.21454 0.76279 0.22980
 C246 C 0.19802 0.76264 0.21369
 C247 C 0.19486 0.74498 0.19888
 C248 C 0.20853 0.72743 0.20065
 C249 C 0.22503 0.72760 0.21678
 C250 C 0.22730 0.72115 0.27671
 C251 C 0.22724 0.70397 0.29206
 C252 C 0.24576 0.69178 0.29483
 C253 C 0.26425 0.69701 0.28166
 C254 C 0.26429 0.71422 0.26632
 C255 C 0.29965 0.76671 0.26324
 C256 C 0.31499 0.76757 0.28057
 C257 C 0.30843 0.76536 0.30316
 C258 C 0.28618 0.76283 0.30812
 C259 C 0.27083 0.76225 0.29080
 C260 C 0.26617 0.77364 0.20924
 C261 C 0.26695 0.78974 0.19265
 C262 C 0.26445 0.81157 0.19845
 C263 C 0.26158 0.81703 0.22122
 C264 C 0.26101 0.80093 0.23783
 H265 H 0.21652 0.77645 0.24120
 H266 H 0.18752 0.77621 0.21305
 H267 H 0.20667 0.71371 0.18934
 H268 H 0.23547 0.71398 0.21773
 H269 H 0.21296 0.73052 0.27511
 H270 H 0.21285 0.70054 0.30212
 H271 H 0.27868 0.71794 0.25632
 H272 H 0.30513 0.76796 0.24592
 H273 H 0.33205 0.76942 0.27628
 H274 H 0.28068 0.76146 0.32541
 H275 H 0.25376 0.76052 0.29504
 H276 H 0.26793 0.75687 0.20441
 H277 H 0.26905 0.78509 0.17522
 H278 H 0.25988 0.83376 0.22616
 H279 H 0.25863 0.80542 0.25526
 H280 H 0.27862 0.68768 0.28310
 C281 C 0.76364 0.26272 0.75031
 C282 C 0.74655 0.24802 0.75204
 C283 C 0.72754 0.24829 0.73674
 C284 C 0.74648 0.23050 0.76912
 C285 C 0.78106 0.26357 0.76756
 C286 C 0.76562 0.27863 0.73149
 C287 C 0.71584 0.26711 0.73408
 C288 C 0.69850 0.26739 0.71894
 C289 C 0.69242 0.24878 0.70631
 C290 C 0.70389 0.22983 0.70943
 C291 C 0.72120 0.22957 0.72457
 C292 C 0.73186 0.23053 0.78721
 C293 C 0.73199 0.21416 0.80352
 C294 C 0.74635 0.19725 0.80158
 C295 C 0.76075 0.19708 0.78326
 C296 C 0.76094 0.21371 0.76724
 C297 C 0.80245 0.25955 0.76150
 C298 C 0.81876 0.25970 0.77787
 C299 C 0.81395 0.26421 0.80050
 C300 C 0.79255 0.26867 0.80640
 C301 C 0.77625 0.26834 0.79007
 C302 C 0.76347 0.27187 0.70896
 C303 C 0.76418 0.28710 0.69149
 C304 C 0.76755 0.30934 0.69619
 C305 C 0.77057 0.31599 0.71865
 C306 C 0.76961 0.30077 0.73613
 H307 H 0.72024 0.28161 0.74363
 H308 H 0.68976 0.28211 0.71721
 H309 H 0.69982 0.21532 0.69978
 H310 H 0.73001 0.21488 0.72638
 H311 H 0.72059 0.24338 0.78882
 H312 H 0.72068 0.21448 0.81746
 H313 H 0.77225 0.21347 0.75329
 H314 H 0.80643 0.25596 0.74416
 H315 H 0.83516 0.25645 0.77283
 H316 H 0.78836 0.27204 0.82373
 H317 H 0.75984 0.27171 0.79497
 H318 H 0.76101 0.25481 0.70491
 H319 H 0.76219 0.28151 0.67429
 H320 H 0.77309 0.33304 0.72274
 H321 H 0.77146 0.30634 0.75336
 H322 H 0.77199 0.18422 0.78153
 C323 C 0.23632 0.73896 0.74823
 C324 C 0.25302 0.75421 0.74944
 C325 C 0.27174 0.75419 0.73370
 C326 C 0.25325 0.77180 0.76654
 C327 C 0.21927 0.73751 0.76588
 C328 C 0.23447 0.72291 0.72954
 C329 C 0.28399 0.73572 0.73124
 C330 C 0.30117 0.73572 0.71587
 C331 C 0.30653 0.75426 0.70282
 C332 C 0.29449 0.77287 0.70571
 C333 C 0.27735 0.77286 0.72108
 C334 C 0.27099 0.77478 0.78116
 C335 C 0.27130 0.79121 0.79737
 C336 C 0.25395 0.80512 0.79913
 C337 C 0.23633 0.80226 0.78421
 C338 C 0.23603 0.78581 0.76802
 C339 C 0.19750 0.74003 0.76009
 C340 C 0.18148 0.73957 0.77677
 C341 C 0.18695 0.73618 0.79945
 C342 C 0.20870 0.73308 0.80511
 C343 C 0.22474 0.73379 0.78847
 C344 C 0.23590 0.72960 0.70692
 C345 C 0.23523 0.71428 0.68957
 C346 C 0.23260 0.69201 0.69449
 C347 C 0.23034 0.68540 0.71707
 C348 C 0.23128 0.70071 0.73443
 H349 H 0.28017 0.72128 0.74116
 H350 H 0.31036 0.72127 0.71434
 H351 H 0.29802 0.78732 0.69573
 H352 H 0.26812 0.78728 0.72278
 H353 H 0.28445 0.76416 0.78022
 H354 H 0.28499 0.79282 0.80876
 H355 H 0.22240 0.78407 0.75656
 H356 H 0.19300 0.74279 0.74271
 H357 H 0.16480 0.74176 0.77195
 H358 H 0.21335 0.73056 0.82248
 H359 H 0.24145 0.73159 0.79319
 H360 H 0.23774 0.74668 0.70270
 H361 H 0.23665 0.71982 0.67229
 H362 H 0.22841 0.66834 0.72133
 H363 H 0.23000 0.69519 0.75173
 H364 H 0.22291 0.81295 0.78483
 C365 C 0.25398 0.24720 0.75104
 C366 C 0.23866 0.26238 0.75113
 C367 C 0.23757 0.27888 0.73303
 C368 C 0.22230 0.26315 0.76936
 C369 C 0.25372 0.22934 0.76783
 C370 C 0.27173 0.24767 0.73414
 C371 C 0.23932 0.30101 0.73846
 C372 C 0.23912 0.31669 0.72146
 C373 C 0.23683 0.31049 0.69878
 C374 C 0.23452 0.28830 0.69343
 C375 C 0.23491 0.27262 0.71043
 C376 C 0.22872 0.26616 0.79187
 C377 C 0.21318 0.26627 0.80901
 C378 C 0.19100 0.26327 0.80390
 C379 C 0.18463 0.26058 0.78130
 C380 C 0.20015 0.26071 0.76416
 C381 C 0.23553 0.21494 0.77008
 C382 C 0.23553 0.19810 0.78587
 C383 C 0.25376 0.19528 0.79961
 C384 C 0.27200 0.20966 0.79714
 C385 C 0.27201 0.22644 0.78132
 C386 C 0.27481 0.22936 0.72074
 C387 C 0.29146 0.22955 0.70479
 C388 C 0.30551 0.24801 0.70208
 C389 C 0.30251 0.26627 0.71571
 C390 C 0.28582 0.26607 0.73165
 H391 H 0.24125 0.30612 0.75583
 H392 H 0.24066 0.33369 0.72605
 H393 H 0.23284 0.28309 0.67608
 H394 H 0.23328 0.25559 0.70597
 H395 H 0.24575 0.26828 0.79614
 H396 H 0.21850 0.26828 0.82630
 H397 H 0.19494 0.25849 0.74685
 H398 H 0.22143 0.21666 0.75949
 H399 H 0.22138 0.18709 0.78706
 H400 H 0.28619 0.20812 0.80765
 H401 H 0.28620 0.23738 0.77978
 H402 H 0.26412 0.21501 0.72246
 H403 H 0.29315 0.21533 0.69436
 H404 H 0.31327 0.28059 0.71430
 H405 H 0.28397 0.28021 0.74217
 H406 H 0.16762 0.25850 0.77691
 C407 C 0.74723 0.75411 0.74813
 C408 C 0.76237 0.73875 0.74811
 C409 C 0.76319 0.72229 0.72998
 C410 C 0.77877 0.73768 0.76627
 C411 C 0.74769 0.77186 0.76503
 C412 C 0.72942 0.75390 0.73131
 C413 C 0.76120 0.70015 0.73540
 C414 C 0.76114 0.68450 0.71839
 C415 C 0.76341 0.69074 0.69569
 C416 C 0.76595 0.71293 0.69036
 C417 C 0.76582 0.72858 0.70737
 C418 C 0.77239 0.73460 0.78880
 C419 C 0.78797 0.73417 0.80587
 C420 C 0.81016 0.73694 0.80067
 C421 C 0.81648 0.73971 0.77806
 C422 C 0.80091 0.73989 0.76099
 C423 C 0.76606 0.78598 0.76746
 C424 C 0.76624 0.80269 0.78337
 C425 C 0.74797 0.80569 0.79701
 C426 C 0.72955 0.79160 0.79436
 C427 C 0.72938 0.77493 0.77845
 C428 C 0.72650 0.77228 0.71792
 C429 C 0.70981 0.77231 0.70204
 C430 C 0.69555 0.75401 0.69938
 C431 C 0.69837 0.73569 0.71303
 C432 C 0.71511 0.73566 0.72890
 H433 H 0.75928 0.69501 0.75277
 H434 H 0.75944 0.66750 0.72298
 H435 H 0.76762 0.71817 0.67300
 H436 H 0.76762 0.74561 0.70292
 H437 H 0.75536 0.73265 0.79313
 H438 H 0.78269 0.73211 0.82317
 H439 H 0.80610 0.74217 0.74367
 H440 H 0.78019 0.78414 0.75693
 H441 H 0.78053 0.81349 0.78472
 H442 H 0.71533 0.79328 0.80480
 H443 H 0.71505 0.76421 0.77677
 H444 H 0.73736 0.78651 0.71959
 H445 H 0.70826 0.78657 0.69161
 H446 H 0.68744 0.72149 0.71168
 H447 H 0.71683 0.72148 0.73941
 H448 H 0.83349 0.74162 0.77361
 C449 C 0.26125 0.07796 0.07565
 C450 C 0.24189 0.06600 0.07065
 C451 C 0.24137 0.05014 0.05383
 C452 C 0.26026 0.04572 0.04177
 C453 C 0.27964 0.05764 0.04677
 C454 C 0.28011 0.07366 0.06345
 C455 C 0.26177 0.09470 0.09357
 N456 N 0.27909 0.10897 0.09583
 N457 N 0.27954 0.12397 0.11199
 C458 C 0.26272 0.12528 0.12664
 N459 N 0.24542 0.11099 0.12439
 N460 N 0.24493 0.09606 0.10817
 C461 C 0.26325 0.14184 0.14474
 C462 C 0.24804 0.14049 0.16240
 C463 C 0.24859 0.15598 0.17957
 C464 C 0.26422 0.17329 0.17937
 C465 C 0.27934 0.17478 0.16167
 C466 C 0.27894 0.15914 0.14460
 H467 H 0.22705 0.06894 0.07967
 H468 H 0.22619 0.04121 0.05041
 H469 H 0.29446 0.05465 0.03774
 H470 H 0.29530 0.08253 0.06691
 H471 H 0.23575 0.12737 0.16305
 H472 H 0.23661 0.15459 0.19290
 H473 H 0.29166 0.18788 0.16121
 H474 H 0.29086 0.16069 0.13123
 C475 C 0.76004 0.57771 0.57507
 C476 C 0.77887 0.57357 0.56275
 C477 C 0.77850 0.55743 0.54621
 C478 C 0.75924 0.54522 0.54146
 C479 C 0.74038 0.54944 0.55366
 C480 C 0.74080 0.56543 0.57034
 C481 C 0.76048 0.59464 0.59278
 N482 N 0.74367 0.59607 0.60740
 N483 N 0.74411 0.61119 0.62343
 C484 C 0.76135 0.62559 0.62547
 N485 N 0.77814 0.62420 0.61081
 N486 N 0.77774 0.60903 0.59484
 C487 C 0.76186 0.64235 0.64337
 C488 C 0.77763 0.65957 0.64309
 C489 C 0.77807 0.67537 0.66000
 C490 C 0.76289 0.67413 0.67765
 C491 C 0.74716 0.65691 0.67798
 C492 C 0.74658 0.64124 0.66097
 H493 H 0.79398 0.58268 0.56601
 H494 H 0.79329 0.55460 0.53707
 H495 H 0.72529 0.54028 0.55042
 H496 H 0.72599 0.56824 0.57946
 H497 H 0.78961 0.66093 0.62976
 H498 H 0.79046 0.68839 0.65945
 H499 H 0.73513 0.65571 0.69127
 H500 H 0.73423 0.62819 0.66171
 C501 C 0.73924 0.92193 0.07486
 C502 C 0.75904 0.93201 0.06795
 C503 C 0.75959 0.94787 0.05111
 C504 C 0.74030 0.95428 0.04087
 C505 C 0.72047 0.94415 0.04785
 C506 C 0.71998 0.92810 0.06454
 C507 C 0.73871 0.90518 0.09281
 N508 N 0.72060 0.89226 0.09646
 N509 N 0.72016 0.87723 0.11263
 C510 C 0.73778 0.87456 0.12590
 N511 N 0.75587 0.88751 0.12227
 N512 N 0.75634 0.90246 0.10604
 C513 C 0.73730 0.85792 0.14396
 C514 C 0.75352 0.85825 0.16062
 C515 C 0.75305 0.84262 0.17771
 C516 C 0.73650 0.82620 0.17838
 C517 C 0.72035 0.82576 0.16169
 C518 C 0.72066 0.84154 0.14474
 H519 H 0.77419 0.92756 0.07549
 H520 H 0.77521 0.95521 0.04627
 H521 H 0.70525 0.94854 0.04042
 H522 H 0.70444 0.92069 0.06952
 H523 H 0.76654 0.87065 0.16055
 H524 H 0.76581 0.84319 0.19026
 H525 H 0.70732 0.81336 0.16193
 H526 H 0.70795 0.84080 0.13214
 C527 C 0.23939 0.42306 0.57745
 C528 C 0.25864 0.43526 0.57253
 C529 C 0.25907 0.45102 0.55557
 C530 C 0.24021 0.45508 0.54329
 C531 C 0.22094 0.44297 0.54827
 C532 C 0.22055 0.42706 0.56509
 C533 C 0.23897 0.40630 0.59538
 N534 N 0.22176 0.39188 0.59759
 N535 N 0.22141 0.37681 0.61371
 C536 C 0.23823 0.37558 0.62836
 N537 N 0.25542 0.39002 0.62617
 N538 N 0.25580 0.40503 0.61000
 C539 C 0.23783 0.35889 0.64636
 C540 C 0.25313 0.36014 0.66393
 C541 C 0.25271 0.34448 0.68098
 C542 C 0.23712 0.32714 0.68074
 C543 C 0.22190 0.32578 0.66314
 C544 C 0.22217 0.34155 0.64619
 H545 H 0.27345 0.43256 0.58168
 H546 H 0.27417 0.46011 0.55216
 H547 H 0.20614 0.44568 0.53907
 H548 H 0.20544 0.41800 0.56849
 H549 H 0.26539 0.37328 0.66459
 H550 H 0.26477 0.34578 0.69423
 H551 H 0.20961 0.31265 0.66266
 H552 H 0.21018 0.34009 0.63289
 C553 C 0.92231 0.25425 0.08445
 C554 C 0.92849 0.23494 0.07419
 C555 C 0.94477 0.23537 0.05778
 C556 C 0.95519 0.25513 0.05119
 C557 C 0.94900 0.27443 0.06140
 C558 C 0.93279 0.27400 0.07786
 C559 C 0.90506 0.25385 0.10188
 N560 N 0.90017 0.27228 0.11290
 N561 N 0.88466 0.27197 0.12852
 C562 C 0.87333 0.25322 0.13378
 N563 N 0.87822 0.23478 0.12275
 N564 N 0.89376 0.23508 0.10715
 C565 C 0.85596 0.25296 0.15108
 C566 C 0.84306 0.23397 0.15525
 C567 C 0.82654 0.23383 0.17140
 C568 C 0.82258 0.25265 0.18378
 C569 C 0.83556 0.27159 0.17970
 C570 C 0.85203 0.27176 0.16353
 H571 H 0.92080 0.21944 0.07887
 H572 H 0.94916 0.22021 0.05023
 H573 H 0.95671 0.28993 0.05672
 H574 H 0.92843 0.28919 0.08536
 H575 H 0.84557 0.21921 0.14592
 H576 H 0.81664 0.21906 0.17392
 H577 H 0.83315 0.28627 0.18919
 H578 H 0.86172 0.28664 0.16086
 C579 C 0.42277 0.75623 0.58520
 C580 C 0.42847 0.73702 0.57441
 C581 C 0.44433 0.73754 0.55757
 C582 C 0.45479 0.75730 0.55103
 C583 C 0.44907 0.77651 0.56177
 C584 C 0.43329 0.77598 0.57869
 C585 C 0.40592 0.75570 0.60306
 N586 N 0.40179 0.77388 0.61491
 N587 N 0.38659 0.77345 0.63086
 C588 C 0.37483 0.75483 0.63564
 N589 N 0.37896 0.73664 0.62380
 N590 N 0.39420 0.73706 0.60787
 C591 C 0.35769 0.75447 0.65320
 C592 C 0.34393 0.73589 0.65646
 C593 C 0.32747 0.73576 0.67266
 C594 C 0.32442 0.75417 0.68604
 C595 C 0.33835 0.77264 0.68296
 C596 C 0.35475 0.77281 0.66672
 H597 H 0.42073 0.72152 0.57901
 H598 H 0.44835 0.72245 0.54962
 H599 H 0.45684 0.79200 0.55715
 H600 H 0.42928 0.79109 0.58659
 H601 H 0.34567 0.72151 0.64629
 H602 H 0.31683 0.72138 0.67438
 H603 H 0.33666 0.78697 0.69323
 H604 H 0.36514 0.78734 0.66479
 C605 C 0.07776 0.74330 0.08223
 C606 C 0.06750 0.72355 0.07538
 C607 C 0.05131 0.72318 0.05890
 C608 C 0.04494 0.74255 0.04892
 C609 C 0.05514 0.76231 0.05579
 C610 C 0.07138 0.76268 0.07223
 C611 C 0.09502 0.74365 0.09964
 N612 N 0.10593 0.76250 0.10534
 N613 N 0.12148 0.76277 0.12093
 C614 C 0.12677 0.74420 0.13151
 N615 N 0.11584 0.72536 0.12583
 N616 N 0.10032 0.72508 0.11023
 C617 C 0.14412 0.74445 0.14882
 C618 C 0.14864 0.72543 0.16067
 C619 C 0.16503 0.72562 0.17692
 C620 C 0.17734 0.74483 0.18170
 C621 C 0.17282 0.76386 0.16988
 C622 C 0.15640 0.76369 0.15365
 H623 H 0.07200 0.70831 0.08269
 H624 H 0.04377 0.70768 0.05400
 H625 H 0.05062 0.77753 0.04842
 H626 H 0.07891 0.77819 0.07711
 H627 H 0.13946 0.71035 0.15747
 H628 H 0.16789 0.71076 0.18596
 H629 H 0.18221 0.77885 0.17295
 H630 H 0.15343 0.77862 0.14480
 C631 C 0.57704 0.24721 0.58795
 C632 C 0.57164 0.26631 0.57671
 C633 C 0.55599 0.26564 0.55966
 C634 C 0.54547 0.24585 0.55336
 C635 C 0.55092 0.22676 0.56454
 C636 C 0.56647 0.22744 0.58166
 C637 C 0.59363 0.24784 0.60606
 N638 N 0.59726 0.22982 0.61842
 N639 N 0.61225 0.23029 0.63457
 C640 C 0.62429 0.24879 0.63906
 N641 N 0.62065 0.26684 0.62672
 N642 N 0.60561 0.26638 0.61059
 C643 C 0.64126 0.24914 0.65677
 C644 C 0.65550 0.26742 0.65963
 C645 C 0.67192 0.26741 0.67587
 C646 C 0.67445 0.24915 0.68967
 C647 C 0.65999 0.23103 0.68706
 C648 C 0.64363 0.23100 0.67078
 H649 H 0.57944 0.28182 0.58114
 H650 H 0.55217 0.28064 0.55136
 H651 H 0.54309 0.21125 0.56013
 H652 H 0.57025 0.21240 0.58991
 H653 H 0.65419 0.28164 0.64910
 H654 H 0.68297 0.28152 0.67725
 H655 H 0.66126 0.21685 0.69767
 H656 H 0.63286 0.21670 0.66918
 C657 C 0.74453 0.07886 0.91624
 C658 C 0.72717 0.06329 0.91696
 C659 C 0.72657 0.04692 0.93329
 C660 C 0.74357 0.04552 0.94889
 C661 C 0.76108 0.06090 0.94798
 C662 C 0.76143 0.07757 0.93198
 C663 C 0.74496 0.09639 0.89921
 N664 N 0.75585 0.11566 0.90322
 N665 N 0.75607 0.13153 0.88795
 C666 C 0.74559 0.12868 0.86797
 N667 N 0.73479 0.10937 0.86392
 N668 N 0.73439 0.09358 0.87928
 C669 C 0.74587 0.14625 0.85098
 C670 C 0.74327 0.14134 0.82800
 C671 C 0.74369 0.15793 0.81191
 C672 C 0.74623 0.17973 0.81858
 C673 C 0.74862 0.18469 0.84154
 C674 C 0.74869 0.16808 0.85759
 H675 H 0.71388 0.06396 0.90509
 H676 H 0.71291 0.03522 0.93358
 H677 H 0.77435 0.06023 0.95988
 H678 H 0.77506 0.08930 0.93174
 H679 H 0.74117 0.12465 0.82242
 H680 H 0.74174 0.15379 0.79427
 H681 H 0.75068 0.20142 0.84699
 H682 H 0.75064 0.17233 0.87520
 C683 C 0.24381 0.57598 0.41297
 C684 C 0.26302 0.57039 0.42381
 C685 C 0.26253 0.55466 0.44080
 C686 C 0.24280 0.54423 0.44742
 C687 C 0.22358 0.54983 0.43663
 C688 C 0.22408 0.56549 0.41956
 C689 C 0.24432 0.59271 0.39499
 N690 N 0.22612 0.59682 0.38314
 N691 N 0.22654 0.61195 0.36709
 C692 C 0.24517 0.62364 0.36221
 N693 N 0.26337 0.61952 0.37404
 N694 N 0.26296 0.60437 0.39006
 C695 C 0.24553 0.64071 0.34457
 C696 C 0.26415 0.65438 0.34119
 C697 C 0.26429 0.67080 0.32494
 C698 C 0.24584 0.67391 0.31163
 C699 C 0.22733 0.66007 0.31481
 C700 C 0.22716 0.64370 0.33111
 H701 H 0.27850 0.57812 0.41915
 H702 H 0.27763 0.55072 0.44880
 H703 H 0.20811 0.54207 0.44131
 H704 H 0.20896 0.56942 0.41161
 H705 H 0.27856 0.65259 0.35131
 H706 H 0.27870 0.68138 0.32312
 H707 H 0.21298 0.66182 0.30460
 H708 H 0.21259 0.63339 0.33315
 C709 C 0.25645 0.92212 0.91593
 C710 C 0.27628 0.93177 0.92333
 C711 C 0.27675 0.94800 0.93976
 C712 C 0.25737 0.95510 0.94922
 C713 C 0.23752 0.94544 0.94172
 C714 C 0.23708 0.92915 0.92533
 C715 C 0.25600 0.90483 0.89854
 N716 N 0.23703 0.89435 0.89248
 N717 N 0.23667 0.87879 0.87691
 C718 C 0.25526 0.87306 0.86670
 N719 N 0.27422 0.88355 0.87274
 N720 N 0.27459 0.89909 0.88833
 C721 C 0.25488 0.85571 0.84937
 C722 C 0.27391 0.85092 0.83770
 C723 C 0.27359 0.83457 0.82140
 C724 C 0.25425 0.82257 0.81641
 C725 C 0.23523 0.82735 0.82806
 C726 C 0.23553 0.84374 0.84433
 H727 H 0.29152 0.92675 0.91648
 H728 H 0.29239 0.95496 0.94501
 H729 H 0.22222 0.95039 0.94851
 H730 H 0.22151 0.92210 0.92000
 H731 H 0.28908 0.85987 0.84106
 H732 H 0.28845 0.83151 0.81249
 H733 H 0.22013 0.81820 0.82484
 H734 H 0.22059 0.84692 0.85305
 C735 C 0.75629 0.42154 0.41426
 C736 C 0.77601 0.43199 0.42092
 C737 C 0.77640 0.44805 0.43753
 C738 C 0.75708 0.45410 0.44782
 C739 C 0.73736 0.44370 0.44114
 C740 C 0.73697 0.42759 0.42458
 C741 C 0.75589 0.40444 0.39670
 N742 N 0.73711 0.39320 0.39139
 N743 N 0.73677 0.37777 0.37569
 C744 C 0.75518 0.37294 0.36458
 N745 N 0.77394 0.38420 0.36986
 N746 N 0.77429 0.39960 0.38558
 C747 C 0.75482 0.35568 0.34718
 C748 C 0.77356 0.35174 0.33462
 C749 C 0.77328 0.33536 0.31837
 C750 C 0.75428 0.32247 0.31432
 C751 C 0.73553 0.32645 0.32681
 C752 C 0.73578 0.34287 0.34303
 H753 H 0.79121 0.42773 0.41335
 H754 H 0.79187 0.45576 0.44228
 H755 H 0.72219 0.44798 0.44874
 H756 H 0.72150 0.41991 0.41986
 H757 H 0.78848 0.36136 0.33728
 H758 H 0.78791 0.33292 0.30880
 H759 H 0.72072 0.31660 0.32432
 H760 H 0.72108 0.34538 0.35244
 C761 C 0.07900 0.25922 0.92556
 C762 C 0.06883 0.23941 0.93232
 C763 C 0.05286 0.23884 0.94904
 C764 C 0.04645 0.25813 0.95926
 C765 C 0.05668 0.27797 0.95241
 C766 C 0.07283 0.27847 0.93587
 C767 C 0.09583 0.25979 0.90773
 N768 N 0.10894 0.27783 0.90439
 N769 N 0.12400 0.27835 0.88828
 C770 C 0.12650 0.26088 0.87476
 N771 N 0.11337 0.24286 0.87808
 N772 N 0.09839 0.24230 0.89426
 C773 C 0.14309 0.26150 0.85669
 C774 C 0.14238 0.24572 0.83959
 C775 C 0.15787 0.24639 0.82240
 C776 C 0.17455 0.26270 0.82208
 C777 C 0.17540 0.27837 0.83924
 C778 C 0.15974 0.27787 0.85630
 H779 H 0.07328 0.22427 0.92477
 H780 H 0.04545 0.22322 0.95378
 H781 H 0.05228 0.29319 0.95984
 H782 H 0.08030 0.29402 0.93099
 H783 H 0.12975 0.23292 0.83936
 H784 H 0.15699 0.23399 0.80947
 H785 H 0.18802 0.29119 0.83929
 H786 H 0.16078 0.29023 0.86925
 C787 C 0.57752 0.76157 0.42268
 C788 C 0.56701 0.78050 0.42854
 C789 C 0.55097 0.77994 0.44520
 C790 C 0.54492 0.76039 0.45621
 C791 C 0.55532 0.74143 0.45026
 C792 C 0.57153 0.74204 0.43378
 C793 C 0.59460 0.76219 0.40509
 N794 N 0.60787 0.74539 0.40257
 N795 N 0.62319 0.74593 0.38674
 C796 C 0.62584 0.76326 0.37268
 N797 N 0.61257 0.78005 0.37519
 N798 N 0.59731 0.77955 0.39109
 C799 C 0.64271 0.76375 0.35487
 C800 C 0.64235 0.77905 0.33730
 C801 C 0.65797 0.77919 0.32023
 C802 C 0.67442 0.76421 0.32050
 C803 C 0.67499 0.74911 0.33819
 C804 C 0.65922 0.74879 0.35513
 H805 H 0.57127 0.79582 0.42037
 H806 H 0.54322 0.79481 0.44937
 H807 H 0.55106 0.72613 0.45848
 H808 H 0.57925 0.72715 0.42962
 H809 H 0.62984 0.79077 0.33658
 H810 H 0.65728 0.79111 0.30686
 H811 H 0.68740 0.73726 0.33868
 H812 H 0.66001 0.73683 0.36845
 C813 C 0.92224 0.73928 0.92218
 C814 C 0.93236 0.75903 0.92915
 C815 C 0.94821 0.75945 0.94597
 C816 C 0.95458 0.74007 0.95608
 C817 C 0.94444 0.72029 0.94900
 C818 C 0.92839 0.71993 0.93236
 C819 C 0.90547 0.73889 0.90430
 N820 N 0.89229 0.72093 0.90084
 N821 N 0.87724 0.72062 0.88473
 C822 C 0.87483 0.73821 0.87132
 N823 N 0.88804 0.75615 0.87476
 N824 N 0.90300 0.75650 0.89094
 C825 C 0.85822 0.73785 0.85328
 C826 C 0.85904 0.75374 0.83625
 C827 C 0.84351 0.75334 0.81912
 C828 C 0.82667 0.73720 0.81879
 C829 C 0.82571 0.72141 0.83587
 C830 C 0.84141 0.72164 0.85287
 H831 H 0.92793 0.77424 0.92171
 H832 H 0.95557 0.77503 0.95088
 H833 H 0.94881 0.70500 0.95634
 H834 H 0.92095 0.70443 0.92731
 H835 H 0.87179 0.76643 0.83605
 H836 H 0.84448 0.76582 0.80626
 H837 H 0.81296 0.70871 0.83589
 H838 H 0.84029 0.70920 0.86576
 C839 C 0.42390 0.24022 0.42390
 C840 C 0.43568 0.25970 0.42885
 C841 C 0.45144 0.26042 0.44578
 C842 C 0.45593 0.24162 0.45800
 C843 C 0.44423 0.22211 0.45300
 C844 C 0.42832 0.22144 0.43622
 C845 C 0.40716 0.23951 0.40597
 N846 N 0.39307 0.22203 0.40374
 N847 N 0.37802 0.22144 0.38762
 C848 C 0.37648 0.23826 0.37300
 N849 N 0.39058 0.25571 0.37521
 N850 N 0.40557 0.25634 0.39137
 C851 C 0.35980 0.23761 0.35500
 C852 C 0.36080 0.25296 0.33745
 C853 C 0.34515 0.25233 0.32041
 C854 C 0.32805 0.23646 0.32066
 C855 C 0.32695 0.22118 0.33823
 C856 C 0.34272 0.22167 0.35517
 H857 H 0.43264 0.27448 0.41975
 H858 H 0.46020 0.27569 0.44919
 H859 H 0.44729 0.20736 0.46215
 H860 H 0.41959 0.20615 0.43279
 H861 H 0.37373 0.26544 0.33678
 H862 H 0.34625 0.26444 0.30718
 H863 H 0.31402 0.20868 0.33872
 H864 H 0.34145 0.20963 0.36845
 C865 C 0.74594 0.92264 0.91352
 C866 C 0.76508 0.93049 0.92422
 C867 C 0.76437 0.94642 0.94093
 C868 C 0.74449 0.95477 0.94739
 C869 C 0.72538 0.94694 0.93669
 C870 C 0.72610 0.93111 0.91993
 C871 C 0.74657 0.90566 0.89588
 N872 N 0.72834 0.89943 0.88431
 N873 N 0.72878 0.88407 0.86859
 C874 C 0.74747 0.87423 0.86378
 N875 N 0.76572 0.88047 0.87533
 N876 N 0.76529 0.89587 0.89104
 C877 C 0.74781 0.85694 0.84645
 C878 C 0.76654 0.84525 0.84290
 C879 C 0.76664 0.82870 0.82682
 C880 C 0.74804 0.82348 0.81388
 C881 C 0.72939 0.83531 0.81728
 C882 C 0.72926 0.85180 0.83339
 H883 H 0.78065 0.92436 0.91968
 H884 H 0.77938 0.95211 0.94887
 H885 H 0.70980 0.95305 0.94124
 H886 H 0.71104 0.92543 0.91209
 H887 H 0.78108 0.84873 0.85271
 H888 H 0.78118 0.81972 0.82480
 H889 H 0.71492 0.83195 0.80733
 H890 H 0.71459 0.86054 0.83555
 C891 C 0.24528 0.42110 0.41591
 C892 C 0.26441 0.42913 0.42649
 C893 C 0.26370 0.44535 0.44289
 C894 C 0.24384 0.45385 0.44916
 C895 C 0.22471 0.44579 0.43863
 C896 C 0.22543 0.42966 0.42218
 C897 C 0.24593 0.40392 0.39848
 N898 N 0.22770 0.39746 0.38703
 N899 N 0.22820 0.38200 0.37141
 C900 C 0.24695 0.37229 0.36658
 N901 N 0.26521 0.37874 0.37803
 N902 N 0.26471 0.39424 0.39363
 C903 C 0.24740 0.35496 0.34929
 C904 C 0.26626 0.34350 0.34566
 C905 C 0.26651 0.32698 0.32954
 C906 C 0.24791 0.32156 0.31666
 C907 C 0.22912 0.33314 0.32017
 C908 C 0.22885 0.34960 0.33631
 H909 H 0.27998 0.42294 0.42206
 H910 H 0.27873 0.45120 0.45070
 H911 H 0.20914 0.45200 0.44305
 H912 H 0.21036 0.42385 0.41444
 H913 H 0.28081 0.34714 0.35540
 H914 H 0.28116 0.31818 0.32745
 H915 H 0.21464 0.32962 0.31027
 H916 H 0.21408 0.35816 0.33854
 C917 C 0.25590 0.07701 0.91495
 C918 C 0.23659 0.06825 0.92456
 C919 C 0.23713 0.05209 0.94106
 C920 C 0.25703 0.04435 0.94849
 C921 C 0.27635 0.05316 0.93879
 C922 C 0.27577 0.06922 0.92221
 C923 C 0.25538 0.09425 0.89754
 N924 N 0.27381 0.10119 0.88666
 N925 N 0.27341 0.11677 0.87113
 C926 C 0.25457 0.12613 0.86583
 N927 N 0.23613 0.11918 0.87669
 N928 N 0.23653 0.10356 0.89219
 C929 C 0.25422 0.14363 0.84869
 C930 C 0.23533 0.15502 0.84500
 C931 C 0.23515 0.17172 0.82906
 C932 C 0.25383 0.17738 0.81639
 C933 C 0.27266 0.16587 0.81997
 C934 C 0.27287 0.14923 0.83595
 H935 H 0.22100 0.07384 0.91931
 H936 H 0.22188 0.04577 0.94805
 H937 H 0.29202 0.04768 0.94397
 H938 H 0.29097 0.07562 0.91521
 H939 H 0.22070 0.15119 0.85457
 H940 H 0.22047 0.18046 0.82692
 H941 H 0.28722 0.16956 0.81023
 H942 H 0.28767 0.14072 0.83824
 C943 C 0.75374 0.57629 0.41296
 C944 C 0.77359 0.56767 0.41910
 C945 C 0.77444 0.55197 0.43603
 C946 C 0.75543 0.54443 0.44717
 C947 C 0.73556 0.55298 0.44101
 C948 C 0.73473 0.56878 0.42414
 C949 C 0.75295 0.59304 0.39505
 N950 N 0.73434 0.60321 0.39066
 N951 N 0.73376 0.61838 0.37469
 C952 C 0.75174 0.62400 0.36239
 N953 N 0.77031 0.61378 0.36675
 N954 N 0.77091 0.59865 0.38274
 C955 C 0.75126 0.64108 0.34481
 C956 C 0.76935 0.64536 0.33081
 C957 C 0.76918 0.66178 0.31458
 C958 C 0.75097 0.67440 0.31200
 C959 C 0.73277 0.66998 0.32581
 C960 C 0.73290 0.65349 0.34201
 H961 H 0.78856 0.57309 0.41089
 H962 H 0.79001 0.54570 0.44034
 H963 H 0.72063 0.54752 0.44928
 H964 H 0.71916 0.57505 0.41982
 H965 H 0.78371 0.63603 0.33236
 H966 H 0.78332 0.66450 0.30395
 H967 H 0.71858 0.67959 0.32444
 H968 H 0.71871 0.65068 0.35254
 C969 C 0.07496 0.73865 0.92096
 C970 C 0.06697 0.71936 0.93126
 C971 C 0.05122 0.71987 0.94818
 C972 C 0.04325 0.73973 0.95544
 C973 C 0.05147 0.75905 0.94520
 C974 C 0.06701 0.75848 0.92810
 C975 C 0.09146 0.73811 0.90283
 N976 N 0.09569 0.75574 0.88951
 N977 N 0.11048 0.75527 0.87318
 C978 C 0.12173 0.73719 0.86954
 N979 N 0.11754 0.71958 0.88289
 N980 N 0.10267 0.72001 0.89915
 C981 C 0.13828 0.73676 0.85146
 C982 C 0.15332 0.72032 0.85089
 C983 C 0.16914 0.72014 0.83402
 C984 C 0.17007 0.73621 0.81721
 C985 C 0.15492 0.75251 0.81763
 C986 C 0.13928 0.75286 0.83464
 H987 H 0.07271 0.70381 0.92609
 H988 H 0.04539 0.70462 0.95559
 H989 H 0.04581 0.77469 0.95024
 H990 H 0.07290 0.77365 0.92059
 H991 H 0.15303 0.70771 0.86361
 H992 H 0.18054 0.70731 0.83398
 H993 H 0.15543 0.76520 0.80498
 H994 H 0.12791 0.76571 0.83455
 C995 C 0.57822 0.24015 0.42471
 C996 C 0.56814 0.25961 0.42944
 C997 C 0.55243 0.26040 0.44636
 C998 C 0.54628 0.24168 0.45877
 C999 C 0.55634 0.22222 0.45405
 C1000 C 0.57222 0.22149 0.43729
 C1001 C 0.59476 0.23932 0.40667
 N1002 N 0.60743 0.22198 0.40471
 N1003 N 0.62225 0.22123 0.38843
 C1004 C 0.62495 0.23773 0.37335
 N1005 N 0.61227 0.25505 0.37530
 N1006 N 0.59752 0.25584 0.39163
 C1007 C 0.64133 0.23687 0.35514
 C1008 C 0.64117 0.25162 0.33706
 C1009 C 0.65654 0.25079 0.31984
 C1010 C 0.67256 0.23536 0.32042
 C1011 C 0.67283 0.22067 0.33852
 C1012 C 0.65730 0.22134 0.35564
 H1013 H 0.57243 0.27431 0.42013
 H1014 H 0.54495 0.27563 0.44956
 H1015 H 0.55199 0.20754 0.46336
 H1016 H 0.57962 0.20622 0.43404
 H1017 H 0.62908 0.26377 0.33613
 H1018 H 0.65612 0.26245 0.30619
 H1019 H 0.68492 0.20852 0.33928
 H1020 H 0.65791 0.20977 0.36934
 C1021 C 0.92602 0.26028 0.92184
 C1022 C 0.93248 0.27916 0.93381
 C1023 C 0.94794 0.27841 0.95098
 C1024 C 0.95715 0.25873 0.95670
 C1025 C 0.95061 0.23983 0.94483
 C1026 C 0.93529 0.24061 0.92753
 C1027 C 0.90971 0.26108 0.90354
 N1028 N 0.90592 0.24383 0.88964
 N1029 N 0.89123 0.24452 0.87323
 C1030 C 0.87966 0.26248 0.87007
 N1031 N 0.88344 0.27973 0.88398
 N1032 N 0.89818 0.27906 0.90033
 C1033 C 0.86312 0.26315 0.85199
 C1034 C 0.84862 0.28006 0.85115
 C1035 C 0.83272 0.28044 0.83440
 C1036 C 0.83111 0.26405 0.81798
 C1037 C 0.84575 0.24730 0.81861
 C1038 C 0.86152 0.24679 0.83549
 H1039 H 0.92570 0.29458 0.92984
 H1040 H 0.95261 0.29325 0.95984
 H1041 H 0.95744 0.22442 0.94879
 H1042 H 0.93064 0.22575 0.91871
 H1043 H 0.84938 0.29291 0.86358
 H1044 H 0.82177 0.29365 0.83417
 H1045 H 0.84472 0.23434 0.80629
 H1046 H 0.87245 0.23356 0.83560
 C1047 C 0.42151 0.76199 0.42343
 C1048 C 0.43371 0.78092 0.42948
 C1049 C 0.44976 0.78027 0.44606
 C1050 C 0.45413 0.76062 0.45679
 C1051 C 0.44202 0.74166 0.45067
 C1052 C 0.42581 0.74236 0.43426
 C1053 C 0.40447 0.76272 0.40588
 N1054 N 0.38988 0.74575 0.40298
 N1055 N 0.37460 0.74640 0.38717
 C1056 C 0.37331 0.76399 0.37352
 N1057 N 0.38792 0.78094 0.37640
 N1058 N 0.40314 0.78034 0.39228
 C1059 C 0.35648 0.76460 0.35574
 C1060 C 0.35790 0.78046 0.33869
 C1061 C 0.34228 0.78074 0.32165
 C1062 C 0.32477 0.76534 0.32145
 C1063 C 0.32317 0.74965 0.33861
 C1064 C 0.33892 0.74920 0.35552
 H1065 H 0.43078 0.79632 0.42152
 H1066 H 0.45884 0.79514 0.45036
 H1067 H 0.44497 0.72629 0.45867
 H1068 H 0.41677 0.72747 0.42995
 H1069 H 0.37123 0.79253 0.33834
 H1070 H 0.34379 0.79311 0.30870
 H1071 H 0.30994 0.73746 0.33872
 H1072 H 0.33731 0.73680 0.36842
 C1073 C 0.26181 0.92391 0.07716
 C1074 C 0.28065 0.93003 0.06495
 C1075 C 0.28007 0.94572 0.04797
 C1076 C 0.26058 0.95549 0.04267
 C1077 C 0.24171 0.94927 0.05477
 C1078 C 0.24234 0.93374 0.07189
 C1079 C 0.26242 0.90741 0.09530
 N1080 N 0.24549 0.90433 0.10977
 N1081 N 0.24601 0.88951 0.12608
 C1082 C 0.26345 0.87708 0.12857
 N1083 N 0.28038 0.88014 0.11408
 N1084 N 0.27990 0.89502 0.09782
 C1085 C 0.26393 0.86048 0.14662
 C1086 C 0.27982 0.84486 0.14662
 C1087 C 0.28000 0.82899 0.16345
 C1088 C 0.26446 0.82855 0.18076
 C1089 C 0.24872 0.84427 0.18091
 C1090 C 0.24838 0.86000 0.16397
 H1091 H 0.29593 0.92282 0.06862
 H1092 H 0.29488 0.95014 0.03892
 H1093 H 0.22645 0.95653 0.05112
 H1094 H 0.22751 0.92935 0.08090
 H1095 H 0.29201 0.84475 0.13350
 H1096 H 0.29242 0.81715 0.16305
 H1097 H 0.23642 0.84415 0.19394
 H1098 H 0.23595 0.87181 0.16450
 C1099 C 0.76295 0.42204 0.57535
 C1100 C 0.78170 0.43443 0.56906
 C1101 C 0.78074 0.45041 0.55240
 C1102 C 0.76098 0.45451 0.54181
 C1103 C 0.74221 0.44221 0.54817
 C1104 C 0.74320 0.42609 0.56467
 C1105 C 0.76395 0.40504 0.59296
 N1106 N 0.74700 0.39050 0.59624
 N1107 N 0.74785 0.37527 0.61211
 C1108 C 0.76564 0.37396 0.62543
 N1109 N 0.78259 0.38851 0.62216
 N1110 N 0.78177 0.40369 0.60623
 C1111 C 0.76644 0.35717 0.64328
 C1112 C 0.78274 0.35838 0.65986
 C1113 C 0.78316 0.34281 0.67699
 C1114 C 0.76744 0.32559 0.67777
 C1115 C 0.75132 0.32421 0.66106
 C1116 C 0.75075 0.33988 0.64406
 H1117 H 0.79718 0.43170 0.57691
 H1118 H 0.79549 0.45964 0.54790
 H1119 H 0.72674 0.44493 0.54029
 H1120 H 0.72843 0.41690 0.56915
 H1121 H 0.79505 0.37148 0.65977
 H1122 H 0.79587 0.34415 0.68957
 H1123 H 0.73887 0.31122 0.66140
 H1124 H 0.73800 0.33844 0.63155
 C1125 C 0.73748 0.07528 0.07715
 C1126 C 0.71888 0.06938 0.06447
 C1127 C 0.71970 0.05366 0.04756
 C1128 C 0.73920 0.04368 0.04281
 C1129 C 0.75781 0.04967 0.05539
 C1130 C 0.75694 0.06521 0.07244
 C1131 C 0.73664 0.09181 0.09519
 N1132 N 0.75316 0.09452 0.11020
 N1133 N 0.75248 0.10937 0.12642
 C1134 C 0.73528 0.12222 0.12828
 N1135 N 0.71877 0.11955 0.11325
 N1136 N 0.71941 0.10462 0.09708
 C1137 C 0.73465 0.13883 0.14627
 C1138 C 0.71931 0.15498 0.14562
 C1139 C 0.71899 0.17082 0.16245
 C1140 C 0.73381 0.17067 0.18040
 C1141 C 0.74901 0.15444 0.18116
 C1142 C 0.74950 0.13875 0.16423
 H1143 H 0.70362 0.07678 0.06771
 H1144 H 0.70509 0.04942 0.03812
 H1145 H 0.77307 0.04224 0.05218
 H1146 H 0.77158 0.06942 0.08183
 H1147 H 0.70767 0.15553 0.13200
 H1148 H 0.70701 0.18308 0.16156
 H1149 H 0.76077 0.15410 0.19469
 H1150 H 0.76149 0.12653 0.16528
 C1151 C 0.23687 0.57862 0.57461
 C1152 C 0.25656 0.57454 0.56384
 C1153 C 0.25752 0.55821 0.54759
 C1154 C 0.23876 0.54575 0.54157
 C1155 C 0.21904 0.54991 0.55221
 C1156 C 0.21812 0.56609 0.56863
 C1157 C 0.23591 0.59577 0.59202
 N1158 N 0.21826 0.59700 0.60556
 N1159 N 0.21749 0.61229 0.62135
 C1160 C 0.23430 0.62707 0.62420
 N1161 N 0.25192 0.62589 0.61060
 N1162 N 0.25273 0.61054 0.59488
 C1163 C 0.23355 0.64395 0.64191
 C1164 C 0.24888 0.66157 0.64217
 C1165 C 0.24836 0.67732 0.65905
 C1166 C 0.23265 0.67568 0.67618
 C1167 C 0.21729 0.65814 0.67593
 C1168 C 0.21765 0.64250 0.65891
 H1169 H 0.27132 0.58384 0.56809
 H1170 H 0.27295 0.55543 0.53965
 H1171 H 0.20430 0.54056 0.54798
 H1172 H 0.20268 0.56885 0.57655
 H1173 H 0.26131 0.66321 0.62931
 H1174 H 0.26052 0.69058 0.65898
 H1175 H 0.20490 0.65660 0.68884
 H1176 H 0.20562 0.62914 0.65923
 C1177 C 0.92123 0.74375 0.08252
 C1178 C 0.92978 0.72400 0.07593
 C1179 C 0.94596 0.72355 0.05948
 C1180 C 0.95405 0.74286 0.04928
 C1181 C 0.94561 0.76264 0.05594
 C1182 C 0.92936 0.76308 0.07234
 C1183 C 0.90389 0.74415 0.09982
 N1184 N 0.89437 0.76293 0.10503
 N1185 N 0.87870 0.76322 0.12046
 C1186 C 0.87188 0.74475 0.13137
 N1187 N 0.88142 0.72599 0.12618
 N1188 N 0.89707 0.72569 0.11073
 C1189 C 0.85436 0.74501 0.14849
 C1190 C 0.84846 0.72617 0.16084
 C1191 C 0.83191 0.72633 0.17690
 C1192 C 0.82079 0.74532 0.18097
 C1193 C 0.82670 0.76418 0.16866
 C1194 C 0.84331 0.76403 0.15263
 H1195 H 0.92391 0.70880 0.08339
 H1196 H 0.95213 0.70804 0.05476
 H1197 H 0.95148 0.77780 0.04839
 H1198 H 0.92318 0.77859 0.07702
 H1199 H 0.85669 0.71125 0.15819
 H1200 H 0.82799 0.71163 0.18634
 H1201 H 0.81827 0.77899 0.17119
 H1202 H 0.84736 0.77881 0.14337
 C1203 C 0.42259 0.24662 0.58559
 C1204 C 0.43133 0.22687 0.57928
 C1205 C 0.44739 0.22634 0.56273
 C1206 C 0.45519 0.24556 0.55214
 C1207 C 0.44652 0.26533 0.55846
 C1208 C 0.43036 0.26585 0.57496
 C1209 C 0.40548 0.24708 0.60310
 N1210 N 0.39557 0.26574 0.60793
 N1211 N 0.38011 0.26606 0.62359
 C1212 C 0.37393 0.24775 0.63513
 N1213 N 0.38387 0.22912 0.63032
 N1214 N 0.39929 0.22879 0.61464
 C1215 C 0.35663 0.24799 0.65247
 C1216 C 0.35156 0.22942 0.66555
 C1217 C 0.33511 0.22949 0.68171
 C1218 C 0.32325 0.24812 0.68514
 C1219 C 0.32838 0.26674 0.67216
 C1220 C 0.34490 0.26670 0.65603
 H1221 H 0.42572 0.21174 0.58706
 H1222 H 0.45375 0.21084 0.55827
 H1223 H 0.45216 0.28043 0.55062
 H1224 H 0.42402 0.28135 0.57943
 H1225 H 0.36034 0.21477 0.66337
 H1226 H 0.33181 0.21500 0.69168
 H1227 H 0.31936 0.28126 0.67420
 H1228 H 0.34831 0.28127 0.64620
 C1229 C 0.07817 0.25340 0.08627
 C1230 C 0.06948 0.27317 0.07991
 C1231 C 0.05356 0.27375 0.06321
 C1232 C 0.04587 0.25457 0.05253
 C1233 C 0.05444 0.23477 0.05897
 C1234 C 0.07045 0.23420 0.07561
 C1235 C 0.09527 0.25290 0.10381
 N1236 N 0.10522 0.23424 0.10859
 N1237 N 0.12073 0.23389 0.12419
 C1238 C 0.12692 0.25217 0.13572
 N1239 N 0.11693 0.27080 0.13098
 N1240 N 0.10146 0.27116 0.11536
 C1241 C 0.14432 0.25189 0.15295
 C1242 C 0.14944 0.27043 0.16604
 C1243 C 0.16602 0.27032 0.18207
 C1244 C 0.17795 0.25172 0.18536
 C1245 C 0.17277 0.23314 0.17237
 C1246 C 0.15613 0.23321 0.15637
 H1247 H 0.07505 0.28828 0.08772
 H1248 H 0.04728 0.28927 0.05867
 H1249 H 0.04887 0.21970 0.05106
 H1250 H 0.07675 0.21869 0.08012
 H1251 H 0.14061 0.28506 0.16397
 H1252 H 0.16935 0.28478 0.19205
 H1253 H 0.18184 0.21864 0.17429
 H1254 H 0.15269 0.21867 0.14654
 C1255 C 0.57800 0.75619 0.58346
 C1256 C 0.56938 0.77597 0.57699
 C1257 C 0.55325 0.77649 0.56050
 C1258 C 0.54529 0.75723 0.55014
 C1259 C 0.55384 0.73745 0.55664
 C1260 C 0.57004 0.73694 0.57307
 C1261 C 0.59521 0.75570 0.60087
 N1262 N 0.60497 0.73697 0.60578
 N1263 N 0.62051 0.73658 0.62134
 C1264 C 0.62693 0.75489 0.63269
 N1265 N 0.61714 0.77361 0.62781
 N1266 N 0.60163 0.77400 0.61222
 C1267 C 0.64431 0.75454 0.64993
 C1268 C 0.64964 0.77310 0.66290
 C1269 C 0.66614 0.77287 0.67899
 C1270 C 0.67778 0.75411 0.68248
 C1271 C 0.67241 0.73551 0.66959
 C1272 C 0.65585 0.73571 0.65353
 H1273 H 0.57513 0.79112 0.58460
 H1274 H 0.54699 0.79200 0.55589
 H1275 H 0.54807 0.72233 0.54897
 H1276 H 0.57628 0.72142 0.57766
 H1277 H 0.64102 0.78785 0.66068
 H1278 H 0.66964 0.78736 0.68889
 H1279 H 0.68126 0.72088 0.67166
 H1280 H 0.65224 0.72114 0.64379
   
