data_POSCAR
  _audit_creation_date              2014-09-24
  _audit_creation_method            'ToBaCCo'
  _symmetry_space_group_name_H-M    'P1'
  _symmetry_Int_Tables_number       1
  _symmetry_cell_setting            triclinic
  loop_
  _symmetry_equiv_pos_as_xyz
 x,y,z
_cell_length_a 51.2260
_cell_length_b 52.6543
_cell_length_c 52.6411
_cell_angle_alpha 96.620900
_cell_angle_beta 95.397800
_cell_angle_gamma 93.561300
loop_
  _atom_site_label
  _atom_site_type_symbol
  _atom_site_fract_x
  _atom_site_fract_y
  _atom_site_fract_z
C1 C 0.69365 0.64726 0.99692
 H2 H 0.68997 0.62671 0.99232
 C3 C 0.67593 0.66352 0.98697
 H4 H 0.65837 0.65524 0.97514
 C5 C 0.72104 0.68276 1.01827
 H6 H 0.73883 0.69014 1.03018
 C7 C 0.70361 0.69978 1.00895
 H8 H 0.70800 0.72024 1.01390
 N9 N 0.71573 0.65702 1.01214
 C10 C 0.77379 0.66365 1.06046
 H11 H 0.75622 0.66670 1.06997
 C12 C 0.79825 0.67444 1.07224
 H13 H 0.79943 0.68602 1.09075
 C14 C 0.79387 0.64413 1.02518
 H15 H 0.79233 0.63171 1.00723
 C16 C 0.81855 0.65467 1.03611
 H17 H 0.83560 0.65003 1.02632
 Zn18 Zn 0.73909 0.63279 1.02249
 N19 N 0.77204 0.64894 1.03725
 C20 C 0.74993 0.62288 0.97186
 N21 N 0.74400 0.61100 0.99239
 C22 C 0.74193 0.58502 0.99105
 C23 C 0.74706 0.56999 0.96866
 C24 C 0.75508 0.60867 0.94909
 C25 C 0.70085 0.61961 1.05487
 C26 C 0.69097 0.60811 1.07491
 C27 C 0.73045 0.58550 1.07916
 C28 C 0.73958 0.59753 1.05901
 N29 N 0.72481 0.61434 1.04743
 H30 H 0.75120 0.64360 0.97342
 H31 H 0.73675 0.57592 1.00744
 H32 H 0.74588 0.54932 0.96823
 H33 H 0.76032 0.61914 0.93364
 H34 H 0.68950 0.63323 1.04566
 H35 H 0.67184 0.61306 1.07992
 H36 H 0.74278 0.57249 1.08833
 H37 H 0.75876 0.59393 1.05297
 C38 C 0.82095 0.67024 1.05986
 C39 C 0.68100 0.69019 0.99272
 C40 C 0.70604 0.59105 1.08785
 C41 C 0.75413 0.58169 0.94731
 C42 C 0.73752 0.35282 0.48622
 H43 H 0.75251 0.34224 0.47760
 C44 C 0.71760 0.33973 0.49712
 H45 H 0.71742 0.31911 0.49654
 C46 C 0.72098 0.39270 0.49971
 H47 H 0.72292 0.41341 0.50121
 C48 C 0.70107 0.38048 0.51113
 H49 H 0.68751 0.39187 0.52124
 N50 N 0.73894 0.37887 0.48798
 C51 C 0.81782 0.38143 0.47044
 H52 H 0.82505 0.39607 0.48602
 C53 C 0.83560 0.36648 0.45821
 H54 H 0.85631 0.36996 0.46472
 C55 C 0.78236 0.36087 0.44178
 H56 H 0.76158 0.35900 0.43533
 C57 C 0.79948 0.34555 0.42893
 H58 H 0.79175 0.33183 0.41262
 Zn59 Zn 0.76785 0.39876 0.47913
 N60 N 0.79166 0.37801 0.46248
 C61 C 0.78107 0.43972 0.52122
 N62 N 0.78388 0.41510 0.51131
 C63 C 0.79505 0.39839 0.52607
 C64 C 0.80459 0.40619 0.55153
 C65 C 0.79018 0.44839 0.54694
 C66 C 0.73599 0.41103 0.43779
 C67 C 0.72744 0.42462 0.41777
 C68 C 0.75880 0.45971 0.43583
 C69 C 0.76735 0.44501 0.45510
 N70 N 0.75564 0.42126 0.45589
 H71 H 0.77063 0.45232 0.50976
 H72 H 0.79587 0.37859 0.51817
 H73 H 0.81319 0.39222 0.56275
 H74 H 0.78721 0.46789 0.55434
 H75 H 0.72723 0.39196 0.43865
 H76 H 0.71151 0.41582 0.40404
 H77 H 0.76835 0.47861 0.43553
 H78 H 0.78380 0.45233 0.46891
 C79 C 0.82640 0.34797 0.43737
 C80 C 0.69942 0.35374 0.51022
 C81 C 0.73907 0.44932 0.41636
 C82 C 0.80194 0.43134 0.56257
 C83 C 0.24607 -0.13407 -0.01037
 H84 H 0.26731 -0.13225 -0.00725
 C85 C 0.23211 -0.15444 -0.00177
 H86 H 0.24276 -0.16845 0.00769
 C87 C 0.20636 -0.11694 -0.02477
 H88 H 0.19647 -0.10163 -0.03267
 C89 C 0.19162 -0.13703 -0.01648
 H90 H 0.17045 -0.13676 -0.01825
 N91 N 0.23308 -0.11573 -0.02138
 C92 C 0.30869 -0.09270 -0.02318
 H93 H 0.30940 -0.08308 -0.00384
 C94 C 0.33174 -0.10153 -0.03230
 H95 H 0.35006 -0.09802 -0.02002
 C96 C 0.28402 -0.10940 -0.06252
 H97 H 0.26544 -0.11299 -0.07416
 C98 C 0.30647 -0.11816 -0.07246
 H99 H 0.30485 -0.12815 -0.09179
 Zn100 Zn 0.25327 -0.08599 -0.02697
 N101 N 0.28543 -0.09664 -0.03842
 C102 C 0.27796 -0.04458 0.00949
 N103 N 0.25920 -0.06450 0.00499
 C104 C 0.24516 -0.07135 0.02410
 C105 C 0.25086 -0.05933 0.04910
 C106 C 0.28460 -0.03210 0.03450
 C107 C 0.22308 -0.08502 -0.07372
 C108 C 0.21185 -0.07467 -0.09496
 C109 C 0.22393 -0.03233 -0.07255
 C110 C 0.23537 -0.04361 -0.05177
 N111 N 0.23521 -0.06956 -0.05297
 H112 H 0.28876 -0.03930 -0.00604
 H113 H 0.22999 -0.08684 0.02028
 H114 H 0.23986 -0.06591 0.06402
 H115 H 0.30057 -0.01732 0.03764
 H116 H 0.22226 -0.10560 -0.07392
 H117 H 0.20222 -0.08784 -0.11079
 H118 H 0.22469 -0.01162 -0.07143
 H119 H 0.24488 -0.03163 -0.03498
 C120 C 0.33066 -0.11444 -0.05732
 C121 C 0.20456 -0.15597 -0.00448
 C122 C 0.21275 -0.04787 -0.09496
 C123 C 0.27146 -0.04011 0.05492
 C124 C 0.22801 0.16491 0.48021
 H125 H 0.24679 0.16419 0.47242
 C126 C 0.21042 0.18250 0.47253
 H127 H 0.21586 0.19529 0.45890
 C128 C 0.19826 0.14940 0.50766
 H129 H 0.19349 0.13657 0.52139
 C130 C 0.18036 0.16699 0.50090
 H131 H 0.16185 0.16730 0.50930
 N132 N 0.22123 0.14804 0.49667
 C133 C 0.29374 0.11911 0.52960
 H134 H 0.28860 0.09874 0.52687
 C135 C 0.31809 0.12840 0.54247
 H136 H 0.33165 0.11504 0.54918
 C137 C 0.28213 0.16135 0.52524
 H138 H 0.26791 0.17421 0.51898
 C139 C 0.30656 0.17146 0.53758
 H140 H 0.31082 0.19204 0.54072
 Zn141 Zn 0.24329 0.12135 0.50407
 N142 N 0.27626 0.13553 0.52126
 C143 C 0.26205 0.07915 0.47547
 N144 N 0.24954 0.10091 0.47318
 C145 C 0.24312 0.10841 0.44963
 C146 C 0.25162 0.09541 0.42761
 C147 C 0.27063 0.06534 0.45395
 C148 C 0.23591 0.10049 0.55046
 C149 C 0.22250 0.08642 0.56673
 C150 C 0.18943 0.07225 0.53127
 C151 C 0.20387 0.08607 0.51552
 N152 N 0.22639 0.10021 0.52542
 H153 H 0.26584 0.07268 0.49410
 H154 H 0.23189 0.12482 0.44771
 H155 H 0.24652 0.10238 0.40942
 H156 H 0.28137 0.04856 0.45651
 H157 H 0.25341 0.11237 0.55821
 H158 H 0.23029 0.08800 0.58669
 H159 H 0.17108 0.06179 0.52317
 H160 H 0.19664 0.08631 0.49558
 C161 C 0.32486 0.15480 0.54626
 C162 C 0.18596 0.18314 0.48248
 C163 C 0.19855 0.07236 0.55733
 C164 C 0.26651 0.07401 0.42972
 C165 C 0.18205 0.47010 0.20740
 H166 H 0.19183 0.47954 0.22542
 C167 C 0.19683 0.45852 0.18883
 H168 H 0.21803 0.45920 0.19256
 C169 C 0.14252 0.45722 0.18059
 H170 H 0.12128 0.45646 0.17776
 C171 C 0.15651 0.44585 0.16141
 H172 H 0.14585 0.43622 0.14385
 N173 N 0.15540 0.46937 0.20287
 C174 C 0.16629 0.48025 0.27363
 H175 H 0.16443 0.45994 0.26721
 C176 C 0.17948 0.48917 0.29773
 H177 H 0.18759 0.47553 0.30964
 C178 C 0.15774 0.52258 0.26620
 H179 H 0.14942 0.53560 0.25378
 C180 C 0.17080 0.53235 0.29018
 H181 H 0.17242 0.55285 0.29558
 Zn182 Zn 0.13418 0.48363 0.22763
 N183 N 0.15517 0.49687 0.25864
 C184 C 0.12177 0.43349 0.23610
 N185 N 0.11096 0.45626 0.23453
 C186 C 0.08524 0.45874 0.23801
 C187 C 0.06972 0.43807 0.24441
 C188 C 0.10704 0.41235 0.24232
 C189 C 0.12040 0.51710 0.19100
 C190 C 0.10846 0.53750 0.18119
 C191 C 0.08696 0.54462 0.21997
 C192 C 0.09930 0.52393 0.22900
 N193 N 0.11566 0.51056 0.21447
 H194 H 0.14210 0.43175 0.23268
 H195 H 0.07673 0.47676 0.23621
 H196 H 0.04942 0.44068 0.24763
 H197 H 0.11684 0.39494 0.24368
 H198 H 0.13402 0.50691 0.17995
 H199 H 0.11333 0.54182 0.16260
 H200 H 0.07428 0.55511 0.23208
 H201 H 0.09636 0.51897 0.24795
 C202 C 0.18129 0.51543 0.30661
 C203 C 0.18404 0.44661 0.16536
 C204 C 0.09147 0.55188 0.19576
 C205 C 0.08060 0.41449 0.24706
 C206 C -0.14950 -0.03669 0.22029
 H207 H -0.15712 -0.03688 0.23873
 C208 C -0.16554 -0.03011 0.19946
 H209 H -0.18543 -0.02603 0.20265
 C210 C -0.11385 -0.04107 0.19497
 H211 H -0.09348 -0.04482 0.19360
 C212 C -0.12921 -0.03493 0.17356
 H213 H -0.12029 -0.03421 0.15575
 N214 N -0.12414 -0.04179 0.21774
 C215 C -0.11426 -0.04700 0.29739
 H216 H -0.09774 -0.03291 0.30217
 C217 C -0.12908 -0.05399 0.31675
 H218 H -0.12348 -0.04514 0.33620
 C219 C -0.14041 -0.07638 0.26631
 H220 H -0.14477 -0.08496 0.24658
 C221 C -0.15577 -0.08392 0.28505
 H222 H -0.17187 -0.09844 0.27957
 Zn223 Zn -0.10100 -0.04698 0.24649
 N224 N -0.12047 -0.05780 0.27265
 C225 C -0.05819 -0.00574 0.25761
 N226 N -0.08382 -0.01408 0.25821
 C227 C -0.10162 0.00234 0.26623
 C228 C -0.09408 0.02789 0.27470
 C229 C -0.04965 0.02005 0.26596
 C230 C -0.09313 -0.09350 0.22057
 C231 C -0.08093 -0.11551 0.21268
 C232 C -0.04079 -0.09696 0.23741
 C233 C -0.05403 -0.07529 0.24521
 N234 N -0.07964 -0.07380 0.23632
 H235 H -0.04446 -0.01871 0.25016
 H236 H -0.12198 -0.00454 0.26600
 H237 H -0.10893 0.04028 0.28107
 H238 H -0.02924 0.02616 0.26522
 H239 H -0.11365 -0.09223 0.21425
 H240 H -0.09234 -0.13083 0.20012
 H241 H -0.02052 -0.09756 0.24497
 H242 H -0.04400 -0.06010 0.25883
 C243 C -0.15049 -0.07241 0.31056
 C244 C -0.15531 -0.02863 0.17561
 C245 C -0.05436 -0.11755 0.22083
 C246 C -0.06786 0.03728 0.27472
 C247 C 0.36559 0.51112 0.71080
 H248 H 0.36301 0.52035 0.72975
 C249 C 0.35054 0.51754 0.68929
 H250 H 0.33670 0.53208 0.69198
 C251 C 0.38790 0.48187 0.68452
 H252 H 0.40275 0.46825 0.68274
 C253 C 0.37341 0.48788 0.66244
 H254 H 0.37709 0.47869 0.64376
 N255 N 0.38359 0.49335 0.70810
 C256 C 0.39065 0.46875 0.78450
 H257 H 0.41139 0.47332 0.79031
 C258 C 0.37466 0.45822 0.80128
 H259 H 0.38330 0.45462 0.81997
 C260 C 0.35452 0.46674 0.75253
 H261 H 0.34685 0.46955 0.73331
 C262 C 0.33796 0.45570 0.76850
 H263 H 0.31752 0.45044 0.76161
 Zn264 Zn 0.40323 0.48639 0.73842
 N265 N 0.38030 0.47324 0.76082
 C266 C 0.41559 0.52912 0.77682
 N267 N 0.42140 0.51783 0.75369
 C268 C 0.43877 0.52965 0.74006
 C269 C 0.45138 0.55358 0.74979
 C270 C 0.42759 0.55308 0.78722
 C271 C 0.41502 0.43709 0.72145
 C272 C 0.43031 0.41676 0.71496
 C273 C 0.46921 0.44550 0.72728
 C274 C 0.45310 0.46521 0.73386
 N275 N 0.42651 0.46076 0.73048
 H276 H 0.40116 0.51989 0.78707
 H277 H 0.44260 0.52058 0.72140
 H278 H 0.46503 0.56260 0.73845
 H279 H 0.42240 0.56100 0.80574
 H280 H 0.39381 0.43407 0.71908
 H281 H 0.42015 0.39852 0.70731
 H282 H 0.49035 0.44958 0.72979
 H283 H 0.46192 0.48401 0.74156
 C284 C 0.34792 0.45165 0.79328
 C285 C 0.35425 0.50569 0.66471
 C286 C 0.45796 0.42079 0.71768
 C287 C 0.44568 0.56593 0.77356
 C288 C 0.67150 0.96108 0.70617
 H289 H 0.65347 0.94946 0.70662
 C290 C 0.68922 0.95284 0.68902
 H291 H 0.68440 0.93489 0.67681
 C292 C 0.69774 0.99984 0.71922
 H293 H 0.70062 1.01845 0.73044
 C294 C 0.71594 0.99241 0.70207
 H295 H 0.73281 1.00534 0.70040
 N296 N 0.67594 0.98421 0.72091
 C297 C 0.67572 1.03533 0.77645
 H298 H 0.67998 1.04425 0.75967
 C299 C 0.68414 1.04800 0.80100
 H300 H 0.69536 1.06636 0.80261
 C301 C 0.65479 1.00143 0.79449
 H302 H 0.64278 0.98362 0.79213
 C303 C 0.66272 1.01331 0.81928
 H304 H 0.65651 1.00351 0.83481
 Zn305 Zn 0.64840 0.99576 0.74030
 N306 N 0.66155 1.01229 0.77361
 C307 C 0.63683 0.94664 0.75336
 N308 N 0.62554 0.96688 0.74411
 C309 C 0.59907 0.96657 0.73859
 C310 C 0.58282 0.94551 0.74301
 C311 C 0.62143 0.92514 0.75781
 C312 C 0.63510 1.02078 0.69728
 C313 C 0.62496 1.03986 0.68385
 C314 C 0.60449 1.05587 0.72142
 C315 C 0.61513 1.03635 0.73420
 N316 N 0.63046 1.01959 0.72212
 H317 H 0.65795 0.94746 0.75773
 H318 H 0.59050 0.98287 0.73128
 H319 H 0.56172 0.94589 0.73896
 H320 H 0.63139 0.90997 0.76583
 H321 H 0.64719 1.00722 0.68794
 H322 H 0.62950 1.04063 0.66424
 H323 H 0.59304 1.06923 0.73191
 H324 H 0.61186 1.03507 0.75403
 C325 C 0.67775 1.03712 0.82307
 C326 C 0.71174 0.96867 0.68666
 C327 C 0.60981 1.05812 0.69592
 C328 C 0.59385 0.92439 0.75293
 C329 C -0.02012 0.21248 -0.14693
 H330 H -0.01014 0.23025 -0.15027
 C331 C -0.01706 0.19012 -0.16297
 H332 H -0.00415 0.19116 -0.17797
 C333 C -0.04797 0.18970 -0.12259
 H334 H -0.06012 0.18954 -0.10693
 C335 C -0.04535 0.16679 -0.13811
 H336 H -0.05526 0.14916 -0.13402
 N337 N -0.03488 0.21187 -0.12683
 C338 C -0.04659 0.29251 -0.11043
 H339 H -0.03598 0.29652 -0.09148
 C340 C -0.05629 0.31247 -0.12282
 H341 H -0.05341 0.33180 -0.11300
 C342 C -0.06382 0.26208 -0.14572
 H343 H -0.06671 0.24236 -0.15445
 C344 C -0.07411 0.28150 -0.15873
 H345 H -0.08486 0.27666 -0.17757
 Zn346 Zn -0.03521 0.24260 -0.10405
 N347 N -0.05026 0.26796 -0.12208
 C348 C 0.01202 0.26734 -0.11046
 N349 N 0.00026 0.25487 -0.09290
 C350 C 0.01376 0.25141 -0.07015
 C351 C 0.04041 0.26023 -0.06475
 C352 C 0.03830 0.27627 -0.10601
 C353 C -0.07844 0.24893 -0.07569
 C354 C -0.09723 0.24179 -0.05989
 C355 C -0.06890 0.21028 -0.04534
 C356 C -0.05044 0.21828 -0.06134
 N357 N -0.05591 0.23665 -0.07681
 H358 H 0.00094 0.27035 -0.12822
 H359 H 0.00407 0.24156 -0.05633
 H360 H 0.05071 0.25690 -0.04670
 H361 H 0.04699 0.28589 -0.12065
 H362 H -0.08270 0.26338 -0.08813
 H363 H -0.11544 0.25125 -0.06028
 H364 H -0.06425 0.19483 -0.03428
 H365 H -0.03255 0.20855 -0.06271
 C366 C -0.06999 0.30706 -0.14743
 C367 C -0.02952 0.16677 -0.15843
 C368 C -0.09323 0.22151 -0.04518
 C369 C 0.05311 0.27270 -0.08307
 C370 C 0.47108 0.24366 0.16680
 H371 H 0.46261 0.26166 0.16444
 C372 C 0.45945 0.22652 0.18154
 H373 H 0.44205 0.23151 0.19064
 C374 C 0.50336 0.21478 0.15683
 H375 H 0.51999 0.20992 0.14655
 C376 C 0.49242 0.19713 0.17142
 H377 H 0.50089 0.17887 0.17189
 N378 N 0.49260 0.23752 0.15477
 C379 C 0.52990 0.30916 0.13702
 H380 H 0.53133 0.30388 0.11675
 C381 C 0.53747 0.33412 0.14822
 H382 H 0.54477 0.34810 0.13654
 C383 C 0.51750 0.29763 0.17668
 H384 H 0.50935 0.28342 0.18756
 C385 C 0.52563 0.32226 0.18888
 H386 H 0.52341 0.32699 0.20909
 Zn387 Zn 0.50553 0.26001 0.13252
 N388 N 0.51905 0.29186 0.15101
 C389 C 0.46994 0.28999 0.10761
 N390 N 0.47682 0.26558 0.10861
 C391 C 0.46180 0.24540 0.09502
 C392 C 0.43892 0.24951 0.07965
 C393 C 0.44780 0.29500 0.09215
 C394 C 0.55617 0.24608 0.13257
 C395 C 0.57879 0.23660 0.12357
 C396 C 0.55507 0.22660 0.08135
 C397 C 0.53283 0.23661 0.09123
 N398 N 0.53381 0.24588 0.11653
 H399 H 0.48096 0.30579 0.11950
 H400 H 0.46718 0.22607 0.09670
 H401 H 0.42703 0.23317 0.06925
 H402 H 0.44282 0.31470 0.09289
 H403 H 0.55633 0.25353 0.15262
 H404 H 0.59564 0.23672 0.13750
 H405 H 0.55384 0.21903 0.06121
 H406 H 0.51484 0.23682 0.07877
 C407 C 0.53507 0.34093 0.17433
 C408 C 0.47008 0.20289 0.18397
 C409 C 0.57863 0.22659 0.09749
 C410 C 0.43177 0.27464 0.07776
 C411 C 0.94237 0.71878 0.67149
 H412 H 0.93405 0.73686 0.66921
 C413 C 0.93535 0.70491 0.69116
 H414 H 0.92144 0.71236 0.70389
 C415 C 0.96991 0.68675 0.65714
 H416 H 0.98334 0.67966 0.64387
 C417 C 0.96360 0.67234 0.67669
 H418 H 0.97190 0.65404 0.67757
 N419 N 0.95847 0.70902 0.65429
 C420 C 0.95891 0.78074 0.63347
 H421 H 0.94070 0.77651 0.62119
 C422 C 0.96630 0.80600 0.64395
 H423 H 0.95380 0.82104 0.63936
 C424 C 0.99681 0.76636 0.65521
 H425 H 1.00831 0.75065 0.65983
 C426 C 1.00507 0.79143 0.66595
 H427 H 1.02288 0.79471 0.67900
 Zn428 Zn 0.96323 0.72721 0.62577
 N429 N 0.97427 0.76155 0.63904
 C430 C 0.90772 0.71866 0.61298
 N431 N 0.93090 0.72658 0.60472
 C432 C 0.93151 0.73609 0.58184
 C433 C 0.90816 0.73928 0.56695
 C434 C 0.88390 0.72198 0.59900
 C435 C 1.01082 0.72663 0.60195
 C436 C 1.03017 0.71544 0.58833
 C437 C 1.00297 0.67564 0.58140
 C438 C 0.98399 0.68774 0.59479
 N439 N 0.98858 0.71254 0.60553
 H440 H 0.90749 0.71058 0.63085
 H441 H 0.95020 0.74217 0.57566
 H442 H 0.90969 0.74794 0.54949
 H443 H 0.86569 0.71654 0.60659
 H444 H 1.01382 0.74653 0.60996
 H445 H 1.04788 0.72715 0.58678
 H446 H 0.99921 0.65558 0.57383
 H447 H 0.96585 0.67710 0.59733
 C448 C 0.98973 0.81164 0.66017
 C449 C 0.94557 0.68114 0.69365
 C450 C 1.02668 0.68931 0.57828
 C451 C 0.88374 0.73290 0.57588
 C452 C 0.49846 0.75793 0.39100
 H453 H 0.50774 0.77676 0.39784
 C454 C 0.51292 0.73972 0.37848
 H455 H 0.53299 0.74504 0.37520
 C456 C 0.46191 0.72767 0.38872
 H457 H 0.44228 0.72279 0.39332
 C458 C 0.47572 0.70876 0.37608
 H459 H 0.46608 0.68979 0.37094
 N460 N 0.47334 0.75181 0.39571
 C461 C 0.42297 0.81137 0.39211
 H462 H 0.40844 0.80321 0.40300
 C463 C 0.41583 0.82976 0.37618
 H464 H 0.39570 0.83513 0.37499
 C465 C 0.46661 0.81468 0.38103
 H466 H 0.48644 0.80891 0.38300
 C467 C 0.46046 0.83337 0.36508
 H468 H 0.47604 0.84099 0.35506
 Zn469 Zn 0.45690 0.77785 0.41503
 N470 N 0.44794 0.80389 0.39402
 C471 C 0.49076 0.81666 0.44543
 N472 N 0.48231 0.79143 0.44240
 C473 C 0.49481 0.77446 0.45592
 C474 C 0.51802 0.78228 0.47173
 C475 C 0.51395 0.82533 0.46096
 C476 C 0.40596 0.75347 0.41011
 C477 C 0.38288 0.74319 0.41828
 C478 C 0.40169 0.75450 0.46226
 C479 C 0.42439 0.76471 0.45318
 N480 N 0.42619 0.76387 0.42750
 H481 H 0.48034 0.82987 0.43469
 H482 H 0.48773 0.75445 0.45303
 H483 H 0.52839 0.76806 0.48116
 H484 H 0.52028 0.84539 0.46209
 H485 H 0.40772 0.75332 0.38977
 H486 H 0.36712 0.73499 0.40395
 H487 H 0.40117 0.75572 0.48281
 H488 H 0.44055 0.77338 0.46670
 C489 C 0.43457 0.84115 0.36224
 C490 C 0.50172 0.71473 0.37093
 C491 C 0.38043 0.74336 0.44466
 C492 C 0.52874 0.80772 0.47340
 C493 C 0.40291 -0.00711 0.26370
 C494 C 0.38515 -0.01216 0.23848
 C495 C 0.37150 0.00936 0.23222
 C496 C 0.37744 0.03289 0.25247
 C497 C 0.42106 0.01626 0.26096
 C498 C 0.40761 0.03788 0.25483
 C499 C 0.38523 0.00226 0.28387
 C500 C 0.37106 0.02347 0.27791
 H501 H 0.38513 -0.02976 0.22567
 H502 H 0.36604 0.04923 0.24779
 H503 H 0.44229 0.01609 0.26255
 H504 H 0.38474 -0.00631 0.30152
 C505 C 0.07307 1.03676 0.73918
 C506 C 0.08833 1.04191 0.71662
 C507 C 0.10675 1.02358 0.71087
 C508 C 0.10722 1.00253 0.72872
 C509 C 0.06040 1.00955 0.73206
 C510 C 0.07872 0.99100 0.72633
 C511 C 0.09400 1.03520 0.76145
 C512 C 0.11210 1.01649 0.75630
 H513 H 0.08607 1.05878 0.70691
 H514 H 0.12132 0.98816 0.72354
 H515 H 0.03942 1.00531 0.73142
 H516 H 0.09386 1.04611 0.78020
 C517 C 0.59330 0.56085 0.28562
 C518 C 0.60447 0.57221 0.26337
 C519 C 0.62273 0.55718 0.25123
 C520 C 0.62749 0.53242 0.26348
 C521 C 0.58172 0.53403 0.27432
 C522 C 0.60013 0.51863 0.26249
 C523 C 0.61715 0.55664 0.30383
 C524 C 0.63530 0.54086 0.29235
 H525 H 0.59809 0.58974 0.25665
 H526 H 0.64155 0.52051 0.25388
 H527 H 0.56193 0.52708 0.27683
 H528 H 0.61863 0.56284 0.32431
 C529 C 0.88383 0.47968 0.78861
 C530 C 0.86953 0.47289 0.76179
 C531 C 0.85573 0.49314 0.75258
 C532 C 0.85843 0.51758 0.77189
 C533 C 0.90173 0.50351 0.78683
 C534 C 0.88832 0.52398 0.77775
 C535 C 0.86302 0.48880 0.80558
 C536 C 0.84925 0.50923 0.79681
 H537 H 0.87214 0.45504 0.75029
 H538 H 0.84710 0.53302 0.76476
 H539 H 0.92291 0.50433 0.79096
 H540 H 0.86078 0.48144 0.82365
 C541 C 0.26692 0.38761 -0.05084
 C542 C 0.24464 0.36668 -0.05776
 C543 C 0.24019 0.35177 -0.03739
 C544 C 0.25929 0.35981 -0.01305
 C545 C 0.25972 0.40318 -0.02661
 C546 C 0.25556 0.38853 -0.00622
 C547 C 0.29077 0.37395 -0.04214
 C548 C 0.28703 0.35898 -0.02200
 H549 H 0.23181 0.36565 -0.07541
 H550 H 0.25587 0.34791 0.00247
 H551 H 0.25689 0.42350 -0.02544
 H552 H 0.30933 0.37602 -0.05031
 C553 C 0.74873 0.08230 1.05895
 C554 C 0.73203 0.10395 1.06749
 C555 C 0.72785 0.12150 1.04915
 C556 C 0.74140 0.11480 1.02461
 C557 C 0.73486 0.06984 1.03333
 C558 C 0.73121 0.08694 1.01462
 C559 C 0.77412 0.09557 1.05260
 C560 C 0.77055 0.11306 1.03430
 H561 H 0.72244 0.10437 1.08497
 H562 H 0.73790 0.12861 1.01059
 H563 H 0.72912 0.04950 1.02947
 H564 H 0.79330 0.09207 1.06150
 C565 C 0.23440 0.59475 0.53908
 C566 C 0.20801 0.60537 0.54345
 C567 C 0.20032 0.62324 0.52643
 C568 C 0.22035 0.62776 0.50715
 C569 C 0.23155 0.58329 0.51085
 C570 C 0.22384 0.60099 0.49354
 C571 C 0.25365 0.61829 0.54095
 C572 C 0.24677 0.63574 0.52338
 H573 H 0.19716 0.60067 0.55915
 H574 H 0.21390 0.64150 0.49380
 H575 H 0.23422 0.56333 0.50509
 H576 H 0.27214 0.62038 0.55310
 C577 C 0.76121 0.88642 0.47086
 C578 C 0.73172 0.88012 0.46534
 C579 C 0.72104 0.86393 0.48202
 C580 C 0.74186 0.85594 0.50210
 C581 C 0.76537 0.89783 0.49915
 C582 C 0.75474 0.88150 0.51602
 C583 C 0.77308 0.86064 0.46985
 C584 C 0.76337 0.84435 0.48684
 H585 H 0.71970 0.88866 0.45101
 H586 H 0.73378 0.84327 0.51526
 H587 H 0.77473 0.91679 0.50530
 H588 H 0.78930 0.85609 0.45871
 C589 C -0.01257 0.25860 0.37366
 C590 C -0.02070 0.23229 0.35887
 C591 C -0.00138 0.22237 0.34349
 C592 C 0.02348 0.24062 0.34522
 C593 C 0.01345 0.25543 0.38919
 C594 C 0.03297 0.24566 0.37400
 C595 C -0.00552 0.27566 0.35352
 C596 C 0.01390 0.26621 0.33812
 H597 H -0.03874 0.22176 0.36176
 H598 H 0.03865 0.23305 0.33318
 H599 H 0.01612 0.25978 0.40987
 H600 H -0.01342 0.29415 0.35278
 C601 C 1.06248 0.74625 0.08138
 C602 C 1.07119 0.72140 0.09020
 C603 C 1.05580 0.71174 0.10843
 C604 C 1.03314 0.72855 0.11519
 C605 C 1.03364 0.74037 0.07123
 C606 C 1.01771 0.73087 0.08911
 C607 C 1.06248 0.76464 0.10589
 C608 C 1.04630 0.75572 0.12388
 H609 H 1.08755 0.71177 0.08293
 H610 H 1.02121 0.72097 0.12936
 H611 H 1.02595 0.74309 0.05191
 H612 H 1.07208 0.78382 0.10830
 C613 C 0.55897 0.25081 0.59278
 C614 C 0.56792 0.22873 0.60689
 C615 C 0.54956 0.21983 0.62311
 C616 C 0.52474 0.23472 0.62294
 C617 C 0.53226 0.24120 0.57850
 C618 C 0.51371 0.23252 0.59449
 C619 C 0.55286 0.27157 0.61366
 C620 C 0.53433 0.26308 0.62988
 H621 H 0.58685 0.22118 0.60478
 H622 H 0.51082 0.22820 0.63615
 H623 H 0.52760 0.24162 0.55804
 H624 H 0.55979 0.29142 0.61388
 C625 C 0.49152 0.79001 0.88945
 C626 C 0.47774 0.76440 0.87748
 C627 C 0.49308 0.74917 0.86166
 C628 C 0.52057 0.76206 0.85992
 C629 C 0.51696 0.78328 0.90380
 C630 C 0.53262 0.76803 0.88800
 C631 C 0.50014 0.80310 0.86701
 C632 C 0.51574 0.78829 0.85098
 H633 H 0.45821 0.75799 0.88152
 H634 H 0.53308 0.75069 0.84755
 H635 H 0.52154 0.78849 0.92427
 H636 H 0.49686 0.82297 0.86541
 C637 C 0.42685 -0.14123 0.34684
 C638 C 0.44325 -0.12705 0.33287
 C639 C 0.43272 -0.10829 0.31666
 N640 N 0.44922 -0.09050 0.30842
 N641 N 0.43977 -0.07290 0.29447
 C642 C 0.41349 -0.07264 0.28805
 N643 N 0.39706 -0.09067 0.29594
 N644 N 0.40648 -0.10814 0.31000
 C645 C 0.40234 -0.05251 0.27420
 C646 C 0.41685 -0.03006 0.27081
 H647 H 0.46427 -0.12834 0.33447
 H648 H 0.38127 -0.05402 0.26906
 H649 H 0.40625 -0.13731 0.34538
 H650 H 0.43776 -0.02781 0.27683
 C651 C 0.91922 0.32758 0.83879
 C652 C 0.93081 0.35257 0.84239
 C653 C 0.91908 0.37339 0.83012
 N654 N 0.93230 0.39682 0.83250
 N655 N 0.92160 0.41614 0.82215
 C656 C 0.89722 0.41274 0.80914
 N657 N 0.88400 0.38932 0.80676
 N658 N 0.89474 0.36998 0.81704
 C659 C 0.88480 0.43394 0.79821
 C660 C 0.89794 0.45796 0.79835
 H661 H 0.94918 0.35713 0.85448
 H662 H 0.86453 0.43065 0.78990
 H663 H 0.90219 0.32266 0.82485
 H664 H 0.91807 0.46157 0.80698
 C665 C -0.02451 1.14206 0.82707
 C666 C -0.01463 1.14027 0.80317
 C667 C -0.00323 1.11706 0.79218
 N668 N 0.00869 1.11745 0.77028
 N669 N 0.02127 1.09749 0.76124
 C670 C 0.02241 1.07639 0.77378
 N671 N 0.01013 1.07582 0.79547
 N672 N -0.00242 1.09581 0.80455
 C673 C 0.03797 1.05511 0.76512
 C674 C 0.05390 1.05656 0.74521
 H675 H -0.01345 1.15685 0.79286
 H676 H 0.03837 1.03866 0.77574
 H677 H -0.02747 1.12482 0.83618
 H678 H 0.05398 1.07331 0.73503
 C679 C 0.51832 0.69577 0.35868
 C680 C 0.51044 0.67002 0.35053
 C681 C 0.52884 0.65237 0.33966
 N682 N 0.52055 0.62765 0.33092
 N683 N 0.53714 0.61156 0.32113
 C684 C 0.56265 0.61961 0.31981
 N685 N 0.57093 0.64427 0.32860
 N686 N 0.55435 0.66034 0.33834
 C687 C 0.58126 0.60238 0.30885
 C688 C 0.57389 0.57723 0.29813
 H689 H 0.49069 0.66236 0.35208
 H690 H 0.60140 0.60991 0.30859
 H691 H 0.53826 0.70252 0.35632
 H692 H 0.55377 0.56954 0.29811
 C693 C 0.54041 0.36795 0.18531
 C694 C 0.55332 0.37542 0.20971
 C695 C 0.55760 0.40268 0.21984
 N696 N 0.57955 0.41149 0.23562
 N697 N 0.58368 0.43634 0.24439
 C698 C 0.56581 0.45314 0.23795
 N699 N 0.54365 0.44423 0.22256
 N700 N 0.53972 0.41947 0.21349
 C701 C 0.56991 0.48048 0.24772
 C702 C 0.59507 0.49286 0.25235
 H703 H 0.56169 0.36126 0.22080
 H704 H 0.55268 0.49118 0.24939
 H705 H 0.53527 0.38254 0.17315
 H706 H 0.61158 0.48221 0.24707
 C707 C -0.00309 0.83857 0.67121
 C708 C 0.02257 0.84822 0.67995
 C709 C 0.02882 0.87549 0.68962
 N710 N 0.05424 0.88492 0.69510
 N711 N 0.06010 0.90969 0.70342
 C712 C 0.04072 0.92590 0.70661
 N713 N 0.01532 0.91643 0.70131
 N714 N 0.00948 0.89171 0.69294
 C715 C 0.04667 0.95338 0.71538
 C716 C 0.07233 0.96477 0.71887
 H717 H 0.03869 0.83595 0.67868
 H718 H 0.03009 0.96468 0.71837
 H719 H -0.01857 0.85169 0.67110
 H720 H 0.08834 0.95279 0.71524
 C721 C 0.93509 0.66520 0.71231
 C722 C 0.94688 0.64383 0.72015
 C723 C 0.93278 0.62516 0.73365
 N724 N 0.94496 0.60468 0.74109
 N725 N 0.93180 0.58655 0.75150
 C726 C 0.90593 0.58820 0.75476
 N727 N 0.89382 0.60877 0.74750
 N728 N 0.90699 0.62693 0.73717
 C729 C 0.89056 0.56736 0.76419
 C730 C 0.90230 0.54627 0.77280
 H731 H 0.96640 0.63986 0.71529
 H732 H 0.86956 0.56868 0.76348
 H733 H 0.91650 0.66987 0.71926
 H734 H 0.92359 0.54687 0.77526
 C735 C 0.45634 0.18413 0.19802
 C736 C 0.46804 0.16313 0.20693
 C737 C 0.45296 0.14281 0.21751
 N738 N 0.46529 0.12259 0.22538
 N739 N 0.45175 0.10336 0.23378
 C740 C 0.42534 0.10363 0.23460
 N741 N 0.41304 0.12394 0.22689
 N742 N 0.42658 0.14318 0.21849
 C743 C 0.40987 0.08193 0.24257
 C744 C 0.42155 0.06022 0.24983
 H745 H 0.48875 0.16098 0.20566
 H746 H 0.38886 0.08316 0.24174
 H747 H 0.43605 0.18684 0.20120
 H748 H 0.44280 0.06029 0.25103
 C749 C 0.33050 0.43950 -0.19006
 C750 C 0.33316 0.44579 -0.16345
 C751 C 0.31691 0.43266 -0.14666
 N752 N 0.31658 0.44269 -0.12179
 N753 N 0.30295 0.43046 -0.10597
 C754 C 0.28925 0.40765 -0.11438
 N755 N 0.28959 0.39760 -0.13926
 N756 N 0.30307 0.40994 -0.15515
 C757 C 0.27594 0.39303 -0.09651
 C758 C 0.27248 0.40385 -0.07172
 H759 H 0.34736 0.46110 -0.15461
 H760 H 0.27036 0.37287 -0.10236
 H761 H 0.31448 0.42610 -0.19907
 H762 H 0.27831 0.42400 -0.06608
 C763 C 0.83256 0.91948 0.32992
 C764 C 0.83222 0.93258 0.35452
 C765 C 0.81506 0.92336 0.37293
 N766 N 0.81705 0.93502 0.39749
 N767 N 0.80212 0.92633 0.41451
 C768 C 0.78456 0.90574 0.40748
 N769 N 0.78240 0.89427 0.38289
 N770 N 0.79736 0.90290 0.36592
 C771 C 0.76901 0.89474 0.42610
 C772 C 0.77260 0.90287 0.45245
 H773 H 0.84470 0.94990 0.36074
 H774 H 0.75581 0.87798 0.41911
 H775 H 0.81919 0.90259 0.32422
 H776 H 0.78648 0.91896 0.45990
 C777 C 0.83119 -0.02059 1.15504
 C778 C 0.80624 -0.01102 1.15474
 C779 C 0.79522 0.00146 1.13295
 N780 N 0.77496 0.01659 1.13591
 N781 N 0.76610 0.02962 1.11705
 C782 C 0.77709 0.02787 1.09447
 N783 N 0.79697 0.01233 1.09131
 N784 N 0.80593 -0.00058 1.11022
 C785 C 0.76889 0.04349 1.07418
 C786 C 0.75318 0.06391 1.07851
 H787 H 0.79534 -0.01008 1.17135
 H788 H 0.77719 0.04028 1.05599
 H789 H 0.84096 -0.02011 1.13767
 H790 H 0.74548 0.06771 1.09694
 C791 C 0.33949 0.51245 0.64118
 C792 C 0.31481 0.52227 0.64116
 C793 C 0.30157 0.53161 0.61839
 N794 N 0.27763 0.54105 0.61964
 N795 N 0.26597 0.55096 0.59974
 C796 C 0.27784 0.55181 0.57781
 N797 N 0.30169 0.54215 0.57646
 N798 N 0.31335 0.53222 0.59637
 C799 C 0.26616 0.56450 0.55646
 C800 C 0.24272 0.57648 0.55779
 H801 H 0.30489 0.52366 0.65848
 H802 H 0.27728 0.56628 0.54015
 H803 H 0.34826 0.50929 0.62324
 H804 H 0.23189 0.57515 0.57436
 C805 C 0.19364 0.52407 0.33309
 C806 C 0.19046 0.54790 0.34667
 C807 C 0.19985 0.55430 0.37412
 N808 N 0.19583 0.57757 0.38653
 N809 N 0.20320 0.58329 0.41160
 C810 C 0.21482 0.56591 0.42524
 N811 N 0.21893 0.54269 0.41282
 N812 N 0.21161 0.53698 0.38774
 C813 C 0.22215 0.57150 0.45316
 C814 C 0.21887 0.59530 0.46678
 H815 H 0.17957 0.56195 0.33762
 H816 H 0.22999 0.55622 0.46289
 H817 H 0.20409 0.51024 0.34303
 H818 H 0.21193 0.61039 0.45612
 C819 C 0.68599 0.04985 0.84667
 C820 C 0.68109 0.04107 0.87008
 C821 C 0.69077 0.05502 0.89539
 N822 N 0.68683 0.04375 0.91674
 N823 N 0.69565 0.05548 0.93996
 C824 C 0.70871 0.07903 0.94284
 N825 N 0.71244 0.09050 0.92149
 N826 N 0.70366 0.07869 0.89815
 C827 C 0.71925 0.09154 0.96862
 C828 C 0.72026 0.07760 0.98969
 H829 H 0.67028 0.02298 0.87074
 H830 H 0.72752 0.11112 0.97040
 H831 H 0.69733 0.06811 0.84775
 H832 H 0.71316 0.05755 0.98637
 C833 C 0.72934 0.96200 0.66651
 C834 C 0.73121 0.93679 0.65567
 C835 C 0.74195 0.93036 0.63099
 N836 N 0.73974 0.90564 0.61998
 N837 N 0.74681 0.89955 0.59648
 C838 C 0.75639 0.91797 0.58306
 N839 N 0.75909 0.94267 0.59426
 N840 N 0.75192 0.94878 0.61777
 C841 C 0.76205 0.91169 0.55622
 C842 C 0.75381 0.88777 0.54248
 H843 H 0.72250 0.92110 0.66436
 H844 H 0.77074 0.92688 0.54686
 H845 H 0.73992 0.97749 0.65902
 H846 H 0.74468 0.87335 0.55258
 C847 C 0.19943 0.43476 0.14538
 C848 C 0.19208 0.43572 0.11935
 C849 C 0.20633 0.42360 0.09880
 N850 N 0.20269 0.43094 0.07495
 N851 N 0.21474 0.41978 0.05578
 C852 C 0.23070 0.40064 0.05964
 N853 N 0.23417 0.39308 0.08346
 N854 N 0.22229 0.40445 0.10275
 C855 C 0.24337 0.38784 0.03817
 C856 C 0.24670 0.40000 0.01638
 H857 H 0.17570 0.44662 0.11374
 H858 H 0.25041 0.36914 0.04000
 H859 H 0.21754 0.42647 0.15123
 H860 H 0.24206 0.41986 0.01692
 C861 C -0.15559 0.33180 0.42348
 C862 C -0.13104 0.32646 0.43461
 C863 C -0.11265 0.31170 0.42014
 N864 N -0.08900 0.30725 0.43202
 N865 N -0.07171 0.29465 0.41905
 C866 C -0.07744 0.28602 0.39370
 N867 N -0.10115 0.29034 0.38184
 N868 N -0.11845 0.30295 0.39481
 C869 C -0.05816 0.27297 0.37887
 C870 C -0.03306 0.26918 0.38982
 H871 H -0.12486 0.33326 0.45458
 H872 H -0.06342 0.26708 0.35853
 H873 H -0.16221 0.32332 0.40402
 H874 H -0.02758 0.27543 0.41006
 C875 C 0.35390 0.87580 0.93130
 C876 C 0.37645 0.86923 0.94536
 C877 C 0.39687 0.85604 0.93220
 N878 N 0.41785 0.84778 0.94585
 N879 N 0.43567 0.83484 0.93387
 C880 C 0.43303 0.82969 0.90781
 N881 N 0.41219 0.83808 0.89424
 N882 N 0.39447 0.85099 0.90618
 C883 C 0.45167 0.81487 0.89389
 C884 C 0.47426 0.80589 0.90558
 H885 H 0.37846 0.87220 0.96615
 H886 H 0.44729 0.81064 0.87322
 H887 H 0.35216 0.87157 0.91054
 H888 H 0.47891 0.80950 0.92623
 C889 C 1.19027 0.82413 0.00766
 C890 C 1.16340 0.81742 0.00223
 C891 C 1.14895 0.80151 0.01822
 N892 N 1.12274 0.79580 0.01238
 N893 N 1.10902 0.78282 0.02756
 C894 C 1.12098 0.77510 0.04921
 N895 N 1.14723 0.78064 0.05497
 N896 N 1.16097 0.79362 0.03977
 C897 C 1.10578 0.76193 0.06682
 C898 C 1.07866 0.75665 0.06197
 H899 H 1.15228 0.82469 -0.01351
 H900 H 1.11590 0.75715 0.08447
 H901 H 1.20130 0.81499 0.02220
 H902 H 1.06857 0.76185 0.04450
 C903 C 0.68031 0.34157 0.52524
 C904 C 0.67009 0.31617 0.51972
 C905 C 0.65246 0.30501 0.53665
 N906 N 0.63580 0.28419 0.52767
 N907 N 0.61947 0.27437 0.54290
 C908 C 0.61947 0.28485 0.56774
 N909 N 0.63643 0.30538 0.57680
 N910 N 0.65254 0.31534 0.56152
 C911 C 0.60125 0.27480 0.58473
 C912 C 0.57841 0.25960 0.57525
 H913 H 0.67419 0.30466 0.50235
 H914 H 0.60498 0.28096 0.60517
 H915 H 0.67357 0.35342 0.54120
 H916 H 0.57476 0.25333 0.55481
 C917 C 0.35078 0.16429 0.55976
 C918 C 0.36501 0.18579 0.55368
 C919 C 0.39183 0.19346 0.56569
 N920 N 0.40776 0.20952 0.55461
 N921 N 0.43235 0.21608 0.56493
 C922 C 0.44184 0.20695 0.58681
 N923 N 0.42579 0.19118 0.59810
 N924 N 0.40127 0.18445 0.58766
 C925 C 0.46894 0.21403 0.59839
 C926 C 0.48791 0.22439 0.58438
 H927 H 0.35712 0.19615 0.53842
 H928 H 0.47386 0.20990 0.61781
 H929 H 0.35998 0.15264 0.57323
 H930 H 0.48249 0.22598 0.56425
 C931 C 0.84697 0.68127 0.07226
 C932 C 0.86739 0.68746 0.05781
 C933 C 0.89433 0.69581 0.06905
 N934 N 0.91232 0.70280 0.05340
 N935 N 0.93715 0.70943 0.06269
 C936 C 0.94507 0.70926 0.08801
 N937 N 0.92705 0.70228 0.10376
 N938 N 0.90210 0.69566 0.09445
 C939 C 0.97280 0.71609 0.09808
 C940 C 0.99085 0.72467 0.08206
 H941 H 0.86364 0.68604 0.03708
 H942 H 0.97864 0.71429 0.11801
 H943 H 0.84993 0.68500 0.09304
 H944 H 0.98359 0.72690 0.06249
 C945 C 0.66275 0.70810 0.98243
 C946 C 0.64792 0.70224 0.95860
 C947 C 0.62811 0.71875 0.94888
 N948 N 0.61600 0.71284 0.92468
 N949 N 0.59712 0.72680 0.91586
 C950 C 0.58958 0.74718 0.93095
 N951 N 0.60174 0.75314 0.95514
 N952 N 0.62070 0.73922 0.96395
 C953 C 0.56768 0.76183 0.92195
 C954 C 0.55565 0.75728 0.89672
 H955 H 0.65085 0.68482 0.94645
 H956 H 0.56079 0.77596 0.93584
 H957 H 0.66163 0.72662 0.99345
 H958 H 0.56427 0.74419 0.88302
 C959 C 0.16563 0.19974 0.47364
 C960 C 0.16189 0.20505 0.44824
 C961 C 0.13814 0.21658 0.43833
 N962 N 0.13218 0.21620 0.41261
 N963 N 0.10986 0.22505 0.40332
 C964 C 0.09273 0.23469 0.41946
 N965 N 0.09888 0.23540 0.44518
 N966 N 0.12113 0.22647 0.45445
 C967 C 0.06735 0.24336 0.40973
 C968 C 0.05813 0.23995 0.38361
 H969 H 0.17522 0.19824 0.43461
 H970 H 0.05540 0.25149 0.42398
 H971 H 0.15100 0.20493 0.48652
 H972 H 0.07079 0.23183 0.36994
 C973 C 0.60182 0.07823 0.68222
 C974 C 0.58667 0.09803 0.69103
 C975 C 0.58257 0.11992 0.67631
 N976 N 0.56478 0.13704 0.68270
 N977 N 0.56151 0.15714 0.66973
 C978 C 0.57608 0.16093 0.65001
 N979 N 0.59393 0.14390 0.64377
 N980 N 0.59708 0.12379 0.65661
 C981 C 0.57336 0.18308 0.63554
 C982 C 0.55270 0.19913 0.63745
 H983 H 0.57775 0.09795 0.70882
 H984 H 0.58772 0.18578 0.62215
 H985 H 0.60846 0.07874 0.66331
 H986 H 0.53775 0.19485 0.64988
 C987 C 1.07964 0.57350 0.18756
 C988 C 1.08268 0.58266 0.16398
 C989 C 1.07267 0.60680 0.15692
 N990 N 1.07940 0.61535 0.13494
 N991 N 1.07163 0.63752 0.12831
 C992 C 1.05673 0.65208 0.14334
 N993 N 1.04962 0.64339 0.16522
 N994 N 1.05753 0.62117 0.17195
 C995 C 1.04891 0.67706 0.13616
 C996 C 1.06151 0.68852 0.11750
 H997 H 1.09361 0.57264 0.14995
 H998 H 1.03407 0.68650 0.14623
 H999 H 1.06785 0.58410 0.20056
 H1000 H 1.07743 0.67880 0.10941
 C1001 C 0.95706 0.85985 0.21205
 C1002 C 0.98378 0.85561 0.21553
 C1003 C 0.99369 0.83207 0.20311
 N1004 N 1.01925 0.83181 0.19835
 N1005 N 1.02786 0.81139 0.18515
 C1006 C 1.01130 0.79036 0.17644
 N1007 N 0.98594 0.79035 0.18185
 N1008 N 0.97728 0.81083 0.19486
 C1009 C 1.01975 0.76887 0.15938
 C1010 C 1.04093 0.77255 0.14503
 H1011 H 0.99806 0.87041 0.22514
 H1012 H 1.00674 0.75162 0.15539
 H1013 H 0.94423 0.84482 0.20050
 H1014 H 1.05221 0.79095 0.14856
 C1015 C 0.47466 0.40149 0.71051
 C1016 C 0.46635 0.37567 0.70282
 C1017 C 0.48396 0.35709 0.69209
 N1018 N 0.47515 0.33209 0.68592
 N1019 N 0.49020 0.31530 0.67469
 C1020 C 0.51465 0.32291 0.66920
 N1021 N 0.52353 0.34787 0.67553
 N1022 N 0.50850 0.36465 0.68681
 C1023 C 0.53065 0.30519 0.65480
 C1024 C 0.52270 0.27921 0.64798
 H1025 H 0.44640 0.36845 0.70419
 H1026 H 0.54852 0.31337 0.64863
 H1027 H 0.49545 0.40701 0.71087
 H1028 H 0.50608 0.27117 0.65644
 C1029 C 0.45788 0.59056 0.78237
 C1030 C 0.45167 0.60618 0.80402
 C1031 C 0.46385 0.63233 0.81188
 N1032 N 0.45373 0.64758 0.83046
 N1033 N 0.46409 0.67138 0.83787
 C1034 C 0.48508 0.68090 0.82708
 N1035 N 0.49541 0.66558 0.80861
 N1036 N 0.48494 0.64174 0.80107
 C1037 C 0.49657 0.70730 0.83546
 C1038 C 0.48333 0.72442 0.85100
 H1039 H 0.43639 0.60007 0.81524
 H1040 H 0.51529 0.71299 0.82912
 H1041 H 0.47238 0.59841 0.77109
 H1042 H 0.46395 0.71803 0.85548
 C1043 C -0.06164 0.06343 0.28338
 C1044 C -0.03698 0.07691 0.28492
 C1045 C -0.03385 0.10448 0.29501
 N1046 N -0.01001 0.11789 0.29741
 N1047 N -0.00738 0.14263 0.30707
 C1048 C -0.02854 0.15479 0.31463
 N1049 N -0.05226 0.14140 0.31210
 N1050 N -0.05486 0.11681 0.30248
 C1051 C -0.02652 0.18161 0.32653
 C1052 C -0.00346 0.19778 0.32954
 H1053 H -0.01990 0.06758 0.27915
 H1054 H -0.04438 0.18852 0.33321
 H1055 H -0.07773 0.07426 0.28955
 H1056 H 0.01358 0.19113 0.32080
 C1057 C 0.06496 0.39453 0.25511
 C1058 C 0.07333 0.37029 0.25903
 C1059 C 0.05745 0.35178 0.27123
 N1060 N 0.06730 0.32939 0.27651
 N1061 N 0.05389 0.31316 0.28901
 C1062 C 0.03008 0.31874 0.29663
 N1063 N 0.02013 0.34098 0.29111
 N1064 N 0.03354 0.35720 0.27865
 C1065 C 0.01574 0.30223 0.31216
 C1066 C 0.02508 0.27955 0.31974
 H1067 H 0.09237 0.36467 0.25434
 H1068 H -0.00235 0.30904 0.31840
 H1069 H 0.04523 0.39850 0.25942
 H1070 H 0.04201 0.27208 0.31141
 C1071 C 0.57695 0.90420 0.75883
 C1072 C 0.58523 0.88158 0.76764
 C1073 C 0.56737 0.86397 0.77891
 N1074 N 0.57644 0.84264 0.78788
 N1075 N 0.56125 0.82781 0.80030
 C1076 C 0.53642 0.83383 0.80417
 N1077 N 0.52727 0.85495 0.79491
 N1078 N 0.54242 0.86972 0.78249
 C1079 C 0.52036 0.81980 0.82045
 C1080 C 0.52769 0.79757 0.83061
 H1081 H 0.60542 0.87683 0.76757
 H1082 H 0.50252 0.82826 0.82541
 H1083 H 0.55602 0.90665 0.75711
 H1084 H 0.54327 0.78721 0.82269
 C1085 C 0.69813 0.58000 0.10937
 C1086 C 0.67572 0.58600 0.12147
 C1087 C 0.66928 0.57616 0.14536
 N1088 N 0.64935 0.58597 0.15758
 N1089 N 0.64327 0.57800 0.17950
 C1090 C 0.65683 0.55982 0.19011
 N1091 N 0.67666 0.54975 0.17777
 N1092 N 0.68285 0.55784 0.15581
 C1093 C 0.64993 0.55112 0.21448
 C1094 C 0.63271 0.56456 0.22912
 H1095 H 0.66272 0.59956 0.11447
 H1096 H 0.65850 0.53430 0.22057
 H1097 H 0.71082 0.56682 0.11784
 H1098 H 0.62598 0.58207 0.22262
 C1099 C 0.18262 1.06016 0.57334
 C1100 C 0.19065 1.05619 0.59863
 C1101 C 0.17157 1.04960 0.61644
 N1102 N 0.17980 1.04053 0.63874
 N1103 N 0.16300 1.03652 0.65598
 C1104 C 0.13744 1.04174 0.65166
 N1105 N 0.12925 1.05081 0.62938
 N1106 N 0.14596 1.05456 0.61205
 C1107 C 0.11913 1.03960 0.67127
 C1108 C 0.12312 1.02425 0.69104
 H1109 H 0.21119 1.05838 0.60597
 H1110 H 0.10154 1.04985 0.66928
 H1111 H 0.16256 1.05375 0.56577
 H1112 H 0.13889 1.01148 0.69046
 C1113 C 0.20275 0.96362 0.88362
 C1114 C 0.19690 0.95030 0.85893
 C1115 C 0.18495 0.96186 0.83693
 N1116 N 0.17415 0.98480 0.83995
 N1117 N 0.16206 0.99404 0.81978
 C1118 C 0.16041 0.98071 0.79590
 N1119 N 0.17146 0.95796 0.79293
 N1120 N 0.18343 0.94869 0.81306
 C1121 C 0.14572 0.98957 0.77358
 C1122 C 0.12999 1.01026 0.77606
 H1123 H 0.20197 0.93074 0.85485
 H1124 H 0.14595 0.97796 0.75534
 H1125 H 0.20064 0.98410 0.88603
 H1126 H 0.13036 1.02122 0.79485
 C1127 C 0.73143 0.46383 0.39645
 C1128 C 0.71739 0.45327 0.37315
 C1129 C 0.70709 0.46902 0.35373
 N1130 N 0.70340 0.49420 0.35998
 N1131 N 0.69184 0.50757 0.34264
 C1132 C 0.68373 0.49629 0.31840
 N1133 N 0.68788 0.47126 0.31209
 N1134 N 0.69921 0.45785 0.32947
 C1135 C 0.66870 0.50994 0.29973
 C1136 C 0.65514 0.53112 0.30779
 H1137 H 0.71430 0.43272 0.36830
 H1138 H 0.66539 0.50070 0.28018
 H1139 H 0.73776 0.48407 0.39871
 H1140 H 0.65799 0.53870 0.32798
 C1141 C 0.81021 0.43754 0.58891
 C1142 C 0.80812 0.46097 0.60388
 C1143 C 0.81546 0.46360 0.63193
 N1144 N 0.81705 0.48684 0.64644
 N1145 N 0.82412 0.48899 0.67173
 C1146 C 0.82963 0.46790 0.68335
 N1147 N 0.82775 0.44475 0.66887
 N1148 N 0.82079 0.44264 0.64372
 C1149 C 0.83886 0.46932 0.71078
 C1150 C 0.84293 0.49205 0.72763
 H1151 H 0.80113 0.47738 0.59548
 H1152 H 0.84312 0.45125 0.71749
 H1153 H 0.81847 0.42241 0.59871
 H1154 H 0.83620 0.50957 0.72122
 C1155 C 0.27910 -0.03155 0.08100
 C1156 C 0.29970 -0.01335 0.09067
 C1157 C 0.31063 -0.01185 0.11777
 N1158 N 0.32571 0.00915 0.12945
 N1159 N 0.33677 0.00969 0.15352
 C1160 C 0.33336 -0.01088 0.16660
 N1161 N 0.31843 -0.03185 0.15486
 N1162 N 0.30717 -0.03227 0.13099
 C1163 C 0.34711 -0.01178 0.19220
 C1164 C 0.35590 0.01017 0.20902
 H1165 H 0.30877 -0.00095 0.07849
 H1166 H 0.34947 -0.03059 0.19809
 H1167 H 0.26912 -0.04102 0.09502
 H1168 H 0.34996 0.02858 0.20426
 C1169 C 0.27807 0.06141 0.40904
 C1170 C 0.27966 0.07031 0.38509
 C1171 C 0.29556 0.05785 0.36601
 N1172 N 0.30073 0.06918 0.34492
 N1173 N 0.31624 0.05862 0.32828
 C1174 C 0.32707 0.03630 0.33219
 N1175 N 0.32167 0.02491 0.35310
 N1176 N 0.30626 0.03547 0.36970
 C1177 C 0.34499 0.02442 0.31495
 C1178 C 0.35287 0.03474 0.29329
 H1179 H 0.27111 0.08772 0.38068
 H1180 H 0.35205 0.00662 0.32008
 H1181 H 0.28817 0.04446 0.41255
 H1182 H 0.34428 0.05184 0.28781
 C1183 C 0.76097 0.56610 0.92571
 C1184 C 0.76850 0.57501 0.90320
 C1185 C 0.78009 0.55834 0.88350
 N1186 N 0.78856 0.56812 0.86270
 N1187 N 0.80084 0.55375 0.84569
 C1188 C 0.80507 0.52906 0.84891
 N1189 N 0.79634 0.51923 0.86954
 N1190 N 0.78408 0.53357 0.88651
 C1191 C 0.82055 0.51345 0.83182
 C1192 C 0.83063 0.52208 0.81029
 H1193 H 0.76728 0.59481 0.90002
 H1194 H 0.82465 0.49479 0.83719
 H1195 H 0.76131 0.54570 0.92694
 H1196 H 0.82404 0.53962 0.80380
 C1197 C 0.04630 0.67601 0.56659
 C1198 C 0.07011 0.68726 0.56062
 C1199 C 0.09180 0.67160 0.55362
 N1200 N 0.11306 0.68233 0.54414
 N1201 N 0.13356 0.66870 0.53943
 C1202 C 0.13357 0.64390 0.54424
 N1203 N 0.11232 0.63321 0.55369
 N1204 N 0.09180 0.64675 0.55820
 C1205 C 0.15669 0.62904 0.54129
 C1206 C 0.17718 0.63613 0.52716
 H1207 H 0.07349 0.70781 0.56148
 H1208 H 0.15697 0.61158 0.55025
 H1209 H 0.04301 0.65535 0.56236
 H1210 H 0.17483 0.65178 0.51568
 C1211 C 0.60068 0.21584 1.08744
 C1212 C 0.62555 0.21679 1.10125
 C1213 C 0.64692 0.20130 1.09316
 N1214 N 0.66751 0.19904 1.11068
 N1215 N 0.68634 0.18374 1.10490
 C1216 C 0.68558 0.17039 1.08122
 N1217 N 0.66520 0.17290 1.06339
 N1218 N 0.64612 0.18807 1.06929
 C1219 C 0.70501 0.15145 1.07674
 C1220 C 0.71188 0.14211 1.05252
 H1221 H 0.62969 0.22812 1.11978
 H1222 H 0.71490 0.14526 1.09379
 H1223 H 0.59817 0.20584 1.06808
 H1224 H 0.70554 0.15161 1.03607
 C1225 C 0.88563 0.21249 0.96746
 C1226 C 0.88548 0.19121 0.98108
 C1227 C 0.86101 0.18005 0.98935
 N1228 N 0.86195 0.16022 1.00362
 N1229 N 0.83995 0.14917 1.01033
 C1230 C 0.81611 0.15741 1.00290
 N1231 N 0.81515 0.17723 0.98857
 N1232 N 0.83718 0.18834 0.98193
 C1233 C 0.79164 0.14494 1.00990
 C1234 C 0.79248 0.12640 1.02682
 H1235 H 0.90313 0.18158 0.98511
 H1236 H 0.77313 0.15082 1.00181
 H1237 H 0.86746 0.22192 0.96529
 H1238 H 0.81162 0.12204 1.03512
 C1239 C 0.35704 0.73222 0.45209
 C1240 C 0.35233 0.72916 0.47737
 C1241 C 0.32825 0.71521 0.48329
 N1242 N 0.32684 0.70809 0.50710
 N1243 N 0.30585 0.69422 0.51241
 C1244 C 0.28535 0.68708 0.49414
 N1245 N 0.28652 0.69463 0.47046
 N1246 N 0.30759 0.70839 0.46511
 C1247 C 0.26298 0.67002 0.49914
 C1248 C 0.26479 0.65588 0.52003
 H1249 H 0.36698 0.73545 0.49333
 H1250 H 0.24648 0.66656 0.48452
 H1251 H 0.34178 0.72461 0.43697
 H1252 H 0.28250 0.65904 0.53332
 C1253 C 0.55450 0.81380 0.48547
 C1254 C 0.56933 0.83683 0.48444
 C1255 C 0.59815 0.83940 0.48984
 N1256 N 0.61181 0.85935 0.48184
 N1257 N 0.63796 0.86108 0.48437
 C1258 C 0.65155 0.84296 0.49505
 N1259 N 0.63793 0.82324 0.50361
 N1260 N 0.61168 0.82139 0.50089
 C1261 C 0.68051 0.84446 0.49678
 C1262 C 0.69375 0.85919 0.48091
 H1263 H 0.56061 0.85264 0.47640
 H1264 H 0.69098 0.83339 0.50992
 H1265 H 0.56450 0.79871 0.49382
 H1266 H 0.68194 0.86809 0.46669
 C1267 C 0.07981 0.28163 -0.08008
 C1268 C 0.09787 0.28095 -0.05852
 C1269 C 0.12537 0.29131 -0.05857
 N1270 N 0.14175 0.29601 -0.03643
 N1271 N 0.16613 0.30661 -0.03650
 C1272 C 0.17500 0.31270 -0.05875
 N1273 N 0.15877 0.30761 -0.08084
 N1274 N 0.13449 0.29713 -0.08075
 C1275 C 0.20084 0.32633 -0.05943
 C1276 C 0.21845 0.33408 -0.03760
 H1277 H 0.09198 0.27390 -0.04128
 H1278 H 0.20525 0.33140 -0.07796
 H1279 H 0.08707 0.29018 -0.09608
 H1280 H 0.21475 0.32681 -0.01975
 C1281 C 0.40856 0.27884 0.06269
 C1282 C 0.40340 0.30280 0.05515
 C1283 C 0.37833 0.30856 0.04192
 N1284 N 0.37780 0.32962 0.02940
 N1285 N 0.35528 0.33643 0.01846
 C1286 C 0.33228 0.32265 0.01983
 N1287 N 0.33269 0.30162 0.03257
 N1288 N 0.35537 0.29463 0.04338
 C1289 C 0.30744 0.33093 0.00804
 C1290 C 0.30822 0.34691 -0.01130
 H1291 H 0.41878 0.31816 0.05776
 H1292 H 0.28905 0.32438 0.01450
 H1293 H 0.39449 0.26272 0.05581
 H1294 H 0.32700 0.35051 -0.01867
 C1295 C 0.85949 0.73868 0.56377
 C1296 C 0.85633 0.74814 0.54002
 C1297 C 0.83275 0.76075 0.53155
 N1298 N 0.83117 0.76978 0.50842
 N1299 N 0.81164 0.78386 0.50151
 C1300 C 0.79290 0.78956 0.51746
 N1301 N 0.79415 0.78008 0.54043
 N1302 N 0.81373 0.76594 0.54736
 C1303 C 0.77331 0.80791 0.51124
 C1304 C 0.77592 0.82205 0.49064
 H1305 H 0.87194 0.74780 0.52757
 H1306 H 0.75921 0.81241 0.52482
 H1307 H 0.84220 0.73661 0.57397
 H1308 H 0.79082 0.81702 0.47801
   
