data_POSCAR
  _audit_creation_date              2014-09-24
  _audit_creation_method            'ToBaCCo'
  _symmetry_space_group_name_H-M    'P1'
  _symmetry_Int_Tables_number       1
  _symmetry_cell_setting            triclinic
  loop_
  _symmetry_equiv_pos_as_xyz
 x,y,z
_cell_length_a 38.3270
_cell_length_b 38.7924
_cell_length_c 47.3863
_cell_angle_alpha 90.104900
_cell_angle_beta 90.179600
_cell_angle_gamma 89.992900
loop_
  _atom_site_label
  _atom_site_type_symbol
  _atom_site_fract_x
  _atom_site_fract_y
  _atom_site_fract_z
Zr1 Zr 0.24311 0.24640 0.29886
 O2 O 0.26552 0.27023 0.33491
 O3 O 0.20809 0.21176 0.31772
 O4 O 0.20806 0.27802 0.32156
 O5 O 0.31402 0.19183 0.28999
 O6 O 0.18414 0.31313 0.28804
 O7 O 0.27601 0.21365 0.32247
 O8 O 0.17957 0.18740 0.28036
 O9 O 0.19956 0.24932 0.27218
 O10 O 0.24629 0.20330 0.27242
 O11 O 0.24783 0.29380 0.27774
 O12 O 0.29201 0.24969 0.27862
 Zr13 Zr 0.25549 0.25715 0.20140
 Zr14 Zr 0.20553 0.29542 0.24960
 Zr15 Zr 0.29325 0.20768 0.25057
 Zr16 Zr 0.20428 0.20738 0.24466
 O17 O 0.34837 0.21078 0.24964
 O18 O 0.14989 0.21593 0.24008
 O19 O 0.25116 0.20916 0.22209
 O20 O 0.20711 0.25324 0.22195
 O21 O 0.25267 0.30055 0.22758
 O22 O 0.29867 0.25372 0.22833
 C23 C 0.18532 0.19126 0.30683
 C24 C 0.30328 0.19619 0.31555
 C25 C 0.18869 0.30350 0.31383
 O26 O 0.15059 0.29120 0.24706
 O27 O 0.18804 0.31584 0.21066
 O28 O 0.22490 0.29242 0.17807
 C29 C 0.19874 0.31142 0.18513
 O30 O 0.31372 0.31051 0.29601
 Zr31 Zr 0.29468 0.29567 0.25559
 O32 O 0.29162 0.29069 0.18255
 O33 O 0.21052 0.34966 0.25162
 O34 O 0.28688 0.34961 0.25940
 O35 O 0.34948 0.28824 0.25730
 O36 O 0.31593 0.31918 0.21988
 C37 C 0.31251 0.31306 0.19343
 O38 O 0.23133 0.23505 0.16536
 O39 O 0.28922 0.15329 0.25198
 O40 O 0.28822 0.22383 0.17844
 O41 O 0.30936 0.18637 0.21146
 O42 O 0.21089 0.15310 0.24375
 O43 O 0.18980 0.18789 0.20433
 C44 C 0.30529 0.19669 0.18576
 H45 H 0.24577 0.18132 0.28299
 H46 H 0.18747 0.25337 0.20834
 H47 H 0.32108 0.25373 0.21801
 H48 H 0.24772 0.31346 0.29106
 H49 H 0.13800 0.19343 0.24239
 H50 H 0.14119 0.31499 0.24780
 H51 H 0.18659 0.35923 0.25044
 H52 H 0.30990 0.36093 0.25729
 H53 H 0.18747 0.14251 0.24561
 H54 H 0.31334 0.14422 0.25304
 H55 H 0.35717 0.18679 0.24879
 H56 H 0.36063 0.31115 0.25525
 H57 H 0.16976 0.17199 0.20634
 H58 H 0.24242 0.24519 0.14837
 H59 H 0.25486 0.25963 0.35189
 H60 H 0.33050 0.32974 0.29393
 Zr61 Zr 0.75257 0.75449 0.29913
 O62 O 0.72942 0.72908 0.33396
 O63 O 0.78571 0.78941 0.32016
 O64 O 0.78695 0.72257 0.32231
 O65 O 0.68244 0.80949 0.28810
 O66 O 0.81287 0.68873 0.28891
 O67 O 0.71633 0.78460 0.32212
 O68 O 0.81683 0.81371 0.28439
 O69 O 0.79752 0.75271 0.27406
 O70 O 0.75063 0.79834 0.27356
 O71 O 0.74955 0.70780 0.27655
 O72 O 0.70505 0.75143 0.27662
 Zr73 Zr 0.74593 0.74714 0.20048
 Zr74 Zr 0.79327 0.70739 0.25008
 Zr75 Zr 0.70515 0.79420 0.24960
 Zr76 Zr 0.79407 0.79540 0.24733
 O77 O 0.65013 0.79032 0.24699
 O78 O 0.84874 0.78756 0.24456
 O79 O 0.74865 0.79422 0.22279
 O80 O 0.79298 0.75039 0.22335
 O81 O 0.74762 0.70291 0.22583
 O82 O 0.70132 0.74911 0.22579
 C83 C 0.80935 0.80972 0.31047
 C84 C 0.69014 0.80303 0.31405
 C85 C 0.80697 0.69754 0.31473
 O86 O 0.84823 0.71215 0.24952
 O87 O 0.81238 0.68764 0.21151
 O88 O 0.77880 0.71334 0.17765
 C89 C 0.80392 0.69343 0.18558
 O90 O 0.68251 0.69042 0.29138
 Zr91 Zr 0.70420 0.70639 0.25229
 O92 O 0.71094 0.71404 0.17942
 O93 O 0.78854 0.65308 0.25096
 O94 O 0.71230 0.65243 0.25551
 O95 O 0.64927 0.71303 0.25128
 O96 O 0.68615 0.68350 0.21524
 C97 C 0.69043 0.69065 0.18912
 O98 O 0.77167 0.76990 0.16563
 O99 O 0.70887 0.84859 0.25188
 O100 O 0.71549 0.78277 0.17720
 O101 O 0.68996 0.81635 0.21093
 O102 O 0.78720 0.84966 0.24784
 O103 O 0.81043 0.81646 0.20815
 C104 C 0.69675 0.80865 0.18507
 H105 H 0.75021 0.81999 0.28465
 H106 H 0.81345 0.75079 0.21068
 H107 H 0.67951 0.74936 0.21455
 H108 H 0.74909 0.68770 0.28937
 H109 H 0.86026 0.81009 0.24785
 H110 H 0.85780 0.68842 0.25017
 H111 H 0.81257 0.64366 0.25054
 H112 H 0.68959 0.64093 0.25208
 H113 H 0.81042 0.86025 0.25098
 H114 H 0.68468 0.85759 0.25244
 H115 H 0.64096 0.81418 0.24630
 H116 H 0.63864 0.69004 0.24815
 H117 H 0.83000 0.83267 0.21138
 H118 H 0.76119 0.76029 0.14810
 H119 H 0.73898 0.73957 0.35150
 H120 H 0.66614 0.67107 0.28811
 Zr121 Zr 0.75830 0.24263 -0.30018
 O122 O 0.73678 0.26673 -0.33639
 O123 O 0.79545 0.20962 -0.31866
 O124 O 0.79337 0.27493 -0.32201
 O125 O 0.68570 0.19016 -0.29327
 O126 O 0.81821 0.30797 -0.28746
 O127 O 0.72583 0.21025 -0.32473
 O128 O 0.81974 0.18156 -0.28117
 O129 O 0.80112 0.24386 -0.27265
 O130 O 0.75334 0.19914 -0.27451
 O131 O 0.75408 0.28965 -0.27821
 O132 O 0.70899 0.24694 -0.28066
 Zr133 Zr 0.74418 0.25185 -0.20248
 Zr134 Zr 0.79593 0.28971 -0.24957
 Zr135 Zr 0.70596 0.20463 -0.25332
 Zr136 Zr 0.79454 0.20152 -0.24584
 O137 O 0.65095 0.20943 -0.25330
 O138 O 0.84909 0.20786 -0.24007
 O139 O 0.74731 0.20430 -0.22411
 O140 O 0.79279 0.24709 -0.22254
 O141 O 0.74851 0.29548 -0.22814
 O142 O 0.70130 0.25013 -0.22994
 C143 C 0.81709 0.18813 -0.30754
 C144 C 0.69756 0.19397 -0.31854
 C145 C 0.81328 0.29964 -0.31353
 O146 O 0.85066 0.28369 -0.24669
 O147 O 0.81327 0.30917 -0.21024
 O148 O 0.77585 0.28555 -0.17826
 C149 C 0.80226 0.30446 -0.18485
 O150 O 0.68879 0.30843 -0.29699
 Zr151 Zr 0.70683 0.29225 -0.25666
 O152 O 0.71020 0.28755 -0.18357
 O153 O 0.79238 0.34410 -0.25059
 O154 O 0.71563 0.34611 -0.25971
 O155 O 0.65196 0.28558 -0.25894
 O156 O 0.68583 0.31589 -0.22088
 C157 C 0.69037 0.31083 -0.19442
 O158 O 0.76663 0.22885 -0.16615
 O159 O 0.70843 0.15017 -0.25542
 O160 O 0.71104 0.21767 -0.18059
 O161 O 0.68793 0.18328 -0.21511
 O162 O 0.78606 0.14749 -0.24601
 O163 O 0.80690 0.18099 -0.20546
 C164 C 0.69286 0.19165 -0.18905
 H165 H 0.75379 0.17742 -0.28551
 H166 H 0.81221 0.24645 -0.20874
 H167 H 0.67883 0.25063 -0.21968
 H168 H 0.75475 0.30966 -0.29111
 H169 H 0.86012 0.18489 -0.24219
 H170 H 0.86080 0.30719 -0.24686
 H171 H 0.81655 0.35304 -0.24920
 H172 H 0.69277 0.35783 -0.25782
 H173 H 0.80917 0.13615 -0.24744
 H174 H 0.68409 0.14184 -0.25720
 H175 H 0.64135 0.18572 -0.25317
 H176 H 0.64109 0.30856 -0.25639
 H177 H 0.82626 0.16423 -0.20726
 H178 H 0.75533 0.23919 -0.14930
 H179 H 0.74784 0.25629 -0.35330
 H180 H 0.67166 0.32733 -0.29470
 Zr181 Zr 0.24828 0.75553 -0.29741
 O182 O 0.27206 0.73266 -0.33319
 O183 O 0.21254 0.78888 -0.31716
 O184 O 0.21467 0.72367 -0.32162
 O185 O 0.31765 0.81117 -0.28480
 O186 O 0.18928 0.68817 -0.28925
 O187 O 0.28343 0.78779 -0.31938
 O188 O 0.18377 0.81406 -0.28053
 O189 O 0.20364 0.75213 -0.27222
 O190 O 0.24989 0.79837 -0.27051
 O191 O 0.25225 0.70791 -0.27654
 O192 O 0.29604 0.75243 -0.27520
 Zr193 Zr 0.25568 0.74336 -0.19932
 Zr194 Zr 0.20864 0.70571 -0.24998
 Zr195 Zr 0.29552 0.79381 -0.24657
 Zr196 Zr 0.20679 0.79378 -0.24420
 O197 O 0.35056 0.79069 -0.24391
 O198 O 0.15215 0.78556 -0.24176
 O199 O 0.25222 0.79168 -0.21968
 O200 O 0.20852 0.74755 -0.22191
 O201 O 0.25458 0.70059 -0.22631
 O202 O 0.30021 0.74741 -0.22454
 C203 C 0.18900 0.80902 -0.30693
 C204 C 0.30969 0.80603 -0.31099
 C205 C 0.19495 0.69809 -0.31478
 O206 O 0.15361 0.70976 -0.24950
 O207 O 0.18952 0.68430 -0.21203
 O208 O 0.22202 0.70959 -0.17734
 C209 C 0.19711 0.68968 -0.18582
 O210 O 0.31938 0.69307 -0.29260
 Zr211 Zr 0.29794 0.70622 -0.25268
 O212 O 0.28825 0.70654 -0.17989
 O213 O 0.21422 0.65154 -0.25226
 O214 O 0.29120 0.65229 -0.25792
 O215 O 0.35271 0.71403 -0.25172
 O216 O 0.31701 0.68168 -0.21676
 C217 C 0.30984 0.68468 -0.19052
 O218 O 0.23099 0.76559 -0.16368
 O219 O 0.29126 0.84821 -0.24722
 O220 O 0.28825 0.77579 -0.17491
 O221 O 0.30962 0.81447 -0.20676
 O222 O 0.21391 0.84798 -0.24255
 O223 O 0.18995 0.81263 -0.20434
 C224 C 0.30507 0.80344 -0.18136
 H225 H 0.24972 0.82039 -0.28106
 H226 H 0.18803 0.74729 -0.20928
 H227 H 0.32198 0.74696 -0.21324
 H228 H 0.25299 0.68841 -0.29001
 H229 H 0.14051 0.80818 -0.24416
 H230 H 0.14434 0.68594 -0.25067
 H231 H 0.19034 0.64174 -0.25217
 H232 H 0.31430 0.64123 -0.25532
 H233 H 0.19079 0.85884 -0.24552
 H234 H 0.31536 0.85744 -0.24716
 H235 H 0.35927 0.81465 -0.24230
 H236 H 0.36389 0.69111 -0.24982
 H237 H 0.17078 0.82941 -0.20711
 H238 H 0.24117 0.75487 -0.14650
 H239 H 0.26194 0.74359 -0.35030
 H240 H 0.33628 0.67398 -0.29030
 Zr241 Zr 1.25364 1.25473 0.79880
 O242 O 1.23003 1.23107 0.83424
 O243 O 1.29014 1.28712 0.81915
 O244 O 1.28677 1.22158 0.82209
 O245 O 1.18380 1.31002 0.78758
 O246 O 1.31298 1.18815 0.78861
 O247 O 1.21859 1.28639 0.82164
 O248 O 1.31807 1.31370 0.78274
 O249 O 1.29807 1.25236 0.77322
 O250 O 1.25163 1.29832 0.77289
 O251 O 1.24966 1.20782 0.77662
 O252 O 1.20578 1.25185 0.77665
 Zr253 Zr 1.24556 1.24580 0.70019
 Zr254 Zr 1.29314 1.20670 0.74987
 Zr255 Zr 1.20584 1.29407 0.74908
 Zr256 Zr 1.29449 1.29482 0.74618
 O257 O 1.15078 1.29065 0.74689
 O258 O 1.34914 1.28709 0.74293
 O259 O 1.24889 1.29330 0.72190
 O260 O 1.29285 1.24935 0.72274
 O261 O 1.24713 1.20218 0.72617
 O262 O 1.20117 1.24860 0.72567
 C263 C 1.31345 1.30751 0.80899
 C264 C 1.19212 1.30442 0.81353
 C265 C 1.30686 1.19663 0.81444
 O266 O 1.34812 1.21119 0.74912
 O267 O 1.31198 1.18642 0.71143
 O268 O 1.27887 1.21242 0.67746
 C269 C 1.30373 1.19231 0.68549
 O270 O 1.18252 1.19164 0.79229
 Zr271 Zr 1.20389 1.20653 0.75279
 O272 O 1.21282 1.20972 0.67987
 O273 O 1.28793 1.15244 0.75103
 O274 O 1.21100 1.15250 0.75676
 O275 O 1.14912 1.21435 0.75206
 O276 O 1.18517 1.18282 0.71626
 C277 C 1.19193 1.18693 0.69004
 O278 O 1.27026 1.26865 0.66488
 O279 O 1.20993 1.34845 0.75084
 O280 O 1.21390 1.28022 0.67671
 O281 O 1.19055 1.31569 0.71021
 O282 O 1.28710 1.34902 0.74618
 O283 O 1.31057 1.31515 0.70666
 C284 C 1.19612 1.30686 0.68439
 H285 H 1.25181 1.31999 0.78397
 H286 H 1.31325 1.24954 0.71000
 H287 H 1.17938 1.24851 0.71440
 H288 H 1.24906 1.18782 0.78953
 H289 H 1.36067 1.30972 0.74570
 H290 H 1.35759 1.18743 0.74977
 H291 H 1.31187 1.14279 0.75060
 H292 H 1.18799 1.14135 0.75389
 H293 H 1.31022 1.35987 0.74920
 H294 H 1.18581 1.35761 0.75136
 H295 H 1.14182 1.31458 0.74595
 H296 H 1.13797 1.19155 0.74920
 H297 H 1.32955 1.33209 0.70967
 H298 H 1.25987 1.25845 0.64754
 H299 H 1.24031 1.24152 0.85153
 H300 H 1.16529 1.17295 0.78935
 Zr301 Zr 0.74093 0.74491 0.79959
 O302 O 0.76311 0.76739 0.83630
 O303 O 0.70335 0.71190 0.81754
 O304 O 0.70630 0.77680 0.82240
 O305 O 0.81276 0.69175 0.79081
 O306 O 0.68254 0.81217 0.78901
 O307 O 0.77308 0.71125 0.82299
 O308 O 0.67799 0.68572 0.77954
 O309 O 0.69797 0.74802 0.77237
 O310 O 0.74490 0.70221 0.77279
 O311 O 0.74607 0.79266 0.77901
 O312 O 0.79015 0.74889 0.77985
 Zr313 Zr 0.75492 0.75757 0.70230
 Zr314 Zr 0.70409 0.79460 0.75056
 Zr315 Zr 0.79219 0.70747 0.75133
 Zr316 Zr 0.70352 0.70645 0.74450
 O317 O 0.84731 0.71086 0.75063
 O318 O 0.64909 0.71414 0.73917
 O319 O 0.75064 0.70918 0.72240
 O320 O 0.70633 0.75284 0.72246
 O321 O 0.75150 0.80034 0.72908
 O322 O 0.79783 0.75391 0.72947
 C323 C 0.68105 0.69126 0.80610
 C324 C 0.80114 0.69497 0.81623
 C325 C 0.68706 0.80241 0.81477
 O326 O 0.64921 0.78986 0.74789
 O327 O 0.68674 0.81542 0.71177
 O328 O 0.72333 0.79198 0.67900
 C329 C 0.69722 0.81095 0.68619
 O330 O 0.81193 0.80916 0.79805
 Zr331 Zr 0.79327 0.79517 0.75731
 O332 O 0.78882 0.79407 0.68423
 O333 O 0.70874 0.84886 0.75281
 O334 O 0.78532 0.84901 0.76197
 O335 O 0.84803 0.78752 0.75926
 O336 O 0.81477 0.81986 0.72214
 C337 C 0.80957 0.81629 0.69556
 O338 O 0.73227 0.73542 0.66563
 O339 O 0.78875 0.65304 0.75251
 O340 O 0.78897 0.72532 0.67943
 O341 O 0.80857 0.68666 0.71217
 O342 O 0.71130 0.65234 0.74316
 O343 O 0.68994 0.68762 0.70376
 C344 C 0.80544 0.69771 0.68659
 H345 H 0.74408 0.68016 0.78326
 H346 H 0.68680 0.75295 0.70875
 H347 H 0.82027 0.75452 0.71919
 H348 H 0.74586 0.81214 0.79251
 H349 H 0.63754 0.69138 0.74084
 H350 H 0.63959 0.81355 0.74871
 H351 H 0.68475 0.85830 0.75170
 H352 H 0.80835 0.86044 0.76029
 H353 H 0.68811 0.64124 0.74479
 H354 H 0.81295 0.64421 0.75371
 H355 H 0.85625 0.68693 0.74972
 H356 H 0.85927 0.81042 0.75751
 H357 H 0.67076 0.67065 0.70544
 H358 H 0.74344 0.74619 0.64894
 H359 H 0.75196 0.75657 0.85298
 H360 H 0.82890 0.82828 0.79633
 Zr361 Zr 1.25648 0.74414 0.19962
 O362 O 1.23521 0.76954 0.16391
 O363 O 1.29072 0.70882 0.18026
 O364 O 1.29231 0.77578 0.17798
 O365 O 1.18419 0.69117 0.20653
 O366 O 1.31659 0.80917 0.21258
 O367 O 1.22323 0.71294 0.17494
 O368 O 1.31798 0.68282 0.21741
 O369 O 1.29970 0.74528 0.22676
 O370 O 1.25183 0.70046 0.22508
 O371 O 1.25241 0.79095 0.22192
 O372 O 1.20735 0.74822 0.21946
 Zr373 Zr 1.24280 0.75230 0.29743
 Zr374 Zr 1.29434 0.79077 0.25042
 Zr375 Zr 1.20463 0.70549 0.24645
 Zr376 Zr 1.29350 0.70273 0.25332
 O377 O 1.14960 0.71016 0.24651
 O378 O 1.34802 0.70999 0.25838
 O379 O 1.24631 0.70504 0.27537
 O380 O 1.29137 0.74791 0.27715
 O381 O 1.24704 0.79636 0.27224
 O382 O 1.19994 0.75072 0.27000
 C383 C 1.31264 0.68728 0.19095
 C384 C 1.19548 0.69594 0.18120
 C385 C 1.31199 0.80065 0.18651
 O386 O 1.34910 0.78502 0.25345
 O387 O 1.31166 0.80989 0.28983
 O388 O 1.27367 0.78670 0.32160
 C389 C 1.30033 0.80533 0.31514
 O390 O 1.18723 0.81047 0.20371
 Zr391 Zr 1.20535 0.79338 0.24377
 O392 O 1.20622 0.78533 0.31672
 O393 O 1.29085 0.84517 0.24949
 O394 O 1.21481 0.84719 0.24166
 O395 O 1.15044 0.78717 0.24111
 O396 O 1.18381 0.81601 0.27987
 C397 C 1.18614 0.80865 0.30617
 O398 O 1.26614 0.72983 0.33362
 O399 O 1.20733 0.65105 0.24413
 O400 O 1.21097 0.71692 0.31924
 O401 O 1.18675 0.68362 0.28454
 O402 O 1.28556 0.64861 0.25322
 O403 O 1.30703 0.68184 0.29333
 C404 C 1.19237 0.69129 0.31066
 H405 H 1.25189 0.67874 0.21408
 H406 H 1.31081 0.74726 0.29093
 H407 H 1.17736 0.75070 0.28009
 H408 H 1.25313 0.81103 0.20909
 H409 H 1.35943 0.68731 0.25565
 H410 H 1.35916 0.80855 0.25314
 H411 H 1.31501 0.85409 0.25108
 H412 H 1.19213 0.85912 0.24399
 H413 H 1.30872 0.63748 0.25136
 H414 H 1.18303 0.64262 0.24226
 H415 H 1.14006 0.68643 0.24668
 H416 H 1.13970 0.81018 0.24380
 H417 H 1.32692 0.66577 0.29117
 H418 H 1.25458 0.73972 0.35054
 H419 H 1.24580 0.75916 0.14678
 H420 H 1.17102 0.83010 0.20628
 Zr421 Zr 0.74758 1.25785 0.20197
 O422 O 0.77073 1.23409 0.16631
 O423 O 0.71475 1.29398 0.18190
 O424 O 0.71308 1.22687 0.17779
 O425 O 0.81716 1.31311 0.21501
 O426 O 0.68854 1.19050 0.20994
 O427 O 0.78394 1.28879 0.18018
 O428 O 0.68352 1.31704 0.21822
 O429 O 0.70258 1.25437 0.22677
 O430 O 0.74905 1.30058 0.22898
 O431 O 0.75140 1.21022 0.22297
 O432 O 0.79506 1.25445 0.22461
 Zr433 Zr 0.75428 1.24596 0.30019
 Zr434 Zr 0.70762 1.20802 0.24928
 Zr435 Zr 0.79444 1.29605 0.25305
 Zr436 Zr 0.70546 1.29597 0.25481
 O437 O 0.84947 1.29290 0.25596
 O438 O 0.65088 1.28704 0.25621
 O439 O 0.75078 1.29412 0.27961
 O440 O 0.70727 1.24986 0.27731
 O441 O 0.75327 1.20287 0.27348
 O442 O 0.79891 1.24982 0.27513
 C443 C 0.69135 1.31434 0.19203
 C444 C 0.80978 1.30727 0.18887
 C445 C 0.69379 1.20091 0.18449
 O446 O 0.65259 1.21195 0.24989
 O447 O 0.68871 1.18632 0.28713
 O448 O 0.72163 1.21112 0.32191
 C449 C 0.69686 1.19124 0.31326
 O450 O 0.81850 1.19412 0.20773
 Zr451 Zr 0.79675 1.20824 0.24732
 O452 O 0.78941 1.21208 0.32033
 O453 O 0.71305 1.15384 0.24667
 O454 O 0.78917 1.15435 0.24269
 O455 O 0.85156 1.21575 0.24809
 O456 O 0.81591 1.18435 0.28371
 C457 C 0.81100 1.18994 0.31006
 O458 O 0.72819 1.26765 0.33540
 O459 O 0.79021 1.35046 0.25229
 O460 O 0.78549 1.27939 0.32477
 O461 O 0.80842 1.31697 0.29278
 O462 O 0.71224 1.35018 0.25712
 O463 O 0.68740 1.31455 0.29441
 C464 C 0.80295 1.30658 0.31823
 H465 H 0.74942 1.32275 0.21866
 H466 H 0.68673 1.24940 0.28991
 H467 H 0.82070 1.24978 0.28641
 H468 H 0.75212 1.19076 0.20946
 H469 H 0.63903 1.30949 0.25345
 H470 H 0.64337 1.18814 0.24843
 H471 H 0.68916 1.14407 0.24692
 H472 H 0.81202 1.14298 0.24580
 H473 H 0.68914 1.36101 0.25394
 H474 H 0.81431 1.35969 0.25225
 H475 H 0.85821 1.31684 0.25766
 H476 H 0.86263 1.19283 0.25041
 H477 H 0.66776 1.33071 0.29136
 H478 H 0.73842 1.25741 0.35275
 H479 H 0.76107 1.24532 0.14915
 H480 H 0.83475 1.17454 0.21034
 O481 O 0.54784 1.06961 0.04639
 O482 O 0.58742 1.03464 0.02374
 C483 C 0.57935 1.05960 0.04101
 O484 O 0.45386 0.94493 0.05594
 O485 O 0.41287 0.97318 0.02895
 C486 C 0.42200 0.95212 0.04908
 O487 O 0.54959 0.95020 0.05712
 O488 O 0.58845 0.97592 0.02684
 C489 C 0.58092 0.95726 0.04884
 O490 O 0.45186 1.07134 0.04444
 O491 O 0.41199 1.03444 0.02415
 C492 C 0.42029 1.06075 0.03994
 Zr493 Zr 0.49982 1.04934 0.03261
 O494 O 0.50019 1.04837 0.07722
 O495 O 0.49879 1.10390 0.03189
 Zr496 Zr 0.50105 0.96366 0.03967
 O497 O 0.50056 0.97321 0.08363
 O498 O 0.50480 0.90960 0.04486
 O499 O 0.53203 1.00754 0.04117
 O500 O 0.46959 1.00680 0.04165
 O501 O 0.44983 1.05677 -0.05355
 O502 O 0.41082 1.02838 -0.02510
 C503 C 0.41849 1.04913 -0.04577
 O504 O 0.54715 0.93659 -0.04648
 O505 O 0.58713 0.97157 -0.02419
 C506 C 0.57866 0.94706 -0.04174
 O507 O 0.45132 0.93207 -0.04197
 O508 O 0.41165 0.96780 -0.02032
 C509 C 0.41976 0.94183 -0.03652
 O510 O 0.54527 1.05182 -0.05804
 O511 O 0.58639 1.02961 -0.02774
 C512 C 0.57721 1.04650 -0.05029
 Zr513 Zr 0.49825 1.04076 -0.03745
 O514 O 0.49484 1.04124 -0.08196
 O515 O 0.50151 1.09528 -0.03816
 Zr516 Zr 0.49930 0.95432 -0.03033
 O517 O 0.49508 0.94663 -0.07447
 O518 O 0.50184 0.90082 -0.02215
 Zr519 Zr 0.55266 1.00260 0.00018
 Zr520 Zr 0.44644 1.00140 0.00158
 O521 O 0.46827 0.99651 -0.03892
 O522 O 0.52960 0.99712 -0.04009
 O523 O 0.46735 1.05148 -0.00264
 O524 O 0.53122 0.95301 0.00470
 O525 O 0.53002 1.05178 -0.00348
 O526 O 0.46864 0.95192 0.00563
 H527 H 0.45441 1.00875 0.05848
 H528 H 0.54719 0.93299 0.00609
 H529 H 0.45277 0.99402 -0.05557
 H530 H 0.54598 1.07169 -0.00561
 H531 H 0.48868 0.89892 0.03104
 H532 H 0.50177 0.88923 -0.04081
 H533 H 0.51208 0.96217 -0.08363
 H534 H 0.49387 1.01694 -0.08814
 H535 H 0.47988 1.10451 -0.02964
 H536 H 0.51118 1.11152 0.01475
 H537 H 0.49857 1.07271 0.08343
 H538 H 0.50091 0.95034 0.09294
 O539 O 1.04883 0.56724 0.54782
 O540 O 1.08768 0.53298 0.52368
 C541 C 1.08013 0.55719 0.54180
 O542 O 0.95329 0.44355 0.55487
 O543 O 0.91248 0.47344 0.52891
 C544 C 0.92148 0.45150 0.54844
 O545 O 1.04925 0.44759 0.55547
 O546 O 1.08811 0.47502 0.52618
 C547 C 1.08058 0.45518 0.54748
 O548 O 0.95285 0.57070 0.54613
 O549 O 0.91233 0.53487 0.52541
 C550 C 0.92110 0.56073 0.54153
 Zr551 Zr 1.00041 0.54831 0.53374
 O552 O 1.00095 0.54583 0.57831
 O553 O 1.00041 0.60287 0.53436
 Zr554 Zr 1.00061 0.46225 0.53879
 O555 O 1.00070 0.47032 0.58294
 O556 O 1.00371 0.40799 0.54270
 O557 O 1.03207 0.50576 0.54111
 O558 O 0.96975 0.50579 0.54200
 O559 O 0.94965 0.55937 0.44813
 O560 O 0.91061 0.53032 0.47612
 C561 C 0.91830 0.55165 0.45586
 O562 O 1.04549 0.43822 0.45139
 O563 O 1.08615 0.47122 0.47487
 C564 C 1.07721 0.44786 0.45644
 O565 O 0.94961 0.43430 0.45683
 O566 O 0.91068 0.46976 0.47962
 C567 C 0.91826 0.44424 0.46281
 O568 O 1.04517 0.55332 0.44295
 O569 O 1.08627 0.52843 0.47189
 C570 C 1.07710 0.54662 0.45001
 Zr571 Zr 0.99809 0.54230 0.46353
 O572 O 0.99440 0.54443 0.41906
 O573 O 1.00205 0.59677 0.46411
 Zr574 Zr 0.99803 0.45547 0.46861
 O575 O 0.99312 0.44902 0.42439
 O576 O 1.00019 0.40172 0.47564
 Zr577 Zr 1.05217 0.50201 0.49987
 Zr578 Zr 0.94618 0.50212 0.50196
 O579 O 0.96754 0.49840 0.46122
 O580 O 1.02869 0.49827 0.45966
 O581 O 0.96765 0.55210 0.49877
 O582 O 1.03031 0.45251 0.50338
 O583 O 1.03034 0.55165 0.49752
 O584 O 0.96770 0.45220 0.50470
 H585 H 0.95469 0.50740 0.55891
 H586 H 1.04619 0.43237 0.50421
 H587 H 0.95183 0.49664 0.44464
 H588 H 1.04667 0.57130 0.49568
 H589 H 0.98727 0.39801 0.52877
 H590 H 0.99992 0.39075 0.45674
 H591 H 1.00957 0.46525 0.41536
 H592 H 0.99217 0.52042 0.41234
 H593 H 0.98049 0.60596 0.47278
 H594 H 1.01220 0.61087 0.51706
 H595 H 0.99972 0.56999 0.58506
 H596 H 1.00084 0.44714 0.59172
 O597 O 1.07244 0.54897 0.03848
 O598 O 1.03344 0.58775 0.01963
 C599 C 1.06114 0.58002 0.03432
 O600 O 1.04735 0.45181 -0.06006
 O601 O 1.02472 0.41303 -0.02837
 C602 C 1.04169 0.42075 -0.05128
 O603 O 1.05256 0.54627 -0.05888
 O604 O 1.02753 0.58652 -0.02952
 C605 C 1.04670 0.57770 -0.05109
 O606 O 1.06958 0.45410 0.04313
 O607 O 1.03250 0.41444 0.02287
 C608 C 1.05867 0.42291 0.03911
 Zr609 Zr 1.04966 0.50113 0.02810
 O610 O 1.10413 0.49792 0.02129
 O611 O 1.05558 0.50370 0.07244
 Zr612 Zr 1.03577 0.49957 -0.04138
 O613 O 1.09073 0.49752 -0.04452
 O614 O 1.02939 0.50118 -0.08572
 O615 O 1.04953 0.53158 -0.00793
 O616 O 1.04899 0.46965 -0.00704
 O617 O 0.95171 0.45466 0.05914
 O618 O 0.97384 0.41441 0.02835
 C619 C 0.95724 0.42320 0.05122
 O620 O 0.92653 0.54760 -0.04186
 O621 O 0.96574 0.58700 -0.02409
 C622 C 0.93788 0.57878 -0.03841
 O623 O 0.92903 0.45256 -0.04436
 O624 O 0.96601 0.41364 -0.02316
 C625 C 0.93986 0.42150 -0.03963
 O626 O 0.94652 0.54900 0.05526
 O627 O 0.97196 0.58786 0.02500
 C628 C 0.95273 0.58005 0.04676
 Zr629 Zr 0.96305 0.50145 0.03899
 O630 O 0.90809 0.49962 0.04209
 O631 O 0.96919 0.50501 0.08328
 Zr632 Zr 0.94921 0.50008 -0.03048
 O633 O 0.89471 0.49733 -0.02369
 O634 O 0.94343 0.50090 -0.07487
 Zr635 Zr 0.99956 0.55300 -0.00185
 Zr636 Zr 0.99932 0.44809 -0.00051
 O637 O 0.94973 0.47009 0.00546
 O638 O 0.94947 0.53207 0.00475
 O639 O 1.00741 0.47059 0.03949
 O640 O 0.99160 0.52996 -0.04157
 O641 O 1.00737 0.53159 0.03843
 O642 O 0.99132 0.46887 -0.04107
 H643 H 1.06921 0.45396 -0.00930
 H644 H 0.98864 0.54467 -0.05848
 H645 H 0.92951 0.45453 0.00814
 H646 H 1.01038 0.54693 0.05500
 H647 H 1.00667 0.49023 -0.08999
 H648 H 0.91800 0.50129 -0.07871
 H649 H 0.88903 0.51397 -0.00853
 H650 H 0.90273 0.49948 0.06253
 H651 H 0.99222 0.49489 0.08784
 H652 H 1.08103 0.50403 0.07624
 H653 H 1.10987 0.51407 0.00585
 H654 H 1.09606 0.49644 -0.06495
 O655 O 0.57098 1.04621 0.54066
 O656 O 0.53415 1.08563 0.51997
 C657 C 0.56095 1.07747 0.53560
 O658 O 0.54702 0.94933 0.44187
 O659 O 0.52283 0.91098 0.47316
 C660 C 0.54054 0.91838 0.45051
 O661 O 0.55309 1.04359 0.44262
 O662 O 0.52671 1.08442 0.47062
 C663 C 0.54665 1.07517 0.44967
 O664 O 0.56610 0.95163 0.54542
 O665 O 0.52921 0.91237 0.52440
 C666 C 0.55501 0.92056 0.54109
 Zr667 Zr 0.54738 0.99891 0.52996
 O668 O 0.60200 0.99475 0.52431
 O669 O 0.55185 1.00159 0.57440
 Zr670 Zr 0.53555 0.99725 0.46028
 O671 O 0.59057 0.99460 0.45833
 O672 O 0.53067 0.99855 0.41581
 O673 O 0.54882 1.02926 0.49382
 O674 O 0.54729 0.96729 0.49491
 O675 O 0.44782 0.95423 0.55938
 O676 O 0.47024 0.91342 0.52922
 C677 C 0.45314 0.92262 0.55178
 O678 O 0.42686 1.04659 0.45736
 O679 O 0.46514 1.08574 0.47676
 C680 C 0.43800 1.07771 0.46145
 O681 O 0.42819 0.95167 0.45556
 O682 O 0.46390 0.91233 0.47763
 C683 C 0.43832 0.92048 0.46072
 O684 O 0.44441 1.04852 0.55503
 O685 O 0.47266 1.08684 0.52599
 C686 C 0.45214 1.07942 0.54701
 Zr687 Zr 0.46055 1.00065 0.53915
 O688 O 0.40548 0.99975 0.54113
 O689 O 0.46540 1.00439 0.58353
 Zr690 Zr 0.44873 0.99901 0.46949
 O691 O 0.39401 0.99711 0.47525
 O692 O 0.44434 0.99950 0.42500
 Zr693 Zr 0.49903 1.05153 0.49887
 Zr694 Zr 0.49713 0.94647 0.50057
 O695 O 0.44773 0.96926 0.50554
 O696 O 0.44846 1.03130 0.50459
 O697 O 0.50437 0.96908 0.54063
 O698 O 0.49178 1.02826 0.45914
 O699 O 0.50539 1.03015 0.53933
 O700 O 0.49065 0.96715 0.45981
 H701 H 0.56734 0.95132 0.49304
 H702 H 0.48921 1.04285 0.44212
 H703 H 0.42718 0.95404 0.50794
 H704 H 0.50844 1.04554 0.55586
 H705 H 0.50775 0.98825 0.41113
 H706 H 0.41903 1.00009 0.42063
 H707 H 0.38813 1.01392 0.49023
 H708 H 0.39947 0.99979 0.56145
 H709 H 0.48810 0.99393 0.58860
 H710 H 0.57716 1.00135 0.57876
 H711 H 0.60848 1.01056 0.50882
 H712 H 0.59655 0.99338 0.43803
 O713 O 1.04549 0.92073 0.53694
 O714 O 1.02631 0.95989 0.56988
 C715 C 1.04214 0.93165 0.56258
 O716 O 1.07795 1.03971 0.46002
 O717 O 1.03629 1.02019 0.42889
 C718 C 1.06524 1.03606 0.43488
 O719 O 1.08396 1.03373 0.53734
 O720 O 1.04388 1.01554 0.57007
 C721 C 1.07346 1.02935 0.56300
 O722 O 1.03669 0.91944 0.45938
 O723 O 1.01871 0.96140 0.42841
 C724 C 1.03217 0.93147 0.43418
 Zr725 Zr 1.02995 0.94318 0.49882
 O726 O 1.08344 0.93038 0.49580
 O727 O 1.01502 0.89077 0.50149
 Zr728 Zr 1.05799 1.02453 0.49911
 O729 O 1.10822 1.00228 0.49639
 O730 O 1.07827 1.07519 0.50132
 O731 O 1.05147 0.98138 0.52420
 O732 O 1.04893 0.98231 0.47378
 O733 O 0.92276 0.95841 0.46330
 O734 O 0.96194 0.97813 0.43050
 C735 C 0.93327 0.96275 0.43768
 O736 O 0.96395 1.07431 0.54081
 O737 O 0.98476 1.03380 0.57191
 C738 C 0.96928 1.06270 0.56600
 O739 O 0.96373 1.07718 0.46314
 O740 O 0.98011 1.03658 0.43041
 C741 C 0.96641 1.06596 0.43751
 O742 O 0.92448 0.96089 0.54092
 O743 O 0.96709 0.97838 0.57194
 C744 C 0.93695 0.96472 0.56611
 Zr745 Zr 0.94699 0.97093 0.50155
 O746 O 0.89471 0.98855 0.50008
 O747 O 0.92973 0.91920 0.50464
 Zr748 Zr 0.97548 1.05280 0.50144
 O749 O 0.92383 1.07214 0.50045
 O750 O 0.99695 1.10299 0.50239
 Zr751 Zr 1.00424 0.99725 0.54277
 Zr752 Zr 1.00046 0.99843 0.45772
 O753 O 0.95381 1.01420 0.47708
 O754 O 0.95561 1.01379 0.52694
 O755 O 0.98502 0.95075 0.47494
 O756 O 1.01981 1.04445 0.52506
 O757 O 0.98754 0.95046 0.52482
 O758 O 1.01773 1.04549 0.47503
 H759 H 1.06785 0.97638 0.46041
 H760 H 1.02694 1.06372 0.53757
 H761 H 0.93353 1.02078 0.46523
 H762 H 0.98175 0.93085 0.53734
 H763 H 1.06109 1.09042 0.49196
 H764 H 0.97693 1.11913 0.50325
 H765 H 0.91039 1.05963 0.51497
 H766 H 0.89126 1.00448 0.51615
 H767 H 0.93874 0.90650 0.48807
 H768 H 0.99452 0.88765 0.48904
 H769 H 1.08456 0.90487 0.49500
 H770 H 1.12489 1.02177 0.49556
 O771 O 0.58244 0.46579 0.03883
 O772 O 0.54053 0.48265 0.07063
 C773 C 0.57082 0.46979 0.06427
 O774 O 0.53379 0.57665 -0.04138
 O775 O 0.51736 0.53395 -0.07238
 C776 C 0.52996 0.56429 -0.06659
 O777 O 0.54023 0.57711 0.03634
 O778 O 0.52208 0.53739 0.06910
 C779 C 0.53681 0.56620 0.06193
 O780 O 0.57944 0.45845 -0.03900
 O781 O 0.53798 0.47635 -0.07089
 C782 C 0.56735 0.46164 -0.06437
 Zr783 Zr 0.55741 0.47250 -0.00032
 O784 O 0.60942 0.49043 -0.00328
 O785 O 0.57366 0.42050 0.00200
 Zr786 Zr 0.52683 0.55346 -0.00182
 O787 O 0.57957 0.56912 -0.00403
 O788 O 0.50897 0.60505 -0.00040
 O789 O 0.54893 0.51612 0.02410
 O790 O 0.54790 0.51446 -0.02593
 O791 O 0.46690 0.41693 -0.03798
 O792 O 0.48278 0.45782 -0.07057
 C793 C 0.47012 0.42798 -0.06360
 O794 O 0.42098 0.53318 0.03871
 O795 O 0.46351 0.51734 0.07034
 C796 C 0.43325 0.53031 0.06405
 O797 O 0.42134 0.53473 -0.03904
 O798 O 0.46193 0.51545 -0.07096
 C799 C 0.43259 0.53016 -0.06445
 O800 O 0.46329 0.42086 0.03985
 O801 O 0.48217 0.46248 0.07087
 C802 C 0.46725 0.43327 0.06500
 Zr803 Zr 0.47553 0.44219 0.00058
 O804 O 0.42384 0.42312 -0.00204
 O805 O 0.49517 0.39136 0.00393
 Zr806 Zr 0.44479 0.52334 -0.00031
 O807 O 0.39266 0.50537 -0.00226
 O808 O 0.42878 0.57550 0.00017
 Zr809 Zr 0.50174 0.49908 0.04193
 Zr810 Zr 0.50044 0.49673 -0.04282
 O811 O 0.45359 0.47990 -0.02443
 O812 O 0.45396 0.48104 0.02546
 O813 O 0.51851 0.45032 -0.02505
 O814 O 0.48404 0.54518 0.02358
 O815 O 0.51905 0.45199 0.02499
 O816 O 0.48292 0.54407 -0.02639
 H817 H 0.56701 0.52100 -0.03890
 H818 H 0.47733 0.56478 0.03586
 H819 H 0.43403 0.47258 -0.03678
 H820 H 0.52622 0.43325 0.03796
 H821 H 0.48693 0.60592 -0.01129
 H822 H 0.40292 0.57527 0.00043
 H823 H 0.38973 0.48816 0.01292
 H824 H 0.41042 0.43346 0.01362
 H825 H 0.51512 0.38945 -0.00919
 H826 H 0.59951 0.42088 0.00216
 H827 H 0.61089 0.51184 0.00803
 H828 H 0.57931 0.59464 -0.00488
 C829 C 0.34414 1.13670 0.11920
 N830 N 0.33963 1.12273 0.14522
 N831 N 0.32795 1.14191 0.16662
 C832 C 0.32027 1.17578 0.16277
 N833 N 0.32460 1.18964 0.13671
 N834 N 0.33665 1.17059 0.11543
 C835 C 0.35914 1.11623 0.09595
 N836 N 0.37505 1.13229 0.07405
 N837 N 0.39225 1.11417 0.05464
 C838 C 0.39336 1.07923 0.05584
 N839 N 0.37672 1.06308 0.07736
 N840 N 0.35988 1.08123 0.09703
 C841 C 0.84503 0.63776 0.62028
 N842 N 0.83978 0.62371 0.64618
 N843 N 0.82788 0.64293 0.66746
 C844 C 0.82069 0.67691 0.66365
 N845 N 0.82575 0.69087 0.63771
 N846 N 0.83803 0.67177 0.61653
 C847 C 0.86017 0.61712 0.59719
 N848 N 0.87667 0.63295 0.57548
 N849 N 0.89389 0.61458 0.55624
 C850 C 0.89445 0.57962 0.55743
 N851 N 0.87725 0.56371 0.57878
 N852 N 0.86039 0.58211 0.59828
 C853 C 0.65932 0.87793 0.12423
 N854 N 0.67692 0.84915 0.11613
 N855 N 0.68864 0.82675 0.13535
 C856 C 0.68281 0.83214 0.16333
 N857 N 0.66525 0.86091 0.17129
 N858 N 0.65367 0.88325 0.15216
 C859 C 0.64417 0.90204 0.10350
 N860 N 0.62485 0.92902 0.11279
 N861 N 0.60715 0.94862 0.09474
 C862 C 0.60850 0.94253 0.06657
 N863 N 0.62851 0.91602 0.05708
 N864 N 0.64621 0.89623 0.07522
 C865 C 1.15827 0.37504 0.62285
 N866 N 1.17460 0.34542 0.61500
 N867 N 1.18640 0.32335 0.63445
 C868 C 1.18191 0.32991 0.66242
 N869 N 1.16557 0.35949 0.67013
 N870 N 1.15392 0.38151 0.65077
 C871 C 1.14327 0.39901 0.60191
 N872 N 1.12576 0.42731 0.61098
 N873 N 1.10834 0.44710 0.59289
 C874 C 1.10819 0.43990 0.56487
 N875 N 1.12630 0.41197 0.55560
 N876 N 1.14375 0.39201 0.57377
 C877 C 0.65351 1.12383 -0.12826
 N878 N 0.67239 1.15186 -0.12028
 N879 N 0.68444 1.17387 -0.13956
 C880 C 0.67776 1.16885 -0.16747
 N881 N 0.65891 1.14083 -0.17537
 N882 N 0.64688 1.11889 -0.15614
 C883 C 0.63828 1.10024 -0.10733
 N884 N 0.61605 1.07524 -0.11611
 N885 N 0.59873 1.05620 -0.09753
 C886 C 0.60338 1.06086 -0.06939
 N887 N 0.62633 1.08528 -0.06046
 N888 N 0.64359 1.10457 -0.07914
 C889 C 1.15323 0.62328 0.37145
 N890 N 1.17264 0.65098 0.37937
 N891 N 1.18468 0.67297 0.36008
 C892 C 1.17751 0.66826 0.33221
 N893 N 1.15814 0.64056 0.32436
 N894 N 1.14610 0.61864 0.34361
 C895 C 1.13799 0.59979 0.39247
 N896 N 1.11535 0.57506 0.38387
 N897 N 1.09811 0.55615 0.40259
 C898 C 1.10323 0.56066 0.43069
 N899 N 1.12655 0.58484 0.43944
 N900 N 1.14375 0.60399 0.42063
 C901 C 0.34270 0.86388 -0.11429
 N902 N 0.33555 0.82989 -0.11050
 N903 N 0.32368 0.81063 -0.13183
 C904 C 0.31922 0.82441 -0.15794
 N905 N 0.32652 0.85836 -0.16175
 N906 N 0.33797 0.87772 -0.14034
 C907 C 0.35772 0.88474 -0.09116
 N908 N 0.35795 0.91974 -0.09253
 N909 N 0.37506 0.93839 -0.07325
 C910 C 0.39252 0.92278 -0.05181
 N911 N 0.39191 0.88782 -0.05030
 N912 N 0.37445 0.86919 -0.06933
 C913 C 0.84029 0.36739 0.38512
 N914 N 0.83190 0.33376 0.38927
 N915 N 0.82008 0.31439 0.36800
 C916 C 0.81689 0.32771 0.34161
 N917 N 0.82540 0.36131 0.33744
 N918 N 0.83682 0.38078 0.35879
 C919 C 0.85536 0.38826 0.40820
 N920 N 0.85728 0.42314 0.40609
 N921 N 0.87461 0.44162 0.42534
 C922 C 0.89058 0.42595 0.44749
 N923 N 0.88829 0.39112 0.44974
 N924 N 0.87060 0.37269 0.43071
 C925 C 1.13770 0.35051 0.11893
 N926 N 1.17134 0.34097 0.11440
 N927 N 1.19107 0.32919 0.13554
 C928 C 1.17817 0.32725 0.16218
 N929 N 1.14463 0.33709 0.16673
 N930 N 1.12480 0.34848 0.14554
 C931 C 1.11610 0.36446 0.09578
 N932 N 1.08094 0.36740 0.09861
 N933 N 1.06186 0.38325 0.07892
 C934 C 1.07717 0.39662 0.05557
 N935 N 1.11226 0.39333 0.05263
 N936 N 1.13129 0.37713 0.07213
 C937 C 0.63477 0.84891 0.62053
 N938 N 0.66802 0.83852 0.61545
 N939 N 0.68826 0.82718 0.63642
 C940 C 0.67629 0.82651 0.66338
 N941 N 0.64314 0.83721 0.66846
 N942 N 0.62280 0.84821 0.64746
 C943 C 0.61260 0.86238 0.59758
 N944 N 0.57785 0.86724 0.60158
 N945 N 0.55846 0.88290 0.58201
 C946 C 0.57300 0.89406 0.55759
 N947 N 0.60765 0.88882 0.55348
 N948 N 0.62699 0.87285 0.57290
 C949 C 1.13075 0.65035 -0.12722
 N950 N 1.15898 0.66912 -0.11905
 N951 N 1.18131 0.68135 -0.13818
 C952 C 1.17648 0.67508 -0.16623
 N953 N 1.14848 0.65585 -0.17422
 N954 N 1.12621 0.64371 -0.15514
 C955 C 1.10591 0.63601 -0.10652
 N956 N 1.11063 0.63979 -0.07819
 N957 N 1.08967 0.62368 -0.05993
 C958 C 1.06294 0.60365 -0.06937
 N959 N 1.05801 0.60054 -0.09763
 N960 N 1.07878 0.61660 -0.11580
 C961 C 0.62906 1.14934 0.37336
 N962 N 0.65662 1.16897 0.38166
 N963 N 0.67886 1.18157 0.36265
 C964 C 0.67461 1.17470 0.33468
 N965 N 0.64715 1.15495 0.32649
 N966 N 0.62497 1.14241 0.34544
 C967 C 0.60459 1.13432 0.39393
 N968 N 0.57894 1.11307 0.38463
 N969 N 0.55864 1.09645 0.40279
 C970 C 0.56260 1.10081 0.43103
 N971 N 0.58779 1.12266 0.44049
 N972 N 0.60831 1.13929 0.42224
 C973 C 0.87119 0.65415 0.12363
 N974 N 0.87720 0.64837 0.15148
 N975 N 0.85526 0.66008 0.17102
 C976 C 0.82618 0.67788 0.16355
 N977 N 0.82004 0.68365 0.13565
 N978 N 0.84200 0.67180 0.11604
 C979 C 0.89544 0.63990 0.10240
 N980 N 0.88854 0.64153 0.07423
 N981 N 0.90887 0.62507 0.05568
 C982 C 0.93714 0.60687 0.06461
 N983 N 0.94425 0.60594 0.09266
 N984 N 0.92407 0.62233 0.11112
 C985 C 0.37127 1.15367 0.62367
 N986 N 0.37751 1.14815 0.65152
 N987 N 0.35544 1.15959 0.67106
 C988 C 0.32605 1.17684 0.66356
 N989 N 0.31968 1.18235 0.63566
 N990 N 0.34175 1.17075 0.61606
 C991 C 0.39549 1.13965 0.60243
 N992 N 0.38794 1.14052 0.57436
 N993 N 0.40815 1.12400 0.55580
 C994 C 0.43695 1.10657 0.56459
 N995 N 0.44475 1.10642 0.59254
 N996 N 0.42466 1.12286 0.61103
 C997 C 0.86217 0.34504 -0.11828
 N998 N 0.82838 0.33573 -0.11407
 N999 N 0.80912 0.32318 -0.13525
 C1000 C 0.82264 0.32019 -0.16163
 N1001 N 0.85633 0.32973 -0.16585
 N1002 N 0.87571 0.34186 -0.14461
 C1003 C 0.88323 0.36018 -0.09520
 N1004 N 0.91853 0.36236 -0.09731
 N1005 N 0.93722 0.37926 -0.07790
 C1006 C 0.92136 0.39457 -0.05556
 N1007 N 0.88610 0.39209 -0.05335
 N1008 N 0.86746 0.37482 -0.07253
 C1009 C 0.36020 0.84495 0.38200
 N1010 N 0.32623 0.83619 0.38603
 N1011 N 0.30694 0.82399 0.36474
 C1012 C 0.32065 0.82085 0.33844
 N1013 N 0.35452 0.82985 0.33441
 N1014 N 0.37391 0.84162 0.35575
 C1015 C 0.38129 0.85972 0.40517
 N1016 N 0.41662 0.86143 0.40317
 N1017 N 0.43541 0.87815 0.42261
 C1018 C 0.41961 0.89371 0.44485
 N1019 N 0.38432 0.89167 0.44697
 N1020 N 0.36557 0.87460 0.42775
 C1021 C 1.13381 1.12176 0.35850
 N1022 N 1.16034 1.14127 0.36884
 N1023 N 1.17604 1.16447 0.35266
 C1024 C 1.16563 1.16895 0.32558
 N1025 N 1.13889 1.14963 0.31529
 N1026 N 1.12303 1.12656 0.33155
 C1027 C 1.11724 1.09630 0.37653
 N1028 N 1.08676 1.08081 0.36907
 N1029 N 1.07061 1.05976 0.38702
 C1030 C 1.08477 1.05337 0.41277
 N1031 N 1.11567 1.06818 0.41972
 N1032 N 1.13164 1.08920 0.40194
 C1033 C 0.60831 0.64051 -0.14372
 N1034 N 0.62738 0.66705 -0.13305
 N1035 N 0.65114 0.68294 -0.14879
 C1036 C 0.65661 0.67278 -0.17579
 N1037 N 0.63748 0.64628 -0.18648
 N1038 N 0.61393 0.63021 -0.17066
 C1039 C 0.58343 0.62237 -0.12576
 N1040 N 0.57039 0.59103 -0.13319
 N1041 N 0.55110 0.57296 -0.11508
 C1042 C 0.54399 0.58592 -0.08909
 N1043 N 0.55614 0.61770 -0.08219
 N1044 N 0.57545 0.63560 -0.10015
 C1045 C 0.89036 1.13818 0.64272
 N1046 N 0.88391 1.12717 0.66927
 N1047 N 0.86000 1.14297 0.68490
 C1048 C 0.84141 1.16985 0.67435
 N1049 N 0.84769 1.18071 0.64771
 N1050 N 0.87178 1.16506 0.63214
 C1051 C 0.91539 1.12030 0.62497
 N1052 N 0.92332 1.13356 0.59944
 N1053 N 0.94265 1.11569 0.58148
 C1054 C 0.95481 1.08396 0.58836
 N1055 N 0.94785 1.07099 0.61430
 N1056 N 0.92848 1.08901 0.63241
 C1057 C 0.36223 0.61546 0.13967
 N1058 N 0.37348 0.62096 0.16643
 N1059 N 0.35826 0.64477 0.18244
 C1060 C 0.33172 0.66428 0.17212
 N1061 N 0.32077 0.65909 0.14522
 N1062 N 0.33584 0.63511 0.12926
 C1063 C 0.37877 0.58946 0.12189
 N1064 N 0.36474 0.58180 0.09640
 N1065 N 0.38123 0.56072 0.07883
 C1066 C 0.41228 0.54640 0.08609
 N1067 N 0.42594 0.55328 0.11195
 N1068 N 0.40930 0.57433 0.12965
 C1069 C 1.12336 0.85827 0.64009
 N1070 N 1.14787 0.83638 0.62979
 N1071 N 1.16992 0.82044 0.64711
 C1072 C 1.16805 0.82577 0.67537
 N1073 N 1.14352 0.84782 0.68555
 N1074 N 1.12167 0.86394 0.66822
 C1075 C 1.09974 0.87592 0.62093
 N1076 N 1.08024 0.90314 0.62971
 N1077 N 1.06054 0.92055 0.61142
 C1078 C 1.05954 0.91090 0.58391
 N1079 N 1.07850 0.88328 0.57541
 N1080 N 1.09827 0.86609 0.59357
 C1081 C 0.64382 0.38756 0.14068
 N1082 N 0.67079 0.36838 0.13073
 N1083 N 0.68539 0.34409 0.14669
 C1084 C 0.67331 0.33806 0.17308
 N1085 N 0.64625 0.35716 0.18293
 N1086 N 0.63155 0.38130 0.16695
 C1087 C 0.62717 0.41336 0.12277
 N1088 N 0.59654 0.42829 0.13042
 N1089 N 0.57939 0.44867 0.11250
 C1090 C 0.59259 0.45505 0.08650
 N1091 N 0.62379 0.44103 0.07935
 N1092 N 0.64082 0.42064 0.09716
 C1093 C 0.85940 0.87979 0.36264
 N1094 N 0.83212 0.86111 0.37258
 N1095 N 0.81670 0.83755 0.35637
 C1096 C 0.82836 0.83186 0.32981
 N1097 N 0.85583 0.85035 0.32005
 N1098 N 0.87129 0.87377 0.33626
 C1099 C 0.87650 0.90508 0.38049
 N1100 N 0.90655 0.92053 0.37218
 N1101 N 0.92400 0.94101 0.38982
 C1102 C 0.91165 0.94679 0.41618
 N1103 N 0.88107 0.93215 0.42405
 N1104 N 0.86372 0.91170 0.40650
 C1105 C 0.38761 0.35385 -0.13929
 N1106 N 0.36695 0.32837 -0.12896
 N1107 N 0.34241 0.31399 -0.14508
 C1108 C 0.33769 0.32484 -0.17199
 N1109 N 0.35831 0.35035 -0.18221
 N1110 N 0.38266 0.36482 -0.16609
 C1111 C 0.41340 0.37062 -0.12132
 N1112 N 0.42909 0.40032 -0.12961
 N1113 N 0.44943 0.41783 -0.11182
 C1114 C 0.45498 0.40591 -0.08530
 N1115 N 0.44022 0.37562 -0.07746
 N1116 N 0.41982 0.35824 -0.09514
 C1117 C 1.12214 0.34299 -0.12634
 N1118 N 1.11742 0.34892 -0.15431
 N1119 N 1.14005 0.33702 -0.17319
 C1120 C 1.16857 0.31890 -0.16493
 N1121 N 1.17341 0.31284 -0.13692
 N1122 N 1.15069 0.32484 -0.11794
 C1123 C 1.09765 0.35831 -0.10592
 N1124 N 1.10206 0.35485 -0.07755
 N1125 N 1.08192 0.37241 -0.05957
 C1126 C 1.05651 0.39378 -0.06934
 N1127 N 1.05178 0.39654 -0.09761
 N1128 N 1.07166 0.37895 -0.11551
 C1129 C 0.62022 0.84079 0.37471
 N1130 N 0.61505 0.84659 0.34677
 N1131 N 0.63756 0.83488 0.32768
 C1132 C 0.66638 0.81704 0.33571
 N1133 N 0.67162 0.81109 0.36370
 N1134 N 0.64905 0.82291 0.38287
 C1135 C 0.59591 0.85595 0.39544
 N1136 N 0.60125 0.85307 0.42375
 N1137 N 0.58131 0.87053 0.44196
 C1138 C 0.55510 0.89117 0.43250
 N1139 N 0.54947 0.89335 0.40428
 N1140 N 0.56919 0.87588 0.38616
 C1141 C 0.86064 0.65556 -0.11678
 N1142 N 0.82602 0.66189 -0.11359
 N1143 N 0.80708 0.67421 -0.13496
 C1144 C 0.82183 0.67995 -0.16056
 N1145 N 0.85642 0.67345 -0.16380
 N1146 N 0.87547 0.66153 -0.14232
 C1147 C 0.88108 0.64018 -0.09359
 N1148 N 0.91654 0.64113 -0.09366
 N1149 N 0.93492 0.62400 -0.07425
 C1150 C 0.91853 0.60526 -0.05405
 N1151 N 0.88311 0.60470 -0.05383
 N1152 N 0.86474 0.62220 -0.07295
 C1153 C 0.36230 1.15540 0.38241
 N1154 N 0.32797 1.16301 0.38581
 N1155 N 0.30924 1.17583 0.36451
 C1156 C 0.32386 1.18086 0.33876
 N1157 N 0.35816 1.17306 0.33529
 N1158 N 0.37702 1.16065 0.35671
 C1159 C 0.38249 1.13960 0.40563
 N1160 N 0.41797 1.13956 0.40542
 N1161 N 0.43599 1.12230 0.42500
 C1162 C 0.41924 1.10444 0.44553
 N1163 N 0.38380 1.10480 0.44585
 N1164 N 0.36580 1.12243 0.42656
 C1165 C 1.13682 0.65769 0.11315
 N1166 N 1.12174 0.66289 0.13873
 N1167 N 1.14047 0.67457 0.16052
 C1168 C 1.17498 0.68165 0.15753
 N1169 N 1.18997 0.67673 0.13189
 N1170 N 1.17135 0.66462 0.11022
 C1171 C 1.11680 0.64230 0.08967
 N1172 N 1.13353 0.62444 0.06911
 N1173 N 1.11553 0.60673 0.04983
 C1174 C 1.08010 0.60698 0.04981
 N1175 N 1.06334 0.62563 0.06991
 N1176 N 1.08134 0.64296 0.08949
 C1177 C 0.63847 1.15492 0.61377
 N1178 N 0.62343 1.16111 0.63921
 N1179 N 0.64231 1.17304 0.66083
 C1180 C 0.67697 1.17943 0.65784
 N1181 N 0.69195 1.17352 0.63232
 N1182 N 0.67316 1.16116 0.61082
 C1183 C 0.61808 1.13941 0.59045
 N1184 N 0.63438 1.12092 0.57002
 N1185 N 0.61596 1.10331 0.55092
 C1186 C 0.58052 1.10427 0.55090
 N1187 N 0.56421 1.12348 0.57091
 N1188 N 0.58262 1.14072 0.59030
 C1189 C 0.87924 0.34646 0.12872
 N1190 N 0.85147 0.32707 0.12050
 N1191 N 0.82905 0.31491 0.13956
 C1192 C 0.83339 0.32192 0.16750
 N1193 N 0.86118 0.34125 0.17563
 N1194 N 0.88353 0.35339 0.15662
 C1195 C 0.90316 0.36195 0.10797
 N1196 N 0.92772 0.38462 0.11694
 N1197 N 0.94692 0.40204 0.09850
 C1198 C 0.94292 0.39711 0.07032
 N1199 N 0.91896 0.37373 0.06122
 N1200 N 0.89949 0.35636 0.07975
 C1201 C 0.37511 0.84594 0.62990
 N1202 N 0.34681 0.82714 0.62195
 N1203 N 0.32507 0.81436 0.64127
 C1204 C 0.33066 0.81996 0.66932
 N1205 N 0.35896 0.83885 0.67713
 N1206 N 0.38059 0.85166 0.65785
 C1207 C 0.39857 0.86185 0.60892
 N1208 N 0.42333 0.88442 0.61774
 N1209 N 0.44247 0.90177 0.59919
 C1210 C 0.43827 0.89685 0.57102
 N1211 N 0.41403 0.87367 0.56205
 N1212 N 0.39460 0.85639 0.58069
 C1213 C 0.34475 1.12992 -0.12300
 N1214 N 0.32802 1.15951 -0.11569
 N1215 N 0.31664 1.18127 -0.13551
 C1216 C 0.32204 1.17454 -0.16334
 N1217 N 0.33895 1.14508 -0.17055
 N1218 N 0.35015 1.12330 -0.15080
 C1219 C 0.35850 1.10593 -0.10152
 N1220 N 0.37444 1.07642 -0.10984
 N1221 N 0.39067 1.05638 -0.09119
 C1222 C 0.39115 1.06458 -0.06335
 N1223 N 0.37461 1.09379 -0.05484
 N1224 N 0.35828 1.11394 -0.07355
 C1225 C 0.84509 0.63208 0.37806
 N1226 N 0.82942 0.66236 0.38497
 N1227 N 0.81801 0.68369 0.36486
 C1228 C 0.82235 0.67583 0.33710
 N1229 N 0.83825 0.64569 0.33028
 N1230 N 0.84946 0.62432 0.35033
 C1231 C 0.85870 0.60850 0.39991
 N1232 N 0.87264 0.57776 0.39219
 N1233 N 0.88866 0.55786 0.41107
 C1234 C 0.89094 0.56749 0.43855
 N1235 N 0.87647 0.59800 0.44644
 N1236 N 0.86031 0.61797 0.42753
 C1237 C 0.65456 1.13923 0.11881
 N1238 N 0.65576 1.12742 0.14575
 N1239 N 0.66739 1.14746 0.16663
 C1240 C 0.67836 1.18014 0.16146
 N1241 N 0.67730 1.19197 0.13448
 N1242 N 0.66527 1.17202 0.11360
 C1243 C 0.64013 1.11727 0.09609
 N1244 N 0.62824 1.13140 0.07169
 N1245 N 0.61136 1.11214 0.05270
 C1246 C 0.60658 1.07782 0.05694
 N1247 N 0.61912 1.06359 0.08108
 N1248 N 0.63567 1.08289 0.10022
 C1249 C 1.15565 0.63582 0.61993
 N1250 N 1.15513 0.62498 0.64716
 N1251 N 1.16681 0.64522 0.66789
 C1252 C 1.17950 0.67717 0.66228
 N1253 N 1.18012 0.68804 0.63502
 N1254 N 1.16810 0.66789 0.61428
 C1255 C 1.14126 0.61365 0.59734
 N1256 N 1.13244 0.62700 0.57181
 N1257 N 1.11558 0.60783 0.55273
 C1258 C 1.10774 0.57431 0.55809
 N1259 N 1.11717 0.56084 0.58341
 N1260 N 1.13375 0.58004 0.60258
 C1261 C 0.64915 0.86650 -0.12099
 N1262 N 0.64721 0.87625 -0.14846
 N1263 N 0.65815 0.85531 -0.16894
 C1264 C 0.67136 0.82370 -0.16279
 N1265 N 0.67324 0.81390 -0.13529
 N1266 N 0.66204 0.83476 -0.11481
 C1267 C 0.63606 0.88950 -0.09856
 N1268 N 0.63061 0.87753 -0.07202
 N1269 N 0.61509 0.89729 -0.05269
 C1270 C 0.60528 0.93006 -0.05892
 N1271 N 0.61135 0.94218 -0.08530
 N1272 N 0.62664 0.92240 -0.10468
 C1273 C 1.14881 0.36772 0.37725
 N1274 N 1.14531 0.37612 0.34958
 N1275 N 1.15702 0.35513 0.32944
 C1276 C 1.17255 0.32475 0.33612
 N1277 N 1.17598 0.31624 0.36382
 N1278 N 1.16410 0.33720 0.38400
 C1279 C 1.13501 0.39090 0.39928
 N1280 N 1.13316 0.38078 0.42668
 N1281 N 1.11733 0.40054 0.44587
 C1282 C 1.10349 0.43150 0.43851
 N1283 N 1.10585 0.44176 0.41122
 N1284 N 1.12152 0.42202 0.39204
 C1285 C 0.35113 0.86830 0.12559
 N1286 N 0.33401 0.83918 0.11763
 N1287 N 0.32253 0.81694 0.13696
 C1288 C 0.32818 0.82274 0.16493
 N1289 N 0.34555 0.85170 0.17278
 N1290 N 0.35692 0.87393 0.15350
 C1291 C 0.36456 0.89296 0.10463
 N1292 N 0.38168 0.92157 0.11353
 N1293 N 0.39726 0.94230 0.09514
 C1294 C 0.39584 0.93574 0.06704
 N1295 N 0.37813 0.90745 0.05796
 N1296 N 0.36248 0.88658 0.07643
 C1297 C 0.85157 0.36736 0.62521
 N1298 N 0.83523 0.33773 0.61741
 N1299 N 0.82404 0.31552 0.63686
 C1300 C 0.82923 0.32181 0.66481
 N1301 N 0.84584 0.35128 0.67252
 N1302 N 0.85690 0.37351 0.65311
 C1303 C 0.86461 0.39201 0.60406
 N1304 N 0.88023 0.42158 0.61270
 N1305 N 0.89549 0.44240 0.59418
 C1306 C 0.89524 0.43493 0.56620
 N1307 N 0.87906 0.40564 0.55741
 N1308 N 0.86370 0.38472 0.57598
 C1309 C 1.14680 1.11234 0.63861
 N1310 N 1.13522 1.11744 0.66524
 N1311 N 1.14924 1.14195 0.68125
 C1312 C 1.17488 1.16257 0.67108
 N1313 N 1.18634 1.15769 0.64434
 N1314 N 1.17239 1.13300 0.62833
 C1315 C 1.13046 1.08638 0.62071
 N1316 N 1.14306 1.08038 0.59452
 N1317 N 1.12588 1.05988 0.57684
 C1318 C 1.09561 1.04457 0.58471
 N1319 N 1.08353 1.04968 0.61125
 N1320 N 1.10082 1.07016 0.62903
 C1321 C 0.62059 0.63988 0.13678
 N1322 N 0.62659 0.62845 0.16330
 N1323 N 0.64995 0.64416 0.17956
 C1324 C 0.66841 0.67145 0.16975
 N1325 N 0.66278 0.68263 0.14306
 N1326 N 0.63927 0.66697 0.12679
 C1327 C 0.59523 0.62262 0.11893
 N1328 N 0.58812 0.63530 0.09299
 N1329 N 0.56746 0.61800 0.07551
 C1330 C 0.55310 0.58756 0.08338
 N1331 N 0.55940 0.57527 0.10966
 N1332 N 0.58007 0.59268 0.12724
 C1333 C 1.11348 0.85833 0.35709
 N1334 N 1.12035 0.87022 0.33083
 N1335 N 1.14424 0.85475 0.31491
 C1336 C 1.16247 0.82727 0.32484
 N1337 N 1.15584 0.81559 0.35122
 N1338 N 1.13179 0.83093 0.36708
 C1339 C 1.08792 0.87553 0.37502
 N1340 N 1.07960 0.86158 0.40027
 N1341 N 1.05946 0.87870 0.41821
 C1342 C 1.04675 0.91032 0.41160
 N1343 N 1.05417 0.92394 0.38594
 N1344 N 1.07430 0.90669 0.36787
 C1345 C 0.64032 0.38073 -0.14186
 N1346 N 0.63103 0.37810 -0.16938
 N1347 N 0.64676 0.35529 -0.18601
 C1348 C 0.67185 0.33408 -0.17560
 N1349 N 0.68092 0.33652 -0.14802
 N1350 N 0.66538 0.35950 -0.13144
 C1351 C 0.62299 0.40512 -0.12327
 N1352 N 0.63556 0.41000 -0.09687
 N1353 N 0.61843 0.42973 -0.07872
 C1354 C 0.58816 0.44532 -0.08627
 N1355 N 0.57585 0.44112 -0.11293
 N1356 N 0.59315 0.42140 -0.13122
 C1357 C 0.88098 1.13870 0.36248
 N1358 N 0.86113 1.16485 0.37280
 N1359 N 0.83776 1.18058 0.35644
 C1360 C 0.83342 1.17054 0.32924
 N1361 N 0.85310 1.14423 0.31904
 N1362 N 0.87631 1.12840 0.33542
 C1363 C 0.90647 1.12150 0.38054
 N1364 N 0.92255 1.09203 0.37207
 N1365 N 0.94358 1.07499 0.38963
 C1366 C 0.94949 1.08718 0.41607
 N1367 N 0.93411 1.11711 0.42413
 N1368 N 0.91304 1.13401 0.40669
 C1369 C 0.35750 0.61077 -0.14029
 N1370 N 0.33088 0.63003 -0.12985
 N1371 N 0.31599 0.65441 -0.14551
 C1372 C 0.32747 0.66033 -0.17207
 N1373 N 0.35412 0.64108 -0.18243
 N1374 N 0.36909 0.61688 -0.16674
 C1375 C 0.37479 0.58540 -0.12259
 N1376 N 0.40559 0.57102 -0.13049
 N1377 N 0.42346 0.55122 -0.11262
 C1378 C 0.41080 0.54505 -0.08642
 N1379 N 0.37947 0.55850 -0.07902
 N1380 N 0.36173 0.57830 -0.09678
 C1381 C 0.86151 0.88640 0.64408
 N1382 N 0.83506 0.86685 0.63360
 N1383 N 0.81883 0.84398 0.64982
 C1384 C 0.82850 0.83992 0.67714
 N1385 N 0.85494 0.85950 0.68765
 N1386 N 0.87136 0.88219 0.67135
 C1387 C 0.87968 0.91060 0.62565
 N1388 N 0.91086 0.92473 0.63311
 N1389 N 0.92871 0.94390 0.61478
 C1390 C 0.91569 0.94977 0.58854
 N1391 N 0.88412 0.93639 0.58155
 N1392 N 0.86644 0.91721 0.59973
 C1393 C 0.38422 0.36277 0.14217
 N1394 N 0.36484 0.33622 0.13193
 N1395 N 0.34103 0.32098 0.14798
 C1396 C 0.33578 0.33189 0.17480
 N1397 N 0.35506 0.35855 0.18500
 N1398 N 0.37871 0.37395 0.16887
 C1399 C 0.40971 0.37950 0.12410
 N1400 N 0.42440 0.41016 0.13134
 N1401 N 0.44482 0.42683 0.11318
 C1402 C 0.45135 0.41307 0.08738
 N1403 N 0.43747 0.38196 0.08065
 N1404 N 0.41708 0.36545 0.09867
   
