data_POSCAR
  _audit_creation_date              2014-09-24
  _audit_creation_method            'ToBaCCo'
  _symmetry_space_group_name_H-M    'P1'
  _symmetry_Int_Tables_number       1
  _symmetry_cell_setting            triclinic
  loop_
  _symmetry_equiv_pos_as_xyz
 x,y,z
_cell_length_a 57.1875
_cell_length_b 57.1484
_cell_length_c 57.2981
_cell_angle_alpha 89.421200
_cell_angle_beta 89.169300
_cell_angle_gamma 89.278900
loop_
  _atom_site_label
  _atom_site_type_symbol
  _atom_site_fract_x
  _atom_site_fract_y
  _atom_site_fract_z
C1 C 0.73508 0.65342 0.97187
 H2 H 0.75128 0.65279 0.96189
 C3 C 0.71549 0.66498 0.96274
 H4 H 0.71679 0.67320 0.94567
 C5 C 0.71330 0.64199 1.00548
 H6 H 0.71223 0.63253 1.02185
 C7 C 0.69337 0.65336 0.99707
 H8 H 0.67738 0.65293 1.00741
 N9 N 0.73358 0.64200 0.99277
 C10 C 0.80360 0.62902 1.01970
 H11 H 0.80216 0.61041 1.02298
 C12 C 0.82392 0.64059 1.02568
 H13 H 0.83797 0.63077 1.03382
 C14 C 0.78656 0.66440 1.00576
 H15 H 0.77187 0.67357 0.99810
 C16 C 0.80661 0.67675 1.01159
 H17 H 0.80728 0.69539 1.00812
 Zn18 Zn 0.75906 0.62298 1.00255
 N19 N 0.78556 0.64092 1.00970
 C20 C 0.78859 0.60143 0.96885
 N21 N 0.76647 0.60220 0.97789
 C22 C 0.74902 0.58964 0.96834
 C23 C 0.75352 0.57566 0.94885
 C24 C 0.79388 0.58758 0.94956
 C25 C 0.74826 0.61937 1.04972
 C26 C 0.74059 0.60914 1.07058
 C27 C 0.73833 0.57216 1.05083
 C28 C 0.74616 0.58321 1.03034
 N29 N 0.75038 0.60651 1.03004
 H30 H 0.80210 0.61200 0.97615
 H31 H 0.73149 0.59089 0.97560
 H32 H 0.73942 0.56593 0.94132
 H33 H 0.81147 0.58769 0.94231
 H34 H 0.75233 0.63781 1.04911
 H35 H 0.74017 0.62027 1.08569
 H36 H 0.73387 0.55394 1.04943
 H37 H 0.74820 0.57322 1.01451
 C38 C 0.82568 0.66476 1.02156
 C39 C 0.69414 0.66465 0.97521
 C40 C 0.73471 0.58511 1.07164
 C41 C 0.77621 0.57461 0.93918
 C42 C 0.73330 0.34403 0.52304
 H43 H 0.74981 0.34335 0.53201
 C44 C 0.71417 0.33157 0.53192
 H45 H 0.71612 0.32134 0.54780
 C46 C 0.71034 0.35935 0.49225
 H47 H 0.70862 0.37059 0.47712
 C48 C 0.69085 0.34721 0.50047
 H49 H 0.67457 0.34887 0.49115
 N50 N 0.73104 0.35767 0.50359
 C51 C 0.80021 0.37122 0.47340
 H52 H 0.79860 0.39002 0.47144
 C53 C 0.82046 0.35974 0.46563
 H54 H 0.83428 0.36983 0.45744
 C55 C 0.78373 0.33531 0.48595
 H56 H 0.76932 0.32590 0.49381
 C57 C 0.80373 0.32307 0.47835
 H58 H 0.80463 0.30426 0.48070
 Zn59 Zn 0.75622 0.37689 0.49372
 N60 N 0.78250 0.35901 0.48360
 C61 C 0.78687 0.39512 0.52705
 N62 N 0.76450 0.39566 0.51932
 C63 C 0.74759 0.40849 0.53043
 C64 C 0.75302 0.42173 0.54998
 C65 C 0.79308 0.40817 0.54637
 C66 C 0.74333 0.38406 0.44773
 C67 C 0.73456 0.39592 0.42832
 C68 C 0.73380 0.43160 0.45061
 C69 C 0.74264 0.41900 0.46967
 N70 N 0.74664 0.39555 0.46804
 H71 H 0.79995 0.38431 0.51851
 H72 H 0.72983 0.40828 0.52419
 H73 H 0.73941 0.43195 0.55856
 H74 H 0.81092 0.40722 0.55241
 H75 H 0.74694 0.36546 0.44686
 H76 H 0.73176 0.38634 0.41241
 H77 H 0.72987 0.45007 0.45244
 H78 H 0.74572 0.42788 0.48587
 C79 C 0.82252 0.33535 0.46820
 C80 C 0.69248 0.33337 0.52076
 C81 C 0.72920 0.41991 0.42974
 C82 C 0.77608 0.42171 0.55811
 C83 C 0.23498 -0.15684 0.02082
 H84 H 0.25137 -0.15730 0.03000
 C85 C 0.21571 -0.16899 0.02982
 H86 H 0.21744 -0.17877 0.04599
 C87 C 0.21242 -0.14229 -0.01063
 H88 H 0.21094 -0.13146 -0.02609
 C89 C 0.19281 -0.15416 -0.00231
 H90 H 0.17664 -0.15271 -0.01184
 N91 N 0.23297 -0.14369 0.00101
 C92 C 0.30242 -0.13077 -0.02870
 H93 H 0.30095 -0.11198 -0.03084
 C94 C 0.32263 -0.14247 -0.03627
 H95 H 0.33656 -0.13254 -0.04447
 C96 C 0.28561 -0.16645 -0.01595
 H97 H 0.27108 -0.17570 -0.00810
 C98 C 0.30556 -0.17891 -0.02334
 H99 H 0.30630 -0.19771 -0.02085
 Zn100 Zn 0.25827 -0.12467 -0.00885
 N101 N 0.28456 -0.14277 -0.01851
 C102 C 0.28865 -0.10606 0.02453
 N103 N 0.26635 -0.10564 0.01661
 C104 C 0.24932 -0.09274 0.02747
 C105 C 0.25456 -0.07931 0.04693
 C106 C 0.29466 -0.09283 0.04379
 C107 C 0.24621 -0.11780 -0.05510
 C108 C 0.23798 -0.10608 -0.07483
 C109 C 0.23664 -0.07033 -0.05277
 C110 C 0.24501 -0.08285 -0.03346
 N111 N 0.24901 -0.10626 -0.03480
 H112 H 0.30182 -0.11692 0.01620
 H113 H 0.23162 -0.09305 0.02108
 H114 H 0.24085 -0.06904 0.05531
 H115 H 0.31245 -0.09370 0.05000
 H116 H 0.25014 -0.13635 -0.05585
 H117 H 0.23702 -0.11624 -0.09055
 H118 H 0.23241 -0.05211 -0.05001
 H119 H 0.24765 -0.07390 -0.01721
 C120 C 0.32448 -0.16685 -0.03351
 C121 C 0.19415 -0.16743 0.01839
 C122 C 0.23223 -0.08187 -0.07407
 C123 C 0.27753 -0.07922 0.05527
 C124 C 0.23290 0.15272 0.46945
 H125 H 0.24903 0.15192 0.45937
 C126 C 0.21339 0.16455 0.46048
 H127 H 0.21467 0.17281 0.44343
 C128 C 0.21120 0.14145 0.50316
 H129 H 0.21011 0.13195 0.51950
 C130 C 0.19135 0.15309 0.49492
 H131 H 0.17542 0.15282 0.50536
 N132 N 0.23140 0.14125 0.49033
 C133 C 0.30133 0.12727 0.51706
 H134 H 0.29956 0.10871 0.52046
 C135 C 0.32189 0.13850 0.52288
 H136 H 0.33579 0.12848 0.53104
 C137 C 0.28490 0.16286 0.50291
 H138 H 0.27036 0.17224 0.49521
 C139 C 0.30521 0.17486 0.50857
 H140 H 0.30622 0.19346 0.50496
 Zn141 Zn 0.25670 0.12188 0.49995
 N142 N 0.28348 0.13943 0.50702
 C143 C 0.28587 0.09989 0.46627
 N144 N 0.26374 0.10106 0.47524
 C145 C 0.24608 0.08885 0.46562
 C146 C 0.25038 0.07483 0.44611
 C147 C 0.29096 0.08597 0.44698
 C148 C 0.24597 0.11837 0.54718
 C149 C 0.23804 0.10817 0.56796
 C150 C 0.23512 0.07127 0.54805
 C151 C 0.24319 0.08220 0.52758
 N152 N 0.24790 0.10547 0.52743
 H153 H 0.29956 0.11017 0.47363
 H154 H 0.22855 0.09041 0.47283
 H155 H 0.23611 0.06539 0.43851
 H156 H 0.30858 0.08576 0.43979
 H157 H 0.25010 0.13679 0.54658
 H158 H 0.23639 0.11884 0.58342
 H159 H 0.23058 0.05294 0.54767
 H160 H 0.24511 0.07221 0.51175
 C161 C 0.32410 0.16259 0.51856
 C162 C 0.19211 0.16443 0.47309
 C163 C 0.23203 0.08442 0.56849
 C164 C 0.27308 0.07336 0.43652
 C165 C 0.15934 0.47381 0.23243
 H166 H 0.16031 0.46425 0.24879
 C167 C 0.17111 0.46530 0.21264
 H168 H 0.18109 0.44913 0.21395
 C169 C 0.14371 0.50555 0.21052
 H170 H 0.13253 0.52087 0.20950
 C171 C 0.15521 0.49773 0.19038
 H172 H 0.15314 0.50753 0.17425
 N173 N 0.14578 0.49347 0.23098
 C174 C 0.13271 0.51959 0.30130
 H175 H 0.11387 0.52119 0.30043
 C176 C 0.14415 0.52615 0.32146
 H177 H 0.13398 0.53310 0.33595
 C178 C 0.16874 0.50901 0.28310
 H179 H 0.17818 0.50234 0.26806
 C180 C 0.18096 0.51548 0.30298
 H181 H 0.19981 0.51355 0.30316
 Zn182 Zn 0.12691 0.50200 0.25706
 N183 N 0.14501 0.51091 0.28279
 C184 C 0.11149 0.46576 0.28699
 N185 N 0.10885 0.47555 0.26545
 C186 C 0.09508 0.46553 0.24926
 C187 C 0.08327 0.44479 0.25454
 C188 C 0.10013 0.44508 0.29294
 C189 C 0.11918 0.54857 0.24553
 C190 C 0.10693 0.56857 0.23842
 C191 C 0.07130 0.54627 0.23952
 C192 C 0.08427 0.52664 0.24672
 N193 N 0.10784 0.52805 0.24907
 H194 H 0.12292 0.47355 0.29947
 H195 H 0.09370 0.47336 0.23206
 H196 H 0.07276 0.43674 0.24133
 H197 H 0.10256 0.43756 0.31017
 H198 H 0.13792 0.54920 0.24769
 H199 H 0.11647 0.58449 0.23488
 H200 H 0.05259 0.54483 0.23741
 H201 H 0.07552 0.51029 0.25008
 C202 C 0.16858 0.52396 0.32258
 C203 C 0.16876 0.47709 0.19114
 C204 C 0.08271 0.56751 0.23502
 C205 C 0.08605 0.43416 0.27654
 C206 C -0.15626 0.02062 0.23039
 H207 H -0.15806 0.02897 0.24719
 C208 C -0.16881 0.02927 0.21134
 H209 H -0.18084 0.04369 0.21439
 C210 C -0.13854 -0.00860 0.20693
 H211 H -0.12611 -0.02285 0.20500
 C212 C -0.15074 -0.00062 0.18744
 H213 H -0.14684 -0.00901 0.17099
 N214 N -0.14140 0.00207 0.22786
 C215 C -0.12796 -0.02709 0.29713
 H216 H -0.10905 -0.02752 0.29610
 C217 C -0.13941 -0.03566 0.31701
 H218 H -0.12913 -0.04244 0.33135
 C219 C -0.16415 -0.01728 0.27967
 H220 H -0.17368 -0.01032 0.26496
 C221 C -0.17636 -0.02567 0.29932
 H222 H -0.19529 -0.02516 0.29950
 Zn223 Zn -0.12239 -0.00698 0.25330
 N224 N -0.14036 -0.01794 0.27907
 C225 C -0.10825 0.02832 0.28396
 N226 N -0.10535 0.01965 0.26208
 C227 C -0.09166 0.03068 0.24589
 C228 C -0.07998 0.05117 0.25158
 C229 C -0.09701 0.04873 0.29034
 C230 C -0.11282 -0.05257 0.24008
 C231 C -0.09968 -0.07189 0.23272
 C232 C -0.06483 -0.04855 0.23465
 C233 C -0.07868 -0.02963 0.24211
 N234 N -0.10227 -0.03188 0.24425
 H235 H -0.11961 0.01970 0.29645
 H236 H -0.09007 0.02372 0.22844
 H237 H -0.06937 0.05991 0.23842
 H238 H -0.09946 0.05524 0.30791
 H239 H -0.13160 -0.05390 0.24210
 H240 H -0.10855 -0.08799 0.22883
 H241 H -0.04610 -0.04647 0.23283
 H242 H -0.07057 -0.01318 0.24599
 C243 C -0.16394 -0.03501 0.31833
 C244 C -0.16604 0.01891 0.18914
 C245 C -0.07537 -0.06998 0.22972
 C246 C -0.08277 0.06052 0.27403
 C247 C 0.34332 0.52214 0.73263
 H248 H 0.34276 0.53037 0.74955
 C249 C 0.33050 0.53175 0.71419
 H250 H 0.31976 0.54720 0.71716
 C251 C 0.35850 0.49235 0.70805
 H252 H 0.36997 0.47744 0.70542
 C253 C 0.34597 0.50131 0.68921
 H254 H 0.34798 0.49308 0.67235
 N255 N 0.35700 0.50279 0.72927
 C256 C 0.37102 0.47020 0.79696
 H257 H 0.38981 0.46836 0.79514
 C258 C 0.35970 0.46159 0.81690
 H259 H 0.36998 0.45337 0.83049
 C260 C 0.33500 0.48356 0.78144
 H261 H 0.32546 0.49191 0.76745
 C262 C 0.32293 0.47521 0.80118
 H263 H 0.30408 0.47714 0.80215
 Zn264 Zn 0.37636 0.49183 0.75376
 N265 N 0.35867 0.48112 0.77984
 C266 C 0.39525 0.52414 0.78518
 N267 N 0.39555 0.51689 0.76265
 C268 C 0.40850 0.52813 0.74598
 C269 C 0.42208 0.54733 0.75183
 C270 C 0.40863 0.54312 0.79179
 C271 C 0.38270 0.44621 0.73884
 C272 C 0.39434 0.42666 0.72983
 C273 C 0.43053 0.44800 0.73082
 C274 C 0.41814 0.46721 0.73985
 N275 N 0.39457 0.46611 0.74317
 H276 H 0.38436 0.51550 0.79807
 H277 H 0.40811 0.52226 0.72810
 H278 H 0.43238 0.55602 0.73839
 H279 H 0.40786 0.54880 0.80976
 H280 H 0.36401 0.44573 0.74199
 H281 H 0.38449 0.41106 0.72632
 H282 H 0.44916 0.44937 0.72756
 H283 H 0.42731 0.48307 0.74377
 C284 C 0.33532 0.46404 0.81924
 C285 C 0.33188 0.52139 0.69205
 C286 C 0.41851 0.42752 0.72532
 C287 C 0.42228 0.55499 0.77503
 C288 C 0.65764 0.97283 0.73162
 H289 H 0.65881 0.96308 0.74786
 C290 C 0.66953 0.96479 0.71170
 H291 H 0.67980 0.94879 0.71278
 C292 C 0.64140 1.00457 0.71014
 H293 H 0.62993 1.01969 0.70934
 C294 C 0.65301 0.99723 0.68989
 H295 H 0.65073 1.00719 0.67389
 N296 N 0.64371 0.99225 0.73044
 C297 C 0.63005 1.01713 0.80107
 H298 H 0.61118 1.01831 0.80016
 C299 C 0.64128 1.02382 0.82130
 H300 H 0.63050 1.03084 0.83528
 C301 C 0.66627 1.00785 0.78275
 H302 H 0.67587 1.00153 0.76766
 C303 C 0.67833 1.01452 0.80266
 H304 H 0.69715 1.01245 0.80245
 Zn305 Zn 0.62465 1.00007 0.75661
 N306 N 0.64254 1.00902 0.78247
 C307 C 0.61007 0.96309 0.78601
 N308 N 0.60710 0.97318 0.76465
 C309 C 0.59340 0.96315 0.74839
 C310 C 0.58201 0.94213 0.75342
 C311 C 0.59914 0.94212 0.79171
 C312 C 0.61624 1.04664 0.74582
 C313 C 0.60379 1.06656 0.73887
 C314 C 0.56849 1.04373 0.73923
 C315 C 0.58166 1.02419 0.74630
 N316 N 0.60518 1.02591 0.74893
 H317 H 0.62145 0.97089 0.79853
 H318 H 0.59177 0.97122 0.73132
 H319 H 0.57154 0.93409 0.74017
 H320 H 0.60183 0.93437 0.80880
 H321 H 0.63494 1.04750 0.74818
 H322 H 0.61313 1.08265 0.73564
 H323 H 0.54984 1.04206 0.73686
 H324 H 0.57313 1.00766 0.74931
 C325 C 0.66590 1.02250 0.82264
 C326 C 0.66692 0.97682 0.69035
 C327 C 0.57964 1.06520 0.73516
 C328 C 0.58514 0.93121 0.77524
 C329 C 0.02186 0.23429 -0.15384
 H330 H 0.03066 0.25093 -0.15477
 C331 C 0.03087 0.21513 -0.16618
 H332 H 0.04644 0.21728 -0.17692
 C333 C -0.00883 0.21117 -0.13824
 H334 H -0.02389 0.20943 -0.12682
 C335 C -0.00045 0.19162 -0.15027
 H336 H -0.00926 0.17509 -0.14793
 N337 N 0.00237 0.23199 -0.14017
 C338 C -0.02753 0.30154 -0.12784
 H339 H -0.02949 0.30035 -0.10906
 C340 C -0.03514 0.32160 -0.13965
 H341 H -0.04321 0.33571 -0.12981
 C342 C -0.01517 0.28417 -0.16339
 H343 H -0.00747 0.26948 -0.17255
 C344 C -0.02262 0.30396 -0.17595
 H345 H -0.02031 0.30442 -0.19474
 Zn346 Zn -0.00762 0.25748 -0.12143
 N347 N -0.01748 0.28348 -0.13973
 C348 C 0.02587 0.28836 -0.10369
 N349 N 0.01789 0.26605 -0.10272
 C350 C 0.02868 0.24937 -0.08945
 C351 C 0.04813 0.25498 -0.07619
 C352 C 0.04511 0.29474 -0.09064
 C353 C -0.05380 0.24491 -0.11416
 C354 C -0.07372 0.23744 -0.10210
 C355 C -0.05180 0.23788 -0.06643
 C356 C -0.03233 0.24552 -0.07928
 N357 N -0.03356 0.24841 -0.10277
 H358 H 0.01761 0.30124 -0.11484
 H359 H 0.02223 0.23165 -0.08931
 H360 H 0.05644 0.24155 -0.06561
 H361 H 0.05136 0.31253 -0.09193
 H362 H -0.05428 0.24739 -0.13290
 H363 H -0.08870 0.23361 -0.11258
 H364 H -0.04991 0.23661 -0.04773
 H365 H -0.01624 0.24908 -0.07042
 C366 C -0.03260 0.32310 -0.16402
 C367 C 0.01979 0.19336 -0.16431
 C368 C -0.07320 0.23329 -0.07765
 C369 C 0.05650 0.27798 -0.07664
 C370 C 0.46781 0.23577 0.15805
 H371 H 0.45916 0.25271 0.15765
 C372 C 0.45786 0.21728 0.17074
 H373 H 0.44172 0.22026 0.18042
 C374 C 0.49892 0.21110 0.14520
 H375 H 0.51447 0.20845 0.13462
 C376 C 0.48962 0.19221 0.15765
 H377 H 0.49826 0.17529 0.15645
 N378 N 0.48790 0.23234 0.14548
 C379 C 0.51872 0.30020 0.12939
 H380 H 0.52112 0.29800 0.11078
 C381 C 0.52657 0.32040 0.14002
 H382 H 0.53478 0.33382 0.12936
 C383 C 0.50483 0.28531 0.16570
 H384 H 0.49659 0.27144 0.17564
 C385 C 0.51243 0.30534 0.17709
 H386 H 0.51006 0.30666 0.19582
 Zn387 Zn 0.49877 0.25660 0.12546
 N388 N 0.50796 0.28324 0.14223
 C389 C 0.46601 0.28718 0.10410
 N390 N 0.47407 0.26471 0.10515
 C391 C 0.46360 0.24743 0.09308
 C392 C 0.44417 0.25250 0.07929
 C393 C 0.44680 0.29303 0.09043
 C394 C 0.54507 0.24219 0.12122
 C395 C 0.56536 0.23346 0.11054
 C396 C 0.54517 0.23337 0.07378
 C397 C 0.52520 0.24215 0.08521
 N398 N 0.52541 0.24593 0.10860
 H399 H 0.47407 0.30057 0.11428
 H400 H 0.47011 0.22963 0.09453
 H401 H 0.43594 0.23854 0.06990
 H402 H 0.44034 0.31092 0.09029
 H403 H 0.54481 0.24568 0.13975
 H404 H 0.58078 0.23050 0.12096
 H405 H 0.54453 0.22979 0.05528
 H406 H 0.50949 0.24559 0.07544
 C407 C 0.52356 0.32317 0.16419
 C408 C 0.46864 0.19504 0.17037
 C409 C 0.56550 0.22860 0.08657
 C410 C 0.43550 0.27556 0.07793
 C411 C 0.96732 0.73558 0.65802
 H412 H 0.95861 0.75249 0.65819
 C413 C 0.95782 0.71685 0.67069
 H414 H 0.94199 0.71960 0.68093
 C415 C 0.99812 0.71128 0.64382
 H416 H 1.01337 0.70889 0.63274
 C417 C 0.98926 0.69213 0.65621
 H418 H 0.99792 0.67526 0.65447
 N419 N 0.98704 0.73246 0.64482
 C420 C 1.01674 0.80094 0.62941
 H421 H 1.01866 0.79915 0.61070
 C422 C 1.02465 0.82102 0.64023
 H423 H 1.03241 0.83474 0.62963
 C424 C 1.00402 0.78515 0.66576
 H425 H 0.99622 0.77097 0.67563
 C426 C 1.01169 0.80503 0.67735
 H427 H 1.00982 0.80593 0.69615
 Zn428 Zn 0.99721 0.75722 0.62507
 N429 N 1.00654 0.78359 0.64217
 C430 C 0.96366 0.78791 0.60509
 N431 N 0.97198 0.76552 0.60549
 C432 C 0.96161 0.74845 0.59306
 C433 C 0.94211 0.75368 0.57944
 C434 C 0.94436 0.79392 0.59162
 C435 C 1.04355 0.74319 0.61925
 C436 C 1.06377 0.73556 0.60763
 C437 C 1.04269 0.73711 0.57138
 C438 C 1.02283 0.74479 0.58373
 N439 N 1.02354 0.74732 0.60729
 H440 H 0.97165 0.80112 0.61556
 H441 H 0.96836 0.73070 0.59398
 H442 H 0.93403 0.73990 0.56966
 H443 H 0.93774 0.81176 0.59193
 H444 H 1.04364 0.74556 0.63796
 H445 H 1.07932 0.73176 0.61760
 H446 H 1.04185 0.73511 0.55264
 H447 H 1.00689 0.74863 0.57448
 C448 C 1.02226 0.82325 0.66452
 C449 C 0.96867 0.69466 0.66962
 C450 C 1.06348 0.73226 0.58338
 C451 C 0.93325 0.77670 0.57864
 C452 C 0.51990 0.73516 0.34349
 H453 H 0.52840 0.75194 0.34215
 C454 C 0.52883 0.71606 0.33100
 H455 H 0.54398 0.71840 0.31971
 C456 C 0.49020 0.71161 0.36034
 H457 H 0.47560 0.70968 0.37233
 C458 C 0.49850 0.69211 0.34818
 H459 H 0.49008 0.67543 0.35098
 N460 N 0.50095 0.73261 0.35787
 C461 C 0.47109 0.80198 0.37110
 H462 H 0.46964 0.80065 0.38992
 C463 C 0.46312 0.82212 0.35967
 H464 H 0.45492 0.83556 0.37023
 C465 C 0.48226 0.78481 0.33520
 H466 H 0.48977 0.77020 0.32576
 C467 C 0.47441 0.80464 0.32295
 H468 H 0.47687 0.80488 0.30421
 Zn469 Zn 0.49134 0.75807 0.37684
 N470 N 0.48076 0.78400 0.35887
 C471 C 0.52524 0.78916 0.39349
 N472 N 0.51735 0.76682 0.39474
 C473 C 0.52844 0.75024 0.40788
 C474 C 0.54805 0.75602 0.42084
 C475 C 0.54464 0.79570 0.40622
 C476 C 0.44555 0.74460 0.38568
 C477 C 0.42615 0.73721 0.39864
 C478 C 0.44907 0.73949 0.43363
 C479 C 0.46807 0.74693 0.41997
 N480 N 0.46608 0.74892 0.39639
 H481 H 0.51672 0.80194 0.38243
 H482 H 0.52205 0.73251 0.40825
 H483 H 0.55654 0.74269 0.43140
 H484 H 0.55077 0.81351 0.40478
 H485 H 0.44443 0.74652 0.36692
 H486 H 0.41019 0.73319 0.38966
 H487 H 0.45095 0.73783 0.45235
 H488 H 0.48438 0.75094 0.42821
 C489 C 0.46480 0.82402 0.33510
 C490 C 0.51822 0.69410 0.33345
 C491 C 0.42781 0.73436 0.42293
 C492 C 0.55627 0.77907 0.42018
 C493 C 0.39666 -0.01655 0.27242
 H494 H 0.39610 -0.00001 0.28143
 C495 C 0.40951 -0.03538 0.28160
 H496 H 0.41899 -0.03331 0.29767
 C497 C 0.38402 -0.03994 0.24116
 H498 H 0.37355 -0.04191 0.22580
 C499 C 0.39663 -0.05917 0.24974
 H500 H 0.39599 -0.07577 0.24082
 N501 N 0.38420 -0.01915 0.25257
 C502 C 0.36966 0.05071 0.22429
 H503 H 0.35099 0.04919 0.22205
 C504 C 0.38092 0.07127 0.21757
 H505 H 0.37091 0.08565 0.21009
 C506 C 0.40553 0.03379 0.23671
 H507 H 0.41505 0.01908 0.24402
 C508 C 0.41750 0.05410 0.23020
 H509 H 0.43622 0.05502 0.23258
 Zn510 Zn 0.36453 0.00592 0.24278
 N511 N 0.38197 0.03261 0.23392
 C512 C 0.34460 0.03523 0.27735
 N513 N 0.34445 0.01331 0.26830
 C514 C 0.33175 -0.00407 0.27857
 C515 C 0.31869 0.00028 0.29894
 C516 C 0.33176 0.04032 0.29757
 C517 C 0.36011 -0.00642 0.19643
 C518 C 0.34918 -0.01359 0.17617
 C519 C 0.31218 -0.01316 0.19714
 C520 C 0.32384 -0.00594 0.21708
 N521 N 0.34744 -0.00309 0.21642
 H522 H 0.35525 0.04867 0.26940
 H523 H 0.33233 -0.02147 0.27130
 H524 H 0.30907 -0.01375 0.30735
 H525 H 0.33243 0.05769 0.30492
 H526 H 0.37881 -0.00379 0.19638
 H527 H 0.35949 -0.01657 0.16044
 H528 H 0.29346 -0.01578 0.19781
 H529 H 0.31407 -0.00284 0.23305
 C530 C 0.40502 0.07304 0.22067
 C531 C 0.40931 -0.05694 0.27025
 C532 C 0.32505 -0.01715 0.17657
 C533 C 0.31890 0.02266 0.30860
 C534 C 0.08698 1.03007 0.77958
 H535 H 0.08508 1.01318 0.78806
 C536 C 0.07480 1.04958 0.78826
 H537 H 0.06336 1.04772 0.80338
 C538 C 0.10499 1.05347 0.75019
 H539 H 0.11725 1.05515 0.73579
 C540 C 0.09316 1.07336 0.75828
 H541 H 0.09617 1.09015 0.74989
 N542 N 0.10174 1.03234 0.76086
 C543 C 0.11348 0.96303 0.73136
 H544 H 0.13237 0.96355 0.73029
 C545 C 0.10175 0.94364 0.72310
 H546 H 0.11162 0.92918 0.71561
 C547 C 0.07756 0.98137 0.74225
 H548 H 0.06825 0.99621 0.74955
 C549 C 0.06508 0.96221 0.73414
 H550 H 0.04615 0.96228 0.73525
 Zn551 Zn 0.12000 1.00614 0.75125
 N552 N 0.10136 0.98127 0.74091
 C553 C 0.13534 0.97372 0.78543
 N554 N 0.13796 0.99591 0.77702
 C555 C 0.15273 1.01111 0.78727
 C556 C 0.16613 1.00390 0.80633
 C557 C 0.14834 0.96584 0.80439
 C558 C 0.12849 1.02037 0.70550
 C559 C 0.14137 1.02721 0.68580
 C560 C 0.17685 1.02147 0.70769
 C561 C 0.16327 1.01469 0.72703
 N562 N 0.13951 1.01467 0.72570
 H563 H 0.12306 0.96209 0.77757
 H564 H 0.15415 1.02880 0.78053
 H565 H 0.17802 1.01598 0.81428
 H566 H 0.14623 0.94809 0.81084
 H567 H 0.10961 1.01988 0.70486
 H568 H 0.13241 1.03214 0.66993
 H569 H 0.19572 1.02185 0.70894
 H570 H 0.17173 1.00959 0.74305
 C571 C 0.07736 0.94316 0.72456
 C572 C 0.07806 1.07145 0.77757
 C573 C 0.16574 1.02794 0.68696
 C574 C 0.16396 0.98099 0.81486
 C575 C 0.58627 0.53096 0.27824
 H576 H 0.58424 0.51411 0.28676
 C577 C 0.57384 0.55048 0.28656
 H578 H 0.56209 0.54866 0.30146
 C579 C 0.60483 0.55428 0.24913
 H580 H 0.61739 0.55593 0.23499
 C581 C 0.59276 0.57418 0.25687
 H582 H 0.59590 0.59094 0.24848
 N583 N 0.60142 0.53319 0.25983
 C584 C 0.61401 0.46374 0.23092
 H585 H 0.63291 0.46426 0.23028
 C586 C 0.60248 0.44428 0.22255
 H587 H 0.61251 0.42976 0.21538
 C588 C 0.57785 0.48213 0.24090
 H589 H 0.56838 0.49702 0.24790
 C590 C 0.56557 0.46291 0.23265
 H591 H 0.54663 0.46297 0.23337
 Zn592 Zn 0.61999 0.50700 0.25081
 N593 N 0.60167 0.48204 0.24010
 C594 C 0.63448 0.47478 0.28556
 N595 N 0.63725 0.49694 0.27714
 C596 C 0.65157 0.51228 0.28780
 C597 C 0.66432 0.50526 0.30737
 C598 C 0.64685 0.46708 0.30502
 C599 C 0.62976 0.52104 0.20521
 C600 C 0.64321 0.52786 0.18588
 C601 C 0.67800 0.52234 0.20885
 C602 C 0.66388 0.51558 0.22781
 N603 N 0.64019 0.51547 0.22576
 H604 H 0.62255 0.46302 0.27736
 H605 H 0.65311 0.52994 0.28102
 H606 H 0.67581 0.51747 0.31569
 H607 H 0.64459 0.44937 0.31151
 H608 H 0.61092 0.52048 0.20400
 H609 H 0.63471 0.53269 0.16972
 H610 H 0.69682 0.52280 0.21067
 H611 H 0.67186 0.51058 0.24411
 C612 C 0.57807 0.44379 0.22348
 C613 C 0.57726 0.57231 0.27585
 C614 C 0.66752 0.52869 0.18777
 C615 C 0.66196 0.48239 0.31596
 C616 C 0.89863 0.48320 0.77379
 H617 H 0.89836 0.49978 0.78274
 C618 C 0.91161 0.46434 0.78274
 H619 H 0.92150 0.46642 0.79856
 C620 C 0.88515 0.45976 0.74294
 H621 H 0.87432 0.45779 0.72783
 C622 C 0.89788 0.44050 0.75129
 H623 H 0.89696 0.42388 0.74244
 N624 N 0.88570 0.48059 0.75425
 C625 C 0.87104 0.55039 0.72593
 H626 H 0.85231 0.54897 0.72410
 C627 C 0.88228 0.57084 0.71884
 H628 H 0.87221 0.58523 0.71149
 C629 C 0.90708 0.53331 0.73766
 H630 H 0.91667 0.51858 0.74485
 C631 C 0.91904 0.55351 0.73077
 H632 H 0.93782 0.55433 0.73273
 Zn633 Zn 0.86599 0.50574 0.74472
 N634 N 0.88345 0.53227 0.73540
 C635 C 0.84700 0.53534 0.77955
 N636 N 0.84644 0.51340 0.77057
 C637 C 0.83369 0.49620 0.78110
 C638 C 0.82098 0.50077 0.80164
 C639 C 0.83453 0.54064 0.79993
 C640 C 0.86071 0.49327 0.69854
 C641 C 0.84941 0.48617 0.67847
 C642 C 0.81273 0.48691 0.69998
 C643 C 0.82475 0.49406 0.71973
 N644 N 0.84838 0.49673 0.71871
 H645 H 0.85769 0.54862 0.77139
 H646 H 0.83394 0.47878 0.77388
 H647 H 0.81130 0.48689 0.81023
 H648 H 0.83550 0.55803 0.80720
 H649 H 0.87943 0.49577 0.69819
 H650 H 0.85946 0.48310 0.66259
 H651 H 0.79399 0.48444 0.70093
 H652 H 0.81525 0.49727 0.73584
 C653 C 0.90647 0.57247 0.72139
 C654 C 0.91106 0.44275 0.77147
 C655 C 0.82525 0.48280 0.67922
 C656 C 0.82160 0.52318 0.81121
 C657 C 0.27333 0.40007 -0.01849
 H658 H 0.28226 0.40043 -0.00199
 C659 C 0.28252 0.41210 -0.03784
 H660 H 0.29853 0.42186 -0.03623
 C661 C 0.24225 0.38594 -0.04118
 H662 H 0.22695 0.37520 -0.04266
 C663 C 0.25083 0.39770 -0.06092
 H664 H 0.24199 0.39614 -0.07741
 N665 N 0.25356 0.38726 -0.02050
 C666 C 0.22470 0.37605 0.04964
 H667 H 0.22267 0.35727 0.04905
 C668 C 0.21758 0.38831 0.06947
 H669 H 0.20998 0.37898 0.08423
 C670 C 0.23697 0.41119 0.03104
 H671 H 0.24435 0.42002 0.01595
 C672 C 0.23004 0.42416 0.05060
 H673 H 0.23216 0.44297 0.05057
 Zn674 Zn 0.24364 0.36878 0.00538
 N675 N 0.23443 0.38753 0.03105
 C676 C 0.27812 0.35069 0.03568
 N677 N 0.26921 0.34925 0.01384
 C678 C 0.27959 0.33551 -0.00271
 C679 C 0.29985 0.32260 0.00246
 C680 C 0.29823 0.33806 0.04155
 C681 C 0.19733 0.36350 -0.00679
 C682 C 0.17712 0.35216 -0.01352
 C683 C 0.19818 0.31526 -0.01142
 C684 C 0.21808 0.32734 -0.00466
 N685 N 0.21736 0.35108 -0.00286
 H686 H 0.27010 0.36215 0.04841
 H687 H 0.27245 0.33507 -0.02007
 H688 H 0.30830 0.31206 -0.01090
 H689 H 0.30541 0.33969 0.05885
 H690 H 0.19723 0.38233 -0.00499
 H691 H 0.16137 0.36227 -0.01700
 H692 H 0.19890 0.29642 -0.01323
 H693 H 0.23406 0.31778 -0.00110
 C694 C 0.22036 0.41256 0.07001
 C695 C 0.27126 0.41072 -0.05929
 C696 C 0.17758 0.32786 -0.01604
 C697 C 0.30931 0.32406 0.02477
 C698 C 0.77863 0.08810 1.02832
 H699 H 0.78757 0.08691 1.01160
 C700 C 0.78720 0.07566 1.04760
 H701 H 0.80272 0.06474 1.04572
 C702 C 0.74808 0.10454 1.05158
 H703 H 0.73324 0.11628 1.05330
 C704 C 0.75605 0.09242 1.07123
 H705 H 0.74715 0.09469 1.08789
 N706 N 0.75937 0.10218 1.03063
 C707 C 0.73111 0.11388 0.96108
 H708 H 0.72958 0.13276 0.96162
 C709 C 0.72356 0.10190 0.94157
 H710 H 0.71613 0.11155 0.92703
 C711 C 0.74238 0.07822 0.97954
 H712 H 0.74949 0.06910 0.99449
 C713 C 0.73498 0.06551 0.96030
 H714 H 0.73646 0.04659 0.96042
 Zn715 Zn 0.74980 0.12064 1.00472
 N716 N 0.74051 0.10200 0.97945
 C717 C 0.78435 0.13754 0.97331
 N718 N 0.77537 0.13946 0.99535
 C719 C 0.78505 0.15397 1.01115
 C720 C 0.80418 0.16777 1.00476
 C721 C 0.80341 0.15098 0.96624
 C722 C 0.70347 0.12764 1.01833
 C723 C 0.68338 0.13986 1.02540
 C724 C 0.70459 0.17601 1.02105
 C725 C 0.72434 0.16308 1.01403
 N726 N 0.72353 0.13930 1.01324
 H727 H 0.77694 0.12546 0.96119
 H728 H 0.77786 0.15482 1.02869
 H729 H 0.81173 0.17939 1.01735
 H730 H 0.81037 0.14938 0.94863
 H731 H 0.70326 0.10876 1.01726
 H732 H 0.66763 0.13038 1.02990
 H733 H 0.70543 0.19489 1.02211
 H734 H 0.74029 0.17206 1.00943
 C735 C 0.72555 0.07752 0.94113
 C736 C 0.77585 0.07797 1.06927
 C737 C 0.68400 0.16423 1.02698
 C738 C 0.81336 0.16627 0.98205
 C739 C 0.27697 0.59123 0.53093
 H740 H 0.28610 0.58969 0.51434
 C741 C 0.28528 0.57915 0.55053
 H742 H 0.30077 0.56813 0.54903
 C743 C 0.24624 0.60824 0.55352
 H744 H 0.23143 0.62007 0.55484
 C745 C 0.25395 0.59649 0.57351
 H746 H 0.24487 0.59911 0.59002
 N747 N 0.25775 0.60542 0.53275
 C748 C 0.23065 0.61620 0.46259
 H749 H 0.22912 0.63509 0.46291
 C750 C 0.22354 0.60403 0.44303
 H751 H 0.21646 0.61355 0.42822
 C752 C 0.24158 0.58073 0.48160
 H753 H 0.24842 0.57176 0.49677
 C754 C 0.23462 0.56783 0.46231
 H755 H 0.23617 0.54892 0.46260
 Zn756 Zn 0.24868 0.62348 0.50639
 N757 N 0.23969 0.60451 0.48125
 C758 C 0.28387 0.63961 0.47526
 N759 N 0.27453 0.64196 0.49711
 C760 C 0.28405 0.65666 0.51283
 C761 C 0.30341 0.67019 0.50654
 C762 C 0.30315 0.65276 0.46830
 C763 C 0.20221 0.63113 0.51924
 C764 C 0.18207 0.64370 0.52553
 C765 C 0.20365 0.67955 0.52049
 C766 C 0.22343 0.66628 0.51426
 N767 N 0.22245 0.64248 0.51415
 H768 H 0.27656 0.62738 0.46322
 H769 H 0.27658 0.65786 0.53024
 H770 H 0.31084 0.68195 0.51907
 H771 H 0.31041 0.65081 0.45084
 H772 H 0.20186 0.61221 0.51870
 H773 H 0.16615 0.63448 0.52996
 H774 H 0.20460 0.69846 0.52092
 H775 H 0.23951 0.67500 0.50966
 C776 C 0.22561 0.57965 0.44282
 C777 C 0.27372 0.58193 0.57204
 C778 C 0.18285 0.66811 0.52633
 C779 C 0.31296 0.66823 0.48403
 C780 C 0.77244 0.90170 0.48029
 H781 H 0.78121 0.90208 0.49688
 C782 C 0.78187 0.91366 0.46100
 H783 H 0.79787 0.92339 0.46276
 C784 C 0.74160 0.88756 0.45729
 H785 H 0.72631 0.87684 0.45567
 C786 C 0.75041 0.89925 0.43762
 H787 H 0.74175 0.89766 0.42103
 N788 N 0.75269 0.88891 0.47810
 C789 C 0.72298 0.87761 0.54786
 H790 H 0.72083 0.85886 0.54713
 C791 C 0.71576 0.88978 0.56772
 H792 H 0.70796 0.88040 0.58234
 C793 C 0.73572 0.91278 0.52965
 H794 H 0.74335 0.92165 0.51471
 C795 C 0.72870 0.92566 0.54925
 H796 H 0.73100 0.94444 0.54939
 Zn797 Zn 0.74248 0.87044 0.50386
 N798 N 0.73300 0.88914 0.52947
 C799 C 0.77651 0.85227 0.53459
 N800 N 0.76792 0.85089 0.51262
 C801 C 0.77851 0.83717 0.49618
 C802 C 0.79866 0.82420 0.50161
 C803 C 0.79650 0.83958 0.54073
 C804 C 0.69632 0.86515 0.49117
 C805 C 0.67622 0.85379 0.48416
 C806 C 0.69731 0.81692 0.48645
 C807 C 0.71709 0.82901 0.49348
 N808 N 0.71631 0.85275 0.49531
 H809 H 0.76833 0.86371 0.54724
 H810 H 0.77162 0.83677 0.47871
 H811 H 0.80728 0.81368 0.48835
 H812 H 0.80343 0.84115 0.55813
 H813 H 0.69617 0.88397 0.49300
 H814 H 0.66051 0.86388 0.48050
 H815 H 0.69809 0.79808 0.48461
 H816 H 0.73305 0.81946 0.49722
 C817 C 0.71875 0.91399 0.56848
 C818 C 0.77084 0.91223 0.43943
 C819 C 0.67676 0.82950 0.48159
 C820 C 0.80779 0.82559 0.52407
 C821 C -0.01628 0.27298 0.40023
 H822 H 0.00056 0.28137 0.40066
 C823 C -0.03520 0.28229 0.41296
 H824 H -0.03293 0.29782 0.42332
 C825 C -0.04021 0.24314 0.38541
 H826 H -0.04234 0.22827 0.37420
 C827 C -0.05954 0.25186 0.39784
 H828 H -0.07635 0.24352 0.39632
 N829 N -0.01908 0.25373 0.38680
 C830 C 0.04978 0.22205 0.37410
 H831 H 0.04878 0.22015 0.35537
 C832 C 0.06963 0.21419 0.38582
 H833 H 0.08396 0.20613 0.37614
 C834 C 0.03233 0.23493 0.40960
 H835 H 0.01771 0.24292 0.41878
 C836 C 0.05192 0.22729 0.42204
 H837 H 0.05238 0.22945 0.44079
 Zn838 Zn 0.00635 0.24327 0.36783
 N839 N 0.03179 0.23249 0.38600
 C840 C 0.03837 0.27649 0.35040
 N841 N 0.01598 0.26890 0.34895
 C842 C 0.00002 0.28042 0.33550
 C843 C 0.00644 0.30044 0.32277
 C844 C 0.04549 0.29629 0.33796
 C845 C -0.00784 0.19764 0.36132
 C846 C -0.01584 0.17818 0.34949
 C847 C -0.01333 0.20031 0.31337
 C848 C -0.00531 0.21943 0.32591
 N849 N -0.00316 0.21786 0.34952
 H850 H 0.05066 0.26761 0.36162
 H851 H -0.01779 0.27431 0.33503
 H852 H -0.00640 0.30974 0.31238
 H853 H 0.06327 0.30235 0.33951
 H854 H -0.00576 0.19685 0.38005
 H855 H -0.02002 0.16233 0.35913
 H856 H -0.01552 0.20177 0.29467
 H857 H -0.00114 0.23553 0.31683
 C858 C 0.07079 0.21698 0.40998
 C859 C -0.05706 0.27169 0.41162
 C860 C -0.01883 0.17959 0.32535
 C861 C 0.02939 0.30845 0.32415
 C862 C 1.03248 0.77685 0.08792
 H863 H 1.01579 0.78579 0.08623
 C864 C 1.05209 0.78510 0.07571
 H865 H 1.05050 0.80036 0.06444
 C866 C 1.05528 0.74668 0.10546
 H867 H 1.05664 0.73213 0.11754
 C868 C 1.07529 0.75436 0.09357
 H869 H 1.09190 0.74552 0.09636
 N870 N 1.03439 0.75795 0.10245
 C871 C 0.96395 0.73107 0.11346
 H872 H 0.96390 0.73028 0.13233
 C873 C 0.94461 0.72339 0.10130
 H874 H 0.92959 0.71663 0.11081
 C875 C 0.98372 0.74059 0.07800
 H876 H 0.99911 0.74707 0.06903
 C877 C 0.96467 0.73303 0.06511
 H878 H 0.96537 0.73378 0.04622
 Zn879 Zn 1.00787 0.74926 0.12060
 N880 N 0.98289 0.73967 0.10176
 C881 C 0.97665 0.78495 0.13586
 N882 N 0.99850 0.77564 0.13833
 C883 C 1.01428 0.78549 0.15272
 C884 C 1.00804 0.80517 0.16583
 C885 C 0.96973 0.80457 0.14861
 C886 C 1.02088 0.70302 0.12968
 C887 C 1.02675 0.68326 0.14293
 C888 C 1.02061 0.70591 0.17794
 C889 C 1.01482 0.72530 0.16401
 N890 N 1.01543 0.72360 0.14032
 H891 H 0.96456 0.77734 0.12389
 H892 H 1.03168 0.77800 0.15402
 H893 H 1.02060 0.81284 0.17738
 H894 H 0.95225 0.81179 0.14661
 H895 H 1.02087 0.70209 0.11083
 H896 H 1.03143 0.66705 0.13430
 H897 H 1.02042 0.70744 0.19677
 H898 H 1.00991 0.74163 0.17215
 C899 C 0.94492 0.72442 0.07692
 C900 C 1.07372 0.77382 0.07869
 C901 C 1.02675 0.68476 0.16726
 C902 C 0.98551 0.81472 0.16378
 C903 C 0.53080 0.27391 0.58671
 H904 H 0.51399 0.28248 0.58450
 C905 C 0.55056 0.28255 0.57502
 H906 H 0.54896 0.29773 0.56365
 C907 C 0.55373 0.24433 0.60502
 H908 H 0.55507 0.22986 0.61720
 C909 C 0.57390 0.25241 0.59369
 H910 H 0.59061 0.24395 0.59698
 N911 N 0.53271 0.25512 0.60137
 C912 C 0.46276 0.22661 0.61080
 H913 H 0.46247 0.22564 0.62967
 C914 C 0.44368 0.21881 0.59831
 H915 H 0.42865 0.21176 0.60757
 C916 C 0.48276 0.23692 0.57569
 H917 H 0.49811 0.24384 0.56699
 C918 C 0.46397 0.22927 0.56248
 H919 H 0.46482 0.23037 0.54360
 Zn920 Zn 0.50591 0.24597 0.61884
 N921 N 0.48166 0.23571 0.59943
 C922 C 0.47344 0.28105 0.63258
 N923 N 0.49537 0.27229 0.63604
 C924 C 0.51030 0.28274 0.65090
 C925 C 0.50311 0.30252 0.66341
 C926 C 0.46558 0.30072 0.64470
 C927 C 0.51955 0.20009 0.62861
 C928 C 0.52525 0.18048 0.64215
 C929 C 0.51764 0.20323 0.67684
 C930 C 0.51204 0.22247 0.66263
 N931 N 0.51343 0.22064 0.63897
 H932 H 0.46203 0.27300 0.62024
 H933 H 0.52780 0.27569 0.65298
 H934 H 0.51502 0.31071 0.67528
 H935 H 0.44807 0.30753 0.64185
 H936 H 0.52014 0.19905 0.60977
 H937 H 0.53042 0.16428 0.63375
 H938 H 0.51679 0.20484 0.69566
 H939 H 0.50661 0.23877 0.67052
 C940 C 0.44421 0.22025 0.57396
 C941 C 0.57233 0.27178 0.57868
 C942 C 0.52440 0.18210 0.66647
 C943 C 0.48050 0.31152 0.66028
 C944 C 0.48543 0.76996 0.89914
 H945 H 0.50219 0.77851 0.89939
 C946 C 0.46642 0.77935 0.91167
 H947 H 0.46856 0.79512 0.92172
 C948 C 0.46177 0.73958 0.88493
 H949 H 0.45980 0.72446 0.87403
 C950 C 0.44236 0.74839 0.89719
 H951 H 0.42563 0.73987 0.89585
 N952 N 0.48280 0.75040 0.88611
 C953 C 0.55209 0.71937 0.87439
 H954 H 0.55128 0.71714 0.85570
 C955 C 0.57193 0.71195 0.88641
 H956 H 0.58644 0.70391 0.87697
 C957 C 0.53417 0.73258 0.90955
 H958 H 0.51937 0.74050 0.91849
 C959 C 0.55374 0.72537 0.92227
 H960 H 0.55399 0.72782 0.94098
 Zn961 Zn 0.50840 0.73982 0.86747
 N962 N 0.53387 0.72976 0.88598
 C963 C 0.54004 0.77318 0.84955
 N964 N 0.51780 0.76517 0.84808
 C965 C 0.50176 0.77617 0.83431
 C966 C 0.50792 0.79608 0.82131
 C967 C 0.54690 0.79289 0.83684
 C968 C 0.49476 0.69390 0.86193
 C969 C 0.48748 0.67393 0.85046
 C970 C 0.49038 0.69510 0.81381
 C971 C 0.49766 0.71475 0.82600
 N972 N 0.49934 0.71387 0.84968
 H973 H 0.55239 0.76471 0.86102
 H974 H 0.48406 0.76973 0.83383
 H975 H 0.49500 0.80500 0.81068
 H976 H 0.56455 0.79931 0.83843
 H977 H 0.49649 0.69365 0.88071
 H978 H 0.48351 0.65822 0.86043
 H979 H 0.48869 0.69595 0.79502
 H980 H 0.50176 0.73068 0.81657
 C981 C 0.57284 0.71512 0.91052
 C982 C 0.44467 0.76852 0.91056
 C983 C 0.48510 0.67457 0.82623
 C984 C 0.53070 0.80455 0.82273
 C985 C 0.43976 -0.11462 0.30027
 C986 C 0.44705 -0.11353 0.32336
 C987 C 0.45555 -0.13357 0.33470
 C988 C 0.45692 -0.15539 0.32320
 C989 C 0.44992 -0.15596 0.29961
 C990 C 0.44136 -0.13581 0.28837
 C991 C 0.42973 -0.09418 0.28921
 C992 C 0.42077 -0.07710 0.28039
 H993 H 0.44606 -0.09714 0.33271
 H994 H 0.46164 -0.13151 0.35232
 H995 H 0.44982 -0.17208 0.28992
 H996 H 0.43555 -0.13690 0.27050
 C997 C 0.94208 0.38491 0.80059
 C998 C 0.95435 0.38683 0.82141
 C999 C 0.96298 0.36677 0.83265
 C1000 C 0.95941 0.34445 0.82325
 C1001 C 0.94749 0.34273 0.80204
 C1002 C 0.93883 0.36284 0.79082
 C1003 C 0.93185 0.40546 0.78991
 C1004 C 0.92272 0.42257 0.78135
 H1005 H 0.95696 0.40381 0.82913
 H1006 H 0.97239 0.36870 0.84877
 H1007 H 0.94425 0.32581 0.79448
 H1008 H 0.92924 0.36115 0.77477
 C1009 C 0.04863 1.13109 0.80434
 C1010 C 0.06342 1.14769 0.81388
 C1011 C 0.05409 1.16815 0.82366
 C1012 C 0.02978 1.17228 0.82405
 C1013 C 0.01507 1.15562 0.81412
 C1014 C 0.02445 1.13517 0.80433
 C1015 C 0.05835 1.10980 0.79481
 C1016 C 0.06700 1.09215 0.78696
 H1017 H 0.08217 1.14470 0.81401
 H1018 H 0.06586 1.18043 0.83146
 H1019 H -0.00368 1.15842 0.81391
 H1020 H 0.01284 1.12249 0.79690
 C1021 C 0.54732 0.63197 0.30203
 C1022 C 0.56206 0.64903 0.31083
 C1023 C 0.55263 0.66945 0.32060
 C1024 C 0.52826 0.67308 0.32173
 C1025 C 0.51358 0.65597 0.31252
 C1026 C 0.52307 0.63555 0.30274
 C1027 C 0.55718 0.61068 0.29265
 C1028 C 0.56598 0.59302 0.28496
 H1029 H 0.58086 0.64642 0.31041
 H1030 H 0.56439 0.68208 0.32784
 H1031 H 0.49477 0.65836 0.31289
 H1032 H 0.51149 0.62250 0.29590
 C1033 C 0.54886 0.38545 0.19638
 C1034 C 0.52740 0.37611 0.20363
 C1035 C 0.51919 0.35568 0.19339
 C1036 C 0.53236 0.34443 0.17573
 C1037 C 0.55400 0.35388 0.16879
 C1038 C 0.56214 0.37422 0.17903
 C1039 C 0.55769 0.40640 0.20665
 C1040 C 0.56628 0.42369 0.21463
 H1041 H 0.51699 0.38464 0.21708
 H1042 H 0.50239 0.34893 0.19895
 H1043 H 0.56474 0.34544 0.15555
 H1044 H 0.57886 0.38119 0.17340
 C1045 C 0.04778 0.88514 0.69725
 C1046 C 0.06071 0.87439 0.67935
 C1047 C 0.05250 0.85417 0.66893
 C1048 C 0.03115 0.84436 0.67625
 C1049 C 0.01834 0.85511 0.69446
 C1050 C 0.02661 0.87543 0.70487
 C1051 C 0.05668 0.90597 0.70768
 C1052 C 0.06539 0.92317 0.71572
 H1053 H 0.07721 0.88164 0.67343
 H1054 H 0.06298 0.84610 0.65526
 H1055 H 0.00175 0.84808 0.70033
 H1056 H 0.01648 0.88359 0.71876
 C1057 C 0.93766 0.63291 0.69956
 C1058 C 0.96184 0.63606 0.70073
 C1059 C 0.97190 0.65643 0.69158
 C1060 C 0.95789 0.67392 0.68111
 C1061 C 0.93354 0.67078 0.68049
 C1062 C 0.92353 0.65041 0.68964
 C1063 C 0.92732 0.61145 0.70776
 C1064 C 0.91815 0.59356 0.71417
 H1065 H 0.97294 0.62264 0.70842
 H1066 H 0.99066 0.65844 0.69256
 H1067 H 0.92230 0.68371 0.67224
 H1068 H 0.90479 0.64812 0.68857
 C1069 C 0.43657 0.13363 0.19984
 C1070 C 0.46067 0.13681 0.20188
 C1071 C 0.47105 0.15712 0.19294
 C1072 C 0.45743 0.17450 0.18180
 C1073 C 0.43313 0.17137 0.18036
 C1074 C 0.42280 0.15106 0.18931
 C1075 C 0.42600 0.11216 0.20771
 C1076 C 0.41673 0.09423 0.21382
 H1077 H 0.47150 0.12346 0.21004
 H1078 H 0.48975 0.15913 0.19455
 H1079 H 0.42220 0.18422 0.17160
 H1080 H 0.40413 0.14874 0.18757
 C1081 C 0.30112 0.43803 -0.11855
 C1082 C 0.31910 0.42502 -0.12923
 C1083 C 0.33000 0.43335 -0.14958
 C1084 C 0.32308 0.45489 -0.15958
 C1085 C 0.30478 0.46776 -0.14889
 C1086 C 0.29390 0.45937 -0.12847
 C1087 C 0.29020 0.42927 -0.09747
 C1088 C 0.28142 0.42123 -0.07994
 H1089 H 0.32473 0.40841 -0.12179
 H1090 H 0.34376 0.42286 -0.15758
 H1091 H 0.29923 0.48450 -0.15603
 H1092 H 0.27998 0.46959 -0.12035
 C1093 C 0.80139 0.93926 0.38039
 C1094 C 0.82071 0.92719 0.37102
 C1095 C 0.83178 0.93541 0.35071
 C1096 C 0.82369 0.95589 0.33945
 C1097 C 0.80407 0.96780 0.34884
 C1098 C 0.79301 0.95952 0.36921
 C1099 C 0.79023 0.93059 0.40138
 C1100 C 0.78125 0.92264 0.41885
 H1101 H 0.82725 0.91139 0.37942
 H1102 H 0.84660 0.92565 0.34373
 H1103 H 0.79758 0.98373 0.34071
 H1104 H 0.77804 0.96899 0.37631
 C1105 C 0.80221 0.04748 1.12822
 C1106 C 0.80536 0.06145 1.14775
 C1107 C 0.81533 0.05202 1.16795
 C1108 C 0.82255 0.02824 1.16907
 C1109 C 0.81869 0.01430 1.14921
 C1110 C 0.80869 0.02386 1.12907
 C1111 C 0.79279 0.05759 1.10719
 C1112 C 0.78505 0.06656 1.08975
 H1113 H 0.80051 0.07984 1.14723
 H1114 H 0.81838 0.06393 1.18208
 H1115 H 0.82274 -0.00422 1.14916
 H1116 H 0.80607 0.01279 1.11412
 C1117 C 0.29961 0.55184 0.63141
 C1118 C 0.30936 0.56623 0.64824
 C1119 C 0.31933 0.55638 0.66826
 C1120 C 0.31972 0.53197 0.67169
 C1121 C 0.30946 0.51769 0.65488
 C1122 C 0.29949 0.52757 0.63487
 C1123 C 0.29026 0.56200 0.61037
 C1124 C 0.28266 0.57083 0.59279
 H1125 H 0.30958 0.58504 0.64571
 H1126 H 0.32735 0.56783 0.68069
 H1127 H 0.30924 0.49886 0.65715
 H1128 H 0.29193 0.51628 0.62200
 C1129 C 0.20181 0.54715 0.38487
 C1130 C 0.21196 0.55197 0.36298
 C1131 C 0.20159 0.54381 0.34268
 C1132 C 0.18085 0.53087 0.34406
 C1133 C 0.17121 0.52553 0.36620
 C1134 C 0.18161 0.53365 0.38644
 C1135 C 0.21099 0.55754 0.40555
 C1136 C 0.21798 0.56711 0.42272
 H1137 H 0.22750 0.56256 0.36156
 H1138 H 0.20930 0.54838 0.32589
 H1139 H 0.15545 0.51531 0.36783
 H1140 H 0.17357 0.52986 0.40327
 C1141 C 0.69948 0.04540 0.88398
 C1142 C 0.67675 0.03687 0.88526
 C1143 C 0.66591 0.02887 0.86524
 C1144 C 0.67755 0.02931 0.84325
 C1145 C 0.70090 0.03725 0.84251
 C1146 C 0.71164 0.04533 0.86265
 C1147 C 0.70957 0.05568 0.90428
 C1148 C 0.71723 0.06513 0.92121
 H1149 H 0.66721 0.03669 0.90175
 H1150 H 0.64852 0.02189 0.86737
 H1151 H 0.71066 0.03863 0.82627
 H1152 H 0.72922 0.05212 0.86143
 C1153 C 0.69589 0.94781 0.62710
 C1154 C 0.70895 0.94718 0.64759
 C1155 C 0.69976 0.95692 0.66813
 C1156 C 0.67735 0.96739 0.66842
 C1157 C 0.66451 0.96813 0.64763
 C1158 C 0.67373 0.95842 0.62716
 C1159 C 0.70459 0.93657 0.60629
 C1160 C 0.71130 0.92662 0.58894
 H1161 H 0.72611 0.93893 0.64775
 H1162 H 0.71015 0.95625 0.68378
 H1163 H 0.64705 0.97566 0.64733
 H1164 H 0.66337 0.95881 0.61147
 C1165 C 0.19755 0.44693 0.12834
 C1166 C 0.17554 0.45787 0.12818
 C1167 C 0.16638 0.46794 0.14851
 C1168 C 0.17912 0.46723 0.16936
 C1169 C 0.20136 0.45641 0.16929
 C1170 C 0.21051 0.44632 0.14889
 C1171 C 0.20622 0.43543 0.10766
 C1172 C 0.21292 0.42532 0.09039
 H1173 H 0.16527 0.45826 0.11244
 H1174 H 0.14903 0.47572 0.14805
 H1175 H 0.21168 0.45575 0.18499
 H1176 H 0.22755 0.43783 0.14922
 C1177 C -0.11511 0.30083 0.44256
 C1178 C -0.11357 0.32187 0.45467
 C1179 C -0.13381 0.33285 0.46338
 C1180 C -0.15592 0.32295 0.46006
 C1181 C -0.15724 0.30154 0.44827
 C1182 C -0.13696 0.29059 0.43954
 C1183 C -0.09441 0.29032 0.43234
 C1184 C -0.07723 0.28176 0.42323
 H1185 H -0.09675 0.32996 0.45712
 H1186 H -0.13216 0.34913 0.47269
 H1187 H -0.17400 0.29360 0.44521
 H1188 H -0.13837 0.27436 0.43008
 C1189 C 0.38663 0.79802 0.94117
 C1190 C 0.38831 0.81909 0.95319
 C1191 C 0.36814 0.83027 0.96182
 C1192 C 0.34596 0.82052 0.95849
 C1193 C 0.34449 0.79907 0.94680
 C1194 C 0.36470 0.78793 0.93816
 C1195 C 0.40727 0.78732 0.93103
 C1196 C 0.42445 0.77866 0.92202
 H1197 H 0.40518 0.82706 0.95564
 H1198 H 0.36989 0.84658 0.97105
 H1199 H 0.32767 0.79126 0.94374
 H1200 H 0.36319 0.77167 0.92877
 C1201 C 1.13246 0.80088 0.04795
 C1202 C 1.13114 0.82307 0.03751
 C1203 C 1.15117 0.83327 0.02784
 C1204 C 1.17289 0.82140 0.02844
 C1205 C 1.17406 0.79907 0.03897
 C1206 C 1.15395 0.78888 0.04864
 C1207 C 1.11183 0.79083 0.05844
 C1208 C 1.09444 0.78289 0.06747
 H1209 H 1.11465 0.83260 0.03702
 H1210 H 1.14973 0.85065 0.02027
 H1211 H 1.19046 0.78941 0.03954
 H1212 H 1.15518 0.77170 0.05673
 C1213 C 0.63114 0.30028 0.54946
 C1214 C 0.62965 0.32284 0.53988
 C1215 C 0.64958 0.33352 0.53056
 C1216 C 0.67137 0.32177 0.53065
 C1217 C 0.67273 0.29909 0.54037
 C1218 C 0.65272 0.28841 0.54969
 C1219 C 0.61055 0.28967 0.55945
 C1220 C 0.59314 0.28129 0.56803
 H1221 H 0.61309 0.33226 0.53976
 H1222 H 0.64799 0.35115 0.52362
 H1223 H 0.68920 0.28953 0.54053
 H1224 H 0.65408 0.27094 0.55711
 C1225 C 0.38689 0.19564 0.54097
 C1226 C 0.38817 0.17423 0.52937
 C1227 C 0.36781 0.16385 0.52142
 C1228 C 0.34585 0.17472 0.52504
 C1229 C 0.34481 0.19662 0.53603
 C1230 C 0.36521 0.20696 0.54400
 C1231 C 0.40749 0.20496 0.55141
 C1232 C 0.42447 0.21219 0.56113
 H1233 H 0.40483 0.16528 0.52698
 H1234 H 0.36921 0.14715 0.51272
 H1235 H 0.32816 0.20530 0.53927
 H1236 H 0.36400 0.22346 0.55313
 C1237 C 0.88774 0.69889 0.04436
 C1238 C 0.88946 0.67759 0.03262
 C1239 C 0.86934 0.66685 0.02457
 C1240 C 0.84716 0.67726 0.02823
 C1241 C 0.84567 0.69905 0.03938
 C1242 C 0.86584 0.70975 0.04746
 C1243 C 0.90817 0.70861 0.05478
 C1244 C 0.92510 0.71611 0.06437
 H1245 H 0.90630 0.66899 0.03017
 H1246 H 0.87108 0.65024 0.01575
 H1247 H 0.82884 0.70738 0.04266
 H1248 H 0.86429 0.72617 0.05669
 C1249 C 0.63147 0.69267 0.94435
 C1250 C 0.65255 0.70470 0.94181
 C1251 C 0.67294 0.69581 0.95204
 C1252 C 0.67246 0.67474 0.96496
 C1253 C 0.65112 0.66290 0.96754
 C1254 C 0.63080 0.67182 0.95731
 C1255 C 0.61070 0.70110 0.93294
 C1256 C 0.59334 0.70768 0.92300
 H1257 H 0.65328 0.72084 0.93176
 H1258 H 0.68904 0.70542 0.94991
 H1259 H 0.65021 0.64643 0.97698
 H1260 H 0.61464 0.66225 0.95923
 C1261 C 0.12952 0.19343 0.44294
 C1262 C 0.12870 0.17251 0.45577
 C1263 C 0.14900 0.16327 0.46574
 C1264 C 0.17048 0.17483 0.46304
 C1265 C 0.17112 0.19596 0.45023
 C1266 C 0.15074 0.20519 0.44025
 C1267 C 0.10873 0.20224 0.43183
 C1268 C 0.09134 0.20914 0.42215
 H1269 H 0.11242 0.16315 0.45780
 H1270 H 0.14797 0.14675 0.47511
 H1271 H 0.18732 0.20537 0.44800
 H1272 H 0.15158 0.22138 0.43030
 C1273 C 0.54591 0.12528 0.70447
 C1274 C 0.56133 0.12807 0.72294
 C1275 C 0.57160 0.10847 0.73360
 C1276 C 0.56663 0.08581 0.72584
 C1277 C 0.55043 0.08315 0.70784
 C1278 C 0.54019 0.10279 0.69719
 C1279 C 0.53746 0.14545 0.69180
 C1280 C 0.53115 0.16225 0.68057
 H1281 H 0.56590 0.14541 0.72869
 H1282 H 0.58378 0.11105 0.74761
 H1283 H 0.54648 0.06596 0.70129
 H1284 H 0.52840 0.10045 0.68279
 C1285 C 1.04901 0.62775 0.20455
 C1286 C 1.06489 0.63050 0.22264
 C1287 C 1.07522 0.61087 0.23318
 C1288 C 1.06984 0.58821 0.22570
 C1289 C 1.05325 0.58560 0.20806
 C1290 C 1.04295 0.60527 0.19752
 C1291 C 1.04033 0.64794 0.19208
 C1292 C 1.03379 0.66480 0.18106
 H1293 H 1.06972 0.64783 0.22820
 H1294 H 1.08771 0.61341 0.24693
 H1295 H 1.04897 0.56841 0.20172
 H1296 H 1.03080 0.60296 0.18342
 C1297 C 0.96162 0.87141 0.20004
 C1298 C 0.96722 0.89419 0.19293
 C1299 C 0.95582 0.91337 0.20321
 C1300 C 0.93857 0.90994 0.22063
 C1301 C 0.93367 0.88700 0.22819
 C1302 C 0.94510 0.86788 0.21794
 C1303 C 0.97128 0.85161 0.18777
 C1304 C 0.97833 0.83485 0.17705
 H1305 H 0.97985 0.89711 0.17896
 H1306 H 0.95978 0.93080 0.19685
 H1307 H 0.92070 0.88384 0.24178
 H1308 H 0.94060 0.85032 0.22354
 C1309 C 0.45336 0.36885 0.69314
 C1310 C 0.43127 0.37619 0.68565
 C1311 C 0.42007 0.39531 0.69607
 C1312 C 0.43079 0.40740 0.71422
 C1313 C 0.45313 0.40007 0.72153
 C1314 C 0.46434 0.38084 0.71106
 C1315 C 0.46433 0.34883 0.68237
 C1316 C 0.47234 0.33188 0.67265
 H1317 H 0.42267 0.36709 0.67173
 H1318 H 0.40308 0.40078 0.68976
 H1319 H 0.46173 0.40894 0.73557
 H1320 H 0.48143 0.37526 0.71701
 C1321 C 0.45896 0.61590 0.79689
 C1322 C 0.45949 0.59544 0.81049
 C1323 C 0.44813 0.57543 0.80304
 C1324 C 0.43603 0.57561 0.78184
 C1325 C 0.43619 0.59602 0.76790
 C1326 C 0.44753 0.61609 0.77544
 C1327 C 0.46882 0.63696 0.80588
 C1328 C 0.47653 0.65431 0.81455
 H1329 H 0.46826 0.59511 0.82713
 H1330 H 0.44857 0.55988 0.81398
 H1331 H 0.42682 0.59674 0.75161
 H1332 H 0.44689 0.63189 0.76484
 C1333 C -0.04912 0.12346 0.29522
 C1334 C -0.03683 0.10719 0.28147
 C1335 C -0.04789 0.08689 0.27406
 C1336 C -0.07130 0.08262 0.28050
 C1337 C -0.08359 0.09936 0.29387
 C1338 C -0.07256 0.11960 0.30117
 C1339 C -0.03758 0.14348 0.30449
 C1340 C -0.02864 0.16009 0.31340
 H1341 H -0.01863 0.10995 0.27687
 H1342 H -0.03796 0.07423 0.26392
 H1343 H -0.10174 0.09673 0.29877
 H1344 H -0.08223 0.13207 0.31181
 C1345 C 0.05449 0.36880 0.29566
 C1346 C 0.04149 0.38568 0.28336
 C1347 C 0.05183 0.40685 0.27660
 C1348 C 0.07519 0.41136 0.28230
 C1349 C 0.08817 0.39405 0.29419
 C1350 C 0.07788 0.37297 0.30081
 C1351 C 0.04397 0.34760 0.30422
 C1352 C 0.03655 0.32973 0.31265
 H1353 H 0.02332 0.38265 0.27937
 H1354 H 0.04141 0.41993 0.26755
 H1355 H 0.10630 0.39685 0.29844
 H1356 H 0.08811 0.36003 0.31030
 C1357 C 0.55481 0.86514 0.79388
 C1358 C 0.54140 0.88198 0.78196
 C1359 C 0.55135 0.90337 0.77531
 C1360 C 0.57472 0.90814 0.78073
 C1361 C 0.58812 0.89085 0.79219
 C1362 C 0.57823 0.86956 0.79871
 C1363 C 0.54466 0.84378 0.80250
 C1364 C 0.53753 0.82584 0.81105
 H1365 H 0.52321 0.87877 0.77823
 H1366 H 0.54062 0.91643 0.76658
 H1367 H 0.60627 0.89387 0.79623
 H1368 H 0.58876 0.85666 0.80790
 C1369 C 0.70438 0.55467 0.13206
 C1370 C 0.71458 0.54046 0.11498
 C1371 C 0.72502 0.55044 0.09508
 C1372 C 0.72548 0.57511 0.09162
 C1373 C 0.71531 0.58903 0.10962
 C1374 C 0.70495 0.57891 0.12941
 C1375 C 0.69227 0.54461 0.15184
 C1376 C 0.68138 0.53696 0.16831
 H1377 H 0.71438 0.52158 0.11697
 H1378 H 0.73333 0.53842 0.08304
 H1379 H 0.71371 0.60782 0.10825
 H1380 H 0.69681 0.59010 0.14243
 C1381 C 0.20076 1.05396 0.63012
 C1382 C 0.21712 1.04101 0.61701
 C1383 C 0.22749 1.05089 0.59700
 C1384 C 0.22160 1.07386 0.58994
 C1385 C 0.20519 1.08668 0.60333
 C1386 C 0.19489 1.07680 0.62325
 C1387 C 0.18938 1.04388 0.65031
 C1388 C 0.17903 1.03622 0.66712
 H1389 H 0.22176 1.02328 0.62217
 H1390 H 0.24020 1.04066 0.58716
 H1391 H 0.19994 1.10422 0.59813
 H1392 H 0.18212 1.08691 0.63318
 C1393 C 0.20047 0.95296 0.86913
 C1394 C 0.21118 0.96586 0.88643
 C1395 C 0.22204 0.95442 0.90518
 C1396 C 0.22242 0.92958 0.90717
 C1397 C 0.21159 0.91706 0.88903
 C1398 C 0.20084 0.92861 0.87043
 C1399 C 0.18834 0.96436 0.85028
 C1400 C 0.17754 0.97265 0.83423
 H1401 H 0.21116 0.98480 0.88547
 H1402 H 0.23076 0.96546 0.91741
 H1403 H 0.20984 0.89828 0.88944
 H1404 H 0.19232 0.91843 0.85722
 C1405 C 0.69608 0.45510 0.37214
 C1406 C 0.68957 0.43242 0.37861
 C1407 C 0.70034 0.42109 0.39733
 C1408 C 0.71789 0.43225 0.40989
 C1409 C 0.72426 0.45515 0.40339
 C1410 C 0.71343 0.46650 0.38456
 C1411 C 0.68485 0.46623 0.35258
 C1412 C 0.67475 0.47430 0.33597
 H1413 H 0.67610 0.42347 0.36918
 H1414 H 0.69472 0.40365 0.40216
 H1415 H 0.73782 0.46413 0.41264
 H1416 H 0.71863 0.48405 0.37965
 C1417 C 0.79677 0.45740 0.61993
 C1418 C 0.81084 0.45820 0.59977
 C1419 C 0.80376 0.44718 0.57947
 C1420 C 0.78248 0.43514 0.57905
 C1421 C 0.76806 0.43504 0.59917
 C1422 C 0.77523 0.44604 0.61953
 C1423 C 0.80538 0.46693 0.64126
 C1424 C 0.81380 0.47443 0.65879
 H1425 H 0.82756 0.46692 0.59989
 H1426 H 0.81507 0.44782 0.56416
 H1427 H 0.75169 0.42572 0.59941
 H1428 H 0.76427 0.44520 0.63509
 C1429 C 0.29750 -0.04301 0.11703
 C1430 C 0.31180 -0.04237 0.09703
 C1431 C 0.30497 -0.05357 0.07674
 C1432 C 0.28370 -0.06563 0.07617
 C1433 C 0.26906 -0.06558 0.09613
 C1434 C 0.27598 -0.05439 0.11648
 C1435 C 0.30583 -0.03330 0.13838
 C1436 C 0.31397 -0.02567 0.15599
 H1437 H 0.32850 -0.03363 0.09727
 H1438 H 0.31645 -0.05304 0.06155
 H1439 H 0.25269 -0.07491 0.09627
 H1440 H 0.26484 -0.05511 0.13192
 C1441 C 0.29085 0.03969 0.37203
 C1442 C 0.26957 0.05189 0.37432
 C1443 C 0.26316 0.06191 0.39570
 C1444 C 0.27810 0.05999 0.41494
 C1445 C 0.29894 0.04683 0.41271
 C1446 C 0.30527 0.03677 0.39139
 C1447 C 0.29926 0.03242 0.34942
 C1448 C 0.30755 0.02739 0.33065
 H1449 H 0.25839 0.05444 0.35938
 H1450 H 0.24713 0.07215 0.39685
 H1451 H 0.31065 0.04485 0.42731
 H1452 H 0.32183 0.02746 0.38978
 C1453 C 0.79417 0.54083 0.87475
 C1454 C 0.77267 0.55262 0.87714
 C1455 C 0.76625 0.56271 0.89849
 C1456 C 0.78140 0.56127 0.91760
 C1457 C 0.80250 0.54855 0.91527
 C1458 C 0.80884 0.53843 0.89398
 C1459 C 0.80243 0.53337 0.85215
 C1460 C 0.81054 0.52816 0.83335
 H1461 H 0.76129 0.55477 0.86230
 H1462 H 0.75002 0.57260 0.89970
 H1463 H 0.81437 0.54694 0.92977
 H1464 H 0.82556 0.52944 0.89229
 C1465 C 0.12480 0.70318 0.55000
 C1466 C 0.12696 0.72075 0.56663
 C1467 C 0.10700 0.73069 0.57703
 C1468 C 0.08458 0.72313 0.57096
 C1469 C 0.08258 0.70591 0.55375
 C1470 C 0.10258 0.69597 0.54338
 C1471 C 0.14535 0.69151 0.54089
 C1472 C 0.16252 0.68116 0.53392
 H1473 H 0.14409 0.72643 0.57190
 H1474 H 0.10909 0.74413 0.58999
 H1475 H 0.06559 0.69953 0.54891
 H1476 H 0.10073 0.68227 0.53064
 C1477 C 0.62648 0.19748 1.05425
 C1478 C 0.61918 0.19026 1.07655
 C1479 C 0.59937 0.20040 1.08699
 C1480 C 0.58655 0.21797 1.07527
 C1481 C 0.59396 0.22510 1.05280
 C1482 C 0.61385 0.21491 1.04236
 C1483 C 0.64681 0.18663 1.04373
 C1484 C 0.66382 0.17681 1.03569
 H1485 H 0.62875 0.17669 1.08585
 H1486 H 0.59390 0.19423 1.10412
 H1487 H 0.58456 0.23872 1.04343
 H1488 H 0.61936 0.22061 1.02507
 C1489 C 0.86868 0.20383 0.95724
 C1490 C 0.86579 0.21578 0.93614
 C1491 C 0.88488 0.22614 0.92486
 C1492 C 0.90770 0.22470 0.93431
 C1493 C 0.90988 0.21328 0.95635
 C1494 C 0.89065 0.20289 0.96749
 C1495 C 0.84935 0.19123 0.96735
 C1496 C 0.83299 0.18013 0.97468
 H1497 H 0.84874 0.21687 0.92817
 H1498 H 0.88114 0.23581 0.90904
 H1499 H 0.92657 0.21063 0.96462
 H1500 H 0.89312 0.19346 0.98379
 C1501 C 0.36921 0.70485 0.45991
 C1502 C 0.36564 0.72242 0.44311
 C1503 C 0.38473 0.73260 0.43162
 C1504 C 0.40768 0.72526 0.43674
 C1505 C 0.41113 0.70814 0.45422
 C1506 C 0.39199 0.69795 0.46568
 C1507 C 0.34950 0.69259 0.46967
 C1508 C 0.33287 0.68177 0.47680
 H1509 H 0.34807 0.72783 0.43846
 H1510 H 0.38154 0.74596 0.41847
 H1511 H 0.42857 0.70195 0.45836
 H1512 H 0.39494 0.68422 0.47851
 C1513 C 0.61771 0.80065 0.45596
 C1514 C 0.61743 0.77880 0.44512
 C1515 C 0.59720 0.77139 0.43403
 C1516 C 0.57712 0.78587 0.43353
 C1517 C 0.57743 0.80749 0.44501
 C1518 C 0.59759 0.81481 0.45612
 C1519 C 0.63891 0.80941 0.46562
 C1520 C 0.65638 0.81794 0.47320
 H1521 H 0.63297 0.76777 0.44477
 H1522 H 0.59753 0.75475 0.42515
 H1523 H 0.56213 0.81885 0.44520
 H1524 H 0.59763 0.83176 0.46443
 C1525 C 0.11814 0.29911 -0.04095
 C1526 C 0.11769 0.27728 -0.05179
 C1527 C 0.09737 0.26998 -0.06278
 C1528 C 0.07735 0.28456 -0.06319
 C1529 C 0.07782 0.30615 -0.05166
 C1530 C 0.09807 0.31336 -0.04064
 C1531 C 0.13948 0.30783 -0.03150
 C1532 C 0.15706 0.31632 -0.02415
 H1533 H 0.13318 0.26618 -0.05225
 H1534 H 0.09758 0.25336 -0.07171
 H1535 H 0.06258 0.31759 -0.05141
 H1536 H 0.09824 0.33030 -0.03233
 C1537 C 0.37182 0.29530 0.04385
 C1538 C 0.39165 0.30924 0.04131
 C1539 C 0.41266 0.30235 0.05161
 C1540 C 0.41410 0.28141 0.06465
 C1541 C 0.39434 0.26702 0.06630
 C1542 C 0.37329 0.27399 0.05603
 C1543 C 0.34959 0.30410 0.03596
 C1544 C 0.33109 0.31260 0.03033
 H1545 H 0.39068 0.32582 0.03200
 H1546 H 0.42766 0.31364 0.04981
 H1547 H 0.39486 0.25093 0.07644
 H1548 H 0.35799 0.26317 0.05829
 C1549 C 0.86998 0.79677 0.54400
 C1550 C 0.88973 0.81091 0.54213
 C1551 C 0.91059 0.80395 0.55266
 C1552 C 0.91197 0.78274 0.56526
 C1553 C 0.89231 0.76819 0.56627
 C1554 C 0.87139 0.77523 0.55577
 C1555 C 0.84786 0.80557 0.53582
 C1556 C 0.82946 0.81408 0.52992
 H1557 H 0.88880 0.82766 0.53315
 H1558 H 0.92553 0.81537 0.55135
 H1559 H 0.89278 0.75188 0.57606
 H1560 H 0.85614 0.76425 0.55750
   
