data_POSCAR
  _audit_creation_date              2014-09-24
  _audit_creation_method            'ToBaCCo'
  _symmetry_space_group_name_H-M    'P1'
  _symmetry_Int_Tables_number       1
  _symmetry_cell_setting            triclinic
  loop_
  _symmetry_equiv_pos_as_xyz
 x,y,z
_cell_length_a 52.0389
_cell_length_b 52.0598
_cell_length_c 51.6531
_cell_angle_alpha 89.652300
_cell_angle_beta 90.346700
_cell_angle_gamma 90.449200
loop_
  _atom_site_label
  _atom_site_type_symbol
  _atom_site_fract_x
  _atom_site_fract_y
  _atom_site_fract_z
C1 C 0.72738 0.66665 0.96753
 H2 H 0.74616 0.66711 0.95867
 C3 C 0.70693 0.67979 0.95595
 H4 H 0.70997 0.69057 0.93821
 C5 C 0.69994 0.65077 1.00056
 H6 H 0.69699 0.63879 1.01742
 C7 C 0.67905 0.66362 0.98966
 H8 H 0.66023 0.66169 0.99835
 N9 N 0.72351 0.65235 0.98934
 C10 C 0.79796 0.63695 1.02519
 H11 H 0.79581 0.61636 1.02731
 C12 C 0.82008 0.64916 1.03438
 H13 H 0.83506 0.63797 1.04363
 C14 C 0.78099 0.67669 1.01058
 H15 H 0.76561 0.68729 1.00143
 C16 C 0.80292 0.68973 1.01955
 H17 H 0.80447 0.71037 1.01722
 Zn18 Zn 0.75046 0.63127 1.00179
 N19 N 0.77912 0.65071 1.01331
 C20 C 0.78492 0.61124 0.96515
 N21 N 0.76039 0.60991 0.97409
 C22 C 0.74221 0.59524 0.96201
 C23 C 0.74847 0.58121 0.93994
 C24 C 0.79196 0.59753 0.94323
 C25 C 0.73410 0.62562 1.05234
 C26 C 0.72530 0.61332 1.07466
 C27 C 0.72715 0.57277 1.05212
 C28 C 0.73599 0.58591 1.03015
 N29 N 0.73892 0.61191 1.03060
 H30 H 0.79893 0.62352 0.97446
 H31 H 0.72272 0.59496 0.96918
 H32 H 0.73383 0.56993 0.93014
 H33 H 0.81142 0.59908 0.93601
 H34 H 0.73688 0.64623 1.05219
 H35 H 0.72126 0.62458 1.09174
 H36 H 0.72458 0.55209 1.05153
 H37 H 0.74035 0.57536 1.01280
 C38 C 0.82265 0.67574 1.03145
 C39 C 0.68249 0.67798 0.96699
 C40 C 0.72164 0.58667 1.07455
 C41 C 0.77355 0.58256 0.93040
 C42 C 0.72837 0.33325 0.52761
 H43 H 0.74701 0.33152 0.53681
 C44 C 0.70718 0.31996 0.53771
 H45 H 0.70950 0.30782 0.55466
 C46 C 0.70212 0.35224 0.49515
 H47 H 0.69995 0.36543 0.47911
 C48 C 0.68052 0.33932 0.50460
 H49 H 0.66193 0.34242 0.49559
 N50 N 0.72547 0.34909 0.50674
 C51 C 0.80131 0.36284 0.47357
 H52 H 0.80078 0.38360 0.47281
 C53 C 0.82252 0.34989 0.46394
 H54 H 0.83844 0.36069 0.45577
 C55 C 0.78106 0.32339 0.48492
 H56 H 0.76473 0.31320 0.49287
 C57 C 0.80198 0.30964 0.47544
 H58 H 0.80181 0.28884 0.47623
 Zn59 Zn 0.75369 0.36965 0.49596
 N60 N 0.78126 0.34954 0.48402
 C61 C 0.78879 0.38702 0.53424
 N62 N 0.76442 0.38934 0.52483
 C63 C 0.74683 0.40425 0.53691
 C64 C 0.75359 0.41775 0.55930
 C65 C 0.79632 0.40018 0.55652
 C66 C 0.73770 0.37856 0.44549
 C67 C 0.72890 0.39233 0.42402
 C68 C 0.73297 0.43142 0.44879
 C69 C 0.74174 0.41687 0.46987
 N70 N 0.74344 0.39087 0.46797
 H71 H 0.80230 0.37456 0.52488
 H72 H 0.72743 0.40532 0.52935
 H73 H 0.73944 0.42940 0.56895
 H74 H 0.81568 0.39801 0.56401
 H75 H 0.73948 0.35790 0.44447
 H76 H 0.72381 0.38227 0.40639
 H77 H 0.73112 0.45205 0.45052
 H78 H 0.74684 0.42633 0.48776
 C79 C 0.82290 0.32307 0.46493
 C80 C 0.68301 0.32325 0.52620
 C81 C 0.72627 0.41895 0.42576
 C82 C 0.77856 0.41559 0.56920
 C83 C 0.23065 -0.16401 0.02335
 H84 H 0.24943 -0.16537 0.03234
 C85 C 0.20982 -0.17758 0.03380
 H86 H 0.21254 -0.18956 0.05080
 C87 C 0.20374 -0.14576 -0.00899
 H88 H 0.20120 -0.13280 -0.02517
 C89 C 0.18247 -0.15899 0.00080
 H90 H 0.16374 -0.15636 -0.00806
 N91 N 0.22726 -0.14844 0.00236
 C92 C 0.30240 -0.13480 -0.03234
 H93 H 0.30176 -0.11405 -0.03347
 C94 C 0.32361 -0.14781 -0.04188
 H95 H 0.33941 -0.13709 -0.05038
 C96 C 0.28254 -0.17413 -0.01994
 H97 H 0.26639 -0.18426 -0.01155
 C98 C 0.30346 -0.18794 -0.02930
 H99 H 0.30348 -0.20872 -0.02798
 Zn100 Zn 0.25521 -0.12784 -0.00901
 N101 N 0.28257 -0.14800 -0.02136
 C102 C 0.29111 -0.11044 0.02842
 N103 N 0.26652 -0.10811 0.01962
 C104 C 0.24927 -0.09313 0.03209
 C105 C 0.25663 -0.07952 0.05423
 C106 C 0.29923 -0.09719 0.05042
 C107 C 0.23847 -0.11881 -0.05927
 C108 C 0.22983 -0.10490 -0.08071
 C109 C 0.23451 -0.06586 -0.05588
 C110 C 0.24312 -0.08058 -0.03485
 N111 N 0.24451 -0.10660 -0.03681
 H112 H 0.30436 -0.12296 0.01877
 H113 H 0.22969 -0.09204 0.02501
 H114 H 0.24277 -0.06778 0.06419
 H115 H 0.31878 -0.09935 0.05741
 H116 H 0.24005 -0.13949 -0.06033
 H117 H 0.22471 -0.11497 -0.09835
 H118 H 0.23308 -0.04519 -0.05403
 H119 H 0.24848 -0.07121 -0.01700
 C120 C 0.32421 -0.17460 -0.04025
 C121 C 0.18549 -0.17486 0.02250
 C122 C 0.22763 -0.07820 -0.07897
 C123 C 0.28184 -0.08167 0.06347
 C124 C 0.22551 0.16539 0.46408
 H125 H 0.24424 0.16619 0.45513
 C126 C 0.20495 0.17879 0.45302
 H127 H 0.20786 0.19011 0.43560
 C128 C 0.19830 0.14842 0.49677
 H129 H 0.19548 0.13593 0.51327
 C130 C 0.17731 0.16151 0.48638
 H131 H 0.15854 0.15924 0.49511
 N132 N 0.22180 0.15043 0.48546
 C133 C 0.29648 0.13442 0.52054
 H134 H 0.29453 0.11376 0.52196
 C135 C 0.31844 0.14654 0.53026
 H136 H 0.33347 0.13520 0.53921
 C137 C 0.27913 0.17446 0.50733
 H138 H 0.26363 0.18521 0.49857
 C139 C 0.30088 0.18740 0.51685
 H140 H 0.30218 0.20813 0.51533
 Zn141 Zn 0.24890 0.12914 0.49716
 N142 N 0.27750 0.14839 0.50914
 C143 C 0.28328 0.11026 0.45982
 N144 N 0.25879 0.10861 0.46884
 C145 C 0.24063 0.09415 0.45649
 C146 C 0.24686 0.08061 0.43411
 C147 C 0.29030 0.09704 0.43760
 C148 C 0.23282 0.12196 0.54760
 C149 C 0.22422 0.10897 0.56960
 C150 C 0.22612 0.06913 0.54592
 C151 C 0.23477 0.08291 0.52426
 N152 N 0.23759 0.10890 0.52544
 H153 H 0.29728 0.12238 0.46938
 H154 H 0.22117 0.09361 0.46374
 H155 H 0.23225 0.06944 0.42415
 H156 H 0.30974 0.09880 0.43036
 H157 H 0.23551 0.14258 0.54804
 H158 H 0.22021 0.11960 0.58708
 H159 H 0.22361 0.04848 0.54487
 H160 H 0.23909 0.07286 0.50659
 C161 C 0.32071 0.17323 0.52835
 C162 C 0.18058 0.17656 0.46414
 C163 C 0.22070 0.08237 0.56873
 C164 C 0.27191 0.08225 0.42453
 C165 C 0.16463 0.46838 0.22838
 H166 H 0.16485 0.45985 0.24754
 C167 C 0.17773 0.45661 0.20816
 H168 H 0.18823 0.43905 0.21175
 C169 C 0.14946 0.50084 0.19985
 H170 H 0.13779 0.51759 0.19643
 C171 C 0.16229 0.48972 0.17914
 H172 H 0.16066 0.49812 0.15996
 N173 N 0.15074 0.49002 0.22388
 C174 C 0.13683 0.52623 0.29834
 H175 H 0.11624 0.52847 0.29653
 C176 C 0.14957 0.53512 0.32038
 H177 H 0.13880 0.54424 0.33562
 C178 C 0.17601 0.51152 0.28069
 H179 H 0.18619 0.50242 0.26510
 C180 C 0.18956 0.52017 0.30250
 H181 H 0.21017 0.51764 0.30374
 Zn182 Zn 0.13006 0.50273 0.25089
 N183 N 0.15005 0.51439 0.27923
 C184 C 0.10999 0.46662 0.28664
 N185 N 0.10849 0.47531 0.26177
 C186 C 0.09357 0.46308 0.24385
 C187 C 0.07950 0.44110 0.25072
 C188 C 0.09624 0.44481 0.29429
 C189 C 0.12460 0.55268 0.23303
 C190 C 0.11222 0.57465 0.22398
 C191 C 0.07158 0.55213 0.22761
 C192 C 0.08476 0.53050 0.23665
 N193 N 0.11085 0.53111 0.23886
 H194 H 0.12247 0.47606 0.30044
 H195 H 0.09317 0.47004 0.22408
 H196 H 0.06806 0.43116 0.23627
 H197 H 0.09798 0.43776 0.31400
 H198 H 0.14529 0.55269 0.23527
 H199 H 0.12337 0.59166 0.21915
 H200 H 0.05085 0.55153 0.22564
 H201 H 0.07417 0.51331 0.24182
 C202 C 0.17613 0.53193 0.32256
 C203 C 0.17630 0.46726 0.18327
 C204 C 0.08550 0.57434 0.22113
 C205 C 0.08106 0.43180 0.27614
 C206 C -0.16475 0.02549 0.22970
 H207 H -0.16585 0.03444 0.24851
 C208 C -0.17786 0.03616 0.20856
 H209 H -0.18924 0.05329 0.21115
 C210 C -0.14740 -0.00688 0.20298
 H211 H -0.13489 -0.02312 0.20061
 C212 C -0.16019 0.00311 0.18140
 H213 H -0.15764 -0.00572 0.16264
 N214 N -0.14978 0.00443 0.22654
 C215 C -0.13617 -0.02953 0.30283
 H216 H -0.11543 -0.03059 0.30208
 C217 C -0.14923 -0.03910 0.32435
 H218 H -0.13855 -0.04754 0.34029
 C219 C -0.17546 -0.01743 0.28282
 H220 H -0.18556 -0.00920 0.26647
 C221 C -0.18932 -0.02683 0.30405
 H222 H -0.21009 -0.02571 0.30410
 Zn223 Zn -0.12919 -0.00686 0.25470
 N224 N -0.14933 -0.01875 0.28275
 C225 C -0.11046 0.03062 0.28973
 N226 N -0.10871 0.02150 0.26516
 C227 C -0.09401 0.03368 0.24708
 C228 C -0.08026 0.05596 0.25348
 C229 C -0.09704 0.05278 0.29692
 C230 C -0.12161 -0.05687 0.23851
 C231 C -0.10839 -0.07818 0.22949
 C232 C -0.06873 -0.05393 0.23302
 C233 C -0.08273 -0.03300 0.24201
 N234 N -0.10876 -0.03472 0.24410
 H235 H -0.12277 0.02116 0.30364
 H236 H -0.09339 0.02634 0.22755
 H237 H -0.06888 0.06576 0.23891
 H238 H -0.09884 0.06010 0.31641
 H239 H -0.14228 -0.05774 0.24059
 H240 H -0.11888 -0.09555 0.22454
 H241 H -0.04808 -0.05234 0.23086
 H242 H -0.07284 -0.01537 0.24697
 C243 C -0.17602 -0.03769 0.32501
 C244 C -0.17532 0.02499 0.18413
 C245 C -0.08176 -0.07662 0.22648
 C246 C -0.08194 0.06564 0.27861
 C247 C 0.33557 0.52441 0.73183
 H248 H 0.33475 0.53337 0.75065
 C249 C 0.32158 0.53465 0.71106
 H250 H 0.30980 0.55146 0.71388
 C251 C 0.35299 0.49243 0.70468
 H252 H 0.36583 0.47650 0.70199
 C253 C 0.33932 0.50203 0.68345
 H254 H 0.34149 0.49327 0.66462
 N255 N 0.35097 0.50373 0.72828
 C256 C 0.36713 0.47030 0.80427
 H257 H 0.38786 0.46972 0.80304
 C258 C 0.35480 0.46053 0.82614
 H259 H 0.36604 0.45243 0.84187
 C260 C 0.32711 0.48140 0.78517
 H261 H 0.31644 0.48933 0.76903
 C262 C 0.31397 0.47178 0.80676
 H263 H 0.29318 0.47243 0.80731
 Zn264 Zn 0.37247 0.49297 0.75595
 N265 N 0.35325 0.48070 0.78448
 C266 C 0.39122 0.53084 0.79053
 N267 N 0.39257 0.52176 0.76592
 C268 C 0.40676 0.53413 0.74755
 C269 C 0.42046 0.55650 0.75372
 C270 C 0.40462 0.55308 0.79750
 C271 C 0.38094 0.44307 0.73976
 C272 C 0.39461 0.42191 0.73107
 C273 C 0.43375 0.44707 0.73407
 C274 C 0.41931 0.46783 0.74277
 N275 N 0.39333 0.46556 0.74502
 H276 H 0.37931 0.52123 0.80469
 H277 H 0.40707 0.52681 0.72800
 H278 H 0.43150 0.56639 0.73895
 H279 H 0.40320 0.56032 0.81706
 H280 H 0.36032 0.44176 0.74202
 H281 H 0.38451 0.40420 0.72655
 H282 H 0.45436 0.44905 0.73192
 H283 H 0.42885 0.48571 0.74752
 C284 C 0.32801 0.46133 0.82744
 C285 C 0.32370 0.52348 0.68661
 C286 C 0.42120 0.42399 0.72801
 C287 C 0.41927 0.56607 0.77892
 C288 C 0.66705 0.96994 0.72756
 H289 H 0.66758 0.96126 0.74664
 C290 C 0.68015 0.95854 0.70711
 H291 H 0.69096 0.94112 0.71046
 C292 C 0.65100 1.00228 0.69940
 H293 H 0.63895 1.01879 0.69620
 C294 C 0.66382 0.99154 0.67848
 H295 H 0.66181 1.00001 0.65937
 N296 N 0.65268 0.99131 0.72334
 C297 C 0.63791 1.02662 0.79810
 H298 H 0.61726 1.02828 0.79630
 C299 C 0.65043 1.03593 0.82008
 H300 H 0.63936 1.04483 0.83526
 C301 C 0.67748 1.01306 0.78036
 H302 H 0.68788 1.00429 0.76473
 C303 C 0.69082 1.02217 0.80211
 H304 H 0.71153 1.02031 0.80320
 Zn305 Zn 0.63175 1.00328 0.75051
 N306 N 0.65145 1.01521 0.77894
 C307 C 0.61251 0.96646 0.78597
 N308 N 0.61082 0.97531 0.76117
 C309 C 0.59612 0.96295 0.74317
 C310 C 0.58241 0.94069 0.74989
 C311 C 0.59913 0.94437 0.79347
 C312 C 0.62513 1.05319 0.73302
 C313 C 0.61227 1.07488 0.72399
 C314 C 0.57214 1.05142 0.72743
 C315 C 0.58580 1.03008 0.73645
 N316 N 0.61186 1.03128 0.73872
 H317 H 0.62482 0.97602 0.79983
 H318 H 0.59557 0.97005 0.72345
 H319 H 0.57111 0.93068 0.73539
 H320 H 0.60097 0.93722 0.81314
 H321 H 0.64581 1.05366 0.73531
 H322 H 0.62304 1.09214 0.71921
 H323 H 0.55143 1.05033 0.72538
 H324 H 0.57560 1.01263 0.74152
 C325 C 0.67710 1.03361 0.82219
 C326 C 0.67825 0.96930 0.68230
 C327 C 0.58557 1.07395 0.72104
 C328 C 0.58413 0.93126 0.77525
 C329 C 0.02594 0.22951 -0.16239
 H330 H 0.03502 0.24825 -0.16357
 C331 C 0.03632 0.20880 -0.17580
 H332 H 0.05334 0.21159 -0.18749
 C333 C -0.00643 0.20251 -0.14459
 H334 H -0.02256 0.19986 -0.13179
 C335 C 0.00330 0.18135 -0.15766
 H336 H -0.00558 0.16262 -0.15508
 N337 N 0.00501 0.22600 -0.14705
 C338 C -0.02808 0.30123 -0.13224
 H339 H -0.02907 0.29982 -0.11136
 C340 C -0.03743 0.32298 -0.14489
 H341 H -0.04563 0.33842 -0.13374
 C342 C -0.01633 0.28269 -0.17227
 H343 H -0.00829 0.26682 -0.18281
 C344 C -0.02552 0.30420 -0.18575
 H345 H -0.02445 0.30494 -0.20668
 Zn346 Zn -0.00589 0.25352 -0.12604
 N347 N -0.01755 0.28177 -0.14595
 C348 C 0.03202 0.28806 -0.10736
 N349 N 0.02261 0.26365 -0.10546
 C350 C 0.03453 0.24565 -0.09050
 C351 C 0.05681 0.25201 -0.07660
 C352 C 0.05418 0.29519 -0.09379
 C353 C -0.05606 0.23737 -0.11838
 C354 C -0.07774 0.22884 -0.10505
 C355 C -0.05362 0.23201 -0.06498
 C356 C -0.03232 0.24054 -0.07914
 N357 N -0.03385 0.24266 -0.10540
 H358 H 0.02280 0.30190 -0.11988
 H359 H 0.02697 0.22625 -0.08978
 H360 H 0.06639 0.23753 -0.06499
 H361 H 0.06172 0.31456 -0.09571
 H362 H -0.05677 0.23951 -0.13922
 H363 H -0.09519 0.22433 -0.11574
 H364 H -0.05214 0.23003 -0.04412
 H365 H -0.01462 0.24530 -0.06918
 C366 C -0.03608 0.32453 -0.17185
 C367 C 0.02502 0.18446 -0.17316
 C368 C -0.07649 0.22596 -0.07813
 C369 C 0.06675 0.27699 -0.07840
 C370 C 0.47231 0.22992 0.16851
 H371 H 0.46320 0.24853 0.16875
 C372 C 0.46152 0.20934 0.18231
 H373 H 0.44415 0.21211 0.19337
 C374 C 0.50514 0.20303 0.15254
 H375 H 0.52161 0.20034 0.14028
 C376 C 0.49503 0.18203 0.16605
 H377 H 0.50393 0.16337 0.16432
 N378 N 0.49364 0.22639 0.15385
 C379 C 0.52772 0.30140 0.13692
 H380 H 0.52936 0.29936 0.11616
 C381 C 0.53680 0.32362 0.14890
 H382 H 0.54547 0.33879 0.13737
 C383 C 0.51446 0.28404 0.17732
 H384 H 0.50589 0.26847 0.18826
 C385 C 0.52334 0.30605 0.19013
 H386 H 0.52151 0.30748 0.21095
 Zn387 Zn 0.50504 0.25351 0.13206
 N388 N 0.51655 0.28231 0.15112
 C389 C 0.46790 0.28741 0.11136
 N390 N 0.47691 0.26295 0.11071
 C391 C 0.46487 0.24448 0.09642
 C392 C 0.44288 0.25041 0.08194
 C393 C 0.44607 0.29413 0.09716
 C394 C 0.55533 0.23778 0.12545
 C395 C 0.57709 0.22932 0.11254
 C396 C 0.55325 0.23127 0.07226
 C397 C 0.53185 0.23977 0.08597
 N398 N 0.53320 0.24247 0.11215
 H399 H 0.47722 0.30166 0.12334
 H400 H 0.47212 0.22506 0.09667
 H401 H 0.43319 0.23557 0.07087
 H402 H 0.43887 0.31358 0.09805
 H403 H 0.55591 0.24040 0.14621
 H404 H 0.59453 0.22531 0.12335
 H405 H 0.55203 0.22882 0.05148
 H406 H 0.51424 0.24405 0.07571
 C407 C 0.53450 0.32603 0.17570
 C408 C 0.47286 0.18512 0.18080
 C409 C 0.57600 0.22588 0.08575
 C410 C 0.43338 0.27545 0.08244
 C411 C 0.96876 0.72805 0.66881
 H412 H 0.95979 0.74673 0.66905
 C413 C 0.95779 0.70754 0.68258
 H414 H 0.94042 0.71043 0.69361
 C415 C 1.00144 0.70093 0.65293
 H416 H 1.01792 0.69812 0.64072
 C417 C 0.99114 0.67999 0.66639
 H418 H 0.99992 0.66128 0.66470
 N419 N 0.99012 0.72438 0.65423
 C420 C 1.02505 0.79907 0.63747
 H421 H 1.02701 0.79685 0.61676
 C422 C 1.03392 0.82140 0.64939
 H423 H 1.04279 0.83646 0.63787
 C424 C 1.01100 0.78213 0.67777
 H425 H 1.00214 0.76670 0.68869
 C426 C 1.01965 0.80426 0.69052
 H427 H 1.01740 0.80591 0.71127
 Zn428 Zn 1.00187 0.75143 0.63251
 N429 N 1.01355 0.78015 0.65164
 C430 C 0.96503 0.78575 0.61235
 N431 N 0.97386 0.76125 0.61116
 C432 C 0.96150 0.74311 0.59673
 C433 C 0.93923 0.74937 0.58282
 C434 C 0.94295 0.79280 0.59875
 C435 C 1.05200 0.73529 0.62636
 C436 C 1.07376 0.72638 0.61377
 C437 C 1.05035 0.72823 0.57324
 C438 C 1.02892 0.73715 0.58663
 N439 N 1.03006 0.74011 0.61279
 H440 H 0.97457 0.79974 0.62445
 H441 H 0.96859 0.72363 0.59657
 H442 H 0.92918 0.73475 0.57177
 H443 H 0.93581 0.81223 0.60024
 H444 H 1.05240 0.73807 0.64710
 H445 H 1.09100 0.72219 0.62483
 H446 H 1.04929 0.72551 0.55248
 H447 H 1.01143 0.74150 0.57618
 C448 C 1.03107 0.82410 0.67610
 C449 C 0.96896 0.68324 0.68109
 C450 C 1.07289 0.72265 0.58702
 C451 C 0.92981 0.77443 0.58405
 C452 C 0.52475 0.73219 0.33509
 H453 H 0.53412 0.75081 0.33465
 C454 C 0.53506 0.71175 0.32122
 H455 H 0.55233 0.71463 0.30993
 C456 C 0.49166 0.70516 0.35149
 H457 H 0.47527 0.70238 0.36392
 C458 C 0.50130 0.68427 0.33793
 H459 H 0.49212 0.66561 0.33977
 N460 N 0.50350 0.72853 0.34994
 C461 C 0.47138 0.80396 0.36573
 H462 H 0.47020 0.80241 0.38659
 C463 C 0.46247 0.82596 0.35317
 H464 H 0.45442 0.84142 0.36442
 C465 C 0.48310 0.78551 0.32565
 H466 H 0.49092 0.76958 0.31504
 C467 C 0.47435 0.80723 0.31225
 H468 H 0.47557 0.80801 0.29132
 Zn469 Zn 0.49270 0.75567 0.37146
 N470 N 0.48167 0.78443 0.35194
 C471 C 0.53097 0.78925 0.39131
 N472 N 0.52118 0.76495 0.39250
 C473 C 0.53274 0.74638 0.40703
 C474 C 0.55504 0.75201 0.42120
 C475 C 0.55317 0.79567 0.40518
 C476 C 0.44219 0.73983 0.37847
 C477 C 0.42040 0.73122 0.39159
 C478 C 0.44437 0.73354 0.43176
 C479 C 0.46579 0.74216 0.41786
 N480 N 0.46440 0.74473 0.39164
 H481 H 0.52202 0.80356 0.37913
 H482 H 0.52488 0.72708 0.40719
 H483 H 0.56433 0.73709 0.43247
 H484 H 0.56100 0.81498 0.40385
 H485 H 0.44158 0.74233 0.35767
 H486 H 0.40292 0.72698 0.38088
 H487 H 0.44564 0.73115 0.45257
 H488 H 0.48347 0.74660 0.42799
 C489 C 0.46401 0.82766 0.32620
 C490 C 0.52333 0.68753 0.32289
 C491 C 0.42155 0.72788 0.41843
 C492 C 0.56538 0.77687 0.42013
 Si493 Si 0.36750 0.00450 0.24649
 Si494 Si 0.12474 1.00673 0.75048
 Si495 Si 0.62548 0.50931 0.25263
 Si496 Si 0.86522 0.50281 0.75059
 Si497 Si 0.24952 0.36165 0.00639
 Si498 Si 0.75084 0.12643 1.00488
 Si499 Si 0.24964 0.62534 0.50611
 Si500 Si 0.74718 0.86254 0.50437
 Si501 Si -0.00042 0.24877 0.36379
 Si502 Si 1.00570 0.75294 0.12397
 Si503 Si 0.50155 0.25135 0.62503
 Si504 Si 0.50259 0.74867 0.86346
 C505 C 0.41262 -0.06322 0.27354
 C506 C 0.40776 -0.08708 0.26136
 C507 C 0.41977 -0.10972 0.27085
 C508 C 0.43644 -0.10838 0.29257
 C509 C 0.44190 -0.08438 0.30426
 C510 C 0.42996 -0.06173 0.29470
 C511 C 0.43555 -0.03801 0.30681
 C512 C 0.45247 -0.03669 0.32778
 C513 C 0.46415 -0.05883 0.33714
 C514 C 0.45898 -0.08245 0.32560
 C515 C 0.41455 -0.13336 0.25842
 C516 C 0.39791 -0.13461 0.23721
 C517 C 0.38607 -0.11250 0.22799
 C518 C 0.39085 -0.08897 0.23987
 C519 C 0.44690 -0.13175 0.30375
 C520 C 0.45514 -0.15097 0.31385
 C521 C 0.39903 -0.04046 0.26489
 C522 C 0.38703 -0.02202 0.25769
 H523 H 0.42696 -0.02026 0.30019
 H524 H 0.45655 -0.01838 0.33681
 H525 H 0.47728 -0.05770 0.35343
 H526 H 0.46858 -0.09913 0.33354
 H527 H 0.42332 -0.15107 0.26489
 H528 H 0.39415 -0.15285 0.22791
 H529 H 0.37310 -0.11358 0.21157
 H530 H 0.38116 -0.07232 0.23205
 C531 C 0.91135 0.43545 0.77674
 C532 C 0.91157 0.41322 0.76108
 C533 C 0.92352 0.39044 0.77033
 C534 C 0.93519 0.39006 0.79515
 C535 C 0.93562 0.41254 0.81048
 C536 C 0.92365 0.43529 0.80125
 C537 C 0.92409 0.45744 0.81701
 C538 C 0.93607 0.45714 0.84121
 C539 C 0.94780 0.43490 0.85025
 C540 C 0.94763 0.41281 0.83516
 C541 C 0.92330 0.36839 0.75445
 C542 C 0.91165 0.36883 0.73008
 C543 C 0.90000 0.39111 0.72102
 C544 C 0.89986 0.41309 0.73627
 C545 C 0.94582 0.36638 0.80551
 C546 C 0.95427 0.34703 0.81517
 C547 C 0.89745 0.45805 0.76817
 C548 C 0.88520 0.47639 0.76120
 H549 H 0.91527 0.47522 0.81080
 H550 H 0.93625 0.47426 0.85301
 H551 H 0.95708 0.43477 0.86906
 H552 H 0.95705 0.39600 0.84303
 H553 H 0.93218 0.35064 0.76066
 H554 H 0.91169 0.35181 0.71816
 H555 H 0.89104 0.39137 0.70205
 H556 H 0.89059 0.42997 0.72837
 C557 C 0.08152 1.07496 0.77802
 C558 C 0.08008 1.07926 0.80501
 C559 C 0.06829 1.10188 0.81440
 C560 C 0.05801 1.12009 0.79675
 C561 C 0.05925 1.11567 0.76977
 C562 C 0.07104 1.09303 0.76037
 C563 C 0.07214 1.08908 0.73332
 C564 C 0.06187 1.10697 0.71603
 C565 C 0.05034 1.12909 0.72522
 C566 C 0.04899 1.13349 0.75176
 C567 C 0.06716 1.10577 0.84148
 C568 C 0.07737 1.08784 0.85876
 C569 C 0.08890 1.06573 0.84957
 C570 C 0.09032 1.06140 0.82303
 C571 C 0.04624 1.14331 0.80646
 C572 C 0.03654 1.16231 0.81525
 C573 C 0.09452 1.05237 0.76849
 C574 C 0.10598 1.03385 0.76100
 H575 H 0.08090 1.07214 0.72526
 H576 H 0.06287 1.10364 0.69540
 H577 H 0.04239 1.14292 0.71170
 H578 H 0.03984 1.15098 0.75798
 H579 H 0.05838 1.12266 0.84959
 H580 H 0.07631 1.09112 0.87940
 H581 H 0.09676 1.05184 0.86307
 H582 H 0.09947 1.04390 0.81684
 C583 C 0.58042 0.57810 0.27520
 C584 C 0.59043 0.60242 0.26781
 C585 C 0.57814 0.62520 0.27610
 C586 C 0.55590 0.62352 0.29169
 C587 C 0.54549 0.59919 0.29847
 C588 C 0.55780 0.57640 0.29021
 C589 C 0.54718 0.55230 0.29738
 C590 C 0.52498 0.55074 0.31229
 C591 C 0.51293 0.57301 0.32037
 C592 C 0.52298 0.59700 0.31361
 C593 C 0.58861 0.64929 0.26866
 C594 C 0.61059 0.65083 0.25342
 C595 C 0.62261 0.62856 0.24529
 C596 C 0.61274 0.60458 0.25236
 C597 C 0.54431 0.64671 0.30169
 C598 C 0.53475 0.66559 0.31084
 C599 C 0.59388 0.55494 0.26799
 C600 C 0.60582 0.53619 0.26200
 H601 H 0.55585 0.53445 0.29151
 H602 H 0.51709 0.53216 0.31758
 H603 H 0.49569 0.57170 0.33195
 H604 H 0.51288 0.61377 0.32033
 H605 H 0.57990 0.66715 0.27446
 H606 H 0.61833 0.66941 0.24788
 H607 H 0.63967 0.62985 0.23345
 H608 H 0.62276 0.58781 0.24552
 C609 C 0.58325 0.43972 0.22532
 C610 C 0.58201 0.43516 0.19835
 C611 C 0.57131 0.41177 0.18901
 C612 C 0.56200 0.39304 0.20671
 C613 C 0.56314 0.39767 0.23368
 C614 C 0.57383 0.42108 0.24301
 C615 C 0.57506 0.42518 0.27006
 C616 C 0.56594 0.40668 0.28739
 C617 C 0.55543 0.38381 0.27826
 C618 C 0.55399 0.37925 0.25172
 C619 C 0.57040 0.40760 0.16194
 C620 C 0.57990 0.42595 0.14465
 C621 C 0.59046 0.44878 0.15380
 C622 C 0.59152 0.45345 0.18031
 C623 C 0.55180 0.36887 0.19702
 C624 C 0.54370 0.34909 0.18796
 C625 C 0.59541 0.46302 0.23477
 C626 C 0.60649 0.48201 0.24218
 H627 H 0.58307 0.44267 0.27808
 H628 H 0.56706 0.41011 0.30802
 H629 H 0.54837 0.36950 0.29180
 H630 H 0.54567 0.36117 0.24553
 H631 H 0.56240 0.39014 0.15385
 H632 H 0.57909 0.42242 0.12402
 H633 H 0.59786 0.46296 0.14030
 H634 H 0.59989 0.47152 0.18647
 C635 C 0.07958 0.93811 0.72515
 C636 C 0.07505 0.93480 0.69832
 C637 C 0.06400 0.91149 0.68916
 C638 C 0.05756 0.89162 0.70689
 C639 C 0.06148 0.89520 0.73377
 C640 C 0.07254 0.91852 0.74293
 C641 C 0.07652 0.92158 0.76987
 C642 C 0.06972 0.90216 0.78727
 C643 C 0.05889 0.87937 0.77831
 C644 C 0.05477 0.87582 0.75188
 C645 C 0.05986 0.90856 0.66221
 C646 C 0.06643 0.92808 0.64484
 C647 C 0.07723 0.95087 0.65381
 C648 C 0.08157 0.95429 0.68022
 C649 C 0.04766 0.86731 0.69725
 C650 C 0.03988 0.84737 0.68826
 C651 C 0.09282 0.96102 0.73418
 C652 C 0.10476 0.97969 0.74111
 H653 H 0.08485 0.93899 0.77775
 H654 H 0.07288 0.90482 0.80782
 H655 H 0.05363 0.86435 0.79191
 H656 H 0.04627 0.85778 0.74582
 H657 H 0.05148 0.89120 0.65427
 H658 H 0.06311 0.92552 0.62431
 H659 H 0.08226 0.96600 0.64025
 H660 H 0.08998 0.97238 0.68624
 C661 C 0.91004 0.57267 0.72749
 C662 C 0.92872 0.57179 0.70772
 C663 C 0.94126 0.59476 0.69951
 C664 C 0.93501 0.61849 0.71110
 C665 C 0.91672 0.61928 0.73125
 C666 C 0.90421 0.59629 0.73949
 C667 C 0.88592 0.59757 0.75961
 C668 C 0.88020 0.62088 0.77129
 C669 C 0.89241 0.64335 0.76321
 C670 C 0.91047 0.64268 0.74341
 C671 C 0.95980 0.59339 0.67962
 C672 C 0.96576 0.57003 0.66819
 C673 C 0.95348 0.54758 0.67622
 C674 C 0.93515 0.54833 0.69574
 C675 C 0.94690 0.64206 0.70166
 C676 C 0.95687 0.66118 0.69288
 C677 C 0.89630 0.54944 0.73498
 C678 C 0.88439 0.53045 0.74112
 H679 H 0.87592 0.58061 0.76659
 H680 H 0.86624 0.62150 0.78673
 H681 H 0.88788 0.66141 0.77234
 H682 H 0.91950 0.66065 0.73781
 H683 H 0.96991 0.61031 0.67272
 H684 H 0.98000 0.56934 0.65302
 H685 H 0.95819 0.52947 0.66728
 H686 H 0.92615 0.53036 0.70135
 C687 C 0.41352 0.07437 0.22599
 C688 C 0.43316 0.07345 0.20720
 C689 C 0.44595 0.09643 0.19942
 C690 C 0.43898 0.12021 0.21048
 C691 C 0.41981 0.12102 0.22977
 C692 C 0.40705 0.09802 0.23758
 C693 C 0.38786 0.09932 0.25683
 C694 C 0.38151 0.12267 0.26809
 C695 C 0.39396 0.14516 0.26042
 C696 C 0.41289 0.14446 0.24147
 C697 C 0.46543 0.09504 0.18048
 C698 C 0.47209 0.07162 0.16955
 C699 C 0.45957 0.04916 0.17714
 C700 C 0.44031 0.04995 0.19574
 C701 C 0.45092 0.14382 0.20121
 C702 C 0.46087 0.16298 0.19252
 C703 C 0.39939 0.05116 0.23278
 C704 C 0.38715 0.03218 0.23823
 H705 H 0.37766 0.08235 0.26346
 H706 H 0.36688 0.12331 0.28287
 H707 H 0.38894 0.16324 0.26923
 H708 H 0.42209 0.16244 0.23618
 H709 H 0.47577 0.11197 0.17395
 H710 H 0.48705 0.07091 0.15510
 H711 H 0.46481 0.03102 0.16860
 H712 H 0.43115 0.03196 0.20106
 C713 C 0.27584 0.40767 -0.06162
 C714 C 0.26059 0.40825 -0.08441
 C715 C 0.27023 0.42022 -0.10721
 C716 C 0.29508 0.43150 -0.10708
 C717 C 0.31017 0.43125 -0.08415
 C718 C 0.30053 0.41924 -0.06137
 C719 C 0.31612 0.41885 -0.03880
 C720 C 0.34051 0.43007 -0.03872
 C721 C 0.34991 0.44190 -0.06096
 C722 C 0.33501 0.44254 -0.08346
 C723 C 0.25475 0.42036 -0.12982
 C724 C 0.23043 0.40893 -0.12993
 C725 C 0.22102 0.39717 -0.10765
 C726 C 0.23583 0.39679 -0.08509
 C727 C 0.30564 0.44246 -0.13068
 C728 C 0.31529 0.45123 -0.15000
 C729 C 0.26671 0.39402 -0.03887
 C730 C 0.25954 0.38187 -0.02034
 H731 H 0.30964 0.40990 -0.02101
 H732 H 0.35217 0.42957 -0.02130
 H733 H 0.36886 0.45061 -0.06079
 H734 H 0.34319 0.45196 -0.10026
 H735 H 0.26125 0.42927 -0.14762
 H736 H 0.21884 0.40919 -0.14740
 H737 H 0.20213 0.38829 -0.10783
 H738 H 0.22766 0.38744 -0.06824
 C739 C 0.77045 0.90840 0.43500
 C740 C 0.76262 0.89919 0.41042
 C741 C 0.77182 0.91139 0.38755
 C742 C 0.78878 0.93270 0.38941
 C743 C 0.79580 0.94250 0.41401
 C744 C 0.78659 0.93031 0.43687
 C745 C 0.79403 0.94030 0.46124
 C746 C 0.81011 0.96176 0.46297
 C747 C 0.81913 0.97368 0.44062
 C748 C 0.81214 0.96424 0.41637
 C749 C 0.76392 0.90171 0.36320
 C750 C 0.74737 0.88060 0.36148
 C751 C 0.73836 0.86867 0.38384
 C752 C 0.74585 0.87776 0.40808
 C753 C 0.80016 0.94365 0.36618
 C754 C 0.81049 0.95235 0.34718
 C755 C 0.76275 0.89463 0.45823
 C756 C 0.75654 0.88244 0.47711
 H757 H 0.78745 0.93170 0.47917
 H758 H 0.81558 0.96918 0.48176
 H759 H 0.83161 0.99035 0.44207
 H760 H 0.81959 0.97422 0.39954
 H761 H 0.77036 0.91040 0.34527
 H762 H 0.74149 0.87347 0.34269
 H763 H 0.72548 0.85231 0.38240
 H764 H 0.73829 0.86786 0.42491
 C765 C 0.77803 0.08219 1.07386
 C766 C 0.76232 0.06407 1.08697
 C767 C 0.77135 0.05215 1.11010
 C768 C 0.79605 0.05842 1.11995
 C769 C 0.81184 0.07642 1.10672
 C770 C 0.80281 0.08832 1.08360
 C771 C 0.81895 0.10625 1.07071
 C772 C 0.84330 0.11224 1.08038
 C773 C 0.85211 0.10063 1.10300
 C774 C 0.83666 0.08292 1.11610
 C775 C 0.75529 0.03413 1.12289
 C776 C 0.73099 0.02805 1.11311
 C777 C 0.72216 0.03971 1.09050
 C778 C 0.73756 0.05754 1.07750
 C779 C 0.80545 0.04621 1.14349
 C780 C 0.81402 0.03620 1.16278
 C781 C 0.76854 0.09519 1.05083
 C782 C 0.76112 0.10688 1.03207
 H783 H 0.81298 0.11579 1.05302
 H784 H 0.85540 0.12593 1.07024
 H785 H 0.87105 0.10535 1.11045
 H786 H 0.84439 0.07442 1.13363
 H787 H 0.76132 0.02457 1.14054
 H788 H 0.71895 0.01421 1.12314
 H789 H 0.70327 0.03491 1.08299
 H790 H 0.72988 0.06608 1.05997
 C791 C 0.27439 0.58112 0.57614
 C792 C 0.26928 0.59209 0.60059
 C793 C 0.27783 0.57960 0.62359
 C794 C 0.29157 0.55631 0.62200
 C795 C 0.29617 0.54506 0.59757
 C796 C 0.28754 0.55750 0.57458
 C797 C 0.29247 0.54596 0.55039
 C798 C 0.30557 0.52277 0.54895
 C799 C 0.31402 0.51061 0.57143
 C800 C 0.30945 0.52153 0.59551
 C801 C 0.27252 0.59094 0.64779
 C802 C 0.25915 0.61398 0.64923
 C803 C 0.25088 0.62624 0.62675
 C804 C 0.25585 0.61553 0.60265
 C805 C 0.30198 0.54453 0.64532
 C806 C 0.31140 0.53489 0.66438
 C807 C 0.26654 0.59447 0.55267
 C808 C 0.25997 0.60620 0.53361
 H809 H 0.28625 0.55470 0.53237
 H810 H 0.30917 0.51420 0.53029
 H811 H 0.32418 0.49259 0.57021
 H812 H 0.31636 0.51131 0.61245
 H813 H 0.27856 0.58211 0.66582
 H814 H 0.25522 0.62237 0.66791
 H815 H 0.24056 0.64417 0.62796
 H816 H 0.24909 0.62583 0.58572
 C817 C 0.22697 0.58017 0.43639
 C818 C 0.20569 0.56308 0.43663
 C819 C 0.19690 0.55185 0.41315
 C820 C 0.20944 0.55781 0.38957
 C821 C 0.23134 0.57411 0.38950
 C822 C 0.24015 0.58532 0.41300
 C823 C 0.26197 0.60173 0.41243
 C824 C 0.27474 0.60687 0.38931
 C825 C 0.26609 0.59595 0.36634
 C826 C 0.24463 0.57975 0.36631
 C827 C 0.17542 0.53502 0.41383
 C828 C 0.16300 0.52943 0.43705
 C829 C 0.17161 0.54042 0.46001
 C830 C 0.19269 0.55709 0.45991
 C831 C 0.19892 0.54823 0.36534
 C832 C 0.18916 0.54064 0.34556
 C833 C 0.23445 0.59354 0.45986
 C834 C 0.24049 0.60551 0.47886
 H835 H 0.26946 0.61064 0.42981
 H836 H 0.29147 0.61935 0.38924
 H837 H 0.27607 0.60001 0.34843
 H838 H 0.23866 0.57164 0.34797
 H839 H 0.16804 0.52594 0.39650
 H840 H 0.14662 0.51648 0.43722
 H841 H 0.16191 0.53601 0.47799
 H842 H 0.19872 0.56513 0.47826
 C843 C 0.72732 0.08451 0.93344
 C844 C 0.72105 0.05802 0.93268
 C845 C 0.71241 0.04678 0.90913
 C846 C 0.71013 0.06210 0.88649
 C847 C 0.71708 0.08844 0.88710
 C848 C 0.72567 0.09969 0.91064
 C849 C 0.73222 0.12615 0.91082
 C850 C 0.73032 0.14104 0.88840
 C851 C 0.72199 0.13002 0.86537
 C852 C 0.71543 0.10403 0.86461
 C853 C 0.70603 0.02031 0.90889
 C854 C 0.70816 0.00536 0.93127
 C855 C 0.71662 0.01636 0.95428
 C856 C 0.72301 0.04239 0.95510
 C857 C 0.69927 0.05121 0.86299
 C858 C 0.68935 0.04271 0.84366
 C859 C 0.73497 0.09644 0.95764
 C860 C 0.74124 0.10745 0.97715
 H861 H 0.73884 0.13562 0.92824
 H862 H 0.73529 0.16126 0.88892
 H863 H 0.72058 0.14167 0.84799
 H864 H 0.70910 0.09633 0.84621
 H865 H 0.69942 0.01089 0.89143
 H866 H 0.70322 -0.01487 0.93074
 H867 H 0.71825 0.00467 0.97161
 H868 H 0.72951 0.05010 0.97344
 C869 C 0.72248 0.90675 0.57353
 C870 C 0.73444 0.93013 0.58090
 C871 C 0.72637 0.94292 0.60366
 C872 C 0.70639 0.93226 0.61890
 C873 C 0.69454 0.90878 0.61161
 C874 C 0.70260 0.89600 0.58886
 C875 C 0.69044 0.87257 0.58195
 C876 C 0.67093 0.86204 0.59712
 C877 C 0.66304 0.87454 0.61936
 C878 C 0.67463 0.89764 0.62661
 C879 C 0.73858 0.96629 0.61061
 C880 C 0.75822 0.97671 0.59552
 C881 C 0.76612 0.96419 0.57328
 C882 C 0.75443 0.94115 0.56595
 C883 C 0.69747 0.94565 0.64170
 C884 C 0.68925 0.95656 0.66041
 C885 C 0.73077 0.89348 0.55045
 C886 C 0.73743 0.88176 0.53164
 H887 H 0.69587 0.86212 0.56480
 H888 H 0.66191 0.84408 0.59160
 H889 H 0.64787 0.86629 0.63108
 H890 H 0.66784 0.90660 0.64411
 H891 H 0.73311 0.97670 0.62776
 H892 H 0.76736 0.99459 0.60113
 H893 H 0.78138 0.97237 0.56163
 H894 H 0.76122 0.93213 0.54848
 C895 C 0.22363 0.40493 0.07569
 C896 C 0.23750 0.42615 0.08578
 C897 C 0.22856 0.43880 0.10828
 C898 C 0.20579 0.43013 0.12055
 C899 C 0.19198 0.40882 0.11050
 C900 C 0.20091 0.39620 0.08799
 C901 C 0.18673 0.37499 0.07825
 C902 C 0.16438 0.36648 0.09042
 C903 C 0.15566 0.37880 0.11244
 C904 C 0.16921 0.39973 0.12245
 C905 C 0.24272 0.46000 0.11800
 C906 C 0.26510 0.46847 0.10583
 C907 C 0.27385 0.45609 0.08383
 C908 C 0.26028 0.43517 0.07383
 C909 C 0.19621 0.44340 0.14314
 C910 C 0.18759 0.45433 0.16164
 C911 C 0.23272 0.39186 0.05281
 C912 C 0.23980 0.38036 0.03403
 H913 H 0.19271 0.36476 0.06117
 H914 H 0.15378 0.35023 0.08270
 H915 H 0.13828 0.37212 0.12183
 H916 H 0.16165 0.40865 0.13964
 H917 H 0.23669 0.47022 0.13507
 H918 H 0.27570 0.48471 0.11351
 H919 H 0.29124 0.46274 0.07446
 H920 H 0.26783 0.42617 0.05668
 C921 C -0.06833 0.27101 0.41068
 C922 C -0.09277 0.26261 0.40180
 C923 C -0.11539 0.27143 0.41410
 C924 C -0.11342 0.28858 0.43520
 C925 C -0.08893 0.29617 0.44470
 C926 C -0.06632 0.28736 0.43239
 C927 C -0.04207 0.29542 0.44203
 C928 C -0.04021 0.31170 0.46329
 C929 C -0.06231 0.32032 0.47534
 C930 C -0.08645 0.31272 0.46623
 C931 C -0.13961 0.26299 0.40472
 C932 C -0.14144 0.24628 0.38380
 C933 C -0.11933 0.23765 0.37176
 C934 C -0.09523 0.24567 0.38056
 C935 C -0.13644 0.29960 0.44617
 C936 C -0.15523 0.30973 0.45491
 C937 C -0.04543 0.26370 0.39673
 C938 C -0.02691 0.25778 0.38429
 H939 H -0.02434 0.28917 0.43332
 H940 H -0.02151 0.31765 0.47044
 H941 H -0.06076 0.33295 0.49185
 H942 H -0.10308 0.31989 0.47628
 H943 H -0.15734 0.26913 0.41351
 H944 H -0.16012 0.23998 0.37690
 H945 H -0.12085 0.22467 0.35552
 H946 H -0.07859 0.23838 0.37059
 C947 C 0.43394 0.77218 0.90853
 C948 C 0.40966 0.76384 0.89916
 C949 C 0.38681 0.77302 0.91073
 C950 C 0.38839 0.79047 0.93160
 C951 C 0.41269 0.79806 0.94158
 C952 C 0.43553 0.78889 0.92999
 C953 C 0.45960 0.79694 0.94010
 C954 C 0.46106 0.81357 0.96110
 C955 C 0.43873 0.82254 0.97245
 C956 C 0.41477 0.81496 0.96287
 C957 C 0.36276 0.76463 0.90087
 C958 C 0.36132 0.74761 0.88017
 C959 C 0.38366 0.73863 0.86884
 C960 C 0.40760 0.74659 0.87813
 C961 C 0.36517 0.80173 0.94192
 C962 C 0.34623 0.81198 0.95018
 C963 C 0.45712 0.76447 0.89530
 C964 C 0.47585 0.75820 0.88338
 H965 H 0.47749 0.79043 0.93194
 H966 H 0.47962 0.81952 0.96861
 H967 H 0.43997 0.83544 0.98877
 H968 H 0.39795 0.82241 0.97239
 H969 H 0.34486 0.77104 0.90909
 H970 H 0.34277 0.74136 0.87289
 H971 H 0.38244 0.72540 0.85277
 H972 H 0.42442 0.73902 0.86871
 C973 C 1.07493 0.77671 0.07906
 C974 C 1.09908 0.76912 0.08918
 C975 C 1.12208 0.77767 0.07705
 C976 C 1.12078 0.79373 0.05487
 C977 C 1.09661 0.80074 0.04436
 C978 C 1.07361 0.79221 0.05651
 C979 C 1.04968 0.79962 0.04579
 C980 C 1.04849 0.81500 0.02365
 C981 C 1.07096 0.82335 0.01175
 C982 C 1.09480 0.81637 0.02190
 C983 C 1.14600 0.77000 0.08762
 C984 C 1.14716 0.75429 0.10954
 C985 C 1.12468 0.74591 0.12140
 C986 C 1.10086 0.75319 0.11144
 C987 C 1.14420 0.80388 0.04342
 C988 C 1.16329 0.81309 0.03392
 C989 C 1.05157 0.76917 0.09238
 C990 C 1.03268 0.76286 0.10426
 H991 H 1.03167 0.79357 0.05434
 H992 H 1.03002 0.82047 0.01568
 H993 H 1.06994 0.83529 -0.00545
 H994 H 1.11174 0.82330 0.01193
 H995 H 1.16401 0.77600 0.07904
 H996 H 1.16562 0.74859 0.11735
 H997 H 1.12568 0.73370 0.13841
 H998 H 1.08392 0.74614 0.12134
 C999 C 0.57065 0.27650 0.58073
 C1000 C 0.59285 0.26098 0.58205
 C1001 C 0.61611 0.26963 0.57050
 C1002 C 0.61701 0.29373 0.55769
 C1003 C 0.59470 0.30912 0.55612
 C1004 C 0.57147 0.30050 0.56773
 C1005 C 0.54951 0.31634 0.56622
 C1006 C 0.55046 0.34002 0.55354
 C1007 C 0.57314 0.34843 0.54210
 C1008 C 0.59506 0.33324 0.54331
 C1009 C 0.63811 0.25388 0.57224
 C1010 C 0.63716 0.23026 0.58507
 C1011 C 0.61442 0.22180 0.59637
 C1012 C 0.59246 0.23689 0.59494
 C1013 C 0.64092 0.30309 0.54660
 C1014 C 0.66041 0.31172 0.53737
 C1015 C 0.54734 0.26830 0.59374
 C1016 C 0.52847 0.26156 0.60540
 H1017 H 0.53141 0.31061 0.57480
 H1018 H 0.53350 0.35190 0.55259
 H1019 H 0.57378 0.36683 0.53226
 H1020 H 0.61224 0.34064 0.53412
 H1021 H 0.65623 0.25965 0.56374
 H1022 H 0.65417 0.21846 0.58624
 H1023 H 0.61378 0.20343 0.60630
 H1024 H 0.57522 0.22946 0.60400
 C1025 C 0.43226 0.22381 0.58192
 C1026 C 0.42294 0.19907 0.58877
 C1027 C 0.39991 0.18951 0.57734
 C1028 C 0.38631 0.20474 0.55910
 C1029 C 0.39574 0.22939 0.55211
 C1030 C 0.41880 0.23896 0.56356
 C1031 C 0.42782 0.26367 0.55633
 C1032 C 0.41446 0.27852 0.53828
 C1033 C 0.39192 0.26917 0.52709
 C1034 C 0.38257 0.24490 0.53385
 C1035 C 0.39096 0.16474 0.58456
 C1036 C 0.40436 0.14987 0.60256
 C1037 C 0.42688 0.15923 0.61375
 C1038 C 0.43615 0.18352 0.60701
 C1039 C 0.36272 0.19486 0.54761
 C1040 C 0.34335 0.18565 0.53854
 C1041 C 0.45527 0.23377 0.59443
 C1042 C 0.47409 0.24134 0.60581
 H1043 H 0.44528 0.27173 0.56451
 H1044 H 0.42164 0.29739 0.53296
 H1045 H 0.38161 0.28079 0.51308
 H1046 H 0.36496 0.23844 0.52464
 H1047 H 0.37353 0.15658 0.57642
 H1048 H 0.39723 0.13098 0.60785
 H1049 H 0.43724 0.14760 0.62770
 H1050 H 0.45378 0.18991 0.61624
 C1051 C 0.93611 0.72578 0.08121
 C1052 C 0.91743 0.74328 0.07198
 C1053 C 0.89406 0.73392 0.06103
 C1054 C 0.88951 0.70712 0.05947
 C1055 C 0.90827 0.68963 0.06861
 C1056 C 0.93161 0.69899 0.07955
 C1057 C 0.94993 0.68115 0.08888
 C1058 C 0.94532 0.65480 0.08743
 C1059 C 0.92253 0.64563 0.07665
 C1060 C 0.90416 0.66274 0.06731
 C1061 C 0.87562 0.75176 0.05206
 C1062 C 0.88010 0.77812 0.05393
 C1063 C 0.90291 0.78727 0.06471
 C1064 C 0.92145 0.77014 0.07365
 C1065 C 0.86538 0.69737 0.04903
 C1066 C 0.84564 0.68821 0.04078
 C1067 C 0.95940 0.73522 0.09357
 C1068 C 0.97838 0.74259 0.10480
 H1069 H 0.96797 0.68733 0.09741
 H1070 H 0.95952 0.64144 0.09470
 H1071 H 0.91904 0.62514 0.07553
 H1072 H 0.88674 0.65463 0.05912
 H1073 H 0.85758 0.74553 0.04356
 H1074 H 0.86577 0.79151 0.04701
 H1075 H 0.90628 0.80776 0.06615
 H1076 H 0.93890 0.77818 0.08187
 C1077 C 0.57233 0.72316 0.90677
 C1078 C 0.59029 0.74131 0.91648
 C1079 C 0.61330 0.73278 0.92864
 C1080 C 0.61823 0.70615 0.93095
 C1081 C 0.60036 0.68801 0.92099
 C1082 C 0.57736 0.69654 0.90883
 C1083 C 0.55989 0.67806 0.89883
 C1084 C 0.56498 0.65188 0.90079
 C1085 C 0.58742 0.64352 0.91276
 C1086 C 0.60496 0.66128 0.92279
 C1087 C 0.63098 0.75128 0.93817
 C1088 C 0.62611 0.77747 0.93567
 C1089 C 0.60364 0.78581 0.92371
 C1090 C 0.58586 0.76803 0.91421
 C1091 C 0.64155 0.69728 0.94364
 C1092 C 0.66052 0.68906 0.95424
 C1093 C 0.54906 0.73179 0.89393
 C1094 C 0.53005 0.73868 0.88253
 H1095 H 0.54215 0.68360 0.88935
 H1096 H 0.55143 0.63803 0.89299
 H1097 H 0.59128 0.62317 0.91427
 H1098 H 0.62216 0.65381 0.93187
 H1099 H 0.64874 0.74571 0.94757
 H1100 H 0.63986 0.79136 0.94302
 H1101 H 0.59998 0.80617 0.92177
 H1102 H 0.56866 0.77544 0.90505
 C1103 C 0.06985 0.22282 0.40592
 C1104 C 0.08778 0.24080 0.41600
 C1105 C 0.11092 0.23208 0.42777
 C1106 C 0.11599 0.20543 0.42932
 C1107 C 0.09815 0.18746 0.41899
 C1108 C 0.07503 0.19619 0.40723
 C1109 C 0.05757 0.17789 0.39685
 C1110 C 0.06280 0.15170 0.39808
 C1111 C 0.08537 0.14315 0.40966
 C1112 C 0.10289 0.16072 0.42004
 C1113 C 0.12857 0.25040 0.43767
 C1114 C 0.12355 0.27662 0.43592
 C1115 C 0.10096 0.28515 0.42436
 C1116 C 0.08320 0.26754 0.41449
 C1117 C 0.13943 0.19634 0.44161
 C1118 C 0.15850 0.18791 0.45185
 C1119 C 0.04645 0.23166 0.39347
 C1120 C 0.02731 0.23867 0.38239
 H1121 H 0.03975 0.18358 0.38766
 H1122 H 0.04927 0.13799 0.39001
 H1123 H 0.08934 0.12279 0.41059
 H1124 H 0.12019 0.15310 0.42880
 H1125 H 0.14643 0.24468 0.44679
 H1126 H 0.13728 0.29038 0.44355
 H1127 H 0.09717 0.30554 0.42301
 H1128 H 0.06590 0.27510 0.40567
 C1129 C 0.53056 0.18309 0.66827
 C1130 C 0.55749 0.18092 0.67150
 C1131 C 0.56796 0.15844 0.68301
 C1132 C 0.55144 0.13825 0.69120
 C1133 C 0.52449 0.14051 0.68811
 C1134 C 0.51402 0.16300 0.67656
 C1135 C 0.48705 0.16474 0.67341
 C1136 C 0.47088 0.14483 0.68149
 C1137 C 0.48112 0.12286 0.69284
 C1138 C 0.50761 0.12062 0.69616
 C1139 C 0.59498 0.15665 0.68589
 C1140 C 0.61115 0.17646 0.67756
 C1141 C 0.60090 0.19843 0.66627
 C1142 C 0.57440 0.20075 0.66324
 C1143 C 0.56236 0.11504 0.70222
 C1144 C 0.57237 0.09606 0.71101
 C1145 C 0.52010 0.20557 0.65544
 C1146 C 0.51213 0.22411 0.64401
 H1147 H 0.47820 0.18145 0.66468
 H1148 H 0.45029 0.14647 0.67894
 H1149 H 0.46847 0.10746 0.69910
 H1150 H 0.51469 0.10317 0.70507
 H1151 H 0.60390 0.13996 0.69455
 H1152 H 0.63175 0.17474 0.67988
 H1153 H 0.61353 0.21377 0.65982
 H1154 H 0.56736 0.21824 0.65437
 C1155 C 1.03274 0.68471 0.16861
 C1156 C 1.05765 0.68489 0.17976
 C1157 C 1.06747 0.66222 0.19149
 C1158 C 1.05235 0.63947 0.19192
 C1159 C 1.02731 0.63938 0.18102
 C1160 C 1.01748 0.66208 0.16930
 C1161 C 0.99254 0.66145 0.15820
 C1162 C 0.97772 0.63905 0.15870
 C1163 C 0.98730 0.61688 0.17024
 C1164 C 1.01180 0.61693 0.18131
 C1165 C 1.09252 0.66283 0.20236
 C1166 C 1.10744 0.68516 0.20155
 C1167 C 1.09786 0.70730 0.18999
 C1168 C 1.07326 0.70729 0.17920
 C1169 C 1.06303 0.61601 0.20266
 C1170 C 1.07276 0.59679 0.21125
 C1171 C 1.02335 0.70741 0.15534
 C1172 C 1.01597 0.72597 0.14354
 H1173 H 0.98425 0.67822 0.14903
 H1174 H 0.95870 0.63890 0.15009
 H1175 H 0.97570 0.59953 0.17060
 H1176 H 1.01844 0.59922 0.19005
 H1177 H 1.10084 0.64609 0.21156
 H1178 H 1.12656 0.68527 0.20993
 H1179 H 1.10954 0.72459 0.18937
 H1180 H 1.06665 0.72500 0.17044
 C1181 C 0.97553 0.81899 0.16863
 C1182 C 0.95053 0.82710 0.16153
 C1183 C 0.93945 0.84857 0.17396
 C1184 C 0.95343 0.86182 0.19343
 C1185 C 0.97837 0.85364 0.20060
 C1186 C 0.98946 0.83214 0.18816
 C1187 C 1.01442 0.82431 0.19560
 C1188 C 1.02806 0.83735 0.21482
 C1189 C 1.01723 0.85838 0.22699
 C1190 C 0.99267 0.86652 0.22004
 C1191 C 0.91444 0.85634 0.16650
 C1192 C 0.90080 0.84327 0.14730
 C1193 C 0.91164 0.82228 0.13513
 C1194 C 0.93620 0.81420 0.14208
 C1195 C 0.94202 0.88386 0.20589
 C1196 C 0.93171 0.90201 0.21565
 C1197 C 0.98683 0.79735 0.15546
 C1198 C 0.99522 0.77946 0.14362
 H1199 H 1.02362 0.80805 0.18668
 H1200 H 1.04714 0.83111 0.22030
 H1201 H 1.02791 0.86845 0.24190
 H1202 H 0.98503 0.88297 0.23004
 H1203 H 0.90515 0.87255 0.17538
 H1204 H 0.88170 0.84948 0.14185
 H1205 H 0.90096 0.81217 0.12025
 H1206 H 0.94376 0.79774 0.13204
 C1207 C 0.47776 0.31828 0.67248
 C1208 C 0.48468 0.34319 0.66371
 C1209 C 0.47488 0.36516 0.67640
 C1210 C 0.45820 0.36205 0.69777
 C1211 C 0.45211 0.33714 0.70717
 C1212 C 0.46192 0.31518 0.69448
 C1213 C 0.45536 0.29047 0.70403
 C1214 C 0.43956 0.28753 0.72555
 C1215 C 0.42995 0.30900 0.73797
 C1216 C 0.43608 0.33357 0.72896
 C1217 C 0.48184 0.38987 0.66713
 C1218 C 0.49805 0.39280 0.64591
 C1219 C 0.50763 0.37132 0.63348
 C1220 C 0.50109 0.34675 0.64218
 C1221 C 0.44610 0.38432 0.70908
 C1222 C 0.43522 0.40258 0.71798
 C1223 C 0.48591 0.29596 0.65811
 C1224 C 0.49233 0.27778 0.64546
 H1225 H 0.46241 0.27319 0.69504
 H1226 H 0.43475 0.26849 0.73263
 H1227 H 0.41769 0.30662 0.75468
 H1228 H 0.42820 0.34969 0.73930
 H1229 H 0.47492 0.40715 0.67621
 H1230 H 0.50321 0.41184 0.63909
 H1231 H 0.52022 0.37369 0.61701
 H1232 H 0.50907 0.33064 0.63191
 C1233 C 0.47442 0.67995 0.82056
 C1234 C 0.44910 0.67954 0.81041
 C1235 C 0.43868 0.65638 0.80022
 C1236 C 0.45362 0.63374 0.80037
 C1237 C 0.47915 0.63432 0.81000
 C1238 C 0.48958 0.65750 0.82016
 C1239 C 0.51499 0.65752 0.83010
 C1240 C 0.52970 0.63528 0.82997
 C1241 C 0.51954 0.61262 0.81996
 C1242 C 0.49456 0.61204 0.81006
 C1243 C 0.41323 0.65637 0.79039
 C1244 C 0.39847 0.67859 0.79072
 C1245 C 0.40863 0.70122 0.80079
 C1246 C 0.43365 0.70181 0.81053
 C1247 C 0.44219 0.60964 0.79197
 C1248 C 0.43210 0.58969 0.78566
 C1249 C 0.48424 0.70297 0.83292
 C1250 C 0.49195 0.72169 0.84421
 H1251 H 0.52376 0.67469 0.83806
 H1252 H 0.54910 0.63563 0.83768
 H1253 H 0.53105 0.59540 0.81987
 H1254 H 0.48749 0.59397 0.80246
 H1255 H 0.40447 0.63925 0.78235
 H1256 H 0.37903 0.67824 0.78314
 H1257 H 0.39707 0.71842 0.80105
 H1258 H 0.44071 0.71988 0.81813
 C1259 C -0.02818 0.18010 0.32054
 C1260 C -0.05374 0.17919 0.31105
 C1261 C -0.06387 0.15590 0.30085
 C1262 C -0.04840 0.13364 0.30031
 C1263 C -0.02265 0.13472 0.30928
 C1264 C -0.01251 0.15802 0.31946
 C1265 C 0.01315 0.15855 0.32872
 C1266 C 0.02838 0.13668 0.32791
 C1267 C 0.01849 0.11391 0.31788
 C1268 C -0.00672 0.11283 0.30864
 C1269 C -0.08957 0.15540 0.29170
 C1270 C -0.10483 0.17725 0.29270
 C1271 C -0.09495 0.19999 0.30277
 C1272 C -0.06970 0.20107 0.31186
 C1273 C -0.05947 0.10938 0.29186
 C1274 C -0.06931 0.08934 0.28548
 C1275 C -0.01860 0.20319 0.33297
 C1276 C -0.01103 0.22191 0.34434
 H1277 H 0.02171 0.17582 0.33666
 H1278 H 0.04795 0.13741 0.33510
 H1279 H 0.03041 0.09698 0.31728
 H1280 H -0.01355 0.09469 0.30101
 H1281 H -0.09813 0.13817 0.28368
 H1282 H -0.12445 0.17651 0.28563
 H1283 H -0.10689 0.21690 0.30354
 H1284 H -0.06287 0.21921 0.31948
 C1285 C 0.02837 0.31781 0.32139
 C1286 C 0.01405 0.33196 0.30289
 C1287 C 0.02434 0.35515 0.29241
 C1288 C 0.04886 0.36401 0.30053
 C1289 C 0.06338 0.34958 0.31870
 C1290 C 0.05311 0.32641 0.32915
 C1291 C 0.06793 0.31238 0.34739
 C1292 C 0.09219 0.32100 0.35508
 C1293 C 0.10223 0.34368 0.34488
 C1294 C 0.08809 0.35788 0.32691
 C1295 C 0.00964 0.36904 0.27403
 C1296 C -0.01454 0.36027 0.26621
 C1297 C -0.02461 0.33761 0.27647
 C1298 C -0.01056 0.32353 0.29462
 C1299 C 0.05913 0.38817 0.29075
 C1300 C 0.06855 0.40818 0.28354
 C1301 C 0.01751 0.29491 0.33332
 C1302 C 0.00949 0.27617 0.34448
 H1303 H 0.06101 0.29459 0.35587
 H1304 H 0.10326 0.31002 0.36902
 H1305 H 0.12109 0.35031 0.35092
 H1306 H 0.09678 0.37538 0.31953
 H1307 H 0.01669 0.38677 0.26550
 H1308 H -0.02554 0.37113 0.25211
 H1309 H -0.04340 0.33088 0.27033
 H1310 H -0.01914 0.30599 0.30205
 C1311 C 0.53194 0.81704 0.82038
 C1312 C 0.51758 0.83116 0.80190
 C1313 C 0.52787 0.85431 0.79134
 C1314 C 0.55242 0.86317 0.79937
 C1315 C 0.56701 0.84872 0.81748
 C1316 C 0.55674 0.82558 0.82800
 C1317 C 0.57161 0.81155 0.84620
 C1318 C 0.59592 0.82014 0.85378
 C1319 C 0.60596 0.84278 0.84349
 C1320 C 0.59177 0.85698 0.82555
 C1321 C 0.51312 0.86821 0.77300
 C1322 C 0.48888 0.85946 0.76529
 C1323 C 0.47883 0.83683 0.77563
 C1324 C 0.49293 0.82276 0.79374
 C1325 C 0.56259 0.88739 0.78966
 C1326 C 0.57187 0.90748 0.78254
 C1327 C 0.52101 0.79430 0.83253
 C1328 C 0.51285 0.77572 0.84388
 H1329 H 0.56469 0.79379 0.85473
 H1330 H 0.60703 0.80916 0.86768
 H1331 H 0.62486 0.84939 0.84943
 H1332 H 0.60046 0.87445 0.81810
 H1333 H 0.52016 0.88591 0.76442
 H1334 H 0.47785 0.87031 0.75123
 H1335 H 0.46000 0.83012 0.76958
 H1336 H 0.48435 0.80524 0.80123
 C1337 C 0.67019 0.53590 0.18409
 C1338 C 0.68117 0.56086 0.18381
 C1339 C 0.69293 0.57044 0.16092
 C1340 C 0.69353 0.55503 0.13841
 C1341 C 0.68282 0.52995 0.13880
 C1342 C 0.67108 0.52036 0.16172
 C1343 C 0.66018 0.49535 0.16158
 C1344 C 0.66089 0.48025 0.13942
 C1345 C 0.67242 0.48961 0.11702
 C1346 C 0.68330 0.51416 0.11661
 C1347 C 0.70363 0.59553 0.16105
 C1348 C 0.70264 0.61073 0.18314
 C1349 C 0.69104 0.60138 0.20549
 C1350 C 0.68041 0.57674 0.20595
 C1351 C 0.70421 0.56551 0.11466
 C1352 C 0.71273 0.57518 0.09521
 C1353 C 0.65688 0.52675 0.20697
 C1354 C 0.64506 0.51952 0.22563
 H1355 H 0.65102 0.48722 0.17854
 H1356 H 0.65244 0.46118 0.13964
 H1357 H 0.67293 0.47779 0.09987
 H1358 H 0.69207 0.52061 0.09874
 H1359 H 0.71287 0.60367 0.14415
 H1360 H 0.71089 0.62988 0.18288
 H1361 H 0.69027 0.61328 0.22258
 H1362 H 0.67162 0.57032 0.22381
 C1363 C 0.16897 1.03061 0.68052
 C1364 C 0.18564 1.05220 0.68132
 C1365 C 0.19746 1.06122 0.65823
 C1366 C 0.19251 1.04859 0.63448
 C1367 C 0.17651 1.02649 0.63384
 C1368 C 0.16470 1.01745 0.65695
 C1369 C 0.14862 0.99542 0.65583
 C1370 C 0.14438 0.98265 0.63254
 C1371 C 0.15590 0.99151 0.60994
 C1372 C 0.17179 1.01319 0.61046
 C1373 C 0.21390 1.08299 0.65948
 C1374 C 0.21852 1.09546 0.68286
 C1375 C 0.20694 1.08664 0.70544
 C1376 C 0.19066 1.06527 0.70479
 C1377 C 0.20287 1.05921 0.61065
 C1378 C 0.21117 1.06912 0.59124
 C1379 C 0.15541 1.02259 0.70369
 C1380 C 0.14361 1.01621 0.72267
 H1381 H 0.13925 0.98778 0.67290
 H1382 H 0.13212 0.96577 0.63203
 H1383 H 0.15254 0.98152 0.59190
 H1384 H 0.18039 1.01933 0.59241
 H1385 H 0.22340 1.09055 0.64246
 H1386 H 0.23116 1.11206 0.68346
 H1387 H 0.21059 1.09639 0.72355
 H1388 H 0.18214 1.05909 0.72287
 C1389 C 0.17320 0.97965 0.81656
 C1390 C 0.17192 0.99207 0.84082
 C1391 C 0.18474 0.98136 0.86269
 C1392 C 0.19873 0.95831 0.86013
 C1393 C 0.20079 0.94643 0.83565
 C1394 C 0.18797 0.95713 0.81379
 C1395 C 0.19006 0.94476 0.78957
 C1396 C 0.20443 0.92245 0.78701
 C1397 C 0.21697 0.91198 0.80839
 C1398 C 0.21523 0.92374 0.83247
 C1399 C 0.18300 0.99396 0.88680
 C1400 C 0.16903 1.01654 0.88923
 C1401 C 0.15650 1.02702 0.86785
 C1402 C 0.15782 1.01499 0.84387
 C1403 C 0.20987 0.94601 0.88281
 C1404 C 0.21861 0.93483 0.90133
 C1405 C 0.15829 0.98922 0.79480
 C1406 C 0.14534 0.99659 0.77689
 H1407 H 0.18069 0.95221 0.77237
 H1408 H 0.20584 0.91326 0.76834
 H1409 H 0.22811 0.89466 0.80630
 H1410 H 0.22538 0.91488 0.84850
 H1411 H 0.19248 0.98655 0.90397
 H1412 H 0.16794 1.02597 0.90781
 H1413 H 0.14573 1.04460 0.86983
 H1414 H 0.14779 1.02389 0.82779
 C1415 C 0.66936 0.47843 0.32009
 C1416 C 0.68872 0.49211 0.33371
 C1417 C 0.70096 0.48062 0.35553
 C1418 C 0.69374 0.45555 0.36356
 C1419 C 0.67441 0.44184 0.34986
 C1420 C 0.66219 0.45331 0.32807
 C1421 C 0.64289 0.43924 0.31470
 C1422 C 0.63589 0.41455 0.32264
 C1423 C 0.64784 0.40333 0.34396
 C1424 C 0.66689 0.41672 0.35748
 C1425 C 0.72024 0.49465 0.36887
 C1426 C 0.72724 0.51934 0.36088
 C1427 C 0.71526 0.53057 0.33956
 C1428 C 0.69620 0.51719 0.32605
 C1429 C 0.70604 0.44370 0.38587
 C1430 C 0.71565 0.43297 0.40421
 C1431 C 0.65645 0.49008 0.29806
 C1432 C 0.64482 0.49868 0.27980
 H1433 H 0.63301 0.44709 0.29798
 H1434 H 0.62112 0.40407 0.31218
 H1435 H 0.64235 0.38415 0.35006
 H1436 H 0.67561 0.40713 0.37393
 H1437 H 0.73009 0.48671 0.38557
 H1438 H 0.74203 0.52982 0.37130
 H1439 H 0.72077 0.54975 0.33344
 H1440 H 0.68742 0.52670 0.30957
 C1441 C 0.82273 0.47176 0.68227
 C1442 C 0.81206 0.48771 0.66276
 C1443 C 0.80157 0.47659 0.63991
 C1444 C 0.80185 0.44960 0.63672
 C1445 C 0.81188 0.43361 0.65658
 C1446 C 0.82234 0.44473 0.67942
 C1447 C 0.83243 0.42836 0.69892
 C1448 C 0.83215 0.40178 0.69595
 C1449 C 0.82196 0.39091 0.67359
 C1450 C 0.81192 0.40654 0.65407
 C1451 C 0.79117 0.49292 0.62059
 C1452 C 0.79113 0.51949 0.62376
 C1453 C 0.80141 0.53036 0.64609
 C1454 C 0.81180 0.51474 0.66543
 C1455 C 0.79276 0.43825 0.61271
 C1456 C 0.78591 0.42827 0.59280
 C1457 C 0.83524 0.48304 0.70471
 C1458 C 0.84651 0.49163 0.72319
 H1459 H 0.84053 0.43589 0.71669
 H1460 H 0.83988 0.38956 0.71108
 H1461 H 0.82181 0.37025 0.67136
 H1462 H 0.80416 0.39716 0.63706
 H1463 H 0.78293 0.48535 0.60290
 H1464 H 0.78308 0.53171 0.60879
 H1465 H 0.80133 0.55101 0.64845
 H1466 H 0.81954 0.52406 0.68249
 C1467 C 0.32902 -0.02578 0.17552
 C1468 C 0.34153 -0.04664 0.16360
 C1469 C 0.33097 -0.05769 0.14078
 C1470 C 0.30807 -0.04770 0.12988
 C1471 C 0.29555 -0.02686 0.14180
 C1472 C 0.30605 -0.01588 0.16472
 C1473 C 0.29322 0.00493 0.17631
 C1474 C 0.27063 0.01462 0.16556
 C1475 C 0.26036 0.00389 0.14315
 C1476 C 0.27260 -0.01663 0.13132
 C1477 C 0.34376 -0.07865 0.12933
 C1478 C 0.36633 -0.08836 0.14009
 C1479 C 0.37673 -0.07744 0.16233
 C1480 C 0.36458 -0.05681 0.17399
 C1481 C 0.29767 -0.05888 0.10633
 C1482 C 0.28993 -0.06886 0.08675
 C1483 C 0.33999 -0.01467 0.19883
 C1484 C 0.35014 -0.00630 0.21806
 H1485 H 0.30050 0.01389 0.19376
 H1486 H 0.26105 0.03055 0.17467
 H1487 H 0.24282 0.01149 0.13489
 H1488 H 0.26390 -0.02436 0.11392
 H1489 H 0.33648 -0.08778 0.11198
 H1490 H 0.37583 -0.10440 0.13109
 H1491 H 0.39431 -0.08499 0.17058
 H1492 H 0.37351 -0.04891 0.19118
 C1493 C 0.31827 0.03035 0.31151
 C1494 C 0.31243 0.05681 0.31303
 C1495 C 0.30066 0.06662 0.33563
 C1496 C 0.29483 0.04991 0.35656
 C1497 C 0.29963 0.02327 0.35455
 C1498 C 0.31140 0.01346 0.33194
 C1499 C 0.31635 -0.01318 0.33049
 C1500 C 0.30981 -0.02968 0.35079
 C1501 C 0.29828 -0.02009 0.37290
 C1502 C 0.29322 0.00608 0.37487
 C1503 C 0.29529 0.09320 0.33684
 C1504 C 0.30136 0.10960 0.31631
 C1505 C 0.31288 0.10000 0.29421
 C1506 C 0.31844 0.07393 0.29250
 C1507 C 0.28552 0.06044 0.38068
 C1508 C 0.27877 0.06992 0.40074
 C1509 C 0.33290 0.02096 0.28976
 C1510 C 0.34600 0.01384 0.27210
 H1511 H 0.32523 -0.02153 0.31365
 H1512 H 0.31369 -0.05002 0.34935
 H1513 H 0.29322 -0.03299 0.38861
 H1514 H 0.28417 0.01265 0.39241
 H1515 H 0.28628 0.10157 0.35359
 H1516 H 0.29709 0.12987 0.31755
 H1517 H 0.31752 0.11280 0.27830
 H1518 H 0.32737 0.06737 0.27489
 C1519 C 0.81869 0.52940 0.81736
 C1520 C 0.81264 0.51276 0.83826
 C1521 C 0.80133 0.52279 0.86102
 C1522 C 0.79617 0.54938 0.86272
 C1523 C 0.80134 0.56585 0.84141
 C1524 C 0.81265 0.55583 0.81867
 C1525 C 0.81798 0.57271 0.79775
 C1526 C 0.81222 0.59875 0.79923
 C1527 C 0.80115 0.60856 0.82147
 C1528 C 0.79574 0.59240 0.84237
 C1529 C 0.79571 0.50585 0.88179
 C1530 C 0.80110 0.47973 0.88011
 C1531 C 0.81218 0.46993 0.85787
 C1532 C 0.81794 0.48618 0.83712
 C1533 C 0.78705 0.56015 0.88682
 C1534 C 0.78038 0.56987 0.90679
 C1535 C 0.83254 0.51977 0.79519
 C1536 C 0.84491 0.51245 0.77708
 H1537 H 0.82655 0.56599 0.78002
 H1538 H 0.81636 0.61137 0.78303
 H1539 H 0.79671 0.62880 0.82253
 H1540 H 0.78707 0.60093 0.85922
 H1541 H 0.78704 0.51259 0.89946
 H1542 H 0.79665 0.46703 0.89617
 H1543 H 0.81634 0.44964 0.85667
 H1544 H 0.82650 0.47767 0.82020
 C1545 C 0.18126 0.66787 0.53419
 C1546 C 0.17386 0.66304 0.56011
 C1547 C 0.15160 0.67492 0.57021
 C1548 C 0.13677 0.69144 0.55427
 C1549 C 0.14425 0.69637 0.52839
 C1550 C 0.16659 0.68456 0.51832
 C1551 C 0.17368 0.68973 0.49240
 C1552 C 0.15911 0.70612 0.47685
 C1553 C 0.13726 0.71766 0.48669
 C1554 C 0.12982 0.71291 0.51216
 C1555 C 0.14464 0.66983 0.59622
 C1556 C 0.15920 0.65343 0.61176
 C1557 C 0.18091 0.64173 0.60185
 C1558 C 0.18824 0.64641 0.57635
 C1559 C 0.11381 0.70314 0.56464
 C1560 C 0.09496 0.71234 0.57423
 C1561 C 0.20370 0.65519 0.52389
 C1562 C 0.22222 0.64390 0.51616
 H1563 H 0.19052 0.68119 0.48390
 H1564 H 0.16480 0.70988 0.45706
 H1565 H 0.12602 0.73037 0.47453
 H1566 H 0.11270 0.72233 0.51897
 H1567 H 0.12790 0.67844 0.60484
 H1568 H 0.15358 0.64976 0.63159
 H1569 H 0.19211 0.62895 0.61397
 H1570 H 0.20524 0.63682 0.56953
 C1571 C 0.68407 0.17251 1.03126
 C1572 C 0.68538 0.18490 1.05555
 C1573 C 0.66329 0.19719 1.06554
 C1574 C 0.64003 0.19700 1.05116
 C1575 C 0.63896 0.18534 1.02649
 C1576 C 0.66106 0.17306 1.01650
 C1577 C 0.65950 0.16133 0.99188
 C1578 C 0.63674 0.16177 0.97753
 C1579 C 0.61513 0.17378 0.98730
 C1580 C 0.61611 0.18545 1.01150
 C1581 C 0.66500 0.20927 1.08998
 C1582 C 0.68788 0.20921 1.10414
 C1583 C 0.70948 0.19718 1.09437
 C1584 C 0.70835 0.18512 1.07038
 C1585 C 0.61701 0.20778 1.06235
 C1586 C 0.59812 0.21627 1.07250
 C1587 C 0.70601 0.15827 1.02204
 C1588 C 0.72407 0.14593 1.01488
 H1589 H 0.67582 0.15180 0.98345
 H1590 H 0.63588 0.15274 0.95872
 H1591 H 0.59750 0.17406 0.97608
 H1592 H 0.59883 0.19461 1.01828
 H1593 H 0.64874 0.21893 1.09838
 H1594 H 0.68886 0.21855 1.12279
 H1595 H 0.72721 0.19719 1.10544
 H1596 H 0.72568 0.17607 1.06357
 C1597 C 0.81747 0.17300 0.97699
 C1598 C 0.81805 0.17963 0.95038
 C1599 C 0.84016 0.19190 0.93987
 C1600 C 0.86157 0.19740 0.95603
 C1601 C 0.86074 0.19131 0.98276
 C1602 C 0.83860 0.17906 0.99328
 C1603 C 0.83827 0.17293 1.02001
 C1604 C 0.85921 0.17882 1.03591
 C1605 C 0.88085 0.19081 1.02562
 C1606 C 0.88173 0.19701 0.99934
 C1607 C 0.84037 0.19817 0.91315
 C1608 C 0.81937 0.19245 0.89729
 C1609 C 0.79777 0.18040 0.90757
 C1610 C 0.79699 0.17404 0.93379
 C1611 C 0.88467 0.20842 0.94477
 C1612 C 0.90352 0.21706 0.93431
 C1613 C 0.79560 0.15889 0.98720
 C1614 C 0.77754 0.14648 0.99486
 H1615 H 0.82185 0.16362 1.02890
 H1616 H 0.85862 0.17409 1.05634
 H1617 H 0.89706 0.19534 1.03805
 H1618 H 0.89896 0.20635 0.99221
 H1619 H 0.85670 0.20758 0.90423
 H1620 H 0.81987 0.19738 0.87691
 H1621 H 0.78153 0.17598 0.89516
 H1622 H 0.77972 0.16474 0.94087
 C1623 C 0.31466 0.67308 0.47633
 C1624 C 0.33535 0.68113 0.49232
 C1625 C 0.35707 0.69358 0.48115
 C1626 C 0.35793 0.69788 0.45408
 C1627 C 0.33691 0.69043 0.43819
 C1628 C 0.31521 0.67800 0.44935
 C1629 C 0.29452 0.67054 0.43305
 C1630 C 0.29523 0.67528 0.40649
 C1631 C 0.31646 0.68742 0.39556
 C1632 C 0.33712 0.69495 0.41113
 C1633 C 0.37762 0.70128 0.49748
 C1634 C 0.37673 0.69682 0.52410
 C1635 C 0.35550 0.68464 0.53501
 C1636 C 0.33499 0.67682 0.51939
 C1637 C 0.38071 0.70912 0.44236
 C1638 C 0.39947 0.71795 0.43190
 C1639 C 0.29334 0.65866 0.48729
 C1640 C 0.27575 0.64595 0.49554
 H1641 H 0.27755 0.66106 0.44062
 H1642 H 0.27921 0.66950 0.39433
 H1643 H 0.31693 0.69104 0.37491
 H1644 H 0.35317 0.70438 0.40172
 H1645 H 0.39452 0.71085 0.48987
 H1646 H 0.39261 0.70286 0.53632
 H1647 H 0.35491 0.68123 0.55569
 H1648 H 0.31887 0.66745 0.52875
 C1649 C 0.67906 0.81795 0.47660
 C1650 C 0.65687 0.81558 0.49218
 C1651 C 0.63382 0.80519 0.48152
 C1652 C 0.63313 0.79721 0.45536
 C1653 C 0.65562 0.79865 0.44010
 C1654 C 0.67865 0.80911 0.45074
 C1655 C 0.70077 0.81081 0.43498
 C1656 C 0.70019 0.80229 0.40946
 C1657 C 0.67770 0.79198 0.39907
 C1658 C 0.65561 0.79015 0.41412
 C1659 C 0.61176 0.80334 0.49734
 C1660 C 0.61247 0.81153 0.52298
 C1661 C 0.63501 0.82171 0.53340
 C1662 C 0.65702 0.82376 0.51827
 C1663 C 0.60901 0.78904 0.44366
 C1664 C 0.58903 0.78306 0.43331
 C1665 C 0.70173 0.83103 0.48654
 C1666 C 0.72023 0.84284 0.49415
 H1667 H 0.71874 0.81863 0.44220
 H1668 H 0.71730 0.80369 0.39770
 H1669 H 0.67736 0.78536 0.37925
 H1670 H 0.63860 0.78194 0.40519
 H1671 H 0.59380 0.79551 0.49010
 H1672 H 0.59542 0.80996 0.53481
 H1673 H 0.63543 0.82805 0.55330
 H1674 H 0.67412 0.83174 0.52725
 C1675 C 0.18080 0.31958 -0.02355
 C1676 C 0.16135 0.31009 -0.00693
 C1677 C 0.13823 0.29983 -0.01758
 C1678 C 0.13468 0.29925 -0.04477
 C1679 C 0.15435 0.30834 -0.06140
 C1680 C 0.17747 0.31856 -0.05075
 C1681 C 0.19671 0.32790 -0.06774
 C1682 C 0.19322 0.32713 -0.09448
 C1683 C 0.17063 0.31708 -0.10491
 C1684 C 0.15137 0.30776 -0.08866
 C1685 C 0.11897 0.29062 -0.00060
 C1686 C 0.12243 0.29159 0.02616
 C1687 C 0.14500 0.30172 0.03658
 C1688 C 0.16432 0.31088 0.02031
 C1689 C 0.11045 0.29044 -0.05575
 C1690 C 0.09042 0.28388 -0.06562
 C1691 C 0.20362 0.33172 -0.01283
 C1692 C 0.22230 0.34280 -0.00460
 H1693 H 0.21464 0.33587 -0.06058
 H1694 H 0.20812 0.33439 -0.10718
 H1695 H 0.16801 0.31651 -0.12570
 H1696 H 0.13416 0.30012 -0.09771
 H1697 H 0.10109 0.28258 -0.00780
 H1698 H 0.10750 0.28447 0.03889
 H1699 H 0.14757 0.30248 0.05737
 H1700 H 0.18155 0.31856 0.02930
 C1701 C 0.31969 0.31807 0.02851
 C1702 C 0.34335 0.32905 0.02052
 C1703 C 0.36687 0.31858 0.02967
 C1704 C 0.36656 0.29719 0.04673
 C1705 C 0.34293 0.28550 0.05374
 C1706 C 0.31941 0.29599 0.04460
 C1707 C 0.29600 0.28421 0.05211
 C1708 C 0.29584 0.26260 0.06817
 C1709 C 0.31884 0.25232 0.07711
 C1710 C 0.34218 0.26358 0.07006
 C1711 C 0.39028 0.33008 0.02170
 C1712 C 0.39044 0.35131 0.00513
 C1713 C 0.36744 0.36156 -0.00382
 C1714 C 0.34411 0.35065 0.00373
 C1715 C 0.39037 0.28842 0.05845
 C1716 C 0.41006 0.28201 0.06897
 C1717 C 0.29582 0.33047 0.02128
 C1718 C 0.27665 0.34196 0.01539
 H1719 H 0.27764 0.29150 0.04557
 H1720 H 0.27776 0.25379 0.07369
 H1721 H 0.31861 0.23553 0.08957
 H1722 H 0.35959 0.25486 0.07743
 H1723 H 0.40867 0.32274 0.02810
 H1724 H 0.40852 0.35984 -0.00080
 H1725 H 0.36766 0.37805 -0.01670
 H1726 H 0.32673 0.35928 -0.00382
 C1727 C 0.81551 0.81961 0.53312
 C1728 C 0.82454 0.82660 0.55803
 C1729 C 0.84762 0.81584 0.56792
 C1730 C 0.86155 0.79812 0.55285
 C1731 C 0.85219 0.79067 0.52821
 C1732 C 0.82908 0.80146 0.51830
 C1733 C 0.82018 0.79387 0.49355
 C1734 C 0.83370 0.77608 0.47900
 C1735 C 0.85628 0.76552 0.48869
 C1736 C 0.86553 0.77268 0.51301
 C1737 C 0.85637 0.82329 0.59281
 C1738 C 0.84270 0.84085 0.60749
 C1739 C 0.82012 0.85137 0.59781
 C1740 C 0.81105 0.84441 0.57339
 C1741 C 0.88581 0.78832 0.56261
 C1742 C 0.90596 0.78131 0.57174
 C1743 C 0.79281 0.83196 0.52257
 C1744 C 0.77428 0.84334 0.51464
 H1745 H 0.80268 0.80154 0.48524
 H1746 H 0.82660 0.77045 0.46011
 H1747 H 0.86670 0.75170 0.47731
 H1748 H 0.88316 0.76394 0.51977
 H1749 H 0.87381 0.81564 0.60124
 H1750 H 0.84967 0.84632 0.62647
 H1751 H 0.80956 0.86501 0.60928
 H1752 H 0.79336 0.85311 0.56676
   
