data_POSCAR
  _audit_creation_date              2014-09-24
  _audit_creation_method            'ToBaCCo'
  _symmetry_space_group_name_H-M    'P1'
  _symmetry_Int_Tables_number       1
  _symmetry_cell_setting            triclinic
  loop_
  _symmetry_equiv_pos_as_xyz
 x,y,z
_cell_length_a 61.1139
_cell_length_b 61.1835
_cell_length_c 61.7554
_cell_angle_alpha 90.108800
_cell_angle_beta 89.957600
_cell_angle_gamma 90.028000
loop_
  _atom_site_label
  _atom_site_type_symbol
  _atom_site_fract_x
  _atom_site_fract_y
  _atom_site_fract_z
C1 C 0.30159 0.38462 0.00382
 C2 C 0.31279 0.37920 0.02281
 C3 C 0.32902 0.36310 0.02214
 C4 C 0.33341 0.35143 0.00292
 C5 C 0.32128 0.35667 -0.01585
 C6 C 0.30594 0.37393 -0.01595
 C7 C 0.35094 0.33425 0.00236
 C8 C 0.36204 0.32921 -0.01710
 C9 C 0.37866 0.31324 -0.01789
 C10 C 0.38502 0.30335 0.00169
 C11 C 0.37462 0.30839 0.02127
 C12 C 0.35714 0.32316 0.02138
 H13 H 0.28852 0.39649 0.00492
 H14 H 0.33835 0.36013 0.03671
 H15 H 0.32445 0.34780 -0.03062
 H16 H 0.35855 0.33848 -0.03154
 H17 H 0.39727 0.29059 0.00185
 H18 H 0.34873 0.32612 0.03651
 C19 C 0.70721 0.62741 -0.00151
 C20 C 0.69688 0.63183 0.01826
 C21 C 0.67919 0.64645 0.01876
 C22 C 0.67273 0.65802 -0.00000
 C23 C 0.68391 0.65356 -0.01960
 C24 C 0.70069 0.63794 -0.02053
 C25 C 0.65495 0.67505 0.00103
 C26 C 0.64335 0.68141 -0.01777
 C27 C 0.62794 0.69864 -0.01735
 C28 C 0.62285 0.70802 0.00291
 C29 C 0.63354 0.70158 0.02189
 C30 C 0.64990 0.68561 0.02075
 H31 H 0.72014 0.61531 -0.00213
 H32 H 0.67086 0.64890 0.03401
 H33 H 0.68020 0.66246 -0.03422
 H34 H 0.64700 0.67351 -0.03293
 H35 H 0.60970 0.71977 0.00432
 H36 H 0.65888 0.68198 0.03536
 C37 C 0.70927 0.37072 0.99960
 C38 C 0.69892 0.36608 0.97991
 C39 C 0.68154 0.35107 0.97953
 C40 C 0.67548 0.33934 0.99832
 C41 C 0.68670 0.34399 1.01782
 C42 C 0.70313 0.36000 1.01866
 C43 C 0.65812 0.32190 0.99744
 C44 C 0.64678 0.31532 1.01634
 C45 C 0.63191 0.29762 1.01609
 C46 C 0.62706 0.28794 0.99594
 C47 C 0.63740 0.29466 0.97687
 C48 C 0.65323 0.31115 0.97778
 H49 H 0.72195 0.38310 1.00014
 H50 H 0.67318 0.34841 0.96435
 H51 H 0.68331 0.33494 1.03244
 H52 H 0.65021 0.32342 1.03145
 H53 H 0.61428 0.27575 0.99468
 H54 H 0.66192 0.31504 0.96304
 C55 C 0.30403 0.61811 0.99724
 C56 C 0.31432 0.62380 0.97780
 C57 C 0.33019 0.64037 0.97785
 C58 C 0.33514 0.65213 0.99697
 C59 C 0.32380 0.64656 1.01616
 C60 C 0.30890 0.62911 1.01653
 C61 C 0.35238 0.66967 0.99702
 C62 C 0.36357 0.67523 1.01628
 C63 C 0.37993 0.69151 1.01669
 C64 C 0.38590 0.70126 0.99690
 C65 C 0.37551 0.69564 0.97747
 C66 C 0.35828 0.68054 0.97776
 H67 H 0.29171 0.60536 0.99729
 H68 H 0.33885 0.64356 0.96293
 H69 H 0.32664 0.65544 1.03103
 H70 H 0.36041 0.66606 1.03086
 H71 H 0.39792 0.71423 0.99643
 H72 H 0.34988 0.67715 0.96274
 C73 C 0.00304 0.29822 0.37658
 C74 C 0.02241 0.30933 0.37146
 C75 C 0.02195 0.32585 0.35575
 C76 C 0.00252 0.33084 0.34443
 C77 C -0.01667 0.31907 0.34965
 C78 C -0.01660 0.30309 0.36594
 C79 C 0.00231 0.34819 0.32727
 C80 C -0.01715 0.35953 0.32222
 C81 C -0.01775 0.37569 0.30594
 C82 C 0.00199 0.38094 0.29534
 C83 C 0.02157 0.37015 0.30022
 C84 C 0.02156 0.35362 0.31587
 H85 H 0.00325 0.28567 0.38893
 H86 H 0.03681 0.33498 0.35279
 H87 H -0.03170 0.32186 0.34086
 H88 H -0.03168 0.35654 0.33173
 H89 H 0.00228 0.39301 0.28258
 H90 H 0.03662 0.34479 0.31867
 C91 C 0.00408 0.70202 0.62383
 C92 C 0.02311 0.69032 0.62877
 C93 C 0.02235 0.67408 0.64473
 C94 C 0.00292 0.66988 0.65637
 C95 C -0.01597 0.68213 0.65127
 C96 C -0.01555 0.69796 0.63485
 C97 C 0.00244 0.65288 0.67378
 C98 C -0.01710 0.64169 0.67882
 C99 C -0.01787 0.62569 0.69525
 C100 C 0.00177 0.62054 0.70607
 C101 C 0.02141 0.63128 0.70120
 C102 C 0.02156 0.64761 0.68537
 H103 H 0.00455 0.71443 0.61135
 H104 H 0.03694 0.66454 0.64767
 H105 H -0.03097 0.67984 0.66028
 H106 H -0.03152 0.64468 0.66916
 H107 H 0.00193 0.60859 0.71894
 H108 H 0.03664 0.65641 0.68251
 C109 C 0.99893 0.69586 0.38249
 C110 C 0.97893 0.69221 0.37209
 C111 C 0.97831 0.67929 0.35339
 C112 C 0.99730 0.66885 0.34561
 C113 C 1.01729 0.67263 0.35652
 C114 C 1.01853 0.68660 0.37472
 C115 C 0.99617 0.65388 0.32638
 C116 C 1.01471 0.65038 0.31319
 C117 C 1.01418 0.63584 0.29543
 C118 C 0.99411 0.62568 0.29038
 C119 C 0.97538 0.62913 0.30300
 C120 C 0.97659 0.64287 0.32111
 H121 H 0.99913 0.70726 0.39590
 H122 H 0.96284 0.67737 0.34511
 H123 H 1.03180 0.66391 0.35147
 H124 H 1.02939 0.65973 0.31620
 H125 H 0.99296 0.61424 0.27707
 H126 H 0.96225 0.64442 0.33127
 C127 C 1.00122 0.29709 0.62171
 C128 C 0.98115 0.30110 0.63194
 C129 C 0.98009 0.31669 0.64859
 C130 C 0.99868 0.32895 0.65462
 C131 C 1.01867 0.32475 0.64383
 C132 C 1.02010 0.30865 0.62765
 C133 C 0.99718 0.34595 0.67208
 C134 C 1.01566 0.35141 0.68467
 C135 C 1.01465 0.36746 0.70110
 C136 C 0.99429 0.37747 0.70519
 C137 C 0.97563 0.37214 0.69313
 C138 C 0.97723 0.35668 0.67646
 H139 H 1.00216 0.28487 0.60903
 H140 H 0.96473 0.31883 0.65703
 H141 H 1.03314 0.33421 0.64757
 H142 H 1.03064 0.34231 0.68242
 H143 H 0.99279 0.39007 0.71739
 H144 H 0.96287 0.35347 0.66673
 C145 C 0.37230 -0.00170 0.29115
 C146 C 0.36229 0.01797 0.29708
 C147 C 0.34625 0.01794 0.31325
 C148 C 0.34082 -0.00138 0.32446
 C149 C 0.35184 -0.02092 0.31867
 C150 C 0.36689 -0.02160 0.30127
 C151 C 0.32318 -0.00128 0.34151
 C152 C 0.31159 -0.02060 0.34661
 C153 C 0.29496 -0.02065 0.36228
 C154 C 0.28890 -0.00095 0.37213
 C155 C 0.29954 0.01863 0.36698
 C156 C 0.31717 0.01823 0.35236
 H157 H 0.38524 -0.00110 0.27919
 H158 H 0.33780 0.03310 0.31651
 H159 H 0.34803 -0.03580 0.32713
 H160 H 0.31487 -0.03573 0.33818
 H161 H 0.27606 -0.00088 0.38425
 H162 H 0.32577 0.03335 0.34933
 C163 C 0.62515 0.00191 0.70738
 C164 C 0.63540 0.02169 0.70223
 C165 C 0.65093 0.02226 0.68559
 C166 C 0.65572 0.00343 0.67333
 C167 C 0.64491 -0.01629 0.67863
 C168 C 0.62981 -0.01747 0.69591
 C169 C 0.67162 0.00443 0.65485
 C170 C 0.68307 -0.01443 0.64812
 C171 C 0.69711 -0.01387 0.63016
 C172 C 0.70081 0.00600 0.61957
 C173 C 0.69029 0.02515 0.62632
 C174 C 0.67540 0.02420 0.64361
 H175 H 0.61384 0.00179 0.72085
 H176 H 0.65934 0.03750 0.68253
 H177 H 0.64732 -0.03051 0.66853
 H178 H 0.68104 -0.02974 0.65660
 H179 H 0.71248 0.00665 0.60636
 H180 H 0.66659 0.03891 0.64785
 C181 C 0.37086 0.99995 0.70662
 C182 C 0.36616 0.98019 0.69616
 C183 C 0.35152 0.98007 0.67865
 C184 C 0.34019 0.99924 0.67251
 C185 C 0.34490 1.01883 0.68384
 C186 C 0.36057 1.01938 0.70044
 C187 C 0.32314 0.99868 0.65490
 C188 C 0.31700 1.01796 0.64382
 C189 C 0.29964 1.01809 0.62872
 C190 C 0.28989 0.99794 0.62335
 C191 C 0.29617 0.97847 0.63342
 C192 C 0.31233 0.97900 0.64948
 H193 H 0.38297 1.00024 0.71943
 H194 H 0.34886 0.96481 0.67024
 H195 H 0.33615 1.03375 0.68042
 H196 H 0.32516 1.03307 0.64762
 H197 H 0.27798 0.99700 0.61043
 H198 H 0.31587 0.96398 0.65793
 C199 C 0.61519 0.99542 0.30335
 C200 C 0.62135 0.97682 0.31497
 C201 C 0.63751 0.97852 0.33090
 C202 C 0.64852 0.99843 0.33461
 C203 C 0.64255 1.01681 0.32205
 C204 C 0.62518 1.01585 0.30697
 C205 C 0.66572 1.00014 0.35193
 C206 C 0.67036 1.02038 0.36197
 C207 C 0.68632 1.02210 0.37817
 C208 C 0.69697 1.00321 0.38534
 C209 C 0.69233 0.98279 0.37615
 C210 C 0.67734 0.98148 0.35899
 H211 H 0.60328 0.99347 0.29053
 H212 H 0.64103 0.96422 0.34052
 H213 H 0.65089 1.03209 0.32463
 H214 H 0.66138 1.03497 0.35772
 H215 H 0.70938 1.00445 0.39781
 H216 H 0.67466 0.96573 0.35149
 O217 O 0.84815 0.81794 0.48162
 O218 O 0.81993 0.84879 0.52432
 O219 O 0.84982 0.81869 0.52362
 O220 O 0.81854 0.84835 0.48237
 O221 O 0.79265 0.82324 0.48355
 O222 O 0.82427 0.79325 0.52496
 O223 O 0.79414 0.82359 0.52564
 O224 O 0.82252 0.79257 0.48281
 Cu225 Cu 0.83668 0.83595 0.50285
 Cu226 Cu 0.80581 0.80560 0.50436
 C227 C 0.84028 0.79993 0.47498
 C228 C 0.80213 0.84160 0.53219
 C229 C 0.84253 0.80089 0.53132
 C230 C 0.80018 0.84105 0.47600
 O231 O 0.16187 0.19369 0.47926
 O232 O 0.19075 0.16333 0.52163
 O233 O 0.16148 0.19415 0.52109
 O234 O 0.19089 0.16257 0.47976
 O235 O 0.21740 0.18704 0.47945
 O236 O 0.18759 0.21904 0.52105
 O237 O 0.21729 0.18777 0.52151
 O238 O 0.18800 0.21857 0.47904
 Cu239 Cu 0.17365 0.17598 0.50045
 Cu240 Cu 0.20524 0.20559 0.50025
 C241 C 0.16971 0.21151 0.47216
 C242 C 0.20908 0.17008 0.52861
 C243 C 0.16922 0.21215 0.52791
 C244 C 0.20928 0.16913 0.47272
 O245 O 0.15805 0.80599 0.51828
 O246 O 0.18462 0.83783 0.47550
 O247 O 0.15716 0.80543 0.47651
 O248 O 0.18560 0.83826 0.51758
 O249 O 0.21314 0.81498 0.51739
 O250 O 0.18445 0.78185 0.47604
 O251 O 0.21224 0.81465 0.47501
 O252 O 0.18527 0.78231 0.51791
 Cu253 Cu 0.16869 0.82425 0.49699
 Cu254 Cu 0.20163 0.79617 0.49653
 C255 C 0.16682 0.78853 0.52517
 C256 C 0.20298 0.83183 0.46795
 C257 C 0.16567 0.78784 0.46951
 C258 C 0.20421 0.83232 0.52456
 O259 O 0.84168 0.18684 0.51766
 O260 O 0.80899 0.16033 0.47533
 O261 O 0.84167 0.18757 0.47560
 O262 O 0.80913 0.15955 0.51709
 O263 O 0.78572 0.18698 0.51778
 O264 O 0.81859 0.21527 0.47604
 O265 O 0.78553 0.18773 0.47594
 O266 O 0.81862 0.21454 0.51836
 Cu267 Cu 0.82773 0.17088 0.49634
 Cu268 Cu 0.79985 0.20399 0.49707
 C269 C 0.83584 0.20523 0.52524
 C270 C 0.79144 0.16918 0.46871
 C271 C 0.83584 0.20624 0.46876
 C272 C 0.79169 0.16821 0.52430
 O273 O 0.48257 0.84220 0.80674
 O274 O 0.52294 0.81136 0.83809
 O275 O 0.52482 0.84051 0.80749
 O276 O 0.48065 0.81308 0.83713
 O277 O 0.48001 0.78678 0.81266
 O278 O 0.52430 0.81459 0.78262
 O279 O 0.52251 0.78497 0.81371
 O280 O 0.48185 0.81625 0.78191
 Cu281 Cu 0.50285 0.82937 0.82480
 Cu282 Cu 0.50218 0.79799 0.79525
 C283 C 0.47541 0.83472 0.78892
 C284 C 0.52940 0.79276 0.83156
 C285 C 0.53183 0.83257 0.78979
 C286 C 0.47287 0.79516 0.83014
 O287 O 0.52157 0.18454 0.15518
 O288 O 0.47972 0.15352 0.18449
 O289 O 0.47924 0.18402 0.15553
 O290 O 0.52219 0.15394 0.18432
 O291 O 0.52220 0.17883 0.21019
 O292 O 0.47901 0.20914 0.18120
 O293 O 0.47948 0.17833 0.21045
 O294 O 0.52149 0.20984 0.18068
 Cu295 Cu 0.50075 0.16650 0.16734
 Cu296 Cu 0.50060 0.19653 0.19827
 C297 C 0.52847 0.20263 0.16263
 C298 C 0.47238 0.16053 0.20244
 C299 C 0.47186 0.20178 0.16329
 C300 C 0.52943 0.16106 0.20226
 O301 O 0.51454 0.15530 0.81519
 O302 O 0.47403 0.18916 0.84351
 O303 O 0.47206 0.15764 0.81514
 O304 O 0.51620 0.18588 0.84394
 O305 O 0.51812 0.21063 0.81807
 O306 O 0.47383 0.18174 0.78869
 O307 O 0.47574 0.21369 0.81743
 O308 O 0.51656 0.17975 0.78906
 Cu309 Cu 0.49391 0.16953 0.83200
 Cu310 Cu 0.49611 0.19888 0.80062
 C311 C 0.52269 0.16180 0.79740
 C312 C 0.46828 0.20742 0.83559
 C313 C 0.46552 0.16458 0.79692
 C314 C 0.52473 0.20304 0.83609
 O315 O 0.47966 0.80697 0.16301
 O316 O 0.51922 0.83728 0.19621
 O317 O 0.52190 0.80928 0.16472
 O318 O 0.47702 0.83602 0.19376
 O319 O 0.47705 0.80991 0.21834
 O320 O 0.52176 0.78223 0.18828
 O321 O 0.51941 0.81059 0.22018
 O322 O 0.47923 0.78040 0.18710
 Cu323 Cu 0.49942 0.82502 0.17704
 Cu324 Cu 0.49930 0.79306 0.20587
 C325 C 0.47289 0.78836 0.16918
 C326 C 0.52593 0.82928 0.21397
 C327 C 0.52939 0.79111 0.17125
 C328 C 0.46966 0.82795 0.21122
 O329 O 0.83914 0.52222 0.80840
 O330 O 0.80871 0.48140 0.83965
 O331 O 0.83750 0.48006 0.80857
 O332 O 0.81075 0.52372 0.83958
 O333 O 0.78396 0.52491 0.81571
 O334 O 0.81106 0.48100 0.78430
 O335 O 0.78188 0.48231 0.81582
 O336 O 0.81270 0.52329 0.78412
 Cu337 Cu 0.82663 0.50170 0.82647
 Cu338 Cu 0.79465 0.50294 0.79761
 C339 C 0.83137 0.52953 0.79078
 C340 C 0.79001 0.47501 0.83331
 C341 C 0.82921 0.47336 0.79091
 C342 C 0.79278 0.53177 0.83310
 O343 O 0.15491 0.52582 0.18193
 O344 O 0.18911 0.48447 0.15531
 O345 O 0.15716 0.48341 0.18317
 O346 O 0.18633 0.52659 0.15384
 O347 O 0.21054 0.52895 0.18023
 O348 O 0.18089 0.48565 0.20997
 O349 O 0.21319 0.48671 0.18181
 O350 O 0.17878 0.52830 0.20860
 Cu351 Cu 0.16945 0.50478 0.16596
 Cu352 Cu 0.19821 0.50759 0.19790
 C353 C 0.16098 0.53423 0.19976
 C354 C 0.20717 0.47878 0.16374
 C355 C 0.16385 0.47719 0.20161
 C356 C 0.20352 0.53503 0.16182
 O357 O 0.80892 0.51700 0.15768
 O358 O 0.83999 0.47734 0.18979
 O359 O 0.81175 0.47473 0.15856
 O360 O 0.83765 0.51944 0.18870
 O361 O 0.81126 0.51841 0.21306
 O362 O 0.78484 0.47362 0.18234
 O363 O 0.81343 0.47618 0.21397
 O364 O 0.78213 0.51618 0.18161
 Cu365 Cu 0.82718 0.49726 0.17126
 Cu366 Cu 0.79516 0.49603 0.20012
 C367 C 0.79015 0.52327 0.16396
 C368 C 0.83225 0.47019 0.20750
 C369 C 0.79385 0.46656 0.16512
 C370 C 0.82926 0.52627 0.20626
 O371 O 0.15477 0.47709 0.81752
 O372 O 0.18926 0.51708 0.84582
 O373 O 0.15765 0.51943 0.81772
 O374 O 0.18579 0.47496 0.84590
 O375 O 0.21040 0.47319 0.81979
 O376 O 0.18157 0.51762 0.79101
 O377 O 0.21354 0.51547 0.81942
 O378 O 0.17899 0.47503 0.79110
 Cu379 Cu 0.16943 0.49738 0.83433
 Cu380 Cu 0.19854 0.49520 0.80262
 C381 C 0.16095 0.46914 0.79951
 C382 C 0.20745 0.52290 0.83768
 C383 C 0.16456 0.52603 0.79948
 C384 C 0.20300 0.46659 0.83789
 C385 C 0.28869 0.40932 0.08076
 C386 C 0.29354 0.38696 0.08062
 C387 C 0.30258 0.37729 0.06210
 C388 C 0.30663 0.38989 0.04349
 C389 C 0.30267 0.41251 0.04418
 C390 C 0.29374 0.42214 0.06269
 C391 C 0.27631 0.41881 0.09821
 C392 C 0.26485 0.42731 0.11168
 C393 C 0.25007 0.43817 0.12629
 C394 C 0.22815 0.44060 0.12026
 C395 C 0.21400 0.45315 0.13293
 C396 C 0.22157 0.46346 0.15186
 C397 C 0.24344 0.46026 0.15828
 C398 C 0.25764 0.44773 0.14548
 H399 H 0.28951 0.37685 0.09445
 H400 H 0.30530 0.35980 0.06192
 H401 H 0.30584 0.42261 0.03014
 H402 H 0.28997 0.43944 0.06259
 H403 H 0.22214 0.43333 0.10540
 H404 H 0.19726 0.45523 0.12757
 H405 H 0.24977 0.46805 0.17273
 H406 H 0.27462 0.44604 0.15023
 C407 C 0.72225 0.60037 0.07512
 C408 C 0.73637 0.61023 0.06022
 C409 C 0.72800 0.62073 0.04201
 C410 C 0.70530 0.62154 0.03834
 C411 C 0.69111 0.61209 0.05365
 C412 C 0.69957 0.60146 0.07192
 C413 C 0.73151 0.58824 0.09284
 C414 C 0.74064 0.57785 0.10673
 C415 C 0.75303 0.56518 0.12205
 C416 C 0.77499 0.56059 0.11755
 C417 C 0.78712 0.54737 0.13146
 C418 C 0.77749 0.53849 0.15018
 C419 C 0.75551 0.54355 0.15488
 C420 C 0.74333 0.55679 0.14084
 H421 H 0.75393 0.60949 0.06251
 H422 H 0.73930 0.62816 0.03068
 H423 H 0.67358 0.61239 0.05117
 H424 H 0.68849 0.59378 0.08330
 H425 H 0.78266 0.56698 0.10306
 H426 H 0.80399 0.54386 0.12736
 H427 H 0.74762 0.53691 0.16913
 H428 H 0.72633 0.56021 0.14447
 C429 C 0.72335 0.39747 0.92258
 C430 C 0.70072 0.39598 0.92595
 C431 C 0.69257 0.38542 0.94442
 C432 C 0.70703 0.37646 0.95974
 C433 C 0.72968 0.37771 0.95592
 C434 C 0.73775 0.38813 0.93752
 C435 C 0.73228 0.40948 0.90461
 C436 C 0.74121 0.41980 0.89052
 C437 C 0.75343 0.43243 0.87503
 C438 C 0.74340 0.44133 0.85667
 C439 C 0.75542 0.45473 0.84261
 C440 C 0.77756 0.45943 0.84690
 C441 C 0.78753 0.44998 0.86514
 C442 C 0.77556 0.43660 0.87905
 H443 H 0.68943 0.40326 0.91454
 H444 H 0.67506 0.38477 0.94701
 H445 H 0.74119 0.37064 0.96725
 H446 H 0.75528 0.38919 0.93509
 H447 H 0.72625 0.43824 0.85343
 H448 H 0.74727 0.46181 0.82874
 H449 H 0.80454 0.45321 0.86889
 H450 H 0.78349 0.42982 0.89322
 C451 C 0.28903 0.59271 0.92083
 C452 C 0.29485 0.58015 0.93883
 C453 C 0.30414 0.59010 0.95700
 C454 C 0.30770 0.61280 0.95740
 C455 C 0.30284 0.62517 0.93883
 C456 C 0.29345 0.61517 0.92067
 C457 C 0.27648 0.58282 0.90372
 C458 C 0.26497 0.57403 0.89046
 C459 C 0.25024 0.56293 0.87597
 C460 C 0.25767 0.55422 0.85631
 C461 C 0.24353 0.54179 0.84337
 C462 C 0.22185 0.53784 0.85005
 C463 C 0.21444 0.54720 0.86954
 C464 C 0.22853 0.55964 0.88237
 H465 H 0.29144 0.56277 0.93916
 H466 H 0.30795 0.58016 0.97099
 H467 H 0.30524 0.64271 0.93880
 H468 H 0.28885 0.62508 0.90689
 H469 H 0.27448 0.55659 0.85125
 H470 H 0.24975 0.53475 0.82849
 H471 H 0.19786 0.54452 0.87514
 H472 H 0.22263 0.56625 0.89758
 C473 C 0.08107 0.28590 0.40161
 C474 C 0.06245 0.29010 0.41413
 C475 C 0.04363 0.29861 0.40450
 C476 C 0.04318 0.30301 0.38216
 C477 C 0.06227 0.29963 0.36985
 C478 C 0.08109 0.29102 0.37952
 C479 C 0.09922 0.27449 0.41119
 C480 C 0.11344 0.26398 0.41979
 C481 C 0.12908 0.25042 0.43083
 C482 C 0.14847 0.25925 0.43919
 C483 C 0.16233 0.24631 0.45189
 C484 C 0.15681 0.22447 0.45649
 C485 C 0.13768 0.21559 0.44735
 C486 C 0.12395 0.22848 0.43463
 H487 H 0.06223 0.28615 0.43122
 H488 H 0.02926 0.30130 0.41441
 H489 H 0.06231 0.30269 0.35258
 H490 H 0.09537 0.28768 0.36964
 H491 H 0.15254 0.27625 0.43642
 H492 H 0.17689 0.25364 0.45876
 H493 H 0.13298 0.19883 0.45053
 H494 H 0.10896 0.22150 0.42830
 C495 C 0.08182 0.71200 0.59752
 C496 C 0.06303 0.70777 0.58527
 C497 C 0.04419 0.69973 0.59527
 C498 C 0.04391 0.69583 0.61769
 C499 C 0.06318 0.69910 0.62972
 C500 C 0.08202 0.70726 0.61968
 C501 C 0.09978 0.72343 0.58763
 C502 C 0.11368 0.73416 0.57877
 C503 C 0.12870 0.74816 0.56745
 C504 C 0.12301 0.77005 0.56423
 C505 C 0.13595 0.78340 0.55117
 C506 C 0.15484 0.77505 0.54112
 C507 C 0.16099 0.75327 0.54515
 C508 C 0.14790 0.73985 0.55819
 H509 H 0.06266 0.71148 0.56813
 H510 H 0.02965 0.69712 0.58560
 H511 H 0.06333 0.69640 0.64705
 H512 H 0.09642 0.71066 0.62934
 H513 H 0.10815 0.77663 0.57127
 H514 H 0.13081 0.80011 0.54846
 H515 H 0.17540 0.74636 0.53756
 H516 H 0.15239 0.72289 0.56049
 C517 C 0.92248 0.72408 0.39865
 C518 C 0.92604 0.72444 0.37625
 C519 C 0.94407 0.71350 0.36738
 C520 C 0.95876 0.70229 0.38091
 C521 C 0.95465 0.70153 0.40329
 C522 C 0.93664 0.71236 0.41208
 C523 C 0.90545 0.73698 0.40834
 C524 C 0.89217 0.74815 0.41759
 C525 C 0.87760 0.76182 0.42987
 C526 C 0.88383 0.78329 0.43467
 C527 C 0.87128 0.79592 0.44883
 C528 C 0.85231 0.78722 0.45842
 C529 C 0.84573 0.76587 0.45291
 C530 C 0.85838 0.75322 0.43876
 H531 H 0.91525 0.73361 0.36574
 H532 H 0.94698 0.71445 0.35011
 H533 H 0.96558 0.69279 0.41402
 H534 H 0.93406 0.71203 0.42944
 H535 H 0.89877 0.79004 0.42799
 H536 H 0.87676 0.81231 0.45267
 H537 H 0.83122 0.75871 0.46004
 H538 H 0.85352 0.73655 0.43528
 C539 C 0.92476 0.26797 0.60669
 C540 C 0.92346 0.29014 0.61217
 C541 C 0.94157 0.30077 0.62121
 C542 C 0.96122 0.28934 0.62470
 C543 C 0.96209 0.26689 0.61982
 C544 C 0.94398 0.25631 0.61086
 C545 C 0.90718 0.25751 0.59519
 C546 C 0.89324 0.24842 0.58472
 C547 C 0.87764 0.23714 0.57131
 C548 C 0.85908 0.24795 0.56349
 C549 C 0.84507 0.23741 0.54889
 C550 C 0.84959 0.21597 0.54188
 C551 C 0.86802 0.20512 0.55026
 C552 C 0.88192 0.21565 0.56485
 H553 H 0.90870 0.29936 0.60887
 H554 H 0.94051 0.31810 0.62462
 H555 H 0.97692 0.25763 0.62260
 H556 H 0.94518 0.23915 0.60663
 H557 H 0.85570 0.26465 0.56830
 H558 H 0.83103 0.24620 0.54272
 H559 H 0.87194 0.18861 0.54525
 H560 H 0.89631 0.20718 0.57072
 C561 C 0.38791 0.07562 0.26694
 C562 C 0.38184 0.05762 0.25430
 C563 C 0.37255 0.03923 0.26399
 C564 C 0.36923 0.03859 0.28651
 C565 C 0.37441 0.05713 0.29900
 C566 C 0.38382 0.07553 0.28925
 C567 C 0.40016 0.09306 0.25710
 C568 C 0.41127 0.10656 0.24809
 C569 C 0.42535 0.12126 0.23641
 C570 C 0.43156 0.11588 0.21527
 C571 C 0.44656 0.12889 0.20416
 C572 C 0.45562 0.14755 0.21404
 C573 C 0.44894 0.15315 0.23516
 C574 C 0.43392 0.14001 0.24631
 H575 H 0.38498 0.05748 0.23703
 H576 H 0.36849 0.02525 0.25398
 H577 H 0.37217 0.05698 0.31640
 H578 H 0.38859 0.08933 0.29921
 H579 H 0.42511 0.10135 0.20749
 H580 H 0.45127 0.12414 0.18791
 H581 H 0.45564 0.16741 0.24320
 H582 H 0.42931 0.14424 0.26273
 C583 C 0.61000 0.07794 0.73492
 C584 C 0.61371 0.07864 0.71256
 C585 C 0.62322 0.06075 0.70203
 C586 C 0.62891 0.04192 0.71378
 C587 C 0.62613 0.04183 0.73638
 C588 C 0.61670 0.05973 0.74686
 C589 C 0.59721 0.09463 0.74532
 C590 C 0.58554 0.10764 0.75433
 C591 C 0.57072 0.12201 0.76547
 C592 C 0.56362 0.14141 0.75579
 C593 C 0.54809 0.15453 0.76623
 C594 C 0.53944 0.14830 0.78643
 C595 C 0.54689 0.12888 0.79608
 C596 C 0.56241 0.11584 0.78566
 H597 H 0.60843 0.09260 0.70315
 H598 H 0.62502 0.06114 0.68459
 H599 H 0.63060 0.02761 0.74581
 H600 H 0.61384 0.05900 0.76416
 H601 H 0.56986 0.14625 0.74009
 H602 H 0.54270 0.16940 0.75839
 H603 H 0.54062 0.12363 0.81164
 H604 H 0.56770 0.10078 0.79322
 C605 C 0.39701 0.92226 0.72071
 C606 C 0.39621 0.92580 0.69830
 C607 C 0.38570 0.94439 0.69009
 C608 C 0.37614 0.95969 0.70427
 C609 C 0.37662 0.95565 0.72666
 C610 C 0.38697 0.93711 0.73479
 C611 C 0.40924 0.90440 0.72979
 C612 C 0.41977 0.89054 0.73891
 C613 C 0.43266 0.87550 0.75145
 C614 C 0.44069 0.85604 0.74248
 C615 C 0.45419 0.84233 0.75480
 C616 C 0.45986 0.84807 0.77617
 C617 C 0.45133 0.86744 0.78509
 C618 C 0.43785 0.88100 0.77282
 H619 H 0.40405 0.91447 0.68726
 H620 H 0.38564 0.94717 0.67278
 H621 H 0.36910 0.96698 0.73792
 H622 H 0.38752 0.93457 0.75214
 H623 H 0.43680 0.85164 0.72592
 H624 H 0.46056 0.82756 0.74748
 H625 H 0.45530 0.87233 0.80148
 H626 H 0.43174 0.89602 0.77993
 C627 C 0.59304 0.91688 0.29270
 C628 C 0.61546 0.91787 0.29721
 C629 C 0.62457 0.93704 0.30572
 C630 C 0.61133 0.95544 0.30956
 C631 C 0.58867 0.95389 0.30599
 C632 C 0.57960 0.93473 0.29760
 C633 C 0.58404 0.89881 0.28076
 C634 C 0.57588 0.88481 0.26964
 C635 C 0.56534 0.86956 0.25531
 C636 C 0.55747 0.84951 0.26294
 C637 C 0.54531 0.83589 0.24923
 C638 C 0.54079 0.84230 0.22781
 C639 C 0.54939 0.86216 0.22016
 C640 C 0.56157 0.87566 0.23382
 H641 H 0.62603 0.90421 0.29330
 H642 H 0.64210 0.93790 0.30816
 H643 H 0.57810 0.96778 0.30900
 H644 H 0.56224 0.93417 0.29408
 H645 H 0.56021 0.84469 0.27959
 H646 H 0.53885 0.82073 0.25561
 H647 H 0.54626 0.86755 0.20376
 H648 H 0.56753 0.89118 0.22778
 C649 C 0.40543 0.28840 0.92365
 C650 C 0.38475 0.29815 0.92356
 C651 C 0.37629 0.30739 0.94256
 C652 C 0.38827 0.30664 0.96217
 C653 C 0.40961 0.29775 0.96151
 C654 C 0.41800 0.28872 0.94250
 C655 C 0.41324 0.27628 0.90523
 C656 C 0.42048 0.26494 0.89096
 C657 C 0.43001 0.25024 0.87541
 C658 C 0.43911 0.25806 0.85612
 C659 C 0.45074 0.24388 0.84250
 C660 C 0.45354 0.22179 0.84820
 C661 C 0.44358 0.21396 0.86720
 C662 C 0.43192 0.22810 0.88068
 H663 H 0.37482 0.29787 0.90904
 H664 H 0.35973 0.31359 0.94205
 H665 H 0.42010 0.29781 0.97561
 H666 H 0.43415 0.28141 0.94268
 H667 H 0.43785 0.27520 0.85196
 H668 H 0.45828 0.25040 0.82802
 H669 H 0.44537 0.19705 0.87202
 H670 H 0.42501 0.22189 0.89563
 C671 C 0.59911 0.72410 0.92516
 C672 C 0.60615 0.70236 0.92568
 C673 C 0.61564 0.69380 0.94452
 C674 C 0.61813 0.70684 0.96336
 C675 C 0.61093 0.72881 0.96228
 C676 C 0.60157 0.73722 0.94349
 C677 C 0.58906 0.73334 0.90618
 C678 C 0.58026 0.74254 0.89128
 C679 C 0.56926 0.75513 0.87487
 C680 C 0.56029 0.74515 0.85646
 C681 C 0.54799 0.75753 0.84175
 C682 C 0.54442 0.77997 0.84544
 C683 C 0.55409 0.78988 0.86365
 C684 C 0.56640 0.77756 0.87819
 H685 H 0.60416 0.69197 0.91159
 H686 H 0.62011 0.67672 0.94436
 H687 H 0.61329 0.74007 0.97560
 H688 H 0.59636 0.75415 0.94323
 H689 H 0.56234 0.72777 0.85376
 H690 H 0.54068 0.74942 0.82794
 H691 H 0.55173 0.80711 0.86695
 H692 H 0.57323 0.78545 0.89239
 C693 C 0.40791 0.71583 0.07491
 C694 C 0.38729 0.70597 0.07532
 C695 C 0.37836 0.69714 0.05634
 C696 C 0.38982 0.69833 0.03644
 C697 C 0.41104 0.70757 0.03668
 C698 C 0.41989 0.71623 0.05567
 C699 C 0.41645 0.72689 0.09368
 C700 C 0.42424 0.73710 0.10849
 C701 C 0.43437 0.75027 0.12501
 C702 C 0.44176 0.74089 0.14432
 C703 C 0.45358 0.75350 0.15923
 C704 C 0.45824 0.77560 0.15486
 C705 C 0.45009 0.78500 0.13573
 C706 C 0.43826 0.77242 0.12094
 H707 H 0.37781 0.70568 0.09015
 H708 H 0.36188 0.69074 0.05721
 H709 H 0.42118 0.70792 0.02233
 H710 H 0.43600 0.72362 0.05522
 H711 H 0.43893 0.72373 0.14758
 H712 H 0.45968 0.74577 0.17378
 H713 H 0.45335 0.80196 0.13188
 H714 H 0.43268 0.77983 0.10600
 C715 C 0.60284 0.27204 0.07336
 C716 C 0.60928 0.29396 0.07273
 C717 C 0.61902 0.30254 0.05400
 C718 C 0.62228 0.28932 0.03541
 C719 C 0.61586 0.26713 0.03668
 C720 C 0.60628 0.25870 0.05535
 C721 C 0.59211 0.26283 0.09199
 C722 C 0.58264 0.25351 0.10641
 C723 C 0.57078 0.24068 0.12201
 C724 C 0.56157 0.25020 0.14054
 C725 C 0.54841 0.23764 0.15437
 C726 C 0.54422 0.21551 0.14964
 C727 C 0.55411 0.20602 0.13133
 C728 C 0.56728 0.21851 0.11767
 H729 H 0.60652 0.30450 0.08658
 H730 H 0.62297 0.31976 0.05398
 H731 H 0.61890 0.25578 0.02357
 H732 H 0.60155 0.24163 0.05572
 H733 H 0.56411 0.26738 0.14400
 H734 H 0.54095 0.24541 0.16830
 H735 H 0.55129 0.18903 0.12726
 H736 H 0.57428 0.21098 0.10336
 C737 C 0.27503 0.07683 0.60109
 C738 C 0.26149 0.05867 0.60366
 C739 C 0.26962 0.03948 0.61270
 C740 C 0.29169 0.03785 0.61944
 C741 C 0.30512 0.05657 0.61696
 C742 C 0.29685 0.07581 0.60778
 C743 C 0.26616 0.09607 0.59102
 C744 C 0.25725 0.11110 0.58204
 C745 C 0.24505 0.12757 0.57065
 C746 C 0.22265 0.12432 0.56732
 C747 C 0.21080 0.13869 0.55433
 C748 C 0.22119 0.15660 0.54445
 C749 C 0.24355 0.16029 0.54856
 C750 C 0.25545 0.14576 0.56153
 H751 H 0.24449 0.05933 0.59871
 H752 H 0.25811 0.02627 0.61511
 H753 H 0.32229 0.05629 0.62114
 H754 H 0.30755 0.08977 0.60567
 H755 H 0.21445 0.11027 0.57425
 H756 H 0.19361 0.13542 0.55156
 H757 H 0.25202 0.17389 0.54110
 H758 H 0.27281 0.14836 0.56392
 C759 C 0.71065 0.08264 0.40345
 C760 C 0.70535 0.06555 0.41753
 C761 C 0.69641 0.04619 0.40945
 C762 C 0.69268 0.04367 0.38713
 C763 C 0.69701 0.06133 0.37320
 C764 C 0.70606 0.08069 0.38133
 C765 C 0.72298 0.10092 0.41153
 C766 C 0.73441 0.11510 0.41901
 C767 C 0.74914 0.13049 0.42887
 C768 C 0.74138 0.15000 0.43792
 C769 C 0.75546 0.16334 0.44999
 C770 C 0.77738 0.15713 0.45330
 C771 C 0.78519 0.13798 0.44334
 C772 C 0.77116 0.12478 0.43122
 H773 H 0.70892 0.06685 0.43467
 H774 H 0.69300 0.03293 0.42055
 H775 H 0.69448 0.05974 0.35591
 H776 H 0.71029 0.09375 0.37026
 H777 H 0.72431 0.15450 0.43630
 H778 H 0.74895 0.17795 0.45755
 H779 H 0.80199 0.13278 0.44552
 H780 H 0.77732 0.10967 0.42436
 C781 C 0.73001 0.92921 0.60590
 C782 C 0.71939 0.94346 0.59171
 C783 C 0.70838 0.96171 0.59972
 C784 C 0.70786 0.96601 0.62208
 C785 C 0.71811 0.95133 0.63634
 C786 C 0.72923 0.93303 0.62826
 C787 C 0.74265 0.91152 0.59707
 C788 C 0.75345 0.89756 0.58840
 C789 C 0.76651 0.88204 0.57664
 C790 C 0.75733 0.86240 0.56934
 C791 C 0.76923 0.84875 0.55547
 C792 C 0.79037 0.85471 0.54863
 C793 C 0.79971 0.87410 0.55670
 C794 C 0.78783 0.88766 0.57058
 H795 H 0.71992 0.94065 0.57439
 H796 H 0.70036 0.97258 0.58840
 H797 H 0.71807 0.95435 0.65362
 H798 H 0.73752 0.92215 0.63936
 H799 H 0.74076 0.85800 0.57379
 H800 H 0.76159 0.83393 0.54953
 H801 H 0.81597 0.87912 0.55181
 H802 H 0.79502 0.90291 0.57602
 C803 C 0.26442 0.92107 0.38627
 C804 C 0.25168 0.93932 0.38111
 C805 C 0.26147 0.95800 0.37246
 C806 C 0.28419 0.95867 0.36889
 C807 C 0.29676 0.93993 0.37329
 C808 C 0.28692 0.92126 0.38202
 C809 C 0.25459 0.90310 0.39769
 C810 C 0.24583 0.88895 0.40814
 C811 C 0.23472 0.87326 0.42154
 C812 C 0.21300 0.87713 0.42753
 C813 C 0.20255 0.86330 0.44220
 C814 C 0.21370 0.84535 0.45115
 C815 C 0.23536 0.84119 0.44459
 C816 C 0.24584 0.85514 0.42991
 H817 H 0.23426 0.93937 0.38438
 H818 H 0.25136 0.97209 0.36897
 H819 H 0.31431 0.94008 0.37089
 H820 H 0.29696 0.90728 0.38610
 H821 H 0.20428 0.89117 0.42124
 H822 H 0.18585 0.86693 0.44684
 H823 H 0.24439 0.82752 0.45121
 H824 H 0.26272 0.85209 0.42548
 C825 C 0.07058 0.39059 0.73487
 C826 C 0.05008 0.39084 0.74482
 C827 C 0.03182 0.38254 0.73406
 C828 C 0.03359 0.37383 0.71290
 C829 C 0.05471 0.37271 0.70351
 C830 C 0.07296 0.38119 0.71436
 C831 C 0.08860 0.40142 0.74531
 C832 C 0.10273 0.41148 0.75458
 C833 C 0.11839 0.42451 0.76625
 C834 C 0.11337 0.43151 0.78724
 C835 C 0.12743 0.44571 0.79817
 C836 C 0.14677 0.45315 0.78824
 C837 C 0.15196 0.44565 0.76729
 C838 C 0.13779 0.43145 0.75634
 H839 H 0.04810 0.39786 0.76083
 H840 H 0.01640 0.38275 0.74267
 H841 H 0.05714 0.36669 0.68721
 H842 H 0.08879 0.38103 0.70645
 H843 H 0.09833 0.42634 0.79501
 H844 H 0.12298 0.45111 0.81429
 H845 H 0.16671 0.45109 0.75921
 H846 H 0.14174 0.42623 0.74002
 C847 C 0.07088 0.61522 0.26144
 C848 C 0.05068 0.61582 0.25094
 C849 C 0.03217 0.62353 0.26175
 C850 C 0.03341 0.63073 0.28349
 C851 C 0.05429 0.63126 0.29339
 C852 C 0.07278 0.62338 0.28250
 C853 C 0.08894 0.60433 0.25115
 C854 C 0.10311 0.59405 0.24218
 C855 C 0.11879 0.58062 0.23103
 C856 C 0.11401 0.57313 0.21016
 C857 C 0.12797 0.55835 0.19986
 C858 C 0.14695 0.55083 0.21032
 C859 C 0.15195 0.55885 0.23112
 C860 C 0.13788 0.57362 0.24144
 H861 H 0.04908 0.60974 0.23452
 H862 H 0.01696 0.62389 0.25282
 H863 H 0.05633 0.63616 0.31011
 H864 H 0.08836 0.62286 0.29084
 H865 H 0.09920 0.57832 0.20202
 H866 H 0.12368 0.55257 0.18383
 H867 H 0.16644 0.55336 0.23959
 H868 H 0.14164 0.57920 0.25767
 C869 C 0.92354 0.40459 0.28303
 C870 C 0.92288 0.38412 0.29302
 C871 C 0.94202 0.37494 0.30153
 C872 C 0.96233 0.38597 0.29981
 C873 C 0.96231 0.40712 0.29061
 C874 C 0.94317 0.41622 0.28230
 C875 C 0.90477 0.41320 0.27188
 C876 C 0.89018 0.42109 0.26134
 C877 C 0.87424 0.43133 0.24755
 C878 C 0.85437 0.43906 0.25587
 C879 C 0.84014 0.45099 0.24260
 C880 C 0.84578 0.45545 0.22094
 C881 C 0.86546 0.44697 0.21262
 C882 C 0.87954 0.43501 0.22583
 H883 H 0.90774 0.37490 0.29356
 H884 H 0.94097 0.35856 0.30800
 H885 H 0.97700 0.41696 0.28993
 H886 H 0.94382 0.43222 0.27481
 H887 H 0.85016 0.43639 0.27270
 H888 H 0.82515 0.45737 0.24949
 H889 H 0.87026 0.45004 0.19602
 H890 H 0.89491 0.42917 0.21924
 C891 C 0.92308 0.59666 0.71729
 C892 C 0.94275 0.58515 0.71850
 C893 C 0.96203 0.59432 0.71055
 C894 C 0.96215 0.61541 0.70121
 C895 C 0.94184 0.62633 0.69907
 C896 C 0.92255 0.61709 0.70723
 C897 C 0.90409 0.58795 0.72801
 C898 C 0.88932 0.57995 0.73822
 C899 C 0.87321 0.56953 0.75169
 C900 C 0.87803 0.56609 0.77355
 C901 C 0.86393 0.55378 0.78645
 C902 C 0.84472 0.54473 0.77767
 C903 C 0.83950 0.54900 0.75589
 C904 C 0.85375 0.56127 0.74293
 H905 H 0.94331 0.56919 0.72607
 H906 H 0.97674 0.58456 0.71156
 H907 H 0.94085 0.64268 0.69250
 H908 H 0.90739 0.62621 0.70634
 H909 H 0.89307 0.57234 0.78047
 H910 H 0.86838 0.55088 0.80317
 H911 H 0.82487 0.54216 0.74866
 H912 H 0.84993 0.56374 0.72598
 C913 C 0.73069 0.61478 0.92095
 C914 C 0.70811 0.61867 0.92153
 C915 C 0.69842 0.62733 0.94023
 C916 C 0.71122 0.63196 0.95861
 C917 C 0.73400 0.62889 0.95750
 C918 C 0.74363 0.62034 0.93881
 C919 C 0.74045 0.60318 0.90308
 C920 C 0.74928 0.59255 0.88911
 C921 C 0.76058 0.57891 0.87372
 C922 C 0.74986 0.57071 0.85538
 C923 C 0.76050 0.55581 0.84170
 C924 C 0.78195 0.54886 0.84633
 C925 C 0.79272 0.55765 0.86450
 C926 C 0.78211 0.57254 0.87805
 H927 H 0.69791 0.61429 0.90785
 H928 H 0.68083 0.62937 0.94072
 H929 H 0.74427 0.63254 0.97133
 H930 H 0.76111 0.61735 0.93857
 H931 H 0.73313 0.57542 0.85195
 H932 H 0.75176 0.54932 0.82786
 H933 H 0.80924 0.55271 0.86850
 H934 H 0.79054 0.57868 0.89225
 C935 C 0.27385 0.39497 0.92666
 C936 C 0.28098 0.37334 0.92834
 C937 C 0.29170 0.36626 0.94712
 C938 C 0.29529 0.38073 0.96471
 C939 C 0.28811 0.40259 0.96240
 C940 C 0.27755 0.40953 0.94367
 C941 C 0.26208 0.40258 0.90798
 C942 C 0.25171 0.41049 0.89339
 C943 C 0.23874 0.42162 0.87743
 C944 C 0.21687 0.42638 0.88214
 C945 C 0.20496 0.44028 0.86869
 C946 C 0.21478 0.44964 0.85030
 C947 C 0.23645 0.44392 0.84507
 C948 C 0.24841 0.43006 0.85866
 H949 H 0.27800 0.36186 0.91529
 H950 H 0.29616 0.34920 0.94802
 H951 H 0.29128 0.41481 0.97468
 H952 H 0.27225 0.42638 0.94245
 H953 H 0.20928 0.42009 0.89671
 H954 H 0.18828 0.44426 0.87310
 H955 H 0.24446 0.45091 0.83105
 H956 H 0.26541 0.42666 0.85500
 C957 C 0.27722 0.60691 0.07453
 C958 C 0.27866 0.62937 0.07035
 C959 C 0.28943 0.63680 0.05171
 C960 C 0.29865 0.62178 0.03704
 C961 C 0.29754 0.59933 0.04171
 C962 C 0.28690 0.59198 0.06030
 C963 C 0.26468 0.59870 0.09249
 C964 C 0.25380 0.59044 0.10656
 C965 C 0.24040 0.57909 0.12205
 C966 C 0.24928 0.57160 0.14157
 C967 C 0.23696 0.55795 0.15509
 C968 C 0.21571 0.55150 0.14908
 C969 C 0.20668 0.55980 0.12982
 C970 C 0.21895 0.57348 0.11643
 H971 H 0.27109 0.64106 0.08121
 H972 H 0.28997 0.65417 0.04843
 H973 H 0.30478 0.58743 0.03085
 H974 H 0.28586 0.57457 0.06335
 H975 H 0.26594 0.57568 0.14597
 H976 H 0.24437 0.55179 0.16978
 H977 H 0.19034 0.55523 0.12477
 H978 H 0.21197 0.57905 0.10129
 C979 C 0.73299 0.38306 0.07724
 C980 C 0.74593 0.37817 0.05917
 C981 C 0.73636 0.36972 0.04041
 C982 C 0.71366 0.36608 0.03946
 C983 C 0.70089 0.37009 0.05801
 C984 C 0.71051 0.37864 0.07678
 C985 C 0.74261 0.39452 0.09525
 C986 C 0.75129 0.40508 0.10934
 C987 C 0.76240 0.41871 0.12485
 C988 C 0.78406 0.42487 0.12086
 C989 C 0.79445 0.43995 0.13437
 C990 C 0.78331 0.44913 0.15213
 C991 C 0.76174 0.44232 0.15648
 C992 C 0.75132 0.42725 0.14283
 H993 H 0.76333 0.38157 0.05932
 H994 H 0.74661 0.36654 0.02645
 H995 H 0.68335 0.36761 0.05765
 H996 H 0.70031 0.38252 0.09062
 H997 H 0.79276 0.41846 0.10693
 H998 H 0.81108 0.44475 0.13061
 H999 H 0.75272 0.44913 0.17000
 H1000 H 0.73448 0.42271 0.14598
 C1001 C 0.92808 0.73234 0.61155
 C1002 C 0.92657 0.71002 0.61634
 C1003 C 0.94462 0.69896 0.62497
 C1004 C 0.96441 0.71011 0.62867
 C1005 C 0.96544 0.73269 0.62465
 C1006 C 0.94740 0.74371 0.61614
 C1007 C 0.91075 0.74335 0.60019
 C1008 C 0.89726 0.75315 0.58979
 C1009 C 0.88243 0.76552 0.57650
 C1010 C 0.86288 0.75629 0.56898
 C1011 C 0.84954 0.76795 0.55463
 C1012 C 0.85572 0.78892 0.54755
 C1013 C 0.87518 0.79818 0.55557
 C1014 C 0.88840 0.78655 0.56992
 H1015 H 0.91173 0.70104 0.61273
 H1016 H 0.94346 0.68153 0.62777
 H1017 H 0.98040 0.74172 0.62760
 H1018 H 0.94877 0.76097 0.61247
 H1019 H 0.85817 0.73996 0.57388
 H1020 H 0.83467 0.76037 0.54874
 H1021 H 0.88039 0.81430 0.55051
 H1022 H 0.90355 0.79382 0.57554
 C1023 C 0.92574 0.27094 0.38971
 C1024 C 0.92512 0.29328 0.38482
 C1025 C 0.94360 0.30361 0.37613
 C1026 C 0.96295 0.29172 0.37242
 C1027 C 0.96310 0.26913 0.37661
 C1028 C 0.94464 0.25885 0.38521
 C1029 C 0.90784 0.26062 0.40092
 C1030 C 0.89372 0.25144 0.41110
 C1031 C 0.87799 0.23980 0.42409
 C1032 C 0.85954 0.25044 0.43249
 C1033 C 0.84540 0.23939 0.44661
 C1034 C 0.84966 0.21760 0.45257
 C1035 C 0.86797 0.20696 0.44361
 C1036 C 0.88200 0.21799 0.42951
 H1037 H 0.91063 0.30283 0.38835
 H1038 H 0.94309 0.32105 0.37322
 H1039 H 0.97768 0.25951 0.37366
 H1040 H 0.94533 0.24156 0.38894
 H1041 H 0.85634 0.26737 0.42851
 H1042 H 0.83148 0.24805 0.45325
 H1043 H 0.87171 0.19019 0.44780
 H1044 H 0.89627 0.20962 0.42318
 C1045 C 0.07979 0.28690 0.59799
 C1046 C 0.07924 0.29135 0.62025
 C1047 C 0.06013 0.29957 0.62981
 C1048 C 0.04130 0.30320 0.61721
 C1049 C 0.04236 0.29959 0.59473
 C1050 C 0.06146 0.29149 0.58522
 C1051 C 0.09813 0.27565 0.58841
 C1052 C 0.11244 0.26520 0.57977
 C1053 C 0.12816 0.25162 0.56870
 C1054 C 0.14748 0.26044 0.56017
 C1055 C 0.16145 0.24738 0.54759
 C1056 C 0.15611 0.22541 0.54329
 C1057 C 0.13702 0.21658 0.55255
 C1058 C 0.12320 0.22958 0.56514
 H1059 H 0.09327 0.28771 0.63033
 H1060 H 0.05970 0.30203 0.64717
 H1061 H 0.02820 0.30248 0.58461
 H1062 H 0.06165 0.28807 0.56800
 H1063 H 0.15145 0.27751 0.56273
 H1064 H 0.17598 0.25468 0.54061
 H1065 H 0.13244 0.19973 0.54963
 H1066 H 0.10827 0.22258 0.57161
 C1067 C 0.07795 0.70903 0.40251
 C1068 C 0.05921 0.70695 0.41527
 C1069 C 0.03995 0.69856 0.40645
 C1070 C 0.03889 0.69211 0.38447
 C1071 C 0.05845 0.69291 0.37220
 C1072 C 0.07771 0.70153 0.38111
 C1073 C 0.09643 0.72083 0.41106
 C1074 C 0.11065 0.73190 0.41904
 C1075 C 0.12602 0.74631 0.42950
 C1076 C 0.12013 0.76813 0.43292
 C1077 C 0.13350 0.78185 0.44523
 C1078 C 0.15304 0.77395 0.45433
 C1079 C 0.15932 0.75221 0.45011
 C1080 C 0.14581 0.73843 0.43783
 H1081 H 0.05926 0.71247 0.43196
 H1082 H 0.02594 0.69715 0.41707
 H1083 H 0.05867 0.68853 0.35522
 H1084 H 0.09213 0.70316 0.37102
 H1085 H 0.10482 0.77439 0.42664
 H1086 H 0.12821 0.79850 0.44811
 H1087 H 0.17422 0.74563 0.45697
 H1088 H 0.15047 0.72153 0.43539
 C1089 C 0.60153 0.92316 0.71798
 C1090 C 0.62153 0.92277 0.70698
 C1091 C 0.63051 0.94218 0.69884
 C1092 C 0.61977 0.96246 0.70194
 C1093 C 0.59909 0.96220 0.71224
 C1094 C 0.59018 0.94283 0.72016
 C1095 C 0.59298 0.90397 0.72846
 C1096 C 0.58493 0.88909 0.73846
 C1097 C 0.57425 0.87290 0.75166
 C1098 C 0.56469 0.85431 0.74237
 C1099 C 0.55176 0.84038 0.75504
 C1100 C 0.54809 0.84508 0.77707
 C1101 C 0.55856 0.86328 0.78640
 C1102 C 0.57153 0.87705 0.77377
 H1103 H 0.63052 0.90761 0.70528
 H1104 H 0.64654 0.94130 0.69145
 H1105 H 0.58941 0.97689 0.71401
 H1106 H 0.57453 0.94328 0.72842
 H1107 H 0.56655 0.85103 0.72522
 H1108 H 0.54383 0.82655 0.74739
 H1109 H 0.55613 0.86732 0.80331
 H1110 H 0.57876 0.89144 0.78112
 C1111 C 0.39474 0.91909 0.27769
 C1112 C 0.39194 0.93697 0.26401
 C1113 C 0.38276 0.95630 0.27178
 C1114 C 0.37611 0.95839 0.29365
 C1115 C 0.37871 0.93993 0.30723
 C1116 C 0.38805 0.92053 0.29931
 C1117 C 0.40509 0.89975 0.26912
 C1118 C 0.41431 0.88475 0.26028
 C1119 C 0.42598 0.86848 0.24793
 C1120 C 0.42856 0.87170 0.22565
 C1121 C 0.44198 0.85784 0.21359
 C1122 C 0.45306 0.84043 0.22359
 C1123 C 0.44962 0.83664 0.24582
 C1124 C 0.43623 0.85070 0.25796
 H1125 H 0.39686 0.93599 0.24717
 H1126 H 0.38021 0.96925 0.26017
 H1127 H 0.37454 0.94053 0.32423
 H1128 H 0.39030 0.90679 0.31013
 H1129 H 0.42077 0.88542 0.21771
 H1130 H 0.44421 0.86116 0.19650
 H1131 H 0.45805 0.82345 0.25398
 H1132 H 0.43444 0.84811 0.27522
 C1133 C 0.60181 0.07195 0.27354
 C1134 C 0.58793 0.05438 0.27776
 C1135 C 0.59562 0.03608 0.28876
 C1136 C 0.61760 0.03477 0.29587
 C1137 C 0.63138 0.05292 0.29172
 C1138 C 0.62354 0.07126 0.28058
 C1139 C 0.59343 0.09025 0.26152
 C1140 C 0.58504 0.10460 0.25107
 C1141 C 0.57357 0.12046 0.23819
 C1142 C 0.56881 0.11563 0.21656
 C1143 C 0.55509 0.12931 0.20464
 C1144 C 0.54587 0.14805 0.21422
 C1145 C 0.55144 0.15328 0.23572
 C1146 C 0.56514 0.13949 0.24767
 H1147 H 0.57100 0.05483 0.27256
 H1148 H 0.58387 0.02336 0.29232
 H1149 H 0.64849 0.05280 0.29611
 H1150 H 0.63450 0.08477 0.27724
 H1151 H 0.57510 0.10086 0.20911
 H1152 H 0.55120 0.12484 0.18810
 H1153 H 0.54458 0.16757 0.24356
 H1154 H 0.56856 0.14328 0.26447
 C1155 C 0.38397 0.07794 0.73104
 C1156 C 0.37840 0.05972 0.74356
 C1157 C 0.36985 0.04101 0.73372
 C1158 C 0.36676 0.04023 0.71117
 C1159 C 0.37146 0.05895 0.69880
 C1160 C 0.38013 0.07768 0.70868
 C1161 C 0.39536 0.09592 0.74109
 C1162 C 0.40574 0.10993 0.75027
 C1163 C 0.41898 0.12528 0.76219
 C1164 C 0.42305 0.12142 0.78413
 C1165 C 0.43767 0.13467 0.79553
 C1166 C 0.44849 0.15205 0.78515
 C1167 C 0.44377 0.15632 0.76325
 C1168 C 0.42914 0.14292 0.75182
 H1169 H 0.38133 0.05971 0.76086
 H1170 H 0.36614 0.02693 0.74367
 H1171 H 0.36942 0.05873 0.68138
 H1172 H 0.38450 0.09163 0.69881
 H1173 H 0.41537 0.10777 0.79232
 H1174 H 0.44085 0.13097 0.81237
 H1175 H 0.45188 0.16953 0.75480
 H1176 H 0.42622 0.14598 0.73479
 C1177 C 0.61020 0.72964 0.08137
 C1178 C 0.61483 0.70725 0.08027
 C1179 C 0.62334 0.69819 0.06119
 C1180 C 0.62711 0.71144 0.04295
 C1181 C 0.62314 0.73402 0.04451
 C1182 C 0.61474 0.74303 0.06358
 C1183 C 0.59914 0.73883 0.09988
 C1184 C 0.58902 0.74735 0.11439
 C1185 C 0.57601 0.75856 0.13039
 C1186 C 0.56640 0.74723 0.14765
 C1187 C 0.55183 0.75799 0.16163
 C1188 C 0.54660 0.78013 0.15830
 C1189 C 0.55693 0.79148 0.14134
 C1190 C 0.57150 0.78077 0.12752
 H1191 H 0.61125 0.69670 0.09389
 H1192 H 0.62608 0.68073 0.06037
 H1193 H 0.62613 0.74465 0.03081
 H1194 H 0.61119 0.76037 0.06422
 H1195 H 0.56966 0.72999 0.14994
 H1196 H 0.54408 0.74880 0.17450
 H1197 H 0.55336 0.80854 0.13837
 H1198 H 0.57876 0.78969 0.11418
 C1199 C 0.39826 0.27647 0.07845
 C1200 C 0.41285 0.28637 0.06404
 C1201 C 0.40503 0.29714 0.04575
 C1202 C 0.38245 0.29816 0.04157
 C1203 C 0.36778 0.28875 0.05644
 C1204 C 0.37568 0.27785 0.07477
 C1205 C 0.40691 0.26374 0.09600
 C1206 C 0.41550 0.25271 0.10972
 C1207 C 0.42720 0.23919 0.12479
 C1208 C 0.43223 0.21766 0.11903
 C1209 C 0.44616 0.20523 0.13199
 C1210 C 0.45530 0.21420 0.15093
 C1211 C 0.44946 0.23558 0.15708
 C1212 C 0.43555 0.24804 0.14400
 H1213 H 0.43035 0.28536 0.06670
 H1214 H 0.41666 0.30450 0.03470
 H1215 H 0.35032 0.28922 0.05351
 H1216 H 0.36425 0.27011 0.08577
 H1217 H 0.42599 0.21071 0.10410
 H1218 H 0.45025 0.18880 0.12685
 H1219 H 0.45625 0.24295 0.17155
 H1220 H 0.43191 0.26477 0.14850
 C1221 C 0.61234 0.26590 0.91864
 C1222 C 0.61609 0.28847 0.91958
 C1223 C 0.62545 0.29779 0.93812
 C1224 C 0.63090 0.28462 0.95597
 C1225 C 0.62802 0.26187 0.95443
 C1226 C 0.61879 0.25260 0.93590
 C1227 C 0.59979 0.25643 0.90128
 C1228 C 0.58835 0.24764 0.88796
 C1229 C 0.57377 0.23611 0.87365
 C1230 C 0.56547 0.24600 0.85493
 C1231 C 0.54985 0.23509 0.84228
 C1232 C 0.54227 0.21425 0.84837
 C1233 C 0.55109 0.20434 0.86695
 C1234 C 0.56670 0.21519 0.87945
 H1235 H 0.61099 0.29893 0.90638
 H1236 H 0.62735 0.31537 0.93898
 H1237 H 0.63226 0.25135 0.96788
 H1238 H 0.61590 0.23513 0.93539
 H1239 H 0.57074 0.26226 0.85037
 H1240 H 0.54335 0.24315 0.82808
 H1241 H 0.54571 0.18829 0.87206
 H1242 H 0.57292 0.20742 0.89395
 C1243 C 0.39888 0.72577 0.91911
 C1244 C 0.41356 0.71683 0.93401
 C1245 C 0.40584 0.70673 0.95273
 C1246 C 0.38326 0.70542 0.95689
 C1247 C 0.36851 0.71393 0.94158
 C1248 C 0.37631 0.72417 0.92281
 C1249 C 0.40743 0.73761 0.90086
 C1250 C 0.41597 0.74785 0.88650
 C1251 C 0.42767 0.76045 0.87060
 C1252 C 0.43285 0.78225 0.87510
 C1253 C 0.44689 0.79381 0.86143
 C1254 C 0.45598 0.78369 0.84303
 C1255 C 0.44994 0.76204 0.83810
 C1256 C 0.43593 0.75046 0.85189
 H1257 H 0.43105 0.71800 0.93133
 H1258 H 0.41755 0.70003 0.96408
 H1259 H 0.35104 0.71324 0.94446
 H1260 H 0.36481 0.73115 0.91142
 H1261 H 0.42669 0.79009 0.88962
 H1262 H 0.45113 0.81047 0.86565
 H1263 H 0.45670 0.75379 0.82409
 H1264 H 0.43218 0.73352 0.84836
 C1265 C 0.72499 0.92668 0.40256
 C1266 C 0.71551 0.94226 0.41624
 C1267 C 0.70459 0.96023 0.40756
 C1268 C 0.70299 0.96294 0.38501
 C1269 C 0.71207 0.94694 0.37130
 C1270 C 0.72311 0.92892 0.38006
 C1271 C 0.73761 0.90925 0.41195
 C1272 C 0.74854 0.89559 0.42091
 C1273 C 0.76200 0.88046 0.43275
 C1274 C 0.75303 0.86134 0.44148
 C1275 C 0.76565 0.84803 0.45503
 C1276 C 0.78734 0.85382 0.46011
 C1277 C 0.79636 0.87273 0.45072
 C1278 C 0.78376 0.88593 0.43717
 H1279 H 0.71686 0.94071 0.43367
 H1280 H 0.69746 0.97212 0.41850
 H1281 H 0.71120 0.94869 0.35388
 H1282 H 0.73051 0.91701 0.36932
 H1283 H 0.73613 0.85704 0.43830
 H1284 H 0.75822 0.83360 0.46202
 H1285 H 0.81301 0.87763 0.45424
 H1286 H 0.79084 0.90077 0.43062
 C1287 C 0.26699 0.92022 0.60758
 C1288 C 0.28949 0.92075 0.61187
 C1289 C 0.29892 0.93930 0.62139
 C1290 C 0.28593 0.95758 0.62650
 C1291 C 0.26323 0.95649 0.62298
 C1292 C 0.25385 0.93795 0.61358
 C1293 C 0.25744 0.90255 0.59535
 C1294 C 0.24869 0.88877 0.58435
 C1295 C 0.23735 0.87356 0.57048
 C1296 C 0.24795 0.85508 0.56213
 C1297 C 0.23709 0.84133 0.54747
 C1298 C 0.21553 0.84601 0.54092
 C1299 C 0.20495 0.86442 0.54973
 C1300 C 0.21578 0.87806 0.56437
 H1301 H 0.29984 0.90717 0.60718
 H1302 H 0.31647 0.93980 0.62377
 H1303 H 0.25282 0.97025 0.62696
 H1304 H 0.23643 0.93775 0.61032
 H1305 H 0.26469 0.85151 0.56665
 H1306 H 0.24569 0.82730 0.54097
 H1307 H 0.18836 0.86849 0.54510
 H1308 H 0.20744 0.89235 0.57064
 C1309 C 0.27522 0.07756 0.39647
 C1310 C 0.26083 0.06241 0.38725
 C1311 C 0.26887 0.04354 0.37735
 C1312 C 0.29150 0.03945 0.37652
 C1313 C 0.30598 0.05502 0.38529
 C1314 C 0.29785 0.07395 0.39532
 C1315 C 0.26628 0.09596 0.40810
 C1316 C 0.25739 0.11039 0.41814
 C1317 C 0.24527 0.12630 0.43051
 C1318 C 0.22323 0.12224 0.43513
 C1319 C 0.21142 0.13654 0.44832
 C1320 C 0.22146 0.15524 0.45714
 C1321 C 0.24348 0.15959 0.45195
 C1322 C 0.25534 0.14514 0.43875
 H1323 H 0.24331 0.06499 0.38804
 H1324 H 0.25736 0.03203 0.37043
 H1325 H 0.32347 0.05223 0.38496
 H1326 H 0.30914 0.08552 0.40251
 H1327 H 0.21526 0.10772 0.42887
 H1328 H 0.19451 0.13270 0.45194
 H1329 H 0.25169 0.17379 0.45856
 H1330 H 0.27241 0.14844 0.43532
 C1331 C 0.71308 0.08384 0.59598
 C1332 C 0.70665 0.06597 0.58332
 C1333 C 0.69807 0.04728 0.59311
 C1334 C 0.69584 0.04619 0.61574
 C1335 C 0.70120 0.06465 0.62828
 C1336 C 0.70990 0.08334 0.61844
 C1337 C 0.72514 0.10138 0.58604
 C1338 C 0.73626 0.11493 0.57710
 C1339 C 0.75058 0.12964 0.56569
 C1340 C 0.74294 0.14964 0.55771
 C1341 C 0.75659 0.16272 0.54489
 C1342 C 0.77796 0.15582 0.53978
 C1343 C 0.78563 0.13601 0.54845
 C1344 C 0.77204 0.12305 0.56129
 H1345 H 0.70911 0.06612 0.56594
 H1346 H 0.69387 0.03337 0.58306
 H1347 H 0.69983 0.06416 0.64575
 H1348 H 0.71498 0.09701 0.62842
 H1349 H 0.72632 0.15485 0.56094
 H1350 H 0.75018 0.17785 0.53839
 H1351 H 0.80199 0.13023 0.54489
 H1352 H 0.77811 0.10758 0.56732
 C1353 C 0.91638 0.59876 0.28034
 C1354 C 0.93547 0.58640 0.28282
 C1355 C 0.95441 0.59606 0.29108
 C1356 C 0.95455 0.61826 0.29696
 C1357 C 0.93504 0.63036 0.29535
 C1358 C 0.91607 0.62067 0.28696
 C1359 C 0.89801 0.58927 0.26916
 C1360 C 0.88373 0.58060 0.25876
 C1361 C 0.86816 0.56937 0.24523
 C1362 C 0.84945 0.55961 0.25409
 C1363 C 0.83601 0.54642 0.24114
 C1364 C 0.84130 0.54270 0.21924
 C1365 C 0.85962 0.55333 0.21035
 C1366 C 0.87291 0.56655 0.22325
 H1367 H 0.93592 0.56946 0.27771
 H1368 H 0.96913 0.58630 0.29241
 H1369 H 0.93477 0.64753 0.29964
 H1370 H 0.90143 0.63043 0.28498
 H1371 H 0.84568 0.56158 0.27113
 H1372 H 0.82207 0.53837 0.24847
 H1373 H 0.86411 0.55087 0.19355
 H1374 H 0.88738 0.57395 0.21623
 C1375 C 0.91605 0.40175 0.71519
 C1376 C 0.93436 0.41472 0.71069
 C1377 C 0.95340 0.40524 0.70243
 C1378 C 0.95442 0.38261 0.69858
 C1379 C 0.93561 0.36983 0.70207
 C1380 C 0.91654 0.37935 0.71046
 C1381 C 0.89785 0.41124 0.72669
 C1382 C 0.88373 0.41990 0.73735
 C1383 C 0.86833 0.43108 0.75114
 C1384 C 0.84927 0.44044 0.74266
 C1385 C 0.83583 0.45341 0.75586
 C1386 C 0.84147 0.45730 0.77764
 C1387 C 0.86021 0.44713 0.78615
 C1388 C 0.87350 0.43413 0.77300
 H1389 H 0.93420 0.43205 0.71434
 H1390 H 0.96759 0.41548 0.69968
 H1391 H 0.93604 0.35234 0.69938
 H1392 H 0.90253 0.36912 0.71401
 H1393 H 0.84516 0.43828 0.72573
 H1394 H 0.82156 0.46109 0.74881
 H1395 H 0.86500 0.44973 0.80284
 H1396 H 0.88825 0.42704 0.77973
 C1397 C 0.07897 0.60796 0.73346
 C1398 C 0.06018 0.61303 0.74541
 C1399 C 0.04173 0.62148 0.73506
 C1400 C 0.04183 0.62494 0.71256
 C1401 C 0.06108 0.62071 0.70078
 C1402 C 0.07954 0.61216 0.71118
 C1403 C 0.09671 0.59669 0.74390
 C1404 C 0.11056 0.58635 0.75326
 C1405 C 0.12577 0.57306 0.76520
 C1406 C 0.12161 0.56869 0.78703
 C1407 C 0.13469 0.55391 0.79832
 C1408 C 0.15218 0.54322 0.78792
 C1409 C 0.15674 0.54826 0.76615
 C1410 C 0.14353 0.56304 0.75483
 H1411 H 0.05954 0.60981 0.76265
 H1412 H 0.02722 0.62487 0.74455
 H1413 H 0.06152 0.62308 0.68341
 H1414 H 0.09395 0.60816 0.70175
 H1415 H 0.10785 0.57626 0.79519
 H1416 H 0.13078 0.55048 0.81508
 H1417 H 0.17005 0.54027 0.75769
 H1418 H 0.14679 0.56620 0.73787
 C1419 C 0.07894 0.39449 0.26830
 C1420 C 0.07945 0.39025 0.29058
 C1421 C 0.06112 0.38125 0.30087
 C1422 C 0.04203 0.37663 0.28899
 C1423 C 0.04204 0.38009 0.26649
 C1424 C 0.06036 0.38897 0.25624
 C1425 C 0.09647 0.40625 0.25793
 C1426 C 0.11009 0.41692 0.24855
 C1427 C 0.12501 0.43050 0.23652
 C1428 C 0.14292 0.44048 0.24667
 C1429 C 0.15605 0.45526 0.23518
 C1430 C 0.15127 0.46031 0.21346
 C1431 C 0.13355 0.44975 0.20332
 C1432 C 0.12056 0.43499 0.21477
 H1433 H 0.09370 0.39458 0.30009
 H1434 H 0.06146 0.37889 0.31824
 H1435 H 0.02765 0.37643 0.25692
 H1436 H 0.05976 0.39220 0.23901
 H1437 H 0.14644 0.43723 0.26355
 H1438 H 0.16954 0.46314 0.24345
 H1439 H 0.12945 0.45319 0.18662
 H1440 H 0.10668 0.42745 0.20678
   
