data_POSCAR
  _audit_creation_date              2014-09-24
  _audit_creation_method            'ToBaCCo'
  _symmetry_space_group_name_H-M    'P1'
  _symmetry_Int_Tables_number       1
  _symmetry_cell_setting            triclinic
  loop_
  _symmetry_equiv_pos_as_xyz
 x,y,z
_cell_length_a 97.4556
_cell_length_b 97.3314
_cell_length_c 97.4140
_cell_angle_alpha 90.069100
_cell_angle_beta 90.038300
_cell_angle_gamma 90.020100
loop_
  _atom_site_label
  _atom_site_type_symbol
  _atom_site_fract_x
  _atom_site_fract_y
  _atom_site_fract_z
N1 N 0.31299 0.42760 0.89934
 N2 N 0.32268 0.43702 0.89936
 C3 C 0.32042 0.44583 0.88893
 C4 C 0.30876 0.44163 0.88209
 C5 C 0.30427 0.43007 0.88889
 H6 H 0.32670 0.45466 0.88653
 H7 H 0.29530 0.42398 0.88647
 Cu8 Cu 0.33714 0.43701 0.91318
 Cu9 Cu 0.31223 0.41304 0.91299
 Cu10 Cu 0.33742 0.41310 0.93814
 N11 N 0.35098 0.43710 0.92762
 N12 N 0.35105 0.42771 0.93733
 C13 C 0.36151 0.43023 0.94603
 C14 C 0.36826 0.44180 0.94149
 C15 C 0.36139 0.44595 0.92984
 H16 H 0.36395 0.42417 0.95502
 H17 H 0.36375 0.45478 0.92353
 N18 N 0.32275 0.39916 0.93725
 N19 N 0.31315 0.39914 0.92766
 C20 C 0.30450 0.38860 0.92998
 C21 C 0.30889 0.38175 0.94154
 C22 C 0.32045 0.38862 0.94592
 H23 H 0.29557 0.38615 0.92385
 H24 H 0.32659 0.38621 0.95484
 H25 H 0.32211 0.42396 0.92831
 H26 H 0.33304 0.41261 0.91736
 N27 N 0.42802 0.85108 0.43744
 N28 N 0.43737 0.85110 0.42769
 C29 C 0.44613 0.86160 0.42988
 C30 C 0.44195 0.86845 0.44155
 C31 C 0.43047 0.86159 0.44613
 H32 H 0.45492 0.86401 0.42356
 H33 H 0.42446 0.86396 0.45516
 Cu34 Cu 0.43734 0.83715 0.41333
 Cu35 Cu 0.41361 0.83724 0.43839
 Cu36 Cu 0.41362 0.81205 0.41318
 N37 N 0.43737 0.82281 0.39937
 N38 N 0.42803 0.81304 0.39935
 C39 C 0.43049 0.80438 0.38884
 C40 C 0.44197 0.80898 0.38199
 C41 C 0.44612 0.82065 0.38888
 H42 H 0.42449 0.79533 0.38644
 H43 H 0.45491 0.82699 0.38648
 N44 N 0.39990 0.81276 0.42803
 N45 N 0.39990 0.82236 0.43763
 C46 C 0.38956 0.81985 0.44647
 C47 C 0.38284 0.80815 0.44219
 C48 C 0.38957 0.80389 0.43051
 H49 H 0.38718 0.82594 0.45545
 H50 H 0.38721 0.79492 0.42440
 H51 H 0.42449 0.82198 0.42846
 H52 H 0.41303 0.83287 0.41759
 N53 N 0.92752 0.89926 0.81332
 N54 N 0.93689 0.89927 0.82304
 C55 C 0.94566 0.88878 0.82084
 C56 C 0.94148 0.88193 0.80917
 C57 C 0.92997 0.88877 0.80463
 H58 H 0.95448 0.88637 0.82713
 H59 H 0.92393 0.88638 0.79562
 Cu60 Cu 0.93690 0.91321 0.83741
 Cu61 Cu 0.91304 0.91304 0.81244
 Cu62 Cu 0.91306 0.93823 0.83765
 N63 N 0.93693 0.92757 0.85137
 N64 N 0.92756 0.93730 0.85141
 C65 C 0.93004 0.94597 0.86192
 C66 C 0.94154 0.94138 0.86874
 C67 C 0.94572 0.92972 0.86186
 H68 H 0.92401 0.95499 0.86434
 H69 H 0.95453 0.92340 0.86424
 N70 N 0.89925 0.93744 0.82285
 N71 N 0.89925 0.92784 0.81325
 C72 C 0.88875 0.93019 0.80454
 C73 C 0.88192 0.94178 0.80891
 C74 C 0.88875 0.94614 0.82050
 H75 H 0.88631 0.92404 0.79561
 H76 H 0.88631 0.95506 0.82665
 H77 H 0.92386 0.92837 0.82234
 H78 H 0.91252 0.91745 0.83322
 N79 N 0.42808 -0.10019 0.31228
 N80 N 0.43765 -0.09994 0.32180
 C81 C 0.44643 -0.11042 0.31964
 C82 C 0.44207 -0.11749 0.30818
 C83 C 0.43044 -0.11080 0.30372
 H84 H 0.45536 -0.11270 0.32583
 H85 H 0.42426 -0.11337 0.29485
 Cu86 Cu 0.43766 -0.08579 0.33592
 Cu87 Cu 0.41349 -0.08653 0.31141
 Cu88 Cu 0.41349 -0.06128 0.33665
 N89 N 0.43766 -0.07167 0.35006
 N90 N 0.42809 -0.06214 0.35032
 C91 C 0.43046 -0.05359 0.36093
 C92 C 0.44209 -0.05805 0.36762
 C93 C 0.44644 -0.06952 0.36054
 H94 H 0.42428 -0.04473 0.36351
 H95 H 0.45537 -0.07571 0.36282
 N96 N 0.39965 -0.06218 0.32190
 N97 N 0.39966 -0.07178 0.31229
 C98 C 0.38927 -0.06934 0.30349
 C99 C 0.38252 -0.05769 0.30780
 C100 C 0.38927 -0.05338 0.31945
 H101 H 0.38691 -0.07541 0.29449
 H102 H 0.38690 -0.04438 0.32552
 H103 H 0.42410 -0.07093 0.32107
 H104 H 0.41320 -0.08207 0.33218
 N105 N 0.81202 0.32162 0.35011
 N106 N 0.82147 0.31197 0.34981
 C107 C 0.81915 0.30304 0.36011
 C108 C 0.80767 0.30739 0.36713
 C109 C 0.80337 0.31917 0.36059
 H110 H 0.82522 0.29401 0.36229
 H111 H 0.79453 0.32537 0.36317
 Cu112 Cu 0.83557 0.31195 0.33569
 Cu113 Cu 0.81132 0.33636 0.33660
 Cu114 Cu 0.83650 0.33632 0.31139
 N115 N 0.84969 0.31193 0.32159
 N116 N 0.85000 0.32155 0.31212
 C117 C 0.86047 0.31905 0.30346
 C118 C 0.86699 0.30727 0.30778
 C119 C 0.85997 0.30297 0.31927
 H120 H 0.86304 0.32522 0.29460
 H121 H 0.86213 0.29394 0.32536
 N122 N 0.82194 0.35034 0.31242
 N123 N 0.81235 0.35036 0.32201
 C124 C 0.80373 0.36094 0.31972
 C125 C 0.80815 0.36780 0.30819
 C126 C 0.81966 0.36090 0.30378
 H127 H 0.79480 0.36338 0.32583
 H128 H 0.82577 0.36331 0.29484
 H129 H 0.82086 0.32576 0.32095
 H130 H 0.83208 0.33651 0.33217
 N131 N -0.17800 0.85101 0.81225
 N132 N -0.18764 0.85072 0.82170
 C133 C -0.19644 0.86118 0.81951
 C134 C -0.19201 0.86829 0.80811
 C135 C -0.18032 0.86164 0.80372
 H136 H -0.20542 0.86342 0.82564
 H137 H -0.17407 0.86425 0.79493
 Cu138 Cu -0.18774 0.83653 0.83577
 Cu139 Cu -0.16332 0.83740 0.81151
 Cu140 Cu -0.16347 0.81211 0.83665
 N141 N -0.18783 0.82235 0.84984
 N142 N -0.17823 0.81285 0.85015
 C143 C -0.18073 0.80419 0.86063
 C144 C -0.19250 0.80853 0.86717
 C145 C -0.19677 0.82005 0.86015
 H146 H -0.17458 0.79531 0.86320
 H147 H -0.20577 0.82618 0.86233
 N148 N -0.14944 0.81310 0.82209
 N149 N -0.14939 0.82271 0.81251
 C150 C -0.13881 0.82039 0.80390
 C151 C -0.13197 0.80883 0.80832
 C152 C -0.13890 0.80443 0.81982
 H153 H -0.13634 0.82652 0.79499
 H154 H -0.13652 0.79548 0.82593
 H155 H -0.17395 0.82177 0.82100
 H156 H -0.16320 0.83293 0.83226
 N157 N 0.93812 0.35046 0.42850
 N158 N 0.92863 0.35019 0.43810
 C159 C 0.93077 0.36069 0.44689
 C160 C 0.94218 0.36779 0.44248
 C161 C 0.94664 0.36111 0.43083
 H162 H 0.92460 0.36295 0.45583
 H163 H 0.95546 0.36370 0.42462
 Cu164 Cu 0.91458 0.33598 0.43817
 Cu165 Cu 0.93896 0.33677 0.41388
 Cu166 Cu 0.91386 0.31144 0.41398
 N167 N 0.90054 0.32176 0.43824
 N168 N 0.90029 0.31222 0.42865
 C169 C 0.88982 0.30355 0.43112
 C170 C 0.88322 0.30792 0.44283
 C171 C 0.89020 0.31947 0.44713
 H172 H 0.88729 0.29464 0.42497
 H173 H 0.88796 0.32563 0.45610
 N174 N 0.92849 0.31238 0.40005
 N175 N 0.93806 0.32201 0.40002
 C176 C 0.94680 0.31959 0.38958
 C177 C 0.94248 0.30793 0.38282
 C178 C 0.93090 0.30359 0.38963
 H179 H 0.95576 0.32568 0.38717
 H180 H 0.92485 0.29457 0.38729
 H181 H 0.91823 0.33225 0.41368
 H182 H 0.92943 0.32116 0.42453
 N183 N 0.43685 0.42739 0.85077
 N184 N 0.42743 0.43707 0.85048
 C185 C 0.42960 0.44580 0.86100
 C186 C 0.44094 0.44130 0.86814
 C187 C 0.44533 0.42963 0.86145
 H188 H 0.42353 0.45483 0.86323
 H189 H 0.45412 0.42338 0.86405
 Cu190 Cu 0.41347 0.43750 0.83620
 Cu191 Cu 0.43773 0.41291 0.83702
 Cu192 Cu 0.41258 0.41292 0.81186
 N193 N 0.39922 0.43710 0.82222
 N194 N 0.39889 0.42743 0.81277
 C195 C 0.38821 0.42970 0.80431
 C196 C 0.38156 0.44137 0.80875
 C197 C 0.38872 0.44585 0.82009
 H198 H 0.38557 0.42346 0.79550
 H199 H 0.38653 0.45487 0.82620
 N200 N 0.42733 0.39911 0.81266
 N201 N 0.43692 0.39912 0.82225
 C202 C 0.44564 0.38865 0.81987
 C203 C 0.44129 0.38183 0.80828
 C204 C 0.42970 0.38863 0.80392
 H205 H 0.45458 0.38623 0.82599
 H206 H 0.42358 0.38621 0.79498
 H207 H 0.42815 0.42361 0.82143
 H208 H 0.41689 0.41292 0.83268
 N209 N 0.81214 0.90003 0.92805
 N210 N 0.82206 0.89989 0.93723
 C211 C 0.82020 0.88912 0.94571
 C212 C 0.80851 0.88229 0.94159
 C213 C 0.80361 0.88941 0.93039
 H214 H 0.82663 0.88659 0.95439
 H215 H 0.79437 0.88725 0.92463
 Cu216 Cu 0.83594 0.91424 0.93739
 Cu217 Cu 0.81047 0.91464 0.91447
 Cu218 Cu 0.83713 0.93831 0.91288
 N219 N 0.85011 0.92830 0.93750
 N220 N 0.85058 0.93761 0.92773
 C221 C 0.86125 0.94610 0.93007
 C222 C 0.86773 0.94181 0.94188
 C223 C 0.86049 0.93052 0.94637
 H224 H 0.86401 0.95479 0.92374
 H225 H 0.86263 0.92445 0.95542
 N226 N 0.82237 0.93729 0.89902
 N227 N 0.81217 0.92835 0.89967
 C228 C 0.80355 0.93057 0.88908
 C229 C 0.80858 0.94141 0.88153
 C230 C 0.82046 0.94547 0.88803
 H231 H 0.79420 0.92492 0.88712
 H232 H 0.82703 0.95393 0.88512
 H233 H 0.83132 0.91770 0.91312
 H234 H 0.82163 0.92997 0.92415
 N235 N 0.31238 0.85001 0.32164
 N236 N 0.32190 0.84974 0.31207
 C237 C 0.31962 0.86007 0.30315
 C238 C 0.30809 0.86705 0.30740
 C239 C 0.30372 0.86049 0.31913
 H240 H 0.32576 0.86228 0.29417
 H241 H 0.29481 0.86301 0.32525
 Cu242 Cu 0.33606 0.83569 0.31215
 Cu243 Cu 0.31159 0.83646 0.33632
 Cu244 Cu 0.33689 0.81132 0.33646
 N245 N 0.35023 0.82164 0.31224
 N246 N 0.35052 0.81216 0.32185
 C247 C 0.36116 0.80366 0.31953
 C248 C 0.36782 0.80811 0.30789
 C249 C 0.36071 0.81950 0.30347
 H250 H 0.36379 0.79484 0.32575
 H251 H 0.36297 0.82567 0.29453
 N252 N 0.32217 0.81225 0.35031
 N253 N 0.31255 0.82183 0.35025
 C254 C 0.30376 0.81942 0.36064
 C255 C 0.30809 0.80784 0.36747
 C256 C 0.31974 0.80351 0.36075
 H257 H 0.29474 0.82546 0.36295
 H258 H 0.32582 0.79454 0.36316
 H259 H 0.33239 0.83209 0.33665
 H260 H 0.32130 0.82084 0.32580
 N261 N 0.81227 0.39969 0.42795
 N262 N 0.82179 0.39998 0.43754
 C263 C 0.81951 0.38967 0.44647
 C264 C 0.80798 0.38267 0.44221
 C265 C 0.80361 0.38922 0.43047
 H266 H 0.82564 0.38748 0.45546
 H267 H 0.79471 0.38666 0.42433
 Cu268 Cu 0.83597 0.41403 0.43747
 Cu269 Cu 0.81151 0.41321 0.41322
 Cu270 Cu 0.83683 0.43834 0.41313
 N271 N 0.85015 0.42808 0.43739
 N272 N 0.85044 0.43755 0.42777
 C273 C 0.86106 0.44609 0.43013
 C274 C 0.86770 0.44169 0.44181
 C275 C 0.86060 0.43026 0.44620
 H276 H 0.86367 0.45491 0.42392
 H277 H 0.86284 0.42413 0.45518
 N278 N 0.82215 0.43738 0.39922
 N279 N 0.81252 0.42781 0.39924
 C280 C 0.80386 0.43013 0.38871
 C281 C 0.80829 0.44165 0.38183
 C282 C 0.81986 0.44603 0.38867
 H283 H 0.79489 0.42404 0.38631
 H284 H 0.82600 0.45495 0.38624
 H285 H 0.83228 0.41754 0.41295
 H286 H 0.82118 0.42880 0.42375
 N287 N 0.92803 0.85012 -0.06243
 N288 N 0.93760 0.84988 -0.07195
 C289 C 0.94638 0.86036 -0.06978
 C290 C 0.94202 0.86742 -0.05832
 C291 C 0.93039 0.86073 -0.05387
 H292 H 0.95531 0.86265 -0.07596
 H293 H 0.92422 0.86330 -0.04501
 Cu294 Cu 0.93761 0.83575 -0.08605
 Cu295 Cu 0.91346 0.83645 -0.06158
 Cu296 Cu 0.91346 0.81122 -0.08684
 N297 N 0.93760 0.82168 -0.10022
 N298 N 0.92804 0.81213 -0.10049
 C299 C 0.93041 0.80360 -0.11112
 C300 C 0.94203 0.80809 -0.11778
 C301 C 0.94638 0.81955 -0.11069
 H302 H 0.92425 0.79472 -0.11371
 H303 H 0.95531 0.82575 -0.11294
 N304 N 0.89963 0.81210 -0.07210
 N305 N 0.89963 0.82170 -0.06249
 C306 C 0.88925 0.81924 -0.05370
 C307 C 0.88250 0.80760 -0.05803
 C308 C 0.88925 0.80329 -0.06967
 H309 H 0.88689 0.82531 -0.04470
 H310 H 0.88688 0.79429 -0.07574
 H311 H 0.92405 0.82087 -0.07124
 H312 H 0.91315 0.83201 -0.08236
 N313 N 0.31258 0.35070 0.82243
 N314 N 0.32209 0.35044 0.81284
 C315 C 0.31991 0.36090 0.80405
 C316 C 0.30847 0.36798 0.80841
 C317 C 0.30404 0.36131 0.82006
 H318 H 0.32608 0.36316 0.79511
 H319 H 0.29520 0.36390 0.82625
 Cu320 Cu 0.33618 0.33629 0.81284
 Cu321 Cu 0.31179 0.33709 0.83709
 Cu322 Cu 0.33700 0.31186 0.83708
 N323 N 0.35033 0.32218 0.81284
 N324 N 0.35060 0.31267 0.82242
 C325 C 0.36121 0.30414 0.82006
 C326 C 0.36788 0.30858 0.80842
 C327 C 0.36079 0.32002 0.80405
 H328 H 0.36381 0.29530 0.82626
 H329 H 0.36306 0.32620 0.79511
 N330 N 0.32234 0.31281 0.85100
 N331 N 0.31274 0.32240 0.85100
 C332 C 0.30408 0.32008 0.86153
 C333 C 0.30848 0.30853 0.86839
 C334 C 0.32003 0.30414 0.86153
 H335 H 0.29514 0.32619 0.86395
 H336 H 0.32615 0.29520 0.86394
 H337 H 0.33255 0.33264 0.83733
 H338 H 0.32139 0.32145 0.82650
 N339 N 0.14966 0.57198 0.56214
 N340 N 0.14998 0.56230 0.57156
 C341 C 0.13958 0.55345 0.56927
 C342 C 0.13250 0.55786 0.55785
 C343 C 0.13909 0.56961 0.55354
 H344 H 0.13743 0.54438 0.57530
 H345 H 0.13653 0.57581 0.54470
 Cu346 Cu 0.16423 0.56199 0.58557
 Cu347 Cu 0.16330 0.58658 0.56135
 Cu348 Cu 0.18848 0.58657 0.58650
 N349 N 0.17825 0.56230 0.59981
 N350 N 0.18768 0.57198 0.60013
 C351 C 0.19628 0.56961 0.61070
 C352 C 0.19196 0.55786 0.61728
 C353 C 0.18053 0.55345 0.61020
 H354 H 0.20513 0.57582 0.61326
 H355 H 0.17448 0.54440 0.61236
 N356 N 0.18758 0.60047 0.57183
 N357 N 0.17799 0.60047 0.56225
 C358 C 0.18032 0.61099 0.55357
 C359 C 0.19189 0.61784 0.55795
 C360 C 0.19627 0.61099 0.56950
 H361 H 0.17418 0.61341 0.54465
 H362 H 0.20520 0.61341 0.57564
 H363 H 0.17890 0.57592 0.57088
 H364 H 0.16764 0.58657 0.58218
 N365 N 0.60039 0.67829 0.06206
 N366 N 0.60039 0.68766 0.07182
 C367 C 0.61087 0.69643 0.06967
 C368 C 0.61770 0.69229 0.05800
 C369 C 0.61085 0.68079 0.05338
 H370 H 0.61332 0.70522 0.07602
 H371 H 0.61321 0.67480 0.04433
 Cu372 Cu 0.58646 0.68768 0.08612
 Cu373 Cu 0.58666 0.66379 0.06113
 Cu374 Cu 0.56140 0.66389 0.08620
 N375 N 0.57203 0.68779 0.09992
 N376 N 0.56226 0.67846 0.09988
 C377 C 0.55343 0.68112 0.11017
 C378 C 0.55795 0.69270 0.11695
 C379 C 0.56974 0.69671 0.11026
 H380 H 0.54430 0.67522 0.11244
 H381 H 0.57605 0.70554 0.11267
 N382 N 0.56227 0.65002 0.07147
 N383 N 0.57188 0.64999 0.06191
 C384 C 0.56944 0.63957 0.05311
 C385 C 0.55778 0.63283 0.05739
 C386 C 0.55346 0.63963 0.06900
 H387 H 0.57553 0.63716 0.04416
 H388 H 0.54446 0.63728 0.07505
 H389 H 0.57133 0.67470 0.07095
 H390 H 0.58219 0.66332 0.08191
 N391 N 0.67812 0.18778 0.64969
 N392 N 0.68754 0.17809 0.64977
 C393 C 0.69632 0.18025 0.63929
 C394 C 0.69210 0.19187 0.63239
 C395 C 0.68058 0.19642 0.63919
 H396 H 0.70517 0.17398 0.63691
 H397 H 0.67455 0.20543 0.63679
 Cu398 Cu 0.68747 0.16399 0.66391
 Cu399 Cu 0.66362 0.18877 0.66345
 Cu400 Cu 0.66373 0.16366 0.68878
 N401 N 0.68770 0.15000 0.67818
 N402 N 0.67832 0.14996 0.68788
 C403 C 0.68095 0.13964 0.69669
 C404 C 0.69255 0.13291 0.69221
 C405 C 0.69663 0.13967 0.68047
 H406 H 0.67500 0.13732 0.70576
 H407 H 0.70551 0.13732 0.67423
 N408 N 0.64988 0.17842 0.68789
 N409 N 0.64985 0.18798 0.67827
 C410 C 0.63945 0.19677 0.68070
 C411 C 0.63272 0.19250 0.69237
 C412 C 0.63951 0.18088 0.69669
 H413 H 0.63704 0.20572 0.67460
 H414 H 0.63716 0.17483 0.70569
 H415 H 0.67436 0.17908 0.67892
 H416 H 0.66313 0.16806 0.66804
 N417 N 1.10060 0.07179 0.18750
 N418 N 1.10012 0.06199 0.17819
 C419 C 1.11049 0.05310 0.18043
 C420 C 1.11772 0.05762 0.19173
 C421 C 1.11124 0.06946 0.19600
 H422 H 1.11262 0.04404 0.17437
 H423 H 1.11399 0.07581 0.20470
 Cu424 Cu 1.08600 0.06209 0.16410
 Cu425 Cu 1.08717 0.08666 0.18819
 Cu426 Cu 1.06054 0.08500 0.16450
 N427 N 1.07214 0.06224 0.14973
 N428 N 1.06224 0.07143 0.14988
 C429 C 1.05371 0.06908 0.13927
 C430 C 1.05858 0.05787 0.13214
 C431 C 1.07027 0.05374 0.13895
 H432 H 1.04446 0.07484 0.13713
 H433 H 1.07668 0.04504 0.13643
 N434 N 1.06222 0.09983 0.17821
 N435 N 1.07241 0.10052 0.18716
 C436 C 1.07047 0.11154 0.19533
 C437 C 1.05859 0.11800 0.19125
 C438 C 1.05359 0.11041 0.18041
 H439 H 1.07703 0.11449 0.20379
 H440 H 1.04425 0.11234 0.17474
 H441 H 1.07172 0.07536 0.17984
 H442 H 1.08142 0.08639 0.16760
 N443 N 0.07172 0.14958 1.06224
 N444 N 0.06206 0.14991 1.07165
 C445 C 0.05320 0.13951 1.06938
 C446 C 0.05760 0.13242 1.05796
 C447 C 0.06934 0.13899 1.05365
 H448 H 0.04415 0.13736 1.07542
 H449 H 0.07553 0.13641 1.04480
 Cu450 Cu 0.06169 0.16416 1.08568
 Cu451 Cu 0.08627 0.16324 1.06141
 Cu452 Cu 0.08638 0.18835 1.08664
 N453 N 0.06221 0.17807 1.10002
 N454 N 0.07190 0.18748 1.10037
 C455 C 0.06969 0.19592 1.11109
 C456 C 0.05803 0.19152 1.11776
 C457 C 0.05350 0.18021 1.11055
 H458 H 0.07596 0.20470 1.11375
 H459 H 0.04447 0.17413 1.11274
 N460 N 0.10016 0.18754 1.07188
 N461 N 0.10012 0.17796 1.06227
 C462 C 0.11049 0.18040 1.05345
 C463 C 0.11728 0.19204 1.05777
 C464 C 0.11055 0.19634 1.06943
 H465 H 0.11282 0.17433 1.04445
 H466 H 0.11296 0.20531 1.07553
 H467 H 0.08626 0.16750 1.08226
 H468 H 0.07565 0.17885 1.07101
 N469 N 0.15018 0.68829 0.67833
 N470 N 0.15048 0.67879 0.68793
 C471 C 0.14018 0.68111 0.69687
 C472 C 0.13318 0.69263 0.69260
 C473 C 0.13971 0.69696 0.68083
 H474 H 0.13801 0.67501 0.70589
 H475 H 0.13714 0.70583 0.67467
 Cu476 Cu 0.16458 0.66466 0.68790
 Cu477 Cu 0.16369 0.68900 0.66358
 Cu478 Cu 0.18886 0.66374 0.66352
 N479 N 0.17865 0.65049 0.68786
 N480 N 0.18812 0.65019 0.67823
 C481 C 0.19677 0.63969 0.68070
 C482 C 0.19245 0.63313 0.69246
 C483 C 0.18096 0.64016 0.69678
 H484 H 0.20562 0.63712 0.67452
 H485 H 0.17488 0.63799 0.70580
 N486 N 0.18784 0.67836 0.64955
 N487 N 0.17826 0.68797 0.64957
 C488 C 0.18054 0.69661 0.63901
 C489 C 0.19205 0.69219 0.63212
 C490 C 0.19646 0.68065 0.63898
 H491 H 0.17443 0.70556 0.63661
 H492 H 0.20539 0.67452 0.63655
 H493 H 0.16810 0.66820 0.66336
 H494 H 0.17933 0.67940 0.67413
 N495 N 1.17765 0.14922 0.18730
 N496 N 1.18737 0.14961 0.17794
 C497 C 1.19611 0.13910 0.18008
 C498 C 1.19157 0.13186 0.19135
 C499 C 1.17987 0.13848 0.19571
 H500 H 1.20516 0.13694 0.17404
 H501 H 1.17357 0.13579 0.20444
 Cu502 Cu 1.18785 0.16398 0.16407
 Cu503 Cu 1.16308 0.16287 0.18813
 Cu504 Cu 1.16315 0.18815 0.16313
 N505 N 1.18748 0.17804 0.14988
 N506 N 1.17777 0.18743 0.14954
 C507 C 1.18015 0.19604 0.13900
 C508 C 1.19193 0.19178 0.13245
 C509 C 1.19635 0.18036 0.13953
 H510 H 1.17391 0.20486 0.13642
 H511 H 1.20544 0.17436 0.13740
 N512 N 1.14922 0.18719 0.17774
 N513 N 1.14920 0.17756 0.18729
 C514 C 1.13868 0.17986 0.19596
 C515 C 1.13183 0.19144 0.19162
 C516 C 1.13870 0.19587 0.18010
 H517 H 1.13625 0.17370 0.20486
 H518 H 1.13630 0.20484 0.17401
 H519 H 1.16325 0.16728 0.16732
 H520 H 1.17376 0.17858 0.17874
 N521 N 0.65001 1.06225 0.57172
 N522 N 0.65028 1.07177 0.56213
 C523 C 0.63993 1.06949 0.55323
 C524 C 0.63294 1.05796 0.55750
 C525 C 0.63953 1.05359 0.56923
 H526 H 0.63771 1.07563 0.54425
 H527 H 0.63699 1.04468 0.57536
 Cu528 Cu 0.66435 1.08595 0.56221
 Cu529 Cu 0.66359 1.06147 0.58639
 Cu530 Cu 0.68874 1.08676 0.58650
 N531 N 0.67841 1.10012 0.56228
 N532 N 0.68791 1.10041 0.57189
 C533 C 0.69643 1.11104 0.56955
 C534 C 0.69199 1.11771 0.55790
 C535 C 0.68056 1.11060 0.55351
 H536 H 0.70527 1.11364 0.57575
 H537 H 0.67440 1.11286 0.54456
 N538 N 0.68782 1.07204 0.60037
 N539 N 0.67823 1.06243 0.60033
 C540 C 0.68064 1.05365 0.61073
 C541 C 0.69223 1.05798 0.61755
 C542 C 0.69657 1.06961 0.61081
 H543 H 0.67458 1.04464 0.61306
 H544 H 0.70555 1.07569 0.61321
 H545 H 0.66799 1.08227 0.58670
 H546 H 0.67917 1.07114 0.57586
 N547 N 0.57143 0.56193 0.14995
 N548 N 0.56194 0.57153 0.15008
 C549 C 0.55309 0.56925 0.13968
 C550 C 0.55729 0.55760 0.13282
 C551 C 0.56893 0.55318 0.13953
 H552 H 0.54416 0.57543 0.13737
 H553 H 0.57499 0.54418 0.13711
 Cu554 Cu 0.56195 0.58590 0.16399
 Cu555 Cu 0.58598 0.56109 0.16365
 Cu556 Cu 0.58596 0.58631 0.18882
 N557 N 0.56191 0.59983 0.17833
 N558 N 0.57140 0.59999 0.18795
 C559 C 0.56887 0.61042 0.19668
 C560 C 0.55723 0.61709 0.19224
 C561 C 0.55305 0.61022 0.18059
 H562 H 0.57493 0.61286 0.20567
 H563 H 0.54412 0.61250 0.17440
 N564 N 0.59982 0.57159 0.18798
 N565 N 0.59983 0.56197 0.17839
 C566 C 0.61022 0.55318 0.18085
 C567 C 0.61697 0.55751 0.19250
 C568 C 0.61021 0.56916 0.19679
 H569 H 0.61261 0.54418 0.17479
 H570 H 0.61258 0.57525 0.20577
 H571 H 0.57523 0.57092 0.17899
 H572 H 0.58641 0.58192 0.16800
 N573 N 0.65024 0.67868 0.18793
 N574 N 0.65050 0.68828 0.17842
 C575 C 0.64016 0.69719 0.18070
 C576 C 0.63318 0.69291 0.19223
 C577 C 0.63977 0.68118 0.19659
 H578 H 0.63793 0.70617 0.17457
 H579 H 0.63724 0.67504 0.20549
 Cu580 Cu 0.66454 0.68819 0.16423
 Cu581 Cu 0.66381 0.66399 0.18872
 Cu582 Cu 0.68891 0.66387 0.16341
 N583 N 0.67857 0.68810 0.15004
 N584 N 0.68806 0.67848 0.14975
 C585 C 0.69656 0.68081 0.13912
 C586 C 0.69212 0.69247 0.13245
 C587 C 0.68072 0.69687 0.13956
 H588 H 0.70539 0.67460 0.13652
 H589 H 0.67456 0.70583 0.13730
 N590 N 0.68802 0.65001 0.17815
 N591 N 0.67846 0.65005 0.18777
 C592 C 0.68090 0.63965 0.19656
 C593 C 0.69249 0.63284 0.19223
 C594 C 0.69678 0.63958 0.18058
 H595 H 0.67486 0.63732 0.20557
 H596 H 0.70575 0.63718 0.17450
 H597 H 0.67938 0.67454 0.17902
 H598 H 0.66817 0.66367 0.16792
 N599 N 0.15047 0.07124 1.06177
 N600 N 0.15029 0.06207 1.07168
 C601 C 0.13947 0.05363 1.06984
 C602 C 0.13265 0.05779 1.05817
 C603 C 0.13982 0.06894 1.05326
 H604 H 0.13691 0.04497 1.07629
 H605 H 0.13767 0.07471 1.04402
 Cu606 Cu 0.16464 0.06190 1.08556
 Cu607 Cu 0.16512 0.08476 1.06005
 Cu608 Cu 0.18882 0.08636 1.08667
 N609 N 0.17872 0.06179 1.09970
 N610 N 0.18806 0.07155 1.10016
 C611 C 0.19656 0.06920 1.11080
 C612 C 0.19226 0.05739 1.11729
 C613 C 0.18094 0.05291 1.11007
 H614 H 0.20529 0.07551 1.11353
 H615 H 0.17487 0.04386 1.11221
 N616 N 0.18786 0.10016 1.07185
 N617 N 0.17891 0.09950 1.06166
 C618 C 0.18126 0.10997 1.05294
 C619 C 0.19219 0.11745 1.05788
 C620 C 0.19617 0.11104 1.06983
 H621 H 0.17563 0.11188 1.04356
 H622 H 0.20468 0.11392 1.07635
 H623 H 0.18041 0.07505 1.07121
 H624 H 0.16823 0.08616 1.08091
 N625 N 0.60035 0.18800 0.57175
 N626 N 0.60006 0.17849 0.56213
 C627 C 0.61055 0.18062 0.55337
 C628 C 0.61766 0.19205 0.55778
 C629 C 0.61099 0.19651 0.56942
 H630 H 0.61281 0.17444 0.54443
 H631 H 0.61360 0.20535 0.57564
 Cu632 Cu 0.58586 0.16444 0.56205
 Cu633 Cu 0.58671 0.18887 0.58635
 Cu634 Cu 0.56138 0.16376 0.58624
 N635 N 0.57165 0.15040 0.56197
 N636 N 0.56214 0.15016 0.57155
 C637 C 0.55345 0.13970 0.56904
 C638 C 0.55779 0.13310 0.55731
 C639 C 0.56934 0.14005 0.55305
 H640 H 0.54454 0.13720 0.57517
 H641 H 0.57547 0.13781 0.54407
 N642 N 0.56236 0.17844 0.60017
 N643 N 0.57199 0.18800 0.60021
 C644 C 0.56958 0.19680 0.61062
 C645 C 0.55793 0.19253 0.61736
 C646 C 0.55358 0.18091 0.61056
 H647 H 0.57568 0.20577 0.61301
 H648 H 0.54455 0.17488 0.61289
 H649 H 0.58215 0.16809 0.58655
 H650 H 0.57107 0.17930 0.57569
 N651 N 0.09991 0.57131 0.68837
 N652 N 0.09955 0.56159 0.67899
 C653 C 0.10993 0.55273 0.68127
 C654 C 0.11704 0.55720 0.69266
 C655 C 0.11049 0.56898 0.69694
 H656 H 0.11206 0.54363 0.67525
 H657 H 0.11310 0.57523 0.70575
 Cu658 Cu 0.08527 0.56118 0.66501
 Cu659 Cu 0.08629 0.58591 0.68918
 Cu660 Cu 0.06113 0.58588 0.66404
 N661 N 0.07129 0.56157 0.65074
 N662 N 0.06192 0.57128 0.65040
 C663 C 0.05335 0.56894 0.63980
 C664 C 0.05763 0.55717 0.63323
 C665 C 0.06901 0.55271 0.64034
 H666 H 0.04455 0.57519 0.63720
 H667 H 0.07502 0.54362 0.63819
 N668 N 0.06202 0.59977 0.67872
 N669 N 0.07161 0.59978 0.68831
 C670 C 0.06917 0.61019 0.69711
 C671 C 0.05753 0.61694 0.69281
 C672 C 0.05323 0.61016 0.68117
 H673 H 0.07524 0.61256 0.70611
 H674 H 0.04424 0.61251 0.67510
 H675 H 0.07066 0.57523 0.67967
 H676 H 0.08197 0.58579 0.66835
 N677 N 0.64987 0.56215 0.07136
 N678 N 0.65015 0.57168 0.06179
 C679 C 0.63983 0.56939 0.05285
 C680 C 0.63284 0.55784 0.05708
 C681 C 0.63940 0.55347 0.06882
 H682 H 0.63762 0.57555 0.04388
 H683 H 0.63686 0.54457 0.07494
 Cu684 Cu 0.66420 0.58589 0.06192
 Cu685 Cu 0.66342 0.56137 0.08609
 Cu686 Cu 0.68854 0.58670 0.08627
 N687 N 0.67824 0.60011 0.06205
 N688 N 0.68772 0.60038 0.07168
 C689 C 0.69625 0.61102 0.06936
 C690 C 0.69183 0.61771 0.05772
 C691 C 0.68041 0.61061 0.05330
 H692 H 0.70508 0.61361 0.07559
 H693 H 0.67426 0.61287 0.04434
 N694 N 0.68763 0.57195 0.10012
 N695 N 0.67805 0.56233 0.10006
 C696 C 0.68047 0.55354 0.11047
 C697 C 0.69207 0.55787 0.11730
 C698 C 0.69638 0.56952 0.11056
 H699 H 0.67442 0.54452 0.11279
 H700 H 0.70535 0.57561 0.11297
 H701 H 0.66778 0.58216 0.08643
 H702 H 0.67899 0.57106 0.07559
 N703 N 0.07214 0.68784 0.60031
 N704 N 0.06252 0.67836 0.60006
 C705 C 0.05370 0.68064 0.61047
 C706 C 0.05807 0.69213 0.61749
 C707 C 0.06976 0.69648 0.61085
 H708 H 0.04466 0.67457 0.61266
 H709 H 0.07593 0.70538 0.61336
 Cu710 Cu 0.06216 0.66433 0.58581
 Cu711 Cu 0.08666 0.68867 0.58662
 Cu712 Cu 0.08659 0.66348 0.56144
 N713 N 0.06244 0.65007 0.57178
 N714 N 0.07203 0.64980 0.56228
 C715 C 0.06959 0.63926 0.55365
 C716 C 0.05788 0.63264 0.55801
 C717 C 0.05357 0.63968 0.56951
 H718 H 0.07572 0.63673 0.54475
 H719 H 0.04455 0.63750 0.57559
 N720 N 0.10046 0.67819 0.56230
 N721 N 0.10048 0.68780 0.57189
 C722 C 0.11097 0.69651 0.56954
 C723 C 0.11779 0.69212 0.55796
 C724 C 0.11094 0.68054 0.55359
 H725 H 0.11341 0.70545 0.57567
 H726 H 0.11335 0.67440 0.54465
 H727 H 0.07596 0.67906 0.57107
 H728 H 0.08670 0.66782 0.58229
 N729 N 0.57105 1.06212 0.64989
 N730 N 0.56142 1.07161 0.65012
 C731 C 0.55257 1.06927 0.63975
 C732 C 0.55694 1.05776 0.63275
 C733 C 0.56867 1.05345 0.63936
 H734 H 0.54358 1.07537 0.63754
 H735 H 0.57485 1.04455 0.63686
 Cu736 Cu 0.56139 1.08591 0.66412
 Cu737 Cu 0.58566 1.06135 0.66356
 Cu738 Cu 0.58556 1.08653 0.68878
 N739 N 0.56132 1.09989 0.67845
 N740 N 0.57090 1.10015 0.68797
 C741 C 0.56846 1.11066 0.69664
 C742 C 0.55673 1.11723 0.69228
 C743 C 0.55242 1.11023 0.68075
 H744 H 0.57460 1.11320 0.70555
 H745 H 0.54345 1.11242 0.67460
 N746 N 0.59949 1.07187 0.68790
 N747 N 0.59953 1.06227 0.67829
 C748 C 0.60992 1.05347 0.68077
 C749 C 0.61665 1.05777 0.69245
 C750 C 0.60986 1.06942 0.69673
 H751 H 0.61229 1.04447 0.67470
 H752 H 0.61218 1.07548 0.70575
 H753 H 0.57488 1.07105 0.67901
 H754 H 0.58591 1.08223 0.66791
 N755 N 0.43709 0.35122 0.92764
 N756 N 0.42758 0.35100 0.93723
 C757 C 0.42971 0.36155 0.94596
 C758 C 0.44113 0.36863 0.94155
 C759 C 0.44561 0.36188 0.92995
 H760 H 0.42355 0.36382 0.95491
 H761 H 0.45450 0.36440 0.92379
 Cu762 Cu 0.41361 0.33668 0.93763
 Cu763 Cu 0.43799 0.33745 0.91315
 Cu764 Cu 0.41288 0.31224 0.91313
 N765 N 0.39935 0.32265 0.93720
 N766 N 0.39914 0.31312 0.92761
 C767 C 0.38852 0.30457 0.92990
 C768 C 0.38176 0.30903 0.94150
 C769 C 0.38882 0.32049 0.94591
 H770 H 0.38601 0.29567 0.92374
 H771 H 0.38653 0.32665 0.95487
 N772 N 0.42763 0.31305 0.89932
 N773 N 0.43721 0.32266 0.89933
 C774 C 0.44591 0.32030 0.88884
 C775 C 0.44156 0.30870 0.88199
 C776 C 0.42999 0.30433 0.88883
 H777 H 0.45482 0.32645 0.88641
 H778 H 0.42386 0.29539 0.88639
 H779 H 0.41715 0.33312 0.91309
 H780 H 0.42839 0.32190 0.92384
 N781 N 0.93747 0.42777 0.35105
 N782 N 0.92802 0.43743 0.35079
 C783 C 0.93017 0.44615 0.36135
 C784 C 0.94152 0.44164 0.36849
 C785 C 0.94595 0.43001 0.36176
 H786 H 0.92405 0.45515 0.36360
 H787 H 0.95474 0.42375 0.36435
 Cu788 Cu 0.91400 0.43779 0.33653
 Cu789 Cu 0.93839 0.41330 0.33725
 Cu790 Cu 0.91322 0.41335 0.31209
 N791 N 0.89974 0.43747 0.32251
 N792 N 0.89946 0.42782 0.31303
 C793 C 0.88877 0.43009 0.30455
 C794 C 0.88207 0.44173 0.30898
 C795 C 0.88922 0.44620 0.32036
 H796 H 0.88617 0.42384 0.29574
 H797 H 0.88698 0.45520 0.32649
 N798 N 0.92801 0.39956 0.31281
 N799 N 0.93761 0.39954 0.32240
 C800 C 0.94644 0.38918 0.31986
 C801 C 0.94216 0.38248 0.30816
 C802 C 0.93049 0.38923 0.30393
 H803 H 0.95542 0.38680 0.32593
 H804 H 0.92441 0.38688 0.29493
 H805 H 0.92880 0.42403 0.32174
 H806 H 0.91760 0.41323 0.33292
 N807 N 0.31280 0.92864 0.39977
 N808 N 0.32235 0.93821 0.39998
 C809 C 0.32009 0.94705 0.38958
 C810 C 0.30855 0.94274 0.38261
 C811 C 0.30416 0.93107 0.38927
 H812 H 0.32625 0.95601 0.38730
 H813 H 0.29522 0.92496 0.38680
 Cu814 Cu 0.33655 0.93819 0.41402
 Cu815 Cu 0.31192 0.91408 0.41346
 Cu816 Cu 0.33724 0.91407 0.43857
 N817 N 0.35074 0.93817 0.42807
 N818 N 0.35099 0.92860 0.43762
 C819 C 0.36164 0.93094 0.44611
 C820 C 0.36836 0.94253 0.44159
 C821 C 0.36126 0.94692 0.43017
 H822 H 0.36421 0.92477 0.45498
 H823 H 0.36355 0.95583 0.42395
 N824 N 0.32243 0.90027 0.43780
 N825 N 0.31280 0.90027 0.42824
 C826 C 0.30399 0.88990 0.43073
 C827 C 0.30831 0.88315 0.44237
 C828 C 0.31998 0.88990 0.44663
 H829 H 0.29498 0.88753 0.42469
 H830 H 0.32609 0.88753 0.45558
 H831 H 0.32165 0.92472 0.42895
 H832 H 0.33267 0.91372 0.41782
 O833 O 0.21367 0.51787 0.74907
 O834 O 0.21810 0.51583 0.77283
 O835 O 0.24911 0.53665 0.73244
 O836 O 0.27208 0.53285 0.73266
 O837 O 0.23228 0.50083 0.71350
 O838 O 0.23392 0.47660 0.71851
 O839 O 0.28584 0.49921 0.76827
 O840 O 0.28214 0.52288 0.76528
 O841 O 0.25157 0.48208 0.78578
 O842 O 0.22644 0.48352 0.78119
 O843 O 0.26807 0.46429 0.75132
 O844 O 0.26600 0.46976 0.72566
 O845 O 0.28575 0.48231 0.75201
 O846 O 0.28329 0.48416 0.72852
 O847 O 0.25162 0.46424 0.76791
 O848 O 0.22614 0.46910 0.76595
 O849 O 0.26838 0.49835 0.78560
 O850 O 0.26337 0.52341 0.78157
 O851 O 0.21367 0.50108 0.73265
 O852 O 0.21873 0.47657 0.73408
 O853 O 0.24847 0.51773 0.71354
 O854 O 0.27390 0.51570 0.71893
 O855 O 0.23229 0.53649 0.74870
 O856 O 0.23593 0.53136 0.77355
 Zr857 Zr 0.23351 0.51676 0.75754
 O858 O 0.24550 0.50453 0.77073
 Zr859 Zr 0.25754 0.51675 0.73320
 O860 O 0.27066 0.50476 0.74552
 Zr861 Zr 0.23353 0.49244 0.73338
 O862 O 0.24569 0.47927 0.74549
 Zr863 Zr 0.26630 0.50803 0.76639
 O864 O 0.25437 0.52143 0.75411
 Zr865 Zr 0.24228 0.48366 0.76633
 O866 O 0.22899 0.49582 0.75423
 Zr867 Zr 0.26653 0.48385 0.74226
 O868 O 0.25442 0.49580 0.72862
 O869 O 0.23693 0.51317 0.73682
 O870 O 0.26299 0.48721 0.76298
 C871 C 0.20800 0.51099 0.73932
 C872 C 0.23913 0.54223 0.73901
 C873 C 0.23877 0.51082 0.70786
 C874 C 0.29127 0.48895 0.76201
 C875 C 0.26185 0.48834 0.79116
 C876 C 0.26169 0.45877 0.76142
 H877 H 0.24341 0.50677 0.78041
 H878 H 0.24355 0.46960 0.74325
 H879 H 0.23102 0.51899 0.73099
 H880 H 0.28036 0.50690 0.74340
 H881 H 0.27770 0.53167 0.76275
 H882 H 0.27924 0.53058 0.73949
 H883 H 0.22796 0.46259 0.75836
 H884 H 0.21395 0.47748 0.74300
 H885 H 0.27124 0.52296 0.78801
 H886 H 0.22854 0.53832 0.77274
 H887 H 0.25888 0.46281 0.72767
 H888 H 0.24290 0.47729 0.71381
 H889 H 0.21405 0.50652 0.77234
 H890 H 0.22765 0.49169 0.78711
 H891 H 0.27121 0.50912 0.71165
 H892 H 0.28064 0.49025 0.72088
 O893 O 0.28644 -0.00095 0.26781
 O894 O 0.28194 0.02282 0.26575
 O895 O 0.25101 -0.01772 0.28647
 O896 O 0.22804 -0.01754 0.28262
 O897 O 0.26790 -0.03663 0.25071
 O898 O 0.26637 -0.03163 0.22653
 O899 O 0.21429 0.01805 0.24881
 O900 O 0.21786 0.01506 0.27249
 O901 O 0.24862 0.03562 0.23191
 O902 O 0.27371 0.03109 0.23341
 O903 O 0.23222 0.00102 0.21408
 O904 O 0.23429 -0.02466 0.21966
 O905 O 0.21445 0.00172 0.23199
 O906 O 0.21692 -0.02175 0.23388
 O907 O 0.24860 0.01771 0.21408
 O908 O 0.27408 0.01582 0.21903
 O909 O 0.23176 0.03543 0.24810
 O910 O 0.23665 0.03139 0.27316
 O911 O 0.28651 -0.01741 0.25105
 O912 O 0.28151 -0.01602 0.22655
 O913 O 0.25167 -0.03664 0.26754
 O914 O 0.22623 -0.03127 0.26550
 O915 O 0.26779 -0.00138 0.28633
 O916 O 0.26409 0.02347 0.28121
 Zr917 Zr 0.26658 0.00745 0.26663
 O918 O 0.25460 0.02060 0.25435
 Zr919 Zr 0.24260 -0.01697 0.26656
 O920 O 0.22948 -0.00470 0.25452
 Zr921 Zr 0.26667 -0.01675 0.24235
 O922 O 0.25452 -0.00468 0.22913
 Zr923 Zr 0.23379 0.01621 0.25777
 O924 O 0.24571 0.00397 0.27122
 Zr925 Zr 0.25790 0.01618 0.23352
 O926 O 0.27117 0.00413 0.24573
 Zr927 Zr 0.23369 -0.00798 0.23365
 O928 O 0.24578 -0.02157 0.24565
 O929 O 0.26321 -0.01330 0.26304
 O930 O 0.23717 0.01277 0.23698
 C931 C 0.29214 -0.01070 0.26096
 C932 C 0.26098 -0.01111 0.29206
 C933 C 0.26138 -0.04230 0.26064
 C934 C 0.20890 0.01173 0.23856
 C935 C 0.23833 0.04100 0.23814
 C936 C 0.23859 0.01114 0.20858
 H937 H 0.25667 0.03029 0.25659
 H938 H 0.25670 -0.00695 0.21949
 H939 H 0.26912 -0.01912 0.26888
 H940 H 0.21978 -0.00685 0.25662
 H941 H 0.22225 0.01259 0.28132
 H942 H 0.22091 -0.01069 0.28036
 H943 H 0.27228 0.00823 0.21252
 H944 H 0.28628 -0.00708 0.22747
 H945 H 0.22877 0.03781 0.27269
 H946 H 0.27147 0.02269 0.28819
 H947 H 0.24139 -0.02263 0.21270
 H948 H 0.25740 -0.03637 0.22717
 H949 H 0.28606 0.02231 0.25648
 H950 H 0.27250 0.03700 0.24159
 H951 H 0.22893 -0.03857 0.25896
 H952 H 0.21950 -0.02932 0.24010
 O953 O 0.50102 0.71393 0.23177
 O954 O 0.47732 0.71843 0.23375
 O955 O 0.51795 0.74954 0.21339
 O956 O 0.51784 0.77244 0.21732
 O957 O 0.53659 0.73238 0.24899
 O958 O 0.53162 0.73377 0.27315
 O959 O 0.48201 0.78614 0.25092
 O960 O 0.48510 0.78253 0.22720
 O961 O 0.46443 0.75177 0.26771
 O962 O 0.46892 0.72673 0.26635
 O963 O 0.49889 0.76836 0.28561
 O964 O 0.52378 0.76705 0.28111
 O965 O 0.49850 0.78607 0.26754
 O966 O 0.52416 0.78126 0.26575
 O967 O 0.48229 0.75189 0.28561
 O968 O 0.48419 0.72630 0.28066
 O969 O 0.46466 0.76863 0.25152
 O970 O 0.46880 0.76381 0.22648
 O971 O 0.51736 0.71370 0.24861
 O972 O 0.51582 0.71866 0.27316
 O973 O 0.53678 0.74901 0.23253
 O974 O 0.53145 0.77402 0.23508
 O975 O 0.50160 0.73277 0.21333
 O976 O 0.47670 0.73635 0.21844
 Zr977 Zr 0.49267 0.73382 0.23303
 O978 O 0.47952 0.74580 0.24533
 Zr979 Zr 0.51705 0.75783 0.23334
 O980 O 0.50473 0.77101 0.24527
 Zr981 Zr 0.51671 0.73354 0.25739
 O982 O 0.50472 0.74580 0.27059
 Zr983 Zr 0.48389 0.76663 0.24195
 O984 O 0.49617 0.75472 0.22854
 Zr985 Zr 0.48387 0.74251 0.26619
 O986 O 0.49585 0.72916 0.25394
 Zr987 Zr 0.50804 0.76668 0.26613
 O988 O 0.52149 0.75441 0.25422
 O989 O 0.51338 0.73715 0.23670
 O990 O 0.48730 0.76327 0.26275
 C991 C 0.51069 0.70814 0.23863
 C992 C 0.51135 0.73962 0.20770
 C993 C 0.54235 0.73912 0.23924
 C994 C 0.48843 0.79160 0.26107
 C995 C 0.45907 0.76205 0.26146
 C996 C 0.48877 0.76198 0.29111
 H997 H 0.46984 0.74372 0.24307
 H998 H 0.50693 0.74362 0.28025
 H999 H 0.51923 0.73127 0.23086
 H1000 H 0.50676 0.78071 0.24303
 H1001 H 0.48787 0.77814 0.21845
 H1002 H 0.51122 0.77975 0.21967
 H1003 H 0.49168 0.72817 0.28727
 H1004 H 0.50689 0.71392 0.27217
 H1005 H 0.46237 0.77169 0.22697
 H1006 H 0.47756 0.72905 0.21138
 H1007 H 0.52289 0.75863 0.28672
 H1008 H 0.53605 0.74292 0.27278
 H1009 H 0.47771 0.71435 0.24304
 H1010 H 0.46321 0.72778 0.25802
 H1011 H 0.53695 0.77221 0.24344
 H1012 H 0.52218 0.78792 0.25835
 O1013 O 0.00097 0.71371 0.73207
 O1014 O -0.02275 0.71817 0.73416
 O1015 O 0.01776 0.74928 0.71357
 O1016 O 0.01759 0.77221 0.71743
 O1017 O 0.03655 0.73227 0.74914
 O1018 O 0.03166 0.73373 0.77330
 O1019 O -0.01818 0.78593 0.75122
 O1020 O -0.01517 0.78229 0.72746
 O1021 O -0.03557 0.75156 0.76816
 O1022 O -0.03105 0.72651 0.76674
 O1023 O -0.00101 0.76817 0.78582
 O1024 O 0.02382 0.76701 0.78117
 O1025 O -0.00162 0.78592 0.76777
 O1026 O 0.02406 0.78120 0.76579
 O1027 O -0.01756 0.75165 0.78592
 O1028 O -0.01570 0.72610 0.78096
 O1029 O -0.03547 0.76839 0.75193
 O1030 O -0.03141 0.76353 0.72684
 O1031 O 0.01736 0.71357 0.74885
 O1032 O 0.01592 0.71857 0.77340
 O1033 O 0.03667 0.74886 0.73264
 O1034 O 0.03127 0.77388 0.73514
 O1035 O 0.00142 0.73250 0.71361
 O1036 O -0.02346 0.73605 0.71878
 Zr1037 Zr -0.00744 0.73359 0.73333
 O1038 O -0.02058 0.74557 0.74566
 Zr1039 Zr 0.01690 0.75765 0.73349
 O1040 O 0.00458 0.77084 0.74543
 Zr1041 Zr 0.01670 0.73341 0.75759
 O1042 O 0.00474 0.74567 0.77080
 Zr1043 Zr -0.01627 0.76641 0.74224
 O1044 O -0.00401 0.75450 0.72880
 Zr1045 Zr -0.01612 0.74231 0.76649
 O1046 O -0.00416 0.72897 0.75423
 Zr1047 Zr 0.00800 0.76656 0.76629
 O1048 O 0.02143 0.75429 0.75436
 O1049 O 0.01328 0.73697 0.73692
 O1050 O -0.01276 0.76308 0.76302
 C1051 C 0.01068 0.70796 0.73891
 C1052 C 0.01116 0.73934 0.70793
 C1053 C 0.04227 0.73899 0.73936
 C1054 C -0.01175 0.79141 0.76134
 C1055 C -0.04099 0.76182 0.76192
 C1056 C -0.01106 0.76174 0.79137
 H1057 H -0.03026 0.74346 0.74345
 H1058 H 0.00701 0.74352 0.78045
 H1059 H 0.01913 0.73110 0.73107
 H1060 H 0.00658 0.78053 0.74317
 H1061 H -0.01238 0.77790 0.71872
 H1062 H 0.01097 0.77953 0.71980
 H1063 H -0.00813 0.72794 0.78748
 H1064 H 0.00703 0.71376 0.77243
 H1065 H -0.03788 0.77137 0.72737
 H1066 H -0.02262 0.72871 0.71176
 H1067 H 0.02306 0.75855 0.78673
 H1068 H 0.03614 0.74285 0.77283
 H1069 H -0.02231 0.71410 0.74346
 H1070 H -0.03682 0.72756 0.75845
 H1071 H 0.03679 0.77210 0.74348
 H1072 H 0.02200 0.78786 0.75842
 O1073 O 0.00127 0.03590 0.01796
 O1074 O -0.02248 0.03144 0.01588
 O1075 O 0.01794 0.00028 0.03650
 O1076 O 0.01780 -0.02265 0.03254
 O1077 O 0.03681 0.01735 0.00081
 O1078 O 0.03177 0.01587 -0.02340
 O1079 O -0.01784 -0.03628 -0.00116
 O1080 O -0.01483 -0.03270 0.02251
 O1081 O -0.03547 -0.00183 -0.01796
 O1082 O -0.03085 0.02329 -0.01645
 O1083 O -0.00107 -0.01836 -0.03590
 O1084 O 0.02461 -0.01620 -0.03049
 O1085 O -0.00158 -0.03612 -0.01799
 O1086 O 0.02188 -0.03358 -0.01615
 O1087 O -0.01768 -0.00191 -0.03583
 O1088 O -0.01565 0.02362 -0.03087
 O1089 O -0.03522 -0.01876 -0.00184
 O1090 O -0.03111 -0.01390 0.02321
 O1091 O 0.01764 0.03601 0.00118
 O1092 O 0.01620 0.03106 -0.02333
 O1093 O 0.03681 0.00105 0.01758
 O1094 O 0.03141 -0.02442 0.01538
 O1095 O 0.00170 0.01714 0.03644
 O1096 O -0.02313 0.01358 0.03132
 Zr1097 Zr -0.00717 0.01603 0.01672
 O1098 O -0.02035 0.00408 0.00443
 Zr1099 Zr 0.01717 -0.00802 0.01655
 O1100 O 0.00486 -0.02110 0.00449
 Zr1101 Zr 0.01693 0.01616 -0.00758
 O1102 O 0.00481 0.00404 -0.02082
 Zr1103 Zr -0.01599 -0.01676 0.00780
 O1104 O -0.00372 -0.00487 0.02126
 Zr1105 Zr -0.01601 0.00741 -0.01640
 O1106 O -0.00390 0.02067 -0.00417
 Zr1107 Zr 0.00808 -0.01684 -0.01638
 O1108 O 0.02172 -0.00477 -0.00436
 O1109 O 0.01354 0.01264 0.01311
 O1110 O -0.01263 -0.01334 -0.01299
 C1111 C 0.01098 0.04163 0.01112
 C1112 C 0.01139 0.01025 0.04213
 C1113 C 0.04247 0.01079 0.01074
 C1114 C -0.01155 -0.04168 -0.01140
 C1115 C -0.04082 -0.01214 -0.01175
 C1116 C -0.01121 -0.01197 -0.04136
 H1117 H -0.03002 0.00617 0.00669
 H1118 H 0.00703 0.00623 -0.03046
 H1119 H 0.01937 0.01853 0.01897
 H1120 H 0.00700 -0.03082 0.00657
 H1121 H -0.01231 -0.02832 0.03134
 H1122 H 0.01093 -0.02978 0.03028
 H1123 H -0.00819 0.02173 -0.03749
 H1124 H 0.00723 0.03575 -0.02246
 H1125 H -0.03754 -0.02178 0.02272
 H1126 H -0.02231 0.02097 0.03830
 H1127 H 0.02251 -0.00912 -0.03746
 H1128 H 0.03642 0.00685 -0.02283
 H1129 H -0.02195 0.03560 0.00663
 H1130 H -0.03670 0.02209 -0.00825
 H1131 H 0.03873 -0.02167 0.00889
 H1132 H 0.02959 -0.03087 -0.01016
 O1133 O 0.03630 0.51778 0.50096
 O1134 O 0.03182 0.51570 0.47718
 O1135 O 0.00081 0.53641 0.51768
 O1136 O -0.02212 0.53253 0.51756
 O1137 O 0.01777 0.50058 0.53649
 O1138 O 0.01627 0.47638 0.53137
 O1139 O -0.03590 0.49884 0.48186
 O1140 O -0.03224 0.52253 0.48492
 O1141 O -0.00161 0.48186 0.46419
 O1142 O 0.02353 0.48340 0.46871
 O1143 O -0.01798 0.46401 0.49864
 O1144 O -0.01582 0.46945 0.52431
 O1145 O -0.03572 0.48196 0.49810
 O1146 O -0.03317 0.48381 0.52156
 O1147 O -0.00157 0.46402 0.48201
 O1148 O 0.02391 0.46896 0.48391
 O1149 O -0.01847 0.49807 0.46447
 O1150 O -0.01352 0.52313 0.46855
 O1151 O 0.03638 0.50098 0.51732
 O1152 O 0.03140 0.47644 0.51575
 O1153 O 0.00156 0.51744 0.53654
 O1154 O -0.02389 0.51534 0.53116
 O1155 O 0.01761 0.53632 0.50141
 O1156 O 0.01399 0.53120 0.47655
 Zr1157 Zr 0.01644 0.51659 0.49251
 O1158 O 0.00444 0.50433 0.47931
 Zr1159 Zr -0.00754 0.51647 0.51689
 O1160 O -0.02066 0.50445 0.50457
 Zr1161 Zr 0.01654 0.49225 0.51658
 O1162 O 0.00438 0.47905 0.50445
 Zr1163 Zr -0.01636 0.50774 0.48370
 O1164 O -0.00443 0.52118 0.49598
 Zr1165 Zr 0.00773 0.48347 0.48362
 O1166 O 0.02102 0.49566 0.49573
 Zr1167 Zr -0.01645 0.48355 0.50776
 O1168 O -0.00434 0.49553 0.52140
 O1169 O 0.01308 0.51297 0.51322
 O1170 O -0.01299 0.48693 0.48704
 C1171 C 0.04200 0.51093 0.51069
 C1172 C 0.01076 0.54203 0.51112
 C1173 C 0.01126 0.51053 0.54218
 C1174 C -0.04129 0.48858 0.48814
 C1175 C -0.01193 0.48809 0.45887
 C1176 C -0.01160 0.45851 0.48852
 H1177 H 0.00650 0.50659 0.46963
 H1178 H 0.00656 0.46939 0.50666
 H1179 H 0.01897 0.51881 0.51906
 H1180 H -0.03036 0.50656 0.50673
 H1181 H -0.02782 0.53135 0.48742
 H1182 H -0.02924 0.53029 0.51068
 H1183 H 0.02212 0.46242 0.49146
 H1184 H 0.03614 0.47739 0.50682
 H1185 H -0.02144 0.52268 0.46217
 H1186 H 0.02139 0.53817 0.47736
 H1187 H -0.00874 0.46248 0.52222
 H1188 H 0.00728 0.47697 0.53606
 H1189 H 0.03591 0.50640 0.47766
 H1190 H 0.02226 0.49156 0.46281
 H1191 H -0.02116 0.50882 0.53845
 H1192 H -0.03048 0.48985 0.52925
 O1193 O 0.50100 0.03647 0.51797
 O1194 O 0.47720 0.03203 0.51594
 O1195 O 0.51765 0.00099 0.53666
 O1196 O 0.51727 -0.02204 0.53283
 O1197 O 0.53649 0.01777 0.50089
 O1198 O 0.53145 0.01623 0.47670
 O1199 O 0.48165 -0.03575 0.49895
 O1200 O 0.48468 -0.03216 0.52266
 O1201 O 0.46422 -0.00130 0.48207
 O1202 O 0.46883 0.02378 0.48357
 O1203 O 0.49867 -0.01787 0.46427
 O1204 O 0.52432 -0.01586 0.46982
 O1205 O 0.49795 -0.03565 0.48215
 O1206 O 0.52140 -0.03324 0.48409
 O1207 O 0.48208 -0.00140 0.46426
 O1208 O 0.48410 0.02414 0.46925
 O1209 O 0.46437 -0.01818 0.49824
 O1210 O 0.46846 -0.01330 0.52332
 O1211 O 0.51739 0.03646 0.50121
 O1212 O 0.51589 0.03143 0.47671
 O1213 O 0.53647 0.00155 0.51773
 O1214 O 0.53102 -0.02390 0.51568
 O1215 O 0.50140 0.01783 0.53653
 O1216 O 0.47654 0.01418 0.53142
 Zr1217 Zr 0.49250 0.01661 0.51682
 O1218 O 0.47930 0.00464 0.50454
 Zr1219 Zr 0.51679 -0.00748 0.51676
 O1220 O 0.50446 -0.02059 0.50471
 Zr1221 Zr 0.51661 0.01659 0.49252
 O1222 O 0.50449 0.00446 0.47931
 Zr1223 Zr 0.48359 -0.01622 0.50793
 O1224 O 0.49588 -0.00430 0.52140
 Zr1225 Zr 0.48368 0.00792 0.48370
 O1226 O 0.49579 0.02118 0.49592
 Zr1227 Zr 0.50771 -0.01641 0.48383
 O1228 O 0.52135 -0.00434 0.49583
 O1229 O 0.51320 0.01316 0.51322
 O1230 O 0.48700 -0.01285 0.48716
 C1231 C 0.51075 0.04214 0.51112
 C1232 C 0.51111 0.01100 0.54225
 C1233 C 0.54214 0.01125 0.51084
 C1234 C 0.48793 -0.04118 0.48870
 C1235 C 0.45882 -0.01158 0.48828
 C1236 C 0.48858 -0.01145 0.45876
 H1237 H 0.46963 0.00675 0.50677
 H1238 H 0.50673 0.00663 0.46967
 H1239 H 0.51905 0.01906 0.51905
 H1240 H 0.50656 -0.03031 0.50680
 H1241 H 0.48721 -0.02777 0.53148
 H1242 H 0.51047 -0.02921 0.53050
 H1243 H 0.49157 0.02223 0.46264
 H1244 H 0.50699 0.03624 0.47765
 H1245 H 0.46199 -0.02115 0.52281
 H1246 H 0.47737 0.02156 0.53839
 H1247 H 0.52231 -0.00875 0.46286
 H1248 H 0.53614 0.00723 0.47735
 H1249 H 0.47770 0.03613 0.50666
 H1250 H 0.46296 0.02261 0.49177
 H1251 H 0.53829 -0.02122 0.50912
 H1252 H 0.52903 -0.03063 0.49023
 O1253 O 0.53604 0.51806 0.00086
 O1254 O 0.53170 0.51587 -0.02290
 O1255 O 0.50047 0.53649 0.01753
 O1256 O 0.47759 0.53265 0.01726
 O1257 O 0.51741 0.50086 0.03633
 O1258 O 0.51608 0.47670 0.03135
 O1259 O 0.46401 0.49889 -0.01867
 O1260 O 0.46759 0.52260 -0.01553
 O1261 O 0.49845 0.48197 -0.03597
 O1262 O 0.52338 0.48323 -0.03131
 O1263 O 0.48164 0.46420 -0.00154
 O1264 O 0.48277 0.46881 0.02335
 O1265 O 0.46396 0.48230 -0.00215
 O1266 O 0.46861 0.48424 0.02360
 O1267 O 0.49815 0.46412 -0.01806
 O1268 O 0.52373 0.46902 -0.01592
 O1269 O 0.48163 0.49822 -0.03587
 O1270 O 0.48639 0.52332 -0.03166
 O1271 O 0.53617 0.50127 0.01723
 O1272 O 0.53124 0.47665 0.01563
 O1273 O 0.50085 0.51739 0.03641
 O1274 O 0.47589 0.51491 0.03093
 O1275 O 0.51725 0.53647 0.00121
 O1276 O 0.51381 0.53125 -0.02370
 Zr1277 Zr 0.51623 0.51672 -0.00766
 O1278 O 0.50432 0.50439 -0.02086
 Zr1279 Zr 0.49213 0.51655 0.01660
 O1280 O 0.47900 0.50461 0.00420
 Zr1281 Zr 0.51637 0.49244 0.01643
 O1282 O 0.50415 0.47921 0.00441
 Zr1283 Zr 0.48350 0.50784 -0.01662
 O1284 O 0.49534 0.52128 -0.00428
 Zr1285 Zr 0.50756 0.48353 -0.01644
 O1286 O 0.52085 0.49581 -0.00441
 Zr1287 Zr 0.48327 0.48373 0.00757
 O1288 O 0.49550 0.49566 0.02108
 O1289 O 0.51279 0.51313 0.01305
 O1290 O 0.48681 0.48703 -0.01316
 C1291 C 0.54176 0.51125 0.01060
 C1292 C 0.51040 0.54215 0.01094
 C1293 C 0.51068 0.51065 0.04205
 C1294 C 0.45851 0.48876 -0.01228
 C1295 C 0.48823 0.48824 -0.04141
 C1296 C 0.48805 0.45865 -0.01162
 H1297 H 0.50645 0.50661 -0.03053
 H1298 H 0.50629 0.46955 0.00665
 H1299 H 0.51862 0.51900 0.01895
 H1300 H 0.46931 0.50688 0.00617
 H1301 H 0.47194 0.53134 -0.01263
 H1302 H 0.47022 0.53022 0.01072
 H1303 H 0.52173 0.46236 -0.00853
 H1304 H 0.53604 0.47764 0.00673
 H1305 H 0.47858 0.52281 -0.03817
 H1306 H 0.52114 0.53828 -0.02283
 H1307 H 0.49118 0.46319 0.02255
 H1308 H 0.50691 0.47707 0.03571
 H1309 H 0.53584 0.50660 -0.02236
 H1310 H 0.52250 0.49164 -0.03692
 H1311 H 0.47765 0.50655 0.03643
 H1312 H 0.46193 0.49160 0.02150
 O1313 O 0.75122 0.26808 0.46377
 O1314 O 0.72743 0.26607 0.46819
 O1315 O 0.76791 0.28656 0.49945
 O1316 O 0.76774 0.28259 0.52237
 O1317 O 0.78668 0.25084 0.48229
 O1318 O 0.78159 0.22661 0.48375
 O1319 O 0.73193 0.24897 0.53584
 O1320 O 0.73504 0.27265 0.53232
 O1321 O 0.71435 0.23219 0.50133
 O1322 O 0.71897 0.23380 0.47622
 O1323 O 0.74869 0.21415 0.51776
 O1324 O 0.77435 0.21950 0.51582
 O1325 O 0.74812 0.23204 0.53564
 O1326 O 0.77161 0.23384 0.53318
 O1327 O 0.73211 0.21429 0.50128
 O1328 O 0.73410 0.21930 0.47584
 O1329 O 0.71460 0.24831 0.51829
 O1330 O 0.71877 0.27340 0.51352
 O1331 O 0.76754 0.25123 0.46366
 O1332 O 0.76598 0.22668 0.46857
 O1333 O 0.78671 0.26761 0.49863
 O1334 O 0.78131 0.26536 0.52408
 O1335 O 0.75169 0.28656 0.48257
 O1336 O 0.72684 0.28154 0.48607
 Zr1337 Zr 0.74275 0.26687 0.48361
 O1338 O 0.72951 0.25461 0.49550
 Zr1339 Zr 0.76706 0.26660 0.50769
 O1340 O 0.75470 0.25457 0.52071
 Zr1341 Zr 0.76679 0.24247 0.48347
 O1342 O 0.75461 0.22927 0.49552
 Zr1343 Zr 0.73385 0.25793 0.51635
 O1344 O 0.74618 0.27137 0.50453
 Zr1345 Zr 0.73381 0.23376 0.49210
 O1346 O 0.74596 0.24596 0.47892
 Zr1347 Zr 0.75785 0.23367 0.51641
 O1348 O 0.77155 0.24566 0.50441
 O1349 O 0.76344 0.26318 0.48703
 O1350 O 0.73716 0.23713 0.51287
 C1351 C 0.76092 0.26120 0.45805
 C1352 C 0.76139 0.29222 0.48948
 C1353 C 0.79236 0.26077 0.48887
 C1354 C 0.73817 0.23867 0.54122
 C1355 C 0.70900 0.23839 0.51165
 C1356 C 0.73857 0.20871 0.51131
 H1357 H 0.71984 0.25690 0.49341
 H1358 H 0.75680 0.21961 0.49329
 H1359 H 0.76928 0.26903 0.48117
 H1360 H 0.75683 0.25663 0.53043
 H1361 H 0.73760 0.28148 0.52797
 H1362 H 0.76084 0.28035 0.52945
 H1363 H 0.74161 0.21272 0.47764
 H1364 H 0.75707 0.22766 0.46378
 H1365 H 0.71233 0.27292 0.52139
 H1366 H 0.72768 0.28851 0.47870
 H1367 H 0.77237 0.21270 0.50853
 H1368 H 0.78628 0.22721 0.49275
 H1369 H 0.72793 0.25680 0.46402
 H1370 H 0.71305 0.24195 0.47752
 H1371 H 0.78861 0.25885 0.52130
 H1372 H 0.77929 0.23990 0.53056
 O1373 O 0.75111 0.76846 -0.03631
 O1374 O 0.72736 0.76641 -0.03192
 O1375 O 0.76803 0.78663 -0.00068
 O1376 O 0.76782 0.78271 0.02220
 O1377 O 0.78650 0.75088 -0.01782
 O1378 O 0.78136 0.72678 -0.01665
 O1379 O 0.73183 0.74926 0.03575
 O1380 O 0.73500 0.77298 0.03214
 O1381 O 0.71422 0.73244 0.00129
 O1382 O 0.71870 0.73383 -0.02368
 O1383 O 0.74854 0.71444 0.01787
 O1384 O 0.77345 0.71884 0.01668
 O1385 O 0.74821 0.73253 0.03566
 O1386 O 0.77390 0.73422 0.03088
 O1387 O 0.73202 0.71451 0.00133
 O1388 O 0.73404 0.71954 -0.02422
 O1389 O 0.71450 0.74860 0.01822
 O1390 O 0.71870 0.77368 0.01346
 O1391 O 0.76739 0.75157 -0.03656
 O1392 O 0.76556 0.72692 -0.03176
 O1393 O 0.78675 0.76737 -0.00117
 O1394 O 0.78134 0.76489 0.02379
 O1395 O 0.75166 0.78679 -0.01742
 O1396 O 0.72674 0.78177 -0.01395
 Zr1397 Zr 0.74265 0.76711 -0.01648
 O1398 O 0.72942 0.75484 -0.00458
 Zr1399 Zr 0.76698 0.76667 0.00757
 O1400 O 0.75457 0.75479 0.02068
 Zr1401 Zr 0.76656 0.74264 -0.01680
 O1402 O 0.75450 0.72947 -0.00460
 Zr1403 Zr 0.73376 0.75818 0.01625
 O1404 O 0.74613 0.77157 0.00443
 Zr1405 Zr 0.73368 0.73396 -0.00793
 O1406 O 0.74573 0.74618 -0.02121
 Zr1407 Zr 0.75779 0.73390 0.01629
 O1408 O 0.77132 0.74576 0.00408
 O1409 O 0.76334 0.76335 -0.01311
 O1410 O 0.73707 0.73736 0.01284
 C1411 C 0.76081 0.76161 -0.04209
 C1412 C 0.76146 0.79236 -0.01057
 C1413 C 0.79230 0.76061 -0.01104
 C1414 C 0.73818 0.73908 0.04119
 C1415 C 0.70888 0.73868 0.01160
 C1416 C 0.73843 0.70897 0.01141
 H1417 H 0.71975 0.75713 -0.00667
 H1418 H 0.75667 0.71980 -0.00680
 H1419 H 0.76925 0.76918 -0.01892
 H1420 H 0.75660 0.75702 0.03037
 H1421 H 0.73782 0.78172 0.02776
 H1422 H 0.76117 0.78039 0.02949
 H1423 H 0.74145 0.71287 -0.02233
 H1424 H 0.75671 0.72808 -0.03662
 H1425 H 0.71226 0.77319 0.02132
 H1426 H 0.72763 0.78880 -0.02126
 H1427 H 0.77261 0.71329 0.00821
 H1428 H 0.78576 0.72707 -0.00750
 H1429 H 0.72778 0.75713 -0.03606
 H1430 H 0.71310 0.74224 -0.02267
 H1431 H 0.78679 0.75651 0.02198
 H1432 H 0.77195 0.74164 0.03755
 O1433 O 0.98176 0.28603 0.25107
 O1434 O 0.98385 0.28161 0.22727
 O1435 O 0.96323 0.25044 0.26767
 O1436 O 0.96711 0.22748 0.26745
 O1437 O 0.99902 0.26742 0.28654
 O1438 O 1.02318 0.26597 0.28144
 O1439 O 1.00070 0.21383 0.23174
 O1440 O 0.97704 0.21745 0.23481
 O1441 O 1.01758 0.24826 0.21420
 O1442 O 1.01610 0.27338 0.21882
 O1443 O 1.03552 0.23176 0.24860
 O1444 O 1.03010 0.23382 0.27429
 O1445 O 1.01759 0.21398 0.24797
 O1446 O 1.01580 0.21645 0.27145
 O1447 O 1.03547 0.24823 0.23202
 O1448 O 1.03054 0.27373 0.23402
 O1449 O 1.00142 0.23135 0.21442
 O1450 O 0.97640 0.23623 0.21852
 O1451 O 0.99856 0.28610 0.26744
 O1452 O 1.02309 0.28115 0.26585
 O1453 O 0.98219 0.25116 0.28653
 O1454 O 0.98427 0.22570 0.28110
 O1455 O 0.96328 0.26729 0.25143
 O1456 O 0.96837 0.26373 0.22657
 Zr1457 Zr 0.98297 0.26618 0.24255
 O1458 O 0.99520 0.25421 0.22933
 Zr1459 Zr 0.98314 0.24210 0.26686
 O1460 O 0.99514 0.22900 0.25451
 Zr1461 Zr 1.00732 0.26625 0.26663
 O1462 O 1.02049 0.25411 0.25449
 Zr1463 Zr 0.99180 0.23337 0.23365
 O1464 O 0.97840 0.24527 0.24597
 Zr1465 Zr 1.01604 0.25752 0.23367
 O1466 O 1.00387 0.27079 0.24580
 Zr1467 Zr 1.01601 0.23323 0.25772
 O1468 O 1.00406 0.24531 0.27139
 O1469 O 0.98662 0.26275 0.26325
 O1470 O 1.01259 0.23676 0.23701
 C1471 C 0.98861 0.29174 0.26083
 C1472 C 0.95760 0.26040 0.26113
 C1473 C 0.98909 0.26088 0.29221
 C1474 C 1.01096 0.20842 0.23798
 C1475 C 1.01135 0.23795 0.20883
 C1476 C 1.04099 0.23818 0.23849
 H1477 H 0.99294 0.25630 0.21966
 H1478 H 1.03014 0.25630 0.25671
 H1479 H 0.98079 0.26863 0.26911
 H1480 H 0.99304 0.21928 0.25663
 H1481 H 0.96824 0.22185 0.23733
 H1482 H 0.96937 0.22035 0.26059
 H1483 H 1.03707 0.27191 0.24157
 H1484 H 1.02210 0.28594 0.25694
 H1485 H 0.97685 0.22833 0.21209
 H1486 H 0.96142 0.27113 0.22739
 H1487 H 1.03704 0.24094 0.27225
 H1488 H 1.02261 0.25695 0.28609
 H1489 H 0.99312 0.28574 0.22779
 H1490 H 1.00791 0.27216 0.21294
 H1491 H 0.99081 0.22841 0.28839
 H1492 H 1.00968 0.21906 0.27909
 O1493 O 0.74887 1.03621 0.73195
 O1494 O 0.77263 1.03177 0.73407
 O1495 O 0.73220 1.00051 0.71349
 O1496 O 0.73229 0.97756 0.71753
 O1497 O 0.71332 1.01779 0.74910
 O1498 O 0.71835 1.01632 0.77333
 O1499 O 0.76806 0.96411 0.75129
 O1500 O 0.76496 0.96755 0.72758
 O1501 O 0.78559 0.99859 0.76802
 O1502 O 0.78102 1.02377 0.76631
 O1503 O 0.75114 0.98230 0.78596
 O1504 O 0.72552 0.98422 0.78048
 O1505 O 0.75185 0.96438 0.76817
 O1506 O 0.72835 0.96680 0.76618
 O1507 O 0.76775 0.99876 0.78584
 O1508 O 0.76587 1.02419 0.78077
 O1509 O 0.78538 0.98163 0.75190
 O1510 O 0.78124 0.98638 0.72681
 O1511 O 0.73250 1.03641 0.74873
 O1512 O 0.73394 1.03153 0.77327
 O1513 O 0.71330 1.00142 0.73237
 O1514 O 0.71865 0.97595 0.73469
 O1515 O 0.74846 1.01736 0.71352
 O1516 O 0.77328 1.01384 0.71865
 Zr1517 Zr 0.75731 1.01635 0.73324
 O1518 O 0.77051 1.00444 0.74554
 Zr1519 Zr 0.73295 0.99230 0.73346
 O1520 O 0.74527 0.97926 0.74555
 Zr1521 Zr 0.73320 1.01658 0.75752
 O1522 O 0.74533 1.00452 0.77077
 Zr1523 Zr 0.76614 0.98358 0.74224
 O1524 O 0.75385 0.99541 0.72876
 Zr1525 Zr 0.76615 1.00790 0.76636
 O1526 O 0.75404 1.02109 0.75411
 Zr1527 Zr 0.74207 0.98361 0.76640
 O1528 O 0.72842 0.99563 0.75437
 O1529 O 0.73660 1.01297 0.73685
 O1530 O 0.76278 0.98712 0.76301
 C1531 C 0.73916 1.04198 0.73878
 C1532 C 0.73877 1.01045 0.70784
 C1533 C 0.70765 1.01121 0.73918
 C1534 C 0.76183 0.95878 0.76160
 C1535 C 0.79096 0.98826 0.76184
 C1536 C 0.76126 0.98875 0.79140
 H1537 H 0.78018 1.00652 0.74328
 H1538 H 0.74311 1.00677 0.78041
 H1539 H 0.73078 1.01884 0.73097
 H1540 H 0.74314 0.96953 0.74350
 H1541 H 0.76242 0.97189 0.71875
 H1542 H 0.73917 0.97046 0.71981
 H1543 H 0.75827 1.02246 0.78727
 H1544 H 0.74288 1.03628 0.77235
 H1545 H 0.78767 0.97851 0.72731
 H1546 H 0.77248 1.02121 0.71167
 H1547 H 0.72746 0.99153 0.78728
 H1548 H 0.71364 1.00732 0.77271
 H1549 H 0.77212 1.03594 0.74333
 H1550 H 0.78699 1.02239 0.75822
 H1551 H 0.71137 0.97875 0.74121
 H1552 H 0.72066 0.96943 0.76013
 O1553 O 0.74920 0.53649 0.23204
 O1554 O 0.77297 0.53201 0.23411
 O1555 O 0.73247 0.50092 0.21342
 O1556 O 0.73263 0.47795 0.21730
 O1557 O 0.71365 0.51795 0.24917
 O1558 O 0.71872 0.51645 0.27337
 O1559 O 0.76826 0.46425 0.25098
 O1560 O 0.76526 0.46788 0.22731
 O1561 O 0.78588 0.49866 0.26796
 O1562 O 0.78138 0.52382 0.26638
 O1563 O 0.75144 0.48231 0.28579
 O1564 O 0.72581 0.48432 0.28034
 O1565 O 0.75205 0.46446 0.26786
 O1566 O 0.72858 0.46697 0.26598
 O1567 O 0.76803 0.49878 0.28577
 O1568 O 0.76618 0.52425 0.28077
 O1569 O 0.78565 0.48173 0.25180
 O1570 O 0.78160 0.48664 0.22672
 O1571 O 0.73282 0.53659 0.24882
 O1572 O 0.73432 0.53163 0.27333
 O1573 O 0.71362 0.50166 0.23236
 O1574 O 0.71901 0.47618 0.23446
 O1575 O 0.74874 0.51775 0.21351
 O1576 O 0.77358 0.51413 0.21861
 Zr1577 Zr 0.75763 0.51661 0.23322
 O1578 O 0.77082 0.50464 0.24548
 Zr1579 Zr 0.73327 0.49258 0.23334
 O1580 O 0.74557 0.47948 0.24537
 Zr1581 Zr 0.73354 0.51674 0.25753
 O1582 O 0.74565 0.50461 0.27072
 Zr1583 Zr 0.76644 0.48380 0.24209
 O1584 O 0.75417 0.49570 0.22865
 Zr1585 Zr 0.76647 0.50799 0.26631
 O1586 O 0.75438 0.52125 0.25412
 Zr1587 Zr 0.74236 0.48373 0.26624
 O1588 O 0.72873 0.49581 0.25426
 O1589 O 0.73692 0.51323 0.23683
 O1590 O 0.76308 0.48723 0.26288
 C1591 C 0.73948 0.54221 0.23889
 C1592 C 0.73902 0.51089 0.20781
 C1593 C 0.70797 0.51139 0.23924
 C1594 C 0.76199 0.45887 0.26124
 C1595 C 0.79123 0.48831 0.26177
 C1596 C 0.76153 0.48875 0.29128
 H1597 H 0.78050 0.50672 0.24323
 H1598 H 0.74343 0.50682 0.28037
 H1599 H 0.73109 0.51912 0.23100
 H1600 H 0.74342 0.46976 0.24327
 H1601 H 0.76276 0.47228 0.21850
 H1602 H 0.73951 0.47084 0.21954
 H1603 H 0.75860 0.52249 0.28728
 H1604 H 0.74324 0.53640 0.27240
 H1605 H 0.78801 0.47874 0.22720
 H1606 H 0.77278 0.52153 0.21166
 H1607 H 0.72780 0.49155 0.28720
 H1608 H 0.71402 0.50746 0.27274
 H1609 H 0.77249 0.53612 0.24339
 H1610 H 0.78731 0.52252 0.25824
 H1611 H 0.71171 0.47892 0.24098
 H1612 H 0.72090 0.46964 0.25994
 O1613 O 0.50074 0.21352 0.73173
 O1614 O 0.47700 0.21792 0.73388
 O1615 O 0.51752 0.24923 0.71358
 O1616 O 0.51744 0.27211 0.71761
 O1617 O 0.53622 0.23197 0.74915
 O1618 O 0.53121 0.23320 0.77329
 O1619 O 0.48162 0.28565 0.75117
 O1620 O 0.48462 0.28205 0.72745
 O1621 O 0.46403 0.25121 0.76797
 O1622 O 0.46852 0.22616 0.76646
 O1623 O 0.49842 0.26778 0.78583
 O1624 O 0.52333 0.26649 0.78139
 O1625 O 0.49810 0.28554 0.76781
 O1626 O 0.52377 0.28070 0.76604
 O1627 O 0.48189 0.25125 0.78580
 O1628 O 0.48386 0.22567 0.78075
 O1629 O 0.46427 0.26817 0.75188
 O1630 O 0.46832 0.26335 0.72679
 O1631 O 0.51708 0.21325 0.74855
 O1632 O 0.51543 0.21805 0.77318
 O1633 O 0.53639 0.24864 0.73272
 O1634 O 0.53101 0.27364 0.73535
 O1635 O 0.50116 0.23247 0.71345
 O1636 O 0.47627 0.23591 0.71862
 Zr1637 Zr 0.49228 0.23338 0.73317
 O1638 O 0.47911 0.24530 0.74551
 Zr1639 Zr 0.51663 0.25743 0.73356
 O1640 O 0.50430 0.27055 0.74553
 Zr1641 Zr 0.51633 0.23302 0.75750
 O1642 O 0.50433 0.24523 0.77075
 Zr1643 Zr 0.48346 0.26614 0.74221
 O1644 O 0.49576 0.25430 0.72875
 Zr1645 Zr 0.48348 0.24194 0.76635
 O1646 O 0.49547 0.22864 0.75405
 Zr1647 Zr 0.50763 0.26614 0.76638
 O1648 O 0.52109 0.25392 0.75443
 O1649 O 0.51299 0.23673 0.73684
 O1650 O 0.48689 0.26271 0.76298
 C1651 C 0.51046 0.20773 0.73852
 C1652 C 0.51091 0.23935 0.70784
 C1653 C 0.54198 0.23875 0.73942
 C1654 C 0.48804 0.29109 0.76132
 C1655 C 0.45869 0.26156 0.76180
 C1656 C 0.48832 0.26136 0.79131
 H1657 H 0.46943 0.24322 0.74326
 H1658 H 0.50654 0.24303 0.78040
 H1659 H 0.51886 0.23092 0.73095
 H1660 H 0.50633 0.28025 0.74332
 H1661 H 0.48737 0.27766 0.71870
 H1662 H 0.51072 0.27935 0.71994
 H1663 H 0.49134 0.22752 0.78736
 H1664 H 0.50653 0.21327 0.77211
 H1665 H 0.46187 0.27121 0.72733
 H1666 H 0.47712 0.22862 0.71155
 H1667 H 0.52245 0.25805 0.78696
 H1668 H 0.53560 0.24236 0.77300
 H1669 H 0.47745 0.21379 0.74315
 H1670 H 0.46283 0.22722 0.75812
 H1671 H 0.53653 0.27179 0.74368
 H1672 H 0.52180 0.28738 0.75865
 O1673 O 0.28638 0.75133 0.48189
 O1674 O 0.28195 0.72752 0.48401
 O1675 O 0.25077 0.76797 0.46344
 O1676 O 0.22788 0.76796 0.46742
 O1677 O 0.26795 0.78687 0.49920
 O1678 O 0.26649 0.78179 0.52338
 O1679 O 0.21429 0.73214 0.50103
 O1680 O 0.21783 0.73522 0.47736
 O1681 O 0.24868 0.71452 0.51782
 O1682 O 0.27378 0.71906 0.51627
 O1683 O 0.23235 0.74903 0.53582
 O1684 O 0.23436 0.77469 0.53039
 O1685 O 0.21451 0.74838 0.51793
 O1686 O 0.21700 0.77189 0.51607
 O1687 O 0.24875 0.73238 0.53571
 O1688 O 0.27420 0.73428 0.53071
 O1689 O 0.23176 0.71476 0.50167
 O1690 O 0.23658 0.71889 0.47662
 O1691 O 0.28653 0.76771 0.49871
 O1692 O 0.28164 0.76613 0.52326
 O1693 O 0.25167 0.78690 0.48240
 O1694 O 0.22621 0.78155 0.48461
 O1695 O 0.26758 0.75167 0.46346
 O1696 O 0.26406 0.72682 0.46857
 Zr1697 Zr 0.26655 0.74283 0.48317
 O1698 O 0.25459 0.72964 0.49542
 Zr1699 Zr 0.24254 0.76724 0.48340
 O1700 O 0.22947 0.75491 0.49541
 Zr1701 Zr 0.26673 0.76696 0.50751
 O1702 O 0.25462 0.75483 0.52071
 Zr1703 Zr 0.23378 0.73402 0.49207
 O1704 O 0.24565 0.74631 0.47864
 Zr1705 Zr 0.25797 0.73398 0.51626
 O1706 O 0.27121 0.74609 0.50406
 Zr1707 Zr 0.23375 0.75811 0.51628
 O1708 O 0.24582 0.77177 0.50431
 O1709 O 0.26317 0.76357 0.48682
 O1710 O 0.23723 0.73737 0.51286
 C1711 C 0.29212 0.76108 0.48873
 C1712 C 0.26070 0.76138 0.45778
 C1713 C 0.26142 0.79255 0.48927
 C1714 C 0.20893 0.73840 0.51132
 C1715 C 0.23836 0.70916 0.51160
 C1716 C 0.23875 0.73890 0.54127
 H1717 H 0.25666 0.71995 0.49314
 H1718 H 0.25683 0.75705 0.53036
 H1719 H 0.26904 0.76940 0.48095
 H1720 H 0.21976 0.75706 0.49333
 H1721 H 0.22220 0.73775 0.46854
 H1722 H 0.22080 0.76102 0.46962
 H1723 H 0.27244 0.74187 0.53724
 H1724 H 0.28642 0.75721 0.52225
 H1725 H 0.22870 0.71247 0.47709
 H1726 H 0.27143 0.72763 0.46159
 H1727 H 0.24159 0.77271 0.53724
 H1728 H 0.25751 0.78649 0.52279
 H1729 H 0.28613 0.72807 0.49326
 H1730 H 0.27256 0.71322 0.50805
 H1731 H 0.22900 0.78886 0.49111
 H1732 H 0.21964 0.77956 0.51000
 O1733 O 0.24930 0.21346 1.01796
 O1734 O 0.27305 0.21800 1.01594
 O1735 O 0.23248 0.24894 1.03660
 O1736 O 0.23267 0.27193 1.03276
 O1737 O 0.21370 0.23191 1.00085
 O1738 O 0.21873 0.23344 0.97665
 O1739 O 0.26829 0.28571 0.99902
 O1740 O 0.26521 0.28214 1.02271
 O1741 O 0.28591 0.25136 0.98214
 O1742 O 0.28141 0.22622 0.98364
 O1743 O 0.25138 0.26767 0.96425
 O1744 O 0.22578 0.26560 0.96970
 O1745 O 0.25205 0.28549 0.98214
 O1746 O 0.22855 0.28297 0.98411
 O1747 O 0.26804 0.25127 0.96428
 O1748 O 0.26619 0.22577 0.96925
 O1749 O 0.28566 0.26824 0.99835
 O1750 O 0.28157 0.26338 1.02338
 O1751 O 0.23291 0.21333 1.00118
 O1752 O 0.23435 0.21831 0.97667
 O1753 O 0.21364 0.24821 1.01766
 O1754 O 0.21899 0.27370 1.01558
 O1755 O 0.24879 0.23216 1.03650
 O1756 O 0.27363 0.23588 1.03144
 Zr1757 Zr 0.25768 0.23335 1.01681
 O1758 O 0.27084 0.24536 1.00457
 Zr1759 Zr 0.23328 0.25733 1.01669
 O1760 O 0.24555 0.27047 1.00468
 Zr1761 Zr 0.23357 0.23319 0.99248
 O1762 O 0.24565 0.24535 0.97930
 Zr1763 Zr 0.26643 0.26619 1.00797
 O1764 O 0.25419 0.25426 1.02140
 Zr1765 Zr 0.26649 0.24201 0.98372
 O1766 O 0.25442 0.22872 0.99590
 Zr1767 Zr 0.24234 0.26622 0.98379
 O1768 O 0.22874 0.25411 0.99577
 O1769 O 0.23697 0.23670 1.01318
 O1770 O 0.26306 0.26276 0.98718
 C1771 C 0.23958 0.20772 1.01110
 C1772 C 0.23905 0.23898 1.04220
 C1773 C 0.20801 0.23845 1.01079
 C1774 C 0.26203 0.29108 0.98874
 C1775 C 0.29125 0.26168 0.98839
 C1776 C 0.26150 0.26128 0.95876
 H1777 H 0.28051 0.24330 1.00682
 H1778 H 0.24343 0.24314 0.96965
 H1779 H 0.23115 0.23078 1.01901
 H1780 H 0.24340 0.28019 1.00677
 H1781 H 0.26274 0.27774 1.03153
 H1782 H 0.23948 0.27909 1.03049
 H1783 H 0.25862 0.22754 0.96272
 H1784 H 0.24328 0.21355 0.97761
 H1785 H 0.28795 0.27130 1.02294
 H1786 H 0.27284 0.22848 1.03839
 H1787 H 0.22775 0.25835 0.96285
 H1788 H 0.21400 0.24242 0.97729
 H1789 H 0.27257 0.21388 1.00666
 H1790 H 0.28730 0.22747 0.99182
 H1791 H 0.21169 0.27095 1.00906
 H1792 H 0.22084 0.28024 0.99009
 C1793 C 0.30220 0.37965 0.80192
 C1794 C 0.29688 0.38942 0.79649
 C1795 C 0.29051 0.40109 0.79004
 C1796 C 0.28065 0.39916 0.77973
 C1797 C 0.27441 0.41052 0.77352
 C1798 C 0.27802 0.42384 0.77759
 C1799 C 0.28789 0.42577 0.78790
 C1800 C 0.29411 0.41442 0.79411
 C1801 C 0.27170 0.43563 0.77130
 C1802 C 0.26681 0.44592 0.76646
 H1803 H 0.27778 0.38889 0.77652
 H1804 H 0.26680 0.40891 0.76557
 H1805 H 0.29075 0.43603 0.79114
 H1806 H 0.30171 0.41604 0.80207
 C1807 C 0.30167 -0.12149 0.30074
 C1808 C 0.29627 -0.11186 0.29518
 C1809 C 0.28988 -0.10026 0.28864
 C1810 C 0.29421 -0.08694 0.29192
 C1811 C 0.28799 -0.07563 0.28568
 C1812 C 0.27740 -0.07758 0.27613
 C1813 C 0.27307 -0.09090 0.27282
 C1814 C 0.27931 -0.10223 0.27907
 C1815 C 0.27104 -0.06578 0.26994
 C1816 C 0.26623 -0.05538 0.26530
 H1817 H 0.30237 -0.08530 0.29931
 H1818 H 0.29141 -0.06537 0.28832
 H1819 H 0.26489 -0.09251 0.26546
 H1820 H 0.27588 -0.11250 0.27648
 C1821 C 0.80191 0.87938 0.80218
 C1822 C 0.79654 0.88920 0.79688
 C1823 C 0.79019 0.90094 0.79051
 C1824 C 0.77979 0.89913 0.78072
 C1825 C 0.77371 0.91056 0.77448
 C1826 C 0.77801 0.92384 0.77800
 C1827 C 0.78840 0.92564 0.78780
 C1828 C 0.79447 0.91423 0.79404
 C1829 C 0.77181 0.93569 0.77167
 C1830 C 0.76698 0.94598 0.76677
 H1831 H 0.77641 0.88890 0.77792
 H1832 H 0.76569 0.90904 0.76692
 H1833 H 0.79180 0.93587 0.79061
 H1834 H 0.80250 0.91576 0.80159
 C1835 C 0.44852 0.87083 0.30191
 C1836 C 0.45390 0.86104 0.29658
 C1837 C 0.46026 0.84934 0.29017
 C1838 C 0.45680 0.83604 0.29441
 C1839 C 0.46289 0.82467 0.28812
 C1840 C 0.47246 0.82653 0.27755
 C1841 C 0.47595 0.83983 0.27332
 C1842 C 0.46986 0.85122 0.27962
 C1843 C 0.47861 0.81473 0.27114
 C1844 C 0.48338 0.80444 0.26619
 H1845 H 0.44939 0.83447 0.30255
 H1846 H 0.46012 0.81442 0.29147
 H1847 H 0.48334 0.84138 0.26516
 H1848 H 0.47259 0.86147 0.27626
 C1849 C -0.05202 0.87030 0.80280
 C1850 C -0.04660 0.86057 0.79737
 C1851 C -0.04019 0.84894 0.79083
 C1852 C -0.03018 0.85093 0.78069
 C1853 C -0.02404 0.83961 0.77429
 C1854 C -0.02790 0.82625 0.77800
 C1855 C -0.03789 0.82427 0.78816
 C1856 C -0.04402 0.83558 0.79455
 C1857 C -0.02168 0.81450 0.77152
 C1858 C -0.01685 0.80423 0.76652
 H1859 H -0.02714 0.86122 0.77773
 H1860 H -0.01632 0.84126 0.76646
 H1861 H -0.04095 0.81399 0.79113
 H1862 H -0.05174 0.83391 0.80237
 C1863 C -0.05153 -0.12091 -0.05206
 C1864 C -0.04614 -0.11112 -0.04674
 C1865 C -0.03977 -0.09943 -0.04036
 C1866 C -0.03000 -0.10130 -0.02997
 C1867 C -0.02389 -0.08990 -0.02368
 C1868 C -0.02756 -0.07661 -0.02779
 C1869 C -0.03731 -0.07475 -0.03820
 C1870 C -0.04341 -0.08614 -0.04447
 C1871 C -0.02141 -0.06481 -0.02141
 C1872 C -0.01662 -0.05451 -0.01650
 H1873 H -0.02712 -0.11154 -0.02672
 H1874 H -0.01636 -0.09143 -0.01565
 H1875 H -0.04021 -0.06451 -0.04145
 H1876 H -0.05095 -0.08458 -0.05249
 C1877 C -0.05192 0.37889 0.44858
 C1878 C -0.04664 0.38873 0.45396
 C1879 C -0.04031 0.40049 0.46032
 C1880 C -0.04405 0.41376 0.45622
 C1881 C -0.03784 0.42520 0.46232
 C1882 C -0.02787 0.42342 0.47255
 C1883 C -0.02415 0.41016 0.47667
 C1884 C -0.03036 0.39871 0.47056
 C1885 C -0.02156 0.43529 0.47872
 C1886 C -0.01669 0.44563 0.48350
 H1887 H -0.05172 0.41527 0.44832
 H1888 H -0.04081 0.43542 0.45905
 H1889 H -0.01646 0.40867 0.48456
 H1890 H -0.02740 0.38849 0.47380
 C1891 C 0.44809 -0.12051 0.44754
 C1892 C 0.45347 -0.11072 0.45292
 C1893 C 0.45979 -0.09900 0.45940
 C1894 C 0.46982 -0.10085 0.46955
 C1895 C 0.47587 -0.08945 0.47591
 C1896 C 0.47189 -0.07614 0.47214
 C1897 C 0.46188 -0.07430 0.46196
 C1898 C 0.45585 -0.08569 0.45562
 C1899 C 0.47801 -0.06431 0.47859
 C1900 C 0.48279 -0.05401 0.48355
 H1901 H 0.47294 -0.11110 0.47256
 H1902 H 0.48362 -0.09099 0.48373
 H1903 H 0.45875 -0.06405 0.45894
 H1904 H 0.44810 -0.08412 0.44779
 C1905 C 0.44714 0.37965 -0.05228
 C1906 C 0.45253 0.38939 -0.04682
 C1907 C 0.45899 0.40103 -0.04034
 C1908 C 0.45523 0.41438 -0.04413
 C1909 C 0.46151 0.42570 -0.03790
 C1910 C 0.47161 0.42373 -0.02783
 C1911 C 0.47538 0.41038 -0.02402
 C1912 C 0.46908 0.39905 -0.03027
 C1913 C 0.47800 0.43550 -0.02153
 C1914 C 0.48292 0.44579 -0.01669
 H1915 H 0.44745 0.41605 -0.05191
 H1916 H 0.45851 0.43598 -0.04093
 H1917 H 0.48317 0.40874 -0.01625
 H1918 H 0.47208 0.38877 -0.02726
 C1919 C 0.80158 0.37120 0.44888
 C1920 C 0.79620 0.36157 0.45447
 C1921 C 0.78981 0.35000 0.46104
 C1922 C 0.79208 0.33673 0.45596
 C1923 C 0.78585 0.32546 0.46226
 C1924 C 0.77732 0.32739 0.47368
 C1925 C 0.77506 0.34065 0.47879
 C1926 C 0.78130 0.35195 0.47247
 C1927 C 0.77105 0.31565 0.48004
 C1928 C 0.76626 0.30528 0.48479
 H1929 H 0.79864 0.33511 0.44713
 H1930 H 0.78769 0.31524 0.45824
 H1931 H 0.76851 0.34224 0.48763
 H1932 H 0.77949 0.36217 0.47649
 C1933 C 0.80212 0.87083 -0.05172
 C1934 C 0.79670 0.86125 -0.04607
 C1935 C 0.79022 0.84979 -0.03940
 C1936 C 0.78167 0.85190 -0.02802
 C1937 C 0.77535 0.84070 -0.02160
 C1938 C 0.77757 0.82738 -0.02656
 C1939 C 0.78613 0.82529 -0.03793
 C1940 C 0.79244 0.83646 -0.04433
 C1941 C 0.77122 0.81572 -0.02010
 C1942 C 0.76639 0.80539 -0.01530
 H1943 H 0.77989 0.86218 -0.02413
 H1944 H 0.76876 0.84242 -0.01281
 H1945 H 0.78794 0.81502 -0.04184
 H1946 H 0.79903 0.83471 -0.05312
 C1947 C 0.80125 0.30080 0.37863
 C1948 C 0.79582 0.29533 0.38831
 C1949 C 0.78937 0.28895 0.39995
 C1950 C 0.77971 0.27843 0.39806
 C1951 C 0.77341 0.27232 0.40943
 C1952 C 0.77676 0.27672 0.42272
 C1953 C 0.78642 0.28723 0.42459
 C1954 C 0.79270 0.29333 0.41324
 C1955 C 0.77044 0.27055 0.43454
 C1956 C 0.76569 0.26589 0.44496
 H1957 H 0.77706 0.27498 0.38782
 H1958 H 0.76597 0.26420 0.40788
 H1959 H 0.78909 0.29071 0.43482
 H1960 H 0.80015 0.30145 0.41482
 C1961 C 0.80086 0.80211 -0.12134
 C1962 C 0.79534 0.79669 -0.11168
 C1963 C 0.78886 0.79025 -0.10006
 C1964 C 0.79216 0.79457 -0.08674
 C1965 C 0.78599 0.78829 -0.07542
 C1966 C 0.77647 0.77765 -0.07734
 C1967 C 0.77314 0.77333 -0.09065
 C1968 C 0.77933 0.77962 -0.10200
 C1969 C 0.77028 0.77127 -0.06553
 C1970 C 0.76559 0.76645 -0.05514
 H1971 H 0.79952 0.80276 -0.08511
 H1972 H 0.78865 0.79172 -0.06517
 H1973 H 0.76581 0.76511 -0.09225
 H1974 H 0.77671 0.77619 -0.11225
 C1975 C 0.30244 0.44807 0.87041
 C1976 C 0.29709 0.45344 0.86062
 C1977 C 0.29068 0.45979 0.84891
 C1978 C 0.29483 0.45618 0.83562
 C1979 C 0.28862 0.46231 0.82423
 C1980 C 0.27822 0.47209 0.82605
 C1981 C 0.27404 0.47570 0.83933
 C1982 C 0.28026 0.46956 0.85074
 C1983 C 0.27191 0.47832 0.81422
 C1984 C 0.26702 0.48318 0.80394
 H1985 H 0.30285 0.44864 0.83408
 H1986 H 0.29193 0.45943 0.81401
 H1987 H 0.26600 0.48323 0.84085
 H1988 H 0.27695 0.47242 0.86097
 C1989 C 0.30210 -0.05068 0.37111
 C1990 C 0.29662 -0.04522 0.36146
 C1991 C 0.29005 -0.03885 0.34987
 C1992 C 0.28003 -0.02871 0.35186
 C1993 C 0.27358 -0.02263 0.34055
 C1994 C 0.27714 -0.02669 0.32723
 C1995 C 0.28718 -0.03681 0.32525
 C1996 C 0.29362 -0.04288 0.33654
 C1997 C 0.27066 -0.02055 0.31547
 C1998 C 0.26580 -0.01588 0.30510
 H1999 H 0.27720 -0.02553 0.36214
 H2000 H 0.26585 -0.01481 0.34219
 H2001 H 0.29002 -0.04002 0.31498
 H2002 H 0.30134 -0.05071 0.33487
 C2003 C -0.05226 -0.05265 -0.12025
 C2004 C -0.04675 -0.04730 -0.11052
 C2005 C -0.04020 -0.04090 -0.09889
 C2006 C -0.04360 -0.04504 -0.08555
 C2007 C -0.03730 -0.03881 -0.07425
 C2008 C -0.02755 -0.02839 -0.07621
 C2009 C -0.02413 -0.02425 -0.08954
 C2010 C -0.03045 -0.03049 -0.10086
 C2011 C -0.02121 -0.02202 -0.06446
 C2012 C -0.01631 -0.01711 -0.05420
 H2013 H -0.05112 -0.05307 -0.08389
 H2014 H -0.04003 -0.04209 -0.06398
 H2015 H -0.01663 -0.01621 -0.09118
 H2016 H -0.02774 -0.02721 -0.11113
 C2017 C -0.05257 0.44769 0.37961
 C2018 C -0.04726 0.45305 0.38945
 C2019 C -0.04088 0.45942 0.40118
 C2020 C -0.04470 0.45551 0.41447
 C2021 C -0.03847 0.46166 0.42586
 C2022 C -0.02839 0.47177 0.42402
 C2023 C -0.02455 0.47569 0.41073
 C2024 C -0.03079 0.46953 0.39933
 C2025 C -0.02205 0.47803 0.43583
 C2026 C -0.01713 0.48291 0.44609
 H2027 H -0.05247 0.44770 0.41603
 H2028 H -0.04151 0.45854 0.43609
 H2029 H -0.01677 0.48348 0.40919
 H2030 H -0.02774 0.47262 0.38910
 C2031 C 0.44855 -0.05180 0.37931
 C2032 C 0.45396 -0.04650 0.38911
 C2033 C 0.46036 -0.04016 0.40083
 C2034 C 0.47065 -0.03027 0.39901
 C2035 C 0.47678 -0.02404 0.41042
 C2036 C 0.47264 -0.02769 0.42369
 C2037 C 0.46237 -0.03761 0.42550
 C2038 C 0.45624 -0.04383 0.41410
 C2039 C 0.47883 -0.02137 0.43553
 C2040 C 0.48360 -0.01651 0.44586
 H2041 H 0.47390 -0.02736 0.38878
 H2042 H 0.48472 -0.01639 0.40891
 H2043 H 0.45909 -0.04052 0.43573
 H2044 H 0.44830 -0.05147 0.41564
 C2045 C 0.44727 0.44776 -0.12022
 C2046 C 0.45267 0.45316 -0.11048
 C2047 C 0.45916 0.45958 -0.09887
 C2048 C 0.45555 0.45562 -0.08554
 C2049 C 0.46190 0.46179 -0.07425
 C2050 C 0.47189 0.47196 -0.07623
 C2051 C 0.47551 0.47594 -0.08955
 C2052 C 0.46915 0.46975 -0.10086
 C2053 C 0.47828 0.47824 -0.06449
 C2054 C 0.48317 0.48311 -0.05422
 H2055 H 0.44785 0.44776 -0.08388
 H2056 H 0.45902 0.45865 -0.06397
 H2057 H 0.48321 0.48379 -0.09119
 H2058 H 0.47202 0.47287 -0.11114
 C2059 C 0.44848 0.80268 0.37034
 C2060 C 0.45391 0.79734 0.36057
 C2061 C 0.46034 0.79095 0.34887
 C2062 C 0.45686 0.79514 0.33557
 C2063 C 0.46304 0.78891 0.32421
 C2064 C 0.47273 0.77843 0.32607
 C2065 C 0.47624 0.77424 0.33938
 C2066 C 0.47005 0.78049 0.35075
 C2067 C 0.47894 0.77205 0.31426
 C2068 C 0.48373 0.76712 0.30396
 H2069 H 0.44936 0.80320 0.33398
 H2070 H 0.46025 0.79224 0.31397
 H2071 H 0.48372 0.76616 0.34094
 H2072 H 0.47281 0.77715 0.36100
 C2073 C -0.05148 0.80187 0.87056
 C2074 C -0.04601 0.79660 0.86080
 C2075 C -0.03952 0.79031 0.84912
 C2076 C -0.02966 0.78001 0.85101
 C2077 C -0.02342 0.77384 0.83964
 C2078 C -0.02703 0.77798 0.82635
 C2079 C -0.03687 0.78831 0.82448
 C2080 C -0.04311 0.79446 0.83584
 C2081 C -0.02079 0.77168 0.81456
 C2082 C -0.01601 0.76681 0.80425
 H2083 H -0.02683 0.77673 0.86125
 H2084 H -0.01583 0.76586 0.84119
 H2085 H -0.03974 0.79158 0.81424
 H2086 H -0.05072 0.80242 0.83426
 C2087 C 0.37956 0.80194 0.30149
 C2088 C 0.38940 0.79674 0.29611
 C2089 C 0.40116 0.79051 0.28973
 C2090 C 0.39940 0.78041 0.27961
 C2091 C 0.41085 0.77429 0.27348
 C2092 C 0.42409 0.77825 0.27747
 C2093 C 0.42584 0.78838 0.28756
 C2094 C 0.41440 0.79449 0.29368
 C2095 C 0.43594 0.77200 0.27131
 C2096 C 0.44625 0.76714 0.26652
 H2097 H 0.38920 0.77727 0.27648
 H2098 H 0.40939 0.76648 0.26569
 H2099 H 0.43604 0.79152 0.29071
 H2100 H 0.41587 0.80229 0.30149
 C2101 C -0.12029 0.80242 0.80200
 C2102 C -0.11050 0.79701 0.79670
 C2103 C -0.09878 0.79057 0.79041
 C2104 C -0.08550 0.79473 0.79405
 C2105 C -0.07410 0.78850 0.78795
 C2106 C -0.07591 0.77808 0.77817
 C2107 C -0.08919 0.77390 0.77453
 C2108 C -0.10060 0.78014 0.78064
 C2109 C -0.06408 0.77178 0.77195
 C2110 C -0.05379 0.76692 0.76709
 H2111 H -0.08396 0.80277 0.80159
 H2112 H -0.06388 0.79181 0.79085
 H2113 H -0.09071 0.76585 0.76698
 H2114 H -0.11082 0.77684 0.77775
 C2115 C 0.87171 0.30149 0.44940
 C2116 C 0.86202 0.29602 0.45481
 C2117 C 0.85038 0.28948 0.46112
 C2118 C 0.85225 0.27990 0.47169
 C2119 C 0.84088 0.27350 0.47771
 C2120 C 0.82762 0.27667 0.47317
 C2121 C 0.82576 0.28625 0.46260
 C2122 C 0.83711 0.29263 0.45659
 C2123 C 0.81580 0.27030 0.47933
 C2124 C 0.80541 0.26553 0.48403
 H2125 H 0.86247 0.27739 0.47527
 H2126 H 0.84243 0.26613 0.48589
 H2127 H 0.81555 0.28879 0.45901
 H2128 H 0.83554 0.30002 0.44842
 C2129 C 0.87111 0.80100 -0.05145
 C2130 C 0.86154 0.79546 -0.04594
 C2131 C 0.85002 0.78891 -0.03947
 C2132 C 0.85209 0.77937 -0.02890
 C2133 C 0.84082 0.77303 -0.02263
 C2134 C 0.82749 0.77624 -0.02694
 C2135 C 0.82545 0.78578 -0.03751
 C2136 C 0.83669 0.79210 -0.04376
 C2137 C 0.81577 0.76994 -0.02058
 C2138 C 0.80539 0.76525 -0.01581
 H2139 H 0.86237 0.77685 -0.02551
 H2140 H 0.84250 0.76568 -0.01446
 H2141 H 0.81518 0.78834 -0.04091
 H2142 H 0.83498 0.79947 -0.05191
 C2143 C -0.12052 -0.05201 -0.05169
 C2144 C -0.11067 -0.04678 -0.04633
 C2145 C -0.09888 -0.04053 -0.03999
 C2146 C -0.08566 -0.04450 -0.04398
 C2147 C -0.07419 -0.03838 -0.03791
 C2148 C -0.07588 -0.02826 -0.02780
 C2149 C -0.08910 -0.02429 -0.02378
 C2150 C -0.10058 -0.03042 -0.02987
 C2151 C -0.06399 -0.02204 -0.02164
 C2152 C -0.05365 -0.01721 -0.01684
 H2153 H -0.08422 -0.05230 -0.05180
 H2154 H -0.06401 -0.04153 -0.04109
 H2155 H -0.09051 -0.01648 -0.01598
 H2156 H -0.11077 -0.02728 -0.02671
 C2157 C -0.12063 0.44796 0.44827
 C2158 C -0.11084 0.45327 0.45366
 C2159 C -0.09913 0.45966 0.46001
 C2160 C -0.08586 0.45571 0.45615
 C2161 C -0.07446 0.46198 0.46221
 C2162 C -0.07627 0.47224 0.47216
 C2163 C -0.08954 0.47618 0.47605
 C2164 C -0.10095 0.46989 0.46998
 C2165 C -0.06444 0.47861 0.47829
 C2166 C -0.05413 0.48350 0.48306
 H2167 H -0.08433 0.44781 0.44846
 H2168 H -0.06424 0.45885 0.45913
 H2169 H -0.09104 0.48408 0.48374
 H2170 H -0.11117 0.47302 0.47304
 C2171 C 0.37945 -0.05137 0.44749
 C2172 C 0.38927 -0.04600 0.45278
 C2173 C 0.40101 -0.03967 0.45916
 C2174 C 0.39921 -0.02961 0.46931
 C2175 C 0.41063 -0.02355 0.47559
 C2176 C 0.42389 -0.02754 0.47174
 C2177 C 0.42569 -0.03758 0.46157
 C2178 C 0.41428 -0.04364 0.45530
 C2179 C 0.43573 -0.02142 0.47813
 C2180 C 0.44602 -0.01665 0.48308
 H2181 H 0.38899 -0.02648 0.47237
 H2182 H 0.40913 -0.01579 0.48343
 H2183 H 0.43590 -0.04074 0.45850
 H2184 H 0.41579 -0.05141 0.44747
 C2185 C 0.37930 0.44797 -0.05257
 C2186 C 0.38908 0.45343 -0.04727
 C2187 C 0.40077 0.45991 -0.04093
 C2188 C 0.39892 0.47042 -0.03124
 C2189 C 0.41031 0.47668 -0.02508
 C2190 C 0.42360 0.47244 -0.02859
 C2191 C 0.42544 0.46194 -0.03827
 C2192 C 0.41406 0.45570 -0.04442
 C2193 C 0.43541 0.47877 -0.02232
 C2194 C 0.44569 0.48365 -0.01745
 H2195 H 0.38869 0.47376 -0.02845
 H2196 H 0.40878 0.48479 -0.01761
 H2197 H 0.43566 0.45858 -0.04107
 H2198 H 0.41563 0.44758 -0.05188
 C2199 C 0.36991 0.44786 0.80249
 C2200 C 0.36018 0.45335 0.79720
 C2201 C 0.34859 0.45992 0.79086
 C2202 C 0.33526 0.45657 0.79506
 C2203 C 0.32398 0.46292 0.78887
 C2204 C 0.32599 0.47264 0.77847
 C2205 C 0.33931 0.47602 0.77427
 C2206 C 0.35059 0.46966 0.78047
 C2207 C 0.31428 0.47900 0.77212
 C2208 C 0.30405 0.48388 0.76720
 H2209 H 0.33359 0.44905 0.80308
 H2210 H 0.31371 0.46022 0.79218
 H2211 H 0.34096 0.48351 0.76623
 H2212 H 0.36087 0.47231 0.77715
 C2213 C 0.37111 -0.05111 0.30121
 C2214 C 0.36152 -0.04560 0.29569
 C2215 C 0.34997 -0.03912 0.28919
 C2216 C 0.33666 -0.04366 0.29215
 C2217 C 0.32539 -0.03739 0.28589
 C2218 C 0.32736 -0.02655 0.27664
 C2219 C 0.34067 -0.02200 0.27366
 C2220 C 0.35196 -0.02828 0.27993
 C2221 C 0.31561 -0.02020 0.27038
 C2222 C 0.30522 -0.01544 0.26568
 H2223 H 0.33501 -0.05202 0.29929
 H2224 H 0.31514 -0.04098 0.28828
 H2225 H 0.34229 -0.01362 0.26654
 H2226 H 0.36222 -0.02469 0.27758
 C2227 C 0.12856 0.55064 0.69908
 C2228 C 0.13824 0.54518 0.70451
 C2229 C 0.14988 0.53877 0.71094
 C2230 C 0.16315 0.54198 0.70647
 C2231 C 0.17450 0.53583 0.71271
 C2232 C 0.17265 0.52644 0.72344
 C2233 C 0.15938 0.52322 0.72793
 C2234 C 0.14801 0.52938 0.72168
 C2235 C 0.18448 0.52029 0.72978
 C2236 C 0.19490 0.51565 0.73454
 H2237 H 0.16472 0.54924 0.69819
 H2238 H 0.18472 0.53841 0.70917
 H2239 H 0.15785 0.51599 0.73623
 H2240 H 0.13778 0.52685 0.72522
 C2241 C 0.12944 0.05122 0.19794
 C2242 C 0.13927 0.04589 0.20321
 C2243 C 0.15103 0.03962 0.20957
 C2244 C 0.14927 0.02967 0.21981
 C2245 C 0.16071 0.02369 0.22609
 C2246 C 0.17395 0.02764 0.22214
 C2247 C 0.17571 0.03757 0.21188
 C2248 C 0.16428 0.04354 0.20561
 C2249 C 0.18580 0.02157 0.22851
 C2250 C 0.19610 0.01682 0.23344
 H2251 H 0.13906 0.02656 0.22294
 H2252 H 0.15925 0.01601 0.23400
 H2253 H 0.18591 0.04069 0.20874
 H2254 H 0.16576 0.05122 0.19770
 C2255 C 0.62168 0.69951 0.19865
 C2256 C 0.61201 0.70498 0.20410
 C2257 C 0.60038 0.71137 0.21058
 C2258 C 0.60230 0.72123 0.22092
 C2259 C 0.59094 0.72730 0.22728
 C2260 C 0.57764 0.72353 0.22333
 C2261 C 0.57574 0.71368 0.21299
 C2262 C 0.58707 0.70762 0.20663
 C2263 C 0.56583 0.72966 0.22973
 C2264 C 0.55543 0.73433 0.23451
 H2265 H 0.61255 0.72419 0.22405
 H2266 H 0.59252 0.73491 0.23526
 H2267 H 0.56549 0.71069 0.20984
 H2268 H 0.58547 0.70001 0.19867
 C2269 C 0.12168 0.69904 0.69924
 C2270 C 0.11202 0.70440 0.70480
 C2271 C 0.10038 0.71073 0.71133
 C2272 C 0.10225 0.72153 0.72070
 C2273 C 0.09088 0.72772 0.72694
 C2274 C 0.07762 0.72311 0.72383
 C2275 C 0.07577 0.71230 0.71450
 C2276 C 0.08712 0.70613 0.70827
 C2277 C 0.06579 0.72943 0.73002
 C2278 C 0.05536 0.73420 0.73467
 H2279 H 0.11247 0.72517 0.72313
 H2280 H 0.09242 0.73607 0.73413
 H2281 H 0.06555 0.70866 0.71201
 H2282 H 0.08555 0.69780 0.70104
 C2283 C 0.62940 0.19824 0.55139
 C2284 C 0.63925 0.20349 0.54606
 C2285 C 0.65103 0.20977 0.53975
 C2286 C 0.64930 0.22021 0.53000
 C2287 C 0.66077 0.22637 0.52394
 C2288 C 0.67400 0.22211 0.52761
 C2289 C 0.67572 0.21166 0.53736
 C2290 C 0.66426 0.20551 0.54341
 C2291 C 0.68587 0.22838 0.52148
 C2292 C 0.69619 0.23325 0.51670
 H2293 H 0.63911 0.22359 0.52711
 H2294 H 0.65933 0.23444 0.51642
 H2295 H 0.68590 0.20829 0.54028
 H2296 H 0.66572 0.19746 0.55094
 C2297 C 0.62936 0.69877 0.05173
 C2298 C 0.63916 0.70415 0.04644
 C2299 C 0.65091 0.71047 0.04012
 C2300 C 0.66408 0.70542 0.04285
 C2301 C 0.67552 0.71148 0.03668
 C2302 C 0.67385 0.72262 0.02773
 C2303 C 0.66069 0.72770 0.02500
 C2304 C 0.64923 0.72163 0.03119
 C2305 C 0.68573 0.72880 0.02151
 C2306 C 0.69605 0.73360 0.01668
 H2307 H 0.66551 0.69680 0.04973
 H2308 H 0.68567 0.70748 0.03888
 H2309 H 0.65929 0.73633 0.01813
 H2310 H 0.63909 0.72562 0.02900
 C2311 C 0.12113 0.05118 0.05179
 C2312 C 0.11152 0.04562 0.04633
 C2313 C 0.10002 0.03907 0.03978
 C2314 C 0.08670 0.04172 0.04445
 C2315 C 0.07549 0.03550 0.03802
 C2316 C 0.07753 0.02659 0.02690
 C2317 C 0.09085 0.02388 0.02224
 C2318 C 0.10209 0.03012 0.02869
 C2319 C 0.06584 0.02037 0.02038
 C2320 C 0.05550 0.01564 0.01552
 H2321 H 0.08499 0.04862 0.05302
 H2322 H 0.06522 0.03767 0.04170
 H2323 H 0.09254 0.01701 0.01365
 H2324 H 0.11236 0.02800 0.02501
 C2325 C 0.12101 0.55124 0.55137
 C2326 C 0.11138 0.54571 0.54590
 C2327 C 0.09982 0.53920 0.53939
 C2328 C 0.10184 0.52946 0.52897
 C2329 C 0.09054 0.52319 0.52264
 C2330 C 0.07721 0.52666 0.52672
 C2331 C 0.07521 0.53638 0.53716
 C2332 C 0.08648 0.54264 0.54347
 C2333 C 0.06546 0.52039 0.52032
 C2334 C 0.05508 0.51567 0.51551
 H2335 H 0.11212 0.52673 0.52574
 H2336 H 0.09220 0.51569 0.51459
 H2337 H 0.06494 0.53914 0.54040
 H2338 H 0.08479 0.55015 0.55151
 C2339 C 0.62145 0.05155 0.55087
 C2340 C 0.61178 0.04616 0.54532
 C2341 C 0.60016 0.03979 0.53879
 C2342 C 0.60204 0.02875 0.52972
 C2343 C 0.59068 0.02253 0.52348
 C2344 C 0.57743 0.02733 0.52629
 C2345 C 0.57558 0.03839 0.53533
 C2346 C 0.58691 0.04460 0.54157
 C2347 C 0.56562 0.02095 0.52015
 C2348 C 0.55521 0.01612 0.51551
 H2349 H 0.61225 0.02495 0.52752
 H2350 H 0.59222 0.01398 0.51652
 H2351 H 0.56537 0.04218 0.53760
 H2352 H 0.58535 0.05311 0.54857
 C2353 C 0.62132 0.55145 0.05044
 C2354 C 0.61162 0.54606 0.04493
 C2355 C 0.59995 0.53967 0.03849
 C2356 C 0.58668 0.54303 0.04287
 C2357 C 0.57531 0.53678 0.03675
 C2358 C 0.57712 0.52712 0.02621
 C2359 C 0.59038 0.52377 0.02180
 C2360 C 0.60178 0.53004 0.02794
 C2361 C 0.56527 0.52081 0.02003
 C2362 C 0.55484 0.51604 0.01536
 H2363 H 0.58514 0.55045 0.05102
 H2364 H 0.56509 0.53947 0.04024
 H2365 H 0.59190 0.51634 0.01365
 H2366 H 0.61200 0.52737 0.02447
 C2367 C 0.05214 0.05116 0.12071
 C2368 C 0.04666 0.04552 0.11115
 C2369 C 0.04013 0.03888 0.09968
 C2370 C 0.03039 0.02850 0.10184
 C2371 C 0.02403 0.02212 0.09062
 C2372 C 0.02741 0.02613 0.07724
 C2373 C 0.03715 0.03651 0.07511
 C2374 C 0.04350 0.04286 0.08630
 C2375 C 0.02102 0.01974 0.06556
 C2376 C 0.01621 0.01498 0.05520
 H2377 H 0.02772 0.02535 0.11216
 H2378 H 0.01652 0.01411 0.09237
 H2379 H 0.03984 0.03969 0.06480
 H2380 H 0.05100 0.05088 0.08452
 C2381 C 0.05121 0.55061 0.62168
 C2382 C 0.04581 0.54513 0.61199
 C2383 C 0.03942 0.53868 0.60033
 C2384 C 0.02980 0.52812 0.60220
 C2385 C 0.02364 0.52187 0.59081
 C2386 C 0.02707 0.52617 0.57753
 C2387 C 0.03668 0.53673 0.57568
 C2388 C 0.04283 0.54297 0.58705
 C2389 C 0.02084 0.51990 0.56569
 C2390 C 0.01611 0.51520 0.55527
 H2391 H 0.02708 0.52474 0.61243
 H2392 H 0.01622 0.51372 0.59235
 H2393 H 0.03941 0.54013 0.56545
 H2394 H 0.05023 0.55112 0.58549
 C2395 C 0.55077 0.05170 0.62178
 C2396 C 0.54533 0.04633 0.61203
 C2397 C 0.53891 0.03988 0.60036
 C2398 C 0.54114 0.04509 0.58715
 C2399 C 0.53504 0.03876 0.57578
 C2400 C 0.52667 0.02718 0.57755
 C2401 C 0.52439 0.02198 0.59076
 C2402 C 0.53051 0.02832 0.60214
 C2403 C 0.52059 0.02071 0.56571
 C2404 C 0.51593 0.01585 0.55531
 H2405 H 0.54761 0.05401 0.58564
 H2406 H 0.53688 0.04288 0.56561
 H2407 H 0.51795 0.01303 0.59225
 H2408 H 0.52871 0.02419 0.61230
 C2409 C 0.55069 0.55115 0.12132
 C2410 C 0.54518 0.54570 0.11166
 C2411 C 0.53869 0.53922 0.10006
 C2412 C 0.54174 0.54371 0.08676
 C2413 C 0.53557 0.53737 0.07545
 C2414 C 0.52631 0.52653 0.07738
 C2415 C 0.52324 0.52203 0.09068
 C2416 C 0.52942 0.52838 0.10201
 C2417 C 0.52010 0.52014 0.06558
 C2418 C 0.51541 0.51537 0.05516
 H2419 H 0.54889 0.55208 0.08513
 H2420 H 0.53804 0.54092 0.06521
 H2421 H 0.51611 0.51364 0.09228
 H2422 H 0.52699 0.52484 0.11227
 C2423 C 0.19840 0.55127 0.62879
 C2424 C 0.20384 0.54575 0.63844
 C2425 C 0.21031 0.53925 0.65002
 C2426 C 0.21984 0.52864 0.64803
 C2427 C 0.22608 0.52234 0.65934
 C2428 C 0.22281 0.52664 0.67267
 C2429 C 0.21329 0.53725 0.67464
 C2430 C 0.20706 0.54354 0.66335
 C2431 C 0.22910 0.52030 0.68443
 C2432 C 0.23389 0.51555 0.69481
 H2433 H 0.22243 0.52525 0.63776
 H2434 H 0.23342 0.51415 0.65770
 H2435 H 0.21068 0.54066 0.68491
 H2436 H 0.19973 0.55173 0.66502
 C2437 C 0.19847 0.05094 0.12900
 C2438 C 0.20372 0.04555 0.13882
 C2439 C 0.21000 0.03918 0.15057
 C2440 C 0.20609 0.04314 0.16383
 C2441 C 0.21226 0.03705 0.17526
 C2442 C 0.22237 0.02697 0.17349
 C2443 C 0.22627 0.02297 0.16023
 C2444 C 0.22009 0.02907 0.14879
 C2445 C 0.22866 0.02083 0.18535
 C2446 C 0.23352 0.01609 0.19569
 H2447 H 0.19830 0.05094 0.16532
 H2448 H 0.20916 0.04022 0.18547
 H2449 H 0.23407 0.01519 0.15876
 H2450 H 0.22319 0.02594 0.13858
 C2451 C 0.69855 0.19817 0.62073
 C2452 C 0.70390 0.20352 0.61094
 C2453 C 0.71017 0.20991 0.59919
 C2454 C 0.72020 0.22009 0.60097
 C2455 C 0.72621 0.22635 0.58952
 C2456 C 0.72219 0.22245 0.57626
 C2457 C 0.71216 0.21227 0.57450
 C2458 C 0.70617 0.20602 0.58593
 C2459 C 0.72831 0.22875 0.56439
 C2460 C 0.73308 0.23361 0.55406
 H2461 H 0.72336 0.22318 0.61118
 H2462 H 0.73395 0.23420 0.59100
 H2463 H 0.70898 0.20917 0.56429
 H2464 H 0.69841 0.19818 0.58443
 C2465 C 0.69833 0.69890 0.12073
 C2466 C 0.70357 0.70429 0.11090
 C2467 C 0.70983 0.71068 0.09915
 C2468 C 0.70626 0.70638 0.08589
 C2469 C 0.71237 0.71253 0.07447
 C2470 C 0.72208 0.72301 0.07623
 C2471 C 0.72565 0.72733 0.08949
 C2472 C 0.71953 0.72117 0.10093
 C2473 C 0.72829 0.72924 0.06437
 C2474 C 0.73311 0.73404 0.05405
 H2475 H 0.69877 0.69828 0.08440
 H2476 H 0.70953 0.70911 0.06426
 H2477 H 0.73314 0.73542 0.09096
 H2478 H 0.72237 0.72457 0.11114
 C2479 C 0.55148 0.69943 0.12836
 C2480 C 0.54604 0.70501 0.13798
 C2481 C 0.53962 0.71151 0.14960
 C2482 C 0.54255 0.70684 0.16287
 C2483 C 0.53633 0.71306 0.17420
 C2484 C 0.52715 0.72398 0.17234
 C2485 C 0.52422 0.72868 0.15907
 C2486 C 0.53045 0.72245 0.14771
 C2487 C 0.52089 0.73025 0.18417
 C2488 C 0.51615 0.73494 0.19460
 H2489 H 0.54962 0.69840 0.16445
 H2490 H 0.53869 0.70935 0.18442
 H2491 H 0.51715 0.73712 0.15752
 H2492 H 0.52812 0.72613 0.13748
 C2493 C 0.05146 0.69865 0.62895
 C2494 C 0.04594 0.70415 0.63856
 C2495 C 0.03944 0.71067 0.65012
 C2496 C 0.04223 0.70602 0.66343
 C2497 C 0.03600 0.71235 0.67470
 C2498 C 0.02695 0.72336 0.67273
 C2499 C 0.02415 0.72803 0.65942
 C2500 C 0.03039 0.72169 0.64813
 C2501 C 0.02069 0.72977 0.68448
 C2502 C 0.01596 0.73456 0.69486
 H2503 H 0.04922 0.69753 0.66509
 H2504 H 0.03825 0.70866 0.68495
 H2505 H 0.01719 0.73655 0.65778
 H2506 H 0.02819 0.72537 0.63787
 C2507 C 0.55062 0.62861 0.19864
 C2508 C 0.54509 0.63829 0.20402
 C2509 C 0.53857 0.64992 0.21039
 C2510 C 0.54137 0.66318 0.20560
 C2511 C 0.53519 0.67454 0.21182
 C2512 C 0.52615 0.67270 0.22285
 C2513 C 0.52332 0.65944 0.22765
 C2514 C 0.52952 0.64806 0.22142
 C2515 C 0.51999 0.68455 0.22917
 C2516 C 0.51535 0.69500 0.23390
 H2517 H 0.54835 0.66474 0.19709
 H2518 H 0.53748 0.68475 0.20804
 H2519 H 0.51638 0.65791 0.23619
 H2520 H 0.52729 0.63783 0.22520
 C2521 C 0.05095 0.62840 0.69936
 C2522 C 0.04544 0.63805 0.70480
 C2523 C 0.03895 0.64970 0.71116
 C2524 C 0.02916 0.64783 0.72152
 C2525 C 0.02288 0.65923 0.72764
 C2526 C 0.02638 0.67252 0.72339
 C2527 C 0.03618 0.67437 0.71303
 C2528 C 0.04244 0.66300 0.70693
 C2529 C 0.02009 0.68438 0.72957
 C2530 C 0.01538 0.69483 0.73421
 H2531 H 0.02639 0.63759 0.72487
 H2532 H 0.01533 0.65769 0.73566
 H2533 H 0.03898 0.68461 0.70968
 H2534 H 0.05000 0.66456 0.69893
 C2535 C 0.05098 0.12093 0.05151
 C2536 C 0.04545 0.11128 0.04607
 C2537 C 0.03894 0.09968 0.03963
 C2538 C 0.04133 0.08644 0.04469
 C2539 C 0.03513 0.07512 0.03841
 C2540 C 0.02650 0.07697 0.02705
 C2541 C 0.02409 0.09021 0.02198
 C2542 C 0.03030 0.10156 0.02827
 C2543 C 0.02035 0.06516 0.02065
 C2544 C 0.01570 0.05473 0.01587
 H2545 H 0.04800 0.08487 0.05345
 H2546 H 0.03709 0.06491 0.04240
 H2547 H 0.01745 0.09175 0.01319
 H2548 H 0.02841 0.11177 0.02428
 C2549 C 0.05120 0.62119 0.55154
 C2550 C 0.04561 0.61156 0.54610
 C2551 C 0.03903 0.59998 0.53967
 C2552 C 0.04205 0.58666 0.54415
 C2553 C 0.03576 0.57536 0.53791
 C2554 C 0.02643 0.57732 0.52713
 C2555 C 0.02338 0.59064 0.52264
 C2556 C 0.02968 0.60196 0.52891
 C2557 C 0.02018 0.56553 0.52075
 C2558 C 0.01548 0.55512 0.51595
 H2559 H 0.04927 0.58501 0.55245
 H2560 H 0.03820 0.56510 0.54145
 H2561 H 0.01619 0.59227 0.51432
 H2562 H 0.02729 0.61223 0.52535
 C2563 C 0.55134 0.12160 0.55069
 C2564 C 0.54590 0.11192 0.54521
 C2565 C 0.53942 0.10027 0.53881
 C2566 C 0.54279 0.08698 0.54312
 C2567 C 0.53647 0.07562 0.53703
 C2568 C 0.52674 0.07750 0.52659
 C2569 C 0.52338 0.09079 0.52225
 C2570 C 0.52971 0.10217 0.52836
 C2571 C 0.52036 0.06567 0.52044
 C2572 C 0.51555 0.05524 0.51580
 H2573 H 0.55028 0.08539 0.55119
 H2574 H 0.53916 0.06538 0.54045
 H2575 H 0.51588 0.09234 0.51418
 H2576 H 0.52704 0.11242 0.52496
 C2577 C 0.55120 0.62136 0.05084
 C2578 C 0.54566 0.61171 0.04541
 C2579 C 0.53906 0.60010 0.03904
 C2580 C 0.54139 0.58687 0.04415
 C2581 C 0.53500 0.57556 0.03803
 C2582 C 0.52623 0.57743 0.02677
 C2583 C 0.52390 0.59066 0.02164
 C2584 C 0.53030 0.60199 0.02778
 C2585 C 0.51990 0.56563 0.02050
 C2586 C 0.51514 0.55523 0.01576
 H2587 H 0.54814 0.58529 0.05285
 H2588 H 0.53691 0.56536 0.04206
 H2589 H 0.51718 0.59220 0.01292
 H2590 H 0.52845 0.61218 0.02374
 C2591 C 0.69822 0.12940 0.55145
 C2592 C 0.70349 0.13920 0.54604
 C2593 C 0.70980 0.15091 0.53962
 C2594 C 0.70549 0.16420 0.54304
 C2595 C 0.71169 0.17559 0.53688
 C2596 C 0.72222 0.17373 0.52727
 C2597 C 0.72652 0.16044 0.52382
 C2598 C 0.72032 0.14905 0.52998
 C2599 C 0.72856 0.18554 0.52108
 C2600 C 0.73346 0.19585 0.51630
 H2601 H 0.69738 0.16576 0.55048
 H2602 H 0.70828 0.18583 0.53963
 H2603 H 0.73466 0.15890 0.51640
 H2604 H 0.72373 0.13881 0.52727
 C2605 C 0.69809 0.62943 0.05130
 C2606 C 0.70339 0.63925 0.04594
 C2607 C 0.70973 0.65100 0.03960
 C2608 C 0.71978 0.64920 0.02946
 C2609 C 0.72598 0.66064 0.02337
 C2610 C 0.72217 0.67392 0.02740
 C2611 C 0.71212 0.67571 0.03753
 C2612 C 0.70592 0.66429 0.04362
 C2613 C 0.72846 0.68578 0.02122
 C2614 C 0.73333 0.69611 0.01644
 H2615 H 0.72281 0.63898 0.02629
 H2616 H 0.73374 0.65914 0.01555
 H2617 H 0.70909 0.68594 0.04074
 H2618 H 0.69818 0.66581 0.05145
 C2619 C 0.19887 0.62163 0.69907
 C2620 C 0.20429 0.61195 0.70456
 C2621 C 0.21074 0.60031 0.71097
 C2622 C 0.21965 0.60216 0.72213
 C2623 C 0.22594 0.59079 0.72828
 C2624 C 0.22334 0.57755 0.72327
 C2625 C 0.21442 0.57571 0.71213
 C2626 C 0.20814 0.58706 0.70600
 C2627 C 0.22962 0.56572 0.72952
 C2628 C 0.23436 0.55531 0.73423
 H2629 H 0.22173 0.61237 0.72606
 H2630 H 0.23280 0.59232 0.73691
 H2631 H 0.21231 0.56551 0.70819
 H2632 H 0.20127 0.58550 0.69738
 C2633 C 0.19799 0.12014 0.19759
 C2634 C 0.20338 0.11034 0.20289
 C2635 C 0.20977 0.09865 0.20926
 C2636 C 0.20594 0.08533 0.20535
 C2637 C 0.21210 0.07396 0.21157
 C2638 C 0.22212 0.07585 0.22173
 C2639 C 0.22597 0.08915 0.22564
 C2640 C 0.21980 0.10054 0.21941
 C2641 C 0.22836 0.06405 0.22805
 C2642 C 0.23321 0.05378 0.23296
 H2643 H 0.19820 0.08375 0.19752
 H2644 H 0.20905 0.06371 0.20846
 H2645 H 0.23370 0.09072 0.23348
 H2646 H 0.22283 0.11079 0.22251
 C2647 C 0.69923 1.12147 0.69869
 C2648 C 0.70478 1.11184 0.70413
 C2649 C 0.71128 1.10020 0.71051
 C2650 C 0.70920 1.08702 0.70513
 C2651 C 0.71538 1.07566 0.71133
 C2652 C 0.72369 1.07741 0.72295
 C2653 C 0.72580 1.09059 0.72835
 C2654 C 0.71960 1.10198 0.72214
 C2655 C 0.72982 1.06555 0.72928
 C2656 C 0.73446 1.05510 0.73403
 H2657 H 0.70277 1.08553 0.69617
 H2658 H 0.71364 1.06551 0.70709
 H2659 H 0.73216 1.09205 0.73736
 H2660 H 0.72126 1.11213 0.72640
 C2661 C 0.69907 0.62140 0.19881
 C2662 C 0.70459 0.61178 0.20430
 C2663 C 0.71111 0.60020 0.21073
 C2664 C 0.71980 0.60210 0.22206
 C2665 C 0.72610 0.59077 0.22827
 C2666 C 0.72374 0.57753 0.22315
 C2667 C 0.71506 0.57565 0.21183
 C2668 C 0.70877 0.58695 0.20563
 C2669 C 0.73001 0.56573 0.22945
 C2670 C 0.73473 0.55531 0.23417
 H2671 H 0.72167 0.61231 0.22609
 H2672 H 0.73277 0.59233 0.23704
 H2673 H 0.71313 0.56544 0.20780
 H2674 H 0.70207 0.58535 0.19689
 C2675 C 0.55051 0.12821 0.69828
 C2676 C 0.54502 0.13795 0.70360
 C2677 C 0.53854 0.14964 0.70996
 C2678 C 0.52904 0.14775 0.72060
 C2679 C 0.52283 0.15913 0.72683
 C2680 C 0.52611 0.17244 0.72245
 C2681 C 0.53558 0.17431 0.71179
 C2682 C 0.54178 0.16294 0.70556
 C2683 C 0.51991 0.18427 0.72881
 C2684 C 0.51522 0.19467 0.73363
 H2685 H 0.52645 0.13751 0.72408
 H2686 H 0.51553 0.15756 0.73507
 H2687 H 0.53820 0.18456 0.70831
 H2688 H 0.54910 0.16453 0.69735
 C2689 C 1.05221 0.12970 0.19755
 C2690 C 1.04676 0.13945 0.20288
 C2691 C 1.04019 0.15105 0.20924
 C2692 C 1.03029 0.14902 0.21948
 C2693 C 1.02389 0.16030 0.22566
 C2694 C 1.02737 0.17366 0.22161
 C2695 C 1.03726 0.17569 0.21136
 C2696 C 1.04365 0.16441 0.20519
 C2697 C 1.02096 0.18537 0.22792
 C2698 C 1.01605 0.19562 0.23281
 H2699 H 1.02754 0.13872 0.22268
 H2700 H 1.01627 0.15863 0.23357
 H2701 H 1.04004 0.18598 0.20816
 H2702 H 1.05128 0.16611 0.19729
 C2703 C 0.19825 0.62954 0.55159
 C2704 C 0.20358 0.63936 0.54627
 C2705 C 0.20990 0.65114 0.53996
 C2706 C 0.22017 0.64939 0.53004
 C2707 C 0.22631 0.66086 0.52393
 C2708 C 0.22219 0.67412 0.52772
 C2709 C 0.21192 0.67586 0.53763
 C2710 C 0.20579 0.66441 0.54373
 C2711 C 0.22842 0.68601 0.52153
 C2712 C 0.23326 0.69633 0.51671
 H2713 H 0.22343 0.63918 0.52704
 H2714 H 0.23424 0.65940 0.51628
 H2715 H 0.20865 0.68608 0.54065
 H2716 H 0.19786 0.66589 0.55139
 C2717 C 0.19872 0.12895 1.05139
 C2718 C 0.20426 0.13856 1.04593
 C2719 C 0.21086 0.15007 1.03945
 C2720 C 0.20796 0.16343 1.04393
 C2721 C 0.21434 0.17464 1.03768
 C2722 C 0.22367 0.17257 1.02693
 C2723 C 0.22659 0.15921 1.02244
 C2724 C 0.22019 0.14797 1.02870
 C2725 C 0.23004 0.18427 1.02059
 C2726 C 0.23482 0.19464 1.01584
 H2727 H 0.20076 0.16517 1.05222
 H2728 H 0.21199 0.18494 1.04121
 H2729 H 0.23377 0.15750 1.01413
 H2730 H 0.22250 0.13767 1.02517
 C2731 C 0.19842 0.69858 0.62046
 C2732 C 0.20378 0.70395 0.61070
 C2733 C 0.21017 0.71035 0.59902
 C2734 C 0.21970 0.72099 0.60090
 C2735 C 0.22591 0.72718 0.58953
 C2736 C 0.22262 0.72275 0.57624
 C2737 C 0.21309 0.71211 0.57437
 C2738 C 0.20688 0.70593 0.58573
 C2739 C 0.22889 0.72903 0.56445
 C2740 C 0.23372 0.73386 0.55414
 H2741 H 0.22230 0.72449 0.61113
 H2742 H 0.23325 0.73539 0.59109
 H2743 H 0.21046 0.70861 0.56414
 H2744 H 0.19953 0.69773 0.58415
 C2745 C 0.19855 0.19827 1.12100
 C2746 C 0.20409 0.20375 1.11140
 C2747 C 0.21064 0.21024 1.09986
 C2748 C 0.21956 0.22138 1.10188
 C2749 C 0.22584 0.22770 1.09061
 C2750 C 0.22322 0.22290 1.07731
 C2751 C 0.21432 0.21175 1.07531
 C2752 C 0.20805 0.20544 1.08655
 C2753 C 0.22948 0.22933 1.06558
 C2754 C 0.23423 0.23416 1.05523
 H2755 H 0.22162 0.22518 1.11213
 H2756 H 0.23269 0.23632 1.09227
 H2757 H 0.21221 0.20796 1.06506
 H2758 H 0.20118 0.19685 1.08487
 C2759 C 0.69862 0.55129 0.12875
 C2760 C 0.70412 0.54578 0.13837
 C2761 C 0.71061 0.53930 0.14995
 C2762 C 0.70748 0.54370 0.16327
 C2763 C 0.71373 0.53744 0.17456
 C2764 C 0.72316 0.52674 0.17260
 C2765 C 0.72631 0.52233 0.15928
 C2766 C 0.72005 0.52860 0.14796
 C2767 C 0.72944 0.52040 0.18437
 C2768 C 0.73420 0.51564 0.19475
 H2769 H 0.70021 0.55195 0.16493
 H2770 H 0.71121 0.54093 0.18482
 H2771 H 0.73358 0.51407 0.15765
 H2772 H 0.72254 0.52512 0.13770
 C2773 C 0.69877 1.05137 0.62898
 C2774 C 0.70422 1.04580 0.63858
 C2775 C 0.71063 1.03919 0.65011
 C2776 C 0.70739 1.04342 0.66346
 C2777 C 0.71356 1.03702 0.67471
 C2778 C 0.72301 1.02636 0.67267
 C2779 C 0.72627 1.02211 0.65933
 C2780 C 0.72008 1.02853 0.64805
 C2781 C 0.72924 1.01993 0.68440
 C2782 C 0.73397 1.01515 0.69477
 H2783 H 0.70009 1.05165 0.66517
 H2784 H 0.71096 1.04039 0.68500
 H2785 H 0.73356 1.01388 0.65765
 H2786 H 0.72265 1.02518 0.63776
 C2787 C 0.55136 0.19914 0.62877
 C2788 C 0.54585 0.20467 0.63837
 C2789 C 0.53935 0.21116 0.64993
 C2790 C 0.54202 0.20638 0.66322
 C2791 C 0.53575 0.21263 0.67450
 C2792 C 0.52676 0.22370 0.67256
 C2793 C 0.52408 0.22851 0.65928
 C2794 C 0.53036 0.22224 0.64798
 C2795 C 0.52047 0.23001 0.68433
 C2796 C 0.51571 0.23470 0.69474
 H2797 H 0.54895 0.19783 0.66485
 H2798 H 0.53791 0.20884 0.68473
 H2799 H 0.51716 0.23707 0.65769
 H2800 H 0.52823 0.22602 0.63774
 C2801 C 1.05163 0.19776 0.12948
 C2802 C 1.04626 0.20304 0.13930
 C2803 C 1.03987 0.20935 0.15102
 C2804 C 1.04337 0.20505 0.16429
 C2805 C 1.03721 0.21120 0.17569
 C2806 C 1.02752 0.22169 0.17390
 C2807 C 1.02400 0.22599 0.16064
 C2808 C 1.03017 0.21983 0.14922
 C2809 C 1.02130 0.22796 0.18573
 C2810 C 1.01646 0.23283 0.19602
 H2811 H 1.05085 0.19696 0.16581
 H2812 H 1.04001 0.20780 0.18591
 H2813 H 1.01654 0.23409 0.15914
 H2814 H 1.02740 0.22323 0.13900
 C2815 C 0.62128 0.19906 0.69893
 C2816 C 0.61164 0.20451 0.70445
 C2817 C 0.60003 0.21088 0.71098
 C2818 C 0.60195 0.22137 0.72067
 C2819 C 0.59059 0.22749 0.72701
 C2820 C 0.57731 0.22312 0.72367
 C2821 C 0.57541 0.21264 0.71397
 C2822 C 0.58674 0.20654 0.70765
 C2823 C 0.56550 0.22933 0.72999
 C2824 C 0.55508 0.23401 0.73472
 H2825 H 0.61219 0.22480 0.72331
 H2826 H 0.59217 0.23559 0.73448
 H2827 H 0.56518 0.20920 0.71129
 H2828 H 0.58513 0.19845 0.70016
 C2829 C 1.12019 0.19783 0.19803
 C2830 C 1.11042 0.20319 0.20343
 C2831 C 1.09874 0.20957 0.20985
 C2832 C 1.10062 0.21973 0.21989
 C2833 C 1.08924 0.22592 0.22610
 C2834 C 1.07595 0.22196 0.22230
 C2835 C 1.07408 0.21179 0.21227
 C2836 C 1.08544 0.20561 0.20606
 C2837 C 1.06414 0.22825 0.22859
 C2838 C 1.05384 0.23311 0.23343
 H2839 H 1.11086 0.22286 0.22289
 H2840 H 1.09080 0.23377 0.23384
 H2841 H 1.06384 0.20865 0.20925
 H2842 H 1.08386 0.19777 0.19832
 C2843 C 0.12945 0.69848 0.55158
 C2844 C 0.13925 0.70380 0.54623
 C2845 C 0.15100 0.71010 0.53986
 C2846 C 0.16422 0.70536 0.54295
 C2847 C 0.17565 0.71143 0.53677
 C2848 C 0.17392 0.72227 0.52746
 C2849 C 0.16071 0.72702 0.52437
 C2850 C 0.14927 0.72094 0.53056
 C2851 C 0.18579 0.72847 0.52122
 C2852 C 0.19610 0.73329 0.51639
 H2853 H 0.16568 0.69699 0.55013
 H2854 H 0.18582 0.70769 0.53925
 H2855 H 0.15927 0.73540 0.51721
 H2856 H 0.13909 0.72468 0.52811
 C2857 C 0.12874 0.19857 1.05120
 C2858 C 0.13838 0.20399 1.04568
 C2859 C 0.15001 0.21034 1.03915
 C2860 C 0.16329 0.20601 1.04248
 C2861 C 0.17463 0.21211 1.03617
 C2862 C 0.17274 0.22259 1.02649
 C2863 C 0.15946 0.22694 1.02314
 C2864 C 0.14810 0.22082 1.02946
 C2865 C 0.18455 0.22883 1.02020
 C2866 C 0.19495 0.23358 1.01549
 H2867 H 0.16489 0.19793 1.04995
 H2868 H 0.18486 0.20868 1.03885
 H2869 H 0.15789 0.23503 1.01568
 H2870 H 0.13786 0.22425 1.02682
 C2871 C 0.62845 0.55101 0.19906
 C2872 C 0.63813 0.54560 0.20454
 C2873 C 0.64979 0.53927 0.21101
 C2874 C 0.66304 0.54241 0.20644
 C2875 C 0.67442 0.53634 0.21269
 C2876 C 0.67262 0.52707 0.22355
 C2877 C 0.65937 0.52391 0.22813
 C2878 C 0.64797 0.53000 0.22186
 C2879 C 0.68447 0.52092 0.22984
 C2880 C 0.69490 0.51622 0.23454
 H2881 H 0.66457 0.54956 0.19805
 H2882 H 0.68463 0.53887 0.20907
 H2883 H 0.65787 0.51677 0.23652
 H2884 H 0.63776 0.52750 0.22547
 C2885 C 0.62812 1.05123 0.69903
 C2886 C 0.63779 1.04577 0.70452
 C2887 C 0.64946 1.03936 0.71096
 C2888 C 0.66270 1.04216 0.70613
 C2889 C 0.67408 1.03601 0.71235
 C2890 C 0.67229 1.02700 0.72343
 C2891 C 0.65906 1.02419 0.72828
 C2892 C 0.64766 1.03036 0.72205
 C2893 C 0.68416 1.02080 0.72971
 C2894 C 0.69458 1.01606 0.73443
 H2895 H 0.66423 1.04909 0.69758
 H2896 H 0.68426 1.03828 0.70851
 H2897 H 0.65756 1.01727 0.73685
 H2898 H 0.63746 1.02812 0.72588
 C2899 C 0.87034 0.44813 0.30272
 C2900 C 0.86054 0.45348 0.29737
 C2901 C 0.84884 0.45982 0.29093
 C2902 C 0.83554 0.45609 0.29491
 C2903 C 0.82417 0.46221 0.28863
 C2904 C 0.82604 0.47208 0.27833
 C2905 C 0.83933 0.47580 0.27433
 C2906 C 0.85071 0.46968 0.28062
 C2907 C 0.81424 0.47830 0.27195
 C2908 C 0.80399 0.48315 0.26699
 H2909 H 0.83395 0.44847 0.30285
 H2910 H 0.81393 0.45924 0.29180
 H2911 H 0.84090 0.48341 0.26638
 H2912 H 0.86095 0.47262 0.27745
 C2913 C 0.87026 0.94816 0.80251
 C2914 C 0.86047 0.95350 0.79712
 C2915 C 0.84875 0.95983 0.79071
 C2916 C 0.83547 0.95584 0.79449
 C2917 C 0.82407 0.96195 0.78828
 C2918 C 0.82588 0.97210 0.77824
 C2919 C 0.83915 0.97611 0.77445
 C2920 C 0.85057 0.96998 0.78067
 C2921 C 0.81404 0.97833 0.77193
 C2922 C 0.80376 0.98316 0.76703
 H2923 H 0.83393 0.94800 0.80223
 H2924 H 0.81385 0.95877 0.79130
 H2925 H 0.84068 0.98394 0.76670
 H2926 H 0.86079 0.97315 0.77766
 C2927 C 0.37957 0.30233 0.80197
 C2928 C 0.38937 0.29702 0.79659
 C2929 C 0.40107 0.29064 0.79022
 C2930 C 0.41436 0.29443 0.79420
 C2931 C 0.42573 0.28815 0.78810
 C2932 C 0.42387 0.27805 0.77800
 C2933 C 0.41059 0.27428 0.77399
 C2934 C 0.39921 0.28056 0.78009
 C2935 C 0.43567 0.27166 0.77181
 C2936 C 0.44592 0.26672 0.76697
 H2937 H 0.41593 0.30220 0.80201
 H2938 H 0.43597 0.29116 0.79127
 H2939 H 0.40903 0.26649 0.76619
 H2940 H 0.38897 0.27756 0.77695
 C2941 C 0.87845 0.30061 0.30136
 C2942 C 0.88809 0.29506 0.29597
 C2943 C 0.89969 0.28853 0.28958
 C2944 C 0.91300 0.29187 0.29388
 C2945 C 0.92431 0.28564 0.28765
 C2946 C 0.92238 0.27603 0.27708
 C2947 C 0.90908 0.27267 0.27278
 C2948 C 0.89774 0.27892 0.27902
 C2949 C 0.93416 0.26980 0.27074
 C2950 C 0.94454 0.26511 0.26595
 H2951 H 0.91462 0.29929 0.30201
 H2952 H 0.93455 0.28832 0.29104
 H2953 H 0.90748 0.26528 0.26461
 H2954 H 0.88749 0.27628 0.27562
 C2955 C 0.37140 0.80154 0.44875
 C2956 C 0.36177 0.79601 0.45421
 C2957 C 0.35015 0.78949 0.46061
 C2958 C 0.35205 0.78009 0.47135
 C2959 C 0.34069 0.77381 0.47753
 C2960 C 0.32741 0.77691 0.47298
 C2961 C 0.32554 0.78630 0.46224
 C2962 C 0.33687 0.79256 0.45608
 C2963 C 0.31559 0.77062 0.47924
 C2964 C 0.30519 0.76587 0.48397
 H2965 H 0.36228 0.77764 0.47494
 H2966 H 0.34226 0.76658 0.48583
 H2967 H 0.31531 0.78879 0.45865
 H2968 H 0.33527 0.79981 0.44780
 C2969 C 0.37013 0.30267 0.94796
 C2970 C 0.36039 0.29728 0.95337
 C2971 C 0.34875 0.29081 0.95978
 C2972 C 0.33543 0.29488 0.95622
 C2973 C 0.32411 0.28858 0.96239
 C2974 C 0.32605 0.27818 0.97215
 C2975 C 0.33937 0.27411 0.97571
 C2976 C 0.35070 0.28041 0.96953
 C2977 C 0.31429 0.27179 0.97840
 C2978 C 0.30403 0.26685 0.98325
 H2979 H 0.33380 0.30289 0.94869
 H2980 H 0.31385 0.29181 0.95955
 H2981 H 0.34098 0.26608 0.98324
 H2982 H 0.36096 0.27718 0.97235
 C2983 C 0.80190 0.44808 0.37022
 C2984 C 0.79653 0.45351 0.36049
 C2985 C 0.79015 0.45999 0.34887
 C2986 C 0.77937 0.46933 0.35081
 C2987 C 0.77317 0.47562 0.33949
 C2988 C 0.77773 0.47259 0.32620
 C2989 C 0.78851 0.46326 0.32426
 C2990 C 0.79471 0.45698 0.33557
 C2991 C 0.77141 0.47889 0.31444
 C2992 C 0.76655 0.48373 0.30415
 H2993 H 0.77577 0.47173 0.36106
 H2994 H 0.76484 0.48281 0.34109
 H2995 H 0.79212 0.46084 0.31402
 H2996 H 0.80303 0.44977 0.33395
 C2997 C 0.80224 0.94780 0.86987
 C2998 C 0.79686 0.95324 0.86016
 C2999 C 0.79039 0.95979 0.84861
 C3000 C 0.77998 0.96950 0.85073
 C3001 C 0.77366 0.97585 0.83950
 C3002 C 0.77774 0.97249 0.82613
 C3003 C 0.78817 0.96280 0.82403
 C3004 C 0.79448 0.95647 0.83524
 C3005 C 0.77130 0.97885 0.81447
 C3006 C 0.76636 0.98371 0.80423
 H3007 H 0.77675 0.97214 0.86104
 H3008 H 0.76561 0.98332 0.84123
 H3009 H 0.79141 0.96014 0.81372
 H3010 H 0.80252 0.94898 0.83349
 C3011 C 0.30149 0.80130 0.37888
 C3012 C 0.29591 0.79587 0.38848
 C3013 C 0.28930 0.78949 0.40002
 C3014 C 0.27928 0.77935 0.39797
 C3015 C 0.27288 0.77318 0.40925
 C3016 C 0.27650 0.77715 0.42259
 C3017 C 0.28651 0.78729 0.42462
 C3018 C 0.29289 0.79344 0.41337
 C3019 C 0.27013 0.77089 0.43433
 C3020 C 0.26538 0.76616 0.44471
 H3021 H 0.27643 0.77623 0.38768
 H3022 H 0.26516 0.76535 0.40758
 H3023 H 0.28939 0.79043 0.43491
 H3024 H 0.30062 0.80127 0.41507
 C3025 C 0.30206 0.30209 0.87998
 C3026 C 0.29666 0.29666 0.88969
 C3027 C 0.29021 0.29018 0.90129
 C3028 C 0.29382 0.29414 0.91464
 C3029 C 0.28758 0.28786 0.92592
 C3030 C 0.27768 0.27760 0.92391
 C3031 C 0.27406 0.27362 0.91056
 C3032 C 0.28032 0.27991 0.89927
 C3033 C 0.27137 0.27123 0.93563
 C3034 C 0.26652 0.26635 0.94591
 H3035 H 0.30145 0.30207 0.91632
 H3036 H 0.29046 0.29101 0.93620
 H3037 H 0.26644 0.26569 0.90890
 H3038 H 0.27746 0.27677 0.88898
 C3039 C 0.44795 0.30228 0.87035
 C3040 C 0.45332 0.29686 0.86059
 C3041 C 0.45970 0.29040 0.84892
 C3042 C 0.45590 0.29425 0.83560
 C3043 C 0.46207 0.28796 0.82426
 C3044 C 0.47208 0.27780 0.82617
 C3045 C 0.47589 0.27395 0.83949
 C3046 C 0.46972 0.28024 0.85084
 C3047 C 0.47835 0.27142 0.81440
 C3048 C 0.48321 0.26650 0.80413
 H3049 H 0.44818 0.30208 0.83398
 H3050 H 0.45903 0.29103 0.81400
 H3051 H 0.48361 0.26611 0.84109
 H3052 H 0.47273 0.27719 0.86110
 C3053 C 0.94902 0.30135 0.37136
 C3054 C 0.95449 0.29584 0.36173
 C3055 C 0.96095 0.28936 0.35014
 C3056 C 0.95776 0.29374 0.33683
 C3057 C 0.96402 0.28751 0.32552
 C3058 C 0.97350 0.27686 0.32746
 C3059 C 0.97670 0.27246 0.34077
 C3060 C 0.97043 0.27870 0.35210
 C3061 C 0.97974 0.27052 0.31568
 C3062 C 0.98442 0.26573 0.30528
 H3063 H 0.95044 0.30195 0.33519
 H3064 H 0.96145 0.29098 0.31527
 H3065 H 0.98400 0.26422 0.34237
 H3066 H 0.97296 0.27523 0.36235
 C3067 C 0.44772 0.37022 0.80186
 C3068 C 0.45312 0.36047 0.79648
 C3069 C 0.45954 0.34880 0.79009
 C3070 C 0.46952 0.35071 0.77991
 C3071 C 0.47571 0.33933 0.77369
 C3072 C 0.47194 0.32602 0.77764
 C3073 C 0.46197 0.32413 0.78783
 C3074 C 0.45579 0.33549 0.79404
 C3075 C 0.47818 0.31423 0.77131
 C3076 C 0.48300 0.30393 0.76643
 H3077 H 0.47249 0.36097 0.77679
 H3078 H 0.48341 0.34090 0.76583
 H3079 H 0.45898 0.31388 0.79096
 H3080 H 0.44809 0.33390 0.80190
 C3081 C 0.94873 0.37106 0.30151
 C3082 C 0.95421 0.36144 0.29595
 C3083 C 0.96064 0.34982 0.28943
 C3084 C 0.96940 0.35170 0.27817
 C3085 C 0.97559 0.34034 0.27187
 C3086 C 0.97304 0.32708 0.27683
 C3087 C 0.96429 0.32522 0.28809
 C3088 C 0.95812 0.33656 0.29437
 C3089 C 0.97922 0.31525 0.27045
 C3090 C 0.98389 0.30483 0.26565
 H3091 H 0.97141 0.36192 0.27425
 H3092 H 0.98231 0.34189 0.26316
 H3093 H 0.96222 0.31501 0.29201
 H3094 H 0.95136 0.33498 0.30306
 C3095 C 0.30175 0.87171 0.44897
 C3096 C 0.29627 0.86209 0.45448
 C3097 C 0.28981 0.85049 0.46097
 C3098 C 0.29247 0.83720 0.45614
 C3099 C 0.28625 0.82589 0.46241
 C3100 C 0.27733 0.82780 0.47353
 C3101 C 0.27467 0.84109 0.47838
 C3102 C 0.28089 0.85243 0.47210
 C3103 C 0.27107 0.81601 0.47984
 C3104 C 0.26629 0.80562 0.48456
 H3105 H 0.29934 0.83558 0.44755
 H3106 H 0.28841 0.81566 0.45858
 H3107 H 0.26781 0.84268 0.48698
 H3108 H 0.27877 0.86267 0.47591
 C3109 C 0.30247 0.37013 0.94797
 C3110 C 0.29707 0.36038 0.95338
 C3111 C 0.29066 0.34871 0.95981
 C3112 C 0.28040 0.35064 0.96971
 C3113 C 0.27422 0.33928 0.97597
 C3114 C 0.27829 0.32595 0.97237
 C3115 C 0.28854 0.32404 0.96246
 C3116 C 0.29471 0.33538 0.95620
 C3117 C 0.27203 0.31417 0.97871
 C3118 C 0.26717 0.30389 0.98361
 H3119 H 0.27718 0.36091 0.97257
 H3120 H 0.26629 0.34088 0.98360
 H3121 H 0.29176 0.31377 0.95958
 H3122 H 0.30262 0.33376 0.94857
 C3123 C 0.80179 0.37947 0.30180
 C3124 C 0.79647 0.38925 0.29640
 C3125 C 0.79018 0.40097 0.28998
 C3126 C 0.77968 0.39915 0.28030
 C3127 C 0.77361 0.41057 0.27404
 C3128 C 0.77803 0.42384 0.27744
 C3129 C 0.78852 0.42565 0.28712
 C3130 C 0.79458 0.41425 0.29337
 C3131 C 0.77186 0.43569 0.27114
 C3132 C 0.76707 0.44601 0.26629
 H3133 H 0.77620 0.38892 0.27760
 H3134 H 0.76550 0.40906 0.26658
 H3135 H 0.79201 0.43587 0.28984
 H3136 H 0.80269 0.41578 0.30084
   
