data_POSCAR
  _audit_creation_date              2014-09-24
  _audit_creation_method            'ToBaCCo'
  _symmetry_space_group_name_H-M    'P1'
  _symmetry_Int_Tables_number       1
  _symmetry_cell_setting            triclinic
  loop_
  _symmetry_equiv_pos_as_xyz
 x,y,z
_cell_length_a 59.2450
_cell_length_b 59.2403
_cell_length_c 59.2246
_cell_angle_alpha 89.996600
_cell_angle_beta 89.954200
_cell_angle_gamma 89.981600
loop_
  _atom_site_label
  _atom_site_type_symbol
  _atom_site_fract_x
  _atom_site_fract_y
  _atom_site_fract_z
O1 O 0.87965 0.15257 0.81378
 O2 O 0.90681 0.12365 0.80690
 O3 O 0.82166 0.11447 0.83490
 O4 O 0.81332 0.08965 0.86204
 O5 O 0.84230 0.17347 0.87188
 O6 O 0.87130 0.18068 0.89887
 O7 O 0.88096 0.05745 0.89768
 O8 O 0.85746 0.05157 0.86532
 O9 O 0.93828 0.09103 0.87349
 O10 O 0.94485 0.12435 0.85050
 O11 O 0.90471 0.11550 0.93031
 O12 O 0.87014 0.13793 0.93647
 O13 O 0.87757 0.08287 0.92617
 O14 O 0.84835 0.11217 0.93311
 O15 O 0.93359 0.11939 0.90540
 O16 O 0.94016 0.14791 0.87455
 O17 O 0.91367 0.06183 0.87094
 O18 O 0.88910 0.05443 0.84213
 O19 O 0.87580 0.17776 0.84247
 O20 O 0.89793 0.18392 0.87583
 O21 O 0.81728 0.14464 0.86824
 O22 O 0.81291 0.11062 0.89192
 O23 O 0.85017 0.11925 0.80968
 O24 O 0.88499 0.09699 0.80370
 Zr25 Zr 0.87955 0.12083 0.82977
 O26 O 0.90100 0.10030 0.84934
 Zr27 Zr 0.83762 0.11539 0.86653
 O28 O 0.85717 0.09430 0.88751
 Zr29 Zr 0.87405 0.15773 0.87166
 O30 O 0.89501 0.13878 0.89310
 Zr31 Zr 0.88185 0.07748 0.86843
 O32 O 0.86026 0.09614 0.84669
 Zr33 Zr 0.91785 0.12001 0.87353
 O34 O 0.89853 0.14103 0.85205
 Zr35 Zr 0.87564 0.11442 0.91011
 O36 O 0.85415 0.13539 0.89078
 O37 O 0.85593 0.13901 0.84824
 O38 O 0.89976 0.09626 0.89210
 C39 C 0.87810 0.17282 0.82147
 C40 C 0.82921 0.11646 0.81464
 C41 C 0.82209 0.16571 0.87052
 C42 C 0.87957 0.06261 0.91870
 C43 C 0.93381 0.06981 0.87273
 C44 C 0.92576 0.11749 0.92556
 H45 H 0.91160 0.09214 0.83932
 H46 H 0.90278 0.14910 0.90366
 H47 H 0.84620 0.14856 0.83858
 H48 H 0.84724 0.08343 0.89537
 H49 H 0.84793 0.05546 0.85216
 H50 H 0.81970 0.07572 0.86864
 H51 H 0.93620 0.15715 0.88789
 H52 H 0.91077 0.18032 0.86575
 H53 H 0.88031 0.05942 0.82889
 H54 H 0.87226 0.08620 0.80405
 H55 H 0.88142 0.15013 0.93485
 H56 H 0.86073 0.17382 0.90984
 H57 H 0.91780 0.13411 0.81390
 H58 H 0.94250 0.11371 0.83785
 H59 H 0.81567 0.12220 0.90365
 H60 H 0.83899 0.09908 0.92870
 O61 O 0.83284 0.68575 0.38354
 O62 O 0.86080 0.69285 0.41147
 O63 O 0.87230 0.66558 0.32635
 O64 O 0.89731 0.63898 0.31785
 O65 O 0.81354 0.62707 0.34584
 O66 O 0.80630 0.60025 0.37499
 O67 O 0.92966 0.60398 0.38521
 O68 O 0.93488 0.63667 0.36215
 O69 O 0.89514 0.62675 0.44278
 O70 O 0.86104 0.64877 0.44923
 O71 O 0.87247 0.56959 0.40848
 O72 O 0.85049 0.56289 0.37424
 O73 O 0.90510 0.57484 0.38123
 O74 O 0.87541 0.56774 0.35181
 O75 O 0.86802 0.59403 0.43767
 O76 O 0.83818 0.62390 0.44416
 O77 O 0.92426 0.63000 0.41804
 O78 O 0.93129 0.65927 0.39415
 O79 O 0.80809 0.65676 0.37928
 O80 O 0.80255 0.62319 0.40172
 O81 O 0.84278 0.63178 0.32144
 O82 O 0.87710 0.60886 0.31715
 O83 O 0.86678 0.69063 0.35486
 O84 O 0.88799 0.69670 0.39050
 Zr85 Zr 0.86480 0.67028 0.38411
 O86 O 0.88551 0.65091 0.40557
 Zr87 Zr 0.87154 0.63392 0.34205
 O88 O 0.89284 0.61322 0.36147
 Zr89 Zr 0.82878 0.62780 0.37793
 O90 O 0.84807 0.60645 0.39886
 Zr91 Zr 0.90888 0.63260 0.38633
 O92 O 0.89004 0.65412 0.36486
 Zr93 Zr 0.86626 0.62607 0.42212
 O94 O 0.84494 0.64738 0.40277
 Zr95 Zr 0.87302 0.59009 0.37961
 O96 O 0.85178 0.60921 0.35819
 O97 O 0.84730 0.65165 0.36013
 O98 O 0.89058 0.60830 0.40395
 C99 C 0.81272 0.67787 0.38155
 C100 C 0.87008 0.68576 0.33393
 C101 C 0.82175 0.62875 0.32580
 C102 C 0.92515 0.58287 0.38332
 C103 C 0.91629 0.62791 0.43810
 C104 C 0.87059 0.57401 0.42962
 H105 H 0.89335 0.66100 0.41632
 H106 H 0.83799 0.59556 0.40648
 H107 H 0.83777 0.66118 0.35026
 H108 H 0.90394 0.60572 0.35151
 H109 H 0.93081 0.64991 0.35280
 H110 H 0.91140 0.63288 0.32436
 H111 H 0.82946 0.61028 0.44004
 H112 H 0.80595 0.63331 0.41458
 H113 H 0.92617 0.67250 0.38541
 H114 H 0.89894 0.69695 0.37788
 H115 H 0.83782 0.56457 0.38500
 H116 H 0.81366 0.58922 0.36482
 H117 H 0.85037 0.68546 0.42224
 H118 H 0.87124 0.66178 0.44694
 H119 H 0.86565 0.59694 0.31960
 H120 H 0.88892 0.57197 0.34296
 O121 O 0.37090 0.16420 0.32396
 O122 O 0.39700 0.13473 0.31674
 O123 O 0.31173 0.12667 0.34450
 O124 O 0.30249 0.10263 0.37195
 O125 O 0.33346 0.18569 0.38156
 O126 O 0.36208 0.19189 0.40914
 O127 O 0.37009 0.06838 0.40678
 O128 O 0.34584 0.06336 0.37501
 O129 O 0.42756 0.10103 0.38263
 O130 O 0.43452 0.13498 0.36000
 O131 O 0.39492 0.12546 0.44018
 O132 O 0.36091 0.14830 0.44682
 O133 O 0.36713 0.09319 0.43579
 O134 O 0.33809 0.12339 0.44270
 O135 O 0.42360 0.12862 0.41495
 O136 O 0.43104 0.15750 0.38522
 O137 O 0.40230 0.07240 0.37929
 O138 O 0.37702 0.06582 0.35108
 O139 O 0.36764 0.18948 0.35262
 O140 O 0.38937 0.19462 0.38664
 O141 O 0.30793 0.15733 0.37774
 O142 O 0.30281 0.12357 0.40175
 O143 O 0.34050 0.13141 0.31957
 O144 O 0.37490 0.10879 0.31335
 Zr145 Zr 0.36973 0.13243 0.33967
 O146 O 0.39059 0.11124 0.35898
 Zr147 Zr 0.32758 0.12763 0.37628
 O148 O 0.34662 0.10585 0.39713
 Zr149 Zr 0.36486 0.16916 0.38176
 O150 O 0.38535 0.14943 0.40309
 Zr151 Zr 0.37084 0.08871 0.37780
 O152 O 0.34976 0.10806 0.35627
 Zr153 Zr 0.40779 0.13042 0.38331
 O154 O 0.38903 0.15210 0.36208
 Zr155 Zr 0.36566 0.12516 0.42000
 O156 O 0.34465 0.14692 0.40076
 O157 O 0.34642 0.15099 0.35813
 O158 O 0.38929 0.10676 0.40162
 C159 C 0.37015 0.18448 0.33162
 C160 C 0.31952 0.12856 0.32431
 C161 C 0.31313 0.17832 0.37990
 C162 C 0.36894 0.07297 0.42797
 C163 C 0.42254 0.08000 0.38108
 C164 C 0.41599 0.12669 0.43516
 H165 H 0.40098 0.10301 0.34882
 H166 H 0.39338 0.15941 0.41377
 H167 H 0.33702 0.16077 0.34836
 H168 H 0.33651 0.09508 0.40489
 H169 H 0.33603 0.06765 0.36218
 H170 H 0.30843 0.08852 0.37858
 H171 H 0.42696 0.16685 0.39844
 H172 H 0.40223 0.19083 0.37665
 H173 H 0.36759 0.07077 0.33827
 H174 H 0.36204 0.09814 0.31354
 H175 H 0.37187 0.16072 0.44479
 H176 H 0.35145 0.18495 0.42001
 H177 H 0.40832 0.14477 0.32382
 H178 H 0.43254 0.12384 0.34772
 H179 H 0.30591 0.13509 0.41345
 H180 H 0.32882 0.11016 0.43851
 O181 O 0.12391 0.35388 0.31086
 O182 O 0.09831 0.38427 0.30426
 O183 O 0.18171 0.38769 0.33824
 O184 O 0.18837 0.41119 0.36734
 O185 O 0.15675 0.32753 0.36981
 O186 O 0.12581 0.31945 0.39398
 O187 O 0.11970 0.44290 0.40077
 O188 O 0.14561 0.45013 0.37064
 O189 O 0.06337 0.41279 0.37006
 O190 O 0.05808 0.38086 0.34407
 O191 O 0.09124 0.38426 0.42749
 O192 O 0.12462 0.35971 0.43465
 O193 O 0.12054 0.41585 0.42791
 O194 O 0.14761 0.38467 0.43475
 O195 O 0.06466 0.38277 0.39994
 O196 O 0.05935 0.35648 0.36769
 O197 O 0.08881 0.44140 0.37165
 O198 O 0.11565 0.45003 0.34528
 O199 O 0.12498 0.32637 0.33758
 O200 O 0.10056 0.31882 0.36930
 O201 O 0.18263 0.35583 0.37013
 O202 O 0.18652 0.38796 0.39584
 O203 O 0.15458 0.38619 0.31120
 O204 O 0.12132 0.40982 0.30416
 Zr205 Zr 0.12401 0.38428 0.32902
 O206 O 0.10190 0.40421 0.34831
 Zr207 Zr 0.16337 0.38575 0.36871
 O208 O 0.14294 0.40599 0.38982
 Zr209 Zr 0.12552 0.34431 0.36838
 O210 O 0.10358 0.36258 0.38959
 Zr211 Zr 0.12029 0.42494 0.37027
 O212 O 0.14281 0.40708 0.34880
 Zr213 Zr 0.08288 0.38330 0.36967
 O214 O 0.10303 0.36308 0.34831
 Zr215 Zr 0.12211 0.38521 0.40973
 O216 O 0.14441 0.36486 0.39039
 O217 O 0.14575 0.36401 0.34763
 O218 O 0.10006 0.40524 0.39116
 C219 C 0.12411 0.33306 0.31692
 C220 C 0.17527 0.38756 0.31749
 C221 C 0.17717 0.33481 0.37064
 C222 C 0.11974 0.43660 0.42153
 C223 C 0.06848 0.43381 0.37125
 C224 C 0.07062 0.38345 0.42075
 H225 H 0.09233 0.41337 0.33815
 H226 H 0.09467 0.35192 0.39883
 H227 H 0.15581 0.35474 0.33803
 H228 H 0.15261 0.41593 0.39909
 H229 H 0.15595 0.44681 0.35793
 H230 H 0.18219 0.42456 0.37519
 H231 H 0.06247 0.34595 0.38027
 H232 H 0.08859 0.32350 0.35862
 H233 H 0.12514 0.44563 0.33231
 H234 H 0.13411 0.42035 0.30635
 H235 H 0.11276 0.34837 0.43161
 H236 H 0.13510 0.32561 0.40643
 H237 H 0.08667 0.37349 0.30950
 H238 H 0.06080 0.39317 0.33311
 H239 H 0.18227 0.37609 0.40681
 H240 H 0.15799 0.39738 0.43170
 O241 O 0.62061 0.84891 0.30926
 O242 O 0.59456 0.87845 0.30193
 O243 O 0.67753 0.88445 0.33647
 O244 O 0.68424 0.90750 0.36555
 O245 O 0.65321 0.82384 0.36885
 O246 O 0.62221 0.81584 0.39291
 O247 O 0.61489 0.93964 0.39720
 O248 O 0.64067 0.94644 0.36724
 O249 O 0.55884 0.90820 0.36737
 O250 O 0.55396 0.87572 0.34191
 O251 O 0.58694 0.88117 0.42531
 O252 O 0.62005 0.85751 0.43347
 O253 O 0.61602 0.91321 0.42494
 O254 O 0.64356 0.88189 0.43233
 O255 O 0.56039 0.87863 0.39781
 O256 O 0.55550 0.85172 0.36597
 O257 O 0.58410 0.93699 0.36841
 O258 O 0.61080 0.94520 0.34155
 O259 O 0.62184 0.82179 0.33636
 O260 O 0.59697 0.81468 0.36809
 O261 O 0.67872 0.85247 0.36863
 O262 O 0.68197 0.88508 0.39415
 O263 O 0.65066 0.88189 0.30926
 O264 O 0.61667 0.90465 0.30168
 Zr265 Zr 0.62000 0.87956 0.32692
 O266 O 0.59754 0.89954 0.34575
 Zr267 Zr 0.65915 0.88216 0.36681
 O268 O 0.63845 0.90264 0.38734
 Zr269 Zr 0.62180 0.84028 0.36692
 O270 O 0.59964 0.85876 0.38780
 Zr271 Zr 0.61569 0.92090 0.36726
 O272 O 0.63851 0.90289 0.34634
 Zr273 Zr 0.57869 0.87887 0.36750
 O274 O 0.59915 0.85850 0.34652
 Zr275 Zr 0.61780 0.88204 0.40757
 O276 O 0.64031 0.86144 0.38872
 O277 O 0.64193 0.85989 0.34596
 O278 O 0.59560 0.90144 0.38854
 C279 C 0.62113 0.82818 0.31558
 C280 C 0.67125 0.88401 0.31570
 C281 C 0.67353 0.83139 0.36956
 C282 C 0.61505 0.93382 0.41807
 C283 C 0.56383 0.92926 0.36823
 C284 C 0.56634 0.87990 0.41861
 H285 H 0.58788 0.90838 0.33539
 H286 H 0.59083 0.84820 0.39724
 H287 H 0.65221 0.85067 0.33653
 H288 H 0.64801 0.91288 0.39641
 H289 H 0.65120 0.94292 0.35474
 H290 H 0.67761 0.92127 0.37226
 H291 H 0.55881 0.84141 0.37868
 H292 H 0.58519 0.81896 0.35705
 H293 H 0.62099 0.94104 0.32903
 H294 H 0.62942 0.91530 0.30341
 H295 H 0.60914 0.84537 0.42995
 H296 H 0.63122 0.82237 0.40537
 H297 H 0.58287 0.86789 0.30752
 H298 H 0.55664 0.88779 0.33069
 H299 H 0.67809 0.87301 0.40504
 H300 H 0.65338 0.89509 0.42954
 O301 O 0.62228 0.65132 0.18389
 O302 O 0.59678 0.62000 0.18660
 O303 O 0.68308 0.62035 0.16022
 O304 O 0.69346 0.59868 0.13095
 O305 O 0.65895 0.68118 0.12861
 O306 O 0.62899 0.68867 0.10205
 O307 O 0.62944 0.56600 0.09033
 O308 O 0.65396 0.55892 0.12208
 O309 O 0.56973 0.59104 0.11736
 O310 O 0.56081 0.62255 0.14425
 O311 O 0.60115 0.62462 0.06360
 O312 O 0.63379 0.65088 0.06072
 O313 O 0.63114 0.59438 0.06469
 O314 O 0.65758 0.62666 0.06127
 O315 O 0.57193 0.62287 0.08836
 O316 O 0.56174 0.64687 0.12046
 O317 O 0.59728 0.56437 0.11731
 O318 O 0.62209 0.55608 0.14500
 O319 O 0.62476 0.67974 0.15823
 O320 O 0.60246 0.68785 0.12555
 O321 O 0.68558 0.65361 0.13010
 O322 O 0.69330 0.62347 0.10353
 O323 O 0.65374 0.61988 0.18494
 O324 O 0.62067 0.59515 0.18817
 Zr325 Zr 0.62480 0.62163 0.16453
 O326 O 0.60569 0.60133 0.14254
 Zr327 Zr 0.66760 0.62319 0.12841
 O328 O 0.65026 0.60325 0.10466
 Zr329 Zr 0.62816 0.66312 0.12696
 O330 O 0.60877 0.64474 0.10341
 Zr331 Zr 0.62715 0.58254 0.12156
 O332 O 0.64644 0.60042 0.14577
 Zr333 Zr 0.58736 0.62196 0.12031
 O334 O 0.60466 0.64250 0.14399
 Zr335 Zr 0.63017 0.62408 0.08409
 O336 O 0.64983 0.64434 0.10601
 O337 O 0.64728 0.64337 0.14864
 O338 O 0.60771 0.60203 0.09972
 C339 C 0.62261 0.67235 0.17855
 C340 C 0.67492 0.61938 0.18033
 C341 C 0.67961 0.67445 0.12959
 C342 C 0.63050 0.57332 0.06992
 C343 C 0.57652 0.57042 0.11622
 C344 C 0.57996 0.62378 0.06821
 H345 H 0.59584 0.59126 0.15151
 H346 H 0.60017 0.65536 0.09384
 H347 H 0.65616 0.65254 0.15941
 H348 H 0.66112 0.59418 0.09579
 H349 H 0.66288 0.56202 0.13586
 H350 H 0.68920 0.58588 0.12113
 H351 H 0.56651 0.65911 0.11016
 H352 H 0.58956 0.68175 0.13426
 H353 H 0.63024 0.56039 0.15888
 H354 H 0.63385 0.58500 0.18669
 H355 H 0.62108 0.66146 0.06305
 H356 H 0.64041 0.68395 0.09078
 H357 H 0.58549 0.63088 0.18082
 H358 H 0.56279 0.60943 0.15440
 H359 H 0.68921 0.63529 0.09245
 H360 H 0.66816 0.61417 0.06455
 O361 O 0.37320 0.83686 0.67940
 O362 O 0.39686 0.86750 0.68991
 O363 O 0.31522 0.87167 0.65208
 O364 O 0.30802 0.89513 0.62363
 O365 O 0.34499 0.81419 0.61721
 O366 O 0.37682 0.80968 0.59380
 O367 O 0.37670 0.93363 0.59747
 O368 O 0.34983 0.93712 0.62703
 O369 O 0.43358 0.90309 0.62830
 O370 O 0.43994 0.87004 0.65071
 O371 O 0.40906 0.87850 0.56711
 O372 O 0.37746 0.85377 0.55624
 O373 O 0.37818 0.90894 0.56820
 O374 O 0.35299 0.87706 0.55772
 O375 O 0.43485 0.87588 0.59531
 O376 O 0.43946 0.84664 0.62604
 O377 O 0.40703 0.93074 0.62750
 O378 O 0.37871 0.93582 0.65361
 O379 O 0.37497 0.81197 0.65026
 O380 O 0.40140 0.80858 0.61919
 O381 O 0.31739 0.84079 0.61878
 O382 O 0.31325 0.87484 0.59429
 O383 O 0.34089 0.86843 0.68035
 O384 O 0.37336 0.89239 0.69073
 Zr385 Zr 0.37249 0.86881 0.66388
 O386 O 0.39452 0.89114 0.64719
 Zr387 Zr 0.33492 0.87171 0.62252
 O388 O 0.35514 0.89477 0.60431
 Zr389 Zr 0.37491 0.83244 0.62122
 O390 O 0.39656 0.85336 0.60243
 Zr391 Zr 0.37616 0.91298 0.62628
 O392 O 0.35355 0.89231 0.64502
 Zr393 Zr 0.41543 0.87309 0.62491
 O394 O 0.39545 0.85042 0.64384
 Zr395 Zr 0.37763 0.87678 0.58359
 O396 O 0.35579 0.85368 0.60009
 O397 O 0.35271 0.84923 0.64264
 O398 O 0.39809 0.89608 0.60462
 C399 C 0.37446 0.81671 0.67144
 C400 C 0.32051 0.87024 0.67308
 C401 C 0.32421 0.82021 0.61680
 C402 C 0.37754 0.92910 0.57627
 C403 C 0.42763 0.92388 0.62850
 C404 C 0.42948 0.87785 0.57440
 H405 H 0.40327 0.89976 0.65850
 H406 H 0.40628 0.84392 0.59270
 H407 H 0.34269 0.83890 0.65115
 H408 H 0.34530 0.90503 0.59557
 H409 H 0.33901 0.93212 0.63875
 H410 H 0.31437 0.90996 0.61938
 H411 H 0.43826 0.83795 0.61183
 H412 H 0.41225 0.81242 0.63130
 H413 H 0.36855 0.93014 0.66554
 H414 H 0.36013 0.90245 0.68905
 H415 H 0.38913 0.84221 0.55921
 H416 H 0.36782 0.81641 0.58143
 H417 H 0.40933 0.85791 0.68427
 H418 H 0.43502 0.87959 0.66349
 H419 H 0.31790 0.86316 0.58326
 H420 H 0.34190 0.88899 0.56139
 O421 O 0.87425 0.33420 0.67824
 O422 O 0.89779 0.36450 0.68951
 O423 O 0.81684 0.36973 0.65037
 O424 O 0.80995 0.39295 0.62173
 O425 O 0.84685 0.31209 0.61572
 O426 O 0.87905 0.30794 0.59237
 O427 O 0.87933 0.43174 0.59758
 O428 O 0.85192 0.43502 0.62652
 O429 O 0.93559 0.40094 0.62860
 O430 O 0.94129 0.36741 0.65127
 O431 O 0.91196 0.37702 0.56716
 O432 O 0.88081 0.35251 0.55530
 O433 O 0.88101 0.40735 0.56806
 O434 O 0.85595 0.37542 0.55690
 O435 O 0.93732 0.37392 0.59570
 O436 O 0.94159 0.34458 0.62607
 O437 O 0.90902 0.42856 0.62804
 O438 O 0.88021 0.43322 0.65382
 O439 O 0.87650 0.30955 0.64893
 O440 O 0.90323 0.30633 0.61822
 O441 O 0.81930 0.33874 0.61727
 O442 O 0.81587 0.37291 0.59249
 O443 O 0.84204 0.36605 0.67901
 O444 O 0.87458 0.38952 0.69024
 Zr445 Zr 0.87389 0.36629 0.66308
 O446 O 0.89623 0.38877 0.64705
 Zr447 Zr 0.83695 0.36962 0.62115
 O448 O 0.85749 0.39286 0.60359
 Zr449 Zr 0.87682 0.33029 0.62011
 O450 O 0.89885 0.35139 0.60196
 Zr451 Zr 0.87818 0.41080 0.62610
 O452 O 0.85523 0.38997 0.64417
 Zr453 Zr 0.91743 0.37091 0.62492
 O454 O 0.89708 0.34804 0.64320
 Zr455 Zr 0.88027 0.37502 0.58306
 O456 O 0.85810 0.35176 0.59888
 O457 O 0.85437 0.34695 0.64137
 O458 O 0.90040 0.39410 0.60461
 C459 C 0.87563 0.31412 0.67013
 C460 C 0.82182 0.36817 0.67142
 C461 C 0.82606 0.31814 0.61529
 C462 C 0.88039 0.42742 0.57636
 C463 C 0.92964 0.42175 0.62902
 C464 C 0.93226 0.37625 0.57476
 H465 H 0.90480 0.39727 0.65857
 H466 H 0.90873 0.34205 0.59229
 H467 H 0.84421 0.33663 0.64971
 H468 H 0.84781 0.40322 0.59479
 H469 H 0.84077 0.42987 0.63786
 H470 H 0.81642 0.40788 0.61806
 H471 H 0.94032 0.33577 0.61193
 H472 H 0.91405 0.31017 0.63035
 H473 H 0.86943 0.42768 0.66527
 H474 H 0.86146 0.39971 0.68853
 H475 H 0.89201 0.34058 0.55863
 H476 H 0.86996 0.31472 0.58009
 H477 H 0.91046 0.35519 0.68384
 H478 H 0.93659 0.37747 0.66375
 H479 H 0.82044 0.36101 0.58168
 H480 H 0.84490 0.38745 0.56040
 O481 O 0.82089 0.87889 0.16068
 O482 O 0.81450 0.90450 0.13016
 O483 O 0.84095 0.81852 0.12577
 O484 O 0.86819 0.80843 0.10154
 O485 O 0.87792 0.84166 0.18393
 O486 O 0.90567 0.87049 0.18941
 O487 O 0.90498 0.87369 0.06592
 O488 O 0.87255 0.84992 0.06136
 O489 O 0.88106 0.93285 0.09611
 O490 O 0.85798 0.94129 0.12952
 O491 O 0.93776 0.90039 0.12245
 O492 O 0.94337 0.86708 0.14704
 O493 O 0.93334 0.87118 0.09149
 O494 O 0.93981 0.84374 0.12267
 O495 O 0.91292 0.92953 0.12416
 O496 O 0.88284 0.93834 0.15250
 O497 O 0.87823 0.90660 0.06833
 O498 O 0.84961 0.88185 0.06212
 O499 O 0.84926 0.87595 0.18632
 O500 O 0.88298 0.89779 0.19123
 O501 O 0.87417 0.81536 0.15626
 O502 O 0.89782 0.80854 0.12292
 O503 O 0.81624 0.84770 0.12880
 O504 O 0.81076 0.88129 0.10506
 Zr505 Zr 0.83685 0.87669 0.12904
 O506 O 0.85675 0.89655 0.10734
 Zr507 Zr 0.87292 0.83400 0.12600
 O508 O 0.89441 0.85201 0.10403
 Zr509 Zr 0.87847 0.87254 0.16642
 O510 O 0.90024 0.89222 0.14636
 Zr511 Zr 0.87567 0.87583 0.08576
 O512 O 0.85349 0.85576 0.10549
 Zr513 Zr 0.88102 0.91417 0.12623
 O514 O 0.85931 0.89636 0.14831
 Zr515 Zr 0.91718 0.87140 0.12313
 O516 O 0.89738 0.85129 0.14513
 O517 O 0.85483 0.85381 0.14856
 O518 O 0.89945 0.89457 0.10357
 C519 C 0.82836 0.87841 0.18106
 C520 C 0.82081 0.82655 0.12709
 C521 C 0.87628 0.82114 0.17709
 C522 C 0.92601 0.87225 0.07108
 C523 C 0.88010 0.92707 0.07523
 C524 C 0.93304 0.92158 0.12273
 H525 H 0.84687 0.90676 0.09858
 H526 H 0.91087 0.90049 0.15619
 H527 H 0.84492 0.84479 0.15855
 H528 H 0.90220 0.84138 0.09378
 H529 H 0.85923 0.84079 0.06569
 H530 H 0.87550 0.81367 0.08748
 H531 H 0.89593 0.93449 0.16213
 H532 H 0.87340 0.91070 0.18667
 H533 H 0.83626 0.87348 0.06754
 H534 H 0.81114 0.86823 0.09466
 H535 H 0.94182 0.87909 0.15854
 H536 H 0.91640 0.85933 0.18309
 H537 H 0.82148 0.91582 0.14027
 H538 H 0.84582 0.93902 0.11831
 H539 H 0.90971 0.81199 0.13413
 H540 H 0.93531 0.83364 0.11016
 O541 O 0.38285 0.34095 0.18240
 O542 O 0.40692 0.37301 0.18765
 O543 O 0.32151 0.37120 0.15928
 O544 O 0.30941 0.39161 0.13041
 O545 O 0.35016 0.31263 0.12485
 O546 O 0.38037 0.30854 0.09832
 O547 O 0.37342 0.43202 0.09482
 O548 O 0.34820 0.43588 0.12572
 O549 O 0.43369 0.40811 0.12008
 O550 O 0.44462 0.37616 0.14482
 O551 O 0.40492 0.37624 0.06414
 O552 O 0.37385 0.34985 0.05852
 O553 O 0.37396 0.40565 0.06700
 O554 O 0.34833 0.37214 0.06140
 O555 O 0.43367 0.37742 0.08942
 O556 O 0.44431 0.35228 0.12094
 O557 O 0.40495 0.43333 0.12277
 O558 O 0.37536 0.43766 0.15105
 O559 O 0.38321 0.31431 0.15479
 O560 O 0.40693 0.31003 0.12181
 O561 O 0.32159 0.33807 0.12768
 O562 O 0.31297 0.36944 0.10168
 O563 O 0.35021 0.37148 0.18473
 O564 O 0.38104 0.39721 0.18964
 Zr565 Zr 0.37958 0.37164 0.16478
 O566 O 0.39815 0.39423 0.14462
 Zr567 Zr 0.33757 0.36982 0.12761
 O568 O 0.35418 0.39266 0.10596
 Zr569 Zr 0.37949 0.33270 0.12458
 O570 O 0.39787 0.35366 0.10246
 Zr571 Zr 0.37588 0.41333 0.12475
 O572 O 0.35708 0.39255 0.14682
 Zr573 Zr 0.41779 0.37624 0.12122
 O574 O 0.40136 0.35341 0.14340
 Zr575 Zr 0.37569 0.37456 0.08425
 O576 O 0.35712 0.35143 0.10431
 O577 O 0.35868 0.34977 0.14708
 O578 O 0.39670 0.39658 0.10182
 C579 C 0.38397 0.32035 0.17565
 C580 C 0.32914 0.37181 0.17961
 C581 C 0.32910 0.31775 0.12617
 C582 C 0.37331 0.42621 0.07393
 C583 C 0.42595 0.42840 0.12091
 C584 C 0.42600 0.37716 0.06912
 H585 H 0.40760 0.40386 0.15440
 H586 H 0.40709 0.34410 0.09237
 H587 H 0.35007 0.33966 0.15723
 H588 H 0.34301 0.40181 0.09760
 H589 H 0.33769 0.43014 0.13740
 H590 H 0.31321 0.40570 0.12232
 H591 H 0.44077 0.34090 0.10925
 H592 H 0.41883 0.31568 0.13208
 H593 H 0.38843 0.43491 0.16105
 H594 H 0.36973 0.40872 0.18530
 H595 H 0.38590 0.33866 0.06138
 H596 H 0.36898 0.31336 0.08707
 H597 H 0.41907 0.36360 0.18109
 H598 H 0.44122 0.38761 0.15649
 H599 H 0.31761 0.35773 0.09069
 H600 H 0.33777 0.38468 0.06462
 O601 O 0.38088 0.65545 0.81545
 O602 O 0.40766 0.62625 0.80798
 O603 O 0.32275 0.61817 0.83725
 O604 O 0.31483 0.59285 0.86414
 O605 O 0.34480 0.67637 0.87452
 O606 O 0.37438 0.68316 0.90080
 O607 O 0.38211 0.55969 0.89870
 O608 O 0.35838 0.55441 0.86646
 O609 O 0.43981 0.59288 0.87389
 O610 O 0.44643 0.62618 0.85105
 O611 O 0.40755 0.61706 0.93137
 O612 O 0.37339 0.64006 0.93829
 O613 O 0.37930 0.58488 0.92745
 O614 O 0.35114 0.61483 0.93514
 O615 O 0.43606 0.62103 0.90605
 O616 O 0.44226 0.64978 0.87525
 O617 O 0.41477 0.56397 0.87171
 O618 O 0.38989 0.55697 0.84316
 O619 O 0.37772 0.68053 0.84432
 O620 O 0.40070 0.68609 0.87734
 O621 O 0.31944 0.64781 0.87108
 O622 O 0.31488 0.61365 0.89425
 O623 O 0.35095 0.62252 0.81161
 O624 O 0.38544 0.59988 0.80494
 Zr625 Zr 0.38071 0.62361 0.83124
 O626 O 0.40223 0.60272 0.85039
 Zr627 Zr 0.33935 0.61839 0.86861
 O628 O 0.35895 0.59697 0.88920
 Zr629 Zr 0.37636 0.66029 0.87346
 O630 O 0.39740 0.64094 0.89451
 Zr631 Zr 0.38312 0.57998 0.86962
 O632 O 0.36143 0.59901 0.84830
 Zr633 Zr 0.41972 0.62206 0.87446
 O634 O 0.40031 0.64342 0.85336
 Zr635 Zr 0.37805 0.61666 0.91167
 O636 O 0.35653 0.63800 0.89275
 O637 O 0.35763 0.64195 0.85022
 O638 O 0.40165 0.59835 0.89316
 C639 C 0.37961 0.67567 0.82324
 C640 C 0.33000 0.62013 0.81688
 C641 C 0.32451 0.66878 0.87354
 C642 C 0.38074 0.56464 0.91978
 C643 C 0.43497 0.57177 0.87318
 C644 C 0.42857 0.61893 0.92632
 H645 H 0.41257 0.59450 0.84016
 H646 H 0.40547 0.65107 0.90501
 H647 H 0.34783 0.65169 0.84082
 H648 H 0.34896 0.58620 0.89711
 H649 H 0.34884 0.55850 0.85336
 H650 H 0.32110 0.57885 0.87072
 H651 H 0.43869 0.65890 0.88878
 H652 H 0.41320 0.68249 0.86685
 H653 H 0.38131 0.56232 0.82992
 H654 H 0.37257 0.58924 0.80543
 H655 H 0.38494 0.65200 0.93667
 H656 H 0.36421 0.67619 0.91209
 H657 H 0.41884 0.63659 0.81484
 H658 H 0.44364 0.61579 0.83829
 H659 H 0.31801 0.62499 0.90612
 H660 H 0.34131 0.60211 0.93065
 O661 O 0.12030 0.66103 0.68512
 O662 O 0.09529 0.63047 0.69304
 O663 O 0.17945 0.62698 0.66085
 O664 O 0.18872 0.60429 0.63249
 O665 O 0.15196 0.68529 0.62579
 O666 O 0.12172 0.69046 0.60026
 O667 O 0.12111 0.56659 0.60021
 O668 O 0.14666 0.56210 0.63089
 O669 O 0.06301 0.59614 0.62760
 O670 O 0.05482 0.62815 0.65071
 O671 O 0.09204 0.62283 0.56945
 O672 O 0.12446 0.64784 0.56177
 O673 O 0.12184 0.59236 0.57184
 O674 O 0.14846 0.62398 0.56411
 O675 O 0.06415 0.62451 0.59570
 O676 O 0.05733 0.65282 0.62720
 O677 O 0.08956 0.56854 0.62904
 O678 O 0.11655 0.56290 0.65639
 O679 O 0.12026 0.68668 0.65659
 O680 O 0.09560 0.69095 0.62429
 O681 O 0.17959 0.65875 0.62784
 O682 O 0.18538 0.62510 0.60314
 O683 O 0.15178 0.62911 0.68732
 O684 O 0.11835 0.60510 0.69471
 Zr685 Zr 0.12142 0.62946 0.66874
 O686 O 0.10063 0.60763 0.64992
 Zr687 Zr 0.16189 0.62768 0.62998
 O688 O 0.14299 0.60515 0.60981
 Zr689 Zr 0.12191 0.66699 0.62714
 O690 O 0.10169 0.64670 0.60629
 Zr691 Zr 0.12044 0.58635 0.62972
 O692 O 0.14168 0.60648 0.65054
 Zr693 Zr 0.08129 0.62629 0.62677
 O694 O 0.09984 0.64839 0.64775
 Zr695 Zr 0.12205 0.62391 0.58821
 O696 O 0.14261 0.64646 0.60680
 O697 O 0.14267 0.64955 0.64944
 O698 O 0.10014 0.60397 0.60713
 C699 C 0.11987 0.68142 0.67764
 C700 C 0.17264 0.62765 0.68146
 C701 C 0.17276 0.67937 0.62623
 C702 C 0.12139 0.57194 0.57917
 C703 C 0.06892 0.57534 0.62822
 C704 C 0.07114 0.62319 0.57520
 H705 H 0.09112 0.59871 0.66035
 H706 H 0.09269 0.65646 0.59618
 H707 H 0.15218 0.65956 0.65884
 H708 H 0.15331 0.59507 0.60140
 H709 H 0.15694 0.56673 0.64322
 H710 H 0.18288 0.58965 0.62703
 H711 H 0.05939 0.66185 0.61329
 H712 H 0.08404 0.68680 0.63563
 H713 H 0.12659 0.56794 0.66869
 H714 H 0.13166 0.59506 0.69380
 H715 H 0.11242 0.65918 0.56405
 H716 H 0.13192 0.68432 0.58852
 H717 H 0.08338 0.64041 0.68681
 H718 H 0.05926 0.61885 0.66384
 H719 H 0.18145 0.63697 0.59206
 H720 H 0.15890 0.61151 0.56789
 O721 O 0.11709 0.15672 0.18508
 O722 O 0.09194 0.12540 0.18808
 O723 O 0.17786 0.12636 0.16083
 O724 O 0.18847 0.10534 0.13137
 O725 O 0.15247 0.18707 0.12979
 O726 O 0.12288 0.19486 0.10375
 O727 O 0.12327 0.07198 0.09086
 O728 O 0.14791 0.06440 0.12218
 O729 O 0.06404 0.09747 0.11845
 O730 O 0.05452 0.12787 0.14439
 O731 O 0.09569 0.13046 0.06459
 O732 O 0.12818 0.15683 0.06169
 O733 O 0.12574 0.10047 0.06541
 O734 O 0.15216 0.13277 0.06242
 O735 O 0.06646 0.12865 0.08934
 O736 O 0.05710 0.15375 0.12239
 O737 O 0.09096 0.07018 0.11878
 O738 O 0.11665 0.06192 0.14595
 O739 O 0.11897 0.18523 0.15947
 O740 O 0.09602 0.19305 0.12674
 O741 O 0.17988 0.16024 0.13066
 O742 O 0.18738 0.12949 0.10381
 O743 O 0.14870 0.12548 0.18574
 O744 O 0.11561 0.10021 0.18866
 Zr745 Zr 0.11955 0.12716 0.16552
 O746 O 0.10016 0.10719 0.14348
 Zr747 Zr 0.16213 0.12934 0.12913
 O748 O 0.14462 0.10913 0.10561
 Zr749 Zr 0.12217 0.16880 0.12813
 O750 O 0.10310 0.15063 0.10431
 Zr751 Zr 0.12135 0.08829 0.12233
 O752 O 0.14106 0.10619 0.14634
 Zr753 Zr 0.08184 0.12796 0.12134
 O754 O 0.09907 0.14805 0.14534
 Zr755 Zr 0.12462 0.13000 0.08505
 O756 O 0.14404 0.15043 0.10698
 O757 O 0.14172 0.14916 0.14958
 O758 O 0.10203 0.10799 0.10061
 C759 C 0.11722 0.17778 0.17980
 C760 C 0.16987 0.12516 0.18099
 C761 C 0.17326 0.18095 0.13044
 C762 C 0.12477 0.07940 0.07050
 C763 C 0.07029 0.07672 0.11769
 C764 C 0.07453 0.12949 0.06920
 H765 H 0.09028 0.09718 0.15247
 H766 H 0.09451 0.16127 0.09477
 H767 H 0.15063 0.15833 0.16033
 H768 H 0.15545 0.10005 0.09672
 H769 H 0.15733 0.06759 0.13561
 H770 H 0.18370 0.09198 0.12259
 H771 H 0.06040 0.16456 0.11010
 H772 H 0.08355 0.18716 0.13619
 H773 H 0.12552 0.06598 0.15946
 H774 H 0.12915 0.09049 0.18742
 H775 H 0.11541 0.16735 0.06398
 H776 H 0.13371 0.19003 0.09197
 H777 H 0.08037 0.13597 0.18228
 H778 H 0.05770 0.11625 0.15595
 H779 H 0.18363 0.14189 0.09326
 H780 H 0.16265 0.12015 0.06553
 O781 O 0.68959 0.37594 0.84645
 O782 O 0.69555 0.39843 0.87905
 O783 O 0.66432 0.31417 0.87412
 O784 O 0.63543 0.30272 0.89473
 O785 O 0.63162 0.34529 0.81648
 O786 O 0.60658 0.37596 0.81213
 O787 O 0.60070 0.36773 0.93603
 O788 O 0.63050 0.34198 0.94048
 O789 O 0.62804 0.42743 0.91243
 O790 O 0.65186 0.43876 0.88193
 O791 O 0.57143 0.39974 0.88027
 O792 O 0.56521 0.36925 0.85365
 O793 O 0.57319 0.36882 0.90939
 O794 O 0.56782 0.34314 0.87538
 O795 O 0.59711 0.42810 0.88204
 O796 O 0.62996 0.43745 0.85603
 O797 O 0.62945 0.39867 0.93774
 O798 O 0.65722 0.36780 0.94183
 O799 O 0.66274 0.37691 0.81909
 O800 O 0.63028 0.40226 0.81524
 O801 O 0.63259 0.31605 0.84130
 O802 O 0.60650 0.30762 0.87308
 O803 O 0.69046 0.34220 0.87593
 O804 O 0.69559 0.37251 0.90297
 Zr805 Zr 0.67145 0.37223 0.87668
 O806 O 0.65142 0.39134 0.89890
 Zr807 Zr 0.63325 0.33134 0.87350
 O808 O 0.61192 0.34820 0.89655
 Zr809 Zr 0.63203 0.37405 0.83705
 O810 O 0.60974 0.39234 0.85788
 Zr811 Zr 0.63085 0.36943 0.91765
 O812 O 0.65254 0.34999 0.89695
 Zr813 Zr 0.62868 0.41163 0.88072
 O814 O 0.65114 0.39498 0.85838
 Zr815 Zr 0.59091 0.37026 0.87843
 O816 O 0.61086 0.35183 0.85510
 O817 O 0.65357 0.35227 0.85411
 O818 O 0.60862 0.39082 0.90074
 C819 C 0.68344 0.37737 0.82570
 C820 C 0.68483 0.32124 0.87515
 C821 C 0.63171 0.32414 0.82114
 C822 C 0.57989 0.36808 0.93005
 C823 C 0.62846 0.41975 0.93270
 C824 C 0.57671 0.42070 0.88162
 H825 H 0.66133 0.40054 0.90865
 H826 H 0.59992 0.40184 0.84830
 H827 H 0.66354 0.34357 0.84389
 H828 H 0.60323 0.33714 0.90554
 H829 H 0.64145 0.33077 0.93467
 H830 H 0.62791 0.30669 0.90910
 H831 H 0.61675 0.43561 0.84600
 H832 H 0.64165 0.41325 0.82065
 H833 H 0.66709 0.38110 0.93979
 H834 H 0.69111 0.36051 0.91371
 H835 H 0.56857 0.38115 0.84242
 H836 H 0.59448 0.36550 0.81695
 H837 H 0.68962 0.41115 0.86998
 H838 H 0.66494 0.43377 0.89101
 H839 H 0.59596 0.31235 0.86101
 H840 H 0.56997 0.33300 0.88847
 O841 O 0.13259 0.84051 0.82432
 O842 O 0.10701 0.87096 0.81738
 O843 O 0.19035 0.87661 0.85063
 O844 O 0.19760 0.89974 0.87934
 O845 O 0.16673 0.81607 0.88292
 O846 O 0.13635 0.80822 0.90833
 O847 O 0.12770 0.93135 0.91310
 O848 O 0.15366 0.93874 0.88310
 O849 O 0.07208 0.90012 0.88315
 O850 O 0.06640 0.86753 0.85884
 O851 O 0.10199 0.87226 0.94103
 O852 O 0.13574 0.84883 0.94788
 O853 O 0.12989 0.90430 0.94016
 O854 O 0.15808 0.87425 0.94709
 O855 O 0.07443 0.87079 0.91449
 O856 O 0.06921 0.84334 0.88232
 O857 O 0.09717 0.92907 0.88276
 O858 O 0.12738 0.93787 0.85686
 O859 O 0.13448 0.81399 0.85199
 O860 O 0.11090 0.80649 0.88387
 O861 O 0.19230 0.84465 0.88229
 O862 O 0.19581 0.87693 0.90832
 O863 O 0.16342 0.87360 0.82350
 O864 O 0.13076 0.89718 0.81723
 Zr865 Zr 0.13289 0.87150 0.84192
 O866 O 0.11055 0.89135 0.86129
 Zr867 Zr 0.17261 0.87430 0.88125
 O868 O 0.15220 0.89472 0.90211
 Zr869 Zr 0.13531 0.83246 0.88215
 O870 O 0.11339 0.85066 0.90332
 Zr871 Zr 0.12894 0.91300 0.88258
 O872 O 0.15144 0.89488 0.86131
 Zr873 Zr 0.09202 0.87082 0.88352
 O874 O 0.11229 0.85060 0.86209
 Zr875 Zr 0.13214 0.87376 0.92252
 O876 O 0.15442 0.85340 0.90345
 O877 O 0.15506 0.85197 0.86072
 O878 O 0.10936 0.89334 0.90421
 C879 C 0.13310 0.81988 0.83118
 C880 C 0.18410 0.87574 0.82987
 C881 C 0.18708 0.82357 0.88296
 C882 C 0.12818 0.92495 0.93386
 C883 C 0.07692 0.92125 0.88288
 C884 C 0.08118 0.87140 0.93511
 H885 H 0.10049 0.89979 0.85102
 H886 H 0.10485 0.84002 0.91291
 H887 H 0.16505 0.84274 0.85101
 H888 H 0.16178 0.90499 0.91111
 H889 H 0.16524 0.93455 0.87178
 H890 H 0.19188 0.91295 0.88779
 H891 H 0.07200 0.83370 0.89567
 H892 H 0.09842 0.81103 0.87374
 H893 H 0.11697 0.93246 0.84501
 H894 H 0.14091 0.90946 0.82224
 H895 H 0.12440 0.83693 0.94501
 H896 H 0.14660 0.81429 0.92004
 H897 H 0.09537 0.86038 0.82303
 H898 H 0.06940 0.87877 0.84686
 H899 H 0.19221 0.86465 0.91907
 H900 H 0.16801 0.88727 0.94381
 O901 O 0.68039 0.12375 0.65739
 O902 O 0.68838 0.10027 0.62631
 O903 O 0.65346 0.18324 0.62507
 O904 O 0.62484 0.19219 0.60299
 O905 O 0.62062 0.15446 0.68352
 O906 O 0.59640 0.12356 0.68933
 O907 O 0.59340 0.12438 0.56515
 O908 O 0.62360 0.15034 0.56006
 O909 O 0.62229 0.06642 0.59332
 O910 O 0.64541 0.05787 0.62455
 O911 O 0.56396 0.09480 0.62132
 O912 O 0.55608 0.12596 0.64670
 O913 O 0.56549 0.12470 0.59143
 O914 O 0.55860 0.15128 0.62403
 O915 O 0.59036 0.06702 0.62238
 O916 O 0.62304 0.06054 0.65028
 O917 O 0.62246 0.09327 0.56597
 O918 O 0.64957 0.12056 0.56022
 O919 O 0.65246 0.12296 0.68369
 O920 O 0.62041 0.09781 0.68845
 O921 O 0.62180 0.18230 0.65716
 O922 O 0.59593 0.18775 0.62408
 O923 O 0.68100 0.15658 0.62617
 O924 O 0.68816 0.12336 0.60085
 Zr925 Zr 0.66315 0.12551 0.62633
 O926 O 0.64415 0.10434 0.60490
 Zr927 Zr 0.62338 0.16493 0.62596
 O928 O 0.60329 0.14602 0.60352
 Zr929 Zr 0.62239 0.12456 0.66488
 O930 O 0.60128 0.10434 0.64481
 Zr931 Zr 0.62327 0.12396 0.58417
 O932 O 0.64397 0.14556 0.60403
 Zr933 Zr 0.62153 0.08441 0.62371
 O934 O 0.64290 0.10317 0.64537
 Zr935 Zr 0.58248 0.12471 0.62263
 O936 O 0.60112 0.14512 0.64518
 O937 O 0.64383 0.14597 0.64719
 O938 O 0.60126 0.10324 0.60204
 C939 C 0.67339 0.12263 0.67793
 C940 C 0.67425 0.17726 0.62536
 C941 C 0.62056 0.17532 0.67773
 C942 C 0.57249 0.12447 0.57089
 C943 C 0.62229 0.07254 0.57254
 C944 C 0.56979 0.07398 0.62135
 H945 H 0.65452 0.09503 0.59569
 H946 H 0.59149 0.09510 0.65467
 H947 H 0.65326 0.15547 0.65720
 H948 H 0.59457 0.15634 0.59372
 H949 H 0.63583 0.16080 0.56452
 H950 H 0.61990 0.18627 0.58819
 H951 H 0.60887 0.06169 0.65906
 H952 H 0.63199 0.08660 0.68401
 H953 H 0.66175 0.13087 0.56500
 H954 H 0.68723 0.13728 0.59167
 H955 H 0.55937 0.11457 0.65845
 H956 H 0.58402 0.13312 0.68345
 H957 H 0.68239 0.08761 0.63545
 H958 H 0.65881 0.06301 0.61602
 H959 H 0.58561 0.18406 0.63670
 H960 H 0.56108 0.16115 0.61078
 C961 C 0.37672 0.75742 0.69548
 C962 C 0.37668 0.76127 0.71910
 C963 C 0.37572 0.78398 0.72660
 C964 C 0.37492 0.80185 0.71105
 C965 C 0.37508 0.79772 0.68775
 C966 C 0.37594 0.77533 0.68018
 C967 C 0.37560 0.78887 0.74960
 C968 C 0.37645 0.77174 0.76552
 C969 C 0.37747 0.74880 0.75908
 C970 C 0.37757 0.74347 0.73547
 C971 C 0.37857 0.72053 0.72904
 C972 C 0.37937 0.70339 0.74497
 C973 C 0.37925 0.70828 0.76797
 C974 C 0.37834 0.73101 0.77545
 C975 C 0.37828 0.73489 0.79906
 C976 C 0.37889 0.71700 0.81438
 C977 C 0.37965 0.69460 0.80685
 C978 C 0.37993 0.69043 0.78355
 H979 H 0.37737 0.74082 0.68815
 H980 H 0.37424 0.81907 0.71722
 H981 H 0.37605 0.77154 0.66229
 H982 H 0.37485 0.80621 0.75541
 H983 H 0.37626 0.77717 0.78285
 H984 H 0.37873 0.71510 0.71170
 H985 H 0.38008 0.68605 0.73917
 H986 H 0.37769 0.75150 0.80639
 H987 H 0.37867 0.72083 0.83226
 H988 H 0.38047 0.67318 0.77743
 C989 C 0.37169 0.24322 0.30585
 C990 C 0.37606 0.23871 0.28273
 C991 C 0.37842 0.21580 0.27623
 C992 C 0.37645 0.19840 0.29219
 C993 C 0.37211 0.20315 0.31499
 C994 C 0.36979 0.22573 0.32161
 C995 C 0.38274 0.21022 0.25380
 C996 C 0.38463 0.22683 0.23743
 C997 C 0.38227 0.24993 0.24282
 C998 C 0.37805 0.25600 0.26588
 C999 C 0.37587 0.27913 0.27126
 C1000 C 0.37738 0.29572 0.25478
 C1001 C 0.38114 0.29008 0.23224
 C1002 C 0.38379 0.26716 0.22587
 C1003 C 0.38759 0.26248 0.20271
 C1004 C 0.38814 0.27974 0.18668
 C1005 C 0.38509 0.30231 0.19302
 C1006 C 0.38191 0.30734 0.21595
 H1007 H 0.36959 0.26003 0.31241
 H1008 H 0.37836 0.18104 0.28674
 H1009 H 0.36641 0.22998 0.33908
 H1010 H 0.38462 0.19272 0.24877
 H1011 H 0.38793 0.22085 0.22060
 H1012 H 0.37287 0.28508 0.28817
 H1013 H 0.37541 0.31323 0.25975
 H1014 H 0.38996 0.24568 0.19623
 H1015 H 0.39072 0.27527 0.16913
 H1016 H 0.37945 0.32472 0.22116
 C1017 C 0.62234 0.80180 0.25738
 C1018 C 0.62150 0.77837 0.26193
 C1019 C 0.62052 0.77156 0.28489
 C1020 C 0.62049 0.78770 0.30237
 C1021 C 0.62131 0.81085 0.29746
 C1022 C 0.62224 0.81760 0.27478
 C1023 C 0.61953 0.74869 0.29032
 C1024 C 0.61944 0.73231 0.27353
 C1025 C 0.62040 0.73813 0.25041
 C1026 C 0.62156 0.76156 0.24452
 C1027 C 0.62283 0.76741 0.22143
 C1028 C 0.62298 0.75111 0.20466
 C1029 C 0.62180 0.72827 0.21005
 C1030 C 0.62039 0.72134 0.23294
 C1031 C 0.61908 0.69786 0.23727
 C1032 C 0.61951 0.68214 0.21968
 C1033 C 0.62120 0.68914 0.19713
 C1034 C 0.62219 0.71232 0.19251
 H1035 H 0.62303 0.80866 0.24058
 H1036 H 0.61973 0.78219 0.31981
 H1037 H 0.62293 0.83531 0.27030
 H1038 H 0.61880 0.74335 0.30782
 H1039 H 0.61869 0.71512 0.27935
 H1040 H 0.62387 0.78456 0.21556
 H1041 H 0.62407 0.75649 0.18719
 H1042 H 0.61776 0.69096 0.25403
 H1043 H 0.61868 0.66436 0.22386
 H1044 H 0.62347 0.71806 0.17517
 C1045 C 0.12387 0.30690 0.25862
 C1046 C 0.12160 0.28355 0.26315
 C1047 C 0.12048 0.27676 0.28610
 C1048 C 0.12149 0.29282 0.30357
 C1049 C 0.12353 0.31589 0.29870
 C1050 C 0.12478 0.32265 0.27605
 C1051 C 0.11829 0.25398 0.29153
 C1052 C 0.11716 0.23766 0.27475
 C1053 C 0.11818 0.24346 0.25163
 C1054 C 0.12043 0.26681 0.24573
 C1055 C 0.12144 0.27265 0.22263
 C1056 C 0.12051 0.25638 0.20586
 C1057 C 0.11847 0.23361 0.21127
 C1058 C 0.11715 0.22671 0.23417
 C1059 C 0.11499 0.20328 0.23852
 C1060 C 0.11461 0.18758 0.22093
 C1061 C 0.11627 0.19455 0.19838
 C1062 C 0.11798 0.21768 0.19374
 H1063 H 0.12498 0.31374 0.24183
 H1064 H 0.12049 0.28731 0.32100
 H1065 H 0.12647 0.34032 0.27164
 H1066 H 0.11743 0.24867 0.30903
 H1067 H 0.11552 0.22053 0.28057
 H1068 H 0.12303 0.28975 0.21675
 H1069 H 0.12148 0.26173 0.18837
 H1070 H 0.11371 0.19642 0.25530
 H1071 H 0.11324 0.16983 0.22511
 H1072 H 0.11928 0.22339 0.17639
 C1073 C 0.11931 0.74031 0.70266
 C1074 C 0.12216 0.73615 0.72604
 C1075 C 0.12361 0.71331 0.73311
 C1076 C 0.12235 0.69564 0.71738
 C1077 C 0.11984 0.70009 0.69429
 C1078 C 0.11823 0.72259 0.68716
 C1079 C 0.12653 0.70812 0.75584
 C1080 C 0.12830 0.72505 0.77187
 C1081 C 0.12718 0.74810 0.76583
 C1082 C 0.12379 0.75376 0.74256
 C1083 C 0.12213 0.77680 0.73662
 C1084 C 0.12377 0.79373 0.75273
 C1085 C 0.12728 0.78853 0.77540
 C1086 C 0.12919 0.76567 0.78231
 C1087 C 0.13309 0.76141 0.80549
 C1088 C 0.13451 0.77899 0.82103
 C1089 C 0.13222 0.80152 0.81419
 C1090 C 0.12878 0.80615 0.79124
 H1091 H 0.11810 0.75702 0.69564
 H1092 H 0.12372 0.67833 0.72318
 H1093 H 0.11630 0.72663 0.66942
 H1094 H 0.12756 0.69069 0.76134
 H1095 H 0.13042 0.71936 0.78899
 H1096 H 0.11940 0.78245 0.71957
 H1097 H 0.12230 0.81116 0.74734
 H1098 H 0.13520 0.74471 0.81232
 H1099 H 0.13741 0.77478 0.83859
 H1100 H 0.12706 0.82350 0.78566
 C1101 C 0.87718 0.23197 0.79735
 C1102 C 0.87759 0.22812 0.77375
 C1103 C 0.87856 0.20540 0.76624
 C1104 C 0.87897 0.18752 0.78179
 C1105 C 0.87836 0.19169 0.80508
 C1106 C 0.87753 0.21408 0.81263
 C1107 C 0.87903 0.20056 0.74323
 C1108 C 0.87853 0.21773 0.72733
 C1109 C 0.87750 0.24065 0.73381
 C1110 C 0.87701 0.24593 0.75742
 C1111 C 0.87592 0.26884 0.76393
 C1112 C 0.87538 0.28601 0.74806
 C1113 C 0.87589 0.28118 0.72506
 C1114 C 0.87694 0.25850 0.71750
 C1115 C 0.87740 0.25473 0.69387
 C1116 C 0.87692 0.27270 0.67863
 C1117 C 0.87596 0.29504 0.68629
 C1118 C 0.87540 0.29909 0.70959
 H1119 H 0.87654 0.24856 0.80471
 H1120 H 0.87957 0.17028 0.77567
 H1121 H 0.87708 0.21791 0.83051
 H1122 H 0.87977 0.18322 0.73741
 H1123 H 0.87894 0.21235 0.70998
 H1124 H 0.87544 0.27425 0.78126
 H1125 H 0.87455 0.30334 0.75391
 H1126 H 0.87815 0.23815 0.68648
 H1127 H 0.87734 0.26899 0.66073
 H1128 H 0.87464 0.31629 0.71582
 C1129 C 0.76277 0.36869 0.69636
 C1130 C 0.76691 0.37117 0.71980
 C1131 C 0.78974 0.37248 0.72687
 C1132 C 0.80744 0.37116 0.71113
 C1133 C 0.80302 0.36882 0.68800
 C1134 C 0.78052 0.36759 0.68084
 C1135 C 0.79492 0.37520 0.74963
 C1136 C 0.77797 0.37684 0.76571
 C1137 C 0.75493 0.37570 0.75969
 C1138 C 0.74929 0.37249 0.73639
 C1139 C 0.72626 0.37052 0.73052
 C1140 C 0.70934 0.37160 0.74673
 C1141 C 0.71452 0.37491 0.76944
 C1142 C 0.73735 0.37731 0.77625
 C1143 C 0.74159 0.38114 0.79946
 C1144 C 0.72406 0.38166 0.81516
 C1145 C 0.70159 0.37858 0.80846
 C1146 C 0.69694 0.37557 0.78543
 H1147 H 0.74604 0.36776 0.68934
 H1148 H 0.82475 0.37229 0.71695
 H1149 H 0.77652 0.36577 0.66309
 H1150 H 0.81234 0.37612 0.75514
 H1151 H 0.78365 0.37874 0.78285
 H1152 H 0.72064 0.36782 0.71345
 H1153 H 0.69193 0.36976 0.74139
 H1154 H 0.75825 0.38380 0.80619
 H1155 H 0.72826 0.38431 0.83276
 H1156 H 0.67964 0.37320 0.77996
 C1157 C 0.30374 0.62191 0.75834
 C1158 C 0.28027 0.62210 0.76303
 C1159 C 0.27363 0.62139 0.78603
 C1160 C 0.28983 0.62044 0.80334
 C1161 C 0.31300 0.62036 0.79839
 C1162 C 0.31971 0.62109 0.77570
 C1163 C 0.25082 0.62174 0.79177
 C1164 C 0.23427 0.62290 0.77525
 C1165 C 0.23983 0.62368 0.75206
 C1166 C 0.26322 0.62307 0.74583
 C1167 C 0.26874 0.62338 0.72262
 C1168 C 0.25214 0.62431 0.70609
 C1169 C 0.22934 0.62510 0.71185
 C1170 C 0.22278 0.62492 0.73489
 C1171 C 0.19937 0.62603 0.73970
 C1172 C 0.18335 0.62700 0.72244
 C1173 C 0.18991 0.62692 0.69969
 C1174 C 0.21304 0.62603 0.69459
 H1175 H 0.31044 0.62254 0.74145
 H1176 H 0.28429 0.62002 0.82078
 H1177 H 0.33746 0.62111 0.77126
 H1178 H 0.24565 0.62118 0.80933
 H1179 H 0.21716 0.62303 0.78133
 H1180 H 0.28585 0.62278 0.71654
 H1181 H 0.25727 0.62444 0.68851
 H1182 H 0.19273 0.62627 0.75662
 H1183 H 0.16567 0.62776 0.72703
 H1184 H 0.21846 0.62606 0.67710
 C1185 C 0.29611 0.12912 0.26478
 C1186 C 0.27259 0.12664 0.26824
 C1187 C 0.26485 0.12475 0.29084
 C1188 C 0.28013 0.12531 0.30898
 C1189 C 0.30336 0.12779 0.30519
 C1190 C 0.31111 0.12968 0.28291
 C1191 C 0.24189 0.12237 0.29531
 C1192 C 0.22626 0.12192 0.27789
 C1193 C 0.23296 0.12382 0.25507
 C1194 C 0.25654 0.12607 0.25015
 C1195 C 0.26327 0.12771 0.22732
 C1196 C 0.24764 0.12742 0.20991
 C1197 C 0.22464 0.12550 0.21440
 C1198 C 0.21689 0.12361 0.23699
 C1199 C 0.19329 0.12174 0.24045
 C1200 C 0.17825 0.12200 0.22233
 C1201 C 0.18605 0.12404 0.20007
 C1202 C 0.20935 0.12564 0.19629
 H1203 H 0.30361 0.13077 0.24831
 H1204 H 0.27383 0.12386 0.32612
 H1205 H 0.32894 0.13164 0.27935
 H1206 H 0.23588 0.12089 0.31255
 H1207 H 0.20893 0.12004 0.28300
 H1208 H 0.28062 0.12926 0.22218
 H1209 H 0.25366 0.12882 0.19268
 H1210 H 0.18577 0.12022 0.25692
 H1211 H 0.16036 0.12071 0.22586
 H1212 H 0.21568 0.12728 0.17918
 C1213 C 0.80371 0.11873 0.75586
 C1214 C 0.78021 0.11750 0.76027
 C1215 C 0.77335 0.11548 0.78312
 C1216 C 0.78935 0.11480 0.80058
 C1217 C 0.81252 0.11625 0.79594
 C1218 C 0.81948 0.11814 0.77340
 C1219 C 0.75051 0.11429 0.78858
 C1220 C 0.73412 0.11525 0.77192
 C1221 C 0.73990 0.11742 0.74888
 C1222 C 0.76334 0.11835 0.74291
 C1223 C 0.76909 0.12010 0.71983
 C1224 C 0.75265 0.12109 0.70316
 C1225 C 0.72979 0.12046 0.70869
 C1226 C 0.72301 0.11867 0.73159
 C1227 C 0.69954 0.11831 0.73618
 C1228 C 0.68368 0.11958 0.71882
 C1229 C 0.69048 0.12125 0.69622
 C1230 C 0.71365 0.12167 0.69132
 H1231 H 0.81056 0.12035 0.73910
 H1232 H 0.78363 0.11340 0.81791
 H1233 H 0.83724 0.11933 0.76922
 H1234 H 0.74519 0.11268 0.80603
 H1235 H 0.71697 0.11417 0.77780
 H1236 H 0.78627 0.12070 0.71394
 H1237 H 0.75794 0.12243 0.68568
 H1238 H 0.69271 0.11718 0.75299
 H1239 H 0.66594 0.11925 0.72324
 H1240 H 0.71922 0.12303 0.67393
 C1241 C 0.69851 0.88816 0.25811
 C1242 C 0.72182 0.88637 0.26303
 C1243 C 0.72817 0.88422 0.28602
 C1244 C 0.71174 0.88390 0.30316
 C1245 C 0.68873 0.88541 0.29787
 C1246 C 0.68237 0.88764 0.27521
 C1247 C 0.75086 0.88215 0.29183
 C1248 C 0.76751 0.88176 0.27534
 C1249 C 0.76213 0.88357 0.25217
 C1250 C 0.73893 0.88631 0.24595
 C1251 C 0.73358 0.88884 0.22285
 C1252 C 0.75012 0.88815 0.20634
 C1253 C 0.77268 0.88491 0.21204
 C1254 C 0.77915 0.88265 0.23498
 C1255 C 0.80238 0.87932 0.23961
 C1256 C 0.81826 0.87817 0.22220
 C1257 C 0.81165 0.88028 0.19959
 C1258 C 0.78878 0.88378 0.19472
 H1259 H 0.69198 0.88967 0.24123
 H1260 H 0.71691 0.88206 0.32062
 H1261 H 0.66474 0.88890 0.27054
 H1262 H 0.75583 0.88060 0.30938
 H1263 H 0.78454 0.88005 0.28141
 H1264 H 0.71667 0.89145 0.21680
 H1265 H 0.74514 0.89005 0.18883
 H1266 H 0.80891 0.87730 0.25644
 H1267 H 0.83581 0.87540 0.22654
 H1268 H 0.78336 0.88549 0.17732
 C1269 C 0.75360 0.70253 0.37836
 C1270 C 0.75767 0.72612 0.37841
 C1271 C 0.78043 0.73335 0.37995
 C1272 C 0.79810 0.71761 0.38133
 C1273 C 0.79378 0.69433 0.38106
 C1274 C 0.77134 0.68701 0.37963
 C1275 C 0.78556 0.75630 0.37995
 C1276 C 0.76866 0.77242 0.37830
 C1277 C 0.74570 0.76625 0.37660
 C1278 C 0.74008 0.74271 0.37685
 C1279 C 0.71709 0.73657 0.37553
 C1280 C 0.70018 0.75272 0.37393
 C1281 C 0.70536 0.77566 0.37348
 C1282 C 0.72815 0.78284 0.37474
 C1283 C 0.73236 0.80638 0.37399
 C1284 C 0.71471 0.82193 0.37227
 C1285 C 0.69222 0.81472 0.37122
 C1286 C 0.68773 0.79147 0.37179
 H1287 H 0.73694 0.69539 0.37719
 H1288 H 0.81536 0.72361 0.38235
 H1289 H 0.76740 0.66916 0.37934
 H1290 H 0.80294 0.76192 0.38117
 H1291 H 0.77428 0.78968 0.37848
 H1292 H 0.71145 0.71930 0.37577
 H1293 H 0.68278 0.74713 0.37299
 H1294 H 0.74906 0.81348 0.37462
 H1295 H 0.71881 0.83974 0.37180
 H1296 H 0.67044 0.78556 0.37091
 C1297 C 0.80045 0.26001 0.60814
 C1298 C 0.77759 0.26341 0.61423
 C1299 C 0.77071 0.28581 0.61927
 C1300 C 0.78629 0.30373 0.61881
 C1301 C 0.80902 0.29985 0.61353
 C1302 C 0.81578 0.27787 0.60791
 C1303 C 0.74837 0.29022 0.62511
 C1304 C 0.73261 0.27293 0.62627
 C1305 C 0.73857 0.25027 0.62175
 C1306 C 0.76145 0.24541 0.61565
 C1307 C 0.76746 0.22269 0.61143
 C1308 C 0.75176 0.20535 0.61295
 C1309 C 0.72939 0.20978 0.61869
 C1310 C 0.72243 0.23229 0.62318
 C1311 C 0.69950 0.23581 0.62887
 C1312 C 0.68428 0.21792 0.62974
 C1313 C 0.69116 0.19574 0.62511
 C1314 C 0.71388 0.19178 0.61981
 H1315 H 0.80719 0.24376 0.60361
 H1316 H 0.78080 0.32063 0.62323
 H1317 H 0.83318 0.27431 0.60352
 H1318 H 0.74298 0.30729 0.62894
 H1319 H 0.71583 0.27803 0.63097
 H1320 H 0.78432 0.21760 0.60697
 H1321 H 0.75723 0.18822 0.60954
 H1322 H 0.69259 0.25218 0.63264
 H1323 H 0.66690 0.22159 0.63411
 H1324 H 0.71943 0.17472 0.61614
 C1325 C 0.73822 0.69964 0.13313
 C1326 C 0.73434 0.72307 0.13067
 C1327 C 0.71161 0.73039 0.12867
 C1328 C 0.69374 0.71467 0.12853
 C1329 C 0.69804 0.69145 0.13045
 C1330 C 0.72046 0.68427 0.13296
 C1331 C 0.70683 0.75335 0.12670
 C1332 C 0.72405 0.76930 0.12660
 C1333 C 0.74698 0.76292 0.12827
 C1334 C 0.75220 0.73938 0.13013
 C1335 C 0.77513 0.73289 0.13112
 C1336 C 0.79236 0.74869 0.13050
 C1337 C 0.78760 0.77165 0.12897
 C1338 C 0.76490 0.77922 0.12796
 C1339 C 0.76122 0.80283 0.12671
 C1340 C 0.77928 0.81803 0.12638
 C1341 C 0.80166 0.81036 0.12720
 C1342 C 0.80560 0.78707 0.12849
 H1343 H 0.75476 0.69247 0.13531
 H1344 H 0.67651 0.72054 0.12673
 H1345 H 0.72446 0.66652 0.13478
 H1346 H 0.68952 0.75910 0.12520
 H1347 H 0.71874 0.78660 0.12494
 H1348 H 0.78052 0.71558 0.13212
 H1349 H 0.80968 0.74282 0.13124
 H1350 H 0.74463 0.81021 0.12613
 H1351 H 0.77562 0.83592 0.12545
 H1352 H 0.82279 0.78083 0.12932
 C1353 C 0.30356 0.25894 0.12541
 C1354 C 0.28017 0.26330 0.12799
 C1355 C 0.27336 0.28618 0.12983
 C1356 C 0.28931 0.30369 0.12913
 C1357 C 0.31239 0.29907 0.12660
 C1358 C 0.31929 0.27651 0.12475
 C1359 C 0.25064 0.29161 0.13239
 C1360 C 0.23430 0.27489 0.13301
 C1361 C 0.24001 0.25181 0.13112
 C1362 C 0.26335 0.24589 0.12873
 C1363 C 0.26905 0.22278 0.12714
 C1364 C 0.25262 0.20606 0.12758
 C1365 C 0.22983 0.21155 0.12958
 C1366 C 0.22315 0.23447 0.13146
 C1367 C 0.19976 0.23904 0.13343
 C1368 C 0.18389 0.22169 0.13326
 C1369 C 0.19054 0.19908 0.13120
 C1370 C 0.21364 0.19415 0.12955
 H1371 H 0.31036 0.24216 0.12381
 H1372 H 0.28364 0.32103 0.13063
 H1373 H 0.33699 0.27234 0.12279
 H1374 H 0.24536 0.30908 0.13387
 H1375 H 0.21724 0.28077 0.13503
 H1376 H 0.28617 0.21693 0.12551
 H1377 H 0.25786 0.18857 0.12621
 H1378 H 0.19301 0.25583 0.13498
 H1379 H 0.16621 0.22614 0.13470
 H1380 H 0.21909 0.17675 0.12794
 C1381 C 0.26574 0.69417 0.87507
 C1382 C 0.27016 0.71758 0.87743
 C1383 C 0.29305 0.72445 0.87840
 C1384 C 0.31053 0.70851 0.87719
 C1385 C 0.30585 0.68542 0.87491
 C1386 C 0.28329 0.67847 0.87385
 C1387 C 0.29851 0.74721 0.88055
 C1388 C 0.28177 0.76352 0.88167
 C1389 C 0.25868 0.75772 0.88073
 C1390 C 0.25276 0.73434 0.87874
 C1391 C 0.22965 0.72851 0.87818
 C1392 C 0.21291 0.74484 0.87927
 C1393 C 0.21838 0.76765 0.88093
 C1394 C 0.24129 0.77452 0.88170
 C1395 C 0.24574 0.79798 0.88325
 C1396 C 0.22823 0.81374 0.88387
 C1397 C 0.20565 0.80679 0.88304
 C1398 C 0.20092 0.78364 0.88168
 H1399 H 0.24895 0.68732 0.87402
 H1400 H 0.32790 0.71422 0.87798
 H1401 H 0.27908 0.66077 0.87203
 H1402 H 0.31601 0.75253 0.88134
 H1403 H 0.28763 0.78063 0.88334
 H1404 H 0.22380 0.71137 0.87693
 H1405 H 0.19541 0.73951 0.87872
 H1406 H 0.26254 0.80486 0.88386
 H1407 H 0.23246 0.83149 0.88491
 H1408 H 0.18354 0.77795 0.88093
 C1409 C 0.25460 0.20434 0.37763
 C1410 C 0.25921 0.22783 0.37764
 C1411 C 0.28215 0.23455 0.37882
 C1412 C 0.29948 0.21840 0.37989
 C1413 C 0.29461 0.19523 0.37967
 C1414 C 0.27199 0.18843 0.37859
 C1415 C 0.28779 0.25738 0.37879
 C1416 C 0.27123 0.27387 0.37748
 C1417 C 0.24811 0.26822 0.37618
 C1418 C 0.24198 0.24481 0.37641
 C1419 C 0.21884 0.23917 0.37540
 C1420 C 0.20227 0.25567 0.37413
 C1421 C 0.20794 0.27849 0.37374
 C1422 C 0.23090 0.28519 0.37470
 C1423 C 0.23557 0.30866 0.37408
 C1424 C 0.21822 0.32457 0.37273
 C1425 C 0.19558 0.31782 0.37194
 C1426 C 0.19064 0.29466 0.37241
 H1427 H 0.23776 0.19758 0.37674
 H1428 H 0.31689 0.22400 0.38063
 H1429 H 0.26763 0.17068 0.37837
 H1430 H 0.30531 0.26260 0.37972
 H1431 H 0.27723 0.29101 0.37759
 H1432 H 0.21283 0.22203 0.37562
 H1433 H 0.18475 0.25046 0.37341
 H1434 H 0.25243 0.31540 0.37454
 H1435 H 0.22266 0.34231 0.37232
 H1436 H 0.17322 0.28910 0.37175
 C1437 C 0.55610 0.62488 1.00871
 C1438 C 0.53256 0.62253 1.01237
 C1439 C 0.52505 0.62070 1.03505
 C1440 C 0.54049 0.62127 1.05304
 C1441 C 0.56372 0.62361 1.04910
 C1442 C 0.57129 0.62538 1.02674
 C1443 C 0.50215 0.61825 1.03976
 C1444 C 0.48634 0.61762 1.02251
 C1445 C 0.49277 0.61945 0.99962
 C1446 C 0.51628 0.62195 0.99444
 C1447 C 0.52270 0.62383 0.97154
 C1448 C 0.50683 0.62341 0.95430
 C1449 C 0.48390 0.62108 0.95903
 C1450 C 0.47648 0.61896 0.98172
 C1451 C 0.45299 0.61650 0.98546
 C1452 C 0.43770 0.61640 0.96755
 C1453 C 0.44511 0.61872 0.94518
 C1454 C 0.46833 0.62093 0.94110
 H1455 H 0.56343 0.62634 0.99214
 H1456 H 0.53431 0.61976 1.07021
 H1457 H 0.58912 0.62713 1.02307
 H1458 H 0.49632 0.61680 1.05706
 H1459 H 0.46908 0.61573 1.02784
 H1460 H 0.53997 0.62573 0.96624
 H1461 H 0.51261 0.62499 0.93700
 H1462 H 0.44572 0.61464 1.00201
 H1463 H 0.41991 0.61455 0.97134
 H1464 H 0.47438 0.62266 0.92390
 C1465 C 0.44179 0.12416 0.49377
 C1466 C 0.46528 0.12423 0.48914
 C1467 C 0.47201 0.12492 0.46617
 C1468 C 0.45591 0.12567 0.44885
 C1469 C 0.43275 0.12577 0.45373
 C1470 C 0.42589 0.12490 0.47635
 C1471 C 0.49481 0.12492 0.46047
 C1472 C 0.51131 0.12448 0.47703
 C1473 C 0.50567 0.12403 0.50020
 C1474 C 0.48226 0.12376 0.50637
 C1475 C 0.47665 0.12313 0.52955
 C1476 C 0.49320 0.12300 0.54612
 C1477 C 0.51601 0.12350 0.54041
 C1478 C 0.52266 0.12393 0.51740
 C1479 C 0.54610 0.12435 0.51264
 C1480 C 0.56205 0.12450 0.52995
 C1481 C 0.55537 0.12423 0.55263
 C1482 C 0.53224 0.12363 0.55769
 H1483 H 0.43502 0.12360 0.51063
 H1484 H 0.46155 0.12618 0.43143
 H1485 H 0.40813 0.12487 0.48069
 H1486 H 0.50002 0.12535 0.44292
 H1487 H 0.52842 0.12456 0.47096
 H1488 H 0.45952 0.12277 0.53557
 H1489 H 0.48803 0.12258 0.56368
 H1490 H 0.55282 0.12465 0.49577
 H1491 H 0.57977 0.12487 0.52543
 H1492 H 0.52677 0.12330 0.57517
 C1493 C 0.50801 0.88008 0.44481
 C1494 C 0.51257 0.88095 0.46825
 C1495 C 0.53553 0.88124 0.47505
 C1496 C 0.55297 0.88091 0.45892
 C1497 C 0.54808 0.88010 0.43578
 C1498 C 0.52543 0.87968 0.42899
 C1499 C 0.54102 0.88180 0.49792
 C1500 C 0.52427 0.88177 0.51433
 C1501 C 0.50115 0.88134 0.50853
 C1502 C 0.49520 0.88134 0.48509
 C1503 C 0.47209 0.88178 0.47926
 C1504 C 0.45535 0.88165 0.49562
 C1505 C 0.46081 0.88101 0.51847
 C1506 C 0.48374 0.88090 0.52536
 C1507 C 0.48818 0.88012 0.54885
 C1508 C 0.47064 0.87931 0.56460
 C1509 C 0.44804 0.87929 0.55762
 C1510 C 0.44332 0.88031 0.53446
 H1511 H 0.49119 0.87949 0.43798
 H1512 H 0.57041 0.88122 0.46447
 H1513 H 0.52100 0.87905 0.41126
 H1514 H 0.55852 0.88213 0.50323
 H1515 H 0.53013 0.88221 0.53152
 H1516 H 0.46621 0.88236 0.46209
 H1517 H 0.43785 0.88191 0.49027
 H1518 H 0.50499 0.87984 0.55573
 H1519 H 0.47489 0.87858 0.58237
 H1520 H 0.42593 0.88032 0.52875
 C1521 C 1.01219 0.38413 0.44648
 C1522 C 1.01656 0.38363 0.46996
 C1523 C 1.03945 0.38295 0.47696
 C1524 C 1.05703 0.38300 0.46099
 C1525 C 1.05231 0.38348 0.43781
 C1526 C 1.02972 0.38407 0.43082
 C1527 C 1.04471 0.38211 0.49987
 C1528 C 1.02780 0.38153 0.51610
 C1529 C 1.00473 0.38196 0.51006
 C1530 C 0.99904 0.38350 0.48661
 C1531 C 0.97601 0.38488 0.48059
 C1532 C 0.95910 0.38414 0.49672
 C1533 C 0.96430 0.38193 0.51953
 C1534 C 0.98714 0.38089 0.52664
 C1535 C 0.99129 0.37855 0.55008
 C1536 C 0.97355 0.37720 0.56555
 C1537 C 0.95105 0.37811 0.55833
 C1538 C 0.94662 0.38063 0.53524
 H1539 H 0.99544 0.38434 0.43948
 H1540 H 1.07442 0.38251 0.46667
 H1541 H 1.02542 0.38448 0.41305
 H1542 H 1.06217 0.38171 0.50535
 H1543 H 1.03347 0.38086 0.53334
 H1544 H 0.97033 0.38669 0.46344
 H1545 H 0.94167 0.38515 0.49123
 H1546 H 1.00801 0.37747 0.55709
 H1547 H 0.97757 0.37530 0.58329
 H1548 H 0.92931 0.38142 0.52936
 C1549 C -0.04912 0.87308 1.01320
 C1550 C -0.02566 0.87187 1.01762
 C1551 C -0.01881 0.87078 1.04053
 C1552 C -0.03481 0.87077 1.05802
 C1553 C -0.05805 0.87196 1.05340
 C1554 C -0.06491 0.87313 1.03072
 C1555 C 0.00401 0.86974 1.04601
 C1556 C 0.02039 0.86983 1.02929
 C1557 C 0.01462 0.87091 1.00618
 C1558 C -0.00880 0.87177 1.00022
 C1559 C -0.01456 0.87242 0.97708
 C1560 C 0.00187 0.87232 0.96035
 C1561 C 0.02472 0.87166 0.96587
 C1562 C 0.03149 0.87105 0.98883
 C1563 C 0.05494 0.87068 0.99342
 C1564 C 0.07078 0.87075 0.97602
 C1565 C 0.06401 0.87119 0.95336
 C1566 C 0.04087 0.87167 0.94844
 H1567 H -0.05595 0.87414 0.99640
 H1568 H -0.02897 0.86993 1.07536
 H1569 H -0.08263 0.87417 1.02633
 H1570 H 0.00933 0.86888 1.06350
 H1571 H 0.03753 0.86890 1.03520
 H1572 H -0.03173 0.87290 0.97120
 H1573 H -0.00341 0.87279 0.94283
 H1574 H 0.06176 0.87044 1.01025
 H1575 H 0.08851 0.87047 0.98046
 H1576 H 0.03534 0.87215 0.93100
 C1577 C -0.05065 0.11539 -0.01503
 C1578 C -0.02732 0.11939 -0.01842
 C1579 C -0.01972 0.12227 -0.04096
 C1580 C -0.03497 0.12141 -0.05910
 C1581 C -0.05805 0.11777 -0.05536
 C1582 C -0.06563 0.11463 -0.03317
 C1583 C 0.00304 0.12614 -0.04537
 C1584 C 0.01859 0.12742 -0.02792
 C1585 C 0.01198 0.12488 -0.00513
 C1586 C -0.01136 0.12072 -0.00030
 C1587 C -0.01796 0.11813 0.02248
 C1588 C -0.00245 0.11959 0.03993
 C1589 C 0.02027 0.12369 0.03555
 C1590 C 0.02791 0.12638 0.01300
 C1591 C 0.05124 0.13045 0.00964
 C1592 C 0.06615 0.13164 0.02783
 C1593 C 0.05846 0.12891 0.05004
 C1594 C 0.03542 0.12501 0.05372
 H1595 H -0.05802 0.11284 0.00138
 H1596 H -0.02880 0.12380 -0.07617
 H1597 H -0.08333 0.11163 -0.02968
 H1598 H 0.00895 0.12830 -0.06257
 H1599 H 0.03576 0.13049 -0.03298
 H1600 H -0.03511 0.11497 0.02754
 H1601 H -0.00837 0.11748 0.05714
 H1602 H 0.05866 0.13275 -0.00679
 H1603 H 0.08385 0.13466 0.02438
 H1604 H 0.02921 0.12272 0.07080
 C1605 C 0.12694 1.05495 1.01247
 C1606 C 0.12543 1.03147 1.01670
 C1607 C 0.12379 1.02446 1.03954
 C1608 C 0.12370 1.04031 1.05716
 C1609 C 0.12519 1.06356 1.05273
 C1610 C 0.12680 1.07060 1.03012
 C1611 C 0.12223 1.00162 1.04481
 C1612 C 0.12242 0.98538 1.02799
 C1613 C 0.12419 0.99132 1.00495
 C1614 C 0.12556 1.01476 0.99917
 C1615 C 0.12705 1.02066 0.97609
 C1616 C 0.12747 1.00433 0.95926
 C1617 C 0.12646 0.98144 0.96461
 C1618 C 0.12473 0.97457 0.98750
 C1619 C 0.12375 0.95112 0.99196
 C1620 C 0.12474 0.93537 0.97455
 C1621 C 0.12668 0.94220 0.95197
 C1622 C 0.12734 0.96536 0.94712
 H1623 H 0.12828 1.06191 0.99574
 H1624 H 0.12237 1.03435 1.07443
 H1625 H 0.12795 1.08835 1.02587
 H1626 H 0.12089 0.99617 1.06225
 H1627 H 0.12115 0.96822 1.03377
 H1628 H 0.12794 1.03786 0.97034
 H1629 H 0.12872 1.00972 0.94181
 H1630 H 0.12236 0.94420 1.00869
 H1631 H 0.12399 0.91763 0.97894
 H1632 H 0.12879 0.97092 0.92974
 C1633 C 0.11644 0.49448 0.44869
 C1634 C 0.11811 0.48970 0.47206
 C1635 C 0.11986 0.46670 0.47852
 C1636 C 0.12021 0.44945 0.46213
 C1637 C 0.11888 0.45459 0.43904
 C1638 C 0.11685 0.47728 0.43262
 C1639 C 0.12138 0.46099 0.50131
 C1640 C 0.12138 0.47754 0.51794
 C1641 C 0.11990 0.50072 0.51247
 C1642 C 0.11819 0.50689 0.48913
 C1643 C 0.11678 0.53005 0.48362
 C1644 C 0.11715 0.54661 0.50016
 C1645 C 0.11889 0.54094 0.52291
 C1646 C 0.12019 0.51796 0.52952
 C1647 C 0.12177 0.51333 0.55296
 C1648 C 0.12216 0.53075 0.56891
 C1649 C 0.12104 0.55342 0.56220
 C1650 C 0.11935 0.55829 0.53909
 H1651 H 0.11484 0.51133 0.44210
 H1652 H 0.12169 0.43199 0.46743
 H1653 H 0.11560 0.48191 0.41497
 H1654 H 0.12266 0.44345 0.50639
 H1655 H 0.12268 0.47152 0.53503
 H1656 H 0.11546 0.53612 0.46656
 H1657 H 0.11609 0.56415 0.49502
 H1658 H 0.12272 0.49646 0.55963
 H1659 H 0.12339 0.52636 0.58662
 H1660 H 0.11831 0.57572 0.53356
 C1661 C 0.37042 0.48456 1.04802
 C1662 C 0.37399 0.48032 1.02476
 C1663 C 0.37668 0.45752 1.01793
 C1664 C 0.37606 0.43994 1.03388
 C1665 C 0.37284 0.44454 1.05688
 C1666 C 0.36993 0.46701 1.06368
 C1667 C 0.38015 0.45234 0.99524
 C1668 C 0.38104 0.46924 0.97903
 C1669 C 0.37855 0.49224 0.98486
 C1670 C 0.37503 0.49787 1.00813
 C1671 C 0.37276 0.52086 1.01403
 C1672 C 0.37372 0.53776 0.99789
 C1673 C 0.37695 0.53259 0.97519
 C1674 C 0.37946 0.50982 0.96823
 C1675 C 0.38272 0.50571 0.94487
 C1676 C 0.38325 0.52343 0.92930
 C1677 C 0.38061 0.54585 0.93634
 C1678 C 0.37759 0.55024 0.95940
 H1679 H 0.36799 0.50121 1.05484
 H1680 H 0.37842 0.42265 1.02834
 H1681 H 0.36733 0.47117 1.08130
 H1682 H 0.38223 0.43495 0.98992
 H1683 H 0.38379 0.46362 0.96197
 H1684 H 0.37025 0.52654 1.03110
 H1685 H 0.37185 0.55515 1.00329
 H1686 H 0.38483 0.48904 0.93796
 H1687 H 0.38570 0.51946 0.91161
 H1688 H 0.37553 0.56749 0.96517
 C1689 C 0.87376 0.51407 0.45184
 C1690 C 0.87494 0.51708 0.47553
 C1691 C 0.87444 0.53954 0.48385
 C1692 C 0.87279 0.55800 0.46896
 C1693 C 0.87171 0.55465 0.44554
 C1694 C 0.87221 0.53248 0.43725
 C1695 C 0.87564 0.54353 0.50700
 C1696 C 0.87723 0.52578 0.52223
 C1697 C 0.87768 0.50307 0.51492
 C1698 C 0.87656 0.49865 0.49117
 C1699 C 0.87701 0.47594 0.48385
 C1700 C 0.87825 0.45818 0.49907
 C1701 C 0.87915 0.46215 0.52223
 C1702 C 0.87905 0.48461 0.53057
 C1703 C 0.88020 0.48756 0.55428
 C1704 C 0.88092 0.46907 0.56888
 C1705 C 0.88059 0.44692 0.56055
 C1706 C 0.87995 0.44366 0.53711
 H1707 H 0.87402 0.49774 0.44389
 H1708 H 0.87256 0.57503 0.47566
 H1709 H 0.87142 0.52923 0.41927
 H1710 H 0.87531 0.56065 0.51348
 H1711 H 0.87799 0.53054 0.53975
 H1712 H 0.87633 0.47117 0.46634
 H1713 H 0.87840 0.44107 0.49259
 H1714 H 0.88046 0.50390 0.56221
 H1715 H 0.88159 0.47225 0.58688
 H1716 H 0.87978 0.42664 0.53036
 C1717 C 0.88083 1.00406 -0.05547
 C1718 C 0.88158 1.00870 -0.03200
 C1719 C 0.88205 1.03167 -0.02528
 C1720 C 0.88142 1.04901 -0.04138
 C1721 C 0.88038 1.04411 -0.06450
 C1722 C 0.88026 1.02148 -0.07135
 C1723 C 0.88307 1.03735 -0.00250
 C1724 C 0.88341 1.02077 0.01399
 C1725 C 0.88267 0.99762 0.00836
 C1726 C 0.88178 0.99146 -0.01502
 C1727 C 0.88091 0.96830 -0.02063
 C1728 C 0.88066 0.95174 -0.00408
 C1729 C 0.88134 0.95745 0.01873
 C1730 C 0.88255 0.98042 0.02535
 C1731 C 0.88346 0.98516 0.04878
 C1732 C 0.88278 0.96788 0.06475
 C1733 C 0.88121 0.94525 0.05809
 C1734 C 0.88068 0.94019 0.03497
 H1735 H 0.88064 0.98720 -0.06223
 H1736 H 0.88176 1.06644 -0.03579
 H1737 H 0.87959 1.01713 -0.08910
 H1738 H 0.88352 1.05490 0.00270
 H1739 H 0.88410 1.02682 0.03110
 H1740 H 0.88022 0.96229 -0.03775
 H1741 H 0.87982 0.93419 -0.00923
 H1742 H 0.88465 1.00199 0.05548
 H1743 H 0.88341 0.97239 0.08246
 H1744 H 0.87964 0.92274 0.02952
 C1745 C 0.61107 -0.00764 0.44379
 C1746 C 0.61455 -0.01168 0.46709
 C1747 C 0.61753 -0.03444 0.47401
 C1748 C 0.61732 -0.05214 0.45814
 C1749 C 0.61430 -0.04773 0.43509
 C1750 C 0.61099 -0.02531 0.42820
 C1751 C 0.62089 -0.03947 0.49672
 C1752 C 0.62165 -0.02248 0.51284
 C1753 C 0.61908 0.00050 0.50691
 C1754 C 0.61533 0.00599 0.48366
 C1755 C 0.61261 0.02896 0.47777
 C1756 C 0.61361 0.04598 0.49389
 C1757 C 0.61738 0.04096 0.51656
 C1758 C 0.62016 0.01817 0.52344
 C1759 C 0.62396 0.01406 0.54667
 C1760 C 0.62477 0.03170 0.56221
 C1761 C 0.62193 0.05420 0.55539
 C1762 C 0.61832 0.05869 0.53243
 H1763 H 0.60846 0.00897 0.43691
 H1764 H 0.61984 -0.06937 0.46378
 H1765 H 0.60840 -0.02127 0.41055
 H1766 H 0.62309 -0.05681 0.50215
 H1767 H 0.62434 -0.02806 0.52991
 H1768 H 0.60969 0.03450 0.46072
 H1769 H 0.61143 0.06333 0.48849
 H1770 H 0.62638 -0.00257 0.55354
 H1771 H 0.62768 0.02756 0.57978
 H1772 H 0.61599 0.07597 0.52687
 C1773 C 0.48160 1.05567 0.38316
 C1774 C 0.47784 1.03230 0.37979
 C1775 C 0.45517 1.02496 0.37747
 C1776 C 0.43727 1.04046 0.37823
 C1777 C 0.44137 1.06356 0.38116
 C1778 C 0.46369 1.07092 0.38380
 C1779 C 0.45039 1.00218 0.37420
 C1780 C 0.46761 0.98639 0.37284
 C1781 C 0.49051 0.99275 0.37469
 C1782 C 0.49571 1.01606 0.37846
 C1783 C 0.51860 1.02237 0.38064
 C1784 C 0.53583 1.00662 0.37898
 C1785 C 0.53108 0.98394 0.37504
 C1786 C 0.50840 0.97659 0.37287
 C1787 C 0.50465 0.95332 0.36887
 C1788 C 0.52260 0.93819 0.36725
 C1789 C 0.54494 0.94558 0.36944
 C1790 C 0.54902 0.96855 0.37331
 H1791 H 0.49814 1.06287 0.38522
 H1792 H 0.42009 1.03448 0.37625
 H1793 H 0.46744 1.08865 0.38624
 H1794 H 0.43309 0.99647 0.37254
 H1795 H 0.46225 0.96923 0.37027
 H1796 H 0.52393 1.03947 0.38365
 H1797 H 0.55313 1.01230 0.38074
 H1798 H 0.48810 0.94612 0.36688
 H1799 H 0.51886 0.92054 0.36424
 H1800 H 0.56622 0.97452 0.37518
 C1801 C -0.00790 -0.05348 0.12157
 C1802 C -0.01212 -0.03010 0.11855
 C1803 C -0.03496 -0.02321 0.11650
 C1804 C -0.05256 -0.03900 0.11784
 C1805 C -0.04810 -0.06200 0.12115
 C1806 C -0.02559 -0.06906 0.12281
 C1807 C -0.04025 -0.00055 0.11322
 C1808 C -0.02344 0.01568 0.11223
 C1809 C -0.00043 0.00993 0.11459
 C1810 C 0.00537 -0.01336 0.11767
 C1811 C 0.02841 -0.01907 0.12001
 C1812 C 0.04516 -0.00267 0.11981
 C1813 C 0.03978 0.02010 0.11721
 C1814 C 0.01696 0.02675 0.11430
 C1815 C 0.01253 0.05007 0.11148
 C1816 C 0.02985 0.06597 0.11224
 C1817 C 0.05230 0.05938 0.11571
 C1818 C 0.05716 0.03629 0.11782
 H1819 H 0.00885 -0.06036 0.12310
 H1820 H -0.06987 -0.03326 0.11625
 H1821 H -0.02156 -0.08673 0.12525
 H1822 H -0.05768 0.00477 0.11151
 H1823 H -0.02923 0.03271 0.10978
 H1824 H 0.03415 -0.03615 0.12226
 H1825 H 0.06258 -0.00789 0.12192
 H1826 H -0.00414 0.05678 0.10882
 H1827 H 0.02550 0.08362 0.11025
 H1828 H 0.07445 0.03089 0.12039
 C1829 C 0.55148 0.51235 0.10754
 C1830 C 0.52821 0.51579 0.11172
 C1831 C 0.52095 0.53820 0.11617
 C1832 C 0.53655 0.55609 0.11703
 C1833 C 0.55963 0.55213 0.11370
 C1834 C 0.56679 0.53015 0.10860
 C1835 C 0.49819 0.54263 0.12009
 C1836 C 0.48242 0.52530 0.12019
 C1837 C 0.48879 0.50261 0.11644
 C1838 C 0.51205 0.49780 0.11194
 C1839 C 0.51843 0.47512 0.10816
 C1840 C 0.50283 0.45770 0.10909
 C1841 C 0.48020 0.46202 0.11374
 C1842 C 0.47274 0.48452 0.11730
 C1843 C 0.44950 0.48786 0.12175
 C1844 C 0.43456 0.46970 0.12284
 C1845 C 0.44209 0.44750 0.11959
 C1846 C 0.46500 0.44384 0.11494
 H1847 H 0.55858 0.49610 0.10359
 H1848 H 0.53075 0.57303 0.12086
 H1849 H 0.58446 0.52654 0.10554
 H1850 H 0.49249 0.55971 0.12334
 H1851 H 0.46529 0.53036 0.12351
 H1852 H 0.53551 0.47007 0.10462
 H1853 H 0.50861 0.44056 0.10625
 H1854 H 0.44219 0.50426 0.12454
 H1855 H 0.41696 0.47317 0.12640
 H1856 H 0.47107 0.42679 0.11220
 C1857 C -0.01199 0.44713 0.63454
 C1858 C -0.01586 0.47044 0.63108
 C1859 C -0.03849 0.47751 0.62759
 C1860 C -0.05625 0.46175 0.62731
 C1861 C -0.05199 0.43870 0.63039
 C1862 C -0.02970 0.43166 0.63414
 C1863 C -0.04332 0.50027 0.62423
 C1864 C -0.02626 0.51629 0.62421
 C1865 C -0.00342 0.51021 0.62750
 C1866 C 0.00189 0.48689 0.63092
 C1867 C 0.02476 0.48078 0.63394
 C1868 C 0.04184 0.49680 0.63377
 C1869 C 0.03699 0.51958 0.63064
 C1870 C 0.01432 0.52667 0.62744
 C1871 C 0.01039 0.55002 0.62437
 C1872 C 0.02810 0.56547 0.62459
 C1873 C 0.05047 0.55841 0.62784
 C1874 C 0.05477 0.53534 0.63074
 H1875 H 0.00449 0.44013 0.63755
 H1876 H -0.07339 0.46746 0.62435
 H1877 H -0.02578 0.41399 0.63671
 H1878 H -0.06057 0.50579 0.62155
 H1879 H -0.03167 0.53341 0.62145
 H1880 H 0.03019 0.46363 0.63643
 H1881 H 0.05912 0.49124 0.63618
 H1882 H -0.00615 0.55708 0.62181
 H1883 H 0.02412 0.58315 0.62214
 H1884 H 0.07196 0.52960 0.63326
 C1885 C 0.49434 0.54799 0.87531
 C1886 C 0.49064 0.52446 0.87743
 C1887 C 0.46793 0.51688 0.87807
 C1888 C 0.44993 0.53226 0.87652
 C1889 C 0.45396 0.55548 0.87440
 C1890 C 0.47634 0.56311 0.87386
 C1891 C 0.46321 0.49395 0.88025
 C1892 C 0.48048 0.47820 0.88165
 C1893 C 0.50340 0.48474 0.88090
 C1894 C 0.50858 0.50827 0.87885
 C1895 C 0.53151 0.51480 0.87817
 C1896 C 0.54878 0.49900 0.87909
 C1897 C 0.54405 0.47603 0.88078
 C1898 C 0.52133 0.46851 0.88192
 C1899 C 0.51758 0.44498 0.88382
 C1900 C 0.53553 0.42974 0.88402
 C1901 C 0.55791 0.43724 0.88243
 C1902 C 0.56201 0.46051 0.88111
 H1903 H 0.51092 0.55539 0.87471
 H1904 H 0.43271 0.52608 0.87713
 H1905 H 0.48007 0.58094 0.87227
 H1906 H 0.44589 0.48806 0.88083
 H1907 H 0.47515 0.46092 0.88322
 H1908 H 0.53683 0.53211 0.87679
 H1909 H 0.56610 0.50486 0.87832
 H1910 H 0.50102 0.43764 0.88505
 H1911 H 0.53173 0.41190 0.88530
 H1912 H 0.57923 0.46660 0.87996
 C1913 C 0.63127 0.54867 1.01209
 C1914 C 0.62972 0.52521 1.01645
 C1915 C 0.62892 0.51823 1.03932
 C1916 C 0.62939 0.53414 1.05688
 C1917 C 0.63068 0.55739 1.05229
 C1918 C 0.63171 0.56435 1.02965
 C1919 C 0.62758 0.49537 1.04467
 C1920 C 0.62718 0.47910 1.02784
 C1921 C 0.62798 0.48506 1.00477
 C1922 C 0.62901 0.50852 0.99897
 C1923 C 0.62920 0.51452 0.97589
 C1924 C 0.62877 0.49829 0.95906
 C1925 C 0.62820 0.47541 0.96441
 C1926 C 0.62777 0.46835 0.98728
 C1927 C 0.62729 0.44482 0.99159
 C1928 C 0.62738 0.42918 0.97395
 C1929 C 0.62791 0.43633 0.95142
 C1930 C 0.62819 0.45954 0.94684
 H1931 H 0.63226 0.55561 0.99533
 H1932 H 0.62858 0.52824 1.07420
 H1933 H 0.63278 0.58208 1.02529
 H1934 H 0.62689 0.48993 1.06214
 H1935 H 0.62611 0.46191 1.03360
 H1936 H 0.62957 0.53173 0.97011
 H1937 H 0.62899 0.50375 0.94158
 H1938 H 0.62703 0.43781 1.00835
 H1939 H 0.62711 0.41136 0.97806
 H1940 H 0.62860 0.46538 0.92949
 C1941 C 0.37323 1.01423 0.45036
 C1942 C 0.37297 1.01749 0.47404
 C1943 C 0.37125 1.04000 0.48203
 C1944 C 0.36970 1.05826 0.46684
 C1945 C 0.36999 1.05473 0.44334
 C1946 C 0.37180 1.03241 0.43545
 C1947 C 0.37114 1.04425 0.50518
 C1948 C 0.37268 1.02673 0.52069
 C1949 C 0.37432 1.00398 0.51371
 C1950 C 0.37437 0.99927 0.48998
 C1951 C 0.37567 0.97649 0.48298
 C1952 C 0.37678 0.95894 0.49848
 C1953 C 0.37675 0.96320 0.52162
 C1954 C 0.37571 0.98574 0.52965
 C1955 C 0.37605 0.98900 0.55334
 C1956 C 0.37689 0.97071 0.56822
 C1957 C 0.37748 0.94844 0.56020
 C1958 C 0.37761 0.94490 0.53677
 H1959 H 0.37464 0.99784 0.44266
 H1960 H 0.36844 1.07528 0.47347
 H1961 H 0.37218 1.02878 0.41752
 H1962 H 0.36986 1.06141 0.51143
 H1963 H 0.37238 1.03168 0.53817
 H1964 H 0.37570 0.97150 0.46552
 H1965 H 0.37761 0.94176 0.49223
 H1966 H 0.37565 1.00544 0.56106
 H1967 H 0.37694 0.97412 0.58619
 H1968 H 0.37819 0.92781 0.53022
 C1969 C -0.05878 0.62592 0.49705
 C1970 C -0.03530 0.62413 0.49268
 C1971 C -0.02834 0.62328 0.46978
 C1972 C -0.04417 0.62450 0.45227
 C1973 C -0.06728 0.62654 0.45689
 C1974 C -0.07441 0.62706 0.47943
 C1975 C -0.00557 0.62130 0.46433
 C1976 C 0.01070 0.62045 0.48107
 C1977 C 0.00486 0.62161 0.50417
 C1978 C -0.01854 0.62331 0.51010
 C1979 C -0.02435 0.62433 0.53321
 C1980 C -0.00797 0.62408 0.54994
 C1981 C 0.01486 0.62279 0.54444
 C1982 C 0.02167 0.62135 0.52152
 C1983 C 0.04510 0.61993 0.51697
 C1984 C 0.06092 0.62035 0.53437
 C1985 C 0.05410 0.62214 0.55694
 C1986 C 0.03096 0.62313 0.56184
 H1987 H -0.06571 0.62653 0.51384
 H1988 H -0.03838 0.62380 0.43491
 H1989 H -0.09217 0.62852 0.48354
 H1990 H -0.00021 0.62051 0.44684
 H1991 H 0.02782 0.61900 0.47519
 H1992 H -0.04152 0.62547 0.53905
 H1993 H -0.01328 0.62507 0.56744
 H1994 H 0.05195 0.61861 0.50020
 H1995 H 0.07865 0.61938 0.52999
 H1996 H 0.02539 0.62439 0.57924
 C1997 C 0.45087 0.37863 1.00999
 C1998 C 0.47435 0.37641 1.01404
 C1999 C 0.48148 0.37498 1.03686
 C2000 C 0.46575 0.37570 1.05460
 C2001 C 0.44257 0.37755 1.05027
 C2002 C 0.43536 0.37914 1.02779
 C2003 C 0.50430 0.37264 1.04197
 C2004 C 0.52034 0.37128 1.02498
 C2005 C 0.51424 0.37229 1.00194
 C2006 C 0.49091 0.37534 0.99637
 C2007 C 0.48497 0.37726 0.97334
 C2008 C 0.50113 0.37606 0.95635
 C2009 C 0.52384 0.37266 0.96147
 C2010 C 0.53074 0.37055 0.98431
 C2011 C 0.55394 0.36668 0.98850
 C2012 C 0.56952 0.36557 0.97090
 C2013 C 0.56273 0.36812 0.94838
 C2014 C 0.53974 0.37149 0.94380
 H2015 H 0.44382 0.37973 0.99328
 H2016 H 0.47165 0.37441 1.07189
 H2017 H 0.41757 0.38065 1.02384
 H2018 H 0.50985 0.37171 1.05939
 H2019 H 0.53752 0.36962 1.03061
 H2020 H 0.46789 0.37993 0.96778
 H2021 H 0.49573 0.37775 0.93894
 H2022 H 0.56074 0.36432 1.00518
 H2023 H 0.58709 0.36278 0.97509
 H2024 H 0.53419 0.37350 0.92647
 C2025 C 0.48575 -0.05107 0.63581
 C2026 C 0.48277 -0.02840 0.62894
 C2027 C 0.46063 -0.02145 0.62292
 C2028 C 0.44254 -0.03679 0.62338
 C2029 C 0.44604 -0.05931 0.62962
 C2030 C 0.46775 -0.06615 0.63603
 C2031 C 0.45667 0.00073 0.61623
 C2032 C 0.47414 0.01628 0.61532
 C2033 C 0.49652 0.01026 0.62100
 C2034 C 0.50093 -0.01250 0.62781
 C2035 C 0.52337 -0.01863 0.63314
 C2036 C 0.54083 -0.00308 0.63225
 C2037 C 0.53680 0.01921 0.62602
 C2038 C 0.51464 0.02623 0.62018
 C2039 C 0.51157 0.04907 0.61391
 C2040 C 0.52955 0.06420 0.61401
 C2041 C 0.55130 0.05724 0.62020
 C2042 C 0.55486 0.03459 0.62586
 H2043 H 0.50175 -0.05787 0.64108
 H2044 H 0.42582 -0.03131 0.61833
 H2045 H 0.47097 -0.08340 0.64119
 H2046 H 0.43981 0.00615 0.61160
 H2047 H 0.46941 0.03298 0.60997
 H2048 H 0.52817 -0.03543 0.63807
 H2049 H 0.55773 -0.00859 0.63662
 H2050 H 0.49551 0.05599 0.60902
 H2051 H 0.52628 0.08156 0.60925
 H2052 H 0.57162 0.02900 0.63067
 C2053 C -0.01530 0.55953 0.38551
 C2054 C -0.01868 0.53610 0.38215
 C2055 C -0.04123 0.52842 0.37973
 C2056 C -0.05937 0.54365 0.38040
 C2057 C -0.05567 0.56681 0.38337
 C2058 C -0.03348 0.57452 0.38608
 C2059 C -0.04568 0.50559 0.37650
 C2060 C -0.02825 0.49003 0.37528
 C2061 C -0.00545 0.49671 0.37724
 C2062 C -0.00057 0.52010 0.38093
 C2063 C 0.02224 0.52670 0.38316
 C2064 C 0.03969 0.51113 0.38166
 C2065 C 0.03525 0.48837 0.37783
 C2066 C 0.01265 0.48076 0.37559
 C2067 C 0.00916 0.45745 0.37170
 C2068 C 0.02726 0.44251 0.37021
 C2069 C 0.04954 0.45010 0.37246
 C2070 C 0.05338 0.47313 0.37625
 H2071 H 0.00113 0.56696 0.38764
 H2072 H -0.07644 0.53737 0.37836
 H2073 H -0.03003 0.59231 0.38856
 H2074 H -0.06289 0.49963 0.37476
 H2075 H -0.03338 0.47281 0.37275
 H2076 H 0.02731 0.54389 0.38609
 H2077 H 0.05691 0.51704 0.38345
 H2078 H -0.00729 0.45004 0.36967
 H2079 H 0.02365 0.42483 0.36725
 H2080 H 0.07053 0.47926 0.37814
 C2081 C -0.00748 1.04749 0.87742
 C2082 C -0.01081 1.02383 0.87735
 C2083 C -0.03333 1.01588 0.87582
 C2084 C -0.05153 1.03106 0.87414
 C2085 C -0.04795 1.05453 0.87413
 C2086 C -0.02565 1.06243 0.87586
 C2087 C -0.03768 0.99277 0.87597
 C2088 C -0.02023 0.97723 0.87759
 C2089 C 0.00254 0.98415 0.87904
 C2090 C 0.00736 1.00785 0.87877
 C2091 C 0.03016 1.01476 0.87975
 C2092 C 0.04765 0.99920 0.88088
 C2093 C 0.04328 0.97609 0.88123
 C2094 C 0.02069 0.96818 0.88052
 C2095 C 0.01728 0.94453 0.88129
 C2096 C 0.03546 0.92958 0.88224
 C2097 C 0.05777 0.93747 0.88251
 C2098 C 0.06149 0.96085 0.88218
 H2099 H 0.00892 1.05516 0.87877
 H2100 H -0.06855 1.02443 0.87297
 H2101 H -0.02202 1.08035 0.87605
 H2102 H -0.05486 0.98656 0.87481
 H2103 H -0.02527 0.95978 0.87746
 H2104 H 0.03522 1.03220 0.87946
 H2105 H 0.06487 1.00537 0.88146
 H2106 H 0.00080 0.93689 0.88121
 H2107 H 0.03191 0.91165 0.88265
 H2108 H 0.07862 0.96728 0.88253
 C2109 C 0.79939 0.62892 0.26593
 C2110 C 0.77603 0.62489 0.26898
 C2111 C 0.76805 0.62227 0.29142
 C2112 C 0.78295 0.62354 0.30979
 C2113 C 0.80602 0.62747 0.30642
 C2114 C 0.81402 0.63016 0.28431
 C2115 C 0.74523 0.61841 0.29549
 C2116 C 0.72994 0.61722 0.27783
 C2117 C 0.73689 0.61982 0.25515
 C2118 C 0.76036 0.62350 0.25063
 C2119 C 0.76737 0.62567 0.22793
 C2120 C 0.75205 0.62468 0.21027
 C2121 C 0.72913 0.62151 0.21440
 C2122 C 0.72114 0.61894 0.23684
 C2123 C 0.69764 0.61584 0.23994
 C2124 C 0.68288 0.61565 0.22162
 C2125 C 0.69088 0.61844 0.19954
 C2126 C 0.71412 0.62114 0.19608
 H2127 H 0.80703 0.63132 0.24961
 H2128 H 0.77648 0.62144 0.32680
 H2129 H 0.83175 0.63329 0.28109
 H2130 H 0.73906 0.61634 0.31261
 H2131 H 0.71270 0.61420 0.28265
 H2132 H 0.78469 0.62815 0.22308
 H2133 H 0.75825 0.62656 0.19314
 H2134 H 0.68995 0.61373 0.25627
 H2135 H 0.66502 0.61346 0.22488
 H2136 H 0.72058 0.62339 0.17909
 C2137 C 0.26178 0.87004 0.69900
 C2138 C 0.26626 0.87163 0.72246
 C2139 C 0.28920 0.87273 0.72921
 C2140 C 0.30667 0.87205 0.71314
 C2141 C 0.30193 0.87052 0.68999
 C2142 C 0.27930 0.86954 0.68316
 C2143 C 0.29470 0.87457 0.75200
 C2144 C 0.27800 0.87555 0.76839
 C2145 C 0.25486 0.87460 0.76271
 C2146 C 0.24888 0.87227 0.73938
 C2147 C 0.22575 0.87051 0.73381
 C2148 C 0.20907 0.87106 0.75032
 C2149 C 0.21458 0.87360 0.77306
 C2150 C 0.23752 0.87563 0.77961
 C2151 C 0.24210 0.87863 0.80287
 C2152 C 0.22477 0.87899 0.81882
 C2153 C 0.20215 0.87647 0.81238
 C2154 C 0.19720 0.87398 0.78933
 H2155 H 0.24494 0.86934 0.69223
 H2156 H 0.32407 0.87295 0.71875
 H2157 H 0.27502 0.86835 0.66543
 H2158 H 0.31221 0.87533 0.75726
 H2159 H 0.28393 0.87683 0.78551
 H2160 H 0.21989 0.86843 0.71675
 H2161 H 0.19158 0.86948 0.74517
 H2162 H 0.25888 0.88083 0.80945
 H2163 H 0.22927 0.88111 0.83642
 H2164 H 0.17980 0.87208 0.78400
 C2165 C 0.20177 0.39027 0.25948
 C2166 C 0.22476 0.38543 0.26380
 C2167 C 0.23140 0.38271 0.28665
 C2168 C 0.21542 0.38405 0.30418
 C2169 C 0.19259 0.38804 0.29943
 C2170 C 0.18608 0.39143 0.27695
 C2171 C 0.25391 0.37836 0.29190
 C2172 C 0.27008 0.37653 0.27502
 C2173 C 0.26435 0.37877 0.25197
 C2174 C 0.24126 0.38313 0.24627
 C2175 C 0.23537 0.38471 0.22321
 C2176 C 0.25138 0.38240 0.20631
 C2177 C 0.27395 0.37852 0.21154
 C2178 C 0.28088 0.37667 0.23439
 C2179 C 0.30412 0.37289 0.23858
 C2180 C 0.31960 0.37115 0.22086
 C2181 C 0.31258 0.37301 0.19835
 C2182 C 0.28963 0.37657 0.19388
 H2183 H 0.19519 0.39323 0.24281
 H2184 H 0.22072 0.38143 0.32151
 H2185 H 0.16862 0.39485 0.27272
 H2186 H 0.25911 0.37627 0.30933
 H2187 H 0.28698 0.37307 0.28068
 H2188 H 0.21837 0.38750 0.21748
 H2189 H 0.24599 0.38374 0.18886
 H2190 H 0.31103 0.37138 0.25531
 H2191 H 0.33722 0.36836 0.22490
 H2192 H 0.28392 0.37816 0.17656
 C2193 C 0.87047 0.74444 0.30805
 C2194 C 0.87247 0.73979 0.28463
 C2195 C 0.87353 0.71682 0.27800
 C2196 C 0.87284 0.69953 0.29413
 C2197 C 0.87095 0.70440 0.31722
 C2198 C 0.86972 0.72703 0.32398
 C2199 C 0.87526 0.71107 0.25527
 C2200 C 0.87585 0.72759 0.23873
 C2201 C 0.87483 0.75075 0.24426
 C2202 C 0.87337 0.75699 0.26761
 C2203 C 0.87297 0.78018 0.27312
 C2204 C 0.87379 0.79670 0.25652
 C2205 C 0.87488 0.79091 0.23374
 C2206 C 0.87532 0.76789 0.22720
 C2207 C 0.87609 0.76304 0.20378
 C2208 C 0.87651 0.78027 0.18774
 C2209 C 0.87622 0.80297 0.19432
 C2210 C 0.87545 0.80813 0.21742
 H2211 H 0.86931 0.76132 0.31469
 H2212 H 0.87368 0.68211 0.28855
 H2213 H 0.86816 0.73136 0.34168
 H2214 H 0.87612 0.69352 0.25016
 H2215 H 0.87730 0.72149 0.22169
 H2216 H 0.87218 0.78623 0.29023
 H2217 H 0.87347 0.81428 0.26161
 H2218 H 0.87619 0.74614 0.19713
 H2219 H 0.87704 0.77569 0.17004
 H2220 H 0.87504 0.82562 0.22280
 C2221 C 0.63305 0.30110 0.76151
 C2222 C 0.62909 0.27776 0.76476
 C2223 C 0.62605 0.27007 0.78726
 C2224 C 0.62721 0.28513 0.80551
 C2225 C 0.63107 0.30817 0.80193
 C2226 C 0.63397 0.31594 0.77976
 C2227 C 0.62178 0.24737 0.79152
 C2228 C 0.62015 0.23200 0.77397
 C2229 C 0.62290 0.23870 0.75124
 C2230 C 0.62791 0.26187 0.74656
 C2231 C 0.63178 0.26830 0.72391
 C2232 C 0.63073 0.25274 0.70641
 C2233 C 0.62549 0.23021 0.71063
 C2234 C 0.62118 0.22290 0.73304
 C2235 C 0.61531 0.19999 0.73629
 C2236 C 0.61472 0.18495 0.71826
 C2237 C 0.61975 0.19207 0.69626
 C2238 C 0.62478 0.21487 0.69251
 H2239 H 0.63525 0.30859 0.74509
 H2240 H 0.62479 0.27889 0.82255
 H2241 H 0.63701 0.33367 0.77642
 H2242 H 0.61958 0.24138 0.80869
 H2243 H 0.61703 0.21481 0.77895
 H2244 H 0.63605 0.28528 0.71905
 H2245 H 0.63406 0.25846 0.68934
 H2246 H 0.61096 0.19302 0.75250
 H2247 H 0.61039 0.16752 0.72170
 H2248 H 0.62860 0.22063 0.67555
 C2249 C 0.76318 0.19112 0.86987
 C2250 C 0.76755 0.21458 0.87182
 C2251 C 0.79042 0.22142 0.87340
 C2252 C 0.80791 0.20545 0.87306
 C2253 C 0.80331 0.18232 0.87111
 C2254 C 0.78077 0.17536 0.86952
 C2255 C 0.79587 0.24421 0.87530
 C2256 C 0.77915 0.26057 0.87565
 C2257 C 0.75607 0.25482 0.87413
 C2258 C 0.75015 0.23143 0.87222
 C2259 C 0.72705 0.22571 0.87079
 C2260 C 0.71033 0.24214 0.87118
 C2261 C 0.71581 0.26494 0.87299
 C2262 C 0.73872 0.27169 0.87448
 C2263 C 0.74324 0.29512 0.87622
 C2264 C 0.72581 0.31095 0.87647
 C2265 C 0.70321 0.30419 0.87503
 C2266 C 0.69838 0.28106 0.87330
 H2267 H 0.74640 0.18428 0.86853
 H2268 H 0.82524 0.21119 0.87427
 H2269 H 0.77662 0.15762 0.86795
 H2270 H 0.81334 0.24950 0.87651
 H2271 H 0.78504 0.27768 0.87718
 H2272 H 0.72121 0.20858 0.86935
 H2273 H 0.69284 0.23688 0.87003
 H2274 H 0.76004 0.30192 0.87738
 H2275 H 0.73017 0.32866 0.87781
 H2276 H 0.68098 0.27551 0.87211
 C2277 C 0.29890 0.76203 0.60978
 C2278 C 0.27594 0.76548 0.61538
 C2279 C 0.26889 0.78793 0.61994
 C2280 C 0.28445 0.80585 0.61966
 C2281 C 0.30727 0.80191 0.61496
 C2282 C 0.31419 0.77989 0.60968
 C2283 C 0.24642 0.79241 0.62512
 C2284 C 0.23066 0.77514 0.62607
 C2285 C 0.23679 0.75242 0.62203
 C2286 C 0.25984 0.74748 0.61675
 C2287 C 0.26608 0.72469 0.61337
 C2288 C 0.25041 0.70733 0.61491
 C2289 C 0.22785 0.71186 0.61975
 C2290 C 0.22066 0.73446 0.62328
 C2291 C 0.19752 0.73811 0.62789
 C2292 C 0.18238 0.72020 0.62889
 C2293 C 0.18953 0.69790 0.62542
 C2294 C 0.21240 0.69384 0.62099
 H2295 H 0.30573 0.74575 0.60548
 H2296 H 0.27883 0.82280 0.62373
 H2297 H 0.33167 0.77630 0.60567
 H2298 H 0.24092 0.80952 0.62860
 H2299 H 0.21377 0.78027 0.63033
 H2300 H 0.28310 0.71953 0.60971
 H2301 H 0.25605 0.69012 0.61224
 H2302 H 0.19038 0.75458 0.63065
 H2303 H 0.16485 0.72398 0.63250
 H2304 H 0.21814 0.67668 0.61819
   
