data_POSCAR
  _audit_creation_date              2014-09-24
  _audit_creation_method            'ToBaCCo'
  _symmetry_space_group_name_H-M    'P1'
  _symmetry_Int_Tables_number       1
  _symmetry_cell_setting            triclinic
  loop_
  _symmetry_equiv_pos_as_xyz
 x,y,z
_cell_length_a 39.8534
_cell_length_b 39.5119
_cell_length_c 39.3581
_cell_angle_alpha 90.139400
_cell_angle_beta 90.045900
_cell_angle_gamma 90.223700
loop_
  _atom_site_label
  _atom_site_type_symbol
  _atom_site_fract_x
  _atom_site_fract_y
  _atom_site_fract_z
O1 O 0.35962 0.31333 -0.02485
 O2 O 0.31296 0.36154 0.03856
 O3 O 0.36028 0.31623 0.04101
 O4 O 0.31369 0.35957 -0.02602
 O5 O 0.27412 0.32029 -0.02496
 O6 O 0.32212 0.27561 0.04202
 O7 O 0.27369 0.32208 0.04028
 O8 O 0.32062 0.27349 -0.02495
 Cu9 Cu 0.34065 0.34140 0.00719
 Cu10 Cu 0.29392 0.29353 0.00848
 C11 C 0.34818 0.28543 -0.03604
 C12 C 0.28474 0.35102 0.04916
 C13 C 0.34967 0.28825 0.05257
 C14 C 0.28557 0.34821 -0.03622
 O15 O 0.68225 0.64077 0.02617
 O16 O 0.63675 0.68447 -0.04124
 O17 O 0.68252 0.63831 -0.03905
 O18 O 0.63774 0.68844 0.02462
 O19 O 0.67821 0.72674 0.02453
 O20 O 0.72137 0.67813 -0.04293
 O21 O 0.67545 0.72458 -0.04296
 O22 O 0.72359 0.67790 0.02232
 Cu23 Cu 0.65570 0.65935 -0.00710
 Cu24 Cu 0.70344 0.70616 -0.00970
 C25 C 0.71143 0.65069 0.03449
 C26 C 0.64811 0.71175 -0.05374
 C27 C 0.70964 0.64947 -0.05185
 C28 C 0.65037 0.71578 0.03589
 O29 O 0.68497 0.35661 0.96987
 O30 O 0.63897 0.31541 1.03898
 O31 O 0.68594 0.36131 1.03394
 O32 O 0.63759 0.31117 0.97316
 O33 O 0.67654 0.27160 0.97281
 O34 O 0.72431 0.32135 1.03690
 O35 O 0.67635 0.27435 1.03990
 O36 O 0.72442 0.31752 0.97214
 Cu37 Cu 0.65781 0.33981 1.00388
 Cu38 Cu 0.70399 0.29178 1.00586
 C39 C 0.71323 0.34521 0.96042
 C40 C 0.64934 0.28751 1.05084
 C41 C 0.71414 0.35091 1.04456
 C42 C 0.64873 0.28320 0.96214
 O43 O 0.36447 0.68678 1.03057
 O44 O 0.31776 0.64015 0.96565
 O45 O 0.36341 0.68687 0.96490
 O46 O 0.31798 0.64026 1.03068
 O47 O 0.27858 0.67929 1.03151
 O48 O 0.32518 0.72716 0.96582
 O49 O 0.27873 0.67968 0.96528
 O50 O 0.32535 0.72617 1.03239
 Cu51 Cu 0.34489 0.65973 0.99798
 Cu52 Cu 0.29805 0.70716 0.99880
 C53 C 0.35316 0.71427 1.04261
 C54 C 0.29019 0.65162 0.95454
 C55 C 0.35241 0.71504 0.95432
 C56 C 0.29002 0.65104 1.04167
 O57 O 0.02881 0.31442 0.36205
 O58 O -0.03070 0.36659 0.31473
 O59 O -0.03535 0.31846 0.35909
 O60 O 0.03372 0.36361 0.31801
 O61 O 0.03358 0.32597 0.27644
 O62 O -0.03630 0.28019 0.31812
 O63 O -0.03164 0.32882 0.27332
 O64 O 0.02873 0.27631 0.32098
 Cu65 Cu -0.00074 0.34451 0.34258
 Cu66 Cu -0.00130 0.29903 0.29296
 C67 C 0.03816 0.28604 0.35028
 C68 C -0.04109 0.35691 0.28580
 C69 C -0.04748 0.29159 0.34615
 C70 C 0.04503 0.35298 0.28986
 O71 O 0.03138 0.68305 0.64234
 O72 O -0.03232 0.63640 0.69011
 O73 O -0.03352 0.68438 0.64534
 O74 O 0.03142 0.63577 0.68854
 O75 O 0.03329 0.67336 0.73007
 O76 O -0.03187 0.72345 0.68540
 O77 O -0.03124 0.67446 0.73123
 O78 O 0.03403 0.72135 0.68318
 Cu79 Cu -0.00093 0.65631 0.66241
 Cu80 Cu 0.00126 0.70230 0.71141
 C81 C 0.04351 0.71027 0.65436
 C82 C -0.04181 0.64649 0.71917
 C83 C -0.04376 0.71228 0.65751
 C84 C 0.04232 0.64520 0.71737
 O85 O 0.96274 0.69284 0.35774
 O86 O 1.02672 0.64563 0.31110
 O87 O 1.02647 0.68907 0.36087
 O88 O 0.96243 0.64808 0.30904
 O89 O 0.96509 0.68876 0.27084
 O90 O 1.03021 0.73098 0.32414
 O91 O 1.03002 0.68647 0.27305
 O92 O 0.96555 0.73461 0.32068
 Cu93 Cu 0.99419 0.66480 0.33826
 Cu94 Cu 0.99807 0.71440 0.29333
 C95 C 0.95401 0.72213 0.34805
 C96 C 1.03860 0.65738 0.28363
 C97 C 1.03836 0.71765 0.35242
 C98 C 0.95333 0.66050 0.28085
 O99 O 0.97135 0.31187 0.63868
 O100 O 1.03740 0.35785 0.68416
 O101 O 1.03531 0.31182 0.63706
 O102 O 0.97259 0.35950 0.68455
 O103 O 0.97118 0.32020 0.72426
 O104 O 1.03413 0.27149 0.67569
 O105 O 1.03685 0.31890 0.72427
 O106 O 0.96981 0.27252 0.67847
 Cu107 Cu 1.00422 0.33928 0.65732
 Cu108 Cu 1.00333 0.29195 0.70495
 C109 C 0.95979 0.28417 0.65020
 C110 C 1.04790 0.34670 0.71240
 C111 C 1.04400 0.28265 0.64705
 C112 C 0.96140 0.34848 0.71260
 O113 O 0.36042 0.02817 0.31579
 O114 O 0.31620 -0.03997 0.35983
 O115 O 0.36260 -0.03691 0.31391
 O116 O 0.31237 0.02474 0.36075
 O117 O 0.27462 0.02490 0.31973
 O118 O 0.32367 -0.04017 0.27402
 O119 O 0.27691 -0.04084 0.32020
 O120 O 0.32396 0.02536 0.27362
 Cu121 Cu 0.34169 -0.00568 0.34156
 Cu122 Cu 0.29586 -0.00746 0.29273
 C123 C 0.35089 0.03718 0.28644
 C124 C 0.28885 -0.05166 0.34809
 C125 C 0.35180 -0.04918 0.28612
 C126 C 0.28442 0.03457 0.34895
 O127 O 0.68693 -0.02483 0.63991
 O128 O 0.63829 0.03902 0.68590
 O129 O 0.68396 0.04031 0.63871
 O130 O 0.63995 -0.02583 0.68612
 O131 O 0.67844 -0.02412 0.72641
 O132 O 0.72296 0.04294 0.67855
 O133 O 0.67715 0.04145 0.72591
 O134 O 0.72647 -0.02267 0.67917
 Cu135 Cu 0.65847 0.00686 0.65869
 Cu136 Cu 0.70527 0.00938 0.70653
 C137 C 0.71547 -0.03386 0.65096
 C138 C 0.64906 0.05077 0.71393
 C139 C 0.71109 0.05272 0.65024
 C140 C 0.65087 -0.03561 0.71473
 O141 O 0.36026 0.96916 0.68395
 O142 O 0.31200 1.03285 0.63863
 O143 O 0.35743 1.03440 0.68594
 O144 O 0.31000 0.96821 0.64151
 O145 O 0.27369 0.96543 0.68381
 O146 O 0.31835 1.03638 0.72563
 O147 O 0.27201 1.03036 0.67734
 O148 O 0.32460 0.97095 0.72679
 Cu149 Cu 0.33870 1.00112 0.65857
 Cu150 Cu 0.29343 1.00085 0.70766
 C151 C 0.35179 0.96030 0.71364
 C152 C 0.28298 1.04092 0.64886
 C153 C 0.34612 1.04657 0.71354
 C154 C 0.28352 0.95590 0.65466
 O155 O 0.68450 1.02978 0.36684
 O156 O 0.64059 0.96499 0.31744
 O157 O 0.68459 0.96494 0.36630
 O158 O 0.63840 1.03015 0.31972
 O159 O 0.67709 1.03051 0.27964
 O160 O 0.72503 0.96656 0.32798
 O161 O 0.68092 0.96507 0.27896
 O162 O 0.72424 1.03248 0.32798
 Cu163 Cu 0.65804 0.99742 0.34635
 Cu164 Cu 0.70595 0.99911 0.29976
 C165 C 0.71240 1.04154 0.35659
 C166 C 0.65296 0.95401 0.28983
 C167 C 0.71289 0.95501 0.35552
 C168 C 0.64892 1.04039 0.29110
 C169 C 0.91255 0.76413 0.52439
 C170 C 0.91320 0.76534 0.48996
 C171 C 0.88918 0.78850 0.48015
 N172 N 0.87377 0.80160 0.50804
 C173 C 0.88739 0.78585 0.53541
 C174 C 0.88348 0.79868 0.44600
 C175 C 0.86337 0.82690 0.43932
 C176 C 0.87108 0.85262 0.41687
 C177 C 0.84408 0.87425 0.41695
 C178 C 0.82036 0.86036 0.43870
 N179 N 0.83307 0.83231 0.45343
 C180 C 0.78742 0.87208 0.44477
 C181 C 0.77511 0.86936 0.47852
 C182 C 0.74225 0.87357 0.48940
 C183 C 0.74297 0.87309 0.52421
 C184 C 0.77630 0.87039 0.53367
 N185 N 0.79577 0.86726 0.50580
 C186 C 0.78922 0.87628 0.56672
 C187 C 0.81727 0.85700 0.57825
 C188 C 0.83249 0.85911 0.60994
 C189 C 0.85824 0.83616 0.61026
 C190 C 0.85714 0.81876 0.57974
 N191 N 0.83228 0.83180 0.56028
 C192 C 0.87870 0.79167 0.57033
 H193 H 0.93016 0.74947 0.53902
 H194 H 0.93079 0.75146 0.47448
 H195 H 0.82415 0.82203 0.53710
 H196 H 0.89410 0.85583 0.40263
 H197 H 0.84278 0.89791 0.40330
 H198 H 0.71979 0.87747 0.47475
 H199 H 0.72148 0.87616 0.54071
 H200 H 0.87621 0.83367 0.63065
 H201 H 0.82042 0.81586 0.46980
 H202 H 0.82595 0.87446 0.63156
 C203 C 0.19395 0.06786 0.47858
 C204 C 0.19405 0.06812 0.51345
 C205 C 0.19719 0.10168 0.52327
 N206 N 0.19823 0.12206 0.49574
 C207 C 0.19652 0.10131 0.46843
 C208 C 0.20103 0.11336 0.55702
 C209 C 0.18166 0.14137 0.56825
 C210 C 0.18016 0.15430 0.60104
 C211 C 0.15594 0.17913 0.60108
 C212 C 0.14320 0.18089 0.56830
 N213 N 0.15863 0.15734 0.54893
 C214 C 0.11584 0.20094 0.55707
 C215 C 0.10412 0.19696 0.52342
 C216 C 0.07077 0.19433 0.51377
 C217 C 0.07043 0.19409 0.47891
 C218 C 0.10361 0.19609 0.46864
 N219 N 0.12427 0.19761 0.49584
 C220 C 0.11450 0.19962 0.43470
 C221 C 0.14080 0.17855 0.42262
 C222 C 0.15094 0.17423 0.38917
 C223 C 0.17530 0.14941 0.38911
 C224 C 0.17949 0.13910 0.42254
 N225 N 0.15782 0.15649 0.44230
 C226 C 0.20009 0.11231 0.43448
 H227 H 0.19231 0.04569 0.46244
 H228 H 0.19229 0.04619 0.52979
 H229 H 0.15324 0.15189 0.46777
 H230 H 0.19336 0.14571 0.62337
 H231 H 0.14761 0.19250 0.62347
 H232 H 0.04903 0.19307 0.53020
 H233 H 0.04839 0.19282 0.46286
 H234 H 0.18660 0.13887 0.36653
 H235 H 0.15159 0.15032 0.52452
 H236 H 0.14058 0.18571 0.36663
 C237 C 0.24897 0.89516 0.51930
 C238 C 0.25004 0.89375 0.48488
 C239 C 0.22357 0.87334 0.47421
 N240 N 0.20583 0.86293 0.50179
 C241 C 0.22154 0.87614 0.52950
 C242 C 0.21400 0.86790 0.43955
 C243 C 0.18413 0.84977 0.43178
 C244 C 0.16367 0.85521 0.40394
 C245 C 0.13956 0.83040 0.40409
 C246 C 0.14415 0.81160 0.43349
 N247 N 0.17162 0.82365 0.45010
 C248 C 0.12498 0.78294 0.44401
 C249 C 0.13038 0.76985 0.47703
 C250 C 0.12778 0.73633 0.48680
 C251 C 0.12773 0.73602 0.52168
 C252 C 0.13230 0.76928 0.53217
 N253 N 0.13426 0.78977 0.50470
 C254 C 0.12996 0.78223 0.56574
 C255 C 0.14361 0.81482 0.57148
 C256 C 0.13069 0.84031 0.59185
 C257 C 0.15365 0.86650 0.59130
 C258 C 0.17950 0.85637 0.57019
 N259 N 0.17260 0.82553 0.55718
 C260 C 0.20912 0.87459 0.56341
 H261 H 0.26574 0.91064 0.53431
 H262 H 0.26750 0.90854 0.47017
 H263 H 0.18840 0.81122 0.54163
 H264 H 0.16507 0.87538 0.38551
 H265 H 0.12144 0.82729 0.38403
 H266 H 0.12509 0.71435 0.47055
 H267 H 0.12428 0.71357 0.53676
 H268 H 0.15104 0.89065 0.60403
 H269 H 0.18312 0.81262 0.47113
 H270 H 0.10671 0.84082 0.60466
 C271 C 0.89679 0.25413 0.47900
 C272 C 0.89869 0.25281 0.51340
 C273 C 0.87932 0.22557 0.52362
 N274 N 0.86550 0.21014 0.49601
 C275 C 0.87591 0.22784 0.46839
 C276 C 0.87766 0.21301 0.55743
 C277 C 0.85801 0.18431 0.56422
 C278 C 0.86673 0.15739 0.58478
 C279 C 0.83914 0.13630 0.58600
 C280 C 0.81437 0.15143 0.56652
 N281 N 0.82668 0.17987 0.55215
 C282 C 0.78108 0.14017 0.56150
 C283 C 0.76804 0.14341 0.52815
 C284 C 0.73480 0.14088 0.51786
 C285 C 0.73499 0.14068 0.48298
 C286 C 0.76829 0.14114 0.47309
 N287 N 0.78830 0.14395 0.50058
 C288 C 0.78083 0.13364 0.44036
 C289 C 0.80988 0.15135 0.42882
 C290 C 0.82770 0.14524 0.39916
 C291 C 0.85365 0.16820 0.39824
 C292 C 0.85003 0.18938 0.42605
 N293 N 0.82365 0.17857 0.44483
 C294 C 0.87009 0.21822 0.43373
 H295 H 0.91145 0.27171 0.46424
 H296 H 0.91450 0.26931 0.52840
 H297 H 0.81384 0.19097 0.46602
 H298 H 0.89071 0.15300 0.59688
 H299 H 0.83809 0.11213 0.59879
 H300 H 0.71241 0.13878 0.53300
 H301 H 0.71311 0.13868 0.46678
 H302 H 0.87350 0.16805 0.37958
 H303 H 0.81329 0.19702 0.53723
 H304 H 0.82315 0.12668 0.37959
 C305 C 0.52132 0.92483 0.79622
 C306 C 0.48698 0.92472 0.79670
 C307 C 0.47687 0.89135 0.79395
 N308 N 0.50399 0.87083 0.79387
 C309 C 0.53145 0.89122 0.79514
 C310 C 0.44344 0.88017 0.78844
 C311 C 0.43153 0.85040 0.80493
 C312 C 0.39879 0.83805 0.80418
 C313 C 0.39768 0.81024 0.82500
 C314 C 0.42937 0.80665 0.83878
 N315 N 0.44982 0.83111 0.82644
 C316 C 0.43898 0.78076 0.86152
 C317 C 0.47197 0.76714 0.86050
 C318 C 0.48110 0.73594 0.87366
 C319 C 0.51518 0.73414 0.87183
 C320 C 0.52601 0.76394 0.85696
 N321 N 0.49950 0.78361 0.84888
 C322 C 0.56002 0.77361 0.85325
 C323 C 0.56918 0.79796 0.82916
 C324 C 0.59420 0.79382 0.80537
 C325 C 0.59459 0.82291 0.78618
 C326 C 0.57092 0.84465 0.80012
 N327 N 0.55453 0.82843 0.82548
 C328 C 0.56481 0.87888 0.79122
 H329 H 0.53608 0.94766 0.79668
 H330 H 0.47122 0.94691 0.79821
 H331 H 0.53637 0.83870 0.84157
 H332 H 0.37723 0.84814 0.79113
 H333 H 0.37598 0.79419 0.82896
 H334 H 0.46514 0.71639 0.88408
 H335 H 0.53005 0.71319 0.88085
 H336 H 0.60955 0.82644 0.76360
 H337 H 0.47405 0.83628 0.83479
 H338 H 0.60941 0.77152 0.80136
 C339 C 0.51795 0.07849 0.19702
 C340 C 0.48347 0.07821 0.19648
 C341 C 0.47341 0.11030 0.20626
 N342 N 0.50025 0.13043 0.21204
 C343 C 0.52743 0.11075 0.20708
 C344 C 0.44014 0.12069 0.21210
 C345 C 0.42927 0.15179 0.19792
 C346 C 0.39748 0.16578 0.20066
 C347 C 0.39734 0.19444 0.18081
 C348 C 0.42873 0.19691 0.16590
 N349 N 0.44800 0.17102 0.17664
 C350 C 0.43895 0.22245 0.14288
 C351 C 0.47279 0.23430 0.14244
 C352 C 0.48294 0.26575 0.13068
 C353 C 0.51726 0.26593 0.13092
 C354 C 0.52736 0.23459 0.14284
 N355 N 0.50005 0.21582 0.15113
 C356 C 0.56120 0.22303 0.14346
 C357 C 0.57155 0.19782 0.16676
 C358 C 0.60295 0.19586 0.18178
 C359 C 0.60288 0.16740 0.20199
 C360 C 0.57119 0.15296 0.19921
 N361 N 0.55242 0.17179 0.17767
 C362 C 0.56046 0.12178 0.21356
 H363 H 0.53424 0.05746 0.19099
 H364 H 0.46755 0.05690 0.18996
 H365 H 0.52899 0.16517 0.16810
 H366 H 0.37608 0.15623 0.21451
 H367 H 0.37645 0.21161 0.17793
 H368 H 0.46736 0.28654 0.12249
 H369 H 0.53289 0.28684 0.12286
 H370 H 0.62424 0.15823 0.21610
 H371 H 0.47146 0.16469 0.16711
 H372 H 0.62377 0.21324 0.17871
 C373 C 0.51492 0.25837 0.89273
 C374 C 0.48075 0.25954 0.89167
 C375 C 0.46991 0.23051 0.87507
 N376 N 0.49673 0.21221 0.86486
 C377 C 0.52442 0.22892 0.87610
 C378 C 0.43571 0.22053 0.87155
 C379 C 0.42530 0.19971 0.84413
 C380 C 0.39466 0.20227 0.82770
 C381 C 0.39456 0.17856 0.80213
 C382 C 0.42512 0.16204 0.80355
 N383 N 0.44405 0.17560 0.82877
 C384 C 0.43523 0.13611 0.78089
 C385 C 0.46929 0.13330 0.77050
 C386 C 0.47983 0.11838 0.74048
 C387 C 0.51402 0.11752 0.74140
 C388 C 0.52378 0.13247 0.77180
 N389 N 0.49626 0.14262 0.78928
 C390 C 0.55676 0.13216 0.78563
 C391 C 0.56223 0.14695 0.81780
 C392 C 0.58174 0.13384 0.84373
 C393 C 0.58204 0.15759 0.86937
 C394 C 0.56262 0.18437 0.85826
 N395 N 0.54942 0.17705 0.82748
 C396 C 0.55735 0.21511 0.87560
 H397 H 0.53023 0.27673 0.90593
 H398 H 0.46581 0.27951 0.90268
 H399 H 0.53496 0.19322 0.81248
 H400 H 0.37500 0.22049 0.83242
 H401 H 0.37479 0.17511 0.78356
 H402 H 0.46467 0.10834 0.72000
 H403 H 0.52919 0.10543 0.72225
 H404 H 0.59429 0.15493 0.89375
 H405 H 0.46710 0.16660 0.83717
 H406 H 0.59380 0.10936 0.84452
 C407 C 0.48738 0.74026 0.11222
 C408 C 0.52159 0.74057 0.11193
 C409 C 0.53186 0.77010 0.12815
 N410 N 0.50455 0.78760 0.13858
 C411 C 0.47722 0.76952 0.12868
 C412 C 0.56502 0.78375 0.12790
 C413 C 0.57120 0.81450 0.14519
 C414 C 0.59126 0.84093 0.13402
 C415 C 0.59132 0.86497 0.15941
 C416 C 0.57124 0.85251 0.18524
 N417 N 0.55795 0.82240 0.17580
 C418 C 0.56509 0.86826 0.21683
 C419 C 0.53181 0.86817 0.22996
 C420 C 0.52151 0.88379 0.25981
 C421 C 0.48730 0.88388 0.25963
 C422 C 0.47721 0.86818 0.22978
 N423 N 0.50454 0.85845 0.21177
 C424 C 0.44403 0.86781 0.21653
 C425 C 0.43834 0.85201 0.18498
 C426 C 0.41841 0.86409 0.15887
 C427 C 0.41831 0.83959 0.13397
 C428 C 0.43822 0.81347 0.14576
 N429 N 0.45152 0.82185 0.17617
 C430 C 0.44394 0.78238 0.12936
 H431 H 0.47246 0.72151 0.09912
 H432 H 0.53636 0.72200 0.09861
 H433 H 0.46637 0.80637 0.19150
 H434 H 0.60336 0.84347 0.10957
 H435 H 0.60359 0.88941 0.15825
 H436 H 0.53633 0.89649 0.27894
 H437 H 0.47234 0.89663 0.27851
 H438 H 0.40581 0.84131 0.10963
 H439 H 0.54283 0.80674 0.19076
 H440 H 0.40597 0.88833 0.15747
 C441 C 0.92419 0.47610 0.79189
 C442 C 0.92484 0.51059 0.79122
 C443 C 0.89226 0.52113 0.79700
 N444 N 0.87159 0.49425 0.80063
 C445 C 0.89097 0.46653 0.79656
 C446 C 0.88198 0.55518 0.79817
 C447 C 0.85845 0.56511 0.82270
 C448 C 0.86311 0.59212 0.84449
 C449 C 0.83665 0.59149 0.86674
 C450 C 0.81558 0.56518 0.85676
 N451 N 0.82996 0.54819 0.83069
 C452 C 0.78353 0.55769 0.87065
 C453 C 0.77247 0.52325 0.87280
 C454 C 0.74260 0.51235 0.88736
 C455 C 0.74326 0.47795 0.88780
 C456 C 0.77406 0.46806 0.87501
 N457 N 0.79163 0.49585 0.86510
 C458 C 0.78571 0.43389 0.87457
 C459 C 0.80941 0.42268 0.85006
 C460 C 0.81171 0.38999 0.83756
 C461 C 0.83811 0.38936 0.81526
 C462 C 0.85042 0.42219 0.81283
 N463 N 0.83298 0.44209 0.83480
 C464 C 0.87837 0.43306 0.79289
 H465 H 0.94580 0.45999 0.78846
 H466 H 0.94705 0.52588 0.78746
 H467 H 0.83853 0.46690 0.84144
 H468 H 0.88444 0.60913 0.84557
 H469 H 0.83424 0.60790 0.88861
 H470 H 0.72245 0.52670 0.89838
 H471 H 0.72308 0.46225 0.89726
 H472 H 0.84747 0.36638 0.80408
 H473 H 0.81955 0.52800 0.81712
 H474 H 0.79588 0.36849 0.84331
 C475 C 0.21422 0.52334 0.07760
 C476 C 0.21500 0.48885 0.07762
 C477 C 0.20708 0.47882 0.11031
 N478 N 0.20197 0.50606 0.13043
 C479 C 0.20728 0.53351 0.11064
 C480 C 0.20482 0.44487 0.12105
 C481 C 0.17898 0.43552 0.14337
 C482 C 0.15711 0.40901 0.13741
 C483 C 0.13369 0.41010 0.16291
 C484 C 0.14301 0.43610 0.18485
 N485 N 0.16989 0.45256 0.17174
 C486 C 0.12793 0.44376 0.21662
 C487 C 0.12628 0.47823 0.22774
 C488 C 0.11223 0.48944 0.25800
 C489 C 0.11197 0.52389 0.25697
 C490 C 0.12447 0.53343 0.22560
 N491 N 0.13393 0.50543 0.20805
 C492 C 0.12489 0.56745 0.21330
 C493 C 0.14960 0.57853 0.18961
 C494 C 0.16115 0.61147 0.18645
 C495 C 0.18427 0.61178 0.16068
 C496 C 0.18819 0.57861 0.14970
 N497 N 0.16629 0.55873 0.16721
 C498 C 0.20960 0.56738 0.12282
 H499 H 0.21889 0.53904 0.05562
 H500 H 0.22011 0.47319 0.05570
 H501 H 0.16095 0.53348 0.16249
 H502 H 0.15685 0.39205 0.11578
 H503 H 0.11155 0.39426 0.16403
 H504 H 0.10162 0.47525 0.27870
 H505 H 0.10285 0.53988 0.27724
 H506 H 0.19506 0.63472 0.15075
 H507 H 0.18313 0.47248 0.18302
 H508 H 0.15435 0.63338 0.20136
 C509 C 0.79987 0.48333 0.06878
 C510 C 0.79926 0.51804 0.06825
 C511 C 0.79682 0.52850 0.10181
 N512 N 0.79795 0.50163 0.12282
 C513 C 0.79946 0.47409 0.10266
 C514 C 0.79051 0.56158 0.11366
 C515 C 0.80769 0.57229 0.14353
 C516 C 0.80055 0.60022 0.16362
 C517 C 0.82430 0.60115 0.18900
 C518 C 0.84682 0.57529 0.18263
 N519 N 0.83585 0.55720 0.15556
 C520 C 0.87763 0.56932 0.19978
 C521 C 0.89016 0.53542 0.20249
 C522 C 0.92070 0.52616 0.21676
 C523 C 0.92157 0.49177 0.21753
 C524 C 0.89105 0.48018 0.20533
 N525 N 0.87213 0.50695 0.19541
 C526 C 0.88109 0.44535 0.20498
 C527 C 0.85845 0.43265 0.18005
 C528 C 0.85777 0.39963 0.16771
 C529 C 0.83346 0.39807 0.14300
 C530 C 0.82039 0.43029 0.14017
 N531 N 0.83584 0.45117 0.16263
 C532 C 0.79771 0.44066 0.11471
 H533 H 0.80087 0.46682 0.04684
 H534 H 0.79996 0.53370 0.04574
 H535 H 0.82986 0.47632 0.16701
 H536 H 0.78056 0.61830 0.16127
 H537 H 0.82392 0.61849 0.21024
 H538 H 0.94061 0.54157 0.22700
 H539 H 0.94269 0.47721 0.22648
 H540 H 0.82815 0.37631 0.12712
 H541 H 0.84885 0.53749 0.14382
 H542 H 0.87455 0.37910 0.17381
 C543 C 0.13397 0.51317 0.74058
 C544 C 0.13504 0.47847 0.73961
 C545 C 0.13709 0.46783 0.77303
 N546 N 0.13674 0.49456 0.79433
 C547 C 0.13390 0.52227 0.77461
 C548 C 0.13617 0.43386 0.78377
 C549 C 0.15897 0.42281 0.80893
 C550 C 0.17232 0.39060 0.81075
 C551 C 0.19579 0.39122 0.83635
 C552 C 0.19584 0.42368 0.84999
 N553 N 0.17369 0.44285 0.83264
 C554 C 0.21733 0.43534 0.87640
 C555 C 0.22783 0.46995 0.87811
 C556 C 0.25759 0.48080 0.89271
 C557 C 0.25737 0.51524 0.89236
 C558 C 0.22799 0.52519 0.87623
 N559 N 0.21006 0.49718 0.86739
 C560 C 0.21623 0.55930 0.87339
 C561 C 0.18539 0.56596 0.85657
 C562 C 0.16334 0.59194 0.86392
 C563 C 0.13942 0.59213 0.83880
 C564 C 0.14575 0.56455 0.81790
 N565 N 0.17388 0.54874 0.82915
 C566 C 0.12768 0.55475 0.78818
 H567 H 0.13266 0.52973 0.71876
 H568 H 0.13453 0.46289 0.71698
 H569 H 0.18651 0.52918 0.81677
 H570 H 0.16749 0.36946 0.79390
 H571 H 0.21235 0.37051 0.84250
 H572 H 0.27768 0.46571 0.90310
 H573 H 0.27665 0.53031 0.90427
 H574 H 0.12014 0.61101 0.83708
 H575 H 0.16719 0.46762 0.83828
 H576 H 0.16365 0.60891 0.88548
 C577 C 0.26321 0.37470 0.06980
 C578 C 0.28112 0.40805 0.07890
 C579 C 0.26177 0.43018 0.09625
 C580 C 0.22561 0.41784 0.10268
 C581 C 0.21180 0.40767 0.06766
 C582 C 0.23144 0.38536 0.05050
 C583 C 0.25035 0.36119 0.10400
 C584 C 0.23081 0.38381 0.12137
 H585 H 0.30736 0.41340 0.07375
 H586 H 0.27183 0.45397 0.10576
 H587 H 0.18818 0.41680 0.05751
 H588 H 0.22456 0.37554 0.02566
 H589 H 0.25666 0.33645 0.11402
 H590 H 0.22075 0.37822 0.14635
 C591 C 0.73229 0.62796 0.05668
 C592 C 0.72939 0.59101 0.04500
 C593 C 0.74680 0.56897 0.06443
 C594 C 0.76761 0.58564 0.09320
 C595 C 0.78832 0.61356 0.07579
 C596 C 0.77006 0.63555 0.05686
 C597 C 0.72201 0.62701 0.09430
 C598 C 0.74007 0.60450 0.11327
 H599 H 0.71179 0.58225 0.02579
 H600 H 0.74128 0.54216 0.06258
 H601 H 0.81538 0.61580 0.07821
 H602 H 0.78163 0.65638 0.04322
 H603 H 0.70064 0.64064 0.10446
 H604 H 0.73278 0.59809 0.13902
 C605 C 0.73413 0.36674 0.93719
 C606 C 0.74160 0.40122 0.95359
 C607 C 0.75986 0.42233 0.93370
 C608 C 0.76812 0.40798 0.89814
 C609 C 0.78704 0.37507 0.90751
 C610 C 0.76898 0.35325 0.92737
 C611 C 0.71679 0.37463 0.90344
 C612 C 0.73448 0.39590 0.88312
 H613 H 0.73527 0.40756 0.97969
 H614 H 0.76944 0.44627 0.94331
 H615 H 0.81330 0.37058 0.90195
 H616 H 0.77964 0.33005 0.93730
 H617 H 0.69281 0.36388 0.89586
 H618 H 0.72552 0.40331 0.85818
 C619 C 0.27002 0.62964 0.93091
 C620 C 0.29135 0.61047 0.90470
 C621 C 0.27325 0.58920 0.88444
 C622 C 0.23546 0.58758 0.89287
 C623 C 0.23322 0.58087 0.93128
 C624 C 0.25129 0.60238 0.95084
 C625 C 0.24306 0.64715 0.90936
 C626 C 0.22552 0.62535 0.88883
 H627 H 0.31795 0.61502 0.90077
 H628 H 0.28452 0.57598 0.86311
 H629 H 0.21815 0.56073 0.94228
 H630 H 0.25171 0.60047 0.97837
 H631 H 0.24114 0.67443 0.90685
 H632 H 0.21095 0.63526 0.86787
 C633 C 0.05925 0.26322 0.37221
 C634 C 0.04912 0.22571 0.37032
 C635 C 0.06776 0.20513 0.39050
 C636 C 0.09490 0.22362 0.41125
 C637 C 0.11567 0.24369 0.38493
 C638 C 0.09695 0.26392 0.36419
 C639 C 0.05721 0.27219 0.41016
 C640 C 0.07608 0.25210 0.43032
 H641 H 0.02887 0.21610 0.35450
 H642 H 0.06346 0.17802 0.39180
 H643 H 0.14288 0.24374 0.38400
 H644 H 0.10816 0.28038 0.34526
 H645 H 0.04360 0.29369 0.42035
 H646 H 0.07908 0.25776 0.45715
 C647 C 0.06789 0.73003 0.63280
 C648 C 0.08383 0.76142 0.64947
 C649 C 0.10541 0.77853 0.62867
 C650 C 0.10827 0.76353 0.59235
 C651 C 0.11936 0.72691 0.59976
 C652 C 0.09807 0.70930 0.62039
 C653 C 0.05108 0.74312 0.60047
 C654 C 0.07186 0.76061 0.57968
 H655 H 0.08172 0.76729 0.67633
 H656 H 0.12249 0.79709 0.63934
 H657 H 0.14333 0.71661 0.59185
 H658 H 0.10355 0.68386 0.62911
 H659 H 0.02491 0.73872 0.59418
 H660 H 0.06314 0.77139 0.55592
 C661 C 0.93328 0.74334 0.37185
 C662 C 0.90819 0.76822 0.35596
 C663 C 0.89095 0.78701 0.37946
 C664 C 0.90090 0.77953 0.41683
 C665 C 0.89482 0.74105 0.41947
 C666 C 0.91198 0.72226 0.39651
 C667 C 0.95590 0.76536 0.39445
 C668 C 0.93913 0.78443 0.41746
 H669 H 0.90302 0.76954 0.32892
 H670 H 0.87063 0.80351 0.37190
 H671 H 0.87731 0.72959 0.43721
 H672 H 0.90901 0.69498 0.39487
 H673 H 0.98301 0.76624 0.39221
 H674 H 0.95195 0.80176 0.43459
 C675 C 0.93639 0.26408 0.62807
 C676 C 0.91559 0.23597 0.64512
 C677 C 0.89531 0.21857 0.62297
 C678 C 0.89839 0.23044 0.58554
 C679 C 0.89018 0.26847 0.58835
 C680 C 0.91026 0.28603 0.61003
 C681 C 0.95578 0.24614 0.59975
 C682 C 0.93616 0.22837 0.57797
 H683 H 0.91470 0.23198 0.67237
 H684 H 0.87663 0.20096 0.63233
 H685 H 0.86939 0.28035 0.57518
 H686 H 0.90664 0.31277 0.61519
 H687 H 0.98294 0.24642 0.59768
 H688 H 0.94666 0.21350 0.55734
 C689 C 0.37368 0.06002 0.26628
 C690 C 0.37553 0.09661 0.27933
 C691 C 0.39793 0.11637 0.26210
 C692 C 0.41609 0.09805 0.23270
 C693 C 0.43221 0.06752 0.25091
 C694 C 0.41008 0.04755 0.26770
 C695 C 0.36576 0.06296 0.22819
 C696 C 0.38789 0.08268 0.21076
 H697 H 0.36132 0.10588 0.30093
 H698 H 0.40312 0.14235 0.26951
 H699 H 0.45891 0.06382 0.25437
 H700 H 0.41839 0.02664 0.28342
 H701 H 0.34470 0.05051 0.21585
 H702 H 0.38563 0.08695 0.18362
 C703 C 0.62667 0.07393 0.73385
 C704 C 0.61142 0.10254 0.71260
 C705 C 0.58982 0.12253 0.73028
 C706 C 0.58439 0.11172 0.76754
 C707 C 0.57504 0.07395 0.76622
 C708 C 0.59673 0.05449 0.74848
 C709 C 0.64259 0.09220 0.76446
 C710 C 0.62068 0.11243 0.78177
 H711 H 0.61832 0.10771 0.68644
 H712 H 0.57855 0.14488 0.71914
 H713 H 0.55301 0.06334 0.77850
 H714 H 0.59302 0.02743 0.74540
 H715 H 0.66928 0.09207 0.76996
 H716 H 0.62984 0.13022 0.80062
 C717 C 0.37567 0.93860 0.73358
 C718 C 0.37495 0.90100 0.72370
 C719 C 0.39797 0.88191 0.74069
 C720 C 0.41909 0.90183 0.76701
 C721 C 0.43494 0.92975 0.74461
 C722 C 0.41236 0.94936 0.72810
 C723 C 0.37083 0.93932 0.77223
 C724 C 0.39344 0.92031 0.78954
 H725 H 0.35894 0.89061 0.70390
 H726 H 0.40189 0.85538 0.73473
 H727 H 0.46133 0.93139 0.73816
 H728 H 0.42021 0.96845 0.70994
 H729 H 0.35151 0.95381 0.78505
 H730 H 0.39327 0.91864 0.81707
 C731 C 0.63233 0.92967 0.26917
 C732 C 0.64971 0.91136 0.23949
 C733 C 0.62881 0.89005 0.22180
 C734 C 0.59209 0.88982 0.23489
 C735 C 0.59671 0.87990 0.27248
 C736 C 0.61714 0.90096 0.29044
 C737 C 0.60252 0.94782 0.25301
 C738 C 0.58190 0.92731 0.23500
 H739 H 0.67653 0.91247 0.23482
 H740 H 0.63887 0.87236 0.20342
 H741 H 0.58576 0.85732 0.28368
 H742 H 0.62341 0.89644 0.31689
 H743 H 0.59860 0.97495 0.25455
 H744 H 0.56039 0.93706 0.22124
 C745 C 0.36910 0.26642 0.93851
 C746 C 0.40187 0.25436 0.95464
 C747 C 0.42257 0.23809 0.93285
 C748 C 0.40964 0.23621 0.89592
 C749 C 0.37531 0.21813 0.90047
 C750 C 0.35397 0.23422 0.92246
 C751 C 0.37965 0.28837 0.90821
 C752 C 0.40061 0.27266 0.88609
 H753 H 0.40728 0.25612 0.98153
 H754 H 0.44531 0.22583 0.94164
 H755 H 0.36906 0.19368 0.88955
 H756 H 0.32959 0.22390 0.92916
 H757 H 0.37075 0.31397 0.90410
 H758 H 0.40958 0.28489 0.86313
 C759 C 0.62717 0.72932 0.91996
 C760 C 0.64248 0.76046 0.90220
 C761 C 0.62114 0.77556 0.87958
 C762 C 0.58646 0.75796 0.87672
 C763 C 0.59482 0.72097 0.86816
 C764 C 0.61593 0.70601 0.89074
 C765 C 0.59475 0.74228 0.93592
 C766 C 0.57398 0.75774 0.91381
 H767 H 0.66752 0.77012 0.90726
 H768 H 0.62819 0.79832 0.86595
 H769 H 0.58550 0.70794 0.84573
 H770 H 0.62458 0.68016 0.88759
 H771 H 0.58882 0.74016 0.96265
 H772 H 0.55085 0.76951 0.92224
 C773 C 0.37474 0.73342 0.06741
 C774 C 0.40407 0.75050 0.04916
 C775 C 0.42556 0.76708 0.06996
 C776 C 0.41646 0.76518 0.10780
 C777 C 0.37980 0.77825 0.10959
 C778 C 0.35813 0.76190 0.08801
 C779 C 0.39071 0.71063 0.09449
 C780 C 0.41196 0.72728 0.11585
 H781 H 0.40679 0.75108 0.02183
 H782 H 0.44675 0.78142 0.06021
 H783 H 0.37045 0.79563 0.12866
 H784 H 0.33133 0.76666 0.08809
 H785 H 0.38434 0.68411 0.09785
 H786 H 0.42343 0.71491 0.13753
 C787 C 0.62767 0.26937 0.07639
 C788 C 0.63996 0.23440 0.08808
 C789 C 0.61847 0.21849 0.10991
 C790 C 0.58681 0.23928 0.11890
 C791 C 0.60042 0.27359 0.13147
 C792 C 0.62162 0.28928 0.10933
 C793 C 0.59262 0.26255 0.06185
 C794 C 0.57169 0.24629 0.08348
 H795 H 0.66245 0.22227 0.07854
 H796 H 0.62263 0.19254 0.11770
 H797 H 0.59411 0.28444 0.15599
 H798 H 0.63339 0.31347 0.11496
 H799 H 0.58500 0.26934 0.03634
 H800 H 0.54686 0.23812 0.07551
 C801 C 0.26095 0.06083 0.62520
 C802 C 0.22306 0.05627 0.63067
 C803 C 0.20383 0.07353 0.60805
 C804 C 0.22390 0.09407 0.58179
 C805 C 0.24798 0.11654 0.60291
 C806 C 0.26699 0.09920 0.62586
 C807 C 0.26671 0.05066 0.58793
 C808 C 0.24815 0.06837 0.56538
 H809 H 0.21218 0.04055 0.65041
 H810 H 0.17661 0.07252 0.60859
 H811 H 0.25081 0.14362 0.59921
 H812 H 0.28549 0.11151 0.64199
 H813 H 0.28577 0.03290 0.57962
 H814 H 0.25340 0.06653 0.53842
 C815 C 0.73057 0.06449 0.37800
 C816 C 0.72006 0.06239 0.41557
 C817 C 0.73719 0.08376 0.43627
 C818 C 0.76277 0.10690 0.41788
 C819 C 0.78542 0.08037 0.40046
 C820 C 0.76875 0.05867 0.37918
 C821 C 0.72631 0.10169 0.36822
 C822 C 0.74299 0.12365 0.38891
 H823 H 0.70414 0.04256 0.42593
 H824 H 0.73651 0.07979 0.46350
 H825 H 0.81165 0.07667 0.40683
 H826 H 0.78119 0.03754 0.36687
 H827 H 0.71140 0.11013 0.34676
 H828 H 0.74225 0.15083 0.38500
 C829 C 0.73643 0.94283 0.62933
 C830 C 0.77463 0.94506 0.63483
 C831 C 0.79262 0.92445 0.61371
 C832 C 0.77089 0.90211 0.58995
 C833 C 0.74549 0.88429 0.61333
 C834 C 0.72756 0.90540 0.63364
 C835 C 0.73220 0.95004 0.59125
 C836 C 0.75052 0.92946 0.57088
 H837 H 0.78662 0.96379 0.65105
 H838 H 0.81960 0.92720 0.61127
 H839 H 0.74197 0.85704 0.61382
 H840 H 0.70886 0.89619 0.65144
 H841 H 0.71877 0.97171 0.58125
 H842 H 0.75332 0.93510 0.54406
 C843 C 0.26888 0.92455 0.36986
 C844 C 0.29044 0.90199 0.39287
 C845 C 0.27221 0.88177 0.41387
 C846 C 0.23388 0.88683 0.41151
 C847 C 0.22790 0.92509 0.41506
 C848 C 0.24620 0.94454 0.39380
 C849 C 0.24545 0.89944 0.35156
 C850 C 0.22765 0.87914 0.37329
 H851 H 0.31755 0.90014 0.39102
 H852 H 0.28392 0.86263 0.42963
 H853 H 0.21018 0.93603 0.43290
 H854 H 0.24414 0.97195 0.39358
 H855 H 0.24590 0.89512 0.32432
 H856 H 0.21494 0.85673 0.36380
 C857 C 0.07207 0.36834 0.73235
 C858 C 0.07951 0.35688 0.76889
 C859 C 0.10035 0.37830 0.78621
 C860 C 0.11273 0.40896 0.76521
 C861 C 0.12787 0.39350 0.73282
 C862 C 0.10664 0.37243 0.71562
 C863 C 0.05867 0.40446 0.73646
 C864 C 0.07959 0.42550 0.75367
 H865 H 0.06815 0.33487 0.78074
 H866 H 0.10594 0.37458 0.81292
 H867 H 0.15331 0.39851 0.72433
 H868 H 0.11396 0.35945 0.69246
 H869 H 0.03402 0.41246 0.72793
 H870 H 0.07229 0.45120 0.75997
 C871 C 0.06172 0.63516 0.26324
 C872 C 0.07146 0.64767 0.22757
 C873 C 0.09140 0.62557 0.21008
 C874 C 0.10105 0.59342 0.23031
 C875 C 0.11551 0.60673 0.26407
 C876 C 0.09505 0.62822 0.28121
 C877 C 0.04603 0.60020 0.25672
 C878 C 0.06608 0.57880 0.23904
 H879 H 0.06135 0.67033 0.21595
 H880 H 0.09693 0.62930 0.18337
 H881 H 0.14014 0.59988 0.27356
 H882 H 0.10223 0.63973 0.30523
 H883 H 0.02042 0.59356 0.26345
 H884 H 0.05699 0.55438 0.23020
 C885 C 0.93676 0.37985 0.26528
 C886 C 0.95241 0.38869 0.23088
 C887 C 0.93347 0.40957 0.21158
 C888 C 0.90026 0.42035 0.22806
 C889 C 0.88252 0.38681 0.23794
 C890 C 0.90190 0.36541 0.25680
 C891 C 0.92933 0.41410 0.28232
 C892 C 0.90971 0.43477 0.26334
 H893 H 0.97617 0.37866 0.22202
 H894 H 0.94123 0.41748 0.18637
 H895 H 0.85622 0.38145 0.23312
 H896 H 0.89237 0.34173 0.26694
 H897 H 0.93661 0.42068 0.30809
 H898 H 0.90000 0.45834 0.27350
 C899 C 0.93654 0.62345 0.74040
 C900 C 0.95391 0.61293 0.77357
 C901 C 0.93559 0.59136 0.79308
 C902 C 0.90150 0.58159 0.77762
 C903 C 0.88399 0.61584 0.77091
 C904 C 0.90251 0.63781 0.75160
 C905 C 0.92772 0.58999 0.72243
 C906 C 0.90927 0.56852 0.74157
 H907 H 0.97828 0.62236 0.78150
 H908 H 0.94427 0.58253 0.81764
 H909 H 0.85897 0.62204 0.77973
 H910 H 0.89342 0.66261 0.74430
 H911 H 0.93405 0.58402 0.69628
 H912 H 0.89997 0.54469 0.73140
 C913 C 0.72838 0.62797 0.92620
 C914 C 0.74768 0.60170 0.94680
 C915 C 0.76571 0.57990 0.92776
 C916 C 0.76317 0.58550 0.88924
 C917 C 0.72529 0.58606 0.88095
 C918 C 0.70702 0.60757 0.90072
 C919 C 0.75493 0.64534 0.90379
 C920 C 0.77252 0.62329 0.88390
 H921 H 0.74791 0.60080 0.97436
 H922 H 0.78113 0.56041 0.93923
 H923 H 0.71413 0.57234 0.85981
 H924 H 0.68039 0.61162 0.89665
 H925 H 0.75671 0.67255 0.90042
 H926 H 0.78734 0.63267 0.86281
 C927 C 0.26651 0.36858 0.94105
 C928 C 0.28553 0.37739 0.90839
 C929 C 0.26870 0.39862 0.88743
 C930 C 0.23410 0.40964 0.90061
 C931 C 0.21524 0.37613 0.90825
 C932 C 0.23242 0.35444 0.92892
 C933 C 0.25763 0.40270 0.95743
 C934 C 0.24016 0.42365 0.93678
 H935 H 0.31002 0.36728 0.90195
 H936 H 0.27890 0.40664 0.86316
 H937 H 0.18959 0.37093 0.90057
 H938 H 0.22162 0.33072 0.93756
 H939 H 0.26272 0.40904 0.98381
 H940 H 0.22984 0.44730 0.94610
 C941 C 0.27045 0.63032 0.06396
 C942 C 0.23415 0.62608 0.05169
 C943 C 0.21485 0.60649 0.07209
 C944 C 0.23314 0.59184 0.10309
 C945 C 0.26491 0.57443 0.08886
 C946 C 0.28371 0.59397 0.06792
 C947 C 0.26767 0.64333 0.10072
 C948 C 0.24894 0.62277 0.12140
 H949 H 0.22424 0.63774 0.02884
 H950 H 0.18856 0.60162 0.06660
 H951 H 0.27342 0.54957 0.09668
 H952 H 0.30728 0.58492 0.05757
 H953 H 0.28238 0.66436 0.11058
 H954 H 0.24982 0.62573 0.14878
 C955 C 0.73534 0.37350 0.06332
 C956 C 0.74094 0.36365 0.10058
 C957 C 0.76120 0.38566 0.11793
 C958 C 0.77487 0.41526 0.09622
 C959 C 0.79136 0.39836 0.06533
 C960 C 0.77077 0.37678 0.04808
 C961 C 0.72228 0.41017 0.06499
 C962 C 0.74261 0.43165 0.08232
 H963 H 0.72888 0.34215 0.11269
 H964 H 0.76583 0.38294 0.14495
 H965 H 0.81711 0.40308 0.05765
 H966 H 0.77901 0.36327 0.02553
 H967 H 0.69855 0.41862 0.05451
 H968 H 0.73556 0.45780 0.08675
 C969 C 0.93403 0.73251 0.63757
 C970 C 0.91605 0.71266 0.60910
 C971 C 0.89618 0.73202 0.58913
 C972 C 0.89696 0.77015 0.59763
 C973 C 0.88536 0.76973 0.63532
 C974 C 0.90516 0.75046 0.65629
 C975 C 0.95328 0.76092 0.61976
 C976 C 0.93415 0.78045 0.59937
 H977 H 0.91638 0.68529 0.60659
 H978 H 0.87982 0.72092 0.57001
 H979 H 0.86148 0.77937 0.64416
 H980 H 0.89872 0.74565 0.68264
 H981 H 0.97967 0.76634 0.62406
 H982 H 0.94444 0.80225 0.58618
 C983 C 0.92916 0.27247 0.36568
 C984 C 0.90487 0.24882 0.34640
 C985 C 0.88378 0.23096 0.36737
 C986 C 0.88988 0.23744 0.40584
 C987 C 0.92763 0.23111 0.41076
 C988 C 0.94786 0.24949 0.39039
 C989 C 0.90586 0.29435 0.38771
 C990 C 0.88495 0.27611 0.40790
 H991 H 0.90150 0.24935 0.31903
 H992 H 0.86174 0.21857 0.35699
 H993 H 0.93765 0.21298 0.42877
 H994 H 0.97500 0.24707 0.39120
 H995 H 0.90410 0.32170 0.38578
 H996 H 0.86545 0.28805 0.42294
 C997 C 0.06302 0.26175 0.62456
 C998 C 0.05740 0.22348 0.62906
 C999 C 0.07495 0.20405 0.60681
 C1000 C 0.09673 0.22420 0.58172
 C1001 C 0.07250 0.24955 0.56481
 C1002 C 0.05451 0.26836 0.58698
 C1003 C 0.10118 0.26686 0.62673
 C1004 C 0.11877 0.24763 0.60405
 H1005 H 0.04073 0.21245 0.64786
 H1006 H 0.07327 0.17662 0.60679
 H1007 H 0.07171 0.25507 0.53785
 H1008 H 0.03757 0.28797 0.57822
 H1009 H 0.11324 0.28509 0.64349
 H1010 H 0.14575 0.25008 0.60120
 C1011 C 0.05997 0.73504 0.37577
 C1012 C 0.05483 0.77360 0.37768
 C1013 C 0.07487 0.78935 0.40109
 C1014 C 0.09961 0.76560 0.41955
 C1015 C 0.07509 0.73976 0.43552
 C1016 C 0.05507 0.72350 0.41284
 C1017 C 0.09734 0.73028 0.36849
 C1018 C 0.11786 0.74612 0.39116
 H1019 H 0.03524 0.78697 0.36407
 H1020 H 0.07100 0.81561 0.40815
 H1021 H 0.06922 0.73846 0.46237
 H1022 H 0.03442 0.70760 0.42131
 H1023 H 0.10695 0.71568 0.34723
 H1024 H 0.14500 0.74491 0.38915
 C1025 C 0.62963 0.94062 0.73571
 C1026 C 0.64749 0.90874 0.74843
 C1027 C 0.62768 0.88843 0.76822
 C1028 C 0.59101 0.90099 0.77229
 C1029 C 0.59682 0.93646 0.78765
 C1030 C 0.61626 0.95731 0.76828
 C1031 C 0.59841 0.92750 0.71697
 C1032 C 0.57865 0.90702 0.73582
 H1033 H 0.67434 0.90488 0.74612
 H1034 H 0.63929 0.86959 0.78428
 H1035 H 0.58967 0.94331 0.81335
 H1036 H 0.62429 0.98208 0.77715
 H1037 H 0.59246 0.93313 0.69067
 H1038 H 0.55609 0.89549 0.72540
 C1039 C 0.37415 0.92721 0.26676
 C1040 C 0.39019 0.89985 0.28905
 C1041 C 0.41178 0.87938 0.27197
 C1042 C 0.41645 0.88857 0.23420
 C1043 C 0.37993 0.88665 0.22062
 C1044 C 0.35799 0.90731 0.23734
 C1045 C 0.40346 0.94641 0.25065
 C1046 C 0.42525 0.92647 0.23360
 H1047 H 0.38372 0.89571 0.31551
 H1048 H 0.42345 0.85765 0.28391
 H1049 H 0.37080 0.86790 0.20269
 H1050 H 0.33121 0.90684 0.23228
 H1051 H 0.40629 0.97372 0.25159
 H1052 H 0.44670 0.93685 0.22012
 C1053 C 0.62621 0.06261 0.27011
 C1054 C 0.63494 0.06523 0.23217
 C1055 C 0.61310 0.08446 0.21393
 C1056 C 0.58433 0.09971 0.23496
 C1057 C 0.56802 0.06913 0.25315
 C1058 C 0.58987 0.04965 0.27073
 C1059 C 0.62385 0.09936 0.28261
 C1060 C 0.60178 0.11862 0.26453
 H1061 H 0.65631 0.05287 0.22049
 H1062 H 0.61594 0.08841 0.18680
 H1063 H 0.54127 0.06491 0.25574
 H1064 H 0.58137 0.02858 0.28621
 H1065 H 0.63756 0.10911 0.30439
 H1066 H 0.59642 0.14468 0.27136
 C1067 C 0.36772 0.07135 0.73272
 C1068 C 0.37805 0.10230 0.71172
 C1069 C 0.39938 0.12373 0.72814
 C1070 C 0.40899 0.11247 0.76422
 C1071 C 0.37501 0.10716 0.78263
 C1072 C 0.35329 0.08602 0.76589
 C1073 C 0.40065 0.05472 0.74369
 C1074 C 0.42177 0.07579 0.76058
 H1075 H 0.36881 0.10730 0.68628
 H1076 H 0.40834 0.14703 0.71667
 H1077 H 0.36929 0.11681 0.80777
 H1078 H 0.32912 0.07890 0.77639
 H1079 H 0.40601 0.02798 0.74040
 H1080 H 0.44482 0.06662 0.77198
 C1081 C 0.63056 0.73538 0.06178
 C1082 C 0.64835 0.76451 0.08070
 C1083 C 0.62815 0.78089 0.10362
 C1084 C 0.59158 0.76721 0.10471
 C1085 C 0.57988 0.76839 0.06752
 C1086 C 0.59983 0.75165 0.04548
 C1087 C 0.61684 0.71286 0.09036
 C1088 C 0.59710 0.72952 0.11297
 H1089 H 0.67506 0.76960 0.07884
 H1090 H 0.63882 0.79843 0.12187
 H1091 H 0.55787 0.78216 0.05907
 H1092 H 0.59482 0.75128 0.01847
 H1093 H 0.62365 0.68649 0.09366
 H1094 H 0.58732 0.71730 0.13559
 C1095 C 0.37164 0.26959 0.07743
 C1096 C 0.35952 0.23430 0.08848
 C1097 C 0.38131 0.21810 0.10969
 C1098 C 0.41309 0.23897 0.11883
 C1099 C 0.42776 0.24684 0.08343
 C1100 C 0.40653 0.26334 0.06237
 C1101 C 0.37812 0.28884 0.11071
 C1102 C 0.39962 0.27289 0.13226
 H1103 H 0.33695 0.22216 0.07885
 H1104 H 0.37732 0.19190 0.11684
 H1105 H 0.45250 0.23903 0.07503
 H1106 H 0.41381 0.27064 0.03692
 H1107 H 0.36643 0.31282 0.11699
 H1108 H 0.40626 0.28330 0.15692
 C1109 C 0.62707 0.26355 0.93767
 C1110 C 0.59712 0.24756 0.95591
 C1111 C 0.57556 0.23090 0.93517
 C1112 C 0.58513 0.23173 0.89738
 C1113 C 0.59062 0.26933 0.88856
 C1114 C 0.61195 0.28598 0.90980
 C1115 C 0.64328 0.23419 0.91797
 C1116 C 0.62152 0.21779 0.89646
 H1117 H 0.59398 0.24778 0.98322
 H1118 H 0.55395 0.21725 0.94496
 H1119 H 0.57963 0.28149 0.86651
 H1120 H 0.61890 0.31228 0.90589
 H1121 H 0.66996 0.22881 0.91842
 H1122 H 0.63078 0.19978 0.87796
 C1123 C 0.37335 0.73418 0.92903
 C1124 C 0.37894 0.71478 0.89576
 C1125 C 0.39962 0.73086 0.87354
 C1126 C 0.41335 0.76503 0.88634
 C1127 C 0.38174 0.78561 0.89604
 C1128 C 0.36064 0.76925 0.91804
 C1129 C 0.40854 0.74104 0.94314
 C1130 C 0.42895 0.75785 0.92150
 H1131 H 0.36710 0.69066 0.88991
 H1132 H 0.40541 0.72042 0.84869
 H1133 H 0.37750 0.81172 0.88887
 H1134 H 0.33831 0.78115 0.92826
 H1135 H 0.41670 0.73376 0.96832
 H1136 H 0.45386 0.76612 0.92916
 C1137 C 0.73299 0.93136 0.37730
 C1138 C 0.74693 0.94968 0.40856
 C1139 C 0.76494 0.92967 0.42957
 C1140 C 0.76764 0.89256 0.41808
 C1141 C 0.73123 0.88058 0.41204
 C1142 C 0.71297 0.90113 0.39128
 C1143 C 0.76360 0.91508 0.36023
 C1144 C 0.78128 0.89425 0.38122
 H1145 H 0.74332 0.97648 0.41355
 H1146 H 0.77664 0.93952 0.45250
 H1147 H 0.72154 0.85638 0.42070
 H1148 H 0.68762 0.89484 0.38330
 H1149 H 0.76843 0.91619 0.33312
 H1150 H 0.79928 0.87671 0.37059
 C1151 C 0.26247 0.93251 0.63328
 C1152 C 0.28316 0.90546 0.61495
 C1153 C 0.26483 0.88558 0.59369
 C1154 C 0.22732 0.89495 0.59144
 C1155 C 0.21605 0.89233 0.62908
 C1156 C 0.23425 0.91240 0.65089
 C1157 C 0.24472 0.95241 0.60524
 C1158 C 0.22619 0.93306 0.58387
 H1159 H 0.30963 0.90109 0.61967
 H1160 H 0.27580 0.86419 0.58043
 H1161 H 0.19806 0.87412 0.63870
 H1162 H 0.23064 0.91181 0.67821
 H1163 H 0.24561 0.97979 0.60313
 H1164 H 0.21132 0.94402 0.56358
 C1165 C 0.26210 0.05613 0.37105
 C1166 C 0.27079 0.05328 0.40899
 C1167 C 0.25124 0.07243 0.42948
 C1168 C 0.22350 0.09230 0.41074
 C1169 C 0.24391 0.11323 0.38477
 C1170 C 0.26362 0.09425 0.36371
 C1171 C 0.22470 0.04674 0.36896
 C1172 C 0.20465 0.06565 0.38949
 H1173 H 0.29176 0.03894 0.41900
 H1174 H 0.25688 0.07492 0.45635
 H1175 H 0.24440 0.14068 0.38423
 H1176 H 0.28015 0.10549 0.34492
 H1177 H 0.21478 0.02679 0.35277
 H1178 H 0.17769 0.06186 0.39072
 C1179 C 0.73006 0.07750 0.62860
 C1180 C 0.76084 0.09428 0.64520
 C1181 C 0.77739 0.11615 0.62425
 C1182 C 0.76247 0.11842 0.58795
 C1183 C 0.76026 0.08159 0.57546
 C1184 C 0.74344 0.06046 0.59646
 C1185 C 0.70891 0.10743 0.61607
 C1186 C 0.72601 0.12909 0.59535
 H1187 H 0.76682 0.09230 0.67203
 H1188 H 0.79590 0.13354 0.63451
 H1189 H 0.77146 0.07275 0.55193
 H1190 H 0.74035 0.03370 0.59085
 H1191 H 0.68379 0.11281 0.62520
 H1192 H 0.71567 0.15340 0.58814
 C1193 C 0.93139 0.63910 0.25807
 C1194 C 0.95219 0.62112 0.23071
 C1195 C 0.93391 0.60046 0.21007
 C1196 C 0.89642 0.59783 0.21940
 C1197 C 0.89509 0.58983 0.25755
 C1198 C 0.91320 0.61088 0.27745
 C1199 C 0.90364 0.65699 0.23788
 C1200 C 0.88575 0.63560 0.21704
 H1201 H 0.97859 0.62628 0.22618
 H1202 H 0.94480 0.58842 0.18786
 H1203 H 0.88002 0.56951 0.26823
 H1204 H 0.91321 0.60838 0.30492
 H1205 H 0.90121 0.68431 0.23662
 H1206 H 0.87055 0.64605 0.19685
 C1207 C 0.93782 0.37016 0.73302
 C1208 C 0.94806 0.37293 0.77043
 C1209 C 0.92749 0.39260 0.78939
 C1210 C 0.89841 0.40871 0.76960
 C1211 C 0.91479 0.42657 0.73876
 C1212 C 0.93586 0.40688 0.72040
 C1213 C 0.90107 0.35820 0.73343
 C1214 C 0.88028 0.37884 0.75178
 H1215 H 0.96970 0.36026 0.78124
 H1216 H 0.93158 0.39656 0.81639
 H1217 H 0.90836 0.45189 0.73038
 H1218 H 0.94779 0.41613 0.69743
 H1219 H 0.89158 0.33790 0.71741
 H1220 H 0.85325 0.37678 0.74925
 C1221 C 0.06468 0.62153 0.73701
 C1222 C 0.06052 0.58452 0.72560
 C1223 C 0.07983 0.56241 0.74306
 C1224 C 0.10309 0.57895 0.76991
 C1225 C 0.12209 0.60711 0.75086
 C1226 C 0.10216 0.62918 0.73377
 C1227 C 0.05782 0.62024 0.77546
 C1228 C 0.07728 0.59746 0.79246
 H1229 H 0.04085 0.57574 0.70858
 H1230 H 0.07441 0.53553 0.74155
 H1231 H 0.14924 0.60944 0.75089
 H1232 H 0.11222 0.65026 0.71931
 H1233 H 0.03748 0.63371 0.78774
 H1234 H 0.07173 0.59039 0.81848
 C1235 C 0.06931 0.37496 0.27072
 C1236 C 0.09504 0.39388 0.29295
 C1237 C 0.11573 0.41487 0.27502
 C1238 C 0.10809 0.41637 0.23656
 C1239 C 0.11171 0.37850 0.22661
 C1240 C 0.09083 0.35709 0.24384
 C1241 C 0.05042 0.40254 0.25154
 C1242 C 0.07036 0.42371 0.23371
 H1243 H 0.09840 0.38927 0.31991
 H1244 H 0.13696 0.42760 0.28680
 H1245 H 0.13247 0.36830 0.21210
 H1246 H 0.09294 0.32978 0.24184
 H1247 H 0.02335 0.40536 0.25209
 H1248 H 0.06011 0.44433 0.21879
   
