data_POSCAR
  _audit_creation_date              2014-09-24
  _audit_creation_method            'ToBaCCo'
  _symmetry_space_group_name_H-M    'P1'
  _symmetry_Int_Tables_number       1
  _symmetry_cell_setting            triclinic
  loop_
  _symmetry_equiv_pos_as_xyz
 x,y,z
_cell_length_a 75.9251
_cell_length_b 74.7980
_cell_length_c 75.1099
_cell_angle_alpha 89.855200
_cell_angle_beta 90.181900
_cell_angle_gamma 89.939300
loop_
  _atom_site_label
  _atom_site_type_symbol
  _atom_site_fract_x
  _atom_site_fract_y
  _atom_site_fract_z
N1 N 0.37154 0.31660 0.33426
 N2 N 0.37456 0.33078 0.32438
 C3 C 0.38772 0.32710 0.31291
 C4 C 0.39301 0.30958 0.31573
 C5 C 0.38249 0.30339 0.32940
 H6 H 0.39242 0.33611 0.30270
 H7 H 0.38260 0.29015 0.33520
 Cu8 Cu 0.35944 0.35165 0.32636
 Cu9 Cu 0.35339 0.31600 0.35243
 Cu10 Cu 0.32795 0.35423 0.35772
 N11 N 0.33988 0.36834 0.32428
 N12 N 0.32795 0.36990 0.33684
 C13 C 0.31601 0.38231 0.33186
 C14 C 0.32049 0.38848 0.31509
 C15 C 0.33571 0.37933 0.31070
 H16 H 0.30439 0.38580 0.33940
 H17 H 0.34305 0.38034 0.29842
 N18 N 0.32535 0.33276 0.37292
 N19 N 0.33461 0.31806 0.37025
 C20 C 0.32861 0.30510 0.38103
 C21 C 0.31492 0.31184 0.39100
 C22 C 0.31324 0.32950 0.38568
 H23 H 0.33351 0.29153 0.38130
 H24 H 0.30323 0.33886 0.38989
 H25 H 0.33649 0.33467 0.34103
 H26 H 0.35309 0.34290 0.35737
 N27 N 0.36913 0.82015 -0.16935
 N28 N 0.36682 0.83243 -0.18168
 C29 C 0.37911 0.83026 -0.19441
 C30 C 0.38974 0.81587 -0.18971
 C31 C 0.38305 0.80991 -0.17365
 H32 H 0.38007 0.83844 -0.20624
 H33 H 0.38754 0.79847 -0.16605
 Cu34 Cu 0.34779 0.84991 -0.18017
 Cu35 Cu 0.35286 0.81711 -0.14967
 Cu36 Cu 0.32021 0.84898 -0.14501
 N37 N 0.32983 0.86823 -0.17665
 N38 N 0.31935 0.86793 -0.16276
 C39 C 0.30795 0.88168 -0.16385
 C40 C 0.31140 0.89116 -0.17934
 C41 C 0.32545 0.88226 -0.18707
 H42 H 0.29763 0.88417 -0.15431
 H43 H 0.33167 0.88552 -0.19959
 N44 N 0.32311 0.82875 -0.12843
 N45 N 0.33517 0.81624 -0.13061
 C46 C 0.33249 0.80314 -0.11859
 C47 C 0.31818 0.80775 -0.10823
 C48 C 0.31264 0.82410 -0.11473
 H49 H 0.34004 0.79090 -0.11774
 H50 H 0.30112 0.83145 -0.11049
 H51 H 0.33122 0.82958 -0.16111
 H52 H 0.34679 0.84409 -0.14827
 N53 N 0.87020 0.32435 -0.17356
 N54 N 0.86744 0.33752 -0.18485
 C55 C 0.87913 0.33628 -0.19825
 C56 C 0.88989 0.32166 -0.19505
 C57 C 0.88391 0.31446 -0.17922
 H58 H 0.87955 0.34507 -0.20968
 H59 H 0.88856 0.30236 -0.17286
 Cu60 Cu 0.84814 0.35435 -0.18134
 Cu61 Cu 0.85455 0.31978 -0.15354
 Cu62 Cu 0.81995 0.34950 -0.14732
 N63 N 0.82881 0.37112 -0.17776
 N64 N 0.81761 0.36888 -0.16463
 C65 C 0.80474 0.38122 -0.16598
 C66 C 0.80809 0.39187 -0.18075
 C67 C 0.82358 0.38513 -0.18778
 H68 H 0.79363 0.38204 -0.15708
 H69 H 0.83007 0.38963 -0.19978
 N70 N 0.82456 0.32900 -0.13129
 N71 N 0.83737 0.31737 -0.13405
 C72 C 0.83589 0.30390 -0.12221
 C73 C 0.82164 0.30733 -0.11136
 C74 C 0.81483 0.32339 -0.11738
 H75 H 0.84427 0.29222 -0.12176
 H76 H 0.80303 0.32988 -0.11261
 H77 H 0.83223 0.33174 -0.16426
 H78 H 0.84665 0.34593 -0.15002
 N79 N 0.87063 0.82319 0.32593
 N80 N 0.86740 0.83553 0.31387
 C81 C 0.88007 0.83498 0.30137
 C82 C 0.89195 0.82171 0.30605
 C83 C 0.88559 0.81458 0.32174
 H84 H 0.88028 0.84315 0.28947
 H85 H 0.89072 0.80306 0.32879
 Cu86 Cu 0.84626 0.85018 0.31498
 Cu87 Cu 0.85350 0.81693 0.34397
 Cu88 Cu 0.82273 0.84974 0.35318
 N89 N 0.82930 0.86875 0.32056
 N90 N 0.82040 0.86876 0.33554
 C91 C 0.80901 0.88257 0.33541
 C92 C 0.81087 0.89172 0.31942
 C93 C 0.82398 0.88261 0.31043
 H94 H 0.79962 0.88521 0.34586
 H95 H 0.82886 0.88551 0.29721
 N96 N 0.82696 0.82896 0.36891
 N97 N 0.83810 0.81606 0.36485
 C98 C 0.83620 0.80252 0.37650
 C99 C 0.82330 0.80715 0.38855
 C100 C 0.81781 0.82403 0.38346
 H101 H 0.84321 0.78995 0.37588
 H102 H 0.80700 0.83151 0.38913
 H103 H 0.83063 0.83044 0.33578
 H104 H 0.84851 0.84369 0.34663
 N105 N 0.62844 0.67574 0.33439
 N106 N 0.62991 0.66346 0.32196
 C107 C 0.61753 0.66634 0.30940
 C108 C 0.60763 0.68104 0.31430
 C109 C 0.61483 0.68661 0.33030
 H110 H 0.61616 0.65869 0.29728
 H111 H 0.61119 0.69841 0.33772
 Cu112 Cu 0.64848 0.64545 0.32241
 Cu113 Cu 0.64593 0.67842 0.35337
 Cu114 Cu 0.68025 0.64802 0.35333
 N115 N 0.66820 0.62868 0.32273
 N116 N 0.68054 0.62998 0.33496
 C117 C 0.69350 0.61835 0.33138
 C118 C 0.68915 0.60916 0.31610
 C119 C 0.67290 0.61590 0.31097
 H120 H 0.70562 0.61719 0.33890
 H121 H 0.66569 0.61260 0.29898
 N122 N 0.67812 0.66704 0.37105
 N123 N 0.66513 0.67878 0.37131
 C124 C 0.66886 0.69135 0.38369
 C125 C 0.68503 0.68726 0.39131
 C126 C 0.69039 0.67181 0.38301
 H127 H 0.66125 0.70337 0.38587
 H128 H 0.70301 0.66531 0.38472
 H129 H 0.66601 0.66724 0.33886
 H130 H 0.65311 0.65219 0.35383
 N131 N 0.63072 0.18355 -0.16230
 N132 N 0.62948 0.17310 -0.17629
 C133 C 0.61549 0.17813 -0.18612
 C134 C 0.60779 0.19272 -0.17805
 C135 C 0.61777 0.19586 -0.16296
 H136 H 0.61183 0.17237 -0.19879
 H137 H 0.61605 0.20657 -0.15349
 Cu138 Cu 0.64746 0.15558 -0.18191
 Cu139 Cu 0.64957 0.18103 -0.14494
 Cu140 Cu 0.67837 0.14576 -0.15112
 N141 N 0.66240 0.13466 -0.18389
 N142 N 0.67383 0.13033 -0.17143
 C143 C 0.68259 0.11554 -0.17645
 C144 C 0.67663 0.11060 -0.19318
 C145 C 0.66372 0.12301 -0.19744
 H146 H 0.69332 0.10953 -0.16906
 H147 H 0.65604 0.12375 -0.20955
 N148 N 0.68077 0.16297 -0.13149
 N149 N 0.66953 0.17617 -0.12890
 C150 C 0.67520 0.18619 -0.11518
 C151 C 0.69090 0.17917 -0.10907
 C152 C 0.69407 0.16444 -0.11968
 H153 H 0.66902 0.19840 -0.11070
 H154 H 0.70552 0.15584 -0.11924
 H155 H 0.66825 0.16945 -0.16133
 H156 H 0.65237 0.15402 -0.15001
 N157 N 0.13061 0.68035 -0.16650
 N158 N 0.13269 0.67025 -0.18064
 C159 C 0.12088 0.67493 -0.19310
 C160 C 0.11084 0.68881 -0.18663
 C161 C 0.11722 0.69190 -0.16960
 H162 H 0.12031 0.66942 -0.20638
 H163 H 0.11345 0.70266 -0.16080
 Cu164 Cu 0.15206 0.65377 -0.18326
 Cu165 Cu 0.14749 0.67930 -0.14674
 Cu166 Cu 0.17850 0.64513 -0.14854
 N167 N 0.16680 0.63273 -0.18255
 N168 N 0.17700 0.62903 -0.16887
 C169 C 0.18675 0.61446 -0.17271
 C170 C 0.18248 0.60897 -0.18979
 C171 C 0.16970 0.62080 -0.19554
 H172 H 0.19701 0.60903 -0.16427
 H173 H 0.16344 0.62115 -0.20848
 N174 N 0.17783 0.66296 -0.12929
 N175 N 0.16591 0.67580 -0.12831
 C176 C 0.17027 0.68685 -0.11482
 C177 C 0.18583 0.68084 -0.10725
 C178 C 0.19018 0.66566 -0.11670
 H179 H 0.16350 0.69917 -0.11169
 H180 H 0.20201 0.65774 -0.11518
 H181 H 0.16892 0.66856 -0.16002
 H182 H 0.15224 0.65248 -0.15106
 N183 N 0.12610 0.17418 0.33378
 N184 N 0.12846 0.16233 0.32110
 C185 C 0.11657 0.16538 0.30800
 C186 C 0.10631 0.17990 0.31287
 C187 C 0.11280 0.18512 0.32921
 H188 H 0.11646 0.15875 0.29522
 H189 H 0.10911 0.19702 0.33645
 Cu190 Cu 0.14877 0.14624 0.32206
 Cu191 Cu 0.14226 0.17731 0.35368
 Cu192 Cu 0.18014 0.15166 0.35306
 N193 N 0.16893 0.12998 0.32351
 N194 N 0.18113 0.13243 0.33573
 C195 C 0.19442 0.12090 0.33306
 C196 C 0.19044 0.11059 0.31837
 C197 C 0.17408 0.11657 0.31268
 H198 H 0.20638 0.12048 0.34089
 H199 H 0.16704 0.11222 0.30093
 N200 N 0.17513 0.16907 0.37198
 N201 N 0.16069 0.17891 0.37211
 C202 C 0.16181 0.19079 0.38548
 C203 C 0.17763 0.18822 0.39427
 C204 C 0.18566 0.17422 0.38550
 H205 H 0.15217 0.20108 0.38816
 H206 H 0.19872 0.16903 0.38808
 H207 H 0.16364 0.16938 0.33939
 H208 H 0.15314 0.15189 0.35361
 N209 N 0.63490 0.31367 0.66472
 N210 N 0.63095 0.32710 0.67523
 C211 C 0.61645 0.32289 0.68467
 C212 C 0.61130 0.30579 0.67991
 C213 C 0.62327 0.30040 0.66719
 H214 H 0.61091 0.33097 0.69518
 H215 H 0.62402 0.28749 0.66079
 Cu216 Cu 0.64757 0.34674 0.67727
 Cu217 Cu 0.65635 0.31300 0.65068
 Cu218 Cu 0.67727 0.35413 0.64537
 N219 N 0.66415 0.36632 0.67931
 N220 N 0.67569 0.36951 0.66664
 C221 C 0.68609 0.38321 0.67174
 C222 C 0.68105 0.38845 0.68868
 C223 C 0.66711 0.37743 0.69302
 H224 H 0.69718 0.38821 0.66421
 H225 H 0.66004 0.37715 0.70550
 N226 N 0.68132 0.33343 0.62926
 N227 N 0.67357 0.31784 0.63188
 C228 C 0.67945 0.30605 0.61988
 C229 C 0.69166 0.31436 0.60914
 C230 C 0.69248 0.33183 0.61533
 H231 H 0.67524 0.29227 0.61916
 H232 H 0.70113 0.34228 0.61060
 H233 H 0.67216 0.33325 0.66152
 H234 H 0.65368 0.33959 0.64639
 N235 N 0.62947 0.81905 1.16852
 N236 N 0.62865 0.83328 1.17872
 C237 C 0.61661 0.83039 1.19165
 C238 C 0.60984 0.81332 1.18940
 C239 C 0.61825 0.80665 1.17459
 H240 H 0.61377 0.83953 1.20240
 H241 H 0.61669 0.79346 1.16895
 Cu242 Cu 0.64483 0.85319 1.17489
 Cu243 Cu 0.64587 0.81667 1.14897
 Cu244 Cu 0.67789 0.84893 1.14482
 N245 N 0.66506 0.86922 1.17479
 N246 N 0.67791 0.86730 1.16324
 C247 C 0.69091 0.87882 1.16724
 C248 C 0.68596 0.88855 1.18206
 C249 C 0.66941 0.88220 1.18644
 H250 H 0.70330 0.87964 1.16023
 H251 H 0.66162 0.88599 1.19785
 N252 N 0.67550 0.82887 1.12785
 N253 N 0.66343 0.81636 1.12990
 C254 C 0.66627 0.80327 1.11805
 C255 C 0.68076 0.80769 1.10792
 C256 C 0.68624 0.82412 1.11435
 H257 H 0.65883 0.79098 1.11730
 H258 H 0.69791 0.83136 1.11036
 H259 H 0.66518 0.83182 1.16184
 H260 H 0.65149 0.84359 1.14461
 N261 N 0.12857 0.31793 1.16209
 N262 N 0.12716 0.32925 1.17540
 C263 C 0.11372 0.32415 1.18591
 C264 C 0.10645 0.30874 1.17891
 C265 C 0.11619 0.30520 1.16378
 H266 H 0.11006 0.33052 1.19829
 H267 H 0.11481 0.29385 1.15501
 Cu268 Cu 0.14445 0.34817 1.17855
 Cu269 Cu 0.14728 0.31950 1.14445
 Cu270 Cu 0.17792 0.35344 1.15004
 N271 N 0.16179 0.36702 1.18185
 N272 N 0.17446 0.36944 1.17017
 C273 C 0.18487 0.38290 1.17568
 C274 C 0.17861 0.38901 1.19181
 C275 C 0.16396 0.37861 1.19536
 H276 H 0.19676 0.38717 1.16904
 H277 H 0.15578 0.37920 1.20711
 N278 N 0.17913 0.33591 1.13053
 N279 N 0.16719 0.32332 1.12807
 C280 C 0.17215 0.31300 1.11429
 C281 C 0.18810 0.31918 1.10801
 C282 C 0.19212 0.33373 1.11857
 H283 H 0.16531 0.30115 1.10985
 H284 H 0.20395 0.34174 1.11798
 H285 H 0.16570 0.33127 1.16107
 H286 H 0.15183 0.34647 1.14715
 N287 N 0.12989 0.82528 0.66785
 N288 N 0.13160 0.83838 0.67935
 C289 C 0.11922 0.83663 0.69203
 C290 C 0.10912 0.82175 0.68814
 C291 C 0.11619 0.81493 0.67265
 H292 H 0.11795 0.84527 0.70347
 H293 H 0.11222 0.80281 0.66593
 Cu294 Cu 0.15027 0.85606 0.67743
 Cu295 Cu 0.14669 0.82152 0.64877
 Cu296 Cu 0.18134 0.85131 0.64568
 N297 N 0.17050 0.87193 0.67595
 N298 N 0.18266 0.86988 0.66371
 C299 C 0.19578 0.88158 0.66671
 C300 C 0.19159 0.89155 0.68161
 C301 C 0.17542 0.88514 0.68707
 H302 H 0.20771 0.88242 0.65893
 H303 H 0.16827 0.88915 0.69884
 N304 N 0.17782 0.83159 0.62871
 N305 N 0.16494 0.81988 0.63031
 C306 C 0.16716 0.80687 0.61817
 C307 C 0.18206 0.81067 0.60834
 C308 C 0.18843 0.82649 0.61528
 H309 H 0.15885 0.79522 0.61689
 H310 H 0.20049 0.83316 0.61150
 H311 H 0.16764 0.83365 0.66180
 H312 H 0.15434 0.84790 0.64626
 N313 N 0.37044 0.67491 0.67002
 N314 N 0.36840 0.66185 0.68157
 C315 C 0.38041 0.66361 0.69466
 C316 C 0.39060 0.67847 0.69104
 C317 C 0.38401 0.68526 0.67523
 H318 H 0.38128 0.65511 0.70628
 H319 H 0.38806 0.69747 0.66866
 Cu320 Cu 0.34928 0.64480 0.67931
 Cu321 Cu 0.35388 0.67875 0.65045
 Cu322 Cu 0.31927 0.64858 0.64667
 N323 N 0.33017 0.62773 0.67699
 N324 N 0.31806 0.62964 0.66458
 C325 C 0.30532 0.61740 0.66718
 C326 C 0.30980 0.60720 0.68193
 C327 C 0.32568 0.61404 0.68773
 H328 H 0.29345 0.61635 0.65925
 H329 H 0.33282 0.61001 0.69955
 N330 N 0.32284 0.66861 0.62990
 N331 N 0.33576 0.68030 0.63162
 C332 C 0.33370 0.69326 0.61931
 C333 C 0.31889 0.68946 0.60927
 C334 C 0.31240 0.67369 0.61625
 H335 H 0.34208 0.70486 0.61801
 H336 H 0.30041 0.66701 0.61225
 H337 H 0.33233 0.66697 0.66259
 H338 H 0.34611 0.65250 0.64796
 N339 N 0.37013 0.18300 1.15999
 N340 N 0.37219 0.17228 1.17374
 C341 C 0.38582 0.17813 1.18366
 C342 C 0.39238 0.19346 1.17580
 C343 C 0.38213 0.19617 1.16082
 H344 H 0.39003 0.17237 1.19619
 H345 H 0.38299 0.20720 1.15154
 Cu346 Cu 0.35551 0.15307 1.17815
 Cu347 Cu 0.35121 0.18011 1.14275
 Cu348 Cu 0.32169 0.14559 1.15031
 N349 N 0.33888 0.13381 1.18245
 N350 N 0.32619 0.13044 1.17098
 C351 C 0.31656 0.11660 1.17695
 C352 C 0.32334 0.11126 1.19319
 C353 C 0.33747 0.12248 1.19635
 H354 H 0.30487 0.11146 1.17050
 H355 H 0.34583 0.12255 1.20802
 N356 N 0.31953 0.16237 1.13014
 N357 N 0.33116 0.17507 1.12691
 C358 C 0.32569 0.18476 1.11282
 C359 C 0.30973 0.17807 1.10711
 C360 C 0.30620 0.16385 1.11835
 H361 H 0.33217 0.19661 1.10781
 H362 H 0.29450 0.15563 1.11834
 H363 H 0.33342 0.16854 1.16020
 H364 H 0.34742 0.15309 1.14681
 N365 N 0.86681 0.68100 1.17134
 N366 N 0.86976 0.66632 1.18051
 C367 C 0.88343 0.66924 1.19173
 C368 C 0.88903 0.68676 1.18938
 C369 C 0.87825 0.69366 1.17625
 H370 H 0.88802 0.65991 1.20175
 H371 H 0.87807 0.70722 1.17125
 Cu372 Cu 0.85314 0.64644 1.17855
 Cu373 Cu 0.84654 0.68430 1.15613
 Cu374 Cu 0.82677 0.64528 1.14216
 N375 N 0.83573 0.62757 1.17518
 N376 N 0.82520 0.62750 1.16122
 C377 C 0.81317 0.61447 1.16321
 C378 C 0.81624 0.60594 1.17930
 C379 C 0.83075 0.61450 1.18649
 H380 H 0.80251 0.61195 1.15396
 H381 H 0.83644 0.61219 1.19951
 N382 N 0.82430 0.66810 1.12911
 N383 N 0.83143 0.68298 1.13510
 C384 C 0.82692 0.69661 1.12440
 C385 C 0.81624 0.69015 1.11098
 C386 C 0.81489 0.67194 1.11428
 H387 H 0.83118 0.71024 1.12632
 H388 H 0.80713 0.66237 1.10687
 H389 H 0.83008 0.66267 1.16228
 H390 H 0.85017 0.65877 1.14855
 N391 N 0.87017 0.17507 0.66463
 N392 N 0.86729 0.16406 0.67800
 C393 C 0.87841 0.16798 0.69140
 C394 C 0.88896 0.18209 0.68608
 C395 C 0.88348 0.18615 0.66895
 H396 H 0.87862 0.16121 0.70414
 H397 H 0.88818 0.19695 0.66063
 Cu398 Cu 0.84917 0.14571 0.67688
 Cu399 Cu 0.85522 0.17516 0.64341
 Cu400 Cu 0.81455 0.15594 0.65140
 N401 N 0.82835 0.13053 0.67643
 N402 N 0.81491 0.13477 0.66622
 C403 C 0.80158 0.12346 0.66929
 C404 C 0.80683 0.11137 0.68220
 C405 C 0.82400 0.11616 0.68640
 H406 H 0.78881 0.12448 0.66296
 H407 H 0.83228 0.11027 0.69658
 N408 N 0.81894 0.17262 0.63178
 N409 N 0.83446 0.17960 0.62813
 C410 C 0.83271 0.19084 0.61413
 C411 C 0.81517 0.19093 0.60892
 C412 C 0.80696 0.17906 0.62029
 H413 H 0.84316 0.19906 0.60880
 H414 H 0.79316 0.17556 0.62046
 H415 H 0.83569 0.17086 0.66113
 H416 H 0.84018 0.15157 0.64610
 N417 N 0.31663 0.36673 0.66462
 N418 N 0.32779 0.36844 0.67792
 C419 C 0.32325 0.38278 0.68766
 C420 C 0.30824 0.39020 0.68029
 C421 C 0.30436 0.37970 0.66567
 H422 H 0.32961 0.38679 0.69991
 H423 H 0.29309 0.38095 0.65692
 Cu424 Cu 0.34564 0.35046 0.68297
 Cu425 Cu 0.31792 0.34672 0.64824
 Cu426 Cu 0.35298 0.31772 0.65334
 N427 N 0.36679 0.33585 0.68382
 N428 N 0.37004 0.32359 0.67175
 C429 C 0.38496 0.31489 0.67615
 C430 C 0.39120 0.32188 0.69196
 C431 C 0.37939 0.33519 0.69644
 H432 H 0.39010 0.30337 0.66919
 H433 H 0.37955 0.34326 0.70836
 N434 N 0.33607 0.31596 0.63349
 N435 N 0.32307 0.32748 0.63115
 C436 C 0.31356 0.32254 0.61684
 C437 C 0.32068 0.30699 0.61011
 C438 C 0.33494 0.30317 0.62095
 H439 H 0.30163 0.32905 0.61231
 H440 H 0.34349 0.29164 0.62006
 H441 H 0.33044 0.32824 0.66435
 H442 H 0.34475 0.34380 0.65145
 N443 N 0.31627 0.86647 0.16344
 N444 N 0.32819 0.86970 0.17574
 C445 C 0.32313 0.88410 0.18522
 C446 C 0.30707 0.88993 0.17865
 C447 C 0.30313 0.87845 0.16482
 H448 H 0.32996 0.88925 0.19679
 H449 H 0.29130 0.87843 0.15679
 Cu450 Cu 0.34788 0.85329 0.17927
 Cu451 Cu 0.31775 0.84592 0.14779
 Cu452 Cu 0.35426 0.81824 0.15186
 N453 N 0.36762 0.83697 0.18255
 N454 N 0.37036 0.82350 0.17166
 C455 C 0.38448 0.81412 0.17743
 C456 C 0.39074 0.82202 0.19288
 C457 C 0.37973 0.83649 0.19566
 H458 H 0.38925 0.80194 0.17143
 H459 H 0.38023 0.84572 0.20671
 N460 N 0.33626 0.81546 0.13285
 N461 N 0.32284 0.82658 0.13100
 C462 C 0.31296 0.82144 0.11704
 C463 C 0.32015 0.80613 0.10998
 C464 C 0.33492 0.80260 0.12032
 H465 H 0.30084 0.82780 0.11284
 H466 H 0.34379 0.79138 0.11898
 H467 H 0.33289 0.82902 0.16398
 H468 H 0.34505 0.84406 0.14842
 N469 N 0.81788 0.36736 0.16254
 N470 N 0.82986 0.36995 0.17492
 C471 C 0.82453 0.38336 0.18558
 C472 C 0.80826 0.38922 0.17965
 C473 C 0.80443 0.37878 0.16502
 H474 H 0.83149 0.38791 0.19731
 H475 H 0.79260 0.37927 0.15697
 Cu476 Cu 0.85042 0.35448 0.17706
 Cu477 Cu 0.82019 0.34898 0.14459
 Cu478 Cu 0.85469 0.31918 0.14923
 N479 N 0.86853 0.33631 0.18039
 N480 N 0.87057 0.32297 0.16922
 C481 C 0.88394 0.31253 0.17488
 C482 C 0.89042 0.31953 0.19060
 C483 C 0.88032 0.33461 0.19373
 H484 H 0.88812 0.30029 0.16852
 H485 H 0.88127 0.34349 0.20502
 N486 N 0.83722 0.31767 0.12984
 N487 N 0.82454 0.32956 0.12769
 C488 C 0.81446 0.32476 0.11375
 C489 C 0.82083 0.30891 0.10703
 C490 C 0.83529 0.30474 0.11751
 H491 H 0.80263 0.33161 0.10949
 H492 H 0.84343 0.29291 0.11658
 H493 H 0.83371 0.33160 0.16142
 H494 H 0.84732 0.34550 0.14595
 N495 N 0.82241 0.87221 0.67129
 N496 N 0.83302 0.86826 0.68456
 C497 C 0.83062 0.87999 0.69781
 C498 C 0.81765 0.89192 0.69270
 C499 C 0.81280 0.88671 0.67569
 H500 H 0.83734 0.87938 0.71050
 H501 H 0.80229 0.89230 0.66767
 Cu502 Cu 0.84742 0.84701 0.68462
 Cu503 Cu 0.82051 0.85660 0.65065
 Cu504 Cu 0.85167 0.82265 0.64728
 N505 N 0.86680 0.83071 0.68135
 N506 N 0.86886 0.82115 0.66684
 C507 C 0.88257 0.80984 0.66935
 C508 C 0.88915 0.81252 0.68640
 C509 C 0.87889 0.82590 0.69348
 H510 H 0.88654 0.79955 0.66010
 H511 H 0.87962 0.83110 0.70689
 N512 N 0.83282 0.82661 0.62930
 N513 N 0.82084 0.83933 0.63095
 C514 C 0.80817 0.83690 0.61866
 C515 C 0.81235 0.82207 0.60866
 C516 C 0.82814 0.81591 0.61562
 H517 H 0.79620 0.84470 0.61772
 H518 H 0.83481 0.80367 0.61203
 H519 H 0.83049 0.83274 0.66115
 H520 H 0.84693 0.84921 0.65247
 N521 N 0.67707 0.63144 0.66133
 N522 N 0.66637 0.63110 0.67511
 C523 C 0.67180 0.61822 0.68649
 C524 C 0.68674 0.61027 0.67949
 C525 C 0.68964 0.61895 0.66351
 H526 H 0.66614 0.61567 0.69945
 H527 H 0.70048 0.61682 0.65445
 Cu528 Cu 0.64842 0.64969 0.67778
 Cu529 Cu 0.67493 0.64887 0.64200
 Cu530 Cu 0.65170 0.68677 0.65376
 N531 N 0.63011 0.66816 0.67927
 N532 N 0.63174 0.68249 0.66923
 C533 C 0.61952 0.69454 0.67372
 C534 C 0.60962 0.68771 0.68750
 C535 C 0.61656 0.67077 0.69067
 H536 H 0.61869 0.70785 0.66813
 H537 H 0.61305 0.66181 0.70142
 N538 N 0.66758 0.68587 0.63329
 N539 N 0.67608 0.67136 0.62825
 C540 C 0.68618 0.67545 0.61405
 C541 C 0.68394 0.69344 0.61018
 C542 C 0.67196 0.69951 0.62257
 H543 H 0.69517 0.66629 0.60763
 H544 H 0.66696 0.71297 0.62391
 H545 H 0.66997 0.66710 0.66110
 H546 H 0.65046 0.66079 0.64733
 N547 N 0.68464 0.13244 0.16352
 N548 N 0.67258 0.12969 0.17573
 C549 C 0.67688 0.11494 0.18512
 C550 C 0.69261 0.10836 0.17862
 C551 C 0.69718 0.11980 0.16492
 H552 H 0.66975 0.10998 0.19655
 H553 H 0.70898 0.11927 0.15692
 Cu554 Cu 0.65372 0.14686 0.17967
 Cu555 Cu 0.68394 0.15294 0.14766
 Cu556 Cu 0.64633 0.17919 0.14914
 N557 N 0.63392 0.16323 0.18158
 N558 N 0.63052 0.17513 0.16912
 C559 C 0.61635 0.18480 0.17392
 C560 C 0.61076 0.17884 0.19039
 C561 C 0.62219 0.16512 0.19486
 H562 H 0.61121 0.19613 0.16658
 H563 H 0.62222 0.15743 0.20707
 N564 N 0.66422 0.18137 0.13028
 N565 N 0.67842 0.17120 0.12965
 C566 C 0.68847 0.17640 0.11584
 C567 C 0.68043 0.19080 0.10764
 C568 C 0.66509 0.19362 0.11712
 H569 H 0.70119 0.17083 0.11257
 H570 H 0.65559 0.20418 0.11494
 H571 H 0.66818 0.17045 0.16242
 H572 H 0.65686 0.15350 0.14818
 N573 N 0.17747 0.62679 0.17068
 N574 N 0.16611 0.62950 0.18354
 C575 C 0.16898 0.61763 0.19668
 C576 C 0.18292 0.60685 0.19187
 C577 C 0.18794 0.61289 0.17519
 H578 H 0.16196 0.61734 0.20918
 H579 H 0.19919 0.60843 0.16760
 Cu580 Cu 0.15013 0.64959 0.18328
 Cu581 Cu 0.17934 0.64352 0.15076
 Cu582 Cu 0.14725 0.67679 0.14772
 N583 N 0.13022 0.66527 0.17980
 N584 N 0.12918 0.67659 0.16642
 C585 C 0.11570 0.68802 0.16949
 C586 C 0.10803 0.68342 0.18562
 C587 C 0.11751 0.66888 0.19159
 H588 H 0.11281 0.69975 0.16154
 H589 H 0.11622 0.66251 0.20446
 N590 N 0.16678 0.67432 0.13034
 N591 N 0.17901 0.66180 0.13177
 C592 C 0.19172 0.66496 0.11973
 C593 C 0.18730 0.68008 0.11012
 C594 C 0.17133 0.68561 0.11706
 H595 H 0.20375 0.65732 0.11858
 H596 H 0.16427 0.69768 0.11355
 H597 H 0.16799 0.66613 0.16199
 H598 H 0.15265 0.65001 0.15109
 N599 N 0.18279 0.13242 0.66533
 N600 N 0.17108 0.12987 0.67796
 C601 C 0.17640 0.11617 0.68837
 C602 C 0.19239 0.11005 0.68208
 C603 C 0.19607 0.12066 0.66746
 H604 H 0.16971 0.11163 0.70024
 H605 H 0.20770 0.12008 0.65921
 Cu606 Cu 0.15116 0.14610 0.68044
 Cu607 Cu 0.18059 0.15148 0.64768
 Cu608 Cu 0.14481 0.18013 0.65202
 N609 N 0.13136 0.16241 0.68319
 N610 N 0.12850 0.17516 0.67142
 C611 C 0.11422 0.18461 0.67630
 C612 C 0.10801 0.17768 0.69214
 C613 C 0.11923 0.16364 0.69621
 H614 H 0.10930 0.19631 0.66941
 H615 H 0.11881 0.15527 0.70795
 N616 N 0.16281 0.18290 0.63330
 N617 N 0.17601 0.17158 0.63122
 C618 C 0.18616 0.17728 0.61767
 C619 C 0.17927 0.19311 0.61122
 C620 C 0.16449 0.19631 0.62142
 H621 H 0.19830 0.17102 0.61347
 H622 H 0.15588 0.20781 0.62050
 H623 H 0.16693 0.16904 0.66379
 H624 H 0.15363 0.15423 0.64905
 N625 N 0.32408 0.62876 0.33022
 N626 N 0.33449 0.63278 0.31687
 C627 C 0.33225 0.62082 0.30376
 C628 C 0.31968 0.60859 0.30908
 C629 C 0.31485 0.61393 0.32604
 H630 H 0.33884 0.62136 0.29104
 H631 H 0.30460 0.60816 0.33419
 Cu632 Cu 0.34874 0.65418 0.31673
 Cu633 Cu 0.32181 0.64472 0.35064
 Cu634 Cu 0.35198 0.67954 0.35352
 N635 N 0.36775 0.67102 0.32000
 N636 N 0.36926 0.68105 0.33427
 C637 C 0.38272 0.69261 0.33187
 C638 C 0.38980 0.68965 0.31513
 C639 C 0.38006 0.67576 0.30813
 H640 H 0.38627 0.70316 0.34102
 H641 H 0.38135 0.67001 0.29500
 N642 N 0.33326 0.67556 0.37139
 N643 N 0.32169 0.66243 0.37006
 C644 C 0.30912 0.66473 0.38243
 C645 C 0.31293 0.67996 0.39208
 C646 C 0.32841 0.68641 0.38485
 H647 H 0.29750 0.65649 0.38367
 H648 H 0.33480 0.69888 0.38818
 H649 H 0.33109 0.66845 0.33963
 H650 H 0.34793 0.65267 0.34894
 N651 N 0.32647 0.12796 0.83576
 N652 N 0.33838 0.12963 0.82316
 C653 C 0.33464 0.11822 0.80989
 C654 C 0.31966 0.10874 0.81440
 C655 C 0.31491 0.11512 0.83102
 H656 H 0.34205 0.11722 0.79766
 H657 H 0.30333 0.11150 0.83856
 Cu658 Cu 0.35731 0.14713 0.82447
 Cu659 Cu 0.32584 0.14434 0.85613
 Cu660 Cu 0.34578 0.18445 0.84538
 N661 N 0.37184 0.16856 0.82291
 N662 N 0.36702 0.18303 0.83146
 C663 C 0.37778 0.19655 0.82723
 C664 C 0.39010 0.19038 0.81523
 C665 C 0.38606 0.17243 0.81285
 H666 H 0.37624 0.21003 0.83212
 H667 H 0.39229 0.16325 0.80372
 N668 N 0.32892 0.18185 0.86480
 N669 N 0.32154 0.16664 0.86963
 C670 C 0.31056 0.16988 0.88342
 C671 C 0.31115 0.18805 0.88717
 C672 C 0.32306 0.19503 0.87523
 H673 H 0.30222 0.15998 0.88966
 H674 H 0.32716 0.20882 0.87413
 H675 H 0.33172 0.16209 0.83720
 H676 H 0.34966 0.15887 0.85392
 N677 N 0.82498 0.62871 0.83010
 N678 N 0.83756 0.62999 0.81817
 C679 C 0.83445 0.61819 0.80503
 C680 C 0.81923 0.60890 0.80900
 C681 C 0.81362 0.61580 0.82508
 H682 H 0.84234 0.61687 0.79314
 H683 H 0.80152 0.61256 0.83192
 Cu684 Cu 0.85632 0.64763 0.81981
 Cu685 Cu 0.82257 0.64589 0.84946
 Cu686 Cu 0.85308 0.68016 0.85033
 N687 N 0.87312 0.66732 0.82075
 N688 N 0.87155 0.68007 0.83262
 C689 C 0.88388 0.69260 0.82966
 C690 C 0.89377 0.68748 0.81512
 C691 C 0.88665 0.67129 0.80983
 H692 H 0.88528 0.70475 0.83729
 H693 H 0.89049 0.66349 0.79836
 N694 N 0.83370 0.67832 0.86740
 N695 N 0.82234 0.66497 0.86766
 C696 C 0.81012 0.66829 0.88028
 C697 C 0.81393 0.68462 0.88802
 C698 C 0.82893 0.69051 0.87957
 H699 H 0.79858 0.66020 0.88271
 H700 H 0.83542 0.70320 0.88166
 H701 H 0.83455 0.66591 0.83520
 H702 H 0.84858 0.65267 0.85094
 N703 N 0.81936 0.12931 0.33059
 N704 N 0.83037 0.13173 0.31735
 C705 C 0.82719 0.11955 0.30464
 C706 C 0.81333 0.10890 0.31007
 C707 C 0.80875 0.11536 0.32672
 H708 H 0.83409 0.11889 0.29209
 H709 H 0.79789 0.11091 0.33488
 Cu710 Cu 0.84662 0.15165 0.31674
 Cu711 Cu 0.81868 0.14592 0.35062
 Cu712 Cu 0.85227 0.17752 0.35280
 N713 N 0.86698 0.16696 0.31934
 N714 N 0.86938 0.17728 0.33327
 C715 C 0.88336 0.18804 0.33019
 C716 C 0.88984 0.18424 0.31336
 C717 C 0.87922 0.17067 0.30705
 H718 H 0.88757 0.19875 0.33885
 H719 H 0.87975 0.16464 0.29400
 N720 N 0.83348 0.17553 0.37098
 N721 N 0.82042 0.16392 0.36973
 C722 C 0.80837 0.16762 0.38231
 C723 C 0.81417 0.18212 0.39208
 C724 C 0.83018 0.18670 0.38464
 H725 H 0.79592 0.16080 0.38376
 H726 H 0.83811 0.19820 0.38807
 H727 H 0.83043 0.16828 0.33921
 H728 H 0.84549 0.15107 0.34901
 N729 N 0.67657 0.37159 0.33189
 N730 N 0.66375 0.37015 0.32016
 C731 C 0.66619 0.38227 0.30714
 C732 C 0.68123 0.39195 0.31098
 C733 C 0.68743 0.38491 0.32685
 H734 H 0.65793 0.38358 0.29545
 H735 H 0.69956 0.38841 0.33356
 Cu736 Cu 0.64554 0.35198 0.32202
 Cu737 Cu 0.67979 0.35428 0.35109
 Cu738 Cu 0.65065 0.31881 0.35179
 N739 N 0.63006 0.33124 0.32223
 N740 N 0.63234 0.31827 0.33383
 C741 C 0.62087 0.30506 0.33039
 C742 C 0.61080 0.30998 0.31584
 C743 C 0.61688 0.32674 0.31103
 H744 H 0.62017 0.29262 0.33770
 H745 H 0.61262 0.33462 0.29971
 N746 N 0.66985 0.32143 0.36906
 N747 N 0.68083 0.33509 0.36918
 C748 C 0.69322 0.33218 0.38180
 C749 C 0.68993 0.31580 0.38971
 C750 C 0.67498 0.30946 0.38139
 H751 H 0.70447 0.34069 0.38423
 H752 H 0.66870 0.29671 0.38370
 H753 H 0.66815 0.33410 0.33672
 H754 H 0.65399 0.34640 0.35296
 N755 N 0.68040 0.86707 0.83705
 N756 N 0.66937 0.86953 0.82373
 C757 C 0.67518 0.88319 0.81361
 C758 C 0.69080 0.88934 0.82086
 C759 C 0.69374 0.87881 0.83569
 H760 H 0.66906 0.88778 0.80141
 H761 H 0.70490 0.87946 0.84464
 Cu762 Cu 0.64953 0.85341 0.82015
 Cu763 Cu 0.67725 0.84834 0.85474
 Cu764 Cu 0.64128 0.82040 0.84937
 N765 N 0.62939 0.83756 0.81721
 N766 N 0.62577 0.82535 0.82929
 C767 C 0.61151 0.81605 0.82410
 C768 C 0.60611 0.82249 0.80774
 C769 C 0.61776 0.83612 0.80369
 H770 H 0.60619 0.80461 0.83107
 H771 H 0.61801 0.84399 0.79160
 N772 N 0.65853 0.81757 0.86882
 N773 N 0.67188 0.82861 0.87121
 C774 C 0.68174 0.82270 0.88493
 C775 C 0.67448 0.80703 0.89123
 C776 C 0.65977 0.80414 0.88075
 H777 H 0.69401 0.82862 0.88927
 H778 H 0.65102 0.79277 0.88133
 H779 H 0.66406 0.83063 0.83826
 H780 H 0.65030 0.84622 0.85175
 N781 N 0.17398 0.36978 0.83216
 N782 N 0.16205 0.36856 0.81949
 C783 C 0.16581 0.38046 0.80658
 C784 C 0.18081 0.38973 0.81147
 C785 C 0.18557 0.38272 0.82785
 H786 H 0.15849 0.38193 0.79430
 H787 H 0.19721 0.38603 0.83549
 Cu788 Cu 0.14330 0.35080 0.82010
 Cu789 Cu 0.17503 0.35287 0.85199
 Cu790 Cu 0.14324 0.31987 0.85254
 N791 N 0.12591 0.33162 0.82063
 N792 N 0.12619 0.31956 0.83338
 C793 C 0.11423 0.30684 0.82982
 C794 C 0.10590 0.31111 0.81403
 C795 C 0.11350 0.32702 0.80857
 H796 H 0.11220 0.29497 0.83780
 H797 H 0.11096 0.33404 0.79622
 N798 N 0.16143 0.32202 0.87091
 N799 N 0.17378 0.33442 0.87086
 C800 C 0.18561 0.33056 0.88382
 C801 C 0.18041 0.31491 0.89217
 C802 C 0.16504 0.31001 0.88371
 H803 H 0.19786 0.33761 0.88595
 H804 H 0.15778 0.29778 0.88591
 H805 H 0.16312 0.33245 0.83809
 H806 H 0.14868 0.34712 0.85194
 N807 N 0.17772 0.87121 0.33058
 N808 N 0.16694 0.86773 0.31733
 C809 C 0.16964 0.87947 0.30410
 C810 C 0.18298 0.89093 0.30915
 C811 C 0.18774 0.88543 0.32615
 H812 H 0.16285 0.87921 0.29143
 H813 H 0.19845 0.89061 0.33414
 Cu814 Cu 0.15191 0.84700 0.31730
 Cu815 Cu 0.17922 0.85523 0.35116
 Cu816 Cu 0.14788 0.82127 0.35373
 N817 N 0.13227 0.83105 0.32036
 N818 N 0.13063 0.82049 0.33426
 C819 C 0.11699 0.80925 0.33134
 C820 C 0.10996 0.81306 0.31467
 C821 C 0.11985 0.82712 0.30831
 H822 H 0.11328 0.79836 0.34006
 H823 H 0.11870 0.83344 0.29540
 N824 N 0.16663 0.82467 0.37184
 N825 N 0.17852 0.83752 0.37068
 C826 C 0.19101 0.83478 0.38311
 C827 C 0.18686 0.81952 0.39261
 C828 C 0.17121 0.81354 0.38527
 H829 H 0.20287 0.84265 0.38442
 H830 H 0.16455 0.80118 0.38845
 H831 H 0.16914 0.83186 0.34017
 H832 H 0.15283 0.84802 0.34950
 C833 C 0.25510 1.04892 0.25278
 C834 C 0.26704 1.03954 0.24225
 C835 C 0.26619 1.02086 0.24155
 C836 C 0.25266 1.01133 0.25034
 C837 C 0.23998 1.02134 0.25990
 C838 C 0.24147 1.03999 0.26153
 C839 C 0.25173 0.99122 0.24936
 C840 C 0.24186 0.98122 0.26188
 C841 C 0.24027 0.96258 0.26034
 C842 C 0.24930 0.95366 0.24682
 C843 C 0.26002 0.96302 0.23499
 C844 C 0.26082 0.98170 0.23593
 H845 H 0.25589 1.06338 0.25345
 H846 H 0.27638 1.01408 0.23420
 H847 H 0.22895 1.01488 0.26627
 H848 H 0.23520 0.98767 0.27279
 H849 H 0.24857 0.93921 0.24598
 H850 H 0.26836 0.98847 0.22581
 C851 C 0.25344 0.54599 0.75484
 C852 C 0.26652 0.53708 0.74537
 C853 C 0.26851 0.51854 0.74743
 C854 C 0.25657 0.50846 0.75796
 C855 C 0.24389 0.51807 0.76792
 C856 C 0.24258 0.53673 0.76663
 C857 C 0.25641 0.48822 0.75741
 C858 C 0.24602 0.47795 0.76934
 C859 C 0.24380 0.45945 0.76692
 C860 C 0.25273 0.45083 0.75317
 C861 C 0.26416 0.46031 0.74217
 C862 C 0.26573 0.47885 0.74404
 H863 H 0.25212 0.56037 0.75348
 H864 H 0.27913 0.51231 0.74026
 H865 H 0.23440 0.51141 0.77625
 H866 H 0.23915 0.48405 0.78030
 H867 H 0.25133 0.43651 0.75147
 H868 H 0.27390 0.48562 0.73446
 C869 C 0.74547 -0.05033 0.25352
 C870 C 0.75771 -0.04062 0.26339
 C871 C 0.75669 -0.02195 0.26389
 C872 C 0.74289 -0.01273 0.25506
 C873 C 0.73003 -0.02304 0.24595
 C874 C 0.73168 -0.04171 0.24465
 C875 C 0.74272 0.00742 0.25428
 C876 C 0.73385 0.01651 0.24033
 C877 C 0.73500 0.03513 0.23857
 C878 C 0.74560 0.04481 0.25027
 C879 C 0.75417 0.03637 0.26447
 C880 C 0.75230 0.01781 0.26677
 H881 H 0.74670 -0.06476 0.25279
 H882 H 0.76709 -0.01488 0.27074
 H883 H 0.71900 -0.01675 0.23932
 H884 H 0.72648 0.00936 0.23030
 H885 H 0.74668 0.05918 0.24868
 H886 H 0.75874 0.01165 0.27806
 C887 C 0.74693 0.45228 0.75094
 C888 C 0.75911 0.46165 0.76118
 C889 C 0.75960 0.48037 0.76039
 C890 C 0.74744 0.49018 0.74974
 C891 C 0.73562 0.48011 0.73899
 C892 C 0.73553 0.46131 0.73939
 C893 C 0.74737 0.51054 0.74958
 C894 C 0.73646 0.52043 0.73770
 C895 C 0.73713 0.53919 0.73695
 C896 C 0.74897 0.54838 0.74780
 C897 C 0.75922 0.53924 0.76030
 C898 C 0.75821 0.52052 0.76138
 H899 H 0.74692 0.43779 0.75135
 H900 H 0.76968 0.48682 0.76818
 H901 H 0.72619 0.48642 0.73029
 H902 H 0.72745 0.51402 0.72866
 H903 H 0.74955 0.56285 0.74716
 H904 H 0.76617 0.51416 0.77145
 C905 C 0.24833 0.44806 0.25428
 C906 C 0.25875 0.45710 0.26664
 C907 C 0.25898 0.47587 0.26665
 C908 C 0.24989 0.48586 0.25338
 C909 C 0.24008 0.47611 0.24054
 C910 C 0.23877 0.45744 0.24143
 C911 C 0.25069 0.50612 0.25281
 C912 C 0.23928 0.51615 0.24156
 C913 C 0.24015 0.53486 0.24082
 C914 C 0.25209 0.54391 0.25165
 C915 C 0.26334 0.53458 0.26306
 C916 C 0.26281 0.51582 0.26351
 H917 H 0.24781 0.43357 0.25453
 H918 H 0.26663 0.48227 0.27691
 H919 H 0.23314 0.48263 0.22981
 H920 H 0.22924 0.50989 0.23358
 H921 H 0.25258 0.55840 0.25123
 H922 H 0.27228 0.50921 0.27198
 C923 C 0.74546 1.04888 0.74954
 C924 C 0.75891 1.03989 0.74061
 C925 C 0.76031 1.02123 0.74218
 C926 C 0.74759 1.01128 0.75180
 C927 C 0.73427 1.02086 0.76081
 C928 C 0.73359 1.03952 0.76013
 C929 C 0.74827 0.99117 0.75254
 C930 C 0.73914 0.98152 0.76588
 C931 C 0.73975 0.96281 0.76653
 C932 C 0.75044 0.95357 0.75462
 C933 C 0.75944 0.96266 0.74119
 C934 C 0.75792 0.98130 0.73980
 H935 H 0.74471 1.06336 0.74890
 H936 H 0.77124 1.01475 0.73567
 H937 H 0.72413 1.01419 0.76835
 H938 H 0.73165 0.98818 0.77608
 H939 H 0.75111 0.93910 0.75530
 H940 H 0.76449 0.98784 0.72886
 C941 C 0.75342 0.54788 0.24931
 C942 C 0.76662 0.53834 0.24068
 C943 C 0.76707 0.51964 0.24205
 C944 C 0.75343 0.51018 0.25087
 C945 C 0.73994 0.52029 0.25910
 C946 C 0.74028 0.53905 0.25885
 C947 C 0.75288 0.49003 0.25089
 C948 C 0.74258 0.48040 0.26338
 C949 C 0.74062 0.46177 0.26204
 C950 C 0.74972 0.45247 0.24884
 C951 C 0.76106 0.46143 0.23728
 C952 C 0.76223 0.48011 0.23798
 H953 H 0.75337 0.56237 0.24858
 H954 H 0.77794 0.51277 0.23583
 H955 H 0.72914 0.51386 0.26587
 H956 H 0.73580 0.48715 0.27405
 H957 H 0.74860 0.43804 0.24811
 H958 H 0.77018 0.48662 0.22801
 C959 C 0.25195 -0.04783 0.75214
 C960 C 0.26386 -0.03844 0.76270
 C961 C 0.26276 -0.01977 0.76379
 C962 C 0.24908 -0.01027 0.75496
 C963 C 0.23644 -0.02038 0.74534
 C964 C 0.23826 -0.03896 0.74338
 C965 C 0.24857 0.00994 0.75495
 C966 C 0.23891 0.01946 0.74180
 C967 C 0.23946 0.03817 0.74087
 C968 C 0.25029 0.04762 0.75256
 C969 C 0.25961 0.03876 0.76601
 C970 C 0.25837 0.02006 0.76749
 H971 H 0.25315 -0.06224 0.75103
 H972 H 0.27287 -0.01297 0.77128
 H973 H 0.22532 -0.01407 0.73891
 H974 H 0.23130 0.01264 0.73175
 H975 H 0.25091 0.06207 0.75164
 H976 H 0.26541 0.01364 0.77825
 C977 C 0.24801 0.24816 1.04750
 C978 C 0.23551 0.25849 1.03851
 C979 C 0.23483 0.25812 1.01985
 C980 C 0.24758 0.24858 1.00991
 C981 C 0.26050 0.23875 1.01944
 C982 C 0.26025 0.23800 1.03810
 C983 C 0.24739 0.24892 0.98985
 C984 C 0.25585 0.23534 0.97982
 C985 C 0.25597 0.23595 0.96113
 C986 C 0.24655 0.24945 0.95241
 C987 C 0.23780 0.26279 0.96181
 C988 C 0.23874 0.26289 0.98045
 H989 H 0.24821 0.24803 1.06194
 H990 H 0.22441 0.26553 1.01337
 H991 H 0.27073 0.23144 1.01265
 H992 H 0.26258 0.22439 0.98629
 H993 H 0.24613 0.24968 0.93798
 H994 H 0.23244 0.27378 0.98737
 C995 C 0.25055 0.75001 0.54694
 C996 C 0.24047 0.76254 0.53767
 C997 C 0.24086 0.76283 0.51899
 C998 C 0.25025 0.74961 0.50936
 C999 C 0.25977 0.73660 0.51923
 C1000 C 0.26046 0.73727 0.53788
 C1001 C 0.25009 0.74935 0.48928
 C1002 C 0.26343 0.74036 0.47959
 C1003 C 0.26285 0.73953 0.46093
 C1004 C 0.24973 0.74880 0.45170
 C1005 C 0.23681 0.75835 0.46080
 C1006 C 0.23658 0.75806 0.47947
 H1007 H 0.25065 0.75014 0.56139
 H1008 H 0.23361 0.77329 0.51226
 H1009 H 0.26688 0.72597 0.51271
 H1010 H 0.27424 0.73375 0.48628
 H1011 H 0.24961 0.74864 0.43726
 H1012 H 0.22593 0.76493 0.48608
 C1013 C 0.24580 0.75177 -0.04659
 C1014 C 0.25678 0.76357 -0.03751
 C1015 C 0.25561 0.76492 -0.01892
 C1016 C 0.24349 0.75441 -0.00902
 C1017 C 0.23173 0.74345 -0.01891
 C1018 C 0.23299 0.74204 -0.03752
 C1019 C 0.24394 0.75402 0.01125
 C1020 C 0.23281 0.74248 0.02122
 C1021 C 0.23470 0.74059 0.03976
 C1022 C 0.24784 0.75014 0.04863
 C1023 C 0.25831 0.76237 0.03948
 C1024 C 0.25621 0.76447 0.02103
 H1025 H 0.24676 0.75069 -0.06095
 H1026 H 0.26470 0.77396 -0.01265
 H1027 H 0.22177 0.73544 -0.01259
 H1028 H 0.22285 0.73441 0.01496
 H1029 H 0.24936 0.74871 0.06292
 H1030 H 0.26465 0.77413 0.01474
 C1031 C 0.24429 0.25297 0.45329
 C1032 C 0.25439 0.26593 0.46195
 C1033 C 0.25493 0.26612 0.48066
 C1034 C 0.24660 0.25247 0.49076
 C1035 C 0.23747 0.23890 0.48139
 C1036 C 0.23578 0.23958 0.46285
 C1037 C 0.24752 0.25220 0.51082
 C1038 C 0.23525 0.24222 0.52097
 C1039 C 0.23634 0.24155 0.53959
 C1040 C 0.24928 0.25138 0.54841
 C1041 C 0.26134 0.26163 0.53881
 C1042 C 0.26065 0.26183 0.52015
 H1043 H 0.24335 0.25303 0.43888
 H1044 H 0.26219 0.27671 0.48706
 H1045 H 0.23146 0.22776 0.48823
 H1046 H 0.22452 0.23514 0.51471
 H1047 H 0.24996 0.25106 0.56284
 H1048 H 0.27070 0.26926 0.51320
 C1049 C 0.74804 0.74585 1.04538
 C1050 C 0.73610 0.75672 1.03635
 C1051 C 0.73492 0.75573 1.01775
 C1052 C 0.74610 0.74424 1.00780
 C1053 C 0.75832 0.73358 1.01749
 C1054 C 0.75915 0.73426 1.03616
 C1055 C 0.74498 0.74347 0.98764
 C1056 C 0.75406 0.73022 0.97765
 C1057 C 0.75323 0.73000 0.95895
 C1058 C 0.74233 0.74216 0.95008
 C1059 C 0.73311 0.75516 0.95944
 C1060 C 0.73489 0.75620 0.97796
 H1061 H 0.74873 0.74649 1.05979
 H1062 H 0.72483 0.76375 1.01155
 H1063 H 0.76766 0.72500 1.01091
 H1064 H 0.76222 0.72026 0.98398
 H1065 H 0.74139 0.74182 0.93567
 H1066 H 0.72815 0.76707 0.98440
 C1067 C 0.76755 0.26859 0.54547
 C1068 C 0.75569 0.27903 0.53580
 C1069 C 0.75647 0.27901 0.51712
 C1070 C 0.76943 0.26879 0.50799
 C1071 C 0.78179 0.25903 0.51842
 C1072 C 0.78036 0.25833 0.53702
 C1073 C 0.76897 0.26693 0.48793
 C1074 C 0.77761 0.25252 0.47927
 C1075 C 0.77573 0.24975 0.46089
 C1076 C 0.76464 0.26089 0.45105
 C1077 C 0.75629 0.27547 0.45899
 C1078 C 0.75891 0.27879 0.47721
 H1079 H 0.76657 0.26812 0.55987
 H1080 H 0.74624 0.28614 0.51007
 H1081 H 0.79210 0.25123 0.51238
 H1082 H 0.78532 0.24284 0.48655
 H1083 H 0.76287 0.25849 0.43692
 H1084 H 0.75255 0.29036 0.48285
 C1085 C 0.75434 0.24706 -0.04853
 C1086 C 0.76556 0.25850 -0.03922
 C1087 C 0.76412 0.25982 -0.02064
 C1088 C 0.75074 0.25058 -0.01124
 C1089 C 0.73862 0.24038 -0.02134
 C1090 C 0.74072 0.23818 -0.03975
 C1091 C 0.74957 0.25130 0.00882
 C1092 C 0.73958 0.23852 0.01847
 C1093 C 0.73843 0.23927 0.03708
 C1094 C 0.74837 0.25179 0.04642
 C1095 C 0.75894 0.26400 0.03739
 C1096 C 0.75891 0.26434 0.01873
 H1097 H 0.75555 0.24586 -0.06286
 H1098 H 0.77377 0.26791 -0.01387
 H1099 H 0.72752 0.23389 -0.01516
 H1100 H 0.73258 0.22787 0.01189
 H1101 H 0.74809 0.25185 0.06087
 H1102 H 0.76661 0.27459 0.01233
 C1103 C 0.75241 0.75207 0.45167
 C1104 C 0.76568 0.76098 0.46090
 C1105 C 0.76610 0.76032 0.47950
 C1106 C 0.75268 0.75158 0.48924
 C1107 C 0.73887 0.74331 0.47949
 C1108 C 0.73893 0.74316 0.46074
 C1109 C 0.75307 0.75135 0.50933
 C1110 C 0.74306 0.73879 0.51920
 C1111 C 0.74239 0.73961 0.53787
 C1112 C 0.75253 0.75230 0.54688
 C1113 C 0.76340 0.76405 0.53762
 C1114 C 0.76331 0.76391 0.51897
 H1115 H 0.75233 0.75254 0.43724
 H1116 H 0.77721 0.76647 0.48604
 H1117 H 0.72814 0.73678 0.48626
 H1118 H 0.73548 0.72853 0.51262
 H1119 H 0.75234 0.75269 0.56131
 H1120 H 0.77094 0.77407 0.51232
 C1121 C 1.04573 0.24492 0.24543
 C1122 C 1.03678 0.23255 0.25604
 C1123 C 1.01836 0.23391 0.25769
 C1124 C 1.00903 0.24840 0.24984
 C1125 C 1.01880 0.26132 0.24021
 C1126 C 1.03692 0.25922 0.23747
 C1127 C 0.98933 0.25020 0.25160
 C1128 C 0.97956 0.26028 0.23895
 C1129 C 0.96136 0.26271 0.24078
 C1130 C 0.95251 0.25405 0.25453
 C1131 C 0.96150 0.24307 0.26659
 C1132 C 0.97994 0.24170 0.26558
 H1133 H 1.05986 0.24371 0.24372
 H1134 H 1.01156 0.22385 0.26535
 H1135 H 1.01253 0.27302 0.23460
 H1136 H 0.98588 0.26635 0.22758
 H1137 H 0.93831 0.25535 0.25547
 H1138 H 0.98666 0.23364 0.27543
 C1139 C 0.54735 0.24966 0.75043
 C1140 C 0.53770 0.23889 0.76199
 C1141 C 0.51930 0.23853 0.76082
 C1142 C 0.51023 0.24857 0.74764
 C1143 C 0.52047 0.25898 0.73575
 C1144 C 0.53883 0.25979 0.73739
 C1145 C 0.49038 0.24863 0.74667
 C1146 C 0.48125 0.26205 0.73700
 C1147 C 0.46284 0.26286 0.73704
 C1148 C 0.45328 0.25079 0.74731
 C1149 C 0.46177 0.23716 0.75674
 C1150 C 0.48019 0.23575 0.75596
 H1151 H 0.56160 0.25001 0.75147
 H1152 H 0.51240 0.23065 0.77060
 H1153 H 0.51457 0.26628 0.72486
 H1154 H 0.48806 0.27241 0.72978
 H1155 H 0.43903 0.25174 0.74756
 H1156 H 0.48629 0.22482 0.76305
 C1157 C -0.04917 0.25504 0.74218
 C1158 C -0.03970 0.26522 0.75443
 C1159 C -0.02125 0.26413 0.75478
 C1160 C -0.01198 0.25383 0.74199
 C1161 C -0.02204 0.24430 0.72922
 C1162 C -0.04051 0.24429 0.72984
 C1163 C 0.00787 0.25243 0.74249
 C1164 C 0.01679 0.23813 0.73402
 C1165 C 0.03515 0.23632 0.73530
 C1166 C 0.04472 0.24828 0.74573
 C1167 C 0.03644 0.26276 0.75390
 C1168 C 0.01819 0.26510 0.75187
 H1169 H -0.06345 0.25527 0.74244
 H1170 H -0.01442 0.27136 0.76513
 H1171 H -0.01583 0.23642 0.71899
 H1172 H 0.00976 0.22797 0.72672
 H1173 H 0.05889 0.24677 0.74686
 H1174 H 0.01226 0.27669 0.75794
 C1175 C 0.45474 0.25579 0.24161
 C1176 C 0.46382 0.26655 0.25367
 C1177 C 0.48232 0.26614 0.25407
 C1178 C 0.49200 0.25516 0.24216
 C1179 C 0.48224 0.24470 0.22989
 C1180 C 0.46381 0.24474 0.22991
 C1181 C 0.51190 0.25390 0.24308
 C1182 C 0.52119 0.24025 0.23395
 C1183 C 0.53951 0.23849 0.23551
 C1184 C 0.54875 0.24978 0.24691
 C1185 C 0.54017 0.26366 0.25576
 C1186 C 0.52195 0.26601 0.25347
 H1187 H 0.44045 0.25571 0.24159
 H1188 H 0.48873 0.27391 0.26426
 H1189 H 0.48852 0.23641 0.22008
 H1190 H 0.51459 0.23048 0.22582
 H1191 H 0.56290 0.24827 0.24828
 H1192 H 0.51591 0.27716 0.26016
 C1193 C 1.04777 0.75521 0.74989
 C1194 C 1.03925 0.74411 0.76207
 C1195 C 1.02103 0.74133 0.76039
 C1196 C 1.01147 0.74841 0.74567
 C1197 C 1.02093 0.75857 0.73289
 C1198 C 1.03881 0.76252 0.73539
 C1199 C 0.99183 0.74564 0.74388
 C1200 C 0.98150 0.75689 0.73271
 C1201 C 0.96309 0.75528 0.73204
 C1202 C 0.95478 0.74291 0.74311
 C1203 C 0.96449 0.73158 0.75413
 C1204 C 0.98293 0.73244 0.75406
 H1205 H 1.06176 0.75774 0.75139
 H1206 H 1.01469 0.73336 0.77047
 H1207 H 1.01465 0.76373 0.72104
 H1208 H 0.98735 0.76758 0.72511
 H1209 H 0.94052 0.74201 0.74318
 H1210 H 0.98996 0.72309 0.76242
 C1211 C 0.54703 0.75547 0.26065
 C1212 C 0.53717 0.74372 0.27103
 C1213 C 0.51877 0.74537 0.27140
 C1214 C 0.51008 0.75925 0.26189
 C1215 C 0.52063 0.77160 0.25233
 C1216 C 0.53899 0.76947 0.25132
 C1217 C 0.49024 0.76061 0.26158
 C1218 C 0.48134 0.76991 0.24769
 C1219 C 0.46291 0.77145 0.24763
 C1220 C 0.45316 0.76263 0.26065
 C1221 C 0.46141 0.75247 0.27387
 C1222 C 0.47987 0.75212 0.27482
 H1223 H 0.56124 0.75396 0.26022
 H1224 H 0.51151 0.73537 0.27871
 H1225 H 0.51473 0.78272 0.24532
 H1226 H 0.48846 0.77602 0.23684
 H1227 H 0.43889 0.76321 0.26014
 H1228 H 0.48585 0.74475 0.28562
 C1229 C -0.04638 0.74809 0.25558
 C1230 C -0.03648 0.76061 0.26496
 C1231 C -0.01812 0.75919 0.26527
 C1232 C -0.00947 0.74489 0.25662
 C1233 C -0.01988 0.73195 0.24776
 C1234 C -0.03831 0.73371 0.24690
 C1235 C 0.01028 0.74400 0.25634
 C1236 C 0.01933 0.73559 0.24213
 C1237 C 0.03785 0.73552 0.24155
 C1238 C 0.04720 0.74468 0.25473
 C1239 C 0.03867 0.75325 0.26874
 C1240 C 0.02031 0.75232 0.26992
 H1241 H -0.06061 0.74939 0.25537
 H1242 H -0.01079 0.76967 0.27182
 H1243 H -0.01376 0.72072 0.24120
 H1244 H 0.01213 0.72916 0.23152
 H1245 H 0.06145 0.74534 0.25405
 H1246 H 0.01400 0.75863 0.28115
 C1247 C 0.45129 0.74551 0.75397
 C1248 C 0.46008 0.75549 0.76683
 C1249 C 0.47851 0.75508 0.76766
 C1250 C 0.48846 0.74581 0.75464
 C1251 C 0.47912 0.73627 0.74134
 C1252 C 0.46065 0.73562 0.74144
 C1253 C 0.50831 0.74654 0.75468
 C1254 C 0.51858 0.73356 0.74563
 C1255 C 0.53704 0.73512 0.74472
 C1256 C 0.54532 0.74926 0.75360
 C1257 C 0.53564 0.76172 0.76324
 C1258 C 0.51725 0.76059 0.76347
 H1259 H 0.43700 0.74555 0.75365
 H1260 H 0.48478 0.76225 0.77840
 H1261 H 0.48594 0.72920 0.73090
 H1262 H 0.51241 0.72240 0.73900
 H1263 H 0.55957 0.75033 0.75342
 H1264 H 0.51018 0.77111 0.77019
 C1265 C 0.43116 0.29742 0.28717
 C1266 C 0.42868 0.27893 0.28532
 N1267 N 0.41504 0.27083 0.29366
 C1268 C 0.40364 0.28039 0.30375
 C1269 C 0.40574 0.29900 0.30534
 N1270 N 0.41952 0.30711 0.29697
 N1271 N 0.44505 0.30536 0.27893
 C1272 C 0.45639 0.29566 0.26874
 C1273 C 0.45349 0.27725 0.26639
 N1274 N 0.43969 0.26939 0.27485
 H1275 H 0.39278 0.27354 0.31008
 H1276 H 0.46712 0.30233 0.26199
 C1277 C 0.42549 0.78550 0.79873
 C1278 C 0.42898 0.79059 0.78112
 N1279 N 0.42007 0.80452 0.77378
 C1280 C 0.40760 0.81349 0.78316
 C1281 C 0.40348 0.80800 0.80063
 N1282 N 0.41274 0.79416 0.80798
 N1283 N 0.43449 0.77158 0.80607
 C1284 C 0.44661 0.76231 0.79645
 C1285 C 0.44959 0.76697 0.77860
 N1286 N 0.44071 0.78107 0.77140
 H1287 H 0.40068 0.82438 0.77673
 H1288 H 0.45329 0.75097 0.80239
 C1289 C -0.07202 0.29473 0.78932
 C1290 C -0.07306 0.29725 0.77084
 N1291 N -0.08546 0.30837 0.76394
 C1292 C -0.09708 0.31696 0.77468
 C1293 C -0.09658 0.31395 0.79317
 N1294 N -0.08394 0.30292 0.80005
 N1295 N -0.05946 0.28370 0.79617
 C1296 C -0.04808 0.27481 0.78533
 C1297 C -0.04964 0.27672 0.76677
 N1298 N -0.06208 0.28800 0.76003
 H1299 H -0.10701 0.32550 0.76874
 H1300 H -0.03849 0.26575 0.79105
 C1301 C -0.06808 0.79610 0.29423
 C1302 C -0.06960 0.79521 0.27563
 N1303 N -0.08264 0.80440 0.26724
 C1304 C -0.09454 0.81411 0.27666
 C1305 C -0.09370 0.81414 0.29536
 N1306 N -0.08032 0.80525 0.30367
 N1307 N -0.05500 0.78694 0.30261
 C1308 C -0.04364 0.77651 0.29326
 C1309 C -0.04582 0.77473 0.27477
 N1310 N -0.05869 0.78430 0.26639
 H1311 H -0.10510 0.82088 0.26966
 H1312 H -0.03371 0.76885 0.30030
 C1313 C 0.56914 0.70932 0.30189
 C1314 C 0.57054 0.70967 0.28326
 N1315 N 0.58336 0.70005 0.27516
 C1316 C 0.59502 0.69022 0.28485
 C1317 C 0.59415 0.69036 0.30355
 N1318 N 0.58113 0.69991 0.31164
 N1319 N 0.55615 0.71885 0.30990
 C1320 C 0.54473 0.72901 0.30015
 C1321 C 0.54669 0.73007 0.28157
 N1322 N 0.55954 0.72024 0.27361
 H1323 H 0.60527 0.68292 0.27801
 H1324 H 0.53486 0.73693 0.30689
 C1325 C 0.56951 0.20632 0.79454
 C1326 C 0.56989 0.22499 0.79635
 N1327 N 0.58171 0.23263 0.80759
 C1328 C 0.59343 0.22245 0.81685
 C1329 C 0.59370 0.20383 0.81433
 N1330 N 0.58159 0.19622 0.80331
 N1331 N 0.55758 0.19867 0.78343
 C1332 C 0.54626 0.20890 0.77371
 C1333 C 0.54726 0.22760 0.77479
 N1334 N 0.55902 0.23521 0.78620
 H1335 H 0.60298 0.22891 0.82540
 H1336 H 0.53720 0.20254 0.76454
 C1337 C 1.07237 0.71575 0.79793
 C1338 C 1.07728 0.71918 0.78025
 N1339 N 1.09291 0.71320 0.77406
 C1340 C 1.10392 0.70373 0.78469
 C1341 C 1.09918 0.70011 0.80241
 N1342 N 1.08349 0.70633 0.80874
 N1343 N 1.05641 0.72159 0.80376
 C1344 C 1.04519 0.73065 0.79269
 C1345 C 1.05027 0.73417 0.77502
 N1346 N 1.06624 0.72828 0.76940
 H1347 H 1.11632 0.69907 0.77932
 H1348 H 1.03265 0.73529 0.79770
 C1349 C 1.06884 0.19615 0.28512
 C1350 C 1.07404 0.21387 0.28201
 N1351 N 1.08962 0.21985 0.28849
 C1352 C 1.10028 0.20893 0.29811
 C1353 C 1.09525 0.19115 0.30129
 N1354 N 1.07960 0.18508 0.29467
 N1355 N 1.05295 0.19050 0.27885
 C1356 C 1.04209 0.20178 0.26961
 C1357 C 1.04744 0.21951 0.26636
 N1358 N 1.06334 0.22496 0.27271
 H1359 H 1.11257 0.21409 0.30334
 H1360 H 1.02962 0.19688 0.26461
 C1361 C 0.57219 0.29204 0.70613
 C1362 C 0.57459 0.27344 0.70706
 N1363 N 0.58836 0.26576 0.69857
 C1364 C 0.60001 0.27584 0.68928
 C1365 C 0.59803 0.29454 0.68874
 N1366 N 0.58408 0.30221 0.69719
 N1367 N 0.55823 0.29962 0.71451
 C1368 C 0.54669 0.28944 0.72397
 C1369 C 0.54950 0.27092 0.72542
 N1370 N 0.56339 0.26339 0.71686
 H1371 H 0.61102 0.26931 0.68290
 H1372 H 0.53588 0.29579 0.73086
 C1373 C 0.57289 0.80154 0.21981
 C1374 C 0.57528 0.78300 0.22140
 N1375 N 0.58883 0.77493 0.21294
 C1376 C 0.60013 0.78453 0.20279
 C1377 C 0.59791 0.80313 0.20108
 N1378 N 0.58433 0.81128 0.20976
 N1379 N 0.55905 0.80939 0.22822
 C1380 C 0.54759 0.79953 0.23818
 C1381 C 0.55018 0.78097 0.23995
 N1382 N 0.56403 0.77329 0.23143
 H1383 H 0.61084 0.77767 0.19624
 H1384 H 0.53687 0.80616 0.24496
 C1385 C 1.06959 0.29389 0.20783
 C1386 C 1.06949 0.27542 0.20465
 N1387 N 1.08079 0.26833 0.19264
 C1388 C 1.09238 0.27885 0.18373
 C1389 C 1.09297 0.29730 0.18725
 N1390 N 1.08146 0.30439 0.19924
 N1391 N 1.05810 0.30092 0.21977
 C1392 C 1.04671 0.29024 0.22890
 C1393 C 1.04713 0.27165 0.22624
 N1394 N 1.05849 0.26476 0.21407
 H1395 H 1.10141 0.27272 0.17446
 H1396 H 1.03797 0.29609 0.23864
 C1397 C 1.07154 0.79307 0.70172
 C1398 C 1.07103 0.79617 0.72011
 N1399 N 1.08223 0.80814 0.72755
 C1400 C 1.09416 0.81705 0.71744
 C1401 C 1.09521 0.81356 0.69909
 N1402 N 1.08375 0.80166 0.69165
 N1403 N 1.06022 0.78107 0.69438
 C1404 C 1.04866 0.77176 0.70469
 C1405 C 1.04873 0.77427 0.72323
 N1406 N 1.05987 0.78658 0.73039
 H1407 H 1.10312 0.82626 0.72385
 H1408 H 1.04013 0.76191 0.69860
 C1409 C 0.42826 0.70616 0.70648
 C1410 C 0.42723 0.70383 0.72499
 N1411 N 0.41491 0.69276 0.73195
 C1412 C 0.40337 0.68400 0.72126
 C1413 C 0.40390 0.68673 0.70273
 N1414 N 0.41643 0.69775 0.69577
 N1415 N 0.44079 0.71714 0.69961
 C1416 C 0.45215 0.72612 0.71046
 C1417 C 0.45061 0.72433 0.72902
 N1418 N 0.43820 0.71312 0.73577
 H1419 H 0.39351 0.67550 0.72726
 H1420 H 0.46176 0.73511 0.70473
 C1421 C 0.43105 0.20967 0.20124
 C1422 C 0.42946 0.22826 0.19911
 N1423 N 0.41643 0.23503 0.18870
 C1424 C 0.40474 0.22406 0.18047
 C1425 C 0.40583 0.20548 0.18315
 N1426 N 0.41905 0.19872 0.19346
 N1427 N 0.44426 0.20292 0.21148
 C1428 C 0.45576 0.21396 0.21996
 C1429 C 0.45367 0.23257 0.21848
 N1430 N 0.44057 0.23927 0.20801
 H1431 H 0.39430 0.22985 0.17247
 H1432 H 0.46589 0.20830 0.22844
 C1433 C -0.07244 0.70004 0.21727
 C1434 C -0.07580 0.71835 0.21942
 N1435 N -0.09041 0.72576 0.21219
 C1436 C -0.10189 0.71572 0.20270
 C1437 C -0.09867 0.69735 0.20031
 N1438 N -0.08401 0.68984 0.20780
 N1439 N -0.05760 0.69288 0.22461
 C1440 C -0.04606 0.70323 0.23400
 C1441 C -0.04959 0.72158 0.23626
 N1442 N -0.06443 0.72852 0.22881
 H1443 H -0.11351 0.72209 0.19723
 H1444 H -0.03453 0.69711 0.23994
 C1445 C -0.07354 0.21154 0.69840
 C1446 C -0.07482 0.21166 0.71703
 N1447 N -0.08732 0.20166 0.72519
 C1448 C -0.09878 0.19163 0.71555
 C1449 C -0.09796 0.19186 0.69685
 N1450 N -0.08526 0.20183 0.68871
 N1451 N -0.06079 0.22140 0.69035
 C1452 C -0.04942 0.23157 0.70009
 C1453 C -0.05116 0.23220 0.71870
 N1454 N -0.06381 0.22210 0.72666
 H1455 H -0.10874 0.18400 0.72247
 H1456 H -0.03956 0.23953 0.69338
 C1457 C 0.29029 0.42489 0.30046
 C1458 C 0.29038 0.42259 0.28193
 N1459 N 0.30053 0.40965 0.27461
 C1460 C 0.31059 0.39877 0.28498
 C1461 C 0.31026 0.40069 0.30360
 N1462 N 0.30005 0.41375 0.31092
 N1463 N 0.28039 0.43819 0.30766
 C1464 C 0.27046 0.44918 0.29714
 C1465 C 0.27016 0.44651 0.27863
 N1466 N 0.28021 0.43326 0.27153
 H1467 H 0.31841 0.38845 0.27875
 H1468 H 0.26254 0.45955 0.30318
 C1469 C 0.29772 -0.07392 0.78957
 C1470 C 0.28262 -0.06720 0.79794
 N1471 N 0.27779 -0.07378 0.81403
 C1472 C 0.28722 -0.08700 0.82209
 C1473 C 0.30210 -0.09426 0.81352
 N1474 N 0.30704 -0.08728 0.79749
 N1475 N 0.30233 -0.06758 0.77327
 C1476 C 0.29229 -0.05507 0.76481
 C1477 C 0.27691 -0.04871 0.77296
 N1478 N 0.27247 -0.05492 0.78939
 H1479 H 0.28278 -0.09195 0.83483
 H1480 H 0.29586 -0.05068 0.75156
 C1481 C 0.79349 0.42753 0.78941
 C1482 C 0.77644 0.43089 0.79574
 N1483 N 0.77054 0.42199 0.81030
 C1484 C 0.78079 0.40964 0.81870
 C1485 C 0.79766 0.40559 0.81197
 N1486 N 0.80358 0.41487 0.79752
 N1487 N 0.79944 0.43653 0.77490
 C1488 C 0.78897 0.44853 0.76623
 C1489 C 0.77167 0.45140 0.77214
 N1490 N 0.76583 0.44250 0.78681
 H1491 H 0.77549 0.40273 0.83014
 H1492 H 0.79381 0.45518 0.75440
 C1493 C 0.79412 -0.07464 0.28860
 C1494 C 0.77969 -0.06779 0.29801
 N1495 N 0.77640 -0.07380 0.31473
 C1496 C 0.78669 -0.08658 0.32240
 C1497 C 0.80084 -0.09399 0.31278
 N1498 N 0.80425 -0.08757 0.29614
 N1499 N 0.79723 -0.06892 0.27173
 C1500 C 0.78632 -0.05691 0.26370
 C1501 C 0.77158 -0.05045 0.27291
 N1502 N 0.76865 -0.05601 0.28991
 H1503 H 0.78347 -0.09114 0.33566
 H1504 H 0.78868 -0.05298 0.25003
 C1505 C 0.29764 0.56981 0.71204
 C1506 C 0.27921 0.57012 0.71090
 N1507 N 0.27116 0.58175 0.69961
 C1508 C 0.28072 0.59331 0.68954
 C1509 C 0.29917 0.59356 0.69114
 N1510 N 0.30719 0.58168 0.70234
 N1511 N 0.30566 0.55800 0.72322
 C1512 C 0.29603 0.54665 0.73353
 C1513 C 0.27754 0.54747 0.73294
 N1514 N 0.26962 0.55916 0.72151
 H1515 H 0.27391 0.60265 0.68091
 H1516 H 0.30270 0.53760 0.74258
 C1517 C 0.29847 1.07178 0.20899
 C1518 C 0.29820 1.07463 0.22745
 N1519 N 0.30710 1.08870 0.23445
 C1520 C 0.31604 1.10024 0.22378
 C1521 C 0.31564 1.09789 0.20522
 N1522 N 0.30691 1.08361 0.19829
 N1523 N 0.28976 1.05758 0.20200
 C1524 C 0.28048 1.04629 0.21263
 C1525 C 0.27947 1.04961 0.23102
 N1526 N 0.28847 1.06371 0.23799
 H1527 H 0.32274 1.11154 0.22967
 H1528 H 0.27323 1.03536 0.20667
 C1529 C 0.80123 0.57037 0.21044
 C1530 C 0.78319 0.56957 0.20643
 N1531 N 0.77648 0.57996 0.19323
 C1532 C 0.78695 0.59130 0.18391
 C1533 C 0.80495 0.59261 0.18820
 N1534 N 0.81167 0.58203 0.20141
 N1535 N 0.80788 0.55976 0.22357
 C1536 C 0.79724 0.54857 0.23302
 C1537 C 0.77908 0.54828 0.22941
 N1538 N 0.77255 0.55879 0.21613
 H1539 H 0.78111 0.59962 0.17368
 H1540 H 0.80276 0.54051 0.24366
 C1541 C 0.79266 1.07315 0.71063
 C1542 C 0.77428 1.07427 0.70897
 N1543 N 0.76698 1.08686 0.69828
 C1544 C 0.77719 1.09859 0.68922
 C1545 C 0.79564 1.09793 0.69110
 N1546 N 0.80296 1.08511 0.70179
 N1547 N 0.79983 1.06038 0.72135
 C1548 C 0.78939 1.04885 0.73065
 C1549 C 0.77096 1.05042 0.72939
 N1550 N 0.76395 1.06309 0.71848
 H1551 H 0.77082 1.10859 0.68103
 H1552 H 0.79537 1.03905 0.73941
 C1553 C 0.70499 0.57195 0.28746
 C1554 C 0.72325 0.57477 0.28802
 N1555 N 0.72993 0.58843 0.29770
 C1556 C 0.71917 0.59951 0.30690
 C1557 C 0.70083 0.59701 0.30622
 N1558 N 0.69411 0.58326 0.29642
 N1559 N 0.69849 0.55794 0.27798
 C1560 C 0.70946 0.54672 0.26896
 C1561 C 0.72772 0.54987 0.26920
 N1562 N 0.73408 0.56384 0.27880
 H1563 H 0.72492 0.61037 0.31441
 H1564 H 0.70398 0.53580 0.26134
 C1565 C 0.70358 1.07288 0.79318
 C1566 C 0.70024 1.07233 0.77480
 N1567 N 0.68819 1.08365 0.76758
 C1568 C 0.67956 1.09575 0.77784
 C1569 C 0.68363 1.09708 0.79613
 N1570 N 0.69546 1.08538 0.80330
 N1571 N 0.71537 1.06135 0.80050
 C1572 C 0.72428 1.04952 0.79017
 C1573 C 0.72164 1.04961 0.77167
 N1574 N 0.70960 1.06099 0.76439
 H1575 H 0.67026 1.10471 0.77151
 H1576 H 0.73399 1.04078 0.79621
 C1577 C 0.20974 0.56971 0.79769
 C1578 C 0.21034 0.57154 0.77910
 N1579 N 0.20127 0.58492 0.77104
 C1580 C 0.19173 0.59673 0.78072
 C1581 C 0.19153 0.59537 0.79942
 N1582 N 0.20054 0.58179 0.80747
 N1583 N 0.21880 0.55619 0.80567
 C1584 C 0.22868 0.54463 0.79589
 C1585 C 0.22987 0.54696 0.77735
 N1586 N 0.22054 0.56035 0.76944
 H1587 H 0.18492 0.60743 0.77387
 H1588 H 0.23617 0.53428 0.80259
 C1589 C 0.20637 1.07292 0.29039
 C1590 C 0.22469 1.07489 0.29197
 N1591 N 0.23141 1.08800 0.30237
 C1592 C 0.22064 1.09937 0.31126
 C1593 C 0.20225 1.09779 0.30944
 N1594 N 0.19554 1.08453 0.29899
 N1595 N 0.19977 1.05957 0.28009
 C1596 C 0.21068 1.04824 0.27116
 C1597 C 0.22903 1.05059 0.27232
 N1598 N 0.23551 1.06388 0.28279
 H1599 H 0.22646 1.10982 0.31927
 H1600 H 0.20509 1.03794 0.26279
 C1601 C 0.70616 0.42799 0.70484
 C1602 C 0.70705 0.42447 0.72319
 N1603 N 0.69918 0.40966 0.72989
 C1604 C 0.69049 0.39811 0.71907
 C1605 C 0.68991 0.40127 0.70060
 N1606 N 0.69781 0.41621 0.69391
 N1607 N 0.71386 0.44300 0.69827
 C1608 C 0.72262 0.45451 0.70919
 C1609 C 0.72406 0.45066 0.72749
 N1610 N 0.71614 0.43569 0.73398
 H1611 H 0.68449 0.38633 0.72481
 H1612 H 0.72901 0.46613 0.70354
 C1613 C 0.69915 -0.07475 0.21277
 C1614 C 0.71757 -0.07602 0.21214
 N1615 N 0.72526 -0.08834 0.20149
 C1616 C 0.71537 -0.09960 0.19143
 C1617 C 0.69689 -0.09872 0.19225
 N1618 N 0.68919 -0.08625 0.20297
 N1619 N 0.69157 -0.06214 0.22329
 C1620 C 0.70161 -0.05086 0.23332
 C1621 C 0.72006 -0.05249 0.23307
 N1622 N 0.72751 -0.06506 0.22238
 H1623 H 0.72194 -0.10942 0.18325
 H1624 H 0.69527 -0.04111 0.24178
 C1625 C 0.20756 0.42589 0.20708
 C1626 C 0.20582 0.42462 0.22563
 N1627 N 0.19455 0.41251 0.23273
 C1628 C 0.18507 0.40137 0.22212
 C1629 C 0.18727 0.40209 0.20355
 N1630 N 0.19846 0.41445 0.19648
 N1631 N 0.21868 0.43823 0.20002
 C1632 C 0.22836 0.44916 0.21071
 C1633 C 0.22718 0.44737 0.22929
 N1634 N 0.21581 0.43516 0.23626
 H1635 H 0.17642 0.39165 0.22820
 H1636 H 0.23734 0.45868 0.20478
 C1637 C 0.20534 -0.07162 0.71171
 C1638 C 0.22372 -0.07223 0.71004
 N1639 N 0.23119 -0.08401 0.69863
 C1640 C 0.22113 -0.09541 0.68890
 C1641 C 0.20272 -0.09529 0.69093
 N1642 N 0.19526 -0.08330 0.70231
 N1643 N 0.19792 -0.05960 0.72300
 C1644 C 0.20810 -0.04833 0.73286
 C1645 C 0.22654 -0.04941 0.73167
 N1646 N 0.23384 -0.06133 0.72017
 H1647 H 0.22752 -0.10482 0.68012
 H1648 H 0.20191 -0.03910 0.74198
 C1649 C 0.28571 0.29894 0.42870
 C1650 C 0.28290 0.28080 0.42495
 N1651 N 0.29028 0.27334 0.41037
 C1652 C 0.30051 0.28315 0.39931
 C1653 C 0.30341 0.30137 0.40286
 N1654 N 0.29582 0.30892 0.41749
 N1655 N 0.27843 0.30612 0.44361
 C1656 C 0.26846 0.29597 0.45485
 C1657 C 0.26545 0.27784 0.45088
 N1658 N 0.27285 0.27084 0.43598
 H1659 H 0.30615 0.27679 0.38773
 H1660 H 0.26268 0.30206 0.46651
 C1661 C 0.28988 0.79492 -0.07011
 C1662 C 0.28981 0.77622 -0.07150
 N1663 N 0.29974 0.76815 -0.08415
 C1664 C 0.30958 0.77796 -0.09567
 C1665 C 0.30914 0.79673 -0.09481
 N1666 N 0.29932 0.80476 -0.08194
 N1667 N 0.28013 0.80295 -0.05728
 C1668 C 0.27006 0.79311 -0.04594
 C1669 C 0.26938 0.77443 -0.04781
 N1670 N 0.27939 0.76645 -0.06054
 H1671 H 0.31711 0.77116 -0.10582
 H1672 H 0.26210 0.79984 -0.03608
 C1673 C 0.79623 0.29202 -0.07205
 C1674 C 0.79688 0.27338 -0.07402
 N1675 N 0.80641 0.26618 -0.08748
 C1676 C 0.81512 0.27680 -0.09924
 C1677 C 0.81387 0.29550 -0.09778
 N1678 N 0.80448 0.30265 -0.08411
 N1679 N 0.78689 0.29920 -0.05843
 C1680 C 0.77787 0.28858 -0.04690
 C1681 C 0.77780 0.26995 -0.04936
 N1682 N 0.78742 0.26281 -0.06288
 H1683 H 0.82237 0.27068 -0.11001
 H1684 H 0.77010 0.29467 -0.03648
 C1685 C 0.79831 0.79268 0.42838
 C1686 C 0.79680 0.77422 0.42543
 N1687 N 0.80486 0.76675 0.41117
 C1688 C 0.81416 0.77695 0.39954
 C1689 C 0.81504 0.79556 0.40199
 N1690 N 0.80713 0.80297 0.41646
 N1691 N 0.79042 0.80009 0.44279
 C1692 C 0.78078 0.78991 0.45420
 C1693 C 0.77855 0.77159 0.45077
 N1694 N 0.78672 0.76418 0.43646
 H1695 H 0.82017 0.77066 0.38811
 H1696 H 0.77421 0.79619 0.46532
 C1697 C 0.71984 0.30610 0.56928
 C1698 C 0.72318 0.28774 0.57117
 N1699 N 0.71614 0.27858 0.58496
 C1700 C 0.70588 0.28691 0.59710
 C1701 C 0.70263 0.30539 0.59560
 N1702 N 0.70973 0.31462 0.58164
 N1703 N 0.72711 0.31508 0.55533
 C1704 C 0.73783 0.30657 0.54346
 C1705 C 0.74173 0.28833 0.54588
 N1706 N 0.73408 0.27944 0.55964
 H1707 H 0.70069 0.27917 0.60808
 H1708 H 0.74390 0.31412 0.53281
 C1709 C 0.70708 0.79170 1.06930
 C1710 C 0.70716 0.77317 1.07235
 N1711 N 0.69848 0.76636 1.08656
 C1712 C 0.68972 0.77722 1.09795
 C1713 C 0.68989 0.79584 1.09526
 N1714 N 0.69863 0.80268 1.08094
 N1715 N 0.71558 0.79837 1.05482
 C1716 C 0.72431 0.78735 1.04341
 C1717 C 0.72485 0.76886 1.04682
 N1718 N 0.71621 0.76228 1.06125
 H1719 H 0.68304 0.77136 1.10925
 H1720 H 0.73132 0.79300 1.03221
 C1721 C 0.20235 0.29000 1.07081
 C1722 C 0.22074 0.29141 1.07199
 N1723 N 0.22807 0.30254 1.08416
 C1724 C 0.21784 0.31220 1.09542
 C1725 C 0.19942 0.31034 1.09477
 N1726 N 0.19212 0.29929 1.08238
 N1727 N 0.19507 0.27904 1.05840
 C1728 C 0.20538 0.26924 1.04728
 C1729 C 0.22379 0.27012 1.04894
 N1730 N 0.23099 0.28129 1.06124
 H1731 H 0.22410 0.32071 1.10518
 H1732 H 0.19930 0.26040 1.03767
 C1733 C 0.21046 0.79640 0.57073
 C1734 C 0.20826 0.77779 0.57118
 N1735 N 0.19706 0.77037 0.58312
 C1736 C 0.18804 0.78070 0.59482
 C1737 C 0.19061 0.79932 0.59486
 N1738 N 0.20178 0.80673 0.58272
 N1739 N 0.22156 0.80375 0.55857
 C1740 C 0.23075 0.79329 0.54703
 C1741 C 0.22906 0.77461 0.54798
 N1742 N 0.21776 0.76736 0.56003
 H1743 H 0.17942 0.77435 0.60436
 H1744 H 0.23980 0.79940 0.53773
 C1745 C 0.29066 0.70358 0.57126
 C1746 C 0.29278 0.72221 0.57163
 N1747 N 0.30397 0.72968 0.58359
 C1748 C 0.31302 0.71938 0.59541
 C1749 C 0.31047 0.70076 0.59556
 N1750 N 0.29935 0.69330 0.58338
 N1751 N 0.27960 0.69617 0.55907
 C1752 C 0.27034 0.70659 0.54743
 C1753 C 0.27191 0.72528 0.54834
 N1754 N 0.28320 0.73258 0.56040
 H1755 H 0.32161 0.72577 0.60497
 H1756 H 0.26135 0.70043 0.53808
 C1757 C 0.29439 0.20660 1.06973
 C1758 C 0.27605 0.20483 1.07107
 N1759 N 0.26910 0.19353 1.08333
 C1760 C 0.27967 0.18409 1.09456
 C1761 C 0.29803 0.18636 1.09378
 N1762 N 0.30494 0.19754 1.08126
 N1763 N 0.30130 0.21779 1.05730
 C1764 C 0.29066 0.22750 1.04631
 C1765 C 0.27230 0.22628 1.04815
 N1766 N 0.26547 0.21486 1.06046
 H1767 H 0.27372 0.17547 1.10444
 H1768 H 0.29644 0.23657 1.03673
 C1769 C 0.79109 0.70286 1.07016
 C1770 C 0.78948 0.72139 1.07248
 N1771 N 0.79697 0.72935 1.08677
 C1772 C 0.80592 0.71961 1.09905
 C1773 C 0.80728 0.70093 1.09715
 N1774 N 0.79984 0.69298 1.08262
 N1775 N 0.78341 0.69506 1.05576
 C1776 C 0.77391 0.70493 1.04382
 C1777 C 0.77171 0.72339 1.04663
 N1778 N 0.77975 0.73109 1.06086
 H1779 H 0.81146 0.72646 1.11041
 H1780 H 0.76746 0.69833 1.03277
 C1781 C 0.80751 0.22211 0.57081
 C1782 C 0.78936 0.22514 0.57234
 N1783 N 0.78007 0.21688 0.58530
 C1784 C 0.78808 0.20566 0.59695
 C1785 C 0.80635 0.20265 0.59577
 N1786 N 0.81570 0.21101 0.58265
 N1787 N 0.81661 0.23050 0.55761
 C1788 C 0.80834 0.24190 0.54605
 C1789 C 0.79021 0.24525 0.54798
 N1790 N 0.78128 0.23661 0.56108
 H1791 H 0.78022 0.19956 0.60727
 H1792 H 0.81588 0.24863 0.53584
 C1793 C 0.70193 0.71529 0.42857
 C1794 C 0.71959 0.71729 0.42351
 N1795 N 0.72530 0.71016 0.40802
 C1796 C 0.71420 0.70088 0.39735
 C1797 C 0.69650 0.69865 0.40231
 N1798 N 0.69067 0.70604 0.41782
 N1799 N 0.69651 0.72232 0.44433
 C1800 C 0.70796 0.73121 0.45521
 C1801 C 0.72568 0.73325 0.45005
 N1802 N 0.73087 0.72618 0.43424
 H1803 H 0.71917 0.69522 0.38511
 H1804 H 0.70318 0.73688 0.46751
 C1805 C 0.70644 0.20769 -0.07197
 C1806 C 0.72476 0.20546 -0.07301
 N1807 N 0.73162 0.19392 -0.08506
 C1808 C 0.72098 0.18466 -0.09633
 C1809 C 0.70266 0.18738 -0.09581
 N1810 N 0.69585 0.19881 -0.08353
 N1811 N 0.69959 0.21909 -0.05977
 C1812 C 0.71027 0.22856 -0.04869
 C1813 C 0.72864 0.22684 -0.05016
 N1814 N 0.73541 0.21523 -0.06228
 H1815 H 0.72686 0.17582 -0.10602
 H1816 H 0.70450 0.23781 -0.03929
 C1817 C 0.19985 0.71072 -0.07028
 C1818 C 0.21825 0.70916 -0.07117
 N1819 N 0.22562 0.69806 -0.08329
 C1820 C 0.21545 0.68848 -0.09469
 C1821 C 0.19701 0.69030 -0.09421
 N1822 N 0.18963 0.70145 -0.08196
 N1823 N 0.19256 0.72170 -0.05792
 C1824 C 0.20286 0.73133 -0.04657
 C1825 C 0.22129 0.73021 -0.04788
 N1826 N 0.22849 0.71907 -0.06018
 H1827 H 0.22177 0.67995 -0.10436
 H1828 H 0.19676 0.74027 -0.03710
 C1829 C 0.20702 0.20389 0.43063
 C1830 C 0.20254 0.22207 0.43150
 N1831 N 0.18949 0.22860 0.42096
 C1832 C 0.18080 0.21781 0.40939
 C1833 C 0.18563 0.19971 0.40798
 N1834 N 0.19865 0.19317 0.41873
 N1835 N 0.22003 0.19742 0.44135
 C1836 C 0.22892 0.20840 0.45269
 C1837 C 0.22488 0.22672 0.45300
 N1838 N 0.21171 0.23306 0.44241
 H1839 H 0.17070 0.22352 0.40092
 H1840 H 0.23951 0.20306 0.46080
 C1841 C 0.29531 0.42861 0.70830
 C1842 C 0.27686 0.42763 0.70754
 N1843 N 0.26906 0.41544 0.69674
 C1844 C 0.27888 0.40390 0.68694
 C1845 C 0.29734 0.40420 0.68842
 N1846 N 0.30510 0.41670 0.69900
 N1847 N 0.30313 0.44094 0.71893
 C1848 C 0.29331 0.45210 0.72916
 C1849 C 0.27487 0.45051 0.72913
 N1850 N 0.26708 0.43835 0.71819
 H1851 H 0.27230 0.39403 0.67878
 H1852 H 0.29984 0.46152 0.73787
 C1853 C 0.29243 0.92999 0.20357
 C1854 C 0.27409 0.92768 0.20364
 N1855 N 0.26685 0.91376 0.19469
 C1856 C 0.27714 0.90187 0.18587
 C1857 C 0.29557 0.90366 0.18646
 N1858 N 0.30277 0.91780 0.19524
 N1859 N 0.29962 0.94406 0.21238
 C1860 C 0.28932 0.95569 0.22159
 C1861 C 0.27104 0.95285 0.22244
 N1862 N 0.26388 0.93892 0.21330
 H1863 H 0.27100 0.89073 0.17912
 H1864 H 0.29543 0.96647 0.22894
 C1865 C 0.79359 0.42834 0.20597
 C1866 C 0.77525 0.42591 0.20612
 N1867 N 0.76802 0.41215 0.19693
 C1868 C 0.77833 0.40052 0.18776
 C1869 C 0.79674 0.40246 0.18820
 N1870 N 0.80393 0.41642 0.19727
 N1871 N 0.80076 0.44232 0.21490
 C1872 C 0.79045 0.45382 0.22424
 C1873 C 0.77217 0.45094 0.22508
 N1874 N 0.76502 0.43704 0.21589
 H1875 H 0.77222 0.38954 0.18073
 H1876 H 0.79653 0.46461 0.23160
 C1877 C 0.78978 0.93007 0.70718
 C1878 C 0.79084 0.92840 0.72576
 N1879 N 0.80110 0.91553 0.73312
 C1880 C 0.81028 0.90404 0.72276
 C1881 C 0.80892 0.90524 0.70410
 N1882 N 0.79869 0.91833 0.69673
 N1883 N 0.77952 0.94313 0.69994
 C1884 C 0.77010 0.95442 0.71050
 C1885 C 0.77072 0.95228 0.72910
 N1886 N 0.78119 0.93934 0.73620
 H1887 H 0.81807 0.89375 0.72913
 H1888 H 0.76175 0.96448 0.70444
 C1889 C 0.70263 0.57218 0.70715
 C1890 C 0.72097 0.57415 0.70579
 N1891 N 0.72770 0.58737 0.69547
 C1892 C 0.71693 0.59883 0.68652
 C1893 C 0.69856 0.59732 0.68831
 N1894 N 0.69183 0.58396 0.69862
 N1895 N 0.69596 0.55867 0.71719
 C1896 C 0.70679 0.54720 0.72613
 C1897 C 0.72514 0.54960 0.72536
 N1898 N 0.73175 0.56306 0.71512
 H1899 H 0.72269 0.60934 0.67851
 H1900 H 0.70114 0.53680 0.73436
 C1901 C 0.70488 0.06803 0.20460
 C1902 C 0.72331 0.06935 0.20491
 N1903 N 0.73138 0.08252 0.19555
 C1904 C 0.72181 0.09470 0.18615
 C1905 C 0.70331 0.09400 0.18657
 N1906 N 0.69529 0.08054 0.19571
 N1907 N 0.69684 0.05477 0.21389
 C1908 C 0.70640 0.04302 0.22387
 C1909 C 0.72478 0.04497 0.22501
 N1910 N 0.73279 0.05804 0.21534
 H1911 H 0.72859 0.10530 0.17914
 H1912 H 0.69965 0.03295 0.23163
 C1913 C 0.20957 0.56791 0.20704
 C1914 C 0.21044 0.57101 0.22545
 N1915 N 0.20203 0.58530 0.23250
 C1916 C 0.19280 0.59675 0.22198
 C1917 C 0.19222 0.59402 0.20346
 N1918 N 0.20068 0.57960 0.19640
 N1919 N 0.21783 0.55337 0.20013
 C1920 C 0.22709 0.54194 0.21079
 C1921 C 0.22845 0.54542 0.22913
 N1922 N 0.22002 0.55990 0.23596
 H1923 H 0.18639 0.60815 0.22800
 H1924 H 0.23386 0.53066 0.20493
 C1925 C 0.20697 0.07077 0.70864
 C1926 C 0.22533 0.07294 0.70857
 N1927 N 0.23259 0.08647 0.69905
 C1928 C 0.22231 0.09815 0.68979
 C1929 C 0.20387 0.09654 0.69048
 N1930 N 0.19665 0.08277 0.69986
 N1931 N 0.19975 0.05704 0.71796
 C1932 C 0.21005 0.04558 0.72751
 C1933 C 0.22837 0.04826 0.72818
 N1934 N 0.23555 0.06188 0.71856
 H1935 H 0.22845 0.10898 0.68254
 H1936 H 0.20395 0.03503 0.73521
 C1937 C 0.29418 0.56837 0.29551
 C1938 C 0.29413 0.57020 0.27691
 N1939 N 0.30296 0.58391 0.26922
 C1940 C 0.31173 0.59605 0.27928
 C1941 C 0.31138 0.59469 0.29797
 N1942 N 0.30261 0.58077 0.30566
 N1943 N 0.28534 0.55451 0.30309
 C1944 C 0.27619 0.54263 0.29290
 C1945 C 0.27553 0.54497 0.27432
 N1946 N 0.28465 0.55869 0.26684
 H1947 H 0.31838 0.60698 0.27269
 H1948 H 0.26882 0.53203 0.29927
 C1949 C 0.29013 0.07177 0.79989
 C1950 C 0.29088 0.07355 0.78131
 N1951 N 0.30114 0.08639 0.77395
 C1952 C 0.31072 0.09763 0.78433
 C1953 C 0.30980 0.09619 0.80298
 N1954 N 0.29944 0.08325 0.81034
 N1955 N 0.28001 0.05865 0.80713
 C1956 C 0.27051 0.04735 0.79661
 C1957 C 0.27090 0.04945 0.77801
 N1958 N 0.28115 0.06256 0.77088
 H1959 H 0.31863 0.10785 0.77804
 H1960 H 0.26232 0.03722 0.80271
 C1961 C 0.79013 0.57178 0.79417
 C1962 C 0.79099 0.57359 0.77559
 N1963 N 0.80138 0.58640 0.76833
 C1964 C 0.81091 0.59759 0.77880
 C1965 C 0.80976 0.59620 0.79744
 N1966 N 0.79934 0.58326 0.80469
 N1967 N 0.77995 0.55870 0.80136
 C1968 C 0.77043 0.54748 0.79079
 C1969 C 0.77083 0.54968 0.77219
 N1970 N 0.78117 0.56272 0.76510
 H1971 H 0.81891 0.60781 0.77261
 H1972 H 0.76217 0.53739 0.79684
 C1973 C 0.78469 0.07056 0.29717
 C1974 C 0.78556 0.07150 0.27854
 N1975 N 0.79573 0.08407 0.27066
 C1976 C 0.80507 0.09591 0.28055
 C1977 C 0.80399 0.09540 0.29925
 N1978 N 0.79378 0.08265 0.30714
 N1979 N 0.77455 0.05774 0.30491
 C1980 C 0.76510 0.04599 0.29484
 C1981 C 0.76554 0.04733 0.27616
 N1982 N 0.77588 0.06008 0.26856
 H1983 H 0.81284 0.10593 0.27378
 H1984 H 0.75686 0.03615 0.30132
 C1985 C 0.71012 0.42925 0.29620
 C1986 C 0.70816 0.42835 0.27764
 N1987 N 0.69701 0.41620 0.27042
 C1988 C 0.68779 0.40474 0.28090
 C1989 C 0.69010 0.40516 0.29948
 N1990 N 0.70124 0.41750 0.30670
 N1991 N 0.72115 0.44163 0.30335
 C1992 C 0.73051 0.45296 0.29275
 C1993 C 0.72906 0.45157 0.27414
 N1994 N 0.71781 0.43929 0.26710
 H1995 H 0.67921 0.39503 0.27470
 H1996 H 0.73950 0.46243 0.29874
 C1997 C 0.70630 0.92935 0.79630
 C1998 C 0.72466 0.92716 0.79714
 N1999 N 0.73158 0.91326 0.80646
 C2000 C 0.72096 0.90127 0.81480
 C2001 C 0.70257 0.90297 0.81332
 N2002 N 0.69568 0.91707 0.80414
 N2003 N 0.69941 0.94342 0.78719
 C2004 C 0.71004 0.95521 0.77856
 C2005 C 0.72836 0.95252 0.77863
 N2006 N 0.73523 0.93856 0.78804
 H2007 H 0.72683 0.89017 0.82193
 H2008 H 0.70420 0.96600 0.77093
 C2009 C 0.21147 0.42636 0.79886
 C2010 C 0.21062 0.42568 0.78021
 N2011 N 0.19974 0.41379 0.77218
 C2012 C 0.18970 0.40241 0.78195
 C2013 C 0.19080 0.40269 0.80064
 N2014 N 0.20171 0.41472 0.80866
 N2015 N 0.22222 0.43850 0.80681
 C2016 C 0.23229 0.44986 0.79694
 C2017 C 0.23186 0.44878 0.77825
 N2018 N 0.22094 0.43669 0.77041
 H2019 H 0.18134 0.39292 0.77513
 H2020 H 0.24097 0.45918 0.80360
 C2021 C 0.21044 0.92938 0.29446
 C2022 C 0.20968 0.92750 0.27590
 N2023 N 0.19990 0.91427 0.26861
 C2024 C 0.19088 0.90267 0.27904
 C2025 C 0.19188 0.90414 0.29769
 N2026 N 0.20168 0.91755 0.30499
 N2027 N 0.22020 0.94281 0.30162
 C2028 C 0.22941 0.95428 0.29102
 C2029 C 0.22909 0.95198 0.27243
 N2030 N 0.21911 0.93864 0.26541
 H2031 H 0.18344 0.89210 0.27273
 H2032 H 0.23738 0.96462 0.29705
 C2033 C 0.43073 0.29604 0.70537
 C2034 C 0.42925 0.29618 0.72399
 N2035 N 0.41625 0.30581 0.73178
 C2036 C 0.40441 0.31507 0.72177
 C2037 C 0.40529 0.31423 0.70310
 N2038 N 0.41856 0.30481 0.69535
 N2039 N 0.44381 0.28645 0.69762
 C2040 C 0.45525 0.27665 0.70766
 C2041 C 0.45317 0.27603 0.72623
 N2042 N 0.44026 0.28595 0.73394
 H2043 H 0.39393 0.32226 0.72836
 H2044 H 0.46522 0.26866 0.70116
 C2045 C 0.43001 0.79748 0.21024
 C2046 C 0.42903 0.80138 0.22847
 N2047 N 0.41625 0.81243 0.23453
 C2048 C 0.40419 0.81965 0.22325
 C2049 C 0.40462 0.81532 0.20504
 N2050 N 0.41765 0.80434 0.19893
 N2051 N 0.44297 0.78642 0.20431
 C2052 C 0.45470 0.77879 0.21586
 C2053 C 0.45313 0.78204 0.23422
 N2054 N 0.44037 0.79341 0.23996
 H2055 H 0.39401 0.82817 0.22863
 H2056 H 0.46452 0.76960 0.21088
 C2057 C 0.92826 0.29190 0.20594
 C2058 C 0.92781 0.29476 0.22438
 N2059 N 0.91582 0.30622 0.23132
 C2060 C 0.90405 0.31485 0.22067
 C2061 C 0.90398 0.31155 0.20225
 N2062 N 0.91620 0.30016 0.19531
 N2063 N 0.94044 0.28056 0.19905
 C2064 C 0.95200 0.27169 0.20982
 C2065 C 0.95104 0.27395 0.22837
 N2066 N 0.93898 0.28556 0.23513
 H2067 H 0.89449 0.32370 0.22664
 H2068 H 0.96130 0.26240 0.20406
 C2069 C 0.92896 0.78647 0.69972
 C2070 C 0.92474 0.78217 0.71740
 N2071 N 0.90919 0.78752 0.72435
 C2072 C 0.89759 0.79711 0.71446
 C2073 C 0.90158 0.80142 0.69669
 N2074 N 0.91722 0.79593 0.68964
 N2075 N 0.94477 0.78120 0.69304
 C2076 C 0.95643 0.77170 0.70322
 C2077 C 0.95196 0.76706 0.72081
 N2078 N 0.93618 0.77252 0.72736
 H2079 H 0.88528 0.80122 0.72041
 H2080 H 0.96876 0.76736 0.69747
 C2081 C 0.57328 0.29658 0.28693
 C2082 C 0.57439 0.27787 0.28787
 N2083 N 0.58687 0.27007 0.29823
 C2084 C 0.59845 0.28013 0.30765
 C2085 C 0.59774 0.29889 0.30644
 N2086 N 0.58510 0.30669 0.29607
 N2087 N 0.56061 0.30427 0.27662
 C2088 C 0.54917 0.29408 0.26701
 C2089 C 0.55069 0.27534 0.26748
 N2090 N 0.56327 0.26777 0.27802
 H2091 H 0.60840 0.27348 0.31560
 H2092 H 0.53945 0.30053 0.25860
 C2093 C 0.56689 0.79656 0.79396
 C2094 C 0.56942 0.79523 0.77552
 N2095 N 0.58304 0.80402 0.76778
 C2096 C 0.59449 0.81382 0.77772
 C2097 C 0.59254 0.81440 0.79631
 N2098 N 0.57865 0.80583 0.80396
 N2099 N 0.55318 0.78788 0.80168
 C2100 C 0.54210 0.77757 0.79183
 C2101 C 0.54517 0.77543 0.77352
 N2102 N 0.55874 0.78446 0.76579
 H2103 H 0.60548 0.82034 0.77126
 H2104 H 0.53160 0.77035 0.79838
 C2105 C 0.06968 0.29679 0.78383
 C2106 C 0.07067 0.27813 0.78551
 N2107 N 0.08281 0.27068 0.79652
 C2108 C 0.09409 0.28105 0.80598
 C2109 C 0.09342 0.29976 0.80415
 N2110 N 0.08120 0.30722 0.79303
 N2111 N 0.05726 0.30412 0.77296
 C2112 C 0.04591 0.29361 0.76358
 C2113 C 0.04724 0.27490 0.76491
 N2114 N 0.05963 0.26769 0.77592
 H2115 H 0.10373 0.27469 0.81454
 H2116 H 0.03634 0.29976 0.75479
 C2117 C 0.07219 0.78384 0.30194
 C2118 C 0.07396 0.78373 0.28335
 N2119 N 0.08710 0.79300 0.27552
 C2120 C 0.09867 0.80251 0.28541
 C2121 C 0.09718 0.80269 0.30408
 N2122 N 0.08394 0.79323 0.31199
 N2123 N 0.05879 0.77445 0.30952
 C2124 C 0.04726 0.76486 0.29933
 C2125 C 0.04942 0.76446 0.28073
 N2126 N 0.06271 0.77405 0.27335
 H2127 H 0.10915 0.80954 0.27865
 H2128 H 0.03692 0.75724 0.30568
 C2129 C 0.57113 0.70116 0.71535
 C2130 C 0.57430 0.71954 0.71712
 N2131 N 0.58879 0.72691 0.70971
 C2132 C 0.60031 0.71678 0.70042
 C2133 C 0.59731 0.69832 0.69843
 N2134 N 0.58276 0.69085 0.70609
 N2135 N 0.55639 0.69406 0.72285
 C2136 C 0.54481 0.70451 0.73206
 C2137 C 0.54820 0.72293 0.73400
 N2138 N 0.56292 0.72982 0.72636
 H2139 H 0.61180 0.72314 0.69475
 H2140 H 0.53340 0.69843 0.73816
 C2141 C 0.57183 0.20549 0.20390
 C2142 C 0.57362 0.20558 0.22251
 N2143 N 0.58678 0.19606 0.23029
 C2144 C 0.59844 0.18665 0.22030
 C2145 C 0.59718 0.18716 0.20162
 N2146 N 0.58378 0.19653 0.19388
 N2147 N 0.55854 0.21490 0.19615
 C2148 C 0.54717 0.22470 0.20615
 C2149 C 0.54946 0.22550 0.22472
 N2150 N 0.56263 0.21578 0.23243
 H2151 H 0.60900 0.17947 0.22687
 H2152 H 0.53702 0.23250 0.19961
 C2153 C 0.06960 0.70870 0.20344
 C2154 C 0.07533 0.71173 0.22093
 N2155 N 0.09155 0.70631 0.22615
 C2156 C 0.10235 0.69773 0.21471
 C2157 C 0.09674 0.69438 0.19718
 N2158 N 0.08044 0.70005 0.19183
 N2159 N 0.05317 0.71420 0.19855
 C2160 C 0.04231 0.72261 0.21036
 C2161 C 0.04819 0.72572 0.22791
 N2162 N 0.06460 0.72007 0.23254
 H2163 H 0.11519 0.69340 0.21932
 H2164 H 0.02948 0.72712 0.20596
 C2165 C 0.06785 0.20276 0.70484
 C2166 C 0.06938 0.20311 0.72346
 N2167 N 0.08268 0.19401 0.73153
 C2168 C 0.09475 0.18485 0.72180
 C2169 C 0.09383 0.18529 0.70311
 N2170 N 0.08025 0.19415 0.69509
 N2171 N 0.05445 0.21174 0.69679
 C2172 C 0.04276 0.22147 0.70650
 C2173 C 0.04490 0.22273 0.72505
 N2174 N 0.05813 0.21334 0.73308
 H2175 H 0.10543 0.17803 0.72857
 H2176 H 0.03258 0.22901 0.69970
 C2177 C 0.42751 0.71976 0.30459
 C2178 C 0.42561 0.72144 0.28608
 N2179 N 0.41249 0.71271 0.27754
 C2180 C 0.40104 0.70230 0.28666
 C2181 C 0.40258 0.70069 0.30527
 N2182 N 0.41582 0.70955 0.31387
 N2183 N 0.44099 0.72841 0.31289
 C2184 C 0.45252 0.73876 0.30349
 C2185 C 0.45026 0.74076 0.28499
 N2186 N 0.43684 0.73193 0.27686
 H2187 H 0.39060 0.69567 0.27941
 H2188 H 0.46302 0.74566 0.31040
 C2189 C 0.42847 0.20395 0.78750
 C2190 C 0.42613 0.22254 0.78679
 N2191 N 0.41252 0.23022 0.79548
 C2192 C 0.40099 0.22016 0.80489
 C2193 C 0.40301 0.20144 0.80552
 N2194 N 0.41678 0.19375 0.79674
 N2195 N 0.44226 0.19646 0.77872
 C2196 C 0.45367 0.20673 0.76913
 C2197 C 0.45098 0.22533 0.76807
 N2198 N 0.43727 0.23267 0.77706
 H2199 H 0.39016 0.22680 0.81143
 H2200 H 0.46433 0.20042 0.76197
 C2201 C 0.93167 0.69956 0.78615
 C2202 C 0.93189 0.71822 0.78790
 N2203 N 0.92030 0.72635 0.79893
 C2204 C 0.90830 0.71669 0.80821
 C2205 C 0.90756 0.69802 0.80611
 N2206 N 0.91938 0.68987 0.79512
 N2207 N 0.94341 0.69153 0.77509
 C2208 C 0.95510 0.70140 0.76543
 C2209 C 0.95474 0.72013 0.76662
 N2210 N 0.94317 0.72802 0.77795
 H2211 H 0.89908 0.72366 0.81667
 H2212 H 0.96397 0.69478 0.75632
 C2213 C 0.92834 0.21227 0.29996
 C2214 C 0.92541 0.21368 0.28156
 N2215 N 0.91134 0.20556 0.27405
 C2216 C 0.89993 0.19598 0.28408
 C2217 C 0.90253 0.19457 0.30259
 N2218 N 0.91672 0.20286 0.31018
 N2219 N 0.94271 0.22039 0.30722
 C2220 C 0.95413 0.22996 0.29689
 C2221 C 0.95084 0.23171 0.27853
 N2222 N 0.93654 0.22341 0.27144
 H2223 H 0.88872 0.18984 0.27762
 H2224 H 0.96530 0.23655 0.30299
 C2225 C 0.29420 0.29343 0.57096
 C2226 C 0.29463 0.27472 0.57241
 N2227 N 0.30465 0.26692 0.58525
 C2228 C 0.31401 0.27700 0.59697
 C2229 C 0.31286 0.29574 0.59615
 N2230 N 0.30305 0.30350 0.58303
 N2231 N 0.28435 0.30123 0.55797
 C2232 C 0.27456 0.29116 0.54660
 C2233 C 0.27422 0.27250 0.54865
 N2234 N 0.28439 0.26471 0.56147
 H2235 H 0.32158 0.27043 0.60732
 H2236 H 0.26643 0.29769 0.53666
 C2237 C 0.29178 0.79359 0.07184
 C2238 C 0.29285 0.77488 0.07223
 N2239 N 0.30394 0.76676 0.08397
 C2240 C 0.31375 0.77653 0.09562
 C2241 C 0.31202 0.79523 0.09587
 N2242 N 0.30113 0.80329 0.08383
 N2243 N 0.28086 0.80174 0.05998
 C2244 C 0.27068 0.79199 0.04868
 C2245 C 0.27107 0.77323 0.04961
 N2246 N 0.28228 0.76513 0.06135
 H2247 H 0.32214 0.76970 0.10512
 H2248 H 0.26178 0.79880 0.03963
 C2249 C 0.79139 0.29606 0.06984
 C2250 C 0.79276 0.27736 0.07020
 N2251 N 0.80410 0.26937 0.08174
 C2252 C 0.81399 0.27924 0.09319
 C2253 C 0.81214 0.29793 0.09338
 N2254 N 0.80091 0.30588 0.08158
 N2255 N 0.78016 0.30403 0.05813
 C2256 C 0.77002 0.29410 0.04692
 C2257 C 0.77089 0.27537 0.04779
 N2258 N 0.78233 0.26748 0.05938
 H2259 H 0.82263 0.27247 0.10250
 H2260 H 0.76096 0.30070 0.03789
 C2261 C 0.79697 0.79510 0.57011
 C2262 C 0.77871 0.79481 0.57300
 N2263 N 0.77181 0.80377 0.58700
 C2264 C 0.78236 0.81298 0.59837
 C2265 C 0.80071 0.81291 0.59587
 N2266 N 0.80761 0.80393 0.58174
 N2267 N 0.80375 0.78632 0.55587
 C2268 C 0.79312 0.77705 0.54455
 C2269 C 0.77492 0.77618 0.54784
 N2270 N 0.76819 0.78516 0.56202
 H2271 H 0.77649 0.81984 0.60954
 H2272 H 0.79889 0.76978 0.53357
 C2273 C 0.29757 0.70942 0.42880
 C2274 C 0.27924 0.70742 0.42744
 N2275 N 0.27236 0.69614 0.41517
 C2276 C 0.28296 0.68681 0.40403
 C2277 C 0.30133 0.68909 0.40492
 N2278 N 0.30822 0.70040 0.41736
 N2279 N 0.30434 0.72056 0.44135
 C2280 C 0.29359 0.72994 0.45246
 C2281 C 0.27522 0.72838 0.45066
 N2282 N 0.26857 0.71707 0.43818
 H2283 H 0.27701 0.67813 0.39421
 H2284 H 0.29927 0.73894 0.46216
 C2285 C 0.28504 0.20184 0.92693
 C2286 C 0.28232 0.21998 0.92308
 N2287 N 0.28855 0.22710 0.90780
 C2288 C 0.29758 0.21693 0.89609
 C2289 C 0.30057 0.19871 0.89976
 N2290 N 0.29410 0.19148 0.91514
 N2291 N 0.27860 0.19500 0.94242
 C2292 C 0.26950 0.20550 0.95410
 C2293 C 0.26660 0.22366 0.95001
 N2294 N 0.27325 0.23027 0.93457
 H2295 H 0.30221 0.22310 0.88394
 H2296 H 0.26424 0.19963 0.96614
 C2297 C 0.78472 0.69743 0.92568
 C2298 C 0.78301 0.71588 0.92273
 N2299 N 0.79130 0.72363 0.90877
 C2300 C 0.80132 0.71378 0.89755
 C2301 C 0.80294 0.69524 0.90020
 N2302 N 0.79452 0.68743 0.91424
 N2303 N 0.77663 0.68991 0.94000
 C2304 C 0.76679 0.70001 0.95138
 C2305 C 0.76471 0.71841 0.94808
 N2306 N 0.77297 0.72580 0.93381
 H2307 H 0.80774 0.72035 0.88647
 H2308 H 0.76030 0.69368 0.96254
 C2309 C 0.80396 0.21266 0.42966
 C2310 C 0.78554 0.21371 0.42857
 N2311 N 0.77680 0.20374 0.41635
 C2312 C 0.78567 0.19291 0.40495
 C2313 C 0.80419 0.19236 0.40546
 N2314 N 0.81289 0.20224 0.41793
 N2315 N 0.81264 0.22252 0.44207
 C2316 C 0.80374 0.23368 0.45318
 C2317 C 0.78537 0.23543 0.45150
 N2318 N 0.77673 0.22525 0.43925
 H2319 H 0.77834 0.18537 0.39515
 H2320 H 0.81100 0.24177 0.46260
 C2321 C 0.72243 0.30560 0.42552
 C2322 C 0.72253 0.28685 0.42520
 N2323 N 0.71195 0.27801 0.41366
 C2324 C 0.70121 0.28706 0.40233
 C2325 C 0.70119 0.30587 0.40234
 N2326 N 0.71189 0.31474 0.41396
 N2327 N 0.73296 0.31431 0.43734
 C2328 C 0.74367 0.30508 0.44872
 C2329 C 0.74407 0.28629 0.44805
 N2330 N 0.73339 0.27773 0.43627
 H2331 H 0.69310 0.27958 0.39314
 H2332 H 0.75212 0.31233 0.45780
 C2333 C 0.70290 0.79064 0.92801
 C2334 C 0.70026 0.77211 0.92703
 N2335 N 0.68848 0.76541 0.91518
 C2336 C 0.67938 0.77641 0.90402
 C2337 C 0.68250 0.79493 0.90446
 N2338 N 0.69417 0.80159 0.91656
 N2339 N 0.71455 0.79732 0.94002
 C2340 C 0.72390 0.78626 0.95094
 C2341 C 0.72178 0.76767 0.94947
 N2342 N 0.70991 0.76107 0.93757
 H2343 H 0.67034 0.77065 0.89448
 H2344 H 0.73336 0.79187 0.96017
 C2345 C 0.20872 0.29892 0.92959
 C2346 C 0.20890 0.28048 0.92626
 N2347 N 0.20009 0.27380 0.91207
 C2348 C 0.19096 0.28474 0.90100
 C2349 C 0.19075 0.30327 0.90409
 N2350 N 0.19974 0.31002 0.91834
 N2351 N 0.21750 0.30534 0.94406
 C2352 C 0.22655 0.29413 0.95519
 C2353 C 0.22702 0.27569 0.95152
 N2354 N 0.21806 0.26946 0.93713
 H2355 H 0.18412 0.27900 0.88972
 H2356 H 0.23371 0.29960 0.96640
 C2357 C 0.20214 0.78896 0.42873
 C2358 C 0.22048 0.79076 0.42736
 N2359 N 0.22740 0.80217 0.41523
 C2360 C 0.21682 0.81187 0.40427
 C2361 C 0.19842 0.80986 0.40522
 N2362 N 0.19150 0.79838 0.41749
 N2363 N 0.19534 0.77769 0.44118
 C2364 C 0.20609 0.76805 0.45219
 C2365 C 0.22446 0.76948 0.45040
 N2366 N 0.23114 0.78087 0.43801
 H2367 H 0.22281 0.82065 0.39456
 H2368 H 0.20040 0.75898 0.46183
 C2369 C 0.71111 0.70687 0.57115
 C2370 C 0.71231 0.72540 0.57375
 N2371 N 0.70405 0.73309 0.58772
 C2372 C 0.69463 0.72311 0.59936
 C2373 C 0.69357 0.70446 0.59712
 N2374 N 0.70188 0.69675 0.58298
 N2375 N 0.71944 0.69936 0.55701
 C2376 C 0.72907 0.70953 0.54551
 C2377 C 0.73067 0.72803 0.54849
 N2378 N 0.72211 0.73540 0.56254
 H2379 H 0.68844 0.72972 0.61049
 H2380 H 0.73589 0.70319 0.53458
 C2381 C 0.70851 0.20519 0.06993
 C2382 C 0.70532 0.22366 0.06956
 N2383 N 0.69326 0.23085 0.08076
 C2384 C 0.68441 0.22043 0.09257
 C2385 C 0.68812 0.20204 0.09356
 N2386 N 0.70007 0.19485 0.08209
 N2387 N 0.72045 0.19801 0.05855
 C2388 C 0.72958 0.20855 0.04701
 C2389 C 0.72697 0.22713 0.04722
 N2390 N 0.71480 0.23421 0.05846
 H2391 H 0.67514 0.22660 0.10158
 H2392 H 0.73931 0.20260 0.03834
 C2393 C 0.20155 0.70930 0.07263
 C2394 C 0.21995 0.70852 0.07437
 N2395 N 0.22727 0.69820 0.08728
 C2396 C 0.21704 0.68865 0.09864
 C2397 C 0.19858 0.68970 0.09730
 N2398 N 0.19126 0.70006 0.08425
 N2399 N 0.19432 0.71946 0.05947
 C2400 C 0.20466 0.72905 0.04813
 C2401 C 0.22307 0.72875 0.05026
 N2402 N 0.23021 0.71840 0.06336
 H2403 H 0.22331 0.68072 0.10893
 H2404 H 0.19855 0.73733 0.03802
 C2405 C 0.20564 0.20825 0.57256
 C2406 C 0.20509 0.22691 0.57453
 N2407 N 0.19532 0.23417 0.58778
 C2408 C 0.18624 0.22362 0.59932
 C2409 C 0.18738 0.20491 0.59786
 N2410 N 0.19704 0.19770 0.58441
 N2411 N 0.21512 0.20099 0.55909
 C2412 C 0.22432 0.21154 0.54765
 C2413 C 0.22443 0.23015 0.55008
 N2414 N 0.21473 0.23741 0.56348
 H2415 H 0.17879 0.22976 0.60993
 H2416 H 0.23209 0.20544 0.53724
   
