data_POSCAR
  _audit_creation_date              2014-09-24
  _audit_creation_method            'ToBaCCo'
  _symmetry_space_group_name_H-M    'P1'
  _symmetry_Int_Tables_number       1
  _symmetry_cell_setting            triclinic
  loop_
  _symmetry_equiv_pos_as_xyz
 x,y,z
_cell_length_a 50.4308
_cell_length_b 50.4303
_cell_length_c 50.5128
_cell_angle_alpha 89.968300
_cell_angle_beta 90.012100
_cell_angle_gamma 89.961900
loop_
  _atom_site_label
  _atom_site_type_symbol
  _atom_site_fract_x
  _atom_site_fract_y
  _atom_site_fract_z
C1 C 0.31689 1.35016 0.31446
 C2 C 0.32998 1.36105 0.29252
 C3 C 0.35316 1.34921 0.28241
 C4 C 0.36388 1.32699 0.29551
 C5 C 0.35053 1.31540 0.31695
 C6 C 0.32665 1.32671 0.32617
 C7 C 0.29438 1.36253 0.32507
 C8 C 0.28036 1.35077 0.34605
 C9 C 0.28929 1.32656 0.35671
 C10 C 0.31281 1.31486 0.34742
 C11 C 0.32320 1.29201 0.35952
 C12 C 0.34729 1.28109 0.35074
 C13 C 0.36076 1.29277 0.32942
 H14 H 0.32235 1.37901 0.28347
 H15 H 0.38200 1.31798 0.28824
 H16 H 0.28740 1.38110 0.31674
 H17 H 0.27872 1.31767 0.37318
 H18 H 0.31302 1.28308 0.37619
 H19 H 0.37933 1.28424 0.32272
 C20 C 0.33630 0.86863 0.83486
 C21 C 0.34732 0.87782 0.81108
 C22 C 0.36920 0.86485 0.79980
 C23 C 0.38055 0.84296 0.81263
 C24 C 0.36967 0.83343 0.83633
 C25 C 0.34729 0.84613 0.84738
 C26 C 0.31430 0.88135 0.84616
 C27 C 0.30278 0.87170 0.86967
 C28 C 0.31336 0.84866 0.88146
 C29 C 0.33578 0.83619 0.87081
 C30 C 0.34692 0.81395 0.88326
 C31 C 0.36954 0.80170 0.87267
 C32 C 0.38064 0.81128 0.84905
 H33 H 0.33883 0.89490 0.80115
 H34 H 0.39756 0.83315 0.80387
 H35 H 0.30562 0.89835 0.83622
 H36 H 0.30463 0.84096 0.89952
 H37 H 0.33824 0.80627 0.90134
 H38 H 0.39780 0.80141 0.84067
 C39 C 0.82371 1.35602 0.82194
 C40 C 0.83488 1.36531 0.79828
 C41 C 0.85739 1.35291 0.78729
 C42 C 0.86887 1.33126 0.80069
 C43 C 0.85745 1.32128 0.82393
 C44 C 0.83482 1.33372 0.83468
 C45 C 0.80188 1.36893 0.83334
 C46 C 0.79120 1.35989 0.85735
 C47 C 0.80166 1.33714 0.86948
 C48 C 0.82346 1.32401 0.85834
 C49 C 0.83435 1.30156 0.87061
 C50 C 0.85661 1.28900 0.85969
 C51 C 0.86828 1.29903 0.83659
 H52 H 0.82658 1.38276 0.78882
 H53 H 0.88623 1.32157 0.79250
 H54 H 0.79344 1.38630 0.82388
 H55 H 0.79314 1.33009 0.88789
 H56 H 0.82566 1.29385 0.88868
 H57 H 0.88560 1.28928 0.82841
 C58 C 0.81929 0.85116 0.31692
 C59 C 0.83060 0.86062 0.29338
 C60 C 0.85298 0.84813 0.28225
 C61 C 0.86403 0.82600 0.29528
 C62 C 0.85244 0.81584 0.31839
 C63 C 0.83005 0.82851 0.32936
 C64 C 0.79787 0.86443 0.32864
 C65 C 0.78731 0.85551 0.35275
 C66 C 0.79734 0.83239 0.36455
 C67 C 0.81872 0.81884 0.35305
 C68 C 0.82941 0.79617 0.36516
 C69 C 0.85145 0.78333 0.35405
 C70 C 0.86305 0.79336 0.33087
 H71 H 0.82265 0.87842 0.28429
 H72 H 0.88130 0.81623 0.28700
 H73 H 0.78979 0.88213 0.31947
 H74 H 0.78894 0.82546 0.38306
 H75 H 0.82087 0.78863 0.38336
 H76 H 0.88029 0.78354 0.32259
 C77 C 0.67173 0.64102 0.32896
 C78 C 0.65864 0.62654 0.30921
 C79 C 0.63749 0.63795 0.29505
 C80 C 0.62713 0.66248 0.30342
 C81 C 0.64040 0.67731 0.32281
 C82 C 0.66371 0.66712 0.33442
 C83 C 0.69305 0.63000 0.34295
 C84 C 0.70944 0.64584 0.35932
 C85 C 0.70307 0.67312 0.36136
 C86 C 0.67908 0.68304 0.35134
 C87 C 0.66989 0.70836 0.35838
 C88 C 0.64529 0.71750 0.34898
 C89 C 0.63104 0.70228 0.33058
 H90 H 0.66568 0.60692 0.30390
 H91 H 0.61010 0.67097 0.29339
 H92 H 0.69665 0.60903 0.34058
 H93 H 0.71640 0.68690 0.37087
 H94 H 0.68093 0.72024 0.37246
 H95 H 0.61239 0.70969 0.32284
 C96 C 0.67327 0.13750 0.82887
 C97 C 0.66250 0.12645 0.80577
 C98 C 0.64164 0.13921 0.79252
 C99 C 0.63125 0.16297 0.80248
 C100 C 0.64197 0.17441 0.82537
 C101 C 0.66322 0.16176 0.83853
 C102 C 0.69383 0.12467 0.84250
 C103 C 0.70465 0.13571 0.86576
 C104 C 0.69523 0.16053 0.87453
 C105 C 0.67435 0.17333 0.86140
 C106 C 0.66408 0.19732 0.87102
 C107 C 0.64273 0.20967 0.85817
 C108 C 0.63173 0.19821 0.83541
 H109 H 0.67021 0.10792 0.79806
 H110 H 0.61499 0.17260 0.79220
 H111 H 0.70178 0.10626 0.83474
 H112 H 0.70339 0.16936 0.89232
 H113 H 0.67233 0.20624 0.88873
 H114 H 0.61520 0.20787 0.82562
 C115 C 1.17452 0.63905 0.82764
 C116 C 1.16434 0.62868 0.80397
 C117 C 1.14117 0.63925 0.79283
 C118 C 1.12795 0.66023 0.80542
 C119 C 1.13772 0.67064 0.82923
 C120 C 1.16103 0.65990 0.84050
 C121 C 1.19802 0.62900 0.83856
 C122 C 1.20840 0.63947 0.86226
 C123 C 1.19414 0.65951 0.87551
 C124 C 1.17088 0.67011 0.86456
 C125 C 1.15758 0.69108 0.87704
 C126 C 1.13455 0.70193 0.86579
 C127 C 1.12472 0.69169 0.84189
 H128 H 1.17447 0.61252 0.79406
 H129 H 1.11002 0.66826 0.79669
 H130 H 1.20811 0.61272 0.82879
 H131 H 1.20181 0.66773 0.89382
 H132 H 1.16520 0.69920 0.89540
 H133 H 1.10710 0.70035 0.83311
 C134 C 1.16788 0.13049 0.33482
 C135 C 1.15919 0.12099 0.31020
 C136 C 1.14124 0.13577 0.29462
 C137 C 1.13104 0.15970 0.30484
 C138 C 1.13921 0.16923 0.32959
 C139 C 1.15781 0.15467 0.34457
 C140 C 1.18705 0.11658 0.34947
 C141 C 1.19657 0.12665 0.37372
 C142 C 1.18606 0.15066 0.38336
 C143 C 1.16657 0.16445 0.36920
 C144 C 1.15613 0.18821 0.37906
 C145 C 1.13795 0.20302 0.36406
 C146 C 1.12934 0.19330 0.33947
 H147 H 1.16729 0.10256 0.30264
 H148 H 1.11627 0.17069 0.29371
 H149 H 1.19560 0.09862 0.34130
 H150 H 1.19299 0.15856 0.40209
 H151 H 1.16252 0.19558 0.39819
 H152 H 1.11525 0.20473 0.32792
 C153 C 0.67517 1.36062 0.67360
 C154 C 0.66405 1.37194 0.69642
 C155 C 0.64262 1.35964 0.70919
 C156 C 0.63204 1.33606 0.69899
 C157 C 0.64309 1.32437 0.67636
 C158 C 0.66488 1.33657 0.66370
 C159 C 0.69622 1.37307 0.66040
 C160 C 0.70729 1.36186 0.63734
 C161 C 0.69763 1.33722 0.62836
 C162 C 0.67624 1.32481 0.64104
 C163 C 0.66563 1.30110 0.63110
 C164 C 0.64376 1.28916 0.64346
 C165 C 0.63257 1.30083 0.66604
 H166 H 0.67187 1.39037 0.70423
 H167 H 0.61532 1.32681 0.70882
 H168 H 0.70429 1.39136 0.66829
 H169 H 0.70598 1.32826 0.61071
 H170 H 0.67401 1.29211 0.61348
 H171 H 0.61562 1.29154 0.67544
 C172 C 0.67650 0.85867 1.17548
 C173 C 0.66687 0.86803 1.19978
 C174 C 0.64358 0.85742 1.21094
 C175 C 0.62995 0.83725 1.19725
 C176 C 0.63975 0.82720 1.17331
 C177 C 0.66303 0.83803 1.16226
 C178 C 0.69905 0.87001 1.16387
 C179 C 0.70821 0.86098 1.13925
 C180 C 0.69532 0.83990 1.12653
 C181 C 0.67268 0.82841 1.13783
 C182 C 0.65931 0.80771 1.12498
 C183 C 0.63622 0.79681 1.13603
 C184 C 0.62657 0.80656 1.16020
 H185 H 0.67691 0.88437 1.20950
 H186 H 0.61198 0.82891 1.20559
 H187 H 0.70928 0.88618 1.17365
 H188 H 0.70262 0.83293 1.10758
 H189 H 0.66670 0.80011 1.10630
 H190 H 0.60885 0.79791 1.16877
 C191 C 1.17322 1.36395 1.16959
 C192 C 1.16321 1.37423 1.19333
 C193 C 1.14220 1.36158 1.20639
 C194 C 1.13083 1.33871 1.19540
 C195 C 1.14055 1.32828 1.17159
 C196 C 1.16182 1.34097 1.15855
 C197 C 1.19436 1.37643 1.15671
 C198 C 1.20401 1.36679 1.13238
 C199 C 1.19266 1.34363 1.12158
 C200 C 1.17167 1.33068 1.13450
 C201 C 1.16042 1.30755 1.12389
 C202 C 1.13936 1.29489 1.13695
 C203 C 1.12939 1.30537 1.16062
 H204 H 1.17165 1.39214 1.20170
 H205 H 1.11446 1.32909 1.20548
 H206 H 1.20282 1.39424 1.16527
 H207 H 1.20063 1.33528 1.10347
 H208 H 1.16792 1.29935 1.10552
 H209 H 1.11309 1.29547 1.17054
 C210 C 1.16239 0.87317 0.66103
 C211 C 1.15048 0.88531 0.68299
 C212 C 1.12785 0.87416 0.69472
 C213 C 1.11715 0.85060 0.68449
 C214 C 1.12879 0.83826 0.66251
 C215 C 1.15165 0.84946 0.65084
 C216 C 1.18490 0.88434 0.64916
 C217 C 1.19704 0.87214 0.62718
 C218 C 1.18666 0.84796 0.61775
 C219 C 1.16382 0.83686 0.62906
 C220 C 1.15277 0.81352 0.61877
 C221 C 1.12963 0.80278 0.62985
 C222 C 1.11796 0.81494 0.65196
 H223 H 1.15873 0.90345 0.69103
 H224 H 1.09983 0.84191 0.69378
 H225 H 1.19339 0.90226 0.65745
 H226 H 1.19578 0.83829 0.60087
 H227 H 1.16183 0.80389 0.60184
 H228 H 1.10033 0.80632 0.66070
 C229 C 0.32759 0.63953 0.67307
 C230 C 0.34013 0.62665 0.69424
 C231 C 0.36381 0.63670 0.70481
 C232 C 0.37480 0.66005 0.69440
 C233 C 0.36256 0.67312 0.67315
 C234 C 0.33883 0.66285 0.66242
 C235 C 0.30406 0.62944 0.66228
 C236 C 0.29162 0.64242 0.64107
 C237 C 0.30290 0.66548 0.63038
 C238 C 0.32638 0.67586 0.64099
 C239 C 0.33768 0.69899 0.63052
 C240 C 0.36117 0.70929 0.64126
 C241 C 0.37363 0.69625 0.66242
 H242 H 0.33161 0.60872 0.70249
 H243 H 0.39290 0.66796 0.70289
 H244 H 0.29540 0.61145 0.67024
 H245 H 0.29327 0.67531 0.61387
 H246 H 0.32831 0.70903 0.61398
 H247 H 0.39186 0.70423 0.67053
 C248 C 0.31617 0.15097 1.18508
 C249 C 0.32279 0.14401 1.21108
 C250 C 0.34538 0.15478 1.22347
 C251 C 0.35974 0.17479 1.21025
 C252 C 0.35311 0.18202 1.18421
 C253 C 0.33216 0.16891 1.17113
 C254 C 0.29424 0.13956 1.17256
 C255 C 0.29095 0.14112 1.14481
 C256 C 0.30791 0.15861 1.13080
 C257 C 0.32721 0.17370 1.14411
 C258 C 0.34155 0.19360 1.13097
 C259 C 0.36060 0.20860 1.14468
 C260 C 0.36727 0.20180 1.17083
 H261 H 0.31105 0.12919 1.22134
 H262 H 0.37724 0.18332 1.21935
 H263 H 0.28008 0.12917 1.18479
 H264 H 0.30629 0.16090 1.10960
 H265 H 0.33710 0.19828 1.11050
 H266 H 0.38284 0.21261 1.18095
 C267 C 0.83375 0.63295 1.16605
 C268 C 0.84374 0.62286 1.18991
 C269 C 0.86570 0.63475 1.20210
 C270 C 0.87810 0.65659 1.19015
 C271 C 0.86842 0.66686 1.16621
 C272 C 0.84607 0.65509 1.15414
 C273 C 0.81162 0.62135 1.15394
 C274 C 0.80161 0.63157 1.13009
 C275 C 0.81368 0.65380 1.11845
 C276 C 0.83598 0.66550 1.13021
 C277 C 0.84835 0.68747 1.11850
 C278 C 0.87079 0.69892 1.13026
 C279 C 0.88065 0.68871 1.15416
 H280 H 0.83437 0.60588 1.19919
 H281 H 0.89524 0.66550 1.19956
 H282 H 0.80210 0.60434 1.16299
 H283 H 0.80563 0.66189 1.10025
 H284 H 0.84071 0.69560 1.10013
 H285 H 0.89780 0.69788 1.16331
 C286 C 0.82996 0.13651 0.66949
 C287 C 0.83935 0.12645 0.69363
 C288 C 0.85913 0.13994 0.70804
 C289 C 0.87049 0.16299 0.69708
 C290 C 0.86183 0.17285 0.67260
 C291 C 0.84112 0.15987 0.65899
 C292 C 0.80950 0.12362 0.65576
 C293 C 0.79971 0.13395 0.63172
 C294 C 0.81066 0.15761 0.62173
 C295 C 0.83169 0.17019 0.63479
 C296 C 0.84377 0.19267 0.62379
 C297 C 0.86523 0.20479 0.63661
 C298 C 0.87380 0.19525 0.66128
 H299 H 0.83056 0.10856 0.70171
 H300 H 0.88667 0.17281 0.70728
 H301 H 0.80058 0.10597 0.66419
 H302 H 0.80344 0.16570 0.60316
 H303 H 0.83700 0.20038 0.60492
 H304 H 0.89009 0.20503 0.67132
 C305 C 1.35663 0.32102 0.67850
 C306 C 1.36819 0.33337 0.70054
 C307 C 1.35628 0.35580 0.71225
 C308 C 1.33372 0.36696 0.70011
 C309 C 1.32218 0.35504 0.67786
 C310 C 1.33332 0.33165 0.66734
 C311 C 1.36776 0.29792 0.66774
 C312 C 1.35520 0.28446 0.64675
 C313 C 1.33202 0.29539 0.63561
 C314 C 1.32122 0.31901 0.64553
 C315 C 1.29863 0.33033 0.63389
 C316 C 1.28783 0.35389 0.64403
 C317 C 1.29962 0.36612 0.66601
 H318 H 1.38575 0.32469 0.70942
 H319 H 1.32523 0.38511 0.70793
 H320 H 1.38566 0.28975 0.67644
 H321 H 1.32283 0.28588 0.61868
 H322 H 1.28950 0.32101 0.61683
 H323 H 1.29112 0.38426 0.67383
 C324 C 1.36291 0.82877 1.17020
 C325 C 1.37493 0.84165 1.19145
 C326 C 1.37386 0.86956 1.19409
 C327 C 1.35763 0.88382 1.17603
 C328 C 1.34204 0.87042 1.15710
 C329 C 1.34499 0.84283 1.15422
 C330 C 1.36937 0.80239 1.16389
 C331 C 1.35848 0.79061 1.14109
 C332 C 1.33658 0.80288 1.12896
 C333 C 1.32994 0.82907 1.13540
 C334 C 1.30924 0.84198 1.12252
 C335 C 1.30630 0.86980 1.12386
 C336 C 1.32366 0.88397 1.14088
 H337 H 1.38497 0.82943 1.20587
 H338 H 1.35637 0.90520 1.17698
 H339 H 1.38516 0.79249 1.17463
 H340 H 1.32646 0.79299 1.11278
 H341 H 1.29538 0.82979 1.11171
 H342 H 1.32245 0.90532 1.14232
 C343 C 0.85487 0.32369 1.17177
 C344 C 0.86369 0.33363 1.19613
 C345 C 0.86318 0.36114 1.20155
 C346 C 0.84861 0.37757 1.18399
 C347 C 0.83591 0.36695 1.16163
 C348 C 0.84066 0.34038 1.15456
 C349 C 0.86066 0.29756 1.16407
 C350 C 0.85357 0.28845 1.13867
 C351 C 0.83827 0.30497 1.12215
 C352 C 0.83087 0.33041 1.13044
 C353 C 0.81344 0.34586 1.11533
 C354 C 0.80581 0.37120 1.12404
 C355 C 0.81815 0.38220 1.14648
 H356 H 0.87152 0.31973 1.21042
 H357 H 0.84695 0.39866 1.18733
 H358 H 0.87269 0.28516 1.17688
 H359 H 0.83186 0.29781 1.10294
 H360 H 0.80455 0.33765 1.09758
 H361 H 0.81267 0.40192 1.15303
 C362 C 0.86518 0.83039 0.66862
 C363 C 0.87511 0.84093 0.69231
 C364 C 0.86313 0.86321 0.70385
 C365 C 0.84132 0.87529 0.69151
 C366 C 0.83126 0.86509 0.66773
 C367 C 0.84315 0.84249 0.65625
 C368 C 0.87692 0.80801 0.65703
 C369 C 0.86697 0.79770 0.63321
 C370 C 0.84493 0.80957 0.62110
 C371 C 0.83302 0.83199 0.63239
 C372 C 0.81126 0.84421 0.62014
 C373 C 0.79969 0.86688 0.63132
 C374 C 0.80956 0.87713 0.65518
 H375 H 0.89205 0.83180 0.70190
 H376 H 0.83233 0.89264 0.70045
 H377 H 0.89383 0.79860 0.66640
 H378 H 0.83730 0.80145 0.60275
 H379 H 0.80341 0.83629 0.60179
 H380 H 0.80031 0.89449 0.66386
 C381 C 0.63907 0.67465 0.67220
 C382 C 0.62772 0.66489 0.69561
 C383 C 0.63993 0.64414 0.70956
 C384 C 0.66341 0.63280 0.69986
 C385 C 0.67499 0.64232 0.67651
 C386 C 0.66284 0.66337 0.66261
 C387 C 0.62704 0.69543 0.65817
 C388 C 0.63831 0.70486 0.63454
 C389 C 0.66209 0.69382 0.62522
 C390 C 0.67440 0.67307 0.63905
 C391 C 0.69798 0.66173 0.62966
 C392 C 0.71003 0.64080 0.64348
 C393 C 0.69845 0.63107 0.66676
 H394 H 0.60945 0.67341 0.70308
 H395 H 0.67254 0.61652 0.71054
 H396 H 0.60889 0.70431 0.66551
 H397 H 0.67084 0.70131 0.60709
 H398 H 0.70694 0.66899 0.61154
 H399 H 0.70783 0.61480 0.67725
 C400 C 0.63170 1.16734 1.16457
 C401 C 0.62082 1.15819 1.18844
 C402 C 0.63308 1.13752 1.20246
 C403 C 0.65590 1.12537 1.19219
 C404 C 0.66696 1.13421 1.16832
 C405 C 0.65501 1.15551 1.15459
 C406 C 0.61981 1.18829 1.15066
 C407 C 0.63107 1.19796 1.12701
 C408 C 0.65479 1.18650 1.11768
 C409 C 0.66647 1.16505 1.13096
 C410 C 0.68933 1.15284 1.12089
 C411 C 0.70073 1.13114 1.13405
 C412 C 0.68976 1.12216 1.15795
 H413 H 0.60305 1.16731 1.19638
 H414 H 0.66504 1.10914 1.20293
 H415 H 0.60222 1.19768 1.15872
 H416 H 0.66369 1.19372 1.09951
 H417 H 0.69810 1.15989 1.10259
 H418 H 0.69895 1.10569 1.16829
 C419 C 0.13865 0.67429 1.17070
 C420 C 0.12741 0.66466 1.19425
 C421 C 0.14074 0.64550 1.20968
 C422 C 0.16476 0.63486 1.20019
 C423 C 0.17597 0.64395 1.17650
 C424 C 0.16313 0.66407 1.16191
 C425 C 0.12597 0.69425 1.15600
 C426 C 0.13745 0.70432 1.13259
 C427 C 0.16217 0.69421 1.12433
 C428 C 0.17478 0.67390 1.13849
 C429 C 0.19876 0.66309 1.12948
 C430 C 0.21119 0.64261 1.14363
 C431 C 0.19981 0.63316 1.16712
 H432 H 0.10878 0.67289 1.20114
 H433 H 0.17453 0.61908 1.21107
 H434 H 0.10755 0.70262 1.16329
 H435 H 0.17124 0.70160 1.10631
 H436 H 0.20763 0.67024 1.11128
 H437 H 0.20957 0.61738 1.17801
 C438 C 0.13708 1.17302 0.67047
 C439 C 0.12539 1.16295 0.69354
 C440 C 0.13920 1.14485 0.70962
 C441 C 0.16443 1.13588 0.70178
 C442 C 0.17569 1.14459 0.67792
 C443 C 0.16215 1.16355 0.66239
 C444 C 0.12428 1.19265 0.65551
 C445 C 0.13605 1.20265 0.63239
 C446 C 0.16058 1.19257 0.62395
 C447 C 0.17363 1.17298 0.63871
 C448 C 0.19792 1.16260 0.63015
 C449 C 0.21102 1.14310 0.64505
 C450 C 0.20001 1.13437 0.66906
 H451 H 0.10596 1.16993 0.69958
 H452 H 0.17484 1.12141 0.71383
 H453 H 0.10544 1.20064 0.66211
 H454 H 0.16957 1.20026 0.60602
 H455 H 0.20655 1.16937 0.61168
 H456 H 0.21011 1.11918 0.68045
 C457 C 1.36864 0.66986 0.33362
 C458 C 1.37846 0.65924 0.30987
 C459 C 1.36674 0.63660 0.29840
 C460 C 1.34568 0.62405 0.31173
 C461 C 1.33516 0.63490 0.33500
 C462 C 1.34653 0.65799 0.34592
 C463 C 1.38047 0.69223 0.34517
 C464 C 1.37030 0.70324 0.36875
 C465 C 1.34728 0.69206 0.37999
 C466 C 1.33568 0.66929 0.36906
 C467 C 1.31344 0.65755 0.38097
 C468 C 1.30226 0.63441 0.37028
 C469 C 1.31314 0.62324 0.34729
 H470 H 1.39547 0.66838 0.30041
 H471 H 1.33657 0.60653 0.30324
 H472 H 1.39733 0.70146 0.33553
 H473 H 1.33904 0.70042 0.39798
 H474 H 1.30479 0.66629 0.39858
 H475 H 1.30429 0.60551 0.33895
 C476 C 1.36623 1.16862 0.83247
 C477 C 1.37771 1.15696 0.81005
 C478 C 1.36677 1.13389 0.79906
 C479 C 1.34515 1.12155 0.81142
 C480 C 1.33345 1.13298 0.83387
 C481 C 1.34375 1.15686 0.84419
 C482 C 1.37631 1.19236 0.84273
 C483 C 1.36370 1.20522 0.86407
 C484 C 1.34150 1.19305 0.87590
 C485 C 1.33129 1.16921 0.86593
 C486 C 1.30833 1.15795 0.87682
 C487 C 1.29770 1.13449 0.86626
 C488 C 1.31097 1.12156 0.84548
 H489 H 1.39465 1.16619 0.80058
 H490 H 1.33689 1.10361 0.80294
 H491 H 1.39329 1.20151 0.83324
 H492 H 1.33225 1.20206 0.89307
 H493 H 1.29820 1.16782 0.89299
 H494 H 1.30301 1.10320 0.83765
 C495 C 0.85747 0.67722 0.82339
 C496 C 0.86828 0.66574 0.80054
 C497 C 0.85761 0.64222 0.79025
 C498 C 0.83617 0.62994 0.80300
 C499 C 0.82509 0.64121 0.82583
 C500 C 0.83572 0.66499 0.83608
 C501 C 0.86820 0.70057 0.83392
 C502 C 0.85730 0.71195 0.85679
 C503 C 0.83561 0.69989 0.86932
 C504 C 0.82476 0.67641 0.85914
 C505 C 0.80336 0.66399 0.87178
 C506 C 0.79302 0.64015 0.86182
 C507 C 0.80373 0.62901 0.83874
 H508 H 0.88507 0.67493 0.79077
 H509 H 0.82818 0.61164 0.79506
 H510 H 0.88505 0.70995 0.82443
 H511 H 0.82747 0.70867 0.88715
 H512 H 0.79482 0.67264 0.88948
 H513 H 0.79557 0.61067 0.83106
 C514 C 0.87153 1.16642 0.33657
 C515 C 0.88146 1.15597 0.31285
 C516 C 0.86882 1.13449 0.30023
 C517 C 0.84702 1.12241 0.31289
 C518 C 0.83691 1.13260 0.33666
 C519 C 0.84905 1.15483 0.34847
 C520 C 0.88345 1.18859 0.34832
 C521 C 0.87312 1.19936 0.37177
 C522 C 0.85059 1.18794 0.38346
 C523 C 0.83854 1.16565 0.37203
 C524 C 0.81596 1.15419 0.38352
 C525 C 0.80398 1.13191 0.37191
 C526 C 0.81447 1.12128 0.34848
 H527 H 0.89916 1.16457 0.30420
 H528 H 0.83705 1.10579 0.30359
 H529 H 0.90055 1.19778 0.33911
 H530 H 0.84253 1.19648 0.40144
 H531 H 0.80755 1.16260 0.40141
 H532 H 0.80497 1.10426 0.33943
 C533 C 0.63948 0.32690 0.32793
 C534 C 0.62900 0.33798 0.30474
 C535 C 0.64212 0.35892 0.29174
 C536 C 0.66507 0.36981 0.30331
 C537 C 0.67541 0.35934 0.32686
 C538 C 0.66279 0.33758 0.33908
 C539 C 0.62736 0.30491 0.33982
 C540 C 0.63848 0.29331 0.36246
 C541 C 0.66134 0.30426 0.37389
 C542 C 0.67357 0.32639 0.36236
 C543 C 0.69655 0.33736 0.37350
 C544 C 0.70896 0.35916 0.36149
 C545 C 0.69832 0.37014 0.33829
 H546 H 0.61126 0.32945 0.29608
 H547 H 0.67468 0.38670 0.29412
 H548 H 0.60966 0.29634 0.33115
 H549 H 0.66972 0.29526 0.39151
 H550 H 0.70489 0.32897 0.39143
 H551 H 0.70809 0.38691 0.32906
 C552 C 0.63553 0.83236 0.83159
 C553 C 0.62391 0.84474 0.80960
 C554 C 0.63421 0.86866 0.79982
 C555 C 0.65652 0.88009 0.81187
 C556 C 0.66834 0.86799 0.83392
 C557 C 0.65785 0.84400 0.84384
 C558 C 0.62524 0.80854 0.84154
 C559 C 0.63713 0.79613 0.86339
 C560 C 0.65923 0.80776 0.87561
 C561 C 0.66968 0.83165 0.86599
 C562 C 0.69169 0.84345 0.87818
 C563 C 0.70193 0.86747 0.86857
 C564 C 0.69043 0.87947 0.84625
 H565 H 0.60688 0.83582 0.79999
 H566 H 0.66449 0.89849 0.80413
 H567 H 0.60807 0.79951 0.83229
 H568 H 0.66815 0.79818 0.89266
 H569 H 0.70078 0.83413 0.89527
 H570 H 0.69867 0.89781 0.83866
 C571 C 0.13362 0.33351 0.83432
 C572 C 0.12198 0.34589 0.81232
 C573 C 0.13433 0.36772 0.80020
 C574 C 0.15876 0.37686 0.80989
 C575 C 0.17078 0.36455 0.83171
 C576 C 0.15823 0.34270 0.84393
 C577 C 0.12104 0.31212 0.84689
 C578 C 0.13263 0.29970 0.86908
 C579 C 0.15769 0.30847 0.87786
 C580 C 0.17029 0.33007 0.86577
 C581 C 0.19460 0.33951 0.87541
 C582 C 0.20687 0.36141 0.86351
 C583 C 0.19504 0.37381 0.84164
 H584 H 0.10327 0.33868 0.80459
 H585 H 0.16830 0.39365 0.80044
 H586 H 0.10240 0.30479 0.83908
 H587 H 0.16693 0.29912 0.89487
 H588 H 0.20390 0.33011 0.89235
 H589 H 0.20469 0.39074 0.83258
 C590 C 0.12437 0.83884 0.33832
 C591 C 0.11256 0.85219 0.31697
 C592 C 0.12457 0.87507 0.30636
 C593 C 0.14568 0.88698 0.32025
 C594 C 0.15750 0.87392 0.34177
 C595 C 0.14792 0.84893 0.34945
 C596 C 0.11369 0.81510 0.34814
 C597 C 0.12679 0.80086 0.36833
 C598 C 0.15213 0.80940 0.37647
 C599 C 0.16236 0.83366 0.36766
 C600 C 0.18676 0.84298 0.37698
 C601 C 0.19463 0.86963 0.37308
 C602 C 0.17935 0.88493 0.35505
 H603 H 0.09554 0.84345 0.30718
 H604 H 0.15394 0.90554 0.31319
 H605 H 0.09526 0.80757 0.34001
 H606 H 0.16294 0.79832 0.39139
 H607 H 0.19931 0.82906 0.38729
 H608 H 0.18430 0.90524 0.35060
 O609 O 0.97466 0.90567 0.86634
 O610 O 0.97469 0.87493 0.83529
 C611 C 0.96540 0.89626 0.84492
 C612 C 0.94288 0.90969 0.83172
 C613 C 0.93159 0.89888 0.80873
 H614 H 0.94006 0.88129 0.79976
 O615 O 1.02483 1.09758 0.86831
 O616 O 1.02412 1.12927 0.83820
 C617 C 1.03378 1.10778 0.84713
 C618 C 1.05647 1.09520 0.83346
 C619 C 1.06770 1.10721 0.81104
 H620 H 1.05899 1.12503 0.80276
 O621 O 0.86900 0.97427 0.90486
 O622 O 0.83740 0.97417 0.87467
 C623 C 0.84727 0.96515 0.89601
 C624 C 0.83372 0.94342 0.91036
 C625 C 0.80919 0.93374 0.90143
 H626 H 0.79962 0.94261 0.88437
 O627 O 1.13073 1.02684 0.90435
 O628 O 1.16185 1.02772 0.87369
 C629 C 1.15250 1.03589 0.89562
 C630 C 1.16646 1.05706 0.91039
 C631 C 1.19072 1.06680 0.90100
 H632 H 1.20047 1.05714 0.88449
 O633 O 0.90632 0.86886 0.97372
 O634 O 0.87539 0.83795 0.97369
 C635 C 0.89660 0.84768 0.96419
 C636 C 0.90942 0.83480 0.94115
 C637 C 0.89750 0.81275 0.92906
 H638 H 0.87953 0.80428 0.93723
 O639 O 1.09400 1.13301 0.97484
 O640 O 1.12495 1.16388 0.97497
 C641 C 1.10335 1.15462 0.96591
 C642 C 1.08929 1.16868 0.94431
 C643 C 1.09831 1.19339 0.93522
 H644 H 1.11505 1.20287 0.94478
 O645 O 0.90402 1.02664 0.86832
 O646 O 0.87252 1.02667 0.83804
 C647 C 0.89399 1.03608 0.84727
 C648 C 0.90687 1.05890 0.83403
 C649 C 0.89495 1.07091 0.81194
 H650 H 0.87675 1.06287 0.80385
 O651 O 1.09430 0.97728 0.86557
 O652 O 1.12508 0.97812 0.83458
 C653 C 1.10354 0.96882 0.84379
 C654 C 1.08949 0.94728 0.82965
 C655 C 1.09796 0.93877 0.80458
 H656 H 1.11429 0.94870 0.79478
 O657 O 1.02687 0.86951 0.90206
 O658 O 1.02690 0.83860 0.87121
 C659 C 1.03595 0.84795 0.89274
 C660 C 1.05766 0.83405 0.90682
 C661 C 1.06704 0.80940 0.89786
 H662 H 1.05803 0.80000 0.88080
 O663 O 0.97269 1.13196 0.90585
 O664 O 0.97186 1.16355 0.87566
 C665 C 0.96303 1.15345 0.89695
 C666 C 0.94057 1.16625 0.91083
 C667 C 0.92845 1.18880 0.89989
 H668 H 0.93621 1.19764 0.88193
 O669 O 0.86739 1.09356 0.97659
 O670 O 0.83602 1.12405 0.97719
 C671 C 0.84564 1.10278 0.96778
 C672 C 0.83192 1.08920 0.94572
 C673 C 0.80749 1.09870 0.93629
 H674 H 0.79786 1.11522 0.94607
 O675 O 1.13286 0.90606 0.97044
 O676 O 1.16424 0.87556 0.97016
 C677 C 1.15446 0.89697 0.96120
 C678 C 1.16801 0.91113 0.93945
 C679 C 1.19323 0.90311 0.93089
 H680 H 1.20341 0.88713 0.94104
 O681 O 0.97299 1.09701 0.86833
 O682 O 0.97220 1.12859 0.83812
 C683 C 0.96344 1.10678 0.84718
 C684 C 0.94107 1.09329 0.83376
 C685 C 0.92917 1.10463 0.81129
 H686 H 0.93747 1.12239 0.80251
 O687 O 1.02631 0.90625 0.86599
 O688 O 1.02642 0.87555 0.83491
 C689 C 1.03517 0.89725 0.84424
 C690 C 1.05621 0.91200 0.83004
 C691 C 1.06499 0.90373 0.80499
 H692 H 1.05605 0.88665 0.79553
 O693 O 1.13159 0.97544 0.90065
 O694 O 1.16254 0.97627 0.86981
 C695 C 1.15312 0.96657 0.89100
 C696 C 1.16712 0.94466 0.90459
 C697 C 1.19195 0.93570 0.89564
 H698 H 1.20094 0.94459 0.87829
 O699 O 0.86814 1.02589 0.90475
 O700 O 0.83658 1.02580 0.87450
 C701 C 0.84631 1.03483 0.89586
 C702 C 0.83249 1.05634 0.91021
 C703 C 0.80839 1.06655 0.90068
 H704 H 0.79962 1.05852 0.88282
 O705 O 0.90342 1.13017 0.97680
 O706 O 0.87203 1.16063 0.97722
 C707 C 0.89355 1.15153 0.96780
 C708 C 0.90656 1.16532 0.94540
 C709 C 0.89471 1.18783 0.93401
 H710 H 0.87661 1.19596 0.94226
 O711 O 1.09665 0.86971 0.97164
 O712 O 1.12792 0.83912 0.97132
 C713 C 1.10609 0.84820 0.96259
 C714 C 1.09187 0.83411 0.94115
 C715 C 1.10088 0.80941 0.93200
 H716 H 1.11778 0.79995 0.94131
 O717 O 1.09579 1.02914 0.86675
 O718 O 1.12676 1.03018 0.83596
 C719 C 1.10536 1.03916 0.84572
 C720 C 1.09183 1.06196 0.83301
 C721 C 1.10296 1.07450 0.81078
 H722 H 1.12123 1.06714 0.80221
 O723 O 0.90427 0.97473 0.86757
 O724 O 0.87280 0.97459 0.83727
 C725 C 0.89453 0.96557 0.84626
 C726 C 0.90812 0.94354 0.83242
 C727 C 0.89709 0.93238 0.80944
 H728 H 0.87912 0.94057 0.80096
 O729 O 1.02452 1.13335 0.90488
 O730 O 1.02370 1.16509 0.87484
 C731 C 1.03323 1.15523 0.89595
 C732 C 1.05516 1.16890 0.90991
 C733 C 1.06489 1.19333 0.90071
 H734 H 1.05614 1.20258 0.88341
 O735 O 0.97508 0.86967 0.90258
 O736 O 0.97494 0.83889 0.87158
 C737 C 0.96577 0.84833 0.89304
 C738 C 0.94328 0.83503 0.90642
 C739 C 0.93103 0.81295 0.89469
 H740 H 0.93872 0.80475 0.87642
 O741 O 1.13046 1.09662 0.97498
 O742 O 1.16154 1.12733 0.97524
 C743 C 1.15207 1.10591 0.96596
 C744 C 1.16585 1.09205 0.94395
 C745 C 1.18936 1.10246 0.93309
 H746 H 1.19781 1.12052 0.94105
 O747 O 0.86984 0.90479 0.97545
 O748 O 0.83891 0.87389 0.97568
 C749 C 0.84815 0.89551 0.96663
 C750 C 0.83406 0.90948 0.94500
 C751 C 0.80956 0.90006 0.93570
 H752 H 0.80024 0.88310 0.94501
 Cu753 Cu 1.00086 0.89084 0.88736
 Cu754 Cu 1.00086 0.85385 0.85017
 Cu755 Cu 0.99884 1.11179 0.88985
 Cu756 Cu 0.99787 1.14979 0.85367
 Cu757 Cu 0.88957 1.00035 0.88936
 Cu758 Cu 0.85172 1.00024 0.85300
 Cu759 Cu 1.10995 1.00205 0.88733
 Cu760 Cu 1.14711 1.00323 0.85036
 C761 C 0.93116 0.93219 0.84326
 H762 H 0.93948 0.94034 0.86128
 C763 C 0.90861 0.90996 0.79776
 C764 C 1.06848 1.07239 0.84411
 H765 H 1.06009 1.06323 0.86160
 C766 C 1.09098 1.09711 0.79987
 C767 C 0.84585 0.93135 0.93235
 H768 H 0.86495 0.93845 0.93912
 C769 C 0.79702 0.91225 0.91413
 C770 C 1.15446 1.06942 0.93228
 H771 H 1.13570 1.06199 0.93962
 C772 C 1.20155 1.09022 0.91125
 C773 C 0.93243 0.84570 0.92978
 H774 H 0.94143 0.86304 0.93867
 C775 C 0.90800 0.80208 0.90571
 C776 C 1.06742 1.15682 0.93180
 H777 H 1.06042 1.13771 0.93865
 C778 C 1.08612 1.20593 0.91357
 C779 C 0.92997 1.07021 0.84475
 H780 H 0.93883 1.06152 0.86226
 C781 C 0.90576 1.09394 0.80072
 C782 C 1.06838 0.93397 0.84204
 H783 H 1.06198 0.94020 0.86153
 C784 C 1.08560 0.91723 0.79207
 C785 C 1.07003 0.84608 0.92865
 H786 H 1.06320 0.86530 0.93540
 C787 C 1.08842 0.79690 0.91056
 C788 C 0.92963 1.15477 0.93376
 H789 H 0.93856 1.13706 0.94202
 C790 C 0.90546 1.19937 0.91120
 C791 C 0.84402 1.06771 0.93283
 H792 H 0.86293 1.06037 0.93991
 C793 C 0.79554 1.08739 0.91389
 C794 C 1.15535 0.93223 0.92650
 H795 H 1.13594 0.93860 0.93314
 C796 C 1.20545 0.91538 0.90912
 O797 O 1.02739 0.90394 1.13280
 O798 O 1.02814 0.87253 1.16317
 C799 C 1.03642 0.89463 1.15436
 C800 C 1.05729 0.90944 1.16876
 C801 C 1.06670 0.90066 1.19343
 H802 H 1.05826 0.88311 1.20251
 O803 O 0.97669 1.09373 1.13531
 O804 O 0.97685 1.12441 1.16641
 C805 C 0.96823 1.10258 1.15728
 C806 C 0.94690 1.08829 1.17145
 C807 C 0.93687 1.09833 1.19532
 H808 H 0.94685 1.11467 1.20505
 O809 O 0.87011 1.02437 1.09939
 O810 O 0.83916 1.02383 1.13022
 C811 C 0.84835 1.03302 1.10869
 C812 C 0.83398 1.05440 1.09459
 C813 C 0.80950 1.06376 1.10405
 H814 H 0.80057 1.05498 1.12148
 O815 O 1.13181 0.97161 1.09668
 O816 O 1.16341 0.97119 1.12685
 C817 C 1.15329 0.96202 1.10575
 C818 C 1.16686 0.94061 1.09097
 C819 C 1.19105 0.92982 1.09982
 H820 H 1.19813 0.93540 1.11922
 O821 O 1.09811 0.86999 1.02341
 O822 O 1.12947 0.83950 1.02312
 C823 C 1.10796 0.84865 1.03251
 C824 C 1.09459 0.83468 1.05464
 C825 C 1.10382 0.80985 1.06336
 H826 H 1.12017 0.80030 1.05323
 O827 O 0.90367 1.12930 1.02880
 O828 O 0.87228 1.15977 1.02917
 C829 C 0.89376 1.15037 1.03840
 C830 C 0.90651 1.16344 1.06135
 C831 C 0.89440 1.18554 1.07309
 H832 H 0.87652 1.19392 1.06458
 O833 O 0.90705 0.97256 1.13499
 O834 O 0.87615 0.97195 1.16588
 C835 C 0.89747 0.96276 1.15610
 C836 C 0.91027 0.93931 1.16832
 C837 C 0.89770 0.92582 1.18916
 H838 H 0.87986 0.93391 1.19799
 O839 O 1.09821 1.02613 1.13133
 O840 O 1.12990 1.02608 1.16142
 C841 C 1.10854 1.03573 1.15217
 C842 C 1.09590 1.05870 1.16541
 C843 C 1.10766 1.07022 1.18781
 H844 H 1.12581 1.06200 1.19588
 O845 O 0.97781 0.86664 1.09482
 O846 O 0.97869 0.83476 1.12472
 C847 C 0.96942 0.84451 1.10343
 C848 C 0.94798 0.83057 1.08901
 C849 C 0.93867 0.80583 1.09778
 H850 H 0.94784 0.79618 1.11464
 O851 O 1.02525 1.13240 1.09720
 O852 O 1.02520 1.16330 1.12807
 C853 C 1.03402 1.15415 1.10636
 C854 C 1.05565 1.16815 1.09229
 C855 C 1.06700 1.19119 1.10311
 H856 H 1.05905 1.19976 1.12111
 O857 O 0.87117 0.90376 1.02730
 O858 O 0.84044 0.87267 1.02743
 C859 C 0.84994 0.89404 1.03677
 C860 C 0.83657 0.90731 1.05929
 C861 C 0.81278 0.89708 1.06956
 H862 H 0.80357 0.87992 1.06051
 O863 O 1.12963 1.09673 1.02705
 O864 O 1.16055 1.12762 1.02752
 C865 C 1.15079 1.10630 1.03677
 C866 C 1.16408 1.09252 1.05908
 C867 C 1.18511 1.10465 1.07282
 H868 H 1.18997 1.12494 1.06800
 O869 O 1.02824 1.09598 1.13305
 O870 O 1.02849 1.12680 1.16400
 C871 C 1.03802 1.10568 1.15410
 C872 C 1.06126 1.09270 1.16658
 C873 C 1.07314 1.10367 1.18923
 H874 H 1.06461 1.12107 1.19851
 O875 O 0.97574 0.90205 1.13170
 O876 O 0.97626 0.87022 1.16165
 C877 C 0.96644 0.89160 1.15261
 C878 C 0.94340 0.90395 1.16600
 C879 C 0.93001 0.89036 1.18627
 H880 H 0.93696 0.87105 1.19267
 O881 O 1.13267 1.02318 1.09353
 O882 O 1.16447 1.02296 1.12352
 C883 C 1.15471 1.03184 1.10202
 C884 C 1.16788 1.05419 1.08819
 C885 C 1.19172 1.06450 1.09802
 H886 H 1.20350 1.05211 1.11089
 O887 O 0.87125 0.97275 1.09865
 O888 O 0.84026 0.97215 1.12946
 C889 C 0.84986 0.96327 1.10794
 C890 C 0.83650 0.94117 1.09401
 C891 C 0.81276 0.93058 1.10394
 H892 H 0.80364 0.93904 1.12144
 O893 O 1.09372 1.13313 1.02638
 O894 O 1.12469 1.16400 1.02648
 C895 C 1.10314 1.15463 1.03551
 C896 C 1.08957 1.16823 1.05766
 C897 C 1.10060 1.19120 1.06880
 H898 H 1.11836 1.19988 1.06041
 O899 O 0.90762 0.86746 1.02542
 O900 O 0.87695 0.83632 1.02537
 C901 C 0.89867 0.84558 1.03411
 C902 C 0.91325 0.83122 1.05517
 C903 C 0.90424 0.80651 1.06426
 H904 H 0.88709 0.79727 1.05521
 O905 O 1.09549 0.97450 1.13288
 O906 O 1.12691 0.97436 1.16326
 C907 C 1.10480 0.96590 1.15460
 C908 C 1.09030 0.94494 1.16916
 C909 C 1.09882 0.93647 1.19423
 H910 H 1.11496 0.94668 1.20406
 O911 O 0.90679 1.02455 1.13544
 O912 O 0.87595 1.02418 1.16637
 C913 C 0.89736 1.03355 1.15694
 C914 C 0.91115 1.05560 1.17061
 C915 C 0.90031 1.06725 1.19347
 H916 H 0.88175 1.05992 1.20141
 O917 O 0.97336 1.13021 1.09932
 O918 O 0.97309 1.16096 1.13034
 C919 C 0.96347 1.15116 1.10923
 C920 C 0.94013 1.16370 1.09636
 C921 C 0.92741 1.18567 1.10799
 H922 H 0.93498 1.19420 1.12616
 O923 O 1.02956 0.86884 1.09537
 O924 O 1.03047 0.83723 1.12554
 C925 C 1.03936 0.84742 1.10431
 C926 C 1.06147 0.83439 1.09003
 C927 C 1.07151 0.80996 1.09886
 H928 H 1.06322 0.80065 1.11634
 O929 O 1.13342 0.90742 1.02179
 O930 O 1.16501 0.87713 1.02136
 C931 C 1.15550 0.89873 1.03019
 C932 C 1.16932 0.91280 1.05180
 C933 C 1.19544 0.90617 1.05849
 H934 H 1.20709 0.89549 1.04407
 O935 O 0.86773 1.09289 1.02828
 O936 O 0.83635 1.12337 1.02870
 C937 C 0.84614 1.10193 1.03759
 C938 C 0.83281 1.08790 1.05960
 C939 C 0.80831 1.09690 1.06928
 H940 H 0.79842 1.11352 1.05990
 Cu941 Cu 1.00261 0.88854 1.11067
 Cu942 Cu 1.00355 0.85051 1.14681
 Cu943 Cu 1.00085 1.11006 1.11308
 Cu944 Cu 1.00087 1.14700 1.15028
 Cu945 Cu 0.89181 0.88934 1.00053
 Cu946 Cu 0.85484 0.85210 1.00062
 Cu947 Cu 1.11206 0.89130 0.99684
 Cu948 Cu 1.14976 0.85470 0.99653
 Cu949 Cu 0.88873 1.10844 1.00251
 Cu950 Cu 0.85111 1.14510 1.00309
 Cu951 Cu 1.10892 1.11173 1.00071
 Cu952 Cu 1.14614 1.14871 1.00097
 Cu953 Cu 0.89196 0.99875 1.11411
 Cu954 Cu 0.85485 0.99805 1.15117
 Cu955 Cu 1.11138 0.99875 1.11061
 Cu956 Cu 1.14935 0.99859 1.14679
 C957 C 1.06915 0.93166 1.15689
 H958 H 1.06263 0.93798 1.13745
 C959 C 1.08765 0.91390 1.20614
 C960 C 0.93434 1.06647 1.15963
 H961 H 0.94206 1.05857 1.14125
 C962 C 0.91280 1.08899 1.20566
 C963 C 0.84533 1.06643 1.07220
 H964 H 0.86440 1.05962 1.06505
 C965 C 0.79652 1.08481 1.09131
 C966 C 1.15559 0.93096 1.06754
 H967 H 1.13589 0.93728 1.06172
 C968 C 1.20586 0.91224 1.08371
 C969 C 1.07311 0.84657 1.06784
 H970 H 1.06584 0.86567 1.06123
 C971 C 1.09221 0.79725 1.08529
 C972 C 0.92950 1.15278 1.07299
 H973 H 0.93875 1.13552 1.06417
 C974 C 0.90453 1.19650 1.09640
 C975 C 0.93334 0.92840 1.15713
 H976 H 0.94300 0.93853 1.14086
 C977 C 0.90688 0.90092 1.19755
 C978 C 1.07269 1.07008 1.15495
 H979 H 1.06379 1.06160 1.13737
 C980 C 1.09657 1.09281 1.19961
 C981 C 0.93534 0.84293 1.06745
 H982 H 0.94209 0.86222 1.06085
 C983 C 0.91694 0.79370 1.08538
 C984 C 1.06690 1.15702 1.06936
 H985 H 1.05867 1.13894 1.06123
 C986 C 1.08958 1.20250 1.09159
 C987 C 0.84815 0.92953 1.07152
 H988 H 0.86667 0.93732 1.06396
 C989 C 0.80075 0.90876 1.09168
 C990 C 1.15482 1.06777 1.06777
 H991 H 1.13702 1.05941 1.05917
 C992 C 1.19927 1.09092 1.09275
 O993 O 0.97695 0.40665 0.36557
 O994 O 0.97691 0.37577 0.33467
 C995 C 0.96784 0.39731 0.34405
 C996 C 0.94503 0.41043 0.33102
 C997 C 0.93483 0.40056 0.30716
 H998 H 0.94723 0.38752 0.29558
 O999 O 1.02587 0.59678 0.36813
 O1000 O 1.02517 0.62841 0.33796
 C1001 C 1.03508 0.60714 0.34712
 C1002 C 1.05819 0.59490 0.33381
 C1003 C 1.06999 0.60733 0.31188
 H1004 H 1.06167 0.62554 0.30405
 O1005 O 0.86836 0.47481 0.40515
 O1006 O 0.83684 0.47501 0.37488
 C1007 C 0.84653 0.46596 0.39629
 C1008 C 0.83317 0.44382 0.41019
 C1009 C 0.81051 0.43195 0.39918
 H1010 H 0.80173 0.43995 0.38129
 O1011 O 1.13366 0.52801 0.40374
 O1012 O 1.16478 0.52868 0.37308
 C1013 C 1.15527 0.53727 0.39474
 C1014 C 1.16891 0.55886 0.40920
 C1015 C 1.19362 0.56837 0.40059
 H1016 H 1.20344 0.55924 0.38383
 O1017 O 0.90718 0.36990 0.47400
 O1018 O 0.87695 0.33833 0.47385
 C1019 C 0.89822 0.34830 0.46471
 C1020 C 0.91230 0.33489 0.44268
 C1021 C 0.90379 0.30995 0.43377
 H1022 H 0.88740 0.30003 0.44348
 O1023 O 1.09483 0.63262 0.47420
 O1024 O 1.12517 0.66409 0.47397
 C1025 C 1.10365 0.65439 0.46515
 C1026 C 1.08901 0.66817 0.44373
 C1027 C 1.09755 0.69297 0.43435
 H1028 H 1.11443 0.70268 0.44341
 O1029 O 0.90568 0.52404 0.36665
 O1030 O 0.87461 0.52385 0.33592
 C1031 C 0.89632 0.53281 0.34501
 C1032 C 0.91006 0.55474 0.33116
 C1033 C 0.89933 0.56573 0.30795
 H1034 H 0.88176 0.55717 0.29904
 O1035 O 1.09729 0.47735 0.36626
 O1036 O 1.12807 0.47818 0.33525
 C1037 C 1.10672 0.46866 0.34463
 C1038 C 1.09354 0.44621 0.33113
 C1039 C 1.10507 0.43469 0.30860
 H1040 H 1.12257 0.44344 0.29975
 O1041 O 1.02856 0.36990 0.40173
 O1042 O 1.02849 0.33892 0.37094
 C1043 C 1.03770 0.34837 0.39234
 C1044 C 1.05969 0.33464 0.40618
 C1045 C 1.07127 0.31165 0.39544
 H1046 H 1.06393 0.30365 0.37694
 O1047 O 0.97193 0.63006 0.40434
 O1048 O 0.97102 0.66140 0.37390
 C1049 C 0.96187 0.65120 0.39500
 C1050 C 0.93863 0.66347 0.40813
 C1051 C 0.92562 0.68503 0.39620
 H1052 H 0.93315 0.69345 0.37794
 O1053 O 0.86687 0.59178 0.47721
 O1054 O 0.83551 0.62229 0.47766
 C1055 C 0.84514 0.60094 0.46837
 C1056 C 0.83238 0.58824 0.44524
 C1057 C 0.80976 0.59970 0.43388
 H1058 H 0.79813 0.61308 0.44586
 O1059 O 1.13374 0.40518 0.47089
 O1060 O 1.16446 0.37405 0.47050
 C1061 C 1.15475 0.39530 0.46107
 C1062 C 1.16728 0.40803 0.43773
 C1063 C 1.18767 0.39504 0.42382
 H1064 H 1.19515 0.37610 0.43071
 O1065 O 0.97415 0.59452 0.36738
 O1066 O 0.97347 0.62592 0.33698
 C1067 C 0.96505 0.60392 0.34589
 C1068 C 0.94363 0.58972 0.33176
 C1069 C 0.93264 0.60037 0.30854
 H1070 H 0.94075 0.61832 0.29996
 O1071 O 1.02865 0.40691 0.36636
 O1072 O 1.02875 0.37595 0.33554
 C1073 C 1.03793 0.39741 0.34502
 C1074 C 1.06026 0.41097 0.33168
 C1075 C 1.07244 0.39944 0.30952
 H1076 H 1.06494 0.38099 0.30147
 O1077 O 1.13352 0.47606 0.40216
 O1078 O 1.16429 0.47668 0.37113
 C1079 C 1.15469 0.46673 0.39216
 C1080 C 1.16743 0.44318 0.40426
 C1081 C 1.18800 0.43002 0.39089
 H1082 H 1.19565 0.43786 0.37242
 O1083 O 0.87013 0.52667 0.40317
 O1084 O 0.83903 0.52720 0.37246
 C1085 C 0.84917 0.53670 0.39345
 C1086 C 0.83657 0.55962 0.40675
 C1087 C 0.81700 0.57471 0.39380
 H1088 H 0.81302 0.57040 0.37325
 O1089 O 0.90241 0.62862 0.47538
 O1090 O 0.87100 0.65907 0.47560
 C1091 C 0.89225 0.64966 0.46590
 C1092 C 0.90462 0.66273 0.44270
 C1093 C 0.89194 0.68428 0.43037
 H1094 H 0.87366 0.69220 0.43841
 O1095 O 1.09711 0.36925 0.47251
 O1096 O 1.12789 0.33814 0.47240
 C1097 C 1.10617 0.34746 0.46369
 C1098 C 1.09218 0.33361 0.44202
 C1099 C 1.10220 0.30966 0.43206
 H1100 H 1.11837 0.29977 0.44218
 O1101 O 1.09744 0.52904 0.36730
 O1102 O 1.12844 0.53002 0.33653
 C1103 C 1.10686 0.53879 0.34610
 C1104 C 1.09313 0.56128 0.33311
 C1105 C 1.10428 0.57366 0.31083
 H1106 H 1.12222 0.56580 0.30199
 O1107 O 0.90369 0.47229 0.36843
 O1108 O 0.87224 0.47188 0.33808
 C1109 C 0.89356 0.46241 0.34763
 C1110 C 0.90690 0.43980 0.33450
 C1111 C 0.89494 0.42643 0.31317
 H1112 H 0.87485 0.43168 0.30794
 O1113 O 1.02392 0.63199 0.40512
 O1114 O 1.02293 0.66362 0.37496
 C1115 C 1.03237 0.65397 0.39621
 C1116 C 1.05407 0.66795 0.41013
 C1117 C 1.06317 0.69254 0.40082
 H1118 H 1.05382 0.70179 0.38384
 O1119 O 0.97672 0.37092 0.40260
 O1120 O 0.97659 0.33986 0.37189
 C1121 C 0.96760 0.34933 0.39344
 C1122 C 0.94602 0.33540 0.40777
 C1123 C 0.93705 0.31048 0.39913
 H1124 H 0.94613 0.30105 0.38212
 O1125 O 1.13237 0.59734 0.47401
 O1126 O 1.16287 0.62865 0.47412
 C1127 C 1.15386 0.60696 0.46507
 C1128 C 1.16813 0.59306 0.44352
 C1129 C 1.19283 0.60230 0.43459
 H1130 H 1.20201 0.61936 0.44388
 O1131 O 0.86977 0.40522 0.47508
 O1132 O 0.83950 0.37368 0.47472
 C1133 C 0.84837 0.39555 0.46596
 C1134 C 0.83424 0.40925 0.44419
 C1135 C 0.81146 0.39785 0.43299
 H1136 H 0.80323 0.37978 0.44119
 Cu1137 Cu 1.00270 0.39168 0.38714
 Cu1138 Cu 1.00259 0.35454 0.35014
 Cu1139 Cu 0.99902 0.61019 0.38931
 Cu1140 Cu 0.99803 0.64804 0.35295
 Cu1141 Cu 0.89009 0.49944 0.38890
 Cu1142 Cu 0.85248 0.49949 0.35231
 Cu1143 Cu 1.11241 0.50264 0.38799
 Cu1144 Cu 1.14953 0.50357 0.35093
 C1145 C 0.93147 0.43088 0.34393
 H1146 H 0.93982 0.43948 0.36172
 C1147 C 0.90869 0.40650 0.29901
 C1148 C 1.06988 0.57186 0.34424
 H1149 H 1.06131 0.56259 0.36159
 C1150 C 1.09323 0.59707 0.30059
 C1151 C 0.84475 0.43244 0.43286
 H1152 H 0.86266 0.44100 0.44104
 C1153 C 0.79992 0.40878 0.41023
 C1154 C 1.15649 0.57115 0.43089
 H1155 H 1.13726 0.56418 0.43741
 C1156 C 1.20575 0.58986 0.41337
 C1157 C 0.93363 0.34736 0.42973
 H1158 H 0.94015 0.36672 0.43633
 C1159 C 0.91620 0.29759 0.41224
 C1160 C 1.06699 0.65601 0.43172
 H1161 H 1.06041 0.63678 0.43866
 C1162 C 1.08455 0.70533 0.41309
 C1163 C 0.93243 0.56669 0.34271
 H1164 H 0.94043 0.55873 0.36097
 C1165 C 0.91035 0.58867 0.29683
 C1166 C 1.07091 0.43441 0.34231
 H1167 H 1.06211 0.44298 0.35989
 C1168 C 1.09504 0.41096 0.29821
 C1169 C 1.07051 0.34560 0.42935
 H1170 H 1.06262 0.36404 0.43705
 C1171 C 1.09290 0.29932 0.40802
 C1172 C 0.92805 0.65252 0.43147
 H1173 H 0.93767 0.63558 0.44053
 C1174 C 0.90217 0.69519 0.40699
 C1175 C 0.84497 0.56734 0.43204
 H1176 H 0.86175 0.55752 0.44119
 C1177 C 0.80318 0.59517 0.40711
 C1178 C 1.15736 0.43216 0.42779
 H1179 H 1.14119 0.44197 0.43796
 C1180 C 1.19786 0.40586 0.40036
 O1181 O 1.02852 0.40405 0.63211
 O1182 O 1.02930 0.37263 0.66247
 C1183 C 1.03788 0.39452 0.65343
 C1184 C 1.05947 0.40874 0.66730
 C1185 C 1.06889 0.39982 0.69191
 H1186 H 1.05984 0.38282 0.70143
 O1187 O 0.97530 0.59494 0.63323
 O1188 O 0.97521 0.62604 0.66390
 C1189 C 0.96614 0.60446 0.65465
 C1190 C 0.94395 0.59091 0.66829
 C1191 C 0.93181 0.60267 0.69039
 H1192 H 0.93941 0.62110 0.69840
 O1193 O 0.86985 0.52376 0.59916
 O1194 O 0.83918 0.52326 0.63029
 C1195 C 0.84840 0.53272 0.60889
 C1196 C 0.83474 0.55516 0.59581
 C1197 C 0.81255 0.56706 0.60772
 H1198 H 0.80449 0.55913 0.62597
 O1199 O 1.13364 0.47413 0.59462
 O1200 O 1.16474 0.47400 0.62531
 C1201 C 1.15516 0.46489 0.60389
 C1202 C 1.16857 0.44258 0.59026
 C1203 C 1.19038 0.42995 0.60213
 H1204 H 1.19826 0.43718 0.62074
 O1205 O 1.09833 0.36966 0.52390
 O1206 O 1.12916 0.33861 0.52360
 C1207 C 1.10772 0.34805 0.53285
 C1208 C 1.09391 0.33405 0.55459
 C1209 C 1.10307 0.30926 0.56341
 H1210 H 1.11990 0.29991 0.55388
 O1211 O 0.90402 0.62950 0.52725
 O1212 O 0.87291 0.66025 0.52740
 C1213 C 0.89470 0.65112 0.53618
 C1214 C 0.90888 0.66526 0.55762
 C1215 C 0.89951 0.68974 0.56703
 H1216 H 0.88241 0.69904 0.55791
 O1217 O 0.90711 0.47217 0.63471
 O1218 O 0.87634 0.47154 0.66572
 C1219 C 0.89781 0.46264 0.65606
 C1220 C 0.91123 0.43992 0.66886
 C1221 C 0.89939 0.42713 0.69052
 H1222 H 0.88161 0.43527 0.69940
 O1223 O 1.09755 0.52581 0.63136
 O1224 O 1.12886 0.52600 0.66185
 C1225 C 1.10726 0.53512 0.65262
 C1226 C 1.09390 0.55751 0.66613
 C1227 C 1.10530 0.56910 0.68870
 H1228 H 1.12336 0.56101 0.69708
 O1229 O 0.97727 0.36776 0.59539
 O1230 O 0.97807 0.33603 0.62545
 C1231 C 0.96858 0.34588 0.60431
 C1232 C 0.94660 0.33229 0.59044
 C1233 C 0.93635 0.30836 0.60027
 H1234 H 0.94503 0.29923 0.61767
 O1235 O 1.02629 0.63185 0.59637
 O1236 O 1.02612 0.66299 0.62702
 C1237 C 1.03510 0.65363 0.60547
 C1238 C 1.05649 0.66779 0.59123
 C1239 C 1.06558 0.69254 0.60021
 H1240 H 1.05641 0.70192 0.61720
 O1241 O 0.87051 0.40435 0.52681
 O1242 O 0.83999 0.37306 0.52642
 C1243 C 0.84918 0.39452 0.53588
 C1244 C 0.83547 0.40774 0.55823
 C1245 C 0.81118 0.39802 0.56778
 H1246 H 0.80164 0.38147 0.55798
 O1247 O 1.13186 0.59678 0.52571
 O1248 O 1.16212 0.62833 0.52593
 C1249 C 1.15305 0.60664 0.53503
 C1250 C 1.16670 0.59326 0.55733
 C1251 C 1.18893 0.60502 0.56926
 H1252 H 1.19689 0.62343 0.56155
 O1253 O 1.02721 0.59519 0.63224
 O1254 O 1.02728 0.62625 0.66294
 C1255 C 1.03663 0.60486 0.65344
 C1256 C 1.05936 0.59165 0.66653
 C1257 C 1.07110 0.60291 0.68909
 H1258 H 1.06284 0.62071 0.69784
 O1259 O 0.97674 0.40283 0.63253
 O1260 O 0.97739 0.37112 0.66261
 C1261 C 0.96769 0.39257 0.65365
 C1262 C 0.94496 0.40515 0.66728
 C1263 C 0.93228 0.39217 0.68839
 H1264 H 0.93969 0.37326 0.69542
 O1265 O 1.13335 0.52606 0.59482
 O1266 O 1.16466 0.52603 0.62531
 C1267 C 1.15480 0.53540 0.60411
 C1268 C 1.16769 0.55824 0.59091
 C1269 C 1.19002 0.57024 0.60238
 H1270 H 1.19891 0.56190 0.62006
 O1271 O 0.87083 0.47197 0.59851
 O1272 O 0.83999 0.47141 0.62945
 C1273 C 0.84945 0.46255 0.60787
 C1274 C 0.83585 0.44069 0.59375
 C1275 C 0.81190 0.43026 0.60338
 H1276 H 0.80307 0.43832 0.62120
 O1277 O 1.09556 0.63297 0.52585
 O1278 O 1.12577 0.66458 0.52560
 C1279 C 1.10452 0.65473 0.53483
 C1280 C 1.09048 0.66830 0.55671
 C1281 C 1.09934 0.69298 0.56606
 H1282 H 1.11605 0.70274 0.55673
 O1283 O 0.90715 0.36834 0.52580
 O1284 O 0.87667 0.33700 0.52554
 C1285 C 0.89812 0.34653 0.53464
 C1286 C 0.91218 0.33260 0.55632
 C1287 C 0.90235 0.30855 0.56637
 H1288 H 0.88501 0.29944 0.55755
 O1289 O 1.09792 0.47399 0.63158
 O1290 O 1.12898 0.47420 0.66232
 C1291 C 1.10741 0.46503 0.65311
 C1292 C 1.09356 0.44324 0.66711
 C1293 C 1.10274 0.43399 0.69171
 H1294 H 1.11963 0.44333 0.70113
 O1295 O 0.90676 0.52400 0.63456
 O1296 O 0.87611 0.52352 0.66569
 C1297 C 0.89731 0.53309 0.65601
 C1298 C 0.91036 0.55590 0.66905
 C1299 C 0.89859 0.56797 0.69117
 H1300 H 0.88063 0.55982 0.69968
 O1301 O 0.97461 0.63066 0.59644
 O1302 O 0.97448 0.66184 0.62704
 C1303 C 0.96535 0.65217 0.60567
 C1304 C 0.94332 0.66568 0.59173
 C1305 C 0.93360 0.69010 0.60089
 H1306 H 0.94263 0.69961 0.61788
 O1307 O 1.02895 0.36851 0.59504
 O1308 O 1.02978 0.33690 0.62522
 C1309 C 1.03840 0.34686 0.60379
 C1310 C 1.06003 0.33344 0.58921
 C1311 C 1.06950 0.30867 0.59770
 H1312 H 1.06064 0.29895 0.61467
 O1313 O 1.13446 0.40604 0.52309
 O1314 O 1.16528 0.37501 0.52281
 C1315 C 1.15586 0.39640 0.53222
 C1316 C 1.16909 0.40929 0.55501
 C1317 C 1.19093 0.39704 0.56719
 H1318 H 1.19926 0.37902 0.55899
 O1319 O 0.86804 0.59293 0.52892
 O1320 O 0.83692 0.62368 0.52933
 C1321 C 0.84680 0.60242 0.53856
 C1322 C 0.83404 0.58927 0.56141
 C1323 C 0.81185 0.60083 0.57358
 H1324 H 0.80314 0.61875 0.56552
 Cu1325 Cu 1.00286 0.38899 0.61078
 Cu1326 Cu 1.00382 0.35100 0.64700
 Cu1327 Cu 1.00087 0.61002 0.61154
 Cu1328 Cu 1.00076 0.64733 0.64838
 Cu1329 Cu 0.89169 0.39010 0.50046
 Cu1330 Cu 0.85524 0.35237 0.50006
 Cu1331 Cu 1.11295 0.39078 0.49761
 Cu1332 Cu 1.14995 0.35349 0.49731
 Cu1333 Cu 0.88848 0.60764 0.50222
 Cu1334 Cu 0.85094 0.64438 0.50258
 Cu1335 Cu 1.11063 0.61177 0.49988
 Cu1336 Cu 1.14707 0.64954 0.49982
 Cu1337 Cu 0.89172 0.49800 0.61363
 Cu1338 Cu 0.85486 0.49733 0.65095
 Cu1339 Cu 1.11250 0.49992 0.61002
 Cu1340 Cu 1.14999 0.50001 0.64671
 C1341 C 1.07174 0.43066 0.65524
 H1342 H 1.06481 0.43743 0.63609
 C1343 C 1.09032 0.41251 0.70426
 C1344 C 0.93320 0.56738 0.65790
 H1345 H 0.94207 0.55852 0.64049
 C1346 C 0.90901 0.59147 0.70159
 C1347 C 0.84522 0.56629 0.57254
 H1348 H 0.86266 0.55756 0.56354
 C1349 C 0.80136 0.59007 0.59689
 C1350 C 1.15819 0.43222 0.56657
 H1351 H 1.14095 0.44144 0.55765
 C1352 C 1.20127 0.40701 0.59091
 C1353 C 1.07219 0.34587 0.56745
 H1354 H 1.06523 0.36514 0.56099
 C1355 C 1.09081 0.29645 0.58475
 C1356 C 0.93099 0.65355 0.56991
 H1357 H 0.93810 0.63450 0.56300
 C1358 C 0.91194 0.70231 0.58845
 C1359 C 0.93427 0.42902 0.65765
 H1360 H 0.94335 0.43863 0.64075
 C1361 C 0.90921 0.40279 0.69972
 C1362 C 1.07079 0.56880 0.65533
 H1363 H 1.06217 0.56028 0.63763
 C1364 C 1.09418 0.59190 0.69998
 C1365 C 0.93453 0.34413 0.56829
 H1366 H 0.94200 0.36286 0.56089
 C1367 C 0.91442 0.29631 0.58819
 C1368 C 1.06888 0.65598 0.56928
 H1369 H 1.06221 0.63676 0.56244
 C1370 C 1.08684 0.70522 0.58760
 C1371 C 0.84739 0.42936 0.57110
 H1372 H 0.86616 0.43691 0.56391
 C1373 C 0.79916 0.40933 0.59018
 C1374 C 1.15631 0.56976 0.56822
 H1375 H 1.13878 0.56091 0.55954
 C1376 C 1.20033 0.59383 0.59196
 O1377 O 0.47631 0.91036 0.36532
 O1378 O 0.47605 0.87987 0.33403
 C1379 C 0.46791 0.90187 0.34319
 C1380 C 0.44704 0.91665 0.32885
 C1381 C 0.43990 0.90939 0.30309
 H1382 H 0.45380 0.89769 0.29178
 O1383 O 0.52328 1.09724 0.36839
 O1384 O 0.52280 1.12872 0.33808
 C1385 C 0.53227 1.10717 0.34708
 C1386 C 0.55470 1.09415 0.33327
 C1387 C 0.56513 1.10518 0.30993
 H1388 H 0.55610 1.12261 0.30119
 O1389 O 0.36839 0.97262 0.40332
 O1390 O 0.33690 0.97203 0.37302
 C1391 C 0.34726 0.96266 0.39396
 C1392 C 0.33454 0.94025 0.40794
 C1393 C 0.31164 0.92805 0.39778
 H1394 H 0.30528 0.93359 0.37815
 O1395 O 0.63275 1.02883 0.40265
 O1396 O 0.66358 1.02969 0.37171
 C1397 C 0.65423 1.03819 0.39345
 C1398 C 0.66803 1.05963 0.40792
 C1399 C 0.69296 1.06877 0.39955
 H1400 H 0.70274 1.05962 0.38277
 O1401 O 0.40548 0.87092 0.47453
 O1402 O 0.37513 0.83947 0.47425
 C1403 C 0.39631 0.84951 0.46497
 C1404 C 0.40998 0.83658 0.44236
 C1405 C 0.40159 0.81162 0.43327
 H1406 H 0.38588 0.80121 0.44356
 O1407 O 0.59466 1.13215 0.47457
 O1408 O 0.62509 1.16353 0.47438
 C1409 C 0.60360 1.15384 0.46547
 C1410 C 0.58948 1.16742 0.44360
 C1411 C 0.60030 1.19041 0.43227
 H1412 H 0.61836 1.19894 0.44018
 O1413 O 0.40143 1.02759 0.36911
 O1414 O 0.36971 1.02779 0.33905
 C1415 C 0.39084 1.03763 0.34863
 C1416 C 0.40266 1.06165 0.33657
 C1417 C 0.38828 1.07647 0.31791
 H1418 H 0.36874 1.06991 0.31188
 O1419 O 0.59691 0.97737 0.36581
 O1420 O 0.62754 0.97823 0.33466
 C1421 C 0.60643 0.96847 0.34429
 C1422 C 0.59361 0.94556 0.33128
 C1423 C 0.60578 0.93295 0.30965
 H1424 H 0.62366 0.94115 0.30103
 O1425 O 0.52604 0.87171 0.40220
 O1426 O 0.52529 0.84101 0.37113
 C1427 C 0.53493 0.85026 0.39245
 C1428 C 0.55782 0.83682 0.40504
 C1429 C 0.57029 0.81549 0.39220
 H1430 H 0.56217 0.80758 0.37398
 O1431 O 0.47096 1.13226 0.40538
 O1432 O 0.47058 1.16381 0.37512
 C1433 C 0.46121 1.15359 0.39613
 C1434 C 0.43777 1.16575 0.40902
 C1435 C 0.42425 1.18675 0.39664
 H1436 H 0.43173 1.19513 0.37834
 O1437 O 0.36576 1.09222 0.47731
 O1438 O 0.33407 1.12235 0.47811
 C1439 C 0.34357 1.10083 0.46906
 C1440 C 0.32917 1.08620 0.44804
 C1441 C 0.30365 1.09413 0.44019
 H1442 H 0.29374 1.11009 0.45060
 O1443 O 0.63317 0.90653 0.47113
 O1444 O 0.66423 0.87572 0.47060
 C1445 C 0.65457 0.89719 0.46165
 C1446 C 0.66776 0.91080 0.43923
 C1447 C 0.69034 0.89963 0.42739
 H1448 H 0.69901 0.88166 0.43540
 O1449 O 0.47123 1.09700 0.36859
 O1450 O 0.47076 1.12866 0.33844
 C1451 C 0.46148 1.10715 0.34771
 C1452 C 0.43783 1.09496 0.33529
 C1453 C 0.42375 1.10874 0.31559
 H1454 H 0.43184 1.12682 0.30730
 O1455 O 0.52767 0.90790 0.36644
 O1456 O 0.52720 0.87702 0.33551
 C1457 C 0.53697 0.89809 0.34521
 C1458 C 0.55994 0.91077 0.33219
 C1459 C 0.57267 0.89818 0.31094
 H1460 H 0.56516 0.87951 0.30344
 O1461 O 0.63268 0.97710 0.40216
 O1462 O 0.66336 0.97781 0.37105
 C1463 C 0.65404 0.96810 0.39235
 C1464 C 0.66752 0.94542 0.40527
 C1465 C 0.69006 0.93384 0.39367
 H1466 H 0.69839 0.94208 0.37569
 O1467 O 0.36589 1.02413 0.40563
 O1468 O 0.33402 1.02381 0.37573
 C1469 C 0.34366 1.03252 0.39730
 C1470 C 0.32939 1.05317 0.41257
 C1471 C 0.30425 1.06200 0.40450
 H1472 H 0.29501 1.05353 0.38708
 O1473 O 0.40110 1.12966 0.47525
 O1474 O 0.36944 1.15982 0.47570
 C1475 C 0.39078 1.15070 0.46596
 C1476 C 0.40313 1.16411 0.44293
 C1477 C 0.38994 1.18511 0.43019
 H1478 H 0.37120 1.19238 0.43777
 O1479 O 0.59678 0.87057 0.47096
 O1480 O 0.62788 0.83981 0.47012
 C1481 C 0.60637 0.84944 0.46117
 C1482 C 0.59304 0.83668 0.43838
 C1483 C 0.60530 0.81551 0.42507
 H1484 H 0.62396 0.80753 0.43215
 O1485 O 0.59539 1.02914 0.36738
 O1486 O 0.62603 1.03021 0.33626
 C1487 C 0.60442 1.03882 0.34601
 C1488 C 0.59010 1.06087 0.33287
 C1489 C 0.60020 1.07227 0.30962
 H1490 H 0.61802 1.06438 0.30056
 O1491 O 0.40316 0.97578 0.36638
 O1492 O 0.37193 0.97543 0.33583
 C1493 C 0.39382 0.96679 0.34483
 C1494 C 0.40874 0.94586 0.33063
 C1495 C 0.39929 0.93456 0.30691
 H1496 H 0.37989 0.94035 0.29992
 O1497 O 0.52306 1.13279 0.40551
 O1498 O 0.52268 1.16430 0.37523
 C1499 C 0.53207 1.15449 0.39643
 C1500 C 0.55451 1.16784 0.40993
 C1501 C 0.56573 1.19086 0.39896
 H1502 H 0.55732 1.19968 0.38128
 O1503 O 0.47388 0.87345 0.40175
 O1504 O 0.47316 0.84285 0.37062
 C1505 C 0.46424 0.85223 0.39221
 C1506 C 0.44248 0.83830 0.40635
 C1507 C 0.43313 0.81372 0.39713
 H1508 H 0.44148 0.80505 0.37937
 O1509 O 0.63236 1.09722 0.47362
 O1510 O 0.66285 1.12856 0.47362
 C1511 C 0.65373 1.10696 0.46450
 C1512 C 0.66775 1.09331 0.44269
 C1513 C 0.69267 1.10219 0.43405
 H1514 H 0.70219 1.11884 0.44372
 O1515 O 0.36835 0.90655 0.47657
 O1516 O 0.33780 0.87525 0.47623
 C1517 C 0.34665 0.89726 0.46779
 C1518 C 0.33261 0.91109 0.44612
 C1519 C 0.30728 0.90288 0.43820
 H1520 H 0.29590 0.89112 0.45195
 Cu1521 Cu 0.50082 0.89386 0.38714
 Cu1522 Cu 0.50005 0.85699 0.34980
 Cu1523 Cu 0.49727 1.11167 0.38999
 Cu1524 Cu 0.49681 1.14954 0.35370
 Cu1525 Cu 0.38793 1.00002 0.38905
 Cu1526 Cu 0.35002 0.99980 0.35276
 Cu1527 Cu 0.61135 1.00311 0.38759
 Cu1528 Cu 0.64819 1.00422 0.35026
 C1529 C 0.43208 0.93586 0.34195
 H1530 H 0.43820 0.94240 0.36144
 C1531 C 0.41468 0.91577 0.29277
 C1532 C 0.56719 1.07183 0.34445
 H1533 H 0.55957 1.06349 0.36269
 C1534 C 0.58795 1.09448 0.29829
 C1535 C 0.34555 0.93073 0.43154
 H1536 H 0.36449 0.93825 0.43832
 C1537 C 0.29727 0.90922 0.41284
 C1538 C 0.65573 1.07185 0.42969
 H1539 H 0.63636 1.06512 0.43605
 C1540 C 0.70545 1.08980 0.41272
 C1541 C 0.43077 0.84956 0.42901
 H1542 H 0.43745 0.86875 0.43594
 C1543 C 0.41322 0.79993 0.41086
 C1544 C 0.56641 1.15637 0.43243
 H1545 H 0.55827 1.13830 0.44067
 C1546 C 0.58873 1.20189 0.40985
 C1547 C 0.42732 1.07120 0.34534
 H1548 H 0.43800 1.06052 0.36060
 C1549 C 0.39847 1.10025 0.30760
 C1550 C 0.57051 0.93447 0.34219
 H1551 H 0.56117 0.94389 0.35906
 C1552 C 0.59575 0.90893 0.29986
 C1553 C 0.56920 0.84711 0.42829
 H1554 H 0.56001 0.86391 0.43800
 C1555 C 0.59413 0.80512 0.40192
 C1556 C 0.42712 1.15467 0.43228
 H1557 H 0.43711 1.13812 0.44164
 C1558 C 0.40023 1.19618 0.40691
 C1559 C 0.34162 1.06530 0.43446
 H1560 H 0.36135 1.05916 0.44032
 C1561 C 0.29099 1.08206 0.41854
 C1562 C 0.65667 0.93387 0.42819
 H1563 H 0.63899 0.94235 0.43696
 C1564 C 0.70155 0.91107 0.40474
 O1565 O 0.52919 0.90404 0.63117
 O1566 O 0.53010 0.87266 0.66158
 C1567 C 0.53868 0.89450 0.65242
 C1568 C 0.56028 0.90874 0.66625
 C1569 C 0.56956 0.89994 0.69096
 H1570 H 0.56059 0.88285 0.70040
 O1571 O 0.47545 1.09423 0.63334
 O1572 O 0.47551 1.12509 0.66425
 C1573 C 0.46662 1.10343 0.65503
 C1574 C 0.44507 1.08940 0.66915
 C1575 C 0.43448 1.09996 0.69259
 H1576 H 0.44287 1.11775 0.70122
 O1577 O 0.36963 1.02419 0.59948
 O1578 O 0.33935 1.02386 0.63098
 C1579 C 0.34844 1.03336 0.60952
 C1580 C 0.33487 1.05600 0.59667
 C1581 C 0.31285 1.06799 0.60880
 H1582 H 0.30487 1.06003 0.62707
 O1583 O 0.63376 0.97499 0.59391
 O1584 O 0.66513 0.97466 0.62433
 C1585 C 0.65547 0.96585 0.60282
 C1586 C 0.66917 0.94428 0.58836
 C1587 C 0.69366 0.93453 0.59732
 H1588 H 0.70314 0.94326 0.61448
 O1589 O 0.59742 0.86942 0.52278
 O1590 O 0.62834 0.83849 0.52200
 C1591 C 0.60691 0.84774 0.53146
 C1592 C 0.59336 0.83363 0.55335
 C1593 C 0.60319 0.80928 0.56271
 H1594 H 0.62020 0.80012 0.55332
 O1595 O 0.40329 1.12995 0.52720
 O1596 O 0.37188 1.16039 0.52776
 C1597 C 0.39365 1.15123 0.53661
 C1598 C 0.40702 1.16453 0.55915
 C1599 C 0.39492 1.18624 0.57174
 H1600 H 0.37687 1.19471 0.56372
 O1601 O 0.40671 0.97197 0.63420
 O1602 O 0.37631 0.97128 0.66558
 C1603 C 0.39773 0.96245 0.65568
 C1604 C 0.41189 0.94033 0.66877
 C1605 C 0.40195 0.92917 0.69219
 H1606 H 0.38437 0.93734 0.70145
 O1607 O 0.59780 1.02620 0.63109
 O1608 O 0.62920 1.02627 0.66149
 C1609 C 0.60753 1.03538 0.65238
 C1610 C 0.59403 1.05754 0.66606
 C1611 C 0.60531 1.06902 0.68873
 H1612 H 0.62338 1.06095 0.69712
 O1613 O 0.47707 0.86813 0.59518
 O1614 O 0.47783 0.83666 0.62551
 C1615 C 0.46814 0.84649 0.60444
 C1616 C 0.44551 0.83328 0.59123
 C1617 C 0.43385 0.81070 0.60260
 H1618 H 0.44211 0.80206 0.62044
 O1619 O 0.52612 1.13143 0.59628
 O1620 O 0.52594 1.16233 0.62715
 C1621 C 0.53522 1.15292 0.60576
 C1622 C 0.55775 1.16635 0.59256
 C1623 C 0.56988 1.18840 0.60450
 H1624 H 0.56196 1.19657 0.62269
 O1625 O 0.36925 0.90484 0.52791
 O1626 O 0.33854 0.87370 0.52743
 C1627 C 0.34778 0.89515 0.53684
 C1628 C 0.33382 0.90874 0.55873
 C1629 C 0.30851 0.90050 0.56683
 H1630 H 0.29855 0.88460 0.55639
 O1631 O 0.63280 1.09616 0.52519
 O1632 O 0.66333 1.12746 0.52506
 C1633 C 0.65442 1.10564 0.53395
 C1634 C 0.66878 1.09156 0.55532
 C1635 C 0.69365 1.10052 0.56409
 H1636 H 0.70316 1.11705 0.55421
 O1637 O 0.52716 1.09499 0.63224
 O1638 O 0.52716 1.12592 0.66309
 C1639 C 0.53654 1.10459 0.65352
 C1640 C 0.55927 1.09141 0.66664
 C1641 C 0.57085 1.10256 0.68934
 H1642 H 0.56252 1.12030 0.69814
 O1643 O 0.47748 0.90329 0.63234
 O1644 O 0.47838 0.87185 0.66270
 C1645 C 0.46883 0.89340 0.65381
 C1646 C 0.44676 0.90660 0.66798
 C1647 C 0.43654 0.89575 0.69149
 H1648 H 0.44545 0.87820 0.70013
 O1649 O 0.63393 1.02672 0.59493
 O1650 O 0.66543 1.02647 0.62522
 C1651 C 0.65558 1.03581 0.60402
 C1652 C 0.66906 1.05779 0.59003
 C1653 C 0.69346 1.06763 0.59912
 H1654 H 0.70262 1.05911 0.61657
 O1655 O 0.36949 0.97243 0.59897
 O1656 O 0.33889 0.97195 0.63015
 C1657 C 0.34804 0.96322 0.60841
 C1658 C 0.33404 0.94184 0.59403
 C1659 C 0.30898 0.93294 0.60228
 H1660 H 0.29952 0.94180 0.61939
 O1661 O 0.59607 1.13205 0.52637
 O1662 O 0.62654 1.16340 0.52627
 C1663 C 0.60540 1.15350 0.53569
 C1664 C 0.59216 1.16649 0.55842
 C1665 C 0.60393 1.18854 0.57067
 H1666 H 0.62206 1.19694 0.56279
 O1667 O 0.40610 0.86917 0.52652
 O1668 O 0.37547 0.83798 0.52629
 C1669 C 0.39692 0.84748 0.53545
 C1670 C 0.41067 0.83379 0.55748
 C1671 C 0.39933 0.81123 0.56922
 H1672 H 0.38112 0.80292 0.56141
 O1673 O 0.59834 0.97448 0.63105
 O1674 O 0.62952 0.97440 0.66167
 C1675 C 0.60791 0.96534 0.65246
 C1676 C 0.59407 0.94350 0.66633
 C1677 C 0.60298 0.93450 0.69110
 H1678 H 0.61961 0.94411 0.70071
 O1679 O 0.40645 1.02365 0.63492
 O1680 O 0.37624 1.02313 0.66649
 C1681 C 0.39745 1.03251 0.65666
 C1682 C 0.41121 1.05471 0.66999
 C1683 C 0.40085 1.06566 0.69336
 H1684 H 0.38335 1.05717 0.70247
 O1685 O 0.47400 1.13012 0.59664
 O1686 O 0.47382 1.16092 0.62760
 C1687 C 0.46436 1.15125 0.60637
 C1688 C 0.44122 1.16411 0.59357
 C1689 C 0.42840 1.18538 0.60613
 H1690 H 0.43598 1.19302 0.62470
 O1691 O 0.52885 0.86831 0.59426
 O1692 O 0.52971 0.83677 0.62450
 C1693 C 0.53825 0.84663 0.60298
 C1694 C 0.55982 0.83314 0.58834
 C1695 C 0.56994 0.80882 0.59735
 H1696 H 0.56149 0.79937 0.61469
 O1697 O 0.63336 0.90617 0.52291
 O1698 O 0.66439 0.87535 0.52235
 C1699 C 0.65499 0.89676 0.53173
 C1700 C 0.66891 0.91046 0.55362
 C1701 C 0.69337 0.90097 0.56296
 H1702 H 0.70270 0.88401 0.55363
 O1703 O 0.36736 1.09360 0.52904
 O1704 O 0.33601 1.12412 0.52966
 C1705 C 0.34617 1.10301 0.53892
 C1706 C 0.33380 1.09000 0.56211
 C1707 C 0.31181 1.10166 0.57458
 H1708 H 0.30307 1.11962 0.56662
 Cu1709 Cu 0.50312 0.88910 0.61020
 Cu1710 Cu 0.50418 0.85128 0.64658
 Cu1711 Cu 0.50067 1.10964 0.61147
 Cu1712 Cu 0.50056 1.14674 0.64854
 Cu1713 Cu 0.39042 0.89094 0.50141
 Cu1714 Cu 0.35379 0.85333 0.50094
 Cu1715 Cu 0.61207 0.89125 0.49708
 Cu1716 Cu 0.64930 0.85422 0.49629
 Cu1717 Cu 0.38756 1.10836 0.50204
 Cu1718 Cu 0.34977 1.14478 0.50275
 Cu1719 Cu 0.61091 1.11126 0.49995
 Cu1720 Cu 0.64741 1.14899 0.49981
 Cu1721 Cu 0.39109 0.99805 0.61373
 Cu1722 Cu 0.35465 0.99744 0.65148
 Cu1723 Cu 0.61282 1.00057 0.60970
 Cu1724 Cu 0.65047 1.00036 0.64626
 C1725 C 0.57250 0.93069 0.65424
 H1726 H 0.56571 0.93735 0.63500
 C1727 C 0.59064 0.91295 0.70359
 C1728 C 0.43348 1.06658 0.65816
 H1729 H 0.44123 1.05863 0.63981
 C1730 C 0.41220 1.08841 0.70446
 C1731 C 0.34510 1.06705 0.57321
 H1732 H 0.36237 1.05823 0.56400
 C1733 C 0.30154 1.09095 0.59799
 C1734 C 0.65710 0.93230 0.56630
 H1735 H 0.63803 0.93948 0.55948
 C1736 C 0.70586 0.91304 0.58461
 C1737 C 0.57148 0.84525 0.56612
 H1738 H 0.56406 0.86422 0.55930
 C1739 C 0.59143 0.79674 0.58453
 C1740 C 0.43038 1.15380 0.57006
 H1741 H 0.43964 1.13681 0.56074
 C1742 C 0.40506 1.19621 0.59561
 C1743 C 0.43446 0.92906 0.65693
 H1744 H 0.44194 0.93726 0.63858
 C1745 C 0.41404 0.90683 0.70343
 C1746 C 0.57087 1.06874 0.65529
 H1747 H 0.56235 1.06032 0.63750
 C1748 C 0.59396 1.09162 0.70019
 C1749 C 0.43391 0.84454 0.56851
 H1750 H 0.44245 0.86228 0.55995
 C1751 C 0.41065 0.79991 0.59189
 C1752 C 0.56894 1.15565 0.56939
 H1753 H 0.56008 1.13829 0.56040
 C1754 C 0.59314 1.19922 0.59388
 C1755 C 0.34621 0.92968 0.57218
 H1756 H 0.36575 0.93609 0.56602
 C1757 C 0.29582 0.91272 0.58836
 C1758 C 0.65694 1.06985 0.56808
 H1759 H 0.63778 1.06283 0.56140
 C1760 C 0.70624 1.08852 0.58585
 O1761 O 0.47379 0.40452 0.86768
 O1762 O 0.47374 0.37360 0.83683
 C1763 C 0.46435 0.39490 0.84644
 C1764 C 0.44163 0.40812 0.83336
 C1765 C 0.42884 0.39609 0.81177
 H1766 H 0.43597 0.37727 0.80427
 O1767 O 0.52447 0.59740 0.86909
 O1768 O 0.52373 0.62875 0.83863
 C1769 C 0.53329 0.60726 0.84770
 C1770 C 0.55567 0.59422 0.83390
 C1771 C 0.56721 0.60610 0.81155
 H1772 H 0.55900 0.62423 0.80344
 O1773 O 0.36935 0.47304 0.90532
 O1774 O 0.33795 0.47305 0.87494
 C1775 C 0.34796 0.46359 0.89603
 C1776 C 0.33512 0.44076 0.90933
 C1777 C 0.31223 0.42924 0.89847
 H1778 H 0.30321 0.43756 0.88085
 O1779 O 0.63070 0.52765 0.90371
 O1780 O 0.66155 0.52822 0.87278
 C1781 C 0.65214 0.53700 0.89440
 C1782 C 0.66579 0.55888 0.90841
 C1783 C 0.68962 0.56932 0.89849
 H1784 H 0.69872 0.56074 0.88105
 O1785 O 0.40749 0.36678 0.97584
 O1786 O 0.37661 0.33582 0.97608
 C1787 C 0.39813 0.34520 0.96692
 C1788 C 0.41156 0.33170 0.94465
 C1789 C 0.40081 0.30841 0.93394
 H1790 H 0.38419 0.29881 0.94357
 O1791 O 0.59486 0.63312 0.97479
 O1792 O 0.62571 0.66411 0.97480
 C1793 C 0.60426 0.65463 0.96564
 C1794 C 0.59067 0.66815 0.94344
 C1795 C 0.60168 0.69103 0.93203
 H1796 H 0.61959 0.69967 0.94016
 O1797 O 0.40401 0.52614 0.86944
 O1798 O 0.37278 0.52615 0.83887
 C1799 C 0.39429 0.53540 0.84816
 C1800 C 0.40780 0.55759 0.83454
 C1801 C 0.39824 0.56725 0.81026
 H1802 H 0.38132 0.55795 0.80085
 O1803 O 0.59462 0.47599 0.86707
 O1804 O 0.62541 0.47655 0.83608
 C1805 C 0.60412 0.46700 0.84558
 C1806 C 0.59100 0.44440 0.83221
 C1807 C 0.60274 0.43260 0.80993
 H1808 H 0.62072 0.44083 0.80153
 O1809 O 0.52667 0.36908 0.90328
 O1810 O 0.52668 0.33815 0.87243
 C1811 C 0.53608 0.34777 0.89369
 C1812 C 0.55892 0.33471 0.90673
 C1813 C 0.57082 0.31235 0.89515
 H1814 H 0.56260 0.30377 0.87728
 O1815 O 0.47308 0.63269 0.90670
 O1816 O 0.47226 0.66415 0.87636
 C1817 C 0.46376 0.65439 0.89795
 C1818 C 0.44242 0.66803 0.91274
 C1819 C 0.43318 0.69297 0.90454
 H1820 H 0.44207 0.70275 0.88762
 O1821 O 0.36821 0.59453 0.97633
 O1822 O 0.33716 0.62532 0.97661
 C1823 C 0.34679 0.60408 0.96712
 C1824 C 0.33347 0.59090 0.94454
 C1825 C 0.31112 0.60258 0.93269
 H1826 H 0.30306 0.62089 0.94054
 O1827 O 0.63306 0.40596 0.97266
 O1828 O 0.66439 0.37543 0.97220
 C1829 C 0.65452 0.39679 0.96320
 C1830 C 0.66757 0.41056 0.94084
 C1831 C 0.69083 0.40018 0.92961
 H1832 H 0.70005 0.38268 0.93801
 O1833 O 0.47273 0.59704 0.86973
 O1834 O 0.47189 0.62832 0.83921
 C1835 C 0.46325 0.60654 0.84844
 C1836 C 0.44154 0.59240 0.83468
 C1837 C 0.43170 0.60176 0.81041
 H1838 H 0.44040 0.61910 0.80117
 O1839 O 0.52567 0.40538 0.86715
 O1840 O 0.52576 0.37448 0.83627
 C1841 C 0.53484 0.39602 0.84568
 C1842 C 0.55711 0.40965 0.83223
 C1843 C 0.56922 0.39817 0.80995
 H1844 H 0.56151 0.37993 0.80164
 O1845 O 0.63129 0.47588 0.90285
 O1846 O 0.66208 0.47648 0.87185
 C1847 C 0.65281 0.46699 0.89323
 C1848 C 0.66669 0.44481 0.90655
 C1849 C 0.68994 0.43407 0.89559
 H1850 H 0.69840 0.44252 0.87777
 O1851 O 0.36804 0.52499 0.90597
 O1852 O 0.33675 0.52507 0.87547
 C1853 C 0.34636 0.53408 0.89690
 C1854 C 0.33292 0.55631 0.91061
 C1855 C 0.31017 0.56794 0.89951
 H1856 H 0.30123 0.55948 0.88192
 O1857 O 0.40417 0.63130 0.97755
 O1858 O 0.37314 0.66213 0.97810
 C1859 C 0.39479 0.65306 0.96898
 C1860 C 0.40878 0.66748 0.94760
 C1861 C 0.39985 0.69248 0.93912
 H1862 H 0.38321 0.70192 0.94889
 O1863 O 0.59728 0.36949 0.97262
 O1864 O 0.62861 0.33896 0.97206
 C1865 C 0.60701 0.34832 0.96307
 C1866 C 0.59365 0.33504 0.94058
 C1867 C 0.60525 0.31273 0.92862
 H1868 H 0.62340 0.30436 0.93651
 O1869 O 0.59443 0.52793 0.86746
 O1870 O 0.62523 0.52858 0.83649
 C1871 C 0.60378 0.53754 0.84617
 C1872 C 0.59021 0.56013 0.83321
 C1873 C 0.60148 0.57237 0.81092
 H1874 H 0.61953 0.56459 0.80225
 O1875 O 0.40462 0.47447 0.86812
 O1876 O 0.37321 0.47449 0.83773
 C1877 C 0.39500 0.46554 0.84665
 C1878 C 0.40841 0.44340 0.83281
 C1879 C 0.39685 0.43190 0.81028
 H1880 H 0.37956 0.44096 0.80129
 O1881 O 0.52477 0.63326 0.90552
 O1882 O 0.52399 0.66463 0.87508
 C1883 C 0.53363 0.65492 0.89620
 C1884 C 0.55608 0.66834 0.90949
 C1885 C 0.56737 0.69125 0.89841
 H1886 H 0.55899 0.69998 0.88067
 O1887 O 0.47483 0.36835 0.90397
 O1888 O 0.47474 0.33743 0.87312
 C1889 C 0.46574 0.34680 0.89467
 C1890 C 0.44390 0.33301 0.90863
 C1891 C 0.43192 0.31049 0.89746
 H1892 H 0.43903 0.30276 0.87875
 O1893 O 0.63095 0.59675 0.97451
 O1894 O 0.66183 0.62770 0.97457
 C1895 C 0.65238 0.60626 0.96532
 C1896 C 0.66592 0.59274 0.94310
 C1897 C 0.68970 0.60291 0.93279
 H1898 H 0.69878 0.62026 0.94161
 O1899 O 0.37068 0.40252 0.97519
 O1900 O 0.33979 0.37160 0.97534
 C1901 C 0.34928 0.39294 0.96594
 C1902 C 0.33579 0.40622 0.94345
 C1903 C 0.31289 0.39502 0.93220
 H1904 H 0.30436 0.37712 0.94044
 Cu1905 Cu 0.50022 0.38994 0.88860
 Cu1906 Cu 0.50023 0.35282 0.85155
 Cu1907 Cu 0.49877 0.61195 0.89080
 Cu1908 Cu 0.49778 0.64961 0.85424
 Cu1909 Cu 0.38962 0.49967 0.89029
 Cu1910 Cu 0.35196 0.49971 0.85376
 Cu1911 Cu 0.60964 0.50181 0.88835
 Cu1912 Cu 0.64661 0.50254 0.85114
 C1913 C 0.43116 0.43170 0.84383
 H1914 H 0.44016 0.44044 0.86123
 C1915 C 0.40613 0.40758 0.80044
 C1916 C 0.56715 0.57108 0.84442
 H1917 H 0.55868 0.56210 0.86197
 C1918 C 0.59022 0.59545 0.80029
 C1919 C 0.34667 0.42921 0.93196
 H1920 H 0.36457 0.43771 0.94021
 C1921 C 0.30121 0.40642 0.90976
 C1922 C 0.65426 0.57055 0.93092
 H1923 H 0.63568 0.56287 0.93846
 C1924 C 0.70169 0.59115 0.91068
 C1925 C 0.43347 0.34354 0.93219
 H1926 H 0.44181 0.36157 0.94033
 C1927 C 0.41008 0.29839 0.90975
 C1928 C 0.56773 0.65708 0.93216
 H1929 H 0.55942 0.63914 0.94053
 C1930 C 0.59029 0.70239 0.90941
 C1931 C 0.42963 0.57013 0.84644
 H1932 H 0.43689 0.56302 0.86535
 C1933 C 0.41027 0.58912 0.79805
 C1934 C 0.56803 0.43291 0.84307
 H1935 H 0.55919 0.44155 0.86061
 C1936 C 0.59217 0.40935 0.79905
 C1937 C 0.57037 0.34579 0.92959
 H1938 H 0.56161 0.36333 0.93836
 C1939 C 0.59408 0.30159 0.90581
 C1940 C 0.43029 0.65558 0.93449
 H1941 H 0.43704 0.63614 0.94067
 C1942 C 0.41214 0.70538 0.91781
 C1943 C 0.34422 0.56773 0.93336
 H1944 H 0.36195 0.55908 0.94185
 C1945 C 0.29970 0.59148 0.90995
 C1946 C 0.65580 0.43306 0.92933
 H1947 H 0.63761 0.44093 0.93762
 C1948 C 0.70210 0.41191 0.90713
 O1949 O 0.52875 0.40283 1.13198
 O1950 O 0.52962 0.37149 1.16243
 C1951 C 0.53844 0.39315 1.15309
 C1952 C 0.56089 0.40664 1.16630
 C1953 C 0.57295 0.39520 1.18860
 H1954 H 0.56527 0.37689 1.19679
 O1955 O 0.47577 0.59434 1.13513
 O1956 O 0.47601 0.62517 1.16608
 C1957 C 0.46700 0.60354 1.15684
 C1958 C 0.44519 0.58964 1.17075
 C1959 C 0.43413 0.60043 1.19386
 H1960 H 0.44286 0.61790 1.20279
 O1961 O 0.37057 0.52496 1.09920
 O1962 O 0.33973 0.52435 1.13014
 C1963 C 0.34906 0.53389 1.10881
 C1964 C 0.33528 0.55618 1.09558
 C1965 C 0.31326 0.56830 1.10761
 H1966 H 0.30562 0.56080 1.12621
 O1967 O 0.63377 0.47465 1.09515
 O1968 O 0.66537 0.47473 1.12534
 C1969 C 0.65579 0.46597 1.10378
 C1970 C 0.67000 0.44505 1.08884
 C1971 C 0.69550 0.43678 1.09652
 H1972 H 0.70530 0.44608 1.11319
 O1973 O 0.59766 0.36875 1.02432
 O1974 O 0.62881 0.33805 1.02377
 C1975 C 0.60715 0.34706 1.03293
 C1976 C 0.59314 0.33258 1.05426
 C1977 C 0.60141 0.30712 1.06199
 H1978 H 0.61746 0.29742 1.05152
 O1979 O 0.40364 0.62986 1.02937
 O1980 O 0.37238 0.66047 1.02980
 C1981 C 0.39375 0.65089 1.03909
 C1982 C 0.40676 0.66393 1.06191
 C1983 C 0.39554 0.68670 1.07329
 H1984 H 0.37751 0.69510 1.06514
 O1985 O 0.40715 0.47235 1.13425
 O1986 O 0.37602 0.47140 1.16488
 C1987 C 0.39752 0.46244 1.15528
 C1988 C 0.41064 0.43933 1.16789
 C1989 C 0.39830 0.42613 1.18905
 H1990 H 0.38018 0.43398 1.19751
 O1991 O 0.59691 0.52498 1.13278
 O1992 O 0.62826 0.52500 1.16323
 C1993 C 0.60642 0.53387 1.15430
 C1994 C 0.59260 0.55564 1.16833
 C1995 C 0.60296 0.56594 1.19197
 H1996 H 0.61995 0.55658 1.20124
 O1997 O 0.47714 0.36610 1.09601
 O1998 O 0.47800 0.33477 1.12650
 C1999 C 0.46842 0.34437 1.10530
 C2000 C 0.44610 0.33079 1.09201
 C2001 C 0.43481 0.30797 1.10325
 H2002 H 0.44317 0.29938 1.12108
 O2003 O 0.52585 0.63172 1.09757
 O2004 O 0.52603 0.66271 1.12836
 C2005 C 0.53479 0.65343 1.10667
 C2006 C 0.55619 0.66752 1.09230
 C2007 C 0.56602 0.69184 1.10170
 H2008 H 0.55743 0.70092 1.11915
 O2009 O 0.37114 0.40350 1.02711
 O2010 O 0.34003 0.37279 1.02720
 C2011 C 0.34955 0.39431 1.03620
 C2012 C 0.33567 0.40850 1.05781
 C2013 C 0.31095 0.39954 1.06692
 H2014 H 0.30186 0.38222 1.05806
 O2015 O 0.63144 0.59667 1.02624
 O2016 O 0.66231 0.62763 1.02627
 C2017 C 0.65303 0.60600 1.03523
 C2018 C 0.66711 0.59190 1.05677
 C2019 C 0.69189 0.60089 1.06575
 H2020 H 0.70126 0.61786 1.05649
 O2021 O 0.52741 0.59510 1.13353
 O2022 O 0.52778 0.62597 1.16443
 C2023 C 0.53691 0.60456 1.15480
 C2024 C 0.55922 0.59083 1.16806
 C2025 C 0.57062 0.60149 1.19107
 H2026 H 0.56284 0.61968 1.19944
 O2027 O 0.47674 0.40218 1.13227
 O2028 O 0.47744 0.37082 1.16270
 C2029 C 0.46765 0.39214 1.15347
 C2030 C 0.44465 0.40469 1.16676
 C2031 C 0.43153 0.39145 1.18745
 H2032 H 0.43883 0.37248 1.19444
 O2033 O 0.63258 0.52631 1.09594
 O2034 O 0.66406 0.52637 1.12626
 C2035 C 0.65417 0.53556 1.10501
 C2036 C 0.66759 0.55754 1.09097
 C2037 C 0.69235 0.56685 1.09966
 H2038 H 0.70214 0.55754 1.11635
 O2039 O 0.37102 0.47333 1.09772
 O2040 O 0.33979 0.47275 1.12827
 C2041 C 0.34928 0.46423 1.10656
 C2042 C 0.33533 0.44297 1.09186
 C2043 C 0.31023 0.43421 1.10011
 H2044 H 0.30039 0.44390 1.11654
 O2045 O 0.59465 0.63260 1.02651
 O2046 O 0.62539 0.66367 1.02655
 C2047 C 0.60390 0.65415 1.03562
 C2048 C 0.58997 0.66783 1.05752
 C2049 C 0.59938 0.69218 1.06715
 H2050 H 0.61630 0.70163 1.05790
 O2051 O 0.40675 0.36637 1.02736
 O2052 O 0.37567 0.33562 1.02765
 C2053 C 0.39728 0.34491 1.03658
 C2054 C 0.41109 0.33116 1.05851
 C2055 C 0.40008 0.30832 1.07007
 H2056 H 0.38182 0.30001 1.06241
 O2057 O 0.59782 0.47333 1.13184
 O2058 O 0.62929 0.47321 1.16216
 C2059 C 0.60772 0.46399 1.15300
 C2060 C 0.59457 0.44149 1.16646
 C2061 C 0.60586 0.43017 1.18923
 H2062 H 0.62332 0.43897 1.19812
 O2063 O 0.40685 0.52438 1.13543
 O2064 O 0.37600 0.52359 1.16634
 C2065 C 0.39734 0.53318 1.15699
 C2066 C 0.41071 0.55552 1.17063
 C2067 C 0.39948 0.56711 1.19334
 H2068 H 0.38137 0.55910 1.20165
 O2069 O 0.47398 0.63051 1.09891
 O2070 O 0.47408 0.66140 1.12979
 C2071 C 0.46450 0.65171 1.10863
 C2072 C 0.44153 0.66464 1.09566
 C2073 C 0.43036 0.68784 1.10634
 H2074 H 0.43930 0.69720 1.12346
 O2075 O 0.52883 0.36719 1.09521
 O2076 O 0.52964 0.33572 1.12555
 C2077 C 0.53828 0.34558 1.10406
 C2078 C 0.55982 0.33209 1.08939
 C2079 C 0.56893 0.30701 1.09736
 H2080 H 0.56023 0.29740 1.11447
 O2081 O 0.63366 0.40571 1.02436
 O2082 O 0.66501 0.37521 1.02388
 C2083 C 0.65555 0.39670 1.03301
 C2084 C 0.66980 0.41112 1.05424
 C2085 C 0.69527 0.40314 1.06221
 H2086 H 0.70499 0.38669 1.05239
 O2087 O 0.36799 0.59344 1.02818
 O2088 O 0.33676 0.62409 1.02849
 C2089 C 0.34655 0.60272 1.03758
 C2090 C 0.33376 0.58946 1.06037
 C2091 C 0.31166 0.60112 1.07261
 H2092 H 0.30273 0.61882 1.06430
 Cu2093 Cu 0.50282 0.38776 1.11086
 Cu2094 Cu 0.50383 0.35014 1.14745
 Cu2095 Cu 0.50076 0.60987 1.11316
 Cu2096 Cu 0.50105 0.64693 1.15025
 Cu2097 Cu 0.39208 0.38792 1.00141
 Cu2098 Cu 0.35488 0.35090 1.00161
 Cu2099 Cu 0.61228 0.39054 0.99868
 Cu2100 Cu 0.64985 0.35383 0.99808
 Cu2101 Cu 0.38913 0.60919 1.00270
 Cu2102 Cu 0.35169 0.64604 1.00318
 Cu2103 Cu 0.60989 0.61168 1.00055
 Cu2104 Cu 0.64690 0.64890 1.00062
 Cu2105 Cu 0.39207 0.49883 1.11365
 Cu2106 Cu 0.35486 0.49787 1.15058
 Cu2107 Cu 0.61211 0.49979 1.11090
 Cu2108 Cu 0.64987 0.49982 1.14734
 C2109 C 0.57183 0.42981 1.15538
 H2110 H 0.56315 0.43828 1.13767
 C2111 C 0.59564 0.40661 1.19988
 C2112 C 0.43361 0.56693 1.15956
 H2113 H 0.44187 0.55868 1.14157
 C2114 C 0.41085 0.58981 1.20477
 C2115 C 0.34528 0.56682 1.07185
 H2116 H 0.36266 0.55801 1.06281
 C2117 C 0.30175 0.59098 1.09644
 C2118 C 0.65749 0.43231 1.06747
 H2119 H 0.63770 0.43833 1.06168
 C2120 C 0.70827 0.41601 1.08314
 C2121 C 0.57199 0.34466 1.06775
 H2122 H 0.56549 0.36428 1.06188
 C2123 C 0.58923 0.29408 1.08335
 C2124 C 0.42978 0.65305 1.07322
 H2125 H 0.43822 0.63515 1.06489
 C2126 C 0.40756 0.69910 1.09505
 C2127 C 0.43403 0.42863 1.15711
 H2128 H 0.44347 0.43848 1.14055
 C2129 C 0.40809 0.40176 1.19827
 C2130 C 0.57038 0.56792 1.15681
 H2131 H 0.56232 0.56015 1.13851
 C2132 C 0.59272 0.58941 1.20288
 C2133 C 0.43429 0.34205 1.06945
 H2134 H 0.44258 0.35996 1.06099
 C2135 C 0.41174 0.29691 1.09252
 C2136 C 0.56814 0.65583 1.07001
 H2137 H 0.56103 0.63686 1.06293
 C2138 C 0.58743 0.70431 1.08907
 C2139 C 0.34766 0.43031 1.07033
 H2140 H 0.36706 0.43689 1.06388
 C2141 C 0.29784 0.41263 1.08764
 C2142 C 0.65525 0.57004 1.06935
 H2143 H 0.63600 0.56319 1.06274
 C2144 C 0.70463 0.58829 1.08698
 C2145 C 1.13067 1.14209 1.24660
 C2146 C 1.13256 1.12599 1.26982
 C2147 C 1.12471 1.09928 1.26824
 C2148 C 1.11329 1.08909 1.24538
 C2149 C 1.10963 1.10495 1.22297
 C2150 C 1.11902 1.13147 1.22310
 C2151 C 1.14197 1.16776 1.24546
 C2152 C 1.14051 1.18301 1.22248
 C2153 C 1.12851 1.17287 1.19989
 C2154 C 1.11817 1.14727 1.19998
 H2155 H 1.15280 1.17606 1.26195
 H2156 H 1.14917 1.20265 1.22205
 H2157 H 1.12772 1.18470 1.18201
 H2158 H 1.11014 1.13986 1.18158
 H2159 H 1.12597 1.08641 1.28537
 H2160 H 1.10662 1.06866 1.24540
 C2161 C 1.13106 0.64174 0.74370
 C2162 C 1.13035 0.62791 0.76812
 C2163 C 1.11894 0.60265 0.76932
 C2164 C 1.10756 0.59125 0.74697
 C2165 C 1.10728 0.60478 0.72277
 C2166 C 1.11946 0.63005 0.72079
 C2167 C 1.14353 0.66669 0.74144
 C2168 C 1.14451 0.67984 0.71716
 C2169 C 1.13325 0.66840 0.69475
 C2170 C 1.12091 0.64372 0.69642
 H2171 H 1.15286 0.67609 0.75829
 H2172 H 1.15420 0.69892 0.71569
 H2173 H 1.13427 0.67861 0.67592
 H2174 H 1.11289 0.63535 0.67841
 H2175 H 1.11849 0.59184 0.78786
 H2176 H 1.09854 0.57182 0.74863
 C2177 C 0.64361 1.12925 0.74343
 C2178 C 0.63044 1.12760 0.76815
 C2179 C 0.60574 1.11507 0.76981
 C2180 C 0.59418 1.10370 0.74753
 C2181 C 0.60698 1.10458 0.72297
 C2182 C 0.63172 1.11774 0.72059
 C2183 C 0.66809 1.14256 0.74083
 C2184 C 0.68052 1.14456 0.71624
 C2185 C 0.66880 1.13352 0.69386
 C2186 C 0.64462 1.12028 0.69589
 H2187 H 0.67770 1.15170 0.75766
 H2188 H 0.69925 1.15489 0.71450
 H2189 H 0.67844 1.13534 0.67479
 H2190 H 0.63605 1.11235 0.67793
 H2191 H 0.59543 1.11394 0.78860
 H2192 H 0.57518 1.09388 0.74949
 C2193 C 0.64429 0.62032 1.24968
 C2194 C 0.62773 0.62586 1.27193
 C2195 C 0.60048 0.62061 1.27019
 C2196 C 0.58977 0.60845 1.24793
 C2197 C 0.60564 0.60206 1.22609
 C2198 C 0.63301 0.60878 1.22646
 C2199 C 0.67131 0.62802 1.24908
 C2200 C 0.68687 0.62381 1.22669
 C2201 C 0.67582 0.61273 1.20409
 C2202 C 0.64914 0.60565 1.20374
 H2203 H 0.68064 0.63810 1.26546
 H2204 H 0.70748 0.62981 1.22666
 H2205 H 0.68785 0.61010 1.18654
 H2206 H 0.64130 0.59845 1.18520
 H2207 H 0.58745 0.62513 1.28665
 H2208 H 0.56877 0.60390 1.24778
 C2209 C 0.85111 0.86607 1.23617
 C2210 C 0.86534 0.85882 1.25950
 C2211 C 0.89284 0.86329 1.26038
 C2212 C 0.90577 0.87670 1.24012
 C2213 C 0.89197 0.88552 1.21775
 C2214 C 0.86462 0.87926 1.21507
 C2215 C 0.82429 0.85871 1.23241
 C2216 C 0.81091 0.86500 1.20909
 C2217 C 0.82403 0.87799 1.18868
 C2218 C 0.85067 0.88476 1.19140
 H2219 H 0.81358 0.84729 1.24702
 H2220 H 0.79038 0.85924 1.20662
 H2221 H 0.81367 0.88235 1.17041
 H2222 H 0.86027 0.89366 1.17447
 H2223 H 0.90429 0.85788 1.27773
 H2224 H 0.92673 0.88088 1.24227
 C2225 C 0.85460 0.36889 0.74060
 C2226 C 0.86925 0.36299 0.76404
 C2227 C 0.89668 0.36792 0.76437
 C2228 C 0.90914 0.38052 0.74332
 C2229 C 0.89491 0.38802 0.72076
 C2230 C 0.86763 0.38124 0.71874
 C2231 C 0.82785 0.36095 0.73756
 C2232 C 0.81407 0.36594 0.71416
 C2233 C 0.82673 0.37815 0.69299
 C2234 C 0.85330 0.38540 0.69502
 H2235 H 0.81749 0.35007 0.75281
 H2236 H 0.79360 0.35978 0.71225
 H2237 H 0.81607 0.38150 0.67468
 H2238 H 0.86255 0.39361 0.67756
 H2239 H 0.90842 0.36347 0.78179
 H2240 H 0.93006 0.38513 0.74497
 C2241 C 0.36636 0.87089 0.75008
 C2242 C 0.38017 0.87414 0.77431
 C2243 C 0.40501 0.88651 0.77445
 C2244 C 0.41591 0.89652 0.75119
 C2245 C 0.40229 0.89437 0.72715
 C2246 C 0.37755 0.88105 0.72627
 C2247 C 0.34190 0.85732 0.74892
 C2248 C 0.32877 0.85391 0.72485
 C2249 C 0.33975 0.86377 0.70156
 C2250 C 0.36392 0.87717 0.70215
 H2251 H 0.33287 0.84899 0.76647
 H2252 H 0.31007 0.84341 0.72424
 H2253 H 0.32956 0.86089 0.68292
 H2254 H 0.37193 0.88415 0.68354
 H2255 H 0.41582 0.88885 0.79285
 H2256 H 0.43492 0.90649 0.75201
 C2257 C 0.35249 0.36585 1.23597
 C2258 C 0.36604 0.36007 1.26008
 C2259 C 0.39327 0.36569 1.26189
 C2260 C 0.40645 0.37896 1.24166
 C2261 C 0.39317 0.38645 1.21850
 C2262 C 0.36625 0.37893 1.21499
 C2263 C 0.32622 0.35709 1.23140
 C2264 C 0.31360 0.36182 1.20731
 C2265 C 0.32697 0.37474 1.18703
 C2266 C 0.35306 0.38301 1.19062
 H2267 H 0.31541 0.34573 1.24598
 H2268 H 0.29353 0.35491 1.20418
 H2269 H 0.31729 0.37780 1.16816
 H2270 H 0.36294 0.39179 1.17379
 H2271 H 0.40419 0.36118 1.27982
 H2272 H 0.42714 0.38405 1.24439
 C2273 C 0.87189 1.14524 0.75557
 C2274 C 0.86856 1.12955 0.73228
 C2275 C 0.87545 1.10255 0.73321
 C2276 C 0.88736 1.09160 0.75547
 C2277 C 0.89225 1.10692 0.77802
 C2278 C 0.88366 1.13375 0.77861
 C2279 C 0.86188 1.17143 0.75723
 C2280 C 0.86432 1.18616 0.78045
 C2281 C 0.87609 1.17505 0.80272
 C2282 C 0.88538 1.14904 0.80201
 H2283 H 0.85129 1.18054 0.74100
 H2284 H 0.85656 1.20616 0.78132
 H2285 H 0.87754 1.18646 0.82081
 H2286 H 0.89324 1.14093 0.82020
 H2287 H 0.87303 1.09002 0.71595
 H2288 H 0.89337 1.07097 0.75488
 C2289 C 0.87431 0.63780 0.25152
 C2290 C 0.87609 0.62384 0.22722
 C2291 C 0.88791 0.59872 0.22661
 C2292 C 0.89862 0.58757 0.24942
 C2293 C 0.89778 0.60120 0.27353
 C2294 C 0.88518 0.62633 0.27492
 C2295 C 0.86142 0.66261 0.25321
 C2296 C 0.85938 0.67584 0.27737
 C2297 C 0.86987 0.66460 0.30026
 C2298 C 0.88256 0.64004 0.29918
 H2299 H 0.85258 0.67184 0.23600
 H2300 H 0.84941 0.69483 0.27838
 H2301 H 0.86800 0.67487 0.31899
 H2302 H 0.88995 0.63182 0.31753
 H2303 H 0.88916 0.58781 0.20818
 H2304 H 0.90799 0.56827 0.24821
 C2305 C 0.36511 1.15730 0.26891
 C2306 C 0.35563 1.14280 0.24664
 C2307 C 0.35822 1.11504 0.24665
 C2308 C 0.37188 1.10195 0.26657
 C2309 C 0.38273 1.11578 0.28799
 C2310 C 0.37833 1.14361 0.28994
 C2311 C 0.36005 1.18474 0.27168
 C2312 C 0.36853 1.19854 0.29403
 C2313 C 0.38148 1.18526 0.31439
 C2314 C 0.38586 1.15803 0.31273
 H2315 H 0.34891 1.19566 0.25698
 H2316 H 0.36457 1.21957 0.29581
 H2317 H 0.38777 1.19604 0.33180
 H2318 H 0.39463 1.14845 0.32975
 H2319 H 0.35133 1.10333 0.23003
 H2320 H 0.37474 1.08073 0.26473
 C2321 C 0.40253 0.61239 0.72618
 C2322 C 0.37657 0.62321 0.72753
 C2323 C 0.36223 0.62143 0.75120
 C2324 C 0.37340 0.60993 0.77360
 C2325 C 0.39926 0.59988 0.77309
 C2326 C 0.41400 0.60068 0.74919
 C2327 C 0.41709 0.61235 0.70231
 C2328 C 0.44249 0.60145 0.70125
 C2329 C 0.45371 0.59011 0.72374
 C2330 C 0.43962 0.58953 0.74748
 H2331 H 0.40893 0.62038 0.68420
 H2332 H 0.45343 0.60159 0.68282
 H2333 H 0.47335 0.58149 0.72273
 H2334 H 0.44887 0.57998 0.76430
 H2335 H 0.34234 0.62947 0.75247
 H2336 H 0.36193 0.60931 0.79171
 C2337 C 1.08974 0.89652 0.71909
 C2338 C 1.11607 0.88660 0.71854
 C2339 C 1.13177 0.88818 0.74135
 C2340 C 1.12163 0.89856 0.76475
 C2341 C 1.09544 0.90770 0.76612
 C2342 C 1.07933 0.90715 0.74310
 C2343 C 1.07373 0.89671 0.69615
 C2344 C 1.04798 0.90677 0.69694
 C2345 C 1.03781 0.91712 0.72037
 C2346 C 1.05331 0.91752 0.74323
 H2347 H 1.08101 0.88944 0.67738
 H2348 H 1.03593 0.90676 0.67920
 H2349 H 1.01789 0.92512 0.72077
 H2350 H 1.04483 0.92632 0.76082
 H2351 H 1.15195 0.88080 0.74116
 H2352 H 1.13418 0.89896 0.78215
 C2353 C 1.14661 0.37636 0.25430
 C2354 C 1.13124 0.37304 0.23101
 C2355 C 1.10477 0.38140 0.23069
 C2356 C 1.09353 0.39352 0.25267
 C2357 C 1.10838 0.39772 0.27570
 C2358 C 1.13511 0.38884 0.27687
 C2359 C 1.17297 0.36697 0.25588
 C2360 C 1.18790 0.37051 0.27883
 C2361 C 1.17678 0.38292 0.30075
 C2362 C 1.15052 0.39152 0.30009
 H2363 H 1.18222 0.35663 0.23956
 H2364 H 1.20815 0.36342 0.27969
 H2365 H 1.18851 0.38567 0.31845
 H2366 H 1.14251 0.40006 0.31800
 H2367 H 1.09282 0.37893 0.21303
 H2368 H 1.07308 0.40004 0.25159
 C2369 C 0.64798 0.87269 0.25781
 C2370 C 0.63280 0.86826 0.23437
 C2371 C 0.60593 0.87563 0.23415
 C2372 C 0.59458 0.88884 0.25542
 C2373 C 0.60936 0.89464 0.27810
 C2374 C 0.63606 0.88584 0.27987
 C2375 C 0.67397 0.86249 0.26069
 C2376 C 0.68815 0.86601 0.28412
 C2377 C 0.67664 0.87913 0.30541
 C2378 C 0.65079 0.88870 0.30352
 H2379 H 0.68334 0.85097 0.24527
 H2380 H 0.70802 0.85807 0.28595
 H2381 H 0.68762 0.88144 0.32369
 H2382 H 0.64235 0.89771 0.32100
 H2383 H 0.59380 0.87248 0.21672
 H2384 H 0.57405 0.89501 0.25397
 C2385 C 0.64371 0.37170 0.75793
 C2386 C 0.63073 0.37177 0.73303
 C2387 C 0.60557 0.38326 0.73064
 C2388 C 0.59337 0.39518 0.75229
 C2389 C 0.60595 0.39591 0.77697
 C2390 C 0.63116 0.38377 0.78014
 C2391 C 0.66861 0.35935 0.76138
 C2392 C 0.68085 0.35891 0.78614
 C2393 C 0.66853 0.37054 0.80789
 C2394 C 0.64389 0.38279 0.80505
 H2395 H 0.67868 0.34973 0.74509
 H2396 H 0.69991 0.34932 0.78852
 H2397 H 0.67804 0.36993 0.82710
 H2398 H 0.63484 0.39116 0.82257
 H2399 H 0.59540 0.38320 0.71174
 H2400 H 0.57401 0.40416 0.74972
 C2401 C 1.25650 1.10311 1.14204
 C2402 C 1.26896 1.12598 1.13098
 C2403 C 1.25827 1.13601 1.10724
 C2404 C 1.23667 1.12402 1.09492
 C2405 C 1.22203 1.10385 1.10746
 C2406 C 1.23089 1.09541 1.13295
 C2407 C 1.26856 1.08738 1.16181
 C2408 C 1.25359 1.06941 1.17655
 C2409 C 1.22658 1.06674 1.17161
 C2410 C 1.21519 1.07977 1.15006
 H2411 H 1.28948 1.08909 1.16621
 H2412 H 1.26278 1.05821 1.19237
 H2413 H 1.21459 1.05397 1.18398
 H2414 H 1.19412 1.07737 1.14687
 H2415 H 1.26641 1.15329 1.09762
 H2416 H 1.23146 1.13121 1.07547
 C2417 C 1.24294 0.62977 0.64351
 C2418 C 1.26718 0.63125 0.62936
 C2419 C 1.26850 0.62162 0.60340
 C2420 C 1.24656 0.60986 0.59159
 C2421 C 1.22261 0.60738 0.60536
 C2422 C 1.22041 0.61779 0.63138
 C2423 C 1.24040 0.64048 0.66922
 C2424 C 1.21633 0.63921 0.68274
 C2425 C 1.19432 0.62758 0.67088
 C2426 C 1.19617 0.61714 0.64540
 H2427 H 1.25685 0.65018 0.67896
 H2428 H 1.21467 0.64749 0.70244
 H2429 H 1.17566 0.62679 0.68143
 H2430 H 1.17838 0.60888 0.63676
 H2431 H 1.28688 0.62281 0.59235
 H2432 H 1.24839 0.60220 0.57163
 C2433 C 0.77756 1.09398 0.61265
 C2434 C 0.77829 1.12164 0.61851
 C2435 C 0.75655 1.13749 0.61124
 C2436 C 0.73373 1.12638 0.60057
 C2437 C 0.73193 1.09909 0.59582
 C2438 C 0.75432 1.08274 0.60098
 C2439 C 0.80008 1.07759 0.61620
 C2440 C 0.79940 1.05079 0.60955
 C2441 C 0.77671 1.03988 0.59841
 C2442 C 0.75454 1.05567 0.59374
 H2443 H 0.81870 1.08535 0.62337
 H2444 H 0.81679 1.03855 0.61252
 H2445 H 0.77647 1.01918 0.59285
 H2446 H 0.73793 1.04653 0.58379
 H2447 H 0.75650 1.15859 0.61532
 H2448 H 0.71696 1.13924 0.59664
 C2449 C 0.77784 0.60809 1.09230
 C2450 C 0.77772 0.61956 1.11796
 C2451 C 0.75424 0.61965 1.13276
 C2452 C 0.73092 0.60922 1.12243
 C2453 C 0.73030 0.59842 1.09692
 C2454 C 0.75388 0.59751 1.08166
 C2455 C 0.80137 0.60622 1.07726
 C2456 C 0.80120 0.59467 1.05217
 C2457 C 0.77779 0.58447 1.04175
 C2458 C 0.75435 0.58568 1.05633
 H2459 H 0.82014 0.61329 1.08480
 H2460 H 0.81938 0.59342 1.04086
 H2461 H 0.77785 0.57532 1.02237
 H2462 H 0.73676 0.57697 1.04770
 H2463 H 0.75389 0.62821 1.15243
 H2464 H 0.71305 0.60990 1.13432
 C2465 C 1.27810 0.91165 0.88558
 C2466 C 1.27999 0.88387 0.88052
 C2467 C 1.25816 0.86765 0.88645
 C2468 C 1.23444 0.87835 0.89539
 C2469 C 1.23167 0.90563 0.89970
 C2470 C 1.25384 0.92251 0.89550
 C2471 C 1.30034 0.92857 0.88313
 C2472 C 1.29853 0.95546 0.88919
 C2473 C 1.27489 0.96599 0.89863
 C2474 C 1.25288 0.94971 0.90217
 H2475 H 1.31960 0.92120 0.87733
 H2476 H 1.31575 0.96810 0.88709
 H2477 H 1.27377 0.98679 0.90381
 H2478 H 1.23542 0.95862 0.91081
 H2479 H 1.25895 0.84647 0.88287
 H2480 H 1.21784 0.86511 0.89862
 C2481 C 1.23255 0.35402 0.35703
 C2482 C 1.25884 0.36413 0.35760
 C2483 C 1.26378 0.38842 0.37022
 C2484 C 1.24380 0.40156 0.38398
 C2485 C 1.21807 0.39129 0.38489
 C2486 C 1.21194 0.36798 0.37045
 C2487 C 1.22594 0.33145 0.34185
 C2488 C 1.19963 0.32329 0.33940
 C2489 C 1.17951 0.33715 0.35223
 C2490 C 1.18555 0.35898 0.36804
 H2491 H 1.24087 0.32050 0.33103
 H2492 H 1.19480 0.30623 0.32734
 H2493 H 1.15912 0.33082 0.35006
 H2494 H 1.16929 0.36922 0.37758
 H2495 H 1.28360 0.39673 0.37043
 H2496 H 1.24853 0.41977 0.39432
 C2497 C 0.77069 0.89653 0.37670
 C2498 C 0.76618 0.87084 0.36614
 C2499 C 0.74118 0.85912 0.36883
 C2500 C 0.72061 0.87250 0.38141
 C2501 C 0.72436 0.89804 0.39164
 C2502 C 0.74958 0.91027 0.38952
 C2503 C 0.79594 0.90859 0.37549
 C2504 C 0.80016 0.93368 0.38626
 C2505 C 0.77953 0.94709 0.39873
 C2506 C 0.75451 0.93552 0.40055
 H2507 H 0.81271 0.89869 0.36653
 H2508 H 0.81962 0.94267 0.38514
 H2509 H 0.78301 0.96647 0.40725
 H2510 H 0.73924 0.94641 0.41092
 H2511 H 0.73754 0.83945 0.36100
 H2512 H 0.70148 0.86291 0.38310
 C2513 C 0.77238 0.40028 0.88071
 C2514 C 0.76918 0.37441 0.87014
 C2515 C 0.74465 0.36164 0.87233
 C2516 C 0.72327 0.37415 0.88442
 C2517 C 0.72574 0.39981 0.89470
 C2518 C 0.75045 0.41311 0.89308
 C2519 C 0.79711 0.41341 0.87995
 C2520 C 0.80003 0.43868 0.89076
 C2521 C 0.77860 0.45120 0.90280
 C2522 C 0.75406 0.43856 0.90415
 H2523 H 0.81444 0.40424 0.87130
 H2524 H 0.81909 0.44851 0.88999
 H2525 H 0.78106 0.47072 0.91135
 H2526 H 0.73812 0.44879 0.91419
 H2527 H 0.74202 0.34181 0.86448
 H2528 H 0.70451 0.36378 0.88565
 C2529 C 0.72922 0.90002 1.11567
 C2530 C 0.73102 0.87409 1.12639
 C2531 C 0.75493 0.86010 1.12469
 C2532 C 0.77717 0.87159 1.11310
 C2533 C 0.77612 0.89737 1.10280
 C2534 C 0.75195 0.91173 1.10368
 C2535 C 0.70515 0.91434 1.11607
 C2536 C 0.70356 0.93964 1.10503
 C2537 C 0.72571 0.95100 1.09316
 C2538 C 0.74968 0.93724 1.09234
 H2539 H 0.68733 0.90608 1.12465
 H2540 H 0.68498 0.95038 1.10546
 H2541 H 0.72426 0.97050 1.08434
 H2542 H 0.76622 0.94663 1.08246
 H2543 H 0.75645 0.84022 1.13270
 H2544 H 0.79551 0.86041 1.11250
 C2545 C 0.72812 0.40203 0.61706
 C2546 C 0.72841 0.37455 0.62393
 C2547 C 0.75083 0.35935 0.61733
 C2548 C 0.77323 0.37097 0.60630
 C2549 C 0.77401 0.39815 0.60074
 C2550 C 0.75108 0.41382 0.60537
 C2551 C 0.70489 0.41762 0.61956
 C2552 C 0.70468 0.44423 0.61212
 C2553 C 0.72719 0.45575 0.60125
 C2554 C 0.75005 0.44071 0.59751
 H2555 H 0.68639 0.40933 0.62644
 H2556 H 0.68674 0.45583 0.61431
 H2557 H 0.72675 0.47631 0.59510
 H2558 H 0.76657 0.45025 0.58778
 H2559 H 0.75169 0.33842 0.62212
 H2560 H 0.79047 0.35866 0.60267
 C2561 C 0.22231 0.91057 0.60870
 C2562 C 0.22007 0.88320 0.61560
 C2563 C 0.24193 0.86646 0.61123
 C2564 C 0.26603 0.87645 0.60241
 C2565 C 0.26919 0.90346 0.59691
 C2566 C 0.24704 0.92069 0.59928
 C2567 C 0.20005 0.92770 0.60893
 C2568 C 0.20235 0.95420 0.60146
 C2569 C 0.22654 0.96409 0.59278
 C2570 C 0.24859 0.94752 0.59130
 H2571 H 0.18046 0.92072 0.61403
 H2572 H 0.18512 0.96700 0.60189
 H2573 H 0.22809 0.98459 0.58659
 H2574 H 0.26658 0.95586 0.58321
 H2575 H 0.24091 0.84556 0.61613
 H2576 H 0.28265 0.86296 0.60043
 C2577 C 0.22636 0.38618 1.09259
 C2578 C 0.22575 0.37947 1.12004
 C2579 C 0.24781 0.38582 1.13584
 C2580 C 0.27055 0.39674 1.12494
 C2581 C 0.27219 0.40235 1.09788
 C2582 C 0.24974 0.39780 1.08152
 C2583 C 0.20365 0.38366 1.07630
 C2584 C 0.20431 0.39109 1.04974
 C2585 C 0.22718 0.40199 1.03895
 C2586 C 0.24956 0.40571 1.05468
 H2587 H 0.18490 0.37677 1.08398
 H2588 H 0.18676 0.38890 1.03759
 H2589 H 0.22740 0.40816 1.01842
 H2590 H 0.26637 0.41547 1.04570
 H2591 H 0.24806 0.38105 1.15676
 H2592 H 0.28737 0.40032 1.13777
 C2593 C 0.72489 1.09529 0.88618
 C2594 C 0.72545 1.12280 0.87946
 C2595 C 0.74788 1.13780 0.88640
 C2596 C 0.77004 1.12596 0.89768
 C2597 C 0.77057 1.09876 0.90313
 C2598 C 0.74763 1.08326 0.89810
 C2599 C 0.70161 1.07987 0.88327
 C2600 C 0.70117 1.05320 0.89048
 C2601 C 0.72350 1.04145 0.90155
 C2602 C 0.74637 1.05632 0.90573
 H2603 H 0.68325 1.08834 0.87620
 H2604 H 0.68322 1.04173 0.88796
 H2605 H 0.72289 1.02084 0.90749
 H2606 H 0.76274 1.04660 0.91558
 H2607 H 0.74897 1.15874 0.88168
 H2608 H 0.78731 1.13814 0.90155
 C2609 C 0.74650 0.64510 0.39529
 C2610 C 0.73368 0.63398 0.37263
 C2611 C 0.74553 0.61140 0.36120
 C2612 C 0.76732 0.59904 0.37263
 C2613 C 0.78130 0.61074 0.39364
 C2614 C 0.77231 0.63603 0.40258
 C2615 C 0.73464 0.66466 0.41141
 C2616 C 0.74984 0.67931 0.42925
 C2617 C 0.77688 0.67432 0.43164
 C2618 C 0.78811 0.65281 0.41844
 H2619 H 0.71361 0.66867 0.41059
 H2620 H 0.74074 0.69494 0.44078
 H2621 H 0.78898 0.68653 0.44447
 H2622 H 0.80914 0.64931 0.42087
 H2623 H 0.73791 0.60242 0.34337
 H2624 H 0.77289 0.58005 0.36453
 C2625 C 0.21934 1.08665 0.39235
 C2626 C 0.21805 1.11439 0.38696
 C2627 C 0.23957 1.13046 0.39440
 C2628 C 0.26261 1.11958 0.40480
 C2629 C 0.26495 1.09226 0.40906
 C2630 C 0.24287 1.07561 0.40370
 C2631 C 0.19712 1.06995 0.38861
 C2632 C 0.19835 1.04305 0.39483
 C2633 C 0.22132 1.03231 0.40563
 C2634 C 0.24325 1.04840 0.41039
 H2635 H 0.17834 1.07755 0.38165
 H2636 H 0.18116 1.03056 0.39175
 H2637 H 0.22197 1.01150 0.41086
 H2638 H 0.26016 1.03938 0.41998
 H2639 H 0.23933 1.15161 0.39058
 H2640 H 0.27916 1.13267 0.40880
 C2641 C 0.25585 0.62589 0.85795
 C2642 C 0.23222 0.62943 0.87312
 C2643 C 0.23247 0.62239 0.90006
 C2644 C 0.25443 0.61022 0.91145
 C2645 C 0.27727 0.60512 0.89661
 C2646 C 0.27849 0.61370 0.86985
 C2647 C 0.25828 0.63610 0.83194
 C2648 C 0.28173 0.63321 0.81765
 C2649 C 0.30355 0.62093 0.82911
 C2650 C 0.30219 0.61160 0.85502
 H2651 H 0.24251 0.64718 0.82261
 H2652 H 0.28314 0.64106 0.79774
 H2653 H 0.32185 0.61919 0.81808
 H2654 H 0.32012 0.60340 0.86341
 H2655 H 0.21495 0.62501 0.91221
 H2656 H 0.25338 0.60422 0.93202
 C2657 C 1.14000 1.24543 1.12844
 C2658 C 1.12758 1.27051 1.12591
 C2659 C 1.10294 1.27249 1.11328
 C2660 C 1.09075 1.25017 1.10261
 C2661 C 1.10286 1.22526 1.10431
 C2662 C 1.12750 1.22257 1.11760
 C2663 C 1.16436 1.24251 1.14191
 C2664 C 1.17611 1.21761 1.14463
 C2665 C 1.16386 1.19524 1.13412
 C2666 C 1.13975 1.19758 1.12079
 H2667 H 1.17440 1.25936 1.15058
 H2668 H 1.19476 1.21564 1.15506
 H2669 H 1.17300 1.17595 1.13646
 H2670 H 1.13073 1.17963 1.11328
 H2671 H 1.09318 1.29156 1.11153
 H2672 H 1.07186 1.25237 1.09263
 C2673 C 1.09239 0.77873 0.60595
 C2674 C 1.11768 0.77860 0.61830
 C2675 C 1.13220 0.75496 0.61955
 C2676 C 1.12191 0.73149 0.60937
 C2677 C 1.09677 0.73093 0.59762
 C2678 C 1.08184 0.75467 0.59556
 C2679 C 1.07765 0.80238 0.60306
 C2680 C 1.05304 0.80226 0.59049
 C2681 C 1.04276 0.77876 0.58035
 C2682 C 1.05696 0.75516 0.58275
 H2683 H 1.08511 0.82119 0.61012
 H2684 H 1.04198 0.82054 0.58837
 H2685 H 1.02381 0.77887 0.57032
 H2686 H 1.04843 0.73745 0.57419
 H2687 H 1.15161 0.75465 0.62876
 H2688 H 1.13355 0.71348 0.61091
 C2689 C 0.64472 1.24019 0.63167
 C2690 C 0.63164 1.26508 0.63194
 C2691 C 0.60628 1.26740 0.62087
 C2692 C 0.59406 1.24577 0.60892
 C2693 C 0.60682 1.22116 0.60770
 C2694 C 0.63216 1.21799 0.61954
 C2695 C 0.66974 1.23672 0.64374
 C2696 C 0.68212 1.21198 0.64379
 C2697 C 0.66981 1.19026 0.63207
 C2698 C 0.64503 1.19310 0.62014
 H2699 H 0.67978 1.25296 0.65348
 H2700 H 0.70128 1.20959 0.65316
 H2701 H 0.67943 1.17106 0.63238
 H2702 H 0.63598 1.17558 0.61174
 H2703 H 0.59603 1.28628 0.62114
 H2704 H 0.57461 1.24835 0.60016
 C2705 C 0.59636 0.77594 1.11321
 C2706 C 0.62276 0.77432 1.12281
 C2707 C 0.63685 0.75055 1.12023
 C2708 C 0.62507 0.72830 1.10904
 C2709 C 0.59882 0.72907 1.10002
 C2710 C 0.58428 0.75311 1.10171
 C2711 C 0.58191 0.79991 1.11417
 C2712 C 0.55611 0.80128 1.10435
 C2713 C 0.54433 0.77902 1.09312
 C2714 C 0.55825 0.75517 1.09161
 H2715 H 0.59049 0.81785 1.12216
 H2716 H 0.54527 0.81980 1.10523
 H2717 H 0.52438 0.78029 1.08532
 H2718 H 0.54855 0.73855 1.08218
 H2719 H 0.65705 0.74908 1.12739
 H2720 H 0.63645 0.71011 1.10778
 C2721 C 0.85615 1.23996 0.87037
 C2722 C 0.86796 1.26534 0.87261
 C2723 C 0.89143 1.26840 0.88707
 C2724 C 0.90317 1.24680 0.89960
 C2725 C 0.89175 1.22159 0.89800
 C2726 C 0.86818 1.21784 0.88316
 C2727 C 0.83296 1.23598 0.85523
 C2728 C 0.82186 1.21076 0.85281
 C2729 C 0.83364 1.18912 0.86527
 C2730 C 0.85662 1.19250 0.88026
 H2731 H 0.82335 1.25222 0.84502
 H2732 H 0.80410 1.20798 0.84111
 H2733 H 0.82500 1.16959 0.86320
 H2734 H 0.86530 1.17510 0.88932
 H2735 H 0.90069 1.28772 0.88870
 H2736 H 0.92135 1.24976 0.91065
 C2737 C 0.85042 0.73489 0.36790
 C2738 C 0.86320 0.75993 0.36728
 C2739 C 0.88810 0.76290 0.37915
 C2740 C 0.90029 0.74172 0.39196
 C2741 C 0.88797 0.71689 0.39324
 C2742 C 0.86297 0.71313 0.38090
 C2743 C 0.82577 0.73082 0.35529
 C2744 C 0.81377 0.70591 0.35547
 C2745 C 0.82612 0.68461 0.36793
 C2746 C 0.85049 0.68806 0.38051
 H2747 H 0.81572 0.74672 0.34497
 H2748 H 0.79489 0.70305 0.34567
 H2749 H 0.81685 0.66525 0.36769
 H2750 H 0.85955 0.67086 0.38958
 H2751 H 0.89812 0.78190 0.37863
 H2752 H 0.91950 0.74474 0.40107
 C2753 C 0.34825 1.23265 0.36501
 C2754 C 0.35951 1.25841 0.36488
 C2755 C 0.38350 1.26289 0.37813
 C2756 C 0.39624 1.24252 0.39169
 C2757 C 0.38536 1.21704 0.39255
 C2758 C 0.36124 1.21179 0.37905
 C2759 C 0.32485 1.22694 0.35078
 C2760 C 0.31435 1.20136 0.35057
 C2761 C 0.32697 1.18102 0.36432
 C2762 C 0.35023 1.18605 0.37836
 H2763 H 0.31468 1.24204 0.33945
 H2764 H 0.29643 1.19725 0.33952
 H2765 H 0.31881 1.16117 0.36391
 H2766 H 0.35966 1.16954 0.38828
 H2767 H 0.39242 1.28243 0.37801
 H2768 H 0.41478 1.24669 0.40171
 C2769 C 0.40722 0.77819 0.89650
 C2770 C 0.38115 0.77822 0.88593
 C2771 C 0.36568 0.75524 0.88760
 C2772 C 0.37590 0.73209 0.89857
 C2773 C 0.40191 0.73119 0.90823
 C2774 C 0.41769 0.75446 0.90775
 C2775 C 0.42291 0.80137 0.89665
 C2776 C 0.44840 0.80109 0.90734
 C2777 C 0.45862 0.77793 0.91834
 C2778 C 0.44344 0.75484 0.91873
 H2779 H 0.41556 0.81995 0.88886
 H2780 H 0.46021 0.81901 0.90731
 H2781 H 0.47834 0.77792 0.92682
 H2782 H 0.45194 0.73747 0.92802
 H2783 H 0.34568 0.75507 0.87976
 H2784 H 0.36361 0.71448 0.89891
 C2785 C 1.09535 0.72445 0.88824
 C2786 C 1.12166 0.72514 0.87832
 C2787 C 1.13633 0.74862 0.88011
 C2788 C 1.12524 0.77145 0.89085
 C2789 C 1.09911 0.77156 0.90021
 C2790 C 1.08398 0.74786 0.89931
 C2791 C 1.08033 0.70084 0.88804
 C2792 C 1.05463 0.70036 0.89821
 C2793 C 1.04355 0.72319 0.90905
 C2794 C 1.05806 0.74671 0.90980
 H2795 H 1.08836 0.68250 0.88036
 H2796 H 1.04334 0.68212 0.89791
 H2797 H 1.02368 0.72261 0.91714
 H2798 H 1.04889 0.76378 0.91896
 H2799 H 1.15648 0.74940 0.87269
 H2800 H 1.13706 0.78938 0.89149
 C2801 C 1.14480 0.25001 0.38115
 C2802 C 1.12779 0.22869 0.37423
 C2803 C 1.10038 0.23148 0.37752
 C2804 C 1.08963 0.25453 0.38818
 C2805 C 1.10588 0.27572 0.39587
 C2806 C 1.13382 0.27373 0.39202
 C2807 C 1.17248 0.24852 0.37691
 C2808 C 1.18912 0.26915 0.38456
 C2809 C 1.17853 0.29210 0.39545
 C2810 C 1.15118 0.29488 0.39817
 H2811 H 1.18159 0.23157 0.36753
 H2812 H 1.21032 0.26753 0.38156
 H2813 H 1.19155 0.30825 0.40095
 H2814 H 1.14402 0.31394 0.40476
 H2815 H 1.08716 0.21537 0.37233
 H2816 H 1.06836 0.25559 0.39098
 C2817 C 0.64369 0.76707 0.35877
 C2818 C 0.63279 0.74125 0.36086
 C2819 C 0.60945 0.73737 0.37541
 C2820 C 0.59718 0.75835 0.38837
 C2821 C 0.60788 0.78386 0.38723
 C2822 C 0.63108 0.78860 0.37207
 C2823 C 0.66641 0.77211 0.34327
 C2824 C 0.67653 0.79776 0.34100
 C2825 C 0.66422 0.81878 0.35396
 C2826 C 0.64171 0.81436 0.36938
 H2827 H 0.67628 0.75640 0.33252
 H2828 H 0.69391 0.80138 0.32896
 H2829 H 0.67202 0.83865 0.35189
 H2830 H 0.63257 0.83128 0.37888
 H2831 H 0.60089 0.71774 0.37714
 H2832 H 0.57933 0.75458 0.39970
 C2833 C 0.64418 0.25897 0.86794
 C2834 C 0.63110 0.23415 0.86923
 C2835 C 0.60625 0.23230 0.88142
 C2836 C 0.59451 0.25443 0.89293
 C2837 C 0.60726 0.27906 0.89253
 C2838 C 0.63208 0.28169 0.87957
 C2839 C 0.66873 0.26183 0.85484
 C2840 C 0.68103 0.28654 0.85315
 C2841 C 0.66912 0.30879 0.86430
 C2842 C 0.64487 0.30651 0.87739
 H2843 H 0.67846 0.24511 0.84556
 H2844 H 0.69981 0.28848 0.84295
 H2845 H 0.67863 0.32794 0.86265
 H2846 H 0.63614 0.32437 0.88543
 H2847 H 0.59602 0.21343 0.88235
 H2848 H 0.57543 0.25228 0.90256
 C2849 C 0.90929 0.72106 1.10657
 C2850 C 0.88356 0.72220 1.11785
 C2851 C 0.86941 0.74607 1.11736
 C2852 C 0.88053 0.76886 1.10655
 C2853 C 0.90612 0.76848 1.09580
 C2854 C 0.92064 0.74439 1.09537
 C2855 C 0.92371 0.69708 1.10558
 C2856 C 0.94872 0.69612 1.09383
 C2857 C 0.95970 0.71885 1.08271
 C2858 C 0.94588 0.74280 1.08339
 H2859 H 0.91570 0.67884 1.11351
 H2860 H 0.95951 0.67757 1.09312
 H2861 H 0.97892 0.71786 1.07326
 H2862 H 0.95498 0.75986 1.07413
 H2863 H 0.84967 0.74713 1.12578
 H2864 H 0.86917 0.78711 1.10688
 C2865 C 0.90523 0.22536 0.61407
 C2866 C 0.87894 0.22736 0.62387
 C2867 C 0.86495 0.25114 0.62091
 C2868 C 0.87674 0.27306 0.60905
 C2869 C 0.90285 0.27186 0.59965
 C2870 C 0.91727 0.24779 0.60178
 C2871 C 0.91959 0.20136 0.61559
 C2872 C 0.94525 0.19955 0.60547
 C2873 C 0.95695 0.22139 0.59336
 C2874 C 0.94312 0.24526 0.59132
 H2875 H 0.91110 0.18372 0.62433
 H2876 H 0.95602 0.18102 0.60680
 H2877 H 0.97675 0.21977 0.58528
 H2878 H 0.95276 0.26150 0.58118
 H2879 H 0.84478 0.25281 0.62812
 H2880 H 0.86547 0.29130 0.60749
 C2881 C 0.36086 0.75868 0.63154
 C2882 C 0.37318 0.73345 0.62982
 C2883 C 0.39751 0.73091 0.61670
 C2884 C 0.40940 0.75270 0.60469
 C2885 C 0.39730 0.77765 0.60544
 C2886 C 0.37304 0.78099 0.61925
 C2887 C 0.33702 0.76234 0.64574
 C2888 C 0.32537 0.78737 0.64761
 C2889 C 0.33727 0.80917 0.63560
 C2890 C 0.36092 0.80614 0.62163
 H2891 H 0.32736 0.74605 0.65578
 H2892 H 0.30712 0.78990 0.65860
 H2893 H 0.32822 0.82858 0.63728
 H2894 H 0.36970 0.82370 0.61300
 H2895 H 0.40719 0.71176 0.61544
 H2896 H 0.42808 0.75003 0.59443
 C2897 C 0.36999 0.25804 1.14233
 C2898 C 0.37296 0.23202 1.13194
 C2899 C 0.38779 0.22817 1.10880
 C2900 C 0.40015 0.24942 1.09622
 C2901 C 0.39816 0.27508 1.10652
 C2902 C 0.38297 0.27968 1.12967
 C2903 C 0.35385 0.26321 1.16463
 C2904 C 0.35137 0.28884 1.17470
 C2905 C 0.36452 0.30984 1.16263
 C2906 C 0.38000 0.30546 1.14021
 H2907 H 0.34273 0.24768 1.17432
 H2908 H 0.33906 0.29246 1.19188
 H2909 H 0.36251 0.32967 1.17052
 H2910 H 0.38943 0.32247 1.13117
 H2911 H 0.39000 0.20847 1.10054
 H2912 H 0.41157 0.24580 1.07842
 C2913 C 1.13898 1.13850 0.75829
 C2914 C 1.12742 1.13504 0.73284
 C2915 C 1.10327 1.12138 0.73061
 C2916 C 1.09181 1.10921 0.75253
 C2917 C 1.10360 1.11113 0.77750
 C2918 C 1.12663 1.12682 0.78084
 C2919 C 1.16138 1.15491 0.76214
 C2920 C 1.17103 1.15996 0.78751
 C2921 C 1.15865 1.14889 0.80949
 C2922 C 1.13694 1.13210 0.80628
 H2923 H 1.17107 1.16472 0.74574
 H2924 H 1.18800 1.17282 0.79015
 H2925 H 1.16606 1.15313 0.82915
 H2926 H 1.12791 1.12391 0.82391
 H2927 H 1.09384 1.11898 0.71148
 H2928 H 1.07374 1.09788 0.74994
 C2929 C 1.14466 0.63298 0.25738
 C2930 C 1.12961 0.63613 0.23363
 C2931 C 1.10273 0.62875 0.23374
 C2932 C 1.09144 0.61635 0.25559
 C2933 C 1.10631 0.61135 0.27844
 C2934 C 1.13288 0.62052 0.27989
 C2935 C 1.17045 0.64376 0.26001
 C2936 C 1.18469 0.64112 0.28351
 C2937 C 1.17337 0.62851 0.30520
 C2938 C 1.14764 0.61864 0.30363
 H2939 H 1.17963 0.65506 0.24432
 H2940 H 1.20444 0.64938 0.28507
 H2941 H 1.18437 0.62692 0.32354
 H2942 H 1.13930 0.61020 0.32144
 H2943 H 1.09064 0.63105 0.21615
 H2944 H 1.07097 0.60994 0.25439
 C2945 C 0.63546 1.13154 0.25228
 C2946 C 0.62187 1.12832 0.22791
 C2947 C 0.59720 1.11560 0.22751
 C2948 C 0.58631 1.10519 0.25060
 C2949 C 0.59978 1.10722 0.27474
 C2950 C 0.62431 1.12091 0.27591
 C2951 C 0.65964 1.14557 0.25378
 C2952 C 0.67260 1.14885 0.27796
 C2953 C 0.66170 1.13846 0.30104
 C2954 C 0.63775 1.12468 0.30016
 H2955 H 0.66858 1.15439 0.23641
 H2956 H 0.69110 1.15969 0.27881
 H2957 H 0.67177 1.14123 0.31977
 H2958 H 0.62978 1.11733 0.31863
 H2959 H 0.58656 1.11321 0.20903
 H2960 H 0.56745 1.09497 0.24957
 C2961 C 0.64013 0.63488 0.75900
 C2962 C 0.62758 0.63347 0.73390
 C2963 C 0.60290 0.62096 0.73156
 C2964 C 0.59098 0.60906 0.75337
 C2965 C 0.60339 0.60930 0.77813
 C2966 C 0.62792 0.62267 0.78132
 C2967 C 0.66425 0.64864 0.76253
 C2968 C 0.67618 0.65009 0.78741
 C2969 C 0.66428 0.63812 0.80921
 C2970 C 0.64034 0.62461 0.80632
 H2971 H 0.67392 0.65865 0.74624
 H2972 H 0.69465 0.66073 0.78982
 H2973 H 0.67355 0.63948 0.82849
 H2974 H 0.63156 0.61600 0.82387
 H2975 H 0.59306 0.61990 0.71252
 H2976 H 0.57210 0.59913 0.75083
 C2977 C 0.86016 0.87234 0.75313
 C2978 C 0.87386 0.87430 0.72870
 C2979 C 0.89847 0.88707 0.72771
 C2980 C 0.90940 0.89843 0.75030
 C2981 C 0.89603 0.89732 0.77456
 C2982 C 0.87140 0.88387 0.77630
 C2983 C 0.83584 0.85863 0.75516
 C2984 C 0.82291 0.85635 0.77946
 C2985 C 0.83395 0.86747 0.80213
 C2986 C 0.85799 0.88105 0.80069
 H2987 H 0.82679 0.84933 0.73811
 H2988 H 0.80431 0.84571 0.78074
 H2989 H 0.82392 0.86542 0.82097
 H2990 H 0.86604 0.88901 0.81887
 H2991 H 0.90918 0.88850 0.70916
 H2992 H 0.92836 0.90841 0.74884
 C2993 C 0.89797 0.35979 0.23943
 C2994 C 0.87646 0.37244 0.22601
 C2995 C 0.86620 0.39572 0.23748
 C2996 C 0.87713 0.40660 0.26032
 C2997 C 0.89629 0.39292 0.27529
 C2998 C 0.90449 0.36757 0.26578
 C2999 C 0.91360 0.33980 0.22757
 C3000 C 0.93021 0.32386 0.24291
 C3001 C 0.93169 0.32781 0.27013
 C3002 C 0.91885 0.34944 0.28158
 H3003 H 0.91314 0.33630 0.20647
 H3004 H 0.94136 0.30797 0.23376
 H3005 H 0.94346 0.31459 0.28227
 H3006 H 0.92040 0.35191 0.30279
 H3007 H 0.84966 0.40621 0.22885
 H3008 H 0.87007 0.42597 0.26607
 C3009 C 0.40938 0.87126 0.23076
 C3010 C 0.38779 0.88312 0.21695
 C3011 C 0.37701 0.90648 0.22776
 C3012 C 0.38658 0.91714 0.25139
 C3013 C 0.40478 0.90320 0.26737
 C3014 C 0.41429 0.87837 0.25757
 C3015 C 0.42613 0.85220 0.21893
 C3016 C 0.44251 0.83627 0.23449
 C3017 C 0.44235 0.83916 0.26189
 C3018 C 0.42811 0.85986 0.27345
 H3019 H 0.42604 0.84904 0.19774
 H3020 H 0.45448 0.82097 0.22538
 H3021 H 0.45374 0.82574 0.27417
 H3022 H 0.42808 0.86120 0.29481
 H3023 H 0.36080 0.91677 0.21828
 H3024 H 0.37894 0.93628 0.25722
 C3025 C 0.35183 0.37479 0.75777
 C3026 C 0.36733 0.36733 0.73530
 C3027 C 0.39481 0.37185 0.73590
 C3028 C 0.40669 0.38497 0.75697
 C3029 C 0.39183 0.39358 0.77873
 C3030 C 0.36420 0.38791 0.77962
 C3031 C 0.32475 0.36764 0.76004
 C3032 C 0.30985 0.37493 0.78208
 C3033 C 0.32173 0.38831 0.80292
 C3034 C 0.34874 0.39392 0.80222
 H3035 H 0.31486 0.35578 0.74525
 H3036 H 0.28908 0.36964 0.78324
 H3037 H 0.31012 0.39370 0.82011
 H3038 H 0.35723 0.40250 0.81985
 H3039 H 0.40719 0.36640 0.71923
 H3040 H 0.42780 0.38886 0.75603
 C3041 C 1.13495 0.88746 1.25981
 C3042 C 1.11672 0.88464 1.28129
 C3043 C 1.08975 0.88988 1.27685
 C3044 C 1.08090 0.89952 1.25258
 C3045 C 1.09848 0.90346 1.23149
 C3046 C 1.12564 0.89667 1.23471
 C3047 C 1.16174 0.87918 1.26192
 C3048 C 1.17899 0.88095 1.24047
 C3049 C 1.16991 0.89006 1.21617
 C3050 C 1.14349 0.89743 1.21311
 H3051 H 1.16962 0.87042 1.27976
 H3052 H 1.19940 0.87460 1.24256
 H3053 H 1.18327 0.89082 1.19941
 H3054 H 1.13720 0.90296 1.19343
 H3055 H 1.07543 0.88737 1.29265
 H3056 H 1.06004 0.90414 1.25029
 C3057 C 1.09674 0.39254 0.77727
 C3058 C 1.12219 0.38049 0.77667
 C3059 C 1.13664 0.38033 0.75299
 C3060 C 1.12609 0.39113 0.72993
 C3061 C 1.10071 0.40236 0.72975
 C3062 C 1.08586 0.40343 0.75356
 C3063 C 1.08213 0.39464 0.80103
 C3064 C 1.05721 0.40663 0.80131
 C3065 C 1.04651 0.41705 0.77813
 C3066 C 1.06069 0.41567 0.75448
 H3067 H 1.08990 0.38741 0.81963
 H3068 H 1.04623 0.40805 0.81967
 H3069 H 1.02724 0.42651 0.77853
 H3070 H 1.05188 0.42455 0.73707
 H3071 H 1.15615 0.37134 0.75225
 H3072 H 1.13768 0.39030 0.71188
 C3073 C 0.59584 0.89132 0.77624
 C3074 C 0.62215 0.88134 0.77628
 C3075 C 0.63750 0.88313 0.75327
 C3076 C 0.62702 0.89378 0.73013
 C3077 C 0.60085 0.90304 0.72925
 C3078 C 0.58510 0.90230 0.75252
 C3079 C 0.58018 0.89121 0.79940
 C3080 C 0.55447 0.90140 0.79914
 C3081 C 0.54400 0.91216 0.77602
 C3082 C 0.55914 0.91281 0.75293
 H3083 H 0.58771 0.88360 0.81796
 H3084 H 0.54269 0.90117 0.81706
 H3085 H 0.52412 0.92027 0.77602
 H3086 H 0.55043 0.92193 0.73561
 H3087 H 0.65768 0.87571 0.75310
 H3088 H 0.63930 0.89435 0.71254
 C3089 C 0.64755 0.37349 1.24482
 C3090 C 0.63179 0.36934 1.26792
 C3091 C 0.60472 0.37588 1.26710
 C3092 C 0.59362 0.38798 1.24503
 C3093 C 0.60890 0.39342 1.22258
 C3094 C 0.63592 0.38546 1.22196
 C3095 C 0.67395 0.36405 1.24308
 C3096 C 0.68879 0.36737 1.22005
 C3097 C 0.67753 0.37932 1.19796
 C3098 C 0.65129 0.38793 1.19867
 H3099 H 0.68322 0.35324 1.25906
 H3100 H 0.70897 0.36010 1.21915
 H3101 H 0.68899 0.38139 1.17996
 H3102 H 0.64313 0.39586 1.18055
 H3103 H 0.59218 0.37280 1.28426
 H3104 H 0.57287 0.39355 1.24564
 C3105 C 0.88510 1.14144 1.25393
 C3106 C 0.87816 1.12467 1.27566
 C3107 C 0.88104 1.09710 1.27270
 C3108 C 0.89211 1.08619 1.25000
 C3109 C 0.90034 1.10222 1.22893
 C3110 C 0.89628 1.13014 1.23049
 C3111 C 0.87931 1.16895 1.25406
 C3112 C 0.88663 1.18520 1.23301
 C3113 C 0.89841 1.17433 1.21071
 C3114 C 0.90211 1.14705 1.20888
 H3115 H 0.86855 1.17824 1.27004
 H3116 H 0.88254 1.20627 1.23375
 H3117 H 0.90377 1.18701 1.19427
 H3118 H 0.90906 1.13958 1.19012
 H3119 H 0.87602 1.08374 1.28874
 H3120 H 0.89489 1.06490 1.24918
 C3121 C 0.86835 0.64184 0.74116
 C3122 C 0.86958 0.62988 0.76654
 C3123 C 0.88276 0.60564 0.76973
 C3124 C 0.89529 0.59347 0.74842
 C3125 C 0.89502 0.60519 0.72332
 C3126 C 0.88116 0.62936 0.71933
 C3127 C 0.85413 0.66558 0.73685
 C3128 C 0.85274 0.67685 0.71166
 C3129 C 0.86525 0.66467 0.69033
 C3130 C 0.87925 0.64109 0.69399
 H3131 H 0.84374 0.67546 0.75277
 H3132 H 0.84174 0.69504 0.70863
 H3133 H 0.86398 0.67344 0.67081
 H3134 H 0.88828 0.63208 0.67678
 H3135 H 0.88367 0.59626 0.78902
 H3136 H 0.90558 0.57486 0.75159
 C3137 C 0.37581 1.13717 0.74975
 C3138 C 0.37748 1.12308 0.77404
 C3139 C 0.38950 1.09807 0.77466
 C3140 C 0.40049 1.08714 0.75188
 C3141 C 0.39984 1.10094 0.72784
 C3142 C 0.38719 1.12604 0.72646
 C3143 C 0.36248 1.16176 0.74793
 C3144 C 0.36087 1.17527 0.72389
 C3145 C 0.37219 1.16452 0.70119
 C3146 C 0.38501 1.14004 0.70230
 H3147 H 0.35290 1.17062 0.76492
 H3148 H 0.35059 1.19409 0.72281
 H3149 H 0.37063 1.17498 0.68253
 H3150 H 0.39282 1.13211 0.68401
 H3151 H 0.39065 1.08705 0.79304
 H3152 H 0.40988 1.06784 0.75305
 C3153 C 0.37965 0.64186 1.25098
 C3154 C 0.37622 0.62614 1.27422
 C3155 C 0.38208 0.59891 1.27301
 C3156 C 0.39307 0.58764 1.25040
 C3157 C 0.39796 0.60291 1.22780
 C3158 C 0.39036 0.63006 1.22759
 C3159 C 0.37068 0.66845 1.24970
 C3160 C 0.37312 0.68324 1.22653
 C3161 C 0.38373 0.67177 1.20390
 C3162 C 0.39195 0.64541 1.20421
 H3163 H 0.36089 0.67792 1.26620
 H3164 H 0.36618 0.70355 1.22597
 H3165 H 0.38505 0.68319 1.18583
 H3166 H 0.39882 0.63711 1.18572
 H3167 H 0.37939 0.58636 1.29023
 H3168 H 0.39833 0.56681 1.25075
 C3169 C 1.09275 1.27799 0.88912
 C3170 C 1.12007 1.27797 0.88164
 C3171 C 1.13531 1.25518 0.88675
 C3172 C 1.12390 1.23235 0.89708
 C3173 C 1.09690 1.23140 0.90336
 C3174 C 1.08117 1.25452 0.90003
 C3175 C 1.07718 1.30134 0.88805
 C3176 C 1.05074 1.30124 0.89606
 C3177 C 1.03940 1.27826 0.90613
 C3178 C 1.05446 1.25522 0.90850
 H3179 H 1.08536 1.32013 0.88186
 H3180 H 1.03914 1.31928 0.89495
 H3181 H 1.01898 1.27844 0.91273
 H3182 H 1.04510 1.23827 0.91764
 H3183 H 1.15611 1.25445 0.88141
 H3184 H 1.13627 1.21496 0.89967
 C3185 C 1.08855 0.77782 0.38986
 C3186 C 1.11517 0.77823 0.38014
 C3187 C 1.13091 0.75541 0.38322
 C3188 C 1.12064 0.73228 0.39405
 C3189 C 1.09432 0.73102 0.40263
 C3190 C 1.07811 0.75396 0.40103
 C3191 C 1.07272 0.80102 0.39086
 C3192 C 1.04701 0.80037 0.40091
 C3193 C 1.03669 0.77694 0.41104
 C3194 C 1.05212 0.75405 0.41151
 H3195 H 1.08015 0.82014 0.38477
 H3196 H 1.03520 0.81830 0.40133
 H3197 H 1.01683 0.77666 0.41918
 H3198 H 1.04364 0.73668 0.42076
 H3199 H 1.15120 0.75503 0.37618
 H3200 H 1.13329 0.71495 0.39529
 C3201 C 0.63857 1.24389 0.37123
 C3202 C 0.62648 1.26915 0.37379
 C3203 C 0.60219 1.27153 0.38699
 C3204 C 0.59009 1.24946 0.39829
 C3205 C 0.60194 1.22442 0.39664
 C3206 C 0.62616 1.22131 0.38271
 C3207 C 0.66246 1.24050 0.35702
 C3208 C 0.67386 1.21545 0.35430
 C3209 C 0.66169 1.19335 0.36548
 C3210 C 0.63804 1.19613 0.37949
 H3211 H 0.67238 1.25707 0.34770
 H3212 H 0.69215 1.21314 0.34332
 H3213 H 0.67056 1.17393 0.36315
 H3214 H 0.62906 1.17837 0.38749
 H3215 H 0.59269 1.29072 0.38878
 H3216 H 0.57148 1.25196 0.40871
 C3217 C 0.63948 0.74665 0.87228
 C3218 C 0.62590 0.77122 0.87397
 C3219 C 0.60098 0.77235 0.88613
 C3220 C 0.58970 0.74979 0.89727
 C3221 C 0.60299 0.72544 0.89654
 C3222 C 0.62789 0.72352 0.88361
 C3223 C 0.66404 0.74444 0.85905
 C3224 C 0.67691 0.72002 0.85710
 C3225 C 0.66554 0.69740 0.86808
 C3226 C 0.64124 0.69901 0.88115
 H3227 H 0.67335 0.76142 0.84984
 H3228 H 0.69570 0.71860 0.84685
 H3229 H 0.67554 0.67847 0.86633
 H3230 H 0.63292 0.68086 0.88898
 H3231 H 0.59036 0.79100 0.88735
 H3232 H 0.57055 0.75139 0.90687
 C3233 C 0.86214 1.23982 1.14234
 C3234 C 0.86407 1.26450 1.12874
 C3235 C 0.87789 1.26548 1.10459
 C3236 C 0.89124 1.24343 1.09491
 C3237 C 0.89067 1.21933 1.10852
 C3238 C 0.87529 1.21701 1.13189
 C3239 C 0.84566 1.23672 1.16477
 C3240 C 0.84232 1.21195 1.17658
 C3241 C 0.85502 1.18977 1.16624
 C3242 C 0.87160 1.19221 1.14431
 H3243 H 0.83443 1.25311 1.17279
 H3244 H 0.82944 1.20987 1.19360
 H3245 H 0.85202 1.17054 1.17528
 H3246 H 0.88095 1.17441 1.13682
 H3247 H 0.87956 1.28392 1.09368
 H3248 H 0.90227 1.24521 1.07659
 C3249 C 0.90544 0.77484 0.61020
 C3250 C 0.87948 0.77418 0.62097
 C3251 C 0.86478 0.75067 0.61994
 C3252 C 0.87556 0.72775 0.60905
 C3253 C 0.90136 0.72765 0.59879
 C3254 C 0.91646 0.75138 0.59895
 C3255 C 0.92045 0.79847 0.60977
 C3256 C 0.94578 0.79891 0.59873
 C3257 C 0.95648 0.77603 0.58764
 C3258 C 0.94201 0.75249 0.58757
 H3259 H 0.91270 0.81683 0.61766
 H3260 H 0.95706 0.81716 0.59853
 H3261 H 0.97601 0.77658 0.57883
 H3262 H 0.95089 0.73537 0.57822
 H3263 H 0.84486 0.74999 0.62796
 H3264 H 0.86380 0.70977 0.60897
 C3265 C 0.35184 1.23751 0.63139
 C3266 C 0.36658 1.26120 0.63607
 C3267 C 0.39360 1.26174 0.62933
 C3268 C 0.40547 1.24060 0.61627
 C3269 C 0.39108 1.21771 0.61009
 C3270 C 0.36429 1.21557 0.61850
 C3271 C 0.32570 1.23431 0.64109
 C3272 C 0.31191 1.21065 0.63735
 C3273 C 0.32394 1.18947 0.62451
 C3274 C 0.34995 1.19167 0.61548
 H3275 H 0.31590 1.24965 0.65236
 H3276 H 0.29192 1.20858 0.64489
 H3277 H 0.31323 1.17107 0.62193
 H3278 H 0.35879 1.17422 0.60675
 H3279 H 0.40542 1.27934 0.63283
 H3280 H 0.42607 1.24233 0.61045
 C3281 C 0.37976 0.76962 1.10195
 C3282 C 0.37118 0.76884 1.12894
 C3283 C 0.37695 0.74631 1.14422
 C3284 C 0.38880 0.72409 1.13291
 C3285 C 0.39600 0.72379 1.10614
 C3286 C 0.39220 0.74689 1.09058
 C3287 C 0.37834 0.79312 1.08657
 C3288 C 0.38738 0.79373 1.06052
 C3289 C 0.39894 0.77139 1.04938
 C3290 C 0.40176 0.74834 1.06428
 H3291 H 0.37115 0.81162 1.09454
 H3292 H 0.38595 0.81185 1.04912
 H3293 H 0.40638 0.77212 1.02929
 H3294 H 0.41216 0.73201 1.05511
 H3295 H 0.37125 0.74544 1.16490
 H3296 H 0.39201 0.70671 1.14507
 C3297 C 0.85638 0.76093 0.86830
 C3298 C 0.86941 0.73602 0.86827
 C3299 C 0.89471 0.73369 0.87944
 C3300 C 0.90695 0.75538 0.89125
 C3301 C 0.89426 0.78004 0.89218
 C3302 C 0.86896 0.78319 0.88028
 C3303 C 0.83139 0.76435 0.85616
 C3304 C 0.81908 0.78913 0.85585
 C3305 C 0.83143 0.81092 0.86740
 C3306 C 0.85616 0.80810 0.87945
 H3307 H 0.82131 0.74804 0.84656
 H3308 H 0.79995 0.79148 0.84641
 H3309 H 0.82188 0.83014 0.86687
 H3310 H 0.86523 0.82565 0.88777
 H3311 H 0.90492 0.71477 0.87934
 H3312 H 0.92638 0.75284 0.90006
 C3313 C 0.91152 0.22410 0.39311
 C3314 C 0.88514 0.22350 0.38334
 C3315 C 0.86974 0.24660 0.38405
 C3316 C 0.88017 0.27026 0.39358
 C3317 C 0.90635 0.27161 0.40274
 C3318 C 0.92221 0.24836 0.40291
 C3319 C 0.92728 0.20096 0.39398
 C3320 C 0.95304 0.20176 0.40397
 C3321 C 0.96347 0.22542 0.41357
 C3322 C 0.94823 0.24850 0.41326
 H3323 H 0.91978 0.18202 0.38731
 H3324 H 0.96490 0.18387 0.40450
 H3325 H 0.98340 0.22585 0.42153
 H3326 H 0.95694 0.26628 0.42147
 H3327 H 0.84954 0.24639 0.37672
 H3328 H 0.86778 0.28783 0.39349
 C3329 C 0.40995 0.72783 0.38560
 C3330 C 0.38218 0.72584 0.38040
 C3331 C 0.36574 0.74730 0.38719
 C3332 C 0.37622 0.77084 0.39694
 C3333 C 0.40351 0.77378 0.40111
 C3334 C 0.42058 0.75189 0.39619
 C3335 C 0.42710 0.70580 0.38262
 C3336 C 0.45399 0.70770 0.38867
 C3337 C 0.46430 0.73119 0.39865
 C3338 C 0.44780 0.75294 0.40279
 H3339 H 0.41992 0.68660 0.37643
 H3340 H 0.46678 0.69065 0.38614
 H3341 H 0.48510 0.73237 0.40380
 H3342 H 0.45655 0.77025 0.41186
 H3343 H 0.34456 0.74643 0.38364
 H3344 H 0.36283 0.78719 0.40080
 C3345 C 0.35744 0.25179 0.87997
 C3346 C 0.37381 0.22950 0.87383
 C3347 C 0.40130 0.23154 0.87794
 C3348 C 0.41242 0.25391 0.88945
 C3349 C 0.39669 0.27548 0.89695
 C3350 C 0.36898 0.27487 0.89168
 C3351 C 0.33026 0.25259 0.87288
 C3352 C 0.31448 0.27437 0.87914
 C3353 C 0.32555 0.29636 0.89140
 C3354 C 0.35260 0.29708 0.89677
 H3355 H 0.32096 0.23679 0.86186
 H3356 H 0.29365 0.27440 0.87397
 H3357 H 0.31322 0.31327 0.89612
 H3358 H 0.36041 0.31545 0.90446
 H3359 H 0.41435 0.21505 0.87349
 H3360 H 0.43359 0.25413 0.89311
 C3361 C 1.09782 0.72588 1.11189
 C3362 C 1.12533 0.72538 1.11850
 C3363 C 1.14115 0.74719 1.11132
 C3364 C 1.13010 0.76985 1.10021
 C3365 C 1.10288 0.77153 1.09512
 C3366 C 1.08661 0.74908 1.10005
 C3367 C 1.08157 0.70319 1.11488
 C3368 C 1.05489 0.70374 1.10776
 C3369 C 1.04395 0.72648 1.09670
 C3370 C 1.05964 0.74879 1.09245
 H3371 H 1.08940 0.68454 1.12195
 H3372 H 1.04275 0.68623 1.11034
 H3373 H 1.02333 0.72665 1.09082
 H3374 H 1.05052 0.76547 1.08254
 H3375 H 1.16215 0.74751 1.11591
 H3376 H 1.14290 0.78667 1.09637
 C3377 C 1.09785 0.22415 0.60726
 C3378 C 1.12377 0.22520 0.61813
 C3379 C 1.13843 0.24871 0.61627
 C3380 C 1.12757 0.27128 0.60480
 C3381 C 1.10165 0.27114 0.59491
 C3382 C 1.08666 0.24737 0.59561
 C3383 C 1.08301 0.20042 0.60716
 C3384 C 1.05761 0.19969 0.59625
 C3385 C 1.04667 0.22238 0.58497
 C3386 C 1.06102 0.24600 0.58446
 H3387 H 1.09099 0.18217 0.61512
 H3388 H 1.04646 0.18136 0.59633
 H3389 H 1.02705 0.22161 0.57630
 H3390 H 1.05200 0.26298 0.57495
 H3391 H 1.15828 0.24981 0.62441
 H3392 H 1.13927 0.28928 0.60426
 C3393 C 0.59976 0.72528 0.60917
 C3394 C 0.62567 0.72704 0.61999
 C3395 C 0.63999 0.75068 0.61735
 C3396 C 0.62876 0.77274 0.60519
 C3397 C 0.60284 0.77191 0.59529
 C3398 C 0.58823 0.74793 0.59677
 C3399 C 0.58526 0.70134 0.60987
 C3400 C 0.55988 0.69988 0.59901
 C3401 C 0.54860 0.72201 0.58699
 C3402 C 0.56261 0.74580 0.58568
 H3403 H 0.59348 0.68349 0.61846
 H3404 H 0.54900 0.68140 0.59972
 H3405 H 0.52898 0.72067 0.57840
 H3406 H 0.55334 0.76232 0.57562
 H3407 H 0.65986 0.75225 0.62537
 H3408 H 0.64017 0.79092 0.60412
 C3409 C 0.59216 0.22176 1.10762
 C3410 C 0.61973 0.21990 1.11372
 C3411 C 0.63639 0.24116 1.10692
 C3412 C 0.62615 0.26464 1.09677
 C3413 C 0.59893 0.26762 1.09216
 C3414 C 0.58180 0.24570 1.09655
 C3415 C 0.57501 0.19972 1.11036
 C3416 C 0.54831 0.20152 1.10347
 C3417 C 0.53824 0.22491 1.09294
 C3418 C 0.55479 0.24668 1.08913
 H3419 H 0.58211 0.18064 1.11704
 H3420 H 0.53549 0.18447 1.10579
 H3421 H 0.51759 0.22602 1.08716
 H3422 H 0.54630 0.26394 1.07968
 H3423 H 0.65745 0.24036 1.11112
 H3424 H 0.63960 0.28102 1.09330
 C3425 C 1.24994 1.11936 0.86000
 C3426 C 1.27224 1.12391 0.87657
 C3427 C 1.27037 1.11840 0.90369
 C3428 C 1.24726 1.10789 0.91448
 C3429 C 1.22521 1.10240 0.89854
 C3430 C 1.22630 1.10837 0.87099
 C3431 C 1.25033 1.12611 0.83281
 C3432 C 1.22884 1.12038 0.81648
 C3433 C 1.20611 1.10903 0.82704
 C3434 C 1.20432 1.10416 0.85411
 H3435 H 1.26708 1.13593 0.82381
 H3436 H 1.22971 1.12507 0.79558
 H3437 H 1.18952 1.10449 0.81425
 H3438 H 1.18545 1.09721 0.86142
 H3439 H 1.28716 1.12189 0.91660
 H3440 H 1.24678 1.10348 0.93547
 C3441 C 1.27854 0.61148 0.40842
 C3442 C 1.27845 0.62231 0.38249
 C3443 C 1.25517 0.62142 0.36740
 C3444 C 1.23200 0.61062 0.37771
 C3445 C 1.23133 0.60034 0.40345
 C3446 C 1.25476 0.60042 0.41901
 C3447 C 1.30191 0.61071 0.42382
 C3448 C 1.30177 0.59971 0.44915
 C3449 C 1.27856 0.58896 0.45948
 C3450 C 1.25529 0.58911 0.44458
 H3451 H 1.32053 0.61827 0.41637
 H3452 H 1.31983 0.59929 0.46073
 H3453 H 1.27865 0.58024 0.47907
 H3454 H 1.23790 0.57999 0.45316
 H3455 H 1.25486 0.62948 0.34751
 H3456 H 1.21427 0.61059 0.36558
 C3457 C 0.77906 1.10859 0.40904
 C3458 C 0.77961 1.12034 0.38351
 C3459 C 0.75641 1.12102 0.36828
 C3460 C 0.73274 1.11083 0.37804
 C3461 C 0.73147 1.09965 0.40337
 C3462 C 0.75476 1.09819 0.41907
 C3463 C 0.80225 1.10629 0.42454
 C3464 C 0.80145 1.09441 0.44946
 C3465 C 0.77772 1.08433 0.45928
 C3466 C 0.75459 1.08600 0.44424
 H3467 H 0.82123 1.11330 0.41748
 H3468 H 0.81938 1.09282 0.46114
 H3469 H 0.77729 1.07494 0.47855
 H3470 H 0.73674 1.07738 0.45241
 H3471 H 0.75659 1.12982 0.34870
 H3472 H 0.71510 1.11199 0.36583
 C3473 C 0.77289 0.61605 0.90118
 C3474 C 0.77061 0.62693 0.87536
 C3475 C 0.74648 0.62508 0.86180
 C3476 C 0.72455 0.61322 0.87353
 C3477 C 0.72605 0.60279 0.89919
 C3478 C 0.75041 0.60386 0.91320
 C3479 C 0.79721 0.61638 0.91506
 C3480 C 0.79922 0.60531 0.94028
 C3481 C 0.77727 0.59342 0.95201
 C3482 C 0.75312 0.59249 0.93861
 H3483 H 0.81492 0.62489 0.90649
 H3484 H 0.81798 0.60575 0.95069
 H3485 H 0.77904 0.58465 0.97148
 H3486 H 0.73677 0.58252 0.94824
 H3487 H 0.74453 0.63320 0.84203
 H3488 H 0.70607 0.61247 0.86260
 C3489 C 1.27055 0.87121 1.08755
 C3490 C 1.28358 0.88315 1.10952
 C3491 C 1.27176 0.90587 1.12050
 C3492 C 1.24761 0.91552 1.11107
 C3493 C 1.23221 0.90102 1.09281
 C3494 C 1.24339 0.87706 1.08263
 C3495 C 1.28352 0.85313 1.07059
 C3496 C 1.26892 0.83688 1.05368
 C3497 C 1.24137 0.83843 1.05361
 C3498 C 1.22860 0.85813 1.06823
 H3499 H 1.30487 0.85086 1.07106
 H3500 H 1.27892 0.82231 1.04153
 H3501 H 1.22988 0.82468 1.04182
 H3502 H 1.20717 0.85826 1.06819
 H3503 H 1.28076 0.91630 1.13687
 H3504 H 1.24088 0.93424 1.11898
 C3505 C 1.23939 0.35421 0.63004
 C3506 C 1.26468 0.36645 0.63107
 C3507 C 1.26825 0.39152 0.61965
 C3508 C 1.24746 0.40433 0.60682
 C3509 C 1.22248 0.39246 0.60498
 C3510 C 1.21809 0.36734 0.61688
 C3511 C 1.23457 0.32957 0.64244
 C3512 C 1.20949 0.31799 0.64159
 C3513 C 1.18869 0.33080 0.62875
 C3514 C 1.19281 0.35529 0.61661
 H3515 H 1.24998 0.31919 0.65315
 H3516 H 1.20609 0.29908 0.65117
 H3517 H 1.16920 0.32184 0.62842
 H3518 H 1.17594 0.36475 0.60734
 H3519 H 1.28743 0.40114 0.62046
 H3520 H 1.25094 0.42362 0.59801
 C3521 C 0.77808 0.90524 0.60689
 C3522 C 0.77671 0.87955 0.61824
 C3523 C 0.75292 0.86533 0.61718
 C3524 C 0.73036 0.87640 0.60583
 C3525 C 0.73092 0.90202 0.59514
 C3526 C 0.75497 0.91655 0.59518
 C3527 C 0.80205 0.91968 0.60634
 C3528 C 0.80320 0.94468 0.59458
 C3529 C 0.78067 0.95565 0.58300
 C3530 C 0.75675 0.94180 0.58323
 H3531 H 0.82015 0.91168 0.61462
 H3532 H 0.82173 0.95549 0.59421
 H3533 H 0.78180 0.97487 0.57355
 H3534 H 0.73985 0.95087 0.57361
 H3535 H 0.75171 0.84561 0.62562
 H3536 H 0.71212 0.86505 0.60579
 C3537 C 0.78209 0.41004 1.10142
 C3538 C 0.78211 0.38402 1.11211
 C3539 C 0.75844 0.36944 1.11236
 C3540 C 0.73500 0.38016 1.10270
 C3541 C 0.73424 0.40594 1.09255
 C3542 C 0.75790 0.42114 1.09165
 C3543 C 0.80562 0.42503 1.09956
 C3544 C 0.80530 0.45052 1.08883
 C3545 C 0.78171 0.46140 1.07946
 C3546 C 0.75822 0.44687 1.08066
 H3547 H 0.82447 0.41711 1.10604
 H3548 H 0.82350 0.46181 1.08756
 H3549 H 0.78166 0.48112 1.07099
 H3550 H 0.74046 0.45586 1.07267
 H3551 H 0.75800 0.34959 1.12058
 H3552 H 0.71709 0.36831 1.10353
 C3553 C 0.72399 1.09162 1.11320
 C3554 C 0.72447 1.11804 1.12285
 C3555 C 0.74798 1.13269 1.12147
 C3556 C 0.77100 1.12153 1.11119
 C3557 C 0.77124 1.09537 1.10190
 C3558 C 0.74758 1.08019 1.10260
 C3559 C 0.70039 1.07656 1.11314
 C3560 C 0.70010 1.05080 1.10313
 C3561 C 0.72310 1.03968 1.09272
 C3562 C 0.74662 1.05419 1.09227
 H3563 H 0.68192 1.08459 1.12050
 H3564 H 0.68187 1.03948 1.10322
 H3565 H 0.72266 1.01981 1.08470
 H3566 H 0.76385 1.04496 1.08347
 H3567 H 0.74855 1.15293 1.12864
 H3568 H 0.78892 1.13337 1.11065
 C3569 C 0.75917 0.64186 0.63289
 C3570 C 0.73447 0.62847 0.63307
 C3571 C 0.73272 0.60272 0.62289
 C3572 C 0.75474 0.59044 0.61172
 C3573 C 0.77915 0.60354 0.61046
 C3574 C 0.78177 0.62924 0.62160
 C3575 C 0.76203 0.66732 0.64417
 C3576 C 0.78658 0.68004 0.64427
 C3577 C 0.80870 0.66765 0.63337
 C3578 C 0.80645 0.64245 0.62224
 H3579 H 0.74544 0.67746 0.65324
 H3580 H 0.78850 0.69953 0.65302
 H3581 H 0.82773 0.67756 0.63369
 H3582 H 0.82426 0.63337 0.61447
 H3583 H 0.71396 0.59225 0.62314
 H3584 H 0.75259 0.57072 0.60347
 C3585 C 0.26015 1.13137 0.64720
 C3586 C 0.23520 1.13039 0.63426
 C3587 C 0.23285 1.11689 0.61014
 C3588 C 0.25453 1.10417 0.59887
 C3589 C 0.27923 1.10436 0.61144
 C3590 C 0.28233 1.11807 0.63576
 C3591 C 0.26376 1.14589 0.67081
 C3592 C 0.28847 1.14678 0.68318
 C3593 C 0.31002 1.13348 0.67221
 C3594 C 0.30715 1.11943 0.64863
 H3595 H 0.24768 1.15688 0.67976
 H3596 H 0.29096 1.15793 0.70132
 H3597 H 0.32911 1.13422 0.68191
 H3598 H 0.32458 1.10994 0.64052
 H3599 H 0.21393 1.11605 0.60000
 H3600 H 0.25200 1.09394 0.58018
 C3601 C 0.25999 0.64392 1.13136
 C3602 C 0.23556 0.63016 1.13316
 C3603 C 0.23393 0.60387 1.12441
 C3604 C 0.25573 0.59138 1.11305
 C3605 C 0.27984 0.60479 1.11018
 C3606 C 0.28239 0.63108 1.11991
 C3607 C 0.26280 0.66997 1.14121
 C3608 C 0.28710 0.68308 1.13974
 C3609 C 0.30905 0.67048 1.12875
 C3610 C 0.30686 0.64469 1.11903
 H3611 H 0.24639 0.68029 1.15038
 H3612 H 0.28898 0.70303 1.14740
 H3613 H 0.32793 0.68067 1.12791
 H3614 H 0.32456 0.63549 1.11118
 H3615 H 0.21539 0.59312 1.12585
 H3616 H 0.25362 0.57124 1.10590
 C3617 C 0.72424 0.90516 0.89352
 C3618 C 0.72524 0.87972 0.88154
 C3619 C 0.74907 0.86544 0.88166
 C3620 C 0.77194 0.87618 0.89267
 C3621 C 0.77172 0.90157 0.90387
 C3622 C 0.74772 0.91621 0.90470
 C3623 C 0.70030 0.91961 0.89523
 C3624 C 0.69962 0.94448 0.90726
 C3625 C 0.72258 0.95529 0.91808
 C3626 C 0.74641 0.94132 0.91697
 H3627 H 0.68186 0.91173 0.88766
 H3628 H 0.68113 0.95533 0.90842
 H3629 H 0.72185 0.97448 0.92764
 H3630 H 0.76364 0.95024 0.92609
 H3631 H 0.75007 0.84594 0.87271
 H3632 H 0.79015 0.86478 0.89203
 C3633 C 0.75767 0.35716 0.37393
 C3634 C 0.73308 0.37080 0.37335
 C3635 C 0.73128 0.39637 0.38398
 C3636 C 0.75317 0.40835 0.39569
 C3637 C 0.77755 0.39514 0.39707
 C3638 C 0.78015 0.36949 0.38577
 C3639 C 0.76057 0.33183 0.36238
 C3640 C 0.78501 0.31887 0.36264
 C3641 C 0.80702 0.33096 0.37402
 C3642 C 0.80477 0.35608 0.38532
 H3643 H 0.74414 0.32193 0.35282
 H3644 H 0.78693 0.29945 0.35373
 H3645 H 0.82600 0.32092 0.37390
 H3646 H 0.82256 0.36494 0.39334
 H3647 H 0.71263 0.40704 0.38343
 H3648 H 0.75103 0.42802 0.40403
 C3649 C 0.23261 0.86839 0.40786
 C3650 C 0.21965 0.88059 0.38584
 C3651 C 0.23257 0.90246 0.37425
 C3652 C 0.25667 0.91180 0.38381
 C3653 C 0.27150 0.89752 0.40266
 C3654 C 0.25997 0.87368 0.41264
 C3655 C 0.21945 0.85125 0.42562
 C3656 C 0.23386 0.83477 0.44253
 C3657 C 0.26145 0.83540 0.44209
 C3658 C 0.27451 0.85462 0.42710
 H3659 H 0.19803 0.85029 0.42636
 H3660 H 0.22364 0.82090 0.45530
 H3661 H 0.27273 0.82156 0.45399
 H3662 H 0.29595 0.85450 0.42708
 H3663 H 0.22439 0.91306 0.35763
 H3664 H 0.26352 0.93037 0.37571
 C3665 C 0.25700 0.36278 0.86641
 C3666 C 0.23177 0.37200 0.87461
 C3667 C 0.22996 0.39183 0.89389
 C3668 C 0.25270 0.40265 0.90514
 C3669 C 0.27786 0.39390 0.89741
 C3670 C 0.28028 0.37384 0.87792
 C3671 C 0.25959 0.34288 0.84696
 C3672 C 0.28459 0.33410 0.83902
 C3673 C 0.30735 0.34495 0.85024
 C3674 C 0.30533 0.36462 0.86955
 H3675 H 0.24236 0.33401 0.83774
 H3676 H 0.28633 0.31885 0.82406
 H3677 H 0.32669 0.33808 0.84395
 H3678 H 0.32350 0.37253 0.87777
 H3679 H 0.21073 0.39899 0.90026
 H3680 H 0.25069 0.41802 0.91998
   
