data_POSCAR
  _audit_creation_date              2014-09-24
  _audit_creation_method            'ToBaCCo'
  _symmetry_space_group_name_H-M    'P1'
  _symmetry_Int_Tables_number       1
  _symmetry_cell_setting            triclinic
  loop_
  _symmetry_equiv_pos_as_xyz
 x,y,z
_cell_length_a 73.7679
_cell_length_b 73.6436
_cell_length_c 73.5940
_cell_angle_alpha 90.003000
_cell_angle_beta 90.007400
_cell_angle_gamma 89.986700
loop_
  _atom_site_label
  _atom_site_type_symbol
  _atom_site_fract_x
  _atom_site_fract_y
  _atom_site_fract_z
C1 C 0.34238 1.36622 0.34260
 C2 C 0.35023 1.37392 0.32702
 C3 C 0.36571 1.36612 0.31876
 C4 C 0.37322 1.35040 0.32684
 C5 C 0.36552 1.34262 0.34242
 C6 C 0.35006 1.35056 0.35035
 C7 C 0.32681 1.37393 0.35040
 C8 C 0.31860 1.36626 0.36600
 C9 C 0.32669 1.35061 0.37366
 C10 C 0.34223 1.34277 0.36597
 C11 C 0.34987 1.32702 0.37351
 C12 C 0.36527 1.31896 0.36566
 C13 C 0.37307 1.32693 0.35016
 H14 H 0.34356 1.38551 0.32094
 H15 H 0.38550 1.34438 0.32150
 H16 H 0.32159 1.38635 0.34453
 H17 H 0.32053 1.34382 0.38514
 H18 H 0.34361 1.32082 0.38531
 H19 H 0.38508 1.32094 0.34415
 C20 C 0.34208 0.86622 0.84299
 C21 C 0.34977 0.87384 0.82730
 C22 C 0.36515 0.86599 0.81918
 C23 C 0.37290 0.85041 0.82704
 C24 C 0.36534 0.84262 0.84268
 C25 C 0.34985 0.85053 0.85067
 C26 C 0.32656 0.87390 0.85088
 C27 C 0.31842 0.86615 0.86648
 C28 C 0.32655 0.85046 0.87403
 C29 C 0.34207 0.84266 0.86627
 C30 C 0.34986 0.82699 0.87383
 C31 C 0.36526 0.81899 0.86592
 C32 C 0.37295 0.82695 0.85036
 H33 H 0.34357 0.88571 0.82118
 H34 H 0.38490 0.84440 0.82102
 H35 H 0.32045 0.88546 0.84418
 H36 H 0.32130 0.84449 0.88639
 H37 H 0.34368 0.82078 0.88566
 H38 H 0.38495 0.82100 0.84428
 C39 C 0.84270 1.36642 0.84261
 C40 C 0.85058 1.37409 0.82705
 C41 C 0.86610 1.36627 0.81886
 C42 C 0.87358 1.35055 0.82698
 C43 C 0.86582 1.34276 0.84253
 C44 C 0.85033 1.35071 0.85039
 C45 C 0.82709 1.37411 0.85034
 C46 C 0.81900 1.36632 0.86579
 C47 C 0.82681 1.35072 0.87356
 C48 C 0.84238 1.34287 0.86597
 C49 C 0.84999 1.32714 0.87356
 C50 C 0.86544 1.31910 0.86578
 C51 C 0.87331 1.32707 0.85032
 H52 H 0.84393 1.38567 0.82094
 H53 H 0.88588 1.34453 0.82169
 H54 H 0.82129 1.38627 0.84440
 H55 H 0.82053 1.34447 0.88532
 H56 H 0.84366 1.32095 0.88532
 H57 H 0.88535 1.32108 0.84437
 C58 C 0.84273 0.86651 0.34294
 C59 C 0.85054 0.87433 0.32742
 C60 C 0.86618 0.86678 0.31925
 C61 C 0.87388 0.85114 0.32735
 C62 C 0.86618 0.84320 0.34286
 C63 C 0.85056 0.85090 0.35070
 C64 C 0.82712 0.87409 0.35077
 C65 C 0.81911 0.86616 0.36619
 C66 C 0.82704 0.85058 0.37387
 C67 C 0.84268 0.84290 0.36623
 C68 C 0.85042 0.82720 0.37373
 C69 C 0.86594 0.81933 0.36590
 C70 C 0.87376 0.82747 0.35050
 H71 H 0.84461 0.88672 0.32221
 H72 H 0.88540 0.84444 0.32120
 H73 H 0.82121 0.88622 0.34489
 H74 H 0.82082 0.84422 0.38560
 H75 H 0.84415 0.82088 0.38545
 H76 H 0.88586 0.82162 0.34452
 C77 C 0.65712 0.63356 0.34255
 C78 C 0.64914 0.62605 0.32696
 C79 C 0.63359 0.63395 0.31893
 C80 C 0.62617 0.64961 0.32724
 C81 C 0.63401 0.65722 0.34284
 C82 C 0.64955 0.64920 0.35052
 C83 C 0.67276 0.62577 0.35014
 C84 C 0.68093 0.63340 0.36563
 C85 C 0.67319 0.64894 0.37358
 C86 C 0.65760 0.65690 0.36612
 C87 C 0.65006 0.67255 0.37390
 C88 C 0.63455 0.68067 0.36631
 C89 C 0.62657 0.67285 0.35082
 H90 H 0.65575 0.61451 0.32072
 H91 H 0.61385 0.65569 0.32207
 H92 H 0.67851 0.61367 0.34405
 H93 H 0.67953 0.65507 0.38536
 H94 H 0.65618 0.67836 0.38596
 H95 H 0.61477 0.67918 0.34472
 C96 C 0.65763 0.13353 0.84315
 C97 C 0.64991 0.12592 0.82748
 C98 C 0.63451 0.13377 0.81939
 C99 C 0.62679 0.14936 0.82725
 C100 C 0.63437 0.15714 0.84289
 C101 C 0.64990 0.14923 0.85084
 C102 C 0.67313 0.12580 0.85105
 C103 C 0.68131 0.13354 0.86663
 C104 C 0.67323 0.14926 0.87418
 C105 C 0.65774 0.15710 0.86640
 C106 C 0.65000 0.17278 0.87397
 C107 C 0.63460 0.18082 0.86609
 C108 C 0.62683 0.17286 0.85057
 H109 H 0.65580 0.11376 0.82163
 H110 H 0.61508 0.15566 0.82097
 H111 H 0.67920 0.11422 0.84435
 H112 H 0.67850 0.15521 0.88653
 H113 H 0.65594 0.17871 0.88607
 H114 H 0.61511 0.17910 0.84424
 C115 C 1.15745 0.63375 0.84275
 C116 C 1.14950 0.62629 0.82712
 C117 C 1.13406 0.63429 0.81927
 C118 C 1.12649 0.64984 0.82737
 C119 C 1.13425 0.65741 0.84303
 C120 C 1.14980 0.64934 0.85076
 C121 C 1.17301 0.62589 0.85039
 C122 C 1.18129 0.63334 0.86606
 C123 C 1.17329 0.64893 0.87394
 C124 C 1.15775 0.65693 0.86641
 C125 C 1.15019 0.67260 0.87417
 C126 C 1.13475 0.68079 0.86651
 C127 C 1.12682 0.67304 0.85097
 H128 H 1.15558 0.61446 0.82081
 H129 H 1.11447 0.65598 0.82154
 H130 H 1.17817 0.61354 0.84433
 H131 H 1.17952 0.65555 0.88549
 H132 H 1.15625 0.67838 0.88628
 H133 H 1.11507 0.67939 0.84482
 C134 C 1.15772 0.13359 0.34287
 C135 C 1.14996 0.12592 0.32724
 C136 C 1.13440 0.13360 0.31902
 C137 C 1.12674 0.14923 0.32717
 C138 C 1.13439 0.15702 0.34278
 C139 C 1.14998 0.14922 0.35062
 C140 C 1.17327 0.12588 0.35073
 C141 C 1.18149 0.13362 0.36628
 C142 C 1.17342 0.14932 0.37386
 C143 C 1.15787 0.15712 0.36615
 C144 C 1.15013 0.17277 0.37375
 C145 C 1.13466 0.18075 0.36595
 C146 C 1.12685 0.17274 0.35047
 H147 H 1.15583 0.11353 0.32198
 H148 H 1.11527 0.15602 0.32101
 H149 H 1.17935 0.11431 0.34401
 H150 H 1.17873 0.15529 0.38619
 H151 H 1.15611 0.17873 0.38582
 H152 H 1.11507 0.17894 0.34422
 C153 C 0.65787 1.36602 0.65718
 C154 C 0.65007 1.37362 0.67283
 C155 C 0.63458 1.36580 0.68077
 C156 C 0.62682 1.35032 0.67275
 C157 C 0.63445 1.34260 0.65710
 C158 C 0.65002 1.35049 0.64926
 C159 C 0.67348 1.37368 0.64944
 C160 C 0.68161 1.36608 0.63377
 C161 C 0.67340 1.35055 0.62597
 C162 C 0.65779 1.34277 0.63359
 C163 C 0.65003 1.32714 0.62592
 C164 C 0.63457 1.31913 0.63371
 C165 C 0.62681 1.32703 0.64927
 H166 H 0.65629 1.38540 0.67908
 H167 H 0.61476 1.34432 0.67865
 H168 H 0.67879 1.38599 0.65544
 H169 H 0.67950 1.34381 0.61443
 H170 H 0.65624 1.32098 0.61407
 H171 H 0.61476 1.32109 0.65523
 C172 C 0.65777 0.86589 1.15756
 C173 C 0.65000 0.87360 1.17315
 C174 C 0.63430 0.86607 1.18124
 C175 C 0.62649 0.85059 1.17297
 C176 C 0.63412 0.84277 1.15735
 C177 C 0.64983 0.85042 1.14963
 C178 C 0.67344 0.87342 1.14982
 C179 C 0.68139 0.86561 1.13431
 C180 C 0.67336 0.85017 1.12646
 C181 C 0.65768 0.84251 1.13403
 C182 C 0.64983 0.82695 1.12636
 C183 C 0.63423 0.81913 1.13407
 C184 C 0.62644 0.82718 1.14954
 H185 H 0.65602 0.88589 1.17850
 H186 H 0.61492 0.84390 1.17903
 H187 H 0.67943 0.88545 1.15583
 H188 H 0.67954 0.84388 1.11467
 H189 H 0.65580 0.82098 1.11430
 H190 H 0.61457 0.82109 1.15572
 C191 C 1.15777 1.36644 1.15709
 C192 C 1.14999 1.37416 1.17268
 C193 C 1.13447 1.36646 1.18066
 C194 C 1.12663 1.35097 1.17272
 C195 C 1.13424 1.34313 1.15711
 C196 C 1.14986 1.35091 1.14924
 C197 C 1.17338 1.37403 1.14931
 C198 C 1.18151 1.36632 1.13369
 C199 C 1.17326 1.35078 1.12597
 C200 C 1.15762 1.34308 1.13362
 C201 C 1.14982 1.32743 1.12604
 C202 C 1.13433 1.31950 1.13387
 C203 C 1.12658 1.32752 1.14937
 H204 H 1.15599 1.38622 1.17860
 H205 H 1.11483 1.34477 1.17892
 H206 H 1.17871 1.38637 1.15524
 H207 H 1.17935 1.34397 1.11446
 H208 H 1.15602 1.32119 1.11423
 H209 H 1.11451 1.32165 1.15537
 C210 C 1.15806 0.86610 0.65746
 C211 C 1.15024 0.87382 0.67304
 C212 C 1.13473 0.86609 0.68100
 C213 C 1.12695 0.85056 0.67308
 C214 C 1.13459 0.84273 0.65749
 C215 C 1.15020 0.85054 0.64962
 C216 C 1.17365 0.87373 0.64968
 C217 C 1.18182 0.86603 0.63408
 C218 C 1.17362 0.85045 0.62637
 C219 C 1.15800 0.84272 0.63401
 C220 C 1.15024 0.82704 0.62643
 C221 C 1.13477 0.81908 0.63426
 C222 C 1.12699 0.82709 0.64975
 H223 H 1.15620 0.88591 0.67894
 H224 H 1.11515 0.84434 0.67927
 H225 H 1.17894 0.88609 0.65560
 H226 H 1.17974 0.84365 0.61487
 H227 H 1.15647 0.82081 0.61463
 H228 H 1.11492 0.82119 0.65574
 C229 C 0.34282 0.63350 0.65656
 C230 C 0.35048 0.62581 0.67222
 C231 C 0.36599 0.63351 0.68024
 C232 C 0.37391 0.64896 0.67230
 C233 C 0.36640 0.65680 0.65664
 C234 C 0.35077 0.64907 0.64875
 C235 C 0.32716 0.62602 0.64874
 C236 C 0.31929 0.63392 0.63322
 C237 C 0.32738 0.64937 0.62547
 C238 C 0.34301 0.65702 0.63314
 C239 C 0.35091 0.67258 0.62554
 C240 C 0.36644 0.68042 0.63338
 C241 C 0.37415 0.67237 0.64889
 H242 H 0.34415 0.61406 0.67839
 H243 H 0.38599 0.65484 0.67826
 H244 H 0.32087 0.61426 0.65497
 H245 H 0.32153 0.65542 0.61338
 H246 H 0.34500 0.67858 0.61346
 H247 H 0.38596 0.67847 0.65518
 C248 C 0.34270 0.13364 1.15705
 C249 C 0.35049 0.12584 1.17260
 C250 C 0.36611 0.13342 1.18079
 C251 C 0.37381 0.14904 1.17268
 C252 C 0.36614 0.15696 1.15714
 C253 C 0.35054 0.14925 1.14929
 C254 C 0.32698 0.12619 1.14932
 C255 C 0.31898 0.13413 1.13389
 C256 C 0.32699 0.14962 1.12613
 C257 C 0.34269 0.15724 1.13373
 C258 C 0.35050 0.17287 1.12616
 C259 C 0.36607 0.18067 1.13395
 C260 C 0.37385 0.17255 1.14939
 H261 H 0.34368 0.11434 1.17869
 H262 H 0.38620 0.15487 1.17797
 H263 H 0.32102 0.11411 1.15524
 H264 H 0.32079 0.15599 1.11440
 H265 H 0.34425 0.17918 1.11442
 H266 H 0.38598 0.17836 1.15534
 C267 C 0.84247 0.63356 1.15687
 C268 C 0.85019 0.62565 1.17239
 C269 C 0.86581 0.63314 1.18039
 C270 C 0.87378 0.64862 1.17255
 C271 C 0.86622 0.65667 1.15703
 C272 C 0.85051 0.64912 1.14914
 C273 C 0.82677 0.62622 1.14905
 C274 C 0.81887 0.63428 1.13363
 C275 C 0.82700 0.64975 1.12595
 C276 C 0.84274 0.65723 1.13361
 C277 C 0.85068 0.67284 1.12613
 C278 C 0.86629 0.68052 1.13399
 C279 C 0.87401 0.67228 1.14940
 H280 H 0.84407 0.61360 1.17821
 H281 H 0.88567 0.65463 1.17878
 H282 H 0.82071 0.61416 1.15493
 H283 H 0.82087 0.65620 1.11423
 H284 H 0.84450 0.67925 1.11441
 H285 H 0.88616 0.67798 1.15541
 C286 C 0.84178 0.13422 0.65776
 C287 C 0.84957 0.12644 0.67333
 C288 C 0.86514 0.13405 0.68157
 C289 C 0.87282 0.14970 0.67349
 C290 C 0.86518 0.15756 0.65792
 C291 C 0.84963 0.14979 0.65000
 C292 C 0.82613 0.12669 0.64997
 C293 C 0.81798 0.13444 0.63438
 C294 C 0.82623 0.15000 0.62671
 C295 C 0.84186 0.15767 0.63439
 C296 C 0.84966 0.17332 0.62683
 C297 C 0.86517 0.18120 0.63466
 C298 C 0.87289 0.17316 0.65016
 H299 H 0.84278 0.11493 0.67942
 H300 H 0.88517 0.15557 0.67882
 H301 H 0.82079 0.11433 0.65585
 H302 H 0.82013 0.15684 0.61522
 H303 H 0.84347 0.17958 0.61503
 H304 H 0.88497 0.17902 0.65615
 C305 C 1.36592 0.34259 0.65722
 C306 C 1.37366 0.35039 0.67281
 C307 C 1.36598 0.36595 0.68108
 C308 C 1.35033 0.37359 0.67300
 C309 C 1.34251 0.36593 0.65742
 C310 C 1.35034 0.35039 0.64948
 C311 C 1.37351 0.32695 0.64941
 C312 C 1.36580 0.31879 0.63380
 C313 C 1.35023 0.32699 0.62615
 C314 C 1.34250 0.34261 0.63386
 C315 C 1.32683 0.35036 0.62632
 C316 C 1.31889 0.36584 0.63418
 C317 C 1.32690 0.37359 0.64968
 H318 H 1.38518 0.34364 0.67889
 H319 H 1.34441 0.38593 0.67834
 H320 H 1.38587 0.32164 0.65528
 H321 H 1.34341 0.32088 0.61466
 H322 H 1.32060 0.34415 0.61452
 H323 H 1.32100 0.38566 0.65570
 C324 C 1.36582 0.84250 1.15705
 C325 C 1.37352 0.85027 1.17266
 C326 C 1.36580 0.86580 1.18067
 C327 C 1.35031 0.87362 1.17275
 C328 C 1.34250 0.86602 1.15714
 C329 C 1.35029 0.85041 1.14923
 C330 C 1.37339 0.82685 1.14925
 C331 C 1.36569 0.81874 1.13361
 C332 C 1.35016 0.82702 1.12591
 C333 C 1.34247 0.84266 1.13359
 C334 C 1.32684 0.85048 1.12602
 C335 C 1.31892 0.86598 1.13388
 C336 C 1.32692 0.87372 1.14940
 H337 H 1.38530 0.84400 1.17883
 H338 H 1.34439 0.88571 1.17870
 H339 H 1.38570 0.82150 1.15517
 H340 H 1.34336 0.82093 1.11440
 H341 H 1.32062 0.84429 1.11420
 H342 H 1.32105 0.88580 1.15541
 C343 C 0.86619 0.34278 1.15671
 C344 C 0.87393 0.35043 1.17235
 C345 C 0.86625 0.36590 1.18051
 C346 C 0.85072 0.37378 1.17272
 C347 C 0.84282 0.36627 1.15710
 C348 C 0.85055 0.35067 1.14909
 C349 C 0.87374 0.32720 1.14876
 C350 C 0.86588 0.31909 1.13321
 C351 C 0.85022 0.32731 1.12574
 C352 C 0.84255 0.34289 1.13356
 C353 C 0.82693 0.35078 1.12608
 C354 C 0.81907 0.36627 1.13401
 C355 C 0.82716 0.37396 1.14950
 H356 H 0.88603 0.34441 1.17814
 H357 H 0.84455 0.38555 1.17904
 H358 H 0.88528 0.32101 1.15541
 H359 H 0.84417 0.32208 1.11341
 H360 H 0.82089 0.34489 1.11400
 H361 H 0.82105 0.38574 1.15587
 C362 C 0.86603 0.84274 0.65699
 C363 C 0.87383 0.85042 0.67258
 C364 C 0.86623 0.86598 0.68064
 C365 C 0.85076 0.87393 0.67280
 C366 C 0.84282 0.86640 0.65721
 C367 C 0.85047 0.85075 0.64925
 C368 C 0.87348 0.82709 0.64911
 C369 C 0.86553 0.81922 0.63363
 C370 C 0.85006 0.82733 0.62594
 C371 C 0.84248 0.84301 0.63365
 C372 C 0.82687 0.85092 0.62617
 C373 C 0.81909 0.86647 0.63408
 C374 C 0.82721 0.87415 0.64957
 H375 H 0.88588 0.84433 0.67841
 H376 H 0.84465 0.88576 0.67908
 H377 H 0.88553 0.82106 0.65500
 H378 H 0.84370 0.82121 0.61416
 H379 H 0.82056 0.84476 0.61438
 H380 H 0.82143 0.88626 0.65563
 C381 C 0.63417 0.65726 0.65719
 C382 C 0.62648 0.64948 0.67278
 C383 C 0.63415 0.63389 0.68071
 C384 C 0.64960 0.62601 0.67274
 C385 C 0.65743 0.63365 0.65714
 C386 C 0.64970 0.64933 0.64932
 C387 C 0.62665 0.67294 0.64944
 C388 C 0.63449 0.68091 0.63396
 C389 C 0.64993 0.67287 0.62614
 C390 C 0.65758 0.65716 0.63372
 C391 C 0.67316 0.64933 0.62610
 C392 C 0.68103 0.63376 0.63388
 C393 C 0.67301 0.62597 0.64937
 H394 H 0.61445 0.65551 0.67871
 H395 H 0.65575 0.61416 0.67892
 H396 H 0.61462 0.67891 0.65543
 H397 H 0.65621 0.67907 0.61436
 H398 H 0.67940 0.65557 0.61432
 H399 H 0.67885 0.61384 0.65533
 C400 C 0.63411 1.15749 1.15719
 C401 C 0.62642 1.14964 1.17277
 C402 C 0.63417 1.13411 1.18073
 C403 C 0.64968 1.12634 1.17279
 C404 C 0.65748 1.13401 1.15721
 C405 C 0.64966 1.14963 1.14935
 C406 C 0.62651 1.17314 1.14944
 C407 C 0.63420 1.18133 1.13385
 C408 C 0.64974 1.17311 1.12612
 C409 C 0.65746 1.15746 1.13374
 C410 C 0.67311 1.14969 1.12616
 C411 C 0.68106 1.13418 1.13396
 C412 C 0.67307 1.12637 1.14945
 H413 H 0.61463 1.15588 1.17896
 H414 H 0.65563 1.11425 1.17871
 H415 H 0.61418 1.17845 1.15538
 H416 H 0.65653 1.17926 1.11463
 H417 H 0.67933 1.15594 1.11436
 H418 H 0.67897 1.11428 1.15542
 C419 C 0.13428 0.65765 1.15776
 C420 C 0.12660 0.64976 1.17332
 C421 C 0.13430 0.63416 1.18148
 C422 C 0.14994 0.62658 1.17332
 C423 C 0.15770 0.63433 1.15776
 C424 C 0.14984 0.64990 1.14993
 C425 C 0.12665 0.67333 1.15007
 C426 C 0.13430 0.68159 1.13450
 C427 C 0.14985 0.67344 1.12674
 C428 C 0.15761 0.65779 1.13433
 C429 C 0.17326 0.65008 1.12669
 C430 C 0.18124 0.63455 1.13444
 C431 C 0.17329 0.62672 1.14992
 H432 H 0.11509 0.65648 1.17948
 H433 H 0.15588 0.61422 1.17858
 H434 H 0.11430 0.67859 1.15601
 H435 H 0.15662 0.67963 1.11526
 H436 H 0.17944 0.65636 1.11490
 H437 H 0.17922 0.61461 1.15585
 C438 C 0.13376 1.15665 0.65722
 C439 C 0.12608 1.14874 0.67276
 C440 C 0.13378 1.13311 0.68087
 C441 C 0.14940 1.12553 0.67269
 C442 C 0.15720 1.13331 0.65715
 C443 C 0.14936 1.14892 0.64937
 C444 C 0.12618 1.17237 0.64957
 C445 C 0.13399 1.18048 0.63414
 C446 C 0.14948 1.17258 0.62630
 C447 C 0.15722 1.15688 0.63381
 C448 C 0.17285 1.14918 0.62616
 C449 C 0.18077 1.13361 0.63385
 C450 C 0.17279 1.12572 0.64930
 H451 H 0.11457 1.15547 0.67892
 H452 H 0.15533 1.11314 0.67791
 H453 H 0.11410 1.17824 0.65555
 H454 H 0.15574 1.17887 0.61455
 H455 H 0.17905 1.15552 0.61441
 H456 H 0.17869 1.11359 0.65519
 C457 C 1.36583 0.65755 0.34248
 C458 C 1.37348 0.64970 0.32688
 C459 C 1.36577 0.63412 0.31869
 C460 C 1.35017 0.62649 0.32687
 C461 C 1.34243 0.63420 0.34248
 C462 C 1.35030 0.64976 0.35033
 C463 C 1.37359 0.67308 0.35032
 C464 C 1.36599 0.68128 0.36596
 C465 C 1.35039 0.67317 0.37366
 C466 C 1.34256 0.65760 0.36598
 C467 C 1.32687 0.64993 0.37356
 C468 C 1.31882 0.63450 0.36573
 C469 C 1.32675 0.62668 0.35021
 H470 H 1.38585 0.65556 0.32159
 H471 H 1.34335 0.61503 0.32072
 H472 H 1.38596 0.67832 0.34441
 H473 H 1.34366 0.67933 0.38517
 H474 H 1.32072 0.65619 0.38538
 H475 H 1.32078 0.61464 0.34423
 C476 C 1.36574 1.15732 0.84272
 C477 C 1.37324 1.14936 0.82710
 C478 C 1.36523 1.13396 0.81916
 C479 C 1.34963 1.12643 0.82714
 C480 C 1.34200 1.13421 0.84276
 C481 C 1.35010 1.14970 0.85060
 C482 C 1.37360 1.17284 0.85045
 C483 C 1.36610 1.18113 0.86609
 C484 C 1.35046 1.17315 0.87386
 C485 C 1.34247 1.15763 0.86625
 C486 C 1.32673 1.15011 0.87388
 C487 C 1.31852 1.13473 0.86609
 C488 C 1.32632 1.12682 0.85057
 H489 H 1.38511 1.15541 0.82087
 H490 H 1.34348 1.11444 0.82124
 H491 H 1.38599 1.17796 0.84448
 H492 H 1.34380 1.17939 0.88538
 H493 H 1.32066 1.15644 0.88571
 H494 H 1.32022 1.11483 0.84460
 C495 C 0.86587 0.65729 0.84273
 C496 C 0.87346 0.64949 0.82710
 C497 C 0.86561 0.63403 0.81909
 C498 C 0.85008 0.62630 0.82702
 C499 C 0.84233 0.63395 0.84266
 C500 C 0.85025 0.64950 0.85056
 C501 C 0.87356 0.67284 0.85055
 C502 C 0.86582 0.68082 0.86608
 C503 C 0.85029 0.67293 0.87387
 C504 C 0.84246 0.65735 0.86621
 C505 C 0.82680 0.64966 0.87379
 C506 C 0.81876 0.63422 0.86594
 C507 C 0.82668 0.62641 0.85040
 H508 H 0.88556 0.65541 0.82120
 H509 H 0.84379 0.61455 0.82079
 H510 H 0.88566 0.67870 0.84459
 H511 H 0.84408 0.67914 0.88568
 H512 H 0.82064 0.65591 0.88561
 H513 H 0.82070 0.61439 0.84439
 C514 C 0.86607 1.15698 0.34309
 C515 C 0.87376 1.14922 0.32748
 C516 C 0.86612 1.13364 0.31924
 C517 C 0.85052 1.12594 0.32736
 C518 C 0.84270 1.13357 0.34297
 C519 C 0.85047 1.14916 0.35085
 C520 C 0.87372 1.17254 0.35099
 C521 C 0.86587 1.18051 0.36648
 C522 C 0.85031 1.17260 0.37415
 C523 C 0.84254 1.15703 0.36642
 C524 C 0.82689 1.14930 0.37395
 C525 C 0.81894 1.13383 0.36609
 C526 C 0.82699 1.12601 0.35063
 H527 H 0.88613 1.15514 0.32225
 H528 H 0.84375 1.11446 0.32117
 H529 H 0.88556 1.17872 0.34484
 H530 H 0.84428 1.17852 0.38621
 H531 H 0.82092 1.15528 0.38601
 H532 H 0.82081 1.11423 0.34434
 C533 C 0.63407 0.34268 0.34280
 C534 C 0.62629 0.35043 0.32723
 C535 C 0.63390 0.36600 0.31894
 C536 C 0.64956 0.37369 0.32696
 C537 C 0.65747 0.36605 0.34252
 C538 C 0.64973 0.35047 0.35046
 C539 C 0.62644 0.32713 0.35075
 C540 C 0.63436 0.31917 0.36621
 C541 C 0.64999 0.32706 0.37377
 C542 C 0.65773 0.34261 0.36599
 C543 C 0.67344 0.35034 0.37343
 C544 C 0.68135 0.36580 0.36552
 C545 C 0.67323 0.37361 0.35009
 H546 H 0.61388 0.34453 0.32208
 H547 H 0.65630 0.38515 0.32072
 H548 H 0.61456 0.32097 0.34467
 H549 H 0.65607 0.32114 0.38580
 H550 H 0.67946 0.34436 0.38546
 H551 H 0.67938 0.38538 0.34377
 C552 C 0.63374 0.84328 0.84318
 C553 C 0.62623 0.85131 0.82762
 C554 C 0.63421 0.86680 0.81981
 C555 C 0.64978 0.87432 0.82786
 C556 C 0.65743 0.86647 0.84345
 C557 C 0.64940 0.85087 0.85113
 C558 C 0.62595 0.82767 0.85078
 C559 C 0.63360 0.81947 0.86625
 C560 C 0.64915 0.82718 0.87416
 C561 C 0.65712 0.84278 0.86669
 C562 C 0.67280 0.85029 0.87441
 C563 C 0.68093 0.86580 0.86680
 C564 C 0.67309 0.87384 0.85134
 H565 H 0.61439 0.84526 0.82134
 H566 H 0.65590 0.88638 0.82206
 H567 H 0.61383 0.82194 0.84472
 H568 H 0.65530 0.82080 0.88592
 H569 H 0.67863 0.84413 0.88645
 H570 H 0.67941 0.88563 0.84522
 C571 C 0.13392 0.34265 0.84304
 C572 C 0.12638 0.35046 0.82737
 C573 C 0.13431 0.36586 0.81933
 C574 C 0.14990 0.37349 0.82725
 C575 C 0.15760 0.36582 0.84289
 C576 C 0.14962 0.35030 0.85078
 C577 C 0.12616 0.32711 0.85085
 C578 C 0.13383 0.31884 0.86643
 C579 C 0.14952 0.32686 0.87404
 C580 C 0.15742 0.34237 0.86634
 C581 C 0.17308 0.35005 0.87397
 C582 C 0.18116 0.36548 0.86616
 C583 C 0.17328 0.37332 0.85064
 H584 H 0.11451 0.34434 0.82121
 H585 H 0.15598 0.38549 0.82128
 H586 H 0.11459 0.32109 0.84411
 H587 H 0.15542 0.32152 0.88640
 H588 H 0.17896 0.34404 0.88606
 H589 H 0.17956 0.38506 0.84436
 C590 C 0.13443 0.84245 0.34258
 C591 C 0.12682 0.85027 0.32694
 C592 C 0.13463 0.86578 0.31869
 C593 C 0.15030 0.87332 0.32682
 C594 C 0.15802 0.86561 0.34243
 C595 C 0.15010 0.85008 0.35030
 C596 C 0.12673 0.82683 0.35035
 C597 C 0.13444 0.81853 0.36588
 C598 C 0.15011 0.82658 0.37351
 C599 C 0.15794 0.84214 0.36584
 C600 C 0.17357 0.84984 0.37349
 C601 C 0.18158 0.86532 0.36573
 C602 C 0.17366 0.87317 0.35023
 H603 H 0.11527 0.84360 0.32083
 H604 H 0.15630 0.88563 0.32151
 H605 H 0.11518 0.82079 0.34361
 H606 H 0.15604 0.82123 0.38585
 H607 H 0.17947 0.84383 0.38556
 H608 H 0.17990 0.88494 0.34399
 O609 O 0.98276 0.93413 0.90987
 O610 O 0.98289 0.91298 0.88865
 C611 C 0.97662 0.92772 0.89507
 C612 C 0.96176 0.93731 0.88551
 C613 C 0.95579 0.93140 0.86838
 H614 H 0.96262 0.92018 0.86176
 O615 O 1.01701 1.06557 0.90952
 O616 O 1.01684 1.08665 0.88823
 C617 C 1.02313 1.07194 0.89470
 C618 C 1.03798 1.06233 0.88515
 C619 C 1.04396 1.06822 0.86802
 H620 H 1.03713 1.07943 0.86138
 O621 O 0.90977 0.98150 0.93463
 O622 O 0.88855 0.98125 0.91352
 C623 C 0.89504 0.97517 0.92832
 C624 C 0.88563 0.96034 0.93811
 C625 C 0.86857 0.95416 0.93231
 H626 H 0.86208 0.96051 0.92074
 O627 O 1.09002 1.01838 0.93444
 O628 O 1.11118 1.01852 0.91328
 C629 C 1.10473 1.02467 0.92806
 C630 C 1.11416 1.03956 0.93775
 C631 C 1.13120 1.04569 0.93186
 H632 H 1.13786 1.03897 0.92060
 O633 O 0.93519 0.90910 0.98270
 O634 O 0.91427 0.88771 0.98275
 C635 C 0.92896 0.89425 0.97654
 C636 C 0.93871 0.88475 0.96172
 C637 C 0.93289 0.86765 0.95560
 H638 H 0.92135 0.86119 0.96200
 O639 O 1.06474 1.09099 0.98220
 O640 O 1.08565 1.11239 0.98209
 C641 C 1.07095 1.10582 0.97594
 C642 C 1.06114 1.11523 0.96111
 C643 C 1.06689 1.13234 0.95494
 H644 H 1.07841 1.13887 0.96130
 O645 O 0.93427 1.01706 0.90964
 O646 O 0.91318 1.01686 0.88840
 C647 C 0.92787 1.02318 0.89483
 C648 C 0.93742 1.03807 0.88527
 C649 C 0.93142 1.04417 0.86821
 H650 H 0.91988 1.03770 0.86182
 O651 O 1.06544 0.98270 0.90968
 O652 O 1.08648 0.98281 0.88840
 C653 C 1.07180 0.97652 0.89488
 C654 C 1.06224 0.96158 0.88540
 C655 C 1.06817 0.95551 0.86832
 H656 H 1.07936 0.96233 0.86167
 O657 O 1.01832 0.90955 0.93475
 O658 O 1.01848 0.88827 0.91367
 C659 C 1.02462 0.89479 0.92842
 C660 C 1.03950 0.88540 0.93815
 C661 C 1.04571 0.86833 0.93231
 H662 H 1.03934 0.86181 0.92077
 O663 O 0.98150 1.09022 0.93440
 O664 O 0.98129 1.11142 0.91324
 C665 C 0.97519 1.10495 0.92803
 C666 C 0.96032 1.11439 0.93773
 C667 C 0.95414 1.13143 0.93181
 H668 H 0.96082 1.13809 0.92053
 O669 O 0.90912 1.06487 0.98235
 O670 O 0.88774 1.08581 0.98231
 C671 C 0.89429 1.07108 0.97615
 C672 C 0.88484 1.06124 0.96136
 C673 C 0.86773 1.06699 0.95524
 H674 H 0.86123 1.07854 0.96162
 O675 O 1.09081 0.93518 0.98244
 O676 O 1.11220 0.91426 0.98245
 C677 C 1.10563 0.92896 0.97624
 C678 C 1.11505 0.93872 0.96139
 C679 C 1.13213 0.93293 0.95524
 H680 H 1.13863 0.92140 0.96165
 O681 O 0.98165 1.06529 0.90958
 O682 O 0.98144 1.08637 0.88830
 C683 C 0.97540 1.07157 0.89478
 C684 C 0.96065 1.06175 0.88527
 C685 C 0.95446 1.06765 0.86822
 H686 H 0.96105 1.07900 0.86160
 O687 O 1.01811 0.93439 0.90984
 O688 O 1.01828 0.91324 0.88863
 C689 C 1.02433 0.92807 0.89504
 C690 C 1.03902 0.93790 0.88546
 C691 C 1.04515 0.93201 0.86837
 H692 H 1.03886 0.92035 0.86199
 O693 O 1.09033 0.98296 0.93448
 O694 O 1.11149 0.98307 0.91332
 C695 C 1.10514 0.97687 0.92812
 C696 C 1.11479 0.96214 0.93784
 C697 C 1.13187 0.95616 0.93190
 H698 H 1.13839 0.96291 0.92057
 O699 O 0.90951 1.01691 0.93458
 O700 O 0.88829 1.01670 0.91346
 C701 C 0.89468 1.02297 0.92822
 C702 C 0.88505 1.03773 0.93791
 C703 C 0.86794 1.04366 0.93199
 H704 H 0.86139 1.03686 0.92071
 O705 O 0.93372 1.08995 0.98227
 O706 O 0.91247 1.11102 0.98222
 C707 C 0.92727 1.10469 0.97605
 C708 C 0.93689 1.11428 0.96122
 C709 C 0.93089 1.13132 0.95510
 H710 H 0.91929 1.13768 0.96150
 O711 O 1.06618 0.91013 0.98252
 O712 O 1.08745 0.88908 0.98253
 C713 C 1.07263 0.89537 0.97636
 C714 C 1.06300 0.88571 0.96157
 C715 C 1.06901 0.86864 0.95555
 H716 H 1.08034 0.86214 0.96229
 O717 O 1.06519 1.01812 0.90955
 O718 O 1.08623 1.01826 0.88826
 C719 C 1.07144 1.02433 0.89472
 C720 C 1.06160 1.03903 0.88515
 C721 C 1.06739 1.04512 0.86801
 H722 H 1.07899 1.03879 0.86158
 O723 O 0.93461 0.98164 0.90976
 O724 O 0.91352 0.98140 0.88851
 C725 C 0.92833 0.97536 0.89497
 C726 C 0.93817 0.96063 0.88544
 C727 C 0.93238 0.95452 0.86832
 H728 H 0.92080 0.96085 0.86186
 O729 O 1.01686 1.09047 0.93438
 O730 O 1.01669 1.11166 0.91320
 C731 C 1.02293 1.10529 0.92799
 C732 C 1.03767 1.11496 0.93765
 C733 C 1.04360 1.13207 0.93168
 H734 H 1.03682 1.13860 0.92038
 O735 O 0.98296 0.90932 0.93480
 O736 O 0.98307 0.88805 0.91371
 C737 C 0.97687 0.89448 0.92848
 C738 C 0.96212 0.88488 0.93820
 C739 C 0.95611 0.86778 0.93229
 H740 H 0.96284 0.86119 0.92098
 O741 O 1.08976 1.06633 0.98224
 O742 O 1.11081 1.08759 0.98214
 C743 C 1.10448 1.07275 0.97601
 C744 C 1.11406 1.06305 0.96122
 C745 C 1.13110 1.06900 0.95514
 H746 H 1.13746 1.08061 0.96155
 O747 O 0.91019 0.93379 0.98268
 O748 O 0.88914 0.91253 0.98273
 C749 C 0.89546 0.92733 0.97651
 C750 C 0.88585 0.93693 0.96167
 C751 C 0.86879 0.93096 0.95569
 H752 H 0.86225 0.91968 0.96249
 Cu753 Cu 1.00053 0.92396 0.92443
 Cu754 Cu 1.00070 0.89850 0.89904
 Cu755 Cu 0.99928 1.07578 0.92409
 Cu756 Cu 0.99905 1.10115 0.89861
 Cu757 Cu 0.92415 0.99930 0.92426
 Cu758 Cu 0.89876 0.99902 0.89884
 Cu759 Cu 1.07563 1.00053 0.92416
 Cu760 Cu 1.10097 1.00068 0.89868
 C761 C 0.95297 0.95205 0.89384
 H762 H 0.95735 0.95653 0.90715
 C763 C 0.94113 0.93992 0.85967
 C764 C 1.04678 1.04762 0.89351
 H765 H 1.04240 1.04316 0.90683
 C766 C 1.05864 1.05970 0.85933
 C767 C 0.89407 0.95174 0.95291
 H768 H 0.90734 0.95627 0.95730
 C769 C 0.86003 0.93949 0.94103
 C770 C 1.10579 1.04822 0.95254
 H771 H 1.09254 1.04371 0.95700
 C772 C 1.13979 1.06039 0.94048
 C773 C 0.95344 0.89317 0.95303
 H774 H 0.95785 0.90646 0.95751
 C775 C 0.94151 0.85905 0.94091
 C776 C 1.04642 1.10674 0.95248
 H777 H 1.04207 1.09344 0.95700
 C778 C 1.05819 1.14088 0.94025
 C779 C 0.95215 1.04685 0.89360
 H780 H 0.95670 1.04239 0.90686
 C781 C 0.93986 1.05895 0.85957
 C782 C 1.04755 0.95280 0.89377
 H783 H 1.04306 0.95726 0.90706
 C784 C 1.05971 0.94074 0.85969
 C785 C 1.04813 0.89388 0.95290
 H786 H 1.04358 0.90715 0.95732
 C787 C 1.06045 0.85984 0.94094
 C788 C 0.95172 1.10602 0.95254
 H789 H 0.95626 1.09276 0.95702
 C790 C 0.93945 1.14002 0.94042
 C791 C 0.89329 1.04650 0.95271
 H792 H 0.90659 1.04215 0.95719
 C793 C 0.85917 1.05827 0.94058
 C794 C 1.10658 0.95344 0.95270
 H795 H 1.09330 0.95782 0.95720
 C796 C 1.14065 0.94158 0.94052
 O797 O 1.01833 0.93475 1.09072
 O798 O 1.01854 0.91367 1.11201
 C799 C 1.02458 0.92848 1.10553
 C800 C 1.03929 0.93834 1.11505
 C801 C 1.04547 0.93248 1.13213
 H802 H 1.03921 0.92083 1.13855
 O803 O 0.98189 1.06578 1.09045
 O804 O 0.98171 1.08696 1.11164
 C805 C 0.97567 1.07212 1.10524
 C806 C 0.96097 1.06231 1.11483
 C807 C 0.95489 1.06820 1.13192
 H808 H 0.96151 1.07957 1.13850
 O809 O 0.90970 1.01723 1.06584
 O810 O 0.88854 1.01714 1.08701
 C811 C 0.89489 1.02333 1.07220
 C812 C 0.88524 1.03805 1.06246
 C813 C 0.86814 1.04402 1.06838
 H814 H 0.86162 1.03730 1.07972
 O815 O 1.09041 0.98323 1.06572
 O816 O 1.11163 0.98342 1.08683
 C817 C 1.10524 0.97717 1.07207
 C818 C 1.11487 0.96241 1.06237
 C819 C 1.13197 0.95646 1.06828
 H820 H 1.13853 0.96323 1.07958
 O821 O 1.06623 0.91020 1.01796
 O822 O 1.08749 0.88914 1.01801
 C823 C 1.07269 0.89547 1.02418
 C824 C 1.06309 0.88587 1.03902
 C825 C 1.06909 0.86881 1.04508
 H826 H 1.08039 0.86227 1.03833
 O827 O 0.93380 1.09001 1.01770
 O828 O 0.91255 1.11108 1.01770
 C829 C 0.92736 1.10477 1.02387
 C830 C 0.93701 1.11444 1.03863
 C831 C 0.93106 1.13154 1.04460
 H832 H 0.91975 1.13806 1.03784
 O833 O 0.93486 0.98207 1.09076
 O834 O 0.91382 0.98193 1.11205
 C835 C 0.92860 0.97585 1.10559
 C836 C 0.93844 0.96113 1.11514
 C837 C 0.93265 0.95504 1.13227
 H838 H 0.92107 0.96138 1.13872
 O839 O 1.06532 1.01849 1.09057
 O840 O 1.08641 1.01872 1.11181
 C841 C 1.07161 1.02477 1.10536
 C842 C 1.06180 1.03953 1.11488
 C843 C 1.06763 1.04568 1.13197
 H844 H 1.07922 1.03935 1.13842
 O845 O 0.98313 0.90957 1.06592
 O846 O 0.98329 0.88838 1.08709
 C847 C 0.97705 0.89475 1.07231
 C848 C 0.96230 0.88510 1.06264
 C849 C 0.95635 0.86799 1.06859
 H850 H 0.96313 0.86144 1.07989
 O851 O 1.01704 1.09088 1.06551
 O852 O 1.01691 1.11216 1.08659
 C853 C 1.02312 1.10573 1.07183
 C854 C 1.03786 1.11534 1.06211
 C855 C 1.04387 1.13245 1.06802
 H856 H 1.03714 1.13903 1.07933
 O857 O 0.91023 0.93385 1.01813
 O858 O 0.88918 0.91259 1.01822
 C859 C 0.89551 0.92742 1.02436
 C860 C 0.88594 0.93711 1.03917
 C861 C 0.86892 0.93114 1.04528
 H862 H 0.86256 0.91952 1.03889
 O863 O 1.08979 1.06642 1.01768
 O864 O 1.11084 1.08768 1.01763
 C865 C 1.10452 1.07288 1.02385
 C866 C 1.11412 1.06326 1.03869
 C867 C 1.13115 1.06926 1.04477
 H868 H 1.13749 1.08085 1.03832
 O869 O 1.01724 1.06606 1.09043
 O870 O 1.01710 1.08721 1.11164
 C871 C 1.02338 1.07247 1.10522
 C872 C 1.03824 1.06289 1.11479
 C873 C 1.04425 1.06884 1.13189
 H874 H 1.03746 1.08009 1.13849
 O875 O 0.98298 0.93451 1.09073
 O876 O 0.98315 0.91344 1.11202
 C877 C 0.97686 0.92816 1.10555
 C878 C 0.96202 0.93779 1.11510
 C879 C 0.95604 0.93190 1.13223
 H880 H 0.96285 0.92067 1.13886
 O881 O 1.09012 1.01865 1.06566
 O882 O 1.11133 1.01888 1.08678
 C883 C 1.10484 1.02497 1.07199
 C884 C 1.11424 1.03984 1.06224
 C885 C 1.13127 1.04602 1.06811
 H886 H 1.13793 1.03935 1.07940
 O887 O 0.90999 0.98182 1.06592
 O888 O 0.88883 0.98168 1.08708
 C889 C 0.89528 0.97552 1.07230
 C890 C 0.88585 0.96062 1.06263
 C891 C 0.86883 0.95447 1.06854
 H892 H 0.86218 0.96119 1.07982
 O893 O 1.06480 1.09111 1.01763
 O894 O 1.08571 1.11250 1.01757
 C895 C 1.07102 1.10597 1.02379
 C896 C 1.06127 1.11547 1.03859
 C897 C 1.06709 1.13258 1.04470
 H898 H 1.07863 1.13904 1.03830
 O899 O 0.93524 0.90916 1.01814
 O900 O 0.91432 0.88778 1.01823
 C901 C 0.92903 0.89433 1.02437
 C902 C 0.93883 0.88488 1.03919
 C903 C 0.93307 0.86778 1.04534
 H904 H 0.92153 0.86128 1.03897
 O905 O 1.06563 0.98306 1.09064
 O906 O 1.08673 0.98325 1.11187
 C907 C 1.07204 0.97693 1.10544
 C908 C 1.06251 0.96202 1.11500
 C909 C 1.06850 0.95598 1.13208
 H910 H 1.07972 0.96280 1.13868
 O911 O 0.93455 1.01749 1.09070
 O912 O 0.91351 1.01739 1.11199
 C913 C 0.92819 1.02368 1.10550
 C914 C 0.93778 1.03860 1.11498
 C915 C 0.93188 1.04470 1.13208
 H916 H 0.92039 1.03821 1.13855
 O917 O 0.98168 1.09059 1.06551
 O918 O 0.98151 1.11189 1.08657
 C919 C 0.97538 1.10535 1.07181
 C920 C 0.96052 1.11475 1.06206
 C921 C 0.95436 1.13185 1.06784
 H922 H 0.96075 1.13839 1.07937
 O923 O 1.01849 0.90984 1.06587
 O924 O 1.01870 0.88864 1.08703
 C925 C 1.02480 0.89510 1.07223
 C926 C 1.03965 0.88567 1.06250
 C927 C 1.04585 0.86861 1.06838
 H928 H 1.03950 0.86213 1.07996
 O929 O 1.09080 0.93530 1.01788
 O930 O 1.11219 0.91437 1.01793
 C931 C 1.10563 0.92910 1.02409
 C932 C 1.11508 0.93893 1.03889
 C933 C 1.13217 0.93317 1.04500
 H934 H 1.13866 0.92162 1.03861
 O935 O 0.90919 1.06495 1.01779
 O936 O 0.88781 1.08588 1.01780
 C937 C 0.89438 1.07118 1.02401
 C938 C 0.88497 1.06142 1.03887
 C939 C 0.86788 1.06721 1.04499
 H940 H 0.86137 1.07872 1.03856
 Cu941 Cu 1.00072 0.92428 1.07618
 Cu942 Cu 1.00094 0.89891 1.10167
 Cu943 Cu 0.99948 1.07621 1.07586
 Cu944 Cu 0.99929 1.10169 1.10124
 Cu945 Cu 0.92481 0.92361 1.00041
 Cu946 Cu 0.89962 0.89801 1.00049
 Cu947 Cu 1.07637 0.92480 1.00020
 Cu948 Cu 1.10198 0.89961 1.00024
 Cu949 Cu 0.92359 1.07535 1.00002
 Cu950 Cu 0.89799 1.10056 1.00001
 Cu951 Cu 1.07518 1.07658 0.99995
 Cu952 Cu 1.10037 1.10218 0.99985
 Cu953 Cu 0.92438 0.99967 1.07619
 Cu954 Cu 0.89905 0.99952 1.10167
 Cu955 Cu 1.07575 1.00084 1.07604
 Cu956 Cu 1.10115 1.00109 1.10145
 C957 C 1.04779 0.95322 1.10669
 H958 H 1.04325 0.95765 1.09341
 C959 C 1.06006 0.94123 1.14076
 C960 C 0.95244 1.04739 1.10656
 H961 H 0.95691 1.04293 1.09327
 C962 C 0.94036 1.05948 1.14066
 C963 C 0.89345 1.04673 1.04759
 H964 H 0.90673 1.04235 1.04310
 C965 C 0.85935 1.05858 1.05972
 C966 C 1.10662 0.95367 1.04755
 H967 H 1.09333 0.95803 1.04307
 C968 C 1.14074 0.94185 1.05967
 C969 C 1.04826 0.89409 1.04771
 H970 H 1.04371 0.90736 1.04326
 C971 C 1.06055 0.86006 1.05974
 C972 C 0.95186 1.10624 1.04734
 H973 H 0.95638 1.09295 1.04296
 C974 C 0.93965 1.14037 1.05919
 C975 C 0.95324 0.95252 1.10675
 H976 H 0.95762 0.95699 1.09344
 C977 C 0.94138 0.94044 1.14093
 C978 C 1.04700 1.04812 1.10648
 H979 H 1.04259 1.04360 1.09319
 C980 C 1.05892 1.06031 1.14060
 C981 C 0.95356 0.89335 1.04783
 H982 H 0.95792 0.90665 1.04332
 C983 C 0.94175 0.85921 1.06002
 C984 C 1.04654 1.10706 1.04728
 H985 H 1.04214 1.09376 1.04280
 C986 C 1.05846 1.14118 1.05940
 C987 C 0.89421 0.95196 1.04783
 H988 H 0.90745 0.95648 1.04335
 C989 C 0.86024 0.93975 1.05995
 C990 C 1.10586 1.04844 1.04742
 H991 H 1.09262 1.04389 1.04297
 C992 C 1.13984 1.06071 1.05946
 O993 O 1.06526 0.51805 0.59049
 O994 O 1.08627 0.51817 0.61181
 C995 C 1.07153 0.52430 0.60530
 C996 C 1.06176 0.53911 0.61478
 C997 C 1.06759 0.54528 0.63187
 H998 H 1.07916 0.53893 0.63834
 O999 O 0.93449 0.48218 0.59028
 O1000 O 0.91340 0.48216 0.61151
 C1001 C 0.92817 0.47600 0.60510
 C1002 C 0.93791 0.46125 0.61469
 C1003 C 0.93202 0.45517 0.63179
 H1004 H 0.92043 0.46155 0.63819
 O1005 O 1.01735 0.59068 0.56531
 O1006 O 1.01722 0.61194 0.58643
 C1007 C 1.02347 0.60550 0.57168
 C1008 C 1.03829 0.61506 0.56204
 C1009 C 1.04435 0.63213 0.56800
 H1010 H 1.03759 0.63873 0.57928
 O1011 O 0.98254 0.40952 0.56563
 O1012 O 0.98254 0.38834 0.58682
 C1013 C 0.97637 0.39473 0.57201
 C1014 C 0.96159 0.38516 0.56232
 C1015 C 0.95551 0.36810 0.56830
 H1016 H 0.96220 0.36154 0.57964
 O1017 O 1.09019 0.56595 0.51776
 O1018 O 1.11135 0.58710 0.51782
 C1019 C 1.10494 0.57232 0.52400
 C1020 C 1.11444 0.56261 0.53883
 C1021 C 1.13152 0.56846 0.54493
 H1022 H 1.13795 0.58002 0.53851
 O1023 O 0.90986 0.43407 0.51761
 O1024 O 0.88872 0.41290 0.51761
 C1025 C 0.89509 0.42770 0.52379
 C1026 C 0.88553 0.43742 0.53858
 C1027 C 0.86849 0.43147 0.54471
 H1028 H 0.86212 0.41986 0.53833
 O1029 O 0.98201 0.56568 0.59010
 O1030 O 0.98185 0.58682 0.61132
 C1031 C 0.97577 0.57202 0.60488
 C1032 C 0.96100 0.56226 0.61441
 C1033 C 0.95490 0.56816 0.63150
 H1034 H 0.96157 0.57948 0.63811
 O1035 O 1.01779 0.43454 0.59053
 O1036 O 1.01783 0.41348 0.61183
 C1037 C 1.02396 0.42825 0.60536
 C1038 C 1.03870 0.43804 0.61491
 C1039 C 1.04484 0.43214 0.63199
 H1040 H 1.03852 0.42052 0.63840
 O1041 O 1.09028 0.48265 0.56576
 O1042 O 1.11141 0.48275 0.58695
 C1043 C 1.10505 0.47652 0.57217
 C1044 C 1.11464 0.46170 0.56252
 C1045 C 1.13171 0.45570 0.56847
 H1046 H 1.13828 0.46249 0.57976
 O1047 O 0.90959 0.51746 0.56526
 O1048 O 0.88838 0.51748 0.58638
 C1049 C 0.89480 0.52364 0.57158
 C1050 C 0.88525 0.53842 0.56184
 C1051 C 0.86818 0.54447 0.56774
 H1052 H 0.86159 0.53774 0.57905
 O1053 O 0.93417 0.59022 0.51729
 O1054 O 0.91302 0.61139 0.51724
 C1055 C 0.92779 0.60501 0.52345
 C1056 C 0.93746 0.61462 0.53824
 C1057 C 0.93151 0.63170 0.54430
 H1058 H 0.91992 0.63807 0.53787
 O1059 O 1.06588 0.40965 0.51801
 O1060 O 1.08702 0.38848 0.51813
 C1061 C 1.07223 0.39488 0.52426
 C1062 C 1.06250 0.38534 0.53905
 C1063 C 1.06840 0.36827 0.54519
 H1064 H 1.08000 0.36186 0.53884
 O1065 O 0.93439 0.51760 0.59017
 O1066 O 0.91331 0.51761 0.61140
 C1067 C 0.92804 0.52381 0.60495
 C1068 C 0.93768 0.53868 0.61447
 C1069 C 0.93177 0.54477 0.63156
 H1070 H 0.92024 0.53833 0.63799
 O1071 O 1.06536 0.48262 0.59054
 O1072 O 1.08638 0.48271 0.61185
 C1073 C 1.07168 0.47646 0.60537
 C1074 C 1.06204 0.46160 0.61490
 C1075 C 1.06798 0.45552 0.63198
 H1076 H 1.07922 0.46228 0.63860
 O1077 O 1.01791 0.40962 0.56569
 O1078 O 1.01794 0.38843 0.58688
 C1079 C 1.02413 0.39486 0.57210
 C1080 C 1.03898 0.38534 0.56245
 C1081 C 1.04506 0.36827 0.56840
 H1082 H 1.03831 0.36165 0.57966
 O1083 O 0.98198 0.59051 0.56517
 O1084 O 0.98181 0.61177 0.58628
 C1085 C 0.97571 0.60529 0.57149
 C1086 C 0.96088 0.61474 0.56175
 C1087 C 0.95475 0.63182 0.56760
 H1088 H 0.96144 0.63849 0.57888
 O1089 O 0.90944 0.56527 0.51730
 O1090 O 0.88816 0.58631 0.51725
 C1091 C 0.89464 0.57157 0.52347
 C1092 C 0.88515 0.56184 0.53830
 C1093 C 0.86808 0.56771 0.54440
 H1094 H 0.86164 0.57927 0.53799
 O1095 O 1.09057 0.43464 0.51803
 O1096 O 1.11185 0.41360 0.51816
 C1097 C 1.10535 0.42836 0.52428
 C1098 C 1.11480 0.43817 0.53909
 C1099 C 1.13187 0.43236 0.54524
 H1100 H 1.13834 0.42078 0.53887
 O1101 O 0.98243 0.43446 0.59044
 O1102 O 0.98244 0.41340 0.61175
 C1103 C 0.97624 0.42814 0.60525
 C1104 C 0.96140 0.43783 0.61474
 C1105 C 0.95533 0.43195 0.63184
 H1106 H 0.96207 0.42070 0.63850
 O1107 O 1.01737 0.56581 0.59019
 O1108 O 1.01724 0.58695 0.61142
 C1109 C 1.02348 0.57219 0.60501
 C1110 C 1.03828 0.56255 0.61461
 C1111 C 1.04430 0.56853 0.63170
 H1112 H 1.03755 0.57982 0.63827
 O1113 O 0.90970 0.48204 0.56536
 O1114 O 0.88849 0.48201 0.58647
 C1115 C 0.89494 0.47581 0.57171
 C1116 C 0.88548 0.46093 0.56204
 C1117 C 0.86845 0.45481 0.56796
 H1118 H 0.86182 0.46154 0.57923
 O1119 O 1.09013 0.51808 0.56566
 O1120 O 1.11126 0.51820 0.58686
 C1121 C 1.10486 0.52432 0.57204
 C1122 C 1.11438 0.53914 0.56234
 C1123 C 1.13145 0.54518 0.56822
 H1124 H 1.13806 0.53842 0.57950
 O1125 O 0.93478 0.40931 0.51771
 O1126 O 0.91378 0.38800 0.51771
 C1127 C 0.92849 0.39450 0.52392
 C1128 C 0.93819 0.38503 0.53879
 C1129 C 0.93229 0.36798 0.54497
 H1130 H 0.92072 0.36154 0.53859
 O1131 O 1.06533 0.59077 0.51766
 O1132 O 1.08634 0.61207 0.51772
 C1133 C 1.07160 0.60559 0.52386
 C1134 C 1.06182 0.61512 0.53864
 C1135 C 1.06769 0.63219 0.54480
 H1136 H 1.07929 0.63861 0.53846
 Cu1137 Cu 1.07565 0.50034 0.57599
 Cu1138 Cu 1.10095 0.50047 0.60151
 Cu1139 Cu 0.92416 0.49982 0.57565
 Cu1140 Cu 0.89876 0.49981 0.60107
 Cu1141 Cu 0.99969 0.57606 0.57557
 Cu1142 Cu 0.99951 0.60150 0.60099
 Cu1143 Cu 1.00017 0.42414 0.57595
 Cu1144 Cu 1.00019 0.39879 0.60145
 C1145 C 1.04699 0.54773 0.60635
 H1146 H 1.04257 0.54320 0.59306
 C1147 C 1.05894 0.55998 0.64044
 C1148 C 0.95271 0.45259 0.60637
 H1149 H 0.95717 0.45704 0.59307
 C1150 C 0.94066 0.44053 0.64049
 C1151 C 1.04701 0.60676 0.54724
 H1152 H 1.04257 0.59348 0.54272
 C1153 C 1.05902 0.64081 0.55946
 C1154 C 0.95295 0.39342 0.54745
 H1155 H 0.95741 0.40668 0.54292
 C1156 C 0.94087 0.35940 0.55971
 C1157 C 1.10607 0.54784 0.54753
 H1158 H 1.09280 0.54340 0.54306
 C1159 C 1.14014 0.55982 0.55960
 C1160 C 0.89382 0.45226 0.54723
 H1161 H 0.90706 0.45676 0.54275
 C1162 C 0.85984 0.44010 0.55938
 C1163 C 0.95241 0.54741 0.60609
 H1164 H 0.95688 0.54294 0.59281
 C1165 C 0.94031 0.55950 0.64019
 C1166 C 1.04729 0.45288 0.60656
 H1167 H 1.04280 0.45734 0.59328
 C1168 C 1.05946 0.44081 0.64064
 C1169 C 1.10638 0.45295 0.54772
 H1170 H 1.09311 0.45735 0.54321
 C1171 C 1.14045 0.44105 0.55991
 C1172 C 0.89353 0.54708 0.54701
 H1173 H 0.90680 0.54264 0.54254
 C1174 C 0.85948 0.55910 0.55911
 C1175 C 0.95225 0.60634 0.54695
 H1176 H 0.95676 0.59306 0.54252
 C1177 C 0.94008 0.64042 0.55896
 C1178 C 1.04768 0.39367 0.54767
 H1179 H 1.04322 0.40695 0.54316
 C1180 C 1.05975 0.35962 0.55985
 O1181 O 1.06585 0.48233 0.40990
 O1182 O 1.08694 0.48233 0.38866
 C1183 C 1.07220 0.47613 0.39510
 C1184 C 1.06256 0.46128 0.38556
 C1185 C 1.06847 0.45525 0.36845
 H1186 H 1.07970 0.46203 0.36184
 O1187 O 0.93477 0.51727 0.40936
 O1188 O 0.91378 0.51719 0.38801
 C1189 C 0.92848 0.52342 0.39451
 C1190 C 0.93818 0.53824 0.38498
 C1191 C 0.93235 0.54428 0.36785
 H1192 H 0.92083 0.53784 0.36139
 O1193 O 0.98226 0.59026 0.43426
 O1194 O 0.98221 0.61143 0.41306
 C1195 C 0.97602 0.60500 0.42784
 C1196 C 0.96114 0.61450 0.43746
 C1197 C 0.95505 0.63156 0.43151
 H1198 H 0.96180 0.63819 0.42026
 O1199 O 1.01822 0.40939 0.43465
 O1200 O 1.01837 0.38814 0.41354
 C1201 C 1.02447 0.39461 0.42833
 C1202 C 1.03927 0.38513 0.43809
 C1203 C 1.04542 0.36805 0.43222
 H1204 H 1.03906 0.36160 0.42063
 O1205 O 1.09071 0.43452 0.48260
 O1206 O 1.11199 0.41348 0.48267
 C1207 C 1.10552 0.42822 0.47645
 C1208 C 1.11504 0.43795 0.46164
 C1209 C 1.13209 0.43205 0.45550
 H1210 H 1.13850 0.42046 0.46189
 O1211 O 0.90949 0.56522 0.48186
 O1212 O 0.88820 0.58625 0.48176
 C1213 C 0.89471 0.57149 0.47562
 C1214 C 0.88526 0.56170 0.46080
 C1215 C 0.86820 0.56751 0.45462
 H1216 H 0.86172 0.57909 0.46098
 O1217 O 1.01779 0.56545 0.40955
 O1218 O 1.01777 0.58649 0.38823
 C1219 C 1.02398 0.57177 0.39474
 C1220 C 1.03883 0.56208 0.38527
 C1221 C 1.04497 0.56797 0.36819
 H1222 H 1.03856 0.57952 0.36172
 O1223 O 0.98285 0.43415 0.40967
 O1224 O 0.98296 0.41302 0.38843
 C1225 C 0.97673 0.42778 0.39485
 C1226 C 0.96193 0.43742 0.38525
 C1227 C 0.95595 0.43149 0.36813
 H1228 H 0.96273 0.42023 0.36154
 O1229 O 1.09058 0.51786 0.43471
 O1230 O 1.11179 0.51789 0.41360
 C1231 C 1.10533 0.52409 0.42835
 C1232 C 1.11478 0.53899 0.43801
 C1233 C 1.13180 0.54513 0.43207
 H1234 H 1.13844 0.53839 0.42081
 O1235 O 0.90997 0.48182 0.43420
 O1236 O 0.88884 0.48170 0.41299
 C1237 C 0.89524 0.47557 0.42781
 C1238 C 0.88572 0.46076 0.43754
 C1239 C 0.86868 0.45464 0.43162
 H1240 H 0.86229 0.46102 0.42001
 O1241 O 1.06541 0.59070 0.48223
 O1242 O 1.08641 0.61200 0.48222
 C1243 C 1.07170 0.60550 0.47602
 C1244 C 1.06198 0.61497 0.46116
 C1245 C 1.06783 0.63203 0.45497
 H1246 H 1.07938 0.63850 0.46134
 O1247 O 0.93487 0.40924 0.48228
 O1248 O 0.91387 0.38793 0.48223
 C1249 C 0.92861 0.39442 0.47608
 C1250 C 0.93841 0.38489 0.46131
 C1251 C 0.93260 0.36778 0.45519
 H1252 H 0.92103 0.36133 0.46155
 O1253 O 0.93488 0.48186 0.40941
 O1254 O 0.91389 0.48173 0.38807
 C1255 C 0.92863 0.47562 0.39459
 C1256 C 0.93843 0.46083 0.38510
 C1257 C 0.93264 0.45470 0.36799
 H1258 H 0.92108 0.46106 0.36151
 O1259 O 1.06576 0.51775 0.40982
 O1260 O 1.08685 0.51778 0.38859
 C1261 C 1.07208 0.52393 0.39501
 C1262 C 1.06237 0.53870 0.38542
 C1263 C 1.06830 0.54478 0.36834
 H1264 H 1.07962 0.53808 0.36177
 O1265 O 0.98286 0.40934 0.43461
 O1266 O 0.98296 0.38809 0.41349
 C1267 C 0.97673 0.39453 0.42825
 C1268 C 0.96193 0.38497 0.43791
 C1269 C 0.95594 0.36786 0.43200
 H1270 H 0.96273 0.36125 0.42074
 O1271 O 1.01763 0.59038 0.43437
 O1272 O 1.01762 0.61154 0.41316
 C1273 C 1.02378 0.60517 0.42798
 C1274 C 1.03855 0.61478 0.43766
 C1275 C 1.04457 0.63185 0.43168
 H1276 H 1.03784 0.63840 0.42036
 O1277 O 0.90997 0.43404 0.48216
 O1278 O 0.88884 0.41287 0.48211
 C1279 C 0.89524 0.42765 0.47593
 C1280 C 0.88574 0.43731 0.46105
 C1281 C 0.86870 0.43138 0.45495
 H1282 H 0.86209 0.42011 0.46169
 O1283 O 1.09033 0.56593 0.48234
 O1284 O 1.11147 0.58710 0.48233
 C1285 C 1.10510 0.57230 0.47617
 C1286 C 1.11468 0.56256 0.46140
 C1287 C 1.13171 0.56852 0.45527
 H1288 H 1.13805 0.58017 0.46162
 O1289 O 1.01820 0.43429 0.40980
 O1290 O 1.01835 0.41317 0.38856
 C1291 C 1.02444 0.42797 0.39501
 C1292 C 1.03920 0.43774 0.38550
 C1293 C 1.04531 0.43190 0.36839
 H1294 H 1.03895 0.42031 0.36194
 O1295 O 0.98243 0.56529 0.40947
 O1296 O 0.98239 0.58634 0.38816
 C1297 C 0.97626 0.57157 0.39463
 C1298 C 0.96153 0.56179 0.38507
 C1299 C 0.95552 0.56763 0.36793
 H1300 H 0.96223 0.57892 0.36131
 O1301 O 0.90984 0.51724 0.43413
 O1302 O 0.88872 0.51716 0.41291
 C1303 C 0.89507 0.52338 0.42771
 C1304 C 0.88546 0.53819 0.43735
 C1305 C 0.86840 0.54418 0.43138
 H1306 H 0.86186 0.53740 0.42008
 O1307 O 1.09067 0.48243 0.43478
 O1308 O 1.11187 0.48242 0.41366
 C1309 C 1.10545 0.47625 0.42844
 C1310 C 1.11498 0.46143 0.43815
 C1311 C 1.13203 0.45535 0.43222
 H1312 H 1.13862 0.46208 0.42092
 O1313 O 1.06593 0.40962 0.48258
 O1314 O 1.08708 0.38845 0.48265
 C1315 C 1.07233 0.39484 0.47642
 C1316 C 1.06270 0.38526 0.46159
 C1317 C 1.06865 0.36818 0.45554
 H1318 H 1.07993 0.36161 0.46229
 O1319 O 0.93423 0.59016 0.48187
 O1320 O 0.91308 0.61133 0.48176
 C1321 C 0.92787 0.60492 0.47563
 C1322 C 0.93760 0.61447 0.46084
 C1323 C 0.93169 0.63154 0.45470
 H1324 H 0.92008 0.63793 0.46104
 Cu1325 Cu 1.07610 0.50009 0.42443
 Cu1326 Cu 1.10149 0.50010 0.39900
 Cu1327 Cu 0.92446 0.49956 0.42390
 Cu1328 Cu 0.89919 0.49943 0.39836
 Cu1329 Cu 1.07571 0.57622 0.49999
 Cu1330 Cu 1.10101 0.60171 0.50003
 Cu1331 Cu 1.07616 0.42422 0.50030
 Cu1332 Cu 1.10162 0.39888 0.50042
 Cu1333 Cu 0.92395 0.57561 0.49959
 Cu1334 Cu 0.89848 0.60094 0.49949
 Cu1335 Cu 0.92447 0.42379 0.49994
 Cu1336 Cu 0.89918 0.39829 0.49991
 Cu1337 Cu 1.00003 0.57574 0.42404
 Cu1338 Cu 0.99999 0.60107 0.39852
 Cu1339 Cu 1.00052 0.42391 0.42430
 Cu1340 Cu 1.00067 0.39847 0.39888
 C1341 C 1.04781 0.45255 0.39388
 H1342 H 1.04334 0.45698 0.40718
 C1343 C 1.05992 0.44057 0.35975
 C1344 C 0.95289 0.54697 0.39339
 H1345 H 0.95730 0.54255 0.40672
 C1346 C 0.94094 0.55897 0.35921
 C1347 C 0.95244 0.60616 0.45224
 H1348 H 0.95691 0.59289 0.45674
 C1349 C 0.94034 0.64020 0.44005
 C1350 C 1.04789 0.39353 0.45289
 H1351 H 1.04338 0.40680 0.45733
 C1352 C 1.06009 0.35946 0.44087
 C1353 C 1.10669 0.45275 0.45297
 H1354 H 1.09343 0.45722 0.45746
 C1355 C 1.14070 0.44067 0.44081
 C1356 C 0.89369 0.54693 0.45217
 H1357 H 0.90696 0.54253 0.45669
 C1358 C 0.85965 0.55883 0.43993
 C1359 C 1.04752 0.54733 0.39369
 H1360 H 1.04303 0.54287 0.40697
 C1361 C 1.05968 0.55939 0.35961
 C1362 C 0.95319 0.45221 0.39354
 H1363 H 0.95757 0.45670 0.40685
 C1364 C 0.94132 0.44005 0.35938
 C1365 C 1.10642 0.54768 0.45279
 H1366 H 1.09319 0.54317 0.45728
 C1367 C 1.14038 0.55988 0.44062
 C1368 C 0.89405 0.45211 0.45237
 H1369 H 0.90730 0.45660 0.45685
 C1370 C 0.86005 0.43998 0.44026
 C1371 C 1.04722 0.60654 0.45252
 H1372 H 1.04279 0.59327 0.45705
 C1373 C 1.05920 0.64059 0.44024
 C1374 C 0.95318 0.39328 0.45268
 H1375 H 0.95758 0.40658 0.45716
 C1376 C 0.94130 0.35915 0.44055
 O1377 O 0.56516 1.01840 0.59055
 O1378 O 0.58618 1.01861 0.61186
 C1379 C 0.57141 1.02468 0.60535
 C1380 C 0.56160 1.03947 0.61482
 C1381 C 0.56740 1.04565 0.63192
 H1382 H 0.57897 1.03932 0.63840
 O1383 O 0.43438 0.98227 0.59040
 O1384 O 0.41325 0.98222 0.61160
 C1385 C 0.42805 0.97610 0.60521
 C1386 C 0.43781 0.96138 0.61484
 C1387 C 0.43189 0.95529 0.63192
 H1388 H 0.42026 0.96163 0.63828
 O1389 O 0.51702 1.09075 0.56524
 O1390 O 0.51688 1.11206 0.58630
 C1391 C 0.52312 1.10559 0.57156
 C1392 C 0.53790 1.11515 0.56186
 C1393 C 0.54390 1.13228 0.56774
 H1394 H 0.53714 1.13890 0.57900
 O1395 O 0.48268 0.90977 0.56592
 O1396 O 0.48272 0.88859 0.58711
 C1397 C 0.47656 0.89496 0.57229
 C1398 C 0.46187 0.88531 0.56253
 C1399 C 0.45585 0.86821 0.56845
 H1400 H 0.46223 0.86185 0.58008
 O1401 O 0.58998 1.06611 0.51770
 O1402 O 0.61107 1.08734 0.51768
 C1403 C 0.60470 1.07256 0.52391
 C1404 C 0.61423 1.06295 0.53879
 C1405 C 0.63124 1.06895 0.54493
 H1406 H 0.63762 1.08053 0.53850
 O1407 O 0.41007 0.93406 0.51769
 O1408 O 0.38899 0.91283 0.51773
 C1409 C 0.39533 0.92766 0.52387
 C1410 C 0.38571 0.93735 0.53865
 C1411 C 0.36867 0.93137 0.54469
 H1412 H 0.36216 0.92003 0.53796
 O1413 O 0.48175 1.06577 0.59012
 O1414 O 0.48157 1.08696 0.61130
 C1415 C 0.47550 1.07213 0.60489
 C1416 C 0.46074 1.06239 0.61444
 C1417 C 0.45465 1.06830 0.63152
 H1418 H 0.46131 1.07963 0.63811
 O1419 O 0.51783 0.93489 0.59083
 O1420 O 0.51792 0.91384 0.61214
 C1421 C 0.52402 0.92862 0.60566
 C1422 C 0.53875 0.93845 0.61519
 C1423 C 0.54489 0.93261 0.63229
 H1424 H 0.53858 0.92101 0.63874
 O1425 O 0.59023 0.98303 0.56586
 O1426 O 0.61138 0.98320 0.58704
 C1427 C 0.60502 0.97693 0.57226
 C1428 C 0.61464 0.96213 0.56263
 C1429 C 0.63173 0.95618 0.56858
 H1430 H 0.63828 0.96299 0.57985
 O1431 O 0.40943 1.01747 0.56532
 O1432 O 0.38818 1.01746 0.58640
 C1433 C 0.39461 1.02362 0.57161
 C1434 C 0.38504 1.03836 0.56183
 C1435 C 0.36796 1.04440 0.56771
 H1436 H 0.36138 1.03769 0.57903
 O1437 O 0.43391 1.09018 0.51726
 O1438 O 0.41271 1.11131 0.51715
 C1439 C 0.42748 1.10497 0.52339
 C1440 C 0.43709 1.11460 0.53821
 C1441 C 0.43107 1.13165 0.54430
 H1442 H 0.41947 1.13798 0.53789
 O1443 O 0.56591 0.91000 0.51819
 O1444 O 0.58709 0.88887 0.51836
 C1445 C 0.57230 0.89526 0.52447
 C1446 C 0.56258 0.88573 0.53927
 C1447 C 0.56846 0.86864 0.54537
 H1448 H 0.58004 0.86222 0.53897
 O1449 O 0.43419 1.01769 0.59026
 O1450 O 0.41308 1.01768 0.61147
 C1451 C 0.42780 1.02390 0.60503
 C1452 C 0.43743 1.03879 0.61453
 C1453 C 0.43151 1.04492 0.63161
 H1454 H 0.41998 1.03848 0.63806
 O1455 O 0.56535 0.98298 0.59068
 O1456 O 0.58638 0.98315 0.61198
 C1457 C 0.57169 0.97687 0.60552
 C1458 C 0.56207 0.96203 0.61509
 C1459 C 0.56801 0.95601 0.63219
 H1460 H 0.57925 0.96281 0.63879
 O1461 O 0.51803 0.90997 0.56600
 O1462 O 0.51811 0.88880 0.58718
 C1463 C 0.52427 0.89523 0.57240
 C1464 C 0.53912 0.88573 0.56273
 C1465 C 0.54519 0.86863 0.56863
 H1466 H 0.53845 0.86200 0.57990
 O1467 O 0.48165 1.09056 0.56517
 O1468 O 0.48148 1.11187 0.58623
 C1469 C 0.47537 1.10534 0.57147
 C1470 C 0.46051 1.11475 0.56173
 C1471 C 0.45431 1.13180 0.56761
 H1472 H 0.46097 1.13847 0.57890
 O1473 O 0.40924 1.06517 0.51727
 O1474 O 0.38791 1.08616 0.51715
 C1475 C 0.39442 1.07145 0.52340
 C1476 C 0.38492 1.06173 0.53824
 C1477 C 0.36784 1.06759 0.54432
 H1478 H 0.36139 1.07913 0.53787
 O1479 O 0.59062 0.93498 0.51816
 O1480 O 0.61193 0.91398 0.51832
 C1481 C 0.60541 0.92874 0.52442
 C1482 C 0.61485 0.93858 0.53921
 C1483 C 0.63193 0.93281 0.54536
 H1484 H 0.63842 0.92125 0.53900
 O1485 O 0.48247 0.93472 0.59071
 O1486 O 0.48251 0.91367 0.61203
 C1487 C 0.47627 0.92839 0.60552
 C1488 C 0.46138 0.93803 0.61497
 C1489 C 0.45527 0.93214 0.63206
 H1490 H 0.46202 0.92090 0.63873
 O1491 O 0.51711 1.06599 0.59023
 O1492 O 0.51696 1.08718 0.61141
 C1493 C 0.52323 1.07242 0.60503
 C1494 C 0.53806 1.06284 0.61464
 C1495 C 0.54404 1.06882 0.63175
 H1496 H 0.53725 1.08009 0.63831
 O1497 O 0.40961 0.98205 0.56546
 O1498 O 0.38836 0.98199 0.58652
 C1499 C 0.39486 0.97580 0.57178
 C1500 C 0.38546 0.96090 0.56207
 C1501 C 0.36842 0.95471 0.56793
 H1502 H 0.36193 0.96111 0.57948
 O1503 O 0.59005 1.01845 0.56574
 O1504 O 0.61119 1.01865 0.58693
 C1505 C 0.60477 1.02474 0.57211
 C1506 C 0.61424 1.03958 0.56238
 C1507 C 0.63125 1.04575 0.56832
 H1508 H 0.63785 1.03910 0.57965
 O1509 O 0.43508 0.90938 0.51783
 O1510 O 0.41412 0.88803 0.51788
 C1511 C 0.42881 0.89457 0.52407
 C1512 C 0.43851 0.88515 0.53896
 C1513 C 0.43270 0.86805 0.54506
 H1514 H 0.42150 0.86135 0.53830
 O1515 O 0.56497 1.09079 0.51753
 O1516 O 0.58593 1.11214 0.51752
 C1517 C 0.57120 1.10564 0.52369
 C1518 C 0.56140 1.11519 0.53844
 C1519 C 0.56721 1.13231 0.54451
 H1520 H 0.57878 1.13874 0.53814
 Cu1521 Cu 0.57559 1.00070 0.57608
 Cu1522 Cu 0.60090 1.00092 0.60159
 Cu1523 Cu 0.42402 0.99987 0.57575
 Cu1524 Cu 0.39859 0.99983 0.60112
 Cu1525 Cu 0.49940 1.07615 0.57558
 Cu1526 Cu 0.49921 1.10165 0.60093
 Cu1527 Cu 0.50024 0.92445 0.57625
 Cu1528 Cu 0.50032 0.89911 0.60176
 C1529 C 0.54682 1.04805 0.60638
 H1530 H 0.54243 1.04351 0.59309
 C1531 C 0.55869 1.06030 0.64050
 C1532 C 0.45267 0.95277 0.60657
 H1533 H 0.45715 0.95723 0.59328
 C1534 C 0.44055 0.94068 0.64065
 C1535 C 0.54663 1.10681 0.54709
 H1536 H 0.54224 1.09351 0.54264
 C1537 C 0.55854 1.14097 0.55915
 C1538 C 0.45321 0.89358 0.54767
 H1539 H 0.45761 0.90688 0.54319
 C1540 C 0.44128 0.85946 0.55979
 C1541 C 0.60594 1.04815 0.54750
 H1542 H 0.59271 1.04361 0.54300
 C1543 C 0.63987 1.06042 0.55968
 C1544 C 0.39391 0.95223 0.54732
 H1545 H 0.40715 0.95677 0.54288
 C1546 C 0.35991 0.93996 0.55931
 C1547 C 0.45215 1.04752 0.60615
 H1548 H 0.45663 1.04303 0.59287
 C1549 C 0.44005 1.05966 0.64022
 C1550 C 0.54733 0.95327 0.60679
 H1551 H 0.54283 0.95768 0.59349
 C1552 C 0.55951 0.94132 0.64091
 C1553 C 0.60640 0.95335 0.54783
 H1554 H 0.59312 0.95771 0.54332
 C1555 C 0.64049 0.94154 0.56002
 C1556 C 0.39332 1.04701 0.54698
 H1557 H 0.40660 1.04258 0.54253
 C1558 C 0.35924 1.05900 0.55904
 C1559 C 0.45192 1.10636 0.54691
 H1560 H 0.45648 1.09310 0.54245
 C1561 C 0.43960 1.14036 0.55899
 C1562 C 0.54780 0.89407 0.54794
 H1563 H 0.54334 0.90736 0.54347
 C1564 C 0.55984 0.85997 0.56002
 O1565 O 0.56575 0.98229 0.40973
 O1566 O 0.58686 0.98232 0.38852
 C1567 C 0.57214 0.97609 0.39496
 C1568 C 0.56255 0.96118 0.38545
 C1569 C 0.56849 0.95511 0.36836
 H1570 H 0.57970 0.96190 0.36173
 O1571 O 0.43469 1.01706 0.40919
 O1572 O 0.41367 1.01688 0.38788
 C1573 C 0.42836 1.02317 0.39435
 C1574 C 0.43799 1.03801 0.38479
 C1575 C 0.43210 1.04406 0.36768
 H1576 H 0.42058 1.03758 0.36124
 O1577 O 0.48195 1.09012 0.43408
 O1578 O 0.48188 1.11129 0.41289
 C1579 C 0.47570 1.10486 0.42767
 C1580 C 0.46083 1.11435 0.43731
 C1581 C 0.45473 1.13142 0.43138
 H1582 H 0.46146 1.13805 0.42010
 O1583 O 0.51836 0.90937 0.43476
 O1584 O 0.51855 0.88805 0.41371
 C1585 C 0.52464 0.89458 0.42848
 C1586 C 0.53945 0.88515 0.43829
 C1587 C 0.54564 0.86807 0.43248
 H1588 H 0.53930 0.86157 0.42091
 O1589 O 0.59071 0.93482 0.48272
 O1590 O 0.61202 0.91382 0.48284
 C1591 C 0.60552 0.92853 0.47658
 C1592 C 0.61501 0.93823 0.46173
 C1593 C 0.63208 0.93236 0.45564
 H1594 H 0.63853 0.92081 0.46208
 O1595 O 0.40936 1.06504 0.48182
 O1596 O 0.38803 1.08602 0.48165
 C1597 C 0.39458 1.07127 0.47555
 C1598 C 0.38517 1.06143 0.46073
 C1599 C 0.36807 1.06717 0.45458
 H1600 H 0.36156 1.07872 0.46094
 O1601 O 0.51750 1.06535 0.40937
 O1602 O 0.51747 1.08639 0.38805
 C1603 C 0.52369 1.07167 0.39456
 C1604 C 0.53854 1.06199 0.38509
 C1605 C 0.54465 1.06786 0.36799
 H1606 H 0.53822 1.07940 0.36152
 O1607 O 0.48294 0.93399 0.40971
 O1608 O 0.48309 0.91280 0.38853
 C1609 C 0.47683 0.92757 0.39491
 C1610 C 0.46201 0.93717 0.38529
 C1611 C 0.45605 0.93120 0.36819
 H1612 H 0.46285 0.91993 0.36162
 O1613 O 0.59035 1.01790 0.43455
 O1614 O 0.61159 1.01795 0.41347
 C1615 C 0.60510 1.02414 0.42822
 C1616 C 0.61454 1.03901 0.43793
 C1617 C 0.63162 1.04511 0.43209
 H1618 H 0.63809 1.03866 0.42056
 O1619 O 0.41002 0.98161 0.43415
 O1620 O 0.38886 0.98139 0.41298
 C1621 C 0.39529 0.97532 0.42780
 C1622 C 0.38582 0.96052 0.43758
 C1623 C 0.36877 0.95436 0.43172
 H1624 H 0.36234 0.96071 0.42011
 O1625 O 0.56508 1.09068 0.48210
 O1626 O 0.58603 1.11204 0.48205
 C1627 C 0.57133 1.10550 0.47587
 C1628 C 0.56158 1.11494 0.46102
 C1629 C 0.56736 1.13205 0.45489
 H1630 H 0.57888 1.13855 0.46129
 O1631 O 0.43509 0.90917 0.48238
 O1632 O 0.41412 0.88783 0.48240
 C1633 C 0.42884 0.89432 0.47622
 C1634 C 0.43861 0.88477 0.46145
 C1635 C 0.43275 0.86768 0.45533
 H1636 H 0.42116 0.86127 0.46169
 O1637 O 0.43492 0.98164 0.40935
 O1638 O 0.41390 0.98142 0.38804
 C1639 C 0.42866 0.97535 0.39455
 C1640 C 0.43848 0.96055 0.38510
 C1641 C 0.43270 0.95437 0.36799
 H1642 H 0.42113 0.96070 0.36149
 O1643 O 0.56553 1.01771 0.40966
 O1644 O 0.58665 1.01778 0.38845
 C1645 C 0.57186 1.02390 0.39485
 C1646 C 0.56212 1.03865 0.38525
 C1647 C 0.56802 1.04470 0.36815
 H1648 H 0.57933 1.03802 0.36158
 O1649 O 0.48300 0.90919 0.43465
 O1650 O 0.48314 0.88788 0.41359
 C1651 C 0.47690 0.89435 0.42833
 C1652 C 0.46209 0.88480 0.43801
 C1653 C 0.45605 0.86771 0.43209
 H1654 H 0.46278 0.86110 0.42080
 O1655 O 0.51731 1.09029 0.43417
 O1656 O 0.51728 1.11146 0.41297
 C1657 C 0.52344 1.10509 0.42779
 C1658 C 0.53817 1.11473 0.43750
 C1659 C 0.54413 1.13184 0.43157
 H1660 H 0.53739 1.13840 0.42026
 O1661 O 0.41018 0.93396 0.48224
 O1662 O 0.38910 0.91274 0.48225
 C1663 C 0.39546 0.92752 0.47603
 C1664 C 0.38592 0.93713 0.46115
 C1665 C 0.36887 0.93117 0.45511
 H1666 H 0.36229 0.91990 0.46189
 O1667 O 0.59002 1.06593 0.48226
 O1668 O 0.61110 1.08716 0.48219
 C1669 C 0.60476 1.07232 0.47607
 C1670 C 0.61436 1.06259 0.46131
 C1671 C 0.63144 1.06850 0.45528
 H1672 H 0.63799 1.07982 0.46200
 O1673 O 0.51829 0.93413 0.40978
 O1674 O 0.51848 0.91295 0.38859
 C1675 C 0.52454 0.92778 0.39500
 C1676 C 0.53927 0.93757 0.38545
 C1677 C 0.54540 0.93168 0.36837
 H1678 H 0.53908 0.92005 0.36196
 O1679 O 0.48214 1.06518 0.40926
 O1680 O 0.48207 1.08624 0.38795
 C1681 C 0.47597 1.07145 0.39441
 C1682 C 0.46126 1.06165 0.38485
 C1683 C 0.45518 1.06749 0.36774
 H1684 H 0.46183 1.07882 0.36112
 O1685 O 0.40985 1.01702 0.43405
 O1686 O 0.38870 1.01684 0.41287
 C1687 C 0.39506 1.02311 0.42764
 C1688 C 0.38543 1.03790 0.43729
 C1689 C 0.36833 1.04383 0.43134
 H1690 H 0.36179 1.03702 0.42006
 O1691 O 0.59051 0.98249 0.43468
 O1692 O 0.61174 0.98251 0.41358
 C1693 C 0.60532 0.97634 0.42837
 C1694 C 0.61489 0.96159 0.43813
 C1695 C 0.63196 0.95554 0.43224
 H1696 H 0.63854 0.96223 0.42091
 O1697 O 0.56601 0.90984 0.48276
 O1698 O 0.58720 0.88871 0.48288
 C1699 C 0.57244 0.89505 0.47663
 C1700 C 0.56284 0.88541 0.46182
 C1701 C 0.56883 0.86832 0.45583
 H1702 H 0.58011 0.86179 0.46262
 O1703 O 0.43403 1.09005 0.48182
 O1704 O 0.41283 1.11117 0.48166
 C1705 C 0.42764 1.10479 0.47555
 C1706 C 0.43735 1.11434 0.46075
 C1707 C 0.43142 1.13140 0.45461
 H1708 H 0.41983 1.13779 0.46098
 Cu1709 Cu 0.57592 1.00009 0.42427
 Cu1710 Cu 0.60134 1.00015 0.39888
 Cu1711 Cu 0.42448 0.99935 0.42380
 Cu1712 Cu 0.39916 0.99911 0.39830
 Cu1713 Cu 0.57541 1.07625 0.49990
 Cu1714 Cu 0.60064 1.10181 0.49986
 Cu1715 Cu 0.57619 0.92452 0.50044
 Cu1716 Cu 0.60170 0.89922 0.50062
 Cu1717 Cu 0.42376 1.07551 0.49956
 Cu1718 Cu 0.39823 1.10078 0.49938
 Cu1719 Cu 0.42471 0.92377 0.50003
 Cu1720 Cu 0.39947 0.89822 0.50007
 Cu1721 Cu 0.49973 1.07563 0.42384
 Cu1722 Cu 0.49967 1.10097 0.39833
 Cu1723 Cu 0.50063 0.92379 0.42434
 Cu1724 Cu 0.50083 0.89828 0.39898
 C1725 C 0.54783 0.95243 0.39379
 H1726 H 0.54334 0.95689 0.40707
 C1727 C 0.55999 0.94038 0.35970
 C1728 C 0.45268 1.04679 0.39318
 H1729 H 0.45714 1.04236 0.40648
 C1730 C 0.44062 1.05878 0.35904
 C1731 C 0.45216 1.10602 0.45211
 H1732 H 0.45665 1.09275 0.45661
 C1733 C 0.44004 1.14006 0.43995
 C1734 C 0.54804 0.89362 0.45307
 H1735 H 0.54350 0.90691 0.45746
 C1736 C 0.56031 0.85954 0.44118
 C1737 C 0.60662 0.95296 0.45299
 H1738 H 0.59335 0.95740 0.45746
 C1739 C 0.64067 0.94094 0.44091
 C1740 C 0.39365 1.04668 0.45210
 H1741 H 0.40693 1.04234 0.45661
 C1742 C 0.35954 1.05844 0.43990
 C1743 C 0.54727 1.04727 0.39352
 H1744 H 0.54279 1.04282 0.40681
 C1745 C 0.55937 1.05930 0.35941
 C1746 C 0.45325 0.95196 0.39355
 H1747 H 0.45763 0.95649 0.40685
 C1748 C 0.44141 0.93971 0.35942
 C1749 C 0.60612 1.04773 0.45265
 H1750 H 0.59284 1.04326 0.45707
 C1751 C 0.64018 1.05983 0.44070
 C1752 C 0.39419 0.95192 0.45241
 H1753 H 0.40745 0.95644 0.45685
 C1754 C 0.36018 0.93971 0.44041
 C1755 C 0.54687 1.10648 0.45234
 H1756 H 0.54250 1.09317 0.45683
 C1757 C 0.55871 1.14062 0.44019
 C1758 C 0.45340 0.89312 0.45281
 H1759 H 0.45784 0.90641 0.45730
 C1760 C 0.44138 0.85904 0.44066
 O1761 O 0.48283 0.43414 0.90956
 O1762 O 0.48299 0.41299 0.88834
 C1763 C 0.47671 0.42773 0.89475
 C1764 C 0.46186 0.43732 0.88517
 C1765 C 0.45588 0.43135 0.86807
 H1766 H 0.46270 0.42011 0.86148
 O1767 O 0.51731 0.56539 0.90949
 O1768 O 0.51723 0.58646 0.88820
 C1769 C 0.52348 0.57174 0.89469
 C1770 C 0.53835 0.56211 0.88520
 C1771 C 0.54440 0.56800 0.86809
 H1772 H 0.53761 0.57922 0.86143
 O1773 O 0.40984 0.48155 0.93423
 O1774 O 0.38866 0.48135 0.91307
 C1775 C 0.39511 0.47525 0.92788
 C1776 C 0.38567 0.46041 0.93764
 C1777 C 0.36862 0.45425 0.93179
 H1778 H 0.36216 0.46062 0.92021
 O1779 O 0.59026 0.51806 0.93455
 O1780 O 0.61148 0.51817 0.91343
 C1781 C 0.60500 0.52433 0.92820
 C1782 C 0.61441 0.53924 0.93787
 C1783 C 0.63144 0.54539 0.93198
 H1784 H 0.63810 0.53866 0.92073
 O1785 O 0.43512 0.40907 0.98227
 O1786 O 0.41418 0.38769 0.98227
 C1787 C 0.42889 0.39422 0.97609
 C1788 C 0.43865 0.38472 0.96129
 C1789 C 0.43283 0.36763 0.95515
 H1790 H 0.42128 0.36116 0.96153
 O1791 O 0.56490 0.59073 0.98219
 O1792 O 0.58583 0.61211 0.98216
 C1793 C 0.57113 0.60556 0.97597
 C1794 C 0.56137 0.61501 0.96114
 C1795 C 0.56715 0.63211 0.95499
 H1796 H 0.57868 0.63862 0.96139
 O1797 O 0.43447 0.51706 0.90933
 O1798 O 0.41343 0.51691 0.88803
 C1799 C 0.42812 0.52319 0.89450
 C1800 C 0.43775 0.53805 0.88496
 C1801 C 0.43185 0.54411 0.86785
 H1802 H 0.42033 0.53764 0.86142
 O1803 O 0.56567 0.48245 0.90970
 O1804 O 0.58677 0.48254 0.88847
 C1805 C 0.57206 0.47628 0.89491
 C1806 C 0.56249 0.46139 0.88537
 C1807 C 0.56846 0.45534 0.86829
 H1808 H 0.57970 0.46214 0.86170
 O1809 O 0.51830 0.40953 0.93455
 O1810 O 0.51849 0.38825 0.91346
 C1811 C 0.52458 0.39475 0.92824
 C1812 C 0.53938 0.38531 0.93804
 C1813 C 0.54554 0.36822 0.93221
 H1814 H 0.53920 0.36174 0.92063
 O1815 O 0.48175 0.59010 0.93426
 O1816 O 0.48164 0.61129 0.91309
 C1817 C 0.47549 0.60484 0.92787
 C1818 C 0.46062 0.61432 0.93753
 C1819 C 0.45451 0.63138 0.93161
 H1820 H 0.46124 0.63803 0.92035
 O1821 O 0.40916 0.56493 0.98199
 O1822 O 0.38783 0.58592 0.98187
 C1823 C 0.39437 0.57117 0.97574
 C1824 C 0.38495 0.56136 0.96091
 C1825 C 0.36787 0.56713 0.95475
 H1826 H 0.36137 0.57869 0.96112
 O1827 O 0.59069 0.43485 0.98254
 O1828 O 0.61201 0.41385 0.98261
 C1829 C 0.60551 0.42857 0.97638
 C1830 C 0.61499 0.43830 0.96154
 C1831 C 0.63204 0.43243 0.95540
 H1832 H 0.63849 0.42086 0.96180
 O1833 O 0.48194 0.56520 0.90940
 O1834 O 0.48183 0.58627 0.88811
 C1835 C 0.47575 0.57148 0.89458
 C1836 C 0.46102 0.56168 0.88502
 C1837 C 0.45494 0.56754 0.86791
 H1838 H 0.46159 0.57886 0.86130
 O1839 O 0.51819 0.43431 0.90958
 O1840 O 0.51840 0.41316 0.88837
 C1841 C 0.52445 0.42798 0.89480
 C1842 C 0.53920 0.43778 0.88528
 C1843 C 0.54537 0.43191 0.86821
 H1844 H 0.53908 0.42028 0.86177
 O1845 O 0.59046 0.48264 0.93462
 O1846 O 0.61167 0.48271 0.91351
 C1847 C 0.60526 0.47651 0.92829
 C1848 C 0.61484 0.46173 0.93801
 C1849 C 0.63190 0.45568 0.93208
 H1850 H 0.63846 0.46240 0.92076
 O1851 O 0.40961 0.51697 0.93417
 O1852 O 0.38845 0.51681 0.91300
 C1853 C 0.39482 0.52306 0.92778
 C1854 C 0.38519 0.53785 0.93744
 C1855 C 0.36810 0.54381 0.93149
 H1856 H 0.36157 0.53702 0.92019
 O1857 O 0.43382 0.58994 0.98200
 O1858 O 0.41263 0.61107 0.98188
 C1859 C 0.42743 0.60470 0.97576
 C1860 C 0.43713 0.61426 0.96096
 C1861 C 0.43121 0.63133 0.95485
 H1862 H 0.41961 0.63772 0.96123
 O1863 O 0.56597 0.40989 0.98255
 O1864 O 0.58717 0.38876 0.98261
 C1865 C 0.57240 0.39511 0.97639
 C1866 C 0.56278 0.38550 0.96156
 C1867 C 0.56875 0.36841 0.95555
 H1868 H 0.58002 0.36185 0.96233
 O1869 O 0.56544 0.51786 0.90966
 O1870 O 0.58653 0.51798 0.88842
 C1871 C 0.57174 0.52407 0.89485
 C1872 C 0.56194 0.53878 0.88526
 C1873 C 0.56780 0.54488 0.86815
 H1874 H 0.57941 0.53854 0.86176
 O1875 O 0.43469 0.48165 0.90938
 O1876 O 0.41365 0.48145 0.88809
 C1877 C 0.42843 0.47539 0.89457
 C1878 C 0.43826 0.46063 0.88507
 C1879 C 0.43246 0.45446 0.86796
 H1880 H 0.42086 0.46077 0.86150
 O1881 O 0.51711 0.59033 0.93430
 O1882 O 0.51704 0.61152 0.91312
 C1883 C 0.52322 0.60514 0.92793
 C1884 C 0.53795 0.61479 0.93763
 C1885 C 0.54392 0.63189 0.93169
 H1886 H 0.53717 0.63845 0.92037
 O1887 O 0.48294 0.40929 0.93445
 O1888 O 0.48309 0.38803 0.91335
 C1889 C 0.47686 0.39446 0.92811
 C1890 C 0.46209 0.38486 0.93780
 C1891 C 0.45608 0.36776 0.93187
 H1892 H 0.46282 0.36118 0.92056
 O1893 O 0.58992 0.56605 0.98226
 O1894 O 0.61097 0.58730 0.98222
 C1895 C 0.60465 0.57248 0.97607
 C1896 C 0.61426 0.56277 0.96129
 C1897 C 0.63130 0.56875 0.95520
 H1898 H 0.63763 0.58039 0.96158
 O1899 O 0.41015 0.43379 0.98220
 O1900 O 0.38908 0.41254 0.98220
 C1901 C 0.39542 0.42734 0.97600
 C1902 C 0.38585 0.43697 0.96115
 C1903 C 0.36879 0.43100 0.95512
 H1904 H 0.36224 0.41971 0.96189
 Cu1905 Cu 0.50055 0.42394 0.92415
 Cu1906 Cu 0.50076 0.39848 0.89875
 Cu1907 Cu 0.49954 0.57564 0.92399
 Cu1908 Cu 0.49942 0.60101 0.89850
 Cu1909 Cu 0.42426 0.49932 0.92390
 Cu1910 Cu 0.39893 0.49911 0.89842
 Cu1911 Cu 0.57584 0.50024 0.92425
 Cu1912 Cu 0.60124 0.50036 0.89884
 C1913 C 0.45308 0.45207 0.89347
 H1914 H 0.45747 0.45659 0.90677
 C1915 C 0.44119 0.43984 0.85935
 C1916 C 0.54710 0.54738 0.89358
 H1917 H 0.54267 0.54292 0.90688
 C1918 C 0.55910 0.55947 0.85945
 C1919 C 0.39408 0.45179 0.95243
 H1920 H 0.40734 0.45631 0.95686
 C1921 C 0.36006 0.43957 0.94046
 C1922 C 0.60602 0.54791 0.95264
 H1923 H 0.59278 0.54339 0.95711
 C1924 C 0.64000 0.56013 0.94056
 C1925 C 0.45340 0.39314 0.95263
 H1926 H 0.45780 0.40643 0.95712
 C1927 C 0.44147 0.35903 0.94046
 C1928 C 0.54666 0.60655 0.95247
 H1929 H 0.54228 0.59325 0.95697
 C1930 C 0.55850 0.64067 0.94029
 C1931 C 0.45245 0.54682 0.89334
 H1932 H 0.45692 0.54238 0.90664
 C1933 C 0.44037 0.55884 0.85922
 C1934 C 0.54774 0.45264 0.89366
 H1935 H 0.54322 0.45708 0.90694
 C1936 C 0.56000 0.44062 0.85960
 C1937 C 0.54799 0.39374 0.95282
 H1938 H 0.54346 0.40703 0.95723
 C1939 C 0.56020 0.35965 0.94090
 C1940 C 0.45195 0.60596 0.95232
 H1941 H 0.45644 0.59268 0.95680
 C1942 C 0.43982 0.64001 0.94019
 C1943 C 0.39341 0.54660 0.95227
 H1944 H 0.40669 0.54223 0.95678
 C1945 C 0.35933 0.55843 0.94006
 C1946 C 0.60659 0.45307 0.95286
 H1947 H 0.59333 0.45751 0.95736
 C1948 C 0.64061 0.44104 0.94068
 O1949 O 0.51791 0.43475 1.09070
 O1950 O 0.51802 0.41368 1.11199
 C1951 C 0.52411 0.42847 1.10553
 C1952 C 0.53884 0.43829 1.11506
 C1953 C 0.54498 0.43244 1.13216
 H1954 H 0.53867 0.42083 1.13860
 O1955 O 0.48169 0.56558 1.09024
 O1956 O 0.48150 0.58674 1.11145
 C1957 C 0.47543 0.57192 1.10502
 C1958 C 0.46066 0.56216 1.11454
 C1959 C 0.45453 0.56808 1.13161
 H1960 H 0.46118 0.57941 1.13822
 O1961 O 0.40932 0.51728 1.06540
 O1962 O 0.38810 0.51720 1.08650
 C1963 C 0.39451 0.52339 1.07172
 C1964 C 0.38492 0.53816 1.06199
 C1965 C 0.36786 0.54423 1.06793
 H1966 H 0.36131 0.53752 1.07926
 O1967 O 0.59030 0.48292 1.06577
 O1968 O 0.61147 0.48308 1.08693
 C1969 C 0.60509 0.47682 1.07216
 C1970 C 0.61470 0.46202 1.06250
 C1971 C 0.63175 0.45597 1.06848
 H1972 H 0.63810 0.46241 1.08009
 O1973 O 0.56594 0.40994 1.01799
 O1974 O 0.58712 0.38880 1.01809
 C1975 C 0.57233 0.39519 1.02423
 C1976 C 0.56265 0.38564 1.03906
 C1977 C 0.56857 0.36857 1.04517
 H1978 H 0.58015 0.36217 1.03877
 O1979 O 0.43376 0.59002 1.01743
 O1980 O 0.41257 0.61114 1.01736
 C1981 C 0.42734 0.60479 1.02358
 C1982 C 0.43698 0.61442 1.03839
 C1983 C 0.43100 0.63148 1.04447
 H1984 H 0.41939 0.63782 1.03805
 O1985 O 0.43437 0.48207 1.09038
 O1986 O 0.41326 0.48194 1.11160
 C1987 C 0.42806 0.47586 1.10519
 C1988 C 0.43787 0.46115 1.11479
 C1989 C 0.43199 0.45505 1.13189
 H1990 H 0.42037 0.46139 1.13827
 O1991 O 0.56521 0.51826 1.09050
 O1992 O 0.58624 0.51847 1.11179
 C1993 C 0.57147 0.52453 1.10530
 C1994 C 0.56163 0.53929 1.11479
 C1995 C 0.56744 0.54546 1.13189
 H1996 H 0.57903 0.53916 1.13835
 O1997 O 0.48275 0.40964 1.06578
 O1998 O 0.48282 0.38845 1.08695
 C1999 C 0.47665 0.39482 1.07214
 C2000 C 0.46194 0.38517 1.06241
 C2001 C 0.45596 0.36806 1.06834
 H2002 H 0.46268 0.36152 1.07967
 O2003 O 0.51695 0.59064 1.06540
 O2004 O 0.51680 0.61191 1.08649
 C2005 C 0.52304 0.60547 1.07174
 C2006 C 0.53782 0.61506 1.06205
 C2007 C 0.54391 0.63212 1.06803
 H2008 H 0.53751 0.63851 1.07963
 O2009 O 0.41011 0.43387 1.01764
 O2010 O 0.38905 0.41262 1.01767
 C2011 C 0.39537 0.42745 1.02383
 C2012 C 0.38575 0.43713 1.03860
 C2013 C 0.36869 0.43117 1.04460
 H2014 H 0.36217 0.41984 1.03785
 O2015 O 0.58986 0.56609 1.01769
 O2016 O 0.61093 0.58733 1.01769
 C2017 C 0.60459 0.57253 1.02388
 C2018 C 0.61416 0.56288 1.03871
 C2019 C 0.63122 0.56882 1.04476
 H2020 H 0.63759 0.58040 1.03830
 O2021 O 0.51706 0.56578 1.09029
 O2022 O 0.51690 0.58693 1.11150
 C2023 C 0.52318 0.57219 1.10509
 C2024 C 0.53803 0.56261 1.11467
 C2025 C 0.54402 0.56858 1.13178
 H2026 H 0.53721 0.57982 1.13837
 O2027 O 0.48254 0.43457 1.09060
 O2028 O 0.48261 0.41350 1.11189
 C2029 C 0.47636 0.42822 1.10540
 C2030 C 0.46147 0.43784 1.11488
 C2031 C 0.45541 0.43194 1.13198
 H2032 H 0.46220 0.42073 1.13865
 O2033 O 0.59008 0.51833 1.06566
 O2034 O 0.61124 0.51854 1.08682
 C2035 C 0.60480 0.52463 1.07201
 C2036 C 0.61425 0.53947 1.06226
 C2037 C 0.63131 0.54559 1.06811
 H2038 H 0.63796 0.53890 1.07940
 O2039 O 0.40960 0.48185 1.06544
 O2040 O 0.38836 0.48172 1.08652
 C2041 C 0.39486 0.47556 1.07176
 C2042 C 0.38547 0.46067 1.06203
 C2043 C 0.36841 0.45450 1.06785
 H2044 H 0.36190 0.46090 1.07938
 O2045 O 0.56485 0.59077 1.01762
 O2046 O 0.58579 0.61213 1.01765
 C2047 C 0.57108 0.60561 1.02382
 C2048 C 0.56133 0.61509 1.03864
 C2049 C 0.56721 0.63215 1.04479
 H2050 H 0.57850 0.63878 1.03812
 O2051 O 0.43510 0.40917 1.01772
 O2052 O 0.41417 0.38780 1.01776
 C2053 C 0.42886 0.39435 1.02395
 C2054 C 0.43860 0.38492 1.03882
 C2055 C 0.43281 0.36782 1.04495
 H2056 H 0.42131 0.36130 1.03852
 O2057 O 0.56542 0.48284 1.09059
 O2058 O 0.58647 0.48301 1.11188
 C2059 C 0.57177 0.47673 1.10542
 C2060 C 0.56216 0.46187 1.11499
 C2061 C 0.56811 0.45584 1.13208
 H2062 H 0.57934 0.46263 1.13869
 O2063 O 0.43414 0.51748 1.09029
 O2064 O 0.41304 0.51740 1.11152
 C2065 C 0.42775 0.52367 1.10507
 C2066 C 0.43736 0.53856 1.11460
 C2067 C 0.43141 0.54468 1.13166
 H2068 H 0.41987 0.53824 1.13809
 O2069 O 0.48158 0.59039 1.06530
 O2070 O 0.48140 0.61166 1.08639
 C2071 C 0.47528 0.60515 1.07161
 C2072 C 0.46042 0.61457 1.06188
 C2073 C 0.45425 0.63163 1.06775
 H2074 H 0.46094 0.63831 1.07903
 O2075 O 0.51810 0.40986 1.06584
 O2076 O 0.51821 0.38867 1.08701
 C2077 C 0.52436 0.39511 1.07222
 C2078 C 0.53921 0.38563 1.06255
 C2079 C 0.54532 0.36855 1.06846
 H2080 H 0.53861 0.36192 1.07974
 O2081 O 0.59059 0.43496 1.01799
 O2082 O 0.61190 0.41395 1.01810
 C2083 C 0.60538 0.42870 1.02423
 C2084 C 0.61481 0.43848 1.03907
 C2085 C 0.63186 0.43263 1.04524
 H2086 H 0.63852 0.42134 1.03856
 O2087 O 0.40907 0.56503 1.01743
 O2088 O 0.38774 0.58602 1.01737
 C2089 C 0.39425 0.57130 1.02360
 C2090 C 0.38477 0.56157 1.03844
 C2091 C 0.36772 0.56745 1.04458
 H2092 H 0.36128 0.57902 1.03818
 Cu2093 Cu 0.50032 0.42432 1.07611
 Cu2094 Cu 0.50042 0.39895 1.10160
 Cu2095 Cu 0.49934 0.57598 1.07569
 Cu2096 Cu 0.49913 0.60144 1.10108
 Cu2097 Cu 0.42472 0.42360 0.99995
 Cu2098 Cu 0.39951 0.39802 0.99998
 Cu2099 Cu 0.57618 0.42452 1.00026
 Cu2100 Cu 0.60169 0.39922 1.00036
 Cu2101 Cu 0.42357 0.57537 0.99972
 Cu2102 Cu 0.39805 0.60065 0.99961
 Cu2103 Cu 0.57529 0.57628 0.99994
 Cu2104 Cu 0.60049 0.60187 0.99993
 Cu2105 Cu 0.42397 0.49968 1.07576
 Cu2106 Cu 0.39856 0.49955 1.10116
 Cu2107 Cu 0.57564 0.50057 1.07601
 Cu2108 Cu 0.60098 0.50080 1.10149
 C2109 C 0.54742 0.45312 1.10668
 H2110 H 0.54292 0.45754 1.09338
 C2111 C 0.55960 0.44114 1.14078
 C2112 C 0.45210 0.54729 1.10624
 H2113 H 0.45660 0.54280 1.09297
 C2114 C 0.43992 0.55942 1.14029
 C2115 C 0.39317 0.54681 1.04713
 H2116 H 0.40642 0.54237 1.04263
 C2117 C 0.35915 0.55886 1.05931
 C2118 C 0.60643 0.45329 1.04768
 H2119 H 0.59318 0.45772 1.04315
 C2120 C 0.64044 0.44129 1.05993
 C2121 C 0.54786 0.39397 1.04773
 H2122 H 0.54337 0.40724 1.04325
 C2123 C 0.55998 0.35991 1.05985
 C2124 C 0.45181 0.60617 1.04708
 H2125 H 0.45635 0.59290 1.04263
 C2126 C 0.43956 0.64020 1.05913
 C2127 C 0.45272 0.45256 1.10648
 H2128 H 0.45716 0.45703 1.09319
 C2129 C 0.44069 0.44047 1.14060
 C2130 C 0.54682 0.54785 1.10638
 H2131 H 0.54243 0.54333 1.09309
 C2132 C 0.55870 0.56008 1.14050
 C2133 C 0.45328 0.39340 1.04753
 H2134 H 0.45766 0.40670 1.04304
 C2135 C 0.44142 0.35927 1.05969
 C2136 C 0.54652 0.60675 1.04725
 H2137 H 0.54207 0.59348 1.04273
 C2138 C 0.55860 0.64078 1.05948
 C2139 C 0.39394 0.45200 1.04730
 H2140 H 0.40720 0.45652 1.04289
 C2141 C 0.35990 0.43977 1.05920
 C2142 C 0.60588 0.54809 1.04745
 H2143 H 0.59262 0.54359 1.04301
 C2144 C 0.63991 0.56025 1.05944
 C2145 C 1.13019 1.10873 1.27468
 C2146 C 1.11189 1.11135 1.27062
 C2147 C 1.10094 1.12110 1.28263
 C2148 C 1.10825 1.12834 1.29859
 C2149 C 1.12680 1.12597 1.30294
 C2150 C 1.13759 1.11590 1.29062
 C2151 C 1.10443 1.10427 1.25400
 C2152 C 1.09830 1.09845 1.23997
 C2153 C 1.09126 1.09177 1.22344
 C2154 C 1.08535 1.08618 1.20923
 C2155 C 1.07842 1.07966 1.19215
 C2156 C 1.07325 1.09200 1.17866
 C2157 C 1.06680 1.08572 1.16194
 C2158 C 1.06546 1.06698 1.15849
 C2159 C 1.07063 1.05467 1.17217
 C2160 C 1.07706 1.06098 1.18889
 H2161 H 1.13885 1.10132 1.26537
 H2162 H 1.08668 1.12309 1.27969
 H2163 H 1.09904 1.13521 1.30771
 H2164 H 1.15200 1.11415 1.29266
 H2165 H 1.07431 1.10649 1.18101
 H2166 H 1.06318 1.09553 1.15160
 H2167 H 1.06956 1.04017 1.16998
 H2168 H 1.08101 1.05131 1.19925
 C2169 C 1.11706 0.60048 0.78422
 C2170 C 1.11131 0.61206 0.77029
 C2171 C 1.11283 0.63088 0.77242
 C2172 C 1.12013 0.63811 0.78838
 C2173 C 1.12602 0.62659 0.80245
 C2174 C 1.12438 0.60768 0.80020
 C2175 C 1.10404 0.60468 0.75370
 C2176 C 1.09805 0.59866 0.73971
 C2177 C 1.09113 0.59180 0.72320
 C2178 C 1.08530 0.58610 0.70900
 C2179 C 1.07844 0.57950 0.69193
 C2180 C 1.07333 0.59179 0.67836
 C2181 C 1.06690 0.58545 0.66166
 C2182 C 1.06551 0.56669 0.65830
 C2183 C 1.07063 0.55443 0.67204
 C2184 C 1.07705 0.56081 0.68875
 H2185 H 1.11591 0.58589 0.78272
 H2186 H 1.10848 0.63997 0.76169
 H2187 H 1.12145 0.65271 0.78959
 H2188 H 1.12860 0.59848 0.81087
 H2189 H 1.07443 0.60628 0.68066
 H2190 H 1.06332 0.59522 0.65127
 H2191 H 1.06952 0.53993 0.66992
 H2192 H 1.08094 0.55117 0.69916
 C2193 C 0.60044 1.11738 0.78434
 C2194 C 0.61188 1.11145 0.77038
 C2195 C 0.63070 1.11262 0.77250
 C2196 C 0.63806 1.11978 0.78848
 C2197 C 0.62668 1.12587 0.80256
 C2198 C 0.60777 1.12456 0.80033
 C2199 C 0.60436 1.10437 0.75378
 C2200 C 0.59818 1.09856 0.73978
 C2201 C 0.59108 1.09188 0.72328
 C2202 C 0.58513 1.08628 0.70908
 C2203 C 0.57818 1.07973 0.69202
 C2204 C 0.57679 1.06105 0.68880
 C2205 C 0.57036 1.05471 0.67209
 C2206 C 0.56521 1.06699 0.65838
 C2207 C 0.56657 1.08575 0.66180
 C2208 C 0.57302 1.09205 0.67851
 H2209 H 0.58585 1.11651 0.78285
 H2210 H 0.63968 1.10814 0.76176
 H2211 H 0.65265 1.12084 0.78968
 H2212 H 0.59867 1.12893 0.81101
 H2213 H 0.58073 1.05139 0.69918
 H2214 H 0.56927 1.04020 0.66994
 H2215 H 0.56296 1.09554 0.65143
 H2216 H 0.57410 1.10654 0.68083
 C2217 C 0.62051 0.60074 1.28247
 C2218 C 0.61085 0.61188 1.27056
 C2219 C 0.60848 0.63023 1.27470
 C2220 C 0.61582 0.63749 1.29063
 C2221 C 0.62580 0.62651 1.30286
 C2222 C 0.62791 0.60791 1.29842
 C2223 C 0.60359 0.60458 1.25394
 C2224 C 0.59760 0.59862 1.23991
 C2225 C 0.59070 0.59180 1.22338
 C2226 C 0.58490 0.58613 1.20916
 C2227 C 0.57807 0.57955 1.19206
 C2228 C 0.57290 0.59186 1.17854
 C2229 C 0.56651 0.58554 1.16181
 C2230 C 0.56522 0.56678 1.15838
 C2231 C 0.57041 0.55451 1.17209
 C2232 C 0.57678 0.56087 1.18882
 H2233 H 0.62230 0.58645 1.27946
 H2234 H 0.60115 0.63904 1.26546
 H2235 H 0.61426 0.65193 1.29274
 H2236 H 0.63470 0.59856 1.30747
 H2237 H 0.57391 0.60635 1.18087
 H2238 H 0.56288 0.59532 1.15145
 H2239 H 0.56938 0.54000 1.16992
 H2240 H 0.58073 0.55122 1.19920
 C2241 C 0.89970 0.87960 1.28303
 C2242 C 0.88873 0.88934 1.27103
 C2243 C 0.87041 0.89186 1.27503
 C2244 C 0.86300 0.88459 1.29092
 C2245 C 0.87379 0.87452 1.30324
 C2246 C 0.89237 0.87226 1.29894
 C2247 C 0.89619 0.89649 1.25443
 C2248 C 0.90229 0.90236 1.24042
 C2249 C 0.90929 0.90908 1.22389
 C2250 C 0.91515 0.91468 1.20967
 C2251 C 0.92202 0.92119 1.19256
 C2252 C 0.92333 0.93986 1.18926
 C2253 C 0.92971 0.94614 1.17250
 C2254 C 0.93487 0.93381 1.15884
 C2255 C 0.93356 0.91507 1.16233
 C2256 C 0.92717 0.90882 1.17908
 H2257 H 0.91397 0.87769 1.28013
 H2258 H 0.86174 0.89925 1.26572
 H2259 H 0.84858 0.88626 1.29292
 H2260 H 0.90159 0.86540 1.30807
 H2261 H 0.91940 0.94955 1.19961
 H2262 H 0.93076 0.96064 1.17028
 H2263 H 0.93717 0.90525 1.15200
 H2264 H 0.92613 0.89434 1.18147
 C2265 C 0.89093 0.37037 0.77451
 C2266 C 0.88852 0.38875 0.77053
 C2267 C 0.87892 0.39979 0.78259
 C2268 C 0.87163 0.39249 0.79852
 C2269 C 0.87378 0.37386 0.80280
 C2270 C 0.88370 0.36299 0.79042
 C2271 C 0.89569 0.39618 0.75393
 C2272 C 0.90162 0.40222 0.73991
 C2273 C 0.90848 0.40907 0.72338
 C2274 C 0.91426 0.41474 0.70915
 C2275 C 0.92109 0.42127 0.69204
 C2276 C 0.92245 0.43994 0.68875
 C2277 C 0.92887 0.44624 0.67202
 C2278 C 0.93404 0.43391 0.65835
 C2279 C 0.93267 0.41517 0.66182
 C2280 C 0.92624 0.40891 0.67855
 H2281 H 0.89821 0.36165 0.76516
 H2282 H 0.87710 0.41411 0.77970
 H2283 H 0.86488 0.40176 0.80769
 H2284 H 0.88528 0.34853 0.79241
 H2285 H 0.91853 0.44963 0.69911
 H2286 H 0.92996 0.46073 0.66982
 H2287 H 0.93628 0.40534 0.65149
 H2288 H 0.92517 0.39443 0.68092
 C2289 C 0.38596 0.86986 0.77218
 C2290 C 0.38746 0.88870 0.77021
 C2291 C 0.38175 0.90015 0.78427
 C2292 C 0.37453 0.89280 0.80023
 C2293 C 0.37295 0.87387 0.80233
 C2294 C 0.37877 0.86248 0.78812
 C2295 C 0.39473 0.89621 0.75369
 C2296 C 0.40076 0.90229 0.73974
 C2297 C 0.40777 0.90916 0.72328
 C2298 C 0.41369 0.91484 0.70911
 C2299 C 0.42068 0.92138 0.69207
 C2300 C 0.42204 0.94006 0.68880
 C2301 C 0.42859 0.94636 0.67212
 C2302 C 0.43387 0.93404 0.65849
 C2303 C 0.43252 0.91530 0.66195
 C2304 C 0.42596 0.90903 0.67862
 H2305 H 0.39027 0.86087 0.76136
 H2306 H 0.38288 0.91476 0.78290
 H2307 H 0.37037 0.90190 0.81101
 H2308 H 0.37749 0.84788 0.78921
 H2309 H 0.41802 0.94974 0.69913
 H2310 H 0.42966 0.96086 0.66993
 H2311 H 0.43622 0.90548 0.65164
 H2312 H 0.42490 0.89455 0.68098
 C2313 C 0.37850 0.39969 1.28252
 C2314 C 0.38810 0.38867 1.27045
 C2315 C 0.39048 0.37028 1.27439
 C2316 C 0.38324 0.36287 1.29029
 C2317 C 0.37335 0.37373 1.30270
 C2318 C 0.37119 0.39236 1.29844
 C2319 C 0.39532 0.39612 1.25388
 C2320 C 0.40131 0.40216 1.23989
 C2321 C 0.40825 0.40900 1.22339
 C2322 C 0.41412 0.41466 1.20919
 C2323 C 0.42103 0.42119 1.19211
 C2324 C 0.42628 0.40884 1.17866
 C2325 C 0.43277 0.41509 1.16195
 C2326 C 0.43408 0.43384 1.15847
 C2327 C 0.42882 0.44616 1.17210
 C2328 C 0.42235 0.43986 1.18882
 H2329 H 0.37670 0.41401 1.27967
 H2330 H 0.39775 0.36156 1.26503
 H2331 H 0.38480 0.34840 1.29224
 H2332 H 0.36446 0.40162 1.30763
 H2333 H 0.42526 0.39435 1.18104
 H2334 H 0.43646 0.40527 1.15165
 H2335 H 0.42987 0.46066 1.16989
 H2336 H 0.41835 0.44955 1.19915
 C2337 C 0.88990 1.12958 0.72593
 C2338 C 0.88731 1.11122 0.72986
 C2339 C 0.87758 1.10031 0.71778
 C2340 C 0.87036 1.10774 0.70187
 C2341 C 0.87272 1.12635 0.69763
 C2342 C 0.88274 1.13708 0.71004
 C2343 C 0.89444 1.10366 0.74643
 C2344 C 0.90036 1.09754 0.76041
 C2345 C 0.90723 1.09060 0.77691
 C2346 C 0.91305 1.08488 0.79111
 C2347 C 0.91994 1.07831 0.80819
 C2348 C 0.92150 1.05963 0.81136
 C2349 C 0.92803 1.05330 0.82804
 C2350 C 0.93310 1.06560 0.84177
 C2351 C 0.93151 1.08435 0.83842
 C2352 C 0.92498 1.09064 0.82174
 H2353 H 0.89728 1.13820 0.73530
 H2354 H 0.87562 1.08601 0.72063
 H2355 H 0.86352 1.09856 0.69268
 H2356 H 0.88448 1.15153 0.70809
 H2357 H 0.91767 1.04997 0.80094
 H2358 H 0.92928 1.03881 0.83015
 H2359 H 0.93505 1.09415 0.84880
 H2360 H 0.92376 1.10512 0.81946
 C2361 C 0.89972 0.61589 0.21517
 C2362 C 0.88823 0.61016 0.22917
 C2363 C 0.86944 0.61176 0.22716
 C2364 C 0.86214 0.61912 0.21126
 C2365 C 0.87357 0.62500 0.19713
 C2366 C 0.89246 0.62326 0.19924
 C2367 C 0.89568 0.60293 0.24573
 C2368 C 0.90178 0.59701 0.25973
 C2369 C 0.90877 0.59025 0.27624
 C2370 C 0.91463 0.58464 0.29047
 C2371 C 0.92149 0.57814 0.30758
 C2372 C 0.92296 0.55948 0.31085
 C2373 C 0.92936 0.55321 0.32761
 C2374 C 0.93438 0.56556 0.34131
 C2375 C 0.93290 0.58430 0.33785
 C2376 C 0.92650 0.59052 0.32110
 H2377 H 0.91430 0.61469 0.21658
 H2378 H 0.86042 0.60745 0.23795
 H2379 H 0.84757 0.62052 0.21015
 H2380 H 0.90159 0.62748 0.18853
 H2381 H 0.91914 0.54977 0.30047
 H2382 H 0.93053 0.53872 0.32981
 H2383 H 0.93641 0.59413 0.34820
 H2384 H 0.92534 0.60500 0.31874
 C2385 C 0.37855 1.09970 0.21703
 C2386 C 0.38833 1.11061 0.22907
 C2387 C 0.39095 1.12895 0.22510
 C2388 C 0.38378 1.13645 0.20921
 C2389 C 0.37371 1.12572 0.19684
 C2390 C 0.37131 1.10712 0.20111
 C2391 C 0.39547 1.10308 0.24564
 C2392 C 0.40139 1.09699 0.25964
 C2393 C 0.40827 1.09012 0.27616
 C2394 C 0.41408 1.08446 0.29038
 C2395 C 0.42095 1.07795 0.30749
 C2396 C 0.42595 1.09034 0.32101
 C2397 C 0.43242 1.08411 0.33773
 C2398 C 0.43398 1.06538 0.34116
 C2399 C 0.42895 1.05303 0.32747
 C2400 C 0.42249 1.05929 0.31073
 H2401 H 0.37656 1.08541 0.21990
 H2402 H 0.39837 1.13757 0.23443
 H2403 H 0.38554 1.15089 0.20724
 H2404 H 0.36442 1.09795 0.19195
 H2405 H 0.42474 1.10481 0.31867
 H2406 H 0.43592 1.09395 0.34809
 H2407 H 0.43018 1.03853 0.32964
 H2408 H 0.41868 1.04959 0.30035
 C2409 C 0.38682 0.62957 0.72723
 C2410 C 0.38807 0.61073 0.72928
 C2411 C 0.38221 0.59929 0.71528
 C2412 C 0.37508 0.60666 0.69928
 C2413 C 0.37374 0.62560 0.69711
 C2414 C 0.37972 0.63698 0.71126
 C2415 C 0.39520 0.60320 0.74585
 C2416 C 0.40113 0.59710 0.75985
 C2417 C 0.40800 0.59022 0.77636
 C2418 C 0.41382 0.58455 0.79058
 C2419 C 0.42069 0.57804 0.80769
 C2420 C 0.42223 0.55937 0.81092
 C2421 C 0.42870 0.55310 0.82765
 C2422 C 0.43372 0.56544 0.84135
 C2423 C 0.43217 0.58418 0.83793
 C2424 C 0.42569 0.59041 0.82121
 H2425 H 0.39125 0.63855 0.73801
 H2426 H 0.38314 0.58467 0.71672
 H2427 H 0.37079 0.59757 0.68855
 H2428 H 0.37863 0.65159 0.71010
 H2429 H 0.41842 0.54968 0.80053
 H2430 H 0.42993 0.53861 0.82981
 H2431 H 0.43567 0.59401 0.84830
 H2432 H 0.42448 0.60489 0.81888
 C2433 C 1.10060 0.88274 0.71587
 C2434 C 1.11202 0.88856 0.72989
 C2435 C 1.13083 0.88720 0.72788
 C2436 C 1.13822 0.87999 0.71195
 C2437 C 1.12686 0.87402 0.69779
 C2438 C 1.10796 0.87551 0.69992
 C2439 C 1.10450 0.89574 0.74644
 C2440 C 1.09839 0.90168 0.76042
 C2441 C 1.09146 0.90855 0.77692
 C2442 C 1.08573 0.91434 0.79112
 C2443 C 1.07914 0.92118 0.80820
 C2444 C 1.09143 0.92643 0.82170
 C2445 C 1.08511 0.93286 0.83841
 C2446 C 1.06639 0.93413 0.84184
 C2447 C 1.05414 0.92886 0.82817
 C2448 C 1.06049 0.92243 0.81145
 H2449 H 1.08601 0.88376 0.71727
 H2450 H 1.13980 0.89161 0.73868
 H2451 H 1.15281 0.87879 0.71083
 H2452 H 1.09888 0.87122 0.68918
 H2453 H 1.10589 0.92544 0.81936
 H2454 H 1.09488 0.93656 0.84875
 H2455 H 1.03965 0.92986 0.83034
 H2456 H 1.05086 0.91842 0.80108
 C2457 C 1.13071 0.38746 0.22759
 C2458 C 1.11190 0.38886 0.22964
 C2459 C 1.10044 0.38311 0.21562
 C2460 C 1.10775 0.37591 0.19964
 C2461 C 1.12665 0.37438 0.19748
 C2462 C 1.13805 0.38028 0.21163
 C2463 C 1.10443 0.39599 0.24624
 C2464 C 1.09836 0.40187 0.26025
 C2465 C 1.09147 0.40868 0.27679
 C2466 C 1.08579 0.41442 0.29103
 C2467 C 1.07924 0.42118 0.30816
 C2468 C 1.06059 0.42253 0.31142
 C2469 C 1.05428 0.42890 0.32817
 C2470 C 1.06657 0.43401 0.34187
 C2471 C 1.08528 0.43265 0.33844
 C2472 C 1.09155 0.42627 0.32169
 H2473 H 1.13971 0.39180 0.23839
 H2474 H 1.08586 0.38415 0.21706
 H2475 H 1.09864 0.37168 0.18890
 H2476 H 1.15263 0.37905 0.21048
 H2477 H 1.05094 0.41865 0.30102
 H2478 H 1.03980 0.42999 0.33035
 H2479 H 1.09507 0.43622 0.34880
 H2480 H 1.10602 0.42521 0.31934
 C2481 C 0.63022 0.89077 0.22569
 C2482 C 0.61187 0.88837 0.22964
 C2483 C 0.60084 0.87882 0.21755
 C2484 C 0.60814 0.87156 0.20159
 C2485 C 0.62673 0.87371 0.19732
 C2486 C 0.63760 0.88357 0.20975
 C2487 C 0.60445 0.89552 0.24626
 C2488 C 0.59842 0.90143 0.26029
 C2489 C 0.59157 0.90828 0.27683
 C2490 C 0.58590 0.91405 0.29106
 C2491 C 0.57934 0.92087 0.30817
 C2492 C 0.56069 0.92217 0.31143
 C2493 C 0.55437 0.92858 0.32816
 C2494 C 0.56665 0.93379 0.34184
 C2495 C 0.58536 0.93247 0.33839
 C2496 C 0.59165 0.92605 0.32167
 H2497 H 0.63894 0.89801 0.23506
 H2498 H 0.58655 0.87701 0.22042
 H2499 H 0.59888 0.86485 0.19239
 H2500 H 0.65203 0.88514 0.20778
 H2501 H 0.55105 0.91822 0.30106
 H2502 H 0.53989 0.92963 0.33034
 H2503 H 0.59515 0.93612 0.34874
 H2504 H 0.60611 0.92503 0.31932
 C2505 C 0.61791 0.39978 0.71582
 C2506 C 0.61207 0.38825 0.72976
 C2507 C 0.61349 0.36943 0.72766
 C2508 C 0.62075 0.36213 0.71171
 C2509 C 0.62670 0.37359 0.69763
 C2510 C 0.62519 0.39251 0.69985
 C2511 C 0.60482 0.39569 0.74632
 C2512 C 0.59884 0.40175 0.76031
 C2513 C 0.59197 0.40867 0.77681
 C2514 C 0.58625 0.41445 0.79102
 C2515 C 0.57960 0.42124 0.80811
 C2516 C 0.56094 0.42250 0.81129
 C2517 C 0.55453 0.42885 0.82801
 C2518 C 0.56674 0.43404 0.84176
 C2519 C 0.58547 0.43275 0.83840
 C2520 C 0.59184 0.42639 0.82168
 H2521 H 0.61686 0.41438 0.71730
 H2522 H 0.60909 0.36038 0.73840
 H2523 H 0.62197 0.34753 0.71052
 H2524 H 0.62947 0.40167 0.68917
 H2525 H 0.55134 0.41855 0.80087
 H2526 H 0.54004 0.42987 0.83013
 H2527 H 0.59520 0.43638 0.84879
 H2528 H 0.60632 0.42539 0.81939
 C2529 C 1.27198 1.11351 1.13017
 C2530 C 1.26982 1.11232 1.11132
 C2531 C 1.28378 1.11809 1.09981
 C2532 C 1.29981 1.12511 1.10712
 C2533 C 1.30209 1.12643 1.12607
 C2534 C 1.28800 1.12051 1.13751
 C2535 C 1.25320 1.10533 1.10384
 C2536 C 1.23917 1.09953 1.09777
 C2537 C 1.22262 1.09281 1.09088
 C2538 C 1.20839 1.08712 1.08520
 C2539 C 1.19127 1.08037 1.07868
 C2540 C 1.18799 1.07896 1.06000
 C2541 C 1.17129 1.07254 1.05372
 C2542 C 1.15765 1.06741 1.06607
 C2543 C 1.16110 1.06886 1.08482
 C2544 C 1.17780 1.07530 1.09106
 H2545 H 1.26124 1.10914 1.13920
 H2546 H 1.28226 1.11720 1.08520
 H2547 H 1.31050 1.12936 1.09798
 H2548 H 1.28923 1.12159 1.15213
 H2549 H 1.19834 1.08282 1.05029
 H2550 H 1.16909 1.07139 1.03921
 H2551 H 1.15079 1.06529 1.09466
 H2552 H 1.18017 1.07640 1.10555
 C2553 C 1.27245 0.63059 0.61215
 C2554 C 1.27024 0.61177 0.61076
 C2555 C 1.28410 0.60016 0.61656
 C2556 C 1.30010 0.60733 0.62381
 C2557 C 1.30243 0.62624 0.62532
 C2558 C 1.28843 0.63779 0.61937
 C2559 C 1.25363 0.60443 0.60359
 C2560 C 1.23961 0.59843 0.59770
 C2561 C 1.22306 0.59157 0.59096
 C2562 C 1.20883 0.58582 0.58534
 C2563 C 1.19171 0.57908 0.57883
 C2564 C 1.17821 0.57407 0.59121
 C2565 C 1.16147 0.56775 0.58497
 C2566 C 1.15800 0.56635 0.56622
 C2567 C 1.17167 0.57139 0.55387
 C2568 C 1.18841 0.57771 0.56015
 H2569 H 1.26178 0.63970 0.60777
 H2570 H 1.28253 0.58557 0.61553
 H2571 H 1.31071 0.59811 0.62807
 H2572 H 1.28971 0.65238 0.62060
 H2573 H 1.18059 0.57516 0.60570
 H2574 H 1.15114 0.56423 0.59480
 H2575 H 1.16946 0.57028 0.53936
 H2576 H 1.19878 0.58154 0.55045
 C2577 C 0.77359 1.10985 0.63017
 C2578 C 0.76956 1.11248 0.61182
 C2579 C 0.78158 1.12218 0.60084
 C2580 C 0.79754 1.12933 0.60818
 C2581 C 0.80188 1.12693 0.62677
 C2582 C 0.78953 1.11694 0.63759
 C2583 C 0.75296 1.10542 0.60435
 C2584 C 0.73896 1.09956 0.59828
 C2585 C 0.72245 1.09276 0.59138
 C2586 C 0.70826 1.08700 0.58567
 C2587 C 0.69119 1.08018 0.57909
 C2588 C 0.68800 1.07872 0.56039
 C2589 C 0.67133 1.07225 0.55405
 C2590 C 0.65764 1.06714 0.56635
 C2591 C 0.66102 1.06863 0.58512
 C2592 C 0.67767 1.07511 0.59142
 H2593 H 0.76427 1.10250 0.63885
 H2594 H 0.77866 1.12417 0.58655
 H2595 H 0.80668 1.13615 0.59894
 H2596 H 0.79156 1.11518 0.65202
 H2597 H 0.69838 1.08259 0.55073
 H2598 H 0.66920 1.07108 0.53954
 H2599 H 0.65067 1.06506 0.59492
 H2600 H 0.67998 1.07625 0.60592
 C2601 C 0.77182 0.61380 1.12980
 C2602 C 0.76972 0.61257 1.11095
 C2603 C 0.78370 0.61836 1.09946
 C2604 C 0.79971 0.62539 1.10681
 C2605 C 0.80195 0.62670 1.12576
 C2606 C 0.78782 0.62081 1.13717
 C2607 C 0.75315 0.60547 1.10345
 C2608 C 0.73916 0.59956 1.09740
 C2609 C 0.72265 0.59269 1.09058
 C2610 C 0.70845 0.58687 1.08496
 C2611 C 0.69137 0.57998 1.07849
 C2612 C 0.68806 0.57851 1.05983
 C2613 C 0.67135 0.57202 1.05360
 C2614 C 0.65775 0.56691 1.06599
 C2615 C 0.66125 0.56840 1.08473
 C2616 C 0.67794 0.57489 1.09092
 H2617 H 0.76106 0.60942 1.13881
 H2618 H 0.78222 0.61744 1.08485
 H2619 H 0.81042 0.62963 1.09769
 H2620 H 0.78902 0.62188 1.15180
 H2621 H 0.69837 0.58238 1.05009
 H2622 H 0.66913 0.57084 1.03910
 H2623 H 0.65096 0.56483 1.09460
 H2624 H 0.68034 0.57605 1.10540
 C2625 C 1.28228 0.89973 0.87932
 C2626 C 1.27028 0.88873 0.88902
 C2627 C 1.27425 0.87036 0.89148
 C2628 C 1.29010 0.86294 0.88421
 C2629 C 1.30243 0.87377 0.87419
 C2630 C 1.29816 0.89239 0.87198
 C2631 C 1.25374 0.89621 0.89620
 C2632 C 1.23977 0.90234 0.90210
 C2633 C 1.22330 0.90937 0.90887
 C2634 C 1.20913 0.91525 0.91452
 C2635 C 1.19209 0.92214 0.92108
 C2636 C 1.18891 0.92361 0.93977
 C2637 C 1.17222 0.93002 0.94612
 C2638 C 1.15850 0.93505 0.93383
 C2639 C 1.16187 0.93358 0.91506
 C2640 C 1.17855 0.92717 0.90875
 H2641 H 1.27940 0.91404 0.87745
 H2642 H 1.26494 0.86167 0.89884
 H2643 H 1.29208 0.84849 0.88584
 H2644 H 1.30728 0.90163 0.86516
 H2645 H 1.19931 0.91978 0.94944
 H2646 H 1.17010 0.93118 0.96063
 H2647 H 1.15149 0.93709 0.90527
 H2648 H 1.18084 0.92601 0.89426
 C2649 C 1.27442 0.39125 0.37023
 C2650 C 1.27037 0.38863 0.38857
 C2651 C 1.28231 0.37883 0.39954
 C2652 C 1.29822 0.37155 0.39221
 C2653 C 1.30258 0.37393 0.37361
 C2654 C 1.29031 0.38404 0.36281
 C2655 C 1.25380 0.39577 0.39603
 C2656 C 1.23981 0.40168 0.40211
 C2657 C 1.22332 0.40851 0.40902
 C2658 C 1.20913 0.41428 0.41475
 C2659 C 1.19207 0.42109 0.42135
 C2660 C 1.18887 0.42247 0.44004
 C2661 C 1.17219 0.42890 0.44640
 C2662 C 1.15850 0.43404 0.43412
 C2663 C 1.16188 0.43263 0.41535
 C2664 C 1.17855 0.42620 0.40903
 H2665 H 1.26516 0.39869 0.36155
 H2666 H 1.27937 0.37684 0.41383
 H2667 H 1.30730 0.36465 0.40144
 H2668 H 1.29235 0.38580 0.34837
 H2669 H 1.19926 0.41858 0.44970
 H2670 H 1.17006 0.43001 0.46092
 H2671 H 1.15152 0.43622 0.40556
 H2672 H 1.18085 0.42511 0.39453
 C2673 C 0.78413 0.88247 0.40037
 C2674 C 0.77021 0.88842 0.38890
 C2675 C 0.77231 0.88720 0.37004
 C2676 C 0.78823 0.88003 0.36266
 C2677 C 0.80229 0.87397 0.37407
 C2678 C 0.80008 0.87528 0.39302
 C2679 C 0.75369 0.89561 0.39641
 C2680 C 0.73974 0.90159 0.40249
 C2681 C 0.72328 0.90851 0.40938
 C2682 C 0.70911 0.91437 0.41506
 C2683 C 0.69207 0.92127 0.42160
 C2684 C 0.67856 0.92631 0.40924
 C2685 C 0.66189 0.93280 0.41551
 C2686 C 0.65850 0.93432 0.43427
 C2687 C 0.67218 0.92926 0.44660
 C2688 C 0.68886 0.92278 0.44029
 H2689 H 0.78266 0.88337 0.41499
 H2690 H 0.76159 0.89170 0.36104
 H2691 H 0.78942 0.87897 0.34804
 H2692 H 0.81074 0.87091 0.40213
 H2693 H 0.68087 0.92513 0.39475
 H2694 H 0.65154 0.93633 0.40569
 H2695 H 0.67004 0.93046 0.46110
 H2696 H 0.69924 0.91894 0.44998
 C2697 C 0.78406 0.38290 0.89987
 C2698 C 0.77017 0.38885 0.88836
 C2699 C 0.77229 0.38760 0.86951
 C2700 C 0.78821 0.38037 0.86217
 C2701 C 0.80223 0.37428 0.87361
 C2702 C 0.80000 0.37566 0.89255
 C2703 C 0.75363 0.39604 0.89585
 C2704 C 0.73967 0.40198 0.90194
 C2705 C 0.72320 0.40885 0.90886
 C2706 C 0.70903 0.41465 0.91459
 C2707 C 0.69198 0.42148 0.92120
 C2708 C 0.67843 0.42655 0.90888
 C2709 C 0.66177 0.43298 0.91521
 C2710 C 0.65842 0.43443 0.93398
 C2711 C 0.67213 0.42934 0.94626
 C2712 C 0.68881 0.42291 0.93989
 H2713 H 0.78257 0.38384 0.91448
 H2714 H 0.76159 0.39209 0.86048
 H2715 H 0.78941 0.37925 0.84755
 H2716 H 0.81064 0.37128 0.90170
 H2717 H 0.68072 0.42542 0.89438
 H2718 H 0.65139 0.43653 0.90543
 H2719 H 0.67002 0.43049 0.96077
 H2720 H 0.69921 0.41905 0.94954
 C2721 C 0.72836 0.88629 1.13066
 C2722 C 0.73048 0.88765 1.11182
 C2723 C 0.71650 0.88194 1.10029
 C2724 C 0.70050 0.87484 1.10758
 C2725 C 0.69827 0.87337 1.12651
 C2726 C 0.71238 0.87921 1.13798
 C2727 C 0.74707 0.89475 1.10437
 C2728 C 0.76107 0.90064 1.09832
 C2729 C 0.77758 0.90746 1.09145
 C2730 C 0.79178 0.91323 1.08578
 C2731 C 0.80886 0.92006 1.07924
 C2732 C 0.81212 0.92143 1.06056
 C2733 C 0.82881 0.92789 1.05425
 C2734 C 0.84244 0.93307 1.06659
 C2735 C 0.83899 0.93167 1.08534
 C2736 C 0.82232 0.92521 1.09161
 H2737 H 0.73912 0.89061 1.13971
 H2738 H 0.71799 0.88296 1.08568
 H2739 H 0.68980 0.87065 1.09842
 H2740 H 0.71118 0.87802 1.15259
 H2741 H 0.80178 0.91751 1.05087
 H2742 H 0.83099 0.92900 1.03975
 H2743 H 0.84930 0.93530 1.09517
 H2744 H 0.81996 0.92414 1.10610
 C2745 C 0.72598 0.39074 0.62973
 C2746 C 0.73000 0.38824 0.61136
 C2747 C 0.71797 0.37863 0.60031
 C2748 C 0.70202 0.37142 0.60759
 C2749 C 0.69769 0.37367 0.62621
 C2750 C 0.71004 0.38360 0.63709
 C2751 C 0.74661 0.39533 0.60394
 C2752 C 0.76063 0.40120 0.59790
 C2753 C 0.77715 0.40798 0.59103
 C2754 C 0.79136 0.41372 0.58533
 C2755 C 0.80845 0.42050 0.57876
 C2756 C 0.81169 0.42184 0.56007
 C2757 C 0.82838 0.42826 0.55374
 C2758 C 0.84204 0.43344 0.56604
 C2759 C 0.83861 0.43207 0.58481
 C2760 C 0.82193 0.42564 0.59110
 H2761 H 0.73530 0.39804 0.63846
 H2762 H 0.72089 0.37675 0.58600
 H2763 H 0.69288 0.36468 0.59831
 H2764 H 0.70802 0.38525 0.65154
 H2765 H 0.80133 0.41793 0.55040
 H2766 H 0.83054 0.42935 0.53922
 H2767 H 0.84894 0.43569 0.59461
 H2768 H 0.81959 0.42459 0.60560
 C2769 C 0.21822 0.87851 0.60063
 C2770 C 0.23018 0.88824 0.61165
 C2771 C 0.22613 0.89079 0.63000
 C2772 C 0.21021 0.88361 0.63737
 C2773 C 0.19791 0.87360 0.62652
 C2774 C 0.20228 0.87126 0.60792
 C2775 C 0.24676 0.89539 0.60423
 C2776 C 0.26075 0.90130 0.59818
 C2777 C 0.27725 0.90810 0.59126
 C2778 C 0.29144 0.91378 0.58547
 C2779 C 0.30850 0.92039 0.57868
 C2780 C 0.31165 0.93908 0.57725
 C2781 C 0.32834 0.94548 0.57090
 C2782 C 0.34210 0.93323 0.56587
 C2783 C 0.33878 0.91447 0.56732
 C2784 C 0.32209 0.90811 0.57368
 H2785 H 0.22117 0.87657 0.58634
 H2786 H 0.23540 0.89816 0.63872
 H2787 H 0.20817 0.88531 0.65182
 H2788 H 0.19319 0.86442 0.59866
 H2789 H 0.30121 0.94871 0.58107
 H2790 H 0.33043 0.95998 0.56975
 H2791 H 0.34918 0.90471 0.56381
 H2792 H 0.31983 0.89362 0.57480
 C2793 C 0.21794 0.37871 1.10024
 C2794 C 0.22994 0.38838 1.11127
 C2795 C 0.22590 0.39093 1.12963
 C2796 C 0.20996 0.38380 1.13699
 C2797 C 0.19762 0.37384 1.12613
 C2798 C 0.20198 0.37151 1.10753
 C2799 C 0.24654 0.39548 1.10386
 C2800 C 0.26056 0.40134 1.09782
 C2801 C 0.27709 0.40809 1.09092
 C2802 C 0.29130 0.41374 1.08516
 C2803 C 0.30840 0.42031 1.07841
 C2804 C 0.31158 0.43899 1.07700
 C2805 C 0.32831 0.44535 1.07069
 C2806 C 0.34206 0.43307 1.06571
 C2807 C 0.33869 0.41432 1.06714
 C2808 C 0.32197 0.40800 1.07345
 H2809 H 0.22088 0.37677 1.08595
 H2810 H 0.23520 0.39826 1.13835
 H2811 H 0.20793 0.38549 1.15144
 H2812 H 0.19286 0.36471 1.09826
 H2813 H 0.30116 0.44865 1.08079
 H2814 H 0.33043 0.45985 1.06956
 H2815 H 0.34908 0.40453 1.06366
 H2816 H 0.31967 0.39351 1.07456
 C2817 C 0.71738 1.09989 0.87947
 C2818 C 0.72941 1.11087 0.88915
 C2819 C 0.72549 1.12925 0.89160
 C2820 C 0.70965 1.13670 0.88434
 C2821 C 0.69729 1.12589 0.87434
 C2822 C 0.70152 1.10726 0.87214
 C2823 C 0.74595 1.10337 0.89633
 C2824 C 0.75992 1.09725 0.90223
 C2825 C 0.77640 1.09024 0.90900
 C2826 C 0.79058 1.08439 0.91464
 C2827 C 0.80765 1.07754 0.92119
 C2828 C 0.81089 1.07616 0.93988
 C2829 C 0.82760 1.06981 0.94622
 C2830 C 0.84130 1.06475 0.93391
 C2831 C 0.83788 1.06613 0.91515
 C2832 C 0.82116 1.07248 0.90885
 H2833 H 0.72023 1.08557 0.87761
 H2834 H 0.73482 1.13793 0.89894
 H2835 H 0.70771 1.15116 0.88595
 H2836 H 0.69237 1.09803 0.86533
 H2837 H 0.80051 1.08003 0.94956
 H2838 H 0.82977 1.06872 0.96073
 H2839 H 0.84823 1.06259 0.90534
 H2840 H 0.81883 1.07358 0.89436
 C2841 C 0.72764 0.61206 0.36899
 C2842 C 0.72984 0.61066 0.38782
 C2843 C 0.71599 0.61650 0.39943
 C2844 C 0.70002 0.62380 0.39223
 C2845 C 0.69772 0.62534 0.37331
 C2846 C 0.71170 0.61934 0.36177
 C2847 C 0.74643 0.60346 0.39520
 C2848 C 0.76042 0.59752 0.40122
 C2849 C 0.77692 0.59068 0.40810
 C2850 C 0.79112 0.58493 0.41381
 C2851 C 0.80820 0.57815 0.42042
 C2852 C 0.81139 0.57680 0.43911
 C2853 C 0.82809 0.57045 0.44549
 C2854 C 0.84181 0.56535 0.43322
 C2855 C 0.83843 0.56672 0.41445
 C2856 C 0.82174 0.57308 0.40811
 H2857 H 0.73831 0.60765 0.35988
 H2858 H 0.71754 0.61545 0.41403
 H2859 H 0.68942 0.62810 0.40145
 H2860 H 0.71043 0.62058 0.34716
 H2861 H 0.80099 0.58066 0.44876
 H2862 H 0.83023 0.56936 0.46001
 H2863 H 0.84881 0.56316 0.40467
 H2864 H 0.81944 0.57415 0.39361
 C2865 C 0.21764 1.10000 0.37899
 C2866 C 0.22970 1.11099 0.38863
 C2867 C 0.22577 1.12937 0.39109
 C2868 C 0.20989 1.13681 0.38389
 C2869 C 0.19751 1.12599 0.37393
 C2870 C 0.20175 1.10736 0.37172
 C2871 C 0.24627 1.10351 0.39575
 C2872 C 0.26025 1.09738 0.40161
 C2873 C 0.27675 1.09038 0.40834
 C2874 C 0.29094 1.08452 0.41396
 C2875 C 0.30801 1.07767 0.42051
 C2876 C 0.31124 1.07629 0.43920
 C2877 C 0.32796 1.06994 0.44553
 C2878 C 0.34166 1.06490 0.43323
 C2879 C 0.33824 1.06627 0.41447
 C2880 C 0.32153 1.07262 0.40817
 H2881 H 0.22050 1.08569 0.37712
 H2882 H 0.23512 1.13806 0.39841
 H2883 H 0.20794 1.15126 0.38551
 H2884 H 0.19258 1.09812 0.36494
 H2885 H 0.30086 1.08014 0.44887
 H2886 H 0.33012 1.06885 0.46005
 H2887 H 0.34860 1.06274 0.40466
 H2888 H 0.31919 1.07372 0.39367
 C2889 C 0.22541 0.60816 0.86984
 C2890 C 0.22953 0.61055 0.88820
 C2891 C 0.21765 0.62025 0.89934
 C2892 C 0.20174 0.62766 0.89214
 C2893 C 0.19732 0.62553 0.87353
 C2894 C 0.20952 0.61551 0.86257
 C2895 C 0.24611 0.60328 0.89553
 C2896 C 0.26010 0.59729 0.90151
 C2897 C 0.27660 0.59039 0.90834
 C2898 C 0.29079 0.58458 0.91401
 C2899 C 0.30786 0.57776 0.92060
 C2900 C 0.31106 0.57637 0.93929
 C2901 C 0.32777 0.57001 0.94565
 C2902 C 0.34148 0.56494 0.93336
 C2903 C 0.33808 0.56632 0.91459
 C2904 C 0.32139 0.57270 0.90827
 H2905 H 0.23462 0.60080 0.86105
 H2906 H 0.22064 0.62205 0.91364
 H2907 H 0.19271 0.63447 0.90148
 H2908 H 0.20742 0.61393 0.84812
 H2909 H 0.30067 0.58024 0.94895
 H2910 H 0.32991 0.56890 0.96016
 H2911 H 0.34845 0.56278 0.90480
 H2912 H 0.31908 0.57379 0.89378
 C2913 C 1.11312 1.27271 1.13016
 C2914 C 1.11169 1.27064 1.11132
 C2915 C 1.11757 1.28457 1.09981
 C2916 C 1.12489 1.30050 1.10711
 C2917 C 1.12641 1.30269 1.12605
 C2918 C 1.12043 1.28861 1.13749
 C2919 C 1.10433 1.25415 1.10386
 C2920 C 1.09823 1.24022 1.09782
 C2921 C 1.09116 1.22378 1.09097
 C2922 C 1.08520 1.20963 1.08530
 C2923 C 1.07819 1.19261 1.07875
 C2924 C 1.07668 1.18940 1.06007
 C2925 C 1.07017 1.17273 1.05375
 C2926 C 1.06505 1.15904 1.06606
 C2927 C 1.06654 1.16243 1.08482
 C2928 C 1.07306 1.17911 1.09110
 H2929 H 1.10868 1.26198 1.13920
 H2930 H 1.11649 1.28313 1.08519
 H2931 H 1.12919 1.31118 1.09796
 H2932 H 1.12165 1.28978 1.15211
 H2933 H 1.08059 1.19977 1.05039
 H2934 H 1.06899 1.17058 1.03924
 H2935 H 1.06296 1.15208 1.09463
 H2936 H 1.07424 1.18141 1.10560
 C2937 C 1.11810 0.78412 0.60017
 C2938 C 1.11224 0.77018 0.61168
 C2939 C 1.11364 0.77224 0.63053
 C2940 C 1.12091 0.78816 0.63786
 C2941 C 1.12689 0.80225 0.62642
 C2942 C 1.12539 0.80006 0.60749
 C2943 C 1.10491 0.75368 0.60421
 C2944 C 1.09882 0.73975 0.59814
 C2945 C 1.09177 0.72331 0.59126
 C2946 C 1.08582 0.70917 0.58556
 C2947 C 1.07882 0.69216 0.57896
 C2948 C 1.07359 0.67867 0.59127
 C2949 C 1.06704 0.66202 0.58494
 C2950 C 1.06565 0.65864 0.56618
 C2951 C 1.07088 0.67232 0.55390
 C2952 C 1.07741 0.68897 0.56026
 H2953 H 1.11705 0.78268 0.58556
 H2954 H 1.10921 0.76151 0.63955
 H2955 H 1.12212 0.78933 0.65248
 H2956 H 1.12968 0.81075 0.59834
 H2957 H 1.07469 0.68097 0.60577
 H2958 H 1.06338 0.65167 0.59473
 H2959 H 1.06977 0.67019 0.53938
 H2960 H 1.08140 0.69934 0.55061
 C2961 C 0.61347 1.27231 0.62982
 C2962 C 0.61198 1.27034 0.61097
 C2963 C 0.61782 1.28434 0.59951
 C2964 C 0.62514 1.30024 0.60687
 C2965 C 0.62670 1.30233 0.62582
 C2966 C 0.62077 1.28818 0.63721
 C2967 C 0.60460 1.25388 0.60346
 C2968 C 0.59846 1.23998 0.59740
 C2969 C 0.59135 1.22356 0.59055
 C2970 C 0.58535 1.20942 0.58490
 C2971 C 0.57830 1.19241 0.57839
 C2972 C 0.57684 1.18915 0.55971
 C2973 C 0.57029 1.17247 0.55343
 C2974 C 0.56512 1.15883 0.56577
 C2975 C 0.56656 1.16228 0.58452
 C2976 C 0.57311 1.17896 0.59077
 H2977 H 0.60907 1.26153 0.63881
 H2978 H 0.61670 1.28296 0.58489
 H2979 H 0.62940 1.31097 0.59777
 H2980 H 0.62203 1.28927 0.65183
 H2981 H 0.58079 1.19948 0.55001
 H2982 H 0.56915 1.17029 0.53892
 H2983 H 0.56294 1.15197 0.59436
 H2984 H 0.57425 1.18131 0.60526
 C2985 C 0.59991 0.78447 1.11745
 C2986 C 0.61125 0.77034 1.11173
 C2987 C 0.63007 0.77222 1.11314
 C2988 C 0.63755 0.78812 1.12030
 C2989 C 0.62627 0.80238 1.12617
 C2990 C 0.60736 0.80039 1.12463
 C2991 C 0.60363 0.75382 1.10461
 C2992 C 0.59743 0.73987 1.09871
 C2993 C 0.59042 0.72339 1.09189
 C2994 C 0.58465 0.70921 1.08611
 C2995 C 0.57804 0.69214 1.07927
 C2996 C 0.59032 0.67859 1.07417
 C2997 C 0.58400 0.66192 1.06769
 C2998 C 0.56527 0.65857 1.06621
 C2999 C 0.55303 0.67229 1.07136
 C3000 C 0.55938 0.68897 1.07784
 H3001 H 0.58532 0.78317 1.11639
 H3002 H 0.63897 0.76134 1.10882
 H3003 H 0.65214 0.78913 1.12155
 H3004 H 0.59834 0.81121 1.12883
 H3005 H 0.60478 0.68087 1.07530
 H3006 H 0.59376 0.65154 1.06409
 H3007 H 0.53854 0.67018 1.07020
 H3008 H 0.54976 0.69939 1.08173
 C3009 C 0.88610 1.27205 0.86954
 C3010 C 0.88738 1.26994 0.88839
 C3011 C 0.88162 1.28394 0.89989
 C3012 C 0.87455 1.29998 0.89256
 C3013 C 0.87317 1.30220 0.87362
 C3014 C 0.87905 1.28806 0.86219
 C3015 C 0.89445 1.25333 0.89588
 C3016 C 0.90031 1.23931 0.90196
 C3017 C 0.90712 1.22278 0.90885
 C3018 C 0.91288 1.20856 0.91454
 C3019 C 0.91970 1.19146 0.92110
 C3020 C 0.92109 1.18820 0.93978
 C3021 C 0.92756 1.17150 0.94610
 C3022 C 0.93274 1.15784 0.93377
 C3023 C 0.93132 1.16127 0.91502
 C3024 C 0.92484 1.17796 0.90874
 H3025 H 0.89046 1.26128 0.86052
 H3026 H 0.88258 1.28246 0.91450
 H3027 H 0.87033 1.31070 0.90170
 H3028 H 0.87792 1.28926 0.84757
 H3029 H 0.91718 1.19857 0.94947
 H3030 H 0.92869 1.16933 0.96060
 H3031 H 0.93494 1.15093 0.90520
 H3032 H 0.92375 1.18031 0.89425
 C3033 C 0.88696 0.77241 0.36935
 C3034 C 0.88822 0.77018 0.38819
 C3035 C 0.88235 0.78405 0.39978
 C3036 C 0.87517 0.80008 0.39256
 C3037 C 0.87379 0.80243 0.37363
 C3038 C 0.87980 0.78842 0.36210
 C3039 C 0.89537 0.75355 0.39558
 C3040 C 0.90130 0.73953 0.40159
 C3041 C 0.90815 0.72300 0.40844
 C3042 C 0.91394 0.70878 0.41411
 C3043 C 0.92077 0.69168 0.42067
 C3044 C 0.92210 0.68842 0.43936
 C3045 C 0.92853 0.67171 0.44569
 C3046 C 0.93373 0.65805 0.43338
 C3047 C 0.93238 0.66149 0.41462
 C3048 C 0.92594 0.67819 0.40833
 H3049 H 0.89140 0.76173 0.36026
 H3050 H 0.88330 0.78247 0.41438
 H3051 H 0.87086 0.81071 0.40176
 H3052 H 0.87868 0.78972 0.34749
 H3053 H 0.91815 0.69879 0.44904
 H3054 H 0.92959 0.66953 0.46020
 H3055 H 0.93603 0.65115 0.40481
 H3056 H 0.92490 0.68054 0.39383
 C3057 C 0.38602 1.27194 0.36928
 C3058 C 0.38745 1.26984 0.38812
 C3059 C 0.38172 1.28382 0.39966
 C3060 C 0.37455 1.29983 0.39238
 C3061 C 0.37304 1.30206 0.37345
 C3062 C 0.37888 1.28793 0.36198
 C3063 C 0.39464 1.25326 0.39555
 C3064 C 0.40062 1.23927 0.40158
 C3065 C 0.40755 1.22277 0.40842
 C3066 C 0.41341 1.20857 0.41408
 C3067 C 0.42033 1.19150 0.42062
 C3068 C 0.42173 1.18825 0.43931
 C3069 C 0.42822 1.17156 0.44562
 C3070 C 0.43340 1.15790 0.43329
 C3071 C 0.43200 1.16134 0.41454
 C3072 C 0.42550 1.17803 0.40826
 H3073 H 0.39035 1.26118 0.36022
 H3074 H 0.38279 1.28235 0.41427
 H3075 H 0.37036 1.31054 0.40155
 H3076 H 0.37765 1.28913 0.34736
 H3077 H 0.41778 1.19861 0.44899
 H3078 H 0.42933 1.16938 0.46013
 H3079 H 0.43563 1.15101 0.40472
 H3080 H 0.42441 1.18037 0.39377
 C3081 C 0.38188 0.78392 0.89990
 C3082 C 0.38756 0.76992 0.88837
 C3083 C 0.38609 0.77200 0.86952
 C3084 C 0.37893 0.78799 0.86223
 C3085 C 0.37312 0.80212 0.87370
 C3086 C 0.37469 0.79992 0.89263
 C3087 C 0.39473 0.75333 0.89580
 C3088 C 0.40066 0.73932 0.90184
 C3089 C 0.40753 0.72280 0.90870
 C3090 C 0.41334 0.70859 0.91436
 C3091 C 0.42019 0.69150 0.92090
 C3092 C 0.42534 0.67801 0.90853
 C3093 C 0.43180 0.66131 0.91480
 C3094 C 0.43319 0.65786 0.93355
 C3095 C 0.42801 0.67151 0.94589
 C3096 C 0.42157 0.68823 0.93958
 H3097 H 0.38298 0.78246 0.91451
 H3098 H 0.39038 0.76122 0.86047
 H3099 H 0.37765 0.78916 0.84762
 H3100 H 0.37053 0.81064 0.90179
 H3101 H 0.42426 0.68038 0.89404
 H3102 H 0.43542 0.65098 0.90498
 H3103 H 0.42912 0.66933 0.96040
 H3104 H 0.41764 0.69858 0.94927
 C3105 C 1.13140 0.72762 0.88781
 C3106 C 1.11261 0.72984 0.88919
 C3107 C 1.10103 0.71596 0.88335
 C3108 C 1.10821 0.69995 0.87608
 C3109 C 1.12708 0.69763 0.87456
 C3110 C 1.13860 0.71163 0.88055
 C3111 C 1.10526 0.74646 0.89637
 C3112 C 1.09924 0.76048 0.90228
 C3113 C 1.09237 0.77702 0.90910
 C3114 C 1.08665 0.79125 0.91484
 C3115 C 1.08003 0.80834 0.92160
 C3116 C 1.06137 0.81148 0.92303
 C3117 C 1.05497 0.82820 0.92938
 C3118 C 1.06719 0.84199 0.93440
 C3119 C 1.08592 0.83867 0.93295
 C3120 C 1.09228 0.82196 0.92659
 H3121 H 1.14049 0.73830 0.89222
 H3122 H 1.08647 0.71753 0.88439
 H3123 H 1.09900 0.68934 0.87178
 H3124 H 1.15318 0.71035 0.87933
 H3125 H 1.05177 0.80102 0.91922
 H3126 H 1.04049 0.83028 0.93053
 H3127 H 1.09565 0.84911 0.93645
 H3128 H 1.10675 0.81971 0.92547
 C3129 C 1.13095 0.22769 0.38689
 C3130 C 1.11215 0.22977 0.38829
 C3131 C 1.10067 0.21579 0.38250
 C3132 C 1.10796 0.19981 0.37528
 C3133 C 1.12685 0.19761 0.37379
 C3134 C 1.13827 0.21173 0.37970
 C3135 C 1.10469 0.24632 0.39552
 C3136 C 1.09864 0.26030 0.40151
 C3137 C 1.09177 0.27678 0.40846
 C3138 C 1.08608 0.29097 0.41432
 C3139 C 1.07951 0.30802 0.42123
 C3140 C 1.06086 0.31121 0.42266
 C3141 C 1.05452 0.32790 0.42913
 C3142 C 1.06677 0.34162 0.43426
 C3143 C 1.08550 0.33824 0.43283
 C3144 C 1.09180 0.32156 0.42635
 H3145 H 1.13996 0.23846 0.39127
 H3146 H 1.08609 0.21724 0.38355
 H3147 H 1.09884 0.18910 0.37104
 H3148 H 1.15285 0.21056 0.37848
 H3149 H 1.05122 0.30082 0.41876
 H3150 H 1.04004 0.33004 0.43027
 H3151 H 1.09526 0.34861 0.43642
 H3152 H 1.10627 0.31926 0.42523
 C3153 C 0.63117 0.72749 0.38759
 C3154 C 0.61238 0.72965 0.38909
 C3155 C 0.60082 0.71573 0.38332
 C3156 C 0.60800 0.69975 0.37600
 C3157 C 0.62687 0.69749 0.37436
 C3158 C 0.63838 0.71153 0.38029
 C3159 C 0.60502 0.74624 0.39633
 C3160 C 0.59901 0.76024 0.40231
 C3161 C 0.59215 0.77675 0.40920
 C3162 C 0.58645 0.79096 0.41500
 C3163 C 0.57984 0.80804 0.42181
 C3164 C 0.56118 0.81121 0.42319
 C3165 C 0.55480 0.82792 0.42956
 C3166 C 0.56703 0.84168 0.43466
 C3167 C 0.58576 0.83832 0.43328
 C3168 C 0.59210 0.82161 0.42690
 H3169 H 0.64025 0.73821 0.39195
 H3170 H 0.58625 0.71725 0.38444
 H3171 H 0.59881 0.68910 0.37175
 H3172 H 0.65295 0.71030 0.37898
 H3173 H 0.55157 0.80078 0.41931
 H3174 H 0.54032 0.83004 0.43066
 H3175 H 0.59551 0.84872 0.43684
 H3176 H 0.60657 0.81933 0.42581
 C3177 C 0.63095 0.22775 0.88708
 C3178 C 0.61215 0.22989 0.88841
 C3179 C 0.60065 0.21596 0.88254
 C3180 C 0.60792 0.19996 0.87532
 C3181 C 0.62681 0.19770 0.87391
 C3182 C 0.63825 0.21178 0.87989
 C3183 C 0.60473 0.24645 0.89564
 C3184 C 0.59870 0.26043 0.90164
 C3185 C 0.59185 0.27692 0.90859
 C3186 C 0.58618 0.29111 0.91445
 C3187 C 0.57961 0.30818 0.92136
 C3188 C 0.56097 0.31138 0.92278
 C3189 C 0.55463 0.32808 0.92922
 C3190 C 0.56689 0.34179 0.93434
 C3191 C 0.58561 0.33840 0.93293
 C3192 C 0.59191 0.32171 0.92647
 H3193 H 0.63998 0.23847 0.89152
 H3194 H 0.58607 0.21746 0.88352
 H3195 H 0.59878 0.18929 0.87102
 H3196 H 0.65283 0.21055 0.87874
 H3197 H 0.55133 0.30098 0.91888
 H3198 H 0.54015 0.33021 0.93035
 H3199 H 0.59538 0.34878 0.93651
 H3200 H 0.60637 0.31940 0.92536
 C3201 C 0.88312 0.71565 1.10019
 C3202 C 0.88914 0.72944 1.11180
 C3203 C 0.88784 0.72719 1.13063
 C3204 C 0.88050 0.71125 1.13785
 C3205 C 0.87434 0.69733 1.12630
 C3206 C 0.87576 0.69969 1.10737
 C3207 C 0.89647 0.74600 1.10445
 C3208 C 0.90253 0.75997 1.09846
 C3209 C 0.90952 0.77646 1.09165
 C3210 C 0.91540 0.79064 1.08599
 C3211 C 0.92231 0.80770 1.07943
 C3212 C 0.92741 0.82123 1.09177
 C3213 C 0.93384 0.83793 1.08546
 C3214 C 0.93525 0.84133 1.06670
 C3215 C 0.93016 0.82762 1.05440
 C3216 C 0.92374 0.81091 1.06074
 H3217 H 0.88410 0.71724 1.08558
 H3218 H 0.89239 0.73781 1.13975
 H3219 H 0.87935 0.70995 1.15246
 H3220 H 0.87133 0.68914 1.09814
 H3221 H 0.92628 0.81892 1.10626
 H3222 H 0.93739 0.84830 1.09527
 H3223 H 0.93128 0.82976 1.03989
 H3224 H 0.91986 0.80052 1.05107
 C3225 C 0.88642 0.22798 0.63094
 C3226 C 0.88781 0.23005 0.61209
 C3227 C 0.88192 0.21612 0.60058
 C3228 C 0.87461 0.20019 0.60790
 C3229 C 0.87312 0.19800 0.62683
 C3230 C 0.87913 0.21208 0.63827
 C3231 C 0.89512 0.24656 0.60461
 C3232 C 0.90118 0.26049 0.59853
 C3233 C 0.90819 0.27693 0.59162
 C3234 C 0.91410 0.29107 0.58589
 C3235 C 0.92108 0.30808 0.57927
 C3236 C 0.92255 0.31121 0.56057
 C3237 C 0.92908 0.32786 0.55418
 C3238 C 0.93422 0.34159 0.56644
 C3239 C 0.93274 0.33828 0.58521
 C3240 C 0.92621 0.32163 0.59157
 H3241 H 0.89087 0.23872 0.63997
 H3242 H 0.88296 0.21756 0.58597
 H3243 H 0.87029 0.18951 0.59875
 H3244 H 0.87792 0.21091 0.65289
 H3245 H 0.91864 0.30081 0.55094
 H3246 H 0.93025 0.32995 0.53967
 H3247 H 0.93634 0.34866 0.59498
 H3248 H 0.92505 0.31938 0.60607
 C3249 C 0.37054 0.72741 0.61264
 C3250 C 0.38936 0.72937 0.61135
 C3251 C 0.40073 0.71527 0.61709
 C3252 C 0.39330 0.69930 0.62417
 C3253 C 0.37439 0.69723 0.62558
 C3254 C 0.36309 0.71146 0.61970
 C3255 C 0.39694 0.74594 0.60432
 C3256 C 0.40307 0.75995 0.59850
 C3257 C 0.40999 0.77649 0.59176
 C3258 C 0.41567 0.79074 0.58606
 C3259 C 0.42217 0.80788 0.57931
 C3260 C 0.44080 0.81121 0.57800
 C3261 C 0.44705 0.82797 0.57161
 C3262 C 0.43471 0.84160 0.56643
 C3263 C 0.41601 0.83809 0.56778
 C3264 C 0.40980 0.82135 0.57418
 H3265 H 0.36162 0.73827 0.60830
 H3266 H 0.41532 0.71664 0.61612
 H3267 H 0.40233 0.68850 0.62840
 H3268 H 0.34849 0.71038 0.62085
 H3269 H 0.45049 0.80087 0.58191
 H3270 H 0.46152 0.83020 0.57054
 H3271 H 0.40618 0.84840 0.56416
 H3272 H 0.39535 0.81894 0.57522
 C3273 C 0.38274 0.21570 1.09996
 C3274 C 0.38871 0.22957 1.11151
 C3275 C 0.38739 0.22742 1.13035
 C3276 C 0.38011 0.21150 1.13764
 C3277 C 0.37402 0.19749 1.12616
 C3278 C 0.37543 0.19976 1.10723
 C3279 C 0.39602 0.24610 1.10408
 C3280 C 0.40207 0.26006 1.09806
 C3281 C 0.40906 0.27654 1.09123
 C3282 C 0.41496 0.29071 1.08557
 C3283 C 0.42189 0.30777 1.07903
 C3284 C 0.42690 0.32131 1.09138
 C3285 C 0.43336 0.33801 1.08510
 C3286 C 0.43488 0.34139 1.06635
 C3287 C 0.42987 0.32766 1.05403
 C3288 C 0.42342 0.31096 1.06034
 H3289 H 0.38373 0.21722 1.08535
 H3290 H 0.39190 0.23810 1.13941
 H3291 H 0.37896 0.21027 1.15226
 H3292 H 0.37105 0.18913 1.09806
 H3293 H 0.42570 0.31901 1.10587
 H3294 H 0.43686 0.34839 1.09492
 H3295 H 0.43108 0.32980 1.03952
 H3296 H 0.41960 0.30056 1.05066
 C3297 C 1.12959 1.10810 0.72514
 C3298 C 1.11127 1.11065 0.72917
 C3299 C 1.10030 1.12039 0.71716
 C3300 C 1.10761 1.12769 0.70123
 C3301 C 1.12618 1.12540 0.69691
 C3302 C 1.13698 1.11533 0.70923
 C3303 C 1.10383 1.10353 0.74578
 C3304 C 1.09773 1.09769 0.75981
 C3305 C 1.09073 1.09100 0.77635
 C3306 C 1.08487 1.08541 0.79058
 C3307 C 1.07800 1.07892 0.80769
 C3308 C 1.07282 1.09129 0.82115
 C3309 C 1.06643 1.08505 0.83790
 C3310 C 1.06515 1.06631 0.84142
 C3311 C 1.07034 1.05397 0.82778
 C3312 C 1.07672 1.06025 0.81102
 H3313 H 1.13826 1.10071 0.73444
 H3314 H 1.08603 1.12232 0.72008
 H3315 H 1.09839 1.13454 0.69211
 H3316 H 1.15140 1.11364 0.70721
 H3317 H 1.07383 1.10577 0.81875
 H3318 H 1.06279 1.09488 0.84822
 H3319 H 1.06932 1.03948 0.83001
 H3320 H 1.08068 1.05055 0.80069
 C3321 C 1.13010 0.60920 0.22577
 C3322 C 1.11177 0.61170 0.22976
 C3323 C 1.10079 0.62141 0.21774
 C3324 C 1.10812 0.62872 0.20182
 C3325 C 1.12670 0.62647 0.19752
 C3326 C 1.13750 0.61644 0.20987
 C3327 C 1.10432 0.60451 0.24634
 C3328 C 1.09826 0.59856 0.26033
 C3329 C 1.09137 0.59167 0.27685
 C3330 C 1.08567 0.58586 0.29105
 C3331 C 1.07910 0.57901 0.30814
 C3332 C 1.06045 0.57752 0.31130
 C3333 C 1.05410 0.57108 0.32801
 C3334 C 1.06636 0.56602 0.34176
 C3335 C 1.08508 0.56752 0.33841
 C3336 C 1.09139 0.57398 0.32171
 H3337 H 1.13877 0.60182 0.23509
 H3338 H 1.08651 0.62331 0.22063
 H3339 H 1.09890 0.63556 0.19267
 H3340 H 1.15193 0.61478 0.20787
 H3341 H 1.05081 0.58136 0.30087
 H3342 H 1.03963 0.56989 0.33012
 H3343 H 1.09485 0.56399 0.34882
 H3344 H 1.10585 0.57514 0.31943
 C3345 C 0.63024 1.11304 0.22761
 C3346 C 0.61143 1.11169 0.22961
 C3347 C 0.60001 1.11753 0.21559
 C3348 C 0.60738 1.12475 0.19964
 C3349 C 0.62629 1.12621 0.19753
 C3350 C 0.63764 1.12024 0.21169
 C3351 C 0.60391 1.10448 0.24615
 C3352 C 0.59781 1.09852 0.26012
 C3353 C 0.59091 1.09161 0.27662
 C3354 C 0.58523 1.08578 0.29082
 C3355 C 0.57868 1.07891 0.30790
 C3356 C 0.56004 1.07739 0.31109
 C3357 C 0.55373 1.07094 0.32781
 C3358 C 0.56601 1.06591 0.34155
 C3359 C 0.58472 1.06744 0.33818
 C3360 C 0.59100 1.07390 0.32147
 H3361 H 0.63920 1.10862 0.23841
 H3362 H 0.58543 1.11652 0.21699
 H3363 H 0.59831 1.12904 0.18890
 H3364 H 0.65222 1.12143 0.21058
 H3365 H 0.55038 1.08120 0.30067
 H3366 H 0.53925 1.06972 0.32993
 H3367 H 0.59451 1.06394 0.34857
 H3368 H 0.60545 1.07509 0.31917
 C3369 C 0.61313 0.63013 0.72762
 C3370 C 0.61164 0.61130 0.72963
 C3371 C 0.61738 0.59981 0.71561
 C3372 C 0.62464 0.60713 0.69965
 C3373 C 0.62624 0.62606 0.69753
 C3374 C 0.62037 0.63748 0.71169
 C3375 C 0.60440 0.60382 0.74617
 C3376 C 0.59840 0.59777 0.76015
 C3377 C 0.59145 0.59091 0.77664
 C3378 C 0.58560 0.58525 0.79084
 C3379 C 0.57870 0.57873 0.80792
 C3380 C 0.57736 0.56006 0.81121
 C3381 C 0.57091 0.55376 0.82793
 C3382 C 0.56569 0.56609 0.84158
 C3383 C 0.56702 0.58483 0.83810
 C3384 C 0.57349 0.59109 0.82138
 H3385 H 0.60880 0.63915 0.73842
 H3386 H 0.61627 0.58521 0.71702
 H3387 H 0.62885 0.59801 0.68892
 H3388 H 0.62166 0.65208 0.71057
 H3389 H 0.58134 0.55037 0.80087
 H3390 H 0.56985 0.53927 0.83014
 H3391 H 0.56336 0.59466 0.84842
 H3392 H 0.57453 0.60557 0.81901
 C3393 C 0.88746 0.86946 0.72748
 C3394 C 0.88896 0.88828 0.72960
 C3395 C 0.88318 0.89985 0.71566
 C3396 C 0.87587 0.89262 0.69969
 C3397 C 0.87425 0.87371 0.69746
 C3398 C 0.88017 0.86221 0.71153
 C3399 C 0.89622 0.89567 0.74618
 C3400 C 0.90221 0.90167 0.76018
 C3401 C 0.90912 0.90848 0.77671
 C3402 C 0.91494 0.91413 0.79093
 C3403 C 0.92178 0.92065 0.80804
 C3404 C 0.92310 0.93932 0.81134
 C3405 C 0.92947 0.94562 0.82809
 C3406 C 0.93463 0.93329 0.84176
 C3407 C 0.93332 0.91455 0.83827
 C3408 C 0.92694 0.90829 0.82153
 H3409 H 0.89182 0.86039 0.73822
 H3410 H 0.88431 0.91444 0.71715
 H3411 H 0.87162 0.90181 0.68902
 H3412 H 0.87886 0.84761 0.71033
 H3413 H 0.91916 0.94901 0.80098
 H3414 H 0.93052 0.96011 0.83031
 H3415 H 0.93693 0.90473 0.84861
 H3416 H 0.92590 0.89381 0.81915
 C3417 C 0.88759 0.36937 0.22730
 C3418 C 0.88897 0.38819 0.22946
 C3419 C 0.88308 0.39976 0.21558
 C3420 C 0.87576 0.39254 0.19960
 C3421 C 0.87426 0.37362 0.19733
 C3422 C 0.88029 0.36212 0.21135
 C3423 C 0.89625 0.39559 0.24603
 C3424 C 0.90226 0.40160 0.26002
 C3425 C 0.90919 0.40844 0.27653
 C3426 C 0.91503 0.41411 0.29074
 C3427 C 0.92190 0.42067 0.30783
 C3428 C 0.92328 0.43935 0.31106
 C3429 C 0.92968 0.44568 0.32779
 C3430 C 0.93480 0.43338 0.34150
 C3431 C 0.93342 0.41463 0.33808
 C3432 C 0.92701 0.40834 0.32135
 H3433 H 0.89204 0.36029 0.23799
 H3434 H 0.88412 0.41436 0.21710
 H3435 H 0.87143 0.40173 0.18897
 H3436 H 0.87908 0.34752 0.21011
 H3437 H 0.91938 0.44901 0.30067
 H3438 H 0.93078 0.46018 0.32995
 H3439 H 0.93699 0.40483 0.34845
 H3440 H 0.92592 0.39385 0.31902
 C3441 C 0.36979 0.88680 0.22759
 C3442 C 0.38860 0.88812 0.22958
 C3443 C 0.40000 0.88227 0.21555
 C3444 C 0.39261 0.87507 0.19959
 C3445 C 0.37371 0.87365 0.19748
 C3446 C 0.36237 0.87962 0.21166
 C3447 C 0.39616 0.89527 0.24613
 C3448 C 0.40232 0.90116 0.26011
 C3449 C 0.40936 0.90794 0.27660
 C3450 C 0.41524 0.91360 0.29079
 C3451 C 0.42210 0.92020 0.30787
 C3452 C 0.42721 0.90790 0.32143
 C3453 C 0.43358 0.91424 0.33815
 C3454 C 0.43491 0.93300 0.34154
 C3455 C 0.42980 0.94526 0.32780
 C3456 C 0.42344 0.93888 0.31107
 H3457 H 0.36084 0.89121 0.23840
 H3458 H 0.41459 0.88326 0.21694
 H3459 H 0.40167 0.87078 0.18884
 H3460 H 0.34778 0.87846 0.21055
 H3461 H 0.42615 0.89341 0.31912
 H3462 H 0.43716 0.90447 0.34854
 H3463 H 0.43086 0.95977 0.32994
 H3464 H 0.41953 0.94852 0.30066
 C3465 C 0.39957 0.37854 0.71733
 C3466 C 0.38863 0.38822 0.72940
 C3467 C 0.37029 0.39072 0.72547
 C3468 C 0.36284 0.38353 0.70956
 C3469 C 0.37362 0.37355 0.69715
 C3470 C 0.39221 0.37127 0.70140
 C3471 C 0.39612 0.39537 0.74599
 C3472 C 0.40223 0.40126 0.75998
 C3473 C 0.40922 0.40804 0.77650
 C3474 C 0.41505 0.41371 0.79071
 C3475 C 0.42188 0.42032 0.80780
 C3476 C 0.42314 0.43900 0.81103
 C3477 C 0.42949 0.44538 0.82776
 C3478 C 0.43467 0.43312 0.84148
 C3479 C 0.43340 0.41436 0.83806
 C3480 C 0.42704 0.40802 0.82134
 H3481 H 0.41386 0.37663 0.72018
 H3482 H 0.36164 0.39806 0.73483
 H3483 H 0.34841 0.38519 0.70761
 H3484 H 0.40141 0.36447 0.69221
 H3485 H 0.41920 0.44864 0.80063
 H3486 H 0.43051 0.45989 0.82991
 H3487 H 0.43703 0.40459 0.84844
 H3488 H 0.42604 0.39353 0.81901
 C3489 C 1.10119 0.87864 1.28239
 C3490 C 1.11222 0.88829 1.27036
 C3491 C 1.13057 0.89065 1.27434
 C3492 C 1.13794 0.88337 1.29024
 C3493 C 1.12707 0.87344 1.30261
 C3494 C 1.10848 0.87129 1.29831
 C3495 C 1.10480 0.89558 1.25380
 C3496 C 1.09876 0.90163 1.23983
 C3497 C 1.09190 0.90864 1.22336
 C3498 C 1.08620 0.91456 1.20920
 C3499 C 1.07959 0.92153 1.19216
 C3500 C 1.09186 0.92682 1.17866
 C3501 C 1.08551 0.93333 1.16199
 C3502 C 1.06679 0.93463 1.15860
 C3503 C 1.05456 0.92933 1.17229
 C3504 C 1.06094 0.92283 1.18896
 H3505 H 1.08690 0.87685 1.27950
 H3506 H 1.13928 0.89796 1.26501
 H3507 H 1.15237 0.88493 1.29223
 H3508 H 1.09922 0.86453 1.30746
 H3509 H 1.10633 0.92580 1.18097
 H3510 H 1.09526 0.93705 1.15164
 H3511 H 1.04007 0.93036 1.17015
 H3512 H 1.05132 0.91879 1.19933
 C3513 C 1.13056 0.38678 0.77236
 C3514 C 1.11176 0.38833 0.77036
 C3515 C 1.10030 0.38267 0.78442
 C3516 C 1.10761 0.37543 0.80039
 C3517 C 1.12650 0.37377 0.80250
 C3518 C 1.13790 0.37956 0.78831
 C3519 C 1.10428 0.39554 0.75380
 C3520 C 1.09819 0.40151 0.73982
 C3521 C 1.09128 0.40842 0.72333
 C3522 C 1.08555 0.41425 0.70914
 C3523 C 1.07895 0.42113 0.69207
 C3524 C 1.06029 0.42248 0.68887
 C3525 C 1.05393 0.42895 0.67218
 C3526 C 1.06617 0.43416 0.65847
 C3527 C 1.08489 0.43280 0.66186
 C3528 C 1.09122 0.42633 0.67855
 H3529 H 1.13956 0.39105 0.76153
 H3530 H 1.08572 0.38383 0.78303
 H3531 H 1.09850 0.37129 0.81116
 H3532 H 1.15247 0.37823 0.78942
 H3533 H 1.05067 0.41852 0.69926
 H3534 H 1.03944 0.43002 0.67004
 H3535 H 1.09465 0.43646 0.65149
 H3536 H 1.10569 0.42527 0.68085
 C3537 C 0.60032 0.88386 0.78490
 C3538 C 0.61182 0.88959 0.77091
 C3539 C 0.63062 0.88809 0.77298
 C3540 C 0.63791 0.88081 0.78893
 C3541 C 0.62646 0.87490 0.80303
 C3542 C 0.60758 0.87656 0.80086
 C3543 C 0.60438 0.89677 0.75432
 C3544 C 0.59831 0.90267 0.74031
 C3545 C 0.59138 0.90948 0.72378
 C3546 C 0.58565 0.91521 0.70955
 C3547 C 0.57903 0.92196 0.69244
 C3548 C 0.59129 0.92709 0.67888
 C3549 C 0.58495 0.93344 0.66215
 C3550 C 0.56622 0.93476 0.65876
 C3551 C 0.55399 0.92960 0.67250
 C3552 C 0.56037 0.92325 0.68923
 H3553 H 0.58575 0.88499 0.78345
 H3554 H 0.63965 0.89242 0.76220
 H3555 H 0.65248 0.87948 0.79008
 H3556 H 0.59843 0.87233 0.81157
 H3557 H 0.60576 0.92607 0.68119
 H3558 H 0.59470 0.93705 0.65176
 H3559 H 0.53951 0.93065 0.67036
 H3560 H 0.55076 0.91934 0.69965
 C3561 C 0.62112 0.39943 1.28256
 C3562 C 0.61128 0.38843 1.27066
 C3563 C 0.60871 0.37010 1.27478
 C3564 C 0.61601 0.36273 1.29068
 C3565 C 0.62616 0.37357 1.30289
 C3566 C 0.62849 0.39214 1.29847
 C3567 C 0.60406 0.39585 1.25408
 C3568 C 0.59812 0.40193 1.24008
 C3569 C 0.59132 0.40891 1.22357
 C3570 C 0.58565 0.41477 1.20937
 C3571 C 0.57907 0.42164 1.19229
 C3572 C 0.56041 0.42296 1.18907
 C3573 C 0.55405 0.42937 1.17236
 C3574 C 0.56630 0.43456 1.15864
 C3575 C 0.58502 0.43323 1.16205
 C3576 C 0.59135 0.42681 1.17876
 H3577 H 0.62307 0.41370 1.27957
 H3578 H 0.60124 0.36141 1.26556
 H3579 H 0.61428 0.34831 1.29277
 H3580 H 0.63542 0.40139 1.30752
 H3581 H 0.55079 0.41901 1.19946
 H3582 H 0.53957 0.43043 1.17021
 H3583 H 0.59478 0.43686 1.15168
 H3584 H 0.60581 0.42576 1.18108
 C3585 C 0.89098 1.12955 1.27491
 C3586 C 0.88839 1.11122 1.27081
 C3587 C 0.87866 1.10021 1.28278
 C3588 C 0.87141 1.10750 1.29875
 C3589 C 0.87375 1.12607 1.30315
 C3590 C 0.88380 1.13691 1.29086
 C3591 C 0.89552 1.10381 1.25418
 C3592 C 0.90142 1.09779 1.24014
 C3593 C 0.90824 1.09094 1.22359
 C3594 C 0.91400 1.08528 1.20934
 C3595 C 0.92080 1.07875 1.19222
 C3596 C 0.92237 1.06008 1.18901
 C3597 C 0.92878 1.05379 1.17227
 C3598 C 0.93373 1.06611 1.15853
 C3599 C 0.93214 1.08485 1.16191
 C3600 C 0.92572 1.09111 1.17864
 H3601 H 0.89837 1.13825 1.26564
 H3602 H 0.87670 1.08593 1.27980
 H3603 H 0.86455 1.09824 1.30784
 H3604 H 0.88553 1.15134 1.29294
 H3605 H 0.91862 1.05040 1.19944
 H3606 H 0.93004 1.03929 1.17014
 H3607 H 0.93558 1.09467 1.15152
 H3608 H 0.92449 1.10559 1.18096
 C3609 C 0.88661 0.63023 0.77217
 C3610 C 0.88788 0.61139 0.77007
 C3611 C 0.88200 0.59991 0.78403
 C3612 C 0.87481 0.60725 0.80002
 C3613 C 0.87344 0.62618 0.80224
 C3614 C 0.87945 0.63759 0.78813
 C3615 C 0.89506 0.60390 0.75350
 C3616 C 0.90101 0.59783 0.73951
 C3617 C 0.90791 0.59096 0.72300
 C3618 C 0.91374 0.58529 0.70879
 C3619 C 0.92063 0.57876 0.69169
 C3620 C 0.92214 0.56009 0.68847
 C3621 C 0.92861 0.55380 0.67175
 C3622 C 0.93367 0.56613 0.65805
 C3623 C 0.93214 0.58487 0.66146
 C3624 C 0.92566 0.59112 0.67817
 H3625 H 0.89106 0.63924 0.76142
 H3626 H 0.88295 0.58530 0.78256
 H3627 H 0.87049 0.59813 0.81072
 H3628 H 0.87833 0.65220 0.78932
 H3629 H 0.91830 0.55041 0.69886
 H3630 H 0.92982 0.53930 0.66960
 H3631 H 0.93567 0.59468 0.65109
 H3632 H 0.92447 0.60560 0.68049
 C3633 C 0.39903 1.11685 0.78419
 C3634 C 0.38749 1.11120 0.77019
 C3635 C 0.36870 1.11284 0.77225
 C3636 C 0.36147 1.12015 0.78820
 C3637 C 0.37294 1.12594 0.80233
 C3638 C 0.39182 1.12418 0.80016
 C3639 C 0.39488 1.10396 0.75360
 C3640 C 0.40093 1.09803 0.73960
 C3641 C 0.40787 1.09123 0.72307
 C3642 C 0.41369 1.08557 0.70885
 C3643 C 0.42052 1.07902 0.69175
 C3644 C 0.42199 1.06034 0.68854
 C3645 C 0.42840 1.05401 0.67181
 C3646 C 0.43343 1.06632 0.65808
 C3647 C 0.43193 1.08506 0.66146
 C3648 C 0.42552 1.09135 0.67819
 H3649 H 0.41359 1.11563 0.78275
 H3650 H 0.35965 1.10858 0.76146
 H3651 H 0.34690 1.12156 0.78935
 H3652 H 0.40098 1.12832 0.81088
 H3653 H 0.41818 1.05067 0.69896
 H3654 H 0.42959 1.03952 0.66967
 H3655 H 0.43544 1.09486 0.65108
 H3656 H 0.42435 1.10584 0.68050
 C3657 C 0.37814 0.60056 1.28229
 C3658 C 0.38789 0.61150 1.27028
 C3659 C 0.39054 0.62983 1.27432
 C3660 C 0.38340 0.63727 1.29026
 C3661 C 0.37334 0.62649 1.30260
 C3662 C 0.37094 0.60791 1.29825
 C3663 C 0.39499 0.60403 1.25366
 C3664 C 0.40087 0.59795 1.23964
 C3665 C 0.40768 0.59106 1.22310
 C3666 C 0.41344 0.58536 1.20887
 C3667 C 0.42026 0.57879 1.19177
 C3668 C 0.42528 0.59112 1.17821
 C3669 C 0.43174 0.58483 1.16150
 C3670 C 0.43325 0.56609 1.15812
 C3671 C 0.42819 0.55379 1.17185
 C3672 C 0.42174 0.56011 1.18857
 H3673 H 0.37613 0.58628 1.27936
 H3674 H 0.39794 0.63849 1.26501
 H3675 H 0.38517 0.65169 1.29230
 H3676 H 0.36407 0.59870 1.30738
 H3677 H 0.42412 0.60561 1.18052
 H3678 H 0.43527 0.59463 1.15112
 H3679 H 0.42939 0.53929 1.16972
 H3680 H 0.41791 0.55045 1.19898
 C3681 C 1.12936 1.27452 0.89125
 C3682 C 1.11100 1.27066 0.88875
 C3683 C 1.10010 1.28278 0.87908
 C3684 C 1.10752 1.29866 0.87180
 C3685 C 1.12613 1.30283 0.87406
 C3686 C 1.13686 1.29039 0.88405
 C3687 C 1.10345 1.25411 0.89589
 C3688 C 1.09729 1.24014 0.90176
 C3689 C 1.09024 1.22366 0.90852
 C3690 C 1.08435 1.20947 0.91417
 C3691 C 1.07748 1.19241 0.92075
 C3692 C 1.07242 1.17885 0.90844
 C3693 C 1.06605 1.16213 0.91477
 C3694 C 1.06466 1.15875 0.93353
 C3695 C 1.06971 1.17250 0.94581
 C3696 C 1.07607 1.18922 0.93945
 H3697 H 1.13798 1.26513 0.89859
 H3698 H 1.08580 1.27998 0.87718
 H3699 H 1.09835 1.30788 0.86500
 H3700 H 1.15130 1.29228 0.88570
 H3701 H 1.07353 1.18114 0.89394
 H3702 H 1.06252 1.15174 0.90498
 H3703 H 1.06860 1.17037 0.96033
 H3704 H 1.07993 1.19963 0.94910
 C3705 C 1.13017 0.77417 0.39067
 C3706 C 1.11182 0.77026 0.38823
 C3707 C 1.10086 0.78234 0.37856
 C3708 C 1.10822 0.79824 0.37126
 C3709 C 1.12681 0.80247 0.37349
 C3710 C 1.13761 0.79005 0.38344
 C3711 C 1.10433 0.75372 0.39543
 C3712 C 1.09823 0.73975 0.40138
 C3713 C 1.09126 0.72326 0.40823
 C3714 C 1.08543 0.70908 0.41395
 C3715 C 1.07861 0.69202 0.42060
 C3716 C 1.07355 0.67843 0.40833
 C3717 C 1.06717 0.66174 0.41471
 C3718 C 1.06577 0.65841 0.43348
 C3719 C 1.07086 0.67218 0.44572
 C3720 C 1.07724 0.68888 0.43931
 H3721 H 1.13883 0.76481 0.39799
 H3722 H 1.08656 0.77950 0.37670
 H3723 H 1.09901 0.80743 0.36447
 H3724 H 1.15204 0.79198 0.38505
 H3725 H 1.07464 0.68068 0.39382
 H3726 H 1.06361 0.65132 0.40495
 H3727 H 1.06976 0.67009 0.46025
 H3728 H 1.08111 0.69932 0.44893
 C3729 C 0.60027 1.28447 0.38320
 C3730 C 0.61170 1.27040 0.38889
 C3731 C 0.63050 1.27232 0.38734
 C3732 C 0.63787 1.28822 0.38007
 C3733 C 0.62651 1.30242 0.37423
 C3734 C 0.60762 1.30039 0.37592
 C3735 C 0.60416 1.25386 0.39606
 C3736 C 0.59799 1.23989 0.40194
 C3737 C 0.59093 1.22341 0.40868
 C3738 C 0.58502 1.20922 0.41430
 C3739 C 0.57811 1.19216 0.42084
 C3740 C 0.57665 1.18894 0.43953
 C3741 C 0.57025 1.17222 0.44584
 C3742 C 0.56522 1.15850 0.43353
 C3743 C 0.56666 1.16191 0.41477
 C3744 C 0.57307 1.17863 0.40849
 H3745 H 0.58569 1.28313 0.38437
 H3746 H 0.63947 1.26148 0.39162
 H3747 H 0.65245 1.28928 0.37871
 H3748 H 0.59854 1.31116 0.37174
 H3749 H 0.58049 1.19933 0.44921
 H3750 H 0.56910 1.17006 0.46035
 H3751 H 0.56315 1.15153 0.40495
 H3752 H 0.57422 1.18095 0.39399
 C3753 C 0.61669 0.78438 0.90005
 C3754 C 0.61077 0.77054 0.88844
 C3755 C 0.61215 0.77275 0.86961
 C3756 C 0.61947 0.78870 0.86239
 C3757 C 0.62554 0.80266 0.87394
 C3758 C 0.62403 0.80034 0.89286
 C3759 C 0.60350 0.75397 0.89581
 C3760 C 0.59749 0.73998 0.90181
 C3761 C 0.59057 0.72348 0.90864
 C3762 C 0.58474 0.70928 0.91431
 C3763 C 0.57789 0.69220 0.92088
 C3764 C 0.57286 0.67865 0.90854
 C3765 C 0.56646 0.66193 0.91484
 C3766 C 0.56502 0.65855 0.93361
 C3767 C 0.57006 0.67228 0.94591
 C3768 C 0.57645 0.68900 0.93957
 H3769 H 0.61566 0.78282 0.91466
 H3770 H 0.60768 0.76209 0.86050
 H3771 H 0.62068 0.78997 0.84778
 H3772 H 0.62839 0.81094 0.90208
 H3773 H 0.57399 0.68095 0.89405
 H3774 H 0.56294 0.65155 0.90504
 H3775 H 0.56891 0.67014 0.96042
 H3776 H 0.58029 0.69940 0.94924
 C3777 C 0.86969 1.27476 1.10829
 C3778 C 0.88801 1.27066 1.11069
 C3779 C 0.89912 1.28264 1.12030
 C3780 C 0.89193 1.29862 1.12762
 C3781 C 0.87335 1.30301 1.12548
 C3782 C 0.86242 1.29071 1.11554
 C3783 C 0.89533 1.25401 1.10353
 C3784 C 0.90129 1.23996 1.09763
 C3785 C 0.90809 1.22339 1.09084
 C3786 C 0.91374 1.20913 1.08511
 C3787 C 0.92029 1.19199 1.07838
 C3788 C 0.93894 1.18878 1.07695
 C3789 C 0.94526 1.17202 1.07064
 C3790 C 0.93299 1.15826 1.06567
 C3791 C 0.91427 1.16166 1.06711
 C3792 C 0.90798 1.17841 1.07343
 H3793 H 0.86092 1.26547 1.10099
 H3794 H 0.91339 1.27967 1.12212
 H3795 H 0.90124 1.30772 1.13437
 H3796 H 0.84800 1.29279 1.11396
 H3797 H 0.94858 1.19921 1.08072
 H3798 H 0.95974 1.16988 1.06948
 H3799 H 0.90449 1.15125 1.06365
 H3800 H 0.89352 1.18073 1.07456
 C3801 C 0.88167 0.78421 0.59934
 C3802 C 0.88748 0.77018 0.61078
 C3803 C 0.88620 0.77220 0.62964
 C3804 C 0.87912 0.78816 0.63706
 C3805 C 0.87321 0.80234 0.62570
 C3806 C 0.87457 0.80020 0.60675
 C3807 C 0.89463 0.75364 0.60323
 C3808 C 0.90058 0.73966 0.59714
 C3809 C 0.90749 0.72316 0.59026
 C3810 C 0.91335 0.70897 0.58461
 C3811 C 0.92027 0.69189 0.57811
 C3812 C 0.92541 0.67844 0.59051
 C3813 C 0.93194 0.66174 0.58429
 C3814 C 0.93340 0.65827 0.56555
 C3815 C 0.92823 0.67189 0.55318
 C3816 C 0.92172 0.68860 0.55944
 H3817 H 0.88263 0.78280 0.58472
 H3818 H 0.89059 0.76140 0.63861
 H3819 H 0.87801 0.78930 0.65169
 H3820 H 0.87032 0.81095 0.59766
 H3821 H 0.92428 0.68082 0.60500
 H3822 H 0.93555 0.65144 0.59414
 H3823 H 0.92939 0.66969 0.53868
 H3824 H 0.91780 0.69893 0.54972
 C3825 C 0.39046 1.27437 0.62952
 C3826 C 0.38780 1.27035 0.61117
 C3827 C 0.37810 1.28239 0.60021
 C3828 C 0.37094 1.29836 0.60757
 C3829 C 0.37335 1.30269 0.62617
 C3830 C 0.38337 1.29033 0.63696
 C3831 C 0.39483 1.25371 0.60369
 C3832 C 0.40065 1.23968 0.59759
 C3833 C 0.40739 1.22313 0.59066
 C3834 C 0.41310 1.20890 0.58494
 C3835 C 0.41987 1.19179 0.57836
 C3836 C 0.42123 1.18854 0.55967
 C3837 C 0.42768 1.17183 0.55334
 C3838 C 0.43287 1.15816 0.56565
 C3839 C 0.43145 1.16158 0.58441
 C3840 C 0.42499 1.17828 0.59070
 H3841 H 0.39783 1.26504 0.63818
 H3842 H 0.37609 1.27947 0.58592
 H3843 H 0.36411 1.30752 0.59835
 H3844 H 0.38514 1.29235 0.65139
 H3845 H 0.41733 1.19892 0.54999
 H3846 H 0.42880 1.16967 0.53883
 H3847 H 0.43507 1.15124 0.59422
 H3848 H 0.42392 1.18062 0.60520
 C3849 C 0.39022 0.77425 1.12939
 C3850 C 0.38763 0.77025 1.11103
 C3851 C 0.37799 0.78232 1.10004
 C3852 C 0.37085 0.79831 1.10739
 C3853 C 0.37320 0.80262 1.12599
 C3854 C 0.38314 0.79022 1.13681
 C3855 C 0.39468 0.75362 1.10356
 C3856 C 0.40052 0.73958 1.09749
 C3857 C 0.40730 0.72303 1.09061
 C3858 C 0.41304 0.70880 1.08493
 C3859 C 0.41984 0.69168 1.07839
 C3860 C 0.42121 0.68840 1.05971
 C3861 C 0.42767 0.67168 1.05342
 C3862 C 0.43285 0.65803 1.06576
 C3863 C 0.43144 0.66149 1.08451
 C3864 C 0.42498 0.67820 1.09076
 H3865 H 0.39754 0.76490 1.13807
 H3866 H 0.37603 0.77942 1.08574
 H3867 H 0.36407 0.80748 1.09815
 H3868 H 0.38486 0.79223 1.15126
 H3869 H 0.41730 0.69875 1.05001
 H3870 H 0.42878 0.66949 1.03891
 H3871 H 0.43506 0.65117 1.09434
 H3872 H 0.42390 0.68057 1.10526
 C3873 C 0.88257 0.71564 0.90027
 C3874 C 0.88848 0.72959 0.88880
 C3875 C 0.88709 0.72758 0.86995
 C3876 C 0.87979 0.71170 0.86256
 C3877 C 0.87377 0.69760 0.87396
 C3878 C 0.87525 0.69973 0.89291
 C3879 C 0.89581 0.74608 0.89631
 C3880 C 0.90188 0.76000 0.90240
 C3881 C 0.90892 0.77644 0.90928
 C3882 C 0.91485 0.79059 0.91497
 C3883 C 0.92182 0.80762 0.92153
 C3884 C 0.92694 0.82113 0.90919
 C3885 C 0.93345 0.83781 0.91548
 C3886 C 0.93492 0.84120 0.93424
 C3887 C 0.92981 0.82750 0.94655
 C3888 C 0.92331 0.81082 0.94022
 H3889 H 0.88361 0.71705 0.91488
 H3890 H 0.89155 0.73833 0.86095
 H3891 H 0.87859 0.71057 0.84794
 H3892 H 0.87092 0.68903 0.90202
 H3893 H 0.92577 0.81883 0.89469
 H3894 H 0.93701 0.84817 0.90567
 H3895 H 0.93098 0.82964 0.96106
 H3896 H 0.91942 0.80044 0.94990
 C3897 C 0.86972 0.22736 0.38760
 C3898 C 0.88852 0.22934 0.38908
 C3899 C 0.89996 0.21530 0.38332
 C3900 C 0.89262 0.19937 0.37604
 C3901 C 0.87372 0.19729 0.37445
 C3902 C 0.86235 0.21145 0.38034
 C3903 C 0.89604 0.24587 0.39628
 C3904 C 0.90217 0.25984 0.40219
 C3905 C 0.90919 0.27633 0.40897
 C3906 C 0.91506 0.29053 0.41462
 C3907 C 0.92192 0.30761 0.42118
 C3908 C 0.92704 0.32112 0.40883
 C3909 C 0.93342 0.33784 0.41513
 C3910 C 0.93477 0.34128 0.43389
 C3911 C 0.92964 0.32759 0.44620
 C3912 C 0.92326 0.31086 0.43987
 H3913 H 0.86074 0.23817 0.39195
 H3914 H 0.91454 0.21668 0.38443
 H3915 H 0.90171 0.18863 0.37181
 H3916 H 0.84777 0.21036 0.37905
 H3917 H 0.92597 0.31877 0.39434
 H3918 H 0.93701 0.34819 0.40532
 H3919 H 0.93071 0.32977 0.46071
 H3920 H 0.91935 0.30049 0.44954
 C3921 C 0.39104 0.72547 0.37018
 C3922 C 0.38853 0.72949 0.38854
 C3923 C 0.37876 0.71753 0.39953
 C3924 C 0.37140 0.70164 0.39219
 C3925 C 0.37368 0.69731 0.37357
 C3926 C 0.38375 0.70960 0.36275
 C3927 C 0.39580 0.74602 0.39601
 C3928 C 0.40183 0.75997 0.40207
 C3929 C 0.40882 0.77644 0.40896
 C3930 C 0.41471 0.79060 0.41465
 C3931 C 0.42166 0.80764 0.42123
 C3932 C 0.42307 0.81085 0.43992
 C3933 C 0.42957 0.82753 0.44627
 C3934 C 0.43476 0.84121 0.43397
 C3935 C 0.43335 0.83781 0.41521
 C3936 C 0.42684 0.82114 0.40890
 H3937 H 0.39846 0.73474 0.36149
 H3938 H 0.37685 0.72045 0.41383
 H3939 H 0.36453 0.69255 0.40142
 H3940 H 0.38543 0.70759 0.34830
 H3941 H 0.41911 0.80049 0.44959
 H3942 H 0.43068 0.82968 0.46078
 H3943 H 0.43698 0.84815 0.40541
 H3944 H 0.42574 0.81882 0.39440
 C3945 C 0.37911 0.21743 0.89951
 C3946 C 0.38891 0.22930 0.88846
 C3947 C 0.39138 0.22520 0.87011
 C3948 C 0.38402 0.20933 0.86276
 C3949 C 0.37391 0.19713 0.87364
 C3950 C 0.37169 0.20154 0.89224
 C3951 C 0.39621 0.24586 0.89586
 C3952 C 0.40223 0.25983 0.90188
 C3953 C 0.40918 0.27632 0.90874
 C3954 C 0.41504 0.29050 0.91443
 C3955 C 0.42193 0.30756 0.92101
 C3956 C 0.42703 0.32110 0.90869
 C3957 C 0.43347 0.33779 0.91500
 C3958 C 0.43490 0.34118 0.93376
 C3959 C 0.42979 0.32746 0.94606
 C3960 C 0.42335 0.31077 0.93971
 H3961 H 0.37724 0.22041 0.91381
 H3962 H 0.39882 0.23441 0.86138
 H3963 H 0.38567 0.20725 0.84831
 H3964 H 0.36479 0.19251 0.90153
 H3965 H 0.42591 0.31879 0.89419
 H3966 H 0.43704 0.34816 0.90520
 H3967 H 0.43092 0.32960 0.96057
 H3968 H 0.41946 0.30037 0.94937
 C3969 C 1.10950 0.72596 1.13057
 C3970 C 1.11204 0.73008 1.11223
 C3971 C 1.12175 0.71813 1.10117
 C3972 C 1.12900 0.70215 1.10841
 C3973 C 1.12669 0.69772 1.12699
 C3974 C 1.11668 0.70999 1.13789
 C3975 C 1.10491 0.74672 1.10485
 C3976 C 1.09904 0.76075 1.09880
 C3977 C 1.09229 0.77728 1.09186
 C3978 C 1.08664 0.79150 1.08603
 C3979 C 1.08005 0.80858 1.07919
 C3980 C 1.09232 0.82215 1.07413
 C3981 C 1.08599 0.83886 1.06772
 C3982 C 1.06726 0.84222 1.06631
 C3983 C 1.05503 0.82847 1.07139
 C3984 C 1.06140 0.81176 1.07779
 H3985 H 1.10213 0.73522 1.13931
 H3986 H 1.12368 0.72114 1.08688
 H3987 H 1.13583 0.69308 1.09911
 H3988 H 1.11499 0.70789 1.15232
 H3989 H 1.10679 0.81986 1.07523
 H3990 H 1.09574 0.84926 1.06417
 H3991 H 1.04055 0.83058 1.07027
 H3992 H 1.05178 0.80134 1.08165
 C3993 C 1.11756 0.21571 0.60023
 C3994 C 1.11173 0.22962 0.61180
 C3995 C 1.11302 0.22742 0.63064
 C3996 C 1.12017 0.21141 0.63790
 C3997 C 1.12614 0.19737 0.62639
 C3998 C 1.12473 0.19968 0.60746
 C3999 C 1.10460 0.24624 0.60439
 C4000 C 1.09869 0.26026 0.59836
 C4001 C 1.09186 0.27680 0.59150
 C4002 C 1.08609 0.29103 0.58581
 C4003 C 1.07928 0.30813 0.57924
 C4004 C 1.07413 0.32163 0.59158
 C4005 C 1.06771 0.33834 0.58528
 C4006 C 1.06636 0.34177 0.56652
 C4007 C 1.07154 0.32809 0.55422
 C4008 C 1.07795 0.31138 0.56055
 H4009 H 1.11659 0.21726 0.58562
 H4010 H 1.10861 0.23812 0.63972
 H4011 H 1.12131 0.21014 0.65252
 H4012 H 1.12901 0.18904 0.59827
 H4013 H 1.07518 0.31929 0.60608
 H4014 H 1.06408 0.34868 0.59509
 H4015 H 1.07046 0.33026 0.53970
 H4016 H 1.08188 0.30100 0.55088
 C4017 C 0.61809 0.71607 0.59996
 C4018 C 0.61233 0.73003 0.61151
 C4019 C 0.61372 0.72791 0.63035
 C4020 C 0.62087 0.71192 0.63764
 C4021 C 0.62673 0.69781 0.62617
 C4022 C 0.62526 0.70006 0.60724
 C4023 C 0.60513 0.74661 0.60408
 C4024 C 0.59915 0.76061 0.59808
 C4025 C 0.59222 0.77713 0.59128
 C4026 C 0.58636 0.79134 0.58567
 C4027 C 0.57945 0.80843 0.57918
 C4028 C 0.57433 0.82189 0.59159
 C4029 C 0.56786 0.83861 0.58537
 C4030 C 0.56643 0.84210 0.56662
 C4031 C 0.57156 0.82845 0.55425
 C4032 C 0.57802 0.81173 0.56051
 H4033 H 0.61705 0.71756 0.58535
 H4034 H 0.60937 0.73867 0.63940
 H4035 H 0.62207 0.71071 0.65226
 H4036 H 0.62947 0.68936 0.59807
 H4037 H 0.57545 0.81951 0.60607
 H4038 H 0.56426 0.84892 0.59522
 H4039 H 0.57042 0.83067 0.53975
 H4040 H 0.58193 0.80139 0.55079
 C4041 C 0.62179 0.21785 1.10043
 C4042 C 0.61211 0.22985 1.11147
 C4043 C 0.60955 0.22577 1.12982
 C4044 C 0.61669 0.20980 1.13717
 C4045 C 0.62666 0.19747 1.12630
 C4046 C 0.62899 0.20186 1.10771
 C4047 C 0.60500 0.24648 1.10407
 C4048 C 0.59909 0.26051 1.09807
 C4049 C 0.59224 0.27706 1.09125
 C4050 C 0.58645 0.29129 1.08561
 C4051 C 0.57961 0.30840 1.07909
 C4052 C 0.57450 0.32188 1.09147
 C4053 C 0.56804 0.33860 1.08522
 C4054 C 0.56661 0.34205 1.06647
 C4055 C 0.57175 0.32839 1.05413
 C4056 C 0.57819 0.31167 1.06041
 H4057 H 0.62373 0.22082 1.08614
 H4058 H 0.60221 0.23507 1.13854
 H4059 H 0.61498 0.20773 1.15161
 H4060 H 0.63580 0.19274 1.09843
 H4061 H 0.57560 0.31952 1.10596
 H4062 H 0.56445 0.34893 1.09506
 H4063 H 0.57061 0.33058 1.03962
 H4064 H 0.58209 0.30132 1.05071
 C4065 C 1.28347 1.11856 0.90026
 C4066 C 1.26943 1.11292 0.88879
 C4067 C 1.27145 1.11433 0.86994
 C4068 C 1.28742 1.12137 0.86256
 C4069 C 1.30162 1.12711 0.87397
 C4070 C 1.29947 1.12563 0.89291
 C4071 C 1.25288 1.10578 0.89629
 C4072 C 1.23891 1.09984 0.90235
 C4073 C 1.22242 1.09294 0.90919
 C4074 C 1.20824 1.08709 0.91483
 C4075 C 1.19118 1.08018 0.92132
 C4076 C 1.17776 1.07502 0.90892
 C4077 C 1.16109 1.06850 0.91515
 C4078 C 1.15761 1.06706 0.93389
 C4079 C 1.17122 1.07224 0.94626
 C4080 C 1.18790 1.07875 0.94000
 H4081 H 1.28206 1.11750 0.91488
 H4082 H 1.26063 1.11006 0.86093
 H4083 H 1.28856 1.12258 0.84794
 H4084 H 1.31024 1.12975 0.90202
 H4085 H 1.18014 1.07613 0.89444
 H4086 H 1.15080 1.06488 0.90529
 H4087 H 1.16901 1.07110 0.96076
 H4088 H 1.19821 1.08268 0.94972
 C4089 C 1.28383 0.61808 0.39984
 C4090 C 1.26984 0.61235 0.38835
 C4091 C 1.27189 0.61373 0.36950
 C4092 C 1.28784 0.62085 0.36214
 C4093 C 1.30198 0.62671 0.37357
 C4094 C 1.29980 0.62523 0.39251
 C4095 C 1.25330 0.60519 0.39584
 C4096 C 1.23933 0.59926 0.40194
 C4097 C 1.22287 0.59237 0.40886
 C4098 C 1.20871 0.58655 0.41457
 C4099 C 1.19167 0.57966 0.42117
 C4100 C 1.17820 0.57444 0.40885
 C4101 C 1.16156 0.56793 0.41516
 C4102 C 1.15816 0.56657 0.43393
 C4103 C 1.17180 0.57183 0.44622
 C4104 C 1.18845 0.57833 0.43986
 H4105 H 1.28240 0.61705 0.41445
 H4106 H 1.26112 0.60939 0.36048
 H4107 H 1.28900 0.62205 0.34752
 H4108 H 1.31052 0.62943 0.40164
 H4109 H 1.18053 0.57548 0.39435
 H4110 H 1.15124 0.56425 0.40537
 H4111 H 1.16965 0.57076 0.46073
 H4112 H 1.19880 0.58231 0.44952
 C4113 C 0.77201 1.13020 0.38686
 C4114 C 0.76990 1.11137 0.38826
 C4115 C 0.78385 1.09984 0.38250
 C4116 C 0.79984 1.10711 0.37533
 C4117 C 0.80207 1.12603 0.37385
 C4118 C 0.78797 1.13750 0.37971
 C4119 C 0.75335 1.10395 0.39546
 C4120 C 0.73938 1.09794 0.40144
 C4121 C 0.72289 1.09114 0.40838
 C4122 C 0.70870 1.08552 0.41424
 C4123 C 0.69164 1.07902 0.42114
 C4124 C 0.68841 1.06036 0.42267
 C4125 C 0.67172 1.05409 0.42912
 C4126 C 0.65803 1.06644 0.43413
 C4127 C 0.66145 1.08517 0.43260
 C4128 C 0.67815 1.09140 0.42614
 H4129 H 0.76126 1.13925 0.39120
 H4130 H 0.78238 1.08524 0.38355
 H4131 H 0.81053 1.09796 0.37113
 H4132 H 0.78917 1.15210 0.37850
 H4133 H 0.69878 1.05066 0.41886
 H4134 H 0.66955 1.03960 0.43034
 H4135 H 0.65111 1.09501 0.43609
 H4136 H 0.68048 1.10588 0.42494
 C4137 C 0.77180 0.61352 0.86969
 C4138 C 0.76974 0.61214 0.88854
 C4139 C 0.78374 0.61783 0.90004
 C4140 C 0.79973 0.62494 0.89271
 C4141 C 0.80191 0.62643 0.87377
 C4142 C 0.78777 0.62060 0.86234
 C4143 C 0.75316 0.60506 0.89603
 C4144 C 0.73917 0.59919 0.90212
 C4145 C 0.72266 0.59238 0.90902
 C4146 C 0.70846 0.58663 0.91471
 C4147 C 0.69139 0.57981 0.92126
 C4148 C 0.68811 0.57848 0.93995
 C4149 C 0.67142 0.57203 0.94626
 C4150 C 0.65780 0.56681 0.93393
 C4151 C 0.66126 0.56818 0.91517
 C4152 C 0.67793 0.57463 0.90890
 H4153 H 0.76101 0.60921 0.86067
 H4154 H 0.78230 0.61680 0.91465
 H4155 H 0.81046 0.62912 0.90185
 H4156 H 0.78893 0.62181 0.84773
 H4157 H 0.69844 0.58243 0.94964
 H4158 H 0.66923 0.57095 0.96076
 H4159 H 0.65096 0.56452 0.90535
 H4160 H 0.68030 0.57568 0.89441
 C4161 C 1.27219 0.88721 1.13024
 C4162 C 1.27012 0.88869 1.11140
 C4163 C 1.28403 0.88284 1.09987
 C4164 C 1.29994 0.87549 1.10715
 C4165 C 1.30213 0.87392 1.12608
 C4166 C 1.28807 0.87989 1.13754
 C4167 C 1.25365 0.89607 1.10397
 C4168 C 1.23973 0.90220 1.09795
 C4169 C 1.22331 0.90928 1.09114
 C4170 C 1.20917 0.91525 1.08550
 C4171 C 1.19216 0.92225 1.07897
 C4172 C 1.18894 0.92375 1.06029
 C4173 C 1.17227 0.93024 1.05399
 C4174 C 1.15860 0.93532 1.06632
 C4175 C 1.16201 0.93386 1.08508
 C4176 C 1.17868 0.92736 1.09134
 H4177 H 1.26148 0.89164 1.13929
 H4178 H 1.28258 0.88394 1.08526
 H4179 H 1.31060 0.87120 1.09798
 H4180 H 1.28924 0.87862 1.15216
 H4181 H 1.19929 0.91986 1.05060
 H4182 H 1.17011 0.93141 1.03948
 H4183 H 1.15168 0.93741 1.09490
 H4184 H 1.18101 0.92618 1.10583
 C4185 C 1.27208 0.38692 0.63060
 C4186 C 1.26998 0.38836 0.61176
 C4187 C 1.28389 0.38255 0.60021
 C4188 C 1.29984 0.37527 0.60748
 C4189 C 1.30206 0.37373 0.62641
 C4190 C 1.28800 0.37966 0.63789
 C4191 C 1.25346 0.39565 0.60434
 C4192 C 1.23951 0.40169 0.59832
 C4193 C 1.22305 0.40869 0.59149
 C4194 C 1.20889 0.41458 0.58583
 C4195 C 1.19186 0.42151 0.57928
 C4196 C 1.18864 0.42294 0.56059
 C4197 C 1.17196 0.42939 0.55427
 C4198 C 1.15829 0.43451 0.56658
 C4199 C 1.16170 0.43310 0.58534
 C4200 C 1.17837 0.42663 0.59163
 H4201 H 1.26136 0.39131 0.63966
 H4202 H 1.28242 0.38363 0.58561
 H4203 H 1.31050 0.37102 0.59830
 H4204 H 1.28920 0.37841 0.65250
 H4205 H 1.19900 0.41903 0.55091
 H4206 H 1.16981 0.43052 0.53975
 H4207 H 1.15136 0.43668 0.59514
 H4208 H 1.18070 0.42551 0.60612
 C4209 C 0.77238 0.88779 0.63067
 C4210 C 0.77020 0.88921 0.61184
 C4211 C 0.78405 0.88334 0.60024
 C4212 C 0.80000 0.87601 0.60745
 C4213 C 0.80229 0.87448 0.62637
 C4214 C 0.78830 0.88049 0.63790
 C4215 C 0.75365 0.89650 0.60446
 C4216 C 0.73968 0.90251 0.59846
 C4217 C 0.72320 0.90946 0.59164
 C4218 C 0.70902 0.91530 0.58597
 C4219 C 0.69197 0.92217 0.57941
 C4220 C 0.68874 0.92355 0.56073
 C4221 C 0.67204 0.92995 0.55439
 C4222 C 0.65835 0.93504 0.56670
 C4223 C 0.66177 0.93367 0.58546
 C4224 C 0.67847 0.92727 0.59176
 H4225 H 0.76171 0.89223 0.63977
 H4226 H 0.78251 0.88440 0.58564
 H4227 H 0.81060 0.87170 0.59823
 H4228 H 0.78955 0.87925 0.65251
 H4229 H 0.69911 0.91967 0.55105
 H4230 H 0.66988 0.93104 0.53988
 H4231 H 0.65142 0.93724 0.59526
 H4232 H 0.68080 0.92618 0.60625
 C4233 C 0.77210 0.37032 1.11335
 C4234 C 0.77009 0.38917 1.11210
 C4235 C 0.78413 0.40057 1.11789
 C4236 C 0.80010 0.39315 1.12495
 C4237 C 0.80223 0.37421 1.12630
 C4238 C 0.78805 0.36287 1.12040
 C4239 C 0.75355 0.39675 1.10504
 C4240 C 0.73957 0.40288 1.09917
 C4241 C 0.72308 0.40981 1.09235
 C4242 C 0.70889 0.41551 1.08657
 C4243 C 0.69182 0.42205 1.07973
 C4244 C 0.68856 0.44072 1.07829
 C4245 C 0.67188 0.44701 1.07180
 C4246 C 0.65824 0.43467 1.06665
 C4247 C 0.66167 0.41594 1.06813
 C4248 C 0.67835 0.40969 1.07462
 H4249 H 0.76129 0.36137 1.10898
 H4250 H 0.78273 0.41519 1.11695
 H4251 H 0.81085 0.40222 1.12920
 H4252 H 0.78917 0.34825 1.12150
 H4253 H 0.69890 0.45041 1.08218
 H4254 H 0.66970 0.46150 1.07064
 H4255 H 0.65136 0.40611 1.06453
 H4256 H 0.68070 0.39521 1.07575
 C4257 C 0.71601 1.11752 1.09992
 C4258 C 0.72992 1.11164 1.11145
 C4259 C 0.72784 1.11305 1.13029
 C4260 C 0.71194 1.12033 1.13761
 C4261 C 0.69788 1.12631 1.12615
 C4262 C 0.70009 1.12481 1.10721
 C4263 C 0.74641 1.10430 1.10401
 C4264 C 0.76034 1.09821 1.09799
 C4265 C 0.77677 1.09115 1.09117
 C4266 C 0.79092 1.08520 1.08554
 C4267 C 0.80794 1.07821 1.07901
 C4268 C 0.82144 1.07317 1.09138
 C4269 C 0.83811 1.06667 1.08512
 C4270 C 0.84150 1.06513 1.06637
 C4271 C 0.82780 1.07015 1.05404
 C4272 C 0.81113 1.07664 1.06033
 H4273 H 0.71748 1.11646 1.08531
 H4274 H 0.73855 1.10861 1.13934
 H4275 H 0.71076 1.12154 1.15222
 H4276 H 0.68943 1.12911 1.09806
 H4277 H 0.81914 1.07440 1.10587
 H4278 H 0.84847 1.06317 1.09494
 H4279 H 0.82994 1.06892 1.03953
 H4280 H 0.80076 1.08048 1.05064
 C4281 C 0.72778 0.61259 0.63009
 C4282 C 0.72986 0.61130 0.61124
 C4283 C 0.71592 0.61718 0.59975
 C4284 C 0.69999 0.62441 0.60709
 C4285 C 0.69780 0.62583 0.62603
 C4286 C 0.71187 0.61980 0.63745
 C4287 C 0.74639 0.60411 0.60373
 C4288 C 0.76035 0.59817 0.59764
 C4289 C 0.77682 0.59130 0.59073
 C4290 C 0.79100 0.58550 0.58503
 C4291 C 0.80807 0.57866 0.57846
 C4292 C 0.81128 0.57721 0.55978
 C4293 C 0.82797 0.57078 0.55345
 C4294 C 0.84166 0.56570 0.56576
 C4295 C 0.83826 0.56716 0.58452
 C4296 C 0.82158 0.57360 0.59081
 H4297 H 0.73851 0.60814 0.63910
 H4298 H 0.71738 0.61622 0.58513
 H4299 H 0.68932 0.62875 0.59796
 H4300 H 0.71070 0.62095 0.65208
 H4301 H 0.80090 0.58106 0.55010
 H4302 H 0.83011 0.56962 0.53894
 H4303 H 0.84861 0.56362 0.59433
 H4304 H 0.81926 0.57474 0.60530
 C4305 C 0.21570 1.11726 0.59964
 C4306 C 0.22964 1.11133 0.61110
 C4307 C 0.22757 1.11256 0.62996
 C4308 C 0.21166 1.11972 0.63735
 C4309 C 0.19758 1.12578 0.62596
 C4310 C 0.19976 1.12445 0.60701
 C4311 C 0.24616 1.10415 0.60357
 C4312 C 0.26012 1.09820 0.59747
 C4313 C 0.27659 1.09130 0.59057
 C4314 C 0.29076 1.08548 0.58488
 C4315 C 0.30782 1.07861 0.57833
 C4316 C 0.32133 1.07357 0.59069
 C4317 C 0.33801 1.06711 0.58443
 C4318 C 0.34141 1.06561 0.56567
 C4319 C 0.32773 1.07066 0.55334
 C4320 C 0.31104 1.07711 0.55965
 H4321 H 0.21715 1.11634 0.58502
 H4322 H 0.23831 1.10807 0.63895
 H4323 H 0.21049 1.12081 0.65198
 H4324 H 0.18908 1.12880 0.59790
 H4325 H 0.31901 1.07474 0.60518
 H4326 H 0.34836 1.06358 0.59425
 H4327 H 0.32988 1.06947 0.53884
 H4328 H 0.30066 1.08095 0.54996
 C4329 C 0.22801 0.61344 1.13052
 C4330 C 0.23002 0.61209 1.11167
 C4331 C 0.21607 0.61799 1.10022
 C4332 C 0.20017 0.62526 1.10759
 C4333 C 0.19803 0.62670 1.12654
 C4334 C 0.21213 0.62068 1.13792
 C4335 C 0.24649 0.60478 1.10414
 C4336 C 0.26039 0.59871 1.09803
 C4337 C 0.27679 0.59167 1.09111
 C4338 C 0.29091 0.58572 1.08539
 C4339 C 0.30789 0.57871 1.07879
 C4340 C 0.31104 0.57720 1.06010
 C4341 C 0.32766 0.57065 1.05373
 C4342 C 0.34136 0.56551 1.06601
 C4343 C 0.33803 0.56702 1.08478
 C4344 C 0.32141 0.57357 1.09111
 H4345 H 0.23876 0.60897 1.13951
 H4346 H 0.21747 0.61699 1.08560
 H4347 H 0.18947 0.62959 1.09849
 H4348 H 0.21100 0.62184 1.15255
 H4349 H 0.30066 0.58112 1.05044
 H4350 H 0.32976 0.56947 1.03922
 H4351 H 0.34839 0.56343 1.09457
 H4352 H 0.31914 0.57475 1.10561
 C4353 C 0.72778 0.86896 0.88786
 C4354 C 0.73002 0.88777 0.88936
 C4355 C 0.71615 0.89942 0.88367
 C4356 C 0.70013 0.89230 0.87642
 C4357 C 0.69779 0.87340 0.87478
 C4358 C 0.71178 0.86181 0.88063
 C4359 C 0.74664 0.89506 0.89654
 C4360 C 0.76067 0.90103 0.90246
 C4361 C 0.77721 0.90783 0.90928
 C4362 C 0.79143 0.91349 0.91502
 C4363 C 0.80852 0.92007 0.92178
 C4364 C 0.81175 0.93875 0.92312
 C4365 C 0.82847 0.94509 0.92945
 C4366 C 0.84217 0.93280 0.93453
 C4367 C 0.83876 0.91405 0.93318
 C4368 C 0.82205 0.90774 0.92685
 H4369 H 0.73846 0.85982 0.89217
 H4370 H 0.71772 0.91400 0.88480
 H4371 H 0.68952 0.90156 0.87223
 H4372 H 0.71049 0.84722 0.87932
 H4373 H 0.80136 0.94840 0.91926
 H4374 H 0.83062 0.95959 0.93053
 H4375 H 0.84913 0.90426 0.93674
 H4376 H 0.81973 0.89326 0.92579
 C4377 C 0.72836 0.36945 0.38614
 C4378 C 0.73046 0.38828 0.38753
 C4379 C 0.71649 0.39980 0.38180
 C4380 C 0.70049 0.39252 0.37467
 C4381 C 0.69826 0.37360 0.37320
 C4382 C 0.71238 0.36214 0.37903
 C4383 C 0.74702 0.39571 0.39473
 C4384 C 0.76099 0.40173 0.40071
 C4385 C 0.77747 0.40855 0.40767
 C4386 C 0.79164 0.41419 0.41355
 C4387 C 0.80868 0.42071 0.42049
 C4388 C 0.81193 0.43938 0.42193
 C4389 C 0.82859 0.44567 0.42844
 C4390 C 0.84223 0.43334 0.43361
 C4391 C 0.83880 0.41460 0.43218
 C4392 C 0.82213 0.40835 0.42566
 H4393 H 0.73912 0.36041 0.39047
 H4394 H 0.71797 0.41440 0.38284
 H4395 H 0.68979 0.40167 0.37049
 H4396 H 0.71118 0.34754 0.37784
 H4397 H 0.80159 0.44907 0.41799
 H4398 H 0.83077 0.46017 0.42958
 H4399 H 0.84911 0.40478 0.43580
 H4400 H 0.81979 0.39387 0.42454
 C4401 C 0.22842 0.86892 0.38676
 C4402 C 0.23053 0.88775 0.38815
 C4403 C 0.21660 0.89929 0.38234
 C4404 C 0.20064 0.89202 0.37512
 C4405 C 0.19841 0.87310 0.37362
 C4406 C 0.21248 0.86163 0.37955
 C4407 C 0.24708 0.89518 0.39535
 C4408 C 0.26105 0.90122 0.40132
 C4409 C 0.27754 0.90807 0.40822
 C4410 C 0.29172 0.91375 0.41404
 C4411 C 0.30877 0.92031 0.42089
 C4412 C 0.31199 0.93899 0.42226
 C4413 C 0.32868 0.94533 0.42868
 C4414 C 0.34235 0.93303 0.43384
 C4415 C 0.33894 0.91428 0.43247
 C4416 C 0.32226 0.90799 0.42603
 H4417 H 0.23914 0.85987 0.39114
 H4418 H 0.21809 0.91388 0.38339
 H4419 H 0.18997 0.90118 0.37086
 H4420 H 0.21127 0.84703 0.37833
 H4421 H 0.30163 0.94866 0.41834
 H4422 H 0.33083 0.95983 0.42977
 H4423 H 0.34928 0.90449 0.43608
 H4424 H 0.31994 0.89350 0.42496
 C4425 C 0.21634 0.39933 0.88267
 C4426 C 0.23022 0.38775 0.88849
 C4427 C 0.22802 0.36893 0.88716
 C4428 C 0.21204 0.36169 0.87999
 C4429 C 0.19802 0.37320 0.87403
 C4430 C 0.20034 0.39211 0.87547
 C4431 C 0.24681 0.39513 0.89566
 C4432 C 0.26081 0.40114 0.90159
 C4433 C 0.27733 0.40797 0.90844
 C4434 C 0.29153 0.41363 0.91423
 C4435 C 0.30861 0.42019 0.92104
 C4436 C 0.32212 0.40785 0.92612
 C4437 C 0.33882 0.41415 0.93251
 C4438 C 0.34222 0.43289 0.93391
 C4439 C 0.32853 0.44519 0.92882
 C4440 C 0.31183 0.43886 0.92243
 H4441 H 0.21789 0.41392 0.88366
 H4442 H 0.23871 0.35984 0.89157
 H4443 H 0.21078 0.34708 0.87882
 H4444 H 0.18971 0.40131 0.87119
 H4445 H 0.31980 0.39337 0.92502
 H4446 H 0.34917 0.40435 0.93607
 H4447 H 0.33068 0.45969 0.92994
 H4448 H 0.30145 0.44853 0.91857
   
