data_POSCAR
  _audit_creation_date              2014-09-24
  _audit_creation_method            'ToBaCCo'
  _symmetry_space_group_name_H-M    'P1'
  _symmetry_Int_Tables_number       1
  _symmetry_cell_setting            triclinic
  loop_
  _symmetry_equiv_pos_as_xyz
 x,y,z
_cell_length_a 95.8053
_cell_length_b 92.4824
_cell_length_c 92.7862
_cell_angle_alpha 89.275100
_cell_angle_beta 89.685900
_cell_angle_gamma 90.609700
loop_
  _atom_site_label
  _atom_site_type_symbol
  _atom_site_fract_x
  _atom_site_fract_y
  _atom_site_fract_z
N1 N 0.31408 0.43877 0.89646
 N2 N 0.32378 0.44888 0.89712
 C3 C 0.32322 0.45732 0.88526
 C4 C 0.31250 0.45234 0.87675
 C5 C 0.30686 0.44053 0.88416
 H6 H 0.33006 0.46646 0.88301
 H7 H 0.29825 0.43369 0.88088
 Cu8 Cu 0.33607 0.45021 0.91346
 Cu9 Cu 0.31166 0.42441 0.91186
 Cu10 Cu 0.33987 0.42132 0.93527
 N11 N 0.35214 0.44831 0.92568
 N12 N 0.35382 0.43703 0.93424
 C13 C 0.36602 0.43860 0.94130
 C14 C 0.37221 0.45155 0.93675
 C15 C 0.36311 0.45734 0.92685
 H16 H 0.37003 0.43090 0.94906
 H17 H 0.36441 0.46741 0.92090
 N18 N 0.32443 0.40684 0.93446
 N19 N 0.31379 0.40814 0.92555
 C20 C 0.30506 0.39678 0.92746
 C21 C 0.31033 0.38794 0.93814
 C22 C 0.32265 0.39460 0.94237
 H23 H 0.29551 0.39504 0.92155
 H24 H 0.32977 0.39082 0.95055
 H25 H 0.32300 0.43306 0.92897
 H26 H 0.33293 0.42416 0.91431
 N27 N 0.45216 0.82971 0.45814
 N28 N 0.46342 0.82500 0.45164
 C29 C 0.47425 0.83383 0.45461
 C30 C 0.46952 0.84462 0.46351
 C31 C 0.45543 0.84164 0.46559
 H32 H 0.48471 0.83268 0.45036
 H33 H 0.44798 0.84789 0.47161
 Cu34 Cu 0.46269 0.80821 0.43940
 Cu35 Cu 0.43397 0.82055 0.45574
 Cu36 Cu 0.43164 0.79408 0.42975
 N37 N 0.46094 0.79556 0.42305
 N38 N 0.44882 0.79012 0.41917
 C39 C 0.45057 0.78247 0.40704
 C40 C 0.46455 0.78325 0.40317
 C41 C 0.47080 0.79161 0.41356
 H42 H 0.44222 0.77719 0.40126
 H43 H 0.48163 0.79500 0.41389
 N44 N 0.41562 0.79983 0.44179
 N45 N 0.41656 0.80996 0.45166
 C46 C 0.40408 0.81135 0.45817
 C47 C 0.39486 0.80163 0.45218
 C48 C 0.40247 0.79449 0.44180
 H49 H 0.40185 0.81873 0.46680
 H50 H 0.39880 0.78596 0.43487
 H51 H 0.44020 0.80018 0.44914
 H52 H 0.43862 0.81450 0.43483
 N53 N 0.92942 0.90321 0.80875
 N54 N 0.93943 0.90594 0.81801
 C55 C 0.94951 0.89606 0.81666
 C56 C 0.94569 0.88649 0.80610
 C57 C 0.93281 0.89129 0.80125
 H58 H 0.95892 0.89573 0.82304
 H59 H 0.92638 0.88651 0.79299
 Cu60 Cu 0.93832 0.92159 0.83166
 Cu61 Cu 0.91278 0.91552 0.80779
 Cu62 Cu 0.91921 0.94981 0.82140
 N63 N 0.93885 0.93958 0.84219
 N64 N 0.93135 0.95069 0.83810
 C65 C 0.93379 0.96180 0.84701
 C66 C 0.94332 0.95739 0.85726
 C67 C 0.94633 0.94319 0.85387
 H68 H 0.92894 0.97229 0.84611
 H69 H 0.95336 0.93597 0.85942
 N70 N 0.90329 0.94529 0.80886
 N71 N 0.90035 0.93222 0.80408
 C72 C 0.88797 0.93263 0.79718
 C73 C 0.88296 0.94666 0.79776
 C74 C 0.89296 0.95431 0.80518
 H75 H 0.88285 0.92337 0.79244
 H76 H 0.89241 0.96553 0.80826
 H77 H 0.92652 0.93158 0.81055
 H78 H 0.91440 0.92859 0.82612
 N79 N 0.43573 -0.09510 0.31131
 N80 N 0.44266 -0.09780 0.32322
 C81 C 0.44963 -0.11030 0.32171
 C82 C 0.44687 -0.11557 0.30807
 C83 C 0.43810 -0.10563 0.30180
 H84 H 0.45603 -0.11522 0.32994
 H85 H 0.43350 -0.10618 0.29119
 Cu86 Cu 0.44173 -0.08450 0.33936
 Cu87 Cu 0.42371 -0.07846 0.30916
 Cu88 Cu 0.41327 -0.06379 0.34155
 N89 N 0.43959 -0.07045 0.35470
 N90 N 0.42835 -0.06245 0.35555
 C91 C 0.42931 -0.05393 0.36716
 C92 C 0.44186 -0.05662 0.37389
 C93 C 0.44814 -0.06721 0.36571
 H94 H 0.42148 -0.04626 0.37042
 H95 H 0.45812 -0.07221 0.36759
 N96 N 0.40266 -0.06141 0.32354
 N97 N 0.40705 -0.06648 0.31110
 C98 C 0.39771 -0.06325 0.30083
 C99 C 0.38692 -0.05577 0.30706
 C100 C 0.39039 -0.05474 0.32150
 H101 H 0.39848 -0.06652 0.28970
 H102 H 0.38439 -0.04972 0.32994
 H103 H 0.42866 -0.06553 0.32696
 H104 H 0.41811 -0.08240 0.32995
 N105 N 0.79604 0.31220 0.33893
 N106 N 0.80435 0.30112 0.34077
 C107 C 0.80287 0.29598 0.35433
 C108 C 0.79304 0.30432 0.36129
 C109 C 0.78894 0.31449 0.35121
 H110 H 0.80858 0.28695 0.35873
 H111 H 0.78134 0.32291 0.35271
 Cu112 Cu 0.81648 0.29457 0.32542
 Cu113 Cu 0.79482 0.32260 0.32071
 Cu114 Cu 0.82065 0.31525 0.29570
 N115 N 0.83249 0.29243 0.31277
 N116 N 0.83417 0.30078 0.30131
 C117 C 0.84604 0.29726 0.29453
 C118 C 0.85220 0.28610 0.30219
 C119 C 0.84331 0.28328 0.31369
 H120 H 0.84976 0.30241 0.28470
 H121 H 0.84465 0.27522 0.32211
 N122 N 0.80777 0.33154 0.29360
 N123 N 0.79788 0.33427 0.30311
 C124 C 0.79114 0.34630 0.29901
 C125 C 0.79709 0.35137 0.28628
 C126 C 0.80758 0.34178 0.28317
 H127 H 0.78279 0.35117 0.30506
 H128 H 0.81473 0.34243 0.27412
 H129 H 0.80332 0.30783 0.30680
 H130 H 0.81577 0.31945 0.31692
 N131 N -0.19478 0.82388 0.79403
 N132 N -0.20331 0.82120 0.80488
 C133 C -0.21489 0.82914 0.80329
 C134 C -0.21348 0.83729 0.79078
 C135 C -0.20063 0.83358 0.78506
 H136 H -0.22339 0.82946 0.81100
 H137 H -0.19551 0.83805 0.77557
 Cu138 Cu -0.19803 0.80849 0.82062
 Cu139 Cu -0.17626 0.81556 0.79322
 Cu140 Cu -0.16362 0.80717 0.82725
 N141 N -0.19097 0.80060 0.83847
 N142 N -0.17754 0.80022 0.84127
 C143 C -0.17581 0.79520 0.85484
 C144 C -0.18886 0.79233 0.86077
 C145 C -0.19823 0.79585 0.85002
 H146 H -0.16583 0.79406 0.86013
 H147 H -0.20949 0.79548 0.85061
 N148 N -0.15145 0.81000 0.81009
 N149 N -0.15642 0.81285 0.79713
 C150 C -0.14584 0.81356 0.78759
 C151 C -0.13358 0.81097 0.79481
 C152 C -0.13747 0.80873 0.80909
 H153 H -0.14698 0.81559 0.77615
 H154 H -0.13073 0.80601 0.81801
 H155 H -0.17572 0.80059 0.81070
 H156 H -0.17597 0.82036 0.81442
 N157 N 0.93884 0.34775 0.42732
 N158 N 0.93042 0.34528 0.43834
 C159 C 0.93208 0.35593 0.44801
 C160 C 0.94214 0.36551 0.44270
 C161 C 0.94618 0.35998 0.42959
 H162 H 0.92635 0.35666 0.45803
 H163 H 0.95388 0.36456 0.42224
 Cu164 Cu 0.91797 0.32853 0.43841
 Cu165 Cu 0.93973 0.33503 0.41075
 Cu166 Cu 0.91947 0.30366 0.41253
 N167 N 0.90516 0.31207 0.43847
 N168 N 0.90565 0.30241 0.42819
 C169 C 0.89559 0.29236 0.43063
 C170 C 0.88847 0.29590 0.44310
 C171 C 0.89481 0.30850 0.44777
 H172 H 0.89353 0.28319 0.42381
 H173 H 0.89198 0.31474 0.45708
 N174 N 0.93177 0.30862 0.39587
 N175 N 0.93923 0.32071 0.39519
 C176 C 0.94637 0.32117 0.38265
 C177 C 0.94337 0.30882 0.37507
 C178 C 0.93402 0.30107 0.38372
 H179 H 0.95338 0.32982 0.37927
 H180 H 0.92916 0.29078 0.38133
 H181 H 0.91982 0.32586 0.41250
 H182 H 0.93436 0.31677 0.42221
 N183 N 0.42921 0.42194 0.86358
 N184 N 0.42163 0.43370 0.86322
 C185 C 0.42286 0.44050 0.87595
 C186 C 0.43169 0.43245 0.88465
 C187 C 0.43540 0.42077 0.87648
 H188 H 0.41813 0.45074 0.87844
 H189 H 0.44287 0.41257 0.87940
 Cu190 Cu 0.41166 0.43921 0.84577
 Cu191 Cu 0.43290 0.41063 0.84658
 Cu192 Cu 0.41576 0.42024 0.81520
 N193 N 0.39841 0.44054 0.82995
 N194 N 0.39999 0.43318 0.81802
 C195 C 0.38961 0.43656 0.80885
 C196 C 0.38104 0.44653 0.81547
 C197 C 0.38693 0.44876 0.82882
 H198 H 0.38850 0.43216 0.79817
 H199 H 0.38320 0.45596 0.83706
 N200 N 0.42943 0.40432 0.81614
 N201 N 0.43562 0.40063 0.82830
 C202 C 0.44486 0.39016 0.82568
 C203 C 0.44449 0.38695 0.81127
 C204 C 0.43452 0.39605 0.80543
 H205 H 0.45177 0.38545 0.83359
 H206 H 0.43155 0.39693 0.79423
 H207 H 0.42930 0.42662 0.83140
 H208 H 0.41399 0.41493 0.83639
 N209 N 0.79378 0.91709 0.94637
 N210 N 0.80070 0.92078 0.95797
 C211 C 0.79734 0.91167 0.96886
 C212 C 0.78778 0.90172 0.96388
 C213 C 0.78569 0.90545 0.94953
 H214 H 0.80195 0.91189 0.97947
 H215 H 0.77925 0.89982 0.94183
 Cu216 Cu 0.81447 0.93618 0.95759
 Cu217 Cu 0.79662 0.92715 0.92790
 Cu218 Cu 0.82480 0.95098 0.92610
 N219 N 0.83189 0.94678 0.95588
 N220 N 0.83594 0.95265 0.94356
 C221 C 0.84857 0.95887 0.94529
 C222 C 0.85261 0.95668 0.95946
 C223 C 0.84180 0.94896 0.96584
 H224 H 0.85451 0.96418 0.93677
 H225 H 0.84132 0.94496 0.97685
 N226 N 0.81216 0.94766 0.90974
 N227 N 0.80145 0.93856 0.91037
 C228 C 0.79481 0.93882 0.89760
 C229 C 0.80170 0.94858 0.88854
 C230 C 0.81261 0.95395 0.89658
 H231 H 0.78560 0.93249 0.89516
 H232 H 0.82024 0.96197 0.89308
 H233 H 0.81743 0.93073 0.93230
 H234 H 0.80538 0.94623 0.93519
 N235 N 0.30367 0.84220 0.30523
 N236 N 0.31260 0.84180 0.29443
 C237 C 0.31136 0.85384 0.28630
 C238 C 0.30109 0.86225 0.29225
 C239 C 0.29637 0.85456 0.30428
 H240 H 0.31766 0.85644 0.27690
 H241 H 0.28850 0.85783 0.31193
 Cu242 Cu 0.32552 0.82606 0.29214
 Cu243 Cu 0.30270 0.82687 0.31994
 Cu244 Cu 0.32907 0.80157 0.31871
 N245 N 0.34175 0.81380 0.29322
 N246 N 0.34314 0.80427 0.30371
 C247 C 0.35540 0.79750 0.30214
 C248 C 0.36203 0.80314 0.28999
 C249 C 0.35307 0.81344 0.28458
 H250 H 0.35919 0.78922 0.30940
 H251 H 0.35476 0.82030 0.27519
 N252 N 0.31387 0.80071 0.33300
 N253 N 0.30384 0.81037 0.33367
 C254 C 0.29530 0.80690 0.34483
 C255 C 0.30025 0.79444 0.35138
 C256 C 0.31196 0.79084 0.34361
 H257 H 0.28625 0.81301 0.34799
 H258 H 0.31870 0.78176 0.34571
 H259 H 0.32376 0.82333 0.31810
 H260 H 0.31184 0.81058 0.30843
 N261 N 0.81479 0.41208 0.42347
 N262 N 0.81875 0.41513 0.43665
 C263 C 0.81389 0.40483 0.44579
 C264 C 0.80649 0.39476 0.43787
 C265 C 0.80731 0.39968 0.42376
 H266 H 0.81562 0.40474 0.45729
 H267 H 0.80275 0.39465 0.41441
 Cu268 Cu 0.83017 0.43212 0.44056
 Cu269 Cu 0.81976 0.42449 0.40701
 Cu270 Cu 0.82657 0.45968 0.41733
 N271 N 0.83933 0.45067 0.44373
 N272 N 0.83759 0.46152 0.43465
 C273 C 0.84544 0.47284 0.43875
 C274 C 0.85262 0.46885 0.45096
 C275 C 0.84849 0.45470 0.45391
 H276 H 0.84649 0.48293 0.43279
 H277 H 0.85238 0.44763 0.46231
 N278 N 0.82164 0.45447 0.39762
 N279 N 0.81959 0.44104 0.39343
 C280 C 0.81740 0.44109 0.37909
 C281 C 0.81826 0.45528 0.37415
 C282 C 0.82094 0.46342 0.38615
 H283 H 0.81538 0.43154 0.37280
 H284 H 0.82250 0.47501 0.38647
 H285 H 0.83426 0.43924 0.41549
 H286 H 0.81545 0.44022 0.42073
 N287 N 0.93320 0.84810 -0.05707
 N288 N 0.94275 0.84587 -0.06701
 C289 C 0.95302 0.85579 -0.06580
 C290 C 0.94983 0.86469 -0.05446
 C291 C 0.93716 0.85950 -0.04909
 H292 H 0.96208 0.85661 -0.07280
 H293 H 0.93113 0.86382 -0.04029
 Cu294 Cu 0.94095 0.83048 -0.08095
 Cu295 Cu 0.91633 0.83604 -0.05561
 Cu296 Cu 0.90876 0.81752 -0.08692
 N297 N 0.93659 0.81986 -0.09828
 N298 N 0.92379 0.81535 -0.10076
 C299 C 0.92350 0.80824 -0.11329
 C300 C 0.93681 0.80828 -0.11898
 C301 C 0.94493 0.81579 -0.10921
 H302 H 0.91437 0.80303 -0.11776
 H303 H 0.95602 0.81799 -0.10987
 N304 N 0.89503 0.82050 -0.07153
 N305 N 0.89792 0.82688 -0.05923
 C306 C 0.88668 0.82562 -0.05042
 C307 C 0.87635 0.81804 -0.05765
 C308 C 0.88199 0.81508 -0.07093
 H309 H 0.88619 0.82959 -0.03952
 H310 H 0.87708 0.80880 -0.07928
 H311 H 0.92094 0.81861 -0.06877
 H312 H 0.91652 0.83625 -0.07746
 N313 N 0.31009 0.34219 0.81089
 N314 N 0.31877 0.33852 0.80057
 C315 C 0.31830 0.34837 0.78982
 C316 C 0.30881 0.35881 0.79353
 C317 C 0.30375 0.35458 0.80700
 H318 H 0.32450 0.34806 0.78005
 H319 H 0.29604 0.36002 0.81346
 Cu320 Cu 0.33031 0.32159 0.80222
 Cu321 Cu 0.30758 0.33030 0.82834
 Cu322 Cu 0.32866 0.30000 0.83132
 N323 N 0.34546 0.30876 0.80711
 N324 N 0.34484 0.30026 0.81855
 C325 C 0.35652 0.29233 0.81919
 C326 C 0.36494 0.29617 0.80758
 C327 C 0.35757 0.30665 0.80012
 H328 H 0.35872 0.28432 0.82745
 H329 H 0.36064 0.31226 0.79030
 N330 N 0.31453 0.30498 0.84582
 N331 N 0.30668 0.31661 0.84493
 C332 C 0.29830 0.31696 0.85664
 C333 C 0.30103 0.30502 0.86524
 C334 C 0.31141 0.29768 0.85807
 H335 H 0.29070 0.32524 0.85878
 H336 H 0.31645 0.28784 0.86152
 H337 H 0.32759 0.32192 0.82824
 H338 H 0.31346 0.31115 0.81961
 N339 N 0.15227 0.56083 0.54236
 N340 N 0.15281 0.54944 0.55094
 C341 C 0.14176 0.54074 0.54824
 C342 C 0.13402 0.54710 0.53734
 C343 C 0.14100 0.55977 0.53388
 H344 H 0.13947 0.53067 0.55385
 H345 H 0.13791 0.56776 0.52594
 Cu346 Cu 0.16791 0.54741 0.56482
 Cu347 Cu 0.16577 0.57653 0.54307
 Cu348 Cu 0.19239 0.57376 0.56800
 N349 N 0.18271 0.54619 0.57909
 N350 N 0.19226 0.55643 0.58025
 C351 C 0.20101 0.55294 0.59104
 C352 C 0.19668 0.53980 0.59694
 C353 C 0.18506 0.53586 0.58913
 H354 H 0.20970 0.55959 0.59445
 H355 H 0.17871 0.52624 0.59079
 N356 N 0.19058 0.59041 0.55458
 N357 N 0.18029 0.59140 0.54523
 C358 C 0.18154 0.60395 0.53785
 C359 C 0.19317 0.61120 0.54267
 C360 C 0.19873 0.60236 0.55330
 H361 H 0.17451 0.60763 0.52954
 H362 H 0.20789 0.60454 0.55971
 H363 H 0.18235 0.56448 0.55091
 H364 H 0.17121 0.57357 0.56461
 N365 N 0.59115 0.69116 0.05811
 N366 N 0.58986 0.70278 0.06602
 C367 C 0.60167 0.71074 0.06500
 C368 C 0.61084 0.70377 0.05598
 C369 C 0.60386 0.69131 0.05181
 H370 H 0.60351 0.72084 0.07045
 H371 H 0.60771 0.68294 0.04484
 Cu372 Cu 0.57299 0.70628 0.07711
 Cu373 Cu 0.57632 0.67652 0.05720
 Cu374 Cu 0.54383 0.68857 0.06826
 N375 N 0.55619 0.70758 0.08889
 N376 N 0.54465 0.70084 0.08513
 C377 C 0.53458 0.70350 0.09487
 C378 C 0.54013 0.71226 0.10537
 C379 C 0.55390 0.71469 0.10125
 H380 H 0.52411 0.69903 0.09455
 H381 H 0.56172 0.72089 0.10690
 N382 N 0.54633 0.67136 0.05637
 N383 N 0.55868 0.66630 0.05276
 C384 C 0.55688 0.65354 0.04611
 C385 C 0.54269 0.65049 0.04559
 C386 C 0.53635 0.66204 0.05210
 H387 H 0.56527 0.64688 0.04224
 H388 H 0.52532 0.66320 0.05425
 H389 H 0.56268 0.69293 0.05711
 H390 H 0.56312 0.68213 0.07421
 N391 N 0.68454 0.19027 0.66237
 N392 N 0.69480 0.18098 0.66325
 C393 C 0.70372 0.18329 0.65221
 C394 C 0.69891 0.19472 0.64400
 C395 C 0.68667 0.19894 0.65074
 H396 H 0.71304 0.17710 0.65025
 H397 H 0.67982 0.20757 0.64745
 Cu398 Cu 0.69557 0.16661 0.67860
 Cu399 Cu 0.66950 0.19026 0.67676
 Cu400 Cu 0.66816 0.16066 0.70034
 N401 N 0.69352 0.14863 0.68941
 N402 N 0.68273 0.14611 0.69793
 C403 C 0.68410 0.13290 0.70410
 C404 C 0.69638 0.12688 0.69902
 C405 C 0.70201 0.13715 0.68971
 H406 H 0.67672 0.12806 0.71163
 H407 H 0.71161 0.13632 0.68361
 N408 N 0.65307 0.17520 0.69904
 N409 N 0.65364 0.18646 0.69012
 C410 C 0.64211 0.19448 0.69199
 C411 C 0.63390 0.18799 0.70262
 C412 C 0.64114 0.17578 0.70678
 H413 H 0.63993 0.20434 0.68611
 H414 H 0.63797 0.16801 0.71500
 H415 H 0.67844 0.17921 0.69370
 H416 H 0.67034 0.16811 0.67939
 N417 N 1.09930 0.06588 0.18936
 N418 N 1.09668 0.05443 0.18154
 C419 C 1.10735 0.04515 0.18276
 C420 C 1.11716 0.05111 0.19183
 C421 C 1.11173 0.06429 0.19584
 H422 H 1.10792 0.03481 0.17748
 H423 H 1.11632 0.07209 0.20303
 Cu424 Cu 1.07966 0.05268 0.17051
 Cu425 Cu 1.08619 0.08172 0.19093
 Cu426 Cu 1.05801 0.08102 0.16777
 N427 N 1.06577 0.05392 0.15548
 N428 N 1.05731 0.06497 0.15437
 C429 C 1.04914 0.06322 0.14275
 C430 C 1.05275 0.05037 0.13626
 C431 C 1.06331 0.04477 0.14461
 H432 H 1.04141 0.07087 0.13915
 H433 H 1.06899 0.03492 0.14272
 N434 N 1.06080 0.09624 0.18218
 N435 N 1.07167 0.09663 0.19087
 C436 C 1.07067 0.10826 0.19938
 C437 C 1.05858 0.11548 0.19594
 C438 C 1.05258 0.10760 0.18497
 H439 H 1.07807 0.11122 0.20761
 H440 H 1.04297 0.10994 0.17940
 H441 H 1.06810 0.07099 0.18481
 H442 H 1.07932 0.07888 0.17003
 N443 N 0.06556 0.17033 1.03851
 N444 N 0.05801 0.16705 1.05000
 C445 C 0.05123 0.15444 1.04779
 C446 C 0.05473 0.14967 1.03413
 C447 C 0.06374 0.16006 1.02854
 H448 H 0.04441 0.14915 1.05557
 H449 H 0.06888 0.15998 1.01814
 Cu450 Cu 0.05789 0.17972 1.06665
 Cu451 Cu 0.07773 0.18726 1.03760
 Cu452 Cu 0.08667 0.19992 1.07125
 N453 N 0.05926 0.19345 1.08238
 N454 N 0.07075 0.20111 1.08421
 C455 C 0.06921 0.20962 1.09572
 C456 C 0.05601 0.20735 1.10134
 C457 C 0.04993 0.19695 1.09265
 H458 H 0.07704 0.21714 1.09955
 H459 H 0.03954 0.19237 1.09363
 N460 N 0.09812 0.20349 1.05398
 N461 N 0.09433 0.19935 1.04101
 C462 C 0.10415 0.20362 1.03141
 C463 C 0.11458 0.21081 1.03872
 C464 C 0.11042 0.21055 1.05303
 H465 H 0.10398 0.20124 1.02003
 H466 H 0.11592 0.21501 1.06212
 H467 H 0.08200 0.18209 1.05826
 H468 H 0.07200 0.19916 1.05578
 N469 N 0.15490 0.69807 0.68048
 N470 N 0.15310 0.68700 0.68935
 C471 C 0.14089 0.68863 0.69651
 C472 C 0.13488 0.70143 0.69177
 C473 C 0.14406 0.70706 0.68167
 H474 H 0.13672 0.68112 0.70449
 H475 H 0.14281 0.71697 0.67552
 Cu476 Cu 0.16724 0.67185 0.69037
 Cu477 Cu 0.17077 0.70000 0.66753
 Cu478 Cu 0.19532 0.67282 0.66814
 N479 N 0.18126 0.65660 0.69078
 N480 N 0.19216 0.65709 0.68209
 C481 C 0.20023 0.64552 0.68470
 C482 C 0.19408 0.63731 0.69564
 C483 C 0.18206 0.64464 0.69920
 H484 H 0.20987 0.64331 0.67907
 H485 H 0.17452 0.64150 0.70740
 N486 N 0.19661 0.68974 0.65489
 N487 N 0.18739 0.70024 0.65510
 C488 C 0.19088 0.71022 0.64503
 C489 C 0.20276 0.70583 0.63803
 C490 C 0.20619 0.69277 0.64451
 H491 H 0.18498 0.71984 0.64257
 H492 H 0.21485 0.68592 0.64175
 H493 H 0.17464 0.67798 0.66585
 H494 H 0.18483 0.68802 0.67969
 N495 N 1.18041 0.16654 0.21074
 N496 N 1.19105 0.16590 0.20180
 C497 C 1.20003 0.15585 0.20665
 C498 C 1.19464 0.14994 0.21932
 C499 C 1.18222 0.15696 0.22158
 H500 H 1.20952 0.15281 0.20119
 H501 H 1.17487 0.15493 0.23028
 Cu502 Cu 1.19175 0.17793 0.18448
 Cu503 Cu 1.16465 0.17904 0.20719
 Cu504 Cu 1.16551 0.20066 0.17628
 N505 N 1.19216 0.18979 0.16710
 N506 N 1.18218 0.19898 0.16399
 C507 C 1.18547 0.20591 0.15150
 C508 C 1.19812 0.20062 0.14659
 C509 C 1.20197 0.19044 0.15670
 H510 H 1.17906 0.21396 0.14628
 H511 H 1.21133 0.18400 0.15644
 N512 N 1.14967 0.20053 0.19026
 N513 N 1.14959 0.19226 0.20198
 C514 C 1.13750 0.19398 0.20911
 C515 C 1.12950 0.20374 0.20166
 C516 C 1.13747 0.20777 0.18970
 H517 H 1.13450 0.18830 0.21892
 H518 H 1.13448 0.21510 0.18112
 H519 H 1.16640 0.18006 0.18473
 H520 H 1.17521 0.19475 0.19497
 N521 N 0.66360 1.05884 0.55964
 N522 N 0.66410 1.07055 0.55145
 C523 C 0.65415 1.06962 0.54130
 C524 C 0.64709 1.05662 0.54323
 C525 C 0.65332 1.05007 0.55503
 H526 H 0.65214 1.07780 0.53316
 H527 H 0.65057 1.03980 0.56002
 Cu528 Cu 0.67744 1.08601 0.55520
 Cu529 Cu 0.67624 1.05610 0.57583
 Cu530 Cu 0.70712 1.07521 0.57060
 N531 N 0.69298 1.09934 0.55799
 N532 N 0.70476 1.09490 0.56365
 C533 C 0.71388 1.10601 0.56409
 C534 C 0.70740 1.11813 0.55866
 C535 C 0.69414 1.11354 0.55480
 H536 H 0.72435 1.10538 0.56834
 H537 H 0.68597 1.11996 0.55003
 N538 N 0.70541 1.05839 0.58365
 N539 N 0.69344 1.05167 0.58634
 C540 C 0.69512 1.04240 0.59746
 C541 C 0.70884 1.04342 0.60199
 C542 C 0.71507 1.05354 0.59293
 H543 H 0.68682 1.03587 0.60219
 H544 H 0.72556 1.05788 0.59378
 H545 H 0.68694 1.07603 0.57743
 H546 H 0.69019 1.06413 0.56168
 N547 N 0.55716 0.54074 0.17266
 N548 N 0.55072 0.55278 0.16925
 C549 C 0.54297 0.55057 0.15740
 C550 C 0.54467 0.53634 0.15327
 C551 C 0.55364 0.53042 0.16323
 H552 H 0.53700 0.55883 0.15195
 H553 H 0.55783 0.51960 0.16324
 Cu554 Cu 0.55371 0.57030 0.18029
 Cu555 Cu 0.57058 0.53971 0.18825
 Cu556 Cu 0.58398 0.57307 0.19795
 N557 N 0.55800 0.58709 0.19198
 N558 N 0.56993 0.58807 0.19886
 C559 C 0.57050 0.60071 0.20584
 C560 C 0.55827 0.60803 0.20326
 C561 C 0.55053 0.59909 0.19438
 H562 H 0.57919 0.60430 0.21233
 H563 H 0.54029 0.60111 0.19003
 N564 N 0.59376 0.55481 0.20156
 N565 N 0.58836 0.54206 0.19840
 C566 C 0.59762 0.53173 0.20175
 C567 C 0.60938 0.53830 0.20729
 C568 C 0.60658 0.55295 0.20708
 H569 H 0.59618 0.52033 0.19966
 H570 H 0.61347 0.56167 0.21024
 H571 H 0.56774 0.55922 0.19930
 H572 H 0.57685 0.55966 0.18145
 N573 N 0.66294 0.68673 0.20827
 N574 N 0.65854 0.69412 0.19703
 C575 C 0.64582 0.69937 0.19988
 C576 C 0.64206 0.69508 0.21373
 C577 C 0.65319 0.68712 0.21876
 H578 H 0.63985 0.70580 0.19237
 H579 H 0.65409 0.68191 0.22922
 Cu580 Cu 0.66994 0.69661 0.17985
 Cu581 Cu 0.68096 0.67719 0.20805
 Cu582 Cu 0.69252 0.67003 0.17334
 N583 N 0.68024 0.69588 0.16190
 N584 N 0.68900 0.68538 0.15926
 C585 C 0.69443 0.68732 0.14595
 C586 C 0.68879 0.69979 0.14004
 C587 C 0.67984 0.70491 0.15044
 H588 H 0.70200 0.68026 0.14110
 H589 H 0.67353 0.71451 0.14970
 N590 N 0.69899 0.65935 0.19054
 N591 N 0.69504 0.66257 0.20376
 C592 C 0.70120 0.65350 0.21314
 C593 C 0.70938 0.64409 0.20548
 C594 C 0.70779 0.64809 0.19116
 H595 H 0.69939 0.65335 0.22466
 H596 H 0.71246 0.64308 0.18187
 H597 H 0.69094 0.68494 0.18906
 H598 H 0.67581 0.67218 0.18767
 N599 N 0.14564 0.06775 1.06646
 N600 N 0.14764 0.05713 1.07573
 C601 C 0.13647 0.04817 1.07571
 C602 C 0.12697 0.05340 1.06584
 C603 C 0.13313 0.06588 1.06013
 H604 H 0.13542 0.03844 1.08222
 H605 H 0.12900 0.07294 1.05186
 Cu606 Cu 0.16488 0.05571 1.08651
 Cu607 Cu 0.15996 0.08259 1.06284
 Cu608 Cu 0.18620 0.08470 1.08859
 N609 N 0.17889 0.05716 1.10141
 N610 N 0.18721 0.06850 1.10240
 C611 C 0.19559 0.06668 1.11392
 C612 C 0.19224 0.05349 1.12043
 C613 C 0.18161 0.04781 1.11222
 H614 H 0.20338 0.07442 1.11738
 H615 H 0.17611 0.03768 1.11412
 N616 N 0.18336 0.09979 1.07349
 N617 N 0.17343 0.09888 1.06369
 C618 C 0.17437 0.11045 1.05477
 C619 C 0.18541 0.11906 1.05905
 C620 C 0.19089 0.11199 1.07098
 H621 H 0.16761 0.11245 1.04568
 H622 H 0.19982 0.11535 1.07723
 H623 H 0.17787 0.07357 1.07174
 H624 H 0.16512 0.08191 1.08426
 N625 N 0.59537 0.19895 0.55149
 N626 N 0.59450 0.18809 0.54252
 C627 C 0.60551 0.18872 0.53341
 C628 C 0.61359 0.20067 0.53683
 C629 C 0.60685 0.20688 0.54838
 H630 H 0.60755 0.18104 0.52498
 H631 H 0.61009 0.21634 0.55425
 Cu632 Cu 0.57917 0.17412 0.54384
 Cu633 Cu 0.58169 0.20213 0.56656
 Cu634 Cu 0.55424 0.17760 0.56928
 N635 N 0.56641 0.15828 0.54885
 N636 N 0.55674 0.15971 0.55882
 C637 C 0.54921 0.14738 0.55990
 C638 C 0.55442 0.13769 0.55009
 C639 C 0.56537 0.14494 0.54324
 H640 H 0.54050 0.14563 0.56720
 H641 H 0.57205 0.14090 0.53480
 N642 N 0.55622 0.19435 0.58204
 N643 N 0.56678 0.20360 0.58105
 C644 C 0.56549 0.21354 0.59142
 C645 C 0.55363 0.21038 0.59935
 C646 C 0.54796 0.19813 0.59315
 H647 H 0.57274 0.22235 0.59326
 H648 H 0.53870 0.19224 0.59659
 H649 H 0.57542 0.18060 0.56887
 H650 H 0.56528 0.19240 0.55637
 N651 N 0.10259 0.57393 0.69047
 N652 N 0.10008 0.56035 0.68731
 C653 C 0.11103 0.55230 0.69134
 C654 C 0.12093 0.56142 0.69732
 C655 C 0.11525 0.57506 0.69655
 H656 H 0.11173 0.54077 0.68981
 H657 H 0.11999 0.58506 0.70009
 Cu658 Cu 0.08314 0.55463 0.67757
 Cu659 Cu 0.08933 0.58904 0.68622
 Cu660 Cu 0.05614 0.57743 0.67645
 N661 N 0.06800 0.55197 0.66411
 N662 N 0.05730 0.56077 0.66354
 C663 C 0.04861 0.55632 0.65304
 C664 C 0.05432 0.54416 0.64675
 C665 C 0.06656 0.54175 0.65406
 H666 H 0.03908 0.56173 0.65006
 H667 H 0.07401 0.53329 0.65204
 N668 N 0.05987 0.59664 0.68488
 N669 N 0.07267 0.60112 0.68780
 C670 C 0.07211 0.61410 0.69406
 C671 C 0.05836 0.61802 0.69530
 C672 C 0.05077 0.60675 0.68930
 H673 H 0.08104 0.61988 0.69828
 H674 H 0.03954 0.60573 0.68867
 H675 H 0.07316 0.57479 0.69062
 H676 H 0.07627 0.57927 0.67117
 N677 N 0.66522 0.54516 0.04673
 N678 N 0.66684 0.55269 0.03470
 C679 C 0.65524 0.55150 0.02671
 C680 C 0.64580 0.54277 0.03404
 C681 C 0.65244 0.53886 0.04675
 H682 H 0.65365 0.55691 0.01645
 H683 H 0.64827 0.53216 0.05541
 Cu684 Cu 0.68336 0.56428 0.03084
 Cu685 Cu 0.67998 0.54433 0.06132
 Cu686 Cu 0.70978 0.56503 0.05395
 N687 N 0.69674 0.58016 0.03072
 N688 N 0.70709 0.58048 0.03993
 C689 C 0.71453 0.59277 0.03793
 C690 C 0.70841 0.60061 0.02688
 C691 C 0.69718 0.59227 0.02253
 H692 H 0.72351 0.59581 0.04426
 H693 H 0.68969 0.59499 0.01427
 N694 N 0.70776 0.55266 0.07114
 N695 N 0.69639 0.54503 0.07432
 C696 C 0.69825 0.53841 0.08722
 C697 C 0.71138 0.54217 0.09227
 C698 C 0.71706 0.55117 0.08182
 H699 H 0.69058 0.53155 0.09259
 H700 H 0.72714 0.55653 0.08215
 H701 H 0.68848 0.56445 0.05641
 H702 H 0.69612 0.54839 0.04752
 N703 N 0.07353 0.69675 0.59349
 N704 N 0.06152 0.68979 0.59295
 C705 C 0.05335 0.69397 0.60393
 C706 C 0.06065 0.70417 0.61176
 C707 C 0.07340 0.70567 0.60484
 H708 H 0.04297 0.68976 0.60608
 H709 H 0.08197 0.71267 0.60792
 Cu710 Cu 0.05775 0.67574 0.57815
 Cu711 Cu 0.08834 0.69359 0.57947
 Cu712 Cu 0.08342 0.66526 0.55583
 N713 N 0.05614 0.65821 0.56710
 N714 N 0.06606 0.65417 0.55822
 C715 C 0.06214 0.64169 0.55200
 C716 C 0.04910 0.63775 0.55738
 C717 C 0.04566 0.64843 0.56695
 H718 H 0.06841 0.63584 0.54435
 H719 H 0.03623 0.64900 0.57338
 N720 N 0.10019 0.67793 0.55538
 N721 N 0.10202 0.68866 0.56445
 C722 C 0.11424 0.69538 0.56145
 C723 C 0.12042 0.68855 0.54991
 C724 C 0.11125 0.67754 0.54636
 H725 H 0.11825 0.70459 0.56719
 H726 H 0.11254 0.66989 0.53774
 H727 H 0.07658 0.68508 0.56279
 H728 H 0.08274 0.67203 0.57688
 N729 N 0.56431 1.05606 0.66575
 N730 N 0.55490 1.06628 0.66640
 C731 C 0.54753 1.06649 0.65410
 C732 C 0.55254 1.05579 0.64526
 C733 C 0.56323 1.04936 0.65299
 H734 H 0.53910 1.07382 0.65176
 H735 H 0.56962 1.04039 0.64975
 Cu736 Cu 0.55301 1.07837 0.68319
 Cu737 Cu 0.57683 1.05187 0.68179
 Cu738 Cu 0.57240 1.07252 0.71248
 N739 N 0.55521 1.09301 0.69786
 N740 N 0.56270 1.09058 0.70943
 C741 C 0.56206 1.10211 0.71808
 C742 C 0.55377 1.11237 0.71154
 C743 C 0.54959 1.10625 0.69866
 H744 H 0.56720 1.10293 0.72840
 H745 H 0.54289 1.11090 0.69053
 N746 N 0.58615 1.05705 0.71110
 N747 N 0.58817 1.04936 0.69939
 C748 C 0.59889 1.04031 0.70172
 C749 C 0.60382 1.04255 0.71554
 C750 C 0.59553 1.05320 0.72112
 H751 H 0.60301 1.03294 0.69386
 H752 H 0.59655 1.05811 0.73159
 H753 H 0.56349 1.05859 0.69730
 H754 H 0.57647 1.07233 0.69070
 N755 N 0.44708 0.34648 0.92969
 N756 N 0.44149 0.34425 0.94250
 C757 C 0.44409 0.35572 0.95086
 C758 C 0.45179 0.36575 0.94285
 C759 C 0.45351 0.35951 0.92947
 H760 H 0.44054 0.35659 0.96189
 H761 H 0.45906 0.36412 0.92029
 Cu762 Cu 0.43102 0.32683 0.94707
 Cu763 Cu 0.44563 0.33207 0.91450
 Cu764 Cu 0.42493 0.30176 0.92218
 N765 N 0.41579 0.31308 0.94918
 N766 N 0.41323 0.30322 0.93945
 C767 C 0.40204 0.29524 0.94372
 C768 C 0.39739 0.30057 0.95679
 C769 C 0.40633 0.31187 0.95987
 H770 H 0.39757 0.28642 0.93769
 H771 H 0.40590 0.31879 0.96917
 N772 N 0.43497 0.30463 0.90366
 N773 N 0.44284 0.31613 0.90075
 C774 C 0.44864 0.31467 0.88758
 C775 C 0.44418 0.30164 0.88194
 C776 C 0.43548 0.29561 0.89237
 H777 H 0.45570 0.32243 0.88257
 H778 H 0.43012 0.28528 0.89184
 H779 H 0.42651 0.32385 0.92163
 H780 H 0.44251 0.31408 0.92735
 N781 N 0.93824 0.42764 0.35174
 N782 N 0.92717 0.43544 0.35448
 C783 C 0.92850 0.44123 0.36771
 C784 C 0.94118 0.43680 0.37341
 C785 C 0.94704 0.42825 0.36295
 H786 H 0.92094 0.44825 0.37263
 H787 H 0.95700 0.42286 0.36344
 Cu788 Cu 0.91270 0.43770 0.33981
 Cu789 Cu 0.94064 0.41742 0.33373
 Cu790 Cu 0.90971 0.41135 0.31545
 N791 N 0.89797 0.43799 0.32532
 N792 N 0.89690 0.42761 0.31581
 C793 C 0.88611 0.43037 0.30698
 C794 C 0.88015 0.44326 0.31109
 C795 C 0.88792 0.44778 0.32278
 H796 H 0.88304 0.42355 0.29814
 H797 H 0.88644 0.45756 0.32884
 N798 N 0.92658 0.39966 0.31253
 N799 N 0.93846 0.40236 0.31916
 C800 C 0.94801 0.39269 0.31502
 C801 C 0.94190 0.38350 0.30526
 C802 C 0.92829 0.38821 0.30387
 H803 H 0.95856 0.39215 0.31907
 H804 H 0.92019 0.38360 0.29723
 H805 H 0.92496 0.42568 0.32019
 H806 H 0.92000 0.41302 0.33522
 N807 N 0.31066 0.94847 0.41886
 N808 N 0.31890 0.95976 0.42063
 C809 C 0.31634 0.96966 0.41027
 C810 C 0.30591 0.96434 0.40155
 C811 C 0.30250 0.95084 0.40730
 H812 H 0.32186 0.97986 0.40896
 H813 H 0.29488 0.94322 0.40326
 Cu814 Cu 0.33276 0.96029 0.43571
 Cu815 Cu 0.31143 0.93152 0.43163
 Cu816 Cu 0.33706 0.93208 0.45802
 N817 N 0.34985 0.95794 0.44655
 N818 N 0.35155 0.94681 0.45528
 C819 C 0.36412 0.94789 0.46161
 C820 C 0.37066 0.96040 0.45648
 C821 C 0.36131 0.96647 0.44693
 H822 H 0.36807 0.94013 0.46934
 H823 H 0.36271 0.97639 0.44076
 N824 N 0.32371 0.91593 0.45583
 N825 N 0.31399 0.91561 0.44580
 C826 C 0.30665 0.90313 0.44719
 C827 C 0.31209 0.89528 0.45861
 C828 C 0.32289 0.90367 0.46378
 H829 H 0.29805 0.89999 0.44037
 H830 H 0.32966 0.90100 0.47268
 H831 H 0.31935 0.94174 0.44920
 H832 H 0.33239 0.93404 0.43655
 O833 O 0.22042 0.51694 0.73293
 O834 O 0.22378 0.51572 0.75864
 O835 O 0.25905 0.53592 0.71826
 O836 O 0.28205 0.53064 0.72091
 O837 O 0.24172 0.49940 0.69695
 O838 O 0.24158 0.47381 0.70216
 O839 O 0.29100 0.49318 0.75841
 O840 O 0.28880 0.51910 0.75513
 O841 O 0.25319 0.47797 0.77420
 O842 O 0.22851 0.48113 0.76718
 O843 O 0.27215 0.45850 0.74012
 O844 O 0.27248 0.46379 0.71296
 O845 O 0.29162 0.47664 0.74050
 O846 O 0.28879 0.47786 0.71442
 O847 O 0.25321 0.45906 0.75500
 O848 O 0.22846 0.46606 0.75161
 O849 O 0.27136 0.49392 0.77549
 O850 O 0.27072 0.51871 0.77234
 O851 O 0.22076 0.49962 0.71570
 O852 O 0.22469 0.47418 0.71670
 O853 O 0.25948 0.51588 0.69826
 O854 O 0.28371 0.51247 0.70581
 O855 O 0.24049 0.53628 0.73364
 O856 O 0.23966 0.53095 0.75966
 Zr857 Zr 0.23996 0.51546 0.74306
 O858 O 0.25033 0.50193 0.75782
 Zr859 Zr 0.26633 0.51446 0.71982
 O860 O 0.27792 0.50075 0.73359
 Zr861 Zr 0.24053 0.49020 0.71779
 O862 O 0.25081 0.47554 0.73149
 Zr863 Zr 0.27202 0.50403 0.75511
 O864 O 0.26170 0.51918 0.74153
 Zr865 Zr 0.24587 0.48025 0.75300
 O866 O 0.23423 0.49380 0.73922
 Zr867 Zr 0.27248 0.47902 0.72982
 O868 O 0.26221 0.49265 0.71479
 O869 O 0.24486 0.51184 0.72161
 O870 O 0.26748 0.48239 0.75132
 C871 C 0.21482 0.50984 0.72259
 C872 C 0.24865 0.54227 0.72423
 C873 C 0.24971 0.50928 0.69141
 C874 C 0.29677 0.48273 0.75166
 C875 C 0.26339 0.48394 0.78085
 C876 C 0.26384 0.45277 0.74958
 H877 H 0.24757 0.50443 0.76776
 H878 H 0.24812 0.46554 0.72899
 H879 H 0.23964 0.51827 0.71500
 H880 H 0.28803 0.50258 0.73222
 H881 H 0.28505 0.52839 0.75150
 H882 H 0.28938 0.52695 0.72740
 H883 H 0.23009 0.45951 0.74343
 H884 H 0.21937 0.47465 0.72585
 H885 H 0.26651 0.52761 0.76840
 H886 H 0.24786 0.53741 0.75818
 H887 H 0.26462 0.45695 0.71465
 H888 H 0.25124 0.47401 0.69832
 H889 H 0.21866 0.50642 0.75781
 H890 H 0.22991 0.48948 0.77359
 H891 H 0.28232 0.50341 0.70041
 H892 H 0.29461 0.48669 0.71535
 O893 O 0.25419 0.04824 0.24402
 O894 O 0.27790 0.04076 0.24679
 O895 O 0.23588 0.01304 0.22114
 O896 O 0.23426 -0.01113 0.22416
 O897 O 0.21467 0.03017 0.25762
 O898 O 0.21744 0.02797 0.28296
 O899 O 0.26497 -0.03006 0.26260
 O900 O 0.26515 -0.02480 0.23744
 O901 O 0.28456 0.00494 0.28289
 O902 O 0.28166 0.03084 0.28227
 O903 O 0.24626 -0.01133 0.29783
 O904 O 0.22156 -0.00765 0.29035
 O905 O 0.24646 -0.02955 0.27803
 O906 O 0.22185 -0.02233 0.27449
 O907 O 0.26432 0.00462 0.29991
 O908 O 0.26474 0.03187 0.29535
 O909 O 0.28481 -0.01265 0.26488
 O910 O 0.28283 -0.00919 0.23871
 O911 O 0.23586 0.04885 0.25973
 O912 O 0.23434 0.04231 0.28507
 O913 O 0.21500 0.01389 0.23943
 O914 O 0.21799 -0.01244 0.24134
 O915 O 0.25392 0.02911 0.22315
 O916 O 0.27789 0.02514 0.23049
 Zr917 Zr 0.26063 0.02656 0.24467
 O918 O 0.27171 0.01242 0.25830
 Zr919 Zr 0.23423 0.00328 0.24169
 O920 O 0.24431 -0.01209 0.25490
 Zr921 Zr 0.23402 0.02756 0.26785
 O922 O 0.24378 0.01324 0.28233
 Zr923 Zr 0.26605 -0.00904 0.25373
 O924 O 0.25606 0.00506 0.23892
 Zr925 Zr 0.26547 0.01533 0.27979
 O926 O 0.25575 0.03083 0.26638
 Zr927 Zr 0.23924 -0.00820 0.27658
 O928 O 0.22793 0.00619 0.26323
 O929 O 0.23907 0.02464 0.24631
 O930 O 0.26091 -0.00621 0.27533
 C931 C 0.24432 0.05483 0.25057
 C932 C 0.24403 0.02302 0.21603
 C933 C 0.20920 0.02398 0.24667
 C934 C 0.25671 -0.03596 0.27198
 C935 C 0.29088 -0.00624 0.27646
 C936 C 0.25631 -0.00553 0.30487
 H937 H 0.28183 0.01415 0.25708
 H938 H 0.24074 0.01530 0.29228
 H939 H 0.23420 0.03157 0.23994
 H940 H 0.24166 -0.02198 0.25197
 H941 H 0.26191 -0.01982 0.22857
 H942 H 0.23846 -0.02027 0.22757
 H943 H 0.25670 0.02987 0.30183
 H944 H 0.24384 0.04660 0.28525
 H945 H 0.28915 -0.00098 0.24080
 H946 H 0.27673 0.01597 0.22522
 H947 H 0.22299 0.00028 0.29726
 H948 H 0.21253 0.01854 0.28226
 H949 H 0.27705 0.04516 0.25642
 H950 H 0.28782 0.03033 0.27371
 H951 H 0.21206 -0.01081 0.24993
 H952 H 0.22339 -0.02827 0.26585
 O953 O 0.50254 0.71402 0.22761
 O954 O 0.47825 0.71994 0.22857
 O955 O 0.52154 0.75568 0.21840
 O956 O 0.52140 0.77761 0.22846
 O957 O 0.53845 0.72795 0.25112
 O958 O 0.53184 0.72248 0.27563
 O959 O 0.48485 0.78324 0.26491
 O960 O 0.48841 0.78539 0.23912
 O961 O 0.46409 0.74346 0.27105
 O962 O 0.46865 0.71850 0.26336
 O963 O 0.49865 0.75407 0.29592
 O964 O 0.52444 0.75336 0.29181
 O965 O 0.50050 0.77789 0.28247
 O966 O 0.52562 0.77242 0.28116
 O967 O 0.48149 0.73786 0.29064
 O968 O 0.48269 0.71382 0.27883
 O969 O 0.46577 0.76533 0.25966
 O970 O 0.46975 0.76963 0.23585
 O971 O 0.51851 0.70907 0.24501
 O972 O 0.51603 0.70739 0.27071
 O973 O 0.53979 0.74951 0.23905
 O974 O 0.53466 0.77396 0.24716
 O975 O 0.50488 0.73886 0.21321
 O976 O 0.47950 0.73914 0.21732
 Zr977 Zr 0.49478 0.73450 0.23305
 O978 O 0.48098 0.74376 0.24798
 Zr979 Zr 0.51970 0.75830 0.24082
 O980 O 0.50700 0.76858 0.25612
 Zr981 Zr 0.51773 0.72694 0.25874
 O982 O 0.50491 0.73577 0.27480
 Zr983 Zr 0.48594 0.76570 0.25075
 O984 O 0.49866 0.75696 0.23427
 Zr985 Zr 0.48393 0.73431 0.26843
 O986 O 0.49665 0.72383 0.25313
 Zr987 Zr 0.50902 0.75807 0.27622
 O988 O 0.52304 0.74888 0.26129
 O989 O 0.51571 0.73634 0.23844
 O990 O 0.48795 0.75630 0.27111
 C991 C 0.51176 0.70590 0.23352
 C992 C 0.51497 0.74748 0.20960
 C993 C 0.54510 0.73766 0.24370
 C994 C 0.49120 0.78599 0.27675
 C995 C 0.45909 0.75571 0.26715
 C996 C 0.48810 0.74605 0.29940
 H997 H 0.47128 0.74260 0.24454
 H998 H 0.50653 0.73068 0.28406
 H999 H 0.52191 0.73185 0.23124
 H1000 H 0.50953 0.77896 0.25654
 H1001 H 0.49173 0.78290 0.22934
 H1002 H 0.51525 0.78478 0.23301
 H1003 H 0.49043 0.71322 0.28581
 H1004 H 0.50668 0.70329 0.26864
 H1005 H 0.47293 0.76575 0.22655
 H1006 H 0.48195 0.74864 0.21290
 H1007 H 0.52245 0.74359 0.29582
 H1008 H 0.53660 0.73174 0.27783
 H1009 H 0.47795 0.71281 0.23663
 H1010 H 0.46329 0.72215 0.25501
 H1011 H 0.53925 0.77009 0.25591
 H1012 H 0.52516 0.78075 0.27439
 O1013 O 0.03437 0.72962 0.74989
 O1014 O 0.02942 0.73142 0.77457
 O1015 O -0.00415 0.71038 0.73427
 O1016 O -0.02642 0.71597 0.73295
 O1017 O 0.01583 0.74591 0.71098
 O1018 O 0.01695 0.77128 0.71439
 O1019 O -0.03760 0.75377 0.76857
 O1020 O -0.03512 0.72877 0.76854
 O1021 O -0.00028 0.77050 0.78580
 O1022 O 0.02396 0.76936 0.77990
 O1023 O -0.01687 0.78882 0.74669
 O1024 O -0.01789 0.78169 0.72224
 O1025 O -0.03630 0.77123 0.75110
 O1026 O -0.03264 0.76566 0.72378
 O1027 O -0.00207 0.78850 0.76576
 O1028 O 0.02449 0.78260 0.76202
 O1029 O -0.01896 0.75513 0.78693
 O1030 O -0.01803 0.72796 0.78433
 O1031 O 0.03535 0.74524 0.73074
 O1032 O 0.03188 0.77159 0.73099
 O1033 O -0.00204 0.72953 0.71231
 O1034 O -0.02718 0.73415 0.71840
 O1035 O 0.01366 0.71051 0.75044
 O1036 O 0.01211 0.71748 0.77605
 Zr1037 Zr 0.01413 0.73186 0.75824
 O1038 O 0.00319 0.74643 0.77123
 Zr1039 Zr -0.01052 0.73199 0.73316
 O1040 O -0.02300 0.74588 0.74547
 Zr1041 Zr 0.01582 0.75573 0.73126
 O1042 O 0.00418 0.77111 0.74271
 Zr1043 Zr -0.01824 0.74367 0.76746
 O1044 O -0.00738 0.72813 0.75537
 Zr1045 Zr 0.00752 0.76794 0.76485
 O1046 O 0.02024 0.75336 0.75335
 Zr1047 Zr -0.01734 0.76728 0.74010
 O1048 O -0.00565 0.75337 0.72681
 O1049 O 0.01083 0.73436 0.73627
 O1050 O -0.01382 0.76515 0.76210
 C1051 C 0.04065 0.73547 0.73902
 C1052 C 0.00573 0.70420 0.74122
 C1053 C 0.00813 0.73589 0.70563
 C1054 C -0.04240 0.76480 0.76182
 C1055 C -0.01104 0.76504 0.79218
 C1056 C -0.01113 0.79471 0.75760
 H1057 H 0.00565 0.74469 0.78143
 H1058 H 0.00693 0.78096 0.73946
 H1059 H 0.01631 0.72747 0.73052
 H1060 H -0.03300 0.74386 0.74375
 H1061 H -0.03185 0.71976 0.76403
 H1062 H -0.03357 0.71887 0.74004
 H1063 H 0.02143 0.79059 0.75563
 H1064 H 0.03689 0.77060 0.74025
 H1065 H -0.01045 0.73045 0.79107
 H1066 H 0.00300 0.71245 0.77503
 H1067 H -0.00841 0.78590 0.72112
 H1068 H 0.00764 0.77136 0.70982
 H1069 H 0.03421 0.74095 0.77418
 H1070 H 0.02392 0.76020 0.78552
 H1071 H -0.02463 0.74215 0.71166
 H1072 H -0.04075 0.76022 0.72779
 O1073 O -0.00254 -0.01527 -0.03862
 O1074 O 0.02097 -0.01476 -0.03057
 O1075 O -0.02460 -0.02993 -0.00060
 O1076 O -0.02793 -0.02281 0.02178
 O1077 O -0.03981 0.00631 -0.02582
 O1078 O -0.03334 0.03103 -0.02777
 O1079 O 0.00879 0.01290 0.03583
 O1080 O 0.00591 -0.01238 0.03487
 O1081 O 0.03214 0.02497 -0.00054
 O1082 O 0.03011 0.02201 -0.02601
 O1083 O -0.00469 0.04751 0.01018
 O1084 O -0.02944 0.04298 0.00735
 O1085 O -0.00688 0.03075 0.03170
 O1086 O -0.03213 0.02867 0.02375
 O1087 O 0.01465 0.04484 -0.00382
 O1088 O 0.01493 0.03653 -0.03032
 O1089 O 0.02902 0.01094 0.01955
 O1090 O 0.02356 -0.01581 0.01980
 O1091 O -0.01819 0.00257 -0.04309
 O1092 O -0.01564 0.02873 -0.04091
 O1093 O -0.04299 -0.00887 -0.00655
 O1094 O -0.04007 -0.00347 0.01960
 O1095 O -0.00640 -0.03276 -0.01616
 O1096 O 0.01841 -0.02799 -0.01212
 Zr1097 Zr 0.00336 -0.01216 -0.01707
 O1098 O 0.01600 0.00187 -0.00488
 Zr1099 Zr -0.02389 -0.00795 0.00472
 O1100 O -0.01224 0.00565 0.01830
 Zr1101 Zr -0.01929 0.01402 -0.02363
 O1102 O -0.00808 0.02899 -0.01117
 Zr1103 Zr 0.00918 0.00123 0.01666
 O1104 O -0.00268 -0.01393 0.00475
 Zr1105 Zr 0.01310 0.02345 -0.01148
 O1106 O 0.00207 0.00921 -0.02515
 Zr1107 Zr -0.01409 0.02700 0.01062
 O1108 O -0.02678 0.01353 -0.00223
 O1109 O -0.01777 -0.00737 -0.01677
 O1110 O 0.00719 0.02270 0.01012
 C1111 C -0.01109 -0.00851 -0.04685
 C1112 C -0.01711 -0.03756 -0.00906
 C1113 C -0.04723 -0.00246 -0.01810
 C1114 C 0.00214 0.02424 0.03958
 C1115 C 0.03619 0.01983 0.01162
 C1116 C 0.00668 0.05224 0.00444
 H1117 H 0.02587 -0.00096 -0.00586
 H1118 H -0.00960 0.03887 -0.01500
 H1119 H -0.02335 -0.01407 -0.02272
 H1120 H -0.01553 0.00450 0.02838
 H1121 H 0.00130 -0.02129 0.03136
 H1122 H -0.02195 -0.01991 0.02991
 H1123 H 0.00830 0.04461 -0.02946
 H1124 H -0.00620 0.02669 -0.04471
 H1125 H 0.03126 -0.01461 0.01272
 H1126 H 0.01619 -0.03166 -0.00229
 H1127 H -0.02778 0.04738 -0.00228
 H1128 H -0.03881 0.03229 -0.01880
 H1129 H 0.02190 -0.00573 -0.03636
 H1130 H 0.03429 0.01237 -0.02458
 H1131 H -0.04507 0.00508 0.01584
 H1132 H -0.03119 0.02184 0.03198
 O1133 O -0.00204 0.53698 0.52466
 O1134 O -0.02745 0.53539 0.52451
 O1135 O 0.00915 0.49883 0.54800
 O1136 O 0.00511 0.47482 0.54609
 O1137 O 0.02973 0.51001 0.50794
 O1138 O 0.02309 0.50744 0.48292
 O1139 O -0.03349 0.46303 0.51302
 O1140 O -0.02849 0.46845 0.53789
 O1141 O -0.04706 0.50074 0.49392
 O1142 O -0.03758 0.52645 0.49271
 O1143 O -0.01609 0.47672 0.47460
 O1144 O 0.01012 0.47512 0.47854
 O1145 O -0.01762 0.45948 0.49515
 O1146 O 0.00799 0.46037 0.49480
 O1147 O -0.02958 0.49679 0.47366
 O1148 O -0.02482 0.52236 0.47600
 O1149 O -0.04866 0.48482 0.51277
 O1150 O -0.04271 0.48728 0.53781
 O1151 O 0.01350 0.53301 0.50653
 O1152 O 0.01073 0.52600 0.48213
 O1153 O 0.02783 0.49436 0.52700
 O1154 O 0.01891 0.46992 0.52748
 O1155 O -0.00496 0.51845 0.54668
 O1156 O -0.02901 0.52143 0.54224
 Zr1157 Zr -0.01384 0.51759 0.52615
 O1158 O -0.02958 0.50595 0.51551
 Zr1159 Zr 0.00652 0.48874 0.52784
 O1160 O -0.00826 0.47588 0.51687
 Zr1161 Zr 0.00920 0.51176 0.50008
 O1162 O -0.00566 0.50022 0.48801
 Zr1163 Zr -0.02833 0.48378 0.52077
 O1164 O -0.01374 0.49573 0.53301
 Zr1165 Zr -0.02587 0.50717 0.49324
 O1166 O -0.01085 0.52013 0.50379
 Zr1167 Zr -0.00544 0.47839 0.49443
 O1168 O 0.01053 0.48969 0.50547
 O1169 O 0.00632 0.51055 0.52228
 O1170 O -0.02568 0.48522 0.49850
 C1171 C 0.00811 0.54094 0.51630
 C1172 C 0.00366 0.51027 0.55332
 C1173 C 0.03491 0.50272 0.51849
 C1174 C -0.02828 0.45558 0.50273
 C1175 C -0.05391 0.49193 0.50222
 C1176 C -0.02511 0.48492 0.46845
 H1177 H -0.03875 0.50999 0.51807
 H1178 H -0.00360 0.50147 0.47762
 H1179 H 0.01337 0.51619 0.52766
 H1180 H -0.00757 0.46566 0.52000
 H1181 H -0.02340 0.47293 0.54599
 H1182 H -0.00098 0.46654 0.54355
 H1183 H -0.01633 0.52029 0.47031
 H1184 H 0.00215 0.53187 0.48221
 H1185 H -0.04668 0.49702 0.53651
 H1186 H -0.03038 0.51217 0.54755
 H1187 H 0.00899 0.48258 0.47091
 H1188 H 0.02630 0.49739 0.48437
 H1189 H -0.02609 0.53962 0.51474
 H1190 H -0.04402 0.52626 0.50108
 H1191 H 0.02313 0.46944 0.51774
 H1192 H 0.00669 0.45534 0.50419
 O1193 O 0.47553 -0.01022 0.49146
 O1194 O 0.48266 0.01465 0.48890
 O1195 O 0.50915 -0.03256 0.47146
 O1196 O 0.53205 -0.03462 0.47406
 O1197 O 0.49295 -0.04670 0.51296
 O1198 O 0.49625 -0.03843 0.53698
 O1199 O 0.55165 0.00577 0.50328
 O1200 O 0.54585 0.00030 0.47895
 O1201 O 0.51954 0.02944 0.52014
 O1202 O 0.49427 0.02680 0.52179
 O1203 O 0.53457 -0.00628 0.54281
 O1204 O 0.53100 -0.03262 0.54125
 O1205 O 0.55159 -0.00988 0.52238
 O1206 O 0.54428 -0.03579 0.52479
 O1207 O 0.51948 0.01251 0.54179
 O1208 O 0.49326 0.01249 0.53835
 O1209 O 0.53481 0.02610 0.50166
 O1210 O 0.53092 0.01830 0.47686
 O1211 O 0.47526 -0.02488 0.51135
 O1212 O 0.48246 -0.02101 0.53589
 O1213 O 0.50830 -0.05031 0.49458
 O1214 O 0.53386 -0.04658 0.49432
 O1215 O 0.49345 -0.01427 0.47037
 O1216 O 0.49727 0.01160 0.47210
 Zr1217 Zr 0.49643 -0.00304 0.48978
 O1218 O 0.51064 0.01121 0.49971
 Zr1219 Zr 0.51868 -0.03028 0.49167
 O1220 O 0.53402 -0.01713 0.50131
 Zr1221 Zr 0.49610 -0.02493 0.51842
 O1222 O 0.51052 -0.01188 0.52947
 Zr1223 Zr 0.53114 0.00462 0.49539
 O1224 O 0.51696 -0.00877 0.48408
 Zr1225 Zr 0.50870 0.00963 0.52225
 O1226 O 0.49313 -0.00321 0.51227
 Zr1227 Zr 0.53095 -0.01770 0.52376
 O1228 O 0.51649 -0.03206 0.51420
 O1229 O 0.49824 -0.02453 0.49613
 O1230 O 0.52923 0.00399 0.51776
 C1231 C 0.46930 -0.01866 0.50061
 C1232 C 0.49945 -0.02544 0.46513
 C1233 C 0.49871 -0.05466 0.50343
 C1234 C 0.55759 -0.00061 0.51395
 C1235 C 0.52940 0.03378 0.51163
 C1236 C 0.52922 0.00524 0.54791
 H1237 H 0.50896 0.02117 0.49623
 H1238 H 0.50883 -0.01286 0.53995
 H1239 H 0.49139 -0.03088 0.49128
 H1240 H 0.54344 -0.02039 0.49852
 H1241 H 0.54077 -0.00497 0.47134
 H1242 H 0.54069 -0.02885 0.47539
 H1243 H 0.49487 0.00528 0.54612
 H1244 H 0.47854 -0.01127 0.53423
 H1245 H 0.52302 0.02503 0.47778
 H1246 H 0.50593 0.00945 0.46671
 H1247 H 0.52315 -0.03021 0.54772
 H1248 H 0.50510 -0.04385 0.53664
 H1249 H 0.47891 0.01579 0.49878
 H1250 H 0.49434 0.03097 0.51193
 H1251 H 0.53238 -0.05093 0.50402
 H1252 H 0.55005 -0.03577 0.51592
 O1253 O 0.50458 0.54198 0.01880
 O1254 O 0.47949 0.54033 0.01618
 O1255 O 0.51291 0.50457 0.04521
 O1256 O 0.50982 0.48062 0.04391
 O1257 O 0.53801 0.51417 0.00717
 O1258 O 0.53399 0.51036 -0.01822
 O1259 O 0.47433 0.46762 0.00744
 O1260 O 0.47661 0.47419 0.03250
 O1261 O 0.46382 0.50220 -0.01614
 O1262 O 0.47186 0.52937 -0.01544
 O1263 O 0.49435 0.47882 -0.02867
 O1264 O 0.52084 0.47813 -0.02313
 O1265 O 0.49224 0.46282 -0.00788
 O1266 O 0.51774 0.46412 -0.00604
 O1267 O 0.48333 0.50003 -0.03326
 O1268 O 0.48685 0.52558 -0.03074
 O1269 O 0.45942 0.48916 0.00437
 O1270 O 0.46278 0.49318 0.02996
 O1271 O 0.52202 0.53713 0.00287
 O1272 O 0.52185 0.52886 -0.02137
 O1273 O 0.53398 0.49957 0.02671
 O1274 O 0.52493 0.47491 0.02708
 O1275 O 0.49969 0.52456 0.04136
 O1276 O 0.47608 0.52703 0.03427
 Zr1277 Zr 0.49277 0.52261 0.02006
 O1278 O 0.47811 0.51053 0.00824
 Zr1279 Zr 0.51273 0.49382 0.02531
 O1280 O 0.49905 0.48049 0.01350
 Zr1281 Zr 0.51840 0.51554 -0.00299
 O1282 O 0.50484 0.50342 -0.01609
 Zr1283 Zr 0.47875 0.48868 0.01478
 O1284 O 0.49210 0.50110 0.02794
 Zr1285 Zr 0.48424 0.51061 -0.01349
 O1286 O 0.49812 0.52406 -0.00195
 Zr1287 Zr 0.50421 0.48190 -0.00858
 O1288 O 0.51904 0.49371 0.00353
 O1289 O 0.51320 0.51538 0.01878
 O1290 O 0.48382 0.48903 -0.00702
 C1291 C 0.51554 0.54557 0.01144
 C1292 C 0.50723 0.51638 0.04935
 C1293 C 0.54199 0.50744 0.01864
 C1294 C 0.48070 0.45947 -0.00153
 C1295 C 0.45597 0.49413 -0.00804
 C1296 C 0.48678 0.48715 -0.03654
 H1297 H 0.46871 0.51464 0.00943
 H1298 H 0.50796 0.50417 -0.02624
 H1299 H 0.51965 0.52129 0.02465
 H1300 H 0.49938 0.47043 0.01721
 H1301 H 0.48094 0.47898 0.04088
 H1302 H 0.50345 0.47258 0.04131
 H1303 H 0.49606 0.52373 -0.03518
 H1304 H 0.51356 0.53510 -0.02228
 H1305 H 0.45872 0.50265 0.02742
 H1306 H 0.47429 0.51804 0.03990
 H1307 H 0.51939 0.48420 -0.03184
 H1308 H 0.53658 0.50019 -0.01625
 H1309 H 0.48135 0.54364 0.00616
 H1310 H 0.46305 0.52766 -0.01004
 H1311 H 0.53059 0.47435 0.01816
 H1312 H 0.51573 0.45965 0.00349
 O1313 O 0.77397 0.29941 0.50984
 O1314 O 0.76976 0.29514 0.53508
 O1315 O 0.79231 0.25972 0.49641
 O1316 O 0.78670 0.23605 0.49859
 O1317 O 0.75997 0.27828 0.47144
 O1318 O 0.73504 0.27960 0.47401
 O1319 O 0.74658 0.22543 0.53044
 O1320 O 0.77186 0.22804 0.53085
 O1321 O 0.73076 0.26387 0.54557
 O1322 O 0.73495 0.28961 0.53978
 O1323 O 0.71565 0.24629 0.50794
 O1324 O 0.72389 0.24649 0.48227
 O1325 O 0.73236 0.22595 0.51089
 O1326 O 0.73711 0.22985 0.48496
 O1327 O 0.71487 0.26455 0.52410
 O1328 O 0.72266 0.29067 0.52209
 O1329 O 0.74544 0.24488 0.54821
 O1330 O 0.76936 0.24572 0.54846
 O1331 O 0.75970 0.29954 0.49030
 O1332 O 0.73489 0.29643 0.48901
 O1333 O 0.77508 0.25966 0.47447
 O1334 O 0.77076 0.23452 0.48151
 O1335 O 0.79179 0.27810 0.51247
 O1336 O 0.78358 0.27829 0.53786
 Zr1337 Zr 0.77073 0.27880 0.51939
 O1338 O 0.75577 0.26761 0.53219
 Zr1339 Zr 0.77153 0.25227 0.49570
 O1340 O 0.75664 0.23991 0.50740
 Zr1341 Zr 0.74933 0.27944 0.49129
 O1342 O 0.73347 0.26835 0.50281
 Zr1343 Zr 0.75754 0.24524 0.52928
 O1344 O 0.77384 0.25630 0.51791
 Zr1345 Zr 0.73557 0.27243 0.52494
 O1346 O 0.75049 0.28498 0.51321
 Zr1347 Zr 0.73652 0.24599 0.50092
 O1348 O 0.75144 0.25711 0.48800
 O1349 O 0.76948 0.27449 0.49753
 O1350 O 0.73736 0.25015 0.52289
 C1351 C 0.76889 0.30541 0.49847
 C1352 C 0.79815 0.27005 0.50339
 C1353 C 0.76955 0.26979 0.46692
 C1354 C 0.73707 0.21996 0.52238
 C1355 C 0.73542 0.25288 0.55257
 C1356 C 0.70921 0.25416 0.51707
 H1357 H 0.75708 0.27004 0.54244
 H1358 H 0.72427 0.27132 0.49913
 H1359 H 0.77649 0.27992 0.49170
 H1360 H 0.75833 0.22949 0.50601
 H1361 H 0.78124 0.23219 0.52879
 H1362 H 0.78236 0.22826 0.50453
 H1363 H 0.71710 0.28919 0.51327
 H1364 H 0.73470 0.30149 0.49834
 H1365 H 0.77817 0.25085 0.54605
 H1366 H 0.78981 0.26988 0.53694
 H1367 H 0.71792 0.25513 0.48276
 H1368 H 0.73514 0.26978 0.46989
 H1369 H 0.76089 0.30028 0.53345
 H1370 H 0.74258 0.28815 0.54677
 H1371 H 0.76271 0.23609 0.47506
 H1372 H 0.74458 0.22301 0.48756
 O1373 O 0.78503 0.76400 -0.01303
 O1374 O 0.78597 0.73780 -0.01163
 O1375 O 0.74750 0.77109 -0.03644
 O1376 O 0.72478 0.76535 -0.03407
 O1377 O 0.75623 0.79478 0.00228
 O1378 O 0.75388 0.78861 0.02763
 O1379 O 0.71662 0.72538 0.00052
 O1380 O 0.72222 0.72959 -0.02436
 O1381 O 0.75407 0.71534 0.02080
 O1382 O 0.77775 0.72730 0.02124
 O1383 O 0.72768 0.74564 0.03813
 O1384 O 0.72358 0.77206 0.03310
 O1385 O 0.71143 0.74183 0.01769
 O1386 O 0.71020 0.76848 0.01672
 O1387 O 0.74825 0.73370 0.03985
 O1388 O 0.77269 0.74123 0.03685
 O1389 O 0.73900 0.71162 0.00234
 O1390 O 0.74152 0.71689 -0.02328
 O1391 O 0.77984 0.78011 0.00452
 O1392 O 0.77279 0.77739 0.02912
 O1393 O 0.74151 0.79071 -0.01646
 O1394 O 0.71857 0.77909 -0.01603
 O1395 O 0.76799 0.75900 -0.03454
 O1396 O 0.77253 0.73423 -0.02910
 Zr1397 Zr 0.76754 0.75002 -0.01367
 O1398 O 0.75777 0.73306 -0.00201
 Zr1399 Zr 0.73793 0.76825 -0.01606
 O1400 O 0.72684 0.75212 -0.00436
 Zr1401 Zr 0.75957 0.77406 0.01127
 O1402 O 0.74956 0.75811 0.02417
 Zr1403 Zr 0.73643 0.73207 -0.00718
 O1404 O 0.74660 0.74788 -0.02030
 Zr1405 Zr 0.75823 0.73778 0.02003
 O1406 O 0.76947 0.75404 0.00849
 Zr1407 Zr 0.72862 0.75607 0.01784
 O1408 O 0.73825 0.77324 0.00603
 O1409 O 0.75888 0.77025 -0.01072
 O1410 O 0.73716 0.73573 0.01490
 C1411 C 0.78793 0.77502 -0.00521
 C1412 C 0.75923 0.76677 -0.04153
 C1413 C 0.74889 0.79906 -0.00851
 C1414 C 0.70865 0.73047 0.01039
 C1415 C 0.74617 0.70720 0.01314
 C1416 C 0.73628 0.73735 0.04476
 H1417 H 0.76255 0.72390 -0.00406
 H1418 H 0.75039 0.76070 0.03443
 H1419 H 0.76373 0.77785 -0.01651
 H1420 H 0.71701 0.75180 -0.00752
 H1421 H 0.72609 0.73520 -0.03265
 H1422 H 0.71781 0.75778 -0.03146
 H1423 H 0.76937 0.74948 0.04257
 H1424 H 0.77930 0.76915 0.02937
 H1425 H 0.75115 0.71355 -0.02160
 H1426 H 0.76379 0.73208 -0.03433
 H1427 H 0.73105 0.77225 0.04041
 H1428 H 0.74390 0.79081 0.02614
 H1429 H 0.78967 0.73969 -0.00188
 H1430 H 0.77847 0.72072 0.01296
 H1431 H 0.71790 0.78427 -0.00678
 H1432 H 0.70547 0.76616 0.00758
 O1433 O 1.02456 0.23647 0.23142
 O1434 O 1.02018 0.23696 0.25707
 O1435 O 0.98968 0.21172 0.21620
 O1436 O 0.96654 0.21295 0.21656
 O1437 O 1.00244 0.25141 0.19507
 O1438 O 0.99804 0.27659 0.20034
 O1439 O 0.94996 0.24662 0.25449
 O1440 O 0.95636 0.22171 0.25112
 O1441 O 0.98314 0.26789 0.27189
 O1442 O 1.00858 0.26986 0.26588
 O1443 O 0.96350 0.28492 0.23591
 O1444 O 0.96458 0.28036 0.20982
 O1445 O 0.94738 0.26325 0.23645
 O1446 O 0.95191 0.26286 0.21001
 O1447 O 0.98053 0.28695 0.25275
 O1448 O 1.00649 0.28528 0.25046
 O1449 O 0.96889 0.24807 0.27259
 O1450 O 0.97297 0.22278 0.26765
 O1451 O 1.02216 0.25430 0.21451
 O1452 O 1.01407 0.27866 0.21569
 O1453 O 0.98746 0.23212 0.19570
 O1454 O 0.96256 0.23137 0.20218
 O1455 O 1.00734 0.21391 0.23238
 O1456 O 1.00658 0.21888 0.25775
 Zr1457 Zr 1.00464 0.23460 0.24117
 O1458 O 0.99141 0.24550 0.25555
 Zr1459 Zr 0.97943 0.23166 0.21685
 O1460 O 0.96508 0.24233 0.23019
 Zr1461 Zr 1.00104 0.26007 0.21594
 O1462 O 0.98765 0.27210 0.22917
 Zr1463 Zr 0.97055 0.23936 0.25189
 O1464 O 0.98392 0.22710 0.23866
 Zr1465 Zr 0.99203 0.26780 0.25099
 O1466 O 1.00663 0.25709 0.23770
 Zr1467 Zr 0.96703 0.26474 0.22646
 O1468 O 0.98025 0.25392 0.21190
 O1469 O 1.00014 0.23787 0.21954
 O1470 O 0.97129 0.26161 0.24826
 C1471 C 1.02936 0.24477 0.22126
 C1472 C 1.00040 0.20687 0.22288
 C1473 C 0.99635 0.24048 0.18926
 C1474 C 0.94285 0.25601 0.24742
 C1475 C 0.97430 0.25937 0.27826
 C1476 C 0.96968 0.29160 0.24614
 H1477 H 0.99429 0.24341 0.26555
 H1478 H 0.98868 0.28250 0.22677
 H1479 H 1.00656 0.23249 0.21322
 H1480 H 0.95551 0.23871 0.22839
 H1481 H 0.96138 0.21364 0.24656
 H1482 H 0.95830 0.21484 0.22269
 H1483 H 1.00414 0.29160 0.24217
 H1484 H 1.01864 0.27895 0.22523
 H1485 H 0.98172 0.22467 0.27293
 H1486 H 0.99793 0.21292 0.25758
 H1487 H 0.97243 0.28735 0.21044
 H1488 H 0.98894 0.27457 0.19576
 H1489 H 1.02347 0.24713 0.25645
 H1490 H 1.00839 0.26122 0.27227
 H1491 H 0.96306 0.24052 0.19653
 H1492 H 0.94670 0.25369 0.21165
 O1493 O 0.73592 1.02048 0.73145
 O1494 O 0.76080 1.01780 0.73114
 O1495 O 0.72208 0.98323 0.70804
 O1496 O 0.72297 0.95945 0.70983
 O1497 O 0.70255 0.99499 0.74840
 O1498 O 0.70911 0.99093 0.77322
 O1499 O 0.76172 0.94443 0.74063
 O1500 O 0.75789 0.95198 0.71645
 O1501 O 0.77844 0.97949 0.76211
 O1502 O 0.77170 1.00580 0.76349
 O1503 O 0.74537 0.95736 0.78061
 O1504 O 0.72052 0.95609 0.77720
 O1505 O 0.74602 0.94066 0.75881
 O1506 O 0.71992 0.94388 0.75948
 O1507 O 0.76064 0.97627 0.78197
 O1508 O 0.75773 1.00263 0.77963
 O1509 O 0.77888 0.96501 0.74250
 O1510 O 0.77307 0.96993 0.71730
 O1511 O 0.72045 1.01672 0.74986
 O1512 O 0.72342 1.00837 0.77432
 O1513 O 0.70311 0.97991 0.72921
 O1514 O 0.71056 0.95441 0.72879
 O1515 O 0.73693 1.00257 0.70921
 O1516 O 0.76170 1.00374 0.71350
 Zr1517 Zr 0.74629 1.00052 0.72964
 O1518 O 0.76136 0.98770 0.74010
 Zr1519 Zr 0.72386 0.97285 0.72812
 O1520 O 0.73800 0.95885 0.73826
 Zr1521 Zr 0.72326 0.99497 0.75604
 O1522 O 0.73723 0.98182 0.76760
 Zr1523 Zr 0.75854 0.96599 0.73429
 O1524 O 0.74448 0.97901 0.72256
 Zr1525 Zr 0.75794 0.98776 0.76247
 O1526 O 0.74390 1.00213 0.75215
 Zr1527 Zr 0.73539 0.96033 0.76070
 O1528 O 0.72011 0.97320 0.75047
 O1529 O 0.72573 0.99443 0.73381
 O1530 O 0.75611 0.96616 0.75663
 C1531 C 0.72618 1.02469 0.74000
 C1532 C 0.72790 0.99464 0.70267
 C1533 C 0.69677 0.98847 0.73778
 C1534 C 0.75585 0.93649 0.75040
 C1535 C 0.78458 0.97070 0.75357
 C1536 C 0.75488 0.96465 0.78705
 H1537 H 0.77081 0.99132 0.73762
 H1538 H 0.73527 0.98267 0.77802
 H1539 H 0.71908 1.00065 0.72854
 H1540 H 0.73648 0.94891 0.73476
 H1541 H 0.75271 0.95707 0.70873
 H1542 H 0.72993 0.95175 0.71121
 H1543 H 0.74956 1.00026 0.78580
 H1544 H 0.73221 1.01410 0.77379
 H1545 H 0.77839 0.97887 0.71940
 H1546 H 0.76191 0.99474 0.70784
 H1547 H 0.72008 0.96478 0.78329
 H1548 H 0.70503 0.98121 0.77162
 H1549 H 0.76086 1.02070 0.74137
 H1550 H 0.77797 1.00558 0.75500
 H1551 H 0.70525 0.95471 0.73796
 H1552 H 0.72167 0.93832 0.75063
 O1553 O 0.72231 0.52212 0.24110
 O1554 O 0.73125 0.52323 0.26479
 O1555 O 0.75842 0.53215 0.21506
 O1556 O 0.77969 0.52323 0.21170
 O1557 O 0.73130 0.49636 0.20422
 O1558 O 0.72851 0.47250 0.21310
 O1559 O 0.79295 0.49023 0.25241
 O1560 O 0.79351 0.51503 0.24647
 O1561 O 0.75869 0.48230 0.27837
 O1562 O 0.73375 0.48831 0.27731
 O1563 O 0.76537 0.45621 0.24321
 O1564 O 0.76171 0.45850 0.21713
 O1565 O 0.78695 0.47089 0.23879
 O1566 O 0.77871 0.47115 0.21262
 O1567 O 0.75184 0.46161 0.26259
 O1568 O 0.72788 0.47221 0.26414
 O1569 O 0.77849 0.49513 0.27303
 O1570 O 0.77981 0.52152 0.26478
 O1571 O 0.71598 0.50302 0.22725
 O1572 O 0.71683 0.47705 0.23150
 O1573 O 0.75061 0.50987 0.19859
 O1574 O 0.77557 0.50292 0.20083
 O1575 O 0.74509 0.53759 0.23459
 O1576 O 0.74950 0.53500 0.26013
 Zr1577 Zr 0.74321 0.51811 0.24637
 O1578 O 0.75481 0.50468 0.26016
 Zr1579 Zr 0.76248 0.50995 0.21776
 O1580 O 0.77541 0.49653 0.23047
 Zr1581 Zr 0.73412 0.49040 0.22586
 O1582 O 0.74576 0.47580 0.23838
 Zr1583 Zr 0.77521 0.50321 0.25202
 O1584 O 0.76400 0.51791 0.23894
 Zr1585 Zr 0.74677 0.48348 0.25954
 O1586 O 0.73394 0.49737 0.24733
 Zr1587 Zr 0.76667 0.47560 0.23122
 O1588 O 0.75446 0.48869 0.21734
 O1589 O 0.74203 0.51139 0.22511
 O1590 O 0.76737 0.48215 0.25252
 C1591 C 0.71339 0.51492 0.23373
 C1592 C 0.75141 0.54101 0.22276
 C1593 C 0.73883 0.50391 0.19541
 C1594 C 0.79535 0.47772 0.24716
 C1595 C 0.77095 0.48702 0.28138
 C1596 C 0.75927 0.45291 0.25519
 H1597 H 0.75464 0.50854 0.27004
 H1598 H 0.74133 0.46611 0.23793
 H1599 H 0.73634 0.51794 0.21908
 H1600 H 0.78505 0.49661 0.22661
 H1601 H 0.79048 0.52369 0.24100
 H1602 H 0.78779 0.51989 0.21736
 H1603 H 0.72684 0.46444 0.25699
 H1604 H 0.71369 0.48008 0.24118
 H1605 H 0.77396 0.52104 0.27360
 H1606 H 0.75917 0.53770 0.25729
 H1607 H 0.75238 0.45472 0.21992
 H1608 H 0.73692 0.47003 0.20744
 H1609 H 0.72549 0.51455 0.26710
 H1610 H 0.73738 0.49725 0.28176
 H1611 H 0.77139 0.49388 0.19711
 H1612 H 0.78722 0.47730 0.21283
 O1613 O 0.53623 0.23880 0.73785
 O1614 O 0.53313 0.24270 0.76320
 O1615 O 0.49794 0.21742 0.72655
 O1616 O 0.47525 0.22182 0.72705
 O1617 O 0.51432 0.25304 0.70059
 O1618 O 0.51391 0.27887 0.70328
 O1619 O 0.46424 0.26080 0.76118
 O1620 O 0.46829 0.23506 0.76105
 O1621 O 0.50130 0.27953 0.77563
 O1622 O 0.52589 0.27814 0.76838
 O1623 O 0.48125 0.29538 0.73795
 O1624 O 0.48099 0.28792 0.71302
 O1625 O 0.46314 0.27620 0.74192
 O1626 O 0.46674 0.27164 0.71526
 O1627 O 0.49894 0.29674 0.75529
 O1628 O 0.52477 0.29180 0.75089
 O1629 O 0.48367 0.26307 0.77846
 O1630 O 0.48592 0.23842 0.77812
 O1631 O 0.53530 0.25479 0.71904
 O1632 O 0.53040 0.28032 0.71805
 O1633 O 0.49747 0.23575 0.70389
 O1634 O 0.47279 0.23880 0.71143
 O1635 O 0.51680 0.21912 0.74126
 O1636 O 0.51771 0.22716 0.76669
 Zr1637 Zr 0.51669 0.24075 0.74821
 O1638 O 0.50548 0.25490 0.76153
 Zr1639 Zr 0.49036 0.23858 0.72518
 O1640 O 0.47796 0.25244 0.73755
 Zr1641 Zr 0.51518 0.26374 0.72048
 O1642 O 0.50376 0.27885 0.73250
 Zr1643 Zr 0.48396 0.25129 0.75925
 O1644 O 0.49515 0.23578 0.74724
 Zr1645 Zr 0.50857 0.27638 0.75444
 O1646 O 0.52124 0.26236 0.74222
 Zr1647 Zr 0.48235 0.27389 0.73116
 O1648 O 0.49367 0.25992 0.71767
 O1649 O 0.51173 0.24230 0.72652
 O1650 O 0.48717 0.27275 0.75298
 C1651 C 0.54155 0.24514 0.72665
 C1652 C 0.50852 0.21203 0.73301
 C1653 C 0.50676 0.24241 0.69620
 C1654 C 0.45807 0.27041 0.75348
 C1655 C 0.49124 0.27366 0.78289
 C1656 C 0.48794 0.30281 0.74835
 H1657 H 0.50833 0.25343 0.77167
 H1658 H 0.50582 0.28877 0.72897
 H1659 H 0.51713 0.23550 0.72058
 H1660 H 0.46799 0.24984 0.73644
 H1661 H 0.47273 0.22579 0.75856
 H1662 H 0.46850 0.22476 0.73453
 H1663 H 0.52184 0.29844 0.74306
 H1664 H 0.53537 0.28087 0.72735
 H1665 H 0.49090 0.22961 0.77527
 H1666 H 0.51004 0.21995 0.76600
 H1667 H 0.48976 0.29362 0.71241
 H1668 H 0.50437 0.27795 0.69932
 H1669 H 0.53774 0.25215 0.76120
 H1670 H 0.52566 0.26962 0.77494
 H1671 H 0.47422 0.24690 0.70448
 H1672 H 0.45999 0.26416 0.71866
 O1673 O 0.27189 0.78895 0.49148
 O1674 O 0.27593 0.78332 0.51626
 O1675 O 0.28709 0.75096 0.47043
 O1676 O 0.28230 0.72753 0.46993
 O1677 O 0.24729 0.76981 0.45867
 O1678 O 0.22450 0.76821 0.46932
 O1679 O 0.25703 0.71219 0.51438
 O1680 O 0.28018 0.71668 0.50653
 O1681 O 0.24420 0.74792 0.53687
 O1682 O 0.24488 0.77455 0.53207
 O1683 O 0.21864 0.73155 0.50525
 O1684 O 0.21804 0.73269 0.47914
 O1685 O 0.23675 0.71258 0.50176
 O1686 O 0.23325 0.71820 0.47503
 O1687 O 0.22220 0.74871 0.52220
 O1688 O 0.22737 0.77509 0.52021
 O1689 O 0.26057 0.73073 0.53310
 O1690 O 0.28449 0.73344 0.52276
 O1691 O 0.25175 0.78940 0.47859
 O1692 O 0.22786 0.78373 0.48544
 O1693 O 0.26373 0.75269 0.45478
 O1694 O 0.26171 0.72630 0.46057
 O1695 O 0.29069 0.76851 0.48703
 O1696 O 0.29070 0.76707 0.51302
 Zr1697 Zr 0.27263 0.76780 0.50008
 O1698 O 0.26329 0.75483 0.51635
 Zr1699 Zr 0.26697 0.74293 0.47513
 O1700 O 0.25775 0.72869 0.49042
 Zr1701 Zr 0.24339 0.76833 0.48099
 O1702 O 0.23283 0.75511 0.49624
 Zr1703 Zr 0.26552 0.73296 0.51106
 O1704 O 0.27619 0.74588 0.49551
 Zr1705 Zr 0.24163 0.75816 0.51668
 O1706 O 0.25123 0.77261 0.50166
 Zr1707 Zr 0.23633 0.73318 0.49182
 O1708 O 0.24532 0.74645 0.47537
 O1709 O 0.26472 0.76474 0.47955
 O1710 O 0.24408 0.73629 0.51245
 C1711 C 0.26294 0.79536 0.48340
 C1712 C 0.29450 0.76098 0.47616
 C1713 C 0.25571 0.76294 0.45048
 C1714 C 0.24555 0.70641 0.51019
 C1715 C 0.25181 0.73733 0.54111
 C1716 C 0.21504 0.73842 0.51659
 H1717 H 0.26754 0.75706 0.52575
 H1718 H 0.22278 0.75742 0.49613
 H1719 H 0.26949 0.77104 0.47232
 H1720 H 0.25949 0.71855 0.48772
 H1721 H 0.28730 0.72110 0.50002
 H1722 H 0.28118 0.71936 0.47683
 H1723 H 0.21969 0.77402 0.51321
 H1724 H 0.23060 0.78849 0.49451
 H1725 H 0.28408 0.74139 0.52977
 H1726 H 0.29495 0.75750 0.51146
 H1727 H 0.21309 0.74188 0.48065
 H1728 H 0.22387 0.75868 0.46460
 H1729 H 0.26670 0.78754 0.51837
 H1730 H 0.25413 0.77304 0.53649
 H1731 H 0.25231 0.72847 0.45679
 H1732 H 0.24085 0.71106 0.47550
 O1733 O 0.28472 0.28749 1.00642
 O1734 O 0.28327 0.28468 1.03180
 O1735 O 0.29754 0.24503 0.99335
 O1736 O 0.28954 0.22244 0.99537
 O1737 O 0.26483 0.26712 0.97079
 O1738 O 0.24078 0.27070 0.97549
 O1739 O 0.25379 0.21745 1.03354
 O1740 O 0.27795 0.21777 1.03232
 O1741 O 0.24232 0.25874 1.04790
 O1742 O 0.24787 0.28344 1.04025
 O1743 O 0.22177 0.24079 1.01322
 O1744 O 0.22661 0.23769 0.98784
 O1745 O 0.23681 0.21866 1.01654
 O1746 O 0.23980 0.22082 0.98926
 O1747 O 0.22438 0.25985 1.02824
 O1748 O 0.23442 0.28489 1.02364
 O1749 O 0.25482 0.23808 1.05010
 O1750 O 0.28143 0.23680 1.04606
 O1751 O 0.26845 0.28871 0.98866
 O1752 O 0.24295 0.28760 0.99030
 O1753 O 0.27833 0.24712 0.97277
 O1754 O 0.27137 0.22233 0.98152
 O1755 O 0.30049 0.26430 1.00811
 O1756 O 0.29513 0.26572 1.03390
 Zr1757 Zr 0.28049 0.26769 1.01704
 O1758 O 0.26594 0.25902 1.03201
 Zr1759 Zr 0.27605 0.24037 0.99454
 O1760 O 0.26183 0.23009 1.00888
 Zr1761 Zr 0.25637 0.26963 0.99148
 O1762 O 0.24094 0.26039 1.00507
 Zr1763 Zr 0.26554 0.23644 1.03021
 O1764 O 0.28116 0.24497 1.01613
 Zr1765 Zr 0.24568 0.26549 1.02648
 O1766 O 0.26046 0.27590 1.01277
 Zr1767 Zr 0.24169 0.23764 1.00442
 O1768 O 0.25578 0.24698 0.98913
 O1769 O 0.27650 0.26277 0.99568
 O1770 O 0.24528 0.24297 1.02579
 C1771 C 0.27899 0.29380 0.99559
 C1772 C 0.30505 0.25498 0.99908
 C1773 C 0.27321 0.25778 0.96556
 C1774 C 0.24277 0.21257 1.02741
 C1775 C 0.24623 0.24749 1.05493
 C1776 C 0.21706 0.24986 1.02235
 H1777 H 0.26840 0.26206 1.04185
 H1778 H 0.23171 0.26407 1.00217
 H1779 H 0.28343 0.26725 0.98901
 H1780 H 0.26249 0.21948 1.00796
 H1781 H 0.28670 0.21979 1.02690
 H1782 H 0.28598 0.21591 1.00309
 H1783 H 0.22763 0.28339 1.01579
 H1784 H 0.24496 0.29360 0.99882
 H1785 H 0.27923 0.24436 1.05315
 H1786 H 0.29833 0.25558 1.03390
 H1787 H 0.22324 0.24771 0.98674
 H1788 H 0.23926 0.26068 0.97214
 H1789 H 0.27466 0.29050 1.03138
 H1790 H 0.25621 0.28186 1.04628
 H1791 H 0.26345 0.22510 0.97530
 H1792 H 0.24593 0.21285 0.99237
 C1793 C 0.30527 0.37151 0.78459
 C1794 C 0.29560 0.38179 0.78888
 C1795 C 0.29174 0.39452 0.77991
 C1796 C 0.27939 0.40180 0.78322
 C1797 C 0.27535 0.41391 0.77520
 C1798 C 0.28359 0.41905 0.76356
 C1799 C 0.29609 0.41194 0.76040
 C1800 C 0.30014 0.39981 0.76846
 C1801 C 0.27994 0.43222 0.75513
 C1802 C 0.26661 0.43814 0.75514
 H1803 H 0.29018 0.38018 0.79905
 H1804 H 0.27284 0.39812 0.79212
 H1805 H 0.26594 0.41934 0.77845
 H1806 H 0.30278 0.41583 0.75171
 H1807 H 0.30998 0.39487 0.76581
 H1808 H 0.28819 0.43774 0.74913
 H1809 H 0.31033 0.37246 0.77418
 H1810 H 0.25811 0.43262 0.76067
 C1811 C 0.29699 -0.12340 0.28686
 C1812 C 0.28603 -0.11560 0.29275
 C1813 C 0.28223 -0.10104 0.28734
 C1814 C 0.26847 -0.09630 0.28904
 C1815 C 0.26455 -0.08262 0.28401
 C1816 C 0.27443 -0.07328 0.27738
 C1817 C 0.28821 -0.07802 0.27575
 C1818 C 0.29211 -0.09170 0.28073
 C1819 C 0.27090 -0.05862 0.27200
 C1820 C 0.25913 -0.05105 0.27642
 H1821 H 0.27961 -0.12055 0.30113
 H1822 H 0.26068 -0.10329 0.29410
 H1823 H 0.25375 -0.07958 0.28519
 H1824 H 0.29605 -0.07104 0.27076
 H1825 H 0.30292 -0.09477 0.27962
 H1826 H 0.27837 -0.05318 0.26493
 H1827 H 0.30272 -0.11906 0.27767
 H1828 H 0.25188 -0.05585 0.28411
 C1829 C 0.77743 0.84804 0.78619
 C1830 C 0.78010 0.85670 0.77404
 C1831 C 0.77248 0.87017 0.77078
 C1832 C 0.77397 0.87646 0.75702
 C1833 C 0.76808 0.88987 0.75389
 C1834 C 0.76071 0.89733 0.76457
 C1835 C 0.75880 0.89083 0.77817
 C1836 C 0.76472 0.87744 0.78132
 C1837 C 0.75511 0.91194 0.76204
 C1838 C 0.76087 0.92163 0.75196
 H1839 H 0.78850 0.85388 0.76678
 H1840 H 0.77987 0.87108 0.74870
 H1841 H 0.76936 0.89433 0.74312
 H1842 H 0.75312 0.89635 0.78655
 H1843 H 0.76358 0.87319 0.79217
 H1844 H 0.74687 0.91558 0.76913
 H1845 H 0.76829 0.84994 0.79276
 H1846 H 0.76962 0.91849 0.74532
 C1847 C 0.45136 0.87094 0.30133
 C1848 C 0.46033 0.86113 0.30793
 C1849 C 0.46442 0.84748 0.30095
 C1850 C 0.47730 0.84127 0.30435
 C1851 C 0.48157 0.82857 0.29766
 C1852 C 0.47289 0.82169 0.28758
 C1853 C 0.45992 0.82780 0.28438
 C1854 C 0.45567 0.84049 0.29103
 C1855 C 0.47700 0.80839 0.27995
 C1856 C 0.48767 0.79927 0.28448
 H1857 H 0.46502 0.86382 0.31815
 H1858 H 0.48420 0.84643 0.31199
 H1859 H 0.49178 0.82444 0.30025
 H1860 H 0.45298 0.82268 0.27674
 H1861 H 0.44546 0.84466 0.28849
 H1862 H 0.47098 0.80538 0.27058
 H1863 H 0.44753 0.86885 0.29060
 H1864 H 0.49335 0.80150 0.29426
 C1865 C -0.04596 0.87393 0.80178
 C1866 C -0.05011 0.86399 0.79140
 C1867 C -0.04151 0.85134 0.78736
 C1868 C -0.04384 0.84474 0.77404
 C1869 C -0.03595 0.83284 0.76982
 C1870 C -0.02549 0.82723 0.77886
 C1871 C -0.02344 0.83357 0.79235
 C1872 C -0.03132 0.84547 0.79658
 C1873 C -0.01721 0.81429 0.77500
 C1874 C -0.01585 0.80939 0.76090
 H1875 H -0.05973 0.86584 0.78563
 H1876 H -0.05179 0.84881 0.76685
 H1877 H -0.03837 0.82794 0.75961
 H1878 H -0.01572 0.82926 0.79969
 H1879 H -0.02954 0.84980 0.80718
 H1880 H -0.01252 0.80807 0.78364
 H1881 H -0.03598 0.87272 0.80701
 H1882 H -0.02020 0.81560 0.75208
 C1883 C -0.04182 -0.12268 -0.05000
 C1884 C -0.04519 -0.11437 -0.03806
 C1885 C -0.03724 -0.10119 -0.03399
 C1886 C -0.03815 -0.09631 -0.01976
 C1887 C -0.03130 -0.08359 -0.01565
 C1888 C -0.02357 -0.07531 -0.02579
 C1889 C -0.02243 -0.08035 -0.03994
 C1890 C -0.02925 -0.09309 -0.04405
 C1891 C -0.01695 -0.06125 -0.02216
 C1892 C -0.02174 -0.05263 -0.01096
 H1893 H -0.05379 -0.11782 -0.03117
 H1894 H -0.04418 -0.10237 -0.01178
 H1895 H -0.03211 -0.08036 -0.00452
 H1896 H -0.01657 -0.07419 -0.04797
 H1897 H -0.02855 -0.09625 -0.05521
 H1898 H -0.00907 -0.05685 -0.02946
 H1899 H -0.03261 -0.12006 -0.05634
 H1900 H -0.03030 -0.05640 -0.00421
 C1901 C -0.05262 0.37821 0.44870
 C1902 C -0.05699 0.38362 0.46198
 C1903 C -0.05132 0.39728 0.46794
 C1904 C -0.05175 0.39948 0.48289
 C1905 C -0.04598 0.41204 0.48885
 C1906 C -0.03974 0.42266 0.47987
 C1907 C -0.03968 0.42062 0.46492
 C1908 C -0.04550 0.40818 0.45899
 C1909 C -0.03265 0.43568 0.48549
 C1910 C -0.03520 0.44183 0.49893
 H1911 H -0.06431 0.37739 0.46855
 H1912 H -0.05628 0.39131 0.49002
 H1913 H -0.04607 0.41319 0.50043
 H1914 H -0.03508 0.42873 0.45775
 H1915 H -0.04546 0.40726 0.44738
 H1916 H -0.02550 0.44123 0.47815
 H1917 H -0.04458 0.38393 0.44262
 H1918 H -0.04308 0.43730 0.50611
 C1919 C 0.47738 -0.14370 0.46845
 C1920 C 0.47187 -0.13333 0.47763
 C1921 C 0.47954 -0.12008 0.48175
 C1922 C 0.47561 -0.11303 0.49440
 C1923 C 0.48194 -0.09997 0.49820
 C1924 C 0.49221 -0.09352 0.48921
 C1925 C 0.49631 -0.10075 0.47670
 C1926 C 0.49003 -0.11386 0.47295
 C1927 C 0.49856 -0.07917 0.49214
 C1928 C 0.49340 -0.06956 0.50233
 H1929 H 0.46157 -0.13499 0.48224
 H1930 H 0.46754 -0.11763 0.50136
 H1931 H 0.47863 -0.09506 0.50813
 H1932 H 0.50417 -0.09604 0.46957
 H1933 H 0.49310 -0.11879 0.46293
 H1934 H 0.50714 -0.07561 0.48527
 H1935 H 0.48815 -0.14278 0.46495
 H1936 H 0.48471 -0.07257 0.50923
 C1937 C 0.45699 0.37921 -0.05291
 C1938 C 0.45468 0.38472 -0.03911
 C1939 C 0.46073 0.39850 -0.03383
 C1940 C 0.45555 0.40419 -0.02092
 C1941 C 0.46128 0.41683 -0.01517
 C1942 C 0.47239 0.42405 -0.02225
 C1943 C 0.47757 0.41834 -0.03514
 C1944 C 0.47186 0.40572 -0.04088
 C1945 C 0.47908 0.43737 -0.01666
 C1946 C 0.47410 0.44553 -0.00515
 H1947 H 0.44801 0.37872 -0.03167
 H1948 H 0.44707 0.39878 -0.01518
 H1949 H 0.45706 0.42069 -0.00512
 H1950 H 0.48618 0.42363 -0.04080
 H1951 H 0.47645 0.40159 -0.05063
 H1952 H 0.48824 0.44132 -0.02243
 H1953 H 0.46292 0.38543 -0.06079
 H1954 H 0.46470 0.44236 0.00061
 C1955 C 0.79915 0.38157 0.44296
 C1956 C 0.79908 0.37719 0.45742
 C1957 C 0.79187 0.36399 0.46307
 C1958 C 0.79067 0.36205 0.47807
 C1959 C 0.78416 0.34971 0.48395
 C1960 C 0.77876 0.33897 0.47490
 C1961 C 0.77983 0.34094 0.45992
 C1962 C 0.78639 0.35323 0.45403
 C1963 C 0.77192 0.32564 0.48056
 C1964 C 0.77448 0.31973 0.49422
 H1965 H 0.80441 0.38390 0.46516
 H1966 H 0.79475 0.37017 0.48529
 H1967 H 0.78323 0.34876 0.49554
 H1968 H 0.77576 0.33280 0.45271
 H1969 H 0.78726 0.35402 0.44245
 H1970 H 0.76547 0.31957 0.47317
 H1971 H 0.79359 0.37542 0.43496
 H1972 H 0.78167 0.32500 0.50146
 C1973 C 0.78251 0.88910 -0.02790
 C1974 C 0.77291 0.87925 -0.03345
 C1975 C 0.76893 0.86568 -0.02578
 C1976 C 0.75610 0.85902 -0.02888
 C1977 C 0.75237 0.84580 -0.02239
 C1978 C 0.76157 0.83882 -0.01285
 C1979 C 0.77427 0.84565 -0.00953
 C1980 C 0.77797 0.85888 -0.01596
 C1981 C 0.75865 0.82426 -0.00661
 C1982 C 0.74937 0.81442 -0.01277
 H1983 H 0.76801 0.88158 -0.04369
 H1984 H 0.74895 0.86406 -0.03637
 H1985 H 0.74229 0.84116 -0.02494
 H1986 H 0.78156 0.84051 -0.00225
 H1987 H 0.78812 0.86346 -0.01357
 H1988 H 0.76514 0.82060 0.00221
 H1989 H 0.78653 0.88753 -0.01712
 H1990 H 0.74326 0.81755 -0.02203
 C1991 C 0.78776 0.30297 0.37614
 C1992 C 0.79169 0.29169 0.38530
 C1993 C 0.78614 0.28976 0.40009
 C1994 C 0.78640 0.27592 0.40640
 C1995 C 0.78128 0.27357 0.42035
 C1996 C 0.77601 0.28512 0.42837
 C1997 C 0.77571 0.29897 0.42205
 C1998 C 0.78080 0.30132 0.40807
 C1999 C 0.77060 0.28305 0.44320
 C2000 C 0.77488 0.27176 0.45218
 H2001 H 0.79853 0.28342 0.38123
 H2002 H 0.79041 0.26684 0.40045
 H2003 H 0.78129 0.26265 0.42466
 H2004 H 0.77170 0.30803 0.42804
 H2005 H 0.78076 0.31222 0.40372
 H2006 H 0.76353 0.29106 0.44741
 H2007 H 0.78019 0.31079 0.37964
 H2008 H 0.78277 0.26433 0.44855
 C2009 C 0.80803 0.78743 -0.12436
 C2010 C 0.79430 0.78585 -0.11937
 C2011 C 0.79015 0.78153 -0.10450
 C2012 C 0.77589 0.77931 -0.10156
 C2013 C 0.77128 0.77541 -0.08775
 C2014 C 0.78088 0.77371 -0.07649
 C2015 C 0.79516 0.77582 -0.07939
 C2016 C 0.79978 0.77977 -0.09323
 C2017 C 0.77647 0.76931 -0.06177
 C2018 C 0.76302 0.77133 -0.05629
 H2019 H 0.78589 0.78791 -0.12682
 H2020 H 0.76823 0.78054 -0.11004
 H2021 H 0.76024 0.77348 -0.08605
 H2022 H 0.80277 0.77451 -0.07089
 H2023 H 0.81084 0.78148 -0.09488
 H2024 H 0.78435 0.76478 -0.05475
 H2025 H 0.81678 0.78525 -0.11740
 H2026 H 0.75526 0.77691 -0.06263
 C2027 C 0.30839 0.45870 0.86285
 C2028 C 0.29633 0.45452 0.85564
 C2029 C 0.29198 0.46145 0.84196
 C2030 C 0.27775 0.46178 0.83855
 C2031 C 0.27327 0.46844 0.82581
 C2032 C 0.28301 0.47467 0.81611
 C2033 C 0.29725 0.47426 0.81950
 C2034 C 0.30172 0.46765 0.83225
 C2035 C 0.27881 0.48164 0.80240
 C2036 C 0.26627 0.47851 0.79546
 H2037 H 0.28934 0.44663 0.86063
 H2038 H 0.27006 0.45709 0.84587
 H2039 H 0.26218 0.46884 0.82378
 H2040 H 0.30497 0.47890 0.81216
 H2041 H 0.31281 0.46723 0.83431
 H2042 H 0.28640 0.48858 0.79695
 H2043 H 0.31481 0.46747 0.85859
 H2044 H 0.25895 0.47079 0.80013
 C2045 C 0.30052 -0.02835 0.38859
 C2046 C 0.28968 -0.03398 0.38031
 C2047 C 0.28479 -0.02685 0.36689
 C2048 C 0.27116 -0.02955 0.36210
 C2049 C 0.26629 -0.02311 0.34938
 C2050 C 0.27510 -0.01397 0.34106
 C2051 C 0.28874 -0.01132 0.34587
 C2052 C 0.29358 -0.01773 0.35857
 C2053 C 0.27070 -0.00710 0.32730
 C2054 C 0.25897 -0.01130 0.31945
 H2055 H 0.28426 -0.04369 0.38401
 H2056 H 0.26420 -0.03657 0.36830
 H2057 H 0.25563 -0.02527 0.34626
 H2058 H 0.29579 -0.00442 0.33964
 H2059 H 0.30430 -0.01573 0.36161
 H2060 H 0.27762 0.00107 0.32264
 H2061 H 0.30524 -0.01805 0.38565
 H2062 H 0.25210 -0.01980 0.32345
 C2063 C -0.05164 -0.03427 -0.13142
 C2064 C -0.04161 -0.03926 -0.12173
 C2065 C -0.03677 -0.03086 -0.10919
 C2066 C -0.02374 -0.03403 -0.10317
 C2067 C -0.01907 -0.02687 -0.09090
 C2068 C -0.02751 -0.01652 -0.08420
 C2069 C -0.04045 -0.01318 -0.09038
 C2070 C -0.04508 -0.02029 -0.10269
 C2071 C -0.02346 -0.00926 -0.07065
 C2072 C -0.01322 -0.01447 -0.06132
 H2073 H -0.03674 -0.04959 -0.12352
 H2074 H -0.01713 -0.04210 -0.10800
 H2075 H -0.00887 -0.02952 -0.08680
 H2076 H -0.04717 -0.00527 -0.08544
 H2077 H -0.05533 -0.01779 -0.10678
 H2078 H -0.02961 -0.00012 -0.06730
 H2079 H -0.05566 -0.02344 -0.13036
 H2080 H -0.00731 -0.02395 -0.06403
 C2081 C -0.05257 0.44007 0.38657
 C2082 C -0.05861 0.44894 0.39692
 C2083 C -0.05152 0.45298 0.41053
 C2084 C -0.05605 0.46526 0.41784
 C2085 C -0.04945 0.46975 0.43045
 C2086 C -0.03805 0.46204 0.43605
 C2087 C -0.03386 0.44942 0.42907
 C2088 C -0.04049 0.44491 0.41646
 C2089 C -0.03061 0.46659 0.44929
 C2090 C -0.03113 0.48066 0.45456
 H2091 H -0.06858 0.45385 0.39465
 H2092 H -0.06469 0.47151 0.41372
 H2093 H -0.05349 0.47914 0.43580
 H2094 H -0.02535 0.44306 0.43333
 H2095 H -0.03700 0.43504 0.41155
 H2096 H -0.02445 0.45864 0.45501
 H2097 H -0.04233 0.43566 0.38848
 H2098 H -0.03679 0.48888 0.44871
 C2099 C 0.44701 -0.04945 0.38697
 C2100 C 0.46009 -0.05229 0.39288
 C2101 C 0.46562 -0.04521 0.40599
 C2102 C 0.47998 -0.04600 0.40879
 C2103 C 0.48565 -0.03976 0.42112
 C2104 C 0.47703 -0.03269 0.43106
 C2105 C 0.46269 -0.03176 0.42821
 C2106 C 0.45700 -0.03803 0.41588
 C2107 C 0.48258 -0.02621 0.44444
 C2108 C 0.49480 -0.03090 0.45109
 H2109 H 0.46687 -0.05977 0.38740
 H2110 H 0.48687 -0.05142 0.40135
 H2111 H 0.49681 -0.04037 0.42269
 H2112 H 0.45582 -0.02639 0.43570
 H2113 H 0.44585 -0.03742 0.41438
 H2114 H 0.47626 -0.01824 0.44982
 H2115 H 0.44033 -0.04146 0.39173
 H2116 H 0.50065 -0.03968 0.44650
 C2117 C 0.43789 0.43597 -0.10133
 C2118 C 0.43671 0.44948 -0.09497
 C2119 C 0.44565 0.45401 -0.08279
 C2120 C 0.44835 0.46880 -0.08094
 C2121 C 0.45767 0.47349 -0.07040
 C2122 C 0.46451 0.46344 -0.06144
 C2123 C 0.46122 0.44871 -0.06277
 C2124 C 0.45189 0.44401 -0.07331
 C2125 C 0.47449 0.46797 -0.05015
 C2126 C 0.48088 0.48158 -0.04992
 H2127 H 0.43031 0.45758 -0.10015
 H2128 H 0.44346 0.47676 -0.08787
 H2129 H 0.45929 0.48500 -0.06929
 H2130 H 0.46599 0.44078 -0.05571
 H2131 H 0.44963 0.43256 -0.07393
 H2132 H 0.47632 0.46053 -0.04125
 H2133 H 0.44489 0.42805 -0.09680
 H2134 H 0.47931 0.48924 -0.05864
 C2135 C 0.47153 0.77779 0.39022
 C2136 C 0.46457 0.76988 0.37972
 C2137 C 0.47123 0.76587 0.36592
 C2138 C 0.46580 0.75418 0.35819
 C2139 C 0.47152 0.75048 0.34484
 C2140 C 0.48269 0.75860 0.33886
 C2141 C 0.48815 0.77023 0.34668
 C2142 C 0.48247 0.77389 0.36000
 C2143 C 0.48877 0.75574 0.32446
 C2144 C 0.48285 0.74651 0.31432
 H2145 H 0.45390 0.76638 0.38168
 H2146 H 0.45711 0.74787 0.36250
 H2147 H 0.46707 0.74130 0.33936
 H2148 H 0.49669 0.77674 0.34232
 H2149 H 0.48668 0.78327 0.36537
 H2150 H 0.49793 0.76203 0.32131
 H2151 H 0.48252 0.78033 0.38894
 H2152 H 0.47362 0.74017 0.31688
 C2153 C -0.05907 0.80103 0.86768
 C2154 C -0.04530 0.80053 0.86283
 C2155 C -0.04106 0.79258 0.84979
 C2156 C -0.02708 0.78848 0.84829
 C2157 C -0.02267 0.78087 0.83621
 C2158 C -0.03219 0.77732 0.82530
 C2159 C -0.04617 0.78138 0.82678
 C2160 C -0.05056 0.78906 0.83881
 C2161 C -0.02789 0.76954 0.81223
 C2162 C -0.01453 0.77091 0.80635
 H2163 H -0.03718 0.80549 0.86923
 H2164 H -0.01956 0.79104 0.85659
 H2165 H -0.01187 0.77762 0.83556
 H2166 H -0.05366 0.77886 0.81845
 H2167 H -0.06133 0.79239 0.83926
 H2168 H -0.03586 0.76381 0.80625
 H2169 H -0.06723 0.79539 0.86195
 H2170 H -0.00684 0.77779 0.81144
 C2171 C 0.37576 0.79943 0.28396
 C2172 C 0.38434 0.78917 0.29047
 C2173 C 0.39824 0.78508 0.28487
 C2174 C 0.40439 0.77248 0.29035
 C2175 C 0.41753 0.76819 0.28556
 C2176 C 0.42483 0.77645 0.27508
 C2177 C 0.41880 0.78920 0.26979
 C2178 C 0.40565 0.79351 0.27461
 C2179 C 0.43889 0.77249 0.26979
 C2180 C 0.44478 0.75888 0.27184
 H2181 H 0.38057 0.78351 0.30002
 H2182 H 0.39901 0.76591 0.29843
 H2183 H 0.42193 0.75857 0.29033
 H2184 H 0.42429 0.79590 0.26190
 H2185 H 0.40155 0.80353 0.27041
 H2186 H 0.44483 0.78069 0.26390
 H2187 H 0.37893 0.80486 0.27408
 H2188 H 0.43899 0.75027 0.27720
 C2189 C -0.11977 0.80976 0.78797
 C2190 C -0.10792 0.80562 0.79554
 C2191 C -0.09483 0.80156 0.78817
 C2192 C -0.08620 0.79136 0.79483
 C2193 C -0.07454 0.78609 0.78762
 C2194 C -0.07125 0.79098 0.77357
 C2195 C -0.07928 0.80194 0.76731
 C2196 C -0.09102 0.80716 0.77450
 C2197 C -0.05948 0.78483 0.76541
 C2198 C -0.05554 0.77049 0.76740
 H2199 H -0.10874 0.80360 0.80703
 H2200 H -0.08873 0.78711 0.80548
 H2201 H -0.06815 0.77815 0.79306
 H2202 H -0.07669 0.80615 0.75667
 H2203 H -0.09710 0.81549 0.76930
 H2204 H -0.05388 0.79167 0.75771
 H2205 H -0.11931 0.81108 0.77638
 H2206 H -0.06155 0.76352 0.77461
 C2207 C 0.87643 0.28800 0.44953
 C2208 C 0.87044 0.29194 0.46268
 C2209 C 0.85785 0.28493 0.46923
 C2210 C 0.85451 0.28791 0.48366
 C2211 C 0.84236 0.28221 0.49009
 C2212 C 0.83317 0.27346 0.48216
 C2213 C 0.83667 0.27021 0.46785
 C2214 C 0.84880 0.27592 0.46141
 C2215 C 0.81972 0.26786 0.48813
 C2216 C 0.81288 0.27364 0.50009
 H2217 H 0.87530 0.30058 0.46866
 H2218 H 0.86129 0.29477 0.48998
 H2219 H 0.84028 0.28474 0.50123
 H2220 H 0.82978 0.26352 0.46147
 H2221 H 0.85075 0.27351 0.45023
 H2222 H 0.81427 0.25974 0.48191
 H2223 H 0.87242 0.27880 0.44372
 H2224 H 0.81772 0.28221 0.50617
 C2225 C 0.86259 0.81274 -0.05278
 C2226 C 0.85748 0.81392 -0.03875
 C2227 C 0.84421 0.80677 -0.03414
 C2228 C 0.84219 0.80300 -0.01956
 C2229 C 0.83025 0.79522 -0.01513
 C2230 C 0.82013 0.79111 -0.02525
 C2231 C 0.82195 0.79525 -0.03972
 C2232 C 0.83372 0.80318 -0.04409
 C2233 C 0.80781 0.78216 -0.02130
 C2234 C 0.80117 0.78280 -0.00792
 H2235 H 0.86390 0.81910 -0.03071
 H2236 H 0.85005 0.80570 -0.01166
 H2237 H 0.82920 0.79205 -0.00391
 H2238 H 0.81419 0.79237 -0.04767
 H2239 H 0.83448 0.80643 -0.05530
 H2240 H 0.80303 0.77579 -0.02971
 H2241 H 0.85672 0.80664 -0.06060
 H2242 H 0.80491 0.79027 0.00011
 C2243 C -0.13419 -0.03927 -0.03359
 C2244 C -0.12442 -0.03010 -0.04024
 C2245 C -0.11096 -0.02615 -0.03356
 C2246 C -0.10446 -0.01309 -0.03767
 C2247 C -0.09154 -0.00916 -0.03194
 C2248 C -0.08468 -0.01842 -0.02218
 C2249 C -0.09129 -0.03140 -0.01792
 C2250 C -0.10427 -0.03529 -0.02358
 C2251 C -0.07069 -0.01494 -0.01637
 C2252 C -0.06141 -0.00541 -0.02332
 H2253 H -0.12695 -0.02507 -0.05048
 H2254 H -0.10944 -0.00584 -0.04527
 H2255 H -0.08710 0.00119 -0.03514
 H2256 H -0.08625 -0.03871 -0.01041
 H2257 H -0.10883 -0.04561 -0.02041
 H2258 H -0.06727 -0.02070 -0.00680
 H2259 H -0.13237 -0.04335 -0.02279
 H2260 H -0.06430 -0.00025 -0.03337
 C2261 C -0.13611 0.47735 0.45749
 C2262 C -0.12892 0.47261 0.46960
 C2263 C -0.11591 0.47967 0.47442
 C2264 C -0.11209 0.47849 0.48893
 C2265 C -0.09931 0.48408 0.49358
 C2266 C -0.08995 0.49065 0.48367
 C2267 C -0.09398 0.49222 0.46925
 C2268 C -0.10680 0.48673 0.46462
 C2269 C -0.07575 0.49537 0.48782
 C2270 C -0.06877 0.48930 0.49951
 H2271 H -0.13282 0.46333 0.47569
 H2272 H -0.11897 0.47313 0.49667
 H2273 H -0.09684 0.48312 0.50490
 H2274 H -0.08697 0.49724 0.46141
 H2275 H -0.10925 0.48751 0.45327
 H2276 H -0.07010 0.50267 0.48060
 H2277 H -0.13308 0.48740 0.45218
 H2278 H -0.07397 0.48138 0.50639
 C2279 C 0.38376 -0.03388 0.45995
 C2280 C 0.39263 -0.04041 0.46995
 C2281 C 0.40655 -0.03452 0.47387
 C2282 C 0.41281 -0.03956 0.48657
 C2283 C 0.42602 -0.03460 0.49062
 C2284 C 0.43335 -0.02440 0.48198
 C2285 C 0.42713 -0.01946 0.46919
 C2286 C 0.41391 -0.02445 0.46514
 C2287 C 0.44765 -0.01919 0.48547
 C2288 C 0.45443 -0.02210 0.49847
 H2289 H 0.38911 -0.05007 0.47564
 H2290 H 0.40746 -0.04746 0.49341
 H2291 H 0.43043 -0.03906 0.50036
 H2292 H 0.43260 -0.01179 0.46220
 H2293 H 0.40971 -0.02059 0.45503
 H2294 H 0.45327 -0.01313 0.47719
 H2295 H 0.38685 -0.02381 0.45474
 H2296 H 0.44912 -0.02786 0.50712
 C2297 C 0.38471 0.45809 -0.05912
 C2298 C 0.39342 0.45256 -0.04844
 C2299 C 0.40589 0.46066 -0.04353
 C2300 C 0.40995 0.45938 -0.02910
 C2301 C 0.42112 0.46759 -0.02389
 C2302 C 0.42850 0.47725 -0.03307
 C2303 C 0.42488 0.47797 -0.04769
 C2304 C 0.41367 0.46980 -0.05289
 C2305 C 0.44043 0.48606 -0.02791
 C2306 C 0.44234 0.48940 -0.01343
 H2307 H 0.39035 0.44283 -0.04256
 H2308 H 0.40431 0.45220 -0.02176
 H2309 H 0.42400 0.46615 -0.01272
 H2310 H 0.43066 0.48499 -0.05507
 H2311 H 0.41117 0.47060 -0.06423
 H2312 H 0.44831 0.48948 -0.03571
 H2313 H 0.38738 0.46838 -0.06416
 H2314 H 0.43449 0.48632 -0.00552
 C2315 C 0.36849 0.45380 0.80985
 C2316 C 0.36319 0.45127 0.79610
 C2317 C 0.35074 0.45860 0.79002
 C2318 C 0.34447 0.45280 0.77771
 C2319 C 0.33288 0.45939 0.77141
 C2320 C 0.32736 0.47214 0.77719
 C2321 C 0.33356 0.47789 0.78957
 C2322 C 0.34516 0.47129 0.79588
 C2323 C 0.31497 0.47943 0.77093
 C2324 C 0.31004 0.47689 0.75703
 H2325 H 0.36820 0.44324 0.78950
 H2326 H 0.34848 0.44302 0.77298
 H2327 H 0.32823 0.45424 0.76220
 H2328 H 0.32949 0.48764 0.79432
 H2329 H 0.34978 0.47635 0.80516
 H2330 H 0.30947 0.48706 0.77761
 H2331 H 0.36333 0.46122 0.81696
 H2332 H 0.31557 0.46967 0.74999
 C2333 C 0.37428 -0.05088 0.29959
 C2334 C 0.36380 -0.04317 0.30646
 C2335 C 0.35097 -0.03836 0.29907
 C2336 C 0.34375 -0.02652 0.30457
 C2337 C 0.33156 -0.02168 0.29797
 C2338 C 0.32623 -0.02872 0.28578
 C2339 C 0.33333 -0.04071 0.28040
 C2340 C 0.34557 -0.04551 0.28697
 C2341 C 0.31323 -0.02394 0.27871
 C2342 C 0.30619 -0.01184 0.28341
 H2343 H 0.36530 -0.03993 0.31752
 H2344 H 0.34761 -0.02092 0.31395
 H2345 H 0.32631 -0.01247 0.30250
 H2346 H 0.32935 -0.04643 0.27114
 H2347 H 0.35059 -0.05497 0.28269
 H2348 H 0.30901 -0.03013 0.26986
 H2349 H 0.37341 -0.05330 0.28825
 H2350 H 0.29873 -0.00962 0.27949
 C2351 C 0.13474 0.55788 0.70308
 C2352 C 0.14001 0.54390 0.70271
 C2353 C 0.15390 0.53975 0.70823
 C2354 C 0.15715 0.52500 0.70881
 C2355 C 0.17017 0.52045 0.71364
 C2356 C 0.18027 0.53061 0.71794
 C2357 C 0.17699 0.54534 0.71762
 C2358 C 0.16399 0.54992 0.71272
 C2359 C 0.19422 0.52620 0.72289
 C2360 C 0.20070 0.51375 0.71803
 H2361 H 0.13356 0.53539 0.69828
 H2362 H 0.14956 0.51694 0.70553
 H2363 H 0.17220 0.50897 0.71412
 H2364 H 0.18464 0.55335 0.72090
 H2365 H 0.16212 0.56140 0.71234
 H2366 H 0.19995 0.53352 0.72978
 H2367 H 0.14067 0.56662 0.70772
 H2368 H 0.19565 0.50703 0.71009
 C2369 C 0.13028 0.04433 0.19637
 C2370 C 0.13972 0.05129 0.20541
 C2371 C 0.15265 0.04463 0.21098
 C2372 C 0.15944 0.05128 0.22253
 C2373 C 0.17157 0.04541 0.22833
 C2374 C 0.17717 0.03265 0.22271
 C2375 C 0.17060 0.02620 0.21090
 C2376 C 0.15846 0.03209 0.20507
 C2377 C 0.19007 0.02610 0.22846
 C2378 C 0.19559 0.02937 0.24194
 H2379 H 0.13727 0.06201 0.20915
 H2380 H 0.15533 0.06108 0.22714
 H2381 H 0.17655 0.05111 0.23703
 H2382 H 0.17486 0.01653 0.20617
 H2383 H 0.15387 0.02685 0.19587
 H2384 H 0.19546 0.01840 0.22176
 H2385 H 0.13217 0.03347 0.19273
 H2386 H 0.19021 0.03660 0.24909
 C2387 C 0.62908 0.69819 0.22162
 C2388 C 0.61859 0.70655 0.21544
 C2389 C 0.60536 0.71030 0.22270
 C2390 C 0.59732 0.72133 0.21656
 C2391 C 0.58461 0.72517 0.22271
 C2392 C 0.57964 0.71808 0.23524
 C2393 C 0.58754 0.70686 0.24128
 C2394 C 0.60032 0.70301 0.23511
 C2395 C 0.56597 0.72162 0.24170
 C2396 C 0.55962 0.73497 0.23953
 H2397 H 0.62027 0.71103 0.20474
 H2398 H 0.60083 0.72696 0.20687
 H2399 H 0.57859 0.73345 0.21735
 H2400 H 0.58380 0.70105 0.25077
 H2401 H 0.60598 0.69417 0.23996
 H2402 H 0.56068 0.71339 0.24817
 H2403 H 0.62803 0.69401 0.23250
 H2404 H 0.56517 0.74360 0.23391
 C2405 C 0.12166 0.70828 0.69592
 C2406 C 0.11215 0.70229 0.70579
 C2407 C 0.09891 0.70954 0.70976
 C2408 C 0.09234 0.70579 0.72284
 C2409 C 0.07999 0.71254 0.72706
 C2410 C 0.07390 0.72326 0.71825
 C2411 C 0.08027 0.72668 0.70497
 C2412 C 0.09259 0.71991 0.70073
 C2413 C 0.06072 0.73068 0.72217
 C2414 C 0.05470 0.73000 0.73590
 H2415 H 0.11475 0.69228 0.71128
 H2416 H 0.09682 0.69766 0.72987
 H2417 H 0.07526 0.70907 0.73713
 H2418 H 0.07568 0.73463 0.69780
 H2419 H 0.09694 0.72271 0.69028
 H2420 H 0.05538 0.73669 0.71379
 H2421 H 0.11959 0.71870 0.69102
 H2422 H 0.05982 0.72425 0.74455
 C2423 C 0.62680 0.20537 0.52992
 C2424 C 0.63314 0.21858 0.53323
 C2425 C 0.64687 0.22357 0.52755
 C2426 C 0.65055 0.23822 0.52897
 C2427 C 0.66368 0.24333 0.52457
 C2428 C 0.67353 0.23381 0.51879
 C2429 C 0.66976 0.21922 0.51709
 C2430 C 0.65661 0.21410 0.52149
 C2431 C 0.68779 0.23860 0.51456
 C2432 C 0.69439 0.25090 0.52003
 H2433 H 0.62769 0.22587 0.54029
 H2434 H 0.64323 0.24575 0.53357
 H2435 H 0.66600 0.25473 0.52568
 H2436 H 0.67716 0.21166 0.51266
 H2437 H 0.65433 0.20269 0.52048
 H2438 H 0.69374 0.23148 0.50773
 H2439 H 0.63138 0.19833 0.52202
 H2440 H 0.68901 0.25774 0.52757
 C2441 C 0.62500 0.70890 0.05218
 C2442 C 0.63347 0.70214 0.04205
 C2443 C 0.64756 0.70773 0.03812
 C2444 C 0.65304 0.70497 0.02438
 C2445 C 0.66608 0.71064 0.02017
 C2446 C 0.67397 0.71905 0.02977
 C2447 C 0.66864 0.72142 0.04365
 C2448 C 0.65564 0.71579 0.04782
 C2449 C 0.68743 0.72608 0.02571
 C2450 C 0.69546 0.72268 0.01360
 H2451 H 0.62934 0.69303 0.03616
 H2452 H 0.64706 0.69872 0.01674
 H2453 H 0.66970 0.70869 0.00932
 H2454 H 0.67455 0.72774 0.05131
 H2455 H 0.65202 0.71772 0.05869
 H2456 H 0.69137 0.73430 0.03290
 H2457 H 0.62858 0.71872 0.05724
 H2458 H 0.69242 0.71390 0.00666
 C2459 C 0.11360 0.04637 0.06207
 C2460 C 0.10465 0.05203 0.05165
 C2461 C 0.09159 0.04478 0.04681
 C2462 C 0.08539 0.04972 0.03404
 C2463 C 0.07325 0.04317 0.02882
 C2464 C 0.06700 0.03140 0.03626
 C2465 C 0.07292 0.02674 0.04929
 C2466 C 0.08510 0.03330 0.05453
 C2467 C 0.05409 0.02420 0.03099
 C2468 C 0.04991 0.02494 0.01660
 H2469 H 0.10767 0.06201 0.04620
 H2470 H 0.08998 0.05870 0.02800
 H2471 H 0.06873 0.04759 0.01909
 H2472 H 0.06815 0.01792 0.05541
 H2473 H 0.08922 0.02941 0.06466
 H2474 H 0.04765 0.01822 0.03869
 H2475 H 0.11114 0.03619 0.06739
 H2476 H 0.05650 0.03036 0.00868
 C2477 C 0.12082 0.54238 0.53081
 C2478 C 0.11326 0.53026 0.53555
 C2479 C 0.09935 0.52635 0.52973
 C2480 C 0.09426 0.51218 0.53171
 C2481 C 0.08100 0.50824 0.52677
 C2482 C 0.07249 0.51850 0.51988
 C2483 C 0.07765 0.53261 0.51774
 C2484 C 0.09085 0.53656 0.52271
 C2485 C 0.05815 0.51505 0.51507
 C2486 C 0.04987 0.50433 0.52162
 H2487 H 0.11769 0.52329 0.54375
 H2488 H 0.10058 0.50412 0.53707
 H2489 H 0.07752 0.49716 0.52830
 H2490 H 0.07127 0.54072 0.51252
 H2491 H 0.09411 0.54771 0.52135
 H2492 H 0.05347 0.52218 0.50714
 H2493 H 0.11697 0.54895 0.52201
 H2494 H 0.05405 0.49775 0.53026
 C2495 C 0.63520 0.05141 0.53469
 C2496 C 0.62959 0.03753 0.53661
 C2497 C 0.61706 0.03207 0.52905
 C2498 C 0.61435 0.01712 0.52925
 C2499 C 0.60218 0.01151 0.52317
 C2500 C 0.59234 0.02080 0.51689
 C2501 C 0.59523 0.03569 0.51625
 C2502 C 0.60741 0.04132 0.52235
 C2503 C 0.57880 0.01539 0.51143
 C2504 C 0.57217 0.00310 0.51721
 H2505 H 0.63470 0.03014 0.54397
 H2506 H 0.62164 0.00975 0.53426
 H2507 H 0.60052 -0.00007 0.52346
 H2508 H 0.58780 0.04306 0.51146
 H2509 H 0.60892 0.05292 0.52219
 H2510 H 0.57315 0.02219 0.50391
 H2511 H 0.63102 0.05867 0.52662
 H2512 H 0.57720 -0.00313 0.52561
 C2513 C 0.63160 0.53935 0.02902
 C2514 C 0.62222 0.53041 0.03658
 C2515 C 0.60784 0.52747 0.03140
 C2516 C 0.60094 0.51470 0.03582
 C2517 C 0.58741 0.51159 0.03106
 C2518 C 0.58039 0.52135 0.02192
 C2519 C 0.58729 0.53414 0.01757
 C2520 C 0.60080 0.53724 0.02231
 C2521 C 0.56601 0.51863 0.01663
 C2522 C 0.55659 0.50904 0.02333
 H2523 H 0.62567 0.52492 0.04627
 H2524 H 0.60612 0.50701 0.04282
 H2525 H 0.58264 0.50144 0.03441
 H2526 H 0.58213 0.54189 0.01061
 H2527 H 0.60555 0.54743 0.01903
 H2528 H 0.56242 0.52511 0.00760
 H2529 H 0.62860 0.54399 0.01875
 H2530 H 0.55963 0.50308 0.03288
 C2531 C 0.04738 0.04399 0.12294
 C2532 C 0.03660 0.05012 0.11496
 C2533 C 0.03162 0.04392 0.10126
 C2534 C 0.01796 0.04673 0.09670
 C2535 C 0.01292 0.04092 0.08386
 C2536 C 0.02157 0.03233 0.07525
 C2537 C 0.03528 0.02971 0.07973
 C2538 C 0.04030 0.03550 0.09253
 C2539 C 0.01677 0.02571 0.06170
 C2540 C 0.00533 0.03045 0.05373
 H2541 H 0.03126 0.05945 0.11912
 H2542 H 0.01110 0.05325 0.10321
 H2543 H 0.00222 0.04299 0.08092
 H2544 H 0.04220 0.02324 0.07322
 H2545 H 0.05105 0.03351 0.09538
 H2546 H 0.02316 0.01719 0.05732
 H2547 H 0.05206 0.03401 0.11949
 H2548 H -0.00076 0.03953 0.05727
 C2549 C 0.04941 0.53563 0.63445
 C2550 C 0.03694 0.53833 0.62730
 C2551 C 0.03237 0.53010 0.61450
 C2552 C 0.01819 0.53001 0.61089
 C2553 C 0.01353 0.52292 0.59858
 C2554 C 0.02304 0.51594 0.58945
 C2555 C 0.03718 0.51571 0.59323
 C2556 C 0.04185 0.52280 0.60556
 C2557 C 0.01859 0.50937 0.57570
 C2558 C 0.00743 0.51491 0.56788
 H2559 H 0.03005 0.54653 0.63144
 H2560 H 0.01067 0.53547 0.61761
 H2561 H 0.00248 0.52297 0.59626
 H2562 H 0.04471 0.51046 0.58635
 H2563 H 0.05292 0.52287 0.60774
 H2564 H 0.02504 0.50114 0.57092
 H2565 H 0.05592 0.52679 0.63110
 H2566 H 0.00178 0.52403 0.57207
 C2567 C 0.54732 0.05240 0.63166
 C2568 C 0.55272 0.04137 0.62319
 C2569 C 0.54691 0.03721 0.60902
 C2570 C 0.55514 0.02892 0.59978
 C2571 C 0.54996 0.02430 0.58654
 C2572 C 0.53630 0.02774 0.58232
 C2573 C 0.52813 0.03624 0.59142
 C2574 C 0.53330 0.04084 0.60469
 C2575 C 0.53035 0.02273 0.56851
 C2576 C 0.53490 0.01026 0.56169
 H2577 H 0.56184 0.03562 0.62690
 H2578 H 0.56567 0.02602 0.60281
 H2579 H 0.55676 0.01819 0.57961
 H2580 H 0.51759 0.03906 0.58837
 H2581 H 0.52645 0.04691 0.61160
 H2582 H 0.52170 0.02866 0.56394
 H2583 H 0.53877 0.05882 0.62767
 H2584 H 0.54289 0.00371 0.56665
 C2585 C 0.53959 0.52911 0.14026
 C2586 C 0.53099 0.53592 0.13027
 C2587 C 0.52725 0.52945 0.11629
 C2588 C 0.51531 0.53435 0.10915
 C2589 C 0.51181 0.52905 0.09560
 C2590 C 0.52038 0.51890 0.08877
 C2591 C 0.53218 0.51380 0.09603
 C2592 C 0.53565 0.51907 0.10961
 C2593 C 0.51744 0.51354 0.07412
 C2594 C 0.50955 0.52128 0.06414
 H2595 H 0.52673 0.54639 0.13277
 H2596 H 0.50865 0.54232 0.11409
 H2597 H 0.50236 0.53291 0.09061
 H2598 H 0.53894 0.50598 0.09102
 H2599 H 0.54515 0.51529 0.11458
 H2600 H 0.52237 0.50362 0.07079
 H2601 H 0.54301 0.51816 0.13847
 H2602 H 0.50521 0.53161 0.06699
 C2603 C 0.20245 0.53171 0.60929
 C2604 C 0.21442 0.53618 0.61661
 C2605 C 0.21985 0.52869 0.62963
 C2606 C 0.23370 0.53129 0.63382
 C2607 C 0.23905 0.52489 0.64635
 C2608 C 0.23055 0.51584 0.65508
 C2609 C 0.21675 0.51312 0.65079
 C2610 C 0.21142 0.51951 0.63829
 C2611 C 0.23538 0.50931 0.66885
 C2612 C 0.24709 0.51408 0.67647
 H2613 H 0.22023 0.54547 0.61251
 H2614 H 0.24043 0.53832 0.62736
 H2615 H 0.24982 0.52707 0.64904
 H2616 H 0.20994 0.50626 0.65733
 H2617 H 0.20058 0.51750 0.63574
 H2618 H 0.22867 0.50117 0.67387
 H2619 H 0.19704 0.52187 0.61254
 H2620 H 0.25376 0.52255 0.67207
 C2621 C 0.19787 0.04663 0.13357
 C2622 C 0.20911 0.05219 0.14133
 C2623 C 0.21425 0.04517 0.15476
 C2624 C 0.22817 0.04730 0.15895
 C2625 C 0.23328 0.04078 0.17156
 C2626 C 0.22445 0.03212 0.18036
 C2627 C 0.21050 0.03012 0.17619
 C2628 C 0.20543 0.03661 0.16363
 C2629 C 0.22911 0.02508 0.19397
 C2630 C 0.24141 0.02855 0.20130
 H2631 H 0.21468 0.06161 0.13716
 H2632 H 0.23517 0.05390 0.15236
 H2633 H 0.24413 0.04248 0.17422
 H2634 H 0.20341 0.02365 0.18281
 H2635 H 0.19451 0.03509 0.16108
 H2636 H 0.22190 0.01746 0.19907
 H2637 H 0.19301 0.03654 0.13700
 H2638 H 0.24860 0.03656 0.19692
 C2639 C 0.70578 0.20053 0.63088
 C2640 C 0.70141 0.21295 0.62356
 C2641 C 0.70871 0.21867 0.61050
 C2642 C 0.70800 0.23348 0.60709
 C2643 C 0.71504 0.23922 0.59500
 C2644 C 0.72281 0.23018 0.58595
 C2645 C 0.72332 0.21534 0.58927
 C2646 C 0.71631 0.20962 0.60132
 C2647 C 0.73063 0.23562 0.57309
 C2648 C 0.72844 0.24899 0.56632
 H2649 H 0.69288 0.21912 0.62797
 H2650 H 0.70217 0.24067 0.61395
 H2651 H 0.71452 0.25074 0.59299
 H2652 H 0.72911 0.20809 0.58243
 H2653 H 0.71674 0.19808 0.60327
 H2654 H 0.73794 0.22826 0.56817
 H2655 H 0.71501 0.19498 0.62725
 H2656 H 0.72064 0.25627 0.57038
 C2657 C 0.69168 0.70678 0.12601
 C2658 C 0.70095 0.70104 0.11602
 C2659 C 0.70495 0.70852 0.10239
 C2660 C 0.71743 0.70460 0.09560
 C2661 C 0.72190 0.71166 0.08299
 C2662 C 0.71395 0.72288 0.07690
 C2663 C 0.70119 0.72641 0.08336
 C2664 C 0.69671 0.71933 0.09599
 C2665 C 0.71842 0.73072 0.06362
 C2666 C 0.73225 0.73118 0.05883
 H2667 H 0.70623 0.69108 0.11868
 H2668 H 0.72383 0.69612 0.10014
 H2669 H 0.73147 0.70811 0.07802
 H2670 H 0.69471 0.73475 0.07867
 H2671 H 0.68675 0.72230 0.10055
 H2672 H 0.71055 0.73633 0.05742
 H2673 H 0.68673 0.71703 0.12390
 H2674 H 0.74037 0.72613 0.06512
 C2675 C 0.53280 0.71684 0.11850
 C2676 C 0.53903 0.72558 0.12885
 C2677 C 0.53217 0.72909 0.14271
 C2678 C 0.53674 0.74125 0.15032
 C2679 C 0.53091 0.74454 0.16373
 C2680 C 0.52047 0.73556 0.16991
 C2681 C 0.51582 0.72348 0.16220
 C2682 C 0.52162 0.72022 0.14881
 C2683 C 0.51439 0.73798 0.18442
 C2684 C 0.51990 0.74751 0.19454
 H2685 H 0.54927 0.73020 0.12669
 H2686 H 0.54487 0.74824 0.14587
 H2687 H 0.53468 0.75409 0.16911
 H2688 H 0.50786 0.71632 0.16671
 H2689 H 0.51807 0.71050 0.14354
 H2690 H 0.50570 0.73107 0.18769
 H2691 H 0.52216 0.71306 0.11996
 H2692 H 0.52873 0.75441 0.19186
 C2693 C 0.05625 0.71177 0.62483
 C2694 C 0.04304 0.70971 0.63098
 C2695 C 0.03831 0.71676 0.64437
 C2696 C 0.02399 0.71659 0.64766
 C2697 C 0.01905 0.72270 0.66037
 C2698 C 0.02840 0.72900 0.67015
 C2699 C 0.04269 0.72934 0.66680
 C2700 C 0.04764 0.72319 0.65411
 C2701 C 0.02370 0.73523 0.68392
 C2702 C 0.01146 0.73088 0.69105
 H2703 H 0.03561 0.70275 0.62560
 H2704 H 0.01658 0.71174 0.64033
 H2705 H 0.00792 0.72257 0.66239
 H2706 H 0.05010 0.73411 0.67418
 H2707 H 0.05878 0.72328 0.65222
 H2708 H 0.03078 0.74263 0.68925
 H2709 H 0.06365 0.71925 0.62948
 H2710 H 0.00470 0.72273 0.68644
 C2711 C 0.55473 0.62225 0.20910
 C2712 C 0.54250 0.62951 0.20555
 C2713 C 0.53869 0.64371 0.21161
 C2714 C 0.52477 0.64825 0.21067
 C2715 C 0.52067 0.66141 0.21654
 C2716 C 0.53048 0.67036 0.22341
 C2717 C 0.54440 0.66593 0.22419
 C2718 C 0.54852 0.65284 0.21825
 C2719 C 0.52656 0.68406 0.23033
 C2720 C 0.51494 0.69218 0.22642
 H2721 H 0.53511 0.62435 0.19843
 H2722 H 0.51699 0.64147 0.20558
 H2723 H 0.50978 0.66433 0.21598
 H2724 H 0.55217 0.67268 0.22936
 H2725 H 0.55943 0.65010 0.21883
 H2726 H 0.53357 0.68829 0.23843
 H2727 H 0.56202 0.62685 0.21665
 H2728 H 0.50842 0.68884 0.21756
 C2729 C 0.05365 0.63093 0.70296
 C2730 C 0.03969 0.63409 0.70570
 C2731 C 0.03531 0.64673 0.71433
 C2732 C 0.02151 0.64729 0.71951
 C2733 C 0.01702 0.65902 0.72767
 C2734 C 0.02627 0.67044 0.73080
 C2735 C 0.04005 0.66985 0.72576
 C2736 C 0.04449 0.65827 0.71747
 C2737 C 0.02187 0.68339 0.73876
 C2738 C 0.00853 0.68911 0.73748
 H2739 H 0.03170 0.62669 0.70196
 H2740 H 0.01420 0.63860 0.71727
 H2741 H 0.00636 0.65906 0.73159
 H2742 H 0.04733 0.67860 0.72790
 H2743 H 0.05505 0.65871 0.71338
 H2744 H 0.02993 0.68986 0.74381
 H2745 H 0.06185 0.63769 0.70725
 H2746 H 0.00071 0.68343 0.73129
 C2747 C 0.05050 0.13631 0.02682
 C2748 C 0.04215 0.12572 0.03346
 C2749 C 0.03783 0.11213 0.02638
 C2750 C 0.02637 0.10440 0.03208
 C2751 C 0.02189 0.09154 0.02582
 C2752 C 0.02879 0.08609 0.01364
 C2753 C 0.04051 0.09357 0.00817
 C2754 C 0.04500 0.10649 0.01443
 C2755 C 0.02435 0.07234 0.00694
 C2756 C 0.01071 0.06708 0.00813
 H2757 H 0.03816 0.12765 0.04420
 H2758 H 0.02084 0.10834 0.04144
 H2759 H 0.01321 0.08577 0.03079
 H2760 H 0.04620 0.08942 -0.00099
 H2761 H 0.05420 0.11180 0.01002
 H2762 H 0.03207 0.06611 0.00121
 H2763 H 0.05409 0.13497 0.01586
 H2764 H 0.00280 0.07360 0.01318
 C2765 C 0.04048 0.62494 0.55420
 C2766 C 0.04354 0.61564 0.54294
 C2767 C 0.03487 0.60277 0.53964
 C2768 C 0.03498 0.59744 0.52556
 C2769 C 0.02717 0.58515 0.52208
 C2770 C 0.01927 0.57772 0.53272
 C2771 C 0.01904 0.58316 0.54677
 C2772 C 0.02681 0.59551 0.55024
 C2773 C 0.01137 0.56423 0.52967
 C2774 C 0.01459 0.55527 0.51816
 H2775 H 0.05221 0.61826 0.53580
 H2776 H 0.04106 0.60288 0.51720
 H2777 H 0.02730 0.58164 0.51101
 H2778 H 0.01306 0.57766 0.55517
 H2779 H 0.02673 0.59908 0.56129
 H2780 H 0.00356 0.56062 0.53744
 H2781 H 0.03116 0.62319 0.56064
 H2782 H 0.02299 0.55819 0.51082
 C2783 C 0.54895 0.12298 0.54767
 C2784 C 0.55387 0.11415 0.53670
 C2785 C 0.54810 0.09952 0.53390
 C2786 C 0.54982 0.09360 0.52016
 C2787 C 0.54441 0.07989 0.51704
 C2788 C 0.53731 0.07169 0.52772
 C2789 C 0.53570 0.07758 0.54149
 C2790 C 0.54109 0.09128 0.54460
 C2791 C 0.53126 0.05717 0.52497
 C2792 C 0.53512 0.04849 0.51342
 H2793 H 0.56177 0.11840 0.52936
 H2794 H 0.55519 0.09971 0.51173
 H2795 H 0.54564 0.07594 0.50620
 H2796 H 0.53034 0.07149 0.54994
 H2797 H 0.53990 0.09523 0.55545
 H2798 H 0.52387 0.05282 0.53283
 H2799 H 0.54038 0.11934 0.55448
 H2800 H 0.54309 0.05212 0.50587
 C2801 C 0.53546 0.63736 0.04061
 C2802 C 0.54256 0.62514 0.03603
 C2803 C 0.53553 0.61129 0.03241
 C2804 C 0.54306 0.60094 0.02475
 C2805 C 0.53705 0.58752 0.02155
 C2806 C 0.52330 0.58415 0.02596
 C2807 C 0.51583 0.59443 0.03377
 C2808 C 0.52184 0.60784 0.03698
 C2809 C 0.51664 0.56989 0.02325
 C2810 C 0.52154 0.56016 0.01307
 H2811 H 0.55382 0.62568 0.03503
 H2812 H 0.55369 0.60320 0.02131
 H2813 H 0.54340 0.57979 0.01596
 H2814 H 0.50531 0.59204 0.03751
 H2815 H 0.51580 0.61525 0.04335
 H2816 H 0.50745 0.56696 0.02954
 H2817 H 0.52419 0.63737 0.04098
 H2818 H 0.53027 0.56307 0.00616
 C2819 C 0.71372 0.13263 0.55746
 C2820 C 0.70613 0.14470 0.55324
 C2821 C 0.71261 0.15911 0.55086
 C2822 C 0.70603 0.16887 0.54152
 C2823 C 0.71226 0.18219 0.53815
 C2824 C 0.72526 0.18599 0.54408
 C2825 C 0.73143 0.17663 0.55412
 C2826 C 0.72520 0.16327 0.55748
 C2827 C 0.73253 0.19959 0.53995
 C2828 C 0.73078 0.20599 0.52643
 H2829 H 0.69521 0.14338 0.55056
 H2830 H 0.69617 0.16606 0.53656
 H2831 H 0.70686 0.18945 0.53091
 H2832 H 0.74125 0.17951 0.55911
 H2833 H 0.73028 0.15630 0.56523
 H2834 H 0.73981 0.20434 0.54749
 H2835 H 0.72476 0.13359 0.55967
 H2836 H 0.72409 0.20089 0.51857
 C2837 C 0.71216 0.61508 0.02127
 C2838 C 0.72273 0.62353 0.02730
 C2839 C 0.72600 0.63858 0.02262
 C2840 C 0.73867 0.64493 0.02689
 C2841 C 0.74201 0.65923 0.02299
 C2842 C 0.73262 0.66748 0.01480
 C2843 C 0.71999 0.66112 0.01050
 C2844 C 0.71663 0.64690 0.01445
 C2845 C 0.73552 0.68264 0.01038
 C2846 C 0.74504 0.69179 0.01721
 H2847 H 0.72900 0.61893 0.03584
 H2848 H 0.74606 0.63879 0.03323
 H2849 H 0.75198 0.66364 0.02627
 H2850 H 0.71255 0.66728 0.00424
 H2851 H 0.70657 0.64268 0.01127
 H2852 H 0.72909 0.68709 0.00187
 H2853 H 0.70619 0.61910 0.01225
 H2854 H 0.75112 0.68794 0.02624
 C2855 C 0.19899 0.62372 0.70236
 C2856 C 0.21177 0.61745 0.69880
 C2857 C 0.21700 0.60377 0.70531
 C2858 C 0.23121 0.60043 0.70377
 C2859 C 0.23657 0.58755 0.70948
 C2860 C 0.22776 0.57760 0.71678
 C2861 C 0.21356 0.58096 0.71834
 C2862 C 0.20821 0.59382 0.71264
 C2863 C 0.23276 0.56366 0.72290
 C2864 C 0.24544 0.55713 0.71933
 H2865 H 0.21852 0.62303 0.69112
 H2866 H 0.23824 0.60787 0.69817
 H2867 H 0.24760 0.58556 0.70823
 H2868 H 0.20650 0.57348 0.72386
 H2869 H 0.19715 0.59570 0.71379
 H2870 H 0.22558 0.55773 0.72991
 H2871 H 0.19239 0.61885 0.71061
 H2872 H 0.25260 0.56234 0.71181
 C2873 C 0.19998 0.13794 0.22815
 C2874 C 0.21248 0.13103 0.22501
 C2875 C 0.21719 0.11788 0.23273
 C2876 C 0.23131 0.11406 0.23186
 C2877 C 0.23600 0.10127 0.23829
 C2878 C 0.22658 0.09194 0.24557
 C2879 C 0.21254 0.09592 0.24673
 C2880 C 0.20785 0.10869 0.24030
 C2881 C 0.23075 0.07777 0.25162
 C2882 C 0.24225 0.07010 0.24665
 H2883 H 0.21915 0.13542 0.21654
 H2884 H 0.23872 0.12097 0.22612
 H2885 H 0.24698 0.09878 0.23748
 H2886 H 0.20506 0.08890 0.25223
 H2887 H 0.19682 0.11098 0.24093
 H2888 H 0.22363 0.07250 0.25919
 H2889 H 0.19369 0.13445 0.23728
 H2890 H 0.24919 0.07482 0.23861
 C2891 C 0.70267 1.11273 0.70227
 C2892 C 0.69770 1.10324 0.71298
 C2893 C 0.70449 1.08921 0.71632
 C2894 C 0.70292 1.08305 0.73014
 C2895 C 0.70926 1.06990 0.73368
 C2896 C 0.71716 1.06246 0.72334
 C2897 C 0.71865 1.06861 0.70949
 C2898 C 0.71236 1.08177 0.70598
 C2899 C 0.72393 1.04834 0.72640
 C2900 C 0.72060 1.03942 0.73823
 H2901 H 0.68906 1.10653 0.71970
 H2902 H 0.69692 1.08854 0.73831
 H2903 H 0.70802 1.06579 0.74457
 H2904 H 0.72459 1.06313 0.70128
 H2905 H 0.71349 1.08590 0.69508
 H2906 H 0.73125 1.04438 0.71847
 H2907 H 0.71201 1.11007 0.69630
 H2908 H 0.71280 1.04270 0.74594
 C2909 C 0.71687 0.63171 0.21168
 C2910 C 0.72351 0.62142 0.20326
 C2911 C 0.72905 0.60774 0.20930
 C2912 C 0.73875 0.59989 0.20124
 C2913 C 0.74358 0.58652 0.20627
 C2914 C 0.73865 0.58068 0.21945
 C2915 C 0.72908 0.58863 0.22755
 C2916 C 0.72426 0.60193 0.22254
 C2917 C 0.74265 0.56623 0.22505
 C2918 C 0.75008 0.55595 0.21730
 H2919 H 0.72452 0.62330 0.19176
 H2920 H 0.74255 0.60408 0.19098
 H2921 H 0.75106 0.58088 0.19971
 H2922 H 0.72502 0.58437 0.23768
 H2923 H 0.71644 0.60733 0.22889
 H2924 H 0.73869 0.56317 0.23563
 H2925 H 0.71665 0.63054 0.22329
 H2926 H 0.75432 0.55846 0.20675
 C2927 C 0.55039 0.12579 0.71724
 C2928 C 0.54169 0.13556 0.71016
 C2929 C 0.53752 0.14962 0.71620
 C2930 C 0.52589 0.15654 0.71029
 C2931 C 0.52151 0.16984 0.71551
 C2932 C 0.52869 0.17654 0.72686
 C2933 C 0.54052 0.16979 0.73257
 C2934 C 0.54491 0.15646 0.72733
 C2935 C 0.52462 0.19086 0.73237
 C2936 C 0.51150 0.19682 0.73005
 H2937 H 0.53715 0.13258 0.69995
 H2938 H 0.52014 0.15164 0.70155
 H2939 H 0.51272 0.17489 0.71033
 H2940 H 0.54642 0.17487 0.74109
 H2941 H 0.55422 0.15178 0.73187
 H2942 H 0.53239 0.19710 0.73813
 H2943 H 0.55454 0.12835 0.72773
 H2944 H 0.50339 0.19061 0.72485
 C2945 C 1.05350 0.12872 0.20277
 C2946 C 1.04026 0.13418 0.20002
 C2947 C 1.03479 0.14746 0.20663
 C2948 C 1.02030 0.14942 0.20710
 C2949 C 1.01467 0.16201 0.21276
 C2950 C 1.02346 0.17306 0.21787
 C2951 C 1.03795 0.17101 0.21765
 C2952 C 1.04360 0.15839 0.21201
 C2953 C 1.01791 0.18686 0.22329
 C2954 C 1.00511 0.19240 0.21888
 H2955 H 1.03329 0.12815 0.19312
 H2956 H 1.01329 0.14114 0.20309
 H2957 H 1.00343 0.16295 0.21317
 H2958 H 1.04495 0.17937 0.22152
 H2959 H 1.05483 0.15745 0.21154
 H2960 H 1.02464 0.19344 0.22996
 H2961 H 1.06024 0.13390 0.21051
 H2962 H 0.99874 0.18650 0.21131
 C2963 C 0.19791 0.62543 0.53728
 C2964 C 0.21064 0.63174 0.54098
 C2965 C 0.21528 0.64579 0.53471
 C2966 C 0.22958 0.64855 0.53271
 C2967 C 0.23421 0.66149 0.52623
 C2968 C 0.22456 0.67203 0.52184
 C2969 C 0.21028 0.66934 0.52408
 C2970 C 0.20567 0.65642 0.53052
 C2971 C 0.22886 0.68585 0.51480
 C2972 C 0.24223 0.69185 0.51585
 H2973 H 0.21781 0.62578 0.54772
 H2974 H 0.23717 0.64053 0.53586
 H2975 H 0.24529 0.66299 0.52444
 H2976 H 0.20264 0.67732 0.52092
 H2977 H 0.19458 0.65488 0.53232
 H2978 H 0.22085 0.69205 0.50940
 H2979 H 0.19129 0.63078 0.52950
 H2980 H 0.25018 0.68642 0.52205
 C2981 C 0.19019 0.13256 1.05179
 C2982 C 0.20134 0.14093 1.05682
 C2983 C 0.20664 0.15437 1.04959
 C2984 C 0.21540 0.16365 1.05737
 C2985 C 0.22104 0.17620 1.05096
 C2986 C 0.21819 0.17969 1.03646
 C2987 C 0.20923 0.17057 1.02873
 C2988 C 0.20358 0.15799 1.03515
 C2989 C 0.22426 0.19280 1.02927
 C2990 C 0.23679 0.19914 1.03371
 H2991 H 0.20629 0.13768 1.06679
 H2992 H 0.21787 0.16122 1.06851
 H2993 H 0.22746 0.18318 1.05749
 H2994 H 0.20680 0.17304 1.01758
 H2995 H 0.19710 0.15106 1.02863
 H2996 H 0.21897 0.19727 1.01996
 H2997 H 0.18454 0.13596 1.04231
 H2998 H 0.24258 0.19416 1.04240
 C2999 C 0.20920 0.71357 0.62572
 C3000 C 0.22010 0.70814 0.61744
 C3001 C 0.22506 0.71558 0.60408
 C3002 C 0.23872 0.71333 0.59909
 C3003 C 0.24354 0.72014 0.58640
 C3004 C 0.23469 0.72921 0.57838
 C3005 C 0.22105 0.73140 0.58338
 C3006 C 0.21624 0.72459 0.59598
 C3007 C 0.23898 0.73641 0.56467
 C3008 C 0.25001 0.73187 0.55600
 H3009 H 0.22521 0.69830 0.62086
 H3010 H 0.24570 0.70639 0.60508
 H3011 H 0.25420 0.71835 0.58305
 H3012 H 0.21396 0.73820 0.57736
 H3013 H 0.20548 0.72619 0.59910
 H3014 H 0.23224 0.74482 0.56053
 H3015 H 0.20479 0.72394 0.62293
 H3016 H 0.25655 0.72304 0.55947
 C3017 C 0.20620 0.20428 1.13348
 C3018 C 0.20400 0.21666 1.12511
 C3019 C 0.21304 0.22044 1.11256
 C3020 C 0.21542 0.23503 1.10896
 C3021 C 0.22416 0.23892 1.09737
 C3022 C 0.23050 0.22823 1.08892
 C3023 C 0.22801 0.21363 1.09251
 C3024 C 0.21937 0.20976 1.10415
 C3025 C 0.23943 0.23171 1.07615
 C3026 C 0.23980 0.24522 1.06924
 H3027 H 0.19623 0.22434 1.12854
 H3028 H 0.21070 0.24346 1.11529
 H3029 H 0.22594 0.25030 1.09525
 H3030 H 0.23262 0.20515 1.08616
 H3031 H 0.21750 0.19839 1.10637
 H3032 H 0.24500 0.22289 1.07122
 H3033 H 0.21486 0.19733 1.13093
 H3034 H 0.23374 0.25403 1.07341
 C3035 C 0.71824 0.53838 0.10593
 C3036 C 0.71244 0.52893 0.11619
 C3037 C 0.71947 0.52551 0.13000
 C3038 C 0.71641 0.51235 0.13706
 C3039 C 0.72281 0.50882 0.15013
 C3040 C 0.73224 0.51854 0.15657
 C3041 C 0.73534 0.53167 0.14947
 C3042 C 0.72897 0.53519 0.13639
 C3043 C 0.73893 0.51544 0.17064
 C3044 C 0.73306 0.50600 0.18088
 H3045 H 0.70273 0.52338 0.11380
 H3046 H 0.70916 0.50470 0.13236
 H3047 H 0.72042 0.49840 0.15502
 H3048 H 0.74253 0.53936 0.15420
 H3049 H 0.73131 0.54562 0.13152
 H3050 H 0.74818 0.52160 0.17346
 H3051 H 0.72846 0.54309 0.10773
 H3052 H 0.72328 0.50055 0.17864
 C3053 C 0.71530 1.03706 0.61489
 C3054 C 0.70743 1.03000 0.62557
 C3055 C 0.71313 1.02520 0.63961
 C3056 C 0.70502 1.01576 0.64821
 C3057 C 0.70969 1.01127 0.66174
 C3058 C 0.72268 1.01608 0.66695
 C3059 C 0.73067 1.02576 0.65851
 C3060 C 0.72599 1.03029 0.64496
 C3061 C 0.72791 1.01157 0.68127
 C3062 C 0.72348 0.99882 0.68812
 H3063 H 0.69644 1.02804 0.62370
 H3064 H 0.69496 1.01191 0.64449
 H3065 H 0.70292 1.00428 0.66815
 H3066 H 0.74059 1.02983 0.66240
 H3067 H 0.73237 1.03798 0.63896
 H3068 H 0.73571 1.01830 0.68640
 H3069 H 0.72640 1.03873 0.61619
 H3070 H 0.71637 0.99154 0.68273
 C3071 C 0.54891 0.21837 0.61205
 C3072 C 0.53705 0.21444 0.62002
 C3073 C 0.53279 0.22192 0.63335
 C3074 C 0.51892 0.22057 0.63816
 C3075 C 0.51462 0.22714 0.65091
 C3076 C 0.52420 0.23507 0.65920
 C3077 C 0.53802 0.23654 0.65431
 C3078 C 0.54233 0.22995 0.64161
 C3079 C 0.52030 0.24180 0.67302
 C3080 C 0.50916 0.23694 0.68159
 H3081 H 0.53044 0.20573 0.61623
 H3082 H 0.51138 0.21445 0.63200
 H3083 H 0.50379 0.22606 0.65410
 H3084 H 0.54561 0.24254 0.66053
 H3085 H 0.55321 0.23092 0.63856
 H3086 H 0.52723 0.25007 0.67720
 H3087 H 0.55509 0.22767 0.61509
 H3088 H 0.50261 0.22807 0.67808
 C3089 C 1.05016 0.21500 0.11375
 C3090 C 1.03646 0.21299 0.11860
 C3091 C 1.03055 0.22076 0.13108
 C3092 C 1.01599 0.22132 0.13272
 C3093 C 1.01001 0.22824 0.14452
 C3094 C 1.01852 0.23465 0.15502
 C3095 C 1.03305 0.23430 0.15328
 C3096 C 1.03903 0.22732 0.14154
 C3097 C 1.01269 0.24132 0.16812
 C3098 C 1.00023 0.23655 0.17449
 H3099 H 1.02962 0.20579 0.11274
 H3100 H 1.00921 0.21639 0.12482
 H3101 H 0.99875 0.22859 0.14534
 H3102 H 1.03982 0.23909 0.16127
 H3103 H 1.05028 0.22683 0.14100
 H3104 H 1.01928 0.24881 0.17395
 H3105 H 1.05691 0.22282 0.11884
 H3106 H 0.99410 0.22817 0.16941
 C3107 C 0.62046 0.19285 0.70871
 C3108 C 0.61429 0.20592 0.70462
 C3109 C 0.60097 0.21143 0.71067
 C3110 C 0.59757 0.22599 0.70820
 C3111 C 0.58510 0.23169 0.71349
 C3112 C 0.57559 0.22287 0.72129
 C3113 C 0.57901 0.20833 0.72384
 C3114 C 0.59149 0.20262 0.71855
 C3115 C 0.56215 0.22839 0.72702
 C3116 C 0.55557 0.24080 0.72173
 H3117 H 0.61973 0.21280 0.69686
 H3118 H 0.60466 0.23305 0.70222
 H3119 H 0.58309 0.24302 0.71157
 H3120 H 0.57189 0.20128 0.72980
 H3121 H 0.59348 0.19129 0.72049
 H3122 H 0.55676 0.22186 0.73512
 H3123 H 0.61567 0.18606 0.71694
 H3124 H 0.56021 0.24694 0.71291
 C3125 C 1.11524 0.20770 0.20594
 C3126 C 1.10720 0.21806 0.19893
 C3127 C 1.09286 0.22132 0.20397
 C3128 C 1.08763 0.23535 0.20229
 C3129 C 1.07436 0.23878 0.20758
 C3130 C 1.06596 0.22814 0.21448
 C3131 C 1.07111 0.21405 0.21584
 C3132 C 1.08434 0.21064 0.21059
 C3133 C 1.05191 0.23117 0.22049
 C3134 C 1.04392 0.24307 0.21645
 H3135 H 1.11175 0.22448 0.19023
 H3136 H 1.09397 0.24375 0.19719
 H3137 H 1.07093 0.24983 0.20650
 H3138 H 1.06483 0.20560 0.22095
 H3139 H 1.08781 0.19958 0.21164
 H3140 H 1.04727 0.22314 0.22770
 H3141 H 1.11106 0.20229 0.21546
 H3142 H 1.04790 0.25077 0.20854
 C3143 C 0.13377 0.69216 0.54265
 C3144 C 0.14186 0.70413 0.54656
 C3145 C 0.15514 0.70851 0.53941
 C3146 C 0.16013 0.72267 0.54136
 C3147 C 0.17264 0.72735 0.53497
 C3148 C 0.18058 0.71785 0.52659
 C3149 C 0.17560 0.70369 0.52462
 C3150 C 0.16305 0.69901 0.53101
 C3151 C 0.19386 0.72239 0.51952
 C3152 C 0.20184 0.73431 0.52380
 H3153 H 0.13801 0.71110 0.55494
 H3154 H 0.15424 0.73022 0.54776
 H3155 H 0.17586 0.73846 0.53644
 H3156 H 0.18150 0.69615 0.51821
 H3157 H 0.15977 0.68791 0.52950
 H3158 H 0.19778 0.71571 0.51091
 H3159 H 0.13694 0.68543 0.53379
 H3160 H 0.19870 0.74056 0.53301
 C3161 C 0.12768 0.21645 1.03242
 C3162 C 0.13794 0.22306 1.04074
 C3163 C 0.15186 0.22737 1.03512
 C3164 C 0.16008 0.23691 1.04318
 C3165 C 0.17360 0.24065 1.03868
 C3166 C 0.17917 0.23486 1.02597
 C3167 C 0.17095 0.22531 1.01792
 C3168 C 0.15745 0.22156 1.02242
 C3169 C 0.19368 0.23773 1.02114
 C3170 C 0.20229 0.24863 1.02658
 H3171 H 0.13574 0.22519 1.05197
 H3172 H 0.15609 0.24136 1.05311
 H3173 H 0.17967 0.24773 1.04545
 H3174 H 0.17506 0.22053 1.00820
 H3175 H 0.15170 0.21380 1.01612
 H3176 H 0.19785 0.23075 1.01291
 H3177 H 0.12920 0.21511 1.02096
 H3178 H 0.19834 0.25627 1.03428
 C3179 C 0.62247 0.53103 0.21102
 C3180 C 0.63380 0.53844 0.21686
 C3181 C 0.64749 0.53167 0.21941
 C3182 C 0.65641 0.53768 0.22970
 C3183 C 0.66964 0.53195 0.23203
 C3184 C 0.67435 0.52021 0.22386
 C3185 C 0.66535 0.51413 0.21365
 C3186 C 0.65207 0.51981 0.21138
 C3187 C 0.68845 0.51402 0.22559
 C3188 C 0.69938 0.52111 0.23255
 H3189 H 0.63257 0.54959 0.21999
 H3190 H 0.65310 0.54681 0.23602
 H3191 H 0.67600 0.53674 0.24031
 H3192 H 0.66869 0.50510 0.20721
 H3193 H 0.64563 0.51513 0.20308
 H3194 H 0.69046 0.50368 0.22067
 H3195 H 0.62312 0.51956 0.20901
 H3196 H 0.69789 0.53167 0.23711
 C3197 C 0.61590 1.03611 0.72281
 C3198 C 0.62340 1.02470 0.71705
 C3199 C 0.63610 1.01888 0.72392
 C3200 C 0.64000 1.00461 0.72112
 C3201 C 0.65226 0.99897 0.72691
 C3202 C 0.66105 1.00764 0.73542
 C3203 C 0.65700 1.02182 0.73844
 C3204 C 0.64471 1.02743 0.73271
 C3205 C 0.67469 1.00254 0.74086
 C3206 C 0.68207 0.99137 0.73447
 H3207 H 0.61964 1.01955 0.70738
 H3208 H 0.63352 0.99780 0.71442
 H3209 H 0.65474 0.98785 0.72467
 H3210 H 0.66358 1.02873 0.74493
 H3211 H 0.64225 1.03859 0.73482
 H3212 H 0.67977 1.00882 0.74915
 H3213 H 0.61881 1.04048 0.73315
 H3214 H 0.67757 0.98550 0.72560
 C3215 C 0.86837 0.45105 0.30446
 C3216 C 0.86137 0.44600 0.29228
 C3217 C 0.84974 0.45371 0.28502
 C3218 C 0.84559 0.44925 0.27124
 C3219 C 0.83473 0.45620 0.26395
 C3220 C 0.82772 0.46777 0.27035
 C3221 C 0.83182 0.47218 0.28414
 C3222 C 0.84260 0.46520 0.29145
 C3223 C 0.81617 0.47562 0.26320
 C3224 C 0.80830 0.47041 0.25164
 H3225 H 0.86486 0.43606 0.28746
 H3226 H 0.85086 0.44041 0.26603
 H3227 H 0.83204 0.45259 0.25327
 H3228 H 0.82657 0.48103 0.28935
 H3229 H 0.84511 0.46881 0.30217
 H3230 H 0.81301 0.48566 0.26809
 H3231 H 0.86555 0.46122 0.30921
 H3232 H 0.81067 0.46010 0.24689
 C3233 C 0.86958 0.95272 0.79288
 C3234 C 0.85914 0.94470 0.78610
 C3235 C 0.84550 0.95103 0.78195
 C3236 C 0.83778 0.94468 0.77084
 C3237 C 0.82489 0.95033 0.76669
 C3238 C 0.81937 0.96250 0.77362
 C3239 C 0.82692 0.96860 0.78499
 C3240 C 0.83983 0.96297 0.78912
 C3241 C 0.80557 0.96865 0.76979
 C3242 C 0.79903 0.96629 0.75660
 H3243 H 0.86117 0.93359 0.78330
 H3244 H 0.84176 0.93531 0.76533
 H3245 H 0.81922 0.94491 0.75826
 H3246 H 0.82280 0.97776 0.79074
 H3247 H 0.84515 0.96785 0.79811
 H3248 H 0.80035 0.97525 0.77770
 H3249 H 0.86801 0.96410 0.79478
 H3250 H 0.80432 0.96024 0.74834
 C3251 C 0.37859 0.28997 0.80395
 C3252 C 0.38644 0.29501 0.79217
 C3253 C 0.39994 0.28889 0.78752
 C3254 C 0.40799 0.29676 0.77741
 C3255 C 0.42054 0.29130 0.77221
 C3256 C 0.42526 0.27769 0.77689
 C3257 C 0.41737 0.26992 0.78721
 C3258 C 0.40477 0.27538 0.79242
 C3259 C 0.43845 0.27154 0.77149
 C3260 C 0.44434 0.27551 0.75821
 H3261 H 0.38261 0.30414 0.78602
 H3262 H 0.40458 0.30723 0.77351
 H3263 H 0.42657 0.29789 0.76469
 H3264 H 0.42084 0.25946 0.79107
 H3265 H 0.39881 0.26883 0.80001
 H3266 H 0.44356 0.26344 0.77809
 H3267 H 0.38242 0.28140 0.81084
 H3268 H 0.43897 0.28295 0.75112
 C3269 C 0.86526 0.27855 0.29883
 C3270 C 0.87389 0.28323 0.28751
 C3271 C 0.88686 0.27606 0.28286
 C3272 C 0.89536 0.28338 0.27276
 C3273 C 0.90737 0.27700 0.26738
 C3274 C 0.91111 0.26300 0.27187
 C3275 C 0.90288 0.25578 0.28230
 C3276 C 0.89077 0.26219 0.28769
 C3277 C 0.92376 0.25610 0.26607
 C3278 C 0.92869 0.25937 0.25224
 H3279 H 0.87108 0.29294 0.28163
 H3280 H 0.89269 0.29413 0.26896
 H3281 H 0.91379 0.28316 0.25984
 H3282 H 0.90569 0.24507 0.28605
 H3283 H 0.88447 0.25611 0.29538
 H3284 H 0.92948 0.24871 0.27294
 H3285 H 0.86805 0.26939 0.30552
 H3286 H 0.92248 0.26603 0.24511
 C3287 C 0.38024 0.79945 0.45668
 C3288 C 0.37175 0.78854 0.45114
 C3289 C 0.35742 0.78557 0.45653
 C3290 C 0.35177 0.77162 0.45509
 C3291 C 0.33850 0.76823 0.46055
 C3292 C 0.33050 0.77885 0.46738
 C3293 C 0.33605 0.79287 0.46860
 C3294 C 0.34933 0.79625 0.46315
 C3295 C 0.31659 0.77563 0.47375
 C3296 C 0.30822 0.76400 0.46956
 H3297 H 0.37607 0.78120 0.44333
 H3298 H 0.35779 0.76321 0.45003
 H3299 H 0.33476 0.75720 0.45969
 H3300 H 0.33008 0.80125 0.47376
 H3301 H 0.35312 0.80725 0.46406
 H3302 H 0.31259 0.78302 0.48171
 H3303 H 0.37639 0.80626 0.46518
 H3304 H 0.31151 0.75711 0.46087
 C3305 C 0.38532 0.29610 0.96572
 C3306 C 0.37709 0.28396 0.96293
 C3307 C 0.36471 0.28001 0.97186
 C3308 C 0.36027 0.26552 0.97268
 C3309 C 0.34848 0.26151 0.98084
 C3310 C 0.34073 0.27203 0.98816
 C3311 C 0.34526 0.28650 0.98739
 C3312 C 0.35704 0.29048 0.97929
 C3313 C 0.32769 0.26859 0.99626
 C3314 C 0.31963 0.25615 0.99406
 H3315 H 0.38008 0.27681 0.95432
 H3316 H 0.36601 0.25725 0.96707
 H3317 H 0.34558 0.25020 0.98136
 H3318 H 0.33945 0.29484 0.99282
 H3319 H 0.35987 0.30182 0.97860
 H3320 H 0.32343 0.27697 1.00299
 H3321 H 0.38313 0.30257 0.97508
 H3322 H 0.32326 0.24788 0.98686
 C3323 C 0.81658 0.46116 0.35952
 C3324 C 0.81197 0.45286 0.34806
 C3325 C 0.80777 0.45967 0.33432
 C3326 C 0.79643 0.45379 0.32686
 C3327 C 0.79107 0.46097 0.31483
 C3328 C 0.79706 0.47412 0.31000
 C3329 C 0.80903 0.47945 0.31681
 C3330 C 0.81434 0.47232 0.32893
 C3331 C 0.79107 0.48225 0.29778
 C3332 C 0.77678 0.48199 0.29508
 H3333 H 0.80957 0.44150 0.34981
 H3334 H 0.79138 0.44391 0.33067
 H3335 H 0.78220 0.45623 0.30939
 H3336 H 0.81403 0.48936 0.31300
 H3337 H 0.82345 0.47681 0.33415
 H3338 H 0.79802 0.48849 0.29081
 H3339 H 0.81795 0.47272 0.35811
 H3340 H 0.76978 0.47645 0.30256
 C3341 C 0.79835 0.95293 0.87364
 C3342 C 0.78700 0.94720 0.86618
 C3343 C 0.78304 0.95184 0.85140
 C3344 C 0.76949 0.94870 0.84660
 C3345 C 0.76521 0.95300 0.83283
 C3346 C 0.77448 0.96041 0.82346
 C3347 C 0.78806 0.96349 0.82821
 C3348 C 0.79236 0.95917 0.84198
 C3349 C 0.77024 0.96546 0.80893
 C3350 C 0.75925 0.95923 0.80128
 H3351 H 0.78026 0.93939 0.87163
 H3352 H 0.76210 0.94309 0.85362
 H3353 H 0.75454 0.95077 0.82976
 H3354 H 0.79541 0.96917 0.82119
 H3355 H 0.80301 0.96147 0.84503
 H3356 H 0.77630 0.97411 0.80387
 H3357 H 0.80488 0.96124 0.86871
 H3358 H 0.75378 0.94984 0.80565
 C3359 C 0.29506 0.78650 0.36419
 C3360 C 0.28375 0.79096 0.37251
 C3361 C 0.27948 0.78343 0.38607
 C3362 C 0.26585 0.78514 0.39137
 C3363 C 0.26163 0.77842 0.40431
 C3364 C 0.27106 0.76996 0.41227
 C3365 C 0.28463 0.76821 0.40691
 C3366 C 0.28886 0.77495 0.39406
 C3367 C 0.26741 0.76305 0.42630
 C3368 C 0.25676 0.76782 0.43534
 H3369 H 0.27771 0.80013 0.36890
 H3370 H 0.25844 0.79165 0.38546
 H3371 H 0.25099 0.77981 0.40793
 H3372 H 0.29214 0.76185 0.41288
 H3373 H 0.29960 0.77373 0.39069
 H3374 H 0.27442 0.75485 0.43037
 H3375 H 0.30056 0.77676 0.36712
 H3376 H 0.25000 0.77648 0.43188
 C3377 C 0.29427 0.30129 0.87914
 C3378 C 0.29720 0.28851 0.88668
 C3379 C 0.29097 0.28449 0.90087
 C3380 C 0.29166 0.27004 0.90561
 C3381 C 0.28625 0.26582 0.91907
 C3382 C 0.28014 0.27606 0.92816
 C3383 C 0.27939 0.29049 0.92338
 C3384 C 0.28480 0.29471 0.90994
 C3385 C 0.27443 0.27227 0.94261
 C3386 C 0.27781 0.25979 0.95047
 H3387 H 0.30418 0.28081 0.88184
 H3388 H 0.29637 0.26194 0.89885
 H3389 H 0.28679 0.25454 0.92219
 H3390 H 0.27479 0.29862 0.93019
 H3391 H 0.28437 0.30602 0.90692
 H3392 H 0.26797 0.28029 0.94774
 H3393 H 0.28665 0.30874 0.88324
 H3394 H 0.28479 0.25188 0.94602
 C3395 C 0.44800 0.29503 0.86808
 C3396 C 0.45840 0.30085 0.85905
 C3397 C 0.46287 0.29415 0.84535
 C3398 C 0.47612 0.29763 0.83971
 C3399 C 0.48075 0.29162 0.82679
 C3400 C 0.47209 0.28211 0.81907
 C3401 C 0.45879 0.27870 0.82470
 C3402 C 0.45419 0.28466 0.83764
 C3403 C 0.47639 0.27550 0.80523
 C3404 C 0.48812 0.27980 0.79713
 H3405 H 0.46411 0.31035 0.86250
 H3406 H 0.48301 0.30493 0.84541
 H3407 H 0.49114 0.29443 0.82309
 H3408 H 0.45185 0.27147 0.81897
 H3409 H 0.44376 0.28200 0.84139
 H3410 H 0.46961 0.26719 0.80089
 H3411 H 0.44287 0.28497 0.86537
 H3412 H 0.49483 0.28847 0.80075
 C3413 C 0.94932 0.30523 0.36086
 C3414 C 0.94732 0.29186 0.35432
 C3415 C 0.95377 0.28807 0.34028
 C3416 C 0.95558 0.27343 0.33702
 C3417 C 0.96158 0.26937 0.32392
 C3418 C 0.96573 0.27990 0.31362
 C3419 C 0.96394 0.29455 0.31689
 C3420 C 0.95796 0.29861 0.33001
 C3421 C 0.97186 0.27604 0.29944
 C3422 C 0.96964 0.26264 0.29302
 H3423 H 0.94144 0.28353 0.36008
 H3424 H 0.95247 0.26509 0.34472
 H3425 H 0.96310 0.25798 0.32205
 H3426 H 0.96697 0.30289 0.30915
 H3427 H 0.95641 0.31000 0.33190
 H3428 H 0.97741 0.28440 0.29337
 H3429 H 0.95605 0.31328 0.35579
 H3430 H 0.96314 0.25458 0.29840
 C3431 C 0.45380 0.37650 0.80441
 C3432 C 0.45240 0.37162 0.79032
 C3433 C 0.46135 0.36013 0.78415
 C3434 C 0.46078 0.35745 0.76928
 C3435 C 0.46863 0.34634 0.76321
 C3436 C 0.47726 0.33771 0.77191
 C3437 C 0.47801 0.34051 0.78668
 C3438 C 0.47009 0.35145 0.79277
 C3439 C 0.48488 0.32514 0.76626
 C3440 C 0.48197 0.31929 0.75290
 H3441 H 0.44436 0.37628 0.78359
 H3442 H 0.45412 0.36387 0.76237
 H3443 H 0.46780 0.34443 0.75175
 H3444 H 0.48444 0.33390 0.79365
 H3445 H 0.47069 0.35263 0.80430
 H3446 H 0.49162 0.31919 0.77353
 H3447 H 0.46204 0.37244 0.81117
 H3448 H 0.48514 0.31124 0.75092
 C3449 C 0.94870 0.37104 0.29861
 C3450 C 0.94233 0.36267 0.28807
 C3451 C 0.94912 0.34994 0.28167
 C3452 C 0.94535 0.34569 0.26776
 C3453 C 0.95154 0.33369 0.26141
 C3454 C 0.96149 0.32552 0.26901
 C3455 C 0.96516 0.32976 0.28296
 C3456 C 0.95903 0.34178 0.28927
 C3457 C 0.96824 0.31256 0.26295
 C3458 C 0.96358 0.30535 0.25071
 H3459 H 0.93229 0.36589 0.28388
 H3460 H 0.93772 0.35178 0.26171
 H3461 H 0.94854 0.33104 0.25055
 H3462 H 0.97272 0.32364 0.28910
 H3463 H 0.96189 0.34445 0.30019
 H3464 H 0.97685 0.30798 0.26893
 H3465 H 0.95923 0.36865 0.30199
 H3466 H 0.95464 0.30918 0.24480
 C3467 C 0.30781 0.88096 0.46433
 C3468 C 0.29589 0.87364 0.45966
 C3469 C 0.29154 0.85927 0.46548
 C3470 C 0.27744 0.85509 0.46474
 C3471 C 0.27296 0.84160 0.47009
 C3472 C 0.28260 0.83186 0.47610
 C3473 C 0.29671 0.83604 0.47676
 C3474 C 0.30116 0.84954 0.47146
 C3475 C 0.27851 0.81734 0.48177
 C3476 C 0.26584 0.81040 0.47878
 H3477 H 0.28909 0.87890 0.45198
 H3478 H 0.26982 0.86238 0.46017
 H3479 H 0.26196 0.83900 0.46960
 H3480 H 0.30438 0.82875 0.48124
 H3481 H 0.31218 0.85215 0.47184
 H3482 H 0.28623 0.81148 0.48795
 H3483 H 0.31408 0.87638 0.47286
 H3484 H 0.25814 0.81562 0.47209
 C3485 C 0.30374 0.37440 0.94344
 C3486 C 0.30856 0.36669 0.95541
 C3487 C 0.30156 0.35336 0.96102
 C3488 C 0.30319 0.34952 0.97558
 C3489 C 0.29668 0.33710 0.98131
 C3490 C 0.28857 0.32805 0.97248
 C3491 C 0.28700 0.33188 0.95790
 C3492 C 0.29346 0.34433 0.95219
 C3493 C 0.28154 0.31470 0.97804
 C3494 C 0.28539 0.30759 0.99076
 H3495 H 0.31727 0.37102 0.96142
 H3496 H 0.30936 0.35629 0.98262
 H3497 H 0.29790 0.33483 0.99268
 H3498 H 0.28087 0.32510 0.95083
 H3499 H 0.29227 0.34668 0.94082
 H3500 H 0.27352 0.30982 0.97142
 H3501 H 0.29438 0.37083 0.93801
 H3502 H 0.29396 0.31171 0.99708
 C3503 C 0.79376 0.36452 0.27799
 C3504 C 0.78289 0.37358 0.28194
 C3505 C 0.77970 0.38734 0.27443
 C3506 C 0.76662 0.39360 0.27676
 C3507 C 0.76334 0.40686 0.27036
 C3508 C 0.77318 0.41423 0.26162
 C3509 C 0.78618 0.40789 0.25910
 C3510 C 0.78949 0.39463 0.26552
 C3511 C 0.77030 0.42851 0.25506
 C3512 C 0.76095 0.43823 0.26106
 H3513 H 0.77617 0.37037 0.29087
 H3514 H 0.75890 0.38819 0.28355
 H3515 H 0.75306 0.41121 0.27222
 H3516 H 0.79394 0.41338 0.25242
 H3517 H 0.79982 0.39041 0.26373
 H3518 H 0.77658 0.43193 0.24586
 H3519 H 0.80005 0.36694 0.26854
 H3520 H 0.75536 0.43545 0.27089
   
