data_POSCAR
  _audit_creation_date              2014-09-24
  _audit_creation_method            'ToBaCCo'
  _symmetry_space_group_name_H-M    'P1'
  _symmetry_Int_Tables_number       1
  _symmetry_cell_setting            triclinic
  loop_
  _symmetry_equiv_pos_as_xyz
 x,y,z
_cell_length_a 71.3153
_cell_length_b 71.3073
_cell_length_c 71.3878
_cell_angle_alpha 90.015100
_cell_angle_beta 90.014800
_cell_angle_gamma 90.016400
loop_
  _atom_site_label
  _atom_site_type_symbol
  _atom_site_fract_x
  _atom_site_fract_y
  _atom_site_fract_z
C1 C 0.35967 0.33648 0.33676
 N2 N 0.35188 0.35201 0.32899
 C3 C 0.33640 0.35982 0.33680
 N4 N 0.32861 0.35203 0.35230
 C5 C 0.33639 0.33651 0.36007
 N6 N 0.35188 0.32869 0.35226
 C7 C 0.36010 0.83660 -0.16380
 N8 N 0.35223 0.85206 -0.17162
 C9 C 0.33671 0.85983 -0.16384
 N10 N 0.32897 0.85204 -0.14831
 C11 C 0.33683 0.83659 -0.14048
 N12 N 0.35235 0.82882 -0.14827
 C13 C 0.85962 0.33702 -0.16370
 N14 N 0.85183 0.35253 -0.17149
 C15 C 0.83633 0.36034 -0.16371
 N16 N 0.82853 0.35255 -0.14822
 C17 C 0.83632 0.33704 -0.14042
 N18 N 0.85182 0.32924 -0.14821
 C19 C 0.86008 0.83606 0.33640
 N20 N 0.85226 0.85155 0.32859
 C21 C 0.83679 0.85938 0.33641
 N22 N 0.82905 0.85165 0.35196
 C23 C 0.83687 0.83616 0.35977
 N24 N 0.85234 0.82833 0.35195
 C25 C 0.64040 0.66360 0.33658
 N26 N 0.64817 0.67134 0.35212
 C27 C 0.66366 0.66352 0.35992
 N28 N 0.67147 0.64803 0.35209
 C29 C 0.66370 0.64029 0.33655
 N30 N 0.64821 0.64812 0.32875
 C31 C 0.63991 0.16348 -0.16397
 N32 N 0.64774 0.14800 -0.17177
 C33 C 0.66326 0.14022 -0.16397
 N34 N 0.67102 0.14802 -0.14846
 C35 C 0.66319 0.16351 -0.14066
 N36 N 0.64767 0.17128 -0.14846
 C37 C 0.14070 0.66311 -0.16370
 N38 N 0.14849 0.67089 -0.14819
 C39 C 0.16398 0.66307 -0.14039
 N40 N 0.17177 0.64756 -0.14818
 C41 C 0.16398 0.63978 -0.16369
 N42 N 0.14849 0.64760 -0.17149
 C43 C 0.13999 0.16345 0.33613
 N44 N 0.14782 0.14796 0.32832
 C45 C 0.16331 0.14014 0.33614
 N46 N 0.17104 0.14789 0.35169
 C47 C 0.16322 0.16337 0.35951
 N48 N 0.14774 0.17119 0.35168
 C49 C 0.64021 0.33644 0.66326
 N50 N 0.64803 0.35193 0.67107
 C51 C 0.66351 0.35976 0.66326
 N52 N 0.67128 0.35200 0.64774
 C53 C 0.66346 0.33650 0.63993
 N54 N 0.64798 0.32868 0.64773
 C55 C 0.64002 0.83660 1.16387
 N56 N 0.64781 0.82879 1.14838
 C57 C 0.66332 0.83657 1.14059
 N58 N 0.67114 0.85208 1.14838
 C59 C 0.66336 0.85989 1.16387
 N60 N 0.64784 0.85210 1.17166
 C61 C 0.13999 0.33611 1.16373
 N62 N 0.14779 0.32833 1.14823
 C63 C 0.16327 0.33617 1.14042
 N64 N 0.17102 0.35171 1.14820
 C65 C 0.16322 0.35950 1.16369
 N66 N 0.14775 0.35165 1.17150
 C67 C 0.13999 0.83653 0.66387
 N68 N 0.14785 0.85200 0.67170
 C69 C 0.16335 0.85980 0.66390
 N70 N 0.17107 0.85206 0.64834
 C71 C 0.16321 0.83660 0.64051
 N72 N 0.14772 0.82879 0.64831
 C73 C 0.35970 0.66377 0.66334
 N74 N 0.35191 0.64825 0.67112
 C75 C 0.33642 0.64042 0.66331
 N76 N 0.32863 0.64821 0.64781
 C77 C 0.33641 0.66373 0.64003
 N78 N 0.35190 0.67155 0.64784
 C79 C 0.35992 0.16331 1.16409
 N80 N 0.35216 0.17106 1.14855
 C81 C 0.33664 0.16326 1.14076
 N82 N 0.32880 0.14780 1.14860
 C83 C 0.33655 0.14005 1.16414
 N84 N 0.35207 0.14785 1.17192
 C85 C 0.85998 0.66331 1.16392
 N86 N 0.85218 0.67109 1.14842
 C87 C 0.83670 0.66326 1.14060
 N88 N 0.82892 0.64774 1.14838
 C89 C 0.83670 0.63995 1.16388
 N90 N 0.85219 0.64778 1.17170
 C91 C 0.85937 0.16319 0.66342
 N92 N 0.85151 0.14773 0.67125
 C93 C 0.83599 0.13994 0.66347
 N94 N 0.82824 0.14770 0.64793
 C95 C 0.83610 0.16315 0.64009
 N96 N 0.85162 0.17094 0.64788
 C97 C 0.33647 0.35960 0.66370
 N98 N 0.35197 0.35180 0.67149
 C99 C 0.35975 0.33628 0.66371
 N100 N 0.35194 0.32847 0.64822
 C101 C 0.33644 0.33628 0.64042
 N102 N 0.32866 0.35180 0.64821
 C103 C 0.33662 0.86056 0.16338
 N104 N 0.35215 0.85279 0.17115
 C105 C 0.35997 0.83730 0.16335
 N106 N 0.35217 0.82950 0.14785
 C107 C 0.33664 0.83727 0.14008
 N108 N 0.32883 0.85276 0.14788
 C109 C 0.83711 0.35977 0.16313
 N110 N 0.85261 0.35195 0.17091
 C111 C 0.86037 0.33642 0.16313
 N112 N 0.85254 0.32862 0.14765
 C113 C 0.83704 0.33644 0.13986
 N114 N 0.82929 0.35197 0.14765
 C115 C 0.83674 0.86045 0.66373
 N116 N 0.85226 0.85269 0.67152
 C117 C 0.86008 0.83719 0.66373
 N118 N 0.85229 0.82937 0.64824
 C119 C 0.83677 0.83713 0.64045
 N120 N 0.82895 0.85263 0.64824
 C121 C 0.66343 0.64035 0.66388
 N122 N 0.67122 0.64815 0.64838
 C123 C 0.66342 0.66366 0.64060
 N124 N 0.64793 0.67146 0.64840
 C125 C 0.64014 0.66367 0.66390
 N126 N 0.64794 0.64816 0.67168
 C127 C 0.66318 0.13974 0.16298
 N128 N 0.67099 0.14755 0.14750
 C129 C 0.66320 0.16306 0.13971
 N130 N 0.64768 0.17084 0.14749
 C131 C 0.63987 0.16304 0.16297
 N132 N 0.64766 0.14753 0.17075
 C133 C 0.16315 0.64030 0.16322
 N134 N 0.14763 0.64808 0.17098
 C135 C 0.13983 0.66359 0.16318
 N136 N 0.14765 0.67139 0.14770
 C137 C 0.16318 0.66361 0.13994
 N138 N 0.17097 0.64811 0.14774
 C139 C 0.16325 0.13939 0.66357
 N140 N 0.14776 0.14720 0.67136
 C141 C 0.13996 0.16271 0.66358
 N142 N 0.14775 0.17049 0.64808
 C143 C 0.16324 0.16268 0.64028
 N144 N 0.17104 0.14717 0.64807
 C145 C 0.33659 0.64064 0.33640
 N146 N 0.35210 0.64844 0.32861
 C147 C 0.35989 0.66397 0.33640
 N148 N 0.35208 0.67177 0.35188
 C149 C 0.33658 0.66397 0.35967
 N150 N 0.32879 0.64845 0.35188
 C151 C 0.33670 0.13940 0.83685
 N152 N 0.32891 0.14720 0.85234
 C153 C 0.33671 0.16271 0.86013
 N154 N 0.35222 0.17051 0.85234
 C155 C 0.36001 0.16271 0.83685
 N156 N 0.35221 0.14720 0.82906
 C157 C 0.83698 0.64031 0.83684
 N158 N 0.85247 0.64812 0.82903
 C159 C 0.86027 0.66364 0.83681
 N160 N 0.85249 0.67144 0.85230
 C161 C 0.83700 0.66363 0.86012
 N162 N 0.82920 0.64811 0.85234
 C163 C 0.83678 0.13980 0.33623
 N164 N 0.85231 0.14759 0.32847
 C165 C 0.86011 0.16309 0.33628
 N166 N 0.85230 0.17089 0.35176
 C167 C 0.83677 0.16311 0.35952
 N168 N 0.82897 0.14761 0.35171
 C169 C 0.66354 0.35986 0.33597
 N170 N 0.67132 0.35207 0.35147
 C171 C 0.66350 0.33658 0.35927
 N172 N 0.64799 0.32879 0.35148
 C173 C 0.64020 0.33657 0.33598
 N174 N 0.64802 0.35207 0.32818
 C175 C 0.66347 0.86042 0.83712
 N176 N 0.67129 0.85260 0.85259
 C177 C 0.66351 0.83709 0.86038
 N178 N 0.64798 0.82930 0.85260
 C179 C 0.64016 0.83711 0.83713
 N180 N 0.64795 0.85262 0.82935
 C181 C 0.16344 0.35975 0.83690
 N182 N 0.17123 0.35192 0.85238
 C183 C 0.16343 0.33640 0.86014
 N184 N 0.14793 0.32861 0.85232
 C185 C 0.14013 0.33643 0.83684
 N186 N 0.14793 0.35195 0.82909
 C187 C 0.16291 0.86035 0.33640
 N188 N 0.17071 0.85257 0.35190
 C189 C 0.16293 0.83705 0.35969
 N190 N 0.14743 0.82923 0.35189
 C191 C 0.13963 0.83701 0.33639
 N192 N 0.14742 0.85253 0.32861
 O193 O 0.24779 1.01902 0.27392
 O194 O 0.27362 0.98245 0.24820
 O195 O 0.27366 1.01903 0.24826
 O196 O 0.24776 0.98244 0.27388
 O197 O 0.22590 0.98248 0.25190
 O198 O 0.25180 1.01907 0.22628
 O199 O 0.25176 0.98249 0.22622
 O200 O 0.22593 1.01906 0.25194
 Cu201 Cu 0.26292 1.00073 0.26328
 Cu202 Cu 0.23664 1.00078 0.23687
 C203 C 0.23254 1.02527 0.26723
 C204 C 0.26701 0.97625 0.23291
 C205 C 0.26707 1.02528 0.23298
 C206 C 0.23250 0.97623 0.26717
 O207 O 0.25183 0.51837 0.72633
 O208 O 0.22611 0.48182 0.75220
 O209 O 0.22611 0.51840 0.75215
 O210 O 0.25184 0.48179 0.72639
 O211 O 0.27382 0.48184 0.74826
 O212 O 0.24809 0.51845 0.77401
 O213 O 0.24809 0.48187 0.77406
 O214 O 0.27381 0.51842 0.74819
 Cu215 Cu 0.23675 0.50009 0.73706
 Cu216 Cu 0.26317 0.50015 0.76334
 C217 C 0.26712 0.52462 0.73294
 C218 C 0.23280 0.47562 0.76746
 C219 C 0.23280 0.52466 0.76738
 C220 C 0.26713 0.47557 0.73302
 O221 O 0.74788 -0.01885 0.22589
 O222 O 0.77373 0.01777 0.25155
 O223 O 0.77371 -0.01881 0.25160
 O224 O 0.74791 0.01773 0.22583
 O225 O 0.72602 0.01778 0.24777
 O226 O 0.75183 -0.01876 0.27354
 O227 O 0.75185 0.01781 0.27349
 O228 O 0.72599 -0.01880 0.24783
 Cu229 Cu 0.76302 -0.00055 0.23650
 Cu230 Cu 0.73671 -0.00049 0.26287
 C231 C 0.73261 -0.02506 0.23257
 C232 C 0.76711 0.02402 0.26681
 C233 C 0.76709 -0.02501 0.26688
 C234 C 0.73265 0.02398 0.23249
 O235 O 0.74830 0.48168 0.72636
 O236 O 0.77409 0.51823 0.75219
 O237 O 0.77408 0.48165 0.75213
 O238 O 0.74829 0.51826 0.72643
 O239 O 0.72637 0.51822 0.74834
 O240 O 0.75216 0.48161 0.77404
 O241 O 0.75216 0.51820 0.77409
 O242 O 0.72638 0.48164 0.74827
 Cu243 Cu 0.76340 0.49996 0.73707
 Cu244 Cu 0.73705 0.49991 0.76339
 C245 C 0.73303 0.47544 0.73300
 C246 C 0.76744 0.52444 0.76745
 C247 C 0.76743 0.47540 0.76738
 C248 C 0.73302 0.52448 0.73309
 O249 O 0.22598 0.51840 0.24809
 O250 O 0.25175 0.48188 0.27392
 O251 O 0.25177 0.51846 0.27384
 O252 O 0.22596 0.48182 0.24816
 O253 O 0.24788 0.48177 0.22626
 O254 O 0.27370 0.51840 0.25193
 O255 O 0.27367 0.48182 0.25201
 O256 O 0.24790 0.51834 0.22618
 Cu257 Cu 0.23665 0.50015 0.26321
 Cu258 Cu 0.26300 0.50008 0.23688
 C259 C 0.23263 0.52459 0.23281
 C260 C 0.26702 0.47563 0.26729
 C261 C 0.26705 0.52467 0.26718
 C262 C 0.23261 0.47556 0.23292
 O263 O 0.72598 0.98241 0.75215
 O264 O 0.75165 1.01897 0.72625
 O265 O 0.75174 0.98239 0.72637
 O266 O 0.72589 1.01899 0.75203
 O267 O 0.74784 1.01913 0.77392
 O268 O 0.77369 0.98252 0.74826
 O269 O 0.77360 1.01910 0.74814
 O270 O 0.74794 0.98254 0.77404
 Cu271 Cu 0.73660 1.00067 0.73699
 Cu272 Cu 0.76298 1.00084 0.76330
 C273 C 0.73267 0.97625 0.76743
 C274 C 0.76692 1.02526 0.73286
 C275 C 0.76704 0.97622 0.73302
 C276 C 0.73254 1.02529 0.76726
 O277 O 0.72665 0.48192 0.25149
 O278 O 0.75249 0.51854 0.22585
 O279 O 0.75248 0.48195 0.22579
 O280 O 0.72666 0.51850 0.25157
 O281 O 0.74856 0.51846 0.27352
 O282 O 0.77437 0.48192 0.24774
 O283 O 0.77438 0.51850 0.24780
 O284 O 0.74854 0.48188 0.27344
 Cu285 Cu 0.73736 0.50023 0.23646
 Cu286 Cu 0.76367 0.50019 0.26284
 C287 C 0.73327 0.47567 0.26676
 C288 C 0.76775 0.52476 0.23254
 C289 C 0.76774 0.47571 0.23246
 C290 C 0.73329 0.52470 0.26685
 O291 O 0.25197 -0.01924 0.77394
 O292 O 0.22613 0.01735 0.74824
 O293 O 0.22613 -0.01923 0.74822
 O294 O 0.25195 0.01734 0.77397
 O295 O 0.27384 0.01737 0.75204
 O296 O 0.24802 -0.01921 0.72628
 O297 O 0.24803 0.01737 0.72631
 O298 O 0.27386 -0.01921 0.75200
 Cu299 Cu 0.23684 -0.00095 0.76331
 Cu300 Cu 0.26315 -0.00092 0.73694
 C301 C 0.26724 -0.02545 0.76726
 C302 C 0.23276 0.02359 0.73298
 C303 C 0.23276 -0.02545 0.73295
 C304 C 0.26721 0.02359 0.76731
 O305 O 0.24816 0.27341 0.98199
 O306 O 0.27394 0.24766 1.01855
 O307 O 0.27394 0.24762 0.98201
 O308 O 0.24814 0.27343 1.01852
 O309 O 0.22622 0.25149 1.01852
 O310 O 0.25201 0.22568 0.98201
 O311 O 0.25201 0.22572 1.01855
 O312 O 0.22623 0.25147 0.98198
 Cu313 Cu 0.26326 0.26274 1.00026
 Cu314 Cu 0.23691 0.23637 1.00026
 C315 C 0.23289 0.26675 0.97576
 C316 C 0.26728 0.23239 1.02478
 C317 C 0.26729 0.23233 0.97579
 C318 C 0.23287 0.26677 1.02474
 O319 O 0.27354 0.74851 0.51815
 O320 O 0.24772 0.77431 0.48165
 O321 O 0.24771 0.77425 0.51819
 O322 O 0.27355 0.74858 0.48162
 O323 O 0.25165 0.72660 0.48156
 O324 O 0.22582 0.75228 0.51814
 O325 O 0.22583 0.75234 0.48160
 O326 O 0.25164 0.72654 0.51810
 Cu327 Cu 0.26284 0.76363 0.49991
 Cu328 Cu 0.23653 0.73722 0.49984
 C329 C 0.26691 0.73321 0.52434
 C330 C 0.23246 0.76764 0.47541
 C331 C 0.23245 0.76755 0.52440
 C332 C 0.26692 0.73329 0.47536
 O333 O 0.22644 0.74812 -0.01844
 O334 O 0.25209 0.77407 0.01810
 O335 O 0.25218 0.77395 -0.01844
 O336 O 0.22634 0.74824 0.01810
 O337 O 0.24829 0.72634 0.01823
 O338 O 0.27414 0.75206 -0.01831
 O339 O 0.27405 0.75217 0.01823
 O340 O 0.24840 0.72622 -0.01831
 Cu341 Cu 0.23705 0.76330 -0.00018
 Cu342 Cu 0.26344 0.73699 -0.00002
 C343 C 0.23314 0.73283 -0.02460
 C344 C 0.26736 0.76746 0.02439
 C345 C 0.26748 0.76730 -0.02460
 C346 C 0.23299 0.73299 0.02439
 O347 O 0.27358 0.25161 0.48187
 O348 O 0.24783 0.22572 0.51835
 O349 O 0.24781 0.22581 0.48181
 O350 O 0.27359 0.25154 0.51841
 O351 O 0.25165 0.27345 0.51847
 O352 O 0.22587 0.24772 0.48187
 O353 O 0.22589 0.24764 0.51841
 O354 O 0.25164 0.27352 0.48193
 Cu355 Cu 0.26292 0.23646 0.50011
 Cu356 Cu 0.23655 0.26279 0.50017
 C357 C 0.26692 0.26689 0.47569
 C358 C 0.23255 0.23235 0.52460
 C359 C 0.23253 0.23247 0.47560
 C360 C 0.26694 0.26680 0.52467
 O361 O 0.75215 0.72627 0.98205
 O362 O 0.72630 0.75195 1.01861
 O363 O 0.72636 0.75204 0.98207
 O364 O 0.75209 0.72618 1.01859
 O365 O 0.77401 0.74812 1.01869
 O366 O 0.74828 0.77398 0.98218
 O367 O 0.74822 0.77389 1.01871
 O368 O 0.77407 0.74821 0.98215
 Cu369 Cu 0.73701 0.73689 1.00032
 Cu370 Cu 0.76336 0.76326 1.00044
 C371 C 0.76743 0.73294 0.97588
 C372 C 0.73294 0.76721 1.02489
 C373 C 0.73302 0.76734 0.97591
 C374 C 0.76735 0.73282 1.02486
 O375 O 0.74809 0.27372 0.48133
 O376 O 0.77376 0.24788 0.51791
 O377 O 0.77383 0.24789 0.48137
 O378 O 0.74804 0.27371 0.51787
 O379 O 0.72607 0.25182 0.51782
 O380 O 0.75186 0.22600 0.48131
 O381 O 0.75179 0.22598 0.51785
 O382 O 0.72612 0.25182 0.48128
 Cu383 Cu 0.76315 0.26301 0.49962
 Cu384 Cu 0.73674 0.23669 0.49956
 C385 C 0.73281 0.26709 0.47508
 C386 C 0.76707 0.23261 0.52411
 C387 C 0.76716 0.23263 0.47512
 C388 C 0.73274 0.26708 0.52407
 O389 O 0.72599 0.24815 -0.01853
 O390 O 0.75186 0.27384 0.01805
 O391 O 0.75177 0.27395 -0.01849
 O392 O 0.72606 0.24805 0.01801
 O393 O 0.74798 0.22612 0.01791
 O394 O 0.77369 0.25202 -0.01860
 O395 O 0.77378 0.25191 0.01794
 O396 O 0.74791 0.22622 -0.01863
 Cu397 Cu 0.73671 0.26321 -0.00023
 Cu398 Cu 0.76305 0.23685 -0.00036
 C399 C 0.73263 0.23289 -0.02481
 C400 C 0.76715 0.26717 0.02422
 C401 C 0.76703 0.26731 -0.02476
 C402 C 0.73272 0.23276 0.02417
 O403 O 0.77409 0.75195 0.48209
 O404 O 0.74823 0.72628 0.51865
 O405 O 0.74827 0.72619 0.48211
 O406 O 0.77404 0.75205 0.51863
 O407 O 0.75213 0.77400 0.51854
 O408 O 0.72637 0.74814 0.48203
 O409 O 0.72633 0.74823 0.51857
 O410 O 0.75218 0.77390 0.48200
 Cu411 Cu 0.76337 0.73690 0.50038
 Cu412 Cu 0.73704 0.76328 0.50028
 C413 C 0.76746 0.76721 0.47581
 C414 C 0.73295 0.73296 0.52483
 C415 C 0.73301 0.73285 0.47584
 C416 C 0.76739 0.76735 0.52480
 O417 O 0.98234 0.25160 0.22600
 O418 O 1.01890 0.22583 0.25179
 O419 O 0.98232 0.22583 0.25176
 O420 O 1.01891 0.25161 0.22603
 O421 O 1.01890 0.27355 0.24794
 O422 O 0.98231 0.24777 0.27367
 O423 O 1.01888 0.24777 0.27370
 O424 O 0.98232 0.27354 0.24790
 Cu425 Cu 1.00062 0.23650 0.23669
 Cu426 Cu 1.00060 0.26287 0.26301
 C427 C 0.97610 0.26688 0.23264
 C428 C 1.02512 0.23250 0.26706
 C429 C 0.97608 0.23249 0.26702
 C430 C 1.02513 0.26690 0.23268
 O431 O 0.51845 0.27340 0.74816
 O432 O 0.48194 0.24757 0.77398
 O433 O 0.51852 0.24760 0.77391
 O434 O 0.48187 0.27338 0.74824
 O435 O 0.48183 0.25145 0.72632
 O436 O 0.51848 0.22568 0.75198
 O437 O 0.48190 0.22565 0.75206
 O438 O 0.51841 0.25148 0.72624
 Cu439 Cu 0.50020 0.26270 0.76329
 Cu440 Cu 0.50015 0.23635 0.73694
 C441 C 0.52464 0.26676 0.73289
 C442 C 0.47571 0.23230 0.76734
 C443 C 0.52474 0.23233 0.76724
 C444 C 0.47561 0.26673 0.73299
 O445 O -0.01841 0.27374 0.75185
 O446 O 0.01813 0.24780 0.72621
 O447 O -0.01845 0.24789 0.72615
 O448 O 0.01816 0.27364 0.75192
 O449 O 0.01807 0.25176 0.77387
 O450 O -0.01854 0.22601 0.74810
 O451 O 0.01803 0.22592 0.74816
 O452 O -0.01851 0.25186 0.77380
 Cu453 Cu -0.00013 0.26298 0.73682
 Cu454 Cu -0.00024 0.23668 0.76320
 C455 C -0.02468 0.26714 0.76711
 C456 C 0.02430 0.23252 0.73290
 C457 C -0.02473 0.23264 0.73282
 C458 C 0.02435 0.26701 0.76721
 O459 O 0.51786 0.24774 0.22587
 O460 O 0.48137 0.27353 0.25173
 O461 O 0.51795 0.27357 0.25160
 O462 O 0.48129 0.24771 0.22600
 O463 O 0.48139 0.22581 0.24793
 O464 O 0.51805 0.25167 0.27353
 O465 O 0.48147 0.25163 0.27366
 O466 O 0.51796 0.22584 0.24780
 Cu467 Cu 0.49961 0.26285 0.23659
 Cu468 Cu 0.49973 0.23653 0.26294
 C469 C 0.52413 0.23248 0.23251
 C470 C 0.47521 0.26690 0.26702
 C471 C 0.52424 0.26694 0.26684
 C472 C 0.47509 0.23244 0.23269
 O473 O 0.98216 0.75234 0.72622
 O474 O 1.01873 0.72642 0.75183
 O475 O 0.98216 0.72650 0.75192
 O476 O 1.01874 0.75227 0.72615
 O477 O 1.01884 0.77415 0.74811
 O478 O 0.98226 0.74838 0.77388
 O479 O 1.01884 0.74830 0.77380
 O480 O 0.98226 0.77422 0.74818
 Cu481 Cu 1.00044 0.73717 0.73681
 Cu482 Cu 1.00056 0.76347 0.76321
 C483 C 0.97598 0.76761 0.73292
 C484 C 1.02501 0.73302 0.76710
 C485 C 0.97598 0.73313 0.76721
 C486 C 1.02502 0.76752 0.73282
 O487 O 0.48204 0.75256 0.22604
 O488 O 0.51857 0.72671 0.25181
 O489 O 0.48199 0.72676 0.25179
 O490 O 0.51862 0.75251 0.22606
 O491 O 0.51865 0.77443 0.24798
 O492 O 0.48202 0.74869 0.27370
 O493 O 0.51860 0.74864 0.27373
 O494 O 0.48207 0.77448 0.24796
 Cu495 Cu 0.50030 0.73742 0.23671
 Cu496 Cu 0.50034 0.76377 0.26305
 C497 C 0.47583 0.76784 0.23269
 C498 C 0.52480 0.73335 0.26708
 C499 C 0.47577 0.73342 0.26705
 C500 C 0.52487 0.76777 0.23272
 O501 O 0.01773 0.75191 0.27370
 O502 O -0.01884 0.72601 0.24802
 O503 O 0.01774 0.72612 0.24794
 O504 O -0.01884 0.75180 0.27379
 O505 O -0.01896 0.77373 0.25188
 O506 O 0.01762 0.74805 0.22604
 O507 O -0.01895 0.74794 0.22612
 O508 O 0.01762 0.77384 0.25180
 Cu509 Cu -0.00054 0.73675 0.26307
 Cu510 Cu -0.00068 0.76310 0.23675
 C511 C 0.02390 0.76721 0.26705
 C512 C -0.02513 0.73264 0.23278
 C513 C 0.02391 0.73280 0.23267
 C514 C -0.02513 0.76706 0.26716
 O515 O 0.51805 0.75243 0.77423
 O516 O 0.48152 0.72667 0.74836
 O517 O 0.51809 0.72664 0.74846
 O518 O 0.48147 0.75245 0.77413
 O519 O 0.48154 0.77438 0.75223
 O520 O 0.51816 0.74858 0.72656
 O521 O 0.48159 0.74860 0.72646
 O522 O 0.51812 0.77436 0.75233
 Cu523 Cu 0.49977 0.73733 0.76350
 Cu524 Cu 0.49986 0.76369 0.73719
 C525 C 0.52431 0.76770 0.76760
 C526 C 0.47533 0.73332 0.73308
 C527 C 0.52436 0.73329 0.73322
 C528 C 0.47527 0.76773 0.76747
 C529 C 0.42823 0.29230 0.31547
 C530 C 0.42548 0.31383 0.31671
 C531 C 0.40474 0.31122 0.31147
 C532 C 0.40725 0.28984 0.31039
 C533 C 0.43280 0.29433 0.29454
 C534 C 0.41206 0.29173 0.28932
 C535 C 0.43031 0.31570 0.29562
 C536 C 0.40932 0.31324 0.29054
 C537 C 0.38890 0.32045 0.32072
 C538 C 0.37566 0.32786 0.32815
 C539 C 0.44821 0.28474 0.28493
 C540 C 0.46066 0.27669 0.27684
 H541 H 0.43617 0.28358 0.32561
 H542 H 0.43081 0.32302 0.32807
 H543 H 0.39759 0.27931 0.31656
 H544 H 0.40670 0.28255 0.27796
 H545 H 0.43996 0.32622 0.28943
 H546 H 0.40138 0.32195 0.28039
 C547 C 0.42802 0.79311 0.81566
 C548 C 0.42519 0.81463 0.81684
 C549 C 0.40449 0.81194 0.81153
 C550 C 0.40707 0.79057 0.81050
 C551 C 0.43267 0.79511 0.79474
 C552 C 0.41196 0.79244 0.78945
 C553 C 0.43010 0.81648 0.79577
 C554 C 0.40915 0.81394 0.79061
 C555 C 0.38857 0.82112 0.82070
 C556 C 0.37528 0.82849 0.82807
 C557 C 0.44815 0.78556 0.78522
 C558 C 0.46066 0.77751 0.77721
 H559 H 0.43596 0.78444 0.82585
 H560 H 0.43045 0.82387 0.82821
 H561 H 0.39743 0.78002 0.81665
 H562 H 0.40669 0.78321 0.77808
 H563 H 0.43975 0.82703 0.78960
 H564 H 0.40121 0.82260 0.78042
 C565 C -0.07180 0.29276 0.81530
 C566 C -0.07453 0.31430 0.81646
 C567 C -0.09525 0.31171 0.81116
 C568 C -0.09277 0.29033 0.81014
 C569 C -0.06715 0.29473 0.79438
 C570 C -0.08788 0.29215 0.78909
 C571 C -0.06962 0.31611 0.79538
 C572 C -0.09059 0.31367 0.79024
 C573 C -0.11111 0.32097 0.82034
 C574 C -0.12436 0.32840 0.82772
 C575 C -0.05172 0.28509 0.78485
 C576 C -0.03925 0.27699 0.77684
 H577 H -0.06390 0.28406 0.82549
 H578 H -0.06922 0.32352 0.82782
 H579 H -0.10246 0.27983 0.81631
 H580 H -0.09320 0.28294 0.77774
 H581 H -0.05992 0.32660 0.78921
 H582 H -0.09848 0.32236 0.78004
 C583 C -0.07219 0.79236 0.31558
 C584 C -0.07497 0.81389 0.31683
 C585 C -0.09570 0.81126 0.31158
 C586 C -0.09317 0.78989 0.31049
 C587 C -0.06761 0.79440 0.29466
 C588 C -0.08834 0.79179 0.28943
 C589 C -0.07012 0.81577 0.29574
 C590 C -0.09110 0.81330 0.29065
 C591 C -0.11155 0.82048 0.32082
 C592 C -0.12480 0.82789 0.32823
 C593 C -0.05218 0.78485 0.28505
 C594 C -0.03971 0.77681 0.27697
 H595 H -0.06425 0.78364 0.32573
 H596 H -0.06965 0.82308 0.32820
 H597 H -0.10282 0.77935 0.31665
 H598 H -0.09368 0.78261 0.27806
 H599 H -0.06047 0.82631 0.28957
 H600 H -0.09905 0.82201 0.28050
 C601 C 0.58502 0.69886 0.28455
 C602 C 0.59701 0.70743 0.30049
 C603 C 0.59531 0.68892 0.31136
 C604 C 0.58356 0.68020 0.29556
 C605 C 0.56724 0.70585 0.29449
 C606 C 0.56552 0.68734 0.30536
 C607 C 0.57900 0.71457 0.31029
 C608 C 0.57754 0.69591 0.32131
 C609 C 0.61116 0.67967 0.32058
 C610 C 0.62440 0.67224 0.32798
 C611 C 0.55182 0.71546 0.28491
 C612 C 0.53936 0.72354 0.27686
 H613 H 0.58793 0.70018 0.26934
 H614 H 0.61012 0.71560 0.29858
 H615 H 0.58560 0.66596 0.28961
 H616 H 0.55239 0.67919 0.30725
 H617 H 0.57696 0.72881 0.31624
 H618 H 0.57464 0.69459 0.33653
 C619 C 0.56832 0.20104 0.81566
 C620 C 0.57525 0.18089 0.81135
 C621 C 0.59553 0.18815 0.81133
 C622 C 0.58886 0.20814 0.81578
 C623 C 0.56735 0.20497 0.79452
 C624 C 0.58764 0.21221 0.79451
 C625 C 0.57402 0.18497 0.79006
 C626 C 0.59455 0.19208 0.79019
 C627 C 0.61144 0.17896 0.82051
 C628 C 0.62473 0.17159 0.82789
 C629 C 0.55187 0.21452 0.78499
 C630 C 0.53936 0.22256 0.77697
 H631 H 0.55735 0.20483 0.82602
 H632 H 0.57033 0.16790 0.81838
 H633 H 0.59513 0.21756 0.82646
 H634 H 0.59257 0.22519 0.78748
 H635 H 0.56775 0.17556 0.77938
 H636 H 0.60551 0.18830 0.77981
 C637 C 1.06842 0.70144 0.81548
 C638 C 1.07527 0.68127 0.81113
 C639 C 1.09559 0.68844 0.81114
 C640 C 1.08899 0.70845 0.81564
 C641 C 1.06749 0.70543 0.79435
 C642 C 1.08782 0.71258 0.79437
 C643 C 1.07408 0.68542 0.78985
 C644 C 1.09464 0.69243 0.79001
 C645 C 1.11144 0.67917 0.82032
 C646 C 1.12469 0.67174 0.82771
 C647 C 1.05206 0.71507 0.78483
 C648 C 1.03959 0.72317 0.77683
 H649 H 1.05747 0.70526 0.82584
 H650 H 1.07029 0.66829 0.81812
 H651 H 1.09530 0.71782 0.82634
 H652 H 1.09281 0.72555 0.78738
 H653 H 1.06778 0.67605 0.77914
 H654 H 1.10559 0.68863 0.77964
 C655 C 1.08224 0.19283 0.28451
 C656 C 1.09791 0.20285 0.29571
 C657 C 1.09573 0.18823 0.31136
 C658 C 1.08029 0.17805 0.30030
 C659 C 1.06761 0.20509 0.29448
 C660 C 1.06540 0.19047 0.31013
 C661 C 1.08306 0.21526 0.30554
 C662 C 1.08111 0.20049 0.32134
 C663 C 1.11160 0.17901 0.32057
 C664 C 1.12486 0.17161 0.32798
 C665 C 1.05217 0.21467 0.28490
 C666 C 1.03970 0.22272 0.27685
 H667 H 1.08254 0.18978 0.26926
 H668 H 1.11145 0.20784 0.28987
 H669 H 1.07932 0.16265 0.29825
 H670 H 1.05186 0.18549 0.31595
 H671 H 1.08404 0.23066 0.30759
 H672 H 1.08082 0.20354 0.33658
 C673 C 0.58774 0.29222 0.71112
 C674 C 0.59301 0.28977 0.69022
 C675 C 0.59513 0.31114 0.68851
 C676 C 0.59009 0.31373 0.70928
 C677 C 0.56706 0.29423 0.70542
 C678 C 0.56917 0.31560 0.70372
 C679 C 0.57210 0.29163 0.68466
 C680 C 0.57446 0.31316 0.68280
 C681 C 0.61098 0.32038 0.67928
 C682 C 0.62422 0.32781 0.67187
 C683 C 0.55165 0.28463 0.71501
 C684 C 0.53920 0.27656 0.72308
 H685 H 0.59304 0.28351 0.72286
 H686 H 0.60299 0.27924 0.68457
 H687 H 0.59766 0.32292 0.71930
 H688 H 0.55919 0.32612 0.70938
 H689 H 0.56452 0.28244 0.67464
 H690 H 0.56918 0.32188 0.67105
 C691 C 0.56545 0.80818 0.18840
 C692 C 0.57914 0.82218 0.19784
 C693 C 0.59565 0.81192 0.18857
 C694 C 0.58222 0.79808 0.17897
 C695 C 0.56747 0.79511 0.20539
 C696 C 0.58398 0.78487 0.19611
 C697 C 0.58090 0.80896 0.21497
 C698 C 0.59764 0.79885 0.20555
 C699 C 0.61156 0.82110 0.17938
 C700 C 0.62485 0.82848 0.17200
 C701 C 0.55199 0.78557 0.21493
 C702 C 0.53949 0.77754 0.22296
 H703 H 0.55203 0.81191 0.18145
 H704 H 0.57733 0.83763 0.19845
 H705 H 0.58293 0.79371 0.16406
 H706 H 0.58581 0.76942 0.19549
 H707 H 0.58019 0.81333 0.22988
 H708 H 0.61105 0.79511 0.21251
 C709 C 1.08830 0.29234 0.21105
 C710 C 1.09361 0.28989 0.19017
 C711 C 1.09574 0.31126 0.18847
 C712 C 1.09065 0.31385 0.20922
 C713 C 1.06763 0.29435 0.20531
 C714 C 1.06974 0.31573 0.20362
 C715 C 1.07271 0.29175 0.18456
 C716 C 1.07508 0.31328 0.18271
 C717 C 1.11160 0.32050 0.17926
 C718 C 1.12485 0.32793 0.17187
 C719 C 1.05219 0.28476 0.21487
 C720 C 1.03972 0.27669 0.22291
 H721 H 1.09357 0.28363 0.22281
 H722 H 1.10360 0.27936 0.18454
 H723 H 1.09820 0.32304 0.21926
 H724 H 1.05975 0.32624 0.20926
 H725 H 1.06516 0.28256 0.17453
 H726 H 1.06982 0.32200 0.17094
 C727 C 1.08665 0.78578 0.70151
 C728 C 1.08611 0.79387 0.68139
 C729 C 1.09568 0.81178 0.68860
 C730 C 1.09646 0.80382 0.70858
 C731 C 1.06754 0.79492 0.70544
 C732 C 1.07712 0.81282 0.71265
 C733 C 1.06675 0.80287 0.68546
 C734 C 1.07658 0.82094 0.69252
 C735 C 1.11157 0.82099 0.67940
 C736 C 1.12484 0.82838 0.67201
 C737 C 1.05209 0.78535 0.71500
 C738 C 1.03961 0.77730 0.72304
 H739 H 1.09063 0.77122 0.70532
 H740 H 1.08998 0.78618 0.66843
 H741 H 1.10884 0.80430 0.71799
 H742 H 1.07325 0.82051 0.72561
 H743 H 1.05436 0.80237 0.67606
 H744 H 1.07263 0.83550 0.68871
 C745 C 0.43452 0.68727 0.69490
 C746 C 0.41634 0.68039 0.70461
 C747 C 0.40480 0.68904 0.68862
 C748 C 0.42272 0.69577 0.67875
 C749 C 0.43288 0.70592 0.70556
 C750 C 0.42133 0.71456 0.68958
 C751 C 0.41495 0.69918 0.71541
 C752 C 0.40318 0.70768 0.69929
 C753 C 0.38895 0.67981 0.67937
 C754 C 0.37570 0.67239 0.67195
 C755 C 0.44830 0.71549 0.71517
 C756 C 0.46076 0.72354 0.72326
 H757 H 0.44759 0.67899 0.69320
 H758 H 0.41412 0.66624 0.71068
 H759 H 0.42573 0.69426 0.66357
 H760 H 0.42355 0.72872 0.68350
 H761 H 0.41192 0.70068 0.73059
 H762 H 0.39012 0.71597 0.70100
 C763 C 0.43434 0.19279 0.18781
 C764 C 0.42140 0.17792 0.19697
 C765 C 0.40429 0.18807 0.18873
 C766 C 0.41697 0.20279 0.17942
 C767 C 0.43248 0.20496 0.20548
 C768 C 0.41536 0.21510 0.19723
 C769 C 0.41980 0.19025 0.21478
 C770 C 0.40245 0.20025 0.20639
 C771 C 0.38838 0.17885 0.17957
 C772 C 0.37509 0.17146 0.17221
 C773 C 0.44796 0.21456 0.21498
 C774 C 0.46047 0.22263 0.22298
 H775 H 0.44764 0.18984 0.18029
 H776 H 0.42371 0.16253 0.19677
 H777 H 0.41563 0.20784 0.16477
 H778 H 0.41304 0.23049 0.19743
 H779 H 0.42113 0.18519 0.22943
 H780 H 0.38917 0.20322 0.21393
 C781 C -0.08557 0.71497 0.19877
 C782 C -0.08421 0.70416 0.18000
 C783 C -0.09575 0.68816 0.18866
 C784 C -0.09733 0.69884 0.20728
 C785 C -0.06763 0.70510 0.20547
 C786 C -0.07917 0.68910 0.21412
 C787 C -0.06602 0.69442 0.18684
 C788 C -0.07782 0.67827 0.19535
 C789 C -0.11162 0.67890 0.17946
 C790 C -0.12488 0.67148 0.17207
 C791 C -0.05219 0.71472 0.21501
 C792 C -0.03971 0.72281 0.22303
 H793 H -0.08859 0.73017 0.20029
 H794 H -0.08646 0.71024 0.16587
 H795 H -0.11038 0.70055 0.21559
 H796 H -0.07693 0.68301 0.22826
 H797 H -0.05297 0.69272 0.17855
 H798 H -0.07482 0.66307 0.19383
 C799 C -0.08519 0.21517 0.69874
 C800 C -0.08385 0.20437 0.67996
 C801 C -0.09543 0.18839 0.68859
 C802 C -0.09699 0.19905 0.70723
 C803 C -0.06728 0.20525 0.70543
 C804 C -0.07885 0.18927 0.71406
 C805 C -0.06569 0.19459 0.68679
 C806 C -0.07752 0.17845 0.69527
 C807 C -0.11131 0.17917 0.67939
 C808 C -0.12459 0.17178 0.67200
 C809 C -0.05182 0.21482 0.71499
 C810 C -0.03933 0.22287 0.72304
 H811 H -0.08818 0.23037 0.70027
 H812 H -0.08608 0.21048 0.66583
 H813 H -0.11004 0.20078 0.71553
 H814 H -0.07663 0.18316 0.72819
 H815 H -0.05263 0.19287 0.67850
 H816 H -0.07455 0.16325 0.69374
 C817 C 0.28839 0.42499 0.31374
 C818 C 0.29055 0.40498 0.30556
 C819 C 0.31123 0.40501 0.31162
 C820 C 0.30921 0.42478 0.31994
 C821 C 0.29439 0.43314 0.29474
 C822 C 0.31507 0.43319 0.30079
 C823 C 0.29641 0.41336 0.28643
 C824 C 0.31723 0.41316 0.29262
 C825 C 0.32043 0.38913 0.32083
 C826 C 0.32781 0.37586 0.32822
 C827 C 0.28483 0.44858 0.28516
 C828 C 0.27679 0.46106 0.27709
 H829 H 0.27642 0.43002 0.32231
 H830 H 0.28057 0.39322 0.30762
 H831 H 0.31458 0.42929 0.33383
 H832 H 0.32504 0.44496 0.29871
 H833 H 0.29105 0.40883 0.27255
 H834 H 0.32919 0.40812 0.28404
 C835 C 0.28886 -0.07609 0.81360
 C836 C 0.29108 -0.09608 0.80542
 C837 C 0.31177 -0.09598 0.81142
 C838 C 0.30971 -0.07622 0.81975
 C839 C 0.29479 -0.06791 0.79459
 C840 C 0.31548 -0.06779 0.80058
 C841 C 0.29686 -0.08768 0.78628
 C842 C 0.31769 -0.08780 0.79241
 C843 C 0.32105 -0.11182 0.82061
 C844 C 0.32850 -0.12506 0.82801
 C845 C 0.28515 -0.05249 0.78505
 C846 C 0.27706 -0.04002 0.77702
 H847 H 0.27690 -0.07110 0.82221
 H848 H 0.28115 -0.10789 0.80750
 H849 H 0.31510 -0.07170 0.83362
 H850 H 0.32540 -0.05598 0.79849
 H851 H 0.29147 -0.09222 0.77241
 H852 H 0.32965 -0.09280 0.78379
 C853 C 0.78879 0.42465 0.81370
 C854 C 0.79097 0.40466 0.80549
 C855 C 0.81164 0.40468 0.81156
 C856 C 0.80962 0.42443 0.81992
 C857 C 0.79481 0.43284 0.79472
 C858 C 0.81548 0.43287 0.80079
 C859 C 0.79684 0.41308 0.78638
 C860 C 0.81765 0.41287 0.79259
 C861 C 0.82082 0.38879 0.82076
 C862 C 0.82820 0.37550 0.82815
 C863 C 0.78526 0.44830 0.78517
 C864 C 0.77722 0.46080 0.77714
 H865 H 0.77682 0.42967 0.82227
 H866 H 0.78098 0.39289 0.80752
 H867 H 0.81497 0.42892 0.83382
 H868 H 0.82546 0.44465 0.79875
 H869 H 0.79149 0.40857 0.77249
 H870 H 0.82962 0.40784 0.78401
 C871 C 0.78859 -0.07562 0.31329
 C872 C 0.79082 -0.09562 0.30512
 C873 C 0.81149 -0.09553 0.31117
 C874 C 0.80942 -0.07577 0.31950
 C875 C 0.79457 -0.06745 0.29430
 C876 C 0.81525 -0.06734 0.30034
 C877 C 0.79665 -0.08722 0.28599
 C878 C 0.81747 -0.08736 0.29217
 C879 C 0.82074 -0.11138 0.32039
 C880 C 0.82817 -0.12462 0.32780
 C881 C 0.78496 -0.05204 0.28472
 C882 C 0.77689 -0.03957 0.27667
 H883 H 0.77661 -0.07062 0.32187
 H884 H 0.78087 -0.10742 0.30719
 H885 H 0.81478 -0.07124 0.33338
 H886 H 0.82518 -0.05554 0.29826
 H887 H 0.79129 -0.09177 0.27211
 H888 H 0.82944 -0.09236 0.28359
 C889 C 0.30984 0.56491 0.69055
 C890 C 0.29990 0.57996 0.67844
 C891 C 0.31126 0.59524 0.68853
 C892 C 0.32134 0.58045 0.70049
 C893 C 0.29444 0.56712 0.70544
 C894 C 0.30580 0.58240 0.71552
 C895 C 0.28436 0.58192 0.69348
 C896 C 0.29586 0.59743 0.70342
 C897 C 0.32044 0.61112 0.67930
 C898 C 0.32783 0.62439 0.67190
 C899 C 0.28490 0.55167 0.71504
 C900 C 0.27687 0.53919 0.72312
 H901 H 0.31548 0.55136 0.68537
 H902 H 0.29758 0.57914 0.66308
 H903 H 0.33665 0.58002 0.70328
 H904 H 0.30812 0.58323 0.73088
 H905 H 0.26906 0.58235 0.69069
 H906 H 0.29021 0.61097 0.70862
 C907 C 0.28459 1.08309 0.19443
 C908 C 0.29681 1.09806 0.20434
 C909 C 0.31165 1.09584 0.18890
 C910 C 0.29957 1.08110 0.17884
 C911 C 0.29466 1.06776 0.20571
 C912 C 0.30949 1.06551 0.19027
 C913 C 0.30673 1.08250 0.21576
 C914 C 0.32172 1.08051 0.20018
 C915 C 0.32092 1.11169 0.17971
 C916 C 0.32836 1.12493 0.17231
 C917 C 0.28501 1.05233 0.21524
 C918 C 0.27691 1.03986 0.22325
 H919 H 0.26922 1.08399 0.19217
 H920 H 0.29169 1.11161 0.21003
 H921 H 0.29673 1.08071 0.16356
 H922 H 0.31460 1.05194 0.18460
 H923 H 0.30958 1.08290 0.23104
 H924 H 0.33710 1.07962 0.20244
 C925 C 0.81645 0.57070 0.20548
 C926 C 0.81575 0.57479 0.18416
 C927 C 0.81201 0.59556 0.18852
 C928 C 0.81287 0.59171 0.20968
 C929 C 0.79517 0.56736 0.20529
 C930 C 0.79145 0.58813 0.20964
 C931 C 0.79430 0.57119 0.18413
 C932 C 0.79073 0.59221 0.18834
 C933 C 0.82120 0.61147 0.17936
 C934 C 0.82858 0.62477 0.17200
 C935 C 0.78561 0.55188 0.21481
 C936 C 0.77755 0.53937 0.22282
 H937 H 0.82693 0.56168 0.21263
 H938 H 0.82584 0.56949 0.17358
 H939 H 0.82060 0.60032 0.22008
 H940 H 0.78136 0.59346 0.22021
 H941 H 0.78656 0.56258 0.17374
 H942 H 0.78025 0.60122 0.18120
 C943 C 0.81556 1.07099 0.70543
 C944 C 0.81482 1.07496 0.68409
 C945 C 0.81114 1.09576 0.68834
 C946 C 0.81203 1.09204 0.70952
 C947 C 0.79427 1.06770 0.70530
 C948 C 0.79060 1.08850 0.70953
 C949 C 0.79338 1.07142 0.68412
 C950 C 0.78985 1.09246 0.68822
 C951 C 0.82037 1.11160 0.67908
 C952 C 0.82780 1.12483 0.67165
 C953 C 0.78470 1.05229 0.71493
 C954 C 0.77667 1.03983 0.72302
 H955 H 0.82602 1.06199 0.71262
 H956 H 0.82489 1.06958 0.67352
 H957 H 0.81980 1.10069 0.71986
 H958 H 0.78054 1.09391 0.72009
 H959 H 0.78560 1.06276 0.67378
 H960 H 0.77938 1.10146 0.68104
 C961 C 0.68841 0.56510 0.30680
 C962 C 0.69765 0.57832 0.32138
 C963 C 0.68895 0.59521 0.31124
 C964 C 0.67956 0.58226 0.29681
 C965 C 0.70584 0.56714 0.29431
 C966 C 0.69714 0.58404 0.28419
 C967 C 0.71522 0.58010 0.30874
 C968 C 0.70638 0.59722 0.29875
 C969 C 0.67972 0.61105 0.32049
 C970 C 0.67231 0.62429 0.32792
 C971 C 0.71543 0.55172 0.28471
 C972 C 0.72349 0.53926 0.27665
 H973 H 0.68114 0.55172 0.30999
 H974 H 0.69775 0.57614 0.33677
 H975 H 0.66479 0.58332 0.29201
 H976 H 0.69703 0.58623 0.26880
 H977 H 0.72999 0.57904 0.31354
 H978 H 0.71367 0.61060 0.29554
 C979 C 0.68471 1.06730 0.80163
 C980 C 0.69122 1.07655 0.82018
 C981 C 0.68811 1.09594 0.81134
 C982 C 0.68145 1.08695 0.79294
 C983 C 0.70504 1.06781 0.79455
 C984 C 0.70192 1.08721 0.78572
 C985 C 0.71170 1.07681 0.81294
 C986 C 0.70844 1.09644 0.80425
 C987 C 0.67886 1.11181 0.82052
 C988 C 0.67144 1.12508 0.82789
 C989 C 0.71465 1.05237 0.78502
 C990 C 0.72273 1.03988 0.77700
 H991 H 0.67506 1.05514 0.80044
 H992 H 0.68671 1.07234 0.83446
 H993 H 0.66891 1.09129 0.78482
 H994 H 0.70643 1.09144 0.77145
 H995 H 0.72425 1.07247 0.82106
 H996 H 0.71810 1.10859 0.80542
 C997 C 0.19468 0.58287 0.78458
 C998 C 0.17867 0.58097 0.79912
 C999 C 0.18866 0.59542 0.81159
 C1000 C 0.20452 0.59754 0.79719
 C1001 C 0.20546 0.56724 0.79475
 C1002 C 0.21544 0.58169 0.80723
 C1003 C 0.18960 0.56509 0.80915
 C1004 C 0.19944 0.57980 0.82178
 C1005 C 0.17948 0.61132 0.82079
 C1006 C 0.17210 0.62461 0.82817
 C1007 C 0.21501 0.55177 0.78520
 C1008 C 0.22303 0.53927 0.77716
 H1009 H 0.19283 0.58396 0.76918
 H1010 H 0.16344 0.58085 0.79588
 H1011 H 0.21056 0.61105 0.79237
 H1012 H 0.23067 0.58182 0.81046
 H1013 H 0.18357 0.55157 0.81396
 H1014 H 0.20129 0.57872 0.83718
 C1015 C 0.20786 1.08851 0.28949
 C1016 C 0.18636 1.09139 0.29042
 C1017 C 0.18813 1.09588 0.31140
 C1018 C 0.20950 1.09323 0.31060
 C1019 C 0.20506 1.06776 0.29458
 C1020 C 0.20683 1.07224 0.31555
 C1021 C 0.18369 1.07040 0.29536
 C1022 C 0.18531 1.07514 0.31650
 C1023 C 0.17889 1.11174 0.32060
 C1024 C 0.17147 1.12500 0.32799
 C1025 C 0.21466 1.05233 0.28503
 C1026 C 0.22273 1.03985 0.27700
 H1027 H 0.21724 1.09385 0.27829
 H1028 H 0.17785 1.09944 0.28019
 H1029 H 0.22001 1.10278 0.31697
 H1030 H 0.21536 1.06419 0.32578
 H1031 H 0.17319 1.06084 0.28899
 H1032 H 0.17593 1.06982 0.32771
 C1033 C 0.69060 0.43521 0.69023
 C1034 C 0.70057 0.41984 0.67854
 C1035 C 0.68875 0.40488 0.68856
 C1036 C 0.67863 0.41999 0.70009
 C1037 C 0.70562 0.43297 0.70550
 C1038 C 0.69380 0.41800 0.71551
 C1039 C 0.71573 0.41785 0.69396
 C1040 C 0.70377 0.40266 0.70383
 C1041 C 0.67954 0.38902 0.67931
 C1042 C 0.67213 0.37577 0.67188
 C1043 C 0.71519 0.44840 0.71511
 C1044 C 0.72324 0.46087 0.72319
 H1045 H 0.68530 0.44878 0.68474
 H1046 H 0.70326 0.42042 0.66323
 H1047 H 0.66327 0.42069 0.70250
 H1048 H 0.69111 0.41741 0.73081
 H1049 H 0.73109 0.41714 0.69155
 H1050 H 0.70909 0.38911 0.70933
 C1051 C 0.69006 -0.06544 0.19006
 C1052 C 0.69999 -0.08087 0.17842
 C1053 C 0.68818 -0.09578 0.18853
 C1054 C 0.67810 -0.08061 0.20002
 C1055 C 0.70511 -0.06762 0.20531
 C1056 C 0.69330 -0.08254 0.21541
 C1057 C 0.71518 -0.08280 0.19382
 C1058 C 0.70323 -0.09794 0.20378
 C1059 C 0.67894 -0.11167 0.17937
 C1060 C 0.67152 -0.12495 0.17200
 C1061 C 0.71471 -0.05216 0.21483
 C1062 C 0.72279 -0.03967 0.22283
 H1063 H 0.68475 -0.05190 0.18453
 H1064 H 0.70263 -0.08037 0.16311
 H1065 H 0.66274 -0.07989 0.20247
 H1066 H 0.69065 -0.08305 0.23073
 H1067 H 0.73053 -0.08354 0.19137
 H1068 H 0.70855 -0.11147 0.20933
 C1069 C 0.18488 0.43341 0.19848
 C1070 C 0.19145 0.42415 0.17996
 C1071 C 0.18836 0.40476 0.18882
 C1072 C 0.18164 0.41377 0.20719
 C1073 C 0.20520 0.43295 0.20563
 C1074 C 0.20209 0.41356 0.21447
 C1075 C 0.21192 0.42395 0.18726
 C1076 C 0.20867 0.40433 0.19597
 C1077 C 0.17916 0.38885 0.17964
 C1078 C 0.17179 0.37556 0.17227
 C1079 C 0.21476 0.44843 0.21516
 C1080 C 0.22281 0.46094 0.22318
 H1081 H 0.17520 0.44555 0.19963
 H1082 H 0.18696 0.42833 0.16567
 H1083 H 0.16908 0.40940 0.21528
 H1084 H 0.20657 0.40937 0.22876
 H1085 H 0.22448 0.42831 0.17917
 H1086 H 0.21836 0.39220 0.19484
 C1087 C 0.20908 -0.08872 0.70962
 C1088 C 0.18768 -0.09237 0.70990
 C1089 C 0.18827 -0.09599 0.68869
 C1090 C 0.20953 -0.09257 0.68828
 C1091 C 0.20524 -0.06792 0.70555
 C1092 C 0.20583 -0.07153 0.68434
 C1093 C 0.18397 -0.07133 0.70597
 C1094 C 0.18441 -0.07520 0.68461
 C1095 C 0.17900 -0.11184 0.67948
 C1096 C 0.17155 -0.12508 0.67207
 C1097 C 0.21486 -0.05249 0.71512
 C1098 C 0.22295 -0.04003 0.72317
 H1099 H 0.21933 -0.09412 0.72001
 H1100 H 0.18011 -0.10111 0.72031
 H1101 H 0.21995 -0.10148 0.68090
 H1102 H 0.21341 -0.06278 0.67394
 H1103 H 0.17357 -0.06242 0.71336
 H1104 H 0.17415 -0.06982 0.67422
 C1105 C 0.31315 0.28819 0.42487
 C1106 C 0.30481 0.29069 0.40499
 C1107 C 0.31118 0.31128 0.40518
 C1108 C 0.31967 0.30893 0.42482
 C1109 C 0.29431 0.29438 0.43326
 C1110 C 0.30067 0.31497 0.43347
 C1111 C 0.28584 0.29674 0.41361
 C1112 C 0.29233 0.31747 0.41357
 C1113 C 0.32039 0.32050 0.38932
 C1114 C 0.32779 0.32791 0.37608
 C1115 C 0.28474 0.28479 0.44868
 C1116 C 0.27669 0.27672 0.46113
 H1117 H 0.32161 0.27605 0.42968
 H1118 H 0.30661 0.28081 0.39311
 H1119 H 0.33369 0.31405 0.42924
 H1120 H 0.29886 0.32484 0.44535
 H1121 H 0.27182 0.29163 0.40917
 H1122 H 0.28387 0.32961 0.40875
 C1123 C 0.31373 0.78840 -0.07552
 C1124 C 0.30536 0.79085 -0.09539
 C1125 C 0.31173 0.81143 -0.09527
 C1126 C 0.32025 0.80914 -0.07564
 C1127 C 0.29490 0.79462 -0.06712
 C1128 C 0.30126 0.81520 -0.06698
 C1129 C 0.28640 0.79693 -0.08676
 C1130 C 0.29290 0.81765 -0.08687
 C1131 C 0.32091 0.82062 -0.11116
 C1132 C 0.32828 0.82801 -0.12444
 C1133 C 0.28534 0.78508 -0.05166
 C1134 C 0.27729 0.77705 -0.03918
 H1135 H 0.32219 0.77626 -0.07069
 H1136 H 0.30714 0.78093 -0.10725
 H1137 H 0.33428 0.81426 -0.07125
 H1138 H 0.29947 0.82511 -0.05511
 H1139 H 0.27237 0.79181 -0.09117
 H1140 H 0.28444 0.82978 -0.09170
 C1141 C 0.81319 0.28870 -0.07563
 C1142 C 0.80482 0.29119 -0.09549
 C1143 C 0.81115 0.31179 -0.09530
 C1144 C 0.81967 0.30945 -0.07567
 C1145 C 0.79434 0.29485 -0.06721
 C1146 C 0.80066 0.31545 -0.06700
 C1147 C 0.78584 0.29720 -0.08685
 C1148 C 0.79230 0.31794 -0.08689
 C1149 C 0.82034 0.32104 -0.11116
 C1150 C 0.82772 0.32845 -0.12441
 C1151 C 0.78481 0.28523 -0.05179
 C1152 C 0.77679 0.27714 -0.03933
 H1153 H 0.82168 0.27657 -0.07082
 H1154 H 0.80663 0.28132 -0.10738
 H1155 H 0.83368 0.31459 -0.07126
 H1156 H 0.79884 0.32531 -0.05511
 H1157 H 0.77183 0.29206 -0.09128
 H1158 H 0.78381 0.33007 -0.09169
 C1159 C 0.81371 0.78815 0.42484
 C1160 C 0.80534 0.79058 0.40497
 C1161 C 0.81175 0.81115 0.40505
 C1162 C 0.82028 0.80887 0.42469
 C1163 C 0.79490 0.79443 0.43324
 C1164 C 0.80131 0.81500 0.43334
 C1165 C 0.78639 0.79671 0.41360
 C1166 C 0.79294 0.81742 0.41345
 C1167 C 0.82095 0.82028 0.38914
 C1168 C 0.82832 0.82762 0.37584
 C1169 C 0.78532 0.78493 0.44872
 C1170 C 0.77726 0.77694 0.46122
 H1171 H 0.82215 0.77600 0.42970
 H1172 H 0.80709 0.78063 0.39314
 H1173 H 0.83432 0.81397 0.42906
 H1174 H 0.79954 0.82493 0.44519
 H1175 H 0.77236 0.79161 0.40921
 H1176 H 0.78450 0.82956 0.40859
 C1177 C 0.69796 0.28444 0.58410
 C1178 C 0.70680 0.29998 0.59642
 C1179 C 0.68858 0.31135 0.59472
 C1180 C 0.67960 0.29595 0.58262
 C1181 C 0.70539 0.29449 0.56657
 C1182 C 0.68717 0.30586 0.56484
 C1183 C 0.71437 0.30990 0.57867
 C1184 C 0.69600 0.32142 0.57720
 C1185 C 0.67940 0.32055 0.61060
 C1186 C 0.67203 0.32793 0.62388
 C1187 C 0.71493 0.28492 0.55112
 C1188 C 0.72297 0.27687 0.53864
 H1189 H 0.69887 0.26913 0.58677
 H1190 H 0.71477 0.29766 0.60957
 H1191 H 0.66520 0.29032 0.58443
 H1192 H 0.67921 0.30817 0.55168
 H1193 H 0.72877 0.31553 0.57687
 H1194 H 0.69509 0.33673 0.57454
 C1195 C 0.71470 0.79886 1.08632
 C1196 C 0.70619 0.81883 1.08564
 C1197 C 0.68854 0.81136 1.09547
 C1198 C 0.69692 0.79153 1.09637
 C1199 C 0.70545 0.79453 1.06737
 C1200 C 0.68780 0.78706 1.07719
 C1201 C 0.69708 0.81436 1.06644
 C1202 C 0.67927 0.80703 1.07653
 C1203 C 0.67931 0.82056 1.11133
 C1204 C 0.67191 0.82796 1.12458
 C1205 C 0.71505 0.78498 1.05194
 C1206 C 0.72312 0.77696 1.03946
 H1207 H 0.72938 0.79540 1.09018
 H1208 H 0.71365 0.83200 1.08929
 H1209 H 0.69676 0.78225 1.10885
 H1210 H 0.68034 0.77389 1.07355
 H1211 H 0.69725 0.82363 1.05396
 H1212 H 0.66459 0.81050 1.07268
 C1213 C 0.19860 0.31460 1.06684
 C1214 C 0.17985 0.30823 1.07579
 C1215 C 0.18852 0.31100 1.09530
 C1216 C 0.20712 0.31752 1.08660
 C1217 C 0.20542 0.29417 1.06720
 C1218 C 0.21408 0.29695 1.08671
 C1219 C 0.18682 0.28765 1.07589
 C1220 C 0.19535 0.29057 1.09563
 C1221 C 0.17929 0.32020 1.11116
 C1222 C 0.17188 0.32759 1.12441
 C1223 C 0.21501 0.28461 1.05177
 C1224 C 0.22307 0.27656 1.03930
 H1225 H 0.20005 0.32437 1.05482
 H1226 H 0.16566 0.31297 1.07148
 H1227 H 0.21536 0.32991 1.09119
 H1228 H 0.22826 0.29221 1.09104
 H1229 H 0.17858 0.27526 1.07131
 H1230 H 0.19391 0.28079 1.10764
 C1231 C 0.18528 0.78994 0.57400
 C1232 C 0.19268 0.79048 0.59440
 C1233 C 0.18826 0.81155 0.59520
 C1234 C 0.18071 0.81117 0.57504
 C1235 C 0.20507 0.79480 0.56699
 C1236 C 0.20066 0.81587 0.56778
 C1237 C 0.21259 0.79519 0.58716
 C1238 C 0.20804 0.81640 0.58819
 C1239 C 0.17909 0.82070 0.61112
 C1240 C 0.17174 0.82805 0.62443
 C1241 C 0.21462 0.78529 0.55151
 C1242 C 0.22266 0.77728 0.53901
 H1243 H 0.17603 0.77896 0.56799
 H1244 H 0.18930 0.78013 0.60552
 H1245 H 0.16750 0.81784 0.57025
 H1246 H 0.20404 0.82620 0.55665
 H1247 H 0.22580 0.78852 0.59198
 H1248 H 0.21730 0.82738 0.59420
 C1249 C 0.31140 0.69281 0.56475
 C1250 C 0.32076 0.70288 0.58158
 C1251 C 0.31120 0.68892 0.59490
 C1252 C 0.30199 0.67870 0.57833
 C1253 C 0.29433 0.70579 0.56680
 C1254 C 0.28478 0.69183 0.58013
 C1255 C 0.30354 0.71600 0.58337
 C1256 C 0.29413 0.70190 0.59692
 C1257 C 0.32041 0.67971 0.61076
 C1258 C 0.32781 0.67231 0.62401
 C1259 C 0.28476 0.71537 0.55137
 C1260 C 0.27670 0.72342 0.53891
 H1261 H 0.31839 0.68918 0.55134
 H1262 H 0.33566 0.70732 0.58235
 H1263 H 0.30146 0.66326 0.57643
 H1264 H 0.26988 0.68739 0.57936
 H1265 H 0.30408 0.73144 0.58528
 H1266 H 0.28712 0.70555 0.61033
 C1267 C 0.31175 0.19212 1.06535
 C1268 C 0.32108 0.20224 1.08216
 C1269 C 0.31151 0.18832 1.09551
 C1270 C 0.30233 0.17804 1.07896
 C1271 C 0.29466 0.20508 1.06734
 C1272 C 0.28510 0.19116 1.08069
 C1273 C 0.30384 0.21535 1.08390
 C1274 C 0.29442 0.20129 1.09747
 C1275 C 0.32070 0.17916 1.11142
 C1276 C 0.32808 0.17181 1.12471
 C1277 C 0.28510 0.21461 1.05187
 C1278 C 0.27706 0.22263 1.03937
 H1279 H 0.31877 0.18846 1.05196
 H1280 H 0.33597 0.20670 1.08295
 H1281 H 0.30182 0.16259 1.07711
 H1282 H 0.27021 0.18670 1.07992
 H1283 H 0.30436 0.23080 1.08576
 H1284 H 0.28739 0.20496 1.11085
 C1285 C 0.78887 0.70732 1.08797
 C1286 C 0.79077 0.68581 1.09029
 C1287 C 0.81152 0.68846 1.09545
 C1288 C 0.80976 0.70983 1.09336
 C1289 C 0.79469 0.70535 1.06734
 C1290 C 0.81544 0.70801 1.07250
 C1291 C 0.79645 0.68398 1.06942
 C1292 C 0.81736 0.68648 1.07483
 C1293 C 0.82072 0.67924 1.11132
 C1294 C 0.82811 0.67185 1.12458
 C1295 C 0.78514 0.71494 1.05190
 C1296 C 0.77711 0.72301 1.03943
 H1297 H 0.77706 0.71599 1.09321
 H1298 H 0.78073 0.67658 1.09779
 H1299 H 0.81533 0.72037 1.10337
 H1300 H 0.82548 0.71724 1.06500
 H1301 H 0.79087 0.67346 1.05940
 H1302 H 0.82918 0.67780 1.06961
 C1303 C 0.78844 0.20716 0.58728
 C1304 C 0.79032 0.18565 0.58963
 C1305 C 0.81105 0.18830 0.59484
 C1306 C 0.80930 0.20967 0.59272
 C1307 C 0.79431 0.20517 0.56667
 C1308 C 0.81505 0.20782 0.57188
 C1309 C 0.79605 0.18380 0.56878
 C1310 C 0.81695 0.18630 0.57424
 C1311 C 0.82020 0.17910 0.61075
 C1312 C 0.82755 0.17172 0.62404
 C1313 C 0.78481 0.21475 0.55120
 C1314 C 0.77680 0.22281 0.53871
 H1315 H 0.77661 0.21584 0.59248
 H1316 H 0.78025 0.17643 0.59710
 H1317 H 0.81485 0.22021 0.60274
 H1318 H 0.82511 0.21705 0.56441
 H1319 H 0.79050 0.17327 0.55875
 H1320 H 0.82878 0.17761 0.56906
 C1321 C 0.68880 0.71352 0.42261
 C1322 C 0.69833 0.70791 0.40394
 C1323 C 0.68881 0.68861 0.40516
 C1324 C 0.67914 0.69408 0.42359
 C1325 C 0.70565 0.70543 0.43332
 C1326 C 0.69614 0.68614 0.43456
 C1327 C 0.71530 0.69996 0.41488
 C1328 C 0.70566 0.68052 0.41587
 C1329 C 0.67962 0.67943 0.38926
 C1330 C 0.67224 0.67207 0.37597
 C1331 C 0.71520 0.71499 0.44878
 C1332 C 0.72324 0.72304 0.46126
 H1333 H 0.68198 0.72720 0.42555
 H1334 H 0.69913 0.71676 0.39118
 H1335 H 0.66416 0.69155 0.42700
 H1336 H 0.69535 0.67730 0.44733
 H1337 H 0.73028 0.70248 0.41146
 H1338 H 0.71249 0.66685 0.41292
 C1339 C 0.70407 0.18419 -0.06985
 C1340 C 0.68298 0.18611 -0.07479
 C1341 C 0.68833 0.18872 -0.09547
 C1342 C 0.70926 0.18665 -0.09078
 C1343 C 0.70518 0.20556 -0.06734
 C1344 C 0.71051 0.20815 -0.08803
 C1345 C 0.68426 0.20764 -0.07202
 C1346 C 0.68945 0.21009 -0.09295
 C1347 C 0.67913 0.17951 -0.11136
 C1348 C 0.67176 0.17211 -0.12463
 C1349 C 0.71476 0.21512 -0.05188
 C1350 C 0.72282 0.22314 -0.03940
 H1351 H 0.71018 0.17365 -0.06018
 H1352 H 0.67156 0.17695 -0.06953
 H1353 H 0.71944 0.17791 -0.09867
 H1354 H 0.72193 0.21731 -0.09331
 H1355 H 0.67408 0.21638 -0.06413
 H1356 H 0.68334 0.22063 -0.10262
 C1357 C 0.21157 0.68598 -0.07484
 C1358 C 0.19061 0.68026 -0.07532
 C1359 C 0.18912 0.68832 -0.09522
 C1360 C 0.20993 0.69389 -0.09498
 C1361 C 0.20589 0.70526 -0.06709
 C1362 C 0.20439 0.71330 -0.08700
 C1363 C 0.18508 0.69970 -0.06732
 C1364 C 0.18345 0.70760 -0.08747
 C1365 C 0.17995 0.67907 -0.11110
 C1366 C 0.17257 0.67166 -0.12436
 C1367 C 0.21541 0.71488 -0.05165
 C1368 C 0.22341 0.72298 -0.03917
 H1369 H 0.22324 0.67719 -0.06947
 H1370 H 0.18483 0.66656 -0.07069
 H1371 H 0.22006 0.69140 -0.10653
 H1372 H 0.21017 0.72699 -0.09165
 H1373 H 0.17497 0.70220 -0.05576
 H1374 H 0.17178 0.71639 -0.09284
 C1375 C 0.21110 0.18617 0.42482
 C1376 C 0.19025 0.18004 0.42452
 C1377 C 0.18832 0.18843 0.40480
 C1378 C 0.20902 0.19442 0.40486
 C1379 C 0.20515 0.20519 0.43300
 C1380 C 0.20321 0.21356 0.41327
 C1381 C 0.18445 0.19921 0.43296
 C1382 C 0.18237 0.20745 0.41298
 C1383 C 0.17913 0.17928 0.38888
 C1384 C 0.17177 0.17192 0.37558
 C1385 C 0.21471 0.21471 0.44849
 C1386 C 0.22275 0.22272 0.46099
 H1387 H 0.22302 0.17753 0.42986
 H1388 H 0.18482 0.16614 0.42897
 H1389 H 0.21902 0.19235 0.39313
 H1390 H 0.20864 0.22745 0.40881
 H1391 H 0.17446 0.20129 0.44470
 H1392 H 0.17045 0.21610 0.40794
 C1393 C 0.29187 0.42790 0.68492
 C1394 C 0.31339 0.42548 0.68307
 C1395 C 0.31131 0.40483 0.68884
 C1396 C 0.28995 0.40700 0.69055
 C1397 C 0.29448 0.43300 0.70567
 C1398 C 0.29242 0.41234 0.71143
 C1399 C 0.31585 0.43084 0.70397
 C1400 C 0.31392 0.40994 0.70959
 C1401 C 0.32051 0.38893 0.67965
 C1402 C 0.32789 0.37565 0.67227
 C1403 C 0.28493 0.44847 0.71522
 C1404 C 0.27689 0.46097 0.72325
 H1405 H 0.28270 0.43545 0.67488
 H1406 H 0.32212 0.43070 0.67130
 H1407 H 0.27940 0.39703 0.68493
 H1408 H 0.28369 0.40710 0.72319
 H1409 H 0.32639 0.44082 0.70960
 H1410 H 0.32309 0.40238 0.71964
 C1411 C 0.28578 0.92211 0.18962
 C1412 C 0.30451 0.92352 0.17870
 C1413 C 0.31136 0.90568 0.18862
 C1414 C 0.29278 0.90403 0.19939
 C1415 C 0.29447 0.93377 0.20551
 C1416 C 0.30132 0.91592 0.21541
 C1417 C 0.31305 0.93544 0.19474
 C1418 C 0.32005 0.91734 0.20451
 C1419 C 0.32059 0.88982 0.17939
 C1420 C 0.32800 0.87657 0.17198
 C1421 C 0.28488 0.94920 0.21508
 C1422 C 0.27681 0.96167 0.22313
 H1423 H 0.27159 0.92424 0.18360
 H1424 H 0.30593 0.92647 0.16350
 H1425 H 0.28455 0.89094 0.20120
 H1426 H 0.29991 0.91295 0.23061
 H1427 H 0.32127 0.94854 0.19295
 H1428 H 0.33424 0.91520 0.21053
 C1429 C 0.80766 0.41874 0.21504
 C1430 C 0.79760 0.40288 0.20416
 C1431 C 0.81199 0.40501 0.18828
 C1432 C 0.82219 0.42065 0.19903
 C1433 C 0.79514 0.43317 0.20510
 C1434 C 0.80952 0.43533 0.18922
 C1435 C 0.78495 0.41753 0.19435
 C1436 C 0.79947 0.41943 0.17832
 C1437 C 0.82118 0.38911 0.17909
 C1438 C 0.82856 0.37582 0.17171
 C1439 C 0.78558 0.44863 0.21465
 C1440 C 0.77752 0.46112 0.22268
 H1441 H 0.81093 0.41863 0.23025
 H1442 H 0.79280 0.38936 0.21020
 H1443 H 0.83761 0.42175 0.20084
 H1444 H 0.81431 0.44886 0.18319
 H1445 H 0.76953 0.41641 0.19253
 H1446 H 0.79620 0.41953 0.16312
 C1447 C 0.79321 0.92957 0.68464
 C1448 C 0.81470 0.92636 0.68418
 C1449 C 0.81145 0.90559 0.68889
 C1450 C 0.79011 0.90856 0.68920
 C1451 C 0.79453 0.93371 0.70572
 C1452 C 0.79129 0.91294 0.71042
 C1453 C 0.81587 0.93076 0.70541
 C1454 C 0.81276 0.90975 0.70997
 C1455 C 0.82069 0.88973 0.67970
 C1456 C 0.82812 0.87647 0.67232
 C1457 C 0.78493 0.94915 0.71526
 C1458 C 0.77685 0.96163 0.72328
 H1459 H 0.78506 0.93789 0.67432
 H1460 H 0.82444 0.93170 0.67328
 H1461 H 0.77962 0.89925 0.68244
 H1462 H 0.78156 0.90758 0.72131
 H1463 H 0.82635 0.94007 0.71219
 H1464 H 0.82091 0.90142 0.72029
 C1465 C 0.70379 0.56916 0.68445
 C1466 C 0.68288 0.57451 0.68697
 C1467 C 0.68867 0.59517 0.68901
 C1468 C 0.70943 0.59006 0.68634
 C1469 C 0.70557 0.56702 0.70580
 C1470 C 0.71135 0.58768 0.70782
 C1471 C 0.68481 0.57212 0.70847
 C1472 C 0.69046 0.59302 0.71035
 C1473 C 0.67944 0.61105 0.67983
 C1474 C 0.67203 0.62432 0.67246
 C1475 C 0.71516 0.55157 0.71532
 C1476 C 0.72322 0.53907 0.72334
 H1477 H 0.70939 0.55917 0.67391
 H1478 H 0.67106 0.56928 0.67830
 H1479 H 0.71945 0.59762 0.67714
 H1480 H 0.72316 0.59294 0.71649
 H1481 H 0.67480 0.56457 0.71768
 H1482 H 0.68487 0.60300 0.72090
 C1483 C 0.68579 0.07402 0.21044
 C1484 C 0.69356 0.09426 0.20908
 C1485 C 0.68838 0.09458 0.18819
 C1486 C 0.68045 0.07458 0.18940
 C1487 C 0.70523 0.06646 0.20507
 C1488 C 0.70005 0.06677 0.18418
 C1489 C 0.71314 0.08647 0.20385
 C1490 C 0.70782 0.08702 0.18282
 C1491 C 0.67917 0.11045 0.17897
 C1492 C 0.67177 0.12371 0.17157
 C1493 C 0.71480 0.05103 0.21465
 C1494 C 0.72286 0.03855 0.22270
 H1495 H 0.67684 0.06850 0.22190
 H1496 H 0.69080 0.10573 0.21922
 H1497 H 0.66690 0.06987 0.18335
 H1498 H 0.70283 0.05528 0.17405
 H1499 H 0.72668 0.09120 0.20990
 H1500 H 0.71678 0.09254 0.17137
 C1501 C 0.18579 0.57462 0.21073
 C1502 C 0.19356 0.59486 0.20934
 C1503 C 0.18836 0.59516 0.18846
 C1504 C 0.18044 0.57516 0.18969
 C1505 C 0.20523 0.56706 0.20535
 C1506 C 0.20004 0.56735 0.18446
 C1507 C 0.21313 0.58707 0.20411
 C1508 C 0.20780 0.58760 0.18309
 C1509 C 0.17915 0.61103 0.17923
 C1510 C 0.17175 0.62428 0.17182
 C1511 C 0.21480 0.55163 0.21494
 C1512 C 0.22285 0.53916 0.22301
 H1513 H 0.17684 0.56911 0.22220
 H1514 H 0.19080 0.60634 0.21947
 H1515 H 0.16688 0.57045 0.18365
 H1516 H 0.20281 0.55585 0.17434
 H1517 H 0.22668 0.59180 0.21014
 H1518 H 0.21675 0.59311 0.17162
 C1519 C 0.19209 0.06401 0.68876
 C1520 C 0.17823 0.07781 0.69824
 C1521 C 0.18846 0.09423 0.68877
 C1522 C 0.20217 0.08069 0.67914
 C1523 C 0.20532 0.06610 0.70563
 C1524 C 0.21554 0.08253 0.69615
 C1525 C 0.19161 0.07964 0.71524
 C1526 C 0.20169 0.09629 0.70563
 C1527 C 0.17925 0.11010 0.67955
 C1528 C 0.17185 0.12336 0.67216
 C1529 C 0.21490 0.05066 0.71519
 C1530 C 0.22296 0.03818 0.72322
 H1531 H 0.18826 0.05055 0.68194
 H1532 H 0.16278 0.07604 0.69899
 H1533 H 0.20641 0.08130 0.66419
 H1534 H 0.23098 0.08431 0.69540
 H1535 H 0.18737 0.07904 0.73019
 H1536 H 0.20554 0.10974 0.71247
 C1537 C 0.29427 0.58760 0.28738
 C1538 C 0.29018 0.59434 0.30759
 C1539 C 0.31138 0.59542 0.31126
 C1540 C 0.31561 0.58890 0.29118
 C1541 C 0.29450 0.56725 0.29446
 C1542 C 0.31570 0.56831 0.29812
 C1543 C 0.29026 0.57376 0.31454
 C1544 C 0.31162 0.57508 0.31836
 C1545 C 0.32060 0.61132 0.32044
 C1546 C 0.32800 0.62460 0.32781
 C1547 C 0.28491 0.55178 0.28493
 C1548 C 0.27685 0.53928 0.27692
 H1549 H 0.28704 0.59258 0.27455
 H1550 H 0.27978 0.60521 0.31158
 H1551 H 0.32614 0.59530 0.28168
 H1552 H 0.32608 0.55743 0.29412
 H1553 H 0.27973 0.56736 0.32404
 H1554 H 0.31886 0.57012 0.33120
 C1555 C 0.29195 0.08684 0.78954
 C1556 C 0.29012 0.09164 0.81061
 C1557 C 0.31149 0.09423 0.81162
 C1558 C 0.31345 0.08966 0.79068
 C1559 C 0.29463 0.06610 0.79473
 C1560 C 0.31600 0.06868 0.79573
 C1561 C 0.29266 0.07067 0.81567
 C1562 C 0.31419 0.07350 0.81683
 C1563 C 0.32070 0.11011 0.82085
 C1564 C 0.32810 0.12337 0.82825
 C1565 C 0.28506 0.05066 0.78515
 C1566 C 0.27701 0.03817 0.77709
 H1567 H 0.28271 0.09216 0.77821
 H1568 H 0.27958 0.10125 0.81683
 H1569 H 0.32210 0.09764 0.78050
 H1570 H 0.32653 0.05906 0.78950
 H1571 H 0.28401 0.06269 0.82584
 H1572 H 0.32344 0.06820 0.82816
 C1573 C 0.79464 0.58732 0.78781
 C1574 C 0.79054 0.59403 0.80802
 C1575 C 0.81174 0.59511 0.81169
 C1576 C 0.81598 0.58862 0.79161
 C1577 C 0.79486 0.56696 0.79486
 C1578 C 0.81606 0.56802 0.79852
 C1579 C 0.79062 0.57345 0.81494
 C1580 C 0.81198 0.57476 0.81876
 C1581 C 0.82097 0.61100 0.82088
 C1582 C 0.82838 0.62427 0.82826
 C1583 C 0.78528 0.55151 0.78530
 C1584 C 0.77722 0.53903 0.77725
 H1585 H 0.78740 0.59232 0.77497
 H1586 H 0.78015 0.60490 0.81203
 H1587 H 0.82650 0.59503 0.78211
 H1588 H 0.82645 0.55715 0.79450
 H1589 H 0.78009 0.56703 0.82443
 H1590 H 0.81922 0.56978 0.83159
 C1591 C 0.79194 0.08728 0.28895
 C1592 C 0.79015 0.09209 0.31002
 C1593 C 0.81152 0.09466 0.31100
 C1594 C 0.81344 0.09008 0.29006
 C1595 C 0.79461 0.06655 0.29414
 C1596 C 0.81598 0.06910 0.29511
 C1597 C 0.79267 0.07112 0.31509
 C1598 C 0.81420 0.07393 0.31621
 C1599 C 0.82075 0.11053 0.32021
 C1600 C 0.82817 0.12379 0.32762
 C1601 C 0.78501 0.05110 0.28459
 C1602 C 0.77693 0.03862 0.27656
 H1603 H 0.78268 0.09261 0.27763
 H1604 H 0.77963 0.10172 0.31625
 H1605 H 0.82209 0.09805 0.27986
 H1606 H 0.82649 0.05947 0.28887
 H1607 H 0.78403 0.06315 0.32527
 H1608 H 0.82346 0.06863 0.32753
 C1609 C 0.69211 0.41956 0.28434
 C1610 C 0.70215 0.40294 0.29404
 C1611 C 0.68883 0.40501 0.31082
 C1612 C 0.67864 0.42141 0.30127
 C1613 C 0.70576 0.43313 0.29403
 C1614 C 0.69244 0.43523 0.31081
 C1615 C 0.71594 0.41673 0.30358
 C1616 C 0.70248 0.41857 0.32051
 C1617 C 0.67958 0.38914 0.32000
 C1618 C 0.67215 0.37588 0.32738
 C1619 C 0.71537 0.44858 0.28450
 C1620 C 0.72345 0.46107 0.27649
 H1621 H 0.68795 0.42014 0.26937
 H1622 H 0.70605 0.38949 0.28724
 H1623 H 0.66319 0.42315 0.30042
 H1624 H 0.68856 0.44869 0.31759
 H1625 H 0.73138 0.41498 0.30443
 H1626 H 0.70663 0.41799 0.33548
 C1627 C 0.69176 0.92010 0.78536
 C1628 C 0.70188 0.90353 0.79506
 C1629 C 0.68861 0.90560 0.81188
 C1630 C 0.67834 0.92194 0.80233
 C1631 C 0.70540 0.93373 0.79495
 C1632 C 0.69213 0.93583 0.81178
 C1633 C 0.71566 0.91739 0.80451
 C1634 C 0.70226 0.91923 0.82149
 C1635 C 0.67944 0.88972 0.82112
 C1636 C 0.67206 0.87645 0.82853
 C1637 C 0.71492 0.94918 0.78534
 C1638 C 0.72293 0.96166 0.77726
 H1639 H 0.68754 0.92062 0.77040
 H1640 H 0.70579 0.89007 0.78828
 H1641 H 0.66289 0.92363 0.80153
 H1642 H 0.68824 0.94930 0.81854
 H1643 H 0.73111 0.91568 0.80531
 H1644 H 0.70647 0.91870 0.83645
 C1645 C 0.18985 0.42116 0.78609
 C1646 C 0.19973 0.40327 0.79340
 C1647 C 0.18863 0.40495 0.81177
 C1648 C 0.17860 0.42261 0.80460
 C1649 C 0.20547 0.43310 0.79491
 C1650 C 0.19437 0.43481 0.81328
 C1651 C 0.21548 0.41543 0.80209
 C1652 C 0.20425 0.41689 0.82060
 C1653 C 0.17943 0.38907 0.82097
 C1654 C 0.17204 0.37579 0.82834
 C1655 C 0.21502 0.44855 0.78533
 C1656 C 0.22305 0.46104 0.77727
 H1657 H 0.18403 0.42309 0.77179
 H1658 H 0.20184 0.39013 0.78533
 H1659 H 0.16332 0.42539 0.80574
 H1660 H 0.19227 0.44796 0.82134
 H1661 H 0.23076 0.41265 0.80095
 H1662 H 0.21006 0.41495 0.83489
 C1663 C 0.19136 0.92010 0.28477
 C1664 C 0.20143 0.90349 0.29445
 C1665 C 0.18812 0.90554 0.31124
 C1666 C 0.17790 0.92193 0.30171
 C1667 C 0.20501 0.93369 0.29444
 C1668 C 0.19170 0.93577 0.31123
 C1669 C 0.21521 0.91729 0.30398
 C1670 C 0.20177 0.91912 0.32092
 C1671 C 0.17890 0.88966 0.32043
 C1672 C 0.17150 0.87638 0.32782
 C1673 C 0.21460 0.94914 0.28491
 C1674 C 0.22268 0.96163 0.27690
 H1675 H 0.18718 0.92068 0.26980
 H1676 H 0.20533 0.89004 0.28764
 H1677 H 0.16245 0.92366 0.30088
 H1678 H 0.18782 0.94922 0.31803
 H1679 H 0.23066 0.91555 0.30481
 H1680 H 0.20594 0.91854 0.33589
 C1681 C 0.43492 0.30606 0.68785
 C1682 C 0.41741 0.29609 0.67969
 C1683 C 0.40492 0.31104 0.68888
 C1684 C 0.42217 0.32116 0.69688
 C1685 C 0.43305 0.29415 0.70569
 C1686 C 0.42056 0.30910 0.71487
 C1687 C 0.41580 0.28404 0.69768
 C1688 C 0.40308 0.29913 0.70671
 C1689 C 0.38904 0.32027 0.67969
 C1690 C 0.37577 0.32767 0.67230
 C1691 C 0.44851 0.28457 0.71523
 C1692 C 0.46101 0.27651 0.72325
 H1693 H 0.44819 0.30879 0.68020
 H1694 H 0.41593 0.29084 0.66513
 H1695 H 0.42461 0.33653 0.69645
 H1696 H 0.42203 0.31435 0.72943
 H1697 H 0.41334 0.26868 0.69811
 H1698 H 0.38981 0.29638 0.71438
 C1699 C 0.42910 0.79381 0.18428
 C1700 C 0.40810 0.79079 0.18895
 C1701 C 0.40518 0.81213 0.18850
 C1702 C 0.42593 0.81531 0.18368
 C1703 C 0.43332 0.79527 0.20533
 C1704 C 0.43041 0.81662 0.20489
 C1705 C 0.41256 0.79211 0.21013
 C1706 C 0.40941 0.81359 0.20956
 C1707 C 0.38929 0.82134 0.17931
 C1708 C 0.37601 0.82873 0.17193
 C1709 C 0.44877 0.78570 0.21488
 C1710 C 0.46125 0.77764 0.22292
 H1711 H 0.43736 0.78558 0.17399
 H1712 H 0.39875 0.78027 0.18229
 H1713 H 0.43125 0.82496 0.17269
 H1714 H 0.43977 0.82713 0.21156
 H1715 H 0.40723 0.78247 0.22112
 H1716 H 0.40115 0.82182 0.21985
 C1717 C 0.91927 0.30695 0.21510
 C1718 C 0.92122 0.32136 0.19897
 C1719 C 0.90550 0.31116 0.18834
 C1720 C 0.90333 0.29690 0.20432
 C1721 C 0.93361 0.29428 0.20521
 C1722 C 0.91789 0.28409 0.19457
 C1723 C 0.93581 0.30854 0.18923
 C1724 C 0.91983 0.29849 0.17844
 C1725 C 0.88964 0.32038 0.17912
 C1726 C 0.87638 0.32779 0.17172
 C1727 C 0.94905 0.28471 0.21479
 C1728 C 0.96152 0.27666 0.22285
 H1729 H 0.91921 0.31033 0.23028
 H1730 H 0.92241 0.33679 0.20068
 H1731 H 0.88980 0.29221 0.21043
 H1732 H 0.91669 0.26867 0.19287
 H1733 H 0.94934 0.31321 0.18313
 H1734 H 0.91988 0.29511 0.16326
 C1735 C 0.93161 0.79744 0.68436
 C1736 C 0.91078 0.79142 0.68574
 C1737 C 0.90529 0.81201 0.68889
 C1738 C 0.92587 0.81819 0.68735
 C1739 C 0.93344 0.79512 0.70568
 C1740 C 0.92796 0.81572 0.70883
 C1741 C 0.91285 0.78896 0.70719
 C1742 C 0.90713 0.80969 0.71020
 C1743 C 0.88940 0.82123 0.67970
 C1744 C 0.87612 0.82862 0.67232
 C1745 C 0.94890 0.78553 0.71520
 C1746 C 0.96139 0.77745 0.72320
 H1747 H 0.94185 0.79229 0.67384
 H1748 H 0.90354 0.78152 0.67615
 H1749 H 0.93104 0.83032 0.67909
 H1750 H 0.93520 0.82561 0.71842
 H1751 H 0.90766 0.77684 0.71546
 H1752 H 0.89690 0.81483 0.72073
 C1753 C 0.58083 0.30750 0.28422
 C1754 C 0.57897 0.32154 0.30069
 C1755 C 0.59500 0.31134 0.31085
 C1756 C 0.59709 0.29745 0.29452
 C1757 C 0.56683 0.29443 0.29407
 C1758 C 0.58286 0.28424 0.30423
 C1759 C 0.56471 0.30831 0.31039
 C1760 C 0.58100 0.29827 0.32070
 C1761 C 0.61089 0.32057 0.32002
 C1762 C 0.62417 0.32798 0.32739
 C1763 C 0.55136 0.28483 0.28456
 C1764 C 0.53886 0.27676 0.27656
 H1765 H 0.58060 0.31120 0.26912
 H1766 H 0.57756 0.33698 0.29934
 H1767 H 0.61057 0.29308 0.28809
 H1768 H 0.58429 0.26880 0.30558
 H1769 H 0.55122 0.31267 0.31681
 H1770 H 0.58124 0.29457 0.33580
 C1771 C 0.58087 0.80813 0.78528
 C1772 C 0.57899 0.82215 0.80175
 C1773 C 0.59496 0.81192 0.81195
 C1774 C 0.59708 0.79804 0.79561
 C1775 C 0.56682 0.79507 0.79507
 C1776 C 0.58280 0.78484 0.80526
 C1777 C 0.56468 0.80894 0.81140
 C1778 C 0.58091 0.79886 0.82174
 C1779 C 0.61085 0.82112 0.82116
 C1780 C 0.62412 0.82851 0.82855
 C1781 C 0.55137 0.78551 0.78548
 C1782 C 0.53889 0.77747 0.77741
 H1783 H 0.58069 0.81184 0.77018
 H1784 H 0.57760 0.83760 0.80042
 H1785 H 0.61057 0.79366 0.78922
 H1786 H 0.58420 0.76940 0.80660
 H1787 H 0.55117 0.81331 0.81778
 H1788 H 0.58111 0.79515 0.83684
 C1789 C 0.08109 0.30724 0.78483
 C1790 C 0.07917 0.32147 0.80112
 C1791 C 0.09498 0.31124 0.81156
 C1792 C 0.09714 0.29716 0.79541
 C1793 C 0.06687 0.29439 0.79465
 C1794 C 0.08269 0.28417 0.80510
 C1795 C 0.06469 0.30846 0.81080
 C1796 C 0.08076 0.29839 0.82140
 C1797 C 0.11085 0.32044 0.82080
 C1798 C 0.12411 0.32783 0.82822
 C1799 C 0.05142 0.28483 0.78506
 C1800 C 0.03894 0.27679 0.77699
 H1801 H 0.08105 0.31077 0.76968
 H1802 H 0.07790 0.33691 0.79959
 H1803 H 0.11065 0.29261 0.78918
 H1804 H 0.08397 0.26874 0.80663
 H1805 H 0.05116 0.31300 0.81702
 H1806 H 0.08081 0.29486 0.83654
 C1807 C 0.08056 0.80762 0.28450
 C1808 C 0.07863 0.82187 0.30078
 C1809 C 0.09450 0.81170 0.31120
 C1810 C 0.09666 0.79760 0.29506
 C1811 C 0.06639 0.79475 0.29437
 C1812 C 0.08227 0.78459 0.30480
 C1813 C 0.06421 0.80884 0.31051
 C1814 C 0.08034 0.79882 0.32108
 C1815 C 0.11036 0.82095 0.32040
 C1816 C 0.12362 0.82838 0.32780
 C1817 C 0.05096 0.78513 0.28482
 C1818 C 0.03848 0.77704 0.27680
 H1819 H 0.08049 0.81114 0.26935
 H1820 H 0.07732 0.83730 0.29923
 H1821 H 0.11017 0.79308 0.28881
 H1822 H 0.08359 0.76916 0.30634
 H1823 H 0.05068 0.81335 0.31675
 H1824 H 0.08042 0.79531 0.33623
 C1825 C 0.57044 0.70633 0.68469
 C1826 C 0.59147 0.71017 0.68856
 C1827 C 0.59500 0.68892 0.68908
 C1828 C 0.57422 0.68492 0.68506
 C1829 C 0.56688 0.70583 0.70591
 C1830 C 0.57040 0.68458 0.70644
 C1831 C 0.58767 0.70981 0.70991
 C1832 C 0.59143 0.68843 0.71030
 C1833 C 0.61087 0.67969 0.67989
 C1834 C 0.62413 0.67228 0.67250
 C1835 C 0.55144 0.71542 0.71545
 C1836 C 0.53895 0.72349 0.72347
 H1837 H 0.56163 0.71380 0.67426
 H1838 H 0.60030 0.72059 0.68111
 H1839 H 0.56887 0.67458 0.67473
 H1840 H 0.56156 0.67417 0.71389
 H1841 H 0.59304 0.72015 0.72023
 H1842 H 0.60024 0.68097 0.72074
 C1843 C 0.57012 0.20561 0.18382
 C1844 C 0.59115 0.20948 0.18767
 C1845 C 0.59471 0.18823 0.18816
 C1846 C 0.57392 0.18421 0.18416
 C1847 C 0.56659 0.20509 0.20504
 C1848 C 0.57014 0.18384 0.20555
 C1849 C 0.58739 0.20909 0.20902
 C1850 C 0.59117 0.18771 0.20938
 C1851 C 0.61058 0.17902 0.17894
 C1852 C 0.62384 0.17163 0.17155
 C1853 C 0.55116 0.21465 0.21463
 C1854 C 0.53869 0.22270 0.22270
 H1855 H 0.56128 0.21308 0.17342
 H1856 H 0.59996 0.21992 0.18022
 H1857 H 0.56857 0.17388 0.17383
 H1858 H 0.56133 0.17341 0.21300
 H1859 H 0.59276 0.21942 0.21935
 H1860 H 0.60000 0.18025 0.21980
 C1861 C 0.07773 0.71402 0.18896
 C1862 C 0.09607 0.70759 0.19863
 C1863 C 0.09462 0.68873 0.18834
 C1864 C 0.07651 0.69500 0.17851
 C1865 C 0.06646 0.70552 0.20521
 C1866 C 0.06498 0.68665 0.19492
 C1867 C 0.08458 0.69923 0.21502
 C1868 C 0.08335 0.68022 0.20459
 C1869 C 0.11051 0.67955 0.17913
 C1870 C 0.12379 0.67217 0.17174
 C1871 C 0.05100 0.71504 0.21480
 C1872 C 0.03851 0.72306 0.22286
 H1873 H 0.07525 0.72802 0.18263
 H1874 H 0.10903 0.71611 0.20006
 H1875 H 0.07337 0.69316 0.16339
 H1876 H 0.05202 0.67814 0.19350
 H1877 H 0.08773 0.70108 0.23014
 H1878 H 0.08584 0.66622 0.21092
 C1879 C 0.08178 0.19327 0.71569
 C1880 C 0.07979 0.17794 0.70043
 C1881 C 0.09485 0.18800 0.68877
 C1882 C 0.09707 0.20317 0.70389
 C1883 C 0.06676 0.20495 0.70560
 C1884 C 0.08183 0.21499 0.69394
 C1885 C 0.06452 0.18978 0.69047
 C1886 C 0.07984 0.19968 0.67867
 C1887 C 0.11071 0.17875 0.67957
 C1888 C 0.12395 0.17132 0.67218
 C1889 C 0.05134 0.21457 0.71514
 C1890 C 0.03887 0.22267 0.72316
 H1891 H 0.08241 0.19073 0.73102
 H1892 H 0.07913 0.16260 0.70299
 H1893 H 0.11062 0.20858 0.70932
 H1894 H 0.08250 0.23033 0.69137
 H1895 H 0.05096 0.18438 0.68507
 H1896 H 0.07922 0.20221 0.66334
 C1897 C 0.41349 0.70389 0.28601
 C1898 C 0.41333 0.68310 0.29230
 C1899 C 0.40507 0.68918 0.31123
 C1900 C 0.40500 0.70982 0.30507
 C1901 C 0.43321 0.70604 0.29440
 C1902 C 0.42495 0.71212 0.31332
 C1903 C 0.43331 0.68540 0.30055
 C1904 C 0.42479 0.69132 0.31964
 C1905 C 0.38919 0.67997 0.32043
 C1906 C 0.37592 0.67257 0.32781
 C1907 C 0.44867 0.71561 0.28485
 C1908 C 0.46117 0.72365 0.27681
 H1909 H 0.40901 0.70916 0.27208
 H1910 H 0.40838 0.67107 0.28376
 H1911 H 0.39319 0.71977 0.30702
 H1912 H 0.42991 0.72415 0.32186
 H1913 H 0.44512 0.67546 0.29859
 H1914 H 0.42925 0.68605 0.33357
 C1915 C 0.43112 0.20319 0.81612
 C1916 C 0.41020 0.20875 0.81420
 C1917 C 0.40515 0.18795 0.81164
 C1918 C 0.42582 0.18223 0.81371
 C1919 C 0.43325 0.20485 0.79477
 C1920 C 0.42821 0.18405 0.79220
 C1921 C 0.41258 0.21055 0.79272
 C1922 C 0.40730 0.18962 0.79029
 C1923 C 0.38929 0.17873 0.82086
 C1924 C 0.37603 0.17132 0.82826
 C1925 C 0.44868 0.21443 0.78519
 C1926 C 0.46114 0.22250 0.77713
 H1927 H 0.44109 0.20887 0.82663
 H1928 H 0.40262 0.21880 0.82335
 H1929 H 0.43108 0.17049 0.82245
 H1930 H 0.43579 0.17401 0.78305
 H1931 H 0.40730 0.22229 0.78398
 H1932 H 0.39733 0.18395 0.77977
 C1933 C 0.91292 0.70700 0.78836
 C1934 C 0.91102 0.68554 0.79104
 C1935 C 0.90539 0.68887 0.81154
 C1936 C 0.90706 0.71020 0.80899
 C1937 C 0.93349 0.70573 0.79464
 C1938 C 0.92786 0.70907 0.81515
 C1939 C 0.93183 0.68440 0.79719
 C1940 C 0.92595 0.68758 0.81785
 C1941 C 0.88953 0.67965 0.82078
 C1942 C 0.87628 0.67225 0.82819
 C1943 C 0.94893 0.71530 0.78505
 C1944 C 0.96140 0.72335 0.77700
 H1945 H 0.90773 0.71509 0.77612
 H1946 H 0.90392 0.67576 0.78123
 H1947 H 0.89671 0.72071 0.81395
 H1948 H 0.93496 0.71885 0.82495
 H1949 H 0.94219 0.67390 0.79222
 H1950 H 0.93112 0.67949 0.83009
 C1951 C 0.93552 0.19224 0.31150
 C1952 C 0.91860 0.20232 0.32069
 C1953 C 0.90535 0.18826 0.31116
 C1954 C 0.92200 0.17802 0.30213
 C1955 C 0.93352 0.20510 0.29435
 C1956 C 0.92026 0.19103 0.28483
 C1957 C 0.91685 0.21532 0.30339
 C1958 C 0.90337 0.20112 0.29401
 C1959 C 0.88945 0.17906 0.32035
 C1960 C 0.87616 0.17167 0.32772
 C1961 C 0.94898 0.21466 0.28481
 C1962 C 0.96148 0.22270 0.27678
 H1963 H 0.94892 0.18871 0.31859
 H1964 H 0.91774 0.20686 0.33554
 H1965 H 0.92394 0.16258 0.30171
 H1966 H 0.92111 0.18649 0.26998
 H1967 H 0.91490 0.23076 0.30381
 H1968 H 0.88998 0.20467 0.28691
 C1969 C 0.28961 0.29095 0.58793
 C1970 C 0.31084 0.28971 0.59232
 C1971 C 0.31121 0.31105 0.59530
 C1972 C 0.29012 0.31242 0.59113
 C1973 C 0.29435 0.29418 0.56718
 C1974 C 0.29471 0.31552 0.57015
 C1975 C 0.31544 0.29281 0.57134
 C1976 C 0.31597 0.31430 0.57456
 C1977 C 0.32043 0.32027 0.61116
 C1978 C 0.32783 0.32767 0.62442
 C1979 C 0.28478 0.28461 0.55174
 C1980 C 0.27672 0.27657 0.53926
 H1981 H 0.27868 0.28124 0.59326
 H1982 H 0.31757 0.27920 0.60161
 H1983 H 0.27981 0.32059 0.59944
 H1984 H 0.28798 0.32602 0.56085
 H1985 H 0.32575 0.28463 0.56302
 H1986 H 0.32691 0.32401 0.56924
 C1987 C 0.29194 0.78986 0.08758
 C1988 C 0.31343 0.79101 0.09042
 C1989 C 0.31146 0.81198 0.09496
 C1990 C 0.29010 0.81096 0.09234
 C1991 C 0.29465 0.79503 0.06686
 C1992 C 0.29267 0.81600 0.07139
 C1993 C 0.31601 0.79604 0.06946
 C1994 C 0.31419 0.81717 0.07425
 C1995 C 0.32066 0.82123 0.11082
 C1996 C 0.32805 0.82865 0.12407
 C1997 C 0.28511 0.78541 0.05143
 C1998 C 0.27709 0.77731 0.03896
 H1999 H 0.28268 0.77853 0.09289
 H2000 H 0.32207 0.78083 0.09842
 H2001 H 0.27955 0.81720 0.10192
 H2002 H 0.28403 0.82617 0.06339
 H2003 H 0.32656 0.78979 0.05988
 H2004 H 0.32345 0.82850 0.06895
 C2005 C 0.79204 0.28926 0.08740
 C2006 C 0.81355 0.29030 0.09018
 C2007 C 0.81169 0.31127 0.09477
 C2008 C 0.79031 0.31036 0.09223
 C2009 C 0.79470 0.29447 0.06669
 C2010 C 0.79283 0.31544 0.07128
 C2011 C 0.81608 0.29538 0.06922
 C2012 C 0.81437 0.31650 0.07407
 C2013 C 0.82096 0.32046 0.11062
 C2014 C 0.82840 0.32784 0.12387
 C2015 C 0.78507 0.28493 0.05126
 C2016 C 0.77697 0.27691 0.03879
 H2017 H 0.78276 0.27795 0.09272
 H2018 H 0.82217 0.28007 0.09812
 H2019 H 0.77982 0.31662 0.10186
 H2020 H 0.78421 0.32566 0.06333
 H2021 H 0.82657 0.28911 0.05959
 H2022 H 0.82366 0.32781 0.06877
 C2023 C 0.79002 0.79168 0.58800
 C2024 C 0.81125 0.79048 0.59241
 C2025 C 0.81159 0.81182 0.59534
 C2026 C 0.79050 0.81315 0.59116
 C2027 C 0.79476 0.79487 0.56725
 C2028 C 0.79510 0.81622 0.57018
 C2029 C 0.81586 0.79353 0.57142
 C2030 C 0.81636 0.81503 0.57460
 C2031 C 0.82079 0.82108 0.61120
 C2032 C 0.82818 0.82850 0.62445
 C2033 C 0.78521 0.78525 0.55183
 C2034 C 0.77717 0.77717 0.53937
 H2035 H 0.77909 0.78197 0.59335
 H2036 H 0.81798 0.77999 0.60172
 H2037 H 0.78018 0.82133 0.59945
 H2038 H 0.78836 0.82669 0.56086
 H2039 H 0.82618 0.78535 0.56313
 H2040 H 0.82729 0.82474 0.56927
 C2041 C 0.28954 0.70906 0.41213
 C2042 C 0.31073 0.71051 0.40765
 C2043 C 0.31132 0.68916 0.40477
 C2044 C 0.29026 0.68758 0.40903
 C2045 C 0.29440 0.70598 0.43287
 C2046 C 0.29498 0.68464 0.43001
 C2047 C 0.31546 0.70757 0.42862
 C2048 C 0.31620 0.68607 0.42551
 C2049 C 0.32056 0.67996 0.38892
 C2050 C 0.32797 0.67257 0.37567
 C2051 C 0.28481 0.71553 0.44831
 C2052 C 0.27673 0.72355 0.46078
 H2053 H 0.27848 0.71862 0.40680
 H2054 H 0.31731 0.72105 0.39828
 H2055 H 0.28000 0.67926 0.40080
 H2056 H 0.28840 0.67410 0.43939
 H2057 H 0.32572 0.71590 0.43686
 H2058 H 0.32727 0.67651 0.43083
 C2059 C 0.31079 0.19073 0.93552
 C2060 C 0.30103 0.17778 0.92105
 C2061 C 0.31152 0.18796 0.90525
 C2062 C 0.32143 0.20077 0.91946
 C2063 C 0.29468 0.20488 0.93334
 C2064 C 0.30518 0.21505 0.91753
 C2065 C 0.28478 0.19207 0.91912
 C2066 C 0.29542 0.20211 0.90310
 C2067 C 0.32072 0.17873 0.88939
 C2068 C 0.32812 0.17132 0.87614
 C2069 C 0.28512 0.21447 0.94876
 C2070 C 0.27707 0.22254 0.96123
 H2071 H 0.31699 0.18617 0.94903
 H2072 H 0.29943 0.16234 0.92231
 H2073 H 0.33661 0.20424 0.91942
 H2074 H 0.30678 0.23048 0.91626
 H2075 H 0.26961 0.18860 0.91916
 H2076 H 0.28920 0.20669 0.88960
 C2077 C 0.81102 0.69150 0.93553
 C2078 C 0.80129 0.67857 0.92102
 C2079 C 0.81180 0.68881 0.90526
 C2080 C 0.82168 0.70159 0.91951
 C2081 C 0.79491 0.70563 0.93338
 C2082 C 0.80541 0.71586 0.91761
 C2083 C 0.78504 0.69286 0.91912
 C2084 C 0.79568 0.70295 0.90313
 C2085 C 0.82102 0.67962 0.88939
 C2086 C 0.82841 0.67223 0.87613
 C2087 C 0.78532 0.71517 0.94882
 C2088 C 0.77725 0.72320 0.96129
 H2089 H 0.81722 0.68690 0.94904
 H2090 H 0.79970 0.66314 0.92224
 H2091 H 0.83685 0.70507 0.91950
 H2092 H 0.80700 0.73130 0.91638
 H2093 H 0.76986 0.68937 0.91912
 H2094 H 0.78947 0.70756 0.88963
 C2095 C 0.78973 0.20823 0.41194
 C2096 C 0.81091 0.20968 0.40744
 C2097 C 0.81151 0.18833 0.40461
 C2098 C 0.79046 0.18675 0.40888
 C2099 C 0.79461 0.20520 0.43269
 C2100 C 0.79520 0.18385 0.42987
 C2101 C 0.81566 0.20680 0.42842
 C2102 C 0.81641 0.18529 0.42535
 C2103 C 0.82075 0.17912 0.38876
 C2104 C 0.82816 0.17172 0.37552
 C2105 C 0.78501 0.21478 0.44810
 C2106 C 0.77695 0.22283 0.46056
 H2107 H 0.77865 0.21777 0.40660
 H2108 H 0.81748 0.22021 0.39804
 H2109 H 0.78019 0.17840 0.40068
 H2110 H 0.78863 0.17333 0.43927
 H2111 H 0.82592 0.21515 0.43663
 H2112 H 0.82749 0.17575 0.43067
 C2113 C 0.68430 0.29822 0.43149
 C2114 C 0.68843 0.31848 0.42476
 C2115 C 0.68867 0.31139 0.40443
 C2116 C 0.68439 0.29129 0.41091
 C2117 C 0.70549 0.29453 0.43256
 C2118 C 0.70572 0.28745 0.41223
 C2119 C 0.70978 0.31462 0.42609
 C2120 C 0.70986 0.30768 0.40553
 C2121 C 0.67947 0.32060 0.38856
 C2122 C 0.67209 0.32799 0.37530
 C2123 C 0.71504 0.28495 0.44801
 C2124 C 0.72306 0.27689 0.46049
 H2125 H 0.67389 0.29422 0.44234
 H2126 H 0.68121 0.33134 0.42973
 H2127 H 0.67385 0.28180 0.40450
 H2128 H 0.71293 0.27460 0.40725
 H2129 H 0.72032 0.32411 0.43251
 H2130 H 0.72028 0.31167 0.39468
 C2131 C 0.68486 0.79228 0.92841
 C2132 C 0.68302 0.81381 0.92607
 C2133 C 0.68877 0.81180 0.90543
 C2134 C 0.69046 0.79042 0.90753
 C2135 C 0.70564 0.79486 0.93349
 C2136 C 0.71137 0.79286 0.91284
 C2137 C 0.70396 0.81624 0.93140
 C2138 C 0.70955 0.81437 0.91051
 C2139 C 0.67955 0.82105 0.88960
 C2140 C 0.67213 0.82847 0.87636
 C2141 C 0.71521 0.78525 0.94890
 C2142 C 0.72325 0.77716 0.96135
 H2143 H 0.67481 0.78309 0.93595
 H2144 H 0.67125 0.82254 0.93133
 H2145 H 0.68481 0.77991 0.89754
 H2146 H 0.72313 0.78414 0.90756
 H2147 H 0.70961 0.82674 0.94139
 H2148 H 0.71960 0.82356 0.90298
 C2149 C 0.19455 0.31267 0.93500
 C2150 C 0.20439 0.31985 0.91702
 C2151 C 0.18863 0.31110 0.90522
 C2152 C 0.17863 0.30407 0.92295
 C2153 C 0.20548 0.29418 0.93330
 C2154 C 0.18972 0.28544 0.92150
 C2155 C 0.21546 0.30122 0.91557
 C2156 C 0.19956 0.29262 0.90354
 C2157 C 0.17942 0.32035 0.88938
 C2158 C 0.17202 0.32777 0.87614
 C2159 C 0.21505 0.28459 0.94872
 C2160 C 0.22310 0.27653 0.96119
 H2161 H 0.19260 0.32080 0.94812
 H2162 H 0.21031 0.33410 0.91500
 H2163 H 0.16339 0.30535 0.92580
 H2164 H 0.18380 0.27118 0.92351
 H2165 H 0.23070 0.29994 0.91270
 H2166 H 0.20153 0.28447 0.89044
 C2167 C 0.21138 0.79379 0.41241
 C2168 C 0.19074 0.79056 0.40649
 C2169 C 0.18815 0.81188 0.40483
 C2170 C 0.20865 0.81525 0.41053
 C2171 C 0.20503 0.79504 0.43294
 C2172 C 0.20244 0.81636 0.43130
 C2173 C 0.18452 0.79167 0.42725
 C2174 C 0.18178 0.81315 0.42535
 C2175 C 0.17893 0.82109 0.38897
 C2176 C 0.17153 0.82847 0.37571
 C2177 C 0.21460 0.78547 0.44837
 C2178 C 0.22266 0.77742 0.46084
 H2179 H 0.22365 0.78573 0.40726
 H2180 H 0.18583 0.78005 0.39612
 H2181 H 0.21848 0.82505 0.40348
 H2182 H 0.20736 0.82687 0.44168
 H2183 H 0.17470 0.78186 0.43430
 H2184 H 0.16950 0.82121 0.43049
 C2185 C 0.69683 0.68595 0.56632
 C2186 C 0.70606 0.68120 0.58539
 C2187 C 0.68862 0.68883 0.59545
 C2188 C 0.67922 0.69344 0.57664
 C2189 C 0.70549 0.70565 0.56733
 C2190 C 0.68805 0.71329 0.57739
 C2191 C 0.71487 0.70104 0.58615
 C2192 C 0.69729 0.70853 0.59644
 C2193 C 0.67940 0.67963 0.61132
 C2194 C 0.67201 0.67225 0.62458
 C2195 C 0.71508 0.71520 0.55189
 C2196 C 0.72314 0.72322 0.53941
 H2197 H 0.69675 0.67678 0.55376
 H2198 H 0.71337 0.66790 0.58886
 H2199 H 0.66446 0.69020 0.57290
 H2200 H 0.68074 0.72659 0.57393
 H2201 H 0.72963 0.70427 0.58990
 H2202 H 0.69738 0.71772 0.60900
 C2203 C 0.70316 0.21360 0.08631
 C2204 C 0.68238 0.20728 0.08642
 C2205 C 0.68845 0.18833 0.09465
 C2206 C 0.70909 0.19452 0.09477
 C2207 C 0.70534 0.20524 0.06659
 C2208 C 0.71141 0.18629 0.07482
 C2209 C 0.68470 0.19906 0.06645
 C2210 C 0.69062 0.17994 0.07494
 C2211 C 0.67923 0.17909 0.11049
 C2212 C 0.67182 0.17167 0.12372
 C2213 C 0.71491 0.21485 0.05118
 C2214 C 0.72295 0.22293 0.03873
 H2215 H 0.70841 0.22755 0.09082
 H2216 H 0.67034 0.21581 0.09136
 H2217 H 0.71902 0.19255 0.10658
 H2218 H 0.72346 0.17776 0.06988
 H2219 H 0.67478 0.20103 0.05463
 H2220 H 0.68536 0.16600 0.07045
 C2221 C 0.18793 0.69329 0.06482
 C2222 C 0.19708 0.67861 0.07797
 C2223 C 0.18850 0.68881 0.09488
 C2224 C 0.17920 0.70334 0.08199
 C2225 C 0.20546 0.70565 0.06682
 C2226 C 0.19688 0.71584 0.08373
 C2227 C 0.21476 0.69113 0.07972
 C2228 C 0.20604 0.70118 0.09686
 C2229 C 0.17924 0.67961 0.11072
 C2230 C 0.17181 0.67222 0.12396
 C2231 C 0.21508 0.71520 0.05141
 C2232 C 0.22317 0.72323 0.03895
 H2233 H 0.18059 0.69015 0.05146
 H2234 H 0.19705 0.66320 0.07579
 H2235 H 0.16447 0.70825 0.08309
 H2236 H 0.19691 0.73125 0.08594
 H2237 H 0.22948 0.68621 0.07862
 H2238 H 0.21339 0.70433 0.11021
 C2239 C 0.18388 0.20434 0.56996
 C2240 C 0.18522 0.18311 0.57440
 C2241 C 0.18840 0.18792 0.59514
 C2242 C 0.18691 0.20900 0.59094
 C2243 C 0.20521 0.20484 0.56704
 C2244 C 0.20838 0.20964 0.58779
 C2245 C 0.20672 0.18376 0.57123
 C2246 C 0.20974 0.18842 0.59222
 C2247 C 0.17921 0.17868 0.61100
 C2248 C 0.17183 0.17128 0.62426
 C2249 C 0.21476 0.21445 0.55162
 C2250 C 0.22279 0.22253 0.53915
 H2251 H 0.17335 0.21100 0.56063
 H2252 H 0.17559 0.17209 0.56908
 H2253 H 0.17866 0.21927 0.59922
 H2254 H 0.21800 0.22065 0.59313
 H2255 H 0.21497 0.17349 0.56295
 H2256 H 0.22028 0.18178 0.60154
   
