data_POSCAR
  _audit_creation_date              2014-09-24
  _audit_creation_method            'ToBaCCo'
  _symmetry_space_group_name_H-M    'P1'
  _symmetry_Int_Tables_number       1
  _symmetry_cell_setting            triclinic
  loop_
  _symmetry_equiv_pos_as_xyz
 x,y,z
_cell_length_a 60.2649
_cell_length_b 40.5196
_cell_length_c 42.2876
_cell_angle_alpha 89.939800
_cell_angle_beta 89.958200
_cell_angle_gamma 89.985400
loop_
  _atom_site_label
  _atom_site_type_symbol
  _atom_site_fract_x
  _atom_site_fract_y
  _atom_site_fract_z
C1 C 0.00093 -0.00021 0.10196
 C2 C 0.00058 -0.00018 -0.10527
 C3 C -0.05072 -0.05437 0.04697
 C4 C -0.05070 0.05390 0.04695
 C5 C -0.05078 -0.05449 -0.04932
 C6 C 0.05165 -0.05155 -0.05273
 C7 C 0.05165 0.05101 -0.05279
 C8 C 0.05159 -0.05130 0.04941
 C9 C -0.05074 0.05414 -0.04927
 C10 C 0.05160 0.05084 0.04934
 O11 O -0.03044 -0.06159 -0.05643
 O12 O -0.05686 -0.03191 -0.02959
 O13 O -0.03041 0.06123 -0.05641
 O14 O -0.05683 0.03152 -0.02957
 O15 O 0.03128 0.05800 0.05640
 O16 O 0.05764 0.03000 0.02790
 O17 O 0.00039 0.02791 -0.09097
 O18 O 0.00041 -0.02830 -0.09097
 O19 O 0.00069 0.02793 0.08779
 O20 O 0.00067 -0.02838 0.08788
 O21 O 0.03125 -0.05862 -0.05957
 O22 O 0.05761 -0.03058 -0.03134
 O23 O -0.03037 -0.06138 0.05403
 O24 O -0.05683 -0.03194 0.02707
 O25 O 0.03128 -0.05849 0.05650
 O26 O 0.05762 -0.03050 0.02793
 O27 O 0.03125 0.05812 -0.05964
 O28 O 0.05761 0.03002 -0.03138
 O29 O 0.00153 0.09228 0.04595
 O30 O 0.00125 0.09214 -0.05007
 O31 O 0.00124 -0.09261 -0.04991
 O32 O 0.00153 -0.09277 0.04621
 O33 O -0.01876 -0.04366 -0.00146
 O34 O -0.01876 0.04318 -0.00152
 O35 O 0.01928 -0.04342 -0.00159
 O36 O -0.01982 -0.00024 0.04068
 O37 O -0.05683 0.03147 0.02708
 O38 O -0.03034 0.06088 0.05395
 O39 O 0.02078 -0.00026 0.04072
 O40 O 0.02074 -0.00024 -0.04409
 O41 O 0.01930 0.04292 -0.00165
 O42 O -0.01992 -0.00022 -0.04362
 Zr43 Zr 0.00042 0.04068 0.03950
 Zr44 Zr 0.00036 -0.04113 -0.04266
 Zr45 Zr -0.03768 -0.00023 -0.00136
 Zr46 Zr 0.00041 -0.04118 0.03959
 Zr47 Zr 0.00037 0.04066 -0.04270
 Zr48 Zr 0.03841 -0.00026 -0.00171
 H49 H 0.02824 -0.06389 -0.00158
 H50 H -0.02971 -0.00024 0.05936
 H51 H 0.02826 0.06338 -0.00168
 H52 H -0.02988 -0.00019 -0.06221
 H53 H -0.00316 0.10189 0.02550
 H54 H 0.00145 0.10203 -0.02871
 H55 H -0.00302 -0.10241 0.02574
 H56 H 0.00110 -0.10250 -0.02853
 C57 C 0.25034 0.24976 0.14575
 C58 C 0.25012 0.24983 0.35299
 C59 C 0.19869 0.30411 0.20127
 C60 C 0.19878 0.19561 0.20117
 C61 C 0.19855 0.30390 0.29763
 C62 C 0.30087 0.30130 0.30028
 C63 C 0.30092 0.19839 0.30024
 C64 C 0.30096 0.30136 0.19885
 C65 C 0.19865 0.19546 0.29733
 C66 C 0.30111 0.19836 0.19878
 O67 O 0.21889 0.31090 0.30474
 O68 O 0.19247 0.28148 0.27773
 O69 O 0.21898 0.18839 0.30440
 O70 O 0.19253 0.21805 0.27761
 O71 O 0.28079 0.19129 0.19165
 O72 O 0.30710 0.21945 0.22001
 O73 O 0.24989 0.22170 0.33885
 O74 O 0.24989 0.27799 0.33885
 O75 O 0.25015 0.22165 0.16006
 O76 O 0.25007 0.27787 0.16001
 O77 O 0.28053 0.30836 0.30734
 O78 O 0.30695 0.28025 0.27906
 O79 O 0.21905 0.31119 0.19429
 O80 O 0.19255 0.28153 0.22100
 O81 O 0.28065 0.30845 0.19173
 O82 O 0.30701 0.28026 0.22003
 O83 O 0.28060 0.19125 0.30727
 O84 O 0.30699 0.21949 0.27905
 O85 O 0.25093 0.15736 0.20158
 O86 O 0.25061 0.15744 0.29794
 O87 O 0.25067 0.34229 0.29719
 O88 O 0.25060 0.34218 0.20088
 O89 O 0.23059 0.29324 0.24938
 O90 O 0.23066 0.20641 0.24942
 O91 O 0.26861 0.29296 0.24944
 O92 O 0.22957 0.24980 0.20723
 O93 O 0.19261 0.21808 0.22097
 O94 O 0.21914 0.18862 0.19415
 O95 O 0.27024 0.24984 0.20702
 O96 O 0.27012 0.24983 0.29190
 O97 O 0.26869 0.20668 0.24949
 O98 O 0.22946 0.24979 0.29155
 Zr99 Zr 0.24988 0.20892 0.20834
 Zr100 Zr 0.24970 0.29072 0.29054
 Zr101 Zr 0.21169 0.24981 0.24936
 Zr102 Zr 0.24979 0.29070 0.20829
 Zr103 Zr 0.24975 0.20892 0.29057
 Zr104 Zr 0.28781 0.24984 0.24949
 H105 H 0.27750 0.31348 0.24947
 H106 H 0.21968 0.24984 0.18856
 H107 H 0.27761 0.18617 0.24950
 H108 H 0.21952 0.24972 0.31019
 H109 H 0.24695 0.14763 0.22227
 H110 H 0.24994 0.14753 0.27661
 H111 H 0.25012 0.35210 0.22222
 H112 H 0.24650 0.35197 0.27655
 C113 C 0.50010 -0.00114 0.10346
 C114 C 0.49986 -0.00149 -0.10314
 C115 C 0.55188 0.05265 0.04831
 C116 C 0.55196 -0.05528 0.04880
 C117 C 0.55194 0.05236 -0.04898
 C118 C 0.44944 0.05003 -0.05058
 C119 C 0.44945 -0.05285 -0.05036
 C120 C 0.44951 0.05034 0.05093
 C121 C 0.55190 -0.05528 -0.04869
 C122 C 0.44935 -0.05300 0.05134
 O123 O 0.53150 0.05933 -0.05583
 O124 O 0.55795 0.03016 -0.02868
 O125 O 0.53147 -0.06228 -0.05551
 O126 O 0.55792 -0.03306 -0.02849
 O127 O 0.46977 -0.06003 0.05820
 O128 O 0.44340 -0.03179 0.03008
 O129 O 0.50017 -0.02965 -0.08901
 O130 O 0.50018 0.02667 -0.08911
 O131 O 0.50037 -0.02934 0.08950
 O132 O 0.50041 0.02696 0.08929
 O133 O 0.46978 0.05710 -0.05774
 O134 O 0.44341 0.02900 -0.02927
 O135 O 0.53152 0.05983 0.05524
 O136 O 0.55798 0.03024 0.02839
 O137 O 0.46986 0.05748 0.05783
 O138 O 0.44343 0.02911 0.02989
 O139 O 0.46978 -0.05998 -0.05747
 O140 O 0.44342 -0.03179 -0.02913
 O141 O 0.50006 -0.09377 0.04867
 O142 O 0.49971 -0.09402 -0.04708
 O143 O 0.49971 0.09113 -0.04746
 O144 O 0.50009 0.09116 0.04813
 O145 O 0.51993 0.04209 -0.00000
 O146 O 0.51990 -0.04487 0.00024
 O147 O 0.48177 0.04177 0.00012
 O148 O 0.52094 -0.00133 0.04218
 O149 O 0.55795 -0.03297 0.02861
 O150 O 0.53154 -0.06237 0.05565
 O151 O 0.48033 -0.00130 0.04267
 O152 O 0.48028 -0.00144 -0.04203
 O153 O 0.48176 -0.04455 0.00036
 O154 O 0.52086 -0.00146 -0.04195
 Zr155 Zr 0.50069 -0.04228 0.04136
 Zr156 Zr 0.50066 0.03951 -0.04096
 Zr157 Zr 0.53881 -0.00141 0.00003
 Zr158 Zr 0.50072 0.03964 0.04109
 Zr159 Zr 0.50065 -0.04239 -0.04076
 Zr160 Zr 0.46260 -0.00139 0.00037
 H161 H 0.47285 0.06228 0.00006
 H162 H 0.53083 -0.00129 0.06085
 H163 H 0.47284 -0.06505 0.00041
 H164 H 0.53069 -0.00148 -0.06070
 H165 H 0.49957 -0.10363 0.02731
 H166 H 0.50481 -0.10354 -0.02680
 H167 H 0.49935 0.10094 0.02673
 H168 H 0.50498 0.10068 -0.02729
 C169 C 0.75102 0.24942 0.14712
 C170 C 0.75084 0.24906 0.35372
 C171 C 0.69918 0.30326 0.20193
 C172 C 0.69933 0.19520 0.20189
 C173 C 0.69910 0.30289 0.29899
 C174 C 0.80143 0.30039 0.30155
 C175 C 0.80169 0.19801 0.30159
 C176 C 0.80151 0.30062 0.19945
 C177 C 0.69928 0.19523 0.29879
 C178 C 0.80167 0.19817 0.19935
 O179 O 0.71944 0.30994 0.30608
 O180 O 0.69305 0.28069 0.27884
 O181 O 0.71962 0.18819 0.30589
 O182 O 0.69317 0.21748 0.27871
 O183 O 0.78134 0.19094 0.19243
 O184 O 0.80771 0.21909 0.22070
 O185 O 0.75064 0.22092 0.33961
 O186 O 0.75055 0.27724 0.33965
 O187 O 0.75077 0.22125 0.16117
 O188 O 0.75069 0.27755 0.16121
 O189 O 0.78108 0.30750 0.30853
 O190 O 0.80755 0.27957 0.28014
 O191 O 0.71954 0.31047 0.19505
 O192 O 0.69308 0.28081 0.22184
 O193 O 0.78117 0.30782 0.19254
 O194 O 0.80761 0.27966 0.22076
 O195 O 0.78129 0.19089 0.30847
 O196 O 0.80764 0.21897 0.28012
 O197 O 0.75123 0.15685 0.20218
 O198 O 0.75152 0.15660 0.29779
 O199 O 0.75129 0.34173 0.29782
 O200 O 0.75102 0.34179 0.20232
 O201 O 0.73108 0.29271 0.25041
 O202 O 0.73121 0.20575 0.25035
 O203 O 0.76925 0.29242 0.25043
 O204 O 0.73017 0.24926 0.20826
 O205 O 0.69317 0.21758 0.22180
 O206 O 0.71971 0.18807 0.19503
 O207 O 0.77074 0.24935 0.20807
 O208 O 0.77070 0.24921 0.29271
 O209 O 0.76938 0.20606 0.25038
 O210 O 0.73013 0.24912 0.29238
 Zr211 Zr 0.75045 0.20835 0.20934
 Zr212 Zr 0.75028 0.29011 0.29145
 Zr213 Zr 0.71226 0.24919 0.25032
 Zr214 Zr 0.75033 0.29026 0.20939
 Zr215 Zr 0.75042 0.20822 0.29139
 Zr216 Zr 0.78845 0.24928 0.25041
 H217 H 0.77818 0.31292 0.25049
 H218 H 0.72029 0.24928 0.18958
 H219 H 0.77836 0.18560 0.25042
 H220 H 0.72024 0.24906 0.31107
 H221 H 0.75188 0.14702 0.22356
 H222 H 0.74640 0.14705 0.27756
 H223 H 0.75173 0.35154 0.22371
 H224 H 0.74599 0.35129 0.27767
 C225 C 0.00014 0.50051 0.10299
 C226 C 0.00004 0.50015 -0.10423
 C227 C -0.05134 0.44599 0.04769
 C228 C -0.05143 0.55450 0.04768
 C229 C -0.05144 0.44610 -0.04859
 C230 C 0.05087 0.44925 -0.05150
 C231 C 0.05084 0.55146 -0.05160
 C232 C 0.05094 0.44922 0.05049
 C233 C -0.05144 0.55460 -0.04852
 C234 C 0.05089 0.55167 0.05044
 O235 O -0.03109 0.43913 -0.05573
 O236 O -0.05755 0.46856 -0.02873
 O237 O -0.03110 0.56168 -0.05557
 O238 O -0.05756 0.53201 -0.02878
 O239 O 0.03055 0.55881 0.05745
 O240 O 0.05694 0.53076 0.02907
 O241 O -0.00020 0.52828 -0.08998
 O242 O -0.00015 0.47205 -0.08989
 O243 O -0.00010 0.52866 0.08883
 O244 O -0.00010 0.47236 0.08890
 O245 O 0.03055 0.44208 -0.05852
 O246 O 0.05691 0.47011 -0.03013
 O247 O -0.03098 0.43895 0.05466
 O248 O -0.05750 0.46856 0.02797
 O249 O 0.03061 0.44201 0.05749
 O250 O 0.05697 0.47015 0.02912
 O251 O 0.03052 0.55862 -0.05861
 O252 O 0.05691 0.53062 -0.03019
 O253 O 0.00075 0.59292 0.04701
 O254 O 0.00053 0.59265 -0.04912
 O255 O 0.00083 0.40781 -0.04804
 O256 O 0.00065 0.40800 0.04804
 O257 O -0.01944 0.45690 -0.00041
 O258 O -0.01948 0.54373 -0.00056
 O259 O 0.01862 0.45721 -0.00047
 O260 O -0.02054 0.50037 0.04166
 O261 O -0.05754 0.53201 0.02788
 O262 O -0.03109 0.56152 0.05475
 O263 O 0.02008 0.50042 0.04190
 O264 O 0.02006 0.50031 -0.04290
 O265 O 0.01857 0.54354 -0.00061
 O266 O -0.02059 0.50029 -0.04264
 Zr267 Zr -0.00030 0.54132 0.04052
 Zr268 Zr -0.00031 0.45940 -0.04155
 Zr269 Zr -0.03839 0.50030 -0.00045
 Zr270 Zr -0.00026 0.45948 0.04066
 Zr271 Zr -0.00034 0.54118 -0.04170
 Zr272 Zr 0.03773 0.50040 -0.00051
 H273 H 0.02757 0.43674 -0.00046
 H274 H -0.03046 0.50033 0.06031
 H275 H 0.02751 0.56403 -0.00063
 H276 H -0.03052 0.50031 -0.06127
 H277 H -0.00371 0.60254 0.02647
 H278 H 0.00034 0.60257 -0.02778
 H279 H 0.00049 0.39810 0.02668
 H280 H -0.00369 0.39817 -0.02753
 C281 C 0.25071 0.75056 0.14641
 C282 C 0.25042 0.75102 0.35303
 C283 C 0.19914 0.80525 0.20149
 C284 C 0.19882 0.69683 0.20132
 C285 C 0.19887 0.80510 0.29777
 C286 C 0.30116 0.80210 0.30047
 C287 C 0.30108 0.69915 0.30054
 C288 C 0.30154 0.80214 0.19888
 C289 C 0.19875 0.69668 0.29787
 C290 C 0.30113 0.69908 0.19907
 O291 O 0.21922 0.81205 0.30486
 O292 O 0.19275 0.78266 0.27792
 O293 O 0.21910 0.68958 0.30488
 O294 O 0.19267 0.71923 0.27805
 O295 O 0.28080 0.69205 0.19202
 O296 O 0.30723 0.72016 0.22023
 O297 O 0.25014 0.72285 0.33900
 O298 O 0.25021 0.77915 0.33888
 O299 O 0.25036 0.72243 0.16053
 O300 O 0.25050 0.77873 0.16041
 O301 O 0.28083 0.80926 0.30748
 O302 O 0.30724 0.78102 0.27930
 O303 O 0.21951 0.81225 0.19453
 O304 O 0.19292 0.78270 0.22122
 O305 O 0.28120 0.80932 0.19182
 O306 O 0.30748 0.78099 0.22014
 O307 O 0.28073 0.69213 0.30756
 O308 O 0.30720 0.72023 0.27934
 O309 O 0.25092 0.65820 0.20229
 O310 O 0.25062 0.65845 0.29828
 O311 O 0.25104 0.84336 0.29711
 O312 O 0.25108 0.84315 0.20106
 O313 O 0.23092 0.79425 0.24953
 O314 O 0.23075 0.70737 0.24976
 O315 O 0.26902 0.79391 0.24963
 O316 O 0.22985 0.75085 0.20756
 O317 O 0.19272 0.71928 0.22120
 O318 O 0.21918 0.68977 0.19429
 O319 O 0.27048 0.75064 0.20732
 O320 O 0.27034 0.75078 0.29207
 O321 O 0.26886 0.70760 0.24980
 O322 O 0.22970 0.75089 0.29177
 Zr323 Zr 0.24998 0.70981 0.20874
 Zr324 Zr 0.25000 0.79177 0.29063
 Zr325 Zr 0.21191 0.75088 0.24963
 Zr326 Zr 0.25023 0.79169 0.20854
 Zr327 Zr 0.24991 0.70992 0.29083
 Zr328 Zr 0.28810 0.75068 0.24971
 H329 H 0.27797 0.81439 0.24962
 H330 H 0.21996 0.75091 0.18889
 H331 H 0.27773 0.68704 0.24983
 H332 H 0.21977 0.75091 0.31041
 H333 H 0.24625 0.64862 0.22276
 H334 H 0.25072 0.64852 0.27693
 H335 H 0.25125 0.85309 0.22240
 H336 H 0.24658 0.85298 0.27657
 C337 C 0.49933 0.49986 0.10341
 C338 C 0.49950 0.50013 -0.10321
 C339 C 0.55116 0.55401 0.04846
 C340 C 0.55124 0.44618 0.04885
 C341 C 0.55120 0.55383 -0.04837
 C342 C 0.44890 0.55158 -0.05077
 C343 C 0.44888 0.44849 -0.05053
 C344 C 0.44887 0.55154 0.05071
 C345 C 0.55115 0.44596 -0.04804
 C346 C 0.44893 0.44862 0.05089
 O347 O 0.53087 0.56092 -0.05544
 O348 O 0.55730 0.53156 -0.02830
 O349 O 0.53082 0.43881 -0.05498
 O350 O 0.55728 0.46837 -0.02819
 O351 O 0.46924 0.44150 0.05799
 O352 O 0.44286 0.46969 0.02967
 O353 O 0.49978 0.47198 -0.08909
 O354 O 0.49977 0.52828 -0.08916
 O355 O 0.49963 0.47172 0.08936
 O356 O 0.49963 0.52802 0.08931
 O357 O 0.46925 0.55866 -0.05781
 O358 O 0.44284 0.53048 -0.02954
 O359 O 0.53080 0.56118 0.05536
 O360 O 0.55729 0.53160 0.02857
 O361 O 0.46918 0.55865 0.05774
 O362 O 0.44281 0.53043 0.02957
 O363 O 0.46922 0.44136 -0.05753
 O364 O 0.44281 0.46966 -0.02942
 O365 O 0.49912 0.40742 0.04759
 O366 O 0.49937 0.40763 -0.04816
 O367 O 0.49913 0.59258 -0.04756
 O368 O 0.49934 0.59242 0.04838
 O369 O 0.51926 0.54348 0.00009
 O370 O 0.51928 0.45653 0.00015
 O371 O 0.48116 0.54321 0.00006
 O372 O 0.52027 0.50001 0.04224
 O373 O 0.55733 0.46842 0.02871
 O374 O 0.53088 0.43912 0.05589
 O375 O 0.47968 0.50000 0.04243
 O376 O 0.47970 0.50006 -0.04230
 O377 O 0.48116 0.45688 0.00015
 O378 O 0.52030 0.50002 -0.04193
 Zr379 Zr 0.50008 0.45905 0.04118
 Zr380 Zr 0.50007 0.54098 -0.04096
 Zr381 Zr 0.53815 0.50000 0.00018
 Zr382 Zr 0.50004 0.54093 0.04112
 Zr383 Zr 0.50006 0.45911 -0.04089
 Zr384 Zr 0.46201 0.50006 0.00006
 H385 H 0.47225 0.56373 0.00001
 H386 H 0.53013 0.50005 0.06094
 H387 H 0.47225 0.43637 0.00019
 H388 H 0.53019 0.49996 -0.06062
 H389 H 0.50417 0.39790 0.02729
 H390 H 0.49879 0.39774 -0.02680
 H391 H 0.49917 0.60231 0.02700
 H392 H 0.50385 0.60218 -0.02715
 C393 C 0.75041 0.75026 0.14647
 C394 C 0.75031 0.75102 0.35306
 C395 C 0.69863 0.80446 0.20100
 C396 C 0.69867 0.69648 0.20160
 C397 C 0.69865 0.80466 0.29807
 C398 C 0.80093 0.80187 0.30064
 C399 C 0.80095 0.69956 0.30104
 C400 C 0.80103 0.80167 0.19853
 C401 C 0.69862 0.69697 0.29852
 C402 C 0.80097 0.69923 0.19895
 O403 O 0.71899 0.81172 0.30510
 O404 O 0.69254 0.78238 0.27806
 O405 O 0.71896 0.68995 0.30562
 O406 O 0.69252 0.71915 0.27835
 O407 O 0.78064 0.69199 0.19208
 O408 O 0.80704 0.72023 0.22018
 O409 O 0.75006 0.72281 0.33910
 O410 O 0.75005 0.77913 0.33885
 O411 O 0.75011 0.72217 0.16067
 O412 O 0.75015 0.77847 0.16041
 O413 O 0.78060 0.80910 0.30759
 O414 O 0.80701 0.78094 0.27932
 O415 O 0.71900 0.81161 0.19407
 O416 O 0.69253 0.78216 0.22107
 O417 O 0.78070 0.80888 0.19156
 O418 O 0.80707 0.78078 0.21995
 O419 O 0.78061 0.69246 0.30807
 O420 O 0.80702 0.72037 0.27955
 O421 O 0.75052 0.65802 0.20197
 O422 O 0.75081 0.65823 0.29759
 O423 O 0.75085 0.84337 0.29673
 O424 O 0.75051 0.84296 0.20120
 O425 O 0.73056 0.79414 0.24955
 O426 O 0.73056 0.70718 0.24994
 O427 O 0.76873 0.79381 0.24955
 O428 O 0.72957 0.75051 0.20765
 O429 O 0.69254 0.71897 0.22141
 O430 O 0.71903 0.68927 0.19474
 O431 O 0.77015 0.75049 0.20740
 O432 O 0.77012 0.75077 0.29204
 O433 O 0.76872 0.70743 0.24993
 O434 O 0.72956 0.75079 0.29177
 Zr435 Zr 0.74979 0.70956 0.20890
 Zr436 Zr 0.74978 0.79172 0.29058
 Zr437 Zr 0.71167 0.75067 0.24972
 Zr438 Zr 0.74980 0.79147 0.20852
 Zr439 Zr 0.74977 0.70983 0.29096
 Zr440 Zr 0.78785 0.75060 0.24974
 H441 H 0.77769 0.81427 0.24951
 H442 H 0.71969 0.75043 0.18897
 H443 H 0.77767 0.68695 0.25005
 H444 H 0.71968 0.75086 0.31046
 H445 H 0.75111 0.64829 0.22340
 H446 H 0.74566 0.64860 0.27740
 H447 H 0.75128 0.85282 0.22255
 H448 H 0.74560 0.85285 0.27651
 C449 C 0.00012 0.00081 0.39618
 C450 C -0.00017 0.00061 0.60326
 C451 C -0.05161 0.05482 0.45119
 C452 C -0.05147 -0.05362 0.45167
 C453 C -0.05162 0.05504 0.54758
 C454 C 0.05069 0.05191 0.55073
 C455 C 0.05068 -0.05036 0.55090
 C456 C 0.05071 0.05182 0.44862
 C457 C -0.05162 -0.05342 0.54783
 C458 C 0.05084 -0.05042 0.44884
 O459 O -0.03128 0.06212 0.55463
 O460 O -0.05771 0.03247 0.52786
 O461 O -0.03129 -0.06042 0.55500
 O462 O -0.05771 -0.03095 0.52795
 O463 O 0.03053 -0.05763 0.44184
 O464 O 0.05685 -0.02951 0.47019
 O465 O -0.00038 -0.02753 0.58913
 O466 O -0.00040 0.02877 0.58910
 O467 O -0.00014 -0.02733 0.41036
 O468 O -0.00017 0.02897 0.41026
 O469 O 0.03035 0.05911 0.55767
 O470 O 0.05676 0.03102 0.52937
 O471 O -0.03125 0.06182 0.44410
 O472 O -0.05771 0.03241 0.47115
 O473 O 0.03040 0.05900 0.44157
 O474 O 0.05675 0.03100 0.47008
 O475 O 0.03034 -0.05754 0.55790
 O476 O 0.05674 -0.02951 0.52947
 O477 O 0.00052 -0.09166 0.45140
 O478 O 0.00061 -0.09177 0.54747
 O479 O 0.00035 0.09313 0.54802
 O480 O 0.00062 0.09328 0.45203
 O481 O -0.01964 0.04418 0.49964
 O482 O -0.01959 -0.04267 0.49971
 O483 O 0.01842 0.04391 0.49967
 O484 O -0.02067 0.00072 0.45750
 O485 O -0.05763 -0.03102 0.47133
 O486 O -0.03111 -0.06069 0.44471
 O487 O 0.01994 0.00077 0.45735
 O488 O 0.01986 0.00073 0.54213
 O489 O 0.01847 -0.04244 0.49978
 O490 O -0.02077 0.00074 0.54180
 Zr491 Zr -0.00038 -0.04017 0.45864
 Zr492 Zr -0.00051 0.04164 0.54078
 Zr493 Zr -0.03853 0.00075 0.49961
 Zr494 Zr -0.00046 0.04168 0.45854
 Zr495 Zr -0.00049 -0.04019 0.54084
 Zr496 Zr 0.03757 0.00075 0.49976
 H497 H 0.02737 0.06438 0.49964
 H498 H -0.03057 0.00066 0.43884
 H499 H 0.02743 -0.06291 0.49984
 H500 H -0.03071 0.00077 0.56043
 H501 H 0.00039 -0.10154 0.47278
 H502 H -0.00387 -0.10142 0.52698
 H503 H -0.00415 0.10287 0.47243
 H504 H 0.00047 0.10300 0.52663
 C505 C 0.25017 0.24919 0.85444
 C506 C 0.25023 0.24922 0.64734
 C507 C 0.19856 0.19495 0.79902
 C508 C 0.19867 0.30360 0.79879
 C509 C 0.19857 0.19515 0.70270
 C510 C 0.30086 0.19773 0.70012
 C511 C 0.30095 0.30061 0.70003
 C512 C 0.30094 0.19754 0.80158
 C513 C 0.19864 0.30346 0.70268
 C514 C 0.30097 0.30065 0.80150
 O515 O 0.21891 0.18811 0.69560
 O516 O 0.19248 0.21759 0.72257
 O517 O 0.21899 0.31043 0.69556
 O518 O 0.19252 0.28099 0.72255
 O519 O 0.28064 0.30777 0.80856
 O520 O 0.30701 0.27952 0.78035
 O521 O 0.25001 0.27737 0.66146
 O522 O 0.24997 0.22107 0.66150
 O523 O 0.24994 0.27732 0.84026
 O524 O 0.24993 0.22104 0.84035
 O525 O 0.28054 0.19066 0.69305
 O526 O 0.30693 0.21875 0.72133
 O527 O 0.21891 0.18785 0.80606
 O528 O 0.19248 0.21754 0.77926
 O529 O 0.28060 0.19047 0.80868
 O530 O 0.30698 0.21867 0.78038
 O531 O 0.28062 0.30770 0.69295
 O532 O 0.30699 0.27954 0.72128
 O533 O 0.25063 0.34155 0.79926
 O534 O 0.25079 0.34167 0.70291
 O535 O 0.25069 0.15673 0.70306
 O536 O 0.25052 0.15677 0.79940
 O537 O 0.23056 0.20577 0.75095
 O538 O 0.23061 0.29262 0.75086
 O539 O 0.26858 0.20603 0.75092
 O540 O 0.22946 0.24920 0.79307
 O541 O 0.19253 0.28099 0.77916
 O542 O 0.21901 0.31063 0.80581
 O543 O 0.27014 0.24914 0.79335
 O544 O 0.27013 0.24917 0.70848
 O545 O 0.26864 0.29231 0.75084
 O546 O 0.22948 0.24924 0.70875
 Zr547 Zr 0.24976 0.29007 0.79197
 Zr548 Zr 0.24971 0.20829 0.70981
 Zr549 Zr 0.21166 0.24923 0.75090
 Zr550 Zr 0.24971 0.20826 0.79207
 Zr551 Zr 0.24976 0.29011 0.70974
 Zr552 Zr 0.28778 0.24914 0.75088
 H553 H 0.27748 0.18550 0.75090
 H554 H 0.21953 0.24923 0.81172
 H555 H 0.27755 0.31281 0.75079
 H556 H 0.21958 0.24926 0.69010
 H557 H 0.25003 0.35147 0.77790
 H558 H 0.24677 0.35139 0.72358
 H559 H 0.24978 0.14688 0.77806
 H560 H 0.24662 0.14702 0.72373
 C561 C 0.49943 0.00042 0.39671
 C562 C 0.49914 0.00001 0.60334
 C563 C 0.55104 -0.05369 0.45174
 C564 C 0.55110 0.05427 0.45185
 C565 C 0.55088 -0.05374 0.54845
 C566 C 0.44865 -0.05111 0.55061
 C567 C 0.44869 0.05168 0.55072
 C568 C 0.44877 -0.05105 0.44922
 C569 C 0.55095 0.05398 0.54858
 C570 C 0.44882 0.05195 0.44926
 O571 O 0.53054 -0.06082 0.55547
 O572 O 0.55703 -0.03143 0.52846
 O573 O 0.53061 0.06109 0.55560
 O574 O 0.55707 0.03172 0.52855
 O575 O 0.46915 0.05909 0.44227
 O576 O 0.44272 0.03080 0.47039
 O577 O 0.49943 0.02822 0.58930
 O578 O 0.49941 -0.02809 0.58920
 O579 O 0.49970 0.02857 0.41077
 O580 O 0.49967 -0.02773 0.41080
 O581 O 0.46895 -0.05828 0.55772
 O582 O 0.44263 -0.03001 0.52940
 O583 O 0.53070 -0.06085 0.44480
 O584 O 0.55713 -0.03131 0.47165
 O585 O 0.46910 -0.05822 0.44223
 O586 O 0.44269 -0.02993 0.47035
 O587 O 0.46900 0.05875 0.55784
 O588 O 0.44265 0.03069 0.52945
 O589 O 0.49926 0.09281 0.45174
 O590 O 0.49889 0.09270 0.54787
 O591 O 0.49877 -0.09232 0.54761
 O592 O 0.49919 -0.09206 0.45165
 O593 O 0.51907 -0.04323 0.50001
 O594 O 0.51910 0.04374 0.50007
 O595 O 0.48096 -0.04285 0.49994
 O596 O 0.52017 0.00034 0.45792
 O597 O 0.55715 0.03182 0.47174
 O598 O 0.53077 0.06151 0.44486
 O599 O 0.47958 0.00040 0.45756
 O600 O 0.47946 0.00024 0.54232
 O601 O 0.48102 0.04350 0.50000
 O602 O 0.52003 0.00017 0.54212
 Zr603 Zr 0.49997 0.04130 0.45897
 Zr604 Zr 0.49980 -0.04072 0.54100
 Zr605 Zr 0.53793 0.00023 0.50006
 Zr606 Zr 0.49993 -0.04058 0.45895
 Zr607 Zr 0.49984 0.04114 0.54109
 Zr608 Zr 0.46187 0.00036 0.49992
 H609 H 0.47204 -0.06336 0.49994
 H610 H 0.53009 0.00035 0.43926
 H611 H 0.47212 0.06404 0.50003
 H612 H 0.52989 0.00012 0.56082
 H613 H 0.49968 0.10264 0.47312
 H614 H 0.50335 0.10242 0.52737
 H615 H 0.49917 -0.10196 0.47302
 H616 H 0.50345 -0.10195 0.52718
 C617 C 0.75014 0.24941 0.85387
 C618 C 0.74990 0.24906 0.64728
 C619 C 0.69830 0.19521 0.79948
 C620 C 0.69836 0.30331 0.79887
 C621 C 0.69830 0.19522 0.70240
 C622 C 0.80055 0.19823 0.69944
 C623 C 0.80050 0.30048 0.69924
 C624 C 0.80067 0.19825 0.80146
 C625 C 0.69819 0.30292 0.70215
 C626 C 0.80064 0.30066 0.80127
 O627 O 0.71864 0.18821 0.69527
 O628 O 0.69218 0.21745 0.72247
 O629 O 0.71852 0.31001 0.69501
 O630 O 0.69211 0.28067 0.72227
 O631 O 0.78031 0.30785 0.80825
 O632 O 0.80669 0.27968 0.77998
 O633 O 0.74961 0.27724 0.66129
 O634 O 0.74964 0.22092 0.66144
 O635 O 0.74981 0.27753 0.83973
 O636 O 0.74985 0.22123 0.83989
 O637 O 0.78023 0.19095 0.69256
 O638 O 0.80662 0.21912 0.72078
 O639 O 0.71869 0.18810 0.80631
 O640 O 0.69217 0.21756 0.77948
 O641 O 0.78037 0.19097 0.80852
 O642 O 0.80668 0.21917 0.78008
 O643 O 0.78015 0.30759 0.69228
 O644 O 0.80659 0.27964 0.72067
 O645 O 0.75015 0.34176 0.79861
 O646 O 0.75029 0.34173 0.70288
 O647 O 0.75054 0.15662 0.70341
 O648 O 0.75024 0.15683 0.79899
 O649 O 0.73022 0.20568 0.75078
 O650 O 0.73017 0.29263 0.75056
 O651 O 0.76837 0.20612 0.75066
 O652 O 0.72922 0.24928 0.79279
 O653 O 0.69220 0.28081 0.77913
 O654 O 0.71870 0.31053 0.80569
 O655 O 0.76980 0.24932 0.79287
 O656 O 0.76971 0.24922 0.70822
 O657 O 0.76832 0.29251 0.75041
 O658 O 0.72915 0.24914 0.70865
 Zr659 Zr 0.74945 0.29024 0.79152
 Zr660 Zr 0.74941 0.20824 0.70969
 Zr661 Zr 0.71131 0.24913 0.75078
 Zr662 Zr 0.74945 0.20834 0.79175
 Zr663 Zr 0.74934 0.29013 0.70946
 Zr664 Zr 0.78745 0.24936 0.75047
 H665 H 0.77735 0.18566 0.75062
 H666 H 0.71935 0.24931 0.81150
 H667 H 0.77725 0.31301 0.75030
 H668 H 0.71926 0.24909 0.68999
 H669 H 0.75064 0.35157 0.77720
 H670 H 0.74531 0.35133 0.72317
 H671 H 0.75088 0.14701 0.77761
 H672 H 0.74538 0.14706 0.72365
 C673 C 0.00031 0.50024 0.39711
 C674 C 0.00014 0.49991 0.60419
 C675 C -0.05130 0.55424 0.45224
 C676 C -0.05123 0.44573 0.45259
 C677 C -0.05132 0.55442 0.54852
 C678 C 0.05099 0.55121 0.55152
 C679 C 0.05098 0.44885 0.55172
 C680 C 0.05105 0.55128 0.44944
 C681 C -0.05137 0.44589 0.54885
 C682 C 0.05107 0.44882 0.44960
 O683 O -0.03097 0.56147 0.55555
 O684 O -0.05743 0.53182 0.52884
 O685 O -0.03103 0.43890 0.55600
 O686 O -0.05745 0.46835 0.52895
 O687 O 0.03073 0.44167 0.44267
 O688 O 0.05713 0.46974 0.47094
 O689 O -0.00007 0.47177 0.59007
 O690 O -0.00009 0.52806 0.59001
 O691 O 0.00006 0.47207 0.41126
 O692 O 0.00007 0.52838 0.41122
 O693 O 0.03066 0.55837 0.55851
 O694 O 0.05707 0.53031 0.53018
 O695 O -0.03094 0.56122 0.44514
 O696 O -0.05741 0.53180 0.47214
 O697 O 0.03071 0.55843 0.44246
 O698 O 0.05710 0.53038 0.47086
 O699 O 0.03064 0.44173 0.55875
 O700 O 0.05706 0.46971 0.53029
 O701 O 0.00074 0.40770 0.45227
 O702 O 0.00089 0.40751 0.54830
 O703 O 0.00066 0.59240 0.54898
 O704 O 0.00095 0.59264 0.45303
 O705 O -0.01934 0.54348 0.50058
 O706 O -0.01933 0.45665 0.50063
 O707 O 0.01874 0.54320 0.50058
 O708 O -0.02040 0.50009 0.45846
 O709 O -0.05739 0.46833 0.47226
 O710 O -0.03087 0.43868 0.44561
 O711 O 0.02023 0.50010 0.45821
 O712 O 0.02018 0.50001 0.54298
 O713 O 0.01874 0.45689 0.50064
 O714 O -0.02048 0.50004 0.54274
 Zr715 Zr -0.00013 0.45918 0.45953
 Zr716 Zr -0.00020 0.54092 0.54170
 Zr717 Zr -0.03827 0.50007 0.50058
 Zr718 Zr -0.00015 0.54103 0.45949
 Zr719 Zr -0.00021 0.45911 0.54175
 Zr720 Zr 0.03790 0.50004 0.50058
 H721 H 0.02768 0.56367 0.50054
 H722 H -0.03031 0.50005 0.43981
 H723 H 0.02769 0.43641 0.50068
 H724 H -0.03042 0.50008 0.56138
 H725 H 0.00072 0.39781 0.47365
 H726 H -0.00372 0.39790 0.52784
 H727 H -0.00382 0.60221 0.47344
 H728 H 0.00090 0.60229 0.52760
 C729 C 0.25024 0.75067 0.85322
 C730 C 0.25014 0.75084 0.64658
 C731 C 0.19858 0.69636 0.79791
 C732 C 0.19849 0.80480 0.79839
 C733 C 0.19851 0.69666 0.70186
 C734 C 0.30080 0.69925 0.69907
 C735 C 0.30078 0.80222 0.69924
 C736 C 0.30087 0.69905 0.80055
 C737 C 0.19851 0.80515 0.70200
 C738 C 0.30084 0.80201 0.80071
 O739 O 0.21885 0.68965 0.69474
 O740 O 0.19239 0.71913 0.72168
 O741 O 0.21887 0.81222 0.69498
 O742 O 0.19239 0.78255 0.72172
 O743 O 0.28052 0.80916 0.80780
 O744 O 0.30688 0.78097 0.77946
 O745 O 0.24987 0.77896 0.66070
 O746 O 0.24988 0.72266 0.66065
 O747 O 0.24997 0.77885 0.83918
 O748 O 0.24995 0.72254 0.83913
 O749 O 0.28047 0.69221 0.69202
 O750 O 0.30687 0.72029 0.72028
 O751 O 0.21892 0.68925 0.80489
 O752 O 0.19244 0.71901 0.77828
 O753 O 0.28054 0.69194 0.80759
 O754 O 0.30692 0.72021 0.77938
 O755 O 0.28047 0.80938 0.69224
 O756 O 0.30686 0.78106 0.72037
 O757 O 0.25067 0.84321 0.79760
 O758 O 0.25042 0.84319 0.70157
 O759 O 0.25060 0.65831 0.70203
 O760 O 0.25047 0.65827 0.79835
 O761 O 0.23047 0.70734 0.74994
 O762 O 0.23045 0.79422 0.74999
 O763 O 0.26855 0.70752 0.74988
 O764 O 0.22941 0.75068 0.79209
 O765 O 0.19239 0.78241 0.77846
 O766 O 0.21884 0.81176 0.80547
 O767 O 0.27003 0.75067 0.79229
 O768 O 0.27001 0.75077 0.70753
 O769 O 0.26854 0.79384 0.74994
 O770 O 0.22937 0.75081 0.70784
 Zr771 Zr 0.24964 0.79163 0.79101
 Zr772 Zr 0.24963 0.70986 0.70886
 Zr773 Zr 0.21156 0.75079 0.75000
 Zr774 Zr 0.24968 0.70975 0.79096
 Zr775 Zr 0.24962 0.79170 0.70891
 Zr776 Zr 0.28769 0.75066 0.74990
 H777 H 0.27745 0.68699 0.74984
 H778 H 0.21950 0.75060 0.81075
 H779 H 0.27746 0.81435 0.74997
 H780 H 0.21945 0.75088 0.68921
 H781 H 0.24606 0.85287 0.77714
 H782 H 0.25055 0.85306 0.72294
 H783 H 0.25001 0.64836 0.77700
 H784 H 0.24659 0.64856 0.72270
 C785 C 0.49930 0.49967 0.39673
 C786 C 0.49917 0.49975 0.60334
 C787 C 0.55108 0.44567 0.45171
 C788 C 0.55102 0.55374 0.45162
 C789 C 0.55096 0.44581 0.54862
 C790 C 0.44867 0.44820 0.55088
 C791 C 0.44865 0.55121 0.55074
 C792 C 0.44872 0.44813 0.44935
 C793 C 0.55097 0.55360 0.54852
 C794 C 0.44870 0.55122 0.44926
 O795 O 0.53061 0.43878 0.55565
 O796 O 0.55710 0.46808 0.52855
 O797 O 0.53061 0.56064 0.55554
 O798 O 0.55710 0.53133 0.52849
 O799 O 0.46904 0.55834 0.44225
 O800 O 0.44262 0.53007 0.47042
 O801 O 0.49944 0.52790 0.58922
 O802 O 0.49946 0.47159 0.58930
 O803 O 0.49958 0.52781 0.41078
 O804 O 0.49959 0.47152 0.41083
 O805 O 0.46901 0.44114 0.55794
 O806 O 0.44261 0.46926 0.52964
 O807 O 0.53072 0.43850 0.44480
 O808 O 0.55717 0.46808 0.47160
 O809 O 0.46907 0.44100 0.44236
 O810 O 0.44263 0.46927 0.47048
 O811 O 0.46898 0.55829 0.55779
 O812 O 0.44260 0.53012 0.52956
 O813 O 0.49919 0.59211 0.45164
 O814 O 0.49885 0.59225 0.54746
 O815 O 0.49887 0.40719 0.54780
 O816 O 0.49923 0.40723 0.45189
 O817 O 0.51909 0.45623 0.50009
 O818 O 0.51908 0.54316 0.49998
 O819 O 0.48097 0.45652 0.50007
 O820 O 0.52014 0.49968 0.45792
 O821 O 0.55714 0.53132 0.47154
 O822 O 0.53067 0.56088 0.44470
 O823 O 0.47952 0.49967 0.45764
 O824 O 0.47946 0.49971 0.54237
 O825 O 0.48095 0.54284 0.49997
 O826 O 0.52006 0.49971 0.54208
 Zr827 Zr 0.49989 0.54061 0.45894
 Zr828 Zr 0.49984 0.45878 0.54111
 Zr829 Zr 0.53799 0.49970 0.50003
 Zr830 Zr 0.49992 0.45874 0.45903
 Zr831 Zr 0.49983 0.54065 0.54101
 Zr832 Zr 0.46179 0.49968 0.50002
 H833 H 0.47207 0.43600 0.50013
 H834 H 0.53004 0.49969 0.43924
 H835 H 0.47204 0.56336 0.49997
 H836 H 0.52991 0.49972 0.56079
 H837 H 0.49883 0.60196 0.47301
 H838 H 0.50374 0.60184 0.52710
 H839 H 0.49918 0.39740 0.47329
 H840 H 0.50361 0.39754 0.52741
 C841 C 0.75018 0.75019 0.85320
 C842 C 0.75000 0.75102 0.64660
 C843 C 0.69852 0.69627 0.79818
 C844 C 0.69833 0.80429 0.79874
 C845 C 0.69836 0.69687 0.70138
 C846 C 0.80067 0.69969 0.69859
 C847 C 0.80059 0.80197 0.69884
 C848 C 0.80078 0.69930 0.80063
 C849 C 0.69834 0.80460 0.70180
 C850 C 0.80070 0.80166 0.80086
 O851 O 0.71871 0.68988 0.69425
 O852 O 0.69226 0.71905 0.72153
 O853 O 0.71866 0.81171 0.69468
 O854 O 0.69225 0.78227 0.72181
 O855 O 0.78038 0.80885 0.80790
 O856 O 0.80674 0.78081 0.77946
 O857 O 0.74971 0.77912 0.66077
 O858 O 0.74976 0.72280 0.66061
 O859 O 0.74988 0.77839 0.83921
 O860 O 0.74990 0.72209 0.83905
 O861 O 0.78034 0.69253 0.69162
 O862 O 0.80672 0.72050 0.72002
 O863 O 0.71887 0.68910 0.80502
 O864 O 0.69235 0.71878 0.77841
 O865 O 0.78046 0.69200 0.80758
 O866 O 0.80681 0.72032 0.77933
 O867 O 0.78025 0.80917 0.69194
 O868 O 0.80668 0.78103 0.72017
 O869 O 0.75020 0.84289 0.79835
 O870 O 0.75048 0.84333 0.70263
 O871 O 0.75057 0.65822 0.70221
 O872 O 0.75040 0.65797 0.79788
 O873 O 0.73033 0.70711 0.74986
 O874 O 0.73026 0.79407 0.75011
 O875 O 0.76848 0.70743 0.74974
 O876 O 0.72932 0.75041 0.79209
 O877 O 0.69224 0.78197 0.77874
 O878 O 0.71869 0.81149 0.80558
 O879 O 0.76989 0.75048 0.79221
 O880 O 0.76982 0.75079 0.70755
 O881 O 0.76840 0.79382 0.75000
 O882 O 0.72926 0.75074 0.70795
 Zr883 Zr 0.74949 0.79141 0.79109
 Zr884 Zr 0.74950 0.70981 0.70877
 Zr885 Zr 0.71142 0.75056 0.75006
 Zr886 Zr 0.74959 0.70950 0.79083
 Zr887 Zr 0.74945 0.79170 0.70902
 Zr888 Zr 0.78755 0.75064 0.74982
 H889 H 0.77744 0.68696 0.74963
 H890 H 0.71944 0.75029 0.81080
 H891 H 0.77734 0.81431 0.74998
 H892 H 0.71937 0.75082 0.68929
 H893 H 0.75051 0.85278 0.77697
 H894 H 0.74549 0.85286 0.72295
 H895 H 0.75093 0.64823 0.77647
 H896 H 0.74550 0.64857 0.72246
 N897 N 0.00138 0.02888 0.18448
 C898 C 0.00141 0.00008 0.20084
 N899 N 0.00135 -0.02883 0.18472
 N900 N 0.00124 -0.02894 0.15320
 C901 C 0.00120 -0.00014 0.13673
 N902 N 0.00128 0.02877 0.15297
 C903 C 0.00137 0.00021 0.23481
 C904 C 0.00126 0.00035 0.26334
 C905 C 0.00107 0.00049 0.29731
 N906 N 0.00094 -0.02830 0.31367
 N907 N 0.00066 -0.02819 0.34518
 C908 C 0.00049 0.00072 0.36141
 N909 N 0.00063 0.02953 0.34494
 N910 N 0.00091 0.02941 0.31342
 N911 N 0.25085 0.27851 1.06600
 C912 C 0.25097 0.24964 1.04982
 N913 N 0.25093 0.22082 1.06613
 N914 N 0.25076 0.22086 1.09764
 C915 C 0.25062 0.24974 1.11404
 N916 N 0.25068 0.27857 1.09751
 C917 C 0.25101 0.24958 1.01585
 C918 C 0.25098 0.24950 0.98731
 C919 C 0.25087 0.24940 0.95333
 N920 N 0.25077 0.22051 0.93718
 N921 N 0.25057 0.22043 0.90566
 C922 C 0.25047 0.24925 0.88921
 N923 N 0.25059 0.27815 0.90548
 N924 N 0.25078 0.27822 0.93700
 N925 N 0.10667 0.07627 0.07824
 C926 C 0.10124 0.09813 0.10125
 N927 N 0.07955 0.10463 0.10700
 N928 N 0.06375 0.08966 0.09031
 C929 C 0.06910 0.06772 0.06727
 N930 N 0.09086 0.06129 0.06154
 C931 C 0.11822 0.11429 0.11928
 C932 C 0.13242 0.12803 0.13440
 C933 C 0.14934 0.14462 0.15218
 N934 N 0.14383 0.16774 0.17398
 N935 N 0.15958 0.18373 0.18992
 C936 C 0.18136 0.17710 0.18460
 N937 N 0.18680 0.15384 0.16282
 N938 N 0.17105 0.13787 0.14689
 N939 N 0.35608 0.32859 0.17188
 C940 C 0.35074 0.35100 0.14931
 N941 N 0.32908 0.35715 0.14306
 N942 N 0.31320 0.34133 0.15891
 C943 C 0.31847 0.31886 0.18154
 N944 N 0.34020 0.31276 0.18774
 C945 C 0.36779 0.36797 0.13219
 C946 C 0.38210 0.38224 0.11777
 C947 C 0.39915 0.39919 0.10063
 N948 N 0.39381 0.42157 0.07803
 N949 N 0.40969 0.43733 0.06211
 C950 C 0.43142 0.43122 0.06829
 N951 N 0.43669 0.40878 0.09095
 N952 N 0.42082 0.39302 0.10686
 N953 N 0.32942 0.14261 0.14297
 C954 C 0.35110 0.14871 0.14924
 N955 N 0.35637 0.17111 0.17183
 N956 N 0.34046 0.18693 0.18765
 C957 C 0.31872 0.18087 0.18143
 N958 N 0.31351 0.15842 0.15878
 C959 C 0.36824 0.13166 0.13214
 C960 C 0.38259 0.11729 0.11775
 C961 C 0.39969 0.10021 0.10060
 N962 N 0.42138 0.10641 0.10664
 N963 N 0.43725 0.09054 0.09078
 C964 C 0.43197 0.06793 0.06832
 N965 N 0.41021 0.06177 0.06232
 N966 N 0.39435 0.07764 0.07819
 N967 N 0.17074 0.36204 0.14725
 C968 C 0.14905 0.35519 0.15266
 N969 N 0.14364 0.33195 0.17443
 N970 N 0.15946 0.31594 0.19024
 C971 C 0.18121 0.32265 0.18481
 N972 N 0.18655 0.34603 0.16305
 C973 C 0.13204 0.37182 0.13503
 C974 C 0.11776 0.38558 0.12004
 C975 C 0.10071 0.40178 0.10214
 N976 N 0.07903 0.39520 0.10795
 N977 N 0.06318 0.41022 0.09136
 C978 C 0.06847 0.43228 0.06836
 N979 N 0.09021 0.43880 0.06258
 N980 N 0.10606 0.42377 0.07918
 N981 N 0.35604 0.17153 0.32759
 C982 C 0.35069 0.14915 0.35020
 N983 N 0.32902 0.14289 0.35633
 N984 N 0.31315 0.15856 0.34034
 C985 C 0.31843 0.18100 0.31768
 N986 N 0.34017 0.18721 0.31159
 C987 C 0.36775 0.13232 0.36748
 C988 C 0.38206 0.11817 0.38203
 C989 C 0.39910 0.10132 0.39932
 N990 N 0.39373 0.07890 0.42187
 N991 N 0.40958 0.06318 0.43787
 C992 C 0.43132 0.06940 0.43183
 N993 N 0.43663 0.09189 0.40922
 N994 N 0.42078 0.10759 0.39323
 N995 N 0.14347 0.33159 0.32480
 C996 C 0.14890 0.35467 0.34668
 N997 N 0.17060 0.36145 0.35202
 N998 N 0.18640 0.34554 0.33608
 C999 C 0.18104 0.32232 0.31423
 N1000 N 0.15928 0.31567 0.30885
 C1001 C 0.13191 0.37124 0.36446
 C1002 C 0.11768 0.38500 0.37958
 C1003 C 0.10069 0.40123 0.39764
 N1004 N 0.10613 0.42319 0.42055
 N1005 N 0.09033 0.43826 0.43726
 C1006 C 0.06857 0.43183 0.43165
 N1007 N 0.06320 0.40979 0.40870
 N1008 N 0.07899 0.39474 0.39201
 N1009 N 0.14356 0.16776 0.32400
 C1010 C 0.14892 0.14457 0.34583
 N1011 N 0.17059 0.13767 0.35130
 N1012 N 0.18644 0.15359 0.33550
 C1013 C 0.18115 0.17694 0.31370
 N1014 N 0.15942 0.18369 0.30820
 C1015 C 0.13189 0.12814 0.36352
 C1016 C 0.11758 0.11457 0.37858
 C1017 C 0.10052 0.09863 0.39660
 N1018 N 0.10584 0.07682 0.41972
 N1019 N 0.08996 0.06201 0.43646
 C1020 C 0.06824 0.06858 0.43066
 N1021 N 0.06299 0.09047 0.40750
 N1022 N 0.07886 0.10527 0.39077
 N1023 N 0.35598 0.32835 0.32765
 C1024 C 0.35061 0.35066 0.35027
 N1025 N 0.32891 0.35680 0.35641
 N1026 N 0.31307 0.34110 0.34042
 C1027 C 0.31838 0.31872 0.31774
 N1028 N 0.34014 0.31263 0.31165
 C1029 C 0.36765 0.36756 0.36757
 C1030 C 0.38195 0.38177 0.38212
 C1031 C 0.39900 0.39868 0.39941
 N1032 N 0.39362 0.42109 0.42194
 N1033 N 0.40946 0.43683 0.43792
 C1034 C 0.43121 0.43067 0.43191
 N1035 N 0.43653 0.40819 0.40933
 N1036 N 0.42069 0.39246 0.39335
 N1037 N 0.49922 0.02823 0.18566
 C1038 C 0.49904 -0.00052 0.20205
 N1039 N 0.49919 -0.02950 0.18608
 N1040 N 0.49950 -0.02972 0.15459
 C1041 C 0.49969 -0.00096 0.13808
 N1042 N 0.49953 0.02802 0.15418
 C1043 C 0.49885 -0.00027 0.23587
 C1044 C 0.49876 -0.00007 0.26430
 C1045 C 0.49877 0.00010 0.29812
 N1046 N 0.49882 -0.02869 0.31443
 N1047 N 0.49899 -0.02857 0.34592
 C1048 C 0.49911 0.00036 0.36209
 N1049 N 0.49904 0.02917 0.34566
 N1050 N 0.49888 0.02904 0.31417
 N1051 N 0.75163 0.27842 1.06472
 C1052 C 0.75176 0.24957 1.04853
 N1053 N 0.75172 0.22069 1.06470
 N1054 N 0.75153 0.22064 1.09619
 C1055 C 0.75138 0.24948 1.11250
 N1056 N 0.75144 0.27838 1.09621
 C1057 C 0.75175 0.24961 1.01471
 C1058 C 0.75164 0.24961 0.98627
 C1059 C 0.75140 0.24957 0.95246
 N1060 N 0.75123 0.22068 0.93635
 N1061 N 0.75085 0.22062 0.90486
 C1062 C 0.75062 0.24947 0.88849
 N1063 N 0.75080 0.27837 0.90472
 N1064 N 0.75118 0.27841 0.93621
 N1065 N 0.60695 0.07868 0.07671
 C1066 C 0.60156 0.10149 0.09888
 N1067 N 0.57989 0.10878 0.10389
 N1068 N 0.56408 0.09359 0.08740
 C1069 C 0.56940 0.07063 0.06527
 N1070 N 0.59114 0.06348 0.06020
 C1071 C 0.61856 0.11728 0.11723
 C1072 C 0.63280 0.13049 0.13275
 C1073 C 0.64976 0.14631 0.15114
 N1074 N 0.64432 0.16907 0.17332
 N1075 N 0.66010 0.18429 0.18988
 C1076 C 0.68186 0.17721 0.18485
 N1077 N 0.68723 0.15429 0.16270
 N1078 N 0.67145 0.13908 0.14615
 N1079 N -0.14348 0.32619 0.17037
 C1080 C -0.14893 0.34819 0.14747
 N1081 N -0.17063 0.35475 0.14185
 N1082 N -0.18641 0.33970 0.15857
 C1083 C -0.18103 0.31762 0.18151
 N1084 N -0.15926 0.31113 0.18710
 C1085 C -0.13197 0.36441 0.12943
 C1086 C -0.11776 0.37819 0.11431
 C1087 C -0.10083 0.39483 0.09656
 N1088 N -0.10631 0.41806 0.07482
 N1089 N -0.09054 0.43410 0.05891
 C1090 C -0.06877 0.42742 0.06421
 N1091 N -0.06336 0.40405 0.08593
 N1092 N -0.07912 0.38801 0.10182
 N1093 N 0.89425 0.08149 0.07432
 C1094 C 0.89969 0.10454 0.09623
 N1095 N 0.92139 0.11133 0.10153
 N1096 N 0.93718 0.09548 0.08552
 C1097 C 0.93182 0.07229 0.06364
 N1098 N 0.91004 0.06563 0.05831
 C1099 C 0.88270 0.12105 0.11408
 C1100 C 0.86844 0.13474 0.12923
 C1101 C 0.85141 0.15087 0.14732
 N1102 N 0.85679 0.17282 0.17026
 N1103 N 0.84097 0.18779 0.18698
 C1104 C 0.81921 0.18127 0.18136
 N1105 N 0.81389 0.15924 0.15838
 N1106 N 0.82972 0.14429 0.14167
 N1107 N 0.67109 0.35955 0.14636
 C1108 C 0.64941 0.35229 0.15144
 N1109 N 0.64406 0.32942 0.17361
 N1110 N 0.65990 0.31415 0.19005
 C1111 C 0.68164 0.32127 0.18494
 N1112 N 0.68692 0.34429 0.16280
 C1113 C 0.63237 0.36820 0.13318
 C1114 C 0.61807 0.38148 0.11776
 C1115 C 0.60102 0.39736 0.09949
 N1116 N 0.57934 0.39025 0.10473
 N1117 N 0.56350 0.40545 0.08826
 C1118 C 0.56878 0.42826 0.06592
 N1119 N 0.59052 0.43524 0.06064
 N1120 N 0.60637 0.42003 0.07713
 N1121 N -0.14462 0.17396 0.32871
 C1122 C -0.14993 0.15196 0.35169
 N1123 N -0.17160 0.14540 0.35755
 N1124 N -0.18748 0.16043 0.34100
 C1125 C -0.18229 0.18258 0.31795
 N1126 N -0.16050 0.18900 0.31215
 C1127 C -0.13282 0.13575 0.36959
 C1128 C -0.11849 0.12202 0.38457
 C1129 C -0.10141 0.10546 0.40224
 N1130 N -0.10676 0.08241 0.42424
 N1131 N -0.09090 0.06654 0.44012
 C1132 C -0.06915 0.07320 0.43457
 N1133 N -0.06387 0.09638 0.41258
 N1134 N -0.07972 0.11224 0.39670
 N1135 N 0.64394 0.32897 0.32716
 C1136 C 0.64926 0.35158 0.34952
 N1137 N 0.67092 0.35870 0.35480
 N1138 N 0.68679 0.34352 0.33835
 C1139 C 0.68154 0.32075 0.31602
 N1140 N 0.65981 0.31378 0.31071
 C1141 C 0.63219 0.36743 0.36775
 C1142 C 0.61789 0.38069 0.38315
 C1143 C 0.60085 0.39659 0.40138
 N1144 N 0.60619 0.41942 0.42352
 N1145 N 0.59035 0.43471 0.43993
 C1146 C 0.56861 0.42764 0.43479
 N1147 N 0.56333 0.40465 0.41268
 N1148 N 0.57918 0.38937 0.39627
 N1149 N 0.64417 0.16934 0.32689
 C1150 C 0.64947 0.14681 0.34937
 N1151 N 0.67111 0.13960 0.35470
 N1152 N 0.68700 0.15465 0.33818
 C1153 C 0.68176 0.17735 0.31575
 N1154 N 0.66005 0.18439 0.31037
 C1155 C 0.63241 0.13126 0.36771
 C1156 C 0.61808 0.11829 0.38320
 C1157 C 0.60100 0.10275 0.40151
 N1158 N 0.60626 0.08000 0.42380
 N1159 N 0.59035 0.06493 0.44025
 C1160 C 0.56866 0.07218 0.43500
 N1161 N 0.56346 0.09511 0.41275
 N1162 N 0.57938 0.11017 0.39630
 N1163 N -0.14354 0.32597 0.33045
 C1164 C -0.14898 0.34784 0.35343
 N1165 N -0.17068 0.35429 0.35920
 N1166 N -0.18647 0.33926 0.34254
 C1167 C -0.18110 0.31731 0.31952
 N1168 N -0.15933 0.31093 0.31378
 C1169 C -0.13199 0.36408 0.37138
 C1170 C -0.11776 0.37788 0.38640
 C1171 C -0.10079 0.39454 0.40403
 N1172 N -0.10624 0.41780 0.42573
 N1173 N -0.09045 0.43385 0.44152
 C1174 C -0.06869 0.42716 0.43615
 N1175 N -0.06330 0.40376 0.41448
 N1176 N -0.07909 0.38772 0.39869
 N1177 N 0.00072 0.52933 0.18559
 C1178 C 0.00082 0.50046 0.20184
 N1179 N 0.00073 0.47162 0.18562
 N1180 N 0.00054 0.47163 0.15410
 C1181 C 0.00043 0.50050 0.13774
 N1182 N 0.00053 0.52936 0.15408
 C1183 C 0.00092 0.50043 0.23579
 C1184 C 0.00095 0.50039 0.26431
 C1185 C 0.00090 0.50035 0.29826
 N1186 N 0.00082 0.47147 0.31449
 N1187 N 0.00067 0.47143 0.34601
 C1188 C 0.00058 0.50027 0.36236
 N1189 N 0.00068 0.52915 0.34601
 N1190 N 0.00084 0.52918 0.31450
 N1191 N 0.25149 0.77934 1.06395
 C1192 C 0.25152 0.75046 1.04783
 N1193 N 0.25134 0.72161 1.06406
 N1194 N 0.25113 0.72163 1.09555
 C1195 C 0.25108 0.75052 1.11179
 N1196 N 0.25128 0.77937 1.09544
 C1197 C 0.25155 0.75044 1.01402
 C1198 C 0.25149 0.75045 0.98559
 C1199 C 0.25131 0.75050 0.95179
 N1200 N 0.25114 0.72166 0.93560
 N1201 N 0.25082 0.72171 0.90411
 C1202 C 0.25065 0.75060 0.88783
 N1203 N 0.25084 0.77945 0.90414
 N1204 N 0.25115 0.77939 0.93563
 N1205 N 0.10604 0.57740 0.07902
 C1206 C 0.10068 0.59940 0.10194
 N1207 N 0.07898 0.60586 0.10778
 N1208 N 0.06314 0.59076 0.09126
 C1209 C 0.06844 0.56869 0.06829
 N1210 N 0.09019 0.56229 0.06248
 C1211 C 0.11774 0.61570 0.11981
 C1212 C 0.13204 0.62950 0.13478
 C1213 C 0.14909 0.64613 0.15241
 N1214 N 0.14370 0.66925 0.17429
 N1215 N 0.15953 0.68515 0.19015
 C1216 C 0.18130 0.67846 0.18470
 N1217 N 0.18661 0.65521 0.16284
 N1218 N 0.17078 0.63931 0.14698
 N1219 N 0.39554 0.92164 0.07729
 C1220 C 0.40077 0.89917 0.09989
 N1221 N 0.42245 0.89286 0.10599
 N1222 N 0.43839 0.90851 0.09003
 C1223 C 0.43327 0.93110 0.06733
 N1224 N 0.41147 0.93730 0.06132
 C1225 C 0.38353 0.88229 0.11720
 C1226 C 0.36907 0.86814 0.13172
 C1227 C 0.35180 0.85130 0.14899
 N1228 N 0.35696 0.82886 0.17166
 N1229 N 0.34098 0.81325 0.18758
 C1230 C 0.31925 0.81953 0.18142
 N1231 N 0.31414 0.84203 0.15869
 N1232 N 0.33013 0.85763 0.14278
 N1233 N 0.32912 0.64330 0.14318
 C1234 C 0.35080 0.64938 0.14932
 N1235 N 0.35620 0.67175 0.17186
 N1236 N 0.34036 0.68759 0.18779
 C1237 C 0.31861 0.68156 0.18170
 N1238 N 0.31329 0.65913 0.15910
 C1239 C 0.36782 0.63238 0.13212
 C1240 C 0.38210 0.61808 0.11764
 C1241 C 0.39913 0.60111 0.10045
 N1242 N 0.42081 0.60726 0.10657
 N1243 N 0.43666 0.59148 0.09066
 C1244 C 0.43136 0.56901 0.06808
 N1245 N 0.40962 0.56290 0.06201
 N1246 N 0.39376 0.57870 0.07793
 N1247 N 0.10671 0.92376 0.07835
 C1248 C 0.10137 0.90199 0.10150
 N1249 N 0.07971 0.89534 0.10733
 N1250 N 0.06385 0.91010 0.09056
 C1251 C 0.06912 0.93196 0.06738
 N1252 N 0.09085 0.93853 0.06158
 C1253 C 0.11842 0.88610 0.11959
 C1254 C 0.13268 0.87255 0.13474
 C1255 C 0.14964 0.85614 0.15257
 N1256 N 0.14418 0.83302 0.17442
 N1257 N 0.15996 0.81709 0.19036
 C1258 C 0.18172 0.82378 0.18498
 N1259 N 0.18711 0.84706 0.16315
 N1260 N 0.17133 0.86298 0.14722
 N1261 N 0.35613 0.67174 0.32787
 C1262 C 0.35070 0.64935 0.35044
 N1263 N 0.32900 0.64330 0.35657
 N1264 N 0.31319 0.65915 0.34061
 C1265 C 0.31855 0.68160 0.31798
 N1266 N 0.34032 0.68761 0.31191
 C1267 C 0.36771 0.63229 0.36768
 C1268 C 0.38198 0.61795 0.38219
 C1269 C 0.39901 0.60091 0.39941
 N1270 N 0.39361 0.57846 0.42194
 N1271 N 0.40945 0.56263 0.43789
 C1272 C 0.43120 0.56873 0.43183
 N1273 N 0.43653 0.59123 0.40924
 N1274 N 0.42070 0.60706 0.39331
 N1275 N 0.14377 -0.16714 0.32462
 C1276 C 0.14914 -0.14408 0.34654
 N1277 N 0.17083 -0.13733 0.35202
 N1278 N 0.18667 -0.15324 0.33618
 C1279 C 0.18136 -0.17644 0.31428
 N1280 N 0.15961 -0.18306 0.30877
 C1281 C 0.13210 -0.12755 0.36421
 C1282 C 0.11779 -0.11386 0.37923
 C1283 C 0.10071 -0.09773 0.39716
 N1284 N 0.10602 -0.07577 0.42012
 N1285 N 0.09014 -0.06080 0.43673
 C1286 C 0.06841 -0.06733 0.43097
 N1287 N 0.06316 -0.08937 0.40797
 N1288 N 0.07904 -0.10433 0.39137
 N1289 N 0.14365 0.66897 0.32501
 C1290 C 0.14906 0.64574 0.34681
 N1291 N 0.17076 0.63888 0.35212
 N1292 N 0.18657 0.65484 0.33623
 C1293 C 0.18123 0.67820 0.31445
 N1294 N 0.15947 0.68493 0.30910
 C1295 C 0.13204 0.62909 0.36453
 C1296 C 0.11778 0.61526 0.37959
 C1297 C 0.10075 0.59896 0.39758
 N1298 N 0.10616 0.57699 0.42055
 N1299 N 0.09034 0.56189 0.43720
 C1300 C 0.06857 0.56828 0.43148
 N1301 N 0.06324 0.59032 0.40847
 N1302 N 0.07905 0.60541 0.39183
 N1303 N 0.35622 -0.17093 0.32784
 C1304 C 0.35082 -0.14855 0.35039
 N1305 N 0.32914 -0.14236 0.35649
 N1306 N 0.31331 -0.15808 0.34052
 C1307 C 0.31864 -0.18052 0.31791
 N1308 N 0.34039 -0.18666 0.31186
 C1309 C 0.36783 -0.13164 0.36763
 C1310 C 0.38210 -0.11740 0.38214
 C1311 C 0.39911 -0.10048 0.39937
 N1312 N 0.39371 -0.07806 0.42188
 N1313 N 0.40954 -0.06230 0.43784
 C1314 C 0.43129 -0.06847 0.43181
 N1315 N 0.43662 -0.09095 0.40924
 N1316 N 0.42080 -0.10669 0.39329
 N1317 N 0.49847 0.52867 0.18583
 C1318 C 0.49833 0.49980 0.20202
 N1319 N 0.49847 0.47094 0.18584
 N1320 N 0.49874 0.47096 0.15435
 C1321 C 0.49890 0.49985 0.13804
 N1322 N 0.49874 0.52870 0.15433
 C1323 C 0.49823 0.49977 0.23585
 C1324 C 0.49824 0.49974 0.26429
 C1325 C 0.49835 0.49972 0.29812
 N1326 N 0.49850 0.47084 0.31432
 N1327 N 0.49877 0.47082 0.34581
 C1328 C 0.49891 0.49968 0.36210
 N1329 N 0.49875 0.52856 0.34578
 N1330 N 0.49848 0.52857 0.31429
 N1331 N 0.75121 0.77883 1.06393
 C1332 C 0.75132 0.74990 1.04787
 N1333 N 0.75117 0.72109 1.06417
 N1334 N 0.75092 0.72120 1.09566
 C1335 C 0.75081 0.75013 1.11184
 N1336 N 0.75097 0.77894 1.09542
 C1337 C 0.75139 0.74980 1.01405
 C1338 C 0.75136 0.74979 0.98561
 C1339 C 0.75122 0.74987 0.95179
 N1340 N 0.75108 0.72105 0.93556
 N1341 N 0.75078 0.72114 0.90407
 C1342 C 0.75061 0.75006 0.88782
 N1343 N 0.75077 0.77888 0.90418
 N1344 N 0.75106 0.77878 0.93566
 N1345 N 0.60620 0.58006 0.07683
 C1346 C 0.60080 0.60284 0.09900
 N1347 N 0.57913 0.61013 0.10404
 N1348 N 0.56332 0.59494 0.08755
 C1349 C 0.56865 0.57199 0.06541
 N1350 N 0.59039 0.56486 0.06033
 C1351 C 0.61779 0.61861 0.11733
 C1352 C 0.63204 0.63179 0.13282
 C1353 C 0.64902 0.64757 0.15115
 N1354 N 0.64363 0.67042 0.17325
 N1355 N 0.65944 0.68565 0.18973
 C1356 C 0.68118 0.67847 0.18469
 N1357 N 0.68650 0.65545 0.16262
 N1358 N 0.67069 0.64023 0.14615
 N1359 N 0.89413 0.91810 0.07396
 C1360 C 0.89946 0.89506 0.09595
 N1361 N 0.92115 0.88823 0.10147
 N1362 N 0.93701 0.90406 0.08557
 C1363 C 0.93174 0.92725 0.06359
 N1364 N 0.91000 0.93394 0.05805
 C1365 C 0.88238 0.87859 0.11367
 C1366 C 0.86804 0.86495 0.12871
 C1367 C 0.85093 0.84886 0.14668
 N1368 N 0.85622 0.82692 0.16971
 N1369 N 0.84033 0.81199 0.18636
 C1370 C 0.81860 0.81853 0.18057
 N1371 N 0.81336 0.84055 0.15750
 N1372 N 0.82925 0.85547 0.14086
 N1373 N 0.89351 0.58222 0.07460
 C1374 C 0.89891 0.60534 0.09643
 N1375 N 0.92059 0.61215 0.10184
 N1376 N 0.93641 0.59622 0.08599
 C1377 C 0.93108 0.57295 0.06418
 N1378 N 0.90933 0.56627 0.05875
 C1379 C 0.88191 0.62188 0.11412
 C1380 C 0.86765 0.63560 0.12917
 C1381 C 0.85064 0.65176 0.14715
 N1382 N 0.85603 0.67380 0.17000
 N1383 N 0.84021 0.68882 0.18667
 C1384 C 0.81846 0.68226 0.18106
 N1385 N 0.81313 0.66014 0.15818
 N1386 N 0.82895 0.64513 0.14152
 N1387 N 0.60564 0.92013 0.07548
 C1388 C 0.60034 0.89743 0.09781
 N1389 N 0.57868 0.89020 0.10303
 N1390 N 0.56280 0.90539 0.08662
 C1391 C 0.56798 0.92841 0.06435
 N1392 N 0.58977 0.93534 0.05905
 C1393 C 0.61743 0.88169 0.11613
 C1394 C 0.63175 0.86857 0.13164
 C1395 C 0.64882 0.85287 0.15004
 N1396 N 0.64349 0.83023 0.17243
 N1397 N 0.65935 0.81518 0.18903
 C1398 C 0.68108 0.82230 0.18386
 N1399 N 0.68635 0.84509 0.16149
 N1400 N 0.67049 0.86014 0.14490
 N1401 N -0.14394 0.67388 0.32980
 C1402 C -0.14932 0.65199 0.35284
 N1403 N -0.17102 0.64559 0.35871
 N1404 N -0.18685 0.66065 0.34210
 C1405 C -0.18153 0.68262 0.31901
 N1406 N -0.15977 0.68896 0.31318
 C1407 C -0.13228 0.63569 0.37077
 C1408 C -0.11800 0.62187 0.38577
 C1409 C -0.10098 0.60521 0.40341
 N1410 N -0.10638 0.58210 0.42533
 N1411 N -0.09056 0.56611 0.44118
 C1412 C -0.06880 0.57272 0.43567
 N1413 N -0.06346 0.59596 0.41377
 N1414 N -0.07928 0.61194 0.39793
 N1415 N 0.64359 -0.16937 0.32647
 C1416 C 0.64897 -0.14674 0.34878
 N1417 N 0.67063 -0.13952 0.35390
 N1418 N 0.68646 -0.15464 0.33734
 C1419 C 0.68115 -0.17743 0.31506
 N1420 N 0.65942 -0.18449 0.30990
 C1421 C 0.63198 -0.13109 0.36719
 C1422 C 0.61773 -0.11802 0.38275
 C1423 C 0.60074 -0.10236 0.40114
 N1424 N 0.60610 -0.07962 0.42336
 N1425 N 0.59027 -0.06448 0.43989
 C1426 C 0.56855 -0.07163 0.43480
 N1427 N 0.56325 -0.09454 0.41263
 N1428 N 0.57908 -0.10967 0.39610
 N1429 N 0.64354 0.67073 0.32682
 C1430 C 0.64892 0.64810 0.34918
 N1431 N 0.67060 0.64104 0.35442
 N1432 N 0.68642 0.65627 0.33792
 C1433 C 0.68110 0.67905 0.31558
 N1434 N 0.65936 0.68597 0.31031
 C1435 C 0.63191 0.63221 0.36747
 C1436 C 0.61766 0.61890 0.38291
 C1437 C 0.60067 0.60296 0.40119
 N1438 N 0.60607 0.58011 0.42333
 N1439 N 0.59026 0.56477 0.43979
 C1440 C 0.56852 0.57181 0.43468
 N1441 N 0.56318 0.59482 0.41256
 N1442 N 0.57899 0.61015 0.39612
 N1443 N -0.14399 -0.17289 0.32951
 C1444 C -0.14936 -0.15095 0.35246
 N1445 N -0.17104 -0.14431 0.35820
 N1446 N -0.18688 -0.15924 0.34154
 C1447 C -0.18157 -0.18126 0.31855
 N1448 N -0.15982 -0.18783 0.31285
 C1449 C -0.13234 -0.13485 0.37042
 C1450 C -0.11807 -0.12117 0.38545
 C1451 C -0.10108 -0.10463 0.40311
 N1452 N -0.10650 -0.08140 0.42484
 N1453 N -0.09069 -0.06542 0.44065
 C1454 C -0.06893 -0.07216 0.43525
 N1455 N -0.06358 -0.09553 0.41354
 N1456 N -0.07939 -0.11151 0.39774
 N1457 N 0.00082 0.02885 0.81505
 C1458 C 0.00085 0.00006 0.79876
 N1459 N 0.00083 -0.02883 0.81497
 N1460 N 0.00077 -0.02893 0.84649
 C1461 C 0.00072 -0.00012 0.86300
 N1462 N 0.00076 0.02878 0.84657
 C1463 C 0.00080 0.00016 0.76476
 C1464 C 0.00071 0.00027 0.73621
 C1465 C 0.00055 0.00037 0.70220
 N1466 N 0.00045 -0.02843 0.68591
 N1467 N 0.00023 -0.02835 0.65439
 C1468 C 0.00010 0.00055 0.63806
 N1469 N 0.00021 0.02936 0.65447
 N1470 N 0.00043 0.02927 0.68599
 N1471 N 0.25066 0.27851 0.43569
 C1472 C 0.25074 0.24962 0.45190
 N1473 N 0.25066 0.22080 0.43562
 N1474 N 0.25048 0.22087 0.40410
 C1475 C 0.25038 0.24977 0.38777
 N1476 N 0.25048 0.27859 0.40416
 C1477 C 0.25083 0.24953 0.48589
 C1478 C 0.25085 0.24946 0.51443
 C1479 C 0.25082 0.24938 0.54842
 N1480 N 0.25072 0.22050 0.56465
 N1481 N 0.25057 0.22044 0.59617
 C1482 C 0.25051 0.24927 0.61255
 N1483 N 0.25062 0.27815 0.59621
 N1484 N 0.25077 0.27821 0.56469
 N1485 N 0.10579 0.07704 0.57972
 C1486 C 0.10043 0.09893 0.60272
 N1487 N 0.07875 0.10559 0.60843
 N1488 N 0.06290 0.09074 0.59172
 C1489 C 0.06820 0.06876 0.56868
 N1490 N 0.08995 0.06218 0.56299
 C1491 C 0.11747 0.11491 0.62079
 C1492 C 0.13177 0.12845 0.63592
 C1493 C 0.14881 0.14480 0.65370
 N1494 N 0.14345 0.16782 0.67567
 N1495 N 0.15930 0.18358 0.69161
 C1496 C 0.18105 0.17682 0.68613
 N1497 N 0.18634 0.15365 0.66418
 N1498 N 0.17049 0.13790 0.64825
 N1499 N 0.35606 0.32785 0.67266
 C1500 C 0.35067 0.35021 0.65005
 N1501 N 0.32898 0.35630 0.64392
 N1502 N 0.31315 0.34050 0.65990
 C1503 C 0.31847 0.31808 0.68257
 N1504 N 0.34023 0.31204 0.68865
 C1505 C 0.36770 0.36722 0.63277
 C1506 C 0.38197 0.38154 0.61821
 C1507 C 0.39899 0.39856 0.60092
 N1508 N 0.39359 0.42092 0.57830
 N1509 N 0.40941 0.43673 0.56229
 C1510 C 0.43117 0.43071 0.56837
 N1511 N 0.43651 0.40831 0.59104
 N1512 N 0.42069 0.39250 0.60703
 N1513 N 0.32889 0.14235 0.64392
 C1514 C 0.35057 0.14851 0.65003
 N1515 N 0.35594 0.17078 0.67267
 N1516 N 0.34010 0.18646 0.68872
 C1517 C 0.31836 0.18035 0.68266
 N1518 N 0.31305 0.15801 0.65996
 C1519 C 0.36759 0.13171 0.63269
 C1520 C 0.38189 0.11759 0.61809
 C1521 C 0.39893 0.10081 0.60076
 N1522 N 0.42060 0.10697 0.60692
 N1523 N 0.43646 0.09133 0.59089
 C1524 C 0.43118 0.06903 0.56816
 N1525 N 0.40944 0.06292 0.56205
 N1526 N 0.39358 0.07857 0.57808
 N1527 N 0.17068 0.36127 0.64852
 C1528 C 0.14898 0.35454 0.65402
 N1529 N 0.14357 0.33140 0.67590
 N1530 N 0.15939 0.31538 0.69171
 C1531 C 0.18115 0.32199 0.68619
 N1532 N 0.18649 0.34526 0.66433
 C1533 C 0.13198 0.37120 0.63639
 C1534 C 0.11771 0.38501 0.62140
 C1535 C 0.10068 0.40128 0.60348
 N1536 N 0.07899 0.39483 0.60931
 N1537 N 0.06316 0.40990 0.59270
 C1538 C 0.06849 0.43189 0.56965
 N1539 N 0.09024 0.43828 0.56385
 N1540 N 0.10607 0.42320 0.58047
 N1541 N 0.42116 0.10563 0.89342
 C1542 C 0.39949 0.09951 0.89974
 N1543 N 0.39422 0.07716 0.92243
 N1544 N 0.41013 0.06140 0.93829
 C1545 C 0.43186 0.06747 0.93202
 N1546 N 0.43707 0.08988 0.90928
 C1547 C 0.38235 0.11650 0.88262
 C1548 C 0.36798 0.13079 0.86823
 C1549 C 0.35085 0.14782 0.85111
 N1550 N 0.32918 0.14166 0.85737
 N1551 N 0.31328 0.15748 0.84155
 C1552 C 0.31851 0.18000 0.81891
 N1553 N 0.34025 0.18610 0.81270
 N1554 N 0.35615 0.17027 0.82853
 N1555 N 0.07898 0.39532 0.89110
 C1556 C 0.10065 0.40183 0.89697
 N1557 N 0.10599 0.42376 0.91993
 N1558 N 0.09012 0.43880 0.93649
 C1559 C 0.06839 0.43235 0.93065
 N1560 N 0.06312 0.41035 0.90765
 C1561 C 0.11770 0.38559 0.87919
 C1562 C 0.13199 0.37176 0.86432
 C1563 C 0.14901 0.35504 0.84687
 N1564 N 0.17069 0.36181 0.85235
 N1565 N 0.18652 0.34568 0.83672
 C1566 C 0.18120 0.32224 0.81508
 N1567 N 0.15945 0.31560 0.80956
 N1568 N 0.14362 0.33175 0.82520
 N1569 N 0.10535 0.07514 0.92028
 C1570 C 0.10006 0.09720 0.89736
 N1571 N 0.07841 0.10378 0.89147
 N1572 N 0.06250 0.08869 0.90793
 C1573 C 0.06767 0.06648 0.93092
 N1574 N 0.08945 0.06004 0.93675
 C1575 C 0.11719 0.11348 0.87961
 C1576 C 0.13156 0.12727 0.86477
 C1577 C 0.14867 0.14392 0.84731
 N1578 N 0.14338 0.16717 0.82550
 N1579 N 0.15928 0.18317 0.80982
 C1580 C 0.18101 0.17644 0.81541
 N1581 N 0.18624 0.15305 0.83721
 N1582 N 0.17034 0.13706 0.85288
 N1583 N 0.42084 0.39259 0.89371
 C1584 C 0.39914 0.39876 0.89982
 N1585 N 0.39377 0.42124 0.92230
 N1586 N 0.40961 0.43708 0.93818
 C1587 C 0.43136 0.43097 0.93211
 N1588 N 0.43668 0.40843 0.90958
 C1589 C 0.38210 0.38171 0.88267
 C1590 C 0.36780 0.36737 0.86824
 C1591 C 0.35074 0.35033 0.85111
 N1592 N 0.32906 0.35648 0.85727
 N1593 N 0.31320 0.34066 0.84142
 C1594 C 0.31850 0.31815 0.81885
 N1595 N 0.34025 0.31206 0.81273
 N1596 N 0.35610 0.32789 0.82859
 N1597 N 0.49880 0.02760 0.81446
 C1598 C 0.49863 -0.00120 0.79820
 N1599 N 0.49882 -0.03012 0.81432
 N1600 N 0.49918 -0.03025 0.84582
 C1601 C 0.49936 -0.00143 0.86220
 N1602 N 0.49916 0.02749 0.84595
 C1603 C 0.49842 -0.00103 0.76434
 C1604 C 0.49833 -0.00083 0.73587
 C1605 C 0.49835 -0.00059 0.70201
 N1606 N 0.49842 -0.02934 0.68567
 N1607 N 0.49862 -0.02913 0.65418
 C1608 C 0.49876 -0.00016 0.63800
 N1609 N 0.49866 0.02860 0.65446
 N1610 N 0.49846 0.02838 0.68596
 N1611 N 0.75125 0.27779 0.43621
 C1612 C 0.75135 0.24891 0.45240
 N1613 N 0.75134 0.22007 0.43619
 N1614 N 0.75123 0.22011 0.40470
 C1615 C 0.75111 0.24900 0.38839
 N1616 N 0.75114 0.27784 0.40471
 C1617 C 0.75129 0.24887 0.48627
 C1618 C 0.75117 0.24887 0.51473
 C1619 C 0.75095 0.24891 0.54860
 N1620 N 0.75080 0.22007 0.56486
 N1621 N 0.75048 0.22011 0.59636
 C1622 C 0.75029 0.24900 0.61261
 N1623 N 0.75045 0.27784 0.59622
 N1624 N 0.75077 0.27779 0.56473
 N1625 N 0.60596 0.07978 0.57705
 C1626 C 0.60055 0.10240 0.59937
 N1627 N 0.57889 0.10966 0.60447
 N1628 N 0.56308 0.09460 0.58788
 C1629 C 0.56842 0.07181 0.56560
 N1630 N 0.59015 0.06471 0.56045
 C1631 C 0.61750 0.11798 0.61780
 C1632 C 0.63173 0.13102 0.63338
 C1633 C 0.64869 0.14662 0.65179
 N1634 N 0.64329 0.16920 0.67415
 N1635 N 0.65910 0.18432 0.69070
 C1636 C 0.68083 0.17730 0.68546
 N1637 N 0.68616 0.15456 0.66315
 N1638 N 0.67035 0.13944 0.64661
 N1639 N -0.14437 0.32617 0.67058
 C1640 C -0.14972 0.34811 0.64758
 N1641 N -0.17140 0.35455 0.64169
 N1642 N -0.18726 0.33946 0.65825
 C1643 C -0.18197 0.31745 0.68130
 N1644 N -0.16023 0.31107 0.68715
 C1645 C -0.13264 0.36442 0.62974
 C1646 C -0.11830 0.37824 0.61484
 C1647 C -0.10122 0.39490 0.59733
 N1648 N -0.10654 0.41803 0.57540
 N1649 N -0.09066 0.43403 0.55967
 C1650 C -0.06892 0.42741 0.56532
 N1651 N -0.06366 0.40415 0.58723
 N1652 N -0.07954 0.38816 0.60295
 N1653 N 0.89329 0.08257 0.57441
 C1654 C 0.89864 0.10572 0.59623
 N1655 N 0.92031 0.11266 0.60163
 N1656 N 0.93616 0.09680 0.58578
 C1657 C 0.93088 0.07350 0.56399
 N1658 N 0.90914 0.06670 0.55856
 C1659 C 0.88162 0.12208 0.61398
 C1660 C 0.86732 0.13560 0.62911
 C1661 C 0.85029 0.15151 0.64722
 N1662 N 0.85564 0.17338 0.67022
 N1663 N 0.83979 0.18816 0.68703
 C1664 C 0.81806 0.18149 0.68141
 N1665 N 0.81277 0.15954 0.65837
 N1666 N 0.82862 0.14477 0.64158
 N1667 N 0.67022 0.35895 0.64640
 C1668 C 0.64855 0.35179 0.65155
 N1669 N 0.64314 0.32909 0.67384
 N1670 N 0.65894 0.31385 0.69035
 C1671 C 0.68069 0.32086 0.68516
 N1672 N 0.68602 0.34372 0.66290
 C1673 C 0.63159 0.36764 0.63322
 C1674 C 0.61739 0.38091 0.61770
 C1675 C 0.60047 0.39679 0.59933
 N1676 N 0.57878 0.38968 0.60442
 N1677 N 0.56302 0.40496 0.58788
 C1678 C 0.56841 0.42782 0.56565
 N1679 N 0.59017 0.43478 0.56052
 N1680 N 0.60593 0.41949 0.57707
 N1681 N 0.92099 0.11207 0.89715
 C1682 C 0.89934 0.10519 0.90286
 N1683 N 0.89408 0.08195 0.92470
 N1684 N 0.91001 0.06596 0.94027
 C1685 C 0.93172 0.07269 0.93453
 N1686 N 0.93692 0.09608 0.91272
 C1687 C 0.88223 0.12169 0.88546
 C1688 C 0.86783 0.13531 0.87063
 C1689 C 0.85068 0.15132 0.85288
 N1690 N 0.82905 0.14458 0.85885
 N1691 N 0.81310 0.15943 0.84233
 C1692 C 0.81826 0.18147 0.81926
 N1693 N 0.83995 0.18814 0.81332
 N1694 N 0.85590 0.17328 0.82984
 N1695 N 0.57908 0.38973 0.89653
 C1696 C 0.60074 0.39700 0.90155
 N1697 N 0.60615 0.41980 0.92367
 N1698 N 0.59035 0.43504 0.94016
 C1699 C 0.56862 0.42793 0.93509
 N1700 N 0.56328 0.40496 0.91301
 C1701 C 0.61768 0.38126 0.88321
 C1702 C 0.63189 0.36809 0.86768
 C1703 C 0.64882 0.35233 0.84933
 N1704 N 0.67048 0.35967 0.85424
 N1705 N 0.68627 0.34441 0.83774
 C1706 C 0.68091 0.32136 0.81575
 N1707 N 0.65918 0.31418 0.81079
 N1708 N 0.64339 0.32945 0.82729
 N1709 N 0.60558 0.07746 0.92433
 C1710 C 0.60022 0.10016 0.90201
 N1711 N 0.57853 0.10712 0.89675
 N1712 N 0.56269 0.09171 0.91311
 C1713 C 0.56794 0.06874 0.93539
 N1714 N 0.58975 0.06204 0.94071
 C1715 C 0.61729 0.11629 0.88382
 C1716 C 0.63157 0.12977 0.86844
 C1717 C 0.64861 0.14590 0.85019
 N1718 N 0.64320 0.16874 0.82801
 N1719 N 0.65900 0.18411 0.81153
 C1720 C 0.68077 0.17715 0.81661
 N1721 N 0.68611 0.15418 0.83878
 N1722 N 0.67031 0.13881 0.85525
 N1723 N 0.92052 0.38839 0.89735
 C1724 C 0.89883 0.39512 0.90291
 N1725 N 0.89345 0.41823 0.92479
 N1726 N 0.90929 0.43422 0.94054
 C1727 C 0.93105 0.42761 0.93496
 N1728 N 0.93636 0.40437 0.91310
 C1729 C 0.88179 0.37847 0.88537
 C1730 C 0.86749 0.36466 0.87046
 C1731 C 0.85042 0.34837 0.85265
 N1732 N 0.82874 0.35491 0.85847
 N1733 N 0.81289 0.33982 0.84198
 C1734 C 0.81818 0.31769 0.81906
 N1735 N 0.83992 0.31121 0.81327
 N1736 N 0.85578 0.32632 0.82978
 N1737 N 0.00052 0.52891 0.81597
 C1738 C 0.00062 0.50005 0.79977
 N1739 N 0.00057 0.47123 0.81608
 N1740 N 0.00040 0.47125 0.84761
 C1741 C 0.00028 0.50012 0.86402
 N1742 N 0.00036 0.52896 0.84749
 C1743 C 0.00070 0.50001 0.76575
 C1744 C 0.00071 0.49998 0.73719
 C1745 C 0.00066 0.49996 0.70317
 N1746 N 0.00060 0.47110 0.68695
 N1747 N 0.00047 0.47108 0.65543
 C1748 C 0.00038 0.49992 0.63901
 N1749 N 0.00045 0.52879 0.65534
 N1750 N 0.00059 0.52880 0.68687
 N1751 N 0.25104 0.77994 0.43547
 C1752 C 0.25109 0.75109 0.45171
 N1753 N 0.25097 0.72222 0.43556
 N1754 N 0.25079 0.72219 0.40406
 C1755 C 0.25072 0.75105 0.38770
 N1756 N 0.25086 0.77993 0.40397
 C1757 C 0.25114 0.75110 0.48557
 C1758 C 0.25111 0.75108 0.51404
 C1759 C 0.25098 0.75102 0.54790
 N1760 N 0.25087 0.72213 0.56408
 N1761 N 0.25063 0.72207 0.59558
 C1762 C 0.25048 0.75090 0.61192
 N1763 N 0.25061 0.77980 0.59562
 N1764 N 0.25085 0.77985 0.56412
 N1765 N 0.10604 0.57684 0.58020
 C1766 C 0.10063 0.59881 0.60311
 N1767 N 0.07894 0.60531 0.60890
 N1768 N 0.06313 0.59023 0.59233
 C1769 C 0.06847 0.56818 0.56937
 N1770 N 0.09023 0.56175 0.56362
 C1771 C 0.11763 0.61509 0.62096
 C1772 C 0.13188 0.62891 0.63590
 C1773 C 0.14887 0.64557 0.65344
 N1774 N 0.14346 0.66873 0.67525
 N1775 N 0.15928 0.68477 0.69099
 C1776 C 0.18103 0.67815 0.68545
 N1777 N 0.18638 0.65485 0.66367
 N1778 N 0.17056 0.63882 0.64794
 N1779 N 0.39352 0.92199 0.57781
 C1780 C 0.39885 0.89962 0.60042
 N1781 N 0.42051 0.89338 0.60660
 N1782 N 0.43639 0.90908 0.59066
 C1783 C 0.43113 0.93152 0.56799
 N1784 N 0.40940 0.93770 0.56185
 C1785 C 0.38180 0.88276 0.61763
 C1786 C 0.36750 0.86856 0.63214
 C1787 C 0.35048 0.85167 0.64938
 N1788 N 0.35586 0.82923 0.67191
 N1789 N 0.34001 0.81347 0.68789
 C1790 C 0.31827 0.81966 0.68184
 N1791 N 0.31296 0.84216 0.65926
 N1792 N 0.32881 0.85791 0.64329
 N1793 N 0.32883 0.64348 0.64309
 C1794 C 0.35052 0.64951 0.64925
 N1795 N 0.35591 0.67187 0.67182
 N1796 N 0.34007 0.68773 0.68774
 C1797 C 0.31831 0.68175 0.68163
 N1798 N 0.31299 0.65933 0.65901
 C1799 C 0.36756 0.63243 0.63207
 C1800 C 0.38185 0.61805 0.61761
 C1801 C 0.39889 0.60097 0.60045
 N1802 N 0.42058 0.60704 0.60660
 N1803 N 0.43643 0.59119 0.59072
 C1804 C 0.43112 0.56873 0.56813
 N1805 N 0.40937 0.56270 0.56202
 N1806 N 0.39352 0.57857 0.57792
 N1807 N 0.10579 0.92436 0.57976
 C1808 C 0.10043 0.90247 0.60281
 N1809 N 0.07876 0.89590 0.60862
 N1810 N 0.06291 0.91082 0.59195
 C1811 C 0.06820 0.93279 0.56886
 N1812 N 0.08994 0.93930 0.56308
 C1813 C 0.11749 0.88636 0.62077
 C1814 C 0.13178 0.87268 0.63579
 C1815 C 0.14881 0.85613 0.65344
 N1816 N 0.14343 0.83290 0.67524
 N1817 N 0.15927 0.81693 0.69104
 C1818 C 0.18102 0.82368 0.68558
 N1819 N 0.18633 0.84705 0.66380
 N1820 N 0.17049 0.86302 0.64801
 N1821 N 0.42082 0.60727 0.89315
 C1822 C 0.39913 0.60113 0.89931
 N1823 N 0.39377 0.57874 0.92192
 N1824 N 0.40962 0.56296 0.93788
 C1825 C 0.43138 0.56905 0.93177
 N1826 N 0.43667 0.59149 0.90911
 C1827 C 0.38206 0.61812 0.88206
 C1828 C 0.36775 0.63240 0.86756
 C1829 C 0.35067 0.64940 0.85033
 N1830 N 0.32898 0.64322 0.85647
 N1831 N 0.31313 0.65901 0.84055
 C1832 C 0.31841 0.68153 0.81794
 N1833 N 0.34016 0.68766 0.81185
 N1834 N 0.35602 0.67185 0.82778
 N1835 N 0.07839 0.89566 0.89156
 C1836 C 0.10006 0.90219 0.89741
 N1837 N 0.10535 0.92422 0.92030
 N1838 N 0.08946 0.93934 0.93678
 C1839 C 0.06768 0.93295 0.93098
 N1840 N 0.06250 0.91076 0.90802
 C1841 C 0.11718 0.88591 0.87961
 C1842 C 0.13154 0.87213 0.86471
 C1843 C 0.14864 0.85552 0.84715
 N1844 N 0.17032 0.86225 0.85273
 N1845 N 0.18620 0.84635 0.83693
 C1846 C 0.18094 0.82319 0.81497
 N1847 N 0.15919 0.81658 0.80937
 N1848 N 0.14332 0.83248 0.82518
 N1849 N 0.10593 0.57679 0.91965
 C1850 C 0.10058 0.59868 0.89661
 N1851 N 0.07891 0.60524 0.89077
 N1852 N 0.06305 0.59030 0.90741
 C1853 C 0.06834 0.56833 0.93049
 N1854 N 0.09007 0.56184 0.93630
 C1855 C 0.11761 0.61481 0.87871
 C1856 C 0.13191 0.62853 0.86375
 C1857 C 0.14891 0.64513 0.84619
 N1858 N 0.14353 0.66844 0.82449
 N1859 N 0.15937 0.68450 0.80878
 C1860 C 0.18111 0.67776 0.81424
 N1861 N 0.18643 0.65430 0.83592
 N1862 N 0.17059 0.63825 0.85163
 N1863 N 0.42114 0.89192 0.89354
 C1864 C 0.39948 0.89822 0.89976
 N1865 N 0.39423 0.92052 0.92245
 N1866 N 0.41015 0.93607 0.93842
 C1867 C 0.43187 0.92983 0.93224
 N1868 N 0.43707 0.90746 0.90950
 C1869 C 0.38234 0.88154 0.88249
 C1870 C 0.36795 0.86753 0.86796
 C1871 C 0.35081 0.85085 0.85067
 N1872 N 0.32915 0.85717 0.85688
 N1873 N 0.31322 0.84164 0.84090
 C1874 C 0.31842 0.81929 0.81815
 N1875 N 0.34014 0.81303 0.81199
 N1876 N 0.35607 0.82856 0.82798
 N1877 N 0.49867 0.52891 0.81428
 C1878 C 0.49853 0.50002 0.79815
 N1879 N 0.49867 0.47118 0.81440
 N1880 N 0.49896 0.47121 0.84589
 C1881 C 0.49911 0.50010 0.86214
 N1882 N 0.49895 0.52895 0.84577
 C1883 C 0.49837 0.49998 0.76430
 C1884 C 0.49832 0.49993 0.73584
 C1885 C 0.49836 0.49988 0.70199
 N1886 N 0.49847 0.47099 0.68586
 N1887 N 0.49868 0.47094 0.65437
 C1888 C 0.49879 0.49979 0.63799
 N1889 N 0.49866 0.52868 0.65424
 N1890 N 0.49845 0.52872 0.68573
 N1891 N 0.75093 0.78015 0.43543
 C1892 C 0.75103 0.75134 0.45174
 N1893 N 0.75095 0.72243 0.43565
 N1894 N 0.75076 0.72233 0.40416
 C1895 C 0.75064 0.75114 0.38773
 N1896 N 0.75074 0.78006 0.40393
 C1897 C 0.75107 0.75143 0.48560
 C1898 C 0.75103 0.75143 0.51406
 C1899 C 0.75089 0.75135 0.54792
 N1900 N 0.75080 0.72243 0.56407
 N1901 N 0.75054 0.72233 0.59556
 C1902 C 0.75036 0.75115 0.61194
 N1903 N 0.75047 0.78007 0.59567
 N1904 N 0.75073 0.78016 0.56417
 N1905 N 0.60598 0.57999 0.57677
 C1906 C 0.60054 0.60271 0.59899
 N1907 N 0.57886 0.60979 0.60414
 N1908 N 0.56307 0.59448 0.58769
 C1909 C 0.56844 0.57160 0.56550
 N1910 N 0.59020 0.56467 0.56032
 C1911 C 0.61751 0.61866 0.61725
 C1912 C 0.63174 0.63199 0.63267
 C1913 C 0.64872 0.64791 0.65091
 N1914 N 0.64331 0.67054 0.67323
 N1915 N 0.65911 0.68582 0.68968
 C1916 C 0.68086 0.67893 0.68439
 N1917 N 0.68620 0.65614 0.66210
 N1918 N 0.67040 0.64087 0.64566
 N1919 N 0.89327 0.91882 0.57446
 C1920 C 0.89863 0.89571 0.59638
 N1921 N 0.92030 0.88892 0.60195
 N1922 N 0.93616 0.90487 0.58616
 C1923 C 0.93087 0.92812 0.56427
 N1924 N 0.90913 0.93477 0.55867
 C1925 C 0.88159 0.87917 0.61400
 C1926 C 0.86730 0.86547 0.62901
 C1927 C 0.85027 0.84932 0.64697
 N1928 N 0.85565 0.82735 0.66992
 N1929 N 0.83982 0.81235 0.68660
 C1930 C 0.81808 0.81889 0.68091
 N1931 N 0.81276 0.84095 0.65792
 N1932 N 0.82860 0.85593 0.64125
 N1933 N 0.89357 0.58243 0.57498
 C1934 C 0.89892 0.60569 0.59670
 N1935 N 0.92060 0.61249 0.60220
 N1936 N 0.93646 0.59642 0.58654
 C1937 C 0.93117 0.57302 0.56484
 N1938 N 0.90943 0.56635 0.55932
 C1939 C 0.88187 0.62236 0.61419
 C1940 C 0.86755 0.63616 0.62908
 C1941 C 0.85048 0.65238 0.64690
 N1942 N 0.85581 0.67428 0.66990
 N1943 N 0.83994 0.68928 0.68649
 C1944 C 0.81820 0.68284 0.68066
 N1945 N 0.81294 0.66088 0.65761
 N1946 N 0.82881 0.64589 0.64103
 N1947 N 0.60587 0.92022 0.57677
 C1948 C 0.60046 0.89757 0.59909
 N1949 N 0.57880 0.89033 0.60423
 N1950 N 0.56299 0.90548 0.58768
 C1951 C 0.56833 0.92831 0.56541
 N1952 N 0.59006 0.93538 0.56022
 C1953 C 0.61741 0.88193 0.61748
 C1954 C 0.63165 0.86887 0.63302
 C1955 C 0.64864 0.85326 0.65137
 N1956 N 0.64328 0.83057 0.67368
 N1957 N 0.65912 0.81543 0.69018
 C1958 C 0.68084 0.82254 0.68493
 N1959 N 0.68612 0.84540 0.66266
 N1960 N 0.67028 0.86053 0.64617
 N1961 N 0.92056 0.61246 0.89749
 C1962 C 0.89888 0.60559 0.90292
 N1963 N 0.89349 0.58237 0.92472
 N1964 N 0.90932 0.56638 0.94052
 C1965 C 0.93107 0.57312 0.93507
 N1966 N 0.93639 0.59649 0.91329
 C1967 C 0.88187 0.62214 0.88527
 C1968 C 0.86759 0.63585 0.87026
 C1969 C 0.85055 0.65197 0.85232
 N1970 N 0.82888 0.64527 0.85804
 N1971 N 0.81303 0.66024 0.84142
 C1972 C 0.81831 0.68238 0.81848
 N1973 N 0.84004 0.68901 0.81278
 N1974 N 0.85590 0.67403 0.82941
 N1975 N 0.57850 0.89028 0.89694
 C1976 C 0.60017 0.89740 0.90211
 N1977 N 0.60553 0.92002 0.92444
 N1978 N 0.58969 0.93524 0.94093
 C1979 C 0.56789 0.92842 0.93568
 N1980 N 0.56266 0.90549 0.91341
 C1981 C 0.61722 0.88161 0.88373
 C1982 C 0.63152 0.86846 0.86820
 C1983 C 0.64856 0.85273 0.84977
 N1984 N 0.67023 0.86003 0.85478
 N1985 N 0.68607 0.84496 0.83816
 C1986 C 0.68078 0.82212 0.81591
 N1987 N 0.65905 0.81496 0.81087
 N1988 N 0.64321 0.83004 0.82749
 N1989 N 0.60625 0.57983 0.92330
 C1990 C 0.60086 0.60248 0.90097
 N1991 N 0.57921 0.60970 0.89582
 N1992 N 0.56338 0.59456 0.91235
 C1993 C 0.56869 0.57173 0.93464
 N1994 N 0.59042 0.56467 0.93985
 C1995 C 0.61784 0.61818 0.88261
 C1996 C 0.63207 0.63134 0.86707
 C1997 C 0.64900 0.64713 0.84869
 N1998 N 0.64356 0.67000 0.82659
 N1999 N 0.65934 0.68530 0.81008
 C2000 C 0.68108 0.67816 0.81508
 N2001 N 0.68645 0.65512 0.83713
 N2002 N 0.67067 0.63983 0.85364
 N2003 N 0.92094 0.88783 0.89690
 C2004 C 0.89929 0.89475 0.90254
 N2005 N 0.89403 0.91793 0.92439
 N2006 N 0.90995 0.93383 0.94005
 C2007 C 0.93166 0.92705 0.93438
 N2008 N 0.93686 0.90372 0.91255
 C2009 C 0.88217 0.87830 0.88506
 C2010 C 0.86778 0.86470 0.87018
 C2011 C 0.85065 0.84867 0.85237
 N2012 N 0.82900 0.85531 0.85832
 N2013 N 0.81307 0.84045 0.84178
 C2014 C 0.81827 0.81848 0.81869
 N2015 N 0.83999 0.81191 0.81278
 N2016 N 0.85591 0.82678 0.82932
   
