data_POSCAR
  _audit_creation_date              2014-09-24
  _audit_creation_method            'ToBaCCo'
  _symmetry_space_group_name_H-M    'P1'
  _symmetry_Int_Tables_number       1
  _symmetry_cell_setting            triclinic
  loop_
  _symmetry_equiv_pos_as_xyz
 x,y,z
_cell_length_a 62.1783
_cell_length_b 62.8544
_cell_length_c 62.8410
_cell_angle_alpha 88.708700
_cell_angle_beta 88.775200
_cell_angle_gamma 89.156800
loop_
  _atom_site_label
  _atom_site_type_symbol
  _atom_site_fract_x
  _atom_site_fract_y
  _atom_site_fract_z
C1 C 0.73262 0.65449 0.98463
 H2 H 0.74778 0.66262 0.98422
 C3 C 0.71469 0.66414 0.97508
 H4 H 0.71638 0.67952 0.96715
 C5 C 0.71199 0.62440 0.99473
 H6 H 0.71095 0.60891 1.00248
 C7 C 0.69377 0.63343 0.98551
 H8 H 0.67883 0.62478 0.98637
 N9 N 0.73107 0.63471 0.99377
 C10 C 0.78504 0.63572 1.03237
 H11 H 0.77689 0.62585 1.04417
 C12 C 0.80326 0.64671 1.03810
 H13 H 0.80855 0.64548 1.05440
 C14 C 0.78843 0.64892 0.99688
 H15 H 0.78301 0.64912 0.98064
 C16 C 0.80680 0.66021 1.00196
 H17 H 0.81525 0.66920 0.98957
 Zn18 Zn 0.75484 0.61899 1.00480
 N19 N 0.77806 0.63678 1.01200
 C20 C 0.78488 0.59909 0.97652
 N21 N 0.76416 0.59923 0.98394
 C22 C 0.74932 0.58622 0.97568
 C23 C 0.75478 0.57329 0.95857
 C24 C 0.79100 0.58651 0.95933
 C25 C 0.73376 0.61609 1.04413
 C26 C 0.72490 0.60646 1.06240
 C27 C 0.73922 0.57271 1.05062
 C28 C 0.74773 0.58309 1.03249
 N29 N 0.74477 0.60437 1.02957
 H30 H 0.79661 0.60915 0.98351
 H31 H 0.73306 0.58620 0.98204
 H32 H 0.74261 0.56330 0.95208
 H33 H 0.80732 0.58747 0.95307
 H34 H 0.73186 0.63308 1.04148
 H35 H 0.71720 0.61693 1.07372
 H36 H 0.74127 0.55563 1.05145
 H37 H 0.75647 0.57406 1.02059
 C38 C 0.81464 0.65886 1.02274
 C39 C 0.69506 0.65333 0.97505
 C40 C 0.72718 0.58421 1.06613
 C41 C 0.77573 0.57373 0.94978
 C42 C 0.73446 0.35722 0.52217
 H43 H 0.74920 0.35549 0.53094
 C44 C 0.71591 0.34668 0.52937
 H45 H 0.71652 0.33686 0.54372
 C46 C 0.71541 0.37329 0.49365
 H47 H 0.71498 0.38409 0.48007
 C48 C 0.69660 0.36305 0.50021
 H49 H 0.68213 0.36574 0.49120
 N50 N 0.73383 0.37040 0.50472
 C51 C 0.79926 0.38148 0.48062
 H52 H 0.79864 0.39870 0.47989
 C53 C 0.81774 0.37068 0.47368
 H54 H 0.83126 0.37971 0.46744
 C55 C 0.78202 0.34891 0.48916
 H56 H 0.76799 0.34055 0.49511
 C57 C 0.80020 0.33742 0.48220
 H58 H 0.80011 0.32020 0.48308
 Zn59 Zn 0.75805 0.38728 0.49737
 N60 N 0.78200 0.37056 0.48845
 C61 C 0.78527 0.40147 0.52952
 N62 N 0.76506 0.40284 0.52169
 C63 C 0.74929 0.41433 0.53171
 C64 C 0.75367 0.42521 0.55026
 C65 C 0.79039 0.41224 0.54784
 C66 C 0.74857 0.39636 0.45523
 C67 C 0.74194 0.40833 0.43758
 C68 C 0.74151 0.43972 0.45911
 C69 C 0.74819 0.42709 0.47642
 N70 N 0.75107 0.40574 0.47427
 H71 H 0.79745 0.39177 0.52180
 H72 H 0.73325 0.41486 0.52537
 H73 H 0.74098 0.43433 0.55803
 H74 H 0.80651 0.41074 0.55394
 H75 H 0.75108 0.37936 0.45398
 H76 H 0.73916 0.40031 0.42284
 H77 H 0.73895 0.45663 0.46113
 H78 H 0.75063 0.43429 0.49160
 C79 C 0.81843 0.34836 0.47450
 C80 C 0.69654 0.34988 0.51854
 C81 C 0.73800 0.43028 0.43943
 C82 C 0.77450 0.42428 0.55848
 C83 C 0.23751 -0.15476 0.01456
 H84 H 0.25198 -0.15606 0.02378
 C85 C 0.21884 -0.16517 0.02162
 H86 H 0.21911 -0.17444 0.03634
 C87 C 0.21919 -0.13980 -0.01500
 H88 H 0.21911 -0.12949 -0.02895
 C89 C 0.20027 -0.14995 -0.00859
 H90 H 0.18604 -0.14767 -0.01806
 N91 N 0.23727 -0.14214 -0.00331
 C92 C 0.30304 -0.13064 -0.02602
 H93 H 0.30227 -0.11344 -0.02691
 C94 C 0.32176 -0.14133 -0.03246
 H95 H 0.33532 -0.13223 -0.03848
 C96 C 0.28595 -0.16331 -0.01757
 H97 H 0.27188 -0.17175 -0.01183
 C98 C 0.30438 -0.17470 -0.02405
 H99 H 0.30444 -0.19192 -0.02303
 Zn100 Zn 0.26144 -0.12509 -0.01023
 N101 N 0.28573 -0.14166 -0.01847
 C102 C 0.28776 -0.11025 0.02241
 N103 N 0.26770 -0.10929 0.01418
 C104 C 0.25154 -0.09800 0.02380
 C105 C 0.25535 -0.08685 0.04232
 C106 C 0.29230 -0.09921 0.04073
 C107 C 0.25339 -0.11602 -0.05274
 C108 C 0.24740 -0.10406 -0.07065
 C109 C 0.24523 -0.07291 -0.04890
 C110 C 0.25142 -0.08555 -0.03143
 N111 N 0.25485 -0.10677 -0.03356
 H112 H 0.30026 -0.11978 0.01499
 H113 H 0.23563 -0.09780 0.01714
 H114 H 0.24235 -0.07786 0.04975
 H115 H 0.30832 -0.10037 0.04715
 H116 H 0.25626 -0.13297 -0.05398
 H117 H 0.24522 -0.11282 -0.08501
 H118 H 0.24330 -0.05606 -0.04630
 H119 H 0.25328 -0.07837 -0.01614
 C120 C 0.32265 -0.16365 -0.03144
 C121 C 0.19976 -0.16243 0.01022
 C122 C 0.24263 -0.08199 -0.06915
 C123 C 0.27600 -0.08733 0.05094
 C124 C 0.23332 0.15647 0.46953
 H125 H 0.24857 0.15818 0.46111
 C126 C 0.21487 0.16666 0.46165
 H127 H 0.21605 0.17626 0.44716
 C128 C 0.21289 0.14062 0.49777
 H129 H 0.21194 0.12993 0.51144
 C130 C 0.19412 0.15034 0.49039
 H131 H 0.17901 0.14737 0.49876
 N132 N 0.23197 0.14358 0.48719
 C133 C 0.29704 0.13199 0.50998
 H134 H 0.29631 0.11482 0.51138
 C135 C 0.31528 0.14245 0.51646
 H136 H 0.32868 0.13316 0.52259
 C137 C 0.28030 0.16480 0.50023
 H138 H 0.26645 0.17341 0.49424
 C139 C 0.29835 0.17596 0.50651
 H140 H 0.29822 0.19317 0.50532
 Zn141 Zn 0.25609 0.12667 0.49518
 N142 N 0.28005 0.14318 0.50203
 C143 C 0.28296 0.10975 0.46253
 N144 N 0.26312 0.10895 0.47203
 C145 C 0.24749 0.09645 0.46441
 C146 C 0.25165 0.08385 0.44670
 C147 C 0.28780 0.09744 0.44482
 C148 C 0.24522 0.12149 0.53793
 C149 C 0.23855 0.11110 0.55669
 C150 C 0.24048 0.07773 0.53833
 C151 C 0.24715 0.08880 0.51986
 N152 N 0.24888 0.11035 0.51989
 H153 H 0.29497 0.12024 0.46839
 H154 H 0.23173 0.09639 0.47203
 H155 H 0.23906 0.07387 0.44099
 H156 H 0.30356 0.09865 0.43727
 H157 H 0.24704 0.13858 0.53755
 H158 H 0.23550 0.12032 0.57081
 H159 H 0.23843 0.06068 0.53784
 H160 H 0.25054 0.08019 0.50546
 C161 C 0.31607 0.16474 0.51493
 C162 C 0.19488 0.16319 0.47186
 C163 C 0.23570 0.08898 0.55696
 C164 C 0.27204 0.08428 0.43665
 C165 C 0.14860 0.47712 0.23194
 H166 H 0.14870 0.46741 0.24637
 C167 C 0.16003 0.47042 0.21384
 H168 H 0.16883 0.45544 0.21451
 C169 C 0.13570 0.50769 0.21321
 H170 H 0.12576 0.52190 0.21276
 C171 C 0.14698 0.50168 0.19484
 H172 H 0.14597 0.51173 0.18067
 N173 N 0.13658 0.49537 0.23126
 C174 C 0.12351 0.51381 0.29675
 H175 H 0.10615 0.51480 0.29615
 C176 C 0.13387 0.51862 0.31544
 H177 H 0.12434 0.52354 0.32914
 C178 C 0.15693 0.50677 0.27926
 H179 H 0.16579 0.50226 0.26504
 C180 C 0.16800 0.51161 0.29766
 H181 H 0.18540 0.51058 0.29754
 Zn182 Zn 0.11875 0.50191 0.25508
 N183 N 0.13506 0.50781 0.27924
 C184 C 0.10459 0.46652 0.27940
 N185 N 0.10143 0.47783 0.26099
 C186 C 0.08774 0.47093 0.24608
 C187 C 0.07639 0.45205 0.24957
 C188 C 0.09384 0.44751 0.28338
 C189 C 0.11364 0.54496 0.24681
 C190 C 0.10345 0.56408 0.24116
 C191 C 0.06964 0.54564 0.24084
 C192 C 0.08052 0.52679 0.24659
 N193 N 0.10222 0.52673 0.24896
 H194 H 0.11601 0.47180 0.29078
 H195 H 0.08600 0.47984 0.23128
 H196 H 0.06577 0.44657 0.23748
 H197 H 0.09674 0.43864 0.29804
 H198 H 0.13086 0.54447 0.24896
 H199 H 0.11306 0.57819 0.23873
 H200 H 0.05241 0.54540 0.23873
 H201 H 0.07165 0.51225 0.24887
 C202 C 0.15640 0.51750 0.31610
 C203 C 0.15903 0.48261 0.19484
 C204 C 0.08120 0.56456 0.23781
 C205 C 0.07968 0.43998 0.26831
 C206 C -0.14205 0.02386 0.22370
 H207 H -0.13285 0.03501 0.23244
 C208 C -0.15377 0.03122 0.20626
 H209 H -0.15229 0.04784 0.20178
 C210 C -0.15393 -0.01118 0.21891
 H211 H -0.15428 -0.02765 0.22405
 C212 C -0.16591 -0.00455 0.20135
 H213 H -0.17556 -0.01630 0.19387
 N214 N -0.14178 0.00286 0.22934
 C215 C -0.12986 -0.03244 0.28798
 H216 H -0.11321 -0.03688 0.28501
 C217 C -0.14062 -0.04026 0.30614
 H218 H -0.13212 -0.05075 0.31709
 C219 C -0.16076 -0.01248 0.27776
 H220 H -0.16834 -0.00140 0.26675
 C221 C -0.17209 -0.01978 0.29589
 H222 H -0.18857 -0.01451 0.29858
 Zn223 Zn -0.12343 -0.00722 0.25143
 N224 N -0.13999 -0.01880 0.27429
 C225 C -0.11051 0.02108 0.28248
 N226 N -0.10731 0.01576 0.26179
 C227 C -0.09422 0.02746 0.24856
 C228 C -0.08445 0.04577 0.25585
 C229 C -0.10107 0.03915 0.29040
 C230 C -0.11459 -0.04814 0.23731
 C231 C -0.10260 -0.06515 0.22927
 C232 C -0.07096 -0.04335 0.22937
 C233 C -0.08364 -0.02666 0.23742
 N234 N -0.10514 -0.02923 0.24088
 H235 H -0.12091 0.01170 0.29283
 H236 H -0.09210 0.02310 0.23209
 H237 H -0.07479 0.05535 0.24490
 H238 H -0.10407 0.04318 0.30687
 H239 H -0.13150 -0.05016 0.24095
 H240 H -0.11069 -0.07984 0.22608
 H241 H -0.05388 -0.04104 0.22673
 H242 H -0.07623 -0.01175 0.24086
 C243 C -0.16194 -0.03377 0.31040
 C244 C -0.16568 0.01694 0.19425
 C245 C -0.08048 -0.06290 0.22508
 C246 C -0.08826 0.05205 0.27692
 C247 C 0.34257 0.52755 0.73067
 H248 H 0.34351 0.53628 0.74525
 C249 C 0.33015 0.53560 0.71394
 H250 H 0.32165 0.55061 0.71584
 C251 C 0.35376 0.49815 0.71006
 H252 H 0.36336 0.48385 0.70827
 C253 C 0.34142 0.50548 0.69307
 H254 H 0.34129 0.49629 0.67872
 N255 N 0.35416 0.50919 0.72842
 C256 C 0.36971 0.48068 0.79005
 H257 H 0.38672 0.47798 0.78711
 C258 C 0.36010 0.47318 0.80894
 H259 H 0.36983 0.46474 0.82057
 C260 C 0.33642 0.49514 0.77844
 H261 H 0.32727 0.50357 0.76640
 C262 C 0.32618 0.48816 0.79732
 H263 H 0.30911 0.49117 0.79970
 Zn264 Zn 0.37304 0.50044 0.75038
 N265 N 0.35785 0.49141 0.77527
 C266 C 0.38952 0.53174 0.77670
 N267 N 0.39018 0.52400 0.75666
 C268 C 0.40171 0.53381 0.74072
 C269 C 0.41329 0.55215 0.74472
 C270 C 0.40072 0.55006 0.78135
 C271 C 0.37961 0.45855 0.73846
 C272 C 0.39061 0.44079 0.73069
 C273 C 0.42343 0.46093 0.73007
 C274 C 0.41173 0.47843 0.73774
 N275 N 0.39012 0.47705 0.74128
 H276 H 0.38000 0.52397 0.78907
 H277 H 0.40161 0.52756 0.72483
 H278 H 0.42214 0.55995 0.73181
 H279 H 0.40002 0.55594 0.79742
 H280 H 0.36249 0.45780 0.74182
 H281 H 0.38187 0.42630 0.72821
 H282 H 0.44050 0.46242 0.72671
 H283 H 0.41987 0.49313 0.74052
 C284 C 0.33808 0.47692 0.81277
 C285 C 0.32966 0.52465 0.69470
 C286 C 0.41274 0.44195 0.72607
 C287 C 0.41268 0.56059 0.76523
 C288 C 0.65159 0.98588 0.72972
 H289 H 0.65312 0.97672 0.74441
 C290 C 0.66197 0.97894 0.71114
 H291 H 0.67137 0.96432 0.71172
 C292 C 0.63612 1.01519 0.71095
 H293 H 0.62555 1.02896 0.71069
 C294 C 0.64635 1.00896 0.69208
 H295 H 0.64394 1.01845 0.67772
 N296 N 0.63881 1.00362 0.72928
 C297 C 0.63007 1.02409 0.79477
 H298 H 0.61267 1.02462 0.79547
 C299 C 0.64170 1.02975 0.81243
 H300 H 0.63268 1.03524 0.82619
 C301 C 0.66218 1.01746 0.77503
 H302 H 0.67005 1.01259 0.76039
 C303 C 0.67455 1.02313 0.79230
 H304 H 0.69184 1.02182 0.79054
 Zn305 Zn 0.62254 1.01019 0.75419
 N306 N 0.64037 1.01785 0.77667
 C307 C 0.61208 0.97499 0.78070
 N308 N 0.60713 0.98539 0.76219
 C309 C 0.59311 0.97706 0.74839
 C310 C 0.58344 0.95750 0.75303
 C311 C 0.60301 0.95535 0.78582
 C312 C 0.61385 1.05245 0.74395
 C313 C 0.60182 1.07033 0.73779
 C314 C 0.56951 1.04974 0.74266
 C315 C 0.58223 1.03216 0.74863
 N316 N 0.60403 1.03369 0.74855
 H317 H 0.62370 0.98147 0.79120
 H318 H 0.58990 0.98535 0.73349
 H319 H 0.57268 0.95080 0.74171
 H320 H 0.60743 0.94714 0.80046
 H321 H 0.63121 1.05326 0.74427
 H322 H 0.61017 1.08474 0.73309
 H323 H 0.55220 1.04816 0.74248
 H324 H 0.57468 1.01726 0.75293
 C325 C 0.66443 1.02930 0.81163
 C326 C 0.65917 0.99037 0.69188
 C327 C 0.57934 1.06904 0.73667
 C328 C 0.58873 0.94625 0.77178
 C329 C 0.03044 0.23110 -0.14643
 H330 H 0.03825 0.24638 -0.14717
 C331 C 0.03909 0.21408 -0.15785
 H332 H 0.05341 0.21653 -0.16765
 C333 C 0.00230 0.20947 -0.13262
 H334 H -0.01197 0.20772 -0.12267
 C335 C 0.01045 0.19200 -0.14371
 H336 H 0.00247 0.17686 -0.14187
 N337 N 0.01253 0.22846 -0.13393
 C338 C -0.01593 0.29158 -0.12446
 H339 H -0.01562 0.29231 -0.10728
 C340 C -0.02387 0.30887 -0.13631
 H341 H -0.02990 0.32276 -0.12809
 C342 C -0.00871 0.27236 -0.15589
 H343 H -0.00275 0.25810 -0.16344
 C344 C -0.01664 0.28930 -0.16839
 H345 H -0.01653 0.28798 -0.18554
 Zn346 Zn 0.00321 0.25143 -0.11695
 N347 N -0.00830 0.27386 -0.13433
 C348 C 0.03401 0.28193 -0.10616
 N349 N 0.02780 0.26144 -0.10272
 C350 C 0.03997 0.24767 -0.09081
 C351 C 0.05880 0.25450 -0.08144
 C352 C 0.05271 0.28935 -0.09723
 C353 C -0.03906 0.24913 -0.09942
 C354 C -0.05575 0.24105 -0.08657
 C355 C -0.03005 0.21782 -0.06924
 C356 C -0.01386 0.22653 -0.08234
 N357 N -0.01856 0.24176 -0.09725
 H358 H 0.02488 0.29255 -0.11631
 H359 H 0.03556 0.23117 -0.08918
 H360 H 0.06845 0.24326 -0.07230
 H361 H 0.05725 0.30575 -0.10016
 H362 H -0.04282 0.26066 -0.11181
 H363 H -0.07175 0.24678 -0.09015
 H364 H -0.02505 0.20621 -0.05735
 H365 H 0.00239 0.22057 -0.08090
 C366 C -0.02418 0.30794 -0.15859
 C367 C 0.02928 0.19408 -0.15631
 C368 C -0.05176 0.22461 -0.07129
 C369 C 0.06544 0.27556 -0.08478
 C370 C 0.47303 0.22816 0.16016
 H371 H 0.46589 0.24394 0.16073
 C372 C 0.46316 0.21122 0.17112
 H373 H 0.44865 0.21424 0.18046
 C374 C 0.50032 0.20506 0.14683
 H375 H 0.51444 0.20255 0.13685
 C376 C 0.49095 0.18767 0.15746
 H377 H 0.49805 0.17200 0.15547
 N378 N 0.49130 0.22483 0.14835
 C379 C 0.52420 0.28507 0.13901
 H380 H 0.52775 0.28372 0.12216
 C381 C 0.53234 0.30200 0.15012
 H382 H 0.54214 0.31372 0.14176
 C383 C 0.50712 0.27134 0.17040
 H384 H 0.49755 0.25921 0.17828
 C385 C 0.51460 0.28834 0.18208
 H386 H 0.51073 0.28920 0.19892
 Zn387 Zn 0.50255 0.24792 0.13192
 N388 N 0.51190 0.27014 0.14921
 C389 C 0.47338 0.27877 0.11578
 N390 N 0.48040 0.25828 0.11413
 C391 C 0.47084 0.24461 0.10092
 C392 C 0.45350 0.25147 0.08859
 C393 C 0.45608 0.28625 0.10384
 C394 C 0.54446 0.23257 0.12663
 C395 C 0.56333 0.22650 0.11587
 C396 C 0.54573 0.23387 0.08254
 C397 C 0.52714 0.23979 0.09397
 N398 N 0.52681 0.23889 0.11563
 H399 H 0.48085 0.28926 0.12673
 H400 H 0.47656 0.22831 0.10014
 H401 H 0.44619 0.24038 0.07808
 H402 H 0.45041 0.30245 0.10591
 H403 H 0.54383 0.23228 0.14385
 H404 H 0.57705 0.22115 0.12498
 H405 H 0.54580 0.23494 0.06532
 H406 H 0.51313 0.24537 0.08553
 C407 C 0.52751 0.30379 0.17190
 C408 C 0.47199 0.19057 0.16967
 C409 C 0.56418 0.22715 0.09351
 C410 C 0.44581 0.27254 0.09006
 C411 C 0.97083 0.73531 0.66760
 H412 H 0.96359 0.75099 0.66898
 C413 C 0.96265 0.71827 0.67975
 H414 H 0.94937 0.72111 0.69079
 C415 C 0.99654 0.71257 0.65104
 H416 H 1.00928 0.71023 0.63934
 C417 C 0.98881 0.69507 0.66279
 H418 H 0.99578 0.67949 0.65993
 N419 N 0.98742 0.73219 0.65351
 C420 C 1.01375 0.79481 0.63823
 H421 H 1.01381 0.79385 0.62106
 C422 C 1.02166 0.81283 0.64774
 H423 H 1.02760 0.82579 0.63773
 C424 C 1.00555 0.77907 0.67201
 H425 H 0.99949 0.76575 0.68138
 C426 C 1.01325 0.79691 0.68222
 H427 H 1.01310 0.79713 0.69944
 Zn428 Zn 0.99555 0.75514 0.63516
 N429 N 1.00575 0.77847 0.65037
 C430 C 0.96253 0.78359 0.62185
 N431 N 0.97081 0.76357 0.61985
 C432 C 0.96093 0.74892 0.60796
 C433 C 0.94216 0.75434 0.59712
 C434 C 0.94373 0.78962 0.61144
 C435 C 1.03727 0.74129 0.62546
 C436 C 1.05467 0.73446 0.61286
 C437 C 1.03259 0.73889 0.58185
 C438 C 1.01561 0.74574 0.59506
 N439 N 1.01813 0.74644 0.61648
 H440 H 0.97026 0.79487 0.63177
 H441 H 0.96758 0.73296 0.60703
 H442 H 0.93440 0.74246 0.58785
 H443 H 0.93746 0.80567 0.61313
 H444 H 1.03889 0.74224 0.64252
 H445 H 1.06958 0.72988 0.62040
 H446 H 1.03029 0.73832 0.56485
 H447 H 1.00048 0.75045 0.58814
 C448 C 1.02147 0.81408 0.67002
 C449 C 0.97142 0.69772 0.67717
 C450 C 1.05238 0.73299 0.59076
 C451 C 0.93329 0.77491 0.59891
 C452 C 0.52418 0.71873 0.36568
 H453 H 0.53624 0.72716 0.37412
 C454 C 0.52998 0.70018 0.35507
 H455 H 0.54661 0.69483 0.35508
 C456 C 0.48789 0.71522 0.35573
 H457 H 0.47141 0.72099 0.35649
 C458 C 0.49299 0.69656 0.34490
 H459 H 0.48030 0.68806 0.33736
 N460 N 0.50342 0.72585 0.36588
 C461 C 0.48078 0.79114 0.37502
 H462 H 0.48299 0.79223 0.39199
 C463 C 0.47338 0.80884 0.36338
 H464 H 0.46943 0.82308 0.37205
 C465 C 0.48247 0.77052 0.34401
 H466 H 0.48643 0.75565 0.33645
 C467 C 0.47492 0.78776 0.33173
 H468 H 0.47373 0.78564 0.31477
 Zn469 Zn 0.49513 0.74946 0.38254
 N470 N 0.48497 0.77242 0.36529
 C471 C 0.53431 0.76957 0.38536
 N472 N 0.51917 0.75916 0.39732
 C473 C 0.52146 0.75600 0.41865
 C474 C 0.53995 0.76285 0.42860
 C475 C 0.55284 0.77695 0.39468
 C476 C 0.45304 0.74913 0.40070
 C477 C 0.43602 0.74046 0.41268
 C478 C 0.46047 0.71361 0.42653
 C479 C 0.47698 0.72266 0.41411
 N480 N 0.47301 0.74005 0.40147
 H481 H 0.53196 0.77209 0.36848
 H482 H 0.50913 0.74796 0.42797
 H483 H 0.54172 0.75959 0.44546
 H484 H 0.56443 0.78551 0.38481
 H485 H 0.45004 0.76257 0.39012
 H486 H 0.42009 0.74741 0.41105
 H487 H 0.46402 0.69973 0.43642
 H488 H 0.49289 0.71545 0.41408
 C489 C 0.47008 0.80747 0.34128
 C490 C 0.51425 0.68868 0.34468
 C491 C 0.43952 0.72224 0.42559
 C492 C 0.55605 0.77341 0.41656
 C493 C 0.39558 -0.02709 0.27118
 H494 H 0.39517 -0.01250 0.28000
 C495 C 0.40684 -0.04487 0.27917
 H496 H 0.41502 -0.04368 0.29411
 C497 C 0.38384 -0.04676 0.24202
 H498 H 0.37446 -0.04772 0.22784
 C499 C 0.39506 -0.06479 0.24927
 H500 H 0.39455 -0.07918 0.24016
 N501 N 0.38403 -0.02843 0.25312
 C502 C 0.37099 0.03416 0.22476
 H503 H 0.35478 0.03118 0.21980
 C504 C 0.38073 0.05327 0.21885
 H505 H 0.37188 0.06482 0.20930
 C506 C 0.40233 0.02233 0.24252
 H507 H 0.41069 0.01023 0.25173
 C508 C 0.41277 0.04130 0.23687
 H509 H 0.42905 0.04369 0.24201
 Zn510 Zn 0.36574 -0.00531 0.24465
 N511 N 0.38165 0.01929 0.23671
 C512 C 0.33554 0.02027 0.26699
 N513 N 0.34665 0.00147 0.26764
 C514 C 0.34521 -0.01186 0.28496
 C515 C 0.33327 -0.00588 0.30299
 C516 C 0.32341 0.02688 0.28465
 C517 C 0.36106 -0.01518 0.20202
 C518 C 0.35056 -0.02121 0.18379
 C519 C 0.31720 -0.02227 0.20421
 C520 C 0.32839 -0.01626 0.22213
 N521 N 0.34996 -0.01305 0.22073
 H522 H 0.33660 0.03054 0.25304
 H523 H 0.35361 -0.02702 0.28502
 H524 H 0.33267 -0.01653 0.31677
 H525 H 0.31556 0.04236 0.28410
 H526 H 0.37821 -0.01247 0.20140
 H527 H 0.35988 -0.02341 0.16924
 H528 H 0.30002 -0.02473 0.20558
 H529 H 0.31990 -0.01434 0.23717
 C530 C 0.40179 0.05719 0.22513
 C531 C 0.40635 -0.06421 0.26838
 C532 C 0.32833 -0.02492 0.18472
 C533 C 0.32259 0.01396 0.30317
 C534 C 0.09805 1.02542 0.77607
 H535 H 0.09669 1.01019 0.78432
 C536 C 0.08798 1.04349 0.78456
 H537 H 0.07886 1.04202 0.79938
 C538 C 0.11286 1.04610 0.74753
 H539 H 0.12304 1.04728 0.73344
 C540 C 0.10313 1.06449 0.75544
 H541 H 0.10555 1.07949 0.74699
 N542 N 0.11036 1.02706 0.75795
 C543 C 0.12025 0.96405 0.73137
 H544 H 0.13752 0.96480 0.72913
 C545 C 0.10924 0.94641 0.72454
 H546 H 0.11823 0.93351 0.71725
 C547 C 0.08774 0.98000 0.74389
 H548 H 0.07946 0.99326 0.75123
 C549 C 0.07604 0.96251 0.73736
 H550 H 0.05874 0.96247 0.73969
 Zn551 Zn 0.12683 1.00320 0.74879
 N552 N 0.10947 0.98033 0.74091
 C553 C 0.14342 0.97420 0.77954
 N554 N 0.14465 0.99442 0.77150
 C555 C 0.15780 1.00888 0.78011
 C556 C 0.17075 1.00305 0.79726
 C557 C 0.15607 0.96770 0.79661
 C558 C 0.13253 1.01550 0.70637
 C559 C 0.14341 1.02200 0.68778
 C560 C 0.17695 1.01814 0.70630
 C561 C 0.16539 1.01169 0.72459
 N562 N 0.14354 1.01092 0.72439
 H563 H 0.13244 0.96309 0.77294
 H564 H 0.15820 1.02497 0.77364
 H565 H 0.18133 1.01468 0.80374
 H566 H 0.15460 0.95161 0.80293
 H567 H 0.11518 1.01438 0.70658
 H568 H 0.13430 1.02570 0.67365
 H569 H 0.19429 1.01928 0.70690
 H570 H 0.17389 1.00756 0.73894
 C571 C 0.08684 0.94547 0.72745
 C572 C 0.09084 1.06343 0.77442
 C573 C 0.16590 1.02369 0.68766
 C574 C 0.17003 0.98217 0.80568
 C575 C 0.58312 0.51806 0.28184
 H576 H 0.58420 0.50307 0.29059
 C577 C 0.57031 0.53466 0.28981
 H578 H 0.56126 0.53220 0.30454
 C579 C 0.59432 0.53975 0.25246
 H580 H 0.60425 0.54201 0.23832
 C581 C 0.58170 0.55670 0.25979
 H582 H 0.58211 0.57176 0.25109
 N583 N 0.59492 0.52091 0.26355
 C584 C 0.61390 0.45957 0.23758
 H585 H 0.63066 0.46311 0.23446
 C586 C 0.60572 0.44020 0.23145
 H587 H 0.61630 0.42912 0.22325
 C588 C 0.57980 0.47026 0.25147
 H589 H 0.56979 0.48208 0.25923
 C590 C 0.57094 0.45090 0.24573
 H591 H 0.55414 0.44793 0.24939
 Zn592 Zn 0.61479 0.49934 0.25519
 N593 N 0.60102 0.47406 0.24755
 C594 C 0.63538 0.47325 0.28609
 N595 N 0.63301 0.49352 0.27841
 C596 C 0.64302 0.51001 0.28754
 C597 C 0.65631 0.50634 0.30494
 C598 C 0.64859 0.46886 0.30334
 C599 C 0.62060 0.51174 0.21254
 C600 C 0.63168 0.51858 0.19416
 C601 C 0.66449 0.51829 0.21411
 C602 C 0.65275 0.51153 0.23215
 N603 N 0.63115 0.50869 0.23111
 H604 H 0.62693 0.46041 0.27898
 H605 H 0.64065 0.52602 0.28126
 H606 H 0.66433 0.51960 0.31190
 H607 H 0.65009 0.45263 0.30934
 H608 H 0.60349 0.50895 0.21209
 H609 H 0.62299 0.52093 0.17953
 H610 H 0.68159 0.52089 0.21532
 H611 H 0.66092 0.50859 0.24694
 C612 C 0.58401 0.43548 0.23569
 C613 C 0.56972 0.55441 0.27887
 C614 C 0.65391 0.52206 0.19483
 C615 C 0.65930 0.48550 0.31297
 C616 C 0.90315 0.47563 0.77525
 H617 H 0.90346 0.48986 0.78459
 C618 C 0.91456 0.45744 0.78195
 H619 H 0.92362 0.45794 0.79644
 C620 C 0.88937 0.45721 0.74616
 H621 H 0.87910 0.45688 0.73255
 C622 C 0.90065 0.43877 0.75216
 H623 H 0.89929 0.42469 0.74270
 N624 N 0.89051 0.47510 0.75785
 C625 C 0.87598 0.53918 0.73382
 H626 H 0.85948 0.53647 0.72966
 C627 C 0.88536 0.55860 0.72848
 H628 H 0.87592 0.57071 0.72027
 C629 C 0.90846 0.52631 0.74872
 H630 H 0.91742 0.51368 0.75658
 C631 C 0.91858 0.54558 0.74355
 H632 H 0.93522 0.54766 0.74768
 Zn633 Zn 0.87187 0.49860 0.75146
 N634 N 0.88738 0.52363 0.74414
 C635 C 0.84224 0.52249 0.77634
 N636 N 0.85379 0.50396 0.77562
 C637 C 0.85329 0.48975 0.79230
 C638 C 0.84172 0.49443 0.81095
 C639 C 0.83047 0.52780 0.79466
 C640 C 0.86536 0.49082 0.70864
 C641 C 0.85409 0.48567 0.69057
 C642 C 0.82154 0.48382 0.71221
 C643 C 0.83350 0.48894 0.72994
 N644 N 0.85503 0.49212 0.72784
 H645 H 0.84255 0.53348 0.76293
 H646 H 0.86203 0.47483 0.79129
 H647 H 0.84175 0.48303 0.82412
 H648 H 0.82214 0.54303 0.79515
 H649 H 0.88250 0.49347 0.70747
 H650 H 0.86282 0.48409 0.67559
 H651 H 0.80440 0.48138 0.71415
 H652 H 0.82562 0.49019 0.74537
 C653 C 0.90685 0.56214 0.73358
 C654 C 0.91303 0.43851 0.77060
 C655 C 0.83186 0.48201 0.69219
 C656 C 0.83042 0.51386 0.81244
 C657 C 0.27644 0.40698 -0.01387
 H658 H 0.28322 0.40955 0.00156
 C659 C 0.28425 0.41828 -0.03179
 H660 H 0.29704 0.42959 -0.03007
 C661 C 0.25221 0.38845 -0.03511
 H662 H 0.24008 0.37649 -0.03652
 C663 C 0.25970 0.39915 -0.05339
 H664 H 0.25292 0.39560 -0.06862
 N665 N 0.26057 0.39252 -0.01580
 C666 C 0.23353 0.38282 0.04839
 H667 H 0.23354 0.36560 0.04884
 C668 C 0.22567 0.39405 0.06585
 H669 H 0.21944 0.38533 0.07964
 C670 C 0.24104 0.41498 0.02944
 H671 H 0.24678 0.42305 0.01512
 C672 C 0.23320 0.42688 0.04655
 H673 H 0.23333 0.44408 0.04535
 Zn674 Zn 0.25129 0.37606 0.00825
 N675 N 0.24128 0.39334 0.03078
 C676 C 0.28367 0.36280 0.03653
 N677 N 0.27507 0.35922 0.01724
 C678 C 0.28432 0.34504 0.00366
 C679 C 0.30281 0.33356 0.00947
 C680 C 0.30219 0.35187 0.04287
 C681 C 0.20982 0.37093 -0.00461
 C682 C 0.19209 0.36102 -0.01290
 C683 C 0.21094 0.32725 -0.00957
 C684 C 0.22843 0.33788 -0.00128
 N685 N 0.22776 0.35943 0.00039
 H686 H 0.27655 0.37457 0.04687
 H687 H 0.27753 0.34291 -0.01185
 H688 H 0.31015 0.32252 -0.00160
 H689 H 0.30880 0.35498 0.05828
 H690 H 0.20966 0.38802 -0.00286
 H691 H 0.17816 0.37058 -0.01723
 H692 H 0.21201 0.31023 -0.01172
 H693 H 0.24271 0.32899 0.00315
 C694 C 0.22549 0.41638 0.06510
 C695 C 0.27598 0.41421 -0.05189
 C696 C 0.19272 0.33899 -0.01606
 C697 C 0.31208 0.33712 0.02923
 C698 C 0.77542 0.08784 1.02348
 H699 H 0.78396 0.08640 1.00839
 C700 C 0.78209 0.07583 1.04120
 H701 H 0.79587 0.06521 1.03959
 C702 C 0.74803 0.10457 1.04418
 H703 H 0.73519 0.11622 1.04553
 C704 C 0.75409 0.09284 1.06223
 H705 H 0.74536 0.09524 1.07709
 N706 N 0.75874 0.10196 1.02529
 C707 C 0.73859 0.11671 0.96050
 H708 H 0.73940 0.13387 0.96109
 C709 C 0.73236 0.10710 0.94189
 H710 H 0.72815 0.11701 0.92824
 C711 C 0.74271 0.08308 0.97788
 H712 H 0.74669 0.07384 0.99201
 C713 C 0.73635 0.07277 0.95958
 H714 H 0.73566 0.05556 0.95966
 Zn715 Zn 0.75251 0.12009 1.00166
 N716 N 0.74391 0.10467 0.97788
 C717 C 0.78855 0.13076 0.97589
 N718 N 0.77804 0.13501 0.99456
 C719 C 0.78646 0.14838 1.00884
 C720 C 0.80597 0.15851 1.00430
 C721 C 0.80818 0.14027 0.97087
 C722 C 0.71025 0.12927 1.01330
 C723 C 0.69247 0.14136 1.01992
 C724 C 0.71393 0.17298 1.01578
 C725 C 0.73138 0.16021 1.00932
 N726 N 0.72937 0.13872 1.00873
 H727 H 0.78205 0.11957 0.96504
 H728 H 0.77812 0.15100 1.02385
 H729 H 0.81255 0.16906 1.01581
 H730 H 0.81631 0.13668 0.95594
 H731 H 0.70904 0.11216 1.01243
 H732 H 0.67774 0.13331 1.02440
 H733 H 0.71587 0.19004 1.01634
 H734 H 0.74652 0.16750 1.00499
 C735 C 0.73129 0.08485 0.94122
 C736 C 0.77156 0.07848 1.06100
 C737 C 0.69422 0.16352 1.02153
 C738 C 0.81713 0.15430 0.98517
 C739 C 0.26612 0.59503 0.52584
 H740 H 0.27598 0.59491 0.51145
 C741 C 0.27345 0.58486 0.54437
 H742 H 0.28909 0.57708 0.54404
 C743 C 0.23444 0.60668 0.54395
 H744 H 0.21942 0.61553 0.54387
 C745 C 0.24103 0.59656 0.56275
 H746 H 0.23068 0.59739 0.57678
 N747 N 0.24704 0.60587 0.52602
 C748 C 0.22215 0.61437 0.46215
 H749 H 0.22021 0.63151 0.46187
 C750 C 0.21571 0.60269 0.44488
 H751 H 0.20853 0.61098 0.43145
 C752 C 0.23342 0.58286 0.48039
 H753 H 0.24035 0.57526 0.49429
 C754 C 0.22714 0.57050 0.46341
 H755 H 0.22946 0.55341 0.46432
 Zn756 Zn 0.23952 0.62210 0.50150
 N757 N 0.23103 0.60440 0.47933
 C758 C 0.27207 0.63506 0.47233
 N759 N 0.26411 0.63764 0.49245
 C760 C 0.27465 0.64947 0.50668
 C761 C 0.29415 0.65907 0.50090
 C762 C 0.29141 0.64435 0.46591
 C763 C 0.19636 0.63088 0.50966
 C764 C 0.17805 0.64273 0.51519
 C765 C 0.20021 0.67384 0.51743
 C766 C 0.21812 0.66139 0.51159
 N767 N 0.21591 0.64025 0.50816
 H768 H 0.26380 0.62531 0.46132
 H769 H 0.26826 0.65088 0.52274
 H770 H 0.30265 0.66792 0.51260
 H771 H 0.29743 0.64201 0.44983
 H772 H 0.19507 0.61403 0.50686
 H773 H 0.16271 0.63485 0.51677
 H774 H 0.20219 0.69059 0.52038
 H775 H 0.23377 0.66858 0.51011
 C776 C 0.21829 0.58046 0.44528
 C777 C 0.26098 0.58578 0.56328
 C778 C 0.17988 0.66445 0.51937
 C779 C 0.30293 0.65623 0.48036
 C780 C 0.76931 0.90405 0.48452
 H781 H 0.77512 0.90757 0.50014
 C782 C 0.77834 0.91414 0.46645
 H783 H 0.79111 0.92545 0.46826
 C784 C 0.74633 0.88431 0.46305
 H785 H 0.73430 0.87225 0.46163
 C786 C 0.75500 0.89384 0.44462
 H787 H 0.74905 0.88942 0.42929
 N788 N 0.75338 0.88966 0.48254
 C789 C 0.72366 0.88464 0.54608
 H790 H 0.72295 0.86747 0.54727
 C791 C 0.71644 0.89688 0.56307
 H792 H 0.70994 0.88902 0.57725
 C793 C 0.73275 0.91566 0.52590
 H794 H 0.73897 0.92288 0.51132
 C795 C 0.72548 0.92857 0.54251
 H796 H 0.72646 0.94570 0.54068
 Zn797 Zn 0.74217 0.87515 0.50707
 N798 N 0.73204 0.89409 0.52815
 C799 C 0.77280 0.86235 0.53743
 N800 N 0.76462 0.85781 0.51818
 C801 C 0.77330 0.84202 0.50613
 C802 C 0.79069 0.82980 0.51355
 C803 C 0.79014 0.85061 0.54541
 C804 C 0.70188 0.87028 0.49044
 C805 C 0.68432 0.85989 0.48231
 C806 C 0.69982 0.82636 0.49438
 C807 C 0.71739 0.83740 0.50193
 N808 N 0.71830 0.85893 0.49933
 H809 H 0.76633 0.87548 0.54642
 H810 H 0.76680 0.83903 0.49066
 H811 H 0.79726 0.81717 0.50383
 H812 H 0.79668 0.85491 0.56053
 H813 H 0.70290 0.88742 0.48891
 H814 H 0.67174 0.86907 0.47454
 H815 H 0.69944 0.80917 0.49593
 H816 H 0.73039 0.82875 0.50949
 C817 C 0.71748 0.91914 0.56150
 C818 C 0.77123 0.90895 0.44616
 C819 C 0.68336 0.83767 0.48396
 C820 C 0.79935 0.83406 0.53346
 C821 C -0.01701 0.27485 0.39381
 H822 H -0.00156 0.28246 0.39201
 C823 C -0.03346 0.28439 0.40593
 H824 H -0.03052 0.29941 0.41337
 C825 C -0.03993 0.24667 0.38521
 H826 H -0.04264 0.23222 0.37677
 C827 C -0.05676 0.25559 0.39719
 H828 H -0.07203 0.24754 0.39820
 N829 N -0.02049 0.25632 0.38374
 C830 C 0.04052 0.22396 0.37033
 H831 H 0.03794 0.22056 0.35379
 C832 C 0.05876 0.21591 0.38037
 H833 H 0.07027 0.20635 0.37144
 C834 C 0.02852 0.24054 0.40205
 H835 H 0.01654 0.24990 0.41048
 C836 C 0.04678 0.23302 0.41267
 H837 H 0.04872 0.23661 0.42928
 Zn838 Zn 0.00151 0.24509 0.36567
 N839 N 0.02583 0.23597 0.38121
 C840 C 0.03025 0.27356 0.34535
 N841 N 0.00956 0.26684 0.34590
 C842 C -0.00573 0.27670 0.33388
 C843 C -0.00044 0.29420 0.32074
 C844 C 0.03621 0.29095 0.33253
 C845 C -0.01244 0.20356 0.36468
 C846 C -0.02074 0.18514 0.35634
 C847 C -0.02045 0.20231 0.32154
 C848 C -0.01215 0.22052 0.33060
 N849 N -0.00875 0.22091 0.35191
 H850 H 0.04207 0.26591 0.35539
 H851 H -0.02215 0.27126 0.33488
 H852 H -0.01284 0.30192 0.31138
 H853 H 0.05261 0.29644 0.33302
 H854 H -0.00922 0.20421 0.38150
 H855 H -0.02373 0.17156 0.36685
 H856 H -0.02367 0.20241 0.30467
 H857 H -0.00874 0.23436 0.32067
 C858 C 0.06205 0.22039 0.40181
 C859 C -0.05375 0.27483 0.40758
 C860 C -0.02518 0.18445 0.33456
 C861 C 0.02077 0.30168 0.32012
 C862 C 1.02657 0.77546 0.08335
 H863 H 1.01068 0.78242 0.08158
 C864 C 1.04398 0.78384 0.07170
 H865 H 1.04123 0.79701 0.06064
 C866 C 1.04946 0.75022 0.10040
 H867 H 1.05169 0.73759 0.11211
 C868 C 1.06731 0.75813 0.08911
 H869 H 1.08307 0.75138 0.09228
 N870 N 1.02958 0.75899 0.09742
 C871 C 0.96647 0.73163 0.11058
 H872 H 0.96693 0.73151 0.12778
 C873 C 0.94883 0.72329 0.10051
 H874 H 0.93564 0.71700 0.11013
 C875 C 0.98313 0.74029 0.07730
 H876 H 0.99668 0.74669 0.06834
 C877 C 0.96569 0.73212 0.06652
 H878 H 0.96601 0.73226 0.04928
 Zn879 Zn 1.00595 0.75051 0.11497
 N880 N 0.98307 0.74007 0.09896
 C881 C 0.97590 0.78182 0.12919
 N882 N 0.99661 0.77468 0.13026
 C883 C 1.01137 0.78508 0.14167
 C884 C 1.00540 0.80323 0.15293
 C885 C 0.96921 0.79978 0.14032
 C886 C 1.02072 0.70952 0.12538
 C887 C 1.02654 0.69227 0.13849
 C888 C 1.01839 0.71369 0.16915
 C889 C 1.01283 0.73059 0.15543
 N890 N 1.01428 0.72827 0.13398
 H891 H 0.96452 0.77374 0.11959
 H892 H 1.02780 0.77921 0.14203
 H893 H 1.01728 0.81117 0.16214
 H894 H 0.95268 0.80529 0.13920
 H895 H 1.02142 0.70804 0.10826
 H896 H 1.03213 0.67768 0.13125
 H897 H 1.01687 0.71577 0.18617
 H898 H 1.00711 0.74543 0.16196
 C899 C 0.94826 0.72343 0.07818
 C900 C 1.06476 0.77536 0.07472
 C901 C 1.02543 0.69420 0.16072
 C902 C 0.98402 0.81069 0.15243
 C903 C 0.52350 0.28293 0.58714
 H904 H 0.50760 0.28992 0.58551
 C905 C 0.54106 0.29212 0.57640
 H906 H 0.53843 0.30596 0.56616
 C907 C 0.54623 0.25675 0.60297
 H908 H 0.54831 0.24338 0.61386
 C909 C 0.56423 0.26545 0.59257
 H910 H 0.57997 0.25857 0.59559
 N911 N 0.52636 0.26562 0.60018
 C912 C 0.46393 0.23607 0.61043
 H913 H 0.46436 0.23460 0.62761
 C914 C 0.44665 0.22795 0.59962
 H915 H 0.43371 0.22042 0.60864
 C916 C 0.48027 0.24799 0.57798
 H917 H 0.49354 0.25561 0.56964
 C918 C 0.46315 0.24018 0.56648
 H919 H 0.46341 0.24180 0.54929
 Zn920 Zn 0.50249 0.25589 0.61669
 N921 N 0.48021 0.24598 0.59959
 C922 C 0.47144 0.28583 0.63124
 N923 N 0.49221 0.27904 0.63292
 C924 C 0.50627 0.28937 0.64520
 C925 C 0.49958 0.30732 0.65644
 C926 C 0.46405 0.30358 0.64227
 C927 C 0.51685 0.21454 0.62479
 C928 C 0.52199 0.19631 0.63676
 C929 C 0.51428 0.21581 0.66881
 C930 C 0.50929 0.23373 0.65618
 N931 N 0.51073 0.23277 0.63459
 H932 H 0.46058 0.27769 0.62113
 H933 H 0.52280 0.28383 0.64597
 H934 H 0.51112 0.31558 0.66577
 H935 H 0.44737 0.30849 0.64089
 H936 H 0.51759 0.21418 0.60758
 H937 H 0.52711 0.18205 0.62860
 H938 H 0.51273 0.21673 0.68595
 H939 H 0.50391 0.24825 0.66363
 C940 C 0.44609 0.22994 0.57735
 C941 C 0.56183 0.28356 0.57929
 C942 C 0.52062 0.19673 0.65909
 C943 C 0.47822 0.31473 0.65494
 C944 C 0.49006 0.77125 0.88879
 H945 H 0.50488 0.78001 0.88740
 C946 C 0.47299 0.77896 0.90136
 H947 H 0.47479 0.79382 0.90948
 C948 C 0.46945 0.74173 0.87901
 H949 H 0.46815 0.72723 0.87023
 C950 C 0.45200 0.74885 0.89140
 H951 H 0.43745 0.73959 0.89217
 N952 N 0.48792 0.75306 0.87777
 C953 C 0.55125 0.72531 0.86409
 H954 H 0.55106 0.72550 0.84687
 C955 C 0.56892 0.71663 0.87463
 H956 H 0.58238 0.71042 0.86535
 C957 C 0.53390 0.73337 0.89693
 H958 H 0.52011 0.73975 0.90553
 C959 C 0.55133 0.72483 0.90816
 H960 H 0.55073 0.72457 0.92539
 Zn961 Zn 0.51064 0.74437 0.85935
 N962 N 0.53418 0.73344 0.87527
 C963 C 0.54070 0.77432 0.84306
 N964 N 0.51969 0.76858 0.84288
 C965 C 0.50490 0.78073 0.83226
 C966 C 0.51118 0.79904 0.82082
 C967 C 0.54765 0.79237 0.83183
 C968 C 0.50784 0.70217 0.84527
 C969 C 0.50018 0.68548 0.83346
 C970 C 0.47745 0.71059 0.81453
 C971 C 0.48571 0.72689 0.82659
 N972 N 0.50068 0.72248 0.84163
 H973 H 0.55216 0.76526 0.85228
 H974 H 0.48812 0.77656 0.83311
 H975 H 0.49922 0.80845 0.81241
 H976 H 0.56439 0.79675 0.83258
 H977 H 0.51901 0.69868 0.85781
 H978 H 0.50575 0.66941 0.83699
 H979 H 0.46546 0.71436 0.80273
 H980 H 0.47979 0.74295 0.82420
 C981 C 0.56908 0.71617 0.89696
 C982 C 0.45353 0.76785 0.90259
 C983 C 0.48468 0.68955 0.81796
 C984 C 0.53287 0.80500 0.82045
 C985 C 0.44433 -0.13971 0.30671
 C986 C 0.44190 -0.16030 0.29907
 C987 C 0.45067 -0.17768 0.31023
 C988 C 0.46191 -0.17485 0.32923
 C989 C 0.46439 -0.15370 0.33588
 N990 N 0.45576 -0.13706 0.32463
 C991 C 0.43466 -0.12080 0.29594
 N992 N 0.44391 -0.10146 0.29797
 C993 C 0.43548 -0.08332 0.28909
 C994 C 0.41640 -0.08394 0.27753
 C995 C 0.40654 -0.10374 0.27543
 C996 C 0.41559 -0.12212 0.28452
 H997 H 0.44760 -0.19332 0.30428
 H998 H 0.47367 -0.15012 0.34966
 H999 H 0.44375 -0.06849 0.29103
 H1000 H 0.39148 -0.10500 0.26726
 H1001 H 0.43334 -0.16306 0.28461
 H1002 H 0.40730 -0.13702 0.28318
 C1003 C 0.95037 0.36148 0.80631
 C1004 C 0.94575 0.34077 0.79994
 C1005 C 0.95432 0.32328 0.81113
 C1006 C 0.96751 0.32632 0.82862
 C1007 C 0.97225 0.34727 0.83404
 N1008 N 0.96369 0.36404 0.82294
 C1009 C 0.94093 0.38067 0.79580
 N1010 N 0.95107 0.39962 0.79730
 C1011 C 0.94284 0.41811 0.78901
 C1012 C 0.92302 0.41831 0.77867
 C1013 C 0.91231 0.39891 0.77696
 C1014 C 0.92116 0.38014 0.78544
 H1015 H 0.95025 0.30740 0.80640
 H1016 H 0.98273 0.35033 0.84712
 H1017 H 0.95177 0.43262 0.79057
 H1018 H 0.89672 0.39831 0.76969
 H1019 H 0.93572 0.33799 0.78646
 H1020 H 0.91215 0.36562 0.78454
 C1021 C 0.05740 1.13957 0.81339
 C1022 C 0.07072 1.15477 0.82222
 C1023 C 0.06154 1.17256 0.83190
 C1024 C 0.03911 1.17535 0.83293
 C1025 C 0.02634 1.15967 0.82409
 N1026 N 0.03567 1.14243 0.81474
 C1027 C 0.06638 1.12032 0.80308
 N1028 N 0.05432 1.10241 0.80274
 C1029 C 0.06168 1.08413 0.79372
 C1030 C 0.08227 1.08323 0.78413
 C1031 C 0.09482 1.10161 0.78408
 C1032 C 0.08696 1.12013 0.79344
 H1033 H 0.07203 1.18388 0.83903
 H1034 H 0.00898 1.16119 0.82441
 H1035 H 0.05137 1.07039 0.79388
 H1036 H 0.11086 1.10161 0.77704
 H1037 H 0.08803 1.15278 0.82219
 H1038 H 0.09686 1.13414 0.79283
 C1039 C 0.53197 0.63014 0.31474
 C1040 C 0.51684 0.64389 0.30505
 C1041 C 0.51095 0.66293 0.31482
 C1042 C 0.51998 0.66833 0.33422
 C1043 C 0.53463 0.65392 0.34359
 N1044 N 0.54015 0.63554 0.33376
 C1045 C 0.53969 0.61007 0.30499
 N1046 N 0.54994 0.59534 0.31753
 C1047 C 0.55877 0.57713 0.30974
 C1048 C 0.55800 0.57302 0.28791
 C1049 C 0.54724 0.58779 0.27470
 C1050 C 0.53809 0.60629 0.28311
 H1051 H 0.49958 0.67356 0.30703
 H1052 H 0.54162 0.65716 0.35878
 H1053 H 0.56716 0.56636 0.32048
 H1054 H 0.54617 0.58520 0.25778
 H1055 H 0.50945 0.64008 0.29023
 H1056 H 0.53061 0.61769 0.27237
 C1057 C 0.55231 0.35683 0.20426
 C1058 C 0.56635 0.34362 0.19256
 C1059 C 0.55825 0.32615 0.18226
 C1060 C 0.53627 0.32162 0.18379
 C1061 C 0.52279 0.33494 0.19596
 N1062 N 0.53098 0.35218 0.20552
 C1063 C 0.56013 0.37631 0.21410
 N1064 N 0.54747 0.39417 0.21412
 C1065 C 0.55440 0.41301 0.22153
 C1066 C 0.57530 0.41466 0.22937
 C1067 C 0.58821 0.39614 0.23030
 C1068 C 0.58074 0.37703 0.22265
 H1069 H 0.56911 0.31622 0.17296
 H1070 H 0.50570 0.33201 0.19729
 H1071 H 0.54385 0.42682 0.22051
 H1072 H 0.60417 0.39641 0.23685
 H1073 H 0.58329 0.34713 0.19076
 H1074 H 0.59102 0.36299 0.22340
 C1075 C 0.04570 0.87023 0.69808
 C1076 C 0.02705 0.86072 0.70682
 C1077 C 0.01931 0.84220 0.69793
 C1078 C 0.02992 0.83320 0.68029
 C1079 C 0.04850 0.84311 0.67215
 N1080 N 0.05574 0.86104 0.68108
 C1081 C 0.05492 0.89006 0.70623
 N1082 N 0.07070 0.89968 0.69434
 C1083 C 0.08068 0.91749 0.70057
 C1084 C 0.07503 0.92676 0.72003
 C1085 C 0.05860 0.91738 0.73252
 C1086 C 0.04856 0.89901 0.72576
 H1087 H 0.00472 0.83523 0.70451
 H1088 H 0.05737 0.83658 0.65874
 H1089 H 0.09304 0.92435 0.69028
 H1090 H 0.05396 0.92389 0.74778
 H1091 H 0.01818 0.86752 0.72004
 H1092 H 0.03643 0.89185 0.73605
 C1093 C 0.94307 0.64239 0.70671
 C1094 C 0.92989 0.65952 0.70007
 C1095 C 0.93917 0.67768 0.69092
 C1096 C 0.96159 0.67896 0.68825
 C1097 C 0.97423 0.66155 0.69527
 N1098 N 0.96479 0.64394 0.70404
 C1099 C 0.93390 0.62223 0.71529
 N1100 N 0.94546 0.60377 0.71320
 C1101 C 0.93755 0.58452 0.71956
 C1102 C 0.91667 0.58306 0.72837
 C1103 C 0.90482 0.60196 0.73139
 C1104 C 0.91337 0.62151 0.72500
 H1105 H 0.92872 0.69041 0.68524
 H1106 H 0.99158 0.66187 0.69369
 H1107 H 0.94726 0.57034 0.71701
 H1108 H 0.88888 0.60161 0.73867
 H1109 H 0.91253 0.65873 0.70111
 H1110 H 0.90392 0.63581 0.72772
 C1111 C 0.44044 0.13608 0.19737
 C1112 C 0.42813 0.15299 0.18876
 C1113 C 0.43841 0.17085 0.18010
 C1114 C 0.46093 0.17203 0.17986
 C1115 C 0.47265 0.15481 0.18869
 N1116 N 0.46228 0.13751 0.19697
 C1117 C 0.43037 0.11632 0.20582
 N1118 N 0.44202 0.09778 0.20578
 C1119 C 0.43352 0.07886 0.21239
 C1120 C 0.41196 0.07782 0.21939
 C1121 C 0.39990 0.09685 0.22023
 C1122 C 0.40902 0.11607 0.21358
 H1123 H 0.42871 0.18344 0.17297
 H1124 H 0.49004 0.15507 0.18901
 H1125 H 0.44341 0.06458 0.21152
 H1126 H 0.38340 0.09688 0.22609
 H1127 H 0.41081 0.15225 0.18800
 H1128 H 0.39940 0.13049 0.21465
 C1129 C 0.30987 0.45340 -0.12886
 C1130 C 0.30517 0.47435 -0.13577
 C1131 C 0.31406 0.48199 -0.15503
 C1132 C 0.32773 0.46890 -0.16724
 C1133 C 0.33181 0.44803 -0.15987
 N1134 N 0.32281 0.44089 -0.14122
 C1135 C 0.30082 0.44422 -0.10880
 N1136 N 0.29777 0.42284 -0.10742
 C1137 C 0.28984 0.41305 -0.08950
 C1138 C 0.28474 0.42489 -0.07138
 C1139 C 0.28808 0.44692 -0.07225
 C1140 C 0.29601 0.45668 -0.09097
 H1141 H 0.31056 0.49819 -0.16022
 H1142 H 0.34203 0.43736 -0.16899
 H1143 H 0.28779 0.39598 -0.08935
 H1144 H 0.28435 0.45657 -0.05856
 H1145 H 0.29455 0.48461 -0.12663
 H1146 H 0.29873 0.47365 -0.09130
 C1147 C 0.80792 0.94492 0.36875
 C1148 C 0.80519 0.96621 0.36192
 C1149 C 0.81466 0.97311 0.34267
 C1150 C 0.82686 0.95889 0.33025
 C1151 C 0.82885 0.93768 0.33746
 N1152 N 0.81942 0.93132 0.35619
 C1153 C 0.79838 0.93655 0.38898
 N1154 N 0.79451 0.91533 0.39085
 C1155 C 0.78596 0.90627 0.40888
 C1156 C 0.78095 0.91874 0.42661
 C1157 C 0.78518 0.94059 0.42523
 C1158 C 0.79384 0.94958 0.40646
 H1159 H 0.81279 0.98963 0.33770
 H1160 H 0.83786 0.92614 0.32820
 H1161 H 0.78331 0.88929 0.40940
 H1162 H 0.78153 0.95075 0.43857
 H1163 H 0.79570 0.97740 0.37113
 H1164 H 0.79724 0.96641 0.40586
 C1165 C 0.80458 0.03841 1.13735
 C1166 C 0.80924 0.01667 1.14042
 C1167 C 0.81866 0.00951 1.15929
 C1168 C 0.82353 0.02383 1.17547
 C1169 C 0.81776 0.04541 1.17186
 N1170 N 0.80870 0.05192 1.15331
 C1171 C 0.79543 0.04745 1.11742
 N1172 N 0.78767 0.06781 1.11756
 C1173 C 0.77973 0.07780 1.09996
 C1174 C 0.77943 0.06729 1.08049
 C1175 C 0.78735 0.04628 1.07989
 C1176 C 0.79537 0.03632 1.09823
 H1177 H 0.82295 -0.00718 1.16047
 H1178 H 0.81984 0.05724 1.18381
 H1179 H 0.77420 0.09414 1.10114
 H1180 H 0.78734 0.03754 1.06524
 H1181 H 0.80584 0.00514 1.12850
 H1182 H 0.80182 0.02033 1.09705
 C1183 C 0.29637 0.55056 0.64070
 C1184 C 0.28745 0.55318 0.66122
 C1185 C 0.29816 0.54464 0.67884
 C1186 C 0.31774 0.53349 0.67612
 C1187 C 0.32595 0.53108 0.65528
 N1188 N 0.31521 0.53948 0.63841
 C1189 C 0.28603 0.55948 0.62142
 N1190 N 0.28996 0.54998 0.60244
 C1191 C 0.28182 0.55774 0.58386
 C1192 C 0.26911 0.57641 0.58360
 C1193 C 0.26490 0.58646 0.60304
 C1194 C 0.27325 0.57805 0.62192
 H1195 H 0.29098 0.54653 0.69454
 H1196 H 0.34112 0.52291 0.65235
 H1197 H 0.28532 0.54928 0.56937
 H1198 H 0.25568 0.60118 0.60363
 H1199 H 0.27222 0.56140 0.66368
 H1200 H 0.27030 0.58646 0.63656
 C1201 C 0.18655 0.53689 0.37296
 C1202 C 0.16867 0.52348 0.37442
 C1203 C 0.15926 0.51665 0.35587
 C1204 C 0.16753 0.52308 0.33583
 C1205 C 0.18577 0.53597 0.33503
 N1206 N 0.19450 0.54265 0.35333
 C1207 C 0.19586 0.54648 0.39197
 N1208 N 0.20693 0.56490 0.38933
 C1209 C 0.21475 0.57558 0.40597
 C1210 C 0.21143 0.56791 0.42693
 C1211 C 0.20076 0.54853 0.43002
 C1212 C 0.19302 0.53774 0.41262
 H1213 H 0.14529 0.50657 0.35719
 H1214 H 0.19254 0.54146 0.31992
 H1215 H 0.22338 0.59019 0.40281
 H1216 H 0.19787 0.54201 0.44590
 H1217 H 0.16137 0.51894 0.38958
 H1218 H 0.18487 0.52284 0.41547
 C1219 C 0.69883 0.04888 0.86513
 C1220 C 0.70876 0.04973 0.84488
 C1221 C 0.69765 0.04289 0.82725
 C1222 C 0.67649 0.03517 0.82953
 C1223 C 0.66764 0.03385 0.85042
 N1224 N 0.67882 0.04062 0.86725
 C1225 C 0.70908 0.05718 0.88426
 N1226 N 0.70217 0.05008 0.90384
 C1227 C 0.70962 0.05803 0.92219
 C1228 C 0.72455 0.07456 0.92147
 C1229 C 0.73210 0.08195 0.90148
 C1230 C 0.72445 0.07333 0.88288
 H1231 H 0.70549 0.04475 0.81183
 H1232 H 0.65206 0.02699 0.85368
 H1233 H 0.70324 0.05201 0.93728
 H1234 H 0.74372 0.09461 0.90024
 H1235 H 0.72488 0.05568 0.84251
 H1236 H 0.72997 0.07991 0.86772
 C1237 C 0.68542 0.96544 0.63374
 C1238 C 0.66545 0.97615 0.63367
 C1239 C 0.65708 0.98451 0.65252
 C1240 C 0.66852 0.98238 0.67152
 C1241 C 0.68856 0.97176 0.67082
 N1242 N 0.69628 0.96354 0.65229
 C1243 C 0.69427 0.95486 0.61460
 N1244 N 0.70734 0.93748 0.61727
 C1245 C 0.71525 0.92621 0.60058
 C1246 C 0.71009 0.93225 0.57964
 C1247 C 0.69724 0.95052 0.57644
 C1248 C 0.68929 0.96186 0.59386
 H1249 H 0.64132 0.99204 0.65232
 H1250 H 0.69808 0.96991 0.68497
 H1251 H 0.72548 0.91246 0.60371
 H1252 H 0.69292 0.95572 0.56053
 H1253 H 0.65594 0.97737 0.61947
 H1254 H 0.67940 0.97590 0.59103
 C1255 C 0.18847 0.45916 0.13751
 C1256 C 0.16865 0.47010 0.13663
 C1257 C 0.15925 0.47793 0.15526
 C1258 C 0.16946 0.47497 0.17485
 C1259 C 0.18930 0.46401 0.17503
 N1260 N 0.19810 0.45639 0.15666
 C1261 C 0.19855 0.44941 0.11844
 N1262 N 0.21192 0.43227 0.12113
 C1263 C 0.22102 0.42183 0.10443
 C1264 C 0.21678 0.42851 0.08344
 C1265 C 0.20356 0.44654 0.08029
 C1266 C 0.19446 0.45704 0.09770
 H1267 H 0.14366 0.48575 0.15438
 H1268 H 0.19784 0.46148 0.18971
 H1269 H 0.23148 0.40826 0.10758
 H1270 H 0.19985 0.45221 0.06437
 H1271 H 0.16004 0.47200 0.12192
 H1272 H 0.18442 0.47096 0.09483
 C1273 C -0.12524 0.31598 0.45077
 C1274 C -0.12307 0.33366 0.46379
 C1275 C -0.14143 0.34395 0.47185
 C1276 C -0.16198 0.33673 0.46703
 C1277 C -0.16347 0.31882 0.45424
 N1278 N -0.14535 0.30919 0.44638
 C1279 C -0.10643 0.30524 0.44061
 N1280 N -0.10937 0.29454 0.42234
 C1281 C -0.09294 0.28466 0.41172
 C1282 C -0.07190 0.28518 0.41940
 C1283 C -0.06852 0.29587 0.43839
 C1284 C -0.08570 0.30585 0.44906
 H1285 H -0.13956 0.35765 0.48175
 H1286 H -0.17900 0.31288 0.44994
 H1287 H -0.09631 0.27682 0.39703
 H1288 H -0.05266 0.29630 0.44514
 H1289 H -0.10747 0.33998 0.46723
 H1290 H -0.08271 0.31363 0.46386
 C1291 C 0.37992 0.80468 0.94614
 C1292 C 0.38151 0.82235 0.95928
 C1293 C 0.36284 0.83235 0.96696
 C1294 C 0.34253 0.82487 0.96165
 C1295 C 0.34161 0.80693 0.94883
 N1296 N 0.36004 0.79758 0.94132
 C1297 C 0.39915 0.79447 0.93618
 N1298 N 0.39686 0.78405 0.91763
 C1299 C 0.41381 0.77509 0.90695
 C1300 C 0.43472 0.77644 0.91481
 C1301 C 0.43738 0.78665 0.93420
 C1302 C 0.41969 0.79558 0.94496
 H1303 H 0.36427 0.84609 0.97691
 H1304 H 0.32628 0.80078 0.94418
 H1305 H 0.41097 0.76750 0.89201
 H1306 H 0.45313 0.78762 0.94111
 H1307 H 0.39690 0.82893 0.96306
 H1308 H 0.42218 0.80311 0.95999
 C1309 C 1.14044 0.81255 0.03538
 C1310 C 1.14065 0.83266 0.02520
 C1311 C 1.15994 0.84067 0.01692
 C1312 C 1.17910 0.82870 0.01850
 C1313 C 1.17816 0.80848 0.02844
 N1314 N 1.15914 0.80102 0.03646
 C1315 C 1.12047 0.80353 0.04495
 N1316 N 1.11897 0.78204 0.04768
 C1317 C 1.10133 0.77269 0.05675
 C1318 C 1.08379 0.78517 0.06390
 C1319 C 1.08508 0.80735 0.06133
 C1320 C 1.10331 0.81657 0.05196
 H1321 H 1.15988 0.85642 0.00959
 H1322 H 1.19248 0.79858 0.02975
 H1323 H 1.10101 0.75552 0.05831
 H1324 H 1.07224 0.81766 0.06713
 H1325 H 1.12612 0.84214 0.02341
 H1326 H 1.10408 0.83373 0.05087
 C1327 C 0.63764 0.32346 0.54317
 C1328 C 0.63768 0.34411 0.53418
 C1329 C 0.65686 0.35262 0.52619
 C1330 C 0.67607 0.34064 0.52687
 C1331 C 0.67532 0.31994 0.53574
 N1332 N 0.65640 0.31197 0.54348
 C1333 C 0.61773 0.31377 0.55215
 N1334 N 0.61633 0.29218 0.55345
 C1335 C 0.59867 0.28220 0.56174
 C1336 C 0.58098 0.29411 0.56946
 C1337 C 0.58216 0.31638 0.56840
 C1338 C 0.60044 0.32624 0.55985
 H1339 H 0.65666 0.36873 0.51970
 H1340 H 0.68969 0.31004 0.53634
 H1341 H 0.59844 0.26498 0.56215
 H1342 H 0.56919 0.32622 0.57470
 H1343 H 0.62310 0.35362 0.53302
 H1344 H 0.60111 0.34342 0.55988
 C1345 C 0.37186 0.19584 0.53739
 C1346 C 0.36224 0.20337 0.51853
 C1347 C 0.34384 0.19347 0.51130
 C1348 C 0.33511 0.17602 0.52263
 C1349 C 0.34514 0.16911 0.54139
 N1350 N 0.36293 0.17900 0.54811
 C1351 C 0.39152 0.20512 0.54619
 N1352 N 0.40141 0.19421 0.56227
 C1353 C 0.41900 0.20156 0.57199
 C1354 C 0.42774 0.22124 0.56577
 C1355 C 0.41811 0.23271 0.54899
 C1356 C 0.39997 0.22479 0.53921
 H1357 H 0.33675 0.19913 0.49660
 H1358 H 0.33879 0.15593 0.55082
 H1359 H 0.42610 0.19202 0.58464
 H1360 H 0.42420 0.24810 0.54389
 H1361 H 0.36886 0.21642 0.50916
 H1362 H 0.39255 0.23432 0.52680
 C1363 C 0.87309 0.68839 0.04066
 C1364 C 0.85900 0.69945 0.02694
 C1365 C 0.84006 0.68977 0.02078
 C1366 C 0.83501 0.66923 0.02836
 C1367 C 0.84965 0.65867 0.04177
 N1368 N 0.86790 0.66839 0.04754
 C1369 C 0.89288 0.69784 0.04898
 N1370 N 0.90209 0.68817 0.06618
 C1371 C 0.91986 0.69579 0.07539
 C1372 C 0.92956 0.71440 0.06736
 C1373 C 0.92074 0.72442 0.04928
 C1374 C 0.90244 0.71621 0.04003
 H1375 H 0.82909 0.69856 0.01058
 H1376 H 0.84664 0.64266 0.04767
 H1377 H 0.92638 0.68727 0.08901
 H1378 H 0.92771 0.73883 0.04257
 H1379 H 0.86208 0.71555 0.02143
 H1380 H 0.89607 0.72422 0.02608
 C1381 C 0.64092 0.67843 0.94117
 C1382 C 0.64578 0.65656 0.94076
 C1383 C 0.66344 0.64851 0.95174
 C1384 C 0.67626 0.66207 0.96338
 C1385 C 0.67077 0.68382 0.96359
 N1386 N 0.65343 0.69133 0.95272
 C1387 C 0.62242 0.68770 0.92954
 N1388 N 0.61290 0.70599 0.93652
 C1389 C 0.59581 0.71528 0.92658
 C1390 C 0.58746 0.70620 0.90833
 C1391 C 0.59717 0.68746 0.90080
 C1392 C 0.61462 0.67824 0.91125
 H1393 H 0.66716 0.63167 0.95095
 H1394 H 0.68006 0.69478 0.97258
 H1395 H 0.58899 0.72989 0.93273
 H1396 H 0.59119 0.67982 0.88688
 H1397 H 0.63596 0.64561 0.93233
 H1398 H 0.62206 0.66407 0.90476
 C1399 C 0.13701 0.18645 0.44339
 C1400 C 0.13813 0.16547 0.45144
 C1401 C 0.15693 0.15806 0.46093
 C1402 C 0.17468 0.17142 0.46241
 C1403 C 0.17285 0.19238 0.45438
 N1404 N 0.15426 0.19933 0.44531
 C1405 C 0.11750 0.19472 0.43281
 N1406 N 0.11175 0.21561 0.43469
 C1407 C 0.09398 0.22409 0.42526
 C1408 C 0.08108 0.21139 0.41277
 C1409 C 0.08685 0.18991 0.41047
 C1410 C 0.10496 0.18151 0.42048
 H1411 H 0.15771 0.14173 0.46678
 H1412 H 0.18613 0.20323 0.45543
 H1413 H 0.09015 0.24080 0.42719
 H1414 H 0.07728 0.17960 0.40098
 H1415 H 0.12459 0.15492 0.45060
 H1416 H 0.10931 0.16497 0.41822
 C1417 C 0.54628 0.12190 0.70736
 C1418 C 0.53901 0.10113 0.70432
 C1419 C 0.54929 0.08395 0.71446
 C1420 C 0.56659 0.08730 0.72792
 C1421 C 0.57248 0.10838 0.73154
 N1422 N 0.56249 0.12483 0.72119
 C1423 C 0.53776 0.14072 0.69539
 N1424 N 0.54306 0.16049 0.70181
 C1425 C 0.53730 0.17854 0.69090
 C1426 C 0.52578 0.17733 0.67202
 C1427 C 0.51986 0.15715 0.66525
 C1428 C 0.52583 0.13888 0.67677
 H1429 H 0.54417 0.06800 0.71111
 H1430 H 0.58534 0.11181 0.74222
 H1431 H 0.54237 0.19374 0.69663
 H1432 H 0.51073 0.15547 0.65092
 H1433 H 0.52579 0.09791 0.69405
 H1434 H 0.52163 0.12363 0.67059
 C1435 C 1.05361 0.62216 0.21204
 C1436 C 1.06838 0.62314 0.22863
 C1437 C 1.07673 0.60435 0.23759
 C1438 C 1.07054 0.58452 0.23015
 C1439 C 1.05519 0.58418 0.21413
 N1440 N 1.04743 0.60269 0.20551
 C1441 C 1.04555 0.64137 0.20030
 N1442 N 1.03441 0.63852 0.18217
 C1443 C 1.02745 0.65501 0.16965
 C1444 C 1.03182 0.67607 0.17495
 C1445 C 1.04281 0.67947 0.19382
 C1446 C 1.04958 0.66227 0.20656
 H1447 H 1.08833 0.60535 0.25013
 H1448 H 1.05007 0.56927 0.20778
 H1449 H 1.01858 0.65159 0.15553
 H1450 H 1.04665 0.69541 0.19852
 H1451 H 1.07412 0.63803 0.23439
 H1452 H 1.05798 0.66562 0.22093
 C1453 C 0.95343 0.88483 0.19659
 C1454 C 0.95885 0.90575 0.19049
 C1455 C 0.94826 0.92285 0.20019
 C1456 C 0.93230 0.91921 0.21594
 C1457 C 0.92785 0.89805 0.22199
 N1458 N 0.93819 0.88170 0.21216
 C1459 C 0.96250 0.86602 0.18565
 N1460 N 0.95074 0.84791 0.18587
 C1461 C 0.95741 0.83011 0.17566
 C1462 C 0.97710 0.82979 0.16434
 C1463 C 0.98979 0.84808 0.16432
 C1464 C 0.98256 0.86622 0.17491
 H1465 H 0.95198 0.93888 0.19478
 H1466 H 0.91598 0.89446 0.23433
 H1467 H 0.94732 0.81621 0.17641
 H1468 H 1.00509 0.84847 0.15577
 H1469 H 0.97042 0.90898 0.17777
 H1470 H 0.99264 0.88010 0.17475
 C1471 C 0.44500 0.38874 0.69773
 C1472 C 0.45511 0.39957 0.71401
 C1473 C 0.44471 0.41706 0.72325
 C1474 C 0.42428 0.42365 0.71640
 C1475 C 0.41490 0.41253 0.69996
 N1476 N 0.42537 0.39570 0.69114
 C1477 C 0.45495 0.37016 0.68713
 N1478 N 0.44844 0.36554 0.66724
 C1479 C 0.45593 0.34829 0.65663
 C1480 C 0.47071 0.33413 0.66616
 C1481 C 0.47780 0.33864 0.68663
 C1482 C 0.46998 0.35661 0.69716
 H1483 H 0.45250 0.42527 0.73588
 H1484 H 0.39936 0.41735 0.69393
 H1485 H 0.45031 0.34573 0.64073
 H1486 H 0.48893 0.32799 0.69474
 H1487 H 0.47094 0.39488 0.71936
 H1488 H 0.47515 0.35937 0.71318
 C1489 C 0.44573 0.61719 0.78090
 C1490 C 0.45593 0.60237 0.76746
 C1491 C 0.44506 0.58405 0.76200
 C1492 C 0.42411 0.58044 0.76988
 C1493 C 0.41430 0.59595 0.78270
 N1494 N 0.42519 0.61363 0.78781
 C1495 C 0.45665 0.63634 0.78832
 N1496 N 0.44437 0.65303 0.79522
 C1497 C 0.45301 0.67053 0.80382
 C1498 C 0.47531 0.67170 0.80643
 C1499 C 0.48833 0.65482 0.79917
 C1500 C 0.47911 0.63716 0.79009
 H1501 H 0.45318 0.57249 0.75201
 H1502 H 0.39799 0.59402 0.78872
 H1503 H 0.44237 0.68308 0.80942
 H1504 H 0.50562 0.65514 0.80084
 H1505 H 0.47205 0.60483 0.76118
 H1506 H 0.48945 0.62404 0.78537
 C1507 C -0.06374 0.10998 0.30071
 C1508 C -0.08493 0.10401 0.30579
 C1509 C -0.09287 0.08525 0.29786
 C1510 C -0.07989 0.07238 0.28473
 C1511 C -0.05905 0.07928 0.27936
 N1512 N -0.05157 0.09762 0.28744
 C1513 C -0.05434 0.12930 0.30959
 N1514 N -0.03817 0.13944 0.29868
 C1515 C -0.02876 0.15713 0.30614
 C1516 C -0.03537 0.16542 0.32583
 C1517 C -0.05189 0.15510 0.33735
 C1518 C -0.06134 0.13709 0.32937
 H1519 H -0.10928 0.08091 0.30185
 H1520 H -0.04854 0.06988 0.26921
 H1521 H -0.01589 0.16448 0.29688
 H1522 H -0.05761 0.16104 0.35253
 H1523 H -0.09543 0.11377 0.31559
 H1524 H -0.07367 0.12918 0.33887
 C1525 C 0.04984 0.38030 0.28211
 C1526 C 0.03725 0.39741 0.27431
 C1527 C 0.04701 0.41683 0.26919
 C1528 C 0.06916 0.41921 0.27200
 C1529 C 0.08122 0.40153 0.27915
 N1530 N 0.07141 0.38284 0.28395
 C1531 C 0.04055 0.35976 0.28926
 N1532 N 0.05359 0.34219 0.28963
 C1533 C 0.04718 0.32324 0.29821
 C1534 C 0.02668 0.32130 0.30781
 C1535 C 0.01269 0.33905 0.30702
 C1536 C 0.01952 0.35827 0.29774
 H1537 H 0.03722 0.43012 0.26362
 H1538 H 0.09842 0.40263 0.28111
 H1539 H 0.05836 0.30989 0.29802
 H1540 H -0.00314 0.33842 0.31452
 H1541 H 0.02012 0.39589 0.27222
 H1542 H 0.00885 0.37200 0.29831
 C1543 C 0.56498 0.88400 0.78603
 C1544 C 0.58706 0.88798 0.78744
 C1545 C 0.59473 0.90824 0.78260
 C1546 C 0.58054 0.92459 0.77625
 C1547 C 0.55863 0.91997 0.77471
 N1548 N 0.55143 0.90011 0.77985
 C1549 C 0.55612 0.86309 0.79253
 N1550 N 0.53624 0.86218 0.80198
 C1551 C 0.52800 0.84369 0.81007
 C1552 C 0.54017 0.82471 0.80919
 C1553 C 0.56025 0.82516 0.79857
 C1554 C 0.56824 0.84424 0.79021
 H1555 H 0.61177 0.91117 0.78387
 H1556 H 0.54720 0.93225 0.76999
 H1557 H 0.51241 0.84405 0.81807
 H1558 H 0.56992 0.81079 0.79700
 H1559 H 0.59826 0.87579 0.79288
 H1560 H 0.58383 0.84422 0.78221
 C1561 C 0.69889 0.55479 0.12028
 C1562 C 0.71546 0.54423 0.10915
 C1563 C 0.72488 0.55390 0.09111
 C1564 C 0.71805 0.57437 0.08379
 C1565 C 0.70106 0.58410 0.09563
 N1566 N 0.69215 0.57419 0.11300
 C1567 C 0.68794 0.54546 0.13937
 N1568 N 0.66802 0.55303 0.14486
 C1569 C 0.65689 0.54572 0.16228
 C1570 C 0.66587 0.52990 0.17561
 C1571 C 0.68649 0.52195 0.17041
 C1572 C 0.69758 0.52966 0.15234
 H1573 H 0.73817 0.54539 0.08374
 H1574 H 0.69380 0.59907 0.09076
 H1575 H 0.64119 0.55255 0.16589
 H1576 H 0.69398 0.50969 0.18024
 H1577 H 0.72106 0.52855 0.11408
 H1578 H 0.71360 0.52356 0.14894
 C1579 C 0.20936 1.05784 0.61279
 C1580 C 0.22584 1.04764 0.60101
 C1581 C 0.23456 1.05776 0.58283
 C1582 C 0.22693 1.07796 0.57634
 C1583 C 0.21038 1.08749 0.58847
 N1584 N 0.20214 1.07733 0.60602
 C1585 C 0.19894 1.04810 0.63199
 N1586 N 0.17969 1.05638 0.63874
 C1587 C 0.16894 1.04880 0.65626
 C1588 C 0.17758 1.03185 0.66838
 C1589 C 0.19752 1.02314 0.66192
 C1590 C 0.20826 1.03120 0.64377
 H1591 H 0.24733 1.04985 0.57394
 H1592 H 0.20368 1.10285 0.58384
 H1593 H 0.15383 1.05630 0.66087
 H1594 H 0.20474 1.01001 0.67080
 H1595 H 0.23177 1.03193 0.60540
 H1596 H 0.22376 1.02442 0.63939
 C1597 C 0.21704 0.95164 0.87850
 C1598 C 0.21478 0.96006 0.89889
 C1599 C 0.22389 0.94929 0.91625
 C1600 C 0.23520 0.92972 0.91373
 C1601 C 0.23767 0.92251 0.89259
 N1602 N 0.22857 0.93333 0.87607
 C1603 C 0.20605 0.96096 0.85968
 N1604 N 0.20362 0.94843 0.84253
 C1605 C 0.19277 0.95505 0.82502
 C1606 C 0.18332 0.97545 0.82406
 C1607 C 0.18618 0.98895 0.84124
 C1608 C 0.19756 0.98182 0.85903
 H1609 H 0.22042 0.95587 0.93169
 H1610 H 0.24722 0.90861 0.88871
 H1611 H 0.19141 0.94428 0.81194
 H1612 H 0.17915 1.00481 0.84118
 H1613 H 0.20526 0.97426 0.90182
 H1614 H 0.19952 0.99260 0.87198
 C1615 C 0.70891 0.46235 0.38636
 C1616 C 0.70250 0.46778 0.40715
 C1617 C 0.71260 0.45798 0.42450
 C1618 C 0.72905 0.44278 0.42125
 C1619 C 0.73552 0.43845 0.40023
 N1620 N 0.72528 0.44799 0.38362
 C1621 C 0.69713 0.47003 0.36739
 N1622 N 0.69811 0.45800 0.34964
 C1623 C 0.68672 0.46297 0.33199
 C1624 C 0.67314 0.48100 0.33151
 C1625 C 0.67244 0.49410 0.34931
 C1626 C 0.68440 0.48870 0.36727
 H1627 H 0.70683 0.46155 0.44041
 H1628 H 0.74837 0.42711 0.39697
 H1629 H 0.68811 0.45270 0.31842
 H1630 H 0.66219 0.50817 0.34958
 H1631 H 0.68916 0.47860 0.41014
 H1632 H 0.68355 0.49901 0.38081
 C1633 C 0.79194 0.45304 0.61654
 C1634 C 0.77194 0.44303 0.61540
 C1635 C 0.76589 0.43417 0.59627
 C1636 C 0.77970 0.43522 0.57833
 C1637 C 0.79915 0.44604 0.57994
 N1638 N 0.80470 0.45451 0.59871
 C1639 C 0.80007 0.46152 0.63657
 N1640 N 0.81545 0.47670 0.63537
 C1641 C 0.82513 0.48405 0.65287
 C1642 C 0.81984 0.47566 0.67319
 C1643 C 0.80372 0.46025 0.67486
 C1644 C 0.79380 0.45316 0.65665
 H1645 H 0.75074 0.42595 0.59567
 H1646 H 0.81007 0.44756 0.56636
 H1647 H 0.83716 0.49623 0.65082
 H1648 H 0.79938 0.45304 0.69013
 H1649 H 0.76109 0.44197 0.62906
 H1650 H 0.78213 0.44061 0.65830
 C1651 C 0.29149 -0.05708 0.10883
 C1652 C 0.27171 -0.06745 0.10742
 C1653 C 0.26634 -0.07687 0.08835
 C1654 C 0.28060 -0.07601 0.07075
 C1655 C 0.29983 -0.06488 0.07262
 N1656 N 0.30471 -0.05587 0.09131
 C1657 C 0.29887 -0.04787 0.12883
 N1658 N 0.31413 -0.03256 0.12761
 C1659 C 0.32308 -0.02447 0.14515
 C1660 C 0.31712 -0.03215 0.16557
 C1661 C 0.30112 -0.04767 0.16724
 C1662 C 0.29197 -0.05556 0.14897
 H1663 H 0.25133 -0.08532 0.08756
 H1664 H 0.31107 -0.06349 0.05929
 H1665 H 0.33506 -0.01224 0.14308
 H1666 H 0.29628 -0.05434 0.18261
 H1667 H 0.26050 -0.06834 0.12079
 H1668 H 0.28037 -0.06817 0.15068
 C1669 C 0.28733 0.05005 0.37997
 C1670 C 0.26658 0.05885 0.38285
 C1671 C 0.26142 0.06966 0.40149
 C1672 C 0.27677 0.07164 0.41736
 C1673 C 0.29703 0.06195 0.41419
 N1674 N 0.30172 0.05164 0.39587
 C1675 C 0.29450 0.03954 0.36010
 N1676 N 0.31280 0.02738 0.36047
 C1677 C 0.32149 0.01841 0.34275
 C1678 C 0.31190 0.02180 0.32291
 C1679 C 0.29284 0.03401 0.32214
 C1680 C 0.28410 0.04291 0.34063
 H1681 H 0.24560 0.07693 0.40323
 H1682 H 0.30920 0.06264 0.42620
 H1683 H 0.33636 0.00937 0.34407
 H1684 H 0.28485 0.03694 0.30720
 H1685 H 0.25438 0.05753 0.37097
 H1686 H 0.26986 0.05287 0.33934
 C1687 C 0.79330 0.54324 0.89147
 C1688 C 0.77225 0.55123 0.89447
 C1689 C 0.76640 0.56071 0.91365
 C1690 C 0.78129 0.56205 0.93004
 C1691 C 0.80186 0.55303 0.92674
 N1692 N 0.80726 0.54412 0.90782
 C1693 C 0.80118 0.53451 0.87094
 N1694 N 0.82000 0.52315 0.87062
 C1695 C 0.82917 0.51578 0.85234
 C1696 C 0.81952 0.52008 0.83268
 C1697 C 0.79996 0.53150 0.83261
 C1698 C 0.79078 0.53877 0.85161
 H1699 H 0.75039 0.56754 0.91535
 H1700 H 0.81372 0.55324 0.93907
 H1701 H 0.84440 0.50729 0.85315
 H1702 H 0.79187 0.53505 0.81783
 H1703 H 0.76033 0.55041 0.88227
 H1704 H 0.77613 0.54818 0.85083
 C1705 C 0.10482 0.70716 0.55379
 C1706 C 0.08359 0.70145 0.54941
 C1707 C 0.06649 0.71030 0.56110
 C1708 C 0.07035 0.72470 0.57726
 C1709 C 0.09171 0.73025 0.58093
 N1710 N 0.10811 0.72141 0.56936
 C1711 C 0.12390 0.69722 0.54315
 N1712 N 0.14357 0.69984 0.55181
 C1713 C 0.16174 0.69031 0.54398
 C1714 C 0.16072 0.67684 0.52656
 C1715 C 0.14080 0.67440 0.51692
 C1716 C 0.12243 0.68466 0.52499
 H1717 H 0.05028 0.70529 0.55799
 H1718 H 0.09540 0.74149 0.59308
 H1719 H 0.17679 0.69259 0.55191
 H1720 H 0.13944 0.66445 0.50318
 H1721 H 0.07998 0.68980 0.53769
 H1722 H 0.10743 0.68253 0.51703
 C1723 C 0.62174 0.20681 1.06061
 C1724 C 0.62320 0.21890 1.07907
 C1725 C 0.60446 0.22587 1.08952
 C1726 C 0.58419 0.22079 1.08181
 C1727 C 0.58340 0.20899 1.06316
 N1728 N 0.60188 0.20228 1.05331
 C1729 C 0.64092 0.19751 1.04959
 N1730 N 0.63792 0.18159 1.03567
 C1731 C 0.65454 0.17116 1.02590
 C1732 C 0.67589 0.17636 1.03017
 C1733 C 0.67939 0.19326 1.04385
 C1734 C 0.66203 0.20394 1.05345
 H1735 H 0.60586 0.23516 1.10371
 H1736 H 0.56814 0.20450 1.05675
 H1737 H 0.65102 0.15862 1.01504
 H1738 H 0.69555 0.19782 1.04769
 H1739 H 0.63846 0.22255 1.08591
 H1740 H 0.66537 0.21688 1.06386
 C1741 C 0.89640 0.19430 0.95983
 C1742 C 0.91664 0.18428 0.95937
 C1743 C 0.93412 0.19461 0.94972
 C1744 C 0.93175 0.21513 0.94014
 C1745 C 0.91114 0.22494 0.94231
 N1746 N 0.89443 0.21444 0.95180
 C1747 C 0.87693 0.18330 0.96797
 N1748 N 0.86008 0.19502 0.97584
 C1749 C 0.84114 0.18605 0.98216
 C1750 C 0.83817 0.16412 0.98011
 C1751 C 0.85535 0.15173 0.97218
 C1752 C 0.87474 0.16121 0.96617
 H1753 H 0.94893 0.18549 0.94870
 H1754 H 0.90808 0.24114 0.93702
 H1755 H 0.82818 0.19614 0.98806
 H1756 H 0.85368 0.13473 0.97042
 H1757 H 0.91898 0.16843 0.96609
 H1758 H 0.88749 0.15141 0.95943
 C1759 C 0.38460 0.69115 0.45364
 C1760 C 0.40238 0.67896 0.44659
 C1761 C 0.42043 0.68910 0.43795
 C1762 C 0.42113 0.71141 0.43658
 C1763 C 0.40346 0.72302 0.44479
 N1764 N 0.38588 0.71276 0.45286
 C1765 C 0.36425 0.68125 0.46123
 N1766 N 0.35009 0.69280 0.47332
 C1767 C 0.33067 0.68510 0.47997
 C1768 C 0.32436 0.66472 0.47412
 C1769 C 0.33876 0.65253 0.46178
 C1770 C 0.35858 0.66071 0.45524
 H1771 H 0.43354 0.67940 0.43174
 H1772 H 0.40346 0.74024 0.44455
 H1773 H 0.31998 0.69510 0.48934
 H1774 H 0.33469 0.63664 0.45710
 H1775 H 0.40245 0.66176 0.44752
 H1776 H 0.36890 0.65113 0.44511
 C1777 C 0.61290 0.79684 0.44487
 C1778 C 0.61402 0.78918 0.42410
 C1779 C 0.59565 0.78109 0.41510
 C1780 C 0.57602 0.78080 0.42661
 C1781 C 0.57579 0.78809 0.44762
 N1782 N 0.59398 0.79581 0.45610
 C1783 C 0.63167 0.80667 0.45446
 N1784 N 0.63539 0.80356 0.47561
 C1785 C 0.65213 0.81281 0.48532
 C1786 C 0.66581 0.82649 0.47368
 C1787 C 0.66218 0.83001 0.45196
 C1788 C 0.64525 0.82002 0.44225
 H1789 H 0.59689 0.77502 0.39914
 H1790 H 0.56109 0.78829 0.45712
 H1791 H 0.65443 0.80991 0.50216
 H1792 H 0.67245 0.84053 0.44254
 H1793 H 0.62897 0.78935 0.41494
 H1794 H 0.64245 0.82318 0.42553
 C1795 C 0.12267 0.30007 -0.05854
 C1796 C 0.11796 0.30439 -0.07998
 C1797 C 0.09952 0.29605 -0.08857
 C1798 C 0.08582 0.28318 -0.07602
 C1799 C 0.09164 0.27831 -0.05498
 N1800 N 0.10959 0.28689 -0.04682
 C1801 C 0.14112 0.31002 -0.04828
 N1802 N 0.15019 0.30028 -0.03099
 C1803 C 0.16680 0.30897 -0.02057
 C1804 C 0.17496 0.32879 -0.02726
 C1805 C 0.16578 0.33906 -0.04499
 C1806 C 0.14890 0.32983 -0.05544
 H1807 H 0.09596 0.29968 -0.10506
 H1808 H 0.08156 0.26831 -0.04482
 H1809 H 0.17332 0.30062 -0.00686
 H1810 H 0.17171 0.35427 -0.05084
 H1811 H 0.12834 0.31408 -0.09011
 H1812 H 0.14178 0.33848 -0.06866
 C1813 C 0.38965 0.29588 0.05823
 C1814 C 0.39055 0.27457 0.06542
 C1815 C 0.40906 0.26676 0.07530
 C1816 C 0.42671 0.28006 0.07802
 C1817 C 0.42532 0.30109 0.07006
 N1818 N 0.40705 0.30839 0.06075
 C1819 C 0.36983 0.30574 0.04957
 N1820 N 0.36676 0.32707 0.05166
 C1821 C 0.34868 0.33736 0.04500
 C1822 C 0.33226 0.32607 0.03552
 C1823 C 0.33530 0.30416 0.03258
 C1824 C 0.35403 0.29391 0.03962
 H1825 H 0.40922 0.25056 0.08153
 H1826 H 0.43863 0.31183 0.07145
 H1827 H 0.34716 0.35435 0.04715
 H1828 H 0.32301 0.29492 0.02526
 H1829 H 0.37687 0.26425 0.06432
 H1830 H 0.35608 0.27701 0.03720
 C1831 C 0.87540 0.79437 0.56789
 C1832 C 0.89075 0.78197 0.55682
 C1833 C 0.90953 0.77531 0.56700
 C1834 C 0.91308 0.78102 0.58809
 C1835 C 0.89712 0.79298 0.59870
 N1836 N 0.87898 0.79923 0.58850
 C1837 C 0.85550 0.80266 0.55798
 N1838 N 0.83857 0.80811 0.57091
 C1839 C 0.82029 0.81731 0.56337
 C1840 C 0.81838 0.82204 0.54154
 C1841 C 0.83548 0.81620 0.52781
 C1842 C 0.85404 0.80653 0.53594
 H1843 H 0.92146 0.76606 0.55827
 H1844 H 0.89902 0.79735 0.61511
 H1845 H 0.80738 0.82117 0.57451
 H1846 H 0.83489 0.81987 0.51092
 H1847 H 0.88831 0.77733 0.54059
 H1848 H 0.86733 0.80302 0.52514
   
