data_POSCAR
  _audit_creation_date              2014-09-24
  _audit_creation_method            'ToBaCCo'
  _symmetry_space_group_name_H-M    'P1'
  _symmetry_Int_Tables_number       1
  _symmetry_cell_setting            triclinic
  loop_
  _symmetry_equiv_pos_as_xyz
 x,y,z
_cell_length_a 31.0659
_cell_length_b 30.8302
_cell_length_c 35.7628
_cell_angle_alpha 90.028200
_cell_angle_beta 89.943400
_cell_angle_gamma 90.026300
loop_
  _atom_site_label
  _atom_site_type_symbol
  _atom_site_fract_x
  _atom_site_fract_y
  _atom_site_fract_z
Zr1 Zr 0.24881 0.24585 0.31160
 O2 O 0.27446 0.27510 0.36046
 O3 O 0.20452 0.20280 0.33679
 O4 O 0.20731 0.28805 0.34166
 O5 O 0.33706 0.17750 0.29880
 O6 O 0.17895 0.33061 0.29579
 O7 O 0.29341 0.20848 0.34265
 O8 O 0.16863 0.17176 0.28800
 O9 O 0.19513 0.24993 0.27629
 O10 O 0.25140 0.19066 0.27744
 O11 O 0.25593 0.30458 0.28223
 O12 O 0.30859 0.24788 0.28346
 Zr13 Zr 0.26315 0.25642 0.18110
 Zr14 Zr 0.20391 0.30693 0.24504
 Zr15 Zr 0.30879 0.19439 0.24704
 Zr16 Zr 0.19951 0.19609 0.24077
 O17 O 0.37671 0.19600 0.24222
 O18 O 0.13243 0.20762 0.23561
 O19 O 0.25660 0.19683 0.20987
 O20 O 0.20396 0.25288 0.20959
 O21 O 0.26172 0.31172 0.21508
 O22 O 0.31657 0.25148 0.21639
 C23 C 0.17609 0.17692 0.32284
 C24 C 0.32701 0.18660 0.33295
 C25 C 0.18334 0.31953 0.33036
 O26 O 0.13613 0.30299 0.24109
 O27 O 0.18232 0.33293 0.19364
 O28 O 0.22042 0.29581 0.14991
 C29 C 0.19081 0.32289 0.15939
 O30 O 0.33756 0.32354 0.30551
 Zr31 Zr 0.31337 0.30470 0.25233
 O32 O 0.30755 0.29997 0.15622
 O33 O 0.21146 0.37509 0.24679
 O34 O 0.30585 0.37296 0.25642
 O35 O 0.38050 0.29227 0.25454
 O36 O 0.34091 0.33280 0.20556
 C37 C 0.33483 0.32667 0.17073
 O38 O 0.23715 0.23085 0.13082
 O39 O 0.30258 0.12629 0.25247
 O40 O 0.30036 0.21078 0.15135
 O41 O 0.32542 0.16423 0.19578
 O42 O 0.20804 0.12782 0.24017
 O43 O 0.18008 0.17120 0.18795
 C44 C 0.31931 0.17560 0.16145
 H45 H 0.25072 0.16348 0.29214
 H46 H 0.17902 0.25276 0.19243
 H47 H 0.34384 0.25048 0.20216
 H48 H 0.25658 0.32980 0.29935
 H49 H 0.11737 0.17945 0.23832
 H50 H 0.12520 0.33318 0.24139
 H51 H 0.18215 0.38773 0.24586
 H52 H 0.33473 0.38635 0.25400
 H53 H 0.17932 0.11428 0.24333
 H54 H 0.33213 0.11426 0.25292
 H55 H 0.38677 0.16553 0.24282
 H56 H 0.39569 0.32036 0.25170
 H57 H 0.15615 0.15038 0.19149
 H58 H 0.25238 0.24456 0.10936
 H59 H 0.26114 0.26084 0.38256
 H60 H 0.35937 0.34666 0.30225
 Zr61 Zr 0.76140 0.75762 0.31520
 O62 O 0.74055 0.73499 0.36824
 O63 O 0.80329 0.80298 0.34143
 O64 O 0.79834 0.71225 0.34567
 O65 O 0.67218 0.82526 0.30023
 O66 O 0.83775 0.67548 0.30257
 O67 O 0.71036 0.78858 0.34409
 O68 O 0.83742 0.83782 0.29363
 O69 O 0.81726 0.75751 0.28226
 O70 O 0.75707 0.81273 0.28139
 O71 O 0.75949 0.69854 0.28533
 O72 O 0.70300 0.75149 0.28537
 Zr73 Zr 0.75454 0.74727 0.18482
 Zr74 Zr 0.81435 0.69981 0.25080
 Zr75 Zr 0.70127 0.80547 0.24940
 Zr76 Zr 0.81071 0.81086 0.24618
 O77 O 0.63374 0.79757 0.24562
 O78 O 0.87861 0.80392 0.24321
 O79 O 0.75508 0.80692 0.21380
 O80 O 0.81210 0.75387 0.21518
 O81 O 0.75832 0.69196 0.21861
 O82 O 0.69898 0.74826 0.21794
 C83 C 0.83022 0.83093 0.32815
 C84 C 0.67973 0.81435 0.33443
 C85 C 0.82628 0.68328 0.33669
 O86 O 0.88177 0.70880 0.25285
 O87 O 0.84098 0.67759 0.19928
 O88 O 0.79797 0.70764 0.15449
 C89 C 0.83064 0.68475 0.16476
 O90 O 0.67792 0.67476 0.30542
 Zr91 Zr 0.70392 0.69479 0.25318
 O92 O 0.71521 0.70141 0.15785
 O93 O 0.81127 0.63129 0.25023
 O94 O 0.71554 0.62714 0.25747
 O95 O 0.63596 0.70125 0.25184
 O96 O 0.68196 0.66469 0.20453
 C97 C 0.68923 0.67211 0.16987
 O98 O 0.78398 0.77709 0.13787
 O99 O 0.70348 0.87404 0.25226
 O100 O 0.71424 0.78952 0.15393
 O101 O 0.68286 0.83326 0.19778
 O102 O 0.79848 0.87857 0.24532
 O103 O 0.82993 0.83676 0.19365
 C104 C 0.69052 0.82198 0.16372
 H105 H 0.75533 0.83977 0.29622
 H106 H 0.83749 0.75573 0.19855
 H107 H 0.67236 0.74723 0.20278
 H108 H 0.75869 0.67265 0.30163
 H109 H 0.89160 0.83311 0.24596
 H110 H 0.89484 0.67950 0.25206
 H111 H 0.84139 0.62074 0.25007
 H112 H 0.68767 0.61201 0.25397
 H113 H 0.82641 0.89380 0.24810
 H114 H 0.67328 0.88437 0.25220
 H115 H 0.62127 0.82708 0.24404
 H116 H 0.62359 0.67184 0.24866
 H117 H 0.85323 0.85822 0.19746
 H118 H 0.77138 0.76403 0.11495
 H119 H 0.75501 0.75273 0.38782
 H120 H 0.65845 0.64974 0.30151
 Zr121 Zr 0.75423 0.23721 -0.31760
 O122 O 0.72995 0.26509 -0.36756
 O123 O 0.79730 0.19275 -0.34251
 O124 O 0.79528 0.27969 -0.34810
 O125 O 0.66367 0.17145 -0.30473
 O126 O 0.82832 0.32047 -0.30332
 O127 O 0.70856 0.20120 -0.34818
 O128 O 0.82708 0.15630 -0.29340
 O129 O 0.80846 0.23668 -0.28285
 O130 O 0.74737 0.18264 -0.28314
 O131 O 0.75185 0.29628 -0.28830
 O132 O 0.69463 0.24402 -0.28958
 Zr133 Zr 0.74237 0.25037 -0.18727
 Zr134 Zr 0.80513 0.29461 -0.25220
 Zr135 Zr 0.69053 0.19109 -0.25269
 Zr136 Zr 0.79947 0.18390 -0.24659
 O137 O 0.62299 0.19988 -0.25134
 O138 O 0.86742 0.18915 -0.24210
 O139 O 0.74317 0.19016 -0.21573
 O140 O 0.80096 0.24103 -0.21595
 O141 O 0.74788 0.30489 -0.22170
 O142 O 0.68792 0.24887 -0.22194
 C143 C 0.82296 0.16451 -0.32809
 C144 C 0.67554 0.17838 -0.33891
 C145 C 0.81935 0.31167 -0.33776
 O146 O 0.87236 0.28438 -0.25543
 O147 O 0.83376 0.31485 -0.20174
 O148 O 0.79181 0.28413 -0.15706
 C149 C 0.82510 0.30645 -0.16725
 O150 O 0.67206 0.32040 -0.31187
 Zr151 Zr 0.69499 0.30125 -0.25835
 O152 O 0.69814 0.29531 -0.16379
 O153 O 0.80333 0.36294 -0.24743
 O154 O 0.70814 0.36863 -0.26306
 O155 O 0.62698 0.29483 -0.25974
 O156 O 0.66954 0.33287 -0.21251
 C157 C 0.67324 0.32446 -0.17787
 O158 O 0.75440 0.23355 -0.13088
 O159 O 0.69174 0.12248 -0.25414
 O160 O 0.71194 0.19920 -0.15833
 O161 O 0.66917 0.16516 -0.20082
 O162 O 0.78585 0.11648 -0.24543
 O163 O 0.81561 0.15768 -0.19343
 C164 C 0.68285 0.17129 -0.16710
 H165 H 0.74615 0.15529 -0.29764
 H166 H 0.82620 0.23754 -0.19943
 H167 H 0.66059 0.24962 -0.20775
 H168 H 0.75163 0.32165 -0.30512
 H169 H 0.87970 0.15960 -0.24439
 H170 H 0.88610 0.31340 -0.25491
 H171 H 0.83334 0.37335 -0.25033
 H172 H 0.68040 0.38442 -0.26172
 H173 H 0.81356 0.10075 -0.24764
 H174 H 0.66139 0.11271 -0.25539
 H175 H 0.61010 0.17053 -0.24997
 H176 H 0.61433 0.32432 -0.25872
 H177 H 0.83933 0.13651 -0.19631
 H178 H 0.73954 0.25510 -0.11472
 H179 H 0.74345 0.24994 -0.38917
 H180 H 0.65306 0.34598 -0.30917
 Zr181 Zr 0.24407 0.75424 -0.31558
 O182 O 0.25327 0.74436 -0.37356
 O183 O 0.20046 0.80138 -0.33661
 O184 O 0.21064 0.70496 -0.34614
 O185 O 0.33229 0.82243 -0.30112
 O186 O 0.17769 0.66394 -0.30173
 O187 O 0.29771 0.78202 -0.34450
 O188 O 0.15444 0.81174 -0.28927
 O189 O 0.18994 0.74836 -0.28079
 O190 O 0.24623 0.80887 -0.28062
 O191 O 0.25189 0.69448 -0.28724
 O192 O 0.30374 0.75087 -0.28739
 Zr193 Zr 0.25763 0.73957 -0.18533
 Zr194 Zr 0.19883 0.69062 -0.25064
 Zr195 Zr 0.30362 0.80349 -0.25004
 Zr196 Zr 0.19425 0.80112 -0.24383
 O197 O 0.37158 0.80189 -0.24581
 O198 O 0.12851 0.79507 -0.22847
 O199 O 0.25134 0.79955 -0.21315
 O200 O 0.19865 0.74361 -0.21379
 O201 O 0.25640 0.68545 -0.22061
 O202 O 0.31158 0.74578 -0.22002
 C203 C 0.16501 0.81672 -0.32332
 C204 C 0.32810 0.80860 -0.33508
 C205 C 0.18723 0.67223 -0.33611
 O206 O 0.13098 0.69566 -0.25227
 O207 O 0.17355 0.66705 -0.19939
 O208 O 0.21728 0.69623 -0.15536
 C209 C 0.18472 0.67268 -0.16484
 O210 O 0.33496 0.67841 -0.31033
 Zr211 Zr 0.30875 0.69359 -0.25694
 O212 O 0.30139 0.69573 -0.16070
 O213 O 0.20612 0.62243 -0.24941
 O214 O 0.30280 0.62554 -0.26466
 O215 O 0.37595 0.70576 -0.25586
 O216 O 0.33234 0.66140 -0.21043
 C217 C 0.32622 0.66699 -0.17549
 O218 O 0.22874 0.76504 -0.13623
 O219 O 0.29710 0.87175 -0.25329
 O220 O 0.29482 0.78437 -0.15435
 O221 O 0.31954 0.83228 -0.19807
 O222 O 0.19835 0.86917 -0.25146
 O223 O 0.17733 0.83133 -0.19250
 C224 C 0.31360 0.81997 -0.16393
 H225 H 0.24611 0.83631 -0.29501
 H226 H 0.17405 0.74367 -0.19624
 H227 H 0.33865 0.74620 -0.20543
 H228 H 0.25486 0.66910 -0.30392
 H229 H 0.11468 0.82382 -0.23186
 H230 H 0.11964 0.66561 -0.25235
 H231 H 0.17673 0.60990 -0.24929
 H232 H 0.33192 0.61262 -0.26265
 H233 H 0.16836 0.88007 -0.25143
 H234 H 0.32660 0.88392 -0.25404
 H235 H 0.38143 0.83240 -0.24427
 H236 H 0.39065 0.67742 -0.25312
 H237 H 0.20181 0.84974 -0.18452
 H238 H 0.24291 0.75137 -0.11429
 H239 H 0.23623 0.76634 -0.38739
 H240 H 0.35794 0.65642 -0.30752
 Zr241 Zr 1.25898 1.25482 0.81183
 O242 O 1.23294 1.22534 0.86046
 O243 O 1.30263 1.29737 0.83789
 O244 O 1.30043 1.21326 0.84193
 O245 O 1.16756 1.31848 0.79872
 O246 O 1.33419 1.17264 0.79741
 O247 O 1.21372 1.29177 0.84266
 O248 O 1.33791 1.32909 0.78909
 O249 O 1.31330 1.25347 0.77701
 O250 O 1.25420 1.30990 0.77790
 O251 O 1.25563 1.19566 0.78269
 O252 O 1.19960 1.24989 0.78368
 Zr253 Zr 1.24656 1.24358 0.68183
 Zr254 Zr 1.30857 1.19582 0.74610
 Zr255 Zr 1.19720 1.30323 0.74721
 Zr256 Zr 1.30649 1.30695 0.74142
 O257 O 1.12949 1.29820 0.74196
 O258 O 1.37385 1.30078 0.73314
 O259 O 1.24976 1.30346 0.71041
 O260 O 1.30550 1.24976 0.71043
 O261 O 1.25102 1.18864 0.71608
 O262 O 1.19249 1.24561 0.71662
 C263 C 1.33209 1.32188 0.82395
 C264 C 1.17871 1.31116 0.83286
 C265 C 1.32644 1.18289 0.83184
 O266 O 1.37614 1.20389 0.74441
 O267 O 1.33190 1.17180 0.69413
 O268 O 1.28940 1.20467 0.65072
 C269 C 1.32072 1.17962 0.65995
 O270 O 1.17448 1.17491 0.80628
 Zr271 Zr 1.19850 1.19280 0.75277
 O272 O 1.20514 1.19743 0.65679
 O273 O 1.30425 1.12737 0.74693
 O274 O 1.20842 1.12502 0.75866
 O275 O 1.13066 1.20068 0.75279
 O276 O 1.17538 1.16124 0.70614
 C277 C 1.18103 1.16786 0.67137
 O278 O 1.27326 1.27111 0.63259
 O279 O 1.19999 1.37151 0.75307
 O280 O 1.20726 1.28724 0.65151
 O281 O 1.18000 1.33278 0.69585
 O282 O 1.29573 1.37485 0.74378
 O283 O 1.32217 1.33393 0.68842
 C284 C 1.18689 1.32178 0.66150
 H285 H 1.25401 1.33684 0.79299
 H286 H 1.33024 1.25109 0.69303
 H287 H 1.16540 1.24481 0.70208
 H288 H 1.25575 1.17038 0.79971
 H289 H 1.38683 1.32990 0.73652
 H290 H 1.38875 1.17438 0.74475
 H291 H 1.33417 1.11627 0.74610
 H292 H 1.18000 1.11054 0.75690
 H293 H 1.32413 1.38902 0.74700
 H294 H 1.16990 1.38209 0.75301
 H295 H 1.11797 1.32815 0.74231
 H296 H 1.11760 1.17146 0.75044
 H297 H 1.34362 1.35740 0.69162
 H298 H 1.25924 1.25733 0.61058
 H299 H 1.24600 1.23957 0.88269
 H300 H 1.15307 1.15135 0.80348
 Zr301 Zr 0.74289 0.73697 0.81232
 O302 O 0.75478 0.75088 0.86938
 O303 O 0.69769 0.69133 0.83320
 O304 O 0.70634 0.78224 0.84377
 O305 O 0.83720 0.67734 0.79650
 O306 O 0.66679 0.81890 0.80074
 O307 O 0.79438 0.70640 0.84148
 O308 O 0.66814 0.65735 0.78291
 O309 O 0.68917 0.73786 0.77713
 O310 O 0.75027 0.68390 0.77632
 O311 O 0.74557 0.79795 0.78544
 O312 O 0.80235 0.74636 0.78471
 Zr313 Zr 0.75595 0.75696 0.68246
 Zr314 Zr 0.69257 0.79751 0.74899
 Zr315 Zr 0.80705 0.69504 0.74605
 Zr316 Zr 0.69881 0.68696 0.73882
 O317 O 0.87469 0.70307 0.74281
 O318 O 0.63096 0.69100 0.73236
 O319 O 0.75513 0.69530 0.70846
 O320 O 0.69738 0.74578 0.71076
 O321 O 0.74975 0.80991 0.71877
 O322 O 0.80962 0.75409 0.71755
 C323 C 0.67131 0.66452 0.81774
 C324 C 0.82831 0.68551 0.83100
 C325 C 0.67779 0.81069 0.83481
 O326 O 0.62530 0.78675 0.74972
 O327 O 0.66490 0.82062 0.69910
 O328 O 0.70643 0.79107 0.65341
 C329 C 0.67325 0.81284 0.66446
 O330 O 0.82421 0.82380 0.80949
 Zr331 Zr 0.80242 0.80491 0.75551
 O332 O 0.79972 0.80355 0.66073
 O333 O 0.69419 0.86608 0.75026
 O334 O 0.78871 0.87213 0.76042
 O335 O 0.87017 0.79704 0.75900
 O336 O 0.83071 0.83668 0.71077
 C337 C 0.82606 0.83067 0.67580
 O338 O 0.74368 0.74288 0.62548
 O339 O 0.80601 0.62641 0.74760
 O340 O 0.78910 0.70907 0.65154
 O341 O 0.82772 0.66992 0.69391
 O342 O 0.71417 0.61997 0.73631
 O343 O 0.68466 0.66385 0.68414
 C344 C 0.81620 0.67919 0.66021
 H345 H 0.75167 0.65622 0.79032
 H346 H 0.67216 0.74298 0.69412
 H347 H 0.83684 0.75515 0.70346
 H348 H 0.74543 0.82328 0.80238
 H349 H 0.61927 0.66109 0.73140
 H350 H 0.61133 0.81564 0.75065
 H351 H 0.66386 0.87604 0.75061
 H352 H 0.81636 0.88814 0.75942
 H353 H 0.68679 0.60346 0.73704
 H354 H 0.83640 0.61674 0.74857
 H355 H 0.88739 0.67368 0.74089
 H356 H 0.88359 0.82621 0.75841
 H357 H 0.66349 0.63992 0.68573
 H358 H 0.76021 0.76393 0.61005
 H359 H 0.73949 0.72871 0.88464
 H360 H 0.84299 0.84961 0.80718
 Zr361 Zr 1.25652 0.74185 0.18118
 O362 O 1.24650 0.75247 0.12337
 O363 O 1.30211 0.69641 0.16009
 O364 O 1.29131 0.79089 0.15205
 O365 O 1.16652 0.67632 0.19294
 O366 O 1.32314 0.83128 0.19743
 O367 O 1.20571 0.71298 0.14988
 O368 O 1.33199 0.66263 0.21013
 O369 O 1.30920 0.74503 0.21763
 O370 O 1.25092 0.68749 0.21588
 O371 O 1.24874 0.80144 0.20993
 O372 O 1.19582 0.74692 0.20766
 Zr373 Zr 1.23748 0.75528 0.31172
 Zr374 Zr 1.30053 0.80323 0.24787
 Zr375 Zr 1.19273 0.69434 0.24468
 Zr376 Zr 1.30122 0.69228 0.25440
 O377 O 1.12491 0.70154 0.24761
 O378 O 1.36853 0.70275 0.25961
 O379 O 1.24320 0.69539 0.28348
 O380 O 1.29716 0.74967 0.28413
 O381 O 1.24196 0.80983 0.27684
 O382 O 1.18503 0.75152 0.27522
 C383 C 1.32764 0.66850 0.17514
 C384 C 1.17397 0.68823 0.15912
 C385 C 1.31431 0.82346 0.16276
 O386 O 1.36831 0.79767 0.24574
 O387 O 1.32589 0.82429 0.30006
 O388 O 1.28104 0.79392 0.34345
 C389 C 1.31485 0.81595 0.33421
 O390 O 1.16785 0.82201 0.18501
 Zr391 Zr 1.19089 0.80380 0.23876
 O392 O 1.19511 0.80191 0.33454
 O393 O 1.29434 0.87143 0.25127
 O394 O 1.20088 0.87179 0.23475
 O395 O 1.12352 0.79335 0.23498
 O396 O 1.16233 0.83346 0.28438
 C397 C 1.16898 0.82918 0.31931
 O398 O 1.26078 0.72880 0.36253
 O399 O 1.19298 0.62587 0.23960
 O400 O 1.19555 0.71176 0.34060
 O401 O 1.17691 0.66372 0.29530
 O402 O 1.28881 0.62488 0.25904
 O403 O 1.31910 0.66941 0.30835
 C404 C 1.17707 0.67636 0.32958
 H405 H 1.25076 0.65989 0.20172
 H406 H 1.32153 0.74787 0.30169
 H407 H 1.15737 0.75182 0.28899
 H408 H 1.24671 0.82722 0.19364
 H409 H 1.38317 0.67421 0.25870
 H410 H 1.38002 0.82748 0.24775
 H411 H 1.32394 0.88344 0.25154
 H412 H 1.17239 0.88619 0.23598
 H413 H 1.31689 0.60963 0.25878
 H414 H 1.16254 0.61623 0.23961
 H415 H 1.11166 0.67418 0.23881
 H416 H 1.10908 0.82194 0.23683
 H417 H 1.34379 0.64929 0.30610
 H418 H 1.24541 0.74341 0.38343
 H419 H 1.26646 0.73344 0.10915
 H420 H 1.14841 0.84728 0.18747
 Zr421 Zr 0.74724 1.25674 0.18297
 O422 O 0.76394 1.24311 0.12676
 O423 O 0.70499 1.30358 0.15912
 O424 O 0.71180 1.20864 0.15246
 O425 O 0.83916 1.32114 0.19789
 O426 O 0.67601 1.17052 0.19701
 O427 O 0.79895 1.28620 0.15395
 O428 O 0.67182 1.33749 0.20768
 O429 O 0.69223 1.25569 0.21682
 O430 O 0.75230 1.31144 0.21748
 O431 O 0.75164 1.19748 0.21244
 O432 O 0.80624 1.25075 0.21233
 Zr433 Zr 0.75719 1.24462 0.31372
 Zr434 Zr 0.69750 1.19777 0.24781
 Zr435 Zr 0.80868 1.30426 0.24887
 Zr436 Zr 0.69940 1.30861 0.25355
 O437 O 0.87620 1.29789 0.25461
 O438 O 0.63158 1.30083 0.25674
 O439 O 0.75544 1.30445 0.28508
 O440 O 0.69926 1.25144 0.28396
 O441 O 0.75384 1.18965 0.27952
 O442 O 0.81229 1.24690 0.28001
 C443 C 0.67900 1.33199 0.17304
 C444 C 0.83111 1.30992 0.16384
 C445 C 0.68668 1.17730 0.16265
 O446 O 0.62997 1.20564 0.24470
 O447 O 0.66989 1.17636 0.29858
 O448 O 0.71114 1.20702 0.34405
 C449 C 0.67853 1.18410 0.33326
 O450 O 0.83349 1.17380 0.19187
 Zr451 Zr 0.80754 1.19395 0.24413
 O452 O 0.79773 1.19861 0.33925
 O453 O 0.70136 1.12932 0.25027
 O454 O 0.79646 1.12616 0.23983
 O455 O 0.87523 1.20314 0.24384
 O456 O 0.83163 1.16387 0.29190
 C457 C 0.82464 1.17049 0.32671
 O458 O 0.73475 1.27387 0.36362
 O459 O 0.80675 1.37269 0.24404
 O460 O 0.79691 1.28773 0.34394
 O461 O 0.82473 1.33413 0.30046
 O462 O 0.71198 1.37622 0.25590
 O463 O 0.68077 1.33317 0.30674
 C464 C 0.81815 1.32189 0.33448
 H465 H 0.75385 1.33874 0.20298
 H466 H 0.67378 1.25347 0.30045
 H467 H 0.83906 1.24623 0.29499
 H468 H 0.75343 1.17158 0.19625
 H469 H 0.61821 1.32996 0.25528
 H470 H 0.61727 1.17615 0.24522
 H471 H 0.67142 1.11819 0.25010
 H472 H 0.82446 1.11120 0.24293
 H473 H 0.68407 1.39170 0.25442
 H474 H 0.83698 1.38294 0.24404
 H475 H 0.88813 1.32766 0.25553
 H476 H 0.88889 1.17441 0.24751
 H477 H 0.65696 1.35418 0.30359
 H478 H 0.74617 1.25686 0.38507
 H479 H 0.74487 1.26070 0.11038
 H480 H 0.85359 1.14933 0.19588
 O481 O 0.55936 1.07383 0.06519
 O482 O 0.60943 1.03259 0.03401
 C483 C 0.59850 1.06184 0.05901
 O484 O 0.44040 0.91901 0.06198
 O485 O 0.39154 0.96152 0.03073
 C486 C 0.40169 0.93171 0.05531
 O487 O 0.55586 0.91905 0.06681
 O488 O 0.60790 0.95468 0.03306
 C489 C 0.59555 0.92594 0.05786
 O490 O 0.44337 1.07912 0.06100
 O491 O 0.39308 1.03947 0.02846
 C492 C 0.40411 1.06932 0.05258
 Zr493 Zr 0.50162 1.05216 0.04280
 O494 O 0.49669 1.05356 0.10187
 O495 O 0.50699 1.12062 0.04003
 Zr496 Zr 0.49895 0.94457 0.04504
 O497 O 0.49749 0.95444 0.10353
 O498 O 0.49630 0.87670 0.05238
 O499 O 0.53942 0.99732 0.05209
 O500 O 0.46197 0.99945 0.05051
 O501 O 0.44733 1.07954 -0.06804
 O502 O 0.39522 1.03969 -0.03775
 C503 C 0.40770 1.07018 -0.06088
 O504 O 0.55838 0.91726 -0.06917
 O505 O 0.60890 0.95438 -0.03454
 C506 C 0.59764 0.92618 -0.06009
 O507 O 0.44098 0.91729 -0.06707
 O508 O 0.39193 0.95956 -0.03563
 C509 C 0.40197 0.92848 -0.05892
 O510 O 0.56353 1.07054 -0.07027
 O511 O 0.61163 1.03098 -0.03522
 C512 C 0.60211 1.05939 -0.06102
 Zr513 Zr 0.50375 1.04924 -0.05045
 O514 O 0.49971 1.04119 -0.10926
 O515 O 0.50793 1.11721 -0.05766
 Zr516 Zr 0.50019 0.94173 -0.04844
 O517 O 0.49631 0.94236 -0.10760
 O518 O 0.50285 0.87303 -0.04758
 Zr519 Zr 0.56744 0.99476 -0.00158
 Zr520 Zr 0.43501 0.99877 -0.00343
 O521 O 0.46358 0.99660 -0.05679
 O522 O 0.54149 0.99413 -0.05625
 O523 O 0.46410 1.06065 -0.00449
 O524 O 0.53707 0.93367 -0.00110
 O525 O 0.54101 1.05760 -0.00326
 O526 O 0.46052 0.93536 -0.00195
 H527 H 0.44282 1.00040 0.07267
 H528 H 0.55458 0.90691 -0.00074
 H529 H 0.44441 0.99683 -0.07893
 H530 H 0.56060 1.08288 -0.00303
 H531 H 0.49391 0.86386 0.02720
 H532 H 0.47775 0.86229 -0.03326
 H533 H 0.52215 0.95735 -0.11735
 H534 H 0.52828 1.03204 -0.11865
 H535 H 0.51448 1.12997 -0.03299
 H536 H 0.48281 1.13166 0.02472
 H537 H 0.51785 1.03267 0.11199
 H538 H 0.49541 0.92528 0.11503
 O539 O 1.05918 0.57153 0.56751
 O540 O 1.10846 0.53417 0.53199
 C541 C 1.09816 0.56126 0.55883
 O542 O 0.94309 0.41483 0.56418
 O543 O 0.89199 0.45635 0.53437
 C544 C 0.90370 0.42523 0.55720
 O545 O 1.05981 0.41796 0.56350
 O546 O 1.10859 0.45740 0.52897
 C547 C 1.09869 0.42841 0.55433
 O548 O 0.94328 0.57791 0.56483
 O549 O 0.89167 0.53837 0.53374
 C550 C 0.90373 0.56945 0.55639
 Zr551 Zr 1.00059 0.54907 0.54731
 O552 O 0.99660 0.54187 0.60616
 O553 O 1.00492 0.61708 0.55370
 Zr554 Zr 1.00061 0.44164 0.54438
 O555 O 0.99781 0.44267 0.60360
 O556 O 1.00540 0.37303 0.54323
 O557 O 1.04026 0.49511 0.55210
 O558 O 0.96218 0.49533 0.55373
 O559 O 0.93860 0.57923 0.43691
 O560 O 0.88944 0.53743 0.46896
 C561 C 0.89969 0.56798 0.44505
 O562 O 1.05283 0.42412 0.42639
 O563 O 1.10543 0.46047 0.45863
 C564 C 1.09247 0.43422 0.43187
 O565 O 0.93868 0.41917 0.43479
 O566 O 0.88905 0.45715 0.46930
 C567 C 0.89974 0.42725 0.44498
 O568 O 1.05580 0.57603 0.43212
 O569 O 1.10716 0.53652 0.46343
 C570 C 1.09528 0.56511 0.43852
 Zr571 Zr 0.99746 0.55356 0.45434
 O572 O 0.99487 0.55517 0.39526
 O573 O 0.99385 0.62216 0.45832
 Zr574 Zr 0.99687 0.44573 0.45122
 O575 O 0.98797 0.44859 0.39269
 O576 O 1.00125 0.37762 0.44568
 Zr577 Zr 1.06538 0.49728 0.49715
 Zr578 Zr 0.93265 0.49730 0.50083
 O579 O 0.95872 0.49978 0.44665
 O580 O 1.03585 0.49980 0.44391
 O581 O 0.96031 0.55988 0.50201
 O582 O 1.03690 0.43533 0.49626
 O583 O 1.03738 0.55939 0.50001
 O584 O 0.95999 0.43457 0.49862
 H585 H 0.94327 0.49527 0.57604
 H586 H 1.05589 0.40959 0.49461
 H587 H 0.93876 0.49999 0.42505
 H588 H 1.05661 0.58500 0.50044
 H589 H 0.97986 0.36128 0.53014
 H590 H 0.99853 0.36515 0.47092
 H591 H 0.99567 0.47814 0.38455
 H592 H 0.99517 0.58615 0.38781
 H593 H 1.02253 0.63392 0.46476
 H594 H 0.99957 0.62981 0.52881
 H595 H 1.02408 0.52943 0.61504
 H596 H 1.02484 0.45559 0.61307
 O597 O 1.08142 0.55640 0.05919
 O598 O 1.03948 0.60620 0.02846
 C599 C 1.06929 0.59573 0.05249
 O600 O 1.07768 0.43677 -0.07223
 O601 O 1.04111 0.38648 -0.03683
 C602 C 1.06874 0.39735 -0.06275
 O603 O 1.08043 0.55378 -0.07074
 O604 O 1.04137 0.60437 -0.03768
 C605 C 1.07096 0.59319 -0.06206
 O606 O 1.08015 0.43914 0.06433
 O607 O 1.04282 0.38774 0.03072
 C608 C 1.07123 0.39952 0.05585
 Zr609 Zr 1.05601 0.49676 0.04248
 O610 O 1.12405 0.49352 0.04471
 O611 O 1.05051 0.49885 0.10139
 Zr612 Zr 1.05509 0.49567 -0.05085
 O613 O 1.12320 0.49166 -0.05161
 O614 O 1.05192 0.49881 -0.10997
 O615 O 1.06402 0.53557 -0.00449
 O616 O 1.06413 0.45817 -0.00399
 O617 O 0.92831 0.43584 0.06596
 O618 O 0.96602 0.38592 0.03104
 C619 C 0.93835 0.39641 0.05707
 O620 O 0.92158 0.55326 -0.06807
 O621 O 0.96242 0.60437 -0.03754
 C622 C 0.93282 0.59290 -0.06161
 O623 O 0.92593 0.43633 -0.07104
 O624 O 0.96494 0.38625 -0.03762
 C625 C 0.93680 0.39697 -0.06334
 O626 O 0.92301 0.55405 0.06287
 O627 O 0.96225 0.60451 0.02980
 C628 C 0.93305 0.59362 0.05461
 Zr629 Zr 0.94878 0.49537 0.04346
 O630 O 0.88090 0.49294 0.03956
 O631 O 0.94834 0.49892 0.10258
 Zr632 Zr 0.94802 0.49489 -0.04950
 O633 O 0.87997 0.49097 -0.04974
 O634 O 0.95255 0.49605 -0.10852
 Zr635 Zr 1.00154 0.56241 -0.00399
 Zr636 Zr 1.00290 0.42900 -0.00323
 O637 O 0.94088 0.45641 -0.00278
 O638 O 0.93952 0.53462 -0.00313
 O639 O 1.00305 0.45669 0.05067
 O640 O 1.00116 0.53377 -0.05739
 O641 O 1.00215 0.53454 0.04975
 O642 O 1.00178 0.45577 -0.05740
 H643 H 1.09035 0.43990 -0.00411
 H644 H 1.00096 0.55262 -0.07982
 H645 H 0.91542 0.43703 -0.00259
 H646 H 1.00218 0.55359 0.07208
 H647 H 1.03259 0.47531 -0.11858
 H648 H 0.92265 0.49637 -0.11818
 H649 H 0.86929 0.50999 -0.02947
 H650 H 0.86981 0.49215 0.06556
 H651 H 0.97137 0.47952 0.11179
 H652 H 1.08026 0.50049 0.11129
 H653 H 1.13549 0.51395 0.02587
 H654 H 1.13471 0.51577 -0.03635
 O655 O 0.41818 0.93653 0.43130
 O656 O 0.45648 0.88632 0.46535
 C657 C 0.42744 0.89707 0.44043
 O658 O 0.57734 1.05069 0.43013
 O659 O 0.53834 1.10284 0.46112
 C660 C 0.56761 1.09061 0.43686
 O661 O 0.57227 0.93439 0.42855
 O662 O 0.53454 0.88529 0.46431
 C663 C 0.56261 0.89533 0.43824
 O664 O 0.41803 1.05501 0.43225
 O665 O 0.46049 1.10489 0.46280
 C666 C 0.43001 1.09439 0.43939
 Zr667 Zr 0.44321 0.99542 0.45078
 O668 O 0.44957 0.99454 0.39193
 O669 O 0.37516 0.99812 0.44749
 Zr670 Zr 0.55041 0.99333 0.44983
 O671 O 0.54751 0.99593 0.39067
 O672 O 0.61841 0.98799 0.44950
 O673 O 0.49596 0.95461 0.44353
 O674 O 0.49738 1.03275 0.44268
 O675 O 0.41985 1.05669 0.56227
 O676 O 0.46016 1.10581 0.52868
 C677 C 0.43024 1.09574 0.55299
 O678 O 0.57160 0.93785 0.56631
 O679 O 0.53241 0.88673 0.53428
 C680 C 0.56023 0.89826 0.55992
 O681 O 0.57770 1.05490 0.56128
 O682 O 0.53845 1.10502 0.52807
 C683 C 0.56813 1.09427 0.55227
 O684 O 0.42262 0.93947 0.56783
 O685 O 0.45882 0.88771 0.53381
 C686 C 0.43213 0.89960 0.56024
 Zr687 Zr 0.44444 0.99744 0.54398
 O688 O 0.44602 1.00268 0.60302
 O689 O 0.37631 0.99455 0.54349
 Zr690 Zr 0.55203 0.99609 0.54256
 O691 O 0.55849 0.99686 0.60151
 O692 O 0.61954 0.99391 0.53523
 Zr693 Zr 0.49644 0.92883 0.49813
 Zr694 Zr 0.49863 1.06216 0.49582
 O695 O 0.49882 1.03522 0.54976
 O696 O 0.49776 0.95801 0.55152
 O697 O 0.43592 1.03582 0.49684
 O698 O 0.55854 0.95588 0.49705
 O699 O 0.43524 0.95806 0.49827
 O700 O 0.56049 1.03411 0.49538
 H701 H 0.49743 1.05132 0.42008
 H702 H 0.58378 0.93632 0.49754
 H703 H 0.49907 1.05506 0.57154
 H704 H 0.40953 0.93911 0.49949
 H705 H 0.63001 1.01000 0.46695
 H706 H 0.63223 0.99314 0.56063
 H707 H 0.53387 1.01306 0.61203
 H708 H 0.46667 0.98082 0.61241
 H709 H 0.36591 1.01665 0.52558
 H710 H 0.36317 0.98057 0.46814
 H711 H 0.41999 0.99654 0.38173
 H712 H 0.52821 0.97239 0.38211
 O713 O 0.93183 1.08376 0.45450
 O714 O 0.97004 1.04753 0.40944
 C715 C 0.94290 1.07740 0.42023
 O716 O 1.08530 1.06971 0.55574
 O717 O 1.04323 1.03109 0.59689
 C718 C 1.07419 1.05779 0.58888
 O719 O 1.08268 1.08069 0.45433
 O720 O 1.04380 1.04411 0.40969
 C721 C 1.07342 1.07152 0.42008
 O722 O 0.92766 1.07534 0.55519
 O723 O 0.96690 1.03413 0.59644
 C724 C 0.93859 1.06375 0.58840
 Zr725 Zr 0.95100 1.05475 0.50383
 O726 O 0.94434 1.12248 0.51042
 O727 O 0.88338 1.04734 0.50201
 Zr728 Zr 1.05844 1.05501 0.50407
 O729 O 1.05426 1.12324 0.51049
 O730 O 1.12614 1.06109 0.50391
 O731 O 1.00504 1.06587 0.47073
 O732 O 1.00491 1.06115 0.53692
 O733 O 0.92490 0.92341 0.54921
 O734 O 0.96506 0.95965 0.59336
 C735 C 0.93536 0.93236 0.58328
 O736 O 1.08073 0.92491 0.44802
 O737 O 1.04330 0.96797 0.40674
 C738 C 1.07164 0.93830 0.41480
 O739 O 1.08115 0.92186 0.55038
 O740 O 1.04248 0.95961 0.59398
 C741 C 1.07122 0.93115 0.58460
 O742 O 0.93037 0.92407 0.44734
 O743 O 0.96760 0.96777 0.40632
 C744 C 0.94035 0.93692 0.41418
 Zr745 Zr 0.95040 0.94707 0.49906
 O746 O 0.94991 0.87839 0.49996
 O747 O 0.88241 0.94906 0.49479
 Zr748 Zr 1.05775 0.94604 0.49958
 O749 O 1.05174 0.87778 0.49751
 O750 O 1.12583 0.94278 0.49746
 Zr751 Zr 1.00514 1.00429 0.44484
 Zr752 Zr 1.00437 0.99770 0.55794
 O753 O 1.00384 0.93668 0.53183
 O754 O 1.00443 0.94005 0.46509
 O755 O 0.94191 0.99917 0.53522
 O756 O 1.06643 1.00230 0.46960
 O757 O 0.94296 1.00308 0.46815
 O758 O 1.06686 0.99850 0.53497
 H759 H 1.00601 1.08566 0.55458
 H760 H 1.09247 1.00293 0.45394
 H761 H 1.00351 0.91010 0.54724
 H762 H 0.91780 1.00450 0.45119
 H763 H 1.13791 1.03166 0.50760
 H764 H 1.13731 0.96049 0.51827
 H765 H 1.08142 0.86604 0.49814
 H766 H 0.97216 0.86831 0.48215
 H767 H 0.87146 0.96706 0.51565
 H768 H 0.87115 1.07702 0.50246
 H769 H 0.97364 1.13476 0.51151
 H770 H 1.04264 1.13548 0.48697
 O771 O 0.42508 0.57364 -0.05253
 O772 O 0.46274 0.53281 -0.09528
 C773 C 0.43465 0.56222 -0.08620
 O774 O 0.58230 0.58184 0.04225
 O775 O 0.54594 0.54575 0.08861
 C776 C 0.57337 0.57483 0.07694
 O777 O 0.57066 0.58091 -0.05900
 O778 O 0.53506 0.53422 -0.09835
 C779 C 0.55978 0.56722 -0.09169
 O780 O 0.42685 0.57538 0.05010
 O781 O 0.47028 0.54046 0.09249
 C782 C 0.43952 0.56720 0.08379
 Zr783 Zr 0.44876 0.55197 -0.00129
 O784 O 0.44431 0.62057 -0.00085
 O785 O 0.38091 0.54699 0.00410
 Zr786 Zr 0.55673 0.55584 -0.00648
 O787 O 0.56040 0.62402 -0.01019
 O788 O 0.62454 0.55313 -0.01292
 O789 O 0.50046 0.56095 -0.03731
 O790 O 0.50419 0.56437 0.02825
 O791 O 0.43076 0.42472 0.05378
 O792 O 0.47224 0.46544 0.09391
 C793 C 0.44280 0.43642 0.08659
 O794 O 0.57869 0.41901 -0.05155
 O795 O 0.53900 0.45755 -0.09447
 C796 C 0.56666 0.42777 -0.08516
 O797 O 0.59040 0.43319 0.04926
 O798 O 0.55018 0.47157 0.09195
 C799 C 0.58141 0.44557 0.08286
 O800 O 0.43086 0.41569 -0.04723
 O801 O 0.46519 0.45547 -0.09262
 C802 C 0.43889 0.42524 -0.08173
 Zr803 Zr 0.45385 0.44360 0.00211
 O804 O 0.45951 0.37500 0.00237
 O805 O 0.38584 0.43937 0.00227
 Zr806 Zr 0.56126 0.44852 -0.00152
 O807 O 0.56704 0.38062 0.00541
 O808 O 0.62855 0.45638 -0.00748
 Zr809 Zr 0.50188 0.49697 -0.05809
 Zr810 Zr 0.50786 0.50355 0.05476
 O811 O 0.50951 0.43994 0.03364
 O812 O 0.50622 0.43552 -0.03276
 O813 O 0.44448 0.49920 0.03427
 O814 O 0.56515 0.50051 -0.03755
 O815 O 0.44128 0.49580 -0.03208
 O816 O 0.56910 0.50474 0.02943
 H817 H 0.50380 0.59131 0.04337
 H818 H 0.58941 0.50060 -0.05559
 H819 H 0.51215 0.41561 0.05145
 H820 H 0.41528 0.49376 -0.04797
 H821 H 0.63675 0.53891 0.00950
 H822 H 0.64119 0.42692 -0.00613
 H823 H 0.54106 0.36742 -0.00579
 H824 H 0.46932 0.36524 0.02729
 H825 H 0.37483 0.46500 0.01590
 H826 H 0.36845 0.53731 -0.01994
 H827 H 0.46139 0.63186 -0.02210
 H828 H 0.53072 0.63507 -0.00783
 C829 C 0.32714 1.10088 0.13094
 C830 C 0.33469 1.14641 0.13112
 C831 C 0.35707 1.16506 0.10116
 C832 C 0.37529 1.13935 0.07331
 C833 C 0.37155 1.09401 0.07409
 C834 C 0.34622 1.07447 0.10250
 C835 C 0.30087 1.08090 0.15821
 C836 C 0.29512 1.03603 0.15853
 C837 C 0.31507 1.01023 0.13171
 C838 C 0.34038 1.02913 0.10394
 H839 H 0.28397 1.09960 0.17913
 H840 H 0.27498 1.02121 0.17969
 H841 H 0.31052 0.97542 0.13219
 H842 H 0.35468 1.00798 0.08341
 H843 H 0.36244 1.19979 0.10029
 H844 H 0.39516 1.15488 0.05229
 C845 C 0.86148 0.67199 0.60172
 C846 C 0.83432 0.65330 0.62913
 C847 C 0.82359 0.60919 0.62648
 C848 C 0.84173 0.58288 0.59875
 C849 C 0.87248 0.59949 0.57408
 C850 C 0.88094 0.64488 0.57426
 C851 C 0.87087 0.71683 0.60168
 C852 C 0.89858 0.73460 0.57509
 C853 C 0.91772 0.70817 0.54833
 C854 C 0.90904 0.66381 0.54779
 H855 H 0.85689 0.73857 0.62203
 H856 H 0.90518 0.76908 0.57522
 H857 H 0.93898 0.72215 0.52758
 H858 H 0.92336 0.64470 0.52567
 H859 H 0.80163 0.59483 0.64652
 H860 H 0.83386 0.54883 0.59816
 C861 C 0.63401 0.82859 0.11373
 C862 C 0.66883 0.84676 0.13360
 C863 C 0.68258 0.88903 0.12477
 C864 C 0.66130 0.91383 0.09745
 C865 C 0.62647 0.89650 0.07747
 C866 C 0.61464 0.85238 0.08412
 C867 C 0.61669 0.78781 0.12378
 C868 C 0.58196 0.77035 0.10432
 C869 C 0.56583 0.79159 0.07306
 C870 C 0.58256 0.83171 0.06259
 H871 H 0.62927 0.76936 0.14704
 H872 H 0.56862 0.73940 0.11268
 H873 H 0.54034 0.77687 0.05680
 H874 H 0.57020 0.84647 0.03747
 H875 H 0.70902 0.90347 0.14008
 H876 H 0.67053 0.94739 0.09343
 C877 C 1.17751 0.39673 0.63152
 C878 C 1.17089 0.35100 0.63126
 C879 C 1.14849 0.33252 0.60124
 C880 C 1.12932 0.35845 0.57395
 C881 C 1.13216 0.40390 0.57523
 C882 C 1.15762 0.42329 0.60356
 C883 C 1.20371 0.41680 0.65876
 C884 C 1.20884 0.46175 0.65943
 C885 C 1.18833 0.48756 0.63299
 C886 C 1.16295 0.46863 0.60531
 H887 H 1.22106 0.39811 0.67936
 H888 H 1.22899 0.47662 0.68054
 H889 H 1.19253 0.52241 0.63369
 H890 H 1.14823 0.48966 0.58495
 H891 H 1.14380 0.29772 0.59995
 H892 H 1.10953 0.34292 0.55288
 C893 C 0.65813 1.15744 -0.09952
 C894 C 0.66652 1.14252 -0.13661
 C895 C 0.66089 1.09828 -0.14460
 C896 C 0.64551 1.06947 -0.11757
 C897 C 0.63561 1.08368 -0.08140
 C898 C 0.64338 1.12756 -0.07182
 C899 C 0.66145 1.20171 -0.08958
 C900 C 0.65258 1.21578 -0.05333
 C901 C 0.63940 1.18635 -0.02625
 C902 C 0.63432 1.14278 -0.03542
 H903 H 0.66964 1.22633 -0.10959
 H904 H 0.65545 1.24984 -0.04637
 H905 H 0.63244 1.19740 0.00185
 H906 H 0.62336 1.12103 -0.01377
 H907 H 0.66744 1.08599 -0.17242
 H908 H 0.63823 1.03643 -0.12579
 C909 C 1.12757 0.61283 0.34705
 C910 C 1.15659 0.64650 0.35782
 C911 C 1.16893 0.64881 0.39578
 C912 C 1.15251 0.61957 0.42245
 C913 C 1.12594 0.58504 0.41157
 C914 C 1.11630 0.58003 0.37314
 C915 C 1.10712 0.61181 0.31171
 C916 C 1.08218 0.57655 0.30053
 C917 C 1.07568 0.54207 0.32477
 C918 C 1.09205 0.54409 0.36092
 H919 H 1.10788 0.63898 0.29311
 H920 H 1.06737 0.57632 0.27314
 H921 H 1.05634 0.51469 0.31607
 H922 H 1.08495 0.51814 0.38007
 H923 H 1.19050 0.67416 0.40516
 H924 H 1.15910 0.62505 0.45178
 C925 C 0.31896 0.89391 -0.13190
 C926 C 0.32907 0.84894 -0.13349
 C927 C 0.35492 0.83106 -0.10549
 C928 C 0.37442 0.85742 -0.07875
 C929 C 0.36859 0.90263 -0.07872
 C930 C 0.33890 0.92097 -0.10433
 C931 C 0.28916 0.91259 -0.15693
 C932 C 0.27975 0.95675 -0.15540
 C933 C 0.29968 0.98314 -0.12902
 C934 C 0.32919 0.96563 -0.10382
 H935 H 0.27229 0.89326 -0.17744
 H936 H 0.25669 0.97056 -0.17469
 H937 H 0.29197 1.01735 -0.12793
 H938 H 0.34350 0.98726 -0.08362
 H939 H 0.36213 0.79667 -0.10557
 H940 H 0.39680 0.84261 -0.05934
 C941 C 0.86721 0.32994 0.38991
 C942 C 0.83650 0.34801 0.36543
 C943 C 0.82140 0.39032 0.37214
 C944 C 0.83781 0.41532 0.40178
 C945 C 0.86830 0.39787 0.42644
 C946 C 0.88054 0.35363 0.42197
 C947 C 0.88737 0.28997 0.38177
 C948 C 0.91941 0.27365 0.40504
 C949 C 0.92928 0.29466 0.43839
 C950 C 0.90939 0.33382 0.44726
 H951 H 0.87985 0.27185 0.35668
 H952 H 0.93577 0.24389 0.39764
 H953 H 0.95291 0.28090 0.45717
 H954 H 0.91808 0.34959 0.47325
 H955 H 0.79788 0.40461 0.35352
 H956 H 0.82895 0.44922 0.40383
 C957 C 1.17152 0.34323 0.09085
 C958 C 1.16113 0.34015 0.12971
 C959 C 1.11901 0.35083 0.14087
 C960 C 1.08836 0.36527 0.11541
 C961 C 1.09733 0.36791 0.07718
 C962 C 1.13890 0.35573 0.06455
 C963 C 1.21384 0.33662 0.07738
 C964 C 1.22307 0.33909 0.03928
 C965 C 1.19085 0.34913 0.01378
 C966 C 1.14925 0.35798 0.02621
 H967 H 1.24072 0.33101 0.09577
 H968 H 1.25561 0.33359 0.02951
 H969 H 1.19841 0.35077 -0.01572
 H970 H 1.12512 0.36638 0.00565
 H971 H 1.10957 0.34895 0.16998
 H972 H 1.05795 0.37718 0.12613
 C973 C 0.63122 0.80791 0.60157
 C974 C 0.64078 0.82849 0.63653
 C975 C 0.61624 0.86459 0.64688
 C976 C 0.58636 0.88256 0.62279
 C977 C 0.58091 0.86706 0.58614
 C978 C 0.60226 0.82832 0.57565
 C979 C 0.64833 0.76700 0.59205
 C980 C 0.64087 0.74869 0.55699
 C981 C 0.61518 0.77003 0.53103
 C982 C 0.59549 0.80916 0.54035
 H983 H 0.66600 0.74779 0.61189
 H984 H 0.65466 0.71745 0.55010
 H985 H 0.60951 0.75559 0.50388
 H986 H 0.57437 0.82349 0.51988
 H987 H 0.62090 0.88016 0.67374
 H988 H 0.56941 0.91131 0.63216
 C989 C 1.17110 0.64973 -0.09877
 C990 C 1.15879 0.65546 -0.13736
 C991 C 1.11581 0.64495 -0.14697
 C992 C 1.08582 0.63107 -0.12054
 C993 C 1.09699 0.62534 -0.08309
 C994 C 1.13974 0.63493 -0.07196
 C995 C 1.21437 0.65367 -0.08638
 C996 C 1.22553 0.64689 -0.04908
 C997 C 1.19466 0.63411 -0.02328
 C998 C 1.15245 0.62723 -0.03467
 H999 H 1.24093 0.65974 -0.10499
 H1000 H 1.25871 0.65048 -0.04035
 H1001 H 1.20370 0.62831 0.00551
 H1002 H 1.12982 0.61539 -0.01407
 H1003 H 1.10429 0.64831 -0.17542
 H1004 H 1.05401 0.62175 -0.13007
 C1005 C 0.63849 1.18346 0.39770
 C1006 C 0.64774 1.16544 0.36162
 C1007 C 0.62523 1.12811 0.35088
 C1008 C 0.59694 1.10750 0.37499
 C1009 C 0.59090 1.12159 0.41200
 C1010 C 0.61164 1.16019 0.42364
 C1011 C 0.65381 1.22458 0.40843
 C1012 C 0.64755 1.24022 0.44464
 C1013 C 0.62493 1.21568 0.47072
 C1014 C 0.60663 1.17623 0.46031
 H1015 H 0.66889 1.24584 0.38867
 H1016 H 0.66006 1.27174 0.45241
 H1017 H 0.62055 1.22782 0.49888
 H1018 H 0.58834 1.15889 0.48117
 H1019 H 0.62996 1.11390 0.32347
 H1020 H 0.58089 1.07857 0.36488
 C1021 C 0.90435 0.67251 0.13371
 C1022 C 0.85883 0.66673 0.13446
 C1023 C 0.83944 0.64406 0.10495
 C1024 C 0.86418 0.62422 0.07708
 C1025 C 0.90935 0.62672 0.07709
 C1026 C 0.92970 0.65198 0.10518
 C1027 C 0.92541 0.69862 0.16050
 C1028 C 0.97009 0.70299 0.16033
 C1029 C 0.99472 0.68176 0.13347
 C1030 C 0.97486 0.65647 0.10615
 H1031 H 0.90768 0.71645 0.18142
 H1032 H 0.98570 0.72306 0.18114
 H1033 H 1.02940 0.68528 0.13357
 H1034 H 0.99515 0.64106 0.08560
 H1035 H 0.80480 0.64000 0.10434
 H1036 H 0.84791 0.60456 0.05631
 C1037 C 0.33095 1.14735 0.59394
 C1038 C 0.34783 1.16144 0.62902
 C1039 C 0.39270 1.16051 0.63428
 C1040 C 0.42044 1.14450 0.60674
 C1041 C 0.40450 1.12900 0.57270
 C1042 C 0.35965 1.13162 0.56572
 C1043 C 0.28621 1.14617 0.58662
 C1044 C 0.27038 1.13120 0.55249
 C1045 C 0.29850 1.11677 0.52491
 C1046 C 0.34268 1.11672 0.53143
 H1047 H 0.26264 1.15573 0.60708
 H1048 H 0.23601 1.13049 0.54754
 H1049 H 0.28599 1.10515 0.49849
 H1050 H 0.36362 1.10487 0.50950
 H1051 H 0.40652 1.17156 0.66041
 H1052 H 0.45437 1.14125 0.61318
 C1053 C 0.86239 0.30685 -0.10129
 C1054 C 0.85706 0.32295 -0.13865
 C1055 C 0.88464 0.35643 -0.15031
 C1056 C 0.91354 0.37588 -0.12598
 C1057 C 0.91527 0.36465 -0.08802
 C1058 C 0.88993 0.32941 -0.07540
 C1059 C 0.84227 0.26846 -0.08897
 C1060 C 0.84479 0.25538 -0.05169
 C1061 C 0.86822 0.27969 -0.02600
 C1062 C 0.89100 0.31618 -0.03768
 H1063 H 0.82625 0.24705 -0.10808
 H1064 H 0.82872 0.22600 -0.04275
 H1065 H 0.86970 0.26954 0.00295
 H1066 H 0.90982 0.33337 -0.01705
 H1067 H 0.88329 0.36896 -0.17857
 H1068 H 0.93292 0.40245 -0.13655
 C1069 C 0.38979 0.81964 0.36416
 C1070 C 0.34493 0.82952 0.36476
 C1071 C 0.32842 0.85147 0.39586
 C1072 C 0.35583 0.86926 0.42281
 C1073 C 0.40075 0.86416 0.42061
 C1074 C 0.41773 0.83698 0.39233
 C1075 C 0.40755 0.79203 0.33668
 C1076 C 0.45130 0.78209 0.33659
 C1077 C 0.47833 0.79933 0.36376
 C1078 C 0.46194 0.82692 0.39122
 H1079 H 0.38789 0.77689 0.31560
 H1080 H 0.46424 0.76051 0.31551
 H1081 H 0.51212 0.79085 0.36373
 H1082 H 0.48386 0.83922 0.41212
 H1083 H 0.29415 0.85670 0.39838
 H1084 H 0.34198 0.88959 0.44443
 C1085 C 1.17200 1.12019 0.37304
 C1086 C 1.15139 1.14882 0.34795
 C1087 C 1.10650 1.14730 0.34369
 C1088 C 1.08151 1.11966 0.36552
 C1089 C 1.10084 1.09311 0.39226
 C1090 C 1.14651 1.09268 0.39587
 C1091 C 1.21743 1.11722 0.37518
 C1092 C 1.23707 1.08964 0.40085
 C1093 C 1.21217 1.06464 0.42467
 C1094 C 1.16755 1.06509 0.42152
 H1095 H 1.23829 1.13556 0.35694
 H1096 H 1.27174 1.08724 0.40219
 H1097 H 1.22757 1.04421 0.44525
 H1098 H 1.15002 1.04311 0.43902
 H1099 H 1.09065 1.16821 0.32363
 H1100 H 1.04678 1.12052 0.36276
 C1101 C 0.60561 0.66224 -0.14218
 C1102 C 0.64066 0.64095 -0.15943
 C1103 C 0.64242 0.59561 -0.16052
 C1104 C 0.61177 0.57102 -0.14200
 C1105 C 0.57888 0.59144 -0.12212
 C1106 C 0.57452 0.63712 -0.12302
 C1107 C 0.60046 0.70773 -0.14382
 C1108 C 0.56610 0.72793 -0.12568
 C1109 C 0.53610 0.70326 -0.10605
 C1110 C 0.54006 0.65823 -0.10475
 H1111 H 0.62278 0.72803 -0.15908
 H1112 H 0.56276 0.76285 -0.12688
 H1113 H 0.50947 0.71903 -0.09202
 H1114 H 0.51581 0.63996 -0.08977
 H1115 H 0.66827 0.57923 -0.17520
 H1116 H 0.61566 0.53613 -0.14075
 C1117 C 0.88945 1.16035 0.63377
 C1118 C 0.85219 1.14032 0.64828
 C1119 C 0.84860 1.09504 0.64880
 C1120 C 0.88052 1.06928 0.63325
 C1121 C 0.91696 1.08833 0.61745
 C1122 C 0.92241 1.13403 0.61861
 C1123 C 0.89500 1.20590 0.63457
 C1124 C 0.93220 1.22492 0.62019
 C1125 C 0.96461 1.19907 0.60525
 C1126 C 0.95989 1.15411 0.60452
 H1127 H 0.87077 1.22718 0.64614
 H1128 H 0.93597 1.25983 0.62084
 H1129 H 0.99365 1.21386 0.59440
 H1130 H 0.98611 1.13523 0.59361
 H1131 H 0.82077 1.07961 0.66139
 H1132 H 0.87554 1.03454 0.63148
 C1133 C 0.35877 0.59564 0.15885
 C1134 C 0.35436 0.64067 0.15137
 C1135 C 0.38082 0.66049 0.12493
 C1136 C 0.41120 0.63631 0.10563
 C1137 C 0.41668 0.59185 0.11275
 C1138 C 0.39181 0.57154 0.14087
 C1139 C 0.33020 0.57377 0.18312
 C1140 C 0.33685 0.53047 0.19257
 C1141 C 0.37132 0.50787 0.17727
 C1142 C 0.39797 0.52775 0.15093
 H1143 H 0.30208 0.58969 0.19439
 H1144 H 0.31519 0.51441 0.21183
 H1145 H 0.37686 0.47451 0.18529
 H1146 H 0.42367 0.50868 0.13923
 H1147 H 0.37821 0.69495 0.11943
 H1148 H 0.42991 0.65221 0.08400
 C1149 C 1.09636 0.85433 0.66553
 C1150 C 1.13907 0.84127 0.65477
 C1151 C 1.15683 0.85905 0.62214
 C1152 C 1.13544 0.89074 0.60230
 C1153 C 1.09478 0.90592 0.61328
 C1154 C 1.07585 0.88949 0.64658
 C1155 C 1.07214 0.83170 0.69298
 C1156 C 1.03281 0.84744 0.70576
 C1157 C 1.01581 0.88513 0.69071
 C1158 C 1.03649 0.90557 0.66101
 H1159 H 1.08217 0.80070 0.70394
 H1160 H 1.01527 0.83007 0.72722
 H1161 H 0.98541 0.89755 0.70098
 H1162 H 1.02077 0.93387 0.65013
 H1163 H 1.18866 0.85007 0.61236
 H1164 H 1.15096 0.90317 0.57734
 C1165 C 0.67801 0.39194 0.12515
 C1166 C 0.65619 0.36246 0.14890
 C1167 C 0.61215 0.36818 0.15615
 C1168 C 0.58890 0.40032 0.13824
 C1169 C 0.60870 0.42640 0.11154
 C1170 C 0.65383 0.42418 0.10620
 C1171 C 0.72320 0.39122 0.12067
 C1172 C 0.74374 0.42123 0.09749
 C1173 C 0.71988 0.45237 0.07849
 C1174 C 0.67533 0.45406 0.08280
 H1175 H 0.74310 0.36812 0.13533
 H1176 H 0.77839 0.42069 0.09449
 H1177 H 0.73602 0.47571 0.06073
 H1178 H 0.65797 0.47962 0.06855
 H1179 H 0.59558 0.34745 0.17598
 H1180 H 0.55483 0.40311 0.14372
 C1181 C 0.84650 0.90362 0.35535
 C1182 C 0.85524 0.85859 0.35298
 C1183 C 0.89451 0.84234 0.36571
 C1184 C 0.92475 0.86987 0.38162
 C1185 C 0.91663 0.91440 0.38496
 C1186 C 0.87754 0.93179 0.37145
 C1187 C 0.80725 0.92115 0.34242
 C1188 C 0.79889 0.96547 0.34545
 C1189 C 0.82924 0.99302 0.36149
 C1190 C 0.86817 0.97644 0.37456
 H1191 H 0.78256 0.90072 0.33043
 H1192 H 0.76864 0.97846 0.33550
 H1193 H 0.82255 1.02737 0.36388
 H1194 H 0.89098 0.99881 0.38673
 H1195 H 0.90210 0.80820 0.36266
 H1196 H 0.95395 0.85604 0.39314
 C1197 C 0.40639 0.34591 -0.15802
 C1198 C 0.36146 0.34454 -0.15092
 C1199 C 0.34359 0.36999 -0.12272
 C1200 C 0.36946 0.39744 -0.10193
 C1201 C 0.41373 0.40075 -0.10915
 C1202 C 0.43256 0.37564 -0.13797
 C1203 C 0.42599 0.31757 -0.18403
 C1204 C 0.46983 0.32058 -0.19191
 C1205 C 0.49497 0.35137 -0.17378
 C1206 C 0.47672 0.37834 -0.14676
 H1207 H 0.40786 0.29236 -0.19795
 H1208 H 0.48434 0.29891 -0.21213
 H1209 H 0.52892 0.35389 -0.18025
 H1210 H 0.49753 0.40116 -0.13303
 H1211 H 0.30925 0.36943 -0.11736
 H1212 H 0.35473 0.41639 -0.07981
 C1213 C 1.10383 0.31753 -0.13804
 C1214 C 1.14897 0.32565 -0.13708
 C1215 C 1.16607 0.34955 -0.10736
 C1216 C 1.13916 0.36889 -0.08106
 C1217 C 1.09426 0.36444 -0.08305
 C1218 C 1.07628 0.33754 -0.11103
 C1219 C 1.08533 0.28998 -0.16519
 C1220 C 1.04087 0.28377 -0.16668
 C1221 C 1.01401 0.30457 -0.14117
 C1222 C 1.03143 0.33122 -0.11354
 H1223 H 1.10495 0.27249 -0.18511
 H1224 H 1.02719 0.26265 -0.18774
 H1225 H 0.97953 0.29972 -0.14257
 H1226 H 1.00961 0.34632 -0.09397
 H1227 H 1.20039 0.35561 -0.10579
 H1228 H 1.15337 0.39032 -0.06046
 C1229 C 0.66262 0.83928 0.40210
 C1230 C 0.64982 0.83087 0.36439
 C1231 C 0.60653 0.83805 0.35474
 C1232 C 0.57687 0.85431 0.38060
 C1233 C 0.58830 0.86223 0.41784
 C1234 C 0.63130 0.85356 0.42895
 C1235 C 0.70616 0.83679 0.41354
 C1236 C 0.71796 0.84463 0.45054
 C1237 C 0.68713 0.85649 0.47679
 C1238 C 0.64440 0.86167 0.46605
 H1239 H 0.73201 0.83041 0.39422
 H1240 H 0.75140 0.84212 0.45876
 H1241 H 0.69652 0.86268 0.50545
 H1242 H 0.62164 0.87215 0.48701
 H1243 H 0.59569 0.83249 0.32636
 H1244 H 0.54537 0.86382 0.37064
 C1245 C 0.86440 0.68564 -0.10313
 C1246 C 0.85926 0.66867 -0.14015
 C1247 C 0.88430 0.63281 -0.15047
 C1248 C 0.91053 0.61188 -0.12491
 C1249 C 0.91209 0.62452 -0.08725
 C1250 C 0.88947 0.66218 -0.07609
 C1251 C 0.84638 0.72568 -0.09231
 C1252 C 0.84902 0.74009 -0.05539
 C1253 C 0.87033 0.71538 -0.02861
 C1254 C 0.89073 0.67689 -0.03879
 H1255 H 0.83173 0.74711 -0.11236
 H1256 H 0.83465 0.77076 -0.04755
 H1257 H 0.87190 0.72661 0.00005
 H1258 H 0.90777 0.65918 -0.01735
 H1259 H 0.88259 0.61947 -0.17846
 H1260 H 0.92817 0.58360 -0.13440
 C1261 C 0.40188 1.17181 0.36001
 C1262 C 0.35620 1.17097 0.36314
 C1263 C 0.33775 1.15356 0.39554
 C1264 C 0.36280 1.13163 0.42176
 C1265 C 0.40751 1.12818 0.41745
 C1266 C 0.42762 1.14967 0.38706
 C1267 C 0.42271 1.19469 0.33096
 C1268 C 0.46741 1.19387 0.32742
 C1269 C 0.49228 1.17063 0.35278
 C1270 C 0.47272 1.14874 0.38236
 H1271 H 0.40491 1.21432 0.31133
 H1272 H 0.48286 1.21151 0.30493
 H1273 H 0.52696 1.17005 0.34981
 H1274 H 0.49326 1.13169 0.40170
 H1275 H 0.30331 1.15496 0.39960
 H1276 H 0.34674 1.11514 0.44456
 C1277 C 1.13515 0.69035 0.09431
 C1278 C 1.14335 0.67140 0.13016
 C1279 C 1.12032 0.63404 0.14007
 C1280 C 1.09340 0.61355 0.11510
 C1281 C 1.08922 0.62786 0.07813
 C1282 C 1.10859 0.66769 0.06777
 C1283 C 1.15135 0.73151 0.08432
 C1284 C 1.14448 0.74845 0.04865
 C1285 C 1.12050 0.72540 0.02250
 C1286 C 1.10221 0.68563 0.03200
 H1287 H 1.16797 0.75188 0.10403
 H1288 H 1.15741 0.77996 0.04142
 H1289 H 1.11525 0.73885 -0.00508
 H1290 H 1.08257 0.66963 0.01128
 H1291 H 1.12396 0.61916 0.16732
 H1292 H 1.07739 0.58423 0.12442
 C1293 C 0.66707 1.14296 0.59635
 C1294 C 0.64887 1.16005 0.62994
 C1295 C 0.60378 1.16138 0.63328
 C1296 C 0.57695 1.14493 0.60519
 C1297 C 0.59415 1.12713 0.57238
 C1298 C 0.63940 1.12774 0.56721
 C1299 C 0.71207 1.13817 0.59162
 C1300 C 0.72922 1.12180 0.55843
 C1301 C 0.70216 1.10888 0.52955
 C1302 C 0.65769 1.11126 0.53395
 H1303 H 0.73468 1.14568 0.61355
 H1304 H 0.76375 1.11871 0.55527
 H1305 H 0.71569 1.09618 0.50388
 H1306 H 0.63765 1.10013 0.51111
 H1307 H 0.58908 1.17440 0.65837
 H1308 H 0.54259 1.14337 0.61026
 C1309 C 0.90603 0.31852 0.13502
 C1310 C 0.86075 0.32471 0.13372
 C1311 C 0.84289 0.34539 0.10256
 C1312 C 0.86904 0.36476 0.07562
 C1313 C 0.91406 0.36287 0.07811
 C1314 C 0.93284 0.33761 0.10689
 C1315 C 0.92524 0.29310 0.16321
 C1316 C 0.96966 0.28685 0.16395
 C1317 C 0.99571 0.30567 0.13674
 C1318 C 0.97765 0.33118 0.10859
 H1319 H 0.90613 0.27697 0.18432
 H1320 H 0.98393 0.26694 0.18556
 H1321 H 1.03006 0.30002 0.13732
 H1322 H 0.99877 0.34479 0.08765
 H1323 H 0.80836 0.34855 0.10006
 H1324 H 0.85395 0.38374 0.05375
 C1325 C 0.36052 0.80802 0.60047
 C1326 C 0.35741 0.82304 0.63865
 C1327 C 0.38637 0.85615 0.64939
 C1328 C 0.41251 0.87729 0.62372
 C1329 C 0.41105 0.86758 0.58554
 C1330 C 0.38528 0.83235 0.57357
 C1331 C 0.34188 0.76864 0.58818
 C1332 C 0.34179 0.75714 0.55045
 C1333 C 0.36140 0.78371 0.52408
 C1334 C 0.38349 0.82071 0.53545
 H1335 H 0.32952 0.74489 0.60741
 H1336 H 0.32680 0.72712 0.54168
 H1337 H 0.36080 0.77481 0.49480
 H1338 H 0.39957 0.83957 0.51416
 H1339 H 0.38791 0.86789 0.67793
 H1340 H 0.43256 0.90366 0.63371
 C1341 C 0.35928 1.17184 -0.10271
 C1342 C 0.34568 1.15535 -0.13802
 C1343 C 0.34768 1.11035 -0.14414
 C1344 C 0.36346 1.08212 -0.11686
 C1345 C 0.37675 1.09738 -0.08188
 C1346 C 0.37392 1.14250 -0.07441
 C1347 C 0.36106 1.21687 -0.09537
 C1348 C 0.37465 1.23243 -0.06070
 C1349 C 0.38736 1.20372 -0.03281
 C1350 C 0.38740 1.15921 -0.03958
 H1351 H 0.35330 1.24069 -0.11641
 H1352 H 0.37568 1.26703 -0.05556
 H1353 H 0.39786 1.21603 -0.00597
 H1354 H 0.39808 1.13788 -0.01741
 H1355 H 0.33757 1.09681 -0.17068
 H1356 H 0.36809 1.04837 -0.12414
 C1357 C 0.84244 0.66510 0.40605
 C1358 C 0.84248 0.65391 0.36721
 C1359 C 0.85370 0.61119 0.35738
 C1360 C 0.86633 0.58093 0.38427
 C1361 C 0.86712 0.59136 0.42241
 C1362 C 0.85246 0.63280 0.43352
 C1363 C 0.83446 0.70787 0.41863
 C1364 C 0.83083 0.71713 0.45666
 C1365 C 0.83662 0.68456 0.48304
 C1366 C 0.84869 0.64303 0.47173
 H1367 H 0.83205 0.73494 0.39969
 H1368 H 0.82358 0.74984 0.46572
 H1369 H 0.83270 0.69186 0.51243
 H1370 H 0.85420 0.61858 0.49289
 H1371 H 0.85354 0.60111 0.32837
 H1372 H 0.87846 0.54979 0.37491
 C1373 C 0.68992 1.13376 0.09944
 C1374 C 0.66991 1.14495 0.13436
 C1375 C 0.63291 1.12184 0.14464
 C1376 C 0.61424 1.09155 0.12106
 C1377 C 0.62975 1.08392 0.08471
 C1378 C 0.66882 1.10426 0.07399
 C1379 C 0.73088 1.14970 0.08942
 C1380 C 0.74877 1.14068 0.05449
 C1381 C 0.72694 1.11453 0.02911
 C1382 C 0.68765 1.09592 0.03886
 H1383 H 0.75044 1.16766 0.10871
 H1384 H 0.78008 1.15364 0.04724
 H1385 H 0.74108 1.10768 0.00207
 H1386 H 0.67283 1.07442 0.01885
 H1387 H 0.61728 1.12768 0.17126
 H1388 H 0.58514 1.07573 0.13076
 C1389 C 1.18867 0.63388 0.59840
 C1390 C 1.17122 0.64021 0.63516
 C1391 C 1.13717 0.61327 0.64624
 C1392 C 1.11825 0.58430 0.62170
 C1393 C 1.13032 0.58221 0.58392
 C1394 C 1.16658 0.60643 0.57209
 C1395 C 1.22797 0.65272 0.58718
 C1396 C 1.24262 0.64894 0.55044
 C1397 C 1.21901 0.62556 0.52424
 C1398 C 1.18149 0.60410 0.53492
 H1399 H 1.24889 0.66863 0.60677
 H1400 H 1.27273 0.66390 0.54232
 H1401 H 1.23049 0.62302 0.49573
 H1402 H 1.16495 0.58512 0.51401
 H1403 H 1.12383 0.61513 0.67419
 H1404 H 1.09141 0.56527 0.63196
 C1405 C 0.65262 0.82595 -0.09752
 C1406 C 0.66039 0.83957 -0.13504
 C1407 C 0.65399 0.88354 -0.14399
 C1408 C 0.63870 0.91315 -0.11760
 C1409 C 0.62985 0.90033 -0.08089
 C1410 C 0.63821 0.85687 -0.07036
 C1411 C 0.65659 0.78211 -0.08646
 C1412 C 0.64831 0.76946 -0.04972
 C1413 C 0.63576 0.79997 -0.02324
 C1414 C 0.63061 0.84322 -0.03335
 H1415 H 0.66491 0.75681 -0.10592
 H1416 H 0.65146 0.73572 -0.04179
 H1417 H 0.62951 0.79009 0.00519
 H1418 H 0.62096 0.86608 -0.01199
 H1419 H 0.66015 0.89517 -0.17207
 H1420 H 0.63112 0.94584 -0.12658
 C1421 C 1.12019 0.36595 0.34781
 C1422 C 1.15955 0.34661 0.35818
 C1423 C 1.17874 0.35929 0.39225
 C1424 C 1.15907 0.39045 0.41566
 C1425 C 1.12166 0.41229 0.40413
 C1426 C 1.10472 0.40223 0.36792
 C1427 C 1.09535 0.34961 0.31780
 C1428 C 1.06039 0.37272 0.30391
 C1429 C 1.04925 0.41206 0.32006
 C1430 C 1.07100 0.42646 0.35178
 H1431 H 1.10239 0.31847 0.30537
 H1432 H 1.04228 0.36031 0.28038
 H1433 H 1.02281 0.43080 0.30880
 H1434 H 1.06078 0.45635 0.36399
 H1435 H 1.20886 0.34478 0.40091
 H1436 H 1.17247 0.39668 0.44308
 C1437 C 0.31112 0.86226 0.09793
 C1438 C 0.32986 0.85567 0.13417
 C1439 C 0.36479 0.88182 0.14427
 C1440 C 0.38355 0.91004 0.11891
 C1441 C 0.37012 0.91195 0.08145
 C1442 C 0.33297 0.88866 0.07078
 C1443 C 0.27079 0.84468 0.08806
 C1444 C 0.25502 0.84832 0.05166
 C1445 C 0.27851 0.87043 0.02453
 C1446 C 0.31700 0.89089 0.03398
 H1447 H 0.25002 0.82994 0.10851
 H1448 H 0.22418 0.83421 0.04456
 H1449 H 0.26622 0.87283 -0.00371
 H1450 H 0.33356 0.90902 0.01246
 H1451 H 0.37892 0.87962 0.17189
 H1452 H 0.41133 0.92846 0.12812
 C1453 C 0.83182 0.38850 0.63769
 C1454 C 0.83470 0.34268 0.63293
 C1455 C 0.85265 0.32658 0.59973
 C1456 C 0.87085 0.35461 0.57327
 C1457 C 0.87186 0.39973 0.57901
 C1458 C 0.85225 0.41689 0.61156
 C1459 C 0.80900 0.40701 0.66790
 C1460 C 0.81027 0.45149 0.67464
 C1461 C 0.83357 0.47857 0.65109
 C1462 C 0.85391 0.46168 0.61950
 H1463 H 0.78939 0.38760 0.68624
 H1464 H 0.79326 0.46496 0.69839
 H1465 H 0.83525 0.51291 0.65712
 H1466 H 0.87089 0.48386 0.60138
 H1467 H 0.85438 0.29192 0.59499
 H1468 H 0.88685 0.34070 0.54914
 C1469 C 1.17192 1.09766 0.63784
 C1470 C 1.15618 1.13904 0.64794
 C1471 C 1.11232 1.14839 0.64505
 C1472 C 1.08410 1.11806 0.63051
 C1473 C 1.09926 1.07801 0.61804
 C1474 C 1.14317 1.06702 0.62210
 C1475 C 1.21544 1.08605 0.64304
 C1476 C 1.23046 1.04554 0.63149
 C1477 C 1.20241 1.01585 0.61506
 C1478 C 1.15906 1.02633 0.61039
 H1479 H 1.23812 1.10821 0.65580
 H1480 H 1.26401 1.03717 0.63528
 H1481 H 1.21420 0.98446 0.60615
 H1482 H 1.13795 1.00226 0.59812
 H1483 H 1.09976 1.17926 0.65466
 H1484 H 1.05075 1.12705 0.62665
 C1485 C 0.64940 0.66290 0.10804
 C1486 C 0.66344 0.64621 0.14298
 C1487 C 0.64559 0.60689 0.15606
 C1488 C 0.61419 0.58478 0.13585
 C1489 C 0.59747 0.60278 0.10323
 C1490 C 0.61262 0.64406 0.09113
 C1491 C 0.67016 0.69748 0.08905
 C1492 C 0.65260 0.71519 0.05665
 C1493 C 0.61294 0.70083 0.04372
 C1494 C 0.59239 0.66655 0.06164
 H1495 H 0.70093 0.71026 0.09716
 H1496 H 0.66927 0.74116 0.04237
 H1497 H 0.59795 0.71631 0.01990
 H1498 H 0.56060 0.65740 0.05236
 H1499 H 0.65633 0.59281 0.18218
 H1500 H 0.60364 0.55313 0.14533
 C1501 C 1.16734 0.89047 0.36468
 C1502 C 1.14551 0.85940 0.34290
 C1503 C 1.10052 0.86023 0.34018
 C1504 C 1.07659 0.88948 0.36117
 C1505 C 1.09729 0.91812 0.38543
 C1506 C 1.14301 0.91938 0.38700
 C1507 C 1.21275 0.89394 0.36429
 C1508 C 1.23364 0.92404 0.38695
 C1509 C 1.20996 0.95039 0.41073
 C1510 C 1.16515 0.94859 0.41049
 H1511 H 1.23247 0.87391 0.34633
 H1512 H 1.26834 0.92688 0.38625
 H1513 H 1.22649 0.97248 0.42921
 H1514 H 1.14817 0.97042 0.42859
 H1515 H 1.08383 0.83736 0.32229
 H1516 H 1.04175 0.88783 0.36030
 C1517 C 0.61100 0.32909 -0.13328
 C1518 C 0.64469 0.34917 -0.15355
 C1519 C 0.64720 0.39447 -0.15548
 C1520 C 0.61848 0.42016 -0.13574
 C1521 C 0.58687 0.40101 -0.11352
 C1522 C 0.58242 0.35532 -0.11228
 C1523 C 0.60427 0.28380 -0.13417
 C1524 C 0.57133 0.26475 -0.11335
 C1525 C 0.54429 0.29038 -0.09158
 C1526 C 0.54957 0.33527 -0.09103
 H1527 H 0.62398 0.26275 -0.15115
 H1528 H 0.56674 0.22995 -0.11416
 H1529 H 0.51868 0.27550 -0.07554
 H1530 H 0.52691 0.35421 -0.07483
 H1531 H 0.67195 0.41001 -0.17215
 H1532 H 0.62251 0.45506 -0.13607
 C1533 C 0.86271 1.16095 0.38949
 C1534 C 0.85218 1.14565 0.35312
 C1535 C 0.87499 1.10970 0.33862
 C1536 C 0.90739 1.08935 0.35898
 C1537 C 0.92004 1.10597 0.39348
 C1538 C 0.90048 1.14485 0.40682
 C1539 C 0.83730 1.19121 0.40972
 C1540 C 0.85133 1.20811 0.44377
 C1541 C 0.89163 1.19705 0.45750
 C1542 C 0.91673 1.16695 0.43838
 H1543 H 0.80549 1.20070 0.40131
 H1544 H 0.83143 1.23097 0.45892
 H1545 H 0.90360 1.21200 0.48284
 H1546 H 0.94878 1.16033 0.44866
 H1547 H 0.86725 1.09658 0.31134
 H1548 H 0.92160 1.05980 0.34820
 C1549 C 0.34759 0.59262 -0.15450
 C1550 C 0.35113 0.63838 -0.15162
 C1551 C 0.38423 0.65709 -0.13094
 C1552 C 0.41381 0.63110 -0.11278
 C1553 C 0.41098 0.58579 -0.11473
 C1554 C 0.37795 0.56596 -0.13581
 C1555 C 0.31380 0.57286 -0.17472
 C1556 C 0.31038 0.52778 -0.17658
 C1557 C 0.34013 0.50167 -0.15816
 C1558 C 0.37352 0.52043 -0.13772
 H1559 H 0.28945 0.59200 -0.18868
 H1560 H 0.28433 0.51305 -0.19216
 H1561 H 0.33721 0.46671 -0.15957
 H1562 H 0.39575 0.49904 -0.12367
 H1563 H 0.38764 0.69204 -0.12941
 H1564 H 0.43817 0.64653 -0.09566
 C1565 C 0.89766 0.84058 0.64466
 C1566 C 0.85524 0.85529 0.65200
 C1567 C 0.84219 0.89637 0.64018
 C1568 C 0.87020 0.92267 0.62014
 C1569 C 0.91171 0.90830 0.61150
 C1570 C 0.92577 0.86693 0.62327
 C1571 C 0.91275 0.80015 0.65777
 C1572 C 0.95382 0.78533 0.64862
 C1573 C 0.98065 0.81042 0.62626
 C1574 C 0.96693 0.85090 0.61375
 H1575 H 0.89304 0.77943 0.67480
 H1576 H 0.96471 0.75411 0.65867
 H1577 H 1.01251 0.79884 0.61912
 H1578 H 0.98925 0.86984 0.59745
 H1579 H 0.81013 0.90812 0.64655
 H1580 H 0.85891 0.95380 0.61008
 C1581 C 0.40678 0.34081 0.14258
 C1582 C 0.36297 0.35222 0.14693
 C1583 C 0.34861 0.39323 0.13625
 C1584 C 0.37694 0.42279 0.12044
 C1585 C 0.42054 0.41258 0.11583
 C1586 C 0.43573 0.37114 0.12655
 C1587 C 0.42222 0.29947 0.15308
 C1588 C 0.46521 0.28824 0.14736
 C1589 C 0.49335 0.31764 0.13078
 C1590 C 0.47874 0.35857 0.12016
 H1591 H 0.40112 0.27533 0.16508
 H1592 H 0.47659 0.25640 0.15540
 H1593 H 0.52658 0.30865 0.12595
 H1594 H 0.50123 0.38028 0.10690
 H1595 H 0.31531 0.40253 0.14046
 H1596 H 0.36427 0.45315 0.10988
   
