data_POSCAR
  _audit_creation_date              2014-09-24
  _audit_creation_method            'ToBaCCo'
  _symmetry_space_group_name_H-M    'P1'
  _symmetry_Int_Tables_number       1
  _symmetry_cell_setting            triclinic
  loop_
  _symmetry_equiv_pos_as_xyz
 x,y,z
_cell_length_a 105.6748
_cell_length_b 106.0628
_cell_length_c 106.4738
_cell_angle_alpha 89.937900
_cell_angle_beta 89.987900
_cell_angle_gamma 89.910500
loop_
  _atom_site_label
  _atom_site_type_symbol
  _atom_site_fract_x
  _atom_site_fract_y
  _atom_site_fract_z
N1 N 0.35596 0.32019 0.32982
 N2 N 0.35465 0.32767 0.32007
 C3 C 0.36377 0.32502 0.31163
 C4 C 0.37123 0.31541 0.31640
 C5 C 0.36602 0.31261 0.32799
 H6 H 0.36498 0.32977 0.30273
 H7 H 0.36909 0.30534 0.33443
 Cu8 Cu 0.34130 0.34029 0.31930
 Cu9 Cu 0.34395 0.32018 0.34364
 Cu10 Cu 0.32030 0.34282 0.34312
 N11 N 0.32865 0.35360 0.31981
 N12 N 0.32051 0.35462 0.32908
 C13 C 0.31306 0.36473 0.32702
 C14 C 0.31675 0.37040 0.31585
 C15 C 0.32669 0.36302 0.31158
 H16 H 0.30560 0.36776 0.33327
 H17 H 0.33217 0.36440 0.30313
 N18 N 0.32176 0.33001 0.35650
 N19 N 0.33089 0.32152 0.35674
 C20 C 0.32922 0.31395 0.36674
 C21 C 0.31849 0.31779 0.37318
 C22 C 0.31403 0.32805 0.36639
 H23 H 0.33525 0.30604 0.36897
 H24 H 0.30568 0.33358 0.36837
 H25 H 0.32868 0.32786 0.33397
 H26 H 0.33942 0.33923 0.34209
 N27 N 0.35472 0.81953 -0.17115
 N28 N 0.35556 0.82906 -0.17899
 C29 C 0.36578 0.82735 -0.18639
 C30 C 0.37172 0.81612 -0.18296
 C31 C 0.36432 0.81148 -0.17322
 H32 H 0.36866 0.83384 -0.19367
 H33 H 0.36562 0.80282 -0.16803
 Cu34 Cu 0.34306 0.84264 -0.17870
 Cu35 Cu 0.34100 0.81782 -0.15914
 Cu36 Cu 0.32119 0.84357 -0.15579
 N37 N 0.32971 0.85540 -0.17856
 N38 N 0.32108 0.85555 -0.16967
 C39 C 0.31312 0.86525 -0.17165
 C40 C 0.31687 0.87163 -0.18244
 C41 C 0.32749 0.86503 -0.18654
 H42 H 0.30526 0.86746 -0.16555
 H43 H 0.33319 0.86699 -0.19474
 N44 N 0.32110 0.82920 -0.14403
 N45 N 0.32869 0.81941 -0.14536
 C46 C 0.32672 0.81131 -0.13583
 C47 C 0.31740 0.81618 -0.12806
 C48 C 0.31407 0.82756 -0.13360
 H49 H 0.33173 0.80250 -0.13469
 H50 H 0.30712 0.83424 -0.13024
 H51 H 0.32769 0.82981 -0.16738
 H52 H 0.33978 0.83692 -0.15673
 N53 N 0.85590 0.32228 -0.16936
 N54 N 0.85486 0.33003 -0.17893
 C55 C 0.86445 0.32785 -0.18699
 C56 C 0.87189 0.31816 -0.18223
 C57 C 0.86613 0.31492 -0.17099
 H58 H 0.86578 0.33282 -0.19576
 H59 H 0.86896 0.30758 -0.16454
 Cu60 Cu 0.84099 0.34207 -0.18006
 Cu61 Cu 0.84345 0.32148 -0.15598
 Cu62 Cu 0.81757 0.34127 -0.15853
 N63 N 0.82821 0.35528 -0.17903
 N64 N 0.81914 0.35490 -0.17061
 C65 C 0.81141 0.36483 -0.17227
 C66 C 0.81581 0.37194 -0.18233
 C67 C 0.82658 0.36553 -0.18633
 H68 H 0.80312 0.36657 -0.16658
 H69 H 0.83271 0.36799 -0.19406
 N70 N 0.81971 0.32924 -0.14462
 N71 N 0.82975 0.32194 -0.14350
 C72 C 0.82844 0.31472 -0.13319
 C73 C 0.81701 0.31757 -0.12748
 C74 C 0.81176 0.32689 -0.13501
 H75 H 0.83526 0.30775 -0.13018
 H76 H 0.80271 0.33148 -0.13374
 H77 H 0.82878 0.32739 -0.16698
 H78 H 0.83694 0.33993 -0.15768
 N79 N 0.85470 0.81980 0.33076
 N80 N 0.85537 0.82846 0.32196
 C81 C 0.86524 0.82587 0.31440
 C82 C 0.87113 0.81498 0.31868
 C83 C 0.86411 0.81141 0.32911
 H84 H 0.86792 0.83150 0.30638
 H85 H 0.86566 0.80330 0.33506
 Cu86 Cu 0.84321 0.84224 0.32114
 Cu87 Cu 0.84163 0.81998 0.34364
 Cu88 Cu 0.81935 0.84395 0.34200
 N89 N 0.83048 0.85548 0.32023
 N90 N 0.82111 0.85601 0.32831
 C91 C 0.81360 0.86584 0.32542
 C92 C 0.81851 0.87191 0.31492
 C93 C 0.82927 0.86499 0.31193
 H94 H 0.80521 0.86833 0.33066
 H95 H 0.83570 0.86660 0.30420
 N96 N 0.81918 0.83086 0.35517
 N97 N 0.82767 0.82175 0.35579
 C98 C 0.82505 0.81438 0.36575
 C99 C 0.81438 0.81903 0.37175
 C100 C 0.81094 0.82951 0.36473
 H101 H 0.83057 0.80623 0.36844
 H102 H 0.80301 0.83571 0.36643
 H103 H 0.82828 0.82922 0.33284
 H104 H 0.83829 0.83918 0.34333
 N105 N 0.64599 0.67839 0.33126
 N106 N 0.64585 0.66961 0.32257
 C107 C 0.63601 0.67174 0.31479
 C108 C 0.62961 0.68242 0.31885
 C109 C 0.63627 0.68635 0.32935
 H110 H 0.63371 0.66593 0.30678
 H111 H 0.63430 0.69444 0.33518
 Cu112 Cu 0.65861 0.65631 0.32226
 Cu113 Cu 0.65877 0.67906 0.34438
 Cu114 Cu 0.68203 0.65611 0.34367
 N115 N 0.67206 0.64371 0.32183
 N116 N 0.68112 0.64375 0.33028
 C117 C 0.68915 0.63421 0.32796
 C118 C 0.68499 0.62774 0.31746
 C119 C 0.67407 0.63407 0.31382
 H120 H 0.69742 0.63219 0.33358
 H121 H 0.66803 0.63185 0.30594
 N122 N 0.68140 0.66940 0.35650
 N123 N 0.67253 0.67814 0.35682
 C124 C 0.67474 0.68585 0.36662
 C125 C 0.68556 0.68177 0.37279
 C126 C 0.68949 0.67130 0.36607
 H127 H 0.66890 0.69385 0.36904
 H128 H 0.69768 0.66550 0.36793
 H129 H 0.67263 0.67024 0.33394
 H130 H 0.66284 0.66005 0.34447
 N131 N 0.64484 0.17930 -0.17113
 N132 N 0.64520 0.17081 -0.18010
 C133 C 0.63553 0.17283 -0.18807
 C134 C 0.62867 0.18317 -0.18393
 C135 C 0.63491 0.18703 -0.17312
 H136 H 0.63363 0.16715 -0.19625
 H137 H 0.63247 0.19488 -0.16712
 Cu138 Cu 0.65811 0.15776 -0.18047
 Cu139 Cu 0.65741 0.17971 -0.15767
 Cu140 Cu 0.68178 0.15779 -0.15967
 N141 N 0.67110 0.14478 -0.18068
 N142 N 0.68012 0.14459 -0.17221
 C143 C 0.68771 0.13461 -0.17431
 C144 C 0.68329 0.12818 -0.18480
 C145 C 0.67269 0.13499 -0.18856
 H146 H 0.69600 0.13247 -0.16877
 H147 H 0.66649 0.13295 -0.19635
 N148 N 0.68047 0.17019 -0.14600
 N149 N 0.67120 0.17850 -0.14515
 C150 C 0.67310 0.18566 -0.13487
 C151 C 0.68409 0.18166 -0.12894
 C152 C 0.68845 0.17181 -0.13630
 H153 H 0.66695 0.19327 -0.13198
 H154 H 0.69690 0.16626 -0.13480
 H155 H 0.67139 0.17211 -0.16839
 H156 H 0.66248 0.16084 -0.15825
 N157 N 0.14502 0.67974 -0.16842
 N158 N 0.14524 0.67172 -0.17782
 C159 C 0.13538 0.67414 -0.18547
 C160 C 0.12861 0.68427 -0.18065
 C161 C 0.13506 0.68753 -0.16979
 H162 H 0.13337 0.66896 -0.19397
 H163 H 0.13282 0.69511 -0.16339
 Cu164 Cu 0.15843 0.65892 -0.17919
 Cu165 Cu 0.15795 0.67998 -0.15541
 Cu166 Cu 0.18322 0.65959 -0.15938
 N167 N 0.17108 0.64549 -0.17896
 N168 N 0.18069 0.64589 -0.17116
 C169 C 0.18813 0.63579 -0.17304
 C170 C 0.18294 0.62854 -0.18254
 C171 C 0.17209 0.63503 -0.18610
 H172 H 0.19680 0.63401 -0.16794
 H173 H 0.16543 0.63237 -0.19332
 N174 N 0.18191 0.67133 -0.14520
 N175 N 0.17216 0.67889 -0.14347
 C176 C 0.17402 0.68557 -0.13288
 C177 C 0.18550 0.68200 -0.12764
 C178 C 0.19020 0.67292 -0.13574
 H179 H 0.16750 0.69253 -0.12926
 H180 H 0.19904 0.66786 -0.13489
 H181 H 0.17161 0.67363 -0.16721
 H182 H 0.16391 0.66136 -0.15717
 N183 N 0.14444 0.17831 0.32884
 N184 N 0.14491 0.16940 0.32031
 C185 C 0.13537 0.17109 0.31209
 C186 C 0.12850 0.18165 0.31565
 C187 C 0.13458 0.18597 0.32636
 H188 H 0.13363 0.16508 0.30409
 H189 H 0.13206 0.19407 0.33200
 Cu190 Cu 0.15802 0.15653 0.32079
 Cu191 Cu 0.15675 0.17935 0.34246
 Cu192 Cu 0.18017 0.15626 0.34336
 N193 N 0.17108 0.14363 0.32127
 N194 N 0.17972 0.14350 0.33013
 C195 C 0.18759 0.13367 0.32822
 C196 C 0.18367 0.12727 0.31753
 C197 C 0.17315 0.13392 0.31341
 H198 H 0.19556 0.13142 0.33417
 H199 H 0.16744 0.13192 0.30525
 N200 N 0.17893 0.17001 0.35582
 N201 N 0.17005 0.17876 0.35544
 C202 C 0.17178 0.18680 0.36506
 C203 C 0.18227 0.18297 0.37189
 C204 C 0.18654 0.17226 0.36572
 H205 H 0.16586 0.19490 0.36688
 H206 H 0.19459 0.16651 0.36824
 H207 H 0.17149 0.17044 0.33317
 H208 H 0.16110 0.16035 0.34313
 N209 N 0.64350 0.32070 0.67035
 N210 N 0.64376 0.32952 0.67899
 C211 C 0.63399 0.32773 0.68695
 C212 C 0.62723 0.31720 0.68306
 C213 C 0.63362 0.31304 0.67248
 H214 H 0.63198 0.33362 0.69498
 H215 H 0.63138 0.30495 0.66675
 Cu216 Cu 0.65712 0.34222 0.67892
 Cu217 Cu 0.65600 0.31951 0.65701
 Cu218 Cu 0.67960 0.34211 0.65648
 N219 N 0.67032 0.35506 0.67840
 N220 N 0.67907 0.35489 0.66963
 C221 C 0.68707 0.36457 0.67146
 C222 C 0.68318 0.37125 0.68198
 C223 C 0.67248 0.36489 0.68612
 H224 H 0.69517 0.36651 0.66559
 H225 H 0.66670 0.36722 0.69416
 N226 N 0.67848 0.32839 0.64399
 N227 N 0.66945 0.31982 0.64424
 C228 C 0.67120 0.31174 0.63465
 C229 C 0.68185 0.31534 0.62798
 C230 C 0.68621 0.32597 0.63421
 H231 H 0.66514 0.30379 0.63272
 H232 H 0.69442 0.33154 0.63184
 H233 H 0.67061 0.32821 0.66662
 H234 H 0.66045 0.33852 0.65657
 N235 N 0.64330 0.82047 1.16951
 N236 N 0.64336 0.82907 1.17837
 C237 C 0.63366 0.82688 1.18629
 C238 C 0.62715 0.81631 1.18216
 C239 C 0.63359 0.81254 1.17146
 H240 H 0.63158 0.83251 1.19448
 H241 H 0.63155 0.80450 1.16559
 Cu242 Cu 0.65621 0.84217 1.17864
 Cu243 Cu 0.65611 0.81972 1.15645
 Cu244 Cu 0.68115 0.84060 1.15903
 N245 N 0.66959 0.85473 1.17900
 N246 N 0.67931 0.85415 1.17131
 C247 C 0.68719 0.86381 1.17378
 C248 C 0.68214 0.87086 1.18357
 C249 C 0.67095 0.86477 1.18659
 H250 H 0.69599 0.86544 1.16888
 H251 H 0.66429 0.86737 1.19383
 N252 N 0.67977 0.82812 1.14532
 N253 N 0.67008 0.82037 1.14430
 C254 C 0.67173 0.81304 1.13414
 C255 C 0.68302 0.81626 1.12840
 C256 C 0.68785 0.82592 1.13575
 H257 H 0.66516 0.80584 1.13120
 H258 H 0.69663 0.83093 1.13433
 H259 H 0.66986 0.82712 1.16783
 H260 H 0.66198 0.83847 1.15688
 N261 N 0.14434 0.32144 1.17161
 N262 N 0.14480 0.33027 1.18024
 C263 C 0.13525 0.32853 1.18842
 C264 C 0.12839 0.31802 1.18477
 C265 C 0.13449 0.31378 1.17402
 H266 H 0.13347 0.33447 1.19646
 H267 H 0.13197 0.30574 1.16832
 Cu268 Cu 0.15788 0.34316 1.18004
 Cu269 Cu 0.15659 0.32053 1.15790
 Cu270 Cu 0.17968 0.34372 1.15716
 N271 N 0.17082 0.35620 1.17941
 N272 N 0.17929 0.35633 1.17039
 C273 C 0.18717 0.36611 1.17214
 C274 C 0.18351 0.37253 1.18287
 C275 C 0.17304 0.36593 1.18723
 H276 H 0.19503 0.36828 1.16603
 H277 H 0.16752 0.36798 1.19552
 N278 N 0.17857 0.33019 1.14460
 N279 N 0.16985 0.32131 1.14483
 C280 C 0.17178 0.31346 1.13505
 C281 C 0.18222 0.31761 1.12832
 C282 C 0.18624 0.32825 1.13471
 H283 H 0.16599 0.30533 1.13300
 H284 H 0.19423 0.33414 1.13240
 H285 H 0.17114 0.32936 1.16728
 H286 H 0.16053 0.33955 1.15758
 N287 N 0.14367 0.82105 0.67027
 N288 N 0.14341 0.82988 0.67890
 C289 C 0.13362 0.82777 0.68668
 C290 C 0.12732 0.81702 0.68277
 C291 C 0.13401 0.81302 0.67228
 H292 H 0.13136 0.83359 0.69469
 H293 H 0.13209 0.80483 0.66655
 Cu294 Cu 0.15598 0.84321 0.67943
 Cu295 Cu 0.15670 0.82056 0.65729
 Cu296 Cu 0.17969 0.84385 0.65841
 N297 N 0.16910 0.85601 0.68006
 N298 N 0.17836 0.85621 0.67184
 C299 C 0.18611 0.86591 0.67447
 C300 C 0.18149 0.87218 0.68494
 C301 C 0.17066 0.86558 0.68821
 H302 H 0.19450 0.86816 0.66913
 H303 H 0.16436 0.86756 0.69596
 N304 N 0.17943 0.83055 0.64553
 N305 N 0.17069 0.82170 0.64504
 C306 C 0.17318 0.81407 0.63522
 C307 C 0.18404 0.81831 0.62923
 C308 C 0.18769 0.82879 0.63608
 H309 H 0.16751 0.80602 0.63266
 H310 H 0.19580 0.83473 0.63436
 H311 H 0.17040 0.82953 0.66786
 H312 H 0.16061 0.83964 0.65726
 N313 N 0.35563 0.67859 0.67100
 N314 N 0.35502 0.66974 0.67960
 C315 C 0.36458 0.67133 0.68781
 C316 C 0.37157 0.68178 0.68418
 C317 C 0.36556 0.68612 0.67343
 H318 H 0.36627 0.66534 0.69584
 H319 H 0.36814 0.69417 0.66777
 Cu320 Cu 0.34174 0.65706 0.67929
 Cu321 Cu 0.34344 0.67983 0.65734
 Cu322 Cu 0.31997 0.65708 0.65627
 N323 N 0.32866 0.64419 0.67841
 N324 N 0.32020 0.64427 0.66937
 C325 C 0.31224 0.63452 0.67097
 C326 C 0.31585 0.62790 0.68162
 C327 C 0.32635 0.63435 0.68608
 H328 H 0.30437 0.63250 0.66483
 H329 H 0.33187 0.63210 0.69432
 N330 N 0.32131 0.67081 0.64387
 N331 N 0.33023 0.67947 0.64427
 C332 C 0.32850 0.68760 0.63470
 C333 C 0.31794 0.68391 0.62791
 C334 C 0.31366 0.67320 0.63404
 H335 H 0.33444 0.69568 0.63290
 H336 H 0.30553 0.66756 0.63159
 H337 H 0.32865 0.67112 0.66660
 H338 H 0.33914 0.66085 0.65686
 N339 N 0.35528 0.17839 1.17031
 N340 N 0.35474 0.16974 1.17914
 C341 C 0.36429 0.17159 1.18730
 C342 C 0.37123 0.18199 1.18342
 C343 C 0.36518 0.18603 1.17256
 H344 H 0.36600 0.16583 1.19549
 H345 H 0.36772 0.19397 1.16672
 Cu346 Cu 0.34150 0.15698 1.17920
 Cu347 Cu 0.34299 0.17928 1.15667
 Cu348 Cu 0.31963 0.15639 1.15635
 N349 N 0.32845 0.14402 1.17872
 N350 N 0.31997 0.14390 1.16971
 C351 C 0.31203 0.13418 1.17153
 C352 C 0.31566 0.12778 1.18229
 C353 C 0.32617 0.13433 1.18660
 H354 H 0.30416 0.13202 1.16542
 H355 H 0.33172 0.13224 1.19486
 N356 N 0.32080 0.16979 1.14364
 N357 N 0.32966 0.17853 1.14370
 C358 C 0.32771 0.18638 1.13391
 C359 C 0.31709 0.18238 1.12737
 C360 C 0.31300 0.17183 1.13387
 H361 H 0.33357 0.19443 1.13175
 H362 H 0.30483 0.16612 1.13176
 H363 H 0.32835 0.17075 1.16626
 H364 H 0.33882 0.16029 1.15669
 N365 N 0.85545 0.67809 1.16983
 N366 N 0.85505 0.66918 1.17840
 C367 C 0.86459 0.67093 1.18659
 C368 C 0.87138 0.68151 1.18299
 C369 C 0.86526 0.68579 1.17227
 H370 H 0.86638 0.66496 1.19462
 H371 H 0.86767 0.69394 1.16666
 Cu372 Cu 0.84206 0.65620 1.17814
 Cu373 Cu 0.84305 0.67924 1.15631
 Cu374 Cu 0.81943 0.65662 1.15602
 N375 N 0.82854 0.64373 1.17795
 N376 N 0.81977 0.64399 1.16923
 C377 C 0.81162 0.63447 1.17118
 C378 C 0.81544 0.62780 1.18172
 C379 C 0.82625 0.63400 1.18577
 H380 H 0.80348 0.63261 1.16533
 H381 H 0.83205 0.63161 1.19378
 N382 N 0.82061 0.67013 1.14343
 N383 N 0.82959 0.67875 1.14344
 C384 C 0.82766 0.68667 1.13371
 C385 C 0.81693 0.68284 1.12724
 C386 C 0.81276 0.67232 1.13374
 H387 H 0.83361 0.69465 1.13153
 H388 H 0.80452 0.66669 1.13166
 H389 H 0.82865 0.67055 1.16615
 H390 H 0.83864 0.66034 1.15586
 N391 N 0.85548 0.17876 0.67160
 N392 N 0.85473 0.16978 0.68006
 C393 C 0.86426 0.17113 0.68834
 C394 C 0.87139 0.18156 0.68491
 C395 C 0.86548 0.18614 0.67421
 H396 H 0.86587 0.16498 0.69627
 H397 H 0.86818 0.19424 0.66868
 Cu398 Cu 0.84131 0.15724 0.67942
 Cu399 Cu 0.84346 0.18029 0.65783
 Cu400 Cu 0.82006 0.15753 0.65586
 N401 N 0.82814 0.14448 0.67813
 N402 N 0.82007 0.14448 0.66874
 C403 C 0.81215 0.13464 0.67002
 C404 C 0.81535 0.12815 0.68085
 C405 C 0.82555 0.13468 0.68576
 H406 H 0.80444 0.13252 0.66369
 H407 H 0.83075 0.13236 0.69420
 N408 N 0.82160 0.17155 0.64377
 N409 N 0.83046 0.18025 0.64458
 C410 C 0.82889 0.18861 0.63518
 C411 C 0.81851 0.18505 0.62807
 C412 C 0.81415 0.17416 0.63384
 H413 H 0.83485 0.19674 0.63370
 H414 H 0.80611 0.16855 0.63105
 H415 H 0.82844 0.17136 0.66660
 H416 H 0.83919 0.16126 0.65696
 N417 N 0.32062 0.35627 0.66980
 N418 N 0.32951 0.35585 0.67839
 C419 C 0.32784 0.36546 0.68647
 C420 C 0.31733 0.37237 0.68275
 C421 C 0.31300 0.36620 0.67209
 H422 H 0.33383 0.36727 0.69448
 H423 H 0.30491 0.36869 0.66641
 Cu424 Cu 0.34237 0.34274 0.67820
 Cu425 Cu 0.31958 0.34382 0.65637
 Cu426 Cu 0.34262 0.32036 0.65596
 N427 N 0.35523 0.32964 0.67797
 N428 N 0.35536 0.32092 0.66923
 C429 C 0.36523 0.31310 0.67129
 C430 C 0.37164 0.31713 0.68193
 C431 C 0.36495 0.32766 0.68589
 H432 H 0.36751 0.30509 0.66546
 H433 H 0.36696 0.33346 0.69398
 N434 N 0.32890 0.32147 0.64340
 N435 N 0.32017 0.33038 0.64358
 C436 C 0.31214 0.32854 0.63394
 C437 C 0.31594 0.31795 0.62732
 C438 C 0.32662 0.31373 0.63362
 H439 H 0.30408 0.33448 0.63195
 H440 H 0.33232 0.30560 0.63132
 H441 H 0.32840 0.32927 0.66592
 H442 H 0.33862 0.33942 0.65591
 N443 N 0.32122 0.85462 0.17067
 N444 N 0.33032 0.85484 0.17907
 C445 C 0.32827 0.86444 0.18705
 C446 C 0.31729 0.87066 0.18353
 C447 C 0.31308 0.86413 0.17303
 H448 H 0.33438 0.86672 0.19485
 H449 H 0.30472 0.86608 0.16753
 Cu450 Cu 0.34398 0.84257 0.17908
 Cu451 Cu 0.32073 0.84196 0.15740
 Cu452 Cu 0.34456 0.81941 0.15754
 N453 N 0.35690 0.82952 0.17926
 N454 N 0.35713 0.82050 0.17083
 C455 C 0.36693 0.81274 0.17327
 C456 C 0.37319 0.81710 0.18386
 C457 C 0.36651 0.82779 0.18737
 H458 H 0.36924 0.80451 0.16775
 H459 H 0.36840 0.83384 0.19530
 N460 N 0.33102 0.81985 0.14485
 N461 N 0.32191 0.82836 0.14478
 C462 C 0.31413 0.82602 0.13503
 C463 C 0.31855 0.81551 0.12862
 C464 C 0.32929 0.81189 0.13516
 H465 H 0.30583 0.83154 0.13280
 H466 H 0.33543 0.80403 0.13306
 H467 H 0.33019 0.82824 0.16755
 H468 H 0.33990 0.83837 0.15692
 N469 N 0.82060 0.35558 0.16834
 N470 N 0.82946 0.35569 0.17697
 C471 C 0.82728 0.36534 0.18490
 C472 C 0.81645 0.37165 0.18102
 C473 C 0.81250 0.36514 0.17045
 H474 H 0.83313 0.36756 0.19292
 H475 H 0.80429 0.36709 0.16473
 Cu476 Cu 0.84287 0.34309 0.17710
 Cu477 Cu 0.82001 0.34295 0.15516
 Cu478 Cu 0.84317 0.31981 0.15549
 N479 N 0.85556 0.32979 0.17734
 N480 N 0.85567 0.32074 0.16892
 C481 C 0.86536 0.31285 0.17139
 C482 C 0.87169 0.31716 0.18197
 C483 C 0.86515 0.32795 0.18545
 H484 H 0.86756 0.30459 0.16589
 H485 H 0.86715 0.33401 0.19334
 N486 N 0.82968 0.32056 0.14268
 N487 N 0.82091 0.32942 0.14259
 C488 C 0.81303 0.32741 0.13289
 C489 C 0.81695 0.31674 0.12648
 C490 C 0.82758 0.31266 0.13299
 H491 H 0.80495 0.33327 0.13074
 H492 H 0.83333 0.30451 0.13088
 H493 H 0.82909 0.32893 0.16538
 H494 H 0.83920 0.33882 0.15488
 N495 N 0.82013 0.85562 0.66957
 N496 N 0.82843 0.85562 0.67873
 C497 C 0.82592 0.86535 0.68647
 C498 C 0.81544 0.87180 0.68191
 C499 C 0.81206 0.86530 0.67113
 H500 H 0.83130 0.86753 0.69480
 H501 H 0.80432 0.86741 0.66485
 Cu502 Cu 0.84166 0.84284 0.67962
 Cu503 Cu 0.82027 0.84302 0.65634
 Cu504 Cu 0.84396 0.82040 0.65730
 N505 N 0.85512 0.83031 0.67988
 N506 N 0.85598 0.82159 0.67116
 C507 C 0.86604 0.81419 0.67363
 C508 C 0.87185 0.81848 0.68451
 C509 C 0.86461 0.82875 0.68817
 H510 H 0.86887 0.80628 0.66790
 H511 H 0.86608 0.83465 0.69630
 N512 N 0.83084 0.82089 0.64408
 N513 N 0.82188 0.82955 0.64378
 C514 C 0.81435 0.82742 0.63384
 C515 C 0.81870 0.81689 0.62750
 C516 C 0.82921 0.81299 0.63430
 H517 H 0.80618 0.83308 0.63151
 H518 H 0.83522 0.80500 0.63229
 H519 H 0.82905 0.82879 0.66653
 H520 H 0.83956 0.83932 0.65710
 N521 N 0.67964 0.64430 0.67015
 N522 N 0.67121 0.64468 0.67921
 C523 C 0.67332 0.63496 0.68712
 C524 C 0.68369 0.62816 0.68279
 C525 C 0.68738 0.63442 0.67197
 H526 H 0.66774 0.63303 0.69541
 H527 H 0.69513 0.63201 0.66581
 Cu528 Cu 0.65829 0.65784 0.67970
 Cu529 Cu 0.68020 0.65665 0.65671
 Cu530 Cu 0.65687 0.67948 0.65640
 N531 N 0.64487 0.67046 0.67894
 N532 N 0.64436 0.67876 0.66979
 C533 C 0.63429 0.68632 0.67153
 C534 C 0.62807 0.68264 0.68239
 C535 C 0.63508 0.67248 0.68682
 H536 H 0.63179 0.69399 0.66532
 H537 H 0.63325 0.66699 0.69518
 N538 N 0.67040 0.67865 0.64369
 N539 N 0.67929 0.66992 0.64386
 C540 C 0.68725 0.67190 0.63420
 C541 C 0.68323 0.68240 0.62755
 C542 C 0.67248 0.68642 0.63388
 H543 H 0.69548 0.66617 0.63226
 H544 H 0.66661 0.69445 0.63157
 H545 H 0.67141 0.67120 0.66632
 H546 H 0.66092 0.66045 0.65709
 N547 N 0.67983 0.14419 0.16852
 N548 N 0.67148 0.14391 0.17766
 C549 C 0.67408 0.13409 0.18527
 C550 C 0.68467 0.12785 0.18067
 C551 C 0.68802 0.13458 0.17000
 H552 H 0.66871 0.13174 0.19358
 H553 H 0.69589 0.13275 0.16379
 Cu554 Cu 0.65807 0.15646 0.17870
 Cu555 Cu 0.67984 0.15724 0.15564
 Cu556 Cu 0.65828 0.18156 0.15945
 N557 N 0.64518 0.16955 0.17983
 N558 N 0.64518 0.17918 0.17205
 C559 C 0.63531 0.18674 0.17473
 C560 C 0.62879 0.18163 0.18478
 C561 C 0.63535 0.17071 0.18780
 H562 H 0.63321 0.19545 0.16987
 H563 H 0.63305 0.16409 0.19517
 N564 N 0.67029 0.18080 0.14535
 N565 N 0.67837 0.17144 0.14378
 C566 C 0.68523 0.17362 0.13335
 C567 C 0.68129 0.18491 0.12806
 C568 C 0.67177 0.18916 0.13595
 H569 H 0.69259 0.16744 0.12992
 H570 H 0.66634 0.19775 0.13500
 H571 H 0.67250 0.17045 0.16752
 H572 H 0.66093 0.16250 0.15687
 N573 N 0.17856 0.64349 0.17063
 N574 N 0.16939 0.64380 0.17895
 C575 C 0.17104 0.63431 0.18719
 C576 C 0.18183 0.62763 0.18387
 C577 C 0.18632 0.63378 0.17327
 H578 H 0.16486 0.63246 0.19506
 H579 H 0.19468 0.63147 0.16789
 Cu580 Cu 0.15628 0.65670 0.17839
 Cu581 Cu 0.17991 0.65580 0.15714
 Cu582 Cu 0.15718 0.67936 0.15626
 N583 N 0.14385 0.67025 0.17794
 N584 N 0.14425 0.67904 0.16926
 C585 C 0.13471 0.68723 0.17113
 C586 C 0.12790 0.68342 0.18160
 C587 C 0.13402 0.67258 0.18567
 H588 H 0.13296 0.69539 0.16530
 H589 H 0.13156 0.66682 0.19367
 N590 N 0.17101 0.67811 0.14391
 N591 N 0.17965 0.66913 0.14423
 C592 C 0.18782 0.67090 0.13469
 C593 C 0.18418 0.68153 0.12800
 C594 C 0.17345 0.68582 0.13416
 H595 H 0.19588 0.66491 0.13282
 H596 H 0.16784 0.69400 0.13178
 H597 H 0.17088 0.67014 0.16676
 H598 H 0.16092 0.66020 0.15620
 N599 N 0.17940 0.14388 0.66951
 N600 N 0.17058 0.14388 0.67820
 C601 C 0.17256 0.13414 0.68606
 C602 C 0.18320 0.12759 0.68213
 C603 C 0.18729 0.13410 0.67156
 H604 H 0.16672 0.13206 0.69412
 H605 H 0.19544 0.13198 0.66580
 Cu606 Cu 0.15748 0.15676 0.67858
 Cu607 Cu 0.18003 0.15675 0.65636
 Cu608 Cu 0.15653 0.17973 0.65698
 N609 N 0.14434 0.16961 0.67887
 N610 N 0.14402 0.17858 0.67038
 C611 C 0.13416 0.18626 0.67276
 C612 C 0.12791 0.18189 0.68336
 C613 C 0.13470 0.17128 0.68697
 H614 H 0.13180 0.19445 0.66718
 H615 H 0.13283 0.16526 0.69494
 N616 N 0.17002 0.17929 0.64420
 N617 N 0.17896 0.17059 0.64391
 C618 C 0.18674 0.17300 0.63416
 C619 C 0.18251 0.18375 0.62800
 C620 C 0.17187 0.18743 0.63467
 H621 H 0.19491 0.16736 0.63178
 H622 H 0.16589 0.19547 0.63278
 H623 H 0.17106 0.17076 0.66645
 H624 H 0.16087 0.16071 0.65626
 N625 N 0.31905 0.64509 0.33186
 N626 N 0.32751 0.64473 0.32283
 C627 C 0.32501 0.63487 0.31527
 C628 C 0.31437 0.62869 0.31979
 C629 C 0.31088 0.63549 0.33036
 H630 H 0.33052 0.63242 0.30709
 H631 H 0.30297 0.63367 0.33653
 Cu632 Cu 0.34089 0.65726 0.32179
 Cu633 Cu 0.31917 0.65798 0.34488
 Cu634 Cu 0.34324 0.68010 0.34352
 N635 N 0.35446 0.66962 0.32128
 N636 N 0.35530 0.67850 0.32983
 C637 C 0.36539 0.68579 0.32731
 C638 C 0.37126 0.68127 0.31657
 C639 C 0.36402 0.67097 0.31302
 H640 H 0.36819 0.69378 0.33293
 H641 H 0.36554 0.66492 0.30500
 N642 N 0.33012 0.68016 0.35665
 N643 N 0.32094 0.67176 0.35718
 C644 C 0.31346 0.67442 0.36707
 C645 C 0.31812 0.68503 0.37309
 C646 C 0.32872 0.68837 0.36618
 H647 H 0.30519 0.66904 0.36964
 H648 H 0.33493 0.69625 0.36788
 H649 H 0.32819 0.67169 0.33442
 H650 H 0.33844 0.66121 0.34421
 N651 N 0.31904 0.14448 0.83111
 N652 N 0.32768 0.14447 0.82225
 C653 C 0.32554 0.13467 0.81449
 C654 C 0.31494 0.12819 0.81872
 C655 C 0.31111 0.13475 0.82931
 H656 H 0.33125 0.13246 0.80637
 H657 H 0.30314 0.13267 0.83531
 Cu658 Cu 0.34074 0.15738 0.82177
 Cu659 Cu 0.31854 0.15711 0.84429
 Cu660 Cu 0.34194 0.17998 0.84395
 N661 N 0.35397 0.17012 0.82179
 N662 N 0.35441 0.17892 0.83046
 C663 C 0.36439 0.18648 0.82819
 C664 C 0.37058 0.18221 0.81751
 C665 C 0.36365 0.17179 0.81374
 H666 H 0.36690 0.19449 0.83393
 H667 H 0.36544 0.16588 0.80568
 N668 N 0.32844 0.17937 0.85679
 N669 N 0.31957 0.17064 0.85684
 C670 C 0.31169 0.17272 0.86653
 C671 C 0.31571 0.18331 0.87298
 C672 C 0.32640 0.18727 0.86650
 H673 H 0.30359 0.16693 0.86869
 H674 H 0.33223 0.19534 0.86864
 H675 H 0.32743 0.17133 0.83431
 H676 H 0.33774 0.16099 0.84418
 N677 N 0.81925 0.64401 0.83042
 N678 N 0.82791 0.64395 0.82156
 C679 C 0.82570 0.63417 0.81378
 C680 C 0.81506 0.62775 0.81799
 C681 C 0.81126 0.63433 0.82859
 H682 H 0.83142 0.63191 0.80568
 H683 H 0.80326 0.63231 0.83457
 Cu684 Cu 0.84112 0.65679 0.82110
 Cu685 Cu 0.81881 0.65656 0.84374
 Cu686 Cu 0.84251 0.67901 0.84353
 N687 N 0.85455 0.66941 0.82128
 N688 N 0.85496 0.67801 0.83013
 C689 C 0.86489 0.68564 0.82813
 C690 C 0.87117 0.68168 0.81741
 C691 C 0.86429 0.67131 0.81331
 H692 H 0.86724 0.69357 0.83403
 H693 H 0.86619 0.66561 0.80512
 N694 N 0.82910 0.67855 0.85633
 N695 N 0.82002 0.67004 0.85641
 C696 C 0.81227 0.67234 0.86621
 C697 C 0.81668 0.68283 0.87262
 C698 C 0.82739 0.68647 0.86604
 H699 H 0.80401 0.66680 0.86846
 H700 H 0.83348 0.69436 0.86810
 H701 H 0.82781 0.67060 0.83381
 H702 H 0.83799 0.66001 0.84355
 N703 N 0.82065 0.14309 0.32932
 N704 N 0.82970 0.14336 0.32087
 C705 C 0.82799 0.13380 0.31274
 C706 C 0.81728 0.12712 0.31627
 C707 C 0.81290 0.13334 0.32687
 H708 H 0.83406 0.13192 0.30479
 H709 H 0.80464 0.13105 0.33238
 Cu710 Cu 0.84273 0.15629 0.32125
 Cu711 Cu 0.81948 0.15552 0.34271
 Cu712 Cu 0.84239 0.17897 0.34333
 N713 N 0.85539 0.16957 0.32156
 N714 N 0.85527 0.17841 0.33018
 C715 C 0.86500 0.18635 0.32810
 C716 C 0.87160 0.18227 0.31758
 C717 C 0.86515 0.17159 0.31370
 H718 H 0.86706 0.19449 0.33383
 H719 H 0.86732 0.16574 0.30568
 N720 N 0.82854 0.17784 0.35577
 N721 N 0.81988 0.16890 0.35550
 C722 C 0.81167 0.17075 0.36499
 C723 C 0.81528 0.18139 0.37163
 C724 C 0.82604 0.18562 0.36547
 H725 H 0.80361 0.16480 0.36685
 H726 H 0.83161 0.19382 0.36780
 H727 H 0.82851 0.16993 0.33314
 H728 H 0.83856 0.15990 0.34353
 N729 N 0.67921 0.35535 0.33029
 N730 N 0.67048 0.35566 0.32152
 C731 C 0.67282 0.36542 0.31376
 C732 C 0.68361 0.37159 0.31787
 C733 C 0.68738 0.36488 0.32842
 H734 H 0.66709 0.36780 0.30569
 H735 H 0.69551 0.36669 0.33429
 Cu736 Cu 0.65700 0.34318 0.32095
 Cu737 Cu 0.67947 0.34256 0.34338
 Cu738 Cu 0.65599 0.31986 0.34248
 N739 N 0.64431 0.32991 0.32025
 N740 N 0.64380 0.32101 0.32882
 C741 C 0.63416 0.31318 0.32613
 C742 C 0.62837 0.31733 0.31522
 C743 C 0.63509 0.32798 0.31175
 H744 H 0.63172 0.30491 0.33157
 H745 H 0.63332 0.33390 0.30367
 N746 N 0.66920 0.32027 0.35553
 N747 N 0.67818 0.32888 0.35584
 C748 C 0.68588 0.32648 0.36564
 C749 C 0.68157 0.31582 0.37184
 C750 C 0.67094 0.31217 0.36513
 H751 H 0.69407 0.33206 0.36800
 H752 H 0.66497 0.30414 0.36699
 H753 H 0.67045 0.32880 0.33286
 H754 H 0.66030 0.33881 0.34322
 N755 N 0.67871 0.85650 0.82964
 N756 N 0.66969 0.85637 0.82115
 C757 C 0.67159 0.86590 0.81301
 C758 C 0.68239 0.87240 0.81656
 C759 C 0.68663 0.86612 0.82720
 H760 H 0.66558 0.86787 0.80504
 H761 H 0.69491 0.86829 0.83274
 Cu762 Cu 0.65640 0.84369 0.82137
 Cu763 Cu 0.67965 0.84406 0.84310
 Cu764 Cu 0.65662 0.82088 0.84332
 N765 N 0.64383 0.83029 0.82147
 N766 N 0.64400 0.82145 0.83010
 C767 C 0.63443 0.81338 0.82804
 C768 C 0.62783 0.81732 0.81749
 C769 C 0.63411 0.82812 0.81357
 H770 H 0.63253 0.80520 0.83378
 H771 H 0.63182 0.83396 0.80557
 N772 N 0.67014 0.82182 0.85593
 N773 N 0.67894 0.83062 0.85592
 C774 C 0.68681 0.82858 0.86568
 C775 C 0.68277 0.81796 0.87215
 C776 C 0.67217 0.81397 0.86565
 H777 H 0.69487 0.83442 0.86790
 H778 H 0.66638 0.80586 0.86775
 H779 H 0.67064 0.82998 0.83315
 H780 H 0.66058 0.83999 0.84361
 N781 N 0.17874 0.35636 0.83056
 N782 N 0.16984 0.35633 0.82195
 C783 C 0.17178 0.36598 0.81399
 C784 C 0.18247 0.37250 0.81777
 C785 C 0.18663 0.36608 0.82837
 H786 H 0.16585 0.36803 0.80598
 H787 H 0.19479 0.36826 0.83408
 Cu788 Cu 0.15660 0.34367 0.82177
 Cu789 Cu 0.17942 0.34367 0.84381
 Cu790 Cu 0.15619 0.32057 0.84338
 N791 N 0.14384 0.33050 0.82152
 N792 N 0.14370 0.32149 0.82997
 C793 C 0.13398 0.31367 0.82755
 C794 C 0.12767 0.31799 0.81696
 C795 C 0.13425 0.32872 0.81342
 H796 H 0.13174 0.30544 0.83310
 H797 H 0.13226 0.33478 0.80550
 N798 N 0.16962 0.32124 0.85617
 N799 N 0.17846 0.33001 0.85638
 C800 C 0.18621 0.32781 0.86619
 C801 C 0.18207 0.31713 0.87249
 C802 C 0.17151 0.31326 0.86582
 H803 H 0.19430 0.33356 0.86853
 H804 H 0.16563 0.30518 0.86779
 H805 H 0.17049 0.32966 0.83363
 H806 H 0.16033 0.33959 0.84402
 N807 N 0.17895 0.85517 0.33007
 N808 N 0.16993 0.85556 0.32159
 C809 C 0.17206 0.86535 0.31380
 C810 C 0.18301 0.87147 0.31760
 C811 C 0.18709 0.86468 0.32799
 H812 H 0.16608 0.86781 0.30594
 H813 H 0.19539 0.86644 0.33363
 Cu814 Cu 0.15633 0.84315 0.32150
 Cu815 Cu 0.17962 0.84238 0.34319
 Cu816 Cu 0.15606 0.81980 0.34290
 N817 N 0.14344 0.83002 0.32127
 N818 N 0.14344 0.82098 0.32971
 C819 C 0.13375 0.81313 0.32747
 C820 C 0.12721 0.81739 0.31702
 C821 C 0.13368 0.82817 0.31332
 H822 H 0.13174 0.80483 0.33301
 H823 H 0.13147 0.83421 0.30544
 N824 N 0.16960 0.82009 0.35553
 N825 N 0.17863 0.82865 0.35568
 C826 C 0.18646 0.82621 0.36538
 C827 C 0.18215 0.81558 0.37166
 C828 C 0.17143 0.81200 0.36510
 H829 H 0.19470 0.83177 0.36766
 H830 H 0.16536 0.80407 0.36710
 H831 H 0.17025 0.82881 0.33291
 H832 H 0.16047 0.83880 0.34364
 C833 C 0.24575 0.99918 0.25474
 C834 C 0.25471 0.99920 0.24552
 C835 C 0.26042 1.01110 0.24082
 C836 C 0.25930 0.98735 0.23962
 C837 C 0.23946 0.98738 0.25897
 C838 C 0.24168 1.01096 0.26114
 C839 C 0.25285 1.02088 0.23604
 C840 C 0.25839 1.03202 0.23169
 C841 C 0.27162 1.03354 0.23194
 C842 C 0.27916 1.02364 0.23657
 C843 C 0.27361 1.01253 0.24092
 C844 C 0.25894 0.98608 0.22651
 C845 C 0.26322 0.97503 0.22077
 C846 C 0.26802 0.96502 0.22803
 C847 C 0.26852 0.96639 0.24117
 C848 C 0.26427 0.97747 0.24690
 C849 C 0.23944 0.98429 0.27177
 C850 C 0.23354 0.97332 0.27598
 C851 C 0.22749 0.96519 0.26747
 C852 C 0.22735 0.96840 0.25465
 C853 C 0.23322 0.97944 0.25044
 C854 C 0.25044 1.01887 0.26715
 C855 C 0.24638 1.02989 0.27313
 C856 C 0.23347 1.03314 0.27332
 C857 C 0.22472 1.02505 0.26750
 C858 C 0.22879 1.01408 0.26150
 H859 H 0.24266 1.01988 0.23568
 H860 H 0.25232 1.03950 0.22825
 H861 H 0.28937 1.02442 0.23666
 H862 H 0.27961 1.00503 0.24445
 H863 H 0.25527 0.99365 0.22071
 H864 H 0.26294 0.97439 0.21062
 H865 H 0.26485 0.97834 0.25701
 H866 H 0.24408 0.99037 0.27852
 H867 H 0.23359 0.97127 0.28595
 H868 H 0.22283 0.96230 0.24784
 H869 H 0.23290 0.98178 0.24055
 H870 H 0.26041 1.01650 0.26719
 H871 H 0.25336 1.03595 0.27747
 H872 H 0.21469 1.02713 0.26768
 H873 H 0.22187 1.00804 0.25704
 H874 H 0.27210 0.95884 0.24703
 C875 C 0.24492 0.50019 0.75468
 C876 C 0.25396 0.50017 0.74554
 C877 C 0.25974 0.51206 0.74087
 C878 C 0.25857 0.48826 0.73974
 C879 C 0.24061 0.48832 0.76076
 C880 C 0.23885 0.51206 0.75912
 C881 C 0.26037 0.51438 0.72792
 C882 C 0.26605 0.52535 0.72337
 C883 C 0.27127 0.53421 0.73169
 C884 C 0.27073 0.53181 0.74468
 C885 C 0.26509 0.52081 0.74922
 C886 C 0.25008 0.47950 0.73459
 C887 C 0.25456 0.46848 0.72891
 C888 C 0.26763 0.46607 0.72813
 C889 C 0.27610 0.47493 0.73319
 C890 C 0.27161 0.48591 0.73891
 C891 C 0.24932 0.47989 0.76616
 C892 C 0.24511 0.46887 0.77202
 C893 C 0.23211 0.46613 0.77270
 C894 C 0.22343 0.47470 0.76745
 C895 C 0.22764 0.48568 0.76156
 C896 C 0.23805 0.51454 0.77204
 C897 C 0.23203 0.52541 0.77638
 C898 C 0.22665 0.53408 0.76791
 C899 C 0.22739 0.53154 0.75496
 C900 C 0.23337 0.52060 0.75061
 H901 H 0.25643 0.50769 0.72131
 H902 H 0.26653 0.52679 0.71331
 H903 H 0.27459 0.53849 0.75134
 H904 H 0.26493 0.51908 0.75924
 H905 H 0.23998 0.48122 0.73492
 H906 H 0.24778 0.46181 0.72520
 H907 H 0.27834 0.49260 0.74270
 H908 H 0.25936 0.48187 0.76587
 H909 H 0.25204 0.46243 0.77591
 H910 H 0.21334 0.47300 0.76803
 H911 H 0.22076 0.49214 0.75759
 H912 H 0.24210 0.50801 0.77877
 H913 H 0.23144 0.52694 0.78642
 H914 H 0.22344 0.53806 0.74818
 H915 H 0.23364 0.51876 0.74062
 H916 H 0.28622 0.47349 0.73255
 C917 C 0.74505 -0.00069 0.24498
 C918 C 0.75362 -0.00063 0.25454
 C919 C 0.75907 -0.01247 0.25967
 C920 C 0.75799 0.01126 0.26049
 C921 C 0.73974 0.01116 0.23970
 C922 C 0.74036 -0.01262 0.23937
 C923 C 0.75786 -0.01509 0.27253
 C924 C 0.76276 -0.02622 0.27755
 C925 C 0.76903 -0.03497 0.26982
 C926 C 0.77046 -0.03222 0.25697
 C927 C 0.76556 -0.02104 0.25195
 C928 C 0.74940 0.01984 0.26582
 C929 C 0.75375 0.03098 0.27135
 C930 C 0.76678 0.03366 0.27178
 C931 C 0.77534 0.02492 0.26663
 C932 C 0.77098 0.01384 0.26107
 C933 C 0.74761 0.02063 0.23482
 C934 C 0.74239 0.03181 0.23012
 C935 C 0.72920 0.03366 0.23013
 C936 C 0.72137 0.02404 0.23481
 C937 C 0.72659 0.01290 0.23950
 C938 C 0.74152 -0.01455 0.22639
 C939 C 0.73715 -0.02567 0.22091
 C940 C 0.73145 -0.03508 0.22829
 C941 C 0.73016 -0.03306 0.24129
 C942 C 0.73452 -0.02190 0.24677
 H943 H 0.75298 -0.00854 0.27866
 H944 H 0.76172 -0.02795 0.28752
 H945 H 0.77520 -0.03880 0.25077
 H946 H 0.76678 -0.01908 0.24204
 H947 H 0.73934 0.01793 0.26568
 H948 H 0.74692 0.03755 0.27518
 H949 H 0.77776 0.00727 0.25713
 H950 H 0.75778 0.01939 0.23472
 H951 H 0.74868 0.03907 0.22664
 H952 H 0.71117 0.02508 0.23474
 H953 H 0.72035 0.00566 0.24312
 H954 H 0.74588 -0.00744 0.22051
 H955 H 0.73808 -0.02683 0.21085
 H956 H 0.72589 -0.04015 0.24725
 H957 H 0.73334 -0.02050 0.25677
 H958 H 0.78544 0.02656 0.26703
 C959 C 0.74425 0.49927 0.74615
 C960 C 0.75430 0.49935 0.75419
 C961 C 0.76038 0.48753 0.75864
 C962 C 0.75982 0.51129 0.75903
 C963 C 0.73855 0.51115 0.74134
 C964 C 0.73844 0.48734 0.74166
 C965 C 0.76148 0.48533 0.77158
 C966 C 0.76734 0.47441 0.77602
 C967 C 0.77233 0.46549 0.76760
 C968 C 0.77139 0.46779 0.75462
 C969 C 0.76548 0.47874 0.75017
 C970 C 0.75237 0.52020 0.76541
 C971 C 0.75778 0.53135 0.76989
 C972 C 0.77077 0.53373 0.76820
 C973 C 0.77821 0.52468 0.76198
 C974 C 0.77279 0.51358 0.75747
 C975 C 0.74590 0.52021 0.73509
 C976 C 0.74039 0.53138 0.73077
 C977 C 0.72736 0.53363 0.73242
 C978 C 0.72000 0.52442 0.73849
 C979 C 0.72554 0.51329 0.74287
 C980 C 0.73706 0.48529 0.72872
 C981 C 0.73153 0.47422 0.72426
 C982 C 0.72718 0.46495 0.73267
 C983 C 0.72840 0.46710 0.74565
 C984 C 0.73391 0.47821 0.75011
 H985 H 0.75773 0.49207 0.77826
 H986 H 0.76812 0.47301 0.78607
 H987 H 0.77509 0.46107 0.74791
 H988 H 0.76492 0.48038 0.74015
 H989 H 0.74238 0.51852 0.76690
 H990 H 0.75177 0.53815 0.77456
 H991 H 0.77873 0.50677 0.75269
 H992 H 0.75592 0.51864 0.73361
 H993 H 0.74635 0.53832 0.72623
 H994 H 0.70991 0.52574 0.73971
 H995 H 0.71967 0.50636 0.74756
 H996 H 0.74034 0.49228 0.72204
 H997 H 0.73051 0.47300 0.71422
 H998 H 0.72520 0.46013 0.75237
 H999 H 0.73464 0.47971 0.76014
 H1000 H 0.78828 0.52610 0.76074
 C1001 C 0.24494 0.50011 0.24711
 C1002 C 0.25398 0.50009 0.25624
 C1003 C 0.25890 0.48819 0.26178
 C1004 C 0.25947 0.51197 0.26120
 C1005 C 0.24056 0.51197 0.24105
 C1006 C 0.23891 0.48829 0.24261
 C1007 C 0.25870 0.48656 0.27485
 C1008 C 0.26322 0.47544 0.28026
 C1009 C 0.26812 0.46573 0.27270
 C1010 C 0.26849 0.46747 0.25960
 C1011 C 0.26400 0.47863 0.25420
 C1012 C 0.25174 0.52144 0.26632
 C1013 C 0.25709 0.53256 0.27094
 C1014 C 0.27028 0.53436 0.27062
 C1015 C 0.27798 0.52475 0.26568
 C1016 C 0.27263 0.51366 0.26107
 C1017 C 0.24912 0.52018 0.23516
 C1018 C 0.24479 0.53127 0.22947
 C1019 C 0.23182 0.53427 0.22946
 C1020 C 0.22328 0.52589 0.23519
 C1021 C 0.22761 0.51485 0.24090
 C1022 C 0.23893 0.48554 0.22973
 C1023 C 0.23326 0.47455 0.22527
 C1024 C 0.22741 0.46607 0.23360
 C1025 C 0.22726 0.46893 0.24650
 C1026 C 0.23289 0.47998 0.25096
 H1027 H 0.25494 0.49390 0.28087
 H1028 H 0.26302 0.47452 0.29038
 H1029 H 0.27213 0.46014 0.25351
 H1030 H 0.26447 0.47980 0.24410
 H1031 H 0.24158 0.52023 0.26672
 H1032 H 0.25091 0.53981 0.27464
 H1033 H 0.27876 0.50639 0.25729
 H1034 H 0.25913 0.51801 0.23496
 H1035 H 0.25161 0.53755 0.22519
 H1036 H 0.21321 0.52778 0.23512
 H1037 H 0.22085 0.50856 0.24528
 H1038 H 0.24340 0.49190 0.22312
 H1039 H 0.23332 0.47277 0.21526
 H1040 H 0.22290 0.46256 0.25317
 H1041 H 0.23256 0.48205 0.26091
 H1042 H 0.28818 0.52573 0.26552
 C1043 C 0.74783 1.00008 0.75640
 C1044 C 0.75661 1.00044 0.74710
 C1045 C 0.76124 1.01263 0.74217
 C1046 C 0.76196 0.98884 0.74143
 C1047 C 0.74321 0.98809 0.76190
 C1048 C 0.74282 1.01184 0.76192
 C1049 C 0.75599 1.01768 0.73119
 C1050 C 0.76040 1.02913 0.72641
 C1051 C 0.77024 1.03566 0.73248
 C1052 C 0.77542 1.03052 0.74354
 C1053 C 0.77091 1.01913 0.74838
 C1054 C 0.75408 0.97970 0.73600
 C1055 C 0.75925 0.96860 0.73110
 C1056 C 0.77239 0.96649 0.73148
 C1057 C 0.78024 0.97581 0.73667
 C1058 C 0.77508 0.98688 0.74156
 C1059 C 0.75163 0.97944 0.76738
 C1060 C 0.74711 0.96823 0.77265
 C1061 C 0.73408 0.96552 0.77262
 C1062 C 0.72570 0.97427 0.76719
 C1063 C 0.73021 0.98544 0.76192
 C1064 C 0.74867 1.01703 0.77250
 C1065 C 0.74381 1.02796 0.77801
 C1066 C 0.73288 1.03377 0.77313
 C1067 C 0.72713 1.02853 0.76240
 C1068 C 0.73213 1.01771 0.75680
 H1069 H 0.74844 1.01276 0.72637
 H1070 H 0.75605 1.03291 0.71800
 H1071 H 0.78314 1.03518 0.74834
 H1072 H 0.77505 1.01531 0.75687
 H1073 H 0.74393 0.98112 0.73566
 H1074 H 0.75294 0.96157 0.72722
 H1075 H 0.78133 0.99383 0.74565
 H1076 H 0.76168 0.98138 0.76761
 H1077 H 0.75383 0.96164 0.77668
 H1078 H 0.71559 0.97257 0.76720
 H1079 H 0.72354 0.99199 0.75780
 H1080 H 0.75701 1.01262 0.77647
 H1081 H 0.74867 1.03186 0.78606
 H1082 H 0.71862 1.03263 0.75848
 H1083 H 0.72755 1.01379 0.74858
 H1084 H 0.79041 0.97456 0.73691
 C1085 C 0.74526 0.49917 0.25364
 C1086 C 0.75539 0.49922 0.24571
 C1087 C 0.76087 0.51115 0.24083
 C1088 C 0.76148 0.48737 0.24134
 C1089 C 0.73938 0.48725 0.25808
 C1090 C 0.73952 0.51104 0.25839
 C1091 C 0.75338 0.51994 0.23433
 C1092 C 0.75867 0.53118 0.22993
 C1093 C 0.77159 0.53376 0.23180
 C1094 C 0.77909 0.52481 0.23811
 C1095 C 0.77378 0.51361 0.24255
 C1096 C 0.76279 0.48521 0.22842
 C1097 C 0.76839 0.47413 0.22406
 C1098 C 0.77286 0.46498 0.23254
 C1099 C 0.77176 0.46727 0.24551
 C1100 C 0.76617 0.47840 0.24987
 C1101 C 0.73808 0.48511 0.27102
 C1102 C 0.73255 0.47402 0.27543
 C1103 C 0.72814 0.46484 0.26698
 C1104 C 0.72929 0.46708 0.25400
 C1105 C 0.73481 0.47822 0.24959
 C1106 C 0.74683 0.52008 0.26470
 C1107 C 0.74129 0.53124 0.26900
 C1108 C 0.72828 0.53349 0.26726
 C1109 C 0.72096 0.52431 0.26112
 C1110 C 0.72652 0.51320 0.25676
 H1111 H 0.74343 0.51812 0.23272
 H1112 H 0.75262 0.53790 0.22517
 H1113 H 0.78912 0.52639 0.23949
 H1114 H 0.77974 0.50689 0.24743
 H1115 H 0.75936 0.49207 0.22169
 H1116 H 0.76933 0.47277 0.21403
 H1117 H 0.76545 0.48000 0.25989
 H1118 H 0.74143 0.49203 0.27771
 H1119 H 0.73159 0.47270 0.28547
 H1120 H 0.72605 0.46016 0.24727
 H1121 H 0.73552 0.47979 0.23957
 H1122 H 0.75684 0.51850 0.26625
 H1123 H 0.74722 0.53815 0.27359
 H1124 H 0.71088 0.52563 0.25984
 H1125 H 0.72069 0.50629 0.25202
 H1126 H 0.77507 0.46039 0.25228
 C1127 C 0.24826 -0.00005 0.74366
 C1128 C 0.25737 -0.00047 0.75272
 C1129 C 0.26277 -0.01260 0.75728
 C1130 C 0.26270 0.01118 0.75834
 C1131 C 0.24377 0.01205 0.73814
 C1132 C 0.24256 -0.01172 0.73845
 C1133 C 0.26273 -0.01531 0.77018
 C1134 C 0.26804 -0.02650 0.77466
 C1135 C 0.27360 -0.03520 0.76635
 C1136 C 0.27370 -0.03242 0.75343
 C1137 C 0.26838 -0.02120 0.74894
 C1138 C 0.25484 0.02035 0.76381
 C1139 C 0.26003 0.03139 0.76877
 C1140 C 0.27318 0.03341 0.76848
 C1141 C 0.28103 0.02406 0.76327
 C1142 C 0.27584 0.01305 0.75829
 C1143 C 0.25228 0.02066 0.73275
 C1144 C 0.24785 0.03180 0.72725
 C1145 C 0.23481 0.03448 0.72689
 C1146 C 0.22633 0.02576 0.73220
 C1147 C 0.23077 0.01467 0.73774
 C1148 C 0.24271 -0.01372 0.72543
 C1149 C 0.23762 -0.02471 0.72034
 C1150 C 0.23220 -0.03393 0.72816
 C1151 C 0.23179 -0.03178 0.74119
 C1152 C 0.23687 -0.02074 0.74629
 H1153 H 0.25857 -0.00873 0.77677
 H1154 H 0.26801 -0.02824 0.78469
 H1155 H 0.27783 -0.03894 0.74677
 H1156 H 0.26872 -0.01918 0.73898
 H1157 H 0.24469 0.01898 0.76415
 H1158 H 0.25373 0.03845 0.77265
 H1159 H 0.28207 0.00604 0.75423
 H1160 H 0.26234 0.01871 0.73273
 H1161 H 0.25464 0.03835 0.72334
 H1162 H 0.21622 0.02740 0.73187
 H1163 H 0.22403 0.00808 0.74171
 H1164 H 0.24692 -0.00681 0.71921
 H1165 H 0.23785 -0.02596 0.71025
 H1166 H 0.22773 -0.03872 0.74747
 H1167 H 0.23644 -0.01926 0.75634
 H1168 H 0.29121 0.02520 0.76313
 C1169 C 0.25530 0.24793 1.00078
 C1170 C 0.24551 0.25631 1.00061
 C1171 C 0.23893 0.26031 1.01230
 C1172 C 0.24101 0.26216 0.98873
 C1173 C 0.26104 0.24303 0.98900
 C1174 C 0.26094 0.24334 1.01272
 C1175 C 0.23386 0.25143 1.02071
 C1176 C 0.22772 0.25541 1.03166
 C1177 C 0.22645 0.26833 1.03433
 C1178 C 0.23129 0.27717 1.02573
 C1179 C 0.23745 0.27319 1.01484
 C1180 C 0.22812 0.26176 0.98567
 C1181 C 0.22371 0.26738 0.97465
 C1182 C 0.23211 0.27357 0.96647
 C1183 C 0.24503 0.27407 0.96963
 C1184 C 0.24942 0.26850 0.98070
 C1185 C 0.27418 0.24378 0.98725
 C1186 C 0.27973 0.23925 0.97624
 C1187 C 0.27226 0.23383 0.96675
 C1188 C 0.25910 0.23294 0.96860
 C1189 C 0.25356 0.23742 0.97965
 C1190 C 0.26543 0.25182 1.02181
 C1191 C 0.27100 0.24734 1.03286
 C1192 C 0.27230 0.23431 1.03498
 C1193 C 0.26792 0.22587 1.02578
 C1194 C 0.26233 0.23035 1.01476
 H1195 H 0.23468 0.24144 1.01880
 H1196 H 0.22415 0.24837 1.03812
 H1197 H 0.23024 0.28719 1.02738
 H1198 H 0.24116 0.28020 1.00842
 H1199 H 0.22146 0.25705 0.99182
 H1200 H 0.21368 0.26703 0.97262
 H1201 H 0.25937 0.26915 0.98302
 H1202 H 0.28014 0.24794 0.99440
 H1203 H 0.28991 0.23984 0.97523
 H1204 H 0.25307 0.22888 0.96146
 H1205 H 0.24343 0.23653 0.98091
 H1206 H 0.26468 0.26189 1.02031
 H1207 H 0.27421 0.25408 1.03979
 H1208 H 0.26899 0.21579 1.02700
 H1209 H 0.25908 0.22366 1.00779
 H1210 H 0.25176 0.27868 0.96349
 C1211 C 0.25336 0.74568 0.50079
 C1212 C 0.24462 0.75515 0.50066
 C1213 C 0.23920 0.76039 0.51243
 C1214 C 0.23984 0.76066 0.48873
 C1215 C 0.25880 0.74045 0.48903
 C1216 C 0.25783 0.73983 0.51267
 C1217 C 0.22604 0.76040 0.51411
 C1218 C 0.22073 0.76497 0.52521
 C1219 C 0.22847 0.76972 0.53484
 C1220 C 0.24166 0.76996 0.53302
 C1221 C 0.24697 0.76538 0.52188
 C1222 C 0.23417 0.75310 0.47950
 C1223 C 0.22987 0.75845 0.46829
 C1224 C 0.23101 0.77150 0.46615
 C1225 C 0.23647 0.77905 0.47554
 C1226 C 0.24080 0.77369 0.48672
 C1227 C 0.26502 0.74817 0.48028
 C1228 C 0.26981 0.74305 0.46914
 C1229 C 0.26857 0.73009 0.46664
 C1230 C 0.26259 0.72236 0.47558
 C1231 C 0.25779 0.72749 0.48666
 C1232 C 0.27083 0.73949 0.51526
 C1233 C 0.27530 0.73392 0.52628
 C1234 C 0.26684 0.72851 0.53494
 C1235 C 0.25380 0.72873 0.53225
 C1236 C 0.24934 0.73429 0.52118
 H1237 H 0.21988 0.75671 0.50687
 H1238 H 0.21053 0.76488 0.52622
 H1239 H 0.24788 0.77350 0.54028
 H1240 H 0.25714 0.76565 0.52067
 H1241 H 0.23313 0.74305 0.48098
 H1242 H 0.22577 0.75236 0.46122
 H1243 H 0.24502 0.77969 0.49379
 H1244 H 0.26608 0.75817 0.48204
 H1245 H 0.27431 0.74926 0.46242
 H1246 H 0.26171 0.71231 0.47406
 H1247 H 0.25314 0.72135 0.49335
 H1248 H 0.27754 0.74360 0.50874
 H1249 H 0.28540 0.73369 0.52794
 H1250 H 0.24704 0.72472 0.53876
 H1251 H 0.23928 0.73426 0.51925
 H1252 H 0.23726 0.78916 0.47431
 C1253 C 0.24425 0.74730 0.00063
 C1254 C 0.25324 0.75650 0.00038
 C1255 C 0.25791 0.76200 -0.01160
 C1256 C 0.25867 0.76187 0.01210
 C1257 C 0.23883 0.74254 0.01261
 C1258 C 0.23903 0.74170 -0.01107
 C1259 C 0.27094 0.76219 -0.01407
 C1260 C 0.27556 0.76762 -0.02509
 C1261 C 0.26723 0.77306 -0.03387
 C1262 C 0.25416 0.77292 -0.03134
 C1263 C 0.24955 0.76750 -0.02028
 C1264 C 0.26426 0.75413 0.02126
 C1265 C 0.26906 0.75937 0.03233
 C1266 C 0.26848 0.77246 0.03437
 C1267 C 0.26313 0.78019 0.02504
 C1268 C 0.25831 0.77495 0.01401
 C1269 C 0.23321 0.75078 0.02130
 C1270 C 0.22797 0.74610 0.03243
 C1271 C 0.22811 0.73309 0.03500
 C1272 C 0.23363 0.72488 0.02619
 C1273 C 0.23890 0.72956 0.01511
 C1274 C 0.22590 0.74168 -0.01298
 C1275 C 0.22075 0.73659 -0.02391
 C1276 C 0.22863 0.73134 -0.03319
 C1277 C 0.24178 0.73114 -0.03116
 C1278 C 0.24694 0.73623 -0.02017
 H1279 H 0.27754 0.75811 -0.00742
 H1280 H 0.28568 0.76777 -0.02664
 H1281 H 0.24750 0.77695 -0.03795
 H1282 H 0.23947 0.76765 -0.01845
 H1283 H 0.26483 0.74403 0.01988
 H1284 H 0.27305 0.75315 0.03937
 H1285 H 0.25415 0.78110 0.00701
 H1286 H 0.23284 0.76081 0.01945
 H1287 H 0.22389 0.75269 0.03905
 H1288 H 0.23368 0.71479 0.02776
 H1289 H 0.24307 0.72304 0.00845
 H1290 H 0.21962 0.74574 -0.00602
 H1291 H 0.21057 0.73667 -0.02507
 H1292 H 0.24810 0.72721 -0.03815
 H1293 H 0.25708 0.73594 -0.01878
 H1294 H 0.26276 0.79032 0.02620
 C1295 C 0.24654 0.24399 0.49956
 C1296 C 0.25515 0.25356 0.49971
 C1297 C 0.25944 0.25989 0.48799
 C1298 C 0.26089 0.25815 0.51161
 C1299 C 0.24144 0.23845 0.51137
 C1300 C 0.24189 0.23841 0.48761
 C1301 C 0.27243 0.26102 0.48555
 C1302 C 0.27668 0.26707 0.47470
 C1303 C 0.26801 0.27217 0.46604
 C1304 C 0.25499 0.27118 0.46858
 C1305 C 0.25074 0.26514 0.47948
 C1306 C 0.26701 0.24984 0.51991
 C1307 C 0.27252 0.25436 0.53096
 C1308 C 0.27216 0.26729 0.53384
 C1309 C 0.26617 0.27559 0.52541
 C1310 C 0.26062 0.27107 0.51441
 C1311 C 0.23586 0.24606 0.52064
 C1312 C 0.23128 0.24069 0.53175
 C1313 C 0.23205 0.22759 0.53373
 C1314 C 0.23740 0.22000 0.52430
 C1315 C 0.24201 0.22537 0.51323
 C1316 C 0.22884 0.23737 0.48548
 C1317 C 0.22430 0.23193 0.47442
 C1318 C 0.23274 0.22735 0.46528
 C1319 C 0.24583 0.22830 0.46749
 C1320 C 0.25036 0.23372 0.47858
 H1321 H 0.27931 0.25715 0.49205
 H1322 H 0.28677 0.26788 0.47316
 H1323 H 0.24807 0.27494 0.46207
 H1324 H 0.24068 0.26459 0.48130
 H1325 H 0.26755 0.23987 0.51781
 H1326 H 0.27698 0.24770 0.53729
 H1327 H 0.25607 0.27765 0.50807
 H1328 H 0.23510 0.25615 0.51929
 H1329 H 0.22729 0.24682 0.53885
 H1330 H 0.23791 0.20986 0.52541
 H1331 H 0.24615 0.21931 0.50615
 H1332 H 0.22215 0.24079 0.49240
 H1333 H 0.21418 0.23113 0.47313
 H1334 H 0.25258 0.22493 0.46061
 H1335 H 0.26047 0.23420 0.48014
 H1336 H 0.26594 0.28563 0.52721
 C1337 C 0.75596 0.74766 0.99993
 C1338 C 0.74750 0.75737 0.99977
 C1339 C 0.74248 0.76301 1.01154
 C1340 C 0.74293 0.76301 0.98781
 C1341 C 0.76000 0.74115 0.98823
 C1342 C 0.76182 0.74314 1.01181
 C1343 C 0.73684 0.75548 1.02084
 C1344 C 0.73222 0.76092 1.03188
 C1345 C 0.73301 0.77402 1.03377
 C1346 C 0.73844 0.78155 1.02433
 C1347 C 0.74309 0.77610 1.01332
 C1348 C 0.72990 0.76430 0.98570
 C1349 C 0.72545 0.76980 0.97463
 C1350 C 0.73395 0.77419 0.96546
 C1351 C 0.74703 0.77300 0.96766
 C1352 C 0.75147 0.76752 0.97876
 C1353 C 0.77293 0.73977 0.98562
 C1354 C 0.77692 0.73365 0.97472
 C1355 C 0.76805 0.72873 0.96619
 C1356 C 0.75508 0.72993 0.96893
 C1357 C 0.75109 0.73603 0.97988
 C1358 C 0.76811 0.75150 1.01990
 C1359 C 0.77374 0.74707 1.03094
 C1360 C 0.77334 0.73418 1.03401
 C1361 C 0.76718 0.72583 1.02578
 C1362 C 0.76150 0.73027 1.01480
 H1363 H 0.73603 0.74538 1.01955
 H1364 H 0.72815 0.75485 1.03899
 H1365 H 0.73895 0.79169 1.02538
 H1366 H 0.74727 0.78210 1.00620
 H1367 H 0.72316 0.76102 0.99263
 H1368 H 0.71533 0.77079 0.97333
 H1369 H 0.76158 0.76684 0.98032
 H1370 H 0.77996 0.74351 0.99201
 H1371 H 0.78698 0.73267 0.97301
 H1372 H 0.74801 0.72631 0.96252
 H1373 H 0.74106 0.73678 0.98184
 H1374 H 0.76868 0.76144 1.01765
 H1375 H 0.77832 0.75376 1.03711
 H1376 H 0.76691 0.71581 1.02774
 H1377 H 0.75681 0.72365 1.00862
 H1378 H 0.75382 0.77622 0.96075
 C1379 C 0.75526 0.24614 0.49974
 C1380 C 0.74651 0.25560 0.49965
 C1381 C 0.74120 0.26093 0.51144
 C1382 C 0.74191 0.26132 0.48775
 C1383 C 0.76056 0.24080 0.48796
 C1384 C 0.76022 0.24073 0.51164
 C1385 C 0.73524 0.25323 0.52040
 C1386 C 0.73054 0.25844 0.53154
 C1387 C 0.73159 0.27146 0.53385
 C1388 C 0.73729 0.27915 0.52470
 C1389 C 0.74202 0.27394 0.51362
 C1390 C 0.72888 0.26156 0.48524
 C1391 C 0.72432 0.26690 0.47414
 C1392 C 0.73270 0.27219 0.46533
 C1393 C 0.74575 0.27209 0.46795
 C1394 C 0.75031 0.26677 0.47909
 C1395 C 0.77371 0.24071 0.48619
 C1396 C 0.77894 0.23600 0.47511
 C1397 C 0.77112 0.23120 0.46556
 C1398 C 0.75794 0.23104 0.46747
 C1399 C 0.75271 0.23574 0.47860
 C1400 C 0.76607 0.24835 0.52070
 C1401 C 0.77061 0.24307 0.53187
 C1402 C 0.76950 0.23004 0.53411
 C1403 C 0.76385 0.22242 0.52489
 C1404 C 0.75930 0.22771 0.51376
 H1405 H 0.73430 0.24320 0.51880
 H1406 H 0.72627 0.25224 0.53841
 H1407 H 0.73800 0.28924 0.52605
 H1408 H 0.74647 0.28006 0.50677
 H1409 H 0.72225 0.25752 0.49187
 H1410 H 0.71421 0.26704 0.47254
 H1411 H 0.76038 0.26687 0.48096
 H1412 H 0.77994 0.24443 0.49336
 H1413 H 0.78913 0.23603 0.47405
 H1414 H 0.75166 0.22745 0.46028
 H1415 H 0.74255 0.23551 0.47988
 H1416 H 0.76710 0.25839 0.51913
 H1417 H 0.77486 0.24920 0.53880
 H1418 H 0.76308 0.21233 0.52620
 H1419 H 0.75497 0.22165 0.50680
 H1420 H 0.75246 0.27601 0.46133
 C1421 C 0.74469 0.24497 -0.00060
 C1422 C 0.75397 0.25390 -0.00059
 C1423 C 0.75830 0.26012 -0.01235
 C1424 C 0.76024 0.25804 0.01121
 C1425 C 0.73965 0.23954 0.01126
 C1426 C 0.73906 0.24014 -0.01244
 C1427 C 0.77124 0.26033 -0.01524
 C1428 C 0.77554 0.26629 -0.02612
 C1429 C 0.76698 0.27222 -0.03434
 C1430 C 0.75401 0.27213 -0.03135
 C1431 C 0.74972 0.26619 -0.02042
 C1432 C 0.76605 0.24934 0.01933
 C1433 C 0.77191 0.25345 0.03037
 C1434 C 0.77219 0.26635 0.03341
 C1435 C 0.76658 0.27504 0.02511
 C1436 C 0.76069 0.27092 0.01413
 C1437 C 0.73464 0.24730 0.02072
 C1438 C 0.72991 0.24200 0.03180
 C1439 C 0.73000 0.22886 0.03356
 C1440 C 0.73483 0.22113 0.02396
 C1441 C 0.73955 0.22643 0.01291
 C1442 C 0.72588 0.24030 -0.01397
 C1443 C 0.72038 0.23572 -0.02498
 C1444 C 0.72795 0.23078 -0.03466
 C1445 C 0.74116 0.23045 -0.03302
 C1446 C 0.74666 0.23504 -0.02199
 H1447 H 0.77803 0.25582 -0.00907
 H1448 H 0.78561 0.26640 -0.02800
 H1449 H 0.74717 0.27653 -0.03753
 H1450 H 0.73971 0.26636 -0.01824
 H1451 H 0.76603 0.23938 0.01713
 H1452 H 0.77608 0.24652 0.03660
 H1453 H 0.75639 0.27780 0.00792
 H1454 H 0.73439 0.25743 0.01952
 H1455 H 0.72631 0.24821 0.03904
 H1456 H 0.73481 0.21097 0.02492
 H1457 H 0.74322 0.22028 0.00564
 H1458 H 0.71983 0.24404 -0.00665
 H1459 H 0.71017 0.23588 -0.02583
 H1460 H 0.74726 0.22676 -0.04032
 H1461 H 0.75684 0.23459 -0.02089
 H1462 H 0.76685 0.28505 0.02704
 C1463 C 0.74539 0.74664 0.50054
 C1464 C 0.75549 0.75462 0.50050
 C1465 C 0.76072 0.75989 0.48864
 C1466 C 0.76187 0.75857 0.51229
 C1467 C 0.73944 0.74224 0.51241
 C1468 C 0.73981 0.74178 0.48869
 C1469 C 0.77367 0.75861 0.48604
 C1470 C 0.77875 0.76346 0.47494
 C1471 C 0.77098 0.76975 0.46622
 C1472 C 0.75803 0.77121 0.46896
 C1473 C 0.75297 0.76639 0.48010
 C1474 C 0.76661 0.74965 0.52086
 C1475 C 0.77268 0.75359 0.53185
 C1476 C 0.77420 0.76650 0.53441
 C1477 C 0.76965 0.77537 0.52567
 C1478 C 0.76358 0.77144 0.51473
 C1479 C 0.73502 0.75083 0.52144
 C1480 C 0.72934 0.74649 0.53249
 C1481 C 0.72789 0.73348 0.53466
 C1482 C 0.73218 0.72494 0.52550
 C1483 C 0.73786 0.72928 0.51449
 C1484 C 0.72679 0.74312 0.48650
 C1485 C 0.72138 0.73854 0.47544
 C1486 C 0.72889 0.73246 0.46637
 C1487 C 0.74193 0.73102 0.46866
 C1488 C 0.74732 0.73556 0.47974
 H1489 H 0.77984 0.75377 0.49259
 H1490 H 0.78879 0.76240 0.47325
 H1491 H 0.75179 0.77595 0.46241
 H1492 H 0.74300 0.76771 0.48205
 H1493 H 0.76561 0.73966 0.51903
 H1494 H 0.77603 0.74654 0.53842
 H1495 H 0.76014 0.77846 0.50816
 H1496 H 0.73595 0.76088 0.51992
 H1497 H 0.72621 0.75330 0.53940
 H1498 H 0.73100 0.71488 0.52678
 H1499 H 0.74110 0.72250 0.50759
 H1500 H 0.72081 0.74778 0.49334
 H1501 H 0.71128 0.73959 0.47408
 H1502 H 0.74800 0.72648 0.46182
 H1503 H 0.75735 0.73423 0.48135
 H1504 H 0.77089 0.78538 0.52724
 C1505 C 0.99954 0.25412 0.24536
 C1506 C 0.99954 0.24611 0.25539
 C1507 C 1.01149 0.24107 0.26082
 C1508 C 0.98761 0.24183 0.26145
 C1509 C 0.98761 0.25845 0.23935
 C1510 C 1.01149 0.25901 0.23982
 C1511 C 1.02038 0.23472 0.25332
 C1512 C 1.03159 0.23010 0.25859
 C1513 C 1.03404 0.23159 0.27149
 C1514 C 1.02500 0.23775 0.27899
 C1515 C 1.01384 0.24242 0.27372
 C1516 C 0.98539 0.22889 0.26295
 C1517 C 0.97430 0.22464 0.26866
 C1518 C 0.96519 0.23325 0.27304
 C1519 C 0.96752 0.24624 0.27171
 C1520 C 0.97866 0.25049 0.26602
 C1521 C 0.98540 0.27141 0.23785
 C1522 C 0.97436 0.27570 0.23207
 C1523 C 0.96529 0.26712 0.22759
 C1524 C 0.96759 0.25412 0.22896
 C1525 C 0.97868 0.24982 0.23474
 C1526 C 1.02048 0.26528 0.24723
 C1527 C 1.03167 0.26979 0.24186
 C1528 C 1.03400 0.26825 0.22893
 C1529 C 1.02487 0.26214 0.22153
 C1530 C 1.01373 0.25760 0.22691
 H1531 H 1.01864 0.23336 0.24339
 H1532 H 1.03839 0.22549 0.25253
 H1533 H 1.02647 0.23884 0.28900
 H1534 H 1.00704 0.24716 0.27969
 H1535 H 0.99224 0.22205 0.25963
 H1536 H 0.97292 0.21458 0.26977
 H1537 H 0.98031 0.26054 0.26517
 H1538 H 0.99224 0.27821 0.24123
 H1539 H 0.97299 0.28576 0.23097
 H1540 H 0.96076 0.24728 0.22568
 H1541 H 0.98031 0.23978 0.23561
 H1542 H 1.01884 0.26668 0.25717
 H1543 H 1.03855 0.27436 0.24784
 H1544 H 1.02626 0.26101 0.21151
 H1545 H 1.00685 0.25290 0.22101
 H1546 H 0.96068 0.25311 0.27495
 C1547 C 0.49916 0.25532 0.74698
 C1548 C 0.49897 0.24670 0.75650
 C1549 C 0.51083 0.24178 0.76222
 C1550 C 0.48691 0.24191 0.76189
 C1551 C 0.48740 0.25940 0.74045
 C1552 C 0.51114 0.26130 0.74267
 C1553 C 0.52039 0.23640 0.75478
 C1554 C 0.53153 0.23192 0.76030
 C1555 C 0.53324 0.23257 0.77339
 C1556 C 0.52354 0.23775 0.78082
 C1557 C 0.51245 0.24227 0.77529
 C1558 C 0.48497 0.22887 0.76300
 C1559 C 0.47390 0.22421 0.76845
 C1560 C 0.46455 0.23250 0.77296
 C1561 C 0.46655 0.24556 0.77188
 C1562 C 0.47765 0.25022 0.76646
 C1563 C 0.48475 0.27230 0.73925
 C1564 C 0.47386 0.27636 0.73303
 C1565 C 0.46538 0.26760 0.72783
 C1566 C 0.46815 0.25466 0.72887
 C1567 C 0.47909 0.25060 0.73507
 C1568 C 0.51922 0.26747 0.75114
 C1569 C 0.53032 0.27323 0.74688
 C1570 C 0.53347 0.27308 0.73404
 C1571 C 0.52523 0.26706 0.72558
 C1572 C 0.51420 0.26125 0.72985
 H1573 H 0.51924 0.23571 0.74470
 H1574 H 0.53885 0.22807 0.75431
 H1575 H 0.52445 0.23816 0.79094
 H1576 H 0.50513 0.24626 0.78121
 H1577 H 0.49207 0.22229 0.75967
 H1578 H 0.47277 0.21410 0.76933
 H1579 H 0.47906 0.26032 0.76592
 H1580 H 0.49110 0.27925 0.74320
 H1581 H 0.47215 0.28639 0.73218
 H1582 H 0.46178 0.24768 0.72502
 H1583 H 0.48109 0.24060 0.73568
 H1584 H 0.51691 0.26786 0.76104
 H1585 H 0.53649 0.27770 0.75365
 H1586 H 0.52722 0.26700 0.71560
 H1587 H 0.50802 0.25668 0.72314
 H1588 H 0.45950 0.25220 0.77518
 C1589 C -0.00014 0.24686 0.74459
 C1590 C -0.00037 0.25570 0.75388
 C1591 C -0.01238 0.26162 0.75818
 C1592 C 0.01140 0.26003 0.76017
 C1593 C 0.01193 0.24213 0.73917
 C1594 C -0.01198 0.24156 0.73923
 C1595 C -0.02064 0.26749 0.74965
 C1596 C -0.03178 0.27321 0.75389
 C1597 C -0.03479 0.27330 0.76676
 C1598 C -0.02637 0.26758 0.77528
 C1599 C -0.01529 0.26182 0.77103
 C1600 C 0.01397 0.27298 0.76094
 C1601 C 0.02494 0.27724 0.76684
 C1602 C 0.03357 0.26865 0.77214
 C1603 C 0.03088 0.25568 0.77154
 C1604 C 0.01985 0.25142 0.76567
 C1605 C 0.01412 0.22911 0.73838
 C1606 C 0.02525 0.22451 0.73299
 C1607 C 0.03442 0.23284 0.72823
 C1608 C 0.03218 0.24589 0.72899
 C1609 C 0.02101 0.25049 0.73434
 C1610 C -0.02124 0.23612 0.74698
 C1611 C -0.03233 0.23122 0.74178
 C1612 C -0.03431 0.23154 0.72872
 C1613 C -0.02490 0.23680 0.72099
 C1614 C -0.01384 0.24172 0.72619
 H1615 H -0.01844 0.26769 0.73972
 H1616 H -0.03808 0.27747 0.74708
 H1617 H -0.02826 0.26771 0.78527
 H1618 H -0.00897 0.25748 0.77778
 H1619 H 0.00750 0.27979 0.75688
 H1620 H 0.02661 0.28730 0.76737
 H1621 H 0.01792 0.24140 0.76539
 H1622 H 0.00718 0.22250 0.74193
 H1623 H 0.02658 0.21440 0.73236
 H1624 H 0.03909 0.25256 0.72551
 H1625 H 0.01941 0.26058 0.73465
 H1626 H -0.01987 0.23569 0.75705
 H1627 H -0.03943 0.22731 0.74800
 H1628 H -0.02602 0.23697 0.71088
 H1629 H -0.00675 0.24574 0.72003
 H1630 H 0.03736 0.24882 0.77547
 C1631 C 0.49966 0.24564 0.24442
 C1632 C 0.49987 0.25371 0.25432
 C1633 C 0.48823 0.25847 0.26067
 C1634 C 0.51212 0.25804 0.25951
 C1635 C 0.51159 0.24075 0.23903
 C1636 C 0.48778 0.24129 0.23840
 C1637 C 0.48737 0.27127 0.26399
 C1638 C 0.47679 0.27587 0.27035
 C1639 C 0.46675 0.26781 0.27338
 C1640 C 0.46751 0.25502 0.27012
 C1641 C 0.47827 0.25033 0.26404
 C1642 C 0.51849 0.26824 0.25404
 C1643 C 0.52957 0.27289 0.25951
 C1644 C 0.53456 0.26728 0.27044
 C1645 C 0.52830 0.25676 0.27560
 C1646 C 0.51712 0.25226 0.27023
 C1647 C 0.51744 0.23008 0.24419
 C1648 C 0.52836 0.22511 0.23869
 C1649 C 0.53373 0.23085 0.22801
 C1650 C 0.52797 0.24178 0.22311
 C1651 C 0.51694 0.24663 0.22852
 C1652 C 0.48541 0.22833 0.23730
 C1653 C 0.47428 0.22403 0.23175
 C1654 C 0.46527 0.23260 0.22709
 C1655 C 0.46774 0.24561 0.22799
 C1656 C 0.47892 0.24991 0.23359
 H1657 H 0.49489 0.27778 0.26164
 H1658 H 0.47636 0.28577 0.27279
 H1659 H 0.45991 0.24863 0.27254
 H1660 H 0.47885 0.24034 0.26209
 H1661 H 0.51468 0.27281 0.24576
 H1662 H 0.53399 0.28110 0.25538
 H1663 H 0.51232 0.24430 0.27447
 H1664 H 0.51338 0.22548 0.25234
 H1665 H 0.53240 0.21660 0.24262
 H1666 H 0.53198 0.24662 0.21509
 H1667 H 0.51258 0.25496 0.22454
 H1668 H 0.49212 0.22149 0.24088
 H1669 H 0.47277 0.21397 0.23099
 H1670 H 0.46096 0.25244 0.22454
 H1671 H 0.48064 0.25996 0.23420
 H1672 H 0.53200 0.25202 0.28383
 C1673 C 0.99988 0.75118 0.74368
 C1674 C 0.99958 0.74207 0.75273
 C1675 C 1.01137 0.73696 0.75842
 C1676 C 0.98749 0.73646 0.75719
 C1677 C 0.98812 0.75689 0.73851
 C1678 C 1.01198 0.75569 0.73815
 C1679 C 1.01351 0.72391 0.75843
 C1680 C 1.02463 0.71894 0.76349
 C1681 C 1.03383 0.72691 0.76873
 C1682 C 1.03155 0.73998 0.76898
 C1683 C 1.02039 0.74496 0.76392
 C1684 C 0.97881 0.73114 0.74873
 C1685 C 0.96761 0.72566 0.75312
 C1686 C 0.96496 0.72524 0.76606
 C1687 C 0.97378 0.73043 0.77449
 C1688 C 0.98491 0.73596 0.77010
 C1689 C 0.97897 0.76236 0.74640
 C1690 C 0.96794 0.76759 0.74132
 C1691 C 0.96592 0.76755 0.72826
 C1692 C 0.97524 0.76233 0.72040
 C1693 C 0.98622 0.75709 0.72548
 C1694 C 1.01456 0.76865 0.73783
 C1695 C 1.02565 0.77311 0.73228
 C1696 C 1.03440 0.76469 0.72688
 C1697 C 1.03174 0.75170 0.72714
 C1698 C 1.02060 0.74725 0.73266
 H1699 H 1.00661 0.71757 0.75436
 H1700 H 1.02597 0.70881 0.76339
 H1701 H 1.03848 0.74637 0.77290
 H1702 H 1.01882 0.75504 0.76422
 H1703 H 0.98072 0.73118 0.73874
 H1704 H 0.96100 0.72184 0.74637
 H1705 H 0.99155 0.73987 0.77679
 H1706 H 0.98036 0.76253 0.75647
 H1707 H 0.96090 0.77149 0.74762
 H1708 H 0.97410 0.76239 0.71030
 H1709 H 0.99323 0.75307 0.71922
 H1710 H 1.00796 0.77532 0.74188
 H1711 H 1.02728 0.78318 0.73202
 H1712 H 1.03831 0.74497 0.72313
 H1713 H 1.01867 0.73723 0.73259
 H1714 H 0.97217 0.73005 0.78453
 C1715 C 0.50064 0.75264 0.24676
 C1716 C 0.50067 0.74336 0.25562
 C1717 C 0.51261 0.73747 0.26011
 C1718 C 0.48874 0.73865 0.26134
 C1719 C 0.48871 0.75729 0.24096
 C1720 C 0.51255 0.75864 0.24236
 C1721 C 0.52136 0.73230 0.25162
 C1722 C 0.53250 0.72668 0.25599
 C1723 C 0.53503 0.72601 0.26894
 C1724 C 0.52614 0.73103 0.27741
 C1725 C 0.51505 0.73668 0.27304
 C1726 C 0.48631 0.72566 0.26169
 C1727 C 0.47525 0.72108 0.26721
 C1728 C 0.46641 0.72942 0.27256
 C1729 C 0.46893 0.74244 0.27230
 C1730 C 0.48002 0.74700 0.26681
 C1731 C 0.48621 0.77028 0.24056
 C1732 C 0.47520 0.77482 0.23489
 C1733 C 0.46647 0.76645 0.22945
 C1734 C 0.46904 0.75344 0.22978
 C1735 C 0.48009 0.74891 0.23542
 C1736 C 0.52115 0.76394 0.25090
 C1737 C 0.53220 0.76973 0.24659
 C1738 C 0.53479 0.77043 0.23366
 C1739 C 0.52606 0.76527 0.22514
 C1740 C 0.51505 0.75946 0.22945
 H1741 H 0.51955 0.73258 0.24161
 H1742 H 0.53918 0.72297 0.24923
 H1743 H 0.52769 0.73046 0.28745
 H1744 H 0.50835 0.74049 0.27975
 H1745 H 0.49299 0.71905 0.25764
 H1746 H 0.47370 0.71100 0.26746
 H1747 H 0.48183 0.75705 0.26686
 H1748 H 0.49281 0.77691 0.24466
 H1749 H 0.47363 0.78490 0.23459
 H1750 H 0.46246 0.74675 0.22576
 H1751 H 0.48196 0.73887 0.23540
 H1752 H 0.51927 0.76363 0.26090
 H1753 H 0.53878 0.77356 0.25339
 H1754 H 0.52765 0.76589 0.21511
 H1755 H 0.50846 0.75556 0.22270
 H1756 H 0.46227 0.74911 0.27626
 C1757 C -0.00055 0.74610 0.24407
 C1758 C -0.00040 0.75571 0.25255
 C1759 C -0.01227 0.76101 0.25790
 C1760 C 0.01162 0.76153 0.25690
 C1761 C 0.01130 0.73990 0.23972
 C1762 C -0.01255 0.74140 0.23850
 C1763 C -0.01442 0.77405 0.25741
 C1764 C -0.02551 0.77920 0.26238
 C1765 C -0.03465 0.77141 0.26802
 C1766 C -0.03236 0.75836 0.26870
 C1767 C -0.02125 0.75321 0.26374
 C1768 C 0.02048 0.76634 0.24830
 C1769 C 0.03163 0.77197 0.25257
 C1770 C 0.03407 0.77301 0.26552
 C1771 C 0.02508 0.76834 0.27407
 C1772 C 0.01397 0.76269 0.26980
 C1773 C 0.02002 0.73483 0.24832
 C1774 C 0.03111 0.72904 0.24406
 C1775 C 0.03363 0.72811 0.23112
 C1776 C 0.02477 0.73301 0.22256
 C1777 C 0.01372 0.73882 0.22682
 C1778 C -0.01528 0.72846 0.23877
 C1779 C -0.02640 0.72388 0.23336
 C1780 C -0.03500 0.73214 0.22752
 C1781 C -0.03219 0.74510 0.22718
 C1782 C -0.02104 0.74967 0.23255
 H1783 H -0.00754 0.78025 0.25310
 H1784 H -0.02686 0.78931 0.26193
 H1785 H -0.03923 0.75210 0.27294
 H1786 H -0.01964 0.74315 0.26445
 H1787 H 0.01873 0.76577 0.23830
 H1788 H 0.03840 0.77540 0.24575
 H1789 H 0.00718 0.75918 0.27658
 H1790 H 0.01824 0.73538 0.25832
 H1791 H 0.03779 0.72544 0.25089
 H1792 H 0.02631 0.73225 0.21254
 H1793 H 0.00707 0.74258 0.22003
 H1794 H -0.00879 0.72191 0.24319
 H1795 H -0.02815 0.71383 0.23357
 H1796 H -0.03865 0.75172 0.22284
 H1797 H -0.01900 0.75966 0.23201
 H1798 H 0.02654 0.76922 0.28410
 C1799 C 0.50001 0.74621 0.74467
 C1800 C 0.50010 0.75607 0.75286
 C1801 C 0.48819 0.76177 0.75771
 C1802 C 0.51209 0.76180 0.75736
 C1803 C 0.51188 0.73983 0.74061
 C1804 C 0.48807 0.74141 0.73908
 C1805 C 0.48628 0.77482 0.75671
 C1806 C 0.47521 0.78036 0.76129
 C1807 C 0.46583 0.77296 0.76705
 C1808 C 0.46782 0.75988 0.76817
 C1809 C 0.47892 0.75435 0.76360
 C1810 C 0.52118 0.76637 0.74888
 C1811 C 0.53231 0.77192 0.75329
 C1812 C 0.53451 0.77309 0.76627
 C1813 C 0.52530 0.76866 0.77471
 C1814 C 0.51420 0.76310 0.77030
 C1815 C 0.52047 0.73485 0.74939
 C1816 C 0.53156 0.72888 0.74534
 C1817 C 0.53420 0.72768 0.73244
 C1818 C 0.52543 0.73246 0.72371
 C1819 C 0.51440 0.73844 0.72775
 C1820 C 0.48524 0.72852 0.73980
 C1821 C 0.47421 0.72380 0.73435
 C1822 C 0.46579 0.73188 0.72802
 C1823 C 0.46869 0.74480 0.72724
 C1824 C 0.47976 0.74951 0.73266
 H1825 H 0.49337 0.78073 0.75230
 H1826 H 0.47409 0.79048 0.76050
 H1827 H 0.46074 0.75391 0.77248
 H1828 H 0.48030 0.74429 0.76468
 H1829 H 0.51963 0.76567 0.73885
 H1830 H 0.53925 0.77518 0.74656
 H1831 H 0.50724 0.75977 0.77699
 H1832 H 0.51858 0.73560 0.75936
 H1833 H 0.53814 0.72533 0.75230
 H1834 H 0.52704 0.73146 0.71372
 H1835 H 0.50783 0.74208 0.72083
 H1836 H 0.49159 0.72211 0.74461
 H1837 H 0.47238 0.71377 0.73492
 H1838 H 0.46236 0.75129 0.72252
 H1839 H 0.48187 0.75946 0.73179
 H1840 H 0.52659 0.76964 0.78475
 C1841 C 0.38304 0.30876 0.29713
 C1842 C 0.39333 0.30283 0.29136
 C1843 C 0.40303 0.29756 0.29861
 C1844 C 0.40222 0.29804 0.31177
 C1845 C 0.39180 0.30374 0.31756
 C1846 C 0.38217 0.30924 0.31029
 N1847 N 0.41358 0.29181 0.29240
 N1848 N 0.42388 0.28943 0.29811
 C1849 C 0.43440 0.28358 0.29194
 C1850 C 0.44639 0.28438 0.29744
 C1851 C 0.45693 0.27918 0.29143
 C1852 C 0.45554 0.27283 0.27996
 C1853 C 0.44346 0.27171 0.27460
 C1854 C 0.43296 0.27716 0.28048
 H1855 H 0.37568 0.31278 0.29130
 H1856 H 0.39383 0.30248 0.28121
 H1857 H 0.40957 0.29393 0.31757
 H1858 H 0.39139 0.30401 0.32772
 H1859 H 0.44761 0.28929 0.30628
 H1860 H 0.46618 0.28010 0.29572
 H1861 H 0.44223 0.26688 0.26572
 H1862 H 0.42375 0.27637 0.27610
 C1863 C 0.38787 0.79945 0.81703
 C1864 C 0.39869 0.79392 0.81190
 C1865 C 0.40457 0.79920 0.80141
 C1866 C 0.39955 0.81025 0.79608
 C1867 C 0.38876 0.81590 0.80126
 C1868 C 0.38268 0.81056 0.81181
 N1869 N 0.41562 0.79315 0.79644
 N1870 N 0.42110 0.79684 0.78645
 C1871 C 0.43219 0.79065 0.78171
 C1872 C 0.43731 0.79459 0.77025
 C1873 C 0.44815 0.78877 0.76541
 C1874 C 0.45411 0.77892 0.77202
 C1875 C 0.44891 0.77496 0.78352
 C1876 C 0.43805 0.78076 0.78832
 H1877 H 0.38374 0.79496 0.82516
 H1878 H 0.40251 0.78542 0.81610
 H1879 H 0.40397 0.81452 0.78796
 H1880 H 0.38519 0.82437 0.79684
 H1881 H 0.43287 0.80216 0.76503
 H1882 H 0.45180 0.79192 0.75644
 H1883 H 0.45337 0.76754 0.78893
 H1884 H 0.43431 0.77757 0.79724
 C1885 C -0.11120 0.30149 0.81758
 C1886 C -0.10073 0.29567 0.81208
 C1887 C -0.09561 0.30032 0.80092
 C1888 C -0.10110 0.31095 0.79522
 C1889 C -0.11163 0.31680 0.80069
 C1890 C -0.11683 0.31213 0.81195
 N1891 N -0.08485 0.29404 0.79565
 N1892 N -0.07918 0.29795 0.78586
 C1893 C -0.06839 0.29145 0.78089
 C1894 C -0.06170 0.29676 0.77086
 C1895 C -0.05087 0.29082 0.76614
 C1896 C -0.04657 0.27941 0.77137
 C1897 C -0.05349 0.27397 0.78128
 C1898 C -0.06426 0.27994 0.78602
 H1899 H -0.11486 0.29754 0.82620
 H1900 H -0.09657 0.28748 0.81656
 H1901 H -0.09729 0.31472 0.78655
 H1902 H -0.11565 0.32496 0.79608
 H1903 H -0.06478 0.30562 0.76682
 H1904 H -0.04570 0.29533 0.75859
 H1905 H -0.05059 0.26507 0.78535
 H1906 H -0.06932 0.27556 0.79371
 C1907 C -0.11245 0.79774 0.31904
 C1908 C -0.10176 0.79182 0.31401
 C1909 C -0.09599 0.79654 0.30317
 C1910 C -0.10104 0.80734 0.29738
 C1911 C -0.11170 0.81329 0.30239
 C1912 C -0.11756 0.80859 0.31331
 N1913 N -0.08499 0.79032 0.29830
 N1914 N -0.07970 0.79390 0.28817
 C1915 C -0.06861 0.78790 0.28324
 C1916 C -0.06364 0.79222 0.27185
 C1917 C -0.05270 0.78679 0.26684
 C1918 C -0.04648 0.77694 0.27320
 C1919 C -0.05155 0.77255 0.28461
 C1920 C -0.06253 0.77798 0.28960
 H1921 H -0.11663 0.79380 0.32744
 H1922 H -0.09796 0.78351 0.31858
 H1923 H -0.09672 0.81122 0.28901
 H1924 H -0.11529 0.82158 0.29767
 H1925 H -0.06826 0.79983 0.26685
 H1926 H -0.04915 0.79025 0.25795
 H1927 H -0.04690 0.76510 0.28982
 H1928 H -0.06618 0.77451 0.29845
 C1929 C 0.61263 0.69905 0.31893
 C1930 C 0.60194 0.70474 0.31368
 C1931 C 0.59656 0.69996 0.30270
 C1932 C 0.60200 0.68934 0.29695
 C1933 C 0.61273 0.68363 0.30218
 C1934 C 0.61819 0.68842 0.31325
 N1935 N 0.58558 0.70606 0.29767
 N1936 N 0.57989 0.70213 0.28790
 C1937 C 0.56889 0.70840 0.28309
 C1938 C 0.56254 0.70324 0.27279
 C1939 C 0.55159 0.70898 0.26810
 C1940 C 0.54683 0.72005 0.27366
 C1941 C 0.55336 0.72530 0.28390
 C1942 C 0.56426 0.71954 0.28859
 H1943 H 0.61645 0.70305 0.32745
 H1944 H 0.59781 0.71291 0.31821
 H1945 H 0.59798 0.68547 0.28844
 H1946 H 0.61670 0.67551 0.29749
 H1947 H 0.56601 0.69466 0.26847
 H1948 H 0.54671 0.70463 0.26029
 H1949 H 0.55007 0.73393 0.28824
 H1950 H 0.56906 0.72378 0.29650
 C1951 C 0.61212 0.18352 0.79910
 C1952 C 0.60130 0.18866 0.79357
 C1953 C 0.59530 0.19910 0.79890
 C1954 C 0.60026 0.20442 0.80993
 C1955 C 0.61109 0.19927 0.81551
 C1956 C 0.61718 0.18874 0.81017
 N1957 N 0.58418 0.20400 0.79295
 N1958 N 0.57843 0.21378 0.79686
 C1959 C 0.56724 0.21841 0.79078
 C1960 C 0.56157 0.22948 0.79517
 C1961 C 0.55058 0.23414 0.78950
 C1962 C 0.54504 0.22775 0.77931
 C1963 C 0.55080 0.21664 0.77491
 C1964 C 0.56179 0.21202 0.78057
 H1965 H 0.61644 0.17545 0.79463
 H1966 H 0.59755 0.18447 0.78507
 H1967 H 0.59575 0.21249 0.81425
 H1968 H 0.61464 0.20356 0.82402
 H1969 H 0.56568 0.23452 0.80301
 H1970 H 0.54649 0.24282 0.79300
 H1971 H 0.54668 0.21139 0.76722
 H1972 H 0.56597 0.20341 0.77702
 C1973 C 1.11184 0.70117 0.81975
 C1974 C 1.10111 0.70700 0.81469
 C1975 C 1.09548 0.70230 0.80378
 C1976 C 1.10072 0.69161 0.79795
 C1977 C 1.11144 0.68576 0.80301
 C1978 C 1.11716 0.69046 0.81398
 N1979 N 1.08445 0.70845 0.79888
 N1980 N 1.07915 0.70483 0.78878
 C1981 C 1.06803 0.71077 0.78384
 C1982 C 1.06290 0.70624 0.77263
 C1983 C 1.05189 0.71156 0.76766
 C1984 C 1.04576 0.72155 0.77387
 C1985 C 1.05102 0.72620 0.78508
 C1986 C 1.06206 0.72086 0.79004
 H1987 H 1.11592 0.70515 0.82816
 H1988 H 1.09717 0.71522 0.81928
 H1989 H 1.09651 0.68776 0.78952
 H1990 H 1.11516 0.67753 0.79828
 H1991 H 1.06745 0.69851 0.76774
 H1992 H 1.04821 0.70790 0.75890
 H1993 H 1.04646 0.73380 0.79015
 H1994 H 1.06584 0.72453 0.79875
 C1995 C 1.11180 0.18112 0.29881
 C1996 C 1.10108 0.18614 0.29296
 C1997 C 1.09549 0.19720 0.29748
 C1998 C 1.10075 0.20321 0.30800
 C1999 C 1.11146 0.19818 0.31389
 C2000 C 1.11714 0.18706 0.30938
 N2001 N 1.08445 0.20201 0.29129
 N2002 N 1.07926 0.21235 0.29450
 C2003 C 1.06813 0.21708 0.28840
 C2004 C 1.06320 0.22873 0.29214
 C2005 C 1.05222 0.23351 0.28657
 C2006 C 1.04592 0.22666 0.27715
 C2007 C 1.05097 0.21500 0.27333
 C2008 C 1.06198 0.21025 0.27889
 H2009 H 1.11582 0.17256 0.29501
 H2010 H 1.09709 0.18140 0.28488
 H2011 H 1.09656 0.21175 0.31170
 H2012 H 1.11524 0.20307 0.32196
 H2013 H 1.06788 0.23410 0.29942
 H2014 H 1.04871 0.24261 0.28959
 H2015 H 1.04627 0.20941 0.26622
 H2016 H 1.06559 0.20120 0.27585
 C2017 C 0.60998 0.30092 0.68327
 C2018 C 0.59943 0.29528 0.68878
 C2019 C 0.59442 0.29996 0.69997
 C2020 C 0.60011 0.31046 0.70569
 C2021 C 0.61075 0.31611 0.70020
 C2022 C 0.61585 0.31140 0.68892
 N2023 N 0.58360 0.29381 0.70524
 N2024 N 0.57787 0.29779 0.71499
 C2025 C 0.56704 0.29131 0.71991
 C2026 C 0.56020 0.29671 0.72980
 C2027 C 0.54936 0.29077 0.73450
 C2028 C 0.54522 0.27924 0.72940
 C2029 C 0.55228 0.27374 0.71964
 C2030 C 0.56305 0.27972 0.71492
 H2031 H 0.61347 0.29700 0.67457
 H2032 H 0.59510 0.28721 0.68427
 H2033 H 0.59640 0.31423 0.71439
 H2034 H 0.61497 0.32412 0.70487
 H2035 H 0.56316 0.30564 0.73374
 H2036 H 0.54407 0.29533 0.74192
 H2037 H 0.54953 0.26476 0.71567
 H2038 H 0.56823 0.27527 0.70735
 C2039 C 0.61046 0.79948 0.18238
 C2040 C 0.60007 0.79356 0.18790
 C2041 C 0.59492 0.79815 0.19908
 C2042 C 0.60028 0.80883 0.20475
 C2043 C 0.61072 0.81478 0.19925
 C2044 C 0.61597 0.81016 0.18799
 N2045 N 0.58429 0.79175 0.20439
 N2046 N 0.57878 0.79544 0.21436
 C2047 C 0.56810 0.78883 0.21938
 C2048 C 0.56167 0.79383 0.22972
 C2049 C 0.55093 0.78781 0.23450
 C2050 C 0.54648 0.77661 0.22899
 C2051 C 0.55314 0.77147 0.21877
 C2052 C 0.56382 0.77752 0.21399
 H2053 H 0.61411 0.79561 0.17373
 H2054 H 0.59599 0.78534 0.18344
 H2055 H 0.59644 0.81256 0.21341
 H2056 H 0.61465 0.82295 0.20388
 H2057 H 0.56488 0.80253 0.23397
 H2058 H 0.54595 0.79207 0.24230
 H2059 H 0.55010 0.76273 0.21448
 H2060 H 0.56870 0.77337 0.20606
 C2061 C 1.11171 0.31841 0.20164
 C2062 C 1.10102 0.31334 0.20747
 C2063 C 1.09545 0.30235 0.20287
 C2064 C 1.10070 0.29640 0.19230
 C2065 C 1.11139 0.30147 0.18642
 C2066 C 1.11705 0.31256 0.19101
 N2067 N 1.08441 0.29753 0.20902
 N2068 N 1.07913 0.28728 0.20569
 C2069 C 1.06799 0.28262 0.21178
 C2070 C 1.06301 0.27101 0.20803
 C2071 C 1.05204 0.26628 0.21366
 C2072 C 1.04583 0.27314 0.22315
 C2073 C 1.05090 0.28478 0.22693
 C2074 C 1.06189 0.28948 0.22131
 H2075 H 1.11571 0.32694 0.20550
 H2076 H 1.09705 0.31801 0.21561
 H2077 H 1.09653 0.28789 0.18854
 H2078 H 1.11517 0.29665 0.17830
 H2079 H 1.06764 0.26562 0.20072
 H2080 H 1.04849 0.25720 0.21065
 H2081 H 1.04625 0.29039 0.23406
 H2082 H 1.06553 0.29851 0.22434
 C2083 C 1.11035 0.81665 0.69930
 C2084 C 1.09989 0.81105 0.70503
 C2085 C 1.09488 0.79982 0.70035
 C2086 C 1.10046 0.79419 0.68977
 C2087 C 1.11097 0.79977 0.68402
 C2088 C 1.11608 0.81108 0.68873
 N2089 N 1.08415 0.79443 0.70654
 N2090 N 1.07866 0.78450 0.70266
 C2091 C 1.06789 0.77939 0.70906
 C2092 C 1.06150 0.76911 0.70382
 C2093 C 1.05070 0.76422 0.70965
 C2094 C 1.04614 0.76953 0.72089
 C2095 C 1.05273 0.77969 0.72624
 C2096 C 1.06348 0.78460 0.72038
 H2097 H 1.11387 0.82535 0.70323
 H2098 H 1.09565 0.81549 0.71317
 H2099 H 1.09673 0.78549 0.68598
 H2100 H 1.11508 0.79517 0.67593
 H2101 H 1.06480 0.76502 0.69510
 H2102 H 1.04577 0.75649 0.70520
 H2103 H 1.04961 0.78384 0.73500
 H2104 H 1.06831 0.79248 0.72469
 C2105 C 0.38782 0.68166 0.70145
 C2106 C 0.39841 0.68681 0.70740
 C2107 C 0.40431 0.69752 0.70249
 C2108 C 0.39948 0.70310 0.69153
 C2109 C 0.38887 0.69799 0.68559
 C2110 C 0.38289 0.68719 0.69047
 N2111 N 0.41520 0.70250 0.70877
 N2112 N 0.42140 0.71179 0.70438
 C2113 C 0.43231 0.71680 0.71059
 C2114 C 0.43920 0.72637 0.70469
 C2115 C 0.45004 0.73132 0.71036
 C2116 C 0.45414 0.72679 0.72210
 C2117 C 0.44710 0.71725 0.72806
 C2118 C 0.43630 0.71228 0.72235
 H2119 H 0.38357 0.67335 0.70553
 H2120 H 0.40206 0.68241 0.71584
 H2121 H 0.40386 0.71142 0.68756
 H2122 H 0.38542 0.70257 0.67718
 H2123 H 0.43624 0.72990 0.69561
 H2124 H 0.45533 0.73852 0.70543
 H2125 H 0.44989 0.71370 0.73718
 H2126 H 0.43107 0.70493 0.72714
 C2127 C 0.38769 0.18215 0.20051
 C2128 C 0.39825 0.18748 0.20634
 C2129 C 0.40389 0.19833 0.20142
 C2130 C 0.39881 0.20386 0.19054
 C2131 C 0.38823 0.19856 0.18470
 C2132 C 0.38251 0.18762 0.18960
 N2133 N 0.41476 0.20346 0.20761
 N2134 N 0.42049 0.21320 0.20359
 C2135 C 0.43142 0.21818 0.20982
 C2136 C 0.43762 0.22862 0.20465
 C2137 C 0.44851 0.23346 0.21033
 C2138 C 0.45339 0.22789 0.22131
 C2139 C 0.44701 0.21753 0.22658
 C2140 C 0.43614 0.21271 0.22089
 H2141 H 0.38365 0.17374 0.20460
 H2142 H 0.40209 0.18311 0.21471
 H2143 H 0.40301 0.21227 0.18656
 H2144 H 0.38458 0.20310 0.17635
 H2145 H 0.43408 0.23291 0.19611
 H2146 H 0.45328 0.24137 0.20598
 H2147 H 0.45040 0.21318 0.23515
 H2148 H 0.43148 0.20467 0.22513
 C2149 C -0.11241 0.68161 0.20031
 C2150 C -0.10192 0.68689 0.20630
 C2151 C -0.09617 0.69771 0.20145
 C2152 C -0.10106 0.70326 0.19050
 C2153 C -0.11158 0.69801 0.18450
 C2154 C -0.11741 0.68710 0.18933
 N2155 N -0.08537 0.70280 0.20778
 N2156 N -0.07938 0.71233 0.20362
 C2157 C -0.06854 0.71735 0.20994
 C2158 C -0.06190 0.72729 0.20439
 C2159 C -0.05108 0.73218 0.21012
 C2160 C -0.04673 0.72721 0.22160
 C2161 C -0.05355 0.71734 0.22725
 C2162 C -0.06434 0.71243 0.22147
 H2163 H -0.11656 0.67323 0.20436
 H2164 H -0.09823 0.68252 0.21473
 H2165 H -0.09678 0.71165 0.18657
 H2166 H -0.11509 0.70256 0.17611
 H2167 H -0.06504 0.73115 0.19550
 H2168 H -0.04598 0.73968 0.20544
 H2169 H -0.05059 0.71345 0.23619
 H2170 H -0.06937 0.70479 0.22600
 C2171 C -0.11225 0.18093 0.70211
 C2172 C -0.10154 0.18584 0.70807
 C2173 C -0.09560 0.19663 0.70337
 C2174 C -0.10048 0.20247 0.69255
 C2175 C -0.11116 0.19758 0.68658
 C2176 C -0.11722 0.18674 0.69127
 N2177 N -0.08464 0.20143 0.70965
 N2178 N -0.07918 0.21149 0.70603
 C2179 C -0.06814 0.21640 0.71207
 C2180 C -0.06290 0.22762 0.70756
 C2181 C -0.05199 0.23260 0.71303
 C2182 C -0.04609 0.22639 0.72314
 C2183 C -0.05145 0.21515 0.72773
 C2184 C -0.06239 0.21019 0.72225
 H2185 H -0.11658 0.17259 0.70605
 H2186 H -0.09786 0.18123 0.71638
 H2187 H -0.09603 0.21081 0.68869
 H2188 H -0.11461 0.20235 0.67828
 H2189 H -0.06728 0.23251 0.69975
 H2190 H -0.04822 0.24136 0.70940
 H2191 H -0.04704 0.21007 0.73540
 H2192 H -0.06626 0.20148 0.72588
 C2193 C 0.31694 0.38686 0.29883
 C2194 C 0.31199 0.39766 0.29314
 C2195 C 0.30142 0.40371 0.29822
 C2196 C 0.29580 0.39883 0.30916
 C2197 C 0.30077 0.38803 0.31489
 C2198 C 0.31141 0.38189 0.30980
 N2199 N 0.29666 0.41479 0.29214
 N2200 N 0.28685 0.42059 0.29597
 C2201 C 0.28224 0.43173 0.28987
 C2202 C 0.27124 0.43748 0.29441
 C2203 C 0.26659 0.44846 0.28879
 C2204 C 0.27291 0.45391 0.27850
 C2205 C 0.28393 0.44806 0.27392
 C2206 C 0.28856 0.43707 0.27954
 H2207 H 0.32515 0.38251 0.29459
 H2208 H 0.31640 0.40134 0.28473
 H2209 H 0.28762 0.40338 0.31329
 H2210 H 0.29621 0.38452 0.32329
 H2211 H 0.26627 0.43344 0.30234
 H2212 H 0.25798 0.45262 0.29243
 H2213 H 0.28912 0.45211 0.26613
 H2214 H 0.29712 0.43282 0.27588
 C2215 C 0.30006 -0.11233 0.81729
 C2216 C 0.29430 -0.10182 0.81180
 C2217 C 0.29940 -0.09629 0.80103
 C2218 C 0.31042 -0.10143 0.79572
 C2219 C 0.31620 -0.11199 0.80115
 C2220 C 0.31112 -0.11766 0.81205
 N2221 N 0.29320 -0.08548 0.79576
 N2222 N 0.29745 -0.07964 0.78620
 C2223 C 0.29114 -0.06880 0.78113
 C2224 C 0.29671 -0.06227 0.77113
 C2225 C 0.29096 -0.05145 0.76621
 C2226 C 0.27947 -0.04698 0.77122
 C2227 C 0.27380 -0.05369 0.78113
 C2228 C 0.27958 -0.06448 0.78605
 H2229 H 0.29570 -0.11621 0.82562
 H2230 H 0.28580 -0.09793 0.81599
 H2231 H 0.31456 -0.09729 0.78738
 H2232 H 0.32468 -0.11561 0.79675
 H2233 H 0.30562 -0.06548 0.76726
 H2234 H 0.29565 -0.04642 0.75869
 H2235 H 0.26486 -0.05063 0.78505
 H2236 H 0.27502 -0.06941 0.79372
 C2237 C 0.79907 0.38802 0.81753
 C2238 C 0.79348 0.39872 0.81226
 C2239 C 0.79891 0.40462 0.80186
 C2240 C 0.81016 0.39977 0.79677
 C2241 C 0.81581 0.38905 0.80203
 C2242 C 0.81032 0.38293 0.81248
 N2243 N 0.79275 0.41548 0.79668
 N2244 N 0.79694 0.42137 0.78713
 C2245 C 0.79054 0.43222 0.78220
 C2246 C 0.79570 0.43857 0.77187
 C2247 C 0.78974 0.44931 0.76700
 C2248 C 0.77850 0.45387 0.77243
 C2249 C 0.77327 0.44737 0.78271
 C2250 C 0.77922 0.43666 0.78755
 H2251 H 0.79442 0.38381 0.82553
 H2252 H 0.78481 0.40240 0.81627
 H2253 H 0.81456 0.40422 0.78873
 H2254 H 0.82444 0.38562 0.79779
 H2255 H 0.80442 0.43525 0.76766
 H2256 H 0.79407 0.45418 0.75916
 H2257 H 0.76452 0.45054 0.78696
 H2258 H 0.77498 0.43188 0.79549
 C2259 C 0.82015 -0.11189 0.29844
 C2260 C 0.81532 -0.10125 0.29232
 C2261 C 0.80390 -0.09586 0.29617
 C2262 C 0.79734 -0.10119 0.30633
 C2263 C 0.80216 -0.11177 0.31253
 C2264 C 0.81365 -0.11735 0.30868
 N2265 N 0.79922 -0.08493 0.28974
 N2266 N 0.78857 -0.08004 0.29247
 C2267 C 0.78378 -0.06901 0.28632
 C2268 C 0.77185 -0.06447 0.28976
 C2269 C 0.76700 -0.05352 0.28428
 C2270 C 0.77404 -0.04688 0.27523
 C2271 C 0.78595 -0.05158 0.27163
 C2272 C 0.79080 -0.06256 0.27713
 H2273 H 0.82904 -0.11568 0.29512
 H2274 H 0.82051 -0.09720 0.28453
 H2275 H 0.78849 -0.09716 0.30953
 H2276 H 0.79674 -0.11552 0.32028
 H2277 H 0.76634 -0.06940 0.29679
 H2278 H 0.75770 -0.05027 0.28709
 H2279 H 0.79165 -0.04661 0.26478
 H2280 H 0.80006 -0.06589 0.27432
 C2281 C 0.29908 0.61111 0.68125
 C2282 C 0.29322 0.60051 0.68642
 C2283 C 0.29783 0.59510 0.69748
 C2284 C 0.30842 0.60044 0.70340
 C2285 C 0.31429 0.61107 0.69825
 C2286 C 0.30969 0.61656 0.68710
 N2287 N 0.29158 0.58422 0.70246
 N2288 N 0.29550 0.57850 0.71223
 C2289 C 0.28917 0.56760 0.71709
 C2290 C 0.29436 0.56129 0.72742
 C2291 C 0.28853 0.55050 0.73225
 C2292 C 0.27735 0.54585 0.72680
 C2293 C 0.27208 0.55231 0.71650
 C2294 C 0.27794 0.56307 0.71167
 H2295 H 0.29523 0.61497 0.67266
 H2296 H 0.28507 0.59648 0.68177
 H2297 H 0.31214 0.59642 0.71199
 H2298 H 0.32239 0.61494 0.70308
 H2299 H 0.30302 0.56469 0.73166
 H2300 H 0.29291 0.54566 0.74008
 H2301 H 0.26337 0.54909 0.71223
 H2302 H 0.27369 0.56782 0.70372
 C2303 C 0.29867 1.11121 0.18236
 C2304 C 0.29291 1.10058 0.18756
 C2305 C 0.29783 1.09496 0.19838
 C2306 C 0.30865 1.10014 0.20403
 C2307 C 0.31445 1.11080 0.19884
 C2308 C 0.30954 1.11648 0.18791
 N2309 N 0.29170 1.08399 0.20330
 N2310 N 0.29547 1.07836 0.21318
 C2311 C 0.28923 1.06732 0.21785
 C2312 C 0.29375 1.06156 0.22879
 C2313 C 0.28798 1.05065 0.23344
 C2314 C 0.27756 1.04530 0.22719
 C2315 C 0.27299 1.05118 0.21625
 C2316 C 0.27876 1.06208 0.21162
 H2317 H 0.29453 1.11523 0.17398
 H2318 H 0.28458 1.09667 0.18312
 H2319 H 0.31265 1.09594 0.21242
 H2320 H 0.32278 1.11452 0.20340
 H2321 H 0.30179 1.06551 0.23370
 H2322 H 0.29162 1.04645 0.24198
 H2323 H 0.26509 1.04721 0.21113
 H2324 H 0.27509 1.06633 0.20311
 C2325 C 0.79877 0.61092 0.18144
 C2326 C 0.79300 0.60029 0.18662
 C2327 C 0.79754 0.59503 0.19778
 C2328 C 0.80800 0.60055 0.20377
 C2329 C 0.81381 0.61120 0.19858
 C2330 C 0.80927 0.61653 0.18733
 N2331 N 0.79146 0.58402 0.20268
 N2332 N 0.79463 0.57899 0.21307
 C2333 C 0.78856 0.56785 0.21770
 C2334 C 0.79205 0.56308 0.22944
 C2335 C 0.78647 0.55208 0.23410
 C2336 C 0.77729 0.54563 0.22702
 C2337 C 0.77375 0.55051 0.21525
 C2338 C 0.77931 0.56152 0.21063
 H2339 H 0.79496 0.61465 0.17277
 H2340 H 0.78496 0.59610 0.18192
 H2341 H 0.81171 0.59662 0.21241
 H2342 H 0.82184 0.61521 0.20343
 H2343 H 0.79914 0.56789 0.23500
 H2344 H 0.78927 0.54868 0.24328
 H2345 H 0.76685 0.54567 0.20949
 H2346 H 0.77647 0.56499 0.20149
 C2347 C 0.80248 1.10851 0.67823
 C2348 C 0.79675 1.09771 0.68316
 C2349 C 0.79743 1.09510 0.69603
 C2350 C 0.80399 1.10342 0.70395
 C2351 C 0.80986 1.11414 0.69901
 C2352 C 0.80915 1.11680 0.68609
 N2353 N 0.79160 1.08387 0.70075
 N2354 N 0.79096 1.08148 0.71246
 C2355 C 0.78541 1.07012 0.71720
 C2356 C 0.78410 1.06862 0.73018
 C2357 C 0.77902 1.05752 0.73516
 C2358 C 0.77524 1.04765 0.72719
 C2359 C 0.77651 1.04923 0.71412
 C2360 C 0.78152 1.06037 0.70917
 H2361 H 0.80188 1.11024 0.66822
 H2362 H 0.79178 1.09135 0.67695
 H2363 H 0.80466 1.10161 0.71394
 H2364 H 0.81481 1.12042 0.70532
 H2365 H 0.78704 1.07608 0.73647
 H2366 H 0.77799 1.05671 0.74524
 H2367 H 0.77390 1.04175 0.70772
 H2368 H 0.78252 1.06127 0.69909
 C2369 C 0.70212 0.61131 0.31670
 C2370 C 0.70769 0.60065 0.31138
 C2371 C 0.70235 0.59495 0.30084
 C2372 C 0.69127 0.60005 0.29558
 C2373 C 0.68562 0.61073 0.30093
 C2374 C 0.69097 0.61648 0.31159
 N2375 N 0.70831 0.58392 0.29586
 N2376 N 0.70462 0.57852 0.28584
 C2377 C 0.71074 0.56737 0.28126
 C2378 C 0.70701 0.56232 0.26972
 C2379 C 0.71276 0.55138 0.26509
 C2380 C 0.72232 0.54526 0.27201
 C2381 C 0.72604 0.55039 0.28360
 C2382 C 0.72034 0.56134 0.28817
 H2383 H 0.70661 0.61540 0.32484
 H2384 H 0.71623 0.59680 0.31551
 H2385 H 0.68695 0.59575 0.28743
 H2386 H 0.67707 0.61439 0.29671
 H2387 H 0.69965 0.56689 0.26428
 H2388 H 0.70980 0.54779 0.25604
 H2389 H 0.73321 0.54581 0.28926
 H2390 H 0.72335 0.56502 0.29717
 C2391 C 0.68382 1.11291 0.79790
 C2392 C 0.68911 1.10229 0.79218
 C2393 C 0.69896 1.09569 0.79797
 C2394 C 0.70359 1.09989 0.80958
 C2395 C 0.69847 1.11063 0.81525
 C2396 C 0.68847 1.11733 0.80952
 N2397 N 0.70414 1.08486 0.79181
 N2398 N 0.71157 1.07724 0.79738
 C2399 C 0.71689 1.06653 0.79112
 C2400 C 0.72275 1.05713 0.79826
 C2401 C 0.72787 1.04647 0.79245
 C2402 C 0.72743 1.04514 0.77930
 C2403 C 0.72166 1.05472 0.77214
 C2404 C 0.71638 1.06528 0.77799
 H2405 H 0.67625 1.11769 0.79301
 H2406 H 0.68548 1.09915 0.78320
 H2407 H 0.71124 1.09493 0.81423
 H2408 H 0.70233 1.11351 0.82420
 H2409 H 0.72317 1.05797 0.80839
 H2410 H 0.73199 1.03920 0.79831
 H2411 H 0.72135 1.05415 0.76200
 H2412 H 0.71201 1.07251 0.77226
 C2413 C 0.19807 0.61032 0.81835
 C2414 C 0.20336 0.59941 0.81323
 C2415 C 0.19889 0.59455 0.80189
 C2416 C 0.18884 0.60065 0.79572
 C2417 C 0.18351 0.61162 0.80083
 C2418 C 0.18815 0.61665 0.81217
 N2419 N 0.20493 0.58357 0.79685
 N2420 N 0.20136 0.57817 0.78679
 C2421 C 0.20787 0.56728 0.78205
 C2422 C 0.20298 0.56089 0.77163
 C2423 C 0.20908 0.55015 0.76696
 C2424 C 0.22026 0.54565 0.77262
 C2425 C 0.22522 0.55221 0.78297
 C2426 C 0.21908 0.56289 0.78766
 H2427 H 0.20179 0.61373 0.82717
 H2428 H 0.21106 0.59475 0.81810
 H2429 H 0.18521 0.59705 0.78693
 H2430 H 0.17592 0.61624 0.79579
 H2431 H 0.19435 0.56417 0.76721
 H2432 H 0.20493 0.54523 0.75907
 H2433 H 0.23392 0.54916 0.78741
 H2434 H 0.22315 0.56772 0.79565
 C2435 C 0.18391 1.11046 0.30092
 C2436 C 0.18929 1.09985 0.29530
 C2437 C 0.20023 1.09438 0.30026
 C2438 C 0.20580 1.09964 0.31102
 C2439 C 0.20043 1.11031 0.31667
 C2440 C 0.18942 1.11588 0.31167
 N2441 N 0.20540 1.08353 0.29412
 N2442 N 0.21504 1.07757 0.29815
 C2443 C 0.21985 1.06673 0.29165
 C2444 C 0.22974 1.05975 0.29697
 C2445 C 0.23430 1.04890 0.29099
 C2446 C 0.22904 1.04490 0.27952
 C2447 C 0.21929 1.05211 0.27410
 C2448 C 0.21472 1.06288 0.28010
 H2449 H 0.17543 1.11434 0.29675
 H2450 H 0.18490 1.09584 0.28703
 H2451 H 0.21427 1.09555 0.31503
 H2452 H 0.20497 1.11417 0.32490
 H2453 H 0.23379 1.06260 0.30586
 H2454 H 0.24174 1.04350 0.29547
 H2455 H 0.21521 1.04944 0.26516
 H2456 H 0.20715 1.06817 0.27572
 C2457 C 0.69967 0.38835 0.68167
 C2458 C 0.70542 0.39895 0.68694
 C2459 C 0.70090 0.40408 0.69816
 C2460 C 0.69048 0.39846 0.70413
 C2461 C 0.68471 0.38782 0.69888
 C2462 C 0.68923 0.38260 0.68757
 N2463 N 0.70706 0.41499 0.70322
 N2464 N 0.70342 0.42034 0.71329
 C2465 C 0.70967 0.43129 0.71816
 C2466 C 0.70491 0.43708 0.72898
 C2467 C 0.71064 0.44794 0.73379
 C2468 C 0.72129 0.45318 0.72784
 C2469 C 0.72616 0.44722 0.71707
 C2470 C 0.72040 0.43640 0.71226
 H2471 H 0.70345 0.38473 0.67295
 H2472 H 0.71344 0.40322 0.68224
 H2473 H 0.68680 0.40226 0.71283
 H2474 H 0.67674 0.38371 0.70375
 H2475 H 0.69664 0.43325 0.73361
 H2476 H 0.70657 0.45237 0.74201
 H2477 H 0.73447 0.45089 0.71239
 H2478 H 0.72433 0.43206 0.70393
 C2479 C 0.68147 -0.11221 0.20008
 C2480 C 0.68650 -0.10153 0.20585
 C2481 C 0.69771 -0.09614 0.20144
 C2482 C 0.70387 -0.10156 0.19107
 C2483 C 0.69883 -0.11226 0.18524
 C2484 C 0.68755 -0.11774 0.18968
 N2485 N 0.70251 -0.08517 0.20763
 N2486 N 0.71286 -0.07992 0.20447
 C2487 C 0.71744 -0.06887 0.21073
 C2488 C 0.72898 -0.06365 0.20695
 C2489 C 0.73360 -0.05275 0.21271
 C2490 C 0.72672 -0.04686 0.22239
 C2491 C 0.71517 -0.05220 0.22623
 C2492 C 0.71057 -0.06310 0.22046
 H2493 H 0.67282 -0.11609 0.20386
 H2494 H 0.68166 -0.09743 0.21383
 H2495 H 0.71254 -0.09752 0.18745
 H2496 H 0.70379 -0.11617 0.17725
 H2497 H 0.73439 -0.06803 0.19949
 H2498 H 0.74260 -0.04898 0.20965
 H2499 H 0.70956 -0.04781 0.23353
 H2500 H 0.70160 -0.06693 0.22354
 C2501 C 0.20057 0.38904 0.18308
 C2502 C 0.20638 0.39956 0.18843
 C2503 C 0.20140 0.40512 0.19924
 C2504 C 0.19046 0.40001 0.20473
 C2505 C 0.18463 0.38945 0.19942
 C2506 C 0.18961 0.38381 0.18852
 N2507 N 0.20762 0.41592 0.20440
 N2508 N 0.20338 0.42181 0.21393
 C2509 C 0.20970 0.43262 0.21895
 C2510 C 0.20409 0.43926 0.22884
 C2511 C 0.20987 0.45006 0.23371
 C2512 C 0.22143 0.45437 0.22877
 C2513 C 0.22715 0.44753 0.21897
 C2514 C 0.22133 0.43679 0.21408
 H2515 H 0.20474 0.38504 0.17472
 H2516 H 0.21481 0.40342 0.18410
 H2517 H 0.18643 0.40414 0.21312
 H2518 H 0.17623 0.38577 0.20389
 H2519 H 0.19513 0.43615 0.23267
 H2520 H 0.20515 0.45518 0.24116
 H2521 H 0.23616 0.45045 0.21512
 H2522 H 0.22592 0.43176 0.20650
 C2523 C 0.18118 -0.11147 0.70206
 C2524 C 0.18626 -0.10084 0.70793
 C2525 C 0.19716 -0.09511 0.70319
 C2526 C 0.20296 -0.10012 0.69242
 C2527 C 0.19789 -0.11073 0.68651
 C2528 C 0.18692 -0.11656 0.69125
 N2529 N 0.20206 -0.08417 0.70937
 N2530 N 0.21221 -0.07884 0.70577
 C2531 C 0.21713 -0.06780 0.71176
 C2532 C 0.22849 -0.06270 0.70738
 C2533 C 0.23344 -0.05178 0.71278
 C2534 C 0.22706 -0.04572 0.72268
 C2535 C 0.21570 -0.05095 0.72717
 C2536 C 0.21076 -0.06190 0.72175
 H2537 H 0.17276 -0.11564 0.70604
 H2538 H 0.18169 -0.09706 0.71622
 H2539 H 0.21138 -0.09582 0.68853
 H2540 H 0.20260 -0.11428 0.67823
 H2541 H 0.23351 -0.06719 0.69972
 H2542 H 0.24231 -0.04811 0.70925
 H2543 H 0.21049 -0.04644 0.73469
 H2544 H 0.20194 -0.06567 0.72529
 C2545 C 0.31872 0.30135 0.39020
 C2546 C 0.31337 0.29558 0.40072
 C2547 C 0.30209 0.30011 0.40585
 C2548 C 0.29615 0.31061 0.40035
 C2549 C 0.30148 0.31641 0.38977
 C2550 C 0.31284 0.31183 0.38453
 N2551 N 0.29693 0.29380 0.41659
 N2552 N 0.28687 0.29739 0.42211
 C2553 C 0.28204 0.29079 0.43285
 C2554 C 0.27148 0.29560 0.43919
 C2555 C 0.26681 0.28952 0.44991
 C2556 C 0.27263 0.27847 0.45443
 C2557 C 0.28309 0.27356 0.44789
 C2558 C 0.28777 0.27966 0.43723
 H2559 H 0.32745 0.29750 0.38657
 H2560 H 0.31804 0.28750 0.40490
 H2561 H 0.28740 0.31428 0.40417
 H2562 H 0.29664 0.32442 0.38572
 H2563 H 0.26697 0.30416 0.43591
 H2564 H 0.25882 0.29361 0.45479
 H2565 H 0.28764 0.26494 0.45097
 H2566 H 0.29587 0.27566 0.43244
 C2567 C 0.31764 0.79944 -0.11133
 C2568 C 0.31250 0.79377 -0.10064
 C2569 C 0.30182 0.79889 -0.09482
 C2570 C 0.29631 0.80988 -0.09979
 C2571 C 0.30143 0.81557 -0.11052
 C2572 C 0.31212 0.81037 -0.11648
 N2573 N 0.29677 0.79272 -0.08395
 N2574 N 0.28717 0.79692 -0.07805
 C2575 C 0.28219 0.79066 -0.06719
 C2576 C 0.27199 0.79610 -0.06079
 C2577 C 0.26704 0.79036 -0.05003
 C2578 C 0.27222 0.77900 -0.04550
 C2579 C 0.28239 0.77349 -0.05205
 C2580 C 0.28734 0.77926 -0.06278
 H2581 H 0.32595 0.79520 -0.11550
 H2582 H 0.31686 0.78533 -0.09687
 H2583 H 0.28804 0.81404 -0.09544
 H2584 H 0.29689 0.82396 -0.11416
 H2585 H 0.26796 0.80490 -0.06408
 H2586 H 0.25933 0.79493 -0.04512
 H2587 H 0.28646 0.76466 -0.04891
 H2588 H 0.29518 0.77482 -0.06760
 C2589 C 0.81718 0.30083 -0.11078
 C2590 C 0.81187 0.29498 -0.10028
 C2591 C 0.80079 0.29969 -0.09487
 C2592 C 0.79500 0.31041 -0.10010
 C2593 C 0.80028 0.31627 -0.11066
 C2594 C 0.81144 0.31154 -0.11615
 N2595 N 0.79569 0.29337 -0.08413
 N2596 N 0.78600 0.29734 -0.07822
 C2597 C 0.78114 0.29079 -0.06749
 C2598 C 0.77114 0.29609 -0.06067
 C2599 C 0.76643 0.29004 -0.04997
 C2600 C 0.77164 0.27851 -0.04593
 C2601 C 0.78154 0.27311 -0.05294
 C2602 C 0.78627 0.27919 -0.06358
 H2603 H 0.82572 0.29682 -0.11469
 H2604 H 0.81642 0.28672 -0.09633
 H2605 H 0.78640 0.31422 -0.09607
 H2606 H 0.79560 0.32451 -0.11445
 H2607 H 0.76711 0.30503 -0.06357
 H2608 H 0.75889 0.29452 -0.04471
 H2609 H 0.78560 0.26413 -0.05024
 H2610 H 0.79394 0.27483 -0.06874
 C2611 C 0.79754 0.82009 0.38847
 C2612 C 0.79167 0.81530 0.39923
 C2613 C 0.79615 0.80427 0.40490
 C2614 C 0.80667 0.79806 0.39969
 C2615 C 0.81257 0.80285 0.38896
 C2616 C 0.80809 0.81394 0.38318
 N2617 N 0.78996 0.79960 0.41594
 N2618 N 0.79319 0.78922 0.42103
 C2619 C 0.78725 0.78448 0.43216
 C2620 C 0.79108 0.77276 0.43684
 C2621 C 0.78572 0.76792 0.44782
 C2622 C 0.77642 0.77478 0.45437
 C2623 C 0.77250 0.78652 0.44957
 C2624 C 0.77786 0.79133 0.43855
 H2625 H 0.79378 0.82864 0.38436
 H2626 H 0.78358 0.82018 0.40316
 H2627 H 0.81036 0.78953 0.40393
 H2628 H 0.82063 0.79780 0.38525
 H2629 H 0.79827 0.76737 0.43197
 H2630 H 0.78880 0.75877 0.45114
 H2631 H 0.76547 0.79209 0.45446
 H2632 H 0.77477 0.80044 0.43513
 C2633 C 0.68152 0.29837 0.61147
 C2634 C 0.68660 0.29252 0.60085
 C2635 C 0.69757 0.29721 0.59521
 C2636 C 0.70346 0.30790 0.60033
 C2637 C 0.69838 0.31379 0.61096
 C2638 C 0.68733 0.30911 0.61668
 N2639 N 0.70240 0.29101 0.58425
 N2640 N 0.71260 0.29442 0.57890
 C2641 C 0.71729 0.28830 0.56784
 C2642 C 0.72875 0.29234 0.56266
 C2643 C 0.73346 0.28678 0.55172
 C2644 C 0.72674 0.27706 0.54571
 C2645 C 0.71528 0.27292 0.55101
 C2646 C 0.71060 0.27848 0.56198
 H2647 H 0.67303 0.29441 0.61552
 H2648 H 0.68196 0.28430 0.59698
 H2649 H 0.71194 0.31174 0.59610
 H2650 H 0.70314 0.32201 0.61462
 H2651 H 0.73403 0.29985 0.56710
 H2652 H 0.74242 0.29004 0.54801
 H2653 H 0.70981 0.26557 0.54654
 H2654 H 0.70169 0.27519 0.56579
 C2655 C 0.68314 0.79959 1.11165
 C2656 C 0.68830 0.79409 1.10090
 C2657 C 0.69907 0.79922 1.09527
 C2658 C 0.70468 0.80999 1.10053
 C2659 C 0.69950 0.81554 1.11130
 C2660 C 0.68864 0.81041 1.11699
 N2661 N 0.70398 0.79333 1.08420
 N2662 N 0.71397 0.79712 1.07871
 C2663 C 0.71863 0.79113 1.06757
 C2664 C 0.72989 0.79544 1.06218
 C2665 C 0.73462 0.78985 1.05125
 C2666 C 0.72810 0.77985 1.04548
 C2667 C 0.71679 0.77554 1.05095
 C2668 C 0.71210 0.78111 1.06189
 H2669 H 0.67486 0.79524 1.11573
 H2670 H 0.68390 0.78579 1.09693
 H2671 H 0.71301 0.81414 1.09630
 H2672 H 0.70398 0.82387 1.11507
 H2673 H 0.73503 0.80313 1.06648
 H2674 H 0.74344 0.79328 1.04738
 H2675 H 0.71144 0.76799 1.04665
 H2676 H 0.70333 0.77763 1.06584
 C2677 C 0.19838 0.31784 1.11100
 C2678 C 0.20395 0.31254 1.10037
 C2679 C 0.19932 0.30132 1.09532
 C2680 C 0.18895 0.29537 1.10105
 C2681 C 0.18335 0.30065 1.11175
 C2682 C 0.18801 0.31196 1.11689
 N2683 N 0.20540 0.29626 1.08442
 N2684 N 0.20170 0.28630 1.07888
 C2685 C 0.20815 0.28166 1.06796
 C2686 C 0.20334 0.27117 1.06159
 C2687 C 0.20931 0.26671 1.05072
 C2688 C 0.22023 0.27269 1.04607
 C2689 C 0.22514 0.28307 1.05265
 C2690 C 0.21916 0.28753 1.06345
 H2691 H 0.20227 0.32656 1.11453
 H2692 H 0.21194 0.31722 1.09601
 H2693 H 0.18521 0.28666 1.09730
 H2694 H 0.17542 0.29582 1.11598
 H2695 H 0.19486 0.26655 1.06496
 H2696 H 0.20523 0.25875 1.04581
 H2697 H 0.23368 0.28773 1.04948
 H2698 H 0.22315 0.29559 1.06824
 C2699 C 0.20144 0.81850 0.61310
 C2700 C 0.20738 0.81352 0.60248
 C2701 C 0.20251 0.80284 0.59653
 C2702 C 0.19154 0.79714 0.60135
 C2703 C 0.18555 0.80213 0.61197
 C2704 C 0.19041 0.81290 0.61799
 N2705 N 0.20879 0.79812 0.58558
 N2706 N 0.20510 0.78825 0.57987
 C2707 C 0.21132 0.78365 0.56882
 C2708 C 0.20683 0.77264 0.56316
 C2709 C 0.21248 0.76805 0.55221
 C2710 C 0.22274 0.77442 0.54670
 C2711 C 0.22733 0.78541 0.55249
 C2712 C 0.22168 0.78999 0.56346
 H2713 H 0.20555 0.82676 0.61739
 H2714 H 0.21583 0.81800 0.59885
 H2715 H 0.18756 0.78887 0.59690
 H2716 H 0.17711 0.79751 0.61540
 H2717 H 0.19890 0.76764 0.56722
 H2718 H 0.20885 0.75945 0.54809
 H2719 H 0.23513 0.79061 0.54841
 H2720 H 0.22531 0.79855 0.56765
 C2721 C 0.31794 0.70100 0.61149
 C2722 C 0.31258 0.70693 0.60103
 C2723 C 0.30155 0.70219 0.59556
 C2724 C 0.29587 0.69139 0.60068
 C2725 C 0.30120 0.68545 0.61116
 C2726 C 0.31231 0.69017 0.61671
 N2727 N 0.29637 0.70850 0.58482
 N2728 N 0.28661 0.70447 0.57909
 C2729 C 0.28156 0.71082 0.56832
 C2730 C 0.27135 0.70546 0.56190
 C2731 C 0.26645 0.71124 0.55114
 C2732 C 0.27168 0.72257 0.54663
 C2733 C 0.28180 0.72804 0.55324
 C2734 C 0.28671 0.72222 0.56396
 H2735 H 0.32649 0.70495 0.61541
 H2736 H 0.31706 0.71525 0.59716
 H2737 H 0.28732 0.68755 0.59662
 H2738 H 0.29653 0.67718 0.61485
 H2739 H 0.26730 0.69667 0.56516
 H2740 H 0.25875 0.70671 0.54619
 H2741 H 0.28589 0.73687 0.55015
 H2742 H 0.29455 0.72662 0.56881
 C2743 C 0.30087 0.18224 1.11013
 C2744 C 0.29510 0.18773 1.09968
 C2745 C 0.29945 0.19920 1.09491
 C2746 C 0.30976 0.20518 1.10071
 C2747 C 0.31556 0.19971 1.11122
 C2748 C 0.31115 0.18817 1.11610
 N2749 N 0.29321 0.20448 1.08420
 N2750 N 0.29667 0.21474 1.07905
 C2751 C 0.29024 0.21973 1.06829
 C2752 C 0.29491 0.23060 1.06247
 C2753 C 0.28903 0.23545 1.05173
 C2754 C 0.27832 0.22948 1.04664
 C2755 C 0.27353 0.21868 1.05264
 C2756 C 0.27943 0.21383 1.06334
 H2757 H 0.29721 0.17333 1.11346
 H2758 H 0.28718 0.18302 1.09527
 H2759 H 0.31331 0.21407 1.09716
 H2760 H 0.32341 0.20459 1.11552
 H2761 H 0.30323 0.23523 1.06619
 H2762 H 0.29303 0.24370 1.04726
 H2763 H 0.26517 0.21399 1.04908
 H2764 H 0.27555 0.20547 1.06771
 C2765 C 0.80032 0.68314 1.11036
 C2766 C 0.79464 0.68865 1.09987
 C2767 C 0.79949 0.69974 1.09472
 C2768 C 0.81017 0.70536 1.10020
 C2769 C 0.81586 0.69989 1.11076
 C2770 C 0.81100 0.68870 1.11599
 N2771 N 0.79336 0.70502 1.08394
 N2772 N 0.79758 0.71464 1.07816
 C2773 C 0.79122 0.71967 1.06738
 C2774 C 0.79690 0.72942 1.06056
 C2775 C 0.79107 0.73423 1.04977
 C2776 C 0.77939 0.72939 1.04567
 C2777 C 0.77361 0.71975 1.05270
 C2778 C 0.77948 0.71491 1.06342
 H2779 H 0.79629 0.67451 1.11396
 H2780 H 0.78643 0.68422 1.09570
 H2781 H 0.81407 0.71398 1.09638
 H2782 H 0.82402 0.70449 1.11480
 H2783 H 0.80595 0.73316 1.06350
 H2784 H 0.79585 0.74154 1.04450
 H2785 H 0.76451 0.71598 1.04994
 H2786 H 0.77483 0.70744 1.06859
 C2787 C 0.81919 0.20225 0.61177
 C2788 C 0.81426 0.20828 0.60116
 C2789 C 0.80327 0.20379 0.59542
 C2790 C 0.79720 0.19314 0.60042
 C2791 C 0.80213 0.18707 0.61102
 C2792 C 0.81321 0.19153 0.61684
 N2793 N 0.79856 0.21013 0.58448
 N2794 N 0.78833 0.20683 0.57911
 C2795 C 0.78368 0.21301 0.56806
 C2796 C 0.77220 0.20904 0.56289
 C2797 C 0.76752 0.21465 0.55195
 C2798 C 0.77429 0.22435 0.54595
 C2799 C 0.78578 0.22841 0.55125
 C2800 C 0.79044 0.22280 0.56221
 H2801 H 0.82772 0.20602 0.61592
 H2802 H 0.81903 0.21648 0.59740
 H2803 H 0.78869 0.18946 0.59613
 H2804 H 0.79720 0.17890 0.61459
 H2805 H 0.76688 0.20155 0.56733
 H2806 H 0.75856 0.21143 0.54822
 H2807 H 0.79130 0.23574 0.54678
 H2808 H 0.79937 0.22601 0.56601
 C2809 C 0.70241 0.68169 0.38946
 C2810 C 0.70811 0.68690 0.40008
 C2811 C 0.70323 0.69784 0.40554
 C2812 C 0.69250 0.70359 0.40025
 C2813 C 0.68675 0.69839 0.38963
 C2814 C 0.69163 0.68736 0.38408
 N2815 N 0.70929 0.70281 0.41649
 N2816 N 0.70578 0.71306 0.42164
 C2817 C 0.71183 0.71783 0.43269
 C2818 C 0.70793 0.72944 0.43757
 C2819 C 0.71352 0.73426 0.44844
 C2820 C 0.72311 0.72748 0.45467
 C2821 C 0.72703 0.71583 0.44971
 C2822 C 0.72146 0.71105 0.43881
 H2823 H 0.70649 0.67321 0.38556
 H2824 H 0.71637 0.68237 0.40409
 H2825 H 0.68853 0.71206 0.40434
 H2826 H 0.67850 0.70305 0.38582
 H2827 H 0.70054 0.73476 0.43291
 H2828 H 0.71041 0.74334 0.45192
 H2829 H 0.73425 0.71029 0.45437
 H2830 H 0.72461 0.70201 0.43526
 C2831 C 0.70084 0.18107 -0.11216
 C2832 C 0.70653 0.18600 -0.10140
 C2833 C 0.70165 0.19680 -0.09565
 C2834 C 0.69087 0.20263 -0.10077
 C2835 C 0.68514 0.19770 -0.11154
 C2836 C 0.69006 0.18687 -0.11740
 N2837 N 0.70782 0.20161 -0.08469
 N2838 N 0.70415 0.21160 -0.07916
 C2839 C 0.71038 0.21631 -0.06817
 C2840 C 0.70591 0.22739 -0.06261
 C2841 C 0.71166 0.23216 -0.05179
 C2842 C 0.72203 0.22588 -0.04633
 C2843 C 0.72657 0.21479 -0.05200
 C2844 C 0.72079 0.21003 -0.06281
 H2845 H 0.70493 0.17270 -0.11629
 H2846 H 0.71482 0.18141 -0.09753
 H2847 H 0.68689 0.21099 -0.09647
 H2848 H 0.67689 0.20247 -0.11525
 H2849 H 0.69792 0.23234 -0.06667
 H2850 H 0.70806 0.24082 -0.04776
 H2851 H 0.73442 0.20964 -0.04794
 H2852 H 0.72441 0.20142 -0.06692
 C2853 C 0.20215 0.68088 -0.11079
 C2854 C 0.20792 0.68566 -0.09997
 C2855 C 0.20327 0.69657 -0.09424
 C2856 C 0.19266 0.70266 -0.09941
 C2857 C 0.18686 0.69789 -0.11020
 C2858 C 0.19155 0.68696 -0.11606
 N2859 N 0.20945 0.70129 -0.08323
 N2860 N 0.20587 0.71140 -0.07786
 C2861 C 0.21190 0.71624 -0.06683
 C2862 C 0.20742 0.72749 -0.06165
 C2863 C 0.21293 0.73245 -0.05082
 C2864 C 0.22305 0.72619 -0.04491
 C2865 C 0.22763 0.71492 -0.05020
 C2866 C 0.22210 0.70997 -0.06107
 H2867 H 0.20600 0.67240 -0.11493
 H2868 H 0.21607 0.68085 -0.09606
 H2869 H 0.18885 0.71111 -0.09514
 H2870 H 0.17879 0.70289 -0.11399
 H2871 H 0.19959 0.73243 -0.06603
 H2872 H 0.20931 0.74125 -0.04710
 H2873 H 0.23532 0.70981 -0.04580
 H2874 H 0.22573 0.70123 -0.06490
 C2875 C 0.18178 0.19962 0.38869
 C2876 C 0.18699 0.20550 0.39922
 C2877 C 0.19823 0.20103 0.40452
 C2878 C 0.20427 0.19053 0.39914
 C2879 C 0.19909 0.18465 0.38858
 C2880 C 0.18777 0.18912 0.38319
 N2881 N 0.20323 0.20728 0.41536
 N2882 N 0.21326 0.20358 0.42088
 C2883 C 0.21813 0.20985 0.43177
 C2884 C 0.22888 0.20496 0.43771
 C2885 C 0.23371 0.21069 0.44851
 C2886 C 0.22785 0.22147 0.45357
 C2887 C 0.21713 0.22645 0.44748
 C2888 C 0.21230 0.22070 0.43670
 H2889 H 0.17304 0.20336 0.38494
 H2890 H 0.18224 0.21357 0.40329
 H2891 H 0.21299 0.18689 0.40307
 H2892 H 0.20403 0.17663 0.38465
 H2893 H 0.23344 0.19660 0.43402
 H2894 H 0.24188 0.20652 0.45305
 H2895 H 0.21252 0.23485 0.45102
 H2896 H 0.20401 0.22471 0.43224
 C2897 C 0.31782 0.38904 0.69953
 C2898 C 0.31269 0.39964 0.70542
 C2899 C 0.30159 0.40519 0.70089
 C2900 C 0.29561 0.39999 0.69032
 C2901 C 0.30072 0.38935 0.68441
 C2902 C 0.31190 0.38372 0.68894
 N2903 N 0.29666 0.41606 0.70720
 N2904 N 0.28677 0.42183 0.70350
 C2905 C 0.28200 0.43271 0.70992
 C2906 C 0.27146 0.43903 0.70503
 C2907 C 0.26672 0.44981 0.71096
 C2908 C 0.27245 0.45445 0.72195
 C2909 C 0.28297 0.44799 0.72690
 C2910 C 0.28771 0.43724 0.72094
 H2911 H 0.32644 0.38509 0.70333
 H2912 H 0.31740 0.40357 0.71356
 H2913 H 0.28699 0.40412 0.68664
 H2914 H 0.29584 0.38558 0.67632
 H2915 H 0.26697 0.43565 0.69654
 H2916 H 0.25872 0.45465 0.70681
 H2917 H 0.28748 0.45119 0.73545
 H2918 H 0.29583 0.43249 0.72496
 C2919 C 0.31674 0.88677 0.20081
 C2920 C 0.31152 0.89741 0.20653
 C2921 C 0.30094 0.90337 0.20135
 C2922 C 0.29554 0.89851 0.19032
 C2923 C 0.30078 0.88785 0.18454
 C2924 C 0.31150 0.88187 0.18969
 N2925 N 0.29605 0.91436 0.20747
 N2926 N 0.28631 0.92028 0.20362
 C2927 C 0.28177 0.93134 0.20994
 C2928 C 0.27080 0.93730 0.20558
 C2929 C 0.26626 0.94818 0.21148
 C2930 C 0.27266 0.95331 0.22188
 C2931 C 0.28365 0.94726 0.22626
 C2932 C 0.28817 0.93638 0.22036
 H2933 H 0.32490 0.88247 0.20519
 H2934 H 0.31575 0.90105 0.21505
 H2935 H 0.28734 0.90297 0.18614
 H2936 H 0.29646 0.88439 0.17601
 H2937 H 0.26576 0.93350 0.19758
 H2938 H 0.25767 0.95252 0.20798
 H2939 H 0.28891 0.95106 0.23411
 H2940 H 0.29671 0.93200 0.22389
 C2941 C 0.79964 0.38845 0.18133
 C2942 C 0.79385 0.39891 0.18684
 C2943 C 0.79857 0.40398 0.19800
 C2944 C 0.80921 0.39843 0.20368
 C2945 C 0.81502 0.38793 0.19818
 C2946 C 0.81032 0.38280 0.18692
 N2947 N 0.79244 0.41481 0.20324
 N2948 N 0.79631 0.42020 0.21320
 C2949 C 0.79008 0.43112 0.21817
 C2950 C 0.79512 0.43708 0.22876
 C2951 C 0.78948 0.44800 0.23356
 C2952 C 0.77865 0.45314 0.22780
 C2953 C 0.77349 0.44699 0.21729
 C2954 C 0.77915 0.43611 0.21250
 H2955 H 0.79572 0.38488 0.17267
 H2956 H 0.78567 0.40313 0.18238
 H2957 H 0.81302 0.40218 0.21233
 H2958 H 0.82316 0.38387 0.20282
 H2959 H 0.80354 0.43333 0.23321
 H2960 H 0.79375 0.45258 0.24159
 H2961 H 0.76504 0.45058 0.21278
 H2962 H 0.77500 0.43163 0.20435
 C2963 C 0.79812 0.88811 0.68184
 C2964 C 0.79227 0.89879 0.68689
 C2965 C 0.79728 0.90468 0.69751
 C2966 C 0.80828 0.89976 0.70308
 C2967 C 0.81417 0.88909 0.69803
 C2968 C 0.80917 0.88312 0.68733
 N2969 N 0.79112 0.91570 0.70233
 N2970 N 0.79487 0.92119 0.71227
 C2971 C 0.78888 0.93233 0.71701
 C2972 C 0.79330 0.93758 0.72821
 C2973 C 0.78788 0.94861 0.73296
 C2974 C 0.77792 0.95462 0.72654
 C2975 C 0.77341 0.94925 0.71533
 C2976 C 0.77884 0.93820 0.71060
 H2977 H 0.79391 0.88382 0.67365
 H2978 H 0.78380 0.90249 0.68250
 H2979 H 0.81237 0.90418 0.71129
 H2980 H 0.82266 0.88562 0.70252
 H2981 H 0.80099 0.93312 0.73326
 H2982 H 0.79143 0.95239 0.74172
 H2983 H 0.76586 0.95373 0.71010
 H2984 H 0.77528 0.93434 0.70188
 C2985 C 0.70064 0.61153 0.68302
 C2986 C 0.70629 0.60083 0.68821
 C2987 C 0.70119 0.59515 0.69891
 C2988 C 0.69028 0.60032 0.70443
 C2989 C 0.68456 0.61103 0.69922
 C2990 C 0.68967 0.61678 0.68842
 N2991 N 0.70724 0.58411 0.70381
 N2992 N 0.70369 0.57872 0.71389
 C2993 C 0.70985 0.56757 0.71845
 C2994 C 0.70609 0.56246 0.72997
 C2995 C 0.71184 0.55151 0.73459
 C2996 C 0.72143 0.54543 0.72768
 C2997 C 0.72520 0.55063 0.71612
 C2998 C 0.71949 0.56160 0.71156
 H2999 H 0.70496 0.61562 0.67478
 H3000 H 0.71470 0.59693 0.68389
 H3001 H 0.68614 0.59605 0.71270
 H3002 H 0.67613 0.61473 0.70365
 H3003 H 0.69871 0.56699 0.73540
 H3004 H 0.70884 0.54786 0.74361
 H3005 H 0.73241 0.54610 0.71048
 H3006 H 0.72253 0.56534 0.70259
 C3007 C 0.70217 0.11173 0.18046
 C3008 C 0.70820 0.10114 0.18550
 C3009 C 0.70337 0.09521 0.19620
 C3010 C 0.69237 0.10000 0.20186
 C3011 C 0.68630 0.11058 0.19682
 C3012 C 0.69111 0.11660 0.18604
 N3013 N 0.70974 0.08430 0.20103
 N3014 N 0.70602 0.07866 0.21092
 C3015 C 0.71223 0.06765 0.21570
 C3016 C 0.70759 0.06205 0.22666
 C3017 C 0.71319 0.05111 0.23143
 C3018 C 0.72356 0.04554 0.22527
 C3019 C 0.72832 0.05128 0.21433
 C3020 C 0.72270 0.06224 0.20957
 H3021 H 0.70623 0.11605 0.17220
 H3022 H 0.71667 0.09753 0.18104
 H3023 H 0.68842 0.09556 0.21013
 H3024 H 0.67782 0.11397 0.20141
 H3025 H 0.69957 0.06616 0.23150
 H3026 H 0.70943 0.04704 0.23998
 H3027 H 0.73620 0.04715 0.20930
 H3028 H 0.72644 0.06639 0.20106
 C3029 C 0.18186 0.61161 0.20132
 C3030 C 0.18712 0.60117 0.20739
 C3031 C 0.19799 0.59536 0.20263
 C3032 C 0.20362 0.60016 0.19168
 C3033 C 0.19838 0.61063 0.18560
 C3034 C 0.18742 0.61650 0.19033
 N3035 N 0.20304 0.58461 0.20906
 N3036 N 0.21260 0.57854 0.20499
 C3037 C 0.21752 0.56774 0.21145
 C3038 C 0.22749 0.56095 0.20604
 C3039 C 0.23225 0.55016 0.21193
 C3040 C 0.22712 0.54599 0.22340
 C3041 C 0.21727 0.55299 0.22892
 C3042 C 0.21248 0.56374 0.22300
 H3043 H 0.17344 0.61581 0.20530
 H3044 H 0.18270 0.59755 0.21583
 H3045 H 0.21205 0.59584 0.18783
 H3046 H 0.20297 0.61404 0.17719
 H3047 H 0.23144 0.56394 0.19714
 H3048 H 0.23976 0.54492 0.20737
 H3049 H 0.21328 0.55017 0.23786
 H3050 H 0.20484 0.56888 0.22743
 C3051 C 0.18320 0.11060 0.69863
 C3052 C 0.18867 0.10011 0.70443
 C3053 C 0.19998 0.09502 0.69990
 C3054 C 0.20581 0.10054 0.68939
 C3055 C 0.20036 0.11108 0.68358
 C3056 C 0.18898 0.11628 0.68814
 N3057 N 0.20524 0.08426 0.70616
 N3058 N 0.21526 0.07873 0.70243
 C3059 C 0.22027 0.06793 0.70888
 C3060 C 0.23069 0.06157 0.70380
 C3061 C 0.23551 0.05078 0.70969
 C3062 C 0.23000 0.04619 0.72083
 C3063 C 0.21967 0.05276 0.72601
 C3064 C 0.21483 0.06350 0.72009
 H3065 H 0.17442 0.11418 0.70244
 H3066 H 0.18406 0.09591 0.71250
 H3067 H 0.21457 0.09674 0.68570
 H3068 H 0.20512 0.11515 0.67555
 H3069 H 0.23496 0.06487 0.69517
 H3070 H 0.24337 0.04587 0.70536
 H3071 H 0.21535 0.04963 0.73469
 H3072 H 0.20684 0.06831 0.72428
 C3073 C 0.29723 0.61226 0.32021
 C3074 C 0.29134 0.60158 0.31524
 C3075 C 0.29614 0.59577 0.30447
 C3076 C 0.30697 0.60076 0.29867
 C3077 C 0.31289 0.61143 0.30363
 C3078 C 0.30810 0.61734 0.31448
 N3079 N 0.28989 0.58480 0.29969
 N3080 N 0.29357 0.57925 0.28974
 C3081 C 0.28741 0.56820 0.28503
 C3082 C 0.29189 0.56270 0.27395
 C3083 C 0.28627 0.55179 0.26921
 C3084 C 0.27603 0.54614 0.27551
 C3085 C 0.27147 0.55175 0.28659
 C3086 C 0.27711 0.56268 0.29132
 H3087 H 0.29320 0.61646 0.32855
 H3088 H 0.28301 0.59781 0.31981
 H3089 H 0.31089 0.59641 0.29033
 H3090 H 0.32122 0.61498 0.29893
 H3091 H 0.29980 0.56689 0.26900
 H3092 H 0.28989 0.54780 0.26056
 H3093 H 0.26371 0.54755 0.29173
 H3094 H 0.27349 0.56674 0.29993
 C3095 C 0.29802 0.11155 0.81864
 C3096 C 0.29243 0.10080 0.81353
 C3097 C 0.29759 0.09506 0.80289
 C3098 C 0.30849 0.10022 0.79735
 C3099 C 0.31413 0.11098 0.80247
 C3100 C 0.30897 0.11679 0.81320
 N3101 N 0.29164 0.08399 0.79799
 N3102 N 0.29556 0.07853 0.78809
 C3103 C 0.28966 0.06738 0.78329
 C3104 C 0.29425 0.06210 0.77216
 C3105 C 0.28886 0.05113 0.76730
 C3106 C 0.27875 0.04520 0.77355
 C3107 C 0.27409 0.05058 0.78470
 C3108 C 0.27949 0.06157 0.78954
 H3109 H 0.29370 0.11569 0.82686
 H3110 H 0.28404 0.09690 0.81788
 H3111 H 0.31269 0.09592 0.78913
 H3112 H 0.32253 0.11466 0.79800
 H3113 H 0.30205 0.06652 0.76724
 H3114 H 0.29253 0.04734 0.75859
 H3115 H 0.26642 0.04616 0.78981
 H3116 H 0.27579 0.06546 0.79819
 C3117 C 0.79836 0.61089 0.81827
 C3118 C 0.79262 0.60023 0.81314
 C3119 C 0.79728 0.59483 0.80211
 C3120 C 0.80785 0.60023 0.79620
 C3121 C 0.81365 0.61091 0.80134
 C3122 C 0.80897 0.61639 0.81246
 N3123 N 0.79114 0.58384 0.79725
 N3124 N 0.79438 0.57867 0.78696
 C3125 C 0.78820 0.56758 0.78235
 C3126 C 0.79177 0.56267 0.77069
 C3127 C 0.78604 0.55177 0.76603
 C3128 C 0.77662 0.54553 0.77300
 C3129 C 0.77299 0.55053 0.78469
 C3130 C 0.77872 0.56146 0.78933
 H3131 H 0.79442 0.61473 0.82681
 H3132 H 0.78447 0.59614 0.81778
 H3133 H 0.81166 0.59619 0.78766
 H3134 H 0.82179 0.61482 0.79657
 H3135 H 0.79903 0.56731 0.76521
 H3136 H 0.78891 0.54827 0.75691
 H3137 H 0.76591 0.54587 0.79038
 H3138 H 0.77582 0.56503 0.79840
 C3139 C 0.81738 0.11067 0.29925
 C3140 C 0.81208 0.10017 0.29333
 C3141 C 0.80104 0.09466 0.29803
 C3142 C 0.79531 0.09977 0.30878
 C3143 C 0.80058 0.11028 0.31470
 C3144 C 0.81169 0.11590 0.31001
 N3145 N 0.79594 0.08387 0.29174
 N3146 N 0.78611 0.07815 0.29564
 C3147 C 0.78116 0.06731 0.28931
 C3148 C 0.77083 0.06095 0.29452
 C3149 C 0.76604 0.05010 0.28878
 C3150 C 0.77151 0.04545 0.27766
 C3151 C 0.78175 0.05202 0.27233
 C3152 C 0.78656 0.06283 0.27810
 H3153 H 0.82593 0.11462 0.29533
 H3154 H 0.81661 0.09629 0.28507
 H3155 H 0.78676 0.09566 0.31260
 H3156 H 0.79590 0.11396 0.32295
 H3157 H 0.76659 0.06430 0.30315
 H3158 H 0.75824 0.04519 0.29320
 H3159 H 0.78603 0.04883 0.26365
 H3160 H 0.79450 0.06763 0.27383
 C3161 C 0.70056 0.38822 0.31791
 C3162 C 0.70647 0.39870 0.31257
 C3163 C 0.70184 0.40401 0.30146
 C3164 C 0.69118 0.39868 0.29567
 C3165 C 0.68525 0.38817 0.30099
 C3166 C 0.68986 0.38279 0.31219
 N3167 N 0.70811 0.41482 0.29635
 N3168 N 0.70435 0.42030 0.28638
 C3169 C 0.71066 0.43118 0.28145
 C3170 C 0.70575 0.43712 0.27077
 C3171 C 0.71148 0.44798 0.26595
 C3172 C 0.72228 0.45306 0.27177
 C3173 C 0.72730 0.44694 0.28238
 C3174 C 0.72155 0.43611 0.28719
 H3175 H 0.70442 0.38444 0.32653
 H3176 H 0.71467 0.40274 0.31712
 H3177 H 0.68742 0.40263 0.28706
 H3178 H 0.67708 0.38430 0.29627
 H3179 H 0.69735 0.43342 0.26627
 H3180 H 0.70731 0.45254 0.25785
 H3181 H 0.73573 0.45049 0.28695
 H3182 H 0.72559 0.43165 0.29542
 C3183 C 0.68270 0.88871 0.79936
 C3184 C 0.68815 0.89914 0.79345
 C3185 C 0.69912 0.90464 0.79829
 C3186 C 0.70466 0.89955 0.80916
 C3187 C 0.69924 0.88910 0.81509
 C3188 C 0.68817 0.88353 0.81027
 N3189 N 0.70436 0.91540 0.79205
 N3190 N 0.71402 0.92120 0.79621
 C3191 C 0.71915 0.93201 0.78996
 C3192 C 0.72926 0.93845 0.79547
 C3193 C 0.73424 0.94924 0.78978
 C3194 C 0.72917 0.95376 0.77842
 C3195 C 0.71914 0.94714 0.77280
 C3196 C 0.71415 0.93638 0.77852
 H3197 H 0.67420 0.88477 0.79533
 H3198 H 0.68379 0.90299 0.78508
 H3199 H 0.71317 0.90364 0.81309
 H3200 H 0.70377 0.88544 0.82343
 H3201 H 0.73317 0.93519 0.80430
 H3202 H 0.74185 0.95421 0.79443
 H3203 H 0.71517 0.95025 0.76395
 H3204 H 0.70638 0.93152 0.77403
 C3205 C 0.18237 0.38925 0.80108
 C3206 C 0.18768 0.39979 0.79528
 C3207 C 0.19880 0.40513 0.79991
 C3208 C 0.20466 0.39978 0.81049
 C3209 C 0.19938 0.38918 0.81632
 C3210 C 0.18815 0.38377 0.81168
 N3211 N 0.20383 0.41597 0.79367
 N3212 N 0.21364 0.42176 0.79749
 C3213 C 0.21836 0.43263 0.79100
 C3214 C 0.22864 0.43922 0.79602
 C3215 C 0.23321 0.45005 0.79005
 C3216 C 0.22756 0.45444 0.77890
 C3217 C 0.21737 0.44767 0.77380
 C3218 C 0.21279 0.43689 0.77979
 H3219 H 0.17373 0.38548 0.79718
 H3220 H 0.18307 0.40386 0.78713
 H3221 H 0.21330 0.40376 0.81423
 H3222 H 0.20414 0.38526 0.82442
 H3223 H 0.23301 0.43604 0.80467
 H3224 H 0.24099 0.45512 0.79430
 H3225 H 0.21296 0.45067 0.76511
 H3226 H 0.20489 0.43191 0.77565
 C3227 C 0.20010 0.88793 0.31721
 C3228 C 0.20588 0.89846 0.31183
 C3229 C 0.20083 0.90406 0.30105
 C3230 C 0.18985 0.89898 0.29564
 C3231 C 0.18405 0.88840 0.30099
 C3232 C 0.18910 0.88273 0.31186
 N3233 N 0.20707 0.91485 0.29588
 N3234 N 0.20286 0.92086 0.28641
 C3235 C 0.20933 0.93167 0.28149
 C3236 C 0.20377 0.93861 0.27176
 C3237 C 0.20969 0.94943 0.26707
 C3238 C 0.22135 0.95345 0.27205
 C3239 C 0.22701 0.94629 0.28165
 C3240 C 0.22106 0.93553 0.28635
 H3241 H 0.20431 0.88395 0.32557
 H3242 H 0.21433 0.90231 0.31610
 H3243 H 0.18578 0.90315 0.28728
 H3244 H 0.17563 0.88471 0.29655
 H3245 H 0.19473 0.93574 0.26794
 H3246 H 0.20502 0.95480 0.25976
 H3247 H 0.23609 0.94897 0.28551
 H3248 H 0.22563 0.93026 0.29379
 C3249 C 0.38860 0.31724 0.69846
 C3250 C 0.39920 0.31191 0.70423
 C3251 C 0.40449 0.30076 0.69964
 C3252 C 0.39906 0.29492 0.68911
 C3253 C 0.38840 0.30023 0.68332
 C3254 C 0.38302 0.31146 0.68793
 N3255 N 0.41533 0.29567 0.70592
 N3256 N 0.42108 0.28577 0.70229
 C3257 C 0.43192 0.28109 0.70893
 C3258 C 0.43857 0.27071 0.70417
 C3259 C 0.44938 0.26621 0.71034
 C3260 C 0.45369 0.27202 0.72141
 C3261 C 0.44685 0.28230 0.72626
 C3262 C 0.43610 0.28680 0.72009
 H3263 H 0.38488 0.32590 0.70232
 H3264 H 0.40333 0.31651 0.71233
 H3265 H 0.40301 0.28626 0.68540
 H3266 H 0.38440 0.29547 0.67527
 H3267 H 0.43547 0.26621 0.69559
 H3268 H 0.45451 0.25835 0.70630
 H3269 H 0.44976 0.28684 0.73489
 H3270 H 0.43108 0.29477 0.72404
 C3271 C 0.38972 0.81730 0.20086
 C3272 C 0.40026 0.81205 0.20682
 C3273 C 0.40578 0.80099 0.20225
 C3274 C 0.40060 0.79515 0.19160
 C3275 C 0.39002 0.80037 0.18563
 C3276 C 0.38444 0.81153 0.19017
 N3277 N 0.41659 0.79592 0.20861
 N3278 N 0.42240 0.78615 0.20475
 C3279 C 0.43320 0.78118 0.21122
 C3280 C 0.43970 0.77092 0.20606
 C3281 C 0.45044 0.76604 0.21201
 C3282 C 0.45484 0.77135 0.22329
 C3283 C 0.44817 0.78155 0.22854
 C3284 C 0.43747 0.78644 0.22256
 H3285 H 0.38576 0.82587 0.20470
 H3286 H 0.40416 0.81664 0.21503
 H3287 H 0.40468 0.78655 0.18791
 H3288 H 0.38626 0.79559 0.17748
 H3289 H 0.43651 0.76679 0.19732
 H3290 H 0.45544 0.75828 0.20764
 H3291 H 0.45118 0.78571 0.23733
 H3292 H 0.43256 0.79433 0.22679
 C3293 C 0.88829 0.31729 0.19888
 C3294 C 0.89881 0.31200 0.20482
 C3295 C 0.90422 0.30087 0.20031
 C3296 C 0.89895 0.29499 0.18972
 C3297 C 0.88839 0.30026 0.18376
 C3298 C 0.88291 0.31150 0.18826
 N3299 N 0.91508 0.29585 0.20663
 N3300 N 0.92072 0.28588 0.20303
 C3301 C 0.93164 0.28112 0.20948
 C3302 C 0.93779 0.27041 0.20483
 C3303 C 0.94866 0.26575 0.21076
 C3304 C 0.95355 0.27177 0.22147
 C3305 C 0.94724 0.28244 0.22620
 C3306 C 0.93640 0.28709 0.22027
 H3307 H 0.88444 0.32593 0.20268
 H3308 H 0.90281 0.31662 0.21298
 H3309 H 0.90298 0.28635 0.18606
 H3310 H 0.88457 0.29549 0.17564
 H3311 H 0.93423 0.26574 0.19651
 H3312 H 0.95337 0.25761 0.20680
 H3313 H 0.95064 0.28718 0.23455
 H3314 H 0.93179 0.29535 0.22410
 C3315 C 0.88823 0.81899 0.70169
 C3316 C 0.89891 0.81400 0.70766
 C3317 C 0.90479 0.80315 0.70300
 C3318 C 0.89987 0.79734 0.69221
 C3319 C 0.88921 0.80232 0.68621
 C3320 C 0.88322 0.81321 0.69087
 N3321 N 0.91573 0.79826 0.70930
 N3322 N 0.92115 0.78818 0.70568
 C3323 C 0.93215 0.78314 0.71173
 C3324 C 0.93734 0.77192 0.70715
 C3325 C 0.94821 0.76680 0.71261
 C3326 C 0.95414 0.77286 0.72276
 C3327 C 0.94882 0.78409 0.72744
 C3328 C 0.93792 0.78920 0.72197
 H3329 H 0.88397 0.82738 0.70560
 H3330 H 0.90262 0.81859 0.71596
 H3331 H 0.90427 0.78895 0.68838
 H3332 H 0.88571 0.79756 0.67795
 H3333 H 0.93295 0.76714 0.69930
 H3334 H 0.95193 0.75804 0.70891
 H3335 H 0.95324 0.78905 0.73516
 H3336 H 0.93408 0.79791 0.72565
 C3337 C 0.61548 0.31377 0.29576
 C3338 C 0.60524 0.30823 0.28955
 C3339 C 0.59678 0.30049 0.29608
 C3340 C 0.59875 0.29823 0.30894
 C3341 C 0.60905 0.30366 0.31514
 C3342 C 0.61750 0.31153 0.30863
 N3343 N 0.58629 0.29508 0.28949
 N3344 N 0.57769 0.28892 0.29516
 C3345 C 0.56716 0.28341 0.28872
 C3346 C 0.55743 0.27801 0.29579
 C3347 C 0.54691 0.27273 0.28988
 C3348 C 0.54596 0.27264 0.27669
 C3349 C 0.55586 0.27796 0.26959
 C3350 C 0.56634 0.28334 0.27554
 H3351 H 0.62189 0.31967 0.29044
 H3352 H 0.60386 0.31001 0.27963
 H3353 H 0.59235 0.29227 0.31421
 H3354 H 0.61028 0.30182 0.32506
 H3355 H 0.55794 0.27804 0.30595
 H3356 H 0.53940 0.26896 0.29567
 H3357 H 0.55556 0.27788 0.25943
 H3358 H 0.57379 0.28740 0.26986
 C3359 C 0.61093 0.80070 0.81745
 C3360 C 0.60043 0.79489 0.81201
 C3361 C 0.59535 0.79946 0.80078
 C3362 C 0.60092 0.80996 0.79496
 C3363 C 0.61146 0.81579 0.80037
 C3364 C 0.61661 0.81122 0.81170
 N3365 N 0.58452 0.79327 0.79560
 N3366 N 0.57912 0.79698 0.78557
 C3367 C 0.56822 0.79066 0.78065
 C3368 C 0.56223 0.79553 0.76998
 C3369 C 0.55135 0.78978 0.76520
 C3370 C 0.54630 0.77900 0.77104
 C3371 C 0.55246 0.77402 0.78165
 C3372 C 0.56330 0.77980 0.78642
 H3373 H 0.61449 0.79690 0.82618
 H3374 H 0.59619 0.78681 0.81659
 H3375 H 0.59715 0.81366 0.78624
 H3376 H 0.61555 0.82382 0.79563
 H3377 H 0.56592 0.80391 0.76545
 H3378 H 0.54675 0.79392 0.75710
 H3379 H 0.54893 0.76562 0.78623
 H3380 H 0.56781 0.77579 0.79464
 C3381 C 0.11116 0.31810 0.79996
 C3382 C 0.10059 0.31288 0.79409
 C3383 C 0.09500 0.30193 0.79881
 C3384 C 0.10015 0.29615 0.80952
 C3385 C 0.11077 0.30134 0.81542
 C3386 C 0.11641 0.31240 0.81072
 N3387 N 0.08410 0.29697 0.79256
 N3388 N 0.07818 0.28731 0.79651
 C3389 C 0.06725 0.28257 0.79012
 C3390 C 0.06066 0.27237 0.79528
 C3391 C 0.04978 0.26774 0.78942
 C3392 C 0.04532 0.27326 0.77824
 C3393 C 0.05208 0.28339 0.77299
 C3394 C 0.06292 0.28802 0.77888
 H3395 H 0.11515 0.32660 0.79602
 H3396 H 0.09669 0.31743 0.78583
 H3397 H 0.09600 0.28764 0.81333
 H3398 H 0.11449 0.29664 0.82364
 H3399 H 0.06390 0.26809 0.80395
 H3400 H 0.04471 0.26002 0.79377
 H3401 H 0.04903 0.28769 0.76428
 H3402 H 0.06789 0.29587 0.77465
 C3403 C 0.10992 0.80119 0.31694
 C3404 C 0.09943 0.79548 0.31140
 C3405 C 0.09465 0.79994 0.30000
 C3406 C 0.10049 0.81028 0.29413
 C3407 C 0.11105 0.81600 0.29965
 C3408 C 0.11592 0.81151 0.31113
 N3409 N 0.08386 0.79376 0.29471
 N3410 N 0.07857 0.79735 0.28459
 C3411 C 0.06773 0.79091 0.27967
 C3412 C 0.06159 0.79576 0.26906
 C3413 C 0.05074 0.78989 0.26434
 C3414 C 0.04587 0.77902 0.27016
 C3415 C 0.05221 0.77404 0.28067
 C3416 C 0.06301 0.77993 0.28539
 H3417 H 0.11323 0.79747 0.32580
 H3418 H 0.09497 0.78755 0.31602
 H3419 H 0.09694 0.81389 0.28529
 H3420 H 0.11540 0.82388 0.29487
 H3421 H 0.06511 0.80422 0.26457
 H3422 H 0.04600 0.79403 0.25632
 H3423 H 0.04884 0.76556 0.28523
 H3424 H 0.06763 0.77592 0.29354
 C3425 C 0.61090 0.69906 0.68234
 C3426 C 0.60028 0.70476 0.68769
 C3427 C 0.59510 0.70009 0.69883
 C3428 C 0.60065 0.68953 0.70461
 C3429 C 0.61133 0.68381 0.69927
 C3430 C 0.61662 0.68852 0.68806
 N3431 N 0.58425 0.70632 0.70398
 N3432 N 0.57869 0.70267 0.71394
 C3433 C 0.56783 0.70923 0.71873
 C3434 C 0.56150 0.70448 0.72927
 C3435 C 0.55068 0.71054 0.73389
 C3436 C 0.54601 0.72149 0.72800
 C3437 C 0.55256 0.72636 0.71758
 C3438 C 0.56333 0.72030 0.71297
 H3439 H 0.61459 0.70303 0.67374
 H3440 H 0.59607 0.71288 0.68314
 H3441 H 0.59677 0.68575 0.71323
 H3442 H 0.61540 0.67573 0.70398
 H3443 H 0.56487 0.69597 0.73381
 H3444 H 0.54580 0.70650 0.74188
 H3445 H 0.54938 0.73492 0.71300
 H3446 H 0.56810 0.72425 0.70488
 C3447 C 0.61462 0.18368 0.20356
 C3448 C 0.60402 0.18884 0.20952
 C3449 C 0.59600 0.19711 0.20306
 C3450 C 0.59870 0.20019 0.19050
 C3451 C 0.60936 0.19515 0.18458
 C3452 C 0.61743 0.18684 0.19104
 N3453 N 0.58528 0.20234 0.20946
 N3454 N 0.57709 0.20905 0.20377
 C3455 C 0.56643 0.21448 0.21008
 C3456 C 0.55705 0.22038 0.20292
 C3457 C 0.54645 0.22568 0.20872
 C3458 C 0.54512 0.22532 0.22187
 C3459 C 0.55467 0.21950 0.22905
 C3460 C 0.56521 0.21408 0.22321
 H3461 H 0.62072 0.17740 0.20883
 H3462 H 0.60205 0.18641 0.21920
 H3463 H 0.59263 0.20655 0.18530
 H3464 H 0.61120 0.19767 0.17490
 H3465 H 0.55789 0.22074 0.19279
 H3466 H 0.53921 0.22987 0.20286
 H3467 H 0.55409 0.21923 0.23919
 H3468 H 0.57242 0.20966 0.22895
 C3469 C 0.11126 0.70040 0.18153
 C3470 C 0.10067 0.70627 0.18677
 C3471 C 0.09516 0.70154 0.19773
 C3472 C 0.10040 0.69082 0.20349
 C3473 C 0.11103 0.68493 0.19827
 C3474 C 0.11661 0.68964 0.18720
 N3475 N 0.08423 0.70777 0.20272
 N3476 N 0.07846 0.70390 0.21247
 C3477 C 0.06747 0.71025 0.21721
 C3478 C 0.06112 0.70523 0.22761
 C3479 C 0.05018 0.71106 0.23223
 C3480 C 0.04544 0.72205 0.22651
 C3481 C 0.05196 0.72716 0.21618
 C3482 C 0.06286 0.72132 0.21156
 H3483 H 0.11518 0.70433 0.17301
 H3484 H 0.09670 0.71452 0.18224
 H3485 H 0.09630 0.68699 0.21199
 H3486 H 0.11483 0.67671 0.20296
 H3487 H 0.06457 0.69670 0.23204
 H3488 H 0.04531 0.70682 0.24012
 H3489 H 0.04868 0.73574 0.21171
 H3490 H 0.06764 0.72544 0.20357
 C3491 C 0.11116 0.18154 0.70016
 C3492 C 0.10061 0.18680 0.70609
 C3493 C 0.09526 0.19800 0.70164
 C3494 C 0.10058 0.20393 0.69109
 C3495 C 0.11116 0.19870 0.68515
 C3496 C 0.11661 0.18743 0.68961
 N3497 N 0.08442 0.20308 0.70795
 N3498 N 0.07890 0.21310 0.70428
 C3499 C 0.06801 0.21806 0.71060
 C3500 C 0.06197 0.22872 0.70568
 C3501 C 0.05113 0.23359 0.71143
 C3502 C 0.04615 0.22789 0.72230
 C3503 C 0.05235 0.21727 0.72732
 C3504 C 0.06317 0.21239 0.72153
 H3505 H 0.11497 0.17284 0.70388
 H3506 H 0.09656 0.18211 0.71419
 H3507 H 0.09660 0.21260 0.68745
 H3508 H 0.11502 0.20355 0.67708
 H3509 H 0.06560 0.23317 0.69726
 H3510 H 0.04649 0.24167 0.70723
 H3511 H 0.04888 0.21278 0.73578
 H3512 H 0.06771 0.20419 0.72557
 C3513 C 0.38785 0.68041 0.29963
 C3514 C 0.39861 0.68527 0.29374
 C3515 C 0.40446 0.69613 0.29834
 C3516 C 0.39940 0.70217 0.30894
 C3517 C 0.38863 0.69736 0.31484
 C3518 C 0.38271 0.68640 0.31028
 N3519 N 0.41552 0.70081 0.29212
 N3520 N 0.42153 0.71038 0.29614
 C3521 C 0.43261 0.71507 0.28997
 C3522 C 0.43914 0.72517 0.29535
 C3523 C 0.45009 0.72987 0.28970
 C3524 C 0.45468 0.72454 0.27850
 C3525 C 0.44803 0.71445 0.27306
 C3526 C 0.43710 0.70974 0.27875
 H3527 H 0.38364 0.67196 0.29583
 H3528 H 0.40244 0.68052 0.28557
 H3529 H 0.40374 0.71061 0.31267
 H3530 H 0.38500 0.70229 0.32295
 H3531 H 0.43578 0.72934 0.30402
 H3532 H 0.45509 0.73753 0.29422
 H3533 H 0.45122 0.71026 0.26434
 H3534 H 0.43216 0.70196 0.27437
 C3535 C 0.38754 0.18160 0.80093
 C3536 C 0.39822 0.18671 0.79509
 C3537 C 0.40360 0.19787 0.79952
 C3538 C 0.39818 0.20393 0.80994
 C3539 C 0.38748 0.19886 0.81580
 C3540 C 0.38200 0.18761 0.81136
 N3541 N 0.41454 0.20280 0.79328
 N3542 N 0.42006 0.21282 0.79690
 C3543 C 0.43102 0.21769 0.79063
 C3544 C 0.43689 0.22848 0.79540
 C3545 C 0.44772 0.23335 0.78963
 C3546 C 0.45287 0.22750 0.77893
 C3547 C 0.44687 0.21671 0.77410
 C3548 C 0.43605 0.21184 0.77989
 H3549 H 0.38371 0.17293 0.79722
 H3550 H 0.40232 0.18193 0.78708
 H3551 H 0.40218 0.21260 0.81355
 H3552 H 0.38352 0.20381 0.82375
 H3553 H 0.43312 0.23306 0.80368
 H3554 H 0.45220 0.24156 0.79370
 H3555 H 0.45048 0.21209 0.76577
 H3556 H 0.43164 0.20352 0.77597
 C3557 C 0.88862 0.69775 0.81750
 C3558 C 0.89919 0.70341 0.81204
 C3559 C 0.90401 0.69898 0.80065
 C3560 C 0.89810 0.68874 0.79471
 C3561 C 0.88746 0.68307 0.80014
 C3562 C 0.88256 0.68752 0.81162
 N3563 N 0.91488 0.70509 0.79543
 N3564 N 0.92029 0.70133 0.78542
 C3565 C 0.93120 0.70763 0.78047
 C3566 C 0.93748 0.70249 0.77011
 C3567 C 0.94838 0.70824 0.76532
 C3568 C 0.95315 0.71931 0.77082
 C3569 C 0.94666 0.72457 0.78110
 C3570 C 0.93583 0.71879 0.78590
 H3571 H 0.88529 0.70145 0.82635
 H3572 H 0.90368 0.71128 0.81672
 H3573 H 0.90166 0.68516 0.78587
 H3574 H 0.88309 0.67525 0.79530
 H3575 H 0.93403 0.69389 0.76584
 H3576 H 0.95322 0.70385 0.75750
 H3577 H 0.94993 0.73322 0.78541
 H3578 H 0.93109 0.72303 0.79387
 C3579 C 0.88882 0.18219 0.30128
 C3580 C 0.89939 0.18761 0.29556
 C3581 C 0.90437 0.19894 0.30002
 C3582 C 0.89867 0.20485 0.31038
 C3583 C 0.88805 0.19944 0.31613
 C3584 C 0.88296 0.18804 0.31162
 N3585 N 0.91521 0.20414 0.29382
 N3586 N 0.92055 0.21429 0.29733
 C3587 C 0.93144 0.21915 0.29091
 C3588 C 0.93746 0.22993 0.29556
 C3589 C 0.94833 0.23464 0.28969
 C3590 C 0.95336 0.22862 0.27903
 C3591 C 0.94715 0.21793 0.27425
 C3592 C 0.93632 0.21323 0.28013
 H3593 H 0.88534 0.17339 0.29753
 H3594 H 0.90374 0.18296 0.28760
 H3595 H 0.90238 0.21363 0.31401
 H3596 H 0.88385 0.20425 0.32405
 H3597 H 0.93381 0.23459 0.30385
 H3598 H 0.95295 0.24281 0.29367
 H3599 H 0.95064 0.21322 0.26592
 H3600 H 0.93180 0.20494 0.27628
 C3601 C 0.29880 0.31778 0.61091
 C3602 C 0.29295 0.31244 0.60042
 C3603 C 0.29793 0.30161 0.59483
 C3604 C 0.30891 0.29610 0.59987
 C3605 C 0.31477 0.30140 0.61039
 C3606 C 0.30979 0.31232 0.61607
 N3607 N 0.29171 0.29649 0.58403
 N3608 N 0.29601 0.28701 0.57808
 C3609 C 0.28973 0.28201 0.56725
 C3610 C 0.29542 0.27214 0.56061
 C3611 C 0.28969 0.26727 0.54982
 C3612 C 0.27810 0.27219 0.54551
 C3613 C 0.27233 0.28199 0.55233
 C3614 C 0.27810 0.28688 0.56307
 H3615 H 0.29464 0.32618 0.61491
 H3616 H 0.28450 0.31679 0.59661
 H3617 H 0.31294 0.28769 0.59570
 H3618 H 0.32318 0.29688 0.61402
 H3619 H 0.30440 0.26832 0.56372
 H3620 H 0.29447 0.25983 0.54472
 H3621 H 0.26331 0.28584 0.54939
 H3622 H 0.27346 0.29447 0.56809
 C3623 C 0.31852 0.79837 0.11229
 C3624 C 0.31340 0.79261 0.10165
 C3625 C 0.30272 0.79768 0.09577
 C3626 C 0.29716 0.80867 0.10068
 C3627 C 0.30229 0.81447 0.11132
 C3628 C 0.31305 0.80939 0.11729
 N3629 N 0.29784 0.79156 0.08481
 N3630 N 0.28787 0.79535 0.07925
 C3631 C 0.28311 0.78929 0.06820
 C3632 C 0.27183 0.79368 0.06288
 C3633 C 0.26702 0.78815 0.05198
 C3634 C 0.27345 0.77811 0.04615
 C3635 C 0.28474 0.77365 0.05158
 C3636 C 0.28953 0.77919 0.06251
 H3637 H 0.32676 0.79410 0.11654
 H3638 H 0.31777 0.78415 0.09796
 H3639 H 0.28891 0.81280 0.09626
 H3640 H 0.29781 0.82295 0.11479
 H3641 H 0.26677 0.80143 0.06720
 H3642 H 0.25820 0.79168 0.04816
 H3643 H 0.29000 0.76605 0.04725
 H3644 H 0.29830 0.77565 0.06641
 C3645 C 0.80009 0.31649 0.10983
 C3646 C 0.79427 0.31102 0.09941
 C3647 C 0.79908 0.29994 0.09417
 C3648 C 0.80986 0.29431 0.09948
 C3649 C 0.81570 0.29976 0.10995
 C3650 C 0.81088 0.31093 0.11528
 N3651 N 0.79283 0.29473 0.08345
 N3652 N 0.79684 0.28501 0.07768
 C3653 C 0.79034 0.28013 0.06692
 C3654 C 0.79565 0.27007 0.06023
 C3655 C 0.78972 0.26545 0.04942
 C3656 C 0.77831 0.27083 0.04516
 C3657 C 0.77288 0.28074 0.05208
 C3658 C 0.77884 0.28537 0.06282
 H3659 H 0.79606 0.32509 0.11352
 H3660 H 0.78597 0.31545 0.09538
 H3661 H 0.81374 0.28572 0.09558
 H3662 H 0.82396 0.29517 0.11384
 H3663 H 0.80451 0.26594 0.06329
 H3664 H 0.79420 0.25788 0.04426
 H3665 H 0.76398 0.28491 0.04921
 H3666 H 0.77447 0.29308 0.06787
 C3667 C 0.80298 0.81703 0.60984
 C3668 C 0.79745 0.81153 0.59930
 C3669 C 0.80189 0.80002 0.59470
 C3670 C 0.81206 0.79401 0.60075
 C3671 C 0.81761 0.79950 0.61137
 C3672 C 0.81309 0.81107 0.61609
 N3673 N 0.79578 0.79477 0.58393
 N3674 N 0.79922 0.78453 0.57872
 C3675 C 0.79266 0.77981 0.56792
 C3676 C 0.79729 0.76914 0.56168
 C3677 C 0.79124 0.76467 0.55086
 C3678 C 0.78043 0.77082 0.54614
 C3679 C 0.77567 0.78136 0.55260
 C3680 C 0.78173 0.78582 0.56335
 H3681 H 0.79925 0.82596 0.61301
 H3682 H 0.78964 0.81625 0.59468
 H3683 H 0.81566 0.78509 0.59733
 H3684 H 0.82535 0.79461 0.61590
 H3685 H 0.80569 0.76440 0.56509
 H3686 H 0.79519 0.75659 0.54603
 H3687 H 0.76723 0.78615 0.54937
 H3688 H 0.77786 0.79401 0.56805
 C3689 C 0.31896 0.70213 0.38945
 C3690 C 0.31404 0.70820 0.40003
 C3691 C 0.30296 0.70383 0.40571
 C3692 C 0.29682 0.69322 0.40070
 C3693 C 0.30174 0.68712 0.39014
 C3694 C 0.31289 0.69149 0.38435
 N3695 N 0.29822 0.71023 0.41659
 N3696 N 0.28782 0.70712 0.42176
 C3697 C 0.28308 0.71332 0.43274
 C3698 C 0.27139 0.70957 0.43761
 C3699 C 0.26660 0.71514 0.44850
 C3700 C 0.27348 0.72456 0.45478
 C3701 C 0.28516 0.72844 0.44977
 C3702 C 0.28993 0.72287 0.43884
 H3703 H 0.32753 0.70584 0.38533
 H3704 H 0.31887 0.71636 0.40381
 H3705 H 0.28826 0.68962 0.40497
 H3706 H 0.29676 0.67899 0.38657
 H3707 H 0.26600 0.70226 0.43296
 H3708 H 0.25748 0.71209 0.45199
 H3709 H 0.29075 0.73558 0.45446
 H3710 H 0.29902 0.72592 0.43526
 C3711 C 0.29850 0.18401 0.88926
 C3712 C 0.29289 0.18930 0.89989
 C3713 C 0.29829 0.19976 0.90574
 C3714 C 0.30949 0.20493 0.90084
 C3715 C 0.31516 0.19962 0.89019
 C3716 C 0.30974 0.18907 0.88426
 N3717 N 0.29223 0.20480 0.91666
 N3718 N 0.29608 0.21470 0.92220
 C3719 C 0.28988 0.21943 0.93320
 C3720 C 0.29410 0.23069 0.93858
 C3721 C 0.28832 0.23545 0.94940
 C3722 C 0.27821 0.22896 0.95508
 C3723 C 0.27396 0.21767 0.94961
 C3724 C 0.27972 0.21296 0.93877
 H3725 H 0.29394 0.17596 0.88503
 H3726 H 0.28426 0.18523 0.90359
 H3727 H 0.31387 0.21301 0.90525
 H3728 H 0.32381 0.20378 0.88669
 H3729 H 0.30189 0.23580 0.93436
 H3730 H 0.29170 0.24426 0.95327
 H3731 H 0.26633 0.21235 0.95384
 H3732 H 0.27630 0.20420 0.93483
 C3733 C 0.81702 0.69955 0.88933
 C3734 C 0.81182 0.70540 0.89988
 C3735 C 0.80069 0.70083 0.90529
 C3736 C 0.79474 0.69025 0.90002
 C3737 C 0.79993 0.68438 0.88943
 C3738 C 0.81114 0.68896 0.88393
 N3739 N 0.79574 0.70713 0.91611
 N3740 N 0.78585 0.70350 0.92189
 C3741 C 0.78127 0.71009 0.93273
 C3742 C 0.77082 0.70535 0.93928
 C3743 C 0.76640 0.71144 0.95009
 C3744 C 0.77239 0.72241 0.95451
 C3745 C 0.78275 0.72725 0.94777
 C3746 C 0.78716 0.72115 0.93702
 H3747 H 0.82565 0.70340 0.88549
 H3748 H 0.81649 0.71354 0.90388
 H3749 H 0.78611 0.68655 0.90405
 H3750 H 0.79509 0.67628 0.88558
 H3751 H 0.76619 0.69683 0.93609
 H3752 H 0.75848 0.70741 0.95514
 H3753 H 0.78741 0.73581 0.95078
 H3754 H 0.79519 0.72508 0.93208
 C3755 C 0.79776 0.18158 0.38765
 C3756 C 0.79182 0.18673 0.39819
 C3757 C 0.79682 0.19737 0.40410
 C3758 C 0.80791 0.20287 0.39931
 C3759 C 0.81389 0.19771 0.38877
 C3760 C 0.80891 0.18697 0.38279
 N3761 N 0.79054 0.20225 0.41499
 N3762 N 0.79433 0.21210 0.42067
 C3763 C 0.78813 0.21685 0.43167
 C3764 C 0.79272 0.22785 0.43726
 C3765 C 0.78711 0.23259 0.44816
 C3766 C 0.77678 0.22636 0.45372
 C3767 C 0.77208 0.21538 0.44800
 C3768 C 0.77771 0.21065 0.43707
 H3769 H 0.79356 0.17335 0.38338
 H3770 H 0.78329 0.18239 0.40179
 H3771 H 0.81199 0.21109 0.40374
 H3772 H 0.82244 0.20215 0.38538
 H3773 H 0.80071 0.23274 0.43317
 H3774 H 0.79082 0.24118 0.45221
 H3775 H 0.76424 0.21028 0.45212
 H3776 H 0.77400 0.20210 0.43294
 C3777 C 0.68160 0.29872 0.38826
 C3778 C 0.68695 0.29279 0.39872
 C3779 C 0.69797 0.29753 0.40421
 C3780 C 0.70366 0.30833 0.39907
 C3781 C 0.69834 0.31427 0.38859
 C3782 C 0.68722 0.30955 0.38303
 N3783 N 0.70310 0.29130 0.41502
 N3784 N 0.71281 0.29540 0.42077
 C3785 C 0.71785 0.28923 0.43166
 C3786 C 0.72807 0.29472 0.43796
 C3787 C 0.73299 0.28915 0.44882
 C3788 C 0.72777 0.27791 0.45356
 C3789 C 0.71763 0.27232 0.44708
 C3790 C 0.71269 0.27793 0.43625
 H3791 H 0.67304 0.29478 0.38435
 H3792 H 0.68247 0.28448 0.40260
 H3793 H 0.71221 0.31218 0.40314
 H3794 H 0.70299 0.32255 0.38490
 H3795 H 0.73211 0.30344 0.43452
 H3796 H 0.74070 0.29378 0.45365
 H3797 H 0.71354 0.26356 0.45036
 H3798 H 0.70484 0.27345 0.43150
 C3799 C 0.68248 0.80180 0.88942
 C3800 C 0.68788 0.79610 0.89996
 C3801 C 0.69934 0.80046 0.90481
 C3802 C 0.70543 0.81066 0.89897
 C3803 C 0.70006 0.81638 0.88838
 C3804 C 0.68851 0.81201 0.88345
 N3805 N 0.70448 0.79435 0.91567
 N3806 N 0.71467 0.79794 0.92093
 C3807 C 0.71955 0.79168 0.93184
 C3808 C 0.73034 0.79648 0.93773
 C3809 C 0.73512 0.79076 0.94859
 C3810 C 0.72916 0.78008 0.95372
 C3811 C 0.71842 0.77518 0.94766
 C3812 C 0.71364 0.78092 0.93684
 H3813 H 0.67356 0.79817 0.88605
 H3814 H 0.68308 0.78825 0.90440
 H3815 H 0.71433 0.81419 0.90256
 H3816 H 0.70503 0.82416 0.88405
 H3817 H 0.73497 0.80478 0.93398
 H3818 H 0.74332 0.79485 0.95311
 H3819 H 0.71374 0.76684 0.95125
 H3820 H 0.70533 0.77696 0.93242
 C3821 C 0.18218 0.30018 0.88903
 C3822 C 0.18750 0.29439 0.89956
 C3823 C 0.19837 0.29933 0.90513
 C3824 C 0.20396 0.31020 0.90003
 C3825 C 0.19867 0.31600 0.88944
 C3826 C 0.18770 0.31106 0.88379
 N3827 N 0.20346 0.29317 0.91598
 N3828 N 0.21288 0.29750 0.92204
 C3829 C 0.21779 0.29122 0.93291
 C3830 C 0.22744 0.29696 0.93983
 C3831 C 0.23219 0.29121 0.95067
 C3832 C 0.22736 0.27955 0.95476
 C3833 C 0.21780 0.27372 0.94766
 C3834 C 0.21303 0.27950 0.93686
 H3835 H 0.17372 0.29607 0.88507
 H3836 H 0.18311 0.28603 0.90343
 H3837 H 0.21240 0.31418 0.90418
 H3838 H 0.20323 0.32433 0.88575
 H3839 H 0.23117 0.30600 0.93689
 H3840 H 0.23944 0.29603 0.95600
 H3841 H 0.21404 0.26463 0.95042
 H3842 H 0.20563 0.27482 0.93163
 C3843 C 0.18201 0.79850 0.38806
 C3844 C 0.18711 0.79267 0.39868
 C3845 C 0.19798 0.79747 0.40439
 C3846 C 0.20379 0.80823 0.39931
 C3847 C 0.19868 0.81412 0.38868
 C3848 C 0.18770 0.80934 0.38291
 N3849 N 0.20276 0.79131 0.41539
 N3850 N 0.21281 0.79485 0.42094
 C3851 C 0.21732 0.78869 0.43206
 C3852 C 0.22866 0.79273 0.43748
 C3853 C 0.23319 0.78708 0.44847
 C3854 C 0.22639 0.77727 0.45428
 C3855 C 0.21503 0.77317 0.44874
 C3856 C 0.21054 0.77881 0.43774
 H3857 H 0.17359 0.79446 0.38398
 H3858 H 0.18255 0.78438 0.40251
 H3859 H 0.21221 0.81214 0.40358
 H3860 H 0.20335 0.82242 0.38505
 H3861 H 0.23400 0.80030 0.43319
 H3862 H 0.24205 0.79033 0.45238
 H3863 H 0.20948 0.76577 0.45306
 H3864 H 0.20171 0.77555 0.43377
 C3865 C 0.69978 0.68229 0.61060
 C3866 C 0.70560 0.68771 0.60013
 C3867 C 0.70109 0.69903 0.59512
 C3868 C 0.69061 0.70495 0.60071
 C3869 C 0.68477 0.69955 0.61122
 C3870 C 0.68930 0.68815 0.61632
 N3871 N 0.70732 0.70421 0.58434
 N3872 N 0.70372 0.71435 0.57903
 C3873 C 0.71010 0.71923 0.56818
 C3874 C 0.70539 0.73008 0.56230
 C3875 C 0.71122 0.73482 0.55149
 C3876 C 0.72190 0.72878 0.54639
 C3877 C 0.72672 0.71801 0.55245
 C3878 C 0.72088 0.71327 0.56322
 H3879 H 0.70355 0.67349 0.61412
 H3880 H 0.71365 0.68305 0.59588
 H3881 H 0.68696 0.71373 0.59699
 H3882 H 0.67676 0.70438 0.61533
 H3883 H 0.69709 0.73476 0.56602
 H3884 H 0.70720 0.74306 0.54697
 H3885 H 0.73506 0.71327 0.54889
 H3886 H 0.72477 0.70492 0.56763
 C3887 C 0.68042 0.20203 0.11169
 C3888 C 0.68522 0.20796 0.10097
 C3889 C 0.69598 0.20322 0.09496
 C3890 C 0.70191 0.19239 0.09979
 C3891 C 0.69713 0.18644 0.11049
 C3892 C 0.68632 0.19119 0.11661
 N3893 N 0.70066 0.20951 0.08399
 N3894 N 0.71061 0.20581 0.07835
 C3895 C 0.71536 0.21192 0.06732
 C3896 C 0.72641 0.20727 0.06177
 C3897 C 0.73123 0.21282 0.05087
 C3898 C 0.72503 0.22317 0.04532
 C3899 C 0.71397 0.22789 0.05099
 C3900 C 0.70917 0.22231 0.06190
 H3901 H 0.67206 0.20597 0.11605
 H3902 H 0.68053 0.21629 0.09733
 H3903 H 0.71025 0.18851 0.09530
 H3904 H 0.70200 0.17817 0.11397
 H3905 H 0.73128 0.19929 0.06589
 H3906 H 0.73985 0.20907 0.04685
 H3907 H 0.70890 0.23574 0.04685
 H3908 H 0.70058 0.22606 0.06601
 C3909 C 0.20135 0.68156 0.11160
 C3910 C 0.20730 0.68692 0.10116
 C3911 C 0.20253 0.69794 0.09571
 C3912 C 0.19168 0.70360 0.10083
 C3913 C 0.18572 0.69827 0.11129
 C3914 C 0.19048 0.68717 0.11683
 N3915 N 0.20881 0.70311 0.08495
 N3916 N 0.20468 0.71283 0.07925
 C3917 C 0.21090 0.71795 0.06844
 C3918 C 0.20534 0.72814 0.06216
 C3919 C 0.21097 0.73314 0.05137
 C3920 C 0.22232 0.72804 0.04669
 C3921 C 0.22797 0.71791 0.05314
 C3922 C 0.22231 0.71289 0.06390
 H3923 H 0.20532 0.67301 0.11551
 H3924 H 0.21565 0.68245 0.09728
 H3925 H 0.18780 0.71213 0.09678
 H3926 H 0.17740 0.70292 0.11497
 H3927 H 0.19653 0.73210 0.06555
 H3928 H 0.20627 0.74083 0.04654
 H3929 H 0.23682 0.71389 0.04991
 H3930 H 0.22684 0.70505 0.06864
 C3931 C 0.18261 0.20108 0.61183
 C3932 C 0.18773 0.20691 0.60122
 C3933 C 0.19842 0.20189 0.59532
 C3934 C 0.20401 0.19090 0.60020
 C3935 C 0.19888 0.18503 0.61082
 C3936 C 0.18808 0.19002 0.61677
 N3937 N 0.20326 0.20806 0.58435
 N3938 N 0.21321 0.20434 0.57873
 C3939 C 0.21787 0.21048 0.56766
 C3940 C 0.22909 0.20615 0.56218
 C3941 C 0.23376 0.21177 0.55124
 C3942 C 0.22723 0.22183 0.54554
 C3943 C 0.21600 0.22622 0.55112
 C3944 C 0.21135 0.22061 0.56208
 H3945 H 0.17435 0.20531 0.61608
 H3946 H 0.18334 0.21538 0.59755
 H3947 H 0.21228 0.18682 0.59578
 H3948 H 0.20340 0.17656 0.61428
 H3949 H 0.23422 0.19838 0.56640
 H3950 H 0.24254 0.20829 0.54730
 H3951 H 0.21065 0.23383 0.54689
 H3952 H 0.20263 0.22411 0.56611
   
