data_POSCAR
  _audit_creation_date              2014-09-24
  _audit_creation_method            'ToBaCCo'
  _symmetry_space_group_name_H-M    'P1'
  _symmetry_Int_Tables_number       1
  _symmetry_cell_setting            triclinic
  loop_
  _symmetry_equiv_pos_as_xyz
 x,y,z
_cell_length_a 60.0298
_cell_length_b 59.9836
_cell_length_c 60.1346
_cell_angle_alpha 89.732900
_cell_angle_beta 89.301200
_cell_angle_gamma 90.561700
loop_
  _atom_site_label
  _atom_site_type_symbol
  _atom_site_fract_x
  _atom_site_fract_y
  _atom_site_fract_z
C1 C 0.12477 -0.00549 0.25231
 C2 C 0.37509 0.00210 0.75136
 C3 C 0.87496 0.49928 0.25011
 C4 C 0.62439 0.49665 0.74771
 C5 C 0.25166 0.12579 1.00105
 C6 C 0.74796 0.37405 0.99834
 C7 C 0.24792 0.87340 0.49454
 C8 C 0.74919 0.62546 0.50401
 C9 C 0.00166 0.25297 0.12539
 C10 C 0.00412 0.75153 0.37428
 C11 C 0.49817 0.25363 0.87360
 C12 C 0.50476 0.75138 0.62532
 C13 C 0.87594 0.99905 0.75524
 C14 C 0.37587 0.49733 0.25119
 C15 C 0.62367 0.99671 0.24893
 C16 C 0.12341 0.49952 0.74721
 C17 C 0.74886 0.87449 0.00217
 C18 C 0.24624 0.37429 0.49980
 C19 C 0.25047 0.62510 -0.00478
 C20 C 0.74984 0.12448 0.49920
 C21 C 1.00224 0.75422 0.87494
 C22 C 0.49896 0.25241 0.37493
 C23 C 1.00085 0.25023 0.62450
 C24 C 0.50673 0.75254 0.12440
 O25 O -0.00466 1.05069 1.04665
 O26 O -0.03913 1.03373 1.05042
 O27 O 0.04111 0.99593 1.05387
 O28 O 0.04884 0.96415 1.03686
 O29 O 0.04987 1.04388 0.99988
 O30 O 0.03207 1.04858 0.96506
 O31 O -0.01505 0.93787 0.99363
 O32 O -0.00325 0.93718 1.02954
 O33 O -0.06280 0.98918 0.98985
 O34 O -0.06331 1.02846 0.99956
 O35 O -0.01111 0.98630 0.94166
 O36 O 0.02748 0.99615 0.94042
 O37 O 0.00294 0.95134 0.96274
 O38 O 0.04017 0.97092 0.95781
 O39 O -0.04202 1.00381 0.95464
 O40 O -0.04650 1.04072 0.97338
 O41 O -0.04985 0.95803 1.00686
 O42 O -0.03359 0.95821 1.04459
 O43 O 0.01281 1.06416 1.01543
 O44 O 0.00347 1.06416 0.97672
 O45 O 0.06267 1.01309 1.01765
 O46 O 0.06159 0.97374 1.00527
 O47 O 0.01082 1.01443 1.06703
 O48 O -0.02821 1.00095 1.06571
 Zr49 Zr -0.01026 1.01684 1.03933
 O50 O -0.03150 0.99693 1.01990
 Zr51 Zr 0.03489 0.99150 1.01988
 O52 O 0.01542 0.97007 1.00031
 Zr53 Zr 0.01604 1.03646 0.99425
 O54 O -0.00381 1.01697 0.97300
 Zr55 Zr -0.01657 0.96594 1.01432
 O56 O 0.00393 0.98503 1.03560
 Zr57 Zr -0.03503 1.01088 0.98810
 O58 O -0.01594 1.03234 1.00840
 Zr59 Zr 0.01002 0.98514 0.96928
 O60 O 0.03156 1.00577 0.98808
 O61 O 0.02122 1.02266 1.02548
 O62 O -0.02169 0.97939 0.98272
 C63 C 0.00405 1.06657 1.03489
 C64 C 0.02981 1.00512 1.06955
 C65 C 0.06542 1.03251 1.00892
 C66 C -0.00646 0.93557 0.97411
 C67 C -0.06537 0.96940 0.99783
 C68 C -0.03065 0.99438 0.93915
 H69 H -0.04599 0.99514 1.02773
 H70 H -0.00515 1.02475 0.95857
 H71 H 0.03063 1.03218 1.03503
 H72 H 0.02304 0.95560 0.99895
 H73 H 0.00361 0.94215 1.04359
 H74 H 0.03908 0.95114 1.03401
 H75 H -0.03668 1.04426 0.96049
 H76 H -0.01184 1.06657 0.98246
 H77 H -0.04101 0.94348 1.04292
 H78 H -0.02640 1.00984 1.07947
 H79 H 0.02273 1.01157 0.93728
 H80 H 0.04201 1.03656 0.95983
 H81 H -0.04439 1.04272 1.03771
 H82 H -0.06766 1.02223 1.01425
 H83 H 0.06589 0.98174 0.99140
 H84 H 0.04321 0.95772 0.96718
 O85 O 0.48750 0.48649 0.43826
 O86 O 0.52408 0.49823 0.43790
 O87 O 0.48464 0.43749 0.49126
 O88 O 0.49010 0.43612 0.52758
 O89 O 0.43427 0.48938 0.48688
 O90 O 0.43396 0.52752 0.49679
 O91 O 0.53966 0.49802 0.55046
 O92 O 0.54251 0.46322 0.53539
 O93 O 0.54663 0.54413 0.49822
 O94 O 0.52907 0.54951 0.46244
 O95 O 0.49305 0.55044 0.54356
 O96 O 0.45804 0.53216 0.54956
 O97 O 0.50853 0.51525 0.56356
 O98 O 0.46791 0.50361 0.56335
 O99 O 0.51111 0.56390 0.51280
 O100 O 0.50084 0.56356 0.47269
 O101 O 0.55949 0.51361 0.51639
 O102 O 0.55898 0.47539 0.50080
 O103 O 0.45673 0.50474 0.45085
 O104 O 0.45140 0.54007 0.46930
 O105 O 0.44692 0.45863 0.50483
 O106 O 0.46519 0.45624 0.54179
 O107 O 0.50204 0.45084 0.46004
 O108 O 0.53870 0.47002 0.45819
 Zr109 Zr 0.50774 0.48488 0.46647
 O110 O 0.52843 0.50565 0.48553
 Zr111 Zr 0.48065 0.46581 0.51134
 O112 O 0.50093 0.48511 0.53226
 Zr113 Zr 0.46237 0.51054 0.48488
 O114 O 0.48114 0.53192 0.50525
 Zr115 Zr 0.53208 0.49148 0.51719
 O116 O 0.51294 0.46947 0.49753
 Zr117 Zr 0.51314 0.53640 0.49133
 O118 O 0.49357 0.51672 0.46978
 Zr119 Zr 0.48677 0.51673 0.53625
 O120 O 0.46517 0.49663 0.51692
 O121 O 0.47605 0.47927 0.47989
 O122 O 0.51840 0.52286 0.52279
 C123 C 0.46838 0.49547 0.43541
 C124 C 0.49348 0.43499 0.47188
 C125 C 0.43147 0.46994 0.49556
 C126 C 0.52816 0.50722 0.56600
 C127 C 0.56205 0.53314 0.50787
 C128 C 0.50246 0.56621 0.53227
 H129 H 0.54301 0.50740 0.47784
 H130 H 0.47318 0.54618 0.50683
 H131 H 0.46681 0.46955 0.47036
 H132 H 0.50264 0.47722 0.54660
 H133 H 0.53910 0.45003 0.52615
 H134 H 0.50400 0.43957 0.53555
 H135 H 0.48707 0.56878 0.48014
 H136 H 0.46340 0.54480 0.45881
 H137 H 0.57216 0.47623 0.51057
 H138 H 0.53694 0.46116 0.44441
 H139 H 0.45210 0.54206 0.53789
 H140 H 0.43124 0.52216 0.51219
 H141 H 0.51917 0.51387 0.43641
 H142 H 0.54046 0.53870 0.45760
 H143 H 0.45290 0.46681 0.54455
 H144 H 0.47590 0.49056 0.56926
 O145 O 0.44861 -0.04276 0.49634
 O146 O 0.46464 -0.04587 0.46150
 O147 O 0.50442 -0.04894 0.54059
 O148 O 0.53594 -0.03105 0.54779
 O149 O 0.45606 0.00420 0.54974
 O150 O 0.45069 0.03896 0.53169
 O151 O 0.56068 0.01275 0.48244
 O152 O 0.56181 -0.02324 0.49480
 O153 O 0.50858 0.01607 0.43610
 O154 O 0.46958 0.00543 0.43631
 O155 O 0.51182 0.06403 0.48715
 O156 O 0.50337 0.06491 0.52570
 O157 O 0.54763 0.04350 0.50025
 O158 O 0.52876 0.04769 0.53805
 O159 O 0.49361 0.05086 0.45693
 O160 O 0.45702 0.03090 0.45340
 O161 O 0.53997 -0.00053 0.44860
 O162 O 0.54022 -0.03856 0.46517
 O163 O 0.43519 -0.01180 0.51356
 O164 O 0.43486 0.02717 0.50350
 O165 O 0.48715 -0.01300 0.56218
 O166 O 0.52647 0.00031 0.56001
 O167 O 0.48546 -0.06239 0.51090
 O168 O 0.49780 -0.06054 0.47161
 Zr169 Zr 0.48219 -0.03456 0.48971
 O170 O 0.50152 -0.01459 0.46783
 Zr171 Zr 0.50827 -0.01469 0.53401
 O172 O 0.52924 0.00536 0.51383
 Zr173 Zr 0.46281 0.01007 0.51579
 O174 O 0.48185 0.03186 0.49539
 Zr175 Zr 0.53272 -0.00846 0.48200
 O176 O 0.51421 -0.03021 0.50317
 Zr177 Zr 0.48734 0.01703 0.46424
 O178 O 0.46638 -0.00388 0.48397
 Zr179 Zr 0.51397 0.03621 0.50838
 O180 O 0.49376 0.01690 0.53053
 O181 O 0.47692 -0.02095 0.52110
 O182 O 0.51906 0.02299 0.47677
 C183 C 0.43280 -0.03139 0.50522
 C184 C 0.49527 -0.06482 0.52961
 C185 C 0.46773 -0.00464 0.56516
 C186 C 0.56318 0.03237 0.49057
 C187 C 0.52835 0.00849 0.43327
 C188 C 0.50302 0.06654 0.46796
 H189 H 0.50309 -0.02231 0.45340
 H190 H 0.47392 0.04616 0.49412
 H191 H 0.46770 -0.03079 0.53084
 H192 H 0.54387 0.00697 0.52105
 H193 H 0.55705 -0.03745 0.50191
 H194 H 0.54862 -0.02842 0.53744
 H195 H 0.45348 0.04363 0.46318
 H196 H 0.43187 0.02102 0.48857
 H197 H 0.55476 -0.03654 0.45736
 H198 H 0.48907 -0.07454 0.47377
 H199 H 0.48763 0.06742 0.52182
 H200 H 0.46283 0.04446 0.54130
 H201 H 0.45553 -0.03325 0.45630
 H202 H 0.47555 -0.00934 0.43229
 H203 H 0.51839 0.01395 0.56437
 H204 H 0.54227 0.03877 0.54065
 O205 O 0.00269 0.45239 1.04016
 O206 O 0.03703 0.46927 1.04323
 O207 O -0.04321 0.50696 1.04837
 O208 O -0.05114 0.53877 1.03138
 O209 O -0.05172 0.45925 0.99472
 O210 O -0.03410 0.45485 0.95956
 O211 O 0.01326 0.56540 0.98677
 O212 O 0.00142 0.56593 1.02291
 O213 O 0.06073 0.51411 0.98162
 O214 O 0.06133 0.47489 0.99152
 O215 O 0.00909 0.51750 0.93492
 O216 O -0.02935 0.50792 0.93449
 O217 O -0.00492 0.55243 0.95633
 O218 O -0.04229 0.53273 0.95250
 O219 O 0.03993 0.49980 0.94722
 O220 O 0.04428 0.46266 0.96595
 O221 O 0.04795 0.54513 0.99904
 O222 O 0.03162 0.54466 1.03729
 O223 O -0.01463 0.43897 1.00938
 O224 O -0.00527 0.43946 0.97029
 O225 O -0.06475 0.48990 1.01259
 O226 O -0.06357 0.52954 1.00013
 O227 O -0.01289 0.48840 1.06082
 O228 O 0.02614 0.50200 1.05855
 Zr229 Zr 0.00822 0.48624 1.03266
 O230 O 0.02952 0.50620 1.01268
 Zr231 Zr -0.03697 0.51160 1.01421
 O232 O -0.01740 0.53325 0.99424
 Zr233 Zr -0.01798 0.46687 0.98824
 O234 O 0.00176 0.48660 0.96647
 Zr235 Zr 0.01461 0.53721 1.00744
 O236 O -0.00601 0.51803 1.02919
 Zr237 Zr 0.03297 0.49248 0.98082
 O238 O 0.01394 0.47090 1.00167
 Zr239 Zr -0.01203 0.51851 0.96306
 O240 O -0.03354 0.49761 0.98235
 O241 O -0.02323 0.48044 1.01956
 O242 O 0.01968 0.52404 0.97573
 C243 C -0.00587 0.43652 1.02865
 C244 C -0.03189 0.49767 1.06380
 C245 C -0.06735 0.47048 1.00402
 C246 C 0.00466 0.56800 0.96748
 C247 C 0.06338 0.53382 0.98948
 C248 C 0.02860 0.50936 0.93199
 H249 H 0.04403 0.50792 1.02013
 H250 H 0.00308 0.47894 0.95200
 H251 H -0.03264 0.47082 1.02935
 H252 H -0.02499 0.54775 0.99307
 H253 H -0.00552 0.56088 1.03710
 H254 H -0.04103 0.55165 1.02887
 H255 H 0.03463 0.45939 0.95313
 H256 H 0.00991 0.43680 0.97591
 H257 H 0.03920 0.55932 1.03537
 H258 H 0.02427 0.49309 1.07241
 H259 H -0.02504 0.49233 0.93156
 H260 H -0.04397 0.46693 0.95446
 H261 H 0.04248 0.46056 1.03037
 H262 H 0.06568 0.48097 1.00611
 H263 H -0.06801 0.52152 0.98651
 H264 H -0.04514 0.54603 0.96173
 O265 O 0.06112 0.49066 0.51267
 O266 O 0.06166 0.52732 0.50090
 O267 O 0.00838 0.48862 0.56221
 O268 O -0.02789 0.49499 0.56411
 O269 O 0.01140 0.43795 0.51032
 O270 O 0.00175 0.43778 0.47229
 O271 O -0.05117 0.54389 0.50300
 O272 O -0.03549 0.54690 0.53738
 O273 O 0.00099 0.55035 0.45604
 O274 O 0.03696 0.53252 0.45045
 O275 O -0.04457 0.49735 0.45018
 O276 O -0.05046 0.46193 0.46874
 O277 O -0.06440 0.51289 0.48562
 O278 O -0.06476 0.47261 0.49670
 O279 O -0.01359 0.51490 0.43643
 O280 O 0.02643 0.50439 0.43633
 O281 O -0.01718 0.56342 0.48664
 O282 O -0.00104 0.56319 0.52440
 O283 O 0.04799 0.45985 0.49483
 O284 O 0.02957 0.45470 0.45979
 O285 O -0.00616 0.45107 0.54125
 O286 O -0.04259 0.46982 0.54444
 O287 O 0.03970 0.50569 0.54853
 O288 O 0.04173 0.54225 0.52947
 Zr289 Zr 0.03304 0.51132 0.51469
 O290 O 0.01394 0.53219 0.49431
 Zr291 Zr -0.01206 0.48489 0.53429
 O292 O -0.03299 0.50518 0.51525
 Zr293 Zr 0.01400 0.46602 0.48931
 O294 O -0.00625 0.48498 0.46820
 Zr295 Zr -0.01772 0.53620 0.50879
 O296 O 0.00204 0.51699 0.53045
 Zr297 Zr 0.00792 0.51686 0.46368
 O298 O 0.02940 0.49705 0.48298
 Zr299 Zr -0.03719 0.49095 0.48371
 O300 O -0.01797 0.46930 0.50361
 O301 O 0.01931 0.47978 0.52046
 O302 O -0.02352 0.52246 0.47752
 C303 C 0.06367 0.47137 0.50379
 C304 C 0.02788 0.49727 0.56448
 C305 C 0.00263 0.43537 0.52976
 C306 C -0.06681 0.53245 0.49393
 C307 C -0.00875 0.56584 0.46705
 C308 C -0.03319 0.50651 0.43432
 H309 H 0.02169 0.54672 0.49248
 H310 H -0.00792 0.47698 0.45398
 H311 H 0.02876 0.47040 0.53002
 H312 H -0.04730 0.50702 0.52331
 H313 H -0.02602 0.54356 0.55033
 H314 H -0.03629 0.50861 0.56058
 H315 H 0.01903 0.49051 0.43133
 H316 H 0.04008 0.46663 0.45492
 H317 H -0.01083 0.57640 0.52375
 H318 H 0.05564 0.54038 0.53800
 H319 H -0.03935 0.45661 0.45776
 H320 H -0.01378 0.43540 0.47759
 H321 H 0.06304 0.52224 0.48531
 H322 H 0.04170 0.54415 0.46105
 H323 H -0.04588 0.45787 0.53363
 H324 H -0.07008 0.48026 0.51027
 O325 O 0.51677 0.94000 0.00899
 O326 O 0.50542 0.93974 -0.02756
 O327 O 0.56517 0.99347 0.01118
 O328 O 0.56643 1.02987 0.00435
 O329 O 0.51253 0.98884 0.06157
 O330 O 0.47427 0.99776 0.06192
 O331 O 0.50507 1.05281 -0.04417
 O332 O 0.53990 1.03800 -0.04732
 O333 O 0.45940 0.99965 -0.05027
 O334 O 0.45424 0.96351 -0.03236
 O335 O 0.45195 1.04460 0.00256
 O336 O 0.47006 1.05027 0.03790
 O337 O 0.48711 1.06525 -0.01310
 O338 O 0.49778 1.06535 0.02696
 O339 O 0.43897 1.01364 -0.01490
 O340 O 0.43960 0.97342 -0.00421
 O341 O 0.48983 1.01849 -0.06360
 O342 O 0.52813 1.00335 -0.06333
 O343 O 0.49821 0.95229 0.03981
 O344 O 0.46254 0.96993 0.04503
 O345 O 0.54330 1.00730 0.04850
 O346 O 0.54605 1.04402 0.02960
 O347 O 0.55230 0.96226 -0.00600
 O348 O 0.53382 0.96051 -0.04251
 Zr349 Zr 0.51837 0.96841 -0.01161
 O350 O 0.49775 0.98737 -0.03233
 Zr351 Zr 0.53673 1.01347 0.01470
 O352 O 0.51744 1.03430 -0.00553
 Zr353 Zr 0.49193 0.98627 0.03366
 O354 O 0.47059 1.00642 0.01488
 Zr355 Zr 0.51163 1.01937 -0.03645
 O356 O 0.53357 0.99978 -0.01735
 Zr357 Zr 0.46674 0.99260 -0.01688
 O358 O 0.48633 0.97118 0.00275
 Zr359 Zr 0.48560 1.03772 0.00883
 O360 O 0.50566 1.01856 0.03035
 O361 O 0.52342 0.98178 0.01983
 O362 O 0.48003 1.02438 -0.02257
 C363 C 0.50775 0.93699 0.02829
 C364 C 0.56791 0.97411 0.00256
 C365 C 0.53175 0.99797 0.06415
 C366 C 0.49550 1.06809 -0.03270
 C367 C 0.47043 1.00965 -0.06587
 C368 C 0.43640 1.03312 -0.00656
 H369 H 0.49628 0.97975 -0.04679
 H370 H 0.45621 1.00773 0.02291
 H371 H 0.53307 0.97238 0.02918
 H372 H 0.52521 1.04881 -0.00742
 H373 H 0.55309 1.02886 -0.04395
 H374 H 0.56281 1.03856 -0.00911
 H375 H 0.43419 0.98065 0.00957
 H376 H 0.45811 0.95944 0.03318
 H377 H 0.52738 1.01324 -0.07656
 H378 H 0.54267 0.94674 -0.04066
 H379 H 0.45906 1.03898 0.04315
 H380 H 0.47915 1.01338 0.06424
 H381 H 0.48982 0.93787 -0.02232
 H382 H 0.46521 0.95896 -0.04383
 H383 H 0.53498 1.04697 0.04154
 H384 H 0.51136 1.07101 0.01927
 O385 O 0.48680 0.56591 0.01105
 O386 O 0.49843 0.56672 -0.02553
 O387 O 0.43727 0.51300 0.01296
 O388 O 0.43549 0.47671 0.00695
 O389 O 0.48955 0.51626 0.06312
 O390 O 0.52757 0.50636 0.06286
 O391 O 0.49690 0.45396 -0.04339
 O392 O 0.46230 0.46934 -0.04574
 O393 O 0.54349 0.50636 -0.04974
 O394 O 0.54945 0.54178 -0.03147
 O395 O 0.54947 0.46000 0.00273
 O396 O 0.53121 0.45392 0.03802
 O397 O 0.51414 0.44045 -0.01267
 O398 O 0.50279 0.44008 0.02781
 O399 O 0.56332 0.49092 -0.01475
 O400 O 0.56345 0.53106 -0.00353
 O401 O 0.51275 0.48838 -0.06265
 O402 O 0.47474 0.50415 -0.06156
 O403 O 0.50498 0.55275 0.04139
 O404 O 0.54017 0.53415 0.04593
 O405 O 0.45850 0.49876 0.05032
 O406 O 0.45555 0.46205 0.03132
 O407 O 0.45084 0.54444 -0.00387
 O408 O 0.47004 0.54674 -0.04046
 Zr409 Zr 0.48482 0.53791 -0.00978
 O410 O 0.50529 0.51892 -0.03095
 Zr411 Zr 0.46539 0.49271 0.01645
 O412 O 0.48437 0.47187 -0.00431
 Zr413 Zr 0.51049 0.51873 0.03492
 O414 O 0.53157 0.49842 0.01563
 Zr415 Zr 0.49077 0.48730 -0.03515
 O416 O 0.46908 0.50693 -0.01552
 Zr417 Zr 0.53606 0.51272 -0.01607
 O418 O 0.51669 0.53420 0.00402
 Zr419 Zr 0.51597 0.46754 0.00954
 O420 O 0.49619 0.48675 0.03158
 O421 O 0.47920 0.52409 0.02162
 O422 O 0.52213 0.48135 -0.02183
 C423 C 0.49585 0.56845 0.03016
 C424 C 0.43490 0.53251 0.00446
 C425 C 0.47007 0.50760 0.06588
 C426 C 0.50602 0.43824 -0.03224
 C427 C 0.53231 0.49694 -0.06523
 C428 C 0.56536 0.47123 -0.00657
 H429 H 0.50705 0.52681 -0.04535
 H430 H 0.54583 0.49663 0.02344
 H431 H 0.46960 0.53355 0.03111
 H432 H 0.47631 0.45757 -0.00624
 H433 H 0.44923 0.47863 -0.04206
 H434 H 0.43875 0.46895 -0.00716
 H435 H 0.56871 0.52330 0.00994
 H436 H 0.54495 0.54475 0.03409
 H437 H 0.47540 0.49453 -0.07491
 H438 H 0.46131 0.56056 -0.03837
 H439 H 0.54184 0.46520 0.04365
 H440 H 0.52224 0.49084 0.06518
 H441 H 0.51407 0.56808 -0.02065
 H442 H 0.53853 0.54702 -0.04246
 H443 H 0.46619 0.45899 0.04338
 H444 H 0.48949 0.43450 0.01994
 O445 O -0.01109 0.01410 0.56615
 O446 O 0.02531 0.00254 0.56593
 O447 O -0.01283 0.06282 0.51299
 O448 O -0.00668 0.06413 0.47666
 O449 O -0.06414 0.01063 0.51772
 O450 O -0.06468 -0.02766 0.50875
 O451 O 0.04177 0.00231 0.45303
 O452 O 0.04510 0.03721 0.46802
 O453 O 0.04772 -0.04357 0.50546
 O454 O 0.02966 -0.04861 0.54179
 O455 O -0.00543 -0.05029 0.46108
 O456 O -0.04063 -0.03200 0.45590
 O457 O 0.01050 -0.01532 0.44073
 O458 O -0.02970 -0.00403 0.44121
 O459 O 0.01214 -0.06355 0.49162
 O460 O 0.00151 -0.06317 0.53181
 O461 O 0.06111 -0.01315 0.48673
 O462 O 0.06121 0.02507 0.50231
 O463 O -0.04215 -0.00411 0.55409
 O464 O -0.04780 -0.03958 0.53617
 O465 O -0.05070 0.04135 0.49953
 O466 O -0.03179 0.04397 0.46272
 O467 O 0.00418 0.04975 0.54398
 O468 O 0.04051 0.03078 0.54527
 Zr469 Zr 0.00939 0.01572 0.53757
 O470 O 0.02998 -0.00506 0.51828
 Zr471 Zr -0.01693 0.03444 0.49302
 O472 O 0.00316 0.01507 0.47187
 Zr473 Zr -0.03623 -0.01022 0.52002
 O474 O -0.01756 -0.03169 0.49953
 Zr475 Zr 0.03411 0.00893 0.48645
 O476 O 0.01516 0.03096 0.50635
 Zr477 Zr 0.01428 -0.03592 0.51294
 O478 O -0.00523 -0.01620 0.53464
 Zr479 Zr -0.01148 -0.01663 0.46837
 O480 O -0.03286 0.00354 0.48787
 O481 O -0.02213 0.02115 0.52462
 O482 O 0.01996 -0.02253 0.48132
 C483 C -0.03041 0.00514 0.56933
 C484 C -0.00406 0.06549 0.53219
 C485 C -0.06654 0.02990 0.50870
 C486 C 0.03023 -0.00717 0.43783
 C487 C 0.06334 -0.03263 0.49530
 C488 C 0.00374 -0.06594 0.47223
 H489 H 0.04447 -0.00671 0.52572
 H490 H -0.02570 -0.04600 0.49816
 H491 H -0.03139 0.03088 0.53417
 H492 H 0.00510 0.02287 0.45745
 H493 H 0.04194 0.05039 0.47735
 H494 H 0.00710 0.06061 0.46830
 H495 H -0.01239 -0.06834 0.52473
 H496 H -0.03583 -0.04429 0.54630
 H497 H 0.07441 0.02428 0.49228
 H498 H 0.03879 0.03964 0.55908
 H499 H -0.04606 -0.04283 0.46722
 H500 H -0.06695 -0.02281 0.49319
 H501 H 0.02018 -0.01312 0.56755
 H502 H 0.04150 -0.03795 0.54609
 H503 H -0.04393 0.03309 0.45986
 H504 H -0.02166 0.00926 0.43534
 O505 O 0.74608 0.29079 0.19865
 O506 O 0.71125 0.29428 0.21502
 O507 O 0.79124 0.29792 0.25323
 O508 O 0.79819 0.28105 0.28526
 O509 O 0.79914 0.24317 0.20638
 O510 O 0.78037 0.20885 0.20139
 O511 O 0.73284 0.23758 0.31150
 O512 O 0.74553 0.27354 0.31196
 O513 O 0.68581 0.23353 0.25991
 O514 O 0.68568 0.24319 0.22092
 O515 O 0.73645 0.18540 0.26370
 O516 O 0.77532 0.18436 0.25443
 O517 O 0.75028 0.20654 0.29870
 O518 O 0.78771 0.20166 0.27973
 O519 O 0.70609 0.19830 0.24565
 O520 O 0.70248 0.21735 0.20866
 O521 O 0.69875 0.25071 0.29088
 O522 O 0.71581 0.28862 0.29048
 O523 O 0.76304 0.25956 0.18555
 O524 O 0.75207 0.22064 0.18589
 O525 O 0.81214 0.26105 0.23694
 O526 O 0.81025 0.24931 0.27644
 O527 O 0.76124 0.31104 0.23466
 O528 O 0.72207 0.30970 0.24771
 Zr529 Zr 0.73967 0.28327 0.23232
 O530 O 0.71780 0.26379 0.25217
 Zr531 Zr 0.78414 0.26384 0.25815
 O532 O 0.76400 0.24428 0.27963
 Zr533 Zr 0.76508 0.23810 0.21339
 O534 O 0.74471 0.21678 0.23298
 Zr535 Zr 0.73226 0.25827 0.28326
 O536 O 0.75345 0.27958 0.26420
 Zr537 Zr 0.71375 0.23190 0.23854
 O538 O 0.73342 0.25231 0.21707
 Zr539 Zr 0.75808 0.21313 0.26495
 O540 O 0.78015 0.23195 0.24423
 O541 O 0.77092 0.26938 0.22691
 O542 O 0.72660 0.22657 0.27016
 C543 C 0.75486 0.27916 0.18297
 C544 C 0.78025 0.31363 0.24393
 C545 C 0.81483 0.25200 0.21779
 C546 C 0.74086 0.21798 0.31418
 C547 C 0.68320 0.24157 0.27951
 C548 C 0.71706 0.18280 0.25527
 H549 H 0.70345 0.27163 0.25375
 H550 H 0.74319 0.20231 0.22534
 H551 H 0.78075 0.27889 0.21743
 H552 H 0.77138 0.24295 0.29417
 H553 H 0.75275 0.28763 0.30694
 H554 H 0.78815 0.27840 0.29816
 H555 H 0.71203 0.20440 0.20534
 H556 H 0.73725 0.22702 0.18293
 H557 H 0.70811 0.28693 0.30508
 H558 H 0.72422 0.32347 0.23869
 H559 H 0.77034 0.18084 0.23922
 H560 H 0.78963 0.20314 0.21364
 H561 H 0.70600 0.28160 0.20593
 H562 H 0.68200 0.25821 0.22650
 H563 H 0.81416 0.23523 0.26887
 H564 H 0.79072 0.21106 0.29285
 O565 O 0.75503 0.70623 0.70442
 O566 O 0.78932 0.70226 0.72086
 O567 O 0.70830 0.69767 0.75883
 O568 O 0.70043 0.71387 0.79101
 O569 O 0.70169 0.75336 0.71259
 O570 O 0.72044 0.78800 0.70828
 O571 O 0.76521 0.75696 0.81789
 O572 O 0.75232 0.72104 0.81803
 O573 O 0.81347 0.76195 0.76658
 O574 O 0.81464 0.75335 0.72739
 O575 O 0.76261 0.81008 0.77086
 O576 O 0.72387 0.81111 0.76127
 O577 O 0.74798 0.78818 0.80534
 O578 O 0.71105 0.79342 0.78659
 O579 O 0.79359 0.79760 0.75295
 O580 O 0.79824 0.77954 0.71559
 O581 O 0.79982 0.74386 0.79723
 O582 O 0.78249 0.70615 0.79637
 O583 O 0.73839 0.73775 0.69172
 O584 O 0.74913 0.77657 0.69254
 O585 O 0.68778 0.73478 0.74283
 O586 O 0.68858 0.74583 0.78249
 O587 O 0.73882 0.68507 0.74014
 O588 O 0.77767 0.68616 0.75331
 Zr589 Zr 0.76044 0.71291 0.73822
 O590 O 0.78173 0.73197 0.75836
 Zr591 Zr 0.71520 0.73167 0.76415
 O592 O 0.73475 0.75079 0.78590
 Zr593 Zr 0.73549 0.75848 0.71982
 O594 O 0.75532 0.77939 0.73968
 Zr595 Zr 0.76641 0.73676 0.78949
 O596 O 0.74576 0.71585 0.77010
 Zr597 Zr 0.78612 0.76418 0.74518
 O598 O 0.76707 0.74423 0.72341
 Zr599 Zr 0.74101 0.78226 0.77160
 O600 O 0.71951 0.76387 0.75065
 O601 O 0.72933 0.72687 0.73289
 O602 O 0.77237 0.76875 0.77679
 C603 C 0.74667 0.71824 0.68889
 C604 C 0.71957 0.68221 0.74933
 C605 C 0.68567 0.74420 0.72375
 C606 C 0.75711 0.77652 0.82068
 C607 C 0.81564 0.75331 0.78600
 C608 C 0.78230 0.81287 0.76272
 H609 H 0.79604 0.72409 0.75985
 H610 H 0.75704 0.79404 0.73225
 H611 H 0.71980 0.71755 0.72325
 H612 H 0.72699 0.75181 0.80045
 H613 H 0.74518 0.70707 0.81288
 H614 H 0.71004 0.71636 0.80401
 H615 H 0.78882 0.79261 0.71250
 H616 H 0.76417 0.77051 0.68971
 H617 H 0.78976 0.70745 0.81104
 H618 H 0.77572 0.67257 0.74416
 H619 H 0.72953 0.81517 0.74626
 H620 H 0.71068 0.79326 0.72052
 H621 H 0.79488 0.71517 0.71204
 H622 H 0.81824 0.73823 0.73282
 H623 H 0.68485 0.76004 0.77503
 H624 H 0.70765 0.78363 0.79951
 O625 O 0.29146 0.20142 0.74723
 O626 O 0.29510 0.21740 0.71243
 O627 O 0.29849 0.25732 0.79169
 O628 O 0.28134 0.28916 0.79877
 O629 O 0.24448 0.20919 0.80143
 O630 O 0.20978 0.20349 0.78380
 O631 O 0.23796 0.31334 0.73445
 O632 O 0.27396 0.31464 0.74609
 O633 O 0.23384 0.26077 0.68803
 O634 O 0.24407 0.22172 0.68812
 O635 O 0.18598 0.26443 0.73953
 O636 O 0.18483 0.25585 0.77827
 O637 O 0.20700 0.30018 0.75266
 O638 O 0.20219 0.28156 0.79030
 O639 O 0.19899 0.24598 0.70918
 O640 O 0.21819 0.20930 0.70543
 O641 O 0.25083 0.29240 0.70025
 O642 O 0.28889 0.29292 0.71619
 O643 O 0.26033 0.18802 0.76502
 O644 O 0.22145 0.18744 0.75551
 O645 O 0.26217 0.24044 0.81364
 O646 O 0.24975 0.27969 0.81168
 O647 O 0.31167 0.23821 0.76178
 O648 O 0.31027 0.25065 0.72256
 Zr649 Zr 0.28394 0.23498 0.74086
 O650 O 0.26437 0.25410 0.71925
 Zr651 Zr 0.26441 0.26130 0.78543
 O652 O 0.24473 0.28204 0.76555
 Zr653 Zr 0.23891 0.21560 0.76755
 O654 O 0.21752 0.23439 0.74743
 Zr655 Zr 0.25869 0.28540 0.73353
 O656 O 0.28010 0.26711 0.75438
 Zr657 Zr 0.23259 0.23972 0.71613
 O658 O 0.25306 0.21898 0.73556
 Zr659 Zr 0.21368 0.26659 0.76053
 O660 O 0.23261 0.24665 0.78240
 O661 O 0.27013 0.22986 0.77242
 O662 O 0.22708 0.27153 0.72876
 C663 C 0.27984 0.18564 0.75631
 C664 C 0.31421 0.24800 0.78055
 C665 C 0.25344 0.22102 0.81673
 C666 C 0.21839 0.31576 0.74292
 C667 C 0.24161 0.28061 0.68508
 C668 C 0.18346 0.25557 0.72032
 H669 H 0.27215 0.25561 0.70472
 H670 H 0.20310 0.22641 0.74631
 H671 H 0.27974 0.22068 0.78203
 H672 H 0.24333 0.29672 0.77283
 H673 H 0.28807 0.30995 0.75299
 H674 H 0.27861 0.30183 0.78863
 H675 H 0.20532 0.20584 0.71533
 H676 H 0.22751 0.18444 0.74045
 H677 H 0.28707 0.30739 0.70839
 H678 H 0.32410 0.24196 0.72454
 H679 H 0.18175 0.24025 0.77393
 H680 H 0.20434 0.21575 0.79334
 H681 H 0.28237 0.20822 0.70733
 H682 H 0.25877 0.22798 0.68367
 H683 H 0.23586 0.27172 0.81612
 H684 H 0.21150 0.29495 0.79298
 O685 O 0.20342 0.74312 0.28779
 O686 O 0.21956 0.70858 0.29159
 O687 O 0.25839 0.78913 0.29517
 O688 O 0.29079 0.79672 0.27838
 O689 O 0.21197 0.79705 0.24083
 O690 O 0.20752 0.77901 0.20621
 O691 O 0.31682 0.73214 0.23521
 O692 O 0.31708 0.74437 0.27106
 O693 O 0.26490 0.68462 0.23076
 O694 O 0.22579 0.68371 0.24043
 O695 O 0.26939 0.73617 0.18288
 O696 O 0.26080 0.77482 0.18188
 O697 O 0.30452 0.74986 0.20417
 O698 O 0.28601 0.78733 0.19939
 O699 O 0.25096 0.70534 0.19574
 O700 O 0.21372 0.70088 0.21484
 O701 O 0.29580 0.69762 0.24818
 O702 O 0.29510 0.71417 0.28605
 O703 O 0.19081 0.76039 0.25660
 O704 O 0.19151 0.75024 0.21776
 O705 O 0.24252 0.81032 0.25865
 O706 O 0.28225 0.80914 0.24666
 O707 O 0.23928 0.75872 0.30820
 O708 O 0.25227 0.71968 0.30696
 Zr709 Zr 0.23720 0.73740 0.28053
 O710 O 0.25704 0.71601 0.26115
 Zr711 Zr 0.26364 0.78257 0.26121
 O712 O 0.28517 0.76291 0.24178
 Zr713 Zr 0.21895 0.76325 0.23539
 O714 O 0.23858 0.74343 0.21419
 Zr715 Zr 0.28836 0.73098 0.25575
 O716 O 0.26927 0.75169 0.27694
 Zr717 Zr 0.24370 0.71230 0.22929
 O718 O 0.22219 0.73140 0.24959
 Zr719 Zr 0.27076 0.75729 0.21065
 O720 O 0.25001 0.77888 0.22934
 O721 O 0.23220 0.76877 0.26664
 O722 O 0.27554 0.72564 0.22407
 C723 C 0.18795 0.75186 0.27611
 C724 C 0.24867 0.77787 0.31079
 C725 C 0.22330 0.81279 0.24982
 C726 C 0.31977 0.74042 0.21564
 C727 C 0.28442 0.68210 0.23885
 C728 C 0.26072 0.71672 0.18026
 H729 H 0.25842 0.70155 0.26895
 H730 H 0.23104 0.74206 0.19974
 H731 H 0.22265 0.77828 0.27612
 H732 H 0.29983 0.77048 0.24050
 H733 H 0.31198 0.75138 0.28507
 H734 H 0.30363 0.78685 0.27577
 H735 H 0.21065 0.71050 0.20185
 H736 H 0.18829 0.73526 0.22405
 H737 H 0.30966 0.70664 0.28440
 H738 H 0.24317 0.72159 0.32069
 H739 H 0.24533 0.77015 0.17867
 H740 H 0.21980 0.78888 0.20088
 H741 H 0.21077 0.70319 0.27885
 H742 H 0.23124 0.67983 0.25540
 H743 H 0.27467 0.81328 0.23272
 H744 H 0.29917 0.79024 0.20872
 O745 O 0.30102 0.74487 0.70335
 O746 O 0.28358 0.71077 0.69981
 O747 O 0.24743 0.79177 0.69517
 O748 O 0.21515 0.79955 0.71171
 O749 O 0.29392 0.79957 0.74945
 O750 O 0.29775 0.78152 0.78435
 O751 O 0.18715 0.73573 0.75605
 O752 O 0.18724 0.74786 0.72000
 O753 O 0.23765 0.68752 0.76073
 O754 O 0.27704 0.68647 0.75107
 O755 O 0.23462 0.73918 0.80813
 O756 O 0.24488 0.77797 0.80854
 O757 O 0.20017 0.75343 0.78678
 O758 O 0.21968 0.79046 0.79126
 O759 O 0.25190 0.70804 0.79559
 O760 O 0.28906 0.70313 0.77697
 O761 O 0.20710 0.70083 0.74326
 O762 O 0.20822 0.71733 0.70532
 O763 O 0.31406 0.76217 0.73432
 O764 O 0.31310 0.75277 0.77318
 O765 O 0.26368 0.81295 0.73150
 O766 O 0.22406 0.81222 0.74328
 O767 O 0.26564 0.76114 0.68256
 O768 O 0.25132 0.72233 0.68430
 Zr769 Zr 0.26697 0.73988 0.71052
 O770 O 0.24642 0.71880 0.73016
 Zr771 Zr 0.24188 0.78535 0.72920
 O772 O 0.21980 0.76604 0.74896
 Zr773 Zr 0.28598 0.76577 0.75534
 O774 O 0.26581 0.74611 0.77677
 Zr775 Zr 0.21555 0.73411 0.73541
 O776 O 0.23531 0.75448 0.71391
 Zr777 Zr 0.25966 0.71500 0.76205
 O778 O 0.28175 0.73389 0.74157
 Zr779 Zr 0.23410 0.76035 0.78015
 O780 O 0.25538 0.78168 0.76112
 O781 O 0.27295 0.77127 0.72397
 O782 O 0.22827 0.72873 0.76713
 C783 C 0.31676 0.75330 0.71505
 C784 C 0.25680 0.78035 0.67970
 C785 C 0.28291 0.81538 0.74036
 C786 C 0.18456 0.74416 0.77552
 C787 C 0.21806 0.68517 0.75265
 C788 C 0.24244 0.71953 0.81092
 H789 H 0.24461 0.70434 0.72252
 H790 H 0.27328 0.74464 0.79124
 H791 H 0.28284 0.78062 0.71440
 H792 H 0.20539 0.77380 0.75018
 H793 H 0.19254 0.75472 0.70587
 H794 H 0.20191 0.79008 0.71484
 H795 H 0.29244 0.71282 0.78978
 H796 H 0.31547 0.73746 0.76763
 H797 H 0.19339 0.71006 0.70704
 H798 H 0.26049 0.72407 0.67054
 H799 H 0.25991 0.77257 0.81221
 H800 H 0.28572 0.79149 0.78952
 H801 H 0.29210 0.70521 0.71265
 H802 H 0.27099 0.68218 0.73646
 H803 H 0.23155 0.81617 0.75731
 H804 H 0.20686 0.79374 0.78164
 O805 O 0.25206 0.20439 0.20266
 O806 O 0.28662 0.20056 0.21883
 O807 O 0.20596 0.19710 0.25775
 O808 O 0.19839 0.21396 0.28965
 O809 O 0.19929 0.25197 0.21052
 O810 O 0.21826 0.28655 0.20562
 O811 O 0.26382 0.25699 0.31521
 O812 O 0.25048 0.22113 0.31605
 O813 O 0.31164 0.26067 0.26353
 O814 O 0.31243 0.25131 0.22449
 O815 O 0.26112 0.30933 0.26711
 O816 O 0.22230 0.31043 0.25805
 O817 O 0.24685 0.28819 0.30226
 O818 O 0.20970 0.29333 0.28389
 O819 O 0.29186 0.29625 0.24920
 O820 O 0.29619 0.27742 0.21232
 O821 O 0.29801 0.24320 0.29455
 O822 O 0.28038 0.20563 0.29445
 O823 O 0.23560 0.23587 0.18965
 O824 O 0.24666 0.27460 0.18971
 O825 O 0.18553 0.23399 0.24119
 O826 O 0.18672 0.24588 0.28060
 O827 O 0.23619 0.18399 0.23893
 O828 O 0.27512 0.18494 0.25160
 Zr829 Zr 0.25795 0.21162 0.23630
 O830 O 0.27956 0.23079 0.25601
 Zr831 Zr 0.21308 0.23115 0.26235
 O832 O 0.23296 0.25050 0.28362
 Zr833 Zr 0.23318 0.25707 0.21742
 O834 O 0.25339 0.27810 0.23675
 Zr835 Zr 0.26452 0.23625 0.28716
 O836 O 0.24358 0.21520 0.26826
 Zr837 Zr 0.28413 0.26273 0.24225
 O838 O 0.26469 0.24264 0.22094
 Zr839 Zr 0.23937 0.28167 0.26873
 O840 O 0.21752 0.26310 0.24829
 O841 O 0.22690 0.22572 0.23106
 O842 O 0.27067 0.26798 0.27388
 C843 C 0.24364 0.21623 0.18704
 C844 C 0.21704 0.18141 0.24842
 C845 C 0.18332 0.24305 0.22195
 C846 C 0.25603 0.27672 0.31773
 C847 C 0.31384 0.25233 0.28309
 C848 C 0.28073 0.31181 0.25867
 H849 H 0.29380 0.22282 0.25754
 H850 H 0.25515 0.29260 0.22902
 H851 H 0.21722 0.21629 0.22168
 H852 H 0.22536 0.25185 0.29822
 H853 H 0.24319 0.20713 0.31118
 H854 H 0.20806 0.21671 0.30255
 H855 H 0.28672 0.29037 0.20892
 H856 H 0.26162 0.26836 0.18683
 H857 H 0.28775 0.20711 0.30905
 H858 H 0.27305 0.17126 0.24261
 H859 H 0.22775 0.31410 0.24288
 H860 H 0.20843 0.29191 0.21776
 H861 H 0.29207 0.21327 0.20964
 H862 H 0.31590 0.23624 0.23014
 H863 H 0.18307 0.25999 0.27293
 H864 H 0.20636 0.28379 0.29699
 O865 O 0.74828 0.70736 0.30309
 O866 O 0.71395 0.70374 0.28648
 O867 O 0.79481 0.70008 0.24827
 O868 O 0.80298 0.71723 0.21637
 O869 O 0.80273 0.75458 0.29549
 O870 O 0.78456 0.78924 0.30017
 O871 O 0.73946 0.76082 0.19029
 O872 O 0.75148 0.72475 0.18976
 O873 O 0.69093 0.76456 0.24155
 O874 O 0.68969 0.75439 0.28078
 O875 O 0.74241 0.81279 0.23835
 O876 O 0.78137 0.81359 0.24809
 O877 O 0.75705 0.79185 0.20334
 O878 O 0.79372 0.79698 0.22219
 O879 O 0.71134 0.79957 0.25614
 O880 O 0.70623 0.78055 0.29292
 O881 O 0.70452 0.74762 0.21055
 O882 O 0.72072 0.70968 0.21093
 O883 O 0.76557 0.73858 0.31615
 O884 O 0.75587 0.77733 0.31599
 O885 O 0.81610 0.73668 0.26493
 O886 O 0.81564 0.74885 0.22563
 O887 O 0.76416 0.68703 0.26699
 O888 O 0.72542 0.68834 0.25386
 Zr889 Zr 0.74309 0.71479 0.26933
 O890 O 0.72214 0.73424 0.24939
 Zr891 Zr 0.78864 0.73425 0.24362
 O892 O 0.76948 0.75400 0.22224
 Zr893 Zr 0.76896 0.75993 0.28836
 O894 O 0.74934 0.78123 0.26891
 Zr895 Zr 0.73762 0.73995 0.21839
 O896 O 0.75780 0.71856 0.23748
 Zr897 Zr 0.71828 0.76603 0.26315
 O898 O 0.73709 0.74572 0.28461
 Zr899 Zr 0.76370 0.78510 0.23705
 O900 O 0.78495 0.76613 0.25758
 O901 O 0.77447 0.72863 0.27482
 O902 O 0.73214 0.77157 0.23164
 C903 C 0.75682 0.71907 0.31877
 C904 C 0.78327 0.68439 0.25758
 C905 C 0.81851 0.74562 0.28413
 C906 C 0.74789 0.78046 0.18778
 C907 C 0.68880 0.75674 0.22183
 C908 C 0.72278 0.81518 0.24666
 H909 H 0.70769 0.72640 0.24769
 H910 H 0.74782 0.79566 0.27663
 H911 H 0.78381 0.71906 0.28432
 H912 H 0.77730 0.75542 0.20773
 H913 H 0.75822 0.71063 0.19478
 H914 H 0.79355 0.72032 0.20338
 H915 H 0.71605 0.79336 0.29647
 H916 H 0.74060 0.77141 0.31863
 H917 H 0.71355 0.71144 0.19626
 H918 H 0.72703 0.67457 0.26289
 H919 H 0.77550 0.81739 0.26302
 H920 H 0.79454 0.79466 0.28803
 H921 H 0.70861 0.71645 0.29545
 H922 H 0.68546 0.73973 0.27457
 H923 H 0.81948 0.76297 0.23321
 H924 H 0.79734 0.78716 0.20950
 O925 O 0.69947 0.24387 0.79163
 O926 O 0.71559 0.20938 0.79579
 O927 O 0.75435 0.28999 0.79878
 O928 O 0.78682 0.29739 0.78212
 O929 O 0.70835 0.29738 0.74385
 O930 O 0.70391 0.27867 0.70957
 O931 O 0.81315 0.23257 0.73966
 O932 O 0.81323 0.24521 0.77535
 O933 O 0.76138 0.18470 0.73576
 O934 O 0.72216 0.18393 0.74507
 O935 O 0.76595 0.23578 0.68709
 O936 O 0.75705 0.27460 0.68578
 O937 O 0.80090 0.24990 0.70838
 O938 O 0.78247 0.28704 0.70288
 O939 O 0.74756 0.20502 0.70018
 O940 O 0.71030 0.20065 0.71913
 O941 O 0.79214 0.19811 0.75311
 O942 O 0.79125 0.21514 0.79066
 O943 O 0.68703 0.26079 0.76019
 O944 O 0.68779 0.25023 0.72157
 O945 O 0.73877 0.31081 0.76176
 O946 O 0.77845 0.30954 0.75023
 O947 O 0.73530 0.25966 0.81205
 O948 O 0.74821 0.22064 0.81124
 Zr949 Zr 0.73328 0.23809 0.78456
 O950 O 0.75329 0.21655 0.76553
 Zr951 Zr 0.75977 0.28308 0.76490
 O952 O 0.78139 0.26328 0.74575
 Zr953 Zr 0.71524 0.26342 0.73906
 O954 O 0.73497 0.24333 0.71819
 Zr955 Zr 0.78460 0.23153 0.76011
 O956 O 0.76536 0.25239 0.78099
 Zr957 Zr 0.74014 0.21236 0.73364
 O958 O 0.71848 0.23172 0.75360
 Zr959 Zr 0.76711 0.25724 0.71462
 O960 O 0.74631 0.27900 0.73301
 O961 O 0.72830 0.26933 0.77032
 O962 O 0.77195 0.22575 0.72842
 C963 C 0.68405 0.25245 0.77976
 C964 C 0.74467 0.27882 0.81449
 C965 C 0.71971 0.31324 0.75262
 C966 C 0.81614 0.24067 0.72002
 C967 C 0.78085 0.18238 0.74405
 C968 C 0.75735 0.21628 0.68462
 H969 H 0.75466 0.20219 0.77353
 H970 H 0.72749 0.24176 0.70373
 H971 H 0.71872 0.27897 0.77963
 H972 H 0.79604 0.27088 0.74444
 H973 H 0.80806 0.25234 0.78928
 H974 H 0.79975 0.28765 0.77946
 H975 H 0.70718 0.21022 0.70612
 H976 H 0.68473 0.23522 0.72787
 H977 H 0.80587 0.20769 0.78920
 H978 H 0.73900 0.22264 0.82490
 H979 H 0.74185 0.26937 0.68219
 H980 H 0.71622 0.28841 0.70410
 H981 H 0.70681 0.20389 0.78307
 H982 H 0.72751 0.18027 0.76013
 H983 H 0.77113 0.31335 0.73607
 H984 H 0.79535 0.29032 0.71247
 N985 N 0.07679 0.99826 1.21305
 C986 C 0.08749 0.99897 1.19307
 N987 N 0.11000 0.99800 1.19239
 N988 N 0.12151 0.99652 1.21109
 C989 C 0.11099 0.99600 1.23124
 N990 N 0.08833 0.99678 1.23181
 C991 C 0.07543 1.00060 1.17269
 C992 C 0.06639 1.00180 1.15494
 C993 C 0.05684 1.00285 1.13321
 N994 N 0.06792 0.99403 1.11563
 N995 N 0.05934 0.99495 1.09534
 C996 C 0.03940 1.00479 1.09191
 N997 N 0.02832 1.01368 1.10956
 N998 N 0.03693 1.01275 1.12988
 N999 N 0.58118 0.51488 0.70730
 C1000 C 0.58485 0.50101 0.68992
 N1001 N 0.60059 0.48512 0.69167
 N1002 N 0.61245 0.48323 0.71012
 C1003 C 0.60897 0.49708 0.72765
 N1004 N 0.59305 0.51297 0.72580
 C1005 C 0.57337 0.50382 0.66932
 C1006 C 0.56473 0.50563 0.65142
 C1007 C 0.55551 0.50699 0.62955
 N1008 N 0.56718 0.49902 0.61192
 N1009 N 0.55858 0.49950 0.59162
 C1010 C 0.53801 0.50799 0.58823
 N1011 N 0.52638 0.51609 0.60592
 N1012 N 0.53500 0.51560 0.62626
 N1013 N 0.41515 -0.01683 0.70744
 C1014 C 0.41280 -0.00103 0.69146
 N1015 N 0.39896 0.01625 0.69527
 N1016 N 0.38765 0.01763 0.71437
 C1017 C 0.38979 0.00184 0.73049
 N1018 N 0.40383 -0.01544 0.72660
 C1019 C 0.42368 -0.00306 0.67019
 C1020 C 0.43198 -0.00421 0.65187
 C1021 C 0.44102 -0.00493 0.62968
 N1022 N 0.42934 0.00362 0.61253
 N1023 N 0.43776 0.00348 0.59194
 C1024 C 0.45817 -0.00524 0.58777
 N1025 N 0.46982 -0.01387 0.60498
 N1026 N 0.46138 -0.01372 0.62559
 N1027 N -0.11130 0.50151 1.18955
 C1028 C -0.08877 0.50076 1.18922
 N1029 N -0.07773 0.50009 1.20876
 N1030 N -0.08896 0.50010 1.22804
 C1031 C -0.11162 0.50089 1.22848
 N1032 N -0.12249 0.50150 1.20877
 C1033 C -0.07705 0.50019 1.16831
 C1034 C -0.06820 0.49965 1.15022
 C1035 C -0.05870 0.49911 1.12822
 N1036 N -0.03882 0.48924 1.12427
 N1037 N -0.03030 0.48862 1.10370
 C1038 C -0.04142 0.49778 1.08642
 N1039 N -0.06133 0.50761 1.09046
 N1040 N -0.06983 0.50822 1.11100
 N1041 N -0.08326 0.51540 0.29289
 C1042 C -0.08715 0.50001 0.30909
 N1043 N -0.10235 0.48360 0.30563
 N1044 N -0.11355 0.48276 0.28668
 C1045 C -0.10993 0.49823 0.27038
 N1046 N -0.09446 0.51455 0.27391
 C1047 C -0.07670 0.50196 0.33031
 C1048 C -0.06871 0.50345 0.34854
 C1049 C -0.05985 0.50492 0.37053
 N1050 N -0.07158 0.49649 0.38811
 N1051 N -0.06326 0.49737 0.40853
 C1052 C -0.04296 0.50678 0.41206
 N1053 N -0.03130 0.51532 0.39442
 N1054 N -0.03963 0.51443 0.37400
 N1055 N 0.42285 1.00531 -0.20906
 C1056 C 0.41199 1.00568 -0.18914
 N1057 N 0.38947 1.00448 -0.18864
 N1058 N 0.37810 1.00304 -0.20743
 C1059 C 0.38880 1.00263 -0.22749
 N1060 N 0.41146 1.00387 -0.22792
 C1061 C 0.42390 1.00731 -0.16866
 C1062 C 0.43284 1.00848 -0.15086
 C1063 C 0.44241 1.00940 -0.12912
 N1064 N 0.43123 1.00037 -0.11151
 N1065 N 0.44003 1.00082 -0.09130
 C1066 C 0.46030 1.01039 -0.08797
 N1067 N 0.47144 1.01954 -0.10565
 N1068 N 0.46262 1.01908 -0.12589
 N1069 N 0.58611 0.51427 -0.20611
 C1070 C 0.58844 0.49750 -0.19113
 N1071 N 0.60192 0.48027 -0.19617
 N1072 N 0.61282 0.47981 -0.21555
 C1073 C 0.61063 0.49650 -0.23076
 N1074 N 0.59702 0.51379 -0.22556
 C1075 C 0.57761 0.49818 -0.16974
 C1076 C 0.56920 0.49816 -0.15144
 C1077 C 0.55976 0.49775 -0.12940
 N1078 N 0.57117 0.50661 -0.11219
 N1079 N 0.56257 0.50606 -0.09167
 C1080 C 0.54230 0.49650 -0.08764
 N1081 N 0.53096 0.48755 -0.10491
 N1082 N 0.53957 0.48811 -0.12544
 N1083 N 0.08301 0.00743 0.29710
 C1084 C 0.08654 -0.00909 0.31208
 N1085 N 0.10180 -0.02489 0.30735
 N1086 N 0.11332 -0.02412 0.28831
 C1087 C 0.11002 -0.00755 0.27319
 N1088 N 0.09453 0.00819 0.27801
 C1089 C 0.07551 -0.00909 0.33337
 C1090 C 0.06702 -0.00908 0.35163
 C1091 C 0.05764 -0.00893 0.37368
 N1092 N 0.06927 0.00014 0.39063
 N1093 N 0.06063 0.00045 0.41114
 C1094 C 0.04009 -0.00835 0.41540
 N1095 N 0.02851 -0.01750 0.39838
 N1096 N 0.03715 -0.01781 0.37787
 N1097 N 0.20743 1.08569 1.02061
 C1098 C 0.19161 1.08816 1.00489
 N1099 N 0.19566 1.10205 0.98748
 N1100 N 0.21483 1.11330 0.98590
 C1101 C 0.23079 1.11105 1.00160
 N1102 N 0.22667 1.09695 1.01901
 C1103 C 0.17026 1.07733 1.00707
 C1104 C 0.15190 1.06904 1.00827
 C1105 C 0.12972 1.05988 1.00903
 N1106 N 0.11263 1.07135 1.00008
 N1107 N 0.09208 1.06274 1.00024
 C1108 C 0.08792 1.04237 1.00939
 N1109 N 0.10507 1.03095 1.01841
 N1110 N 0.12563 1.03956 1.01824
 N1111 N 0.70673 0.57915 0.50478
 C1112 C 0.68741 0.59068 0.50464
 N1113 N 0.68822 0.61322 0.50374
 N1114 N 0.70772 0.62394 0.50309
 C1115 C 0.72722 0.61257 0.50317
 N1116 N 0.72629 0.58990 0.50412
 C1117 C 0.66622 0.57943 0.50579
 C1118 C 0.64800 0.57081 0.50673
 C1119 C 0.62598 0.56131 0.50760
 N1120 N 0.60869 0.57253 0.49873
 N1121 N 0.58824 0.56371 0.49919
 C1122 C 0.58436 0.54340 0.50860
 N1123 N 0.60170 0.53224 0.51757
 N1124 N 0.62217 0.54107 0.51712
 N1125 N 0.68787 0.38877 -0.00375
 C1126 C 0.68843 0.41133 -0.00425
 N1127 N 0.70840 0.42208 -0.00356
 N1128 N 0.72726 0.41055 -0.00248
 C1129 C 0.72678 0.38785 -0.00193
 N1130 N 0.70666 0.37726 -0.00267
 C1131 C 0.66795 0.42342 -0.00543
 C1132 C 0.65019 0.43261 -0.00626
 C1133 C 0.62852 0.44251 -0.00684
 N1134 N 0.62560 0.46308 -0.01576
 N1135 N 0.60541 0.47216 -0.01599
 C1136 C 0.58748 0.46095 -0.00736
 N1137 N 0.59050 0.44034 0.00146
 N1138 N 0.61066 0.43127 0.00168
 N1139 N 0.20691 -0.07974 0.49414
 C1140 C 0.18726 -0.09106 0.49315
 N1141 N 0.18741 -0.11361 0.49270
 N1142 N 0.20656 -0.12456 0.49323
 C1143 C 0.22635 -0.11340 0.49432
 N1144 N 0.22614 -0.09071 0.49467
 C1145 C 0.16639 -0.07956 0.49282
 C1146 C 0.14840 -0.07078 0.49272
 C1147 C 0.12660 -0.06111 0.49293
 N1148 N 0.10923 -0.07218 0.50265
 N1149 N 0.08900 -0.06324 0.50313
 C1150 C 0.08543 -0.04293 0.49384
 N1151 N 0.10286 -0.03191 0.48403
 N1152 N 0.12310 -0.04086 0.48355
 N1153 N 0.29092 -0.08632 0.51489
 C1154 C 0.30718 -0.08799 0.49915
 N1155 N 0.30380 -0.10135 0.48140
 N1156 N 0.28486 -0.11287 0.47953
 C1157 C 0.26847 -0.11144 0.49528
 N1158 N 0.27192 -0.09785 0.51301
 C1159 C 0.32834 -0.07696 0.50173
 C1160 C 0.34657 -0.06851 0.50336
 C1161 C 0.36866 -0.05921 0.50462
 N1162 N 0.38624 -0.07065 0.49633
 N1163 N 0.40672 -0.06192 0.49683
 C1164 C 0.41034 -0.04143 0.50569
 N1165 N 0.39270 -0.03004 0.51408
 N1166 N 0.37220 -0.03878 0.51357
 N1167 N -0.19601 0.39855 0.98438
 C1168 C -0.19238 0.41224 1.00183
 N1169 N -0.20840 0.41414 1.01779
 N1170 N -0.22743 0.40259 1.01636
 C1171 C -0.23115 0.38875 0.99888
 N1172 N -0.21498 0.38701 0.98296
 C1173 C -0.17132 0.42359 1.00374
 C1174 C -0.15319 0.43236 1.00473
 C1175 C -0.13122 0.44202 1.00519
 N1176 N -0.12763 0.46244 1.01413
 N1177 N -0.10723 0.47145 1.01399
 C1178 C -0.08974 0.46033 1.00491
 N1179 N -0.09342 0.43987 0.99604
 N1180 N -0.11379 0.43087 0.99618
 N1181 N -0.20885 0.58288 0.48711
 C1182 C -0.19241 0.58637 0.50199
 N1183 N -0.19548 0.60151 0.51834
 N1184 N -0.21427 0.61306 0.51962
 C1185 C -0.23080 0.60986 0.50465
 N1186 N -0.22769 0.59443 0.48840
 C1187 C -0.17127 0.57566 0.49951
 C1188 C -0.15304 0.56758 0.49767
 C1189 C -0.13094 0.55881 0.49592
 N1190 N -0.11345 0.57059 0.50398
 N1191 N -0.09293 0.56237 0.50294
 C1192 C -0.08920 0.54210 0.49373
 N1193 N -0.10675 0.53039 0.48555
 N1194 N -0.12728 0.53862 0.48660
 N1195 N 0.29181 1.07824 -0.00151
 C1196 C 0.31165 1.08928 -0.00246
 N1197 N 0.31189 1.11183 -0.00202
 N1198 N 0.29293 1.12305 -0.00071
 C1199 C 0.27296 1.11219 0.00032
 N1200 N 0.27277 1.08950 -0.00020
 C1201 C 0.33234 1.07757 -0.00384
 C1202 C 0.35036 1.06891 -0.00484
 C1203 C 0.37234 1.05973 -0.00569
 N1204 N 0.38972 1.07138 0.00277
 N1205 N 0.41018 1.06301 0.00221
 C1206 C 0.41399 1.04273 -0.00693
 N1207 N 0.39655 1.03112 -0.01548
 N1208 N 0.37607 1.03950 -0.01491
 N1209 N -0.01574 1.20630 1.08818
 C1210 C 0.00237 1.19296 1.08846
 N1211 N 0.02056 1.19953 1.09990
 N1212 N 0.02055 1.21866 1.11099
 C1213 C 0.00233 1.23199 1.11117
 N1214 N -0.01575 1.22550 1.09929
 C1215 C 0.00200 1.17151 1.07800
 C1216 C 0.00209 1.15315 1.06992
 C1217 C 0.00251 1.13104 1.06089
 N1218 N 0.01194 1.12724 1.04068
 N1219 N 0.01259 1.10664 1.03249
 C1220 C 0.00393 1.08915 1.04427
 N1221 N -0.00545 1.09303 1.06453
 N1222 N -0.00610 1.11362 1.07272
 N1223 N 0.52040 0.69585 0.60215
 C1224 C 0.50326 0.69132 0.58845
 N1225 N 0.48681 0.70650 0.58620
 N1226 N 0.48752 0.72563 0.59741
 C1227 C 0.50471 0.73027 0.61125
 N1228 N 0.52109 0.71491 0.61334
 C1229 C 0.50223 0.67021 0.57741
 C1230 C 0.50194 0.65207 0.56889
 C1231 C 0.50200 0.63017 0.55942
 N1232 N 0.49296 0.61271 0.57085
 N1233 N 0.49332 0.59226 0.56230
 C1234 C 0.50285 0.58858 0.54207
 N1235 N 0.51195 0.60611 0.53068
 N1236 N 0.51159 0.62656 0.53924
 N1237 N 0.01508 0.69456 0.39694
 C1238 C -0.00262 0.69116 0.41072
 N1239 N -0.01769 0.70764 0.41341
 N1240 N -0.01517 0.72691 0.40248
 C1241 C 0.00256 0.73043 0.38852
 N1242 N 0.01759 0.71377 0.38601
 C1243 C -0.00572 0.66991 0.42140
 C1244 C -0.00764 0.65164 0.42965
 C1245 C -0.00906 0.62956 0.43884
 N1246 N -0.01836 0.62589 0.45920
 N1247 N -0.01869 0.60546 0.46802
 C1248 C -0.00975 0.58804 0.45676
 N1249 N -0.00058 0.59178 0.43632
 N1250 N -0.00025 0.61219 0.42751
 N1251 N 0.51144 1.20934 -0.08459
 C1252 C 0.49477 1.19429 -0.08774
 N1253 N 0.47872 1.19892 -0.10262
 N1254 N 0.47939 1.21788 -0.11418
 C1255 C 0.49613 1.23304 -0.11132
 N1256 N 0.51211 1.22836 -0.09616
 C1257 C 0.49487 1.17298 -0.07682
 C1258 C 0.49480 1.15465 -0.06852
 C1259 C 0.49472 1.13250 -0.05939
 N1260 N 0.48542 1.12824 -0.03914
 N1261 N 0.48539 1.10763 -0.03076
 C1262 C 0.49459 1.09058 -0.04239
 N1263 N 0.50382 1.09492 -0.06270
 N1264 N 0.50384 1.11552 -0.07107
 N1265 N 0.50228 0.31410 -0.11295
 C1266 C 0.50317 0.31407 -0.09048
 N1267 N 0.50238 0.29433 -0.07937
 N1268 N 0.50085 0.27518 -0.09049
 C1269 C 0.50011 0.27511 -0.11311
 N1270 N 0.50076 0.29502 -0.12403
 C1271 C 0.50456 0.33485 -0.07884
 C1272 C 0.50548 0.35284 -0.07001
 C1273 C 0.50615 0.37469 -0.06041
 N1274 N 0.51502 0.37807 -0.04006
 N1275 N 0.51528 0.39840 -0.03118
 C1276 C 0.50672 0.41602 -0.04239
 N1277 N 0.49794 0.41256 -0.06280
 N1278 N 0.49769 0.39225 -0.07166
 N1279 N 0.02059 -0.19291 0.39729
 C1280 C 0.00504 -0.18980 0.41343
 N1281 N -0.01052 -0.20594 0.41735
 N1282 N -0.01051 -0.22462 0.40542
 C1283 C 0.00509 -0.22788 0.38915
 N1284 N 0.02058 -0.21154 0.38538
 C1285 C 0.00447 -0.16908 0.42520
 C1286 C 0.00424 -0.15119 0.43424
 C1287 C 0.00408 -0.12949 0.44413
 N1288 N 0.01321 -0.12600 0.46435
 N1289 N 0.01327 -0.10570 0.47327
 C1290 C 0.00428 -0.08821 0.46222
 N1291 N -0.00480 -0.09178 0.44196
 N1292 N -0.00486 -0.11206 0.43305
 N1293 N 0.50273 -0.20933 0.57667
 C1294 C 0.50466 -0.18930 0.58689
 N1295 N 0.50738 -0.18868 0.60918
 N1296 N 0.50792 -0.20745 0.62099
 C1297 C 0.50577 -0.22763 0.61097
 N1298 N 0.50329 -0.22819 0.58851
 C1299 C 0.50301 -0.16881 0.57470
 C1300 C 0.50152 -0.15092 0.56567
 C1301 C 0.49987 -0.12903 0.55621
 N1302 N 0.50858 -0.11130 0.56708
 N1303 N 0.50690 -0.09083 0.55867
 C1304 C 0.49634 -0.08736 0.53914
 N1305 N 0.48756 -0.10516 0.52829
 N1306 N 0.48925 -0.12567 0.53672
 N1307 N 0.00062 0.29186 1.07623
 C1308 C 0.00080 0.31203 1.08639
 N1309 N 0.00184 0.31291 1.10882
 N1310 N 0.00248 0.29427 1.12081
 C1311 C 0.00215 0.27395 1.11087
 N1312 N 0.00128 0.27313 1.08827
 C1313 C -0.00053 0.33240 1.07392
 C1314 C -0.00168 0.35027 1.06480
 C1315 C -0.00288 0.37222 1.05534
 N1316 N 0.00523 0.38990 1.06674
 N1317 N 0.00404 0.41041 1.05830
 C1318 C -0.00540 0.41396 1.03821
 N1319 N -0.01358 0.39620 1.02684
 N1320 N -0.01239 0.37566 1.03529
 N1321 N 0.76723 0.33404 0.04177
 C1322 C 0.75128 0.33600 0.05779
 N1323 N 0.73383 0.34963 0.05419
 N1324 N 0.73242 0.36109 0.03526
 C1325 C 0.74835 0.35931 0.01910
 N1326 N 0.76581 0.34550 0.02279
 C1327 C 0.75328 0.32484 0.07887
 C1328 C 0.75446 0.31625 0.09700
 C1329 C 0.75520 0.30684 0.11899
 N1330 N 0.74688 0.31836 0.13651
 N1331 N 0.74702 0.30961 0.15691
 C1332 C 0.75552 0.28903 0.16053
 N1333 N 0.76393 0.27754 0.14295
 N1334 N 0.76378 0.28630 0.12252
 N1335 N 0.23420 0.84851 0.55025
 C1336 C 0.25205 0.83545 0.55395
 N1337 N 0.26814 0.83395 0.53800
 N1338 N 0.26645 0.84533 0.51900
 C1339 C 0.24859 0.85859 0.51522
 N1340 N 0.23252 0.85988 0.53130
 C1341 C 0.25436 0.82454 0.57509
 C1342 C 0.25574 0.81622 0.59331
 C1343 C 0.25668 0.80715 0.61541
 N1344 N 0.26599 0.78701 0.61928
 N1345 N 0.26629 0.77855 0.63982
 C1346 C 0.25731 0.78996 0.65717
 N1347 N 0.24808 0.81014 0.65322
 N1348 N 0.24778 0.81859 0.63270
 N1349 N 0.75122 0.67292 0.54439
 C1350 C 0.74758 0.66214 0.56400
 N1351 N 0.74447 0.63977 0.56402
 N1352 N 0.74494 0.62847 0.54505
 C1353 C 0.74854 0.63909 0.52529
 N1354 N 0.75169 0.66160 0.52534
 C1355 C 0.74735 0.67391 0.58472
 C1356 C 0.74717 0.68269 0.60271
 C1357 C 0.74708 0.69200 0.62464
 N1358 N 0.75546 0.68020 0.64184
 N1359 N 0.75522 0.68853 0.66233
 C1360 C 0.74652 0.70895 0.66634
 N1361 N 0.73810 0.72074 0.64907
 N1362 N 0.73834 0.71239 0.62856
 N1363 N 0.26527 0.14871 0.05705
 C1364 C 0.24772 0.16212 0.06122
 N1365 N 0.23187 0.16448 0.04552
 N1366 N 0.23348 0.15359 0.02628
 C1367 C 0.25104 0.13999 0.02203
 N1368 N 0.26687 0.13782 0.03788
 C1369 C 0.24556 0.17264 0.08252
 C1370 C 0.24433 0.18071 0.10082
 C1371 C 0.24351 0.18964 0.12292
 N1372 N 0.23503 0.21014 0.12678
 N1373 N 0.23484 0.21853 0.14728
 C1374 C 0.24312 0.20668 0.16459
 N1375 N 0.25153 0.18612 0.16064
 N1376 N 0.25171 0.17775 0.14016
 N1377 N 0.25221 0.17439 0.96148
 C1378 C 0.25328 0.16388 0.94156
 N1379 N 0.25379 0.14135 0.94109
 N1380 N 0.25323 0.12962 0.95990
 C1381 C 0.25205 0.13995 0.97996
 N1382 N 0.25165 0.16263 0.98038
 C1383 C 0.25360 0.17610 0.92101
 C1384 C 0.25372 0.18510 0.90305
 C1385 C 0.25363 0.19453 0.88109
 N1386 N 0.24458 0.18286 0.86414
 N1387 N 0.24463 0.19127 0.84361
 C1388 C 0.25381 0.21163 0.83931
 N1389 N 0.26290 0.22329 0.85634
 N1390 N 0.26284 0.21486 0.87689
 N1391 N 0.73570 0.66636 0.45896
 C1392 C 0.75333 0.66425 0.44485
 N1393 N 0.77007 0.65041 0.45037
 N1394 N 0.76906 0.63875 0.46924
 C1395 C 0.75123 0.64035 0.48333
 N1396 N 0.73470 0.65469 0.47789
 C1397 C 0.75367 0.67516 0.42356
 C1398 C 0.75416 0.68348 0.40527
 C1399 C 0.75485 0.69264 0.38319
 N1400 N 0.74640 0.68089 0.36597
 N1401 N 0.74719 0.68921 0.34539
 C1402 C 0.75654 0.70956 0.34133
 N1403 N 0.76504 0.72127 0.35861
 N1404 N 0.76424 0.71293 0.37919
 N1405 N 0.24711 0.85907 0.43434
 C1406 C 0.24774 0.83652 0.43459
 N1407 N 0.24854 0.82565 0.45440
 N1408 N 0.24871 0.83706 0.47340
 C1409 C 0.24817 0.85975 0.47322
 N1410 N 0.24728 0.87045 0.45327
 C1411 C 0.24768 0.82456 0.41397
 C1412 C 0.24774 0.81547 0.39613
 C1413 C 0.24800 0.80564 0.37441
 N1414 N 0.25786 0.81664 0.35712
 N1415 N 0.25798 0.80780 0.33684
 C1416 C 0.24820 0.78767 0.33314
 N1417 N 0.23831 0.77669 0.35050
 N1418 N 0.23819 0.78554 0.37080
 N1419 N 0.74634 0.35968 0.93819
 C1420 C 0.74625 0.33712 0.93845
 N1421 N 0.74686 0.32624 0.95827
 N1422 N 0.74755 0.33765 0.97726
 C1423 C 0.74774 0.36034 0.97706
 N1424 N 0.74703 0.37106 0.95710
 C1425 C 0.74560 0.32519 0.91783
 C1426 C 0.74518 0.31619 0.89994
 C1427 C 0.74493 0.30650 0.87816
 N1428 N 0.73499 0.28644 0.87464
 N1429 N 0.73475 0.27767 0.85431
 C1430 C 0.74437 0.28869 0.83682
 N1431 N 0.75426 0.30878 0.84043
 N1432 N 0.75450 0.31754 0.86074
 N1433 N 0.86060 0.43909 0.24440
 C1434 C 0.83818 0.43878 0.24699
 N1435 N 0.82738 0.45823 0.25059
 N1436 N 0.83874 0.47744 0.25154
 C1437 C 0.86130 0.47781 0.24891
 N1438 N 0.87194 0.45822 0.24535
 C1439 C 0.82634 0.41791 0.24624
 C1440 C 0.81742 0.39983 0.24566
 C1441 C 0.80779 0.37786 0.24514
 N1442 N 0.78792 0.37410 0.23526
 N1443 N 0.77920 0.35358 0.23472
 C1444 C 0.79010 0.33614 0.24395
 N1445 N 0.81001 0.33999 0.25377
 N1446 N 0.81871 0.36048 0.25432
 N1447 N 0.35199 0.94537 0.76462
 C1448 C 0.33844 0.94156 0.74718
 N1449 N 0.33599 0.95775 0.73161
 N1450 N 0.34694 0.97711 0.73337
 C1451 C 0.36069 0.98101 0.75079
 N1452 N 0.36294 0.96468 0.76636
 C1453 C 0.32787 0.92013 0.74476
 C1454 C 0.31968 0.90177 0.74314
 C1455 C 0.31051 0.87962 0.74175
 N1456 N 0.29048 0.87594 0.73218
 N1457 N 0.28182 0.85540 0.73145
 C1458 C 0.29292 0.83785 0.74022
 N1459 N 0.31302 0.84161 0.74970
 N1460 N 0.32167 0.86213 0.75044
 N1461 N 0.14120 0.93520 0.24553
 C1462 C 0.16330 0.93580 0.24978
 N1463 N 0.17323 0.95563 0.25437
 N1464 N 0.16134 0.97430 0.25477
 C1465 C 0.13912 0.97378 0.25051
 N1466 N 0.12934 0.95381 0.24593
 C1467 C 0.17565 0.91546 0.24997
 C1468 C 0.18504 0.89779 0.25006
 C1469 C 0.19511 0.87620 0.24996
 N1470 N 0.21530 0.87291 0.25923
 N1471 N 0.22433 0.85268 0.25928
 C1472 C 0.21341 0.83509 0.25012
 N1473 N 0.19319 0.83848 0.24089
 N1474 N 0.18419 0.85868 0.24084
 N1475 N 0.63991 0.43663 0.74657
 C1476 C 0.66241 0.43741 0.74730
 N1477 N 0.67294 0.45753 0.74763
 N1478 N 0.66121 0.47632 0.74741
 C1479 C 0.63854 0.47561 0.74684
 N1480 N 0.62821 0.45534 0.74635
 C1481 C 0.67459 0.41698 0.74817
 C1482 C 0.68360 0.39912 0.74899
 C1483 C 0.69308 0.37728 0.74989
 N1484 N 0.71298 0.37383 0.75972
 N1485 N 0.72143 0.35338 0.76076
 C1486 C 0.71021 0.33571 0.75210
 N1487 N 0.69028 0.33925 0.74233
 N1488 N 0.68185 0.35968 0.74129
 N1489 N 0.65102 0.55061 0.72988
 C1490 C 0.66290 0.55629 0.74803
 N1491 N 0.66302 0.54223 0.76576
 N1492 N 0.65137 0.52318 0.76543
 C1493 C 0.63909 0.51756 0.74739
 N1494 N 0.63938 0.53161 0.72956
 C1495 C 0.67400 0.57757 0.74881
 C1496 C 0.68261 0.59582 0.74914
 C1497 C 0.69220 0.61785 0.74931
 N1498 N 0.68097 0.63491 0.75882
 N1499 N 0.68963 0.65545 0.75871
 C1500 C 0.70979 0.65965 0.74900
 N1501 N 0.72099 0.64252 0.73945
 N1502 N 0.71232 0.62197 0.73956
 N1503 N 0.16465 0.04033 0.23655
 C1504 C 0.16201 0.05492 0.25349
 N1505 N 0.14814 0.04948 0.27064
 N1506 N 0.13696 0.03019 0.27068
 C1507 C 0.13914 0.01562 0.25353
 N1508 N 0.15347 0.02104 0.23660
 C1509 C 0.17250 0.07649 0.25257
 C1510 C 0.18070 0.09490 0.25169
 C1511 C 0.18993 0.11702 0.25065
 N1512 N 0.17874 0.13431 0.25979
 N1513 N 0.18727 0.15489 0.25888
 C1514 C 0.20725 0.15888 0.24872
 N1515 N 0.21838 0.14153 0.23952
 N1516 N 0.20985 0.12095 0.24043
 N1517 N 0.36011 0.06213 0.75354
 C1518 C 0.33757 0.06152 0.75382
 N1519 N 0.32688 0.04149 0.75311
 N1520 N 0.33847 0.02263 0.75216
 C1521 C 0.36115 0.02318 0.75179
 N1522 N 0.37166 0.04335 0.75259
 C1523 C 0.32550 0.08203 0.75476
 C1524 C 0.31653 0.09991 0.75541
 C1525 C 0.30703 0.12177 0.75587
 N1526 N 0.28667 0.12524 0.76517
 N1527 N 0.27806 0.14564 0.76553
 C1528 C 0.28956 0.16325 0.75666
 N1529 N 0.30996 0.15969 0.74743
 N1530 N 0.31855 0.13931 0.74707
 N1531 N 0.84980 0.55220 0.27108
 C1532 C 0.83644 0.55813 0.25413
 N1533 N 0.83468 0.54448 0.23631
 N1534 N 0.84624 0.52563 0.23534
 C1535 C 0.86013 0.51980 0.25209
 N1536 N 0.86135 0.53341 0.27010
 C1537 C 0.82573 0.57941 0.25446
 C1538 C 0.81763 0.59772 0.25495
 C1539 C 0.80876 0.61984 0.25563
 N1540 N 0.78890 0.62381 0.26576
 N1541 N 0.78087 0.64443 0.26655
 C1542 C 0.79247 0.66178 0.25734
 N1543 N 0.81238 0.65774 0.24726
 N1544 N 0.82040 0.63712 0.24647
 N1545 N 0.94551 0.26801 0.14810
 C1546 C 0.94081 0.25073 0.16195
 N1547 N 0.95596 0.23429 0.16433
 N1548 N 0.97528 0.23517 0.15314
 C1549 C 0.98015 0.25254 0.13920
 N1550 N 0.96476 0.26888 0.13694
 C1551 C 0.91959 0.24966 0.17311
 C1552 C 0.90137 0.24947 0.18172
 C1553 C 0.87936 0.24978 0.19121
 N1554 N 0.86198 0.24107 0.17986
 N1555 N 0.84138 0.24192 0.18828
 C1556 C 0.83746 0.25163 0.20828
 N1557 N 0.85491 0.26038 0.21960
 N1558 N 0.87551 0.25953 0.21117
 N1559 N 0.45848 0.73332 0.66383
 C1560 C 0.44372 0.75014 0.66155
 N1561 N 0.44900 0.76757 0.64807
 N1562 N 0.46837 0.76816 0.63711
 C1563 C 0.48331 0.75139 0.63921
 N1564 N 0.47793 0.73392 0.65285
 C1565 C 0.42228 0.74931 0.67229
 C1566 C 0.40387 0.74936 0.68051
 C1567 C 0.38167 0.75004 0.68955
 N1568 N 0.37765 0.75967 0.70953
 N1569 N 0.35692 0.76088 0.71758
 C1570 C 0.33951 0.75261 0.70585
 N1571 N 0.34361 0.74302 0.68583
 N1572 N 0.36434 0.74182 0.67778
 N1573 N 0.43864 0.26014 0.85849
 C1574 C 0.43860 0.25449 0.83672
 N1575 N 0.45811 0.24923 0.82650
 N1576 N 0.47709 0.24951 0.83781
 C1577 C 0.47720 0.25514 0.85971
 N1578 N 0.45756 0.26040 0.86978
 C1579 C 0.41791 0.25324 0.82513
 C1580 C 0.39998 0.25218 0.81639
 C1581 C 0.37815 0.25107 0.80703
 N1582 N 0.37462 0.24065 0.78741
 N1583 N 0.35419 0.23951 0.77899
 C1584 C 0.33665 0.24869 0.78997
 N1585 N 0.34027 0.25907 0.80963
 N1586 N 0.36067 0.26021 0.81803
 N1587 N 0.94994 0.76892 0.34982
 C1588 C 0.94439 0.75086 0.33755
 N1589 N 0.95870 0.73357 0.33630
 N1590 N 0.97785 0.73418 0.34727
 C1591 C 0.98337 0.75209 0.35995
 N1592 N 0.96907 0.76953 0.36080
 C1593 C 0.92295 0.74951 0.32732
 C1594 C 0.90463 0.74843 0.31939
 C1595 C 0.88258 0.74733 0.31049
 N1596 N 0.87887 0.73768 0.29052
 N1597 N 0.85839 0.73689 0.28223
 C1598 C 0.84092 0.74568 0.29367
 N1599 N 0.84470 0.75526 0.31371
 N1600 N 0.86518 0.75605 0.32198
 N1601 N 0.04350 0.75289 0.32522
 C1602 C 0.06351 0.75150 0.33535
 N1603 N 0.06414 0.74987 0.35778
 N1604 N 0.04539 0.74967 0.36977
 C1605 C 0.02522 0.75103 0.35982
 N1606 N 0.02467 0.75270 0.33724
 C1607 C 0.08399 0.75185 0.32283
 C1608 C 0.10187 0.75201 0.31351
 C1609 C 0.12375 0.75195 0.30369
 N1610 N 0.14094 0.74316 0.31507
 N1611 N 0.16141 0.74324 0.30630
 C1612 C 0.16541 0.75218 0.28584
 N1613 N 0.14815 0.76102 0.27446
 N1614 N 0.12765 0.76094 0.28326
 N1615 N 0.54326 0.26799 0.83238
 C1616 C 0.55763 0.25092 0.83495
 N1617 N 0.55228 0.23415 0.84927
 N1618 N 0.53329 0.23460 0.86092
 C1619 C 0.51894 0.25189 0.85880
 N1620 N 0.52425 0.26843 0.84403
 C1621 C 0.57899 0.25136 0.82402
 C1622 C 0.59732 0.25175 0.81562
 C1623 C 0.61946 0.25209 0.80638
 N1624 N 0.63656 0.24364 0.81817
 N1625 N 0.65718 0.24393 0.80974
 C1626 C 0.66141 0.25273 0.78926
 N1627 N 0.64424 0.26123 0.77751
 N1628 N 0.62360 0.26094 0.78595
 N1629 N 0.54261 0.74884 0.67446
 C1630 C 0.56294 0.75038 0.66444
 N1631 N 0.56424 0.75280 0.64208
 N1632 N 0.54584 0.75344 0.63002
 C1633 C 0.52537 0.75170 0.63986
 N1634 N 0.52413 0.74950 0.66238
 C1635 C 0.58304 0.74904 0.67698
 C1636 C 0.60064 0.74795 0.68632
 C1637 C 0.62225 0.74689 0.69613
 N1638 N 0.64013 0.75575 0.68517
 N1639 N 0.66035 0.75469 0.69394
 C1640 C 0.66341 0.74465 0.71393
 N1641 N 0.64547 0.73574 0.72487
 N1642 N 0.62521 0.73680 0.71609
 N1643 N 0.05759 0.26623 0.14898
 C1644 C 0.05945 0.25054 0.16508
 N1645 N 0.04221 0.23624 0.16900
 N1646 N 0.02371 0.23754 0.15705
 C1647 C 0.02172 0.25324 0.14079
 N1648 N 0.03913 0.26752 0.13704
 C1649 C 0.08006 0.24826 0.17662
 C1650 C 0.09793 0.24667 0.18536
 C1651 C 0.11971 0.24529 0.19475
 N1652 N 0.12279 0.23571 0.21494
 N1653 N 0.14312 0.23475 0.22356
 C1654 C 0.16101 0.24330 0.21225
 N1655 N 0.15783 0.25281 0.19202
 N1656 N 0.13753 0.25376 0.18341
 N1657 N -0.08433 0.98030 0.79877
 C1658 C -0.08679 0.99616 0.81459
 N1659 N -0.10066 1.01339 0.81080
 N1660 N -0.11186 1.01468 0.79188
 C1661 C -0.10958 0.99884 0.77592
 N1662 N -0.09554 0.98160 0.77979
 C1663 C -0.07587 0.99431 0.83563
 C1664 C -0.06747 0.99331 0.85373
 C1665 C -0.05821 0.99283 0.87565
 N1666 N -0.06970 1.00163 0.89300
 N1667 N -0.06103 1.00184 0.91328
 C1668 C -0.04056 0.99321 0.91694
 N1669 N -0.02911 0.98431 0.89953
 N1670 N -0.03779 0.98411 0.87922
 N1671 N 0.38975 0.49649 0.31134
 C1672 C 0.41230 0.49661 0.31105
 N1673 N 0.42332 0.49721 0.29122
 N1674 N 0.41206 0.49765 0.27224
 C1675 C 0.38938 0.49761 0.27245
 N1676 N 0.37852 0.49693 0.29242
 C1677 C 0.42405 0.49611 0.33165
 C1678 C 0.43283 0.49578 0.34956
 C1679 C 0.44212 0.49562 0.37141
 N1680 N 0.46213 0.48613 0.37526
 N1681 N 0.47048 0.48592 0.39571
 C1682 C 0.45906 0.49514 0.41296
 N1683 N 0.43903 0.50459 0.40901
 N1684 N 0.43069 0.50479 0.38859
 N1685 N 0.58291 0.01740 0.29136
 C1686 C 0.58479 0.00215 0.30792
 N1687 N 0.59853 -0.01539 0.30499
 N1688 N 0.61019 -0.01755 0.28616
 C1689 C 0.60851 -0.00231 0.26945
 N1690 N 0.59457 0.01522 0.27249
 C1691 C 0.57358 0.00512 0.32890
 C1692 C 0.56506 0.00707 0.34704
 C1693 C 0.55586 0.00857 0.36912
 N1694 N 0.56769 0.00105 0.38662
 N1695 N 0.55905 0.00149 0.40710
 C1696 C 0.53828 0.00952 0.41082
 N1697 N 0.52648 0.01720 0.39327
 N1698 N 0.53514 0.01674 0.37274
 N1699 N 0.08342 0.52044 0.79029
 C1700 C 0.08532 0.50504 0.80671
 N1701 N 0.09893 0.48745 0.80355
 N1702 N 0.11041 0.48534 0.78462
 C1703 C 0.10867 0.50069 0.76802
 N1704 N 0.09491 0.51831 0.77131
 C1705 C 0.07414 0.50776 0.82772
 C1706 C 0.06558 0.50936 0.84587
 C1707 C 0.05631 0.51036 0.86794
 N1708 N 0.06780 0.50188 0.88523
 N1709 N 0.05908 0.50193 0.90569
 C1710 C 0.03856 0.51050 0.90958
 N1711 N 0.02711 0.51911 0.89223
 N1712 N 0.03584 0.51905 0.87173
 N1713 N 0.08130 0.51468 0.70428
 C1714 C 0.08505 0.49917 0.68836
 N1715 N 0.10084 0.48362 0.69166
 N1716 N 0.11256 0.48352 0.71028
 C1717 C 0.10894 0.49893 0.72644
 N1718 N 0.09305 0.51457 0.72298
 C1719 C 0.07336 0.49967 0.66771
 C1720 C 0.06445 0.49963 0.64987
 C1721 C 0.05479 0.49930 0.62818
 N1722 N 0.06638 0.50767 0.61049
 N1723 N 0.05781 0.50691 0.59019
 C1724 C 0.03740 0.49765 0.58685
 N1725 N 0.02583 0.48924 0.60460
 N1726 N 0.03441 0.49000 0.62493
 N1727 N 0.58271 1.01192 0.20499
 C1728 C 0.58707 0.99665 0.18899
 N1729 N 0.60279 0.98108 0.19265
 N1730 N 0.61388 0.98081 0.21166
 C1731 C 0.60967 0.99603 0.22786
 N1732 N 0.59382 1.01163 0.22406
 C1733 C 0.57610 0.99745 0.16796
 C1734 C 0.56764 0.99781 0.14988
 C1735 C 0.55829 0.99801 0.12805
 N1736 N 0.56977 1.00742 0.11081
 N1737 N 0.56136 1.00730 0.09041
 C1738 C 0.54122 0.99768 0.08655
 N1739 N 0.52977 0.98824 0.10386
 N1740 N 0.53819 0.98836 0.12427
 N1741 N 0.41599 0.51746 0.20738
 C1742 C 0.41413 0.50145 0.19165
 N1743 N 0.40060 0.48364 0.19560
 N1744 N 0.38912 0.48195 0.21462
 C1745 C 0.39078 0.49795 0.23048
 N1746 N 0.40450 0.51575 0.22644
 C1747 C 0.42513 0.50383 0.17045
 C1748 C 0.43356 0.50535 0.15221
 C1749 C 0.44279 0.50655 0.13012
 N1750 N 0.43122 0.49808 0.11283
 N1751 N 0.43982 0.49866 0.09231
 C1752 C 0.46029 0.50777 0.08838
 N1753 N 0.47183 0.51632 0.10573
 N1754 N 0.46321 0.51572 0.12627
 N1755 N -0.10926 0.00091 0.69497
 C1756 C -0.08673 0.00164 0.69501
 N1757 N -0.07597 0.00127 0.71473
 N1758 N -0.08749 0.00023 0.73384
 C1759 C -0.11017 -0.00058 0.73386
 N1760 N -0.12075 -0.00013 0.71400
 C1761 C -0.07475 0.00278 0.67424
 C1762 C -0.06593 0.00357 0.65613
 C1763 C -0.05669 0.00419 0.63401
 N1764 N -0.03652 0.01378 0.62977
 N1765 N -0.02820 0.01430 0.60910
 C1766 C -0.03981 0.00533 0.59201
 N1767 N -0.06002 -0.00419 0.59634
 N1768 N -0.06832 -0.00471 0.61697
 N1769 N -0.19747 0.90011 0.98198
 C1770 C -0.19097 0.91213 0.99980
 N1771 N -0.20428 0.91252 1.01819
 N1772 N -0.22342 0.90104 1.01879
 C1773 C -0.22987 0.88863 1.00106
 N1774 N -0.21655 0.88863 0.98259
 C1775 C -0.16966 0.92322 0.99948
 C1776 C -0.15142 0.93182 0.99894
 C1777 C -0.12940 0.94139 0.99827
 N1778 N -0.11200 0.92989 1.00654
 N1779 N -0.09154 0.93869 1.00606
 C1780 C -0.08774 0.95927 0.99720
 N1781 N -0.10520 0.97072 0.98883
 N1782 N -0.12568 0.96190 0.98931
 N1783 N 0.30176 0.39850 0.51457
 C1784 C 0.30630 0.41199 0.49695
 N1785 N 0.29107 0.41384 0.48059
 N1786 N 0.27191 0.40243 0.48179
 C1787 C 0.26726 0.38878 0.49943
 N1788 N 0.28265 0.38709 0.51577
 C1789 C 0.32748 0.42322 0.49533
 C1790 C 0.34566 0.43193 0.49455
 C1791 C 0.36764 0.44158 0.49429
 N1792 N 0.37151 0.46204 0.48527
 N1793 N 0.39190 0.47103 0.48550
 C1794 C 0.40910 0.45986 0.49475
 N1795 N 0.40514 0.43936 0.50371
 N1796 N 0.38476 0.43038 0.50347
 N1797 N 0.29015 0.57717 -0.00302
 C1798 C 0.31010 0.58802 -0.00290
 N1799 N 0.31056 0.61055 -0.00391
 N1800 N 0.29171 0.62195 -0.00491
 C1801 C 0.27162 0.61128 -0.00506
 N1802 N 0.27122 0.58860 -0.00403
 C1803 C 0.33067 0.57616 -0.00133
 C1804 C 0.34864 0.56746 -0.00003
 C1805 C 0.37061 0.55837 0.00134
 N1806 N 0.38835 0.57031 -0.00649
 N1807 N 0.40885 0.56215 -0.00524
 C1808 C 0.41234 0.54179 0.00397
 N1809 N 0.39454 0.52988 0.01187
 N1810 N 0.37401 0.53806 0.01062
 N1811 N -0.21070 0.07636 0.50145
 C1812 C -0.19071 0.08710 0.50189
 N1813 N -0.19012 0.10964 0.50091
 N1814 N -0.20890 0.12114 0.49965
 C1815 C -0.22903 0.11058 0.49919
 N1816 N -0.22956 0.08790 0.50018
 C1817 C -0.17021 0.07508 0.50362
 C1818 C -0.15235 0.06617 0.50499
 C1819 C -0.13047 0.05679 0.50632
 N1820 N -0.11270 0.06821 0.49785
 N1821 N -0.09232 0.05974 0.49891
 C1822 C -0.08896 0.03956 0.50857
 N1823 N -0.10680 0.02816 0.51713
 N1824 N -0.12722 0.03666 0.51607
 N1825 N 0.69313 0.10124 0.51232
 C1826 C 0.68936 0.08783 0.49469
 N1827 N 0.70561 0.08548 0.47903
 N1828 N 0.72496 0.09639 0.48088
 C1829 C 0.72881 0.11001 0.49851
 N1830 N 0.71243 0.11215 0.51417
 C1831 C 0.66793 0.07732 0.49221
 C1832 C 0.64954 0.06921 0.49071
 C1833 C 0.62733 0.06014 0.48965
 N1834 N 0.62350 0.03985 0.48054
 N1835 N 0.60296 0.03118 0.48042
 C1836 C 0.58556 0.04253 0.48937
 N1837 N 0.58946 0.06291 0.49835
 N1838 N 0.60999 0.07156 0.49847
 N1839 N 0.20590 0.58611 0.97583
 C1840 C 0.18990 0.58852 0.99173
 N1841 N 0.19397 0.60194 1.00930
 N1842 N 0.21332 0.61281 1.01082
 C1843 C 0.22944 0.61062 0.99491
 N1844 N 0.22530 0.59699 0.97737
 C1845 C 0.16839 0.57812 0.98958
 C1846 C 0.14994 0.57012 0.98836
 C1847 C 0.12767 0.56119 0.98763
 N1848 N 0.11048 0.57284 0.99647
 N1849 N 0.08990 0.56431 0.99665
 C1850 C 0.08580 0.54383 0.98798
 N1851 N 0.10304 0.53226 0.97902
 N1852 N 0.12363 0.54080 0.97884
 N1853 N 0.18627 0.38968 0.50047
 C1854 C 0.18707 0.41224 0.50071
 N1855 N 0.20718 0.42276 0.50026
 N1856 N 0.22593 0.41101 0.49966
 C1857 C 0.22521 0.38832 0.49937
 N1858 N 0.20496 0.37796 0.49987
 C1859 C 0.16670 0.42455 0.50156
 C1860 C 0.14897 0.43382 0.50220
 C1861 C 0.12728 0.44367 0.50271
 N1862 N 0.12393 0.46389 0.51211
 N1863 N 0.10363 0.47274 0.51262
 C1864 C 0.08602 0.46159 0.50381
 N1865 N 0.08948 0.44134 0.49446
 N1866 N 0.10974 0.43253 0.49395
 N1867 N 0.68941 0.89198 0.00187
 C1868 C 0.69096 0.91450 0.00150
 N1869 N 0.71141 0.92435 0.00103
 N1870 N 0.72976 0.91196 0.00105
 C1871 C 0.72828 0.88929 0.00155
 N1872 N 0.70768 0.87963 0.00190
 C1873 C 0.67097 0.92743 0.00169
 C1874 C 0.65340 0.93699 0.00182
 C1875 C 0.63175 0.94692 0.00180
 N1876 N 0.62824 0.96722 0.01100
 N1877 N 0.60788 0.97595 0.01130
 C1878 C 0.59039 0.96463 0.00250
 N1879 N 0.59401 0.94432 -0.00666
 N1880 N 0.61432 0.93562 -0.00697
 N1881 N 0.00037 0.79212 0.92447
 C1882 C 0.00064 0.81248 0.91455
 N1883 N 0.00225 0.81384 0.89212
 N1884 N 0.00328 0.79545 0.87991
 C1885 C 0.00282 0.77493 0.88964
 N1886 N 0.00142 0.77365 0.91223
 C1887 C -0.00124 0.83256 0.92726
 C1888 C -0.00279 0.85020 0.93663
 C1889 C -0.00425 0.87193 0.94635
 N1890 N 0.00383 0.88986 0.93497
 N1891 N 0.00273 0.91016 0.94373
 C1892 C -0.00659 0.91327 0.96414
 N1893 N -0.01480 0.89528 0.97550
 N1894 N -0.01369 0.87493 0.96671
 N1895 N 0.49959 0.31215 0.39166
 C1896 C 0.49864 0.31098 0.41412
 N1897 N 0.49826 0.29069 0.42421
 N1898 N 0.49868 0.27211 0.41209
 C1899 C 0.49950 0.27322 0.38947
 N1900 N 0.50000 0.29365 0.37958
 C1901 C 0.49768 0.33119 0.42670
 C1902 C 0.49686 0.34896 0.43592
 C1903 C 0.49604 0.37080 0.44544
 N1904 N 0.48650 0.37422 0.46568
 N1905 N 0.48552 0.39471 0.47411
 C1906 C 0.49397 0.41244 0.46252
 N1907 N 0.50347 0.40892 0.44226
 N1908 N 0.50444 0.38846 0.43385
 N1909 N 0.00218 0.29117 0.57716
 C1910 C -0.00142 0.31067 0.58787
 N1911 N -0.00501 0.31042 0.61013
 N1912 N -0.00488 0.29129 0.62140
 C1913 C -0.00130 0.27161 0.61086
 N1914 N 0.00229 0.27199 0.58846
 C1915 C -0.00060 0.33153 0.57614
 C1916 C 0.00016 0.34953 0.56718
 C1917 C 0.00095 0.37140 0.55747
 N1918 N -0.00753 0.38892 0.56880
 N1919 N -0.00678 0.40933 0.56002
 C1920 C 0.00254 0.41294 0.53962
 N1921 N 0.01109 0.39536 0.52831
 N1922 N 0.01034 0.37492 0.53711
 N1923 N 0.50799 0.79283 0.07648
 C1924 C 0.50858 0.81268 0.08718
 N1925 N 0.50849 0.81292 0.10969
 N1926 N 0.50783 0.79393 0.12119
 C1927 C 0.50712 0.77393 0.11065
 N1928 N 0.50733 0.77378 0.08801
 C1929 C 0.50899 0.83334 0.07510
 C1930 C 0.50910 0.85125 0.06593
 C1931 C 0.50887 0.87307 0.05610
 N1932 N 0.49930 0.89014 0.06724
 N1933 N 0.49907 0.91052 0.05838
 C1934 C 0.50844 0.91454 0.03808
 N1935 N 0.51805 0.89740 0.02694
 N1936 N 0.51828 0.87699 0.03582
 N1937 N 0.52034 0.69698 0.10003
 C1938 C 0.50287 0.69336 0.08642
 N1939 N 0.48713 0.70928 0.08447
 N1940 N 0.48876 0.72819 0.09592
 C1941 C 0.50622 0.73191 0.10970
 N1942 N 0.52196 0.71586 0.11148
 C1943 C 0.50052 0.67235 0.07536
 C1944 C 0.49892 0.65426 0.06685
 C1945 C 0.49757 0.63232 0.05752
 N1946 N 0.48801 0.62886 0.03749
 N1947 N 0.48720 0.60845 0.02884
 C1948 C 0.49589 0.59083 0.03995
 N1949 N 0.50536 0.59439 0.06002
 N1950 N 0.50617 0.61477 0.06866
 N1951 N 0.01991 0.19628 0.59994
 C1952 C 0.00348 0.19173 0.58534
 N1953 N -0.01301 0.20669 0.58252
 N1954 N -0.01326 0.22549 0.59421
 C1955 C 0.00294 0.23002 0.60922
 N1956 N 0.01966 0.21508 0.61164
 C1957 C 0.00247 0.17044 0.57464
 C1958 C 0.00133 0.15217 0.56647
 C1959 C -0.00013 0.13007 0.55759
 N1960 N -0.00965 0.12634 0.53760
 N1961 N -0.01112 0.10571 0.52956
 C1962 C -0.00320 0.08814 0.54130
 N1963 N 0.00626 0.09196 0.56133
 N1964 N 0.00773 0.11257 0.56936
 N1965 N 0.51846 0.19971 0.40149
 C1966 C 0.50002 0.19257 0.41268
 N1967 N 0.48140 0.20520 0.41230
 N1968 N 0.48118 0.22429 0.40085
 C1969 C 0.49954 0.23135 0.38922
 N1970 N 0.51824 0.21874 0.39005
 C1971 C 0.50001 0.17123 0.42355
 C1972 C 0.50047 0.15294 0.43191
 C1973 C 0.50126 0.13087 0.44116
 N1974 N 0.49248 0.11340 0.42992
 N1975 N 0.49333 0.09285 0.43833
 C1976 C 0.50310 0.08905 0.45822
 N1977 N 0.51197 0.10658 0.46941
 N1978 N 0.51111 0.12715 0.46099
 N1979 N 0.02182 0.70095 0.90032
 C1980 C 0.00371 0.69411 0.91222
 N1981 N -0.01465 0.70710 0.91269
 N1982 N -0.01495 0.72628 0.90138
 C1983 C 0.00307 0.73306 0.88907
 N1984 N 0.02152 0.72007 0.88902
 C1985 C 0.00367 0.67271 0.92298
 C1986 C 0.00394 0.65440 0.93129
 C1987 C 0.00437 0.63231 0.94053
 N1988 N -0.00464 0.61499 0.92924
 N1989 N -0.00426 0.59443 0.93770
 C1990 C 0.00523 0.59048 0.95770
 N1991 N 0.01432 0.60787 0.96893
 N1992 N 0.01394 0.62844 0.96046
 N1993 N 0.23048 0.66567 0.95272
 C1994 C 0.24586 0.66351 0.93619
 N1995 N 0.26323 0.64962 0.93918
 N1996 N 0.26509 0.63810 0.95801
 C1997 C 0.24972 0.64006 0.97467
 N1998 N 0.23236 0.65414 0.97161
 C1999 C 0.24331 0.67462 0.91519
 C2000 C 0.24184 0.68305 0.89704
 C2001 C 0.24095 0.69218 0.87496
 N2002 N 0.24933 0.68046 0.85760
 N2003 N 0.24940 0.68905 0.83714
 C2004 C 0.24107 0.70966 0.83331
 N2005 N 0.23257 0.72133 0.85072
 N2006 N 0.23251 0.71273 0.87122
 N2007 N 0.76313 0.14875 0.44313
 C2008 C 0.74577 0.16259 0.43989
 N2009 N 0.73030 0.16491 0.45632
 N2010 N 0.73207 0.15355 0.47533
 C2011 C 0.74940 0.13949 0.47864
 N2012 N 0.76488 0.13739 0.46208
 C2013 C 0.74325 0.17346 0.41872
 C2014 C 0.74166 0.18174 0.40048
 C2015 C 0.74049 0.19078 0.37835
 N2016 N 0.73168 0.21118 0.37462
 N2017 N 0.73138 0.21971 0.35410
 C2018 C 0.73986 0.20811 0.33662
 N2019 N 0.74855 0.18765 0.34043
 N2020 N 0.74884 0.17914 0.36093
 N2021 N 0.23420 0.34912 0.44437
 C2022 C 0.25168 0.33529 0.44141
 N2023 N 0.26700 0.33353 0.45770
 N2024 N 0.26492 0.34535 0.47633
 C2025 C 0.24742 0.35934 0.47938
 N2026 N 0.23214 0.36093 0.46295
 C2027 C 0.25434 0.32369 0.42073
 C2028 C 0.25592 0.31480 0.40284
 C2029 C 0.25692 0.30518 0.38103
 N2030 N 0.26519 0.28446 0.37778
 N2031 N 0.26528 0.27545 0.35753
 C2032 C 0.25711 0.28688 0.33989
 N2033 N 0.24896 0.30765 0.34324
 N2034 N 0.24889 0.31663 0.36344
 N2035 N 0.73560 0.84950 0.94694
 C2036 C 0.75133 0.83359 0.94491
 N2037 N 0.76559 0.83019 0.96186
 N2038 N 0.76423 0.84248 0.98024
 C2039 C 0.74854 0.85860 0.98237
 N2040 N 0.73427 0.86179 0.96527
 C2041 C 0.75374 0.82181 0.92433
 C2042 C 0.75534 0.81298 0.90642
 C2043 C 0.75656 0.80367 0.88452
 N2044 N 0.76525 0.78317 0.88100
 N2045 N 0.76580 0.77457 0.86058
 C2046 C 0.75771 0.78623 0.84304
 N2047 N 0.74914 0.80677 0.84668
 N2048 N 0.74860 0.81534 0.86705
 N2049 N 0.73248 0.85276 0.05857
 C2050 C 0.74916 0.83850 0.06309
 N2051 N 0.76570 0.83568 0.04782
 N2052 N 0.76548 0.84679 0.02855
 C2053 C 0.74869 0.86109 0.02383
 N2054 N 0.73227 0.86384 0.03936
 C2055 C 0.74949 0.82720 0.08418
 C2056 C 0.74931 0.81838 0.10223
 C2057 C 0.74886 0.80857 0.12405
 N2058 N 0.73954 0.78815 0.12761
 N2059 N 0.73898 0.77925 0.14797
 C2060 C 0.74762 0.79053 0.16546
 N2061 N 0.75686 0.81100 0.16182
 N2062 N 0.75742 0.81988 0.14148
 N2063 N 0.24185 0.36043 0.56013
 C2064 C 0.24186 0.33787 0.56026
 N2065 N 0.24336 0.32683 0.54066
 N2066 N 0.24480 0.33808 0.52150
 C2067 C 0.24492 0.36078 0.52130
 N2068 N 0.24330 0.37166 0.54103
 C2069 C 0.24076 0.32612 0.58107
 C2070 C 0.24015 0.31731 0.59913
 C2071 C 0.23994 0.30793 0.62111
 N2072 N 0.24846 0.31977 0.63822
 N2073 N 0.24868 0.31115 0.65865
 C2074 C 0.24034 0.29039 0.66271
 N2075 N 0.23172 0.27858 0.64555
 N2076 N 0.23151 0.28721 0.62508
 N2077 N 0.75215 0.13764 0.55957
 C2078 C 0.75326 0.16018 0.55973
 N2079 N 0.75288 0.17147 0.54012
 N2080 N 0.75151 0.16048 0.52093
 C2081 C 0.75035 0.13780 0.52071
 N2082 N 0.75078 0.12668 0.54046
 C2083 C 0.75483 0.17163 0.58058
 C2084 C 0.75598 0.18016 0.59866
 C2085 C 0.75696 0.18930 0.62066
 N2086 N 0.76656 0.20950 0.62431
 N2087 N 0.76707 0.21794 0.64477
 C2088 C 0.75808 0.20644 0.66228
 N2089 N 0.74859 0.18618 0.65856
 N2090 N 0.74808 0.17775 0.63812
 N2091 N 0.25379 0.63857 0.05544
 C2092 C 0.25501 0.66110 0.05543
 N2093 N 0.25433 0.67229 0.03579
 N2094 N 0.25257 0.66119 0.01670
 C2095 C 0.25131 0.63852 0.01664
 N2096 N 0.25204 0.62750 0.03643
 C2097 C 0.25699 0.67265 0.07616
 C2098 C 0.25844 0.68119 0.09419
 C2099 C 0.25971 0.69021 0.11619
 N2100 N 0.26932 0.71039 0.11984
 N2101 N 0.27006 0.71871 0.14035
 C2102 C 0.26127 0.70707 0.15787
 N2103 N 0.25178 0.68682 0.15413
 N2104 N 0.25105 0.67852 0.13365
 N2105 N 0.14928 0.55426 0.73077
 C2106 C 0.16140 0.55935 0.74894
 N2107 N 0.16212 0.54453 0.76600
 N2108 N 0.15076 0.52536 0.76504
 C2109 C 0.13823 0.52031 0.74701
 N2110 N 0.13792 0.53511 0.72981
 C2111 C 0.17210 0.58079 0.75062
 C2112 C 0.18042 0.59912 0.75182
 C2113 C 0.18978 0.62122 0.75285
 N2114 N 0.21005 0.62483 0.76193
 N2115 N 0.21890 0.64530 0.76228
 C2116 C 0.20774 0.66286 0.75360
 N2117 N 0.18738 0.65918 0.74463
 N2118 N 0.17855 0.63872 0.74429
 N2119 N 0.64961 0.05152 0.23284
 C2120 C 0.66124 0.05676 0.25129
 N2121 N 0.66152 0.04210 0.26850
 N2122 N 0.65025 0.02289 0.26739
 C2123 C 0.63821 0.01768 0.24906
 N2124 N 0.63833 0.03234 0.23173
 C2125 C 0.67186 0.07820 0.25306
 C2126 C 0.68012 0.09654 0.25429
 C2127 C 0.68932 0.11867 0.25531
 N2128 N 0.70944 0.12246 0.26466
 N2129 N 0.71813 0.14299 0.26502
 C2130 C 0.70696 0.16041 0.25609
 N2131 N 0.68677 0.15654 0.24685
 N2132 N 0.67809 0.13603 0.24649
 N2133 N 0.86104 0.05905 0.75187
 C2134 C 0.83853 0.05841 0.75098
 N2135 N 0.82782 0.03839 0.75198
 N2136 N 0.83937 0.01956 0.75369
 C2137 C 0.86202 0.02014 0.75460
 N2138 N 0.87255 0.04031 0.75358
 C2139 C 0.82651 0.07888 0.74893
 C2140 C 0.81759 0.09673 0.74736
 C2141 C 0.80819 0.11861 0.74589
 N2142 N 0.78792 0.12182 0.73675
 N2143 N 0.77931 0.14222 0.73577
 C2144 C 0.79074 0.16006 0.74382
 N2145 N 0.81106 0.15674 0.75284
 N2146 N 0.81965 0.13639 0.75382
 N2147 N 0.35179 0.55331 0.26308
 C2148 C 0.33852 0.55655 0.24534
 N2149 N 0.33651 0.54015 0.23003
 N2150 N 0.34763 0.52116 0.23233
 C2151 C 0.36114 0.51786 0.25004
 N2152 N 0.36291 0.53438 0.26536
 C2153 C 0.32796 0.57769 0.24230
 C2154 C 0.31994 0.59594 0.24038
 C2155 C 0.31117 0.61806 0.23891
 N2156 N 0.29089 0.62174 0.23000
 N2157 N 0.28253 0.64225 0.22954
 C2158 C 0.29419 0.65975 0.23797
 N2159 N 0.31454 0.65600 0.24676
 N2160 N 0.32289 0.63551 0.24721
 N2161 N 0.32829 0.45632 0.25365
 C2162 C 0.33926 0.43668 0.25486
 N2163 N 0.36180 0.43683 0.25459
 N2164 N 0.37308 0.45598 0.25321
 C2165 C 0.36228 0.47576 0.25193
 N2166 N 0.33960 0.47554 0.25227
 C2167 C 0.32744 0.41581 0.25630
 C2168 C 0.31854 0.39774 0.25735
 C2169 C 0.30893 0.37575 0.25823
 N2170 N 0.32023 0.35832 0.24954
 N2171 N 0.31138 0.33788 0.25001
 C2172 C 0.29093 0.33415 0.25928
 N2173 N 0.27968 0.35164 0.26808
 N2174 N 0.28855 0.37211 0.26760
 N2175 N 0.83628 0.95485 0.77573
 C2176 C 0.83881 0.93872 0.76019
 N2177 N 0.85268 0.94250 0.74264
 N2178 N 0.86383 0.96170 0.74072
 C2179 C 0.86149 0.97798 0.75623
 N2180 N 0.84744 0.97412 0.77380
 C2181 C 0.82791 0.91741 0.76262
 C2182 C 0.81953 0.89908 0.76393
 C2183 C 0.81029 0.87691 0.76462
 N2184 N 0.82181 0.85977 0.75563
 N2185 N 0.81304 0.83928 0.75538
 C2186 C 0.79243 0.83522 0.76415
 N2187 N 0.78097 0.85242 0.77326
 N2188 N 0.78975 0.87292 0.77349
 N2189 N 0.64001 0.93689 0.25023
 C2190 C 0.66248 0.93801 0.24837
 N2191 N 0.67268 0.95827 0.24724
 N2192 N 0.66067 0.97686 0.24784
 C2193 C 0.63805 0.97583 0.24969
 N2194 N 0.62803 0.95542 0.25082
 C2195 C 0.67503 0.91779 0.24735
 C2196 C 0.68445 0.90015 0.24664
 C2197 C 0.69440 0.87850 0.24622
 N2198 N 0.71497 0.87541 0.23723
 N2199 N 0.72399 0.85517 0.23707
 C2200 C 0.71269 0.83738 0.24583
 N2201 N 0.69209 0.84059 0.25473
 N2202 N 0.68309 0.86078 0.25488
 N2203 N 0.17153 0.45997 0.74454
 C2204 C 0.16087 0.43994 0.74595
 N2205 N 0.13844 0.43936 0.74832
 N2206 N 0.12693 0.45818 0.74913
 C2207 C 0.13740 0.47836 0.74773
 N2208 N 0.15999 0.47886 0.74537
 C2209 C 0.17285 0.41939 0.74464
 C2210 C 0.18172 0.40147 0.74369
 C2211 C 0.19110 0.37957 0.74295
 N2212 N 0.17957 0.36204 0.75176
 N2213 N 0.18814 0.34165 0.75139
 C2214 C 0.20851 0.33806 0.74211
 N2215 N 0.21999 0.35565 0.73318
 N2216 N 0.21141 0.37607 0.73355
 N2217 N 0.04256 0.73757 0.83028
 C2218 C 0.05993 0.75167 0.83376
 N2219 N 0.05817 0.76734 0.84981
 N2220 N 0.03969 0.76875 0.86216
 C2221 C 0.02217 0.75464 0.85889
 N2222 N 0.02404 0.73901 0.84264
 C2223 C 0.08063 0.74911 0.82192
 C2224 C 0.09859 0.74728 0.81297
 C2225 C 0.12054 0.74571 0.80344
 N2226 N 0.13825 0.75373 0.81475
 N2227 N 0.15867 0.75285 0.80595
 C2228 C 0.16213 0.74386 0.78554
 N2229 N 0.14436 0.73571 0.77426
 N2230 N 0.12389 0.73660 0.78308
 N2231 N 0.55537 0.26520 0.35084
 C2232 C 0.55755 0.24920 0.33518
 N2233 N 0.54027 0.23504 0.33151
 N2234 N 0.52144 0.23670 0.34334
 C2235 C 0.51917 0.25264 0.35924
 N2236 N 0.53659 0.26684 0.36267
 C2237 C 0.57855 0.24639 0.32401
 C2238 C 0.59675 0.24441 0.31562
 C2239 C 0.61888 0.24270 0.30661
 N2240 N 0.62255 0.23377 0.28623
 N2241 N 0.64314 0.23294 0.27775
 C2242 C 0.66073 0.24096 0.28939
 N2243 N 0.65697 0.24976 0.30984
 N2244 N 0.63640 0.25058 0.31831
 N2245 N 0.54603 0.75431 0.17243
 C2246 C 0.56606 0.75540 0.16177
 N2247 N 0.56674 0.75528 0.13926
 N2248 N 0.54800 0.75416 0.12772
 C2249 C 0.52783 0.75299 0.13822
 N2250 N 0.52723 0.75319 0.16086
 C2251 C 0.58648 0.75652 0.17390
 C2252 C 0.60420 0.75724 0.18311
 C2253 C 0.62582 0.75767 0.19303
 N2254 N 0.64355 0.74935 0.18176
 N2255 N 0.66366 0.74937 0.19086
 C2256 C 0.66677 0.75778 0.21153
 N2257 N 0.64898 0.76621 0.22276
 N2258 N 0.62884 0.76618 0.21364
 N2259 N 0.05600 0.26871 0.64638
 C2260 C 0.05944 0.25386 0.66296
 N2261 N 0.04365 0.23809 0.66747
 N2262 N 0.02498 0.23722 0.65570
 C2263 C 0.02142 0.25212 0.63901
 N2264 N 0.03739 0.26785 0.63462
 C2265 C 0.08018 0.25415 0.67454
 C2266 C 0.09809 0.25455 0.68337
 C2267 C 0.11985 0.25497 0.69294
 N2268 N 0.13727 0.24589 0.68181
 N2269 N 0.15758 0.24632 0.69046
 C2270 C 0.16119 0.25593 0.71052
 N2271 N 0.14370 0.26508 0.72162
 N2272 N 0.12336 0.26465 0.71294
 N2273 N 0.95593 0.26148 0.66657
 C2274 C 0.94213 0.24366 0.66404
 N2275 N 0.94771 0.22762 0.64931
 N2276 N 0.96638 0.22943 0.63726
 C2277 C 0.98015 0.24745 0.63931
 N2278 N 0.97465 0.26328 0.65450
 C2279 C 0.92099 0.24257 0.67537
 C2280 C 0.90275 0.24169 0.68393
 C2281 C 0.88061 0.24092 0.69315
 N2282 N 0.86344 0.24928 0.68142
 N2283 N 0.84284 0.24886 0.68987
 C2284 C 0.83868 0.23998 0.71033
 N2285 N 0.85591 0.23152 0.72203
 N2286 N 0.87654 0.23194 0.71355
 N2287 N 0.46253 0.73144 0.16363
 C2288 C 0.44644 0.74698 0.16143
 N2289 N 0.45029 0.76484 0.14803
 N2290 N 0.46954 0.76701 0.13698
 C2291 C 0.48576 0.75147 0.13895
 N2292 N 0.48182 0.73363 0.15258
 C2293 C 0.42503 0.74407 0.17197
 C2294 C 0.40661 0.74221 0.18002
 C2295 C 0.38432 0.74075 0.18885
 N2296 N 0.36718 0.74919 0.17713
 N2297 N 0.34654 0.74869 0.18550
 C2298 C 0.34232 0.73968 0.20590
 N2299 N 0.35951 0.73110 0.21756
 N2300 N 0.38018 0.73162 0.20918
 N2301 N 0.44315 0.26817 0.35308
 C2302 C 0.43852 0.25121 0.33909
 N2303 N 0.45359 0.23469 0.33640
 N2304 N 0.47275 0.23520 0.34741
 C2305 C 0.47755 0.25227 0.36147
 N2306 N 0.46224 0.26867 0.36405
 C2307 C 0.41749 0.25057 0.32803
 C2308 C 0.39943 0.25066 0.31950
 C2309 C 0.37760 0.25115 0.31009
 N2310 N 0.37428 0.26050 0.28983
 N2311 N 0.35390 0.26117 0.28132
 C2312 C 0.33615 0.25264 0.29285
 N2313 N 0.33954 0.24337 0.31316
 N2314 N 0.35991 0.24270 0.32166
 N2315 N 0.95604 0.73619 0.83756
 C2316 C 0.94096 0.75263 0.84056
 N2317 N 0.94590 0.76973 0.85429
 N2318 N 0.96527 0.77038 0.86475
 C2319 C 0.98058 0.75403 0.86187
 N2320 N 0.97550 0.73686 0.84805
 C2321 C 0.91966 0.75183 0.83005
 C2322 C 0.90144 0.75182 0.82188
 C2323 C 0.87951 0.75226 0.81270
 N2324 N 0.87597 0.76201 0.79269
 N2325 N 0.85554 0.76264 0.78432
 C2326 C 0.83794 0.75366 0.79574
 N2327 N 0.84155 0.74399 0.81583
 N2328 N 0.86198 0.74336 0.82419
   
