data_POSCAR
  _audit_creation_date              2014-09-24
  _audit_creation_method            'ToBaCCo'
  _symmetry_space_group_name_H-M    'P1'
  _symmetry_Int_Tables_number       1
  _symmetry_cell_setting            triclinic
  loop_
  _symmetry_equiv_pos_as_xyz
 x,y,z
_cell_length_a 74.0842
_cell_length_b 74.0308
_cell_length_c 42.4722
_cell_angle_alpha 90.140800
_cell_angle_beta 90.001600
_cell_angle_gamma 91.619400
loop_
  _atom_site_label
  _atom_site_type_symbol
  _atom_site_fract_x
  _atom_site_fract_y
  _atom_site_fract_z
C1 C -0.00160 0.26542 -0.01672
 C2 C -0.00172 0.26545 0.01536
 C3 C -0.01879 0.26625 0.03363
 C4 C 0.01525 0.26413 0.03361
 C5 C 0.01555 0.26615 -0.03483
 C6 C -0.01858 0.26413 -0.03515
 C7 C -0.03117 0.27983 0.02819
 C8 C -0.04747 0.28007 0.04470
 C9 C -0.05194 0.26679 0.06772
 C10 C -0.03888 0.25350 0.07347
 C11 C -0.02266 0.25330 0.05674
 C12 C 0.02052 0.27801 0.05445
 C13 C 0.03677 0.27710 0.07099
 C14 C 0.04783 0.26212 0.06738
 C15 C 0.04229 0.24803 0.04702
 C16 C 0.02615 0.24905 0.03022
 C17 C 0.01911 0.25262 -0.05694
 C18 C 0.03550 0.25275 -0.07320
 C19 C 0.04861 0.26653 -0.06782
 C20 C 0.04480 0.28033 -0.04620
 C21 C 0.02840 0.28018 -0.02996
 C22 C -0.03054 0.24923 -0.03165
 C23 C -0.04665 0.24825 -0.04873
 C24 C -0.05109 0.26220 -0.06947
 C25 C -0.03899 0.27700 -0.07319
 C26 C -0.02277 0.27786 -0.05637
 H27 H -0.02816 0.29036 0.01117
 H28 H -0.05600 0.29135 0.04002
 H29 H -0.04131 0.24238 0.08945
 H30 H -0.01329 0.24263 0.06125
 H31 H 0.01219 0.28968 0.05745
 H32 H 0.04065 0.28803 0.08680
 H33 H 0.02217 0.23813 0.01445
 H34 H 0.00935 0.24169 -0.06105
 H35 H 0.03809 0.24183 -0.08942
 H36 H 0.05448 0.29131 -0.04197
 H37 H 0.02574 0.29096 -0.01346
 H38 H -0.02739 0.23841 -0.01560
 H39 H -0.05580 0.23675 -0.04534
 H40 H -0.04202 0.28782 -0.08930
 H41 H -0.01363 0.28940 -0.05948
 H42 H 0.05062 0.23639 0.04370
 C43 C 0.50055 0.76616 0.48281
 C44 C 0.50026 0.76615 0.51488
 C45 C 0.48308 0.76706 0.53276
 C46 C 0.51710 0.76472 0.53347
 C47 C 0.51778 0.76687 0.46495
 C48 C 0.48364 0.76496 0.46417
 C49 C 0.47109 0.78109 0.52756
 C50 C 0.45463 0.78141 0.54361
 C51 C 0.44994 0.76779 0.56539
 C52 C 0.46220 0.75400 0.57108
 C53 C 0.47864 0.75369 0.55500
 C54 C 0.52224 0.77851 0.55460
 C55 C 0.53840 0.77753 0.57141
 C56 C 0.54949 0.76258 0.56778
 C57 C 0.54408 0.74858 0.54716
 C58 C 0.52803 0.74966 0.53009
 C59 C 0.52135 0.75343 0.44268
 C60 C 0.53779 0.75358 0.42656
 C61 C 0.55093 0.76728 0.43224
 C62 C 0.54712 0.78099 0.45404
 C63 C 0.53067 0.78083 0.47014
 C64 C 0.47167 0.75004 0.46736
 C65 C 0.45562 0.74913 0.45009
 C66 C 0.45125 0.76316 0.42947
 C67 C 0.46336 0.77799 0.42608
 C68 C 0.47951 0.77879 0.44308
 H69 H 0.47444 0.79175 0.51097
 H70 H 0.44563 0.79238 0.53914
 H71 H 0.45891 0.74321 0.58743
 H72 H 0.48773 0.74277 0.55936
 H73 H 0.51389 0.79016 0.55760
 H74 H 0.54218 0.78840 0.58742
 H75 H 0.52415 0.73881 0.51410
 H76 H 0.51156 0.74256 0.43831
 H77 H 0.54038 0.74272 0.41019
 H78 H 0.55682 0.79191 0.45850
 H79 H 0.52801 0.79154 0.48677
 H80 H 0.47476 0.73916 0.48330
 H81 H 0.44647 0.73761 0.45324
 H82 H 0.46039 0.78887 0.41008
 H83 H 0.48867 0.79033 0.44023
 H84 H 0.55244 0.73696 0.54383
 C85 C 0.99973 0.73591 -0.01632
 C86 C 0.99988 0.73461 0.01571
 C87 C 1.01689 0.73284 0.03381
 C88 C 0.98296 0.73550 0.03427
 C89 C 0.98247 0.73562 -0.03417
 C90 C 1.01671 0.73782 -0.03489
 C91 C 1.02901 0.71915 0.02679
 C92 C 1.04535 0.71818 0.04306
 C93 C 1.04980 0.73077 0.06688
 C94 C 1.03739 0.74414 0.07440
 C95 C 1.02108 0.74511 0.05812
 C96 C 0.97775 0.72113 0.05401
 C97 C 0.96167 0.72175 0.07114
 C98 C 0.95073 0.73692 0.06920
 C99 C 0.95618 0.75145 0.04986
 C100 C 0.97216 0.75073 0.03250
 C101 C 0.97863 0.74979 -0.05475
 C102 C 0.96216 0.74993 -0.07078
 C103 C 0.94926 0.73582 -0.06669
 C104 C 0.95335 0.72142 -0.04661
 C105 C 0.96982 0.72128 -0.03063
 C106 C 1.02995 0.75098 -0.02711
 C107 C 1.04620 0.75211 -0.04375
 C108 C 1.04953 0.74038 -0.06929
 C109 C 1.03570 0.72772 -0.07775
 C110 C 1.01958 0.72646 -0.06071
 H111 H 1.02586 0.70933 0.00850
 H112 H 1.05449 0.70753 0.03710
 H113 H 1.04049 0.75418 0.09233
 H114 H 1.01190 0.75576 0.06392
 H115 H 0.98601 0.70933 0.05579
 H116 H 0.95786 0.71047 0.08614
 H117 H 0.97611 0.76203 0.01764
 H118 H 0.98825 0.76094 -0.05785
 H119 H 0.95936 0.76130 -0.08583
 H120 H 0.94385 0.71019 -0.04344
 H121 H 0.97270 0.71003 -0.01536
 H122 H 1.02774 0.76038 -0.00801
 H123 H 1.05581 0.76269 -0.03705
 H124 H 1.03753 0.71802 -0.09647
 H125 H 1.00950 0.71624 -0.06722
 H126 H 0.94794 0.76324 0.04783
 C127 C 0.49783 0.23551 0.48337
 C128 C 0.49783 0.23456 0.51543
 C129 C 0.51477 0.23295 0.53379
 C130 C 0.48083 0.23559 0.53372
 C131 C 0.48066 0.23504 0.46527
 C132 C 0.51487 0.23719 0.46499
 C133 C 0.52686 0.21915 0.52735
 C134 C 0.54314 0.21830 0.54385
 C135 C 0.54754 0.23113 0.56730
 C136 C 0.53515 0.24462 0.57424
 C137 C 0.51890 0.24547 0.55774
 C138 C 0.47551 0.22138 0.55373
 C139 C 0.45932 0.22211 0.57049
 C140 C 0.44835 0.23722 0.56793
 C141 C 0.45391 0.25160 0.54835
 C142 C 0.47000 0.25078 0.53134
 C143 C 0.47692 0.24903 0.44427
 C144 C 0.46051 0.24904 0.42803
 C145 C 0.44759 0.23497 0.43233
 C146 C 0.45160 0.22074 0.45283
 C147 C 0.46800 0.22074 0.46903
 C148 C 0.52799 0.25064 0.47224
 C149 C 0.54426 0.25164 0.45564
 C150 C 0.54757 0.23946 0.43103
 C151 C 0.53417 0.22642 0.42306
 C152 C 0.51797 0.22531 0.43990
 H153 H 0.52375 0.20914 0.50937
 H154 H 0.55225 0.20756 0.53835
 H155 H 0.53822 0.25483 0.59189
 H156 H 0.50974 0.25620 0.56308
 H157 H 0.48378 0.20962 0.55596
 H158 H 0.45543 0.21094 0.58570
 H159 H 0.47402 0.26197 0.51625
 H160 H 0.48654 0.26015 0.44101
 H161 H 0.45777 0.26028 0.41266
 H162 H 0.44208 0.20953 0.45617
 H163 H 0.47081 0.20962 0.48464
 H164 H 0.52567 0.26029 0.49092
 H165 H 0.55422 0.26203 0.46189
 H166 H 0.53642 0.21681 0.40430
 H167 H 0.50799 0.21492 0.43376
 H168 H 0.44565 0.26335 0.54584
 C169 C 0.73607 -0.00076 -0.01429
 C170 C 0.73726 -0.00098 0.01778
 C171 C 0.73928 -0.01800 0.03583
 C172 C 0.73662 0.01598 0.03632
 C173 C 0.73662 0.01651 -0.03219
 C174 C 0.73450 -0.01773 -0.03302
 C175 C 0.72801 -0.02176 0.06161
 C176 C 0.72946 -0.03786 0.07836
 C177 C 0.74223 -0.05081 0.06969
 C178 C 0.75381 -0.04664 0.04410
 C179 C 0.75250 -0.03039 0.02775
 C180 C 0.72119 0.02654 0.03580
 C181 C 0.72099 0.04291 0.05225
 C182 C 0.73632 0.04904 0.06900
 C183 C 0.75165 0.03832 0.06986
 C184 C 0.75170 0.02177 0.05399
 C185 C 0.75058 0.02939 -0.02739
 C186 C 0.75082 0.04574 -0.04370
 C187 C 0.73733 0.04952 -0.06608
 C188 C 0.72371 0.03611 -0.07157
 C189 C 0.72335 0.01990 -0.05475
 C190 C 0.74666 -0.02076 -0.05755
 C191 C 0.74591 -0.03697 -0.07444
 C192 C 0.73287 -0.05069 -0.06735
 C193 C 0.72032 -0.04717 -0.04312
 C194 C 0.72108 -0.03089 -0.02639
 H195 H 0.71773 -0.01237 0.06835
 H196 H 0.71984 -0.04039 0.09709
 H197 H 0.76444 -0.05556 0.03721
 H198 H 0.76183 -0.02748 0.00867
 H199 H 0.70941 0.02217 0.02241
 H200 H 0.70907 0.05103 0.05127
 H201 H 0.76368 0.01373 0.05467
 H202 H 0.76143 0.02675 -0.01110
 H203 H 0.76211 0.05501 -0.03952
 H204 H 0.71272 0.03833 -0.08774
 H205 H 0.71250 0.01008 -0.05897
 H206 H 0.75714 -0.01076 -0.06302
 H207 H 0.75630 -0.03890 -0.09190
 H208 H 0.70946 -0.05666 -0.03745
 H209 H 0.71122 -0.02858 -0.00809
 H210 H 0.76356 0.04279 0.08281
 C211 C 0.23446 0.49927 0.48371
 C212 C 0.23449 0.49918 0.51585
 C213 C 0.23593 0.48213 0.53401
 C214 C 0.23328 0.51617 0.53434
 C215 C 0.23592 0.51639 0.46551
 C216 C 0.23323 0.48220 0.46523
 C217 C 0.22347 0.47802 0.55801
 C218 C 0.22444 0.46182 0.57467
 C219 C 0.23790 0.44944 0.56760
 C220 C 0.25062 0.45376 0.54407
 C221 C 0.24977 0.47004 0.52767
 C222 C 0.21920 0.52812 0.52913
 C223 C 0.21866 0.54445 0.54563
 C224 C 0.23209 0.54906 0.56789
 C225 C 0.24586 0.53680 0.57368
 C226 C 0.24640 0.52049 0.55715
 C227 C 0.24976 0.52925 0.47180
 C228 C 0.25069 0.54552 0.45524
 C229 C 0.23803 0.54908 0.43159
 C230 C 0.22454 0.53596 0.42460
 C231 C 0.22349 0.51976 0.44142
 C232 C 0.24636 0.47859 0.44246
 C233 C 0.24582 0.46223 0.42599
 C234 C 0.23203 0.44921 0.43180
 C235 C 0.21860 0.45309 0.45403
 C236 C 0.21915 0.46946 0.47047
 H237 H 0.21278 0.48721 0.56343
 H238 H 0.21443 0.45877 0.59261
 H239 H 0.26133 0.44461 0.53856
 H240 H 0.25984 0.47317 0.50988
 H241 H 0.20874 0.52486 0.51207
 H242 H 0.20769 0.55344 0.54107
 H243 H 0.25734 0.51143 0.56156
 H244 H 0.25981 0.52671 0.48966
 H245 H 0.26142 0.55527 0.46070
 H246 H 0.21456 0.53840 0.40659
 H247 H 0.21279 0.50997 0.43603
 H248 H 0.25730 0.48826 0.43804
 H249 H 0.25646 0.45958 0.40927
 H250 H 0.20763 0.44348 0.45860
 H251 H 0.20868 0.47216 0.48751
 H252 H 0.25650 0.54003 0.59041
 C253 C 0.26768 1.00026 -0.01666
 C254 C 0.26769 0.99998 0.01539
 C255 C 0.26605 1.01680 0.03400
 C256 C 0.26857 0.98279 0.03321
 C257 C 0.26648 0.98330 -0.03525
 C258 C 0.26803 1.01748 -0.03456
 C259 C 0.28004 1.02253 0.05408
 C260 C 0.27889 1.03875 0.07077
 C261 C 0.26345 1.04947 0.06835
 C262 C 0.24923 1.04320 0.04861
 C263 C 0.25058 1.02714 0.03156
 C264 C 0.28264 0.97083 0.02808
 C265 C 0.28292 0.95435 0.04404
 C266 C 0.26922 0.94961 0.06565
 C267 C 0.25539 0.96184 0.07126
 C268 C 0.25511 0.97830 0.05527
 C269 C 0.25126 0.97175 -0.03292
 C270 C 0.25020 0.95572 -0.05031
 C271 C 0.26450 0.95070 -0.07030
 C272 C 0.27973 0.96260 -0.07246
 C273 C 0.28057 0.97877 -0.05543
 C274 C 0.25469 1.02061 -0.05706
 C275 C 0.25446 1.03698 -0.07329
 C276 C 0.26767 1.05078 -0.06755
 C277 C 0.28131 1.04721 -0.04527
 C278 C 0.28152 1.03077 -0.02921
 H279 H 0.29200 1.01455 0.05647
 H280 H 0.28993 1.04241 0.08640
 H281 H 0.23730 1.05102 0.04493
 H282 H 0.23962 1.02284 0.01616
 H283 H 0.29336 0.97422 0.01162
 H284 H 0.29393 0.94537 0.03963
 H285 H 0.24414 0.98735 0.05957
 H286 H 0.24022 0.97512 -0.01745
 H287 H 0.23845 0.94697 -0.04678
 H288 H 0.29080 0.95989 -0.08822
 H289 H 0.29234 0.98769 -0.05773
 H290 H 0.24410 1.01053 -0.06147
 H291 H 0.24328 1.03895 -0.08914
 H292 H 0.29232 1.05677 -0.04077
 H293 H 0.29228 1.02840 -0.01258
 H294 H 0.24453 0.95851 0.08748
 C295 C 0.76723 0.49993 0.48584
 C296 C 0.76728 0.49964 0.51790
 C297 C 0.76588 0.51650 0.53654
 C298 C 0.76808 0.48244 0.53571
 C299 C 0.76589 0.48301 0.46715
 C300 C 0.76788 0.51717 0.46802
 C301 C 0.77973 0.52173 0.55741
 C302 C 0.77880 0.53794 0.57418
 C303 C 0.76381 0.54899 0.57077
 C304 C 0.74974 0.54348 0.55042
 C305 C 0.75078 0.52738 0.53339
 C306 C 0.78198 0.47030 0.53033
 C307 C 0.78215 0.45380 0.54623
 C308 C 0.76850 0.44921 0.56805
 C309 C 0.75486 0.46161 0.57394
 C310 C 0.75470 0.47809 0.55801
 C311 C 0.75090 0.47115 0.47041
 C312 C 0.74986 0.45507 0.45315
 C313 C 0.76385 0.45056 0.43247
 C314 C 0.77875 0.46256 0.42901
 C315 C 0.77967 0.47875 0.44601
 C316 C 0.75438 0.52072 0.44593
 C317 C 0.75444 0.53718 0.42992
 C318 C 0.76810 0.55037 0.43551
 C319 C 0.78186 0.54660 0.45715
 C320 C 0.78179 0.53012 0.47314
 H321 H 0.79142 0.51341 0.56022
 H322 H 0.78972 0.54180 0.58998
 H323 H 0.73809 0.55181 0.54725
 H324 H 0.73988 0.52344 0.51759
 H325 H 0.79264 0.47358 0.51368
 H326 H 0.79301 0.44468 0.54161
 H327 H 0.74387 0.48728 0.56251
 H328 H 0.74005 0.47434 0.48641
 H329 H 0.73829 0.44600 0.45635
 H330 H 0.78960 0.45947 0.41296
 H331 H 0.79128 0.48782 0.44311
 H332 H 0.74354 0.51089 0.44163
 H333 H 0.74354 0.53974 0.41368
 H334 H 0.79275 0.55634 0.46155
 H335 H 0.79254 0.52748 0.48963
 H336 H 0.74406 0.45840 0.59033
 O337 O 0.23142 0.25703 0.21275
 O338 O 0.27552 0.25260 0.25147
 O339 O 0.25618 0.23265 0.21309
 O340 O 0.25080 0.27689 0.25124
 O341 O 0.23748 0.26349 0.29171
 O342 O 0.24252 0.21928 0.25330
 O343 O 0.26217 0.23911 0.29180
 O344 O 0.21803 0.24359 0.25313
 Cu345 Cu 0.25482 0.25613 0.22808
 Cu346 Cu 0.23873 0.24004 0.27657
 C347 C 0.21718 0.25103 0.22627
 C348 C 0.27641 0.24510 0.27827
 C349 C 0.25018 0.21841 0.22660
 C350 C 0.24325 0.27777 0.27804
 O351 O 0.75668 0.77983 0.25669
 O352 O 0.76140 0.73586 0.29582
 O353 O 0.78121 0.75543 0.25737
 O354 O 0.73685 0.76036 0.29501
 O355 O 0.72370 0.74707 0.25417
 O356 O 0.76813 0.74127 0.21730
 O357 O 0.74797 0.72226 0.25554
 O358 O 0.74409 0.76608 0.21574
 Cu359 Cu 0.76034 0.75922 0.28031
 Cu360 Cu 0.74462 0.74280 0.23167
 C361 C 0.74975 0.78045 0.22937
 C362 C 0.75546 0.72152 0.28240
 C363 C 0.78227 0.74749 0.23089
 C364 C 0.72266 0.75462 0.28098
 O365 O 0.77608 0.24725 0.24757
 O366 O 0.73167 0.24220 0.28581
 O367 O 0.75049 0.22231 0.24807
 O368 O 0.75715 0.26701 0.28522
 O369 O 0.74365 0.27965 0.24491
 O370 O 0.73868 0.23521 0.20635
 O371 O 0.71879 0.25417 0.24426
 O372 O 0.76348 0.26070 0.20720
 Cu373 Cu 0.75512 0.24339 0.27075
 Cu374 Cu 0.73986 0.25869 0.22157
 C375 C 0.77742 0.25495 0.22094
 C376 C 0.71762 0.24732 0.27162
 C377 C 0.74368 0.22116 0.22066
 C378 C 0.75133 0.28096 0.27160
 O379 O 0.26136 0.76335 0.20387
 O380 O 0.25517 0.71906 0.24251
 O381 O 0.23600 0.73823 0.20435
 O382 O 0.28059 0.74394 0.24185
 O383 O 0.26809 0.75762 0.28221
 O384 O 0.22336 0.75110 0.24537
 O385 O 0.24304 0.73239 0.28357
 O386 O 0.24849 0.77646 0.24444
 Cu387 Cu 0.25953 0.73984 0.21902
 Cu388 Cu 0.24445 0.75572 0.26794
 C389 C 0.25592 0.77749 0.21753
 C390 C 0.24820 0.71819 0.26982
 C391 C 0.22202 0.74361 0.21849
 C392 C 0.28198 0.75173 0.26846
 O393 O 0.72071 0.25087 0.74735
 O394 O 0.76548 0.25715 0.78418
 O395 O 0.74601 0.27606 0.74634
 O396 O 0.74029 0.23210 0.78573
 O397 O 0.75219 0.21858 0.74462
 O398 O 0.75885 0.26281 0.70588
 O399 O 0.77787 0.24323 0.74395
 O400 O 0.73328 0.23791 0.70635
 Cu401 Cu 0.74183 0.25539 0.76993
 Cu402 Cu 0.75680 0.23932 0.72109
 C403 C 0.71934 0.24339 0.72046
 C404 C 0.77932 0.25109 0.77050
 C405 C 0.75350 0.27701 0.71948
 C406 C 0.74529 0.21783 0.77200
 O407 O 0.27691 0.74817 0.74526
 O408 O 0.23280 0.74317 0.78456
 O409 O 0.25154 0.72309 0.74672
 O410 O 0.25819 0.76807 0.78279
 O411 O 0.24442 0.78034 0.74239
 O412 O 0.23883 0.73551 0.70544
 O413 O 0.21956 0.75492 0.74316
 O414 O 0.26388 0.76091 0.70460
 Cu415 Cu 0.25617 0.74435 0.76891
 Cu416 Cu 0.24038 0.75916 0.71976
 C417 C 0.27798 0.75549 0.71829
 C418 C 0.21863 0.74822 0.77065
 C419 C 0.24416 0.72160 0.71979
 C420 C 0.25227 0.78188 0.76890
 O421 O 0.25365 0.27964 0.75482
 O422 O 0.25903 0.23567 0.79364
 O423 O 0.27844 0.25550 0.75502
 O424 O 0.23422 0.25994 0.79339
 O425 O 0.22097 0.24658 0.75271
 O426 O 0.26529 0.24129 0.71509
 O427 O 0.24547 0.22202 0.75354
 O428 O 0.24092 0.26583 0.71407
 Cu429 Cu 0.25765 0.25905 0.77830
 Cu430 Cu 0.24181 0.24256 0.72984
 C431 C 0.24652 0.28024 0.72765
 C432 C 0.25312 0.22131 0.78026
 C433 C 0.27944 0.24762 0.72850
 C434 C 0.22000 0.25410 0.77956
 O435 O 0.73276 0.75754 0.71438
 O436 O 0.77686 0.75323 0.75313
 O437 O 0.75749 0.73316 0.71489
 O438 O 0.75210 0.77747 0.75280
 O439 O 0.73867 0.76416 0.79323
 O440 O 0.74401 0.71985 0.75532
 O441 O 0.76352 0.73992 0.79365
 O442 O 0.71938 0.74404 0.75472
 Cu443 Cu 0.75614 0.75668 0.72974
 Cu444 Cu 0.74008 0.74067 0.77832
 C445 C 0.71853 0.75148 0.72785
 C446 C 0.77776 0.74587 0.78004
 C447 C 0.75160 0.71893 0.72856
 C448 C 0.74445 0.77841 0.77950
 C449 C 0.26004 0.09948 0.11765
 C450 C 0.24438 0.08921 0.11044
 C451 C 0.24546 0.07286 0.09415
 C452 C 0.26232 0.06607 0.08503
 C453 C 0.27802 0.07642 0.09285
 C454 C 0.27686 0.09293 0.10862
 C455 C 0.25882 0.11699 0.13432
 N456 N 0.27261 0.12945 0.13300
 N457 N 0.27142 0.14530 0.14769
 C458 C 0.25644 0.14927 0.16450
 N459 N 0.24269 0.13677 0.16594
 N460 N 0.24383 0.12098 0.15107
 C461 C 0.25505 0.16690 0.18069
 C462 C 0.24256 0.16909 0.20522
 C463 C 0.24117 0.18576 0.22041
 C464 C 0.25201 0.20067 0.21103
 C465 C 0.26446 0.19851 0.18645
 C466 C 0.26607 0.18175 0.17161
 H467 H 0.23121 0.09388 0.11718
 H468 H 0.23299 0.06530 0.08990
 H469 H 0.29129 0.07230 0.08564
 H470 H 0.28919 0.10057 0.11380
 H471 H 0.23394 0.15789 0.21284
 H472 H 0.23141 0.18705 0.23921
 H473 H 0.27303 0.20975 0.17880
 H474 H 0.27577 0.18050 0.15271
 C475 C 0.76105 0.59962 0.62037
 C476 C 0.77695 0.59490 0.60465
 C477 C 0.77790 0.57836 0.58886
 C478 C 0.76292 0.56632 0.58813
 C479 C 0.74703 0.57102 0.60378
 C480 C 0.74613 0.58745 0.61990
 C481 C 0.75998 0.61719 0.63695
 N482 N 0.74642 0.62025 0.65765
 N483 N 0.74538 0.63609 0.67239
 C484 C 0.75779 0.64957 0.66693
 N485 N 0.77135 0.64652 0.64621
 N486 N 0.77244 0.63065 0.63159
 C487 C 0.75647 0.66727 0.68302
 C488 C 0.76639 0.68246 0.67212
 C489 C 0.76482 0.69924 0.68690
 C490 C 0.75346 0.70114 0.71313
 C491 C 0.74371 0.68590 0.72426
 C492 C 0.74512 0.66918 0.70926
 H493 H 0.78869 0.60395 0.60462
 H494 H 0.79026 0.57511 0.57674
 H495 H 0.73534 0.56190 0.60375
 H496 H 0.73368 0.59069 0.63172
 H497 H 0.77522 0.68146 0.65191
 H498 H 0.77254 0.71073 0.67782
 H499 H 0.73481 0.68694 0.74437
 H500 H 0.73734 0.65773 0.71832
 C501 C 0.74474 0.89892 0.11810
 C502 C 0.75011 0.90034 0.08651
 C503 C 0.74953 0.91686 0.07075
 C504 C 0.74327 0.93249 0.08597
 C505 C 0.73789 0.93087 0.11779
 C506 C 0.73875 0.91439 0.13361
 C507 C 0.74530 0.88137 0.13472
 N508 N 0.74417 0.88058 0.16662
 N509 N 0.74467 0.86480 0.18154
 C510 C 0.74621 0.84912 0.16519
 N511 N 0.74729 0.84991 0.13329
 N512 N 0.74688 0.86570 0.11838
 C513 C 0.74680 0.83156 0.18175
 C514 C 0.74411 0.81527 0.16514
 C515 C 0.74481 0.79869 0.18069
 C516 C 0.74844 0.79803 0.21314
 C517 C 0.75111 0.81432 0.22978
 C518 C 0.75018 0.83091 0.21429
 H519 H 0.75477 0.88865 0.07384
 H520 H 0.75326 0.91700 0.04613
 H521 H 0.73362 0.94243 0.13118
 H522 H 0.73459 0.91377 0.15804
 H523 H 0.74140 0.81530 0.14009
 H524 H 0.74275 0.78637 0.16721
 H525 H 0.75389 0.81425 0.25481
 H526 H 0.75235 0.84321 0.22777
 C527 C 0.23968 0.39860 0.61643
 C528 C 0.24169 0.39936 0.58353
 C529 C 0.24122 0.41588 0.56775
 C530 C 0.23857 0.43198 0.58447
 C531 C 0.23647 0.43125 0.61731
 C532 C 0.23711 0.41475 0.63315
 C533 C 0.24029 0.38108 0.63314
 N534 N 0.24156 0.38048 0.66503
 N535 N 0.24224 0.36472 0.68000
 C536 C 0.24160 0.34889 0.66373
 N537 N 0.24026 0.34950 0.63185
 N538 N 0.23965 0.36526 0.61688
 C539 C 0.24251 0.33135 0.68031
 C540 C 0.23879 0.31506 0.66418
 C541 C 0.23988 0.29850 0.67967
 C542 C 0.24487 0.29783 0.71155
 C543 C 0.24852 0.31410 0.72773
 C544 C 0.24728 0.33069 0.71232
 H545 H 0.24371 0.38720 0.56992
 H546 H 0.24269 0.41604 0.54238
 H547 H 0.23455 0.44349 0.63077
 H548 H 0.23549 0.41464 0.65848
 H549 H 0.23501 0.31508 0.63956
 H550 H 0.23700 0.28619 0.66653
 H551 H 0.25237 0.31404 0.75233
 H552 H 0.25026 0.34297 0.72542
 C553 C 0.89785 0.26564 0.11535
 C554 C 0.91272 0.25681 0.12783
 C555 C 0.92934 0.25728 0.11229
 C556 C 0.93184 0.26668 0.08346
 C557 C 0.91670 0.27579 0.07151
 C558 C 0.90008 0.27521 0.08712
 C559 C 0.88009 0.26467 0.13151
 N560 N 0.86540 0.27237 0.11864
 N561 N 0.84939 0.27120 0.13290
 C562 C 0.84739 0.26230 0.16067
 N563 N 0.86210 0.25466 0.17359
 N564 N 0.87810 0.25581 0.15931
 C565 C 0.82952 0.26073 0.17634
 C566 C 0.82765 0.25197 0.20554
 C567 C 0.81078 0.25020 0.22008
 C568 C 0.79535 0.25713 0.20575
 C569 C 0.79720 0.26598 0.17665
 C570 C 0.81409 0.26778 0.16213
 H571 H 0.91158 0.24949 0.14982
 H572 H 0.94028 0.25081 0.12420
 H573 H 0.91699 0.28263 0.04909
 H574 H 0.88886 0.28210 0.07668
 H575 H 0.83923 0.24639 0.21720
 H576 H 0.80982 0.24331 0.24251
 H577 H 0.78558 0.27148 0.16500
 H578 H 0.81502 0.27461 0.13964
 C579 C 0.39832 0.76666 0.61246
 C580 C 0.41412 0.76234 0.62882
 C581 C 0.43086 0.76289 0.61366
 C582 C 0.43222 0.76776 0.58177
 C583 C 0.41646 0.77227 0.56549
 C584 C 0.39971 0.77174 0.58065
 C585 C 0.38049 0.76560 0.62837
 N586 N 0.36522 0.77020 0.61297
 N587 N 0.34919 0.76895 0.62715
 C588 C 0.34774 0.76303 0.65731
 N589 N 0.36301 0.75847 0.67272
 N590 N 0.37904 0.75973 0.65857
 C591 C 0.32988 0.76135 0.67300
 C592 C 0.32839 0.75425 0.70359
 C593 C 0.31157 0.75240 0.71826
 C594 C 0.29581 0.75765 0.70274
 C595 C 0.29727 0.76485 0.67223
 C596 C 0.31411 0.76667 0.65751
 H597 H 0.41358 0.75846 0.65337
 H598 H 0.44279 0.75960 0.62697
 H599 H 0.41702 0.77586 0.54079
 H600 H 0.38783 0.77511 0.56730
 H601 H 0.34023 0.75001 0.71624
 H602 H 0.31092 0.74682 0.74179
 H603 H 0.28539 0.76902 0.65964
 H604 H 0.31475 0.77221 0.63396
 C605 C 0.10135 0.73106 0.11414
 C606 C 0.08543 0.73432 0.13100
 C607 C 0.06870 0.73392 0.11579
 C608 C 0.06747 0.73029 0.08335
 C609 C 0.08335 0.72676 0.06658
 C610 C 0.10009 0.72711 0.08180
 C611 C 0.11917 0.73217 0.13005
 N612 N 0.13451 0.72821 0.11425
 N613 N 0.15056 0.72961 0.12835
 C614 C 0.15197 0.73506 0.15884
 N615 N 0.13662 0.73896 0.17467
 N616 N 0.12058 0.73754 0.16059
 C617 C 0.16987 0.73696 0.17433
 C618 C 0.17143 0.74403 0.20502
 C619 C 0.18834 0.74615 0.21937
 C620 C 0.20408 0.74119 0.20344
 C621 C 0.20251 0.73400 0.17287
 C622 C 0.18562 0.73194 0.15847
 H623 H 0.08587 0.73728 0.15597
 H624 H 0.05669 0.73643 0.12947
 H625 H 0.08289 0.72416 0.04149
 H626 H 0.11206 0.72458 0.06805
 H627 H 0.15959 0.74805 0.21793
 H628 H 0.18907 0.75170 0.24297
 H629 H 0.21437 0.73005 0.15994
 H630 H 0.18493 0.72643 0.13485
 C631 C 0.59891 0.23156 0.61517
 C632 C 0.58296 0.23511 0.63174
 C633 C 0.56628 0.23469 0.61633
 C634 C 0.56515 0.23076 0.58399
 C635 C 0.58106 0.22697 0.56751
 C636 C 0.59774 0.22734 0.58292
 C637 C 0.61668 0.23261 0.63126
 N638 N 0.63202 0.22838 0.61572
 N639 N 0.64802 0.22969 0.62997
 C640 C 0.64938 0.23533 0.66036
 N641 N 0.63403 0.23951 0.67594
 N642 N 0.61803 0.23817 0.66170
 C643 C 0.66724 0.23711 0.67601
 C644 C 0.66880 0.24427 0.70663
 C645 C 0.68569 0.24627 0.72110
 C646 C 0.70141 0.24110 0.70534
 C647 C 0.69985 0.23382 0.67484
 C648 C 0.68297 0.23187 0.66033
 H649 H 0.58333 0.23829 0.65662
 H650 H 0.55424 0.23741 0.62979
 H651 H 0.58068 0.22413 0.54249
 H652 H 0.60974 0.22458 0.56939
 H653 H 0.65697 0.24847 0.71940
 H654 H 0.68643 0.25190 0.74464
 H655 H 0.71169 0.22970 0.66204
 H656 H 0.68229 0.22628 0.63677
 C657 C 0.73800 0.09973 0.88491
 C658 C 0.74543 0.09852 0.91518
 C659 C 0.74532 0.08205 0.93115
 C660 C 0.73750 0.06625 0.91754
 C661 C 0.72985 0.06768 0.88719
 C662 C 0.73026 0.08413 0.87105
 C663 C 0.73840 0.11719 0.86793
 N664 N 0.73599 0.11779 0.83624
 N665 N 0.73663 0.13350 0.82099
 C666 C 0.73958 0.14928 0.83683
 N667 N 0.74189 0.14867 0.86853
 N668 N 0.74136 0.13296 0.88374
 C669 C 0.74051 0.16676 0.81996
 C670 C 0.73885 0.18307 0.83656
 C671 C 0.74009 0.19962 0.82086
 C672 C 0.74327 0.20024 0.78827
 C673 C 0.74486 0.18394 0.77160
 C674 C 0.74336 0.16736 0.78725
 H675 H 0.75144 0.11033 0.92658
 H676 H 0.75078 0.08206 0.95477
 H677 H 0.72418 0.05599 0.87502
 H678 H 0.72445 0.08462 0.84768
 H679 H 0.73656 0.18307 0.86175
 H680 H 0.73886 0.21195 0.83437
 H681 H 0.74727 0.18400 0.74645
 H682 H 0.74475 0.15503 0.77381
 C683 C 0.24014 0.59980 0.38208
 C684 C 0.24211 0.59929 0.41499
 C685 C 0.24153 0.58281 0.43099
 C686 C 0.23880 0.56651 0.41449
 C687 C 0.23673 0.56698 0.38163
 C688 C 0.23749 0.58345 0.36557
 C689 C 0.24088 0.61728 0.36513
 N690 N 0.24212 0.61782 0.33323
 N691 N 0.24293 0.63356 0.31808
 C692 C 0.24245 0.64942 0.33417
 N693 N 0.24114 0.64887 0.36605
 N694 N 0.24040 0.63314 0.38121
 C695 C 0.24351 0.66696 0.31742
 C696 C 0.24006 0.68313 0.33346
 C697 C 0.24135 0.69971 0.31788
 C698 C 0.24627 0.70053 0.28595
 C699 C 0.24963 0.68437 0.26983
 C700 C 0.24819 0.66776 0.28535
 H701 H 0.24419 0.61161 0.42844
 H702 H 0.24297 0.58284 0.45637
 H703 H 0.23475 0.55459 0.36833
 H704 H 0.23590 0.58336 0.34022
 H705 H 0.23636 0.68301 0.35812
 H706 H 0.23870 0.71192 0.33099
 H707 H 0.25342 0.68456 0.24520
 H708 H 0.25096 0.65557 0.27230
 C709 C 0.26178 0.90110 0.87856
 C710 C 0.24598 0.91014 0.88623
 C711 C 0.24684 0.92635 0.90315
 C712 C 0.26360 0.93423 0.91246
 C713 C 0.27943 0.92512 0.90418
 C714 C 0.27850 0.90874 0.88778
 C715 C 0.26079 0.88371 0.86130
 N716 N 0.27473 0.87219 0.86225
 N717 N 0.27370 0.85639 0.84717
 C718 C 0.25875 0.85153 0.83032
 N719 N 0.24486 0.86310 0.82921
 N720 N 0.24583 0.87883 0.84447
 C721 C 0.25747 0.83387 0.81397
 C722 C 0.24492 0.83091 0.78955
 C723 C 0.24348 0.81412 0.77450
 C724 C 0.25433 0.79985 0.78392
 C725 C 0.26691 0.80281 0.80828
 C726 C 0.26857 0.81969 0.82297
 H727 H 0.23287 0.90461 0.87936
 H728 H 0.23426 0.93295 0.90772
 H729 H 0.29264 0.93011 0.91150
 H730 H 0.29093 0.90205 0.88226
 H731 H 0.23624 0.84160 0.78198
 H732 H 0.23363 0.81222 0.75586
 H733 H 0.27550 0.79207 0.81597
 H734 H 0.27832 0.82153 0.84179
 C735 C 0.76110 0.40017 0.38166
 C736 C 0.74612 0.41141 0.38265
 C737 C 0.74700 0.42775 0.39920
 C738 C 0.76295 0.43331 0.41475
 C739 C 0.77798 0.42220 0.41351
 C740 C 0.77704 0.40574 0.39731
 C741 C 0.76004 0.38269 0.36464
 N742 N 0.77257 0.36995 0.36956
 N743 N 0.77148 0.35412 0.35459
 C744 C 0.75787 0.35041 0.33392
 N745 N 0.74539 0.36319 0.32889
 N746 N 0.74643 0.37898 0.34399
 C747 C 0.75651 0.33274 0.31754
 C748 C 0.74509 0.33032 0.29135
 C749 C 0.74361 0.31357 0.27617
 C750 C 0.75335 0.29882 0.28707
 C751 C 0.76481 0.30125 0.31319
 C752 C 0.76646 0.31805 0.32815
 H753 H 0.73363 0.40750 0.37092
 H754 H 0.73527 0.43615 0.39961
 H755 H 0.79038 0.42611 0.42554
 H756 H 0.78882 0.39742 0.39694
 H757 H 0.73730 0.34138 0.28251
 H758 H 0.73464 0.31212 0.25614
 H759 H 0.77253 0.29015 0.32209
 H760 H 0.77534 0.31946 0.34830
 C761 C 0.10008 0.26488 0.88488
 C762 C 0.08400 0.26040 0.86868
 C763 C 0.06731 0.26112 0.88390
 C764 C 0.06629 0.26630 0.91570
 C765 C 0.08233 0.27093 0.93182
 C766 C 0.09902 0.27025 0.91659
 C767 C 0.11782 0.26373 0.86893
 N768 N 0.13332 0.26867 0.88415
 N769 N 0.14928 0.26741 0.86999
 C770 C 0.15044 0.26112 0.84000
 N771 N 0.13494 0.25621 0.82476
 N772 N 0.11898 0.25750 0.83891
 C773 C 0.16823 0.25950 0.82438
 C774 C 0.16947 0.25203 0.79401
 C775 C 0.18626 0.25030 0.77945
 C776 C 0.20220 0.25604 0.79489
 C777 C 0.20097 0.26359 0.82518
 C778 C 0.18419 0.26528 0.83976
 H779 H 0.08428 0.25630 0.84420
 H780 H 0.05518 0.25771 0.87071
 H781 H 0.08203 0.27474 0.95644
 H782 H 0.11112 0.27374 0.92984
 H783 H 0.15747 0.24742 0.78146
 H784 H 0.18674 0.24444 0.75609
 H785 H 0.21299 0.26814 0.83772
 H786 H 0.18375 0.27111 0.86314
 C787 C 0.60248 0.76573 0.38523
 C788 C 0.58644 0.76138 0.36887
 C789 C 0.56972 0.76206 0.38400
 C790 C 0.56864 0.76708 0.41586
 C791 C 0.58466 0.77159 0.43215
 C792 C 0.60138 0.77094 0.41702
 C793 C 0.62026 0.76460 0.36939
 N794 N 0.63574 0.76945 0.38476
 N795 N 0.65172 0.76818 0.37070
 C796 C 0.65294 0.76199 0.34066
 N797 N 0.63746 0.75717 0.32526
 N798 N 0.62147 0.75846 0.33931
 C799 C 0.67076 0.76033 0.32518
 C800 C 0.67207 0.75289 0.29480
 C801 C 0.68890 0.75108 0.28042
 C802 C 0.70481 0.75671 0.29605
 C803 C 0.70351 0.76425 0.32633
 C804 C 0.68669 0.76602 0.34074
 H805 H 0.58676 0.75740 0.34433
 H806 H 0.55760 0.75875 0.37068
 H807 H 0.58432 0.77528 0.45683
 H808 H 0.61346 0.77433 0.43039
 H809 H 0.66009 0.74835 0.28211
 H810 H 0.68943 0.74523 0.25705
 H811 H 0.71551 0.76873 0.33902
 H812 H 0.68620 0.77184 0.36413
 C813 C 0.89768 0.73751 0.88635
 C814 C 0.89888 0.73143 0.91760
 C815 C 0.91560 0.73081 0.93274
 C816 C 0.93153 0.73623 0.91700
 C817 C 0.93036 0.74222 0.88572
 C818 C 0.91364 0.74286 0.87057
 C819 C 0.87991 0.73841 0.87040
 N820 N 0.87864 0.74492 0.84064
 N821 N 0.86268 0.74588 0.82642
 C822 C 0.84727 0.74036 0.84133
 N823 N 0.84854 0.73381 0.87108
 N824 N 0.86451 0.73286 0.88531
 C825 C 0.82947 0.74159 0.82556
 C826 C 0.81357 0.73545 0.84069
 C827 C 0.79680 0.73677 0.82590
 C828 C 0.79553 0.74428 0.79565
 C829 C 0.81142 0.75036 0.78048
 C830 C 0.82818 0.74902 0.79524
 H831 H 0.88688 0.72727 0.93052
 H832 H 0.91602 0.72637 0.95700
 H833 H 0.94241 0.74626 0.87282
 H834 H 0.91325 0.74755 0.84646
 H835 H 0.81405 0.72964 0.86404
 H836 H 0.78482 0.73195 0.83824
 H837 H 0.81092 0.75621 0.75715
 H838 H 0.84013 0.75389 0.78286
 C839 C 0.39616 0.23643 0.38492
 C840 C 0.39726 0.23057 0.41631
 C841 C 0.41394 0.23001 0.43159
 C842 C 0.42992 0.23527 0.41585
 C843 C 0.42884 0.24102 0.38442
 C844 C 0.41216 0.24160 0.36913
 C845 C 0.37842 0.23731 0.36886
 N846 N 0.37722 0.24375 0.33903
 N847 N 0.36128 0.24473 0.32473
 C848 C 0.34584 0.23930 0.33963
 N849 N 0.34704 0.23282 0.36943
 N850 N 0.36298 0.23186 0.38374
 C851 C 0.32807 0.24058 0.32380
 C852 C 0.31215 0.23446 0.33888
 C853 C 0.29539 0.23585 0.32407
 C854 C 0.29416 0.24342 0.29386
 C855 C 0.31008 0.24947 0.27873
 C856 C 0.32683 0.24805 0.29350
 H857 H 0.38521 0.22655 0.42924
 H858 H 0.41428 0.22575 0.45596
 H859 H 0.44093 0.24493 0.37152
 H860 H 0.41184 0.24611 0.34492
 H861 H 0.31259 0.22861 0.36220
 H862 H 0.28339 0.23106 0.33637
 H863 H 0.30961 0.25535 0.25543
 H864 H 0.33880 0.25291 0.28118
 C865 C 0.73335 0.89854 0.88473
 C866 C 0.72576 0.89991 0.91488
 C867 C 0.72535 0.91656 0.93042
 C868 C 0.73261 0.93246 0.91636
 C869 C 0.73994 0.93094 0.88576
 C870 C 0.74028 0.91428 0.87027
 C871 C 0.73434 0.88078 0.86866
 N872 N 0.74200 0.87943 0.83972
 N873 N 0.74324 0.86344 0.82555
 C874 C 0.73689 0.84810 0.83969
 N875 N 0.72918 0.84946 0.86859
 N876 N 0.72793 0.86544 0.88277
 C877 C 0.73858 0.83027 0.82411
 C878 C 0.73217 0.81437 0.83891
 C879 C 0.73402 0.79756 0.82440
 C880 C 0.74232 0.79624 0.79476
 C881 C 0.74864 0.81213 0.77988
 C882 C 0.74679 0.82894 0.79437
 H883 H 0.72036 0.88803 0.92682
 H884 H 0.72008 0.91656 0.95416
 H885 H 0.74497 0.94263 0.87296
 H886 H 0.74604 0.91379 0.84686
 H887 H 0.72578 0.81488 0.86180
 H888 H 0.72899 0.78557 0.83649
 H889 H 0.75508 0.81159 0.75702
 H890 H 0.75188 0.84089 0.78227
 C891 C 0.23280 0.39772 0.38413
 C892 C 0.22790 0.39877 0.41606
 C893 C 0.22747 0.41548 0.43140
 C894 C 0.23190 0.43153 0.41519
 C895 C 0.23659 0.43050 0.38318
 C896 C 0.23705 0.41380 0.36784
 C897 C 0.23376 0.37996 0.36806
 N898 N 0.23967 0.37881 0.33787
 N899 N 0.24085 0.36285 0.32361
 C900 C 0.23615 0.34732 0.33891
 N901 N 0.23019 0.34847 0.36908
 N902 N 0.22903 0.36443 0.38335
 C903 C 0.23772 0.32953 0.32317
 C904 C 0.23211 0.31353 0.33854
 C905 C 0.23382 0.29675 0.32385
 C906 C 0.24122 0.29556 0.29347
 C907 C 0.24677 0.31155 0.27805
 C908 C 0.24502 0.32833 0.29270
 H909 H 0.22460 0.38667 0.42937
 H910 H 0.22405 0.41579 0.45618
 H911 H 0.23983 0.44264 0.36993
 H912 H 0.24078 0.41351 0.34321
 H913 H 0.22641 0.31394 0.36200
 H914 H 0.22941 0.28469 0.33638
 H915 H 0.25251 0.31111 0.25461
 H916 H 0.24949 0.34036 0.28015
 C917 C 0.26520 0.10165 0.88568
 C918 C 0.27394 0.10023 0.91484
 C919 C 0.27494 0.08356 0.93003
 C920 C 0.26713 0.06768 0.91661
 C921 C 0.25854 0.06927 0.88706
 C922 C 0.25762 0.08594 0.87190
 C923 C 0.26380 0.11939 0.86985
 N924 N 0.25540 0.12070 0.84155
 N925 N 0.25392 0.13665 0.82748
 C926 C 0.26075 0.15199 0.84110
 N927 N 0.26918 0.15068 0.86938
 N928 N 0.27067 0.13473 0.88345
 C929 C 0.25892 0.16975 0.82551
 C930 C 0.26563 0.18571 0.83989
 C931 C 0.26376 0.20244 0.82523
 C932 C 0.25516 0.20361 0.79584
 C933 C 0.24849 0.18767 0.78143
 C934 C 0.25034 0.17095 0.79609
 H935 H 0.27986 0.11208 0.92625
 H936 H 0.28116 0.08351 0.95305
 H937 H 0.25297 0.05760 0.87472
 H938 H 0.25094 0.08647 0.84926
 H939 H 0.27231 0.18530 0.86255
 H940 H 0.26906 0.21447 0.83695
 H941 H 0.24180 0.18809 0.75879
 H942 H 0.24502 0.15896 0.78430
 C943 C 0.76628 0.60190 0.38856
 C944 C 0.77155 0.60087 0.42030
 C945 C 0.77230 0.58415 0.43543
 C946 C 0.76782 0.56808 0.41917
 C947 C 0.76275 0.56910 0.38736
 C948 C 0.76197 0.58580 0.37224
 C949 C 0.76506 0.61965 0.37268
 N950 N 0.75891 0.62073 0.34263
 N951 N 0.75757 0.63667 0.32848
 C952 C 0.76232 0.65224 0.34375
 N953 N 0.76852 0.65116 0.37377
 N954 N 0.76984 0.63521 0.38794
 C955 C 0.76067 0.66999 0.32804
 C956 C 0.76638 0.68604 0.34327
 C957 C 0.76473 0.70276 0.32847
 C958 C 0.75727 0.70383 0.29812
 C959 C 0.75156 0.68779 0.28288
 C960 C 0.75326 0.67107 0.29764
 H961 H 0.77491 0.61298 0.43363
 H962 H 0.77602 0.58385 0.46007
 H963 H 0.75947 0.55695 0.37406
 H964 H 0.75796 0.58607 0.34774
 H965 H 0.77216 0.68572 0.36667
 H966 H 0.76926 0.71486 0.34085
 H967 H 0.74578 0.68813 0.25948
 H968 H 0.74870 0.65901 0.28520
 C969 C 0.09988 0.74228 0.88198
 C970 C 0.08403 0.73633 0.86660
 C971 C 0.06752 0.73565 0.88253
 C972 C 0.06626 0.74118 0.91432
 C973 C 0.08229 0.74735 0.92941
 C974 C 0.09882 0.74775 0.91356
 C975 C 0.11744 0.74273 0.86527
 N976 N 0.13318 0.74445 0.88153
 N977 N 0.14898 0.74486 0.86657
 C978 C 0.14972 0.74366 0.83468
 N979 N 0.13398 0.74197 0.81839
 N980 N 0.11817 0.74146 0.83338
 C981 C 0.16731 0.74436 0.81808
 C982 C 0.16816 0.74756 0.78549
 C983 C 0.18482 0.74874 0.77004
 C984 C 0.20096 0.74651 0.78677
 C985 C 0.20010 0.74301 0.81924
 C986 C 0.18347 0.74205 0.83475
 H987 H 0.08438 0.73209 0.84220
 H988 H 0.05568 0.73141 0.86924
 H989 H 0.08242 0.75115 0.95402
 H990 H 0.11080 0.75237 0.92615
 H991 H 0.15597 0.74944 0.77197
 H992 H 0.18504 0.75141 0.74498
 H993 H 0.21231 0.74128 0.83280
 H994 H 0.18329 0.73948 0.85984
 C995 C 0.59850 0.24111 0.38199
 C996 C 0.58218 0.23922 0.36522
 C997 C 0.56565 0.23867 0.38111
 C998 C 0.56506 0.24016 0.41407
 C999 C 0.58134 0.24216 0.43083
 C1000 C 0.59787 0.24255 0.41499
 C1001 C 0.61607 0.24155 0.36525
 N1002 N 0.63179 0.24050 0.38148
 N1003 N 0.64760 0.24094 0.36653
 C1004 C 0.64837 0.24251 0.33470
 N1005 N 0.63264 0.24357 0.31845
 N1006 N 0.61682 0.24306 0.33340
 C1007 C 0.66601 0.24325 0.31820
 C1008 C 0.66712 0.24799 0.28620
 C1009 C 0.68385 0.24919 0.27097
 C1010 C 0.69982 0.24552 0.28733
 C1011 C 0.69868 0.24051 0.31918
 C1012 C 0.68199 0.23946 0.33446
 H1013 H 0.58217 0.23806 0.33980
 H1014 H 0.55328 0.23726 0.36760
 H1015 H 0.58129 0.24314 0.45628
 H1016 H 0.61017 0.24404 0.42865
 H1017 H 0.65509 0.25103 0.27298
 H1018 H 0.68428 0.25306 0.24640
 H1019 H 0.71073 0.23762 0.33248
 H1020 H 0.68163 0.23569 0.35907
 C1021 C 0.89849 0.25979 0.88009
 C1022 C 0.90954 0.24467 0.88117
 C1023 C 0.92588 0.24543 0.89763
 C1024 C 0.93162 0.26140 0.91300
 C1025 C 0.92069 0.27656 0.91171
 C1026 C 0.90424 0.27574 0.89559
 C1027 C 0.88103 0.25889 0.86311
 N1028 N 0.86847 0.27164 0.86792
 N1029 N 0.85267 0.27070 0.85296
 C1030 C 0.84879 0.25704 0.83242
 N1031 N 0.86138 0.24435 0.82751
 N1032 N 0.87715 0.24523 0.84259
 C1033 C 0.83114 0.25587 0.81608
 C1034 C 0.82856 0.24433 0.79003
 C1035 C 0.81181 0.24300 0.77493
 C1036 C 0.79721 0.25300 0.78578
 C1037 C 0.79980 0.26459 0.81175
 C1038 C 0.81661 0.26609 0.82661
 H1039 H 0.90549 0.23217 0.86955
 H1040 H 0.93414 0.23360 0.89809
 H1041 H 0.92475 0.28898 0.92361
 H1042 H 0.89607 0.28764 0.89517
 H1043 H 0.83950 0.23633 0.78125
 H1044 H 0.81023 0.23392 0.75502
 H1045 H 0.78881 0.27251 0.82060
 H1046 H 0.81813 0.27507 0.84666
 C1047 C 0.40102 0.76082 0.37846
 C1048 C 0.41211 0.74573 0.37946
 C1049 C 0.42840 0.74648 0.39609
 C1050 C 0.43404 0.76240 0.41171
 C1051 C 0.42307 0.77754 0.41048
 C1052 C 0.40668 0.77673 0.39419
 C1053 C 0.38359 0.75992 0.36136
 N1054 N 0.37096 0.77258 0.36625
 N1055 N 0.35518 0.77161 0.35121
 C1056 C 0.35141 0.75801 0.33050
 N1057 N 0.36408 0.74540 0.32550
 N1058 N 0.37982 0.74631 0.34066
 C1059 C 0.33377 0.75678 0.31410
 C1060 C 0.33129 0.74532 0.28793
 C1061 C 0.31455 0.74390 0.27281
 C1062 C 0.29987 0.75375 0.28375
 C1063 C 0.30236 0.76527 0.30983
 C1064 C 0.31916 0.76686 0.32472
 H1065 H 0.40813 0.73326 0.36767
 H1066 H 0.43669 0.73467 0.39650
 H1067 H 0.42706 0.78992 0.42256
 H1068 H 0.39847 0.78860 0.39383
 H1069 H 0.34229 0.73743 0.27908
 H1070 H 0.31304 0.73488 0.25281
 H1071 H 0.29131 0.77308 0.31876
 H1072 H 0.32060 0.77578 0.34486
 C1073 C 0.26790 0.89792 0.11242
 C1074 C 0.27314 0.89934 0.08067
 C1075 C 0.27374 0.91611 0.06561
 C1076 C 0.26915 0.93187 0.08194
 C1077 C 0.26414 0.93049 0.11376
 C1078 C 0.26351 0.91373 0.12882
 C1079 C 0.26674 0.88008 0.12821
 N1080 N 0.26075 0.87861 0.15834
 N1081 N 0.25938 0.86257 0.17239
 C1082 C 0.26396 0.84728 0.15693
 N1083 N 0.27001 0.84874 0.12683
 N1084 N 0.27137 0.86479 0.11276
 C1085 C 0.26215 0.82941 0.17250
 C1086 C 0.26747 0.81361 0.15699
 C1087 C 0.26554 0.79676 0.17162
 C1088 C 0.25820 0.79532 0.20206
 C1089 C 0.25295 0.81111 0.21760
 C1090 C 0.25492 0.82794 0.20302
 H1091 H 0.27657 0.88745 0.06728
 H1092 H 0.27744 0.91669 0.04096
 H1093 H 0.26078 0.94242 0.12711
 H1094 H 0.25952 0.91318 0.15333
 H1095 H 0.27311 0.81424 0.13349
 H1096 H 0.26972 0.78486 0.15901
 H1097 H 0.24727 0.81048 0.24108
 H1098 H 0.25067 0.83980 0.21569
 C1099 C 0.76672 0.39744 0.61459
 C1100 C 0.77184 0.39884 0.58278
 C1101 C 0.77261 0.41564 0.56779
 C1102 C 0.76829 0.43144 0.58426
 C1103 C 0.76340 0.43007 0.61615
 C1104 C 0.76261 0.41329 0.63113
 C1105 C 0.76537 0.37958 0.63031
 N1106 N 0.75943 0.37815 0.66047
 N1107 N 0.75789 0.36210 0.67447
 C1108 C 0.76223 0.34677 0.65892
 N1109 N 0.76824 0.34819 0.62878
 N1110 N 0.76976 0.36425 0.61477
 C1111 C 0.76024 0.32889 0.67445
 C1112 C 0.76539 0.31304 0.65892
 C1113 C 0.76329 0.29620 0.67354
 C1114 C 0.75595 0.29482 0.70398
 C1115 C 0.75086 0.31066 0.71953
 C1116 C 0.75300 0.32749 0.70498
 H1117 H 0.77505 0.38692 0.56929
 H1118 H 0.77620 0.41621 0.54310
 H1119 H 0.76026 0.44202 0.62960
 H1120 H 0.75872 0.41275 0.65568
 H1121 H 0.77103 0.31362 0.63542
 H1122 H 0.76734 0.28425 0.66092
 H1123 H 0.74518 0.31009 0.74302
 H1124 H 0.74887 0.33938 0.71766
 C1125 C 0.73702 0.10084 0.11476
 C1126 C 0.72356 0.08777 0.12211
 C1127 C 0.72320 0.07095 0.10698
 C1128 C 0.73654 0.06681 0.08486
 C1129 C 0.75009 0.07977 0.07775
 C1130 C 0.75022 0.09672 0.09231
 C1131 C 0.73735 0.11871 0.13039
 N1132 N 0.74502 0.13336 0.11594
 N1133 N 0.74544 0.14945 0.13004
 C1134 C 0.73837 0.15151 0.15929
 N1135 N 0.73075 0.13685 0.17380
 N1136 N 0.73017 0.12078 0.15956
 C1137 C 0.73919 0.16933 0.17509
 C1138 C 0.73931 0.17056 0.20810
 C1139 C 0.74081 0.18741 0.22297
 C1140 C 0.74177 0.20335 0.20509
 C1141 C 0.74126 0.20213 0.17210
 C1142 C 0.74018 0.18527 0.15724
 H1143 H 0.71319 0.09063 0.13922
 H1144 H 0.71265 0.06109 0.11280
 H1145 H 0.76044 0.07684 0.06060
 H1146 H 0.76079 0.10651 0.08630
 H1147 H 0.73864 0.15848 0.22243
 H1148 H 0.74112 0.18799 0.24845
 H1149 H 0.74206 0.21420 0.15776
 H1150 H 0.74003 0.18472 0.13176
 C1151 C 0.23292 0.60062 0.61549
 C1152 C 0.23716 0.58479 0.63181
 C1153 C 0.23669 0.56805 0.61649
 C1154 C 0.23198 0.56674 0.58449
 C1155 C 0.22755 0.58253 0.56826
 C1156 C 0.22800 0.59926 0.58357
 C1157 C 0.23390 0.61845 0.63148
 N1158 N 0.22921 0.63368 0.61608
 N1159 N 0.23041 0.64974 0.63022
 C1160 C 0.23637 0.65129 0.66038
 N1161 N 0.24101 0.63606 0.67582
 N1162 N 0.23980 0.61999 0.66169
 C1163 C 0.23803 0.66924 0.67590
 C1164 C 0.24525 0.67097 0.70641
 C1165 C 0.24716 0.68794 0.72073
 C1166 C 0.24185 0.70357 0.70491
 C1167 C 0.23448 0.70183 0.67452
 C1168 C 0.23261 0.68488 0.66018
 H1169 H 0.24091 0.58530 0.65644
 H1170 H 0.23993 0.55609 0.62976
 H1171 H 0.22412 0.58201 0.54348
 H1172 H 0.22470 0.61117 0.57023
 H1173 H 0.24957 0.65922 0.71922
 H1174 H 0.25287 0.68881 0.74418
 H1175 H 0.23025 0.71360 0.66168
 H1176 H 0.22697 0.68406 0.63669
 C1177 C 0.90080 0.73892 0.12077
 C1178 C 0.90524 0.72331 0.10385
 C1179 C 0.92154 0.72260 0.08738
 C1180 C 0.93363 0.73755 0.08718
 C1181 C 0.92922 0.75316 0.10404
 C1182 C 0.91302 0.75380 0.12082
 C1183 C 0.88345 0.73975 0.13798
 N1184 N 0.88055 0.75313 0.15917
 N1185 N 0.86487 0.75399 0.17436
 C1186 C 0.85139 0.74156 0.16890
 N1187 N 0.85430 0.72817 0.14772
 N1188 N 0.87001 0.72726 0.13264
 C1189 C 0.83381 0.74274 0.18529
 C1190 C 0.81867 0.73262 0.17463
 C1191 C 0.80196 0.73412 0.18951
 C1192 C 0.80006 0.74562 0.21560
 C1193 C 0.81525 0.75553 0.22658
 C1194 C 0.83192 0.75418 0.21148
 H1195 H 0.89615 0.71160 0.10338
 H1196 H 0.92456 0.71047 0.07434
 H1197 H 0.93839 0.76481 0.10447
 H1198 H 0.91000 0.76604 0.13355
 H1199 H 0.81965 0.72371 0.15448
 H1200 H 0.79051 0.72627 0.18055
 H1201 H 0.81421 0.76453 0.24660
 H1202 H 0.84334 0.76211 0.22036
 C1203 C 0.39808 0.23945 0.61844
 C1204 C 0.40266 0.22374 0.60193
 C1205 C 0.41906 0.22297 0.58579
 C1206 C 0.43112 0.23794 0.58551
 C1207 C 0.42655 0.25365 0.60192
 C1208 C 0.41025 0.25437 0.61838
 C1209 C 0.38065 0.24032 0.63541
 N1210 N 0.37765 0.25377 0.65642
 N1211 N 0.36193 0.25463 0.67149
 C1212 C 0.34851 0.24213 0.66608
 N1213 N 0.35151 0.22868 0.64507
 N1214 N 0.36726 0.22777 0.63011
 C1215 C 0.33092 0.24327 0.68245
 C1216 C 0.31581 0.23306 0.67186
 C1217 C 0.29911 0.23446 0.68684
 C1218 C 0.29719 0.24593 0.71296
 C1219 C 0.31234 0.25595 0.72383
 C1220 C 0.32900 0.25471 0.70863
 H1221 H 0.39361 0.21200 0.60156
 H1222 H 0.42220 0.21075 0.57309
 H1223 H 0.43569 0.26533 0.60227
 H1224 H 0.40712 0.26668 0.63079
 H1225 H 0.31681 0.22416 0.65172
 H1226 H 0.28769 0.22653 0.67796
 H1227 H 0.31128 0.26493 0.74386
 H1228 H 0.34038 0.26270 0.71746
 C1229 C 0.09840 0.25945 0.11682
 C1230 C 0.09367 0.27533 0.10114
 C1231 C 0.07717 0.27625 0.08536
 C1232 C 0.06516 0.26124 0.08461
 C1233 C 0.06988 0.24534 0.10017
 C1234 C 0.08628 0.24449 0.11629
 C1235 C 0.11591 0.25844 0.13348
 N1236 N 0.11896 0.24491 0.15417
 N1237 N 0.13474 0.24395 0.16903
 C1238 C 0.14817 0.25644 0.16370
 N1239 N 0.14513 0.26996 0.14298
 N1240 N 0.12932 0.27097 0.12824
 C1241 C 0.16578 0.25525 0.17996
 C1242 C 0.18094 0.26528 0.16923
 C1243 C 0.19764 0.26390 0.18423
 C1244 C 0.19949 0.25262 0.21053
 C1245 C 0.18429 0.24274 0.22148
 C1246 C 0.16765 0.24395 0.20625
 H1247 H 0.10268 0.28710 0.10116
 H1248 H 0.07390 0.28861 0.07331
 H1249 H 0.06078 0.23363 0.10012
 H1250 H 0.08953 0.23204 0.12806
 H1251 H 0.17998 0.27406 0.14899
 H1252 H 0.20910 0.27172 0.17529
 H1253 H 0.18529 0.23390 0.24165
 H1254 H 0.15622 0.23610 0.21519
 C1255 C 0.59991 0.75984 0.61776
 C1256 C 0.59518 0.77578 0.60224
 C1257 C 0.57872 0.77672 0.58631
 C1258 C 0.56676 0.76167 0.58522
 C1259 C 0.57148 0.74572 0.60062
 C1260 C 0.58783 0.74484 0.61690
 C1261 C 0.61738 0.75881 0.63454
 N1262 N 0.62042 0.74521 0.65511
 N1263 N 0.63617 0.74425 0.67008
 C1264 C 0.64957 0.75680 0.66497
 N1265 N 0.64654 0.77039 0.64438
 N1266 N 0.63076 0.77140 0.62954
 C1267 C 0.66717 0.75560 0.68132
 C1268 C 0.68232 0.76571 0.67073
 C1269 C 0.69900 0.76434 0.68580
 C1270 C 0.70084 0.75302 0.71204
 C1271 C 0.68566 0.74307 0.72286
 C1272 C 0.66903 0.74425 0.70754
 H1273 H 0.60415 0.78758 0.60251
 H1274 H 0.57546 0.78912 0.57438
 H1275 H 0.56242 0.73398 0.60031
 H1276 H 0.59108 0.73235 0.62854
 H1277 H 0.68136 0.77453 0.65054
 H1278 H 0.71044 0.77222 0.67697
 H1279 H 0.68666 0.73419 0.74297
 H1280 H 0.65761 0.73634 0.71637
   
