data_POSCAR
  _audit_creation_date              2014-09-24
  _audit_creation_method            'ToBaCCo'
  _symmetry_space_group_name_H-M    'P1'
  _symmetry_Int_Tables_number       1
  _symmetry_cell_setting            triclinic
  loop_
  _symmetry_equiv_pos_as_xyz
 x,y,z
_cell_length_a 36.9697
_cell_length_b 45.0753
_cell_length_c 46.3189
_cell_angle_alpha 89.724400
_cell_angle_beta 90.104200
_cell_angle_gamma 89.930700
loop_
  _atom_site_label
  _atom_site_type_symbol
  _atom_site_fract_x
  _atom_site_fract_y
  _atom_site_fract_z
Zr1 Zr 0.24989 0.25366 0.30018
 O2 O 0.27558 0.28088 0.33125
 O3 O 0.21862 0.22601 0.32715
 O4 O 0.21457 0.28363 0.32116
 O5 O 0.32241 0.20478 0.29403
 O6 O 0.18282 0.30475 0.28400
 O7 O 0.28775 0.23079 0.32583
 O8 O 0.18918 0.19557 0.29584
 O9 O 0.20190 0.24918 0.27652
 O10 O 0.25398 0.21284 0.27917
 O11 O 0.24909 0.29026 0.27179
 O12 O 0.29820 0.25554 0.27576
 Zr13 Zr 0.25193 0.24623 0.20022
 Zr14 Zr 0.20244 0.28441 0.24661
 Zr15 Zr 0.30002 0.21520 0.25317
 Zr16 Zr 0.20734 0.20901 0.25449
 O17 O 0.35661 0.22212 0.25280
 O18 O 0.15025 0.21350 0.25445
 O19 O 0.25352 0.20882 0.22777
 O20 O 0.20424 0.24402 0.22470
 O21 O 0.24839 0.28730 0.22054
 O22 O 0.29949 0.25079 0.22420
 C23 C 0.19709 0.20428 0.32154
 C24 C 0.31377 0.21286 0.31981
 C25 C 0.19227 0.30286 0.31065
 O26 O 0.14597 0.27708 0.24694
 O27 O 0.18217 0.29706 0.20567
 O28 O 0.21632 0.27070 0.17395
 C29 C 0.19126 0.28952 0.17987
 O30 O 0.31818 0.31090 0.28280
 Zr31 Zr 0.29501 0.29068 0.24577
 O32 O 0.28125 0.27474 0.17297
 O33 O 0.20259 0.33120 0.24231
 O34 O 0.28284 0.33663 0.24328
 O35 O 0.35221 0.28810 0.24334
 O36 O 0.30966 0.30597 0.20418
 C37 C 0.30150 0.29723 0.17853
 O38 O 0.22564 0.21831 0.17013
 O39 O 0.29924 0.16844 0.25725
 O40 O 0.28876 0.21882 0.17893
 O41 O 0.32096 0.19615 0.21488
 O42 O 0.21788 0.16299 0.25941
 O43 O 0.18834 0.18526 0.21795
 C44 C 0.31375 0.20125 0.18802
 H45 H 0.25605 0.19572 0.29252
 H46 H 0.18270 0.24133 0.21226
 H47 H 0.32164 0.25119 0.21224
 H48 H 0.24893 0.30929 0.28232
 H49 H 0.14000 0.19445 0.26136
 H50 H 0.13441 0.29687 0.24544
 H51 H 0.17700 0.33772 0.24125
 H52 H 0.30525 0.34705 0.23737
 H53 H 0.19479 0.15320 0.26464
 H54 H 0.32479 0.16198 0.25883
 H55 H 0.36806 0.20224 0.25360
 H56 H 0.36105 0.30776 0.23680
 H57 H 0.16820 0.17210 0.22382
 H58 H 0.23358 0.22454 0.15056
 H59 H 0.26715 0.27443 0.35063
 H60 H 0.33350 0.32781 0.27671
 Zr61 Zr 0.74130 0.74840 0.30291
 O62 O 0.70900 0.72444 0.33270
 O63 O 0.77185 0.77537 0.33083
 O64 O 0.77127 0.71857 0.32883
 O65 O 0.67254 0.79763 0.28635
 O66 O 0.80554 0.69274 0.29642
 O67 O 0.70230 0.77506 0.32375
 O68 O 0.80869 0.80115 0.30043
 O69 O 0.79240 0.74854 0.28338
 O70 O 0.74375 0.78792 0.27923
 O71 O 0.74296 0.70998 0.27712
 O72 O 0.69680 0.74729 0.27418
 Zr73 Zr 0.75359 0.74940 0.20314
 Zr74 Zr 0.79313 0.71145 0.25596
 Zr75 Zr 0.70164 0.78606 0.24915
 Zr76 Zr 0.79364 0.78745 0.25866
 O77 O 0.64516 0.78298 0.24212
 O78 O 0.85012 0.78034 0.26301
 O79 O 0.75162 0.78847 0.22790
 O80 O 0.79772 0.75052 0.23170
 O81 O 0.75086 0.70941 0.22593
 O82 O 0.70286 0.74886 0.22272
 C83 C 0.79699 0.79447 0.32577
 C84 C 0.67698 0.79163 0.31331
 C85 C 0.79333 0.69767 0.32194
 O86 O 0.84966 0.71566 0.26152
 O87 O 0.81863 0.69586 0.21781
 O88 O 0.79060 0.72209 0.18204
 C89 C 0.81393 0.70304 0.19103
 O90 O 0.67161 0.69288 0.28270
 Zr91 Zr 0.70100 0.71022 0.24701
 O92 O 0.72501 0.72144 0.17505
 O93 O 0.78920 0.66465 0.25446
 O94 O 0.70986 0.66372 0.24777
 O95 O 0.64469 0.71591 0.24002
 O96 O 0.68962 0.69406 0.20528
 C97 C 0.70148 0.70103 0.18002
 O98 O 0.78635 0.77369 0.17392
 O99 O 0.70566 0.83274 0.25220
 O100 O 0.72325 0.77784 0.17689
 O101 O 0.68897 0.80455 0.20829
 O102 O 0.78649 0.83408 0.26087
 O103 O 0.81847 0.80827 0.22251
 C104 C 0.69958 0.79781 0.18262
 H105 H 0.74129 0.80577 0.29144
 H106 H 0.82101 0.75146 0.22123
 H107 H 0.68251 0.74923 0.20880
 H108 H 0.74008 0.69173 0.28884
 H109 H 0.86106 0.79927 0.26941
 H110 H 0.85953 0.69523 0.26232
 H111 H 0.81415 0.65673 0.25605
 H112 H 0.68767 0.65413 0.24027
 H113 H 0.80966 0.84279 0.26749
 H114 H 0.68068 0.84058 0.25076
 H115 H 0.63565 0.80354 0.24122
 H116 H 0.63485 0.69654 0.23374
 H117 H 0.83838 0.82122 0.22921
 H118 H 0.78041 0.76690 0.15412
 H119 H 0.71528 0.73145 0.35238
 H120 H 0.65607 0.67635 0.27612
 Zr121 Zr 0.74602 0.25482 -0.30282
 O122 O 0.71031 0.27514 -0.33279
 O123 O 0.78386 0.23472 -0.33038
 O124 O 0.77118 0.28947 -0.32604
 O125 O 0.69364 0.19155 -0.29359
 O126 O 0.79442 0.31902 -0.29064
 O127 O 0.71746 0.22331 -0.32700
 O128 O 0.82402 0.21279 -0.29962
 O129 O 0.79459 0.26223 -0.28075
 O130 O 0.75727 0.21528 -0.28086
 O131 O 0.73548 0.29097 -0.27552
 O132 O 0.70006 0.24616 -0.27698
 Zr133 Zr 0.75137 0.24964 -0.20293
 Zr134 Zr 0.78327 0.29675 -0.25179
 Zr135 Zr 0.71338 0.20760 -0.25361
 Zr136 Zr 0.80448 0.22302 -0.25785
 O137 O 0.65675 0.20164 -0.25077
 O138 O 0.85748 0.24072 -0.26046
 O139 O 0.76142 0.21287 -0.22977
 O140 O 0.79667 0.25810 -0.22897
 O141 O 0.73951 0.28937 -0.22419
 O142 O 0.70299 0.24237 -0.22516
 C143 C 0.81206 0.21874 -0.32517
 C144 C 0.69892 0.20027 -0.31984
 C145 C 0.78727 0.31304 -0.31715
 O146 O 0.83991 0.30305 -0.25320
 O147 O 0.79990 0.31483 -0.21185
 O148 O 0.77678 0.28277 -0.17850
 C149 C 0.79411 0.30643 -0.18562
 O150 O 0.66125 0.29428 -0.28426
 Zr151 Zr 0.69249 0.28129 -0.24776
 O152 O 0.71371 0.26961 -0.17525
 O153 O 0.76664 0.34162 -0.24940
 O154 O 0.68813 0.32821 -0.24717
 O155 O 0.63878 0.26568 -0.24262
 O156 O 0.67576 0.29416 -0.20595
 C157 C 0.68713 0.28734 -0.18043
 O158 O 0.78850 0.23109 -0.17297
 O159 O 0.72933 0.16268 -0.25736
 O160 O 0.72952 0.21378 -0.18005
 O161 O 0.70332 0.18471 -0.21444
 O162 O 0.81054 0.17635 -0.26094
 O163 O 0.83270 0.20581 -0.22140
 C164 C 0.71203 0.19062 -0.18810
 H165 H 0.76059 0.19798 -0.29366
 H166 H 0.81875 0.26090 -0.21717
 H167 H 0.68254 0.23755 -0.21218
 H168 H 0.72905 0.30892 -0.28681
 H169 H 0.87357 0.22463 -0.26730
 H170 H 0.84401 0.32477 -0.25296
 H171 H 0.78889 0.35388 -0.24921
 H172 H 0.66338 0.33319 -0.24056
 H173 H 0.83586 0.17226 -0.26669
 H174 H 0.70683 0.15076 -0.25777
 H175 H 0.65244 0.17995 -0.25087
 H176 H 0.62390 0.28269 -0.23613
 H177 H 0.85665 0.19835 -0.22756
 H178 H 0.77940 0.23553 -0.15331
 H179 H 0.71931 0.27051 -0.35244
 H180 H 0.64063 0.30666 -0.27791
 Zr181 Zr 0.23877 0.75415 -0.29912
 O182 O 0.26684 0.73636 -0.33496
 O183 O 0.19724 0.77867 -0.32018
 O184 O 0.21014 0.72013 -0.32090
 O185 O 0.29577 0.81485 -0.29216
 O186 O 0.19538 0.68769 -0.28475
 O187 O 0.26467 0.78658 -0.32427
 O188 O 0.15772 0.78432 -0.28339
 O189 O 0.19526 0.74427 -0.27189
 O190 O 0.23171 0.79198 -0.27383
 O191 O 0.25499 0.71644 -0.27518
 O192 O 0.28903 0.76114 -0.27809
 Zr193 Zr 0.25249 0.75203 -0.19929
 Zr194 Zr 0.21222 0.70817 -0.24656
 Zr195 Zr 0.28023 0.79795 -0.25134
 Zr196 Zr 0.18961 0.78159 -0.24581
 O197 O 0.33678 0.80508 -0.25247
 O198 O 0.13666 0.76656 -0.23600
 O199 O 0.23728 0.79035 -0.22260
 O200 O 0.20292 0.74488 -0.22022
 O201 O 0.26056 0.71390 -0.22376
 O202 O 0.29616 0.76158 -0.22627
 C203 C 0.16644 0.78731 -0.31012
 C204 C 0.28652 0.80790 -0.31818
 C205 C 0.19763 0.69518 -0.31149
 O206 O 0.15568 0.70188 -0.24346
 O207 O 0.20077 0.68854 -0.20613
 O208 O 0.23209 0.71685 -0.17426
 C209 C 0.21138 0.69475 -0.18029
 O210 O 0.32704 0.71386 -0.29217
 Zr211 Zr 0.30260 0.72434 -0.25198
 O212 O 0.29562 0.73157 -0.17751
 O213 O 0.22930 0.66336 -0.24715
 O214 O 0.30710 0.67751 -0.25450
 O215 O 0.35634 0.74075 -0.25249
 O216 O 0.32734 0.70892 -0.21330
 C217 C 0.32115 0.71454 -0.18648
 O218 O 0.22131 0.76736 -0.16401
 O219 O 0.26316 0.84276 -0.25283
 O220 O 0.27670 0.78716 -0.17721
 O221 O 0.29496 0.81939 -0.21242
 O222 O 0.18086 0.82763 -0.25258
 O223 O 0.17312 0.80047 -0.20597
 C224 C 0.29081 0.81171 -0.18575
 H225 H 0.22617 0.80988 -0.28549
 H226 H 0.18330 0.74132 -0.20612
 H227 H 0.31859 0.76604 -0.21543
 H228 H 0.25963 0.69937 -0.28801
 H229 H 0.11971 0.78295 -0.24071
 H230 H 0.15156 0.68016 -0.24336
 H231 H 0.20729 0.65098 -0.24522
 H232 H 0.33277 0.67227 -0.25093
 H233 H 0.15452 0.83040 -0.25558
 H234 H 0.28529 0.85494 -0.25495
 H235 H 0.34050 0.82684 -0.25225
 H236 H 0.37262 0.72376 -0.24838
 H237 H 0.15054 0.81196 -0.20881
 H238 H 0.23425 0.76169 -0.14601
 H239 H 0.25387 0.74280 -0.35271
 H240 H 0.34886 0.70156 -0.28874
 Zr241 Zr 1.24500 1.25113 0.79839
 O242 O 1.21495 1.22476 0.82775
 O243 O 1.27490 1.27780 0.82670
 O244 O 1.27890 1.22431 0.82344
 O245 O 1.17689 1.30247 0.78557
 O246 O 1.31380 1.19953 0.79100
 O247 O 1.20621 1.27607 0.82059
 O248 O 1.31275 1.30312 0.79668
 O249 O 1.29542 1.25164 0.77809
 O250 O 1.24756 1.29137 0.77615
 O251 O 1.24582 1.21311 0.77236
 O252 O 1.19946 1.25132 0.77100
 Zr253 Zr 1.25434 1.25472 0.69872
 Zr254 Zr 1.29524 1.21509 0.75033
 Zr255 Zr 1.20444 1.29083 0.74722
 Zr256 Zr 1.29681 1.29100 0.75455
 O257 O 1.14824 1.28785 0.73906
 O258 O 1.35322 1.28314 0.75788
 O259 O 1.25383 1.29286 0.72499
 O260 O 1.29937 1.25467 0.72661
 O261 O 1.25197 1.21429 0.72095
 O262 O 1.20418 1.25448 0.71938
 C263 C 1.30071 1.29631 0.82194
 C264 C 1.18179 1.29450 0.81208
 C265 C 1.30432 1.20609 0.81701
 O266 O 1.35234 1.21814 0.75149
 O267 O 1.31762 1.19888 0.71149
 O268 O 1.29008 1.22670 0.67659
 C269 C 1.31255 1.20658 0.68495
 O270 O 1.17436 1.19733 0.77892
 Zr271 Zr 1.20273 1.21497 0.74287
 O272 O 1.22362 1.22814 0.67064
 O273 O 1.28984 1.16838 0.75105
 O274 O 1.21075 1.16838 0.74248
 O275 O 1.14634 1.22105 0.73672
 O276 O 1.18988 1.19972 0.70116
 C277 C 1.20055 1.20738 0.67577
 O278 O 1.28734 1.27810 0.66897
 O279 O 1.20716 1.33733 0.75319
 O280 O 1.22600 1.28656 0.67405
 O281 O 1.19660 1.31390 0.70817
 O282 O 1.29025 1.33761 0.75780
 O283 O 1.32114 1.31252 0.71858
 C284 C 1.20708 1.30897 0.68216
 H285 H 1.24558 1.30884 0.78892
 H286 H 1.32229 1.25552 0.71561
 H287 H 1.18378 1.25594 0.70556
 H288 H 1.24410 1.19488 0.78429
 H289 H 1.36456 1.30171 0.76481
 H290 H 1.36175 1.19759 0.75285
 H291 H 1.31470 1.16016 0.75164
 H292 H 1.18805 1.15920 0.73548
 H293 H 1.31349 1.34587 0.76480
 H294 H 1.18219 1.34514 0.75132
 H295 H 1.13894 1.30846 0.73860
 H296 H 1.13610 1.20170 0.73076
 H297 H 1.34135 1.32511 0.72537
 H298 H 1.28038 1.27170 0.64924
 H299 H 1.22134 1.23131 0.84755
 H300 H 1.15830 1.18110 0.77245
 Zr301 Zr 0.74799 0.75603 0.80216
 O302 O 0.77001 0.78635 0.83220
 O303 O 0.71824 0.72750 0.82917
 O304 O 0.70704 0.78144 0.82199
 O305 O 0.82396 0.71123 0.79832
 O306 O 0.67363 0.79834 0.78381
 O307 O 0.78624 0.73519 0.82936
 O308 O 0.68985 0.69647 0.79772
 O309 O 0.70148 0.74927 0.77723
 O310 O 0.75446 0.71493 0.78220
 O311 O 0.74599 0.79206 0.77313
 O312 O 0.79692 0.75910 0.77878
 Zr313 Zr 0.75406 0.74633 0.70191
 Zr314 Zr 0.70101 0.78381 0.74683
 Zr315 Zr 0.80102 0.71843 0.75724
 Zr316 Zr 0.70901 0.70901 0.75641
 O317 O 0.85711 0.72697 0.75393
 O318 O 0.65180 0.71208 0.75495
 O319 O 0.75586 0.71017 0.73101
 O320 O 0.70565 0.74314 0.72559
 O321 O 0.74765 0.78763 0.72156
 O322 O 0.80054 0.75278 0.72684
 C323 C 0.69710 0.70560 0.82342
 C324 C 0.81385 0.71867 0.82387
 C325 C 0.67983 0.79539 0.81100
 O326 O 0.64504 0.77525 0.74188
 O327 O 0.68325 0.79671 0.70544
 O328 O 0.71862 0.77014 0.67473
 C329 C 0.69319 0.78889 0.67997
 O330 O 0.81379 0.81539 0.78458
 Zr331 Zr 0.79302 0.79319 0.74773
 O332 O 0.78477 0.77452 0.67510
 O333 O 0.69936 0.83072 0.74571
 O334 O 0.77861 0.83861 0.74397
 O335 O 0.85034 0.79200 0.74662
 O336 O 0.80859 0.80825 0.70628
 C337 C 0.80282 0.79828 0.68065
 O338 O 0.72883 0.71901 0.67069
 O339 O 0.80467 0.67239 0.76632
 O340 O 0.78905 0.71513 0.68259
 O341 O 0.81722 0.69369 0.72131
 O342 O 0.72214 0.66359 0.76248
 O343 O 0.69205 0.68357 0.72032
 C344 C 0.80916 0.69507 0.69433
 H345 H 0.75714 0.69825 0.79600
 H346 H 0.68476 0.73963 0.71265
 H347 H 0.82280 0.75257 0.71498
 H348 H 0.74324 0.81096 0.78372
 H349 H 0.64200 0.69300 0.76221
 H350 H 0.63262 0.79474 0.74117
 H351 H 0.67364 0.83640 0.74322
 H352 H 0.80066 0.84972 0.73838
 H353 H 0.69967 0.65316 0.76823
 H354 H 0.83071 0.66718 0.76718
 H355 H 0.86941 0.70750 0.75551
 H356 H 0.85872 0.81170 0.73979
 H357 H 0.67266 0.66976 0.72640
 H358 H 0.73797 0.72514 0.65142
 H359 H 0.76182 0.78001 0.85166
 H360 H 0.82913 0.83221 0.77829
 Zr361 Zr 1.24713 0.75053 0.20126
 O362 O 1.21131 0.77131 0.17165
 O363 O 1.28384 0.72977 0.17339
 O364 O 1.27312 0.78342 0.17708
 O365 O 1.19327 0.68841 0.21145
 O366 O 1.30197 0.81203 0.21039
 O367 O 1.21739 0.71956 0.17771
 O368 O 1.32456 0.70805 0.20383
 O369 O 1.29644 0.75718 0.22237
 O370 O 1.25784 0.71107 0.22338
 O371 O 1.23869 0.78767 0.22759
 O372 O 1.20140 0.74327 0.22750
 Zr373 Zr 1.25436 0.74690 0.30054
 Zr374 Zr 1.28727 0.79273 0.25047
 Zr375 Zr 1.21416 0.70471 0.25110
 Zr376 Zr 1.30569 0.71827 0.24577
 O377 O 1.15748 0.69994 0.25505
 O378 O 1.35932 0.73461 0.24303
 O379 O 1.26277 0.70943 0.27434
 O380 O 1.29955 0.75414 0.27398
 O381 O 1.24366 0.78658 0.27870
 O382 O 1.20540 0.74030 0.27900
 C383 C 1.31226 0.71403 0.17839
 C384 C 1.19843 0.69691 0.18510
 C385 C 1.29320 0.80544 0.18421
 O386 O 1.34414 0.79780 0.25052
 O387 O 1.30324 0.81181 0.29021
 O388 O 1.28049 0.78014 0.32414
 C389 C 1.29745 0.80381 0.31659
 O390 O 1.16463 0.79224 0.21952
 Zr391 Zr 1.19585 0.77924 0.25603
 O392 O 1.21777 0.76782 0.32844
 O393 O 1.27219 0.83802 0.25011
 O394 O 1.19323 0.82624 0.25612
 O395 O 1.14158 0.76536 0.26202
 O396 O 1.18019 0.79289 0.29788
 C397 C 1.19166 0.78604 0.32336
 O398 O 1.29171 0.72829 0.33028
 O399 O 1.22849 0.65941 0.24753
 O400 O 1.23188 0.71182 0.32430
 O401 O 1.20497 0.68236 0.29064
 O402 O 1.31056 0.67153 0.24252
 O403 O 1.33331 0.70065 0.28230
 C404 C 1.21404 0.68860 0.31682
 H405 H 1.26053 0.69364 0.21066
 H406 H 1.32180 0.75669 0.28564
 H407 H 1.18508 0.73608 0.29229
 H408 H 1.23307 0.80549 0.21584
 H409 H 1.37476 0.71809 0.23622
 H410 H 1.34894 0.81941 0.24977
 H411 H 1.29492 0.84965 0.25036
 H412 H 1.16876 0.83188 0.26288
 H413 H 1.33574 0.66709 0.23661
 H414 H 1.20561 0.64797 0.24774
 H415 H 1.15254 0.67835 0.25516
 H416 H 1.12751 0.78300 0.26805
 H417 H 1.35692 0.69244 0.27616
 H418 H 1.28307 0.73315 0.34997
 H419 H 1.21960 0.76632 0.15188
 H420 H 1.14489 0.80560 0.22574
 Zr421 Zr 0.74097 1.25389 0.19969
 O422 O 0.77119 1.23855 0.16389
 O423 O 0.69746 1.27542 0.17892
 O424 O 0.71366 1.22109 0.17654
 O425 O 0.79362 1.31647 0.20868
 O426 O 0.69770 1.18648 0.21024
 O427 O 0.76330 1.28864 0.17559
 O428 O 0.66131 1.28868 0.21656
 O429 O 0.69792 1.24148 0.22636
 O430 O 0.73172 1.29014 0.22645
 O431 O 0.75883 1.21547 0.22134
 O432 O 0.79087 1.26194 0.22035
 Zr433 Zr 0.75606 1.24768 0.29936
 Zr434 Zr 0.71675 1.20455 0.24968
 Zr435 Zr 0.77992 1.29685 0.24873
 Zr436 Zr 0.69057 1.27718 0.25422
 O437 O 0.83605 1.30596 0.24852
 O438 O 0.63883 1.25727 0.25785
 O439 O 0.73804 1.28627 0.27757
 O440 O 0.70656 1.23980 0.27796
 O441 O 0.76518 1.21115 0.27259
 O442 O 0.79845 1.26009 0.27212
 C443 C 0.66864 1.28719 0.18942
 C444 C 0.78377 1.31044 0.18264
 C445 C 0.69971 1.19612 0.18399
 O446 O 0.66095 1.19546 0.25443
 O447 O 0.70788 1.18222 0.28923
 O448 O 0.73602 1.21118 0.32273
 C449 C 0.71746 1.18829 0.31532
 O450 O 0.82995 1.21598 0.20358
 Zr451 Zr 0.80622 1.22440 0.24451
 O452 O 0.79984 1.22586 0.31981
 O453 O 0.73655 1.16074 0.24551
 O454 O 0.81324 1.17783 0.24114
 O455 O 0.85897 1.24279 0.24310
 O456 O 0.83362 1.20975 0.28185
 C457 C 0.82718 1.21208 0.30903
 O458 O 0.72505 1.26087 0.33553
 O459 O 0.76122 1.34128 0.24843
 O460 O 0.77977 1.28294 0.32290
 O461 O 0.79080 1.31779 0.28808
 O462 O 0.68160 1.32364 0.25546
 O463 O 0.66936 1.28968 0.29503
 C464 C 0.78932 1.30912 0.31453
 H465 H 0.72501 1.30840 0.21576
 H466 H 0.68714 1.23485 0.29185
 H467 H 0.82077 1.26495 0.28295
 H468 H 0.76375 1.19919 0.20763
 H469 H 0.62056 1.27301 0.25446
 H470 H 0.65812 1.17368 0.25275
 H471 H 0.71535 1.14741 0.24709
 H472 H 0.83931 1.17352 0.24395
 H473 H 0.65534 1.32703 0.25258
 H474 H 0.78284 1.35420 0.24721
 H475 H 0.83857 1.32780 0.24962
 H476 H 0.87641 1.22630 0.24585
 H477 H 0.64468 1.29784 0.29244
 H478 H 0.73853 1.25472 0.35312
 H479 H 0.75831 1.24493 0.14608
 H480 H 0.85201 1.20376 0.20617
 N481 N 0.57149 1.01997 0.02971
 N482 N 0.59801 1.03910 0.03363
 N483 N 0.53567 0.96046 0.04690
 N484 N 0.54041 0.93811 0.06506
 N485 N 0.55858 0.95868 0.02535
 N486 N 0.57911 0.93497 0.02799
 N487 N 0.54814 1.02150 0.05098
 N488 N 0.55829 1.04147 0.07009
 C489 C 0.58946 1.05226 0.05896
 C490 C 0.56727 0.92219 0.05264
 N491 N 0.43340 0.97602 0.03086
 N492 N 0.40587 0.95792 0.03481
 N493 N 0.47132 1.03213 0.05427
 N494 N 0.47090 1.05306 0.07417
 N495 N 0.44648 1.03727 0.03459
 N496 N 0.42895 1.06199 0.04013
 N497 N 0.45873 0.97104 0.05019
 N498 N 0.44895 0.94959 0.06804
 Mn499 Mn 0.50349 0.99622 0.05096
 C500 C 0.41600 0.94150 0.05799
 C501 C 0.44442 1.07158 0.06480
 N502 N 0.55566 0.96352 -0.03648
 N503 N 0.57300 0.93876 -0.04291
 N504 N 0.54316 1.02967 -0.05157
 N505 N 0.55369 1.05032 -0.07007
 N506 N 0.56841 1.02473 -0.03217
 N507 N 0.59658 1.04195 -0.03672
 N508 N 0.52956 0.96854 -0.05511
 N509 N 0.52803 0.94729 -0.07445
 Mn510 Mn 0.56394 0.99167 -0.00339
 C511 C 0.55523 0.92886 -0.06661
 C512 C 0.58697 1.05794 -0.06027
 N513 N 0.44317 1.04231 -0.02694
 N514 N 0.42283 1.06617 -0.02975
 N515 N 0.45317 0.97936 -0.05222
 N516 N 0.44191 0.96020 -0.07176
 N517 N 0.43003 0.98108 -0.03087
 N518 N 0.40250 0.96310 -0.03514
 N519 N 0.46622 1.04041 -0.04837
 N520 N 0.46180 1.06270 -0.06663
 Mn521 Mn 0.43792 1.00921 0.00195
 Mn522 Mn 0.49806 1.00455 -0.05215
 Cl523 Cl 0.50086 1.00043 -0.00066
 C524 C 0.43497 1.07880 -0.05443
 C525 C 0.41026 0.95018 -0.06069
 N526 N 1.03907 0.52980 0.55069
 N527 N 1.06476 0.53462 0.56986
 N528 N 0.96152 0.55070 0.53454
 N529 N 0.93696 0.57039 0.54241
 N530 N 0.96308 0.52874 0.55319
 N531 N 0.93939 0.53260 0.57399
 N532 N 1.03712 0.55185 0.53218
 N533 N 1.06110 0.57256 0.53850
 C534 C 1.07848 0.56122 0.56183
 C535 C 0.92302 0.55845 0.56689
 N536 N 0.95719 0.53327 0.45208
 N537 N 0.93008 0.53845 0.43426
 N538 N 1.03408 0.55403 0.47033
 N539 N 1.06064 0.57307 0.46658
 N540 N 1.03315 0.53470 0.44922
 N541 N 1.05884 0.54044 0.43018
 N542 N 0.95836 0.55345 0.47240
 N543 N 0.93244 0.57326 0.46868
 Mn544 Mn 0.99773 0.55283 0.50230
 C545 C 0.91481 0.56332 0.44502
 C546 C 1.07586 0.56434 0.44151
 N547 N 0.96413 0.46544 0.55056
 N548 N 0.93724 0.46173 0.56877
 N549 N 1.03914 0.44593 0.52793
 N550 N 1.06587 0.42674 0.53156
 N551 N 1.04013 0.46639 0.54796
 N552 N 1.06776 0.46212 0.56543
 N553 N 0.96335 0.44512 0.53037
 N554 N 0.93611 0.42664 0.53458
 Mn555 Mn 1.00165 0.49752 0.55086
 C556 C 0.92006 0.43749 0.55860
 C557 C 1.08366 0.43746 0.55489
 N558 N 1.03437 0.47065 0.44700
 N559 N 1.05852 0.46663 0.42651
 N560 N 0.96005 0.44761 0.46809
 N561 N 0.93530 0.42735 0.46225
 N562 N 0.95831 0.46960 0.44944
 N563 N 0.93196 0.46519 0.43075
 N564 N 1.03555 0.44873 0.46578
 N565 N 1.06027 0.42904 0.45838
 Mn566 Mn 0.99576 0.50207 0.44908
 Mn567 Mn 0.99953 0.44646 0.49805
 Cl568 Cl 0.99867 0.49972 0.50004
 C569 C 1.07466 0.44076 0.43404
 C570 C 0.91770 0.43888 0.43909
 N571 N 1.06770 0.52204 0.03119
 N572 N 1.09325 0.54193 0.03536
 N573 N 1.03330 0.46157 0.04775
 N574 N 1.03769 0.43896 0.06573
 N575 N 1.05713 0.46037 0.02681
 N576 N 1.07792 0.43679 0.02966
 N577 N 1.04373 0.52304 0.05204
 N578 N 1.05249 0.54352 0.07112
 C579 C 1.08352 0.55509 0.06038
 C580 C 1.06539 0.42350 0.05387
 N581 N 0.93119 0.47544 0.02871
 N582 N 0.90347 0.45750 0.03224
 N583 N 0.96645 0.53200 0.05337
 N584 N 0.96407 0.55231 0.07379
 N585 N 0.94234 0.53691 0.03305
 N586 N 0.92331 0.56088 0.03877
 N587 N 0.95576 0.47075 0.04872
 N588 N 0.94518 0.44963 0.06665
 Mn589 Mn 0.99982 0.49676 0.05083
 C590 C 0.91263 0.44141 0.05584
 C591 C 0.93714 0.57024 0.06418
 N592 N 1.05608 0.46522 -0.03487
 N593 N 1.07428 0.44062 -0.03969
 N594 N 1.04255 0.53105 -0.05103
 N595 N 1.05288 0.55232 -0.06892
 N596 N 1.06692 0.52686 -0.03075
 N597 N 1.09420 0.54535 -0.03402
 N598 N 1.03171 0.46965 -0.05510
 N599 N 1.03316 0.44835 -0.07462
 Mn600 Mn 1.06230 0.49361 -0.00192
 C601 C 1.05981 0.43037 -0.06452
 C602 C 1.08504 0.56117 -0.05781
 N603 N 0.94141 0.54187 -0.02869
 N604 N 0.92217 0.56642 -0.03051
 N605 N 0.95411 0.47877 -0.05387
 N606 N 0.94460 0.45842 -0.07293
 N607 N 0.93018 0.48029 -0.03303
 N608 N 0.90401 0.46095 -0.03714
 N609 N 0.96504 0.54046 -0.04976
 N610 N 0.96216 0.56403 -0.06676
 Mn611 Mn 0.93597 0.50869 -0.00000
 Mn612 Mn 0.99833 0.50501 -0.05286
 Cl613 Cl 0.99912 0.50101 -0.00100
 C614 C 0.93543 0.58012 -0.05425
 C615 C 0.91321 0.44748 -0.06211
 N616 N 0.56993 1.01967 0.53135
 N617 N 0.59562 1.03964 0.53468
 N618 N 0.53468 0.96000 0.54886
 N619 N 0.53879 0.93723 0.56671
 N620 N 0.55775 0.95817 0.52741
 N621 N 0.57774 0.93410 0.52981
 N622 N 0.54623 1.02147 0.55238
 N623 N 0.55542 1.04252 0.57074
 C624 C 0.58637 1.05362 0.55941
 C625 C 0.56553 0.92111 0.55424
 N626 N 0.43237 0.97438 0.53141
 N627 N 0.40516 0.95587 0.53506
 N628 N 0.46882 1.03147 0.55484
 N629 N 0.46743 1.05275 0.57444
 N630 N 0.44417 1.03589 0.53483
 N631 N 0.42587 1.06036 0.53983
 N632 N 0.45724 0.97006 0.55128
 N633 N 0.44735 0.94873 0.56927
 Mn634 Mn 0.50179 0.99572 0.55225
 C635 C 0.41489 0.93998 0.55868
 C636 C 0.44055 1.07066 0.56452
 N637 N 0.55574 0.96257 0.46534
 N638 N 0.57316 0.93771 0.45921
 N639 N 0.54297 1.02882 0.44985
 N640 N 0.55381 1.04951 0.43145
 N641 N 0.56790 1.02397 0.46954
 N642 N 0.59603 1.04133 0.46536
 N643 N 0.53003 0.96754 0.44634
 N644 N 0.52882 0.94618 0.42710
 Mn645 Mn 0.56320 0.99100 0.49844
 C646 C 0.55582 0.92773 0.43532
 C647 C 0.58687 1.05729 0.44169
 N648 N 0.44198 1.04056 0.47324
 N649 N 0.42211 1.06474 0.47067
 N650 N 0.45352 0.97762 0.44836
 N651 N 0.44360 0.95747 0.42928
 N652 N 0.43007 0.97900 0.46952
 N653 N 0.40369 0.95980 0.46558
 N654 N 0.46560 1.03897 0.45218
 N655 N 0.46204 1.06180 0.43441
 Mn656 Mn 0.43681 1.00746 0.50227
 Mn657 Mn 0.49806 1.00334 0.44885
 Cl658 Cl 0.49997 0.99939 0.50047
 C659 C 0.43504 1.07785 0.44648
 C660 C 0.41240 0.94654 0.44039
 N661 N 1.06633 1.02666 0.53278
 N662 N 1.09227 1.04651 0.53543
 N663 N 1.02824 0.97041 0.55671
 N664 N 1.02653 0.94973 0.57685
 N665 N 1.05491 0.96496 0.53880
 N666 N 1.07225 0.94039 0.54654
 N667 N 1.04008 1.03194 0.55113
 N668 N 1.04775 1.05540 0.56704
 C669 C 1.08042 1.06429 0.55687
 C670 C 1.05405 0.93109 0.57038
 N671 N 0.92869 0.98049 0.52966
 N672 N 0.90362 0.95986 0.53269
 N673 N 0.96265 1.04127 0.54598
 N674 N 0.95706 1.06391 0.56348
 N675 N 0.94010 1.04229 0.52404
 N676 N 0.91891 1.06580 0.52588
 N677 N 0.95140 0.97969 0.55148
 N678 N 0.94216 0.95865 0.57005
 Mn679 Mn 0.99562 1.00591 0.55164
 C680 C 0.91216 0.94651 0.55809
 C681 C 0.92995 1.07926 0.55046
 N682 N 1.06043 0.95878 0.47677
 N683 N 1.08212 0.93563 0.47465
 N684 N 1.04910 1.02141 0.44938
 N685 N 1.05806 1.04269 0.43100
 N686 N 1.07182 1.02059 0.47120
 N687 N 1.09663 1.04147 0.46833
 N688 N 1.03792 0.95983 0.45481
 N689 N 1.04406 0.93755 0.43700
 Mn690 Mn 1.06376 0.99264 0.50492
 C691 C 1.07141 0.92239 0.44990
 C692 C 1.08793 1.05497 0.44303
 N693 N 0.94551 1.03584 0.46201
 N694 N 0.92761 1.06002 0.45407
 N695 N 0.96042 0.96903 0.44968
 N696 N 0.95271 0.94555 0.43377
 N697 N 0.93422 0.97425 0.46810
 N698 N 0.90830 0.95438 0.46549
 N699 N 0.97226 1.03062 0.44412
 N700 N 0.97359 1.05120 0.42383
 Mn701 Mn 0.93675 1.00832 0.49593
 Mn702 Mn 1.00490 0.99514 0.44918
 Cl703 Cl 1.00026 1.00050 0.50041
 C704 C 0.94562 1.06942 0.43022
 C705 C 0.92008 0.93663 0.44401
 N706 N 0.56533 0.52578 0.03185
 N707 N 0.59143 0.54539 0.03496
 N708 N 0.52788 0.46877 0.05444
 N709 N 0.52630 0.44736 0.07382
 N710 N 0.55423 0.46400 0.03606
 N711 N 0.57170 0.43921 0.04284
 N712 N 0.53946 0.53036 0.05069
 N713 N 0.54754 0.55311 0.06742
 C714 C 0.58004 0.56230 0.05720
 C715 C 0.55372 0.42906 0.06647
 N716 N 0.42834 0.47893 0.02887
 N717 N 0.40333 0.45826 0.03163
 N718 N 0.46202 0.53945 0.04678
 N719 N 0.45736 0.56208 0.06445
 N720 N 0.43892 0.54083 0.02527
 N721 N 0.41829 0.56460 0.02746
 N722 N 0.45125 0.47775 0.05051
 N723 N 0.44230 0.45630 0.06869
 Mn724 Mn 0.49519 0.50419 0.05093
 C725 C 0.41224 0.44438 0.05664
 C726 C 0.43020 0.57777 0.05189
 N727 N 0.55847 0.46012 -0.02631
 N728 N 0.57939 0.43657 -0.02885
 N729 N 0.54629 0.52379 -0.05134
 N730 N 0.55505 0.54567 -0.06907
 N731 N 0.56950 0.52198 -0.02987
 N732 N 0.59441 0.54280 -0.03230
 N733 N 0.53590 0.46206 -0.04819
 N734 N 0.54121 0.43991 -0.06635
 Mn735 Mn 0.56230 0.49283 0.00294
 C736 C 0.56819 0.42400 -0.05379
 C737 C 0.58524 0.55727 -0.05695
 N738 N 0.44323 0.53677 -0.03634
 N739 N 0.42508 0.56135 -0.04165
 N740 N 0.45846 0.47095 -0.05199
 N741 N 0.45134 0.44761 -0.06817
 N742 N 0.43277 0.47496 -0.03285
 N743 N 0.40769 0.45437 -0.03529
 N744 N 0.46870 0.53279 -0.05567
 N745 N 0.46804 0.55450 -0.07507
 Mn746 Mn 0.43547 0.50789 -0.00381
 Mn747 Mn 0.50237 0.49740 -0.05220
 Cl748 Cl 0.49886 0.50058 -0.00055
 C749 C 0.44065 0.57217 -0.06587
 C750 C 0.41953 0.43752 -0.05743
 C751 C 0.37804 1.15032 0.14825
 C752 C 0.37837 1.16414 0.12170
 C753 C 0.35880 1.18965 0.11564
 C754 C 0.33787 1.20153 0.13784
 C755 C 0.33669 1.18779 0.16554
 C756 C 0.35753 1.16195 0.17091
 O757 O 0.39651 1.12500 0.14856
 C758 C 0.40851 1.12285 0.12160
 C759 C 0.39813 1.14635 0.10441
 C760 C 0.40471 1.14760 0.07492
 C761 C 0.42190 1.12322 0.06240
 C762 C 0.43240 1.09852 0.07948
 C763 C 0.42653 1.09858 0.10963
 H764 H 0.35913 1.19980 0.09441
 H765 H 0.32253 1.22151 0.13332
 H766 H 0.35689 1.15080 0.19166
 H767 H 0.39552 1.16609 0.06182
 H768 H 0.42598 1.12309 0.03924
 H769 H 0.43320 1.07946 0.12286
 C770 C 0.84672 0.64750 0.63438
 C771 C 0.84065 0.61991 0.64629
 C772 C 0.82509 0.61571 0.67319
 C773 C 0.81529 0.64100 0.68858
 C774 C 0.82078 0.66977 0.67684
 C775 C 0.83628 0.67317 0.64912
 O776 O 0.86471 0.64628 0.60958
 C777 C 0.87001 0.61734 0.60592
 C778 C 0.85545 0.60036 0.62773
 C779 C 0.85950 0.56979 0.62943
 C780 C 0.88031 0.55609 0.60815
 C781 C 0.89673 0.57306 0.58590
 C782 C 0.89072 0.60407 0.58431
 H783 H 0.82129 0.59376 0.68226
 H784 H 0.80312 0.63820 0.70969
 H785 H 0.84110 0.69493 0.63992
 H786 H 0.84804 0.55706 0.64704
 H787 H 0.88466 0.53236 0.60960
 H788 H 0.90356 0.61761 0.56791
 C789 C 0.63822 0.84595 0.13689
 C790 C 0.64927 0.83771 0.10975
 C791 C 0.67692 0.81754 0.10497
 C792 C 0.69366 0.80498 0.12921
 C793 C 0.68263 0.81278 0.15761
 C794 C 0.65448 0.83372 0.16140
 O795 O 0.61249 0.86650 0.13649
 C796 C 0.60733 0.87131 0.10849
 C797 C 0.62915 0.85414 0.09126
 C798 C 0.62975 0.85659 0.06138
 C799 C 0.60764 0.87827 0.04872
 C800 C 0.58555 0.89674 0.06603
 C801 C 0.58469 0.89271 0.09630
 H802 H 0.68538 0.81173 0.08336
 H803 H 0.71510 0.78903 0.12569
 H804 H 0.64545 0.84026 0.18266
 H805 H 0.64747 0.84300 0.04837
 H806 H 0.60855 0.88127 0.02551
 H807 H 0.56868 0.90697 0.11004
 C808 C 1.16795 0.35087 0.61891
 C809 C 1.18154 0.37869 0.62455
 C810 C 1.20406 0.38463 0.64783
 C811 C 1.21275 0.36099 0.66624
 C812 C 1.19914 0.33218 0.66094
 C813 C 1.17695 0.32679 0.63668
 O814 O 1.14366 0.35085 0.59774
 C815 C 1.14182 0.37925 0.59001
 C816 C 1.16466 0.39710 0.60571
 C817 C 1.16445 0.42785 0.60359
 C818 C 1.13888 0.44085 0.58516
 C819 C 1.11439 0.42304 0.56932
 C820 C 1.11660 0.39176 0.57103
 H821 H 1.21353 0.40687 0.65226
 H822 H 1.22959 0.36515 0.68495
 H823 H 1.16549 0.30507 0.63281
 H824 H 1.18209 0.44139 0.61673
 H825 H 1.13711 0.46483 0.58414
 H826 H 1.09729 0.37778 0.55996
 C827 C 0.65815 1.13565 -0.14408
 C828 C 0.67826 1.13527 -0.11906
 C829 C 0.70997 1.15133 -0.11570
 C830 C 0.72121 1.16893 -0.13897
 C831 C 0.70089 1.16999 -0.16502
 C832 C 0.66912 1.15273 -0.16772
 O833 O 0.62843 1.11920 -0.14239
 C834 C 0.62993 1.10823 -0.11574
 C835 C 0.65996 1.11738 -0.10065
 C836 C 0.66708 1.10864 -0.07242
 C837 C 0.64241 1.08934 -0.05924
 C838 C 0.61127 1.07942 -0.07431
 C839 C 0.60478 1.08924 -0.10292
 H840 H 0.72523 1.15068 -0.09574
 H841 H 0.74564 1.18194 -0.13659
 H842 H 0.65282 1.15340 -0.18717
 H843 H 0.69089 1.11624 -0.06103
 H844 H 0.64767 1.08206 -0.03731
 H845 H 0.58136 1.08189 -0.11498
 C846 C 1.16467 0.62892 0.35878
 C847 C 1.17818 0.63386 0.38601
 C848 C 1.20419 0.65519 0.39182
 C849 C 1.21657 0.67244 0.36865
 C850 C 1.20268 0.66829 0.34030
 C851 C 1.17670 0.64577 0.33531
 O852 O 1.13827 0.60895 0.35837
 C853 C 1.13496 0.60130 0.38597
 C854 C 1.15877 0.61598 0.40374
 C855 C 1.15801 0.61342 0.43363
 C856 C 1.13117 0.59538 0.44578
 C857 C 1.10617 0.58016 0.42798
 C858 C 1.10856 0.58264 0.39760
 H859 H 1.21401 0.65891 0.41353
 H860 H 1.23648 0.68944 0.37302
 H861 H 1.16507 0.64231 0.31413
 H862 H 1.17655 0.62570 0.44715
 H863 H 1.12936 0.59373 0.46908
 H864 H 1.08910 0.57193 0.38362
 C865 C 0.34215 0.86954 -0.14323
 C866 C 0.32379 0.86796 -0.11745
 C867 C 0.29454 0.84929 -0.11294
 C868 C 0.28388 0.83121 -0.13586
 C869 C 0.30227 0.83221 -0.16277
 C870 C 0.33164 0.85197 -0.16661
 O871 O 0.36977 0.88837 -0.14251
 C872 C 0.36865 0.89885 -0.11573
 C873 C 0.34089 0.88708 -0.09964
 C874 C 0.33455 0.89476 -0.07110
 C875 C 0.35770 0.91561 -0.05856
 C876 C 0.38668 0.92809 -0.07455
 C877 C 0.39231 0.91947 -0.10357
 H878 H 0.28065 0.84844 -0.09240
 H879 H 0.26120 0.81640 -0.13261
 H880 H 0.34636 0.85301 -0.18677
 H881 H 0.31251 0.88509 -0.05893
 H882 H 0.35312 0.92190 -0.03632
 H883 H 0.41415 0.92867 -0.11630
 C884 C 0.83327 0.35117 0.37571
 C885 C 0.81869 0.37886 0.37071
 C886 C 0.79322 0.38443 0.34933
 C887 C 0.78279 0.36065 0.33193
 C888 C 0.79774 0.33194 0.33615
 C889 C 0.82276 0.32690 0.35882
 O890 O 0.85946 0.35146 0.39544
 C891 C 0.86149 0.37991 0.40283
 C892 C 0.83707 0.39752 0.38825
 C893 C 0.83659 0.42826 0.39044
 C894 C 0.86270 0.44153 0.40810
 C895 C 0.88833 0.42400 0.42330
 C896 C 0.88727 0.39267 0.42109
 H897 H 0.78272 0.40652 0.34548
 H898 H 0.76373 0.36473 0.31456
 H899 H 0.83530 0.30539 0.36192
 H900 H 0.81762 0.44163 0.37820
 H901 H 0.86344 0.46551 0.40951
 H902 H 0.90724 0.37887 0.43180
 C903 C 1.13008 0.33975 0.13560
 C904 C 1.13994 0.33162 0.10814
 C905 C 1.16535 0.30966 0.10266
 C906 C 1.18145 0.29553 0.12645
 C907 C 1.17215 0.30360 0.15515
 C908 C 1.14573 0.32595 0.15965
 O909 O 1.10676 0.36220 0.13600
 C910 C 1.10193 0.36843 0.10819
 C911 C 1.12168 0.35034 0.09028
 C912 C 1.12259 0.35409 0.06050
 C913 C 1.10281 0.37778 0.04869
 C914 C 1.08247 0.39695 0.06666
 C915 C 1.08148 0.39185 0.09682
 H916 H 1.17297 0.30393 0.08083
 H917 H 1.20163 0.27864 0.12239
 H918 H 1.13827 0.33298 0.18115
 H919 H 1.13876 0.33982 0.04692
 H920 H 1.10388 0.38153 0.02559
 H921 H 1.06688 0.40656 0.11109
 C922 C 0.63111 0.83765 0.63537
 C923 C 0.64136 0.82980 0.60793
 C924 C 0.66768 0.80850 0.60252
 C925 C 0.68420 0.79476 0.62638
 C926 C 0.67433 0.80257 0.65500
 C927 C 0.64708 0.82424 0.65939
 O928 O 0.60712 0.85959 0.63583
 C929 C 0.60220 0.86580 0.60806
 C930 C 0.62252 0.84816 0.59011
 C931 C 0.62342 0.85210 0.56036
 C932 C 0.60315 0.87556 0.54868
 C933 C 0.58244 0.89439 0.56676
 C934 C 0.58134 0.88900 0.59683
 H935 H 0.67566 0.80302 0.58072
 H936 H 0.70505 0.77837 0.62247
 H937 H 0.63913 0.83108 0.68084
 H938 H 0.64003 0.83821 0.54673
 H939 H 0.60431 0.87954 0.52562
 H940 H 0.56648 0.90345 0.61119
 C941 C 1.15984 0.63956 -0.13885
 C942 C 1.17323 0.64470 -0.11165
 C943 C 1.19976 0.66565 -0.10610
 C944 C 1.21277 0.68235 -0.12948
 C945 C 1.19962 0.67762 -0.15813
 C946 C 1.17298 0.65531 -0.16261
 O947 O 1.13385 0.61926 -0.13929
 C948 C 1.13089 0.61136 -0.11175
 C949 C 1.15461 0.62612 -0.09398
 C950 C 1.15656 0.62095 -0.06441
 C951 C 1.13330 0.59949 -0.05270
 C952 C 1.10833 0.58421 -0.07052
 C953 C 1.10694 0.59041 -0.10046
 H954 H 1.20974 0.66937 -0.08443
 H955 H 1.23317 0.69895 -0.12501
 H956 H 1.16172 0.65087 -0.18376
 H957 H 1.17555 0.63278 -0.05089
 H958 H 1.13459 0.59488 -0.02975
 H959 H 1.08843 0.57882 -0.11458
 C960 C 0.66206 1.13392 0.35898
 C961 C 0.68035 1.13468 0.38483
 C962 C 0.71142 1.15143 0.38903
 C963 C 0.72388 1.16850 0.36572
 C964 C 0.70549 1.16827 0.33877
 C965 C 0.67431 1.15037 0.33533
 O966 O 0.63262 1.11705 0.35983
 C967 C 0.63240 1.10694 0.38682
 C968 C 0.66111 1.11705 0.40294
 C969 C 0.66638 1.10923 0.43168
 C970 C 0.64127 1.08986 0.44426
 C971 C 0.61145 1.07897 0.42814
 C972 C 0.60677 1.08791 0.39904
 H973 H 0.72523 1.15175 0.40965
 H974 H 0.74763 1.18215 0.36881
 H975 H 0.65934 1.15005 0.31522
 H976 H 0.68918 1.11752 0.44390
 H977 H 0.64517 1.08326 0.46656
 H978 H 0.58444 1.07979 0.38616
 C979 C 0.87437 0.64993 0.14963
 C980 C 0.87434 0.66380 0.12311
 C981 C 0.85675 0.69042 0.11783
 C982 C 0.83796 0.70326 0.14072
 C983 C 0.83669 0.68937 0.16837
 C984 C 0.85578 0.66243 0.17298
 O985 O 0.89126 0.62384 0.14927
 C986 C 0.90180 0.62129 0.12192
 C987 C 0.89193 0.64520 0.10511
 C988 C 0.89741 0.64638 0.07545
 C989 C 0.91332 0.62167 0.06241
 C990 C 0.92386 0.59674 0.07914
 C991 C 0.91864 0.59668 0.10943
 H992 H 0.85689 0.70069 0.09666
 H993 H 0.82393 0.72395 0.13662
 H994 H 0.85500 0.65106 0.19361
 H995 H 0.88867 0.66525 0.06268
 H996 H 0.91699 0.62174 0.03921
 H997 H 0.92556 0.57750 0.12248
 C998 C 0.37427 1.15309 0.64541
 C999 C 0.37311 1.16526 0.61815
 C1000 C 0.35322 1.19048 0.61140
 C1001 C 0.33366 1.20385 0.63366
 C1002 C 0.33415 1.19193 0.66214
 C1003 C 0.35509 1.16618 0.66807
 O1004 O 0.39314 1.12796 0.64662
 C1005 C 0.40398 1.12425 0.61950
 C1006 C 0.39240 1.14657 0.60132
 C1007 C 0.39819 1.14629 0.57172
 C1008 C 0.41588 1.12160 0.56018
 C1009 C 0.42767 1.09802 0.57826
 C1010 C 0.42243 1.09963 0.60848
 H1011 H 0.35237 1.19933 0.58964
 H1012 H 0.31800 1.22350 0.62853
 H1013 H 0.35575 1.15626 0.68940
 H1014 H 0.38823 1.16390 0.55786
 H1015 H 0.41949 1.12041 0.53700
 H1016 H 0.43018 1.08146 0.62257
 C1017 C 0.84724 0.36316 -0.14267
 C1018 C 0.83136 0.35976 -0.11604
 C1019 C 0.80371 0.33965 -0.11077
 C1020 C 0.79192 0.32217 -0.13387
 C1021 C 0.80759 0.32519 -0.16174
 C1022 C 0.83564 0.34617 -0.16615
 O1023 O 0.87318 0.38359 -0.14289
 C1024 C 0.87354 0.39330 -0.11581
 C1025 C 0.84832 0.37946 -0.09861
 C1026 C 0.84336 0.38649 -0.06973
 C1027 C 0.86514 0.40886 -0.05805
 C1028 C 0.89151 0.42352 -0.07518
 C1029 C 0.89593 0.41544 -0.10449
 H1030 H 0.79161 0.33747 -0.08960
 H1031 H 0.77024 0.30651 -0.13005
 H1032 H 0.84821 0.34901 -0.18708
 H1033 H 0.82322 0.37533 -0.05670
 H1034 H 0.86145 0.41470 -0.03560
 H1035 H 0.91561 0.42639 -0.11814
 C1036 C 0.34872 0.86157 0.35957
 C1037 C 0.33168 0.85876 0.38582
 C1038 C 0.30385 0.83877 0.39077
 C1039 C 0.29312 0.82079 0.36776
 C1040 C 0.31001 0.82318 0.34028
 C1041 C 0.33817 0.84407 0.33614
 O1042 O 0.37473 0.88192 0.35969
 C1043 C 0.37393 0.89214 0.38657
 C1044 C 0.34793 0.87873 0.40333
 C1045 C 0.34185 0.88625 0.43196
 C1046 C 0.36338 0.90864 0.44387
 C1047 C 0.39056 0.92282 0.42719
 C1048 C 0.39602 0.91429 0.39811
 H1049 H 0.29086 0.83705 0.41164
 H1050 H 0.27131 0.80520 0.37134
 H1051 H 0.35162 0.84641 0.31552
 H1052 H 0.32113 0.87538 0.44464
 H1053 H 0.35894 0.91484 0.46615
 H1054 H 0.41641 0.92482 0.38483
 C1055 C 1.14495 1.14697 0.36518
 C1056 C 1.15960 1.15127 0.39214
 C1057 C 1.18490 1.17333 0.39776
 C1058 C 1.19596 1.19143 0.37461
 C1059 C 1.18198 1.18712 0.34631
 C1060 C 1.15571 1.16462 0.34178
 O1061 O 1.12183 1.12440 0.36432
 C1062 C 1.12204 1.11413 0.39128
 C1063 C 1.14486 1.12970 0.40913
 C1064 C 1.15033 1.12197 0.43794
 C1065 C 1.13155 1.09723 0.44879
 C1066 C 1.10752 1.08092 0.43096
 C1067 C 1.10263 1.08969 0.40177
 H1068 H 1.19618 1.17623 0.41914
 H1069 H 1.21626 1.20821 0.37865
 H1070 H 1.14460 1.16044 0.32054
 H1071 H 1.16870 1.13436 0.45151
 H1072 H 1.13559 1.09090 0.47114
 H1073 H 1.08477 1.07757 0.38753
 C1074 C 0.64353 0.64930 -0.13340
 C1075 C 0.65806 0.65333 -0.10635
 C1076 C 0.68381 0.67497 -0.10053
 C1077 C 0.69545 0.69289 -0.12360
 C1078 C 0.68157 0.68874 -0.15194
 C1079 C 0.65483 0.66675 -0.15667
 O1080 O 0.62006 0.62704 -0.13452
 C1081 C 0.61993 0.61668 -0.10763
 C1082 C 0.64286 0.63188 -0.08957
 C1083 C 0.64815 0.62384 -0.06083
 C1084 C 0.62904 0.59915 -0.05030
 C1085 C 0.60496 0.58326 -0.06843
 C1086 C 0.60023 0.59235 -0.09749
 H1087 H 0.69501 0.67763 -0.07910
 H1088 H 0.71611 0.70935 -0.11947
 H1089 H 0.64378 0.66276 -0.17797
 H1090 H 0.66665 0.63592 -0.04709
 H1091 H 0.63292 0.59248 -0.02802
 H1092 H 0.58238 0.58047 -0.11193
 C1093 C 0.87104 1.16768 0.63008
 C1094 C 0.85857 1.17414 0.60278
 C1095 C 0.83280 1.19599 0.59742
 C1096 C 0.81885 1.21149 0.62118
 C1097 C 0.83059 1.20490 0.64977
 C1098 C 0.85764 1.18291 0.65405
 O1099 O 0.89421 1.14509 0.63065
 C1100 C 0.89628 1.13704 0.60313
 C1101 C 0.87491 1.15408 0.58521
 C1102 C 0.87125 1.14836 0.55586
 C1103 C 0.89013 1.12397 0.54456
 C1104 C 0.91233 1.10598 0.56255
 C1105 C 0.91576 1.11293 0.59224
 H1106 H 0.82310 1.20047 0.57577
 H1107 H 0.79813 1.22803 0.61728
 H1108 H 0.86685 1.17683 0.67548
 H1109 H 0.85386 1.16179 0.54225
 H1110 H 0.88713 1.11892 0.52185
 H1111 H 0.93192 1.09930 0.60663
 C1112 C 0.37190 0.66454 0.13287
 C1113 C 0.35986 0.67185 0.10564
 C1114 C 0.33401 0.69370 0.10063
 C1115 C 0.31954 0.70832 0.12469
 C1116 C 0.33090 0.70083 0.15316
 C1117 C 0.35801 0.67889 0.15711
 O1118 O 0.39502 0.64196 0.13305
 C1119 C 0.39749 0.63477 0.10535
 C1120 C 0.37647 0.65236 0.08768
 C1121 C 0.37305 0.64743 0.05819
 C1122 C 0.39171 0.62318 0.04648
 C1123 C 0.41341 0.60457 0.06426
 C1124 C 0.41677 0.61080 0.09407
 H1125 H 0.32463 0.69881 0.07902
 H1126 H 0.29881 0.72492 0.12108
 H1127 H 0.36691 0.67218 0.17845
 H1128 H 0.35588 0.66129 0.04479
 H1129 H 0.38883 0.61863 0.02366
 H1130 H 0.43250 0.59663 0.10827
 C1131 C 1.12702 0.83255 0.63107
 C1132 C 1.09273 0.83617 0.64189
 C1133 C 1.08099 0.82261 0.66706
 C1134 C 1.10582 0.80525 0.68241
 C1135 C 1.14197 0.80095 0.67235
 C1136 C 1.15205 0.81400 0.64537
 O1137 O 1.13351 0.85027 0.60850
 C1138 C 1.10261 0.86528 0.60520
 C1139 C 1.07685 0.85714 0.62506
 C1140 C 1.04345 0.87104 0.62720
 C1141 C 1.03624 0.89463 0.60833
 C1142 C 1.06231 0.90419 0.58785
 C1143 C 1.09590 0.88890 0.58592
 H1144 H 1.05403 0.82637 0.67537
 H1145 H 1.09668 0.79553 0.70255
 H1146 H 1.17938 0.81219 0.63716
 H1147 H 1.02390 0.86442 0.64335
 H1148 H 1.01043 0.90586 0.61016
 H1149 H 1.11658 0.89598 0.57089
 C1150 C 0.62947 0.33460 0.12953
 C1151 C 0.59341 0.33378 0.13674
 C1152 C 0.58015 0.31692 0.15959
 C1153 C 0.60513 0.30060 0.17607
 C1154 C 0.64254 0.30120 0.16937
 C1155 C 0.65477 0.31800 0.14533
 O1156 O 0.63672 0.35414 0.10870
 C1157 C 0.60455 0.36594 0.10270
 C1158 C 0.57721 0.35412 0.11927
 C1159 C 0.54191 0.36466 0.11835
 C1160 C 0.53451 0.38867 0.09995
 C1161 C 0.56217 0.40168 0.08287
 C1162 C 0.59763 0.38972 0.08383
 H1163 H 0.55174 0.31715 0.16519
 H1164 H 0.59548 0.28807 0.19452
 H1165 H 0.68329 0.31963 0.14031
 H1166 H 0.52103 0.35532 0.13197
 H1167 H 0.50728 0.39757 0.09950
 H1168 H 0.61944 0.39965 0.07159
 C1169 C 0.85588 0.84623 0.36953
 C1170 C 0.83898 0.84486 0.39591
 C1171 C 0.80936 0.82661 0.40117
 C1172 C 0.79637 0.80930 0.37822
 C1173 C 0.81284 0.81073 0.35055
 C1174 C 0.84337 0.82932 0.34642
 O1175 O 0.88275 0.86575 0.36868
 C1176 C 0.88274 0.87711 0.39507
 C1177 C 0.85639 0.86515 0.41255
 C1178 C 0.85024 0.87501 0.44052
 C1179 C 0.87188 0.89829 0.45076
 C1180 C 0.89925 0.91101 0.43318
 C1181 C 0.90503 0.89994 0.40503
 H1182 H 0.79630 0.82609 0.42206
 H1183 H 0.77289 0.79544 0.38185
 H1184 H 0.85655 0.83121 0.32564
 H1185 H 0.82906 0.86555 0.45376
 H1186 H 0.86711 0.90655 0.47234
 H1187 H 0.92526 0.90954 0.39094
 C1188 C 0.35890 0.34725 -0.13321
 C1189 C 0.34249 0.34456 -0.10672
 C1190 C 0.31361 0.32549 -0.10174
 C1191 C 0.30080 0.30881 -0.12515
 C1192 C 0.31670 0.31172 -0.15294
 C1193 C 0.34659 0.33099 -0.15675
 O1194 O 0.38486 0.36755 -0.13376
 C1195 C 0.38470 0.37806 -0.10706
 C1196 C 0.35920 0.36482 -0.08967
 C1197 C 0.35281 0.37381 -0.06146
 C1198 C 0.37333 0.39757 -0.05087
 C1199 C 0.39978 0.41156 -0.06842
 C1200 C 0.40585 0.40135 -0.09680
 H1201 H 0.30092 0.32394 -0.08075
 H1202 H 0.27785 0.29432 -0.12173
 H1203 H 0.35925 0.33401 -0.17762
 H1204 H 0.33222 0.36337 -0.04831
 H1205 H 0.36841 0.40523 -0.02910
 H1206 H 0.42537 0.41197 -0.11084
 C1207 C 1.11981 0.34671 -0.14735
 C1208 C 1.12124 0.33410 -0.12028
 C1209 C 1.14019 0.30819 -0.11430
 C1210 C 1.15890 0.29486 -0.13706
 C1211 C 1.15867 0.30762 -0.16520
 C1212 C 1.13818 0.33372 -0.17046
 O1213 O 1.10226 0.37248 -0.14782
 C1214 C 1.09266 0.37621 -0.12042
 C1215 C 1.10376 0.35332 -0.10274
 C1216 C 1.09961 0.35374 -0.07293
 C1217 C 1.08388 0.37902 -0.06074
 C1218 C 1.07226 0.40296 -0.07841
 C1219 C 1.07602 0.40132 -0.10876
 H1220 H 1.14127 0.29894 -0.09270
 H1221 H 1.17424 0.27490 -0.13249
 H1222 H 1.13793 0.34434 -0.19148
 H1223 H 1.10932 0.33573 -0.05945
 H1224 H 1.08136 0.38022 -0.03748
 H1225 H 1.06837 0.41974 -0.12258
 C1226 C 0.63541 0.83594 0.37361
 C1227 C 0.59957 0.83461 0.36564
 C1228 C 0.58743 0.81854 0.34202
 C1229 C 0.61335 0.80356 0.32561
 C1230 C 0.65049 0.80467 0.33316
 C1231 C 0.66168 0.82057 0.35788
 O1232 O 0.64147 0.85494 0.39495
 C1233 C 0.60877 0.86588 0.40043
 C1234 C 0.58226 0.85401 0.38309
 C1235 C 0.54671 0.86398 0.38318
 C1236 C 0.53817 0.88755 0.40151
 C1237 C 0.56502 0.90062 0.41928
 C1238 C 0.60069 0.88916 0.41924
 H1239 H 0.55919 0.81846 0.33580
 H1240 H 0.60467 0.79161 0.30658
 H1241 H 0.69003 0.82247 0.36350
 H1242 H 0.52655 0.85465 0.36891
 H1243 H 0.51080 0.89615 0.40130
 H1244 H 0.62189 0.89925 0.43201
 C1245 C 0.87688 0.66989 -0.13249
 C1246 C 0.86666 0.67711 -0.10488
 C1247 C 0.84103 0.69889 -0.09903
 C1248 C 0.82485 0.71349 -0.12261
 C1249 C 0.83434 0.70602 -0.15140
 C1250 C 0.86136 0.68423 -0.15620
 O1251 O 0.89957 0.64706 -0.13353
 C1252 C 0.90365 0.63956 -0.10598
 C1253 C 0.88407 0.65727 -0.08756
 C1254 C 0.88197 0.65183 -0.05805
 C1255 C 0.90026 0.62687 -0.04717
 C1256 C 0.92026 0.60806 -0.06576
 C1257 C 0.92259 0.61490 -0.09552
 H1258 H 0.83296 0.70383 -0.07712
 H1259 H 0.80414 0.72990 -0.11838
 H1260 H 0.86884 0.67745 -0.17778
 H1261 H 0.86584 0.66571 -0.04405
 H1262 H 0.89815 0.62181 -0.02435
 H1263 H 0.93684 0.60052 -0.11031
 C1264 C 0.37512 1.16331 0.36442
 C1265 C 0.36596 1.17221 0.39180
 C1266 C 0.34160 1.19502 0.39706
 C1267 C 0.32563 1.20899 0.37313
 C1268 C 0.33394 1.19987 0.34452
 C1269 C 0.35961 1.17693 0.34024
 O1270 O 0.39713 1.14000 0.36422
 C1271 C 0.40176 1.13399 0.39209
 C1272 C 0.38317 1.15303 0.40985
 C1273 C 0.38184 1.14941 0.43966
 C1274 C 0.40001 1.12492 0.45162
 C1275 C 0.41923 1.10491 0.43376
 C1276 C 0.42066 1.10985 0.40360
 H1277 H 0.33447 1.20136 0.41883
 H1278 H 0.30606 1.22640 0.37703
 H1279 H 0.36620 1.16904 0.31884
 H1280 H 0.36646 1.16437 0.45313
 H1281 H 0.39862 1.12126 0.47472
 H1282 H 0.43435 1.09449 0.38941
 C1283 C 1.14533 0.64031 0.14177
 C1284 C 1.15966 0.64542 0.11481
 C1285 C 1.18554 0.66692 0.10939
 C1286 C 1.19736 0.68391 0.13272
 C1287 C 1.18352 0.67911 0.16103
 C1288 C 1.15699 0.65688 0.16555
 O1289 O 1.12116 0.61848 0.14198
 C1290 C 1.12047 0.60967 0.11460
 C1291 C 1.14372 0.62542 0.09722
 C1292 C 1.14840 0.61946 0.06806
 C1293 C 1.12831 0.59616 0.05625
 C1294 C 1.10387 0.57964 0.07354
 C1295 C 1.09970 0.58664 0.10314
 H1296 H 1.19645 0.67038 0.08797
 H1297 H 1.21793 0.70049 0.12864
 H1298 H 1.14599 0.65252 0.18679
 H1299 H 1.16712 0.63210 0.05495
 H1300 H 1.13170 0.59109 0.03357
 H1301 H 1.08150 0.57419 0.11688
 C1302 C 0.64696 1.14237 0.63779
 C1303 C 0.66175 1.14651 0.61085
 C1304 C 0.68753 1.16806 0.60502
 C1305 C 0.69878 1.18602 0.62793
 C1306 C 0.68449 1.18205 0.65620
 C1307 C 0.65803 1.15984 0.66108
 O1308 O 0.62299 1.12042 0.63860
 C1309 C 0.62285 1.11049 0.61161
 C1310 C 0.64627 1.12563 0.59386
 C1311 C 0.65140 1.11836 0.56502
 C1312 C 0.63156 1.09446 0.55397
 C1313 C 0.60688 1.07864 0.57169
 C1314 C 0.60236 1.08690 0.60093
 H1315 H 0.69883 1.17081 0.58364
 H1316 H 0.71929 1.20260 0.62367
 H1317 H 0.64667 1.15611 0.68232
 H1318 H 0.67024 1.13050 0.55157
 H1319 H 0.63525 1.08843 0.53156
 H1320 H 0.58397 1.07505 0.61501
 C1321 C 0.84002 0.36333 0.13816
 C1322 C 0.82114 0.36283 0.11255
 C1323 C 0.78972 0.34650 0.10871
 C1324 C 0.77744 0.32965 0.13217
 C1325 C 0.79647 0.32960 0.15888
 C1326 C 0.82806 0.34699 0.16194
 O1327 O 0.86940 0.38019 0.13706
 C1328 C 0.86895 0.39054 0.11018
 C1329 C 0.83992 0.38060 0.09435
 C1330 C 0.83380 0.38892 0.06584
 C1331 C 0.85843 0.40865 0.05320
 C1332 C 0.88851 0.41935 0.06910
 C1333 C 0.89404 0.40990 0.09792
 H1334 H 0.77536 0.34651 0.08833
 H1335 H 0.75313 0.31658 0.12946
 H1336 H 0.84331 0.34725 0.18192
 H1337 H 0.81070 0.38079 0.05388
 H1338 H 0.85393 0.41570 0.03110
 H1339 H 0.91657 0.41793 0.11063
 C1340 C 0.34115 0.86106 0.64005
 C1341 C 0.32845 0.85535 0.61274
 C1342 C 0.30211 0.83429 0.60715
 C1343 C 0.28827 0.81825 0.63062
 C1344 C 0.30033 0.82374 0.65946
 C1345 C 0.32723 0.84586 0.66393
 O1346 O 0.36675 0.88172 0.64049
 C1347 C 0.37008 0.88926 0.61285
 C1348 C 0.34701 0.87391 0.59504
 C1349 C 0.34511 0.87887 0.56542
 C1350 C 0.36778 0.90072 0.55369
 C1351 C 0.39216 0.91661 0.57151
 C1352 C 0.39352 0.91061 0.60151
 H1353 H 0.29266 0.83017 0.58540
 H1354 H 0.26778 0.80175 0.62606
 H1355 H 0.33763 0.85089 0.68524
 H1356 H 0.32651 0.86664 0.55190
 H1357 H 0.36650 0.90518 0.53071
 H1358 H 0.41154 0.92272 0.61564
 C1359 C 0.36690 1.15758 -0.13834
 C1360 C 0.35857 1.16743 -0.11108
 C1361 C 0.33351 1.18966 -0.10594
 C1362 C 0.31616 1.20230 -0.12987
 C1363 C 0.32386 1.19246 -0.15838
 C1364 C 0.34995 1.16986 -0.16259
 O1365 O 0.39022 1.13515 -0.13820
 C1366 C 0.39653 1.13075 -0.11026
 C1367 C 0.37776 1.14995 -0.09280
 C1368 C 0.37827 1.14806 -0.06285
 C1369 C 0.39845 1.12502 -0.05034
 C1370 C 0.41774 1.10476 -0.06786
 C1371 C 0.41739 1.10804 -0.09824
 H1372 H 0.32719 1.19680 -0.08424
 H1373 H 0.29653 1.21967 -0.12601
 H1374 H 0.35630 1.16167 -0.18393
 H1375 H 0.36278 1.16318 -0.04963
 H1376 H 0.39844 1.12256 -0.02706
 H1377 H 0.43115 1.09240 -0.11209
 C1378 C 0.83458 0.65420 0.38325
 C1379 C 0.81779 0.62732 0.37879
 C1380 C 0.79208 0.62287 0.35740
 C1381 C 0.78361 0.64700 0.33960
 C1382 C 0.80084 0.67474 0.34344
 C1383 C 0.82625 0.67872 0.36584
 O1384 O 0.86073 0.65271 0.40288
 C1385 C 0.86056 0.62432 0.41071
 C1386 C 0.83478 0.60788 0.39654
 C1387 C 0.83246 0.57717 0.39881
 C1388 C 0.85828 0.56269 0.41598
 C1389 C 0.88520 0.57911 0.43063
 C1390 C 0.88585 0.61040 0.42858
 H1391 H 0.77992 0.60135 0.35390
 H1392 H 0.76433 0.64393 0.32221
 H1393 H 0.84038 0.69956 0.36852
 H1394 H 0.81256 0.56470 0.38675
 H1395 H 0.85797 0.53869 0.41724
 H1396 H 0.90704 0.62324 0.43875
 C1397 C 0.65079 1.13717 0.14073
 C1398 C 0.66620 1.14184 0.11407
 C1399 C 0.69172 1.16370 0.10889
 C1400 C 0.70194 1.18153 0.13213
 C1401 C 0.68694 1.17713 0.16009
 C1402 C 0.66099 1.15445 0.16443
 O1403 O 0.62665 1.11534 0.14068
 C1404 C 0.62708 1.10607 0.11346
 C1405 C 0.65103 1.12147 0.09641
 C1406 C 0.65645 1.11519 0.06738
 C1407 C 0.63624 1.09204 0.05533
 C1408 C 0.61093 1.07606 0.07229
 C1409 C 0.60626 1.08324 0.10179
 H1410 H 0.70338 1.16693 0.08769
 H1411 H 0.72209 1.19851 0.12832
 H1412 H 0.64901 1.15055 0.18542
 H1413 H 0.67563 1.12760 0.05449
 H1414 H 0.63999 1.08683 0.03273
 H1415 H 0.58728 1.07128 0.11528
 C1416 C 1.15606 0.65123 0.62740
 C1417 C 1.17064 0.62379 0.63361
 C1418 C 1.19456 0.61885 0.65620
 C1419 C 1.20357 0.64308 0.67342
 C1420 C 1.18878 0.67161 0.66786
 C1421 C 1.16520 0.67600 0.64412
 O1422 O 1.13149 0.65025 0.60641
 C1423 C 1.13058 0.62164 0.59946
 C1424 C 1.15413 0.60462 0.61552
 C1425 C 1.15560 0.57387 0.61380
 C1426 C 1.13130 0.55992 0.59508
 C1427 C 1.10645 0.57680 0.57847
 C1428 C 1.10658 0.60818 0.58019
 H1429 H 1.20512 0.59695 0.66091
 H1430 H 1.22177 0.63956 0.69148
 H1431 H 1.15305 0.69744 0.63982
 H1432 H 1.17392 0.56101 0.62715
 H1433 H 1.13126 0.53591 0.59401
 H1434 H 1.08714 0.62149 0.56833
 C1435 C 0.63662 0.83885 -0.12882
 C1436 C 0.60094 0.83735 -0.13722
 C1437 C 0.58942 0.82155 -0.16118
 C1438 C 0.61582 0.80704 -0.17748
 C1439 C 0.65286 0.80844 -0.16955
 C1440 C 0.66337 0.82402 -0.14447
 O1441 O 0.64206 0.85749 -0.10711
 C1442 C 0.60914 0.86802 -0.10184
 C1443 C 0.58307 0.85627 -0.11966
 C1444 C 0.54741 0.86599 -0.11985
 C1445 C 0.53831 0.88922 -0.10127
 C1446 C 0.56474 0.90212 -0.08301
 C1447 C 0.60050 0.89089 -0.08279
 H1448 H 0.56129 0.82126 -0.16768
 H1449 H 0.60753 0.79516 -0.19666
 H1450 H 0.69157 0.82604 -0.13843
 H1451 H 0.52762 0.85677 -0.13451
 H1452 H 0.51088 0.89768 -0.10167
 H1453 H 0.62137 0.90089 -0.06963
 C1454 C 1.15296 0.35044 0.36987
 C1455 C 1.16148 0.37797 0.35879
 C1456 C 1.17984 0.38201 0.33305
 C1457 C 1.18974 0.35663 0.31790
 C1458 C 1.18136 0.32793 0.32863
 C1459 C 1.16325 0.32460 0.35529
 O1460 O 1.13269 0.35198 0.39348
 C1461 C 1.12837 0.38102 0.39716
 C1462 C 1.14566 0.39778 0.37652
 C1463 C 1.14270 0.42846 0.37472
 C1464 C 1.12029 0.44253 0.39473
 C1465 C 1.10154 0.42582 0.41590
 C1466 C 1.10628 0.39467 0.41758
 H1467 H 1.18563 0.40393 0.32461
 H1468 H 1.20394 0.35930 0.29761
 H1469 H 1.15621 0.30289 0.36365
 H1470 H 1.15618 0.44099 0.35792
 H1471 H 1.11678 0.46635 0.39322
 H1472 H 1.09157 0.38134 0.43312
 C1473 C 0.34821 0.85968 0.13978
 C1474 C 0.32978 0.85834 0.11399
 C1475 C 0.29961 0.84062 0.10987
 C1476 C 0.28795 0.82339 0.13325
 C1477 C 0.30629 0.82432 0.16026
 C1478 C 0.33683 0.84293 0.16356
 O1479 O 0.37630 0.87801 0.13893
 C1480 C 0.37540 0.88845 0.11206
 C1481 C 0.34734 0.87716 0.09600
 C1482 C 0.34069 0.88551 0.06756
 C1483 C 0.36379 0.90661 0.05517
 C1484 C 0.39301 0.91858 0.07121
 C1485 C 0.39907 0.90915 0.10000
 H1486 H 0.28557 0.84001 0.08935
 H1487 H 0.26439 0.80948 0.13029
 H1488 H 0.35149 0.84406 0.18378
 H1489 H 0.31829 0.87636 0.05546
 H1490 H 0.35891 0.91363 0.03311
 H1491 H 0.42094 0.91816 0.11282
 C1492 C 0.82886 0.35408 0.62027
 C1493 C 0.81742 0.38243 0.62646
 C1494 C 0.79516 0.38903 0.64967
 C1495 C 0.78463 0.36551 0.66752
 C1496 C 0.79621 0.33616 0.66178
 C1497 C 0.81796 0.33014 0.63746
 O1498 O 0.85337 0.35327 0.59936
 C1499 C 0.85758 0.38168 0.59239
 C1500 C 0.83602 0.40035 0.60832
 C1501 C 0.83881 0.43106 0.60710
 C1502 C 0.86557 0.44308 0.58926
 C1503 C 0.88865 0.42437 0.57308
 C1504 C 0.88394 0.39326 0.57397
 H1505 H 0.78740 0.41162 0.65454
 H1506 H 0.76807 0.37018 0.68624
 H1507 H 0.82795 0.30798 0.63326
 H1508 H 0.82214 0.44520 0.62044
 H1509 H 0.86921 0.46693 0.58883
 H1510 H 0.90211 0.37854 0.56259
 C1511 C 1.14327 1.15484 0.63172
 C1512 C 1.16059 1.15621 0.60551
 C1513 C 1.19010 1.17467 0.60048
 C1514 C 1.20247 1.19220 0.62349
 C1515 C 1.18552 1.19074 0.65097
 C1516 C 1.15520 1.17190 0.65488
 O1517 O 1.11651 1.13522 0.63236
 C1518 C 1.11703 1.12380 0.60600
 C1519 C 1.14359 1.13580 0.58875
 C1520 C 1.15019 1.12591 0.56086
 C1521 C 1.12877 1.10257 0.55045
 C1522 C 1.10118 1.08985 0.56781
 C1523 C 1.09498 1.10094 0.59588
 H1524 H 1.20348 1.17521 0.57972
 H1525 H 1.22583 1.20624 0.62008
 H1526 H 1.14167 1.17006 0.67553
 H1527 H 1.17152 1.13541 0.54780
 H1528 H 1.13384 1.09429 0.52893
 H1529 H 1.07455 1.09134 0.60979
 C1530 C 0.64463 0.64919 0.13494
 C1531 C 0.66210 0.65110 0.10882
 C1532 C 0.69191 0.66933 0.10432
 C1533 C 0.70433 0.68618 0.12775
 C1534 C 0.68710 0.68429 0.15509
 C1535 C 0.65661 0.66557 0.15852
 O1536 O 0.61744 0.62998 0.13494
 C1537 C 0.61784 0.61940 0.10826
 C1538 C 0.64472 0.63154 0.09143
 C1539 C 0.65111 0.62260 0.06322
 C1540 C 0.62914 0.60004 0.05201
 C1541 C 0.60126 0.58715 0.06895
 C1542 C 0.59527 0.59729 0.09738
 H1543 H 0.70537 0.67032 0.08360
 H1544 H 0.72778 0.70022 0.12468
 H1545 H 0.64281 0.66348 0.17903
 H1546 H 0.67267 0.63223 0.05048
 H1547 H 0.63403 0.59246 0.03021
 H1548 H 0.57459 0.58754 0.11095
 C1549 C 1.13354 0.83715 0.36876
 C1550 C 1.14639 0.83059 0.39592
 C1551 C 1.17269 0.80911 0.40096
 C1552 C 1.18659 0.79394 0.37701
 C1553 C 1.17431 0.80053 0.34857
 C1554 C 1.14700 0.82234 0.34459
 O1555 O 1.10955 0.85914 0.36857
 C1556 C 1.10731 0.86668 0.39621
 C1557 C 1.12938 0.84992 0.41383
 C1558 C 1.13273 0.85506 0.44329
 C1559 C 1.11282 0.87864 0.45504
 C1560 C 1.08994 0.89637 0.43736
 C1561 C 1.08683 0.88998 0.40754
 H1562 H 1.18261 0.80452 0.42252
 H1563 H 1.20748 0.77749 0.38068
 H1564 H 1.13722 0.82827 0.32328
 H1565 H 1.15061 0.84181 0.45666
 H1566 H 1.11556 0.88329 0.47785
 H1567 H 1.07012 0.90343 0.39340
 C1568 C 0.62860 0.33826 -0.13521
 C1569 C 0.64047 0.33097 -0.10794
 C1570 C 0.66611 0.30898 -0.10281
 C1571 C 0.68042 0.29408 -0.12676
 C1572 C 0.66913 0.30140 -0.15529
 C1573 C 0.64240 0.32367 -0.15938
 O1574 O 0.60538 0.36080 -0.13546
 C1575 C 0.60264 0.36795 -0.10775
 C1576 C 0.62364 0.35037 -0.09004
 C1577 C 0.62653 0.35502 -0.06048
 C1578 C 0.60734 0.37896 -0.04872
 C1579 C 0.58563 0.39757 -0.06648
 C1580 C 0.58286 0.39166 -0.09641
 H1581 H 0.67532 0.30386 -0.08115
 H1582 H 0.70089 0.27729 -0.12301
 H1583 H 0.63347 0.33022 -0.18076
 H1584 H 0.64361 0.34113 -0.04704
 H1585 H 0.60981 0.38323 -0.02581
 H1586 H 0.56708 0.40580 -0.11060
 C1587 C 0.86770 1.16346 0.36768
 C1588 C 0.90343 1.16387 0.35942
 C1589 C 0.91602 1.18092 0.33648
 C1590 C 0.89068 1.19780 0.32097
 C1591 C 0.85352 1.19757 0.32861
 C1592 C 0.84199 1.18060 0.35276
 O1593 O 0.86115 1.14394 0.38869
 C1594 C 0.89341 1.13175 0.39367
 C1595 C 0.92011 1.14325 0.37628
 C1596 C 0.95532 1.13241 0.37624
 C1597 C 0.96336 1.10854 0.39467
 C1598 C 0.93644 1.09602 0.41280
 C1599 C 0.90101 1.10815 0.41261
 H1600 H 0.94417 1.18045 0.33012
 H1601 H 0.89983 1.21050 0.30247
 H1602 H 0.81368 1.17929 0.35852
 H1603 H 0.97568 1.14153 0.36199
 H1604 H 0.99055 1.09956 0.39453
 H1605 H 0.87973 1.09866 0.42575
 C1606 C 0.38219 0.65982 -0.14712
 C1607 C 0.38108 0.67142 -0.11973
 C1608 C 0.36274 0.69743 -0.11315
 C1609 C 0.34430 0.71195 -0.13560
 C1610 C 0.34429 0.70035 -0.16408
 C1611 C 0.36417 0.67409 -0.16995
 O1612 O 0.39914 0.63377 -0.14820
 C1613 C 0.40875 0.62882 -0.12088
 C1614 C 0.39821 0.65125 -0.10266
 C1615 C 0.40262 0.64973 -0.07289
 C1616 C 0.41796 0.62384 -0.06130
 C1617 C 0.42899 0.60028 -0.07946
 C1618 C 0.42498 0.60302 -0.10978
 H1619 H 0.36186 0.70586 -0.09132
 H1620 H 0.32936 0.73195 -0.13057
 H1621 H 0.36412 0.66427 -0.19124
 H1622 H 0.39339 0.66741 -0.05898
 H1623 H 0.42059 0.62186 -0.03807
 H1624 H 0.43214 0.58496 -0.12401
 C1625 C 0.85385 0.85595 0.63679
 C1626 C 0.83905 0.85154 0.60990
 C1627 C 0.81366 0.82949 0.60446
 C1628 C 0.80280 0.81144 0.62771
 C1629 C 0.81705 0.81584 0.65589
 C1630 C 0.84322 0.83842 0.66029
 O1631 O 0.87723 0.87833 0.63744
 C1632 C 0.87706 0.88837 0.61041
 C1633 C 0.85399 0.87285 0.59272
 C1634 C 0.84867 0.88029 0.56383
 C1635 C 0.86786 0.90469 0.55273
 C1636 C 0.89215 0.92093 0.57040
 C1637 C 0.89688 0.91246 0.59967
 H1638 H 0.80228 0.82649 0.58313
 H1639 H 0.78254 0.79458 0.62386
 H1640 H 0.85458 0.84256 0.68145
 H1641 H 0.83014 0.86792 0.55037
 H1642 H 0.86395 0.91081 0.53030
 H1643 H 0.91495 0.92453 0.61378
 C1644 C 0.35362 0.35380 0.13457
 C1645 C 0.33809 0.35003 0.10784
 C1646 C 0.31169 0.32879 0.10253
 C1647 C 0.30057 0.31089 0.12578
 C1648 C 0.31564 0.31467 0.15378
 C1649 C 0.34283 0.33639 0.15802
 O1650 O 0.37775 0.37560 0.13518
 C1651 C 0.37732 0.38593 0.10828
 C1652 C 0.35339 0.37113 0.09071
 C1653 C 0.34759 0.37908 0.06202
 C1654 C 0.36718 0.40328 0.05102
 C1655 C 0.39221 0.41880 0.06863
 C1656 C 0.39748 0.40978 0.09766
 H1657 H 0.29973 0.32632 0.08133
 H1658 H 0.27957 0.29462 0.12205
 H1659 H 0.35485 0.34003 0.17905
 H1660 H 0.32837 0.36729 0.04868
 H1661 H 0.36288 0.40988 0.02876
 H1662 H 0.41612 0.42135 0.11170
   
