data_POSCAR
  _audit_creation_date              2014-09-24
  _audit_creation_method            'ToBaCCo'
  _symmetry_space_group_name_H-M    'P1'
  _symmetry_Int_Tables_number       1
  _symmetry_cell_setting            triclinic
  loop_
  _symmetry_equiv_pos_as_xyz
 x,y,z
_cell_length_a 47.0696
_cell_length_b 47.0120
_cell_length_c 47.0314
_cell_angle_alpha 89.915600
_cell_angle_beta 90.087800
_cell_angle_gamma 89.914600
loop_
  _atom_site_label
  _atom_site_type_symbol
  _atom_site_fract_x
  _atom_site_fract_y
  _atom_site_fract_z
C1 C 0.25080 1.02091 0.00755
 C2 C 0.24887 1.02143 -0.02235
 C3 C 0.24688 0.99567 -0.03728
 C4 C 0.24666 0.96944 -0.02289
 C5 C 0.24829 0.96915 0.00709
 C6 C 0.25039 0.99485 0.02186
 H7 H 0.25177 0.99452 0.04493
 H8 H 0.24554 0.99604 -0.06035
 C9 C 0.74866 0.46668 0.47843
 C10 C 0.75030 0.46665 0.50837
 C11 C 0.75292 0.49245 0.52288
 C12 C 0.75374 0.51829 0.50825
 C13 C 0.75181 0.51852 0.47844
 C14 C 0.74939 0.49270 0.46376
 H15 H 0.74802 0.49288 0.44072
 H16 H 0.75424 0.49245 0.54594
 C17 C 0.75158 1.00895 1.01895
 C18 C 0.75295 0.97906 1.01918
 C19 C 0.75497 0.96433 0.99336
 C20 C 0.75550 0.97891 0.96729
 C21 C 0.75404 1.00891 0.96720
 C22 C 0.75217 1.02352 0.99305
 H23 H 0.75101 1.04663 0.99301
 H24 H 0.75601 0.94126 0.99356
 C25 C 0.25349 0.50938 0.46675
 C26 C 0.25459 0.47939 0.46706
 C27 C 0.25379 0.46501 0.49325
 C28 C 0.25190 0.48000 0.51894
 C29 C 0.25094 0.50987 0.51844
 C30 C 0.25176 0.52421 0.49245
 H31 H 0.25090 0.54730 0.49222
 H32 H 0.25454 0.44194 0.49364
 C33 C 1.01818 0.24797 -0.00924
 C34 C 1.01876 0.24679 0.02065
 C35 C 0.99315 0.24456 0.03569
 C36 C 0.96696 0.24363 0.02139
 C37 C 0.96655 0.24491 -0.00857
 C38 C 0.99214 0.24698 -0.02348
 H39 H 0.99173 0.24800 -0.04657
 H40 H 0.99360 0.24366 0.05875
 C41 C 0.46856 0.74538 0.52114
 C42 C 0.46841 0.74657 0.49116
 C43 C 0.49418 0.74816 0.47649
 C44 C 0.52008 0.74873 0.49096
 C45 C 0.52042 0.74765 0.52082
 C46 C 0.49466 0.74591 0.53566
 H47 H 0.49492 0.74508 0.55872
 H48 H 0.49408 0.74910 0.45341
 C49 C 0.00937 0.74706 -0.02068
 C50 C -0.02053 0.74875 -0.02088
 C51 C -0.03515 0.75073 0.00503
 C52 C -0.02046 0.75123 0.03104
 C53 C 0.00946 0.74978 0.03104
 C54 C 0.02396 0.74763 0.00521
 H55 H 0.04703 0.74648 0.00531
 H56 H -0.05819 0.75193 0.00501
 C57 C 0.47739 0.24860 0.48060
 C58 C 0.50717 0.24655 0.48115
 C59 C 0.52149 0.24716 0.50715
 C60 C 0.50672 0.24969 0.53279
 C61 C 0.47681 0.25149 0.53245
 C62 C 0.46244 0.25097 0.50626
 H63 H 0.43943 0.25244 0.50583
 H64 H 0.54453 0.24572 0.50741
 C65 C 1.03235 0.02194 0.24711
 C66 C 1.03300 -0.00806 0.24856
 C67 C 1.00753 -0.02315 0.25098
 C68 C 0.98136 -0.00912 0.25176
 C69 C 0.98050 0.02075 0.24993
 C70 C 1.00599 0.03601 0.24773
 H71 H 1.00524 0.05907 0.24648
 H72 H 1.00812 -0.04623 0.25221
 C73 C 0.48013 0.49257 0.75326
 C74 C 0.48015 0.52238 0.75113
 C75 C 0.50608 0.53684 0.74891
 C76 C 0.53197 0.52194 0.74856
 C77 C 0.53173 0.49199 0.75032
 C78 C 0.50582 0.47771 0.75276
 H79 H 0.50562 0.45465 0.75421
 H80 H 0.50612 0.55988 0.74743
 C81 C 1.02038 0.98215 0.75373
 C82 C 0.99056 0.98203 0.75286
 C83 C 0.97567 1.00770 0.75386
 C84 C 0.98993 1.03373 0.75567
 C85 C 1.01992 1.03401 0.75672
 C86 C 1.03481 1.00812 0.75575
 H87 H 1.05786 1.00819 0.75644
 H88 H 0.95259 1.00735 0.75302
 C89 C 0.52130 0.48010 0.25343
 C90 C 0.49147 0.48077 0.25252
 C91 C 0.47732 0.50687 0.25337
 C92 C 0.49231 0.53248 0.25507
 C93 C 0.52226 0.53200 0.25614
 C94 C 0.53645 0.50570 0.25532
 H95 H 0.55950 0.50516 0.25603
 H96 H 0.45426 0.50724 0.25253
 O97 O 0.26370 0.17684 0.19507
 O98 O 0.29549 0.16862 0.23535
 O99 O 0.18982 0.21003 0.23676
 O100 O 0.17977 0.24702 0.26541
 O101 O 0.22386 0.25109 0.16175
 O102 O 0.26367 0.28298 0.15456
 O103 O 0.26398 0.28994 0.30873
 O104 O 0.23028 0.25107 0.31584
 O105 O 0.33716 0.24981 0.27470
 O106 O 0.34478 0.21725 0.23512
 O107 O 0.30315 0.32311 0.23714
 O108 O 0.26215 0.33115 0.20295
 O109 O 0.26424 0.32373 0.27420
 O110 O 0.23308 0.33312 0.23450
 O111 O 0.33673 0.28846 0.23879
 O112 O 0.34263 0.25089 0.20156
 O113 O 0.30280 0.25124 0.30861
 O114 O 0.26566 0.22058 0.31952
 O115 O 0.26404 0.21163 0.16146
 O116 O 0.29436 0.25092 0.15320
 O117 O 0.18984 0.25019 0.19598
 O118 O 0.18260 0.28262 0.23538
 O119 O 0.22424 0.17612 0.23540
 O120 O 0.26342 0.16720 0.26587
 Zr121 Zr 0.26239 0.19906 0.23410
 O122 O 0.28849 0.22332 0.26106
 Zr123 Zr 0.21242 0.24885 0.23458
 O124 O 0.23679 0.27569 0.26104
 Zr125 Zr 0.26236 0.24954 0.18465
 O126 O 0.28926 0.27556 0.20912
 Zr127 Zr 0.26410 0.25099 0.28626
 O128 O 0.23748 0.22373 0.26209
 Zr129 Zr 0.31403 0.25028 0.23641
 O130 O 0.28987 0.22390 0.20918
 Zr131 Zr 0.26430 0.30072 0.23613
 O132 O 0.23711 0.27665 0.20954
 O133 O 0.23594 0.22282 0.20789
 O134 O 0.29076 0.27726 0.26283
 C135 C 0.26439 0.18540 0.16904
 C136 C 0.19812 0.18388 0.23681
 C137 C 0.19777 0.25127 0.16985
 C138 C 0.26410 0.31606 0.30038
 C139 C 0.32896 0.25051 0.30076
 C140 C 0.32913 0.31465 0.23853
 H141 H 0.30002 0.21035 0.27293
 H142 H 0.30143 0.28705 0.19640
 H143 H 0.22379 0.21069 0.19574
 H144 H 0.22403 0.28742 0.27290
 H145 H 0.21725 0.23549 0.31029
 H146 H 0.18589 0.25867 0.28180
 H147 H 0.36151 0.25740 0.20833
 H148 H 0.31010 0.23880 0.16019
 H149 H 0.27390 0.20296 0.31163
 H150 H 0.25019 0.17342 0.28099
 H151 H 0.27910 0.32867 0.19080
 H152 H 0.24954 0.29730 0.16074
 H153 H 0.30969 0.17461 0.22104
 H154 H 0.34030 0.20334 0.25024
 H155 H 0.18885 0.29671 0.22104
 H156 H 0.21787 0.32789 0.24801
 O157 O 0.75121 0.83717 0.22402
 O158 O 0.71969 0.84520 0.26537
 O159 O 0.82508 0.80344 0.26487
 O160 O 0.83503 0.76668 0.29416
 O161 O 0.79154 0.76287 0.19027
 O162 O 0.75150 0.73156 0.18239
 O163 O 0.75118 0.72401 0.33731
 O164 O 0.78459 0.76169 0.34458
 O165 O 0.67809 0.76205 0.30319
 O166 O 0.67126 0.79659 0.26827
 O167 O 0.71182 0.69028 0.26449
 O168 O 0.75304 0.68187 0.23186
 O169 O 0.75045 0.69009 0.30299
 O170 O 0.78235 0.68068 0.26296
 O171 O 0.67803 0.72475 0.26596
 O172 O 0.67212 0.76154 0.23001
 O173 O 0.71273 0.76171 0.33697
 O174 O 0.75078 0.79412 0.34670
 O175 O 0.75091 0.80288 0.19003
 O176 O 0.72065 0.76328 0.18142
 O177 O 0.82538 0.76342 0.22478
 O178 O 0.83237 0.73087 0.26372
 O179 O 0.79054 0.83727 0.26421
 O180 O 0.75173 0.84576 0.29487
 Zr181 Zr 0.75243 0.81442 0.26270
 O182 O 0.72633 0.78990 0.28931
 Zr183 Zr 0.80257 0.76468 0.26303
 O184 O 0.77830 0.73779 0.28942
 Zr185 Zr 0.75272 0.76451 0.21290
 O186 O 0.72603 0.73814 0.23735
 Zr187 Zr 0.75111 0.76255 0.31452
 O188 O 0.77766 0.78974 0.29047
 Zr189 Zr 0.70097 0.76289 0.26473
 O190 O 0.72487 0.78976 0.23751
 Zr191 Zr 0.75078 0.71276 0.26449
 O192 O 0.77780 0.73709 0.23786
 O193 O 0.77901 0.79097 0.23641
 O194 O 0.72445 0.73608 0.29118
 C195 C 0.75043 0.82904 0.19793
 C196 C 0.81668 0.82954 0.26511
 C197 C 0.81765 0.76242 0.19861
 C198 C 0.75075 0.69793 0.32915
 C199 C 0.68655 0.76153 0.32925
 C200 C 0.68573 0.69858 0.26532
 H201 H 0.71432 0.80272 0.30084
 H202 H 0.71398 0.72669 0.22449
 H203 H 0.79113 0.80314 0.22427
 H204 H 0.79106 0.72605 0.30136
 H205 H 0.79834 0.77654 0.33880
 H206 H 0.82946 0.75409 0.31007
 H207 H 0.65267 0.75924 0.23778
 H208 H 0.70476 0.77502 0.18865
 H209 H 0.73740 0.80928 0.34090
 H210 H 0.76410 0.83866 0.31039
 H211 H 0.73718 0.68547 0.21850
 H212 H 0.76513 0.71685 0.18888
 H213 H 0.70694 0.84225 0.24890
 H214 H 0.67348 0.80858 0.25112
 H215 H 0.82575 0.71660 0.24975
 H216 H 0.79685 0.68527 0.27747
 O217 O 0.74693 0.17505 0.78820
 O218 O 0.72201 0.16362 0.74999
 O219 O 0.82287 0.21175 0.74969
 O220 O 0.83247 0.25030 0.72181
 O221 O 0.78644 0.24992 0.82464
 O222 O 0.74777 0.27773 0.83458
 O223 O 0.74596 0.28615 0.67595
 O224 O 0.77454 0.24822 0.66506
 O225 O 0.67324 0.25125 0.71431
 O226 O 0.66620 0.21911 0.74995
 O227 O 0.71129 0.32363 0.74849
 O228 O 0.74931 0.33437 0.77730
 O229 O 0.74774 0.32153 0.70865
 O230 O 0.78343 0.32827 0.75098
 O231 O 0.67594 0.29083 0.74907
 O232 O 0.67082 0.25364 0.78703
 O233 O 0.70594 0.24978 0.67884
 O234 O 0.74849 0.21396 0.67165
 O235 O 0.74827 0.20807 0.82340
 O236 O 0.71450 0.24917 0.83010
 O237 O 0.82145 0.25000 0.79142
 O238 O 0.82775 0.28379 0.75010
 O239 O 0.78990 0.17653 0.75018
 O240 O 0.74819 0.17064 0.71552
 Zr241 Zr 0.75025 0.19846 0.75080
 O242 O 0.72181 0.22276 0.72603
 Zr243 Zr 0.79925 0.24908 0.75195
 O244 O 0.77476 0.27396 0.72374
 Zr245 Zr 0.74895 0.24761 0.80130
 O246 O 0.72390 0.27573 0.77699
 Zr247 Zr 0.74615 0.24896 0.69983
 O248 O 0.77498 0.22374 0.72376
 Zr249 Zr 0.69772 0.25117 0.75097
 O250 O 0.72194 0.22263 0.77620
 Zr251 Zr 0.74860 0.29994 0.74846
 O252 O 0.77405 0.27596 0.77696
 O253 O 0.77604 0.22188 0.77782
 O254 O 0.72086 0.27663 0.72314
 C255 C 0.74688 0.18215 0.81447
 C256 C 0.81581 0.18549 0.74923
 C257 C 0.81263 0.25072 0.81740
 C258 C 0.74649 0.31245 0.68280
 C259 C 0.68008 0.25083 0.68800
 C260 C 0.68502 0.31672 0.74830
 H261 H 0.70933 0.20990 0.71506
 H262 H 0.71258 0.28797 0.78981
 H263 H 0.78817 0.20970 0.79001
 H264 H 0.78752 0.28511 0.71132
 H265 H 0.79269 0.25620 0.67197
 H266 H 0.82523 0.24046 0.70469
 H267 H 0.65142 0.25847 0.78030
 H268 H 0.70227 0.23256 0.82596
 H269 H 0.72976 0.20444 0.67158
 H270 H 0.76574 0.17356 0.70431
 H271 H 0.74084 0.32743 0.79523
 H272 H 0.75772 0.29481 0.82739
 H273 H 0.70269 0.17185 0.75097
 H274 H 0.67084 0.20565 0.76550
 H275 H 0.82400 0.29578 0.76697
 H276 H 0.79332 0.32802 0.73243
 O277 O 0.23657 0.81141 0.78976
 O278 O 0.26780 0.81982 0.74796
 O279 O 0.16249 0.77758 0.74785
 O280 O 0.15294 0.74121 0.71874
 O281 O 0.19615 0.73748 0.82271
 O282 O 0.23623 0.70552 0.83056
 O283 O 0.23773 0.69812 0.67634
 O284 O 0.20340 0.73633 0.66884
 O285 O 0.31004 0.73718 0.71013
 O286 O 0.31677 0.77083 0.74540
 O287 O 0.27560 0.66458 0.74913
 O288 O 0.23465 0.65654 0.78180
 O289 O 0.23772 0.66440 0.71095
 O290 O 0.20525 0.65554 0.75062
 O291 O 0.30957 0.69877 0.74715
 O292 O 0.31581 0.73565 0.78327
 O293 O 0.27552 0.73682 0.67624
 O294 O 0.23802 0.76794 0.66587
 O295 O 0.23679 0.77680 0.82351
 O296 O 0.26686 0.73750 0.83203
 O297 O 0.16249 0.73787 0.78801
 O298 O 0.15584 0.70518 0.74895
 O299 O 0.19667 0.81164 0.74921
 O300 O 0.23574 0.82074 0.71882
 Zr301 Zr 0.23520 0.78900 0.75070
 O302 O 0.26145 0.76444 0.72408
 Zr303 Zr 0.18538 0.73913 0.74990
 O304 O 0.20973 0.71227 0.72364
 Zr305 Zr 0.23503 0.73883 0.80032
 O306 O 0.26186 0.71256 0.77600
 Zr307 Zr 0.23706 0.73701 0.69868
 O308 O 0.21038 0.76430 0.72262
 Zr309 Zr 0.28694 0.73728 0.74858
 O310 O 0.26286 0.76413 0.77577
 Zr311 Zr 0.23700 0.68734 0.74900
 O312 O 0.20991 0.71158 0.77543
 O313 O 0.20868 0.76536 0.77674
 O314 O 0.26355 0.71049 0.72225
 C315 C 0.23737 0.80301 0.81585
 C316 C 0.17058 0.80370 0.74790
 C317 C 0.17012 0.73710 0.81420
 C318 C 0.23808 0.67206 0.68479
 C319 C 0.30170 0.73699 0.68400
 C320 C 0.30167 0.67265 0.74801
 H321 H 0.27339 0.77733 0.71255
 H322 H 0.27390 0.70106 0.78890
 H323 H 0.19654 0.77755 0.78884
 H324 H 0.19709 0.70054 0.71166
 H325 H 0.19007 0.75172 0.67426
 H326 H 0.15873 0.72892 0.70271
 H327 H 0.33519 0.73285 0.77548
 H328 H 0.28303 0.74870 0.82462
 H329 H 0.24830 0.78470 0.67321
 H330 H 0.22298 0.81407 0.70347
 H331 H 0.25052 0.66006 0.79515
 H332 H 0.22197 0.69132 0.82446
 H333 H 0.28063 0.81675 0.76436
 H334 H 0.31415 0.78295 0.76237
 H335 H 0.16206 0.69118 0.76343
 H336 H 0.19113 0.65982 0.73561
 O337 O 0.24809 0.33942 0.72475
 O338 O 0.21634 0.34741 0.76605
 O339 O 0.32174 0.30560 0.76584
 O340 O 0.33172 0.26881 0.79499
 O341 O 0.28826 0.26499 0.69112
 O342 O 0.24813 0.23375 0.68324
 O343 O 0.24776 0.22628 0.83817
 O344 O 0.28123 0.26397 0.84542
 O345 O 0.17474 0.26440 0.80398
 O346 O 0.16801 0.29902 0.76907
 O347 O 0.20840 0.19265 0.76538
 O348 O 0.24958 0.18412 0.73275
 O349 O 0.24701 0.19237 0.80385
 O350 O 0.27892 0.18293 0.76382
 O351 O 0.17467 0.22719 0.76680
 O352 O 0.16879 0.26392 0.73083
 O353 O 0.20935 0.26401 0.83779
 O354 O 0.24746 0.29643 0.84753
 O355 O 0.24773 0.30509 0.69080
 O356 O 0.21737 0.26555 0.68221
 O357 O 0.32207 0.26558 0.72565
 O358 O 0.32897 0.23302 0.76461
 O359 O 0.28723 0.33946 0.76513
 O360 O 0.24841 0.34812 0.79554
 Zr361 Zr 0.24913 0.31667 0.76347
 O362 O 0.22302 0.29222 0.79013
 Zr363 Zr 0.29923 0.26687 0.76388
 O364 O 0.27493 0.24003 0.79029
 Zr365 Zr 0.24942 0.26674 0.71372
 O366 O 0.22268 0.24044 0.73819
 Zr367 Zr 0.24776 0.26484 0.81537
 O368 O 0.27432 0.29198 0.79129
 Zr369 Zr 0.19765 0.26525 0.76554
 O370 O 0.22158 0.29204 0.73828
 Zr371 Zr 0.24739 0.21504 0.76535
 O372 O 0.27445 0.23930 0.73871
 O373 O 0.27573 0.29317 0.73723
 O374 O 0.22108 0.23842 0.79200
 C375 C 0.24733 0.33125 0.69866
 C376 C 0.31335 0.33170 0.76611
 C377 C 0.31435 0.26453 0.69948
 C378 C 0.24729 0.20020 0.83000
 C379 C 0.18318 0.26383 0.83005
 C380 C 0.18233 0.20101 0.76621
 H381 H 0.21103 0.30506 0.80166
 H382 H 0.21062 0.22900 0.72533
 H383 H 0.28789 0.30532 0.72511
 H384 H 0.28767 0.22828 0.80223
 H385 H 0.29499 0.27880 0.83963
 H386 H 0.32610 0.25630 0.81094
 H387 H 0.14934 0.26169 0.73861
 H388 H 0.20149 0.27730 0.68943
 H389 H 0.23399 0.31153 0.84179
 H390 H 0.26055 0.34094 0.81120
 H391 H 0.23372 0.18772 0.71939
 H392 H 0.26174 0.21903 0.68974
 H393 H 0.20376 0.34459 0.74943
 H394 H 0.17023 0.31098 0.75189
 H395 H 0.32237 0.21877 0.75061
 H396 H 0.29341 0.18748 0.77836
 O397 O 0.76563 0.67622 0.69583
 O398 O 0.79731 0.66814 0.73616
 O399 O 0.69161 0.70936 0.73747
 O400 O 0.68139 0.74640 0.76593
 O401 O 0.72546 0.75024 0.66230
 O402 O 0.76520 0.78228 0.65506
 O403 O 0.76561 0.78954 0.80919
 O404 O 0.73200 0.75070 0.81646
 O405 O 0.83884 0.74954 0.77527
 O406 O 0.84646 0.71684 0.73569
 O407 O 0.80459 0.82262 0.73748
 O408 O 0.76357 0.83052 0.70335
 O409 O 0.76574 0.82325 0.77458
 O410 O 0.73451 0.83247 0.73491
 O411 O 0.83827 0.78807 0.73923
 O412 O 0.84432 0.75047 0.70215
 O413 O 0.80450 0.75093 0.80920
 O414 O 0.76726 0.72014 0.82011
 O415 O 0.76585 0.71092 0.66214
 O416 O 0.79593 0.75029 0.65370
 O417 O 0.69146 0.74936 0.69655
 O418 O 0.68422 0.78194 0.73588
 O419 O 0.72609 0.67552 0.73615
 O420 O 0.76522 0.66677 0.76665
 Zr421 Zr 0.76417 0.69853 0.73480
 O422 O 0.79023 0.72288 0.76170
 Zr423 Zr 0.71408 0.74820 0.73515
 O424 O 0.73839 0.77512 0.76156
 Zr425 Zr 0.76398 0.74888 0.68520
 O426 O 0.79084 0.77500 0.70962
 Zr427 Zr 0.76578 0.75055 0.78683
 O428 O 0.73920 0.72321 0.76272
 Zr429 Zr 0.81568 0.74984 0.73697
 O430 O 0.79157 0.72337 0.70980
 Zr431 Zr 0.76581 0.80015 0.73657
 O432 O 0.73868 0.77599 0.71002
 O433 O 0.73765 0.72215 0.70852
 O434 O 0.79235 0.77683 0.76332
 C435 C 0.76634 0.68472 0.66979
 C436 C 0.69996 0.68324 0.73758
 C437 C 0.69937 0.75039 0.67041
 C438 C 0.76565 0.81564 0.80078
 C439 C 0.83066 0.75026 0.80134
 C440 C 0.83058 0.81423 0.73888
 H441 H 0.80181 0.70996 0.77358
 H442 H 0.80297 0.78648 0.69687
 H443 H 0.72554 0.70994 0.69640
 H444 H 0.72561 0.78685 0.77341
 H445 H 0.71891 0.73518 0.81090
 H446 H 0.68749 0.75805 0.78232
 H447 H 0.86319 0.75698 0.70893
 H448 H 0.81179 0.73837 0.66078
 H449 H 0.77605 0.70269 0.81242
 H450 H 0.75212 0.67311 0.78184
 H451 H 0.78047 0.82800 0.69114
 H452 H 0.75098 0.79653 0.66118
 H453 H 0.81155 0.67415 0.72190
 H454 H 0.84215 0.70306 0.75099
 H455 H 0.69039 0.79596 0.72144
 H456 H 0.71932 0.82724 0.74844
 O457 O 0.24930 0.67672 0.28655
 O458 O 0.22476 0.66529 0.24812
 O459 O 0.32572 0.71324 0.24885
 O460 O 0.33570 0.75177 0.22106
 O461 O 0.28858 0.75143 0.32338
 O462 O 0.24993 0.77948 0.33282
 O463 O 0.25029 0.78767 0.17412
 O464 O 0.27836 0.74943 0.16363
 O465 O 0.17654 0.75315 0.21179
 O466 O 0.16911 0.72086 0.24727
 O467 O 0.21431 0.82534 0.24626
 O468 O 0.25199 0.83606 0.27546
 O469 O 0.25119 0.82311 0.20680
 O470 O 0.28644 0.82986 0.24951
 O471 O 0.17893 0.79257 0.24664
 O472 O 0.17334 0.75538 0.28446
 O473 O 0.20960 0.75158 0.17665
 O474 O 0.25204 0.71546 0.17000
 O475 O 0.25024 0.70977 0.32173
 O476 O 0.21657 0.75103 0.32803
 O477 O 0.32392 0.75154 0.29053
 O478 O 0.33071 0.78529 0.24926
 O479 O 0.29267 0.67809 0.24891
 O480 O 0.25128 0.67225 0.21388
 Zr481 Zr 0.25305 0.70009 0.24916
 O482 O 0.22494 0.72442 0.22405
 Zr483 Zr 0.30214 0.75062 0.25081
 O484 O 0.27799 0.77550 0.22230
 Zr485 Zr 0.25132 0.74929 0.29961
 O486 O 0.22658 0.77743 0.27497
 Zr487 Zr 0.24961 0.75053 0.19808
 O488 O 0.27813 0.72530 0.22237
 Zr489 Zr 0.20064 0.75290 0.24870
 O490 O 0.22453 0.72435 0.27423
 Zr491 Zr 0.25159 0.80158 0.24666
 O492 O 0.27671 0.77759 0.27549
 O493 O 0.27860 0.72348 0.27645
 O494 O 0.22410 0.77829 0.22106
 C495 C 0.24890 0.68384 0.31281
 C496 C 0.31861 0.68699 0.24827
 C497 C 0.31485 0.75220 0.31643
 C498 C 0.25072 0.81399 0.18093
 C499 C 0.18365 0.75276 0.18555
 C500 C 0.18803 0.81845 0.24590
 H501 H 0.21253 0.71159 0.21295
 H502 H 0.21515 0.78970 0.28766
 H503 H 0.29057 0.71127 0.28877
 H504 H 0.29095 0.78657 0.21003
 H505 H 0.29650 0.75731 0.17071
 H506 H 0.32866 0.74189 0.20388
 H507 H 0.15401 0.76017 0.27751
 H508 H 0.20433 0.73445 0.32380
 H509 H 0.23322 0.70611 0.16965
 H510 H 0.26894 0.67512 0.20284
 H511 H 0.24351 0.82908 0.29336
 H512 H 0.26007 0.79649 0.32572
 H513 H 0.20545 0.67355 0.24882
 H514 H 0.17350 0.70743 0.26291
 H515 H 0.32677 0.79731 0.26607
 H516 H 0.29654 0.82953 0.23107
 O517 O 0.73544 0.30758 0.29044
 O518 O 0.76651 0.31612 0.24863
 O519 O 0.66124 0.27388 0.24858
 O520 O 0.65161 0.23750 0.21950
 O521 O 0.69503 0.23372 0.32338
 O522 O 0.73503 0.20161 0.33107
 O523 O 0.73648 0.19457 0.17685
 O524 O 0.70210 0.23264 0.16941
 O525 O 0.80874 0.23356 0.21063
 O526 O 0.81551 0.26712 0.24600
 O527 O 0.77437 0.16084 0.24951
 O528 O 0.73342 0.15277 0.28224
 O529 O 0.73644 0.16076 0.21138
 O530 O 0.70403 0.15178 0.25102
 O531 O 0.80831 0.19506 0.24751
 O532 O 0.81461 0.23179 0.28374
 O533 O 0.77419 0.23328 0.17677
 O534 O 0.73649 0.26449 0.16660
 O535 O 0.73573 0.27291 0.32413
 O536 O 0.76573 0.23353 0.33257
 O537 O 0.66129 0.23415 0.28875
 O538 O 0.65459 0.20144 0.24965
 O539 O 0.69545 0.30790 0.24994
 O540 O 0.73447 0.31702 0.21951
 Zr541 Zr 0.73396 0.28525 0.25136
 O542 O 0.76019 0.26076 0.22468
 Zr543 Zr 0.68411 0.23540 0.25058
 O544 O 0.70845 0.20861 0.22422
 Zr545 Zr 0.73386 0.23499 0.30089
 O546 O 0.76066 0.20877 0.27650
 Zr547 Zr 0.73575 0.23339 0.19927
 O548 O 0.70908 0.26061 0.22330
 Zr549 Zr 0.78570 0.23356 0.24910
 O550 O 0.76165 0.26034 0.27636
 Zr551 Zr 0.73576 0.18361 0.24948
 O552 O 0.70869 0.20779 0.27600
 O553 O 0.70748 0.26158 0.27741
 O554 O 0.76227 0.20683 0.22274
 C555 C 0.73632 0.29913 0.31651
 C556 C 0.66935 0.30000 0.24863
 C557 C 0.66898 0.23339 0.31493
 C558 C 0.73684 0.16849 0.18523
 C559 C 0.80038 0.23343 0.18451
 C560 C 0.80043 0.16893 0.24832
 H561 H 0.77211 0.27368 0.21317
 H562 H 0.77271 0.19724 0.28936
 H563 H 0.69537 0.27378 0.28954
 H564 H 0.69579 0.19690 0.21222
 H565 H 0.68866 0.24790 0.17492
 H566 H 0.65736 0.22522 0.20344
 H567 H 0.83398 0.22903 0.27592
 H568 H 0.78190 0.24472 0.32516
 H569 H 0.74726 0.28103 0.17375
 H570 H 0.72176 0.31031 0.20413
 H571 H 0.74933 0.15623 0.29556
 H572 H 0.72072 0.18746 0.32497
 H573 H 0.77944 0.31296 0.26494
 H574 H 0.81294 0.27915 0.26304
 H575 H 0.66082 0.18744 0.26413
 H576 H 0.68983 0.15616 0.23611
 C577 C 0.26501 0.15286 0.09540
 C578 C 0.26223 0.12396 0.10165
 C579 C 0.26103 0.11489 0.13001
 C580 C 0.26224 0.13475 0.15209
 C581 C 0.25320 0.04490 0.02367
 C582 C 0.26621 0.17273 0.11737
 C583 C 0.26005 0.10363 0.07898
 C584 C 0.25799 0.08615 0.06043
 C585 C 0.25541 0.06464 0.03979
 C586 C 0.26463 0.16396 0.14600
 H587 H 0.26596 0.16008 0.07353
 H588 H 0.25887 0.09250 0.13504
 H589 H 0.26090 0.12728 0.17384
 H590 H 0.26808 0.19502 0.11185
 C591 C 0.76762 0.65199 0.59627
 C592 C 0.76510 0.62308 0.60261
 C593 C 0.76383 0.61409 0.63098
 C594 C 0.76472 0.63402 0.65300
 C595 C 0.75647 0.54378 0.52493
 C596 C 0.76851 0.67193 0.61818
 C597 C 0.76317 0.60269 0.58000
 C598 C 0.76125 0.58514 0.56151
 C599 C 0.75873 0.56356 0.54096
 C600 C 0.76685 0.66322 0.64683
 H601 H 0.76862 0.65915 0.57439
 H602 H 0.76185 0.59169 0.63606
 H603 H 0.76334 0.62660 0.67476
 H604 H 0.77020 0.69422 0.61260
 C605 C 0.75076 0.90088 0.16073
 C606 C 0.74963 0.89264 0.13217
 C607 C 0.74834 0.86378 0.12517
 C608 C 0.74835 0.84316 0.14656
 C609 C 0.75214 0.96283 0.04525
 C610 C 0.75076 0.88026 0.18224
 C611 C 0.75015 0.91351 0.10977
 C612 C 0.75071 0.93005 0.09018
 C613 C 0.75146 0.94827 0.06634
 C614 C 0.74967 0.85111 0.17538
 H615 H 0.75179 0.92319 0.16637
 H616 H 0.74747 0.85717 0.10312
 H617 H 0.74749 0.82099 0.14044
 H618 H 0.75183 0.88714 0.20418
 C619 C 0.24840 0.40299 0.66122
 C620 C 0.24718 0.39467 0.63268
 C621 C 0.24553 0.36579 0.62580
 C622 C 0.24530 0.34526 0.64725
 C623 C 0.25081 0.46413 0.54519
 C624 C 0.24816 0.38244 0.68281
 C625 C 0.24801 0.41543 0.61018
 C626 C 0.24883 0.43182 0.59046
 C627 C 0.24988 0.44981 0.56644
 C628 C 0.24673 0.35329 0.67605
 H629 H 0.24971 0.42530 0.66678
 H630 H 0.24458 0.35912 0.60377
 H631 H 0.24417 0.32307 0.64121
 H632 H 0.24934 0.38937 0.70472
 C633 C 0.73962 0.10745 0.84348
 C634 C 0.74869 0.11074 0.87152
 C635 C 0.75575 0.13790 0.88169
 C636 C 0.75433 0.16160 0.86355
 C637 C 0.75390 0.02518 0.94316
 C638 C 0.73824 0.13093 0.82542
 C639 C 0.75070 0.08610 0.88964
 C640 C 0.75209 0.06559 0.90500
 C641 C 0.75330 0.04266 0.92439
 C642 C 0.74594 0.15826 0.83506
 H643 H 0.73390 0.08664 0.83543
 H644 H 0.76268 0.14068 0.90348
 H645 H 0.76051 0.18227 0.87156
 H646 H 0.73145 0.12753 0.80368
 C647 C 0.24095 0.60919 0.34178
 C648 C 0.24957 0.61246 0.36997
 C649 C 0.25659 0.63960 0.38021
 C650 C 0.25556 0.66330 0.36203
 C651 C 0.25362 0.52652 0.44131
 C652 C 0.23995 0.63265 0.32368
 C653 C 0.25122 0.58781 0.38813
 C654 C 0.25233 0.56724 0.40345
 C655 C 0.25324 0.54419 0.42271
 C656 C 0.24760 0.65996 0.33341
 H657 H 0.23528 0.58839 0.33366
 H658 H 0.26319 0.64238 0.40211
 H659 H 0.26168 0.68396 0.37012
 H660 H 0.23348 0.62925 0.30184
 C661 C 0.23993 0.87404 0.85456
 C662 C 0.24050 0.86520 0.88303
 C663 C 0.24008 0.83616 0.88945
 C664 C 0.23909 0.81606 0.86760
 C665 C 0.24513 0.94523 0.96110
 C666 C 0.23894 0.85394 0.83260
 C667 C 0.24161 0.88589 0.90564
 C668 C 0.24262 0.90360 0.92419
 C669 C 0.24391 0.92535 0.94492
 C670 C 0.23852 0.82465 0.83885
 H671 H 0.24025 0.89648 0.84932
 H672 H 0.24051 0.82903 0.91136
 H673 H 0.23877 0.79374 0.87331
 H674 H 0.23850 0.86133 0.81079
 C675 C 0.73954 0.37006 0.35525
 C676 C 0.74014 0.36117 0.38371
 C677 C 0.73943 0.33215 0.39011
 C678 C 0.73818 0.31208 0.36825
 C679 C 0.74646 0.44103 0.46172
 C680 C 0.73829 0.35000 0.33329
 C681 C 0.74164 0.38182 0.40631
 C682 C 0.74301 0.39950 0.42484
 C683 C 0.74479 0.42120 0.44555
 C684 C 0.73763 0.32072 0.33952
 H685 H 0.74009 0.39251 0.35003
 H686 H 0.73988 0.32499 0.41202
 H687 H 0.73767 0.28976 0.37394
 H688 H 0.73787 0.35742 0.31148
 C689 C 0.12509 0.25274 0.13512
 C690 C 0.13209 0.25167 0.10627
 C691 C 0.16065 0.25095 0.09803
 C692 C 0.18213 0.25112 0.11865
 C693 C 0.04497 0.24799 0.03657
 C694 C 0.14645 0.25288 0.15573
 C695 C 0.10971 0.25089 0.08543
 C696 C 0.09008 0.25007 0.06898
 C697 C 0.06616 0.24899 0.05093
 C698 C 0.17526 0.25196 0.14778
 H699 H 0.10305 0.25328 0.14173
 H700 H 0.16629 0.25009 0.07572
 H701 H 0.20407 0.25034 0.11177
 H702 H 0.14032 0.25356 0.17790
 C703 C 0.62663 0.75161 0.63568
 C704 C 0.63363 0.75092 0.60681
 C705 C 0.66219 0.75044 0.59857
 C706 C 0.68369 0.75051 0.61919
 C707 C 0.54657 0.74844 0.53684
 C708 C 0.64801 0.75167 0.65629
 C709 C 0.61123 0.75040 0.58594
 C710 C 0.59162 0.74985 0.56944
 C711 C 0.56773 0.74911 0.55130
 C712 C 0.67683 0.75102 0.64833
 H713 H 0.60459 0.75198 0.64230
 H714 H 0.66784 0.74988 0.57625
 H715 H 0.70562 0.74996 0.61230
 H716 H 0.64188 0.75208 0.67847
 C717 C 0.13125 0.73894 0.88480
 C718 C 0.10290 0.73802 0.87575
 C719 C 0.09660 0.73611 0.84680
 C720 C 0.11852 0.73541 0.82689
 C721 C 0.02525 0.74498 0.95517
 C722 C 0.15328 0.73823 0.86490
 C723 C 0.08029 0.73957 0.89614
 C724 C 0.06178 0.74112 0.91369
 C725 C 0.04123 0.74315 0.93531
 C726 C 0.14714 0.73665 0.83566
 H727 H 0.13631 0.74045 0.90723
 H728 H 0.07473 0.73539 0.83960
 H729 H 0.11295 0.73414 0.80458
 H730 H 0.17503 0.73927 0.87236
 C731 C 0.63034 0.23603 0.38565
 C732 C 0.60196 0.23515 0.37670
 C733 C 0.59556 0.23289 0.34780
 C734 C 0.61741 0.23186 0.32781
 C735 C 0.52410 0.24388 0.45582
 C736 C 0.65230 0.23500 0.36567
 C737 C 0.57941 0.23716 0.39714
 C738 C 0.56091 0.23912 0.41466
 C739 C 0.54028 0.24163 0.43616
 C740 C 0.64607 0.23311 0.33648
 H741 H 0.63548 0.23781 0.40804
 H742 H 0.57367 0.23219 0.34067
 H743 H 0.61177 0.23036 0.30554
 H744 H 0.67408 0.23606 0.37306
 C745 C 0.89114 0.75984 0.16545
 C746 C 0.88470 0.75876 0.13645
 C747 C 0.85624 0.75893 0.12763
 C748 C 0.83431 0.76014 0.14772
 C749 C 0.96283 0.75309 0.05670
 C750 C 0.86933 0.76105 0.18553
 C751 C 0.90729 0.75736 0.11580
 C752 C 0.92585 0.75611 0.09816
 C753 C 0.94661 0.75454 0.07651
 C754 C 0.84059 0.76118 0.17696
 H755 H 0.91305 0.75972 0.17256
 H756 H 0.85099 0.75810 0.10521
 H757 H 0.81251 0.76023 0.14035
 H758 H 0.87506 0.76185 0.20782
 C759 C 0.38786 0.26169 0.66634
 C760 C 0.38143 0.26039 0.63736
 C761 C 0.35297 0.26056 0.62852
 C762 C 0.33104 0.26195 0.64859
 C763 C 0.45983 0.25369 0.55791
 C764 C 0.36604 0.26307 0.68642
 C765 C 0.40403 0.25874 0.61673
 C766 C 0.42262 0.25726 0.59913
 C767 C 0.44348 0.25540 0.57759
 C768 C 0.33731 0.26318 0.67784
 H769 H 0.40976 0.26158 0.67347
 H770 H 0.34773 0.25956 0.60611
 H771 H 0.30924 0.26201 0.64122
 H772 H 0.37177 0.26403 0.70870
 C773 C 0.84169 0.25793 0.89200
 C774 C 0.86981 0.24922 0.88861
 C775 C 0.88000 0.24241 0.86141
 C776 C 0.86182 0.24371 0.83776
 C777 C 0.94108 0.24470 0.97440
 C778 C 0.82358 0.25920 0.86858
 C779 C 0.88795 0.24734 0.91321
 C780 C 0.90325 0.24609 0.93376
 C781 C 0.92248 0.24508 0.95678
 C782 C 0.83326 0.25174 0.84121
 H783 H 0.83362 0.26346 0.91285
 H784 H 0.90186 0.23576 0.85856
 H785 H 0.86985 0.23774 0.81704
 H786 H 0.80179 0.26573 0.87205
 C787 C 0.34336 0.75841 0.39142
 C788 C 0.37183 0.75097 0.38794
 C789 C 0.38233 0.74514 0.36063
 C790 C 0.36417 0.74626 0.33694
 C791 C 0.44307 0.74664 0.47391
 C792 C 0.32527 0.75950 0.36797
 C793 C 0.39001 0.74930 0.41256
 C794 C 0.40533 0.74815 0.43311
 C795 C 0.42454 0.74714 0.45619
 C796 C 0.33530 0.75311 0.34045
 H797 H 0.33502 0.76314 0.41236
 H798 H 0.40444 0.73945 0.35769
 H799 H 0.37250 0.74114 0.31612
 H800 H 0.30323 0.76509 0.37153
 C801 C 0.12713 0.14527 0.24034
 C802 C 0.13590 0.11676 0.24025
 C803 C 0.16487 0.11030 0.23905
 C804 C 0.18497 0.13213 0.23797
 C805 C 0.05633 0.03825 0.24535
 C806 C 0.14723 0.16722 0.23925
 C807 C 0.11523 0.09413 0.24146
 C808 C 0.09760 0.07552 0.24255
 C809 C 0.07603 0.05463 0.24398
 C810 C 0.17645 0.16091 0.23807
 H811 H 0.10474 0.15055 0.24126
 H812 H 0.17195 0.08836 0.23897
 H813 H 0.20723 0.12637 0.23705
 H814 H 0.13989 0.18906 0.23933
 C815 C 0.66679 0.60968 0.74008
 C816 C 0.63784 0.61616 0.74128
 C817 C 0.62905 0.64466 0.74129
 C818 C 0.64913 0.66659 0.74012
 C819 C 0.55773 0.53844 0.74666
 C820 C 0.68688 0.63150 0.73891
 C821 C 0.61716 0.59360 0.74258
 C822 C 0.59943 0.57512 0.74374
 C823 C 0.57765 0.55450 0.74523
 C824 C 0.67834 0.66027 0.73892
 H825 H 0.67387 0.58773 0.74006
 H826 H 0.60665 0.64994 0.74222
 H827 H 0.64179 0.68843 0.74013
 H828 H 0.70915 0.62574 0.73799
 C829 C 0.86015 0.11827 0.75793
 C830 C 0.88729 0.12858 0.75114
 C831 C 0.89055 0.15674 0.74238
 C832 C 0.86706 0.17474 0.74099
 C833 C 0.97337 0.05758 0.75580
 C834 C 0.83642 0.13635 0.75651
 C835 C 0.91197 0.11052 0.75308
 C836 C 0.93257 0.09530 0.75437
 C837 C 0.95567 0.07614 0.75540
 C838 C 0.83974 0.16495 0.74840
 H839 H 0.85739 0.09639 0.76462
 H840 H 0.91135 0.16490 0.73687
 H841 H 0.87044 0.19656 0.73441
 H842 H 0.81575 0.12822 0.76244
 C843 C 0.39338 0.65804 0.24238
 C844 C 0.38980 0.62968 0.25034
 C845 C 0.36248 0.61937 0.25637
 C846 C 0.33888 0.63762 0.25497
 C847 C 0.47534 0.55803 0.25511
 C848 C 0.37002 0.67621 0.24101
 C849 C 0.41433 0.61143 0.25224
 C850 C 0.43482 0.59604 0.25353
 C851 C 0.45777 0.57671 0.25462
 C852 C 0.34249 0.66639 0.24762
 H853 H 0.41433 0.66621 0.23748
 H854 H 0.35948 0.59735 0.26245
 H855 H 0.31805 0.62945 0.26027
 H856 H 0.37365 0.69815 0.23503
 C857 C 0.09880 0.84086 0.74834
 C858 C 0.10701 0.86946 0.74782
 C859 C 0.13584 0.87649 0.74674
 C860 C 0.15644 0.85511 0.74644
 C861 C 0.03674 0.95622 0.75236
 C862 C 0.11941 0.81935 0.74802
 C863 C 0.08616 0.89184 0.74884
 C864 C 0.06963 0.91141 0.74986
 C865 C 0.05138 0.93520 0.75119
 C866 C 0.14851 0.82625 0.74721
 H867 H 0.07651 0.83519 0.74921
 H868 H 0.14244 0.89856 0.74634
 H869 H 0.17860 0.86125 0.74579
 H870 H 0.11254 0.79739 0.74869
 C871 C 0.63488 0.37289 0.24718
 C872 C 0.60602 0.36599 0.24831
 C873 C 0.59768 0.33743 0.24901
 C874 C 0.61821 0.31583 0.24878
 C875 C 0.53699 0.45374 0.25224
 C876 C 0.65538 0.35143 0.24698
 C877 C 0.58530 0.38851 0.24919
 C878 C 0.56900 0.40828 0.25008
 C879 C 0.55116 0.43240 0.25123
 C880 C 0.64734 0.32260 0.24791
 H881 H 0.64157 0.39493 0.24664
 H882 H 0.57538 0.33186 0.24992
 H883 H 0.61127 0.29389 0.24958
 H884 H 0.67756 0.35748 0.24627
 C885 C 0.84960 0.90303 0.26572
 C886 C 0.87848 0.89661 0.26334
 C887 C 0.88738 0.86818 0.26243
 C888 C 0.86741 0.84620 0.26352
 C889 C 0.95754 0.97461 0.25429
 C890 C 0.82962 0.88117 0.26680
 C891 C 0.89891 0.91919 0.26122
 C892 C 0.91642 0.93772 0.25917
 C893 C 0.93789 0.95839 0.25657
 C894 C 0.83824 0.85246 0.26549
 H895 H 0.84250 0.92495 0.26645
 H896 H 0.90974 0.86302 0.26056
 H897 H 0.87476 0.82440 0.26239
 H898 H 0.80737 0.88683 0.26836
 C899 C 0.38401 0.37031 0.76373
 C900 C 0.37508 0.39872 0.76481
 C901 C 0.34622 0.40515 0.76722
 C902 C 0.32625 0.38328 0.76816
 C903 C 0.45453 0.47610 0.75592
 C904 C 0.36405 0.34833 0.76468
 C905 C 0.39549 0.42128 0.76278
 C906 C 0.41306 0.43972 0.76078
 C907 C 0.43469 0.46019 0.75820
 C908 C 0.33489 0.35460 0.76666
 H909 H 0.40637 0.36517 0.76184
 H910 H 0.33912 0.42707 0.76808
 H911 H 0.30400 0.38893 0.76975
 H912 H 0.37140 0.32654 0.76342
 C913 C 0.15033 0.26094 0.90348
 C914 C 0.12145 0.25886 0.89698
 C915 C 0.11254 0.25875 0.86855
 C916 C 0.13251 0.26059 0.84663
 C917 C 0.04213 0.25026 0.97467
 C918 C 0.17030 0.26277 0.88167
 C919 C 0.10099 0.25663 0.91950
 C920 C 0.08343 0.25467 0.93797
 C921 C 0.06187 0.25231 0.95856
 C922 C 0.16166 0.26256 0.85296
 H923 H 0.15743 0.26103 0.92541
 H924 H 0.09018 0.25712 0.86334
 H925 H 0.12515 0.26028 0.82481
 H926 H 0.19254 0.26424 0.88739
 C927 C 0.65375 0.75885 0.40271
 C928 C 0.62484 0.75729 0.39625
 C929 C 0.61589 0.75733 0.36783
 C930 C 0.63586 0.75887 0.34588
 C931 C 0.54551 0.75058 0.47410
 C932 C 0.67372 0.76038 0.38089
 C933 C 0.60436 0.75551 0.41878
 C934 C 0.58679 0.75398 0.43729
 C935 C 0.56524 0.75215 0.45793
 C936 C 0.66505 0.76038 0.35218
 H937 H 0.66088 0.75881 0.42463
 H938 H 0.59349 0.75610 0.36264
 H939 H 0.62847 0.75874 0.32407
 H940 H 0.69599 0.76148 0.38658
 C941 C 0.86523 0.75068 0.87422
 C942 C 0.89409 0.74985 0.86728
 C943 C 0.90238 0.74934 0.83871
 C944 C 0.88181 0.74956 0.81715
 C945 C 0.96409 0.74869 0.95443
 C946 C 0.84468 0.75091 0.85279
 C947 C 0.91492 0.74944 0.88973
 C948 C 0.93141 0.74911 0.90937
 C949 C 0.94958 0.74881 0.93328
 C950 C 0.85268 0.75028 0.82396
 H951 H 0.85858 0.75111 0.89626
 H952 H 0.92468 0.74872 0.83309
 H953 H 0.88874 0.74912 0.79521
 H954 H 0.82251 0.75151 0.85888
 C955 C 0.36340 0.25073 0.37366
 C956 C 0.39227 0.24983 0.36675
 C957 C 0.40061 0.24935 0.33820
 C958 C 0.38008 0.24965 0.31662
 C959 C 0.46159 0.24851 0.45431
 C960 C 0.34289 0.25103 0.35221
 C961 C 0.41302 0.24935 0.38924
 C962 C 0.42938 0.24898 0.40897
 C963 C 0.44732 0.24865 0.43302
 C964 C 0.35094 0.25043 0.32339
 H965 H 0.35671 0.25114 0.39569
 H966 H 0.42292 0.24868 0.33263
 H967 H 0.38703 0.24923 0.29469
 H968 H 0.32071 0.25168 0.35827
 C969 C 0.10903 0.76042 0.15640
 C970 C 0.11267 0.75342 0.12783
 C971 C 0.13995 0.74710 0.11754
 C972 C 0.16344 0.74737 0.13598
 C973 C 0.02687 0.75067 0.05628
 C974 C 0.13228 0.76066 0.17475
 C975 C 0.08821 0.75260 0.10940
 C976 C 0.06771 0.75200 0.09398
 C977 C 0.04465 0.75132 0.07475
 C978 C 0.15977 0.75383 0.16493
 H979 H 0.08812 0.76550 0.16458
 H980 H 0.14301 0.74174 0.09536
 H981 H 0.18425 0.74205 0.12776
 H982 H 0.12857 0.76607 0.19682
 C983 C 0.60498 0.25622 0.65950
 C984 C 0.60896 0.25203 0.63044
 C985 C 0.63650 0.24800 0.61973
 C986 C 0.65996 0.24788 0.63819
 C987 C 0.52382 0.25054 0.55821
 C988 C 0.62820 0.25608 0.67789
 C989 C 0.58460 0.25174 0.61190
 C990 C 0.56423 0.25147 0.59633
 C991 C 0.54137 0.25105 0.57688
 C992 C 0.65601 0.25170 0.66757
 H993 H 0.58384 0.25946 0.66803
 H994 H 0.63980 0.24480 0.59717
 H995 H 0.68101 0.24451 0.62957
 H996 H 0.62421 0.25934 0.70032
 C997 C 0.83348 0.23366 0.11089
 C998 C 0.86244 0.23531 0.11726
 C999 C 0.87129 0.23587 0.14573
 C1000 C 0.85125 0.23502 0.16772
 C1001 C 0.94157 0.24159 0.03848
 C1002 C 0.81344 0.23282 0.13277
 C1003 C 0.88300 0.23676 0.09458
 C1004 C 0.90053 0.23816 0.07590
 C1005 C 0.92197 0.23995 0.05494
 C1006 C 0.82202 0.23363 0.16151
 H1007 H 0.82635 0.23319 0.08898
 H1008 H 0.89368 0.23713 0.15093
 H1009 H 0.85863 0.23565 0.18953
 H1010 H 0.79117 0.23167 0.12708
 C1011 C 0.37262 0.73912 0.64522
 C1012 C 0.36376 0.73848 0.61675
 C1013 C 0.33480 0.73692 0.61039
 C1014 C 0.31476 0.73622 0.63227
 C1015 C 0.44303 0.74374 0.53806
 C1016 C 0.35258 0.73841 0.66722
 C1017 C 0.38433 0.73972 0.59406
 C1018 C 0.40186 0.74089 0.57538
 C1019 C 0.42335 0.74240 0.55444
 C1020 C 0.32335 0.73709 0.66101
 H1021 H 0.39502 0.74031 0.65041
 H1022 H 0.32766 0.73638 0.58848
 H1023 H 0.29249 0.73511 0.62658
 H1024 H 0.35996 0.73908 0.68902
 C1025 C 0.24787 0.16263 0.90169
 C1026 C 0.24749 0.13407 0.89330
 C1027 C 0.24683 0.12722 0.86439
 C1028 C 0.24666 0.14871 0.84389
 C1029 C 0.24882 0.04630 0.96255
 C1030 C 0.24769 0.18426 0.88117
 C1031 C 0.24791 0.11152 0.91403
 C1032 C 0.24826 0.09174 0.93037
 C1033 C 0.24862 0.06763 0.94828
 C1034 C 0.24717 0.17753 0.85199
 H1035 H 0.24836 0.16817 0.92403
 H1036 H 0.24651 0.10518 0.85765
 H1037 H 0.24620 0.14268 0.82169
 H1038 H 0.24804 0.20619 0.88817
 C1039 C 0.75128 0.66053 0.40088
 C1040 C 0.75107 0.63196 0.39256
 C1041 C 0.75055 0.62502 0.36366
 C1042 C 0.75035 0.64647 0.34312
 C1043 C 0.75203 0.54467 0.46235
 C1044 C 0.75107 0.68211 0.38032
 C1045 C 0.75145 0.60949 0.41336
 C1046 C 0.75174 0.58981 0.42981
 C1047 C 0.75198 0.56585 0.44790
 C1048 C 0.75068 0.67530 0.35116
 H1049 H 0.75165 0.66613 0.42322
 H1050 H 0.75036 0.60297 0.35699
 H1051 H 0.75000 0.64039 0.32092
 H1052 H 0.75128 0.70406 0.38727
 C1053 C 0.74155 0.13016 0.11443
 C1054 C 0.74155 0.10170 0.12327
 C1055 C 0.73969 0.09511 0.15216
 C1056 C 0.73796 0.11686 0.17223
 C1057 C 0.74950 0.02474 0.04314
 C1058 C 0.73981 0.15203 0.13449
 C1059 C 0.74363 0.07928 0.10267
 C1060 C 0.74545 0.06095 0.08493
 C1061 C 0.74763 0.04060 0.06311
 C1062 C 0.73805 0.14561 0.16365
 H1063 H 0.74301 0.13545 0.09205
 H1064 H 0.73969 0.07315 0.15920
 H1065 H 0.73666 0.11109 0.19449
 H1066 H 0.74002 0.17388 0.12717
 C1067 C 0.24215 0.63339 0.61409
 C1068 C 0.24215 0.60496 0.62305
 C1069 C 0.24059 0.59852 0.65200
 C1070 C 0.23911 0.62038 0.67198
 C1071 C 0.24896 0.52689 0.54380
 C1072 C 0.24066 0.65536 0.63406
 C1073 C 0.24391 0.58239 0.60256
 C1074 C 0.24545 0.56385 0.58501
 C1075 C 0.24733 0.54314 0.56348
 C1076 C 0.23916 0.64909 0.66328
 H1077 H 0.24338 0.63857 0.59167
 H1078 H 0.24059 0.57660 0.65915
 H1079 H 0.23801 0.61470 0.69427
 H1080 H 0.24083 0.67718 0.62665
 C1081 C 0.76526 0.88941 0.83360
 C1082 C 0.76357 0.88314 0.86261
 C1083 C 0.76301 0.85470 0.87158
 C1084 C 0.76393 0.83261 0.85161
 C1085 C 0.75740 0.96197 0.94174
 C1086 C 0.76617 0.86744 0.81364
 C1087 C 0.76210 0.90590 0.88310
 C1088 C 0.76072 0.92462 0.90060
 C1089 C 0.75896 0.94558 0.92207
 C1090 C 0.76537 0.83873 0.82234
 H1091 H 0.76574 0.91130 0.82638
 H1092 H 0.76172 0.84958 0.89400
 H1093 H 0.76330 0.81083 0.85907
 H1094 H 0.76736 0.87305 0.79133
 C1095 C 0.26385 0.38976 0.33342
 C1096 C 0.26218 0.38343 0.36241
 C1097 C 0.26156 0.35496 0.37130
 C1098 C 0.26241 0.33292 0.35127
 C1099 C 0.25639 0.46233 0.44159
 C1100 C 0.26469 0.36784 0.31340
 C1101 C 0.26080 0.40616 0.38297
 C1102 C 0.25951 0.42487 0.40050
 C1103 C 0.25786 0.44587 0.42196
 C1104 C 0.26385 0.33910 0.32202
 H1105 H 0.26437 0.41167 0.32625
 H1106 H 0.26029 0.34979 0.39372
 H1107 H 0.26176 0.31111 0.35868
 H1108 H 0.26588 0.37350 0.29110
 C1109 C 0.25189 0.84237 0.10553
 C1110 C 0.24915 0.87159 0.10972
 C1111 C 0.24726 0.88242 0.13747
 C1112 C 0.24799 0.86393 0.16094
 C1113 C 0.24790 0.94374 0.02433
 C1114 C 0.25261 0.82397 0.12875
 C1115 C 0.24844 0.89019 0.08537
 C1116 C 0.24805 0.90575 0.06495
 C1117 C 0.24784 0.92513 0.04199
 C1118 C 0.25059 0.83442 0.15681
 H1119 H 0.25344 0.83374 0.08423
 H1120 H 0.24516 0.90510 0.14094
 H1121 H 0.24630 0.87266 0.18216
 H1122 H 0.25472 0.80142 0.12458
 C1123 C 0.74007 0.34105 0.60779
 C1124 C 0.74598 0.36986 0.61153
 C1125 C 0.75127 0.38044 0.63893
 C1126 C 0.75102 0.36206 0.66248
 C1127 C 0.74912 0.44142 0.52576
 C1128 C 0.73984 0.32276 0.63111
 C1129 C 0.74679 0.38825 0.58704
 C1130 C 0.74745 0.40367 0.56655
 C1131 C 0.74829 0.42292 0.54351
 C1132 C 0.74559 0.33290 0.65875
 H1133 H 0.73582 0.33264 0.58677
 H1134 H 0.75579 0.40281 0.64204
 H1135 H 0.75548 0.37054 0.68341
 H1136 H 0.73529 0.30051 0.62732
 C1137 C 0.14337 0.13022 0.76303
 C1138 C 0.11498 0.13911 0.76479
 C1139 C 0.10875 0.16804 0.76759
 C1140 C 0.13068 0.18802 0.76835
 C1141 C 0.03655 0.05974 0.75866
 C1142 C 0.16541 0.15020 0.76381
 C1143 C 0.09226 0.11863 0.76337
 C1144 C 0.07360 0.10109 0.76200
 C1145 C 0.05277 0.07953 0.76024
 C1146 C 0.15932 0.17940 0.76629
 H1147 H 0.14845 0.10784 0.76088
 H1148 H 0.08691 0.17520 0.76901
 H1149 H 0.12510 0.21028 0.77039
 H1150 H 0.18715 0.14280 0.76219
 C1151 C 0.61217 0.66539 0.26647
 C1152 C 0.61846 0.63645 0.26378
 C1153 C 0.64688 0.62764 0.26214
 C1154 C 0.66889 0.64769 0.26294
 C1155 C 0.53946 0.55738 0.25793
 C1156 C 0.63406 0.68543 0.26726
 C1157 C 0.59574 0.61589 0.26239
 C1158 C 0.57703 0.59838 0.26108
 C1159 C 0.55599 0.57696 0.25942
 C1160 C 0.66274 0.67690 0.26534
 H1161 H 0.59031 0.67250 0.26780
 H1162 H 0.65204 0.60527 0.26008
 H1163 H 0.69065 0.64034 0.26142
 H1164 H 0.62843 0.70769 0.26922
 C1165 C 0.15950 0.89346 0.23886
 C1166 C 0.13065 0.88971 0.24436
 C1167 C 0.12002 0.86228 0.24946
 C1168 C 0.13839 0.83873 0.24948
 C1169 C 0.05854 0.97497 0.24740
 C1170 C 0.17780 0.87014 0.23890
 C1171 C 0.11223 0.91419 0.24506
 C1172 C 0.09671 0.93461 0.24569
 C1173 C 0.07725 0.95747 0.24655
 C1174 C 0.16760 0.84249 0.24453
 H1175 H 0.16795 0.91450 0.23474
 H1176 H 0.09762 0.85915 0.25368
 H1177 H 0.12988 0.81779 0.25384
 H1178 H 0.20009 0.87392 0.23468
 C1179 C 0.61710 0.36071 0.75221
 C1180 C 0.62777 0.38809 0.74695
 C1181 C 0.65660 0.39175 0.74126
 C1182 C 0.67483 0.36839 0.74127
 C1183 C 0.55679 0.47436 0.74942
 C1184 C 0.63541 0.33710 0.75219
 C1185 C 0.60947 0.41265 0.74759
 C1186 C 0.59418 0.43325 0.74812
 C1187 C 0.57512 0.45645 0.74877
 C1188 C 0.66460 0.34077 0.74704
 H1189 H 0.59472 0.35765 0.75656
 H1190 H 0.66508 0.41275 0.73703
 H1191 H 0.69709 0.37212 0.73690
 H1192 H 0.62688 0.31619 0.75665
 C1193 C 0.87319 0.13435 0.24642
 C1194 C 0.86632 0.10549 0.24831
 C1195 C 0.83781 0.09718 0.24983
 C1196 C 0.81625 0.11774 0.24965
 C1197 C 0.95409 0.03641 0.24999
 C1198 C 0.85175 0.15489 0.24624
 C1199 C 0.88882 0.08473 0.24888
 C1200 C 0.90859 0.06842 0.24935
 C1201 C 0.93272 0.05057 0.24979
 C1202 C 0.82299 0.14688 0.24797
 H1203 H 0.89518 0.14102 0.24520
 H1204 H 0.83227 0.07486 0.25128
 H1205 H 0.79435 0.11082 0.25097
 H1206 H 0.85779 0.17706 0.24486
 C1207 C 0.33880 0.60079 0.74977
 C1208 C 0.36734 0.60898 0.74845
 C1209 C 0.37434 0.63782 0.74660
 C1210 C 0.35298 0.65845 0.74627
 C1211 C 0.45416 0.53869 0.75093
 C1212 C 0.31732 0.62143 0.74943
 C1213 C 0.38972 0.58810 0.74921
 C1214 C 0.40929 0.57155 0.74985
 C1215 C 0.43311 0.55330 0.75052
 C1216 C 0.32418 0.65054 0.74779
 H1217 H 0.33315 0.57850 0.75119
 H1218 H 0.39637 0.64440 0.74554
 H1219 H 0.35911 0.68060 0.74493
 H1220 H 0.29539 0.61458 0.75060
 C1221 C 0.90379 0.84721 0.74360
 C1222 C 0.89726 0.87618 0.74368
 C1223 C 0.86890 0.88510 0.74211
 C1224 C 0.84706 0.86503 0.74048
 C1225 C 0.97413 0.95633 0.75078
 C1226 C 0.88206 0.82714 0.74197
 C1227 C 0.91965 0.89679 0.74552
 C1228 C 0.93796 0.91453 0.74712
 C1229 C 0.95829 0.93635 0.74907
 C1230 C 0.85341 0.83579 0.74038
 H1231 H 0.92567 0.84012 0.74485
 H1232 H 0.86367 0.90755 0.74220
 H1233 H 0.82528 0.87241 0.73935
 H1234 H 0.88779 0.80482 0.74201
 C1235 C 0.36779 0.38541 0.24199
 C1236 C 0.39612 0.37639 0.24356
 C1237 C 0.40250 0.34737 0.24343
 C1238 C 0.38068 0.32739 0.24173
 C1239 C 0.47431 0.45550 0.25055
 C1240 C 0.34585 0.36543 0.24029
 C1241 C 0.41867 0.39689 0.24541
 C1242 C 0.43722 0.41442 0.24700
 C1243 C 0.45798 0.43589 0.24891
 C1244 C 0.35206 0.33615 0.24013
 H1245 H 0.36265 0.40788 0.24212
 H1246 H 0.42435 0.34017 0.24467
 H1247 H 0.38632 0.30505 0.24172
 H1248 H 0.32410 0.37290 0.23915
   
