data_POSCAR
  _audit_creation_date              2014-09-24
  _audit_creation_method            'ToBaCCo'
  _symmetry_space_group_name_H-M    'P1'
  _symmetry_Int_Tables_number       1
  _symmetry_cell_setting            triclinic
  loop_
  _symmetry_equiv_pos_as_xyz
 x,y,z
_cell_length_a 42.5626
_cell_length_b 42.2210
_cell_length_c 42.3220
_cell_angle_alpha 90.266700
_cell_angle_beta 89.992900
_cell_angle_gamma 90.141900
loop_
  _atom_site_label
  _atom_site_type_symbol
  _atom_site_fract_x
  _atom_site_fract_y
  _atom_site_fract_z
C1 C 0.22807 1.08721 -0.00184
 C2 C 0.23073 1.07111 0.02688
 C3 C 0.23290 1.03797 0.02622
 C4 C 0.22851 1.02074 -0.00216
 C5 C 0.22425 1.03798 -0.03053
 C6 C 0.22517 1.07133 -0.03091
 C7 C 0.22817 0.98504 -0.00210
 C8 C 0.23324 0.96774 -0.03026
 C9 C 0.23278 0.93459 -0.03056
 C10 C 0.22940 0.91817 -0.00205
 C11 C 0.22526 0.93456 0.02653
 C12 C 0.22332 0.96774 0.02610
 H13 H 0.23119 1.11263 -0.00142
 H14 H 0.23678 1.02584 0.04817
 H15 H 0.21891 1.02574 -0.05229
 H16 H 0.23833 0.97955 -0.05224
 H17 H 0.22947 0.89251 -0.00217
 H18 H 0.21856 0.97962 0.04818
 C19 C 0.77377 0.58808 0.49849
 C20 C 0.77864 0.57218 0.52695
 C21 C 0.77802 0.53890 0.52710
 C22 C 0.77117 0.52139 0.49920
 C23 C 0.76478 0.53845 0.47123
 C24 C 0.76656 0.57167 0.47057
 C25 C 0.77014 0.48566 0.49917
 C26 C 0.77439 0.46811 0.47084
 C27 C 0.77241 0.43483 0.47044
 C28 C 0.76726 0.41894 0.49905
 C29 C 0.76498 0.43541 0.52780
 C30 C 0.76532 0.46869 0.52748
 H31 H 0.77510 0.61368 0.49827
 H32 H 0.78347 0.52715 0.54902
 H33 H 0.75758 0.52623 0.44994
 H34 H 0.78009 0.48001 0.44904
 H35 H 0.76485 0.39340 0.49899
 H36 H 0.76218 0.48108 0.54959
 C37 C 0.74043 1.01512 1.08391
 C38 C 0.72882 0.98647 1.07130
 C39 C 0.72473 0.98406 1.03826
 C40 C 0.73114 1.01008 1.01831
 C41 C 0.74292 1.03835 1.03211
 C42 C 0.74738 1.04135 1.06484
 C43 C 0.72482 1.00864 0.98333
 C44 C 0.71889 1.03698 0.96675
 C45 C 0.71536 1.03715 0.93393
 C46 C 0.71545 1.00838 0.91751
 C47 C 0.71873 0.97944 0.93326
 C48 C 0.72454 0.97969 0.96610
 H49 H 0.74385 1.01713 1.10914
 H50 H 0.71459 0.96267 1.02847
 H51 H 0.75014 1.05783 1.01730
 H52 H 0.71669 1.05930 0.97914
 H53 H 0.71348 1.00849 0.89199
 H54 H 0.72861 0.95743 0.97791
 C55 C 0.24359 0.48615 0.58205
 C56 C 0.25332 0.46052 0.56347
 C57 C 0.25313 0.46333 0.53047
 C58 C 0.24263 0.49149 0.51592
 C59 C 0.23264 0.51676 0.53537
 C60 C 0.23438 0.51471 0.56830
 C61 C 0.24298 0.49503 0.48075
 C62 C 0.24518 0.52526 0.46668
 C63 C 0.24365 0.52871 0.43385
 C64 C 0.24275 0.50166 0.41467
 C65 C 0.24136 0.47134 0.42787
 C66 C 0.24062 0.46825 0.46085
 H67 H 0.24361 0.48398 0.60757
 H68 H 0.26218 0.44386 0.51651
 H69 H 0.22427 0.53857 0.52520
 H70 H 0.24755 0.54642 0.48094
 H71 H 0.24346 0.50437 0.38924
 H72 H 0.23755 0.44489 0.47076
 C73 C 1.11095 0.22516 -0.01158
 C74 C 1.09847 0.22992 0.01903
 C75 C 1.06537 0.23419 0.02130
 C76 C 1.04535 0.23116 -0.00551
 C77 C 1.05934 0.22299 -0.03473
 C78 C 1.09181 0.22096 -0.03796
 C79 C 1.01013 0.23622 -0.00366
 C80 C 0.99263 0.24181 -0.03164
 C81 C 0.95966 0.24474 -0.03150
 C82 C 0.94440 0.24434 -0.00207
 C83 C 0.96101 0.24167 0.02636
 C84 C 0.99360 0.23627 0.02545
 H85 H 1.13594 0.22560 -0.01596
 H86 H 1.05505 0.23931 0.04387
 H87 H 1.04544 0.21772 -0.05544
 H88 H 1.00466 0.24563 -0.05369
 H89 H 0.91903 0.24500 -0.00084
 H90 H 1.00559 0.23264 0.04758
 C91 C 0.56556 0.75824 0.50213
 C92 C 0.55048 0.75669 0.53160
 C93 C 0.51756 0.75284 0.53244
 C94 C 0.49991 0.74842 0.50431
 C95 C 0.51640 0.74845 0.47537
 C96 C 0.54863 0.75434 0.47409
 C97 C 0.46482 0.74302 0.50464
 C98 C 0.44695 0.74642 0.47667
 C99 C 0.41484 0.73914 0.47568
 C100 C 0.39953 0.73082 0.50374
 C101 C 0.41594 0.72964 0.53253
 C102 C 0.44864 0.73453 0.53253
 H103 H 0.59060 0.76275 0.50084
 H104 H 0.50626 0.75278 0.55521
 H105 H 0.50487 0.74309 0.45328
 H106 H 0.45738 0.75544 0.45530
 H107 H 0.37468 0.72524 0.50321
 H108 H 0.46095 0.73228 0.55463
 C109 C -0.00722 0.74858 -0.08241
 C110 C 0.01899 0.75621 -0.06404
 C111 C 0.01593 0.75887 -0.03139
 C112 C -0.01280 0.75215 -0.01623
 C113 C -0.03901 0.74415 -0.03521
 C114 C -0.03679 0.74301 -0.06848
 C115 C -0.01517 0.75382 0.01911
 C116 C -0.04431 0.75876 0.03431
 C117 C -0.04639 0.76187 0.06742
 C118 C -0.01832 0.76113 0.08508
 C119 C 0.01092 0.75707 0.07052
 C120 C 0.01210 0.75190 0.03793
 H121 H -0.00441 0.74832 -0.10782
 H122 H 0.03625 0.76694 -0.01833
 H123 H -0.06089 0.73736 -0.02422
 H124 H -0.06526 0.76217 0.02038
 H125 H -0.01893 0.76241 0.11061
 H126 H 0.03472 0.74725 0.02743
 C127 C 0.52272 0.23490 0.41112
 C128 C 0.54997 0.24391 0.42739
 C129 C 0.54976 0.24384 0.46051
 C130 C 0.52305 0.23366 0.47751
 C131 C 0.49596 0.22474 0.46050
 C132 C 0.49555 0.22590 0.42743
 C133 C 0.52351 0.23269 0.51278
 C134 C 0.49579 0.23728 0.53060
 C135 C 0.49658 0.23744 0.56380
 C136 C 0.52557 0.23398 0.57912
 C137 C 0.55336 0.23022 0.56189
 C138 C 0.55208 0.22827 0.52897
 H139 H 0.52250 0.23518 0.38553
 H140 H 0.57038 0.25243 0.47281
 H141 H 0.47518 0.21645 0.47269
 H142 H 0.47368 0.24186 0.51890
 H143 H 0.52671 0.23429 0.60470
 H144 H 0.57373 0.22431 0.51617
 C145 C 1.08036 0.00841 0.24837
 C146 C 1.06521 0.03788 0.24890
 C147 C 1.03233 0.03833 0.24741
 C148 C 1.01449 0.01031 0.24411
 C149 C 1.03065 -0.01908 0.24377
 C150 C 1.06351 -0.02010 0.24727
 C151 C 0.97920 0.01251 0.24347
 C152 C 0.96005 -0.01317 0.25268
 C153 C 0.92698 -0.01044 0.25405
 C154 C 0.91383 0.01973 0.24899
 C155 C 0.93207 0.04543 0.23891
 C156 C 0.96438 0.04113 0.23483
 H157 H 1.10578 0.00733 0.24813
 H158 H 1.02067 0.06071 0.25113
 H159 H 1.01812 -0.04123 0.24162
 H160 H 0.97090 -0.03548 0.25793
 H161 H 0.88926 0.02379 0.25402
 H162 H 0.97778 0.06047 0.22496
 C163 C 0.58518 0.49348 0.74031
 C164 C 0.56859 0.52151 0.74590
 C165 C 0.53572 0.52130 0.74298
 C166 C 0.51942 0.49352 0.73354
 C167 C 0.53703 0.46596 0.72710
 C168 C 0.56975 0.46555 0.73120
 C169 C 0.48423 0.49295 0.73130
 C170 C 0.46702 0.46459 0.73642
 C171 C 0.43396 0.46442 0.73583
 C172 C 0.41817 0.49299 0.73057
 C173 C 0.43457 0.52148 0.72688
 C174 C 0.46741 0.52118 0.72584
 H175 H 0.61041 0.49341 0.74346
 H176 H 0.52313 0.54265 0.74913
 H177 H 0.52548 0.44468 0.71875
 H178 H 0.47902 0.44286 0.74228
 H179 H 0.39272 0.49338 0.73019
 H180 H 0.47955 0.54334 0.72198
 C181 C 1.00957 1.08020 0.78305
 C182 C 0.97930 1.06687 0.78174
 C183 C 0.97672 1.03386 0.77652
 C184 C 1.00361 1.01408 0.77570
 C185 C 1.03351 1.02872 0.77918
 C186 C 1.03657 1.06163 0.78184
 C187 C 1.00061 0.97849 0.77182
 C188 C 1.02709 0.96007 0.76320
 C189 C 1.02612 0.92670 0.76291
 C190 C 0.99677 0.91201 0.76708
 C191 C 0.96986 0.92921 0.77491
 C192 C 0.97191 0.96230 0.77781
 H193 H 1.01249 1.10568 0.78341
 H194 H 0.95368 1.02357 0.77422
 H195 H 1.05486 1.01512 0.78053
 H196 H 1.04903 0.97154 0.75814
 H197 H 0.99433 0.88670 0.76363
 H198 H 0.95117 0.97471 0.78565
 C199 C 0.49813 0.59747 0.27885
 C200 C 0.46974 0.58156 0.27291
 C201 C 0.47080 0.54915 0.26494
 C202 C 0.49957 0.53227 0.26491
 C203 C 0.52729 0.54877 0.27302
 C204 C 0.52686 0.58137 0.27927
 C205 C 0.50087 0.49761 0.25678
 C206 C 0.52874 0.48366 0.24486
 C207 C 0.53015 0.45113 0.23780
 C208 C 0.50298 0.43264 0.24151
 C209 C 0.47492 0.44588 0.25276
 C210 C 0.47427 0.47809 0.26097
 H211 H 0.49796 0.62285 0.28261
 H212 H 0.44909 0.53727 0.25897
 H213 H 0.54940 0.53640 0.27502
 H214 H 0.54936 0.49792 0.24030
 H215 H 0.50370 0.40766 0.23563
 H216 H 0.45300 0.48747 0.27130
 O217 O 0.26519 0.15809 0.21180
 O218 O 0.30346 0.15196 0.25630
 O219 O 0.18580 0.19967 0.25587
 O220 O 0.17448 0.24268 0.28432
 O221 O 0.22718 0.24109 0.17092
 O222 O 0.27061 0.27655 0.16449
 O223 O 0.26965 0.28664 0.33558
 O224 O 0.23099 0.24795 0.34374
 O225 O 0.34803 0.23743 0.29988
 O226 O 0.35625 0.20145 0.25319
 O227 O 0.31557 0.32103 0.25699
 O228 O 0.27313 0.33199 0.21814
 O229 O 0.26936 0.32350 0.29657
 O230 O 0.23793 0.33385 0.24932
 O231 O 0.35116 0.28112 0.25932
 O232 O 0.36075 0.24180 0.22269
 O233 O 0.31003 0.24257 0.33733
 O234 O 0.26803 0.20744 0.34551
 O235 O 0.26740 0.19560 0.17346
 O236 O 0.30652 0.23736 0.16507
 O237 O 0.18824 0.24273 0.20772
 O238 O 0.18116 0.28103 0.25103
 O239 O 0.22322 0.16156 0.26016
 O240 O 0.26472 0.14672 0.28626
 Zr241 Zr 0.26597 0.18477 0.25398
 O242 O 0.29493 0.21124 0.28427
 Zr243 Zr 0.21217 0.24187 0.25173
 O244 O 0.23960 0.27112 0.28151
 Zr245 Zr 0.26863 0.23910 0.19761
 O246 O 0.29865 0.26782 0.22509
 Zr247 Zr 0.26821 0.24344 0.31087
 O248 O 0.23835 0.21394 0.28365
 Zr249 Zr 0.32432 0.23973 0.25654
 O250 O 0.29759 0.21053 0.22588
 Zr251 Zr 0.27168 0.29749 0.25427
 O252 O 0.24148 0.27100 0.22424
 O253 O 0.23790 0.21108 0.22371
 O254 O 0.29935 0.27121 0.28506
 C255 C 0.26568 0.16675 0.18279
 C256 C 0.19459 0.17085 0.26010
 C257 C 0.19807 0.24246 0.17888
 C258 C 0.26891 0.31534 0.32574
 C259 C 0.33877 0.23913 0.32871
 C260 C 0.34387 0.31057 0.25930
 H261 H 0.30671 0.19657 0.29800
 H262 H 0.31299 0.27985 0.21118
 H263 H 0.22371 0.19755 0.21092
 H264 H 0.22552 0.28486 0.29408
 H265 H 0.21477 0.23231 0.33746
 H266 H 0.18162 0.25471 0.30310
 H267 H 0.35163 0.23388 0.20266
 H268 H 0.29815 0.23162 0.14390
 H269 H 0.25158 0.19206 0.33923
 H270 H 0.27150 0.15524 0.30696
 H271 H 0.29073 0.32668 0.20382
 H272 H 0.25566 0.29297 0.17173
 H273 H 0.31677 0.15538 0.23743
 H274 H 0.35240 0.18728 0.27134
 H275 H 0.18832 0.29519 0.23388
 H276 H 0.22084 0.32955 0.26456
 O277 O 0.72647 0.84611 0.20921
 O278 O 0.68932 0.85252 0.25170
 O279 O 0.81166 0.82640 0.26153
 O280 O 0.82867 0.78938 0.29487
 O281 O 0.78593 0.77109 0.17840
 O282 O 0.75143 0.72754 0.17182
 O283 O 0.74203 0.73197 0.34343
 O284 O 0.77043 0.78149 0.34976
 O285 O 0.65665 0.75668 0.29963
 O286 O 0.64345 0.78775 0.25365
 O287 O 0.70955 0.68099 0.26464
 O288 O 0.75667 0.67647 0.23114
 O289 O 0.74848 0.69130 0.30869
 O290 O 0.78895 0.68566 0.26534
 O291 O 0.66662 0.71298 0.26358
 O292 O 0.65600 0.75120 0.21724
 O293 O 0.69354 0.76185 0.33831
 O294 O 0.72233 0.80732 0.34807
 O295 O 0.73579 0.80656 0.17383
 O296 O 0.70585 0.75645 0.16992
 O297 O 0.82032 0.78072 0.21856
 O298 O 0.83221 0.74827 0.26534
 O299 O 0.76852 0.85710 0.25402
 O300 O 0.72132 0.86199 0.28658
 Zr301 Zr 0.73071 0.82503 0.25398
 O302 O 0.70515 0.79543 0.28443
 Zr303 Zr 0.79398 0.77984 0.26034
 O304 O 0.77127 0.74793 0.29087
 Zr305 Zr 0.74259 0.76635 0.20244
 O306 O 0.71724 0.73411 0.23084
 Zr307 Zr 0.73571 0.77199 0.31518
 O308 O 0.76111 0.80510 0.28783
 Zr309 Zr 0.68398 0.75902 0.25802
 O310 O 0.70678 0.79083 0.22696
 Zr311 Zr 0.74752 0.71326 0.26399
 O312 O 0.77353 0.74314 0.23348
 O313 O 0.76503 0.80206 0.22786
 O314 O 0.71315 0.73625 0.29012
 C315 C 0.72932 0.83551 0.18079
 C316 C 0.79822 0.85337 0.25790
 C317 C 0.81370 0.77690 0.18916
 C318 C 0.74567 0.70248 0.33688
 C319 C 0.66542 0.75655 0.32873
 C320 C 0.67974 0.68576 0.26554
 H321 H 0.68965 0.80802 0.29651
 H322 H 0.70680 0.71811 0.21726
 H323 H 0.77661 0.81690 0.21404
 H324 H 0.78669 0.73867 0.30563
 H325 H 0.78064 0.80171 0.34384
 H326 H 0.82107 0.78024 0.31493
 H327 H 0.63731 0.73861 0.22343
 H328 H 0.71318 0.76185 0.14834
 H329 H 0.73022 0.82760 0.33968
 H330 H 0.73899 0.86267 0.30177
 H331 H 0.74052 0.67761 0.21438
 H332 H 0.76817 0.71475 0.18174
 H333 H 0.67495 0.84142 0.23693
 H334 H 0.64557 0.80570 0.26859
 H335 H 0.82928 0.73129 0.24939
 H336 H 0.80141 0.69264 0.28385
 O337 O 0.74961 0.17883 0.80594
 O338 O 0.72480 0.16246 0.76319
 O339 O 0.84089 0.20332 0.76545
 O340 O 0.85705 0.24110 0.72726
 O341 O 0.80241 0.26076 0.83915
 O342 O 0.76502 0.29906 0.84178
 O343 O 0.77271 0.28596 0.66839
 O344 O 0.80062 0.23846 0.66391
 O345 O 0.68548 0.25954 0.70796
 O346 O 0.67162 0.22725 0.75017
 O347 O 0.73017 0.33839 0.73954
 O348 O 0.77331 0.34944 0.77723
 O349 O 0.77318 0.32895 0.70095
 O350 O 0.80949 0.33997 0.74731
 O351 O 0.68856 0.30475 0.74271
 O352 O 0.67726 0.26955 0.78851
 O353 O 0.72400 0.24979 0.67181
 O354 O 0.76639 0.20566 0.67073
 O355 O 0.75511 0.21987 0.84058
 O356 O 0.72122 0.26834 0.83850
 O357 O 0.84253 0.25272 0.80447
 O358 O 0.85710 0.28126 0.75654
 O359 O 0.79984 0.16875 0.76609
 O360 O 0.75624 0.16237 0.72627
 Zr361 Zr 0.75990 0.19787 0.76158
 O362 O 0.73416 0.22402 0.72837
 Zr363 Zr 0.82012 0.24792 0.75997
 O364 O 0.79797 0.27526 0.72484
 Zr365 Zr 0.76200 0.25952 0.81098
 O366 O 0.73823 0.28895 0.77886
 Zr367 Zr 0.76602 0.24739 0.69867
 O368 O 0.79209 0.21901 0.73046
 Zr369 Zr 0.70905 0.26038 0.75093
 O370 O 0.73077 0.23107 0.78464
 Zr371 Zr 0.76978 0.30967 0.74679
 O372 O 0.79415 0.28401 0.78198
 O373 O 0.78958 0.22455 0.79023
 O374 O 0.73916 0.28289 0.71934
 C375 C 0.74932 0.19068 0.83392
 C376 C 0.82934 0.17524 0.76692
 C377 C 0.83173 0.25803 0.83247
 C378 C 0.77425 0.31591 0.67345
 C379 C 0.69526 0.25537 0.67963
 C380 C 0.70059 0.33230 0.73843
 H381 H 0.71983 0.20978 0.71657
 H382 H 0.72589 0.30502 0.79054
 H383 H 0.80051 0.21153 0.80619
 H384 H 0.81414 0.28483 0.71108
 H385 H 0.82025 0.24861 0.67133
 H386 H 0.84929 0.22558 0.71146
 H387 H 0.65663 0.27504 0.77915
 H388 H 0.72572 0.26290 0.86083
 H389 H 0.74520 0.19602 0.67175
 H390 H 0.77580 0.16322 0.71364
 H391 H 0.75526 0.34881 0.79194
 H392 H 0.77794 0.31513 0.83081
 H393 H 0.70475 0.17314 0.75837
 H394 H 0.67331 0.21477 0.76984
 H395 H 0.85090 0.29973 0.76959
 H396 H 0.82362 0.33331 0.72997
 O397 O 0.24161 0.81527 0.80364
 O398 O 0.26757 0.82432 0.75354
 O399 O 0.15608 0.76936 0.77078
 O400 O 0.14190 0.72561 0.74618
 O401 O 0.20806 0.73608 0.85176
 O402 O 0.25042 0.69955 0.85482
 O403 O 0.23219 0.68211 0.68456
 O404 O 0.19064 0.72085 0.68038
 O405 O 0.31360 0.73039 0.70833
 O406 O 0.32602 0.76907 0.74375
 O407 O 0.28517 0.65112 0.76316
 O408 O 0.24599 0.64039 0.80189
 O409 O 0.24100 0.64718 0.72433
 O410 O 0.20746 0.63934 0.77400
 O411 O 0.32086 0.68947 0.75132
 O412 O 0.33023 0.73485 0.78916
 O413 O 0.27018 0.72829 0.67692
 O414 O 0.22817 0.75957 0.67075
 O415 O 0.25132 0.77887 0.84184
 O416 O 0.28918 0.73609 0.84518
 O417 O 0.16593 0.73130 0.81875
 O418 O 0.15453 0.68881 0.77855
 O419 O 0.19065 0.81016 0.76585
 O420 O 0.23121 0.81990 0.72443
 Zr421 Zr 0.23498 0.78748 0.76224
 O422 O 0.26112 0.75948 0.73046
 Zr423 Zr 0.18389 0.72894 0.77270
 O424 O 0.20729 0.69900 0.74072
 Zr425 Zr 0.24620 0.73493 0.81969
 O426 O 0.27243 0.70507 0.78993
 Zr427 Zr 0.23187 0.72636 0.70782
 O428 O 0.20470 0.75669 0.73699
 Zr429 Zr 0.29443 0.73180 0.75438
 O430 O 0.27076 0.76269 0.78629
 Zr431 Zr 0.24207 0.67445 0.76561
 O432 O 0.21612 0.70170 0.79823
 O433 O 0.21217 0.76140 0.79650
 O434 O 0.26582 0.69955 0.73071
 C435 C 0.24876 0.80743 0.83214
 C436 C 0.16262 0.79892 0.76870
 C437 C 0.17833 0.73475 0.84624
 C438 C 0.23723 0.65409 0.69514
 C439 C 0.30001 0.72995 0.68113
 C440 C 0.31311 0.66054 0.75684
 H441 H 0.27137 0.77370 0.71503
 H442 H 0.28796 0.69352 0.80286
 H443 H 0.20038 0.77570 0.81076
 H444 H 0.19225 0.68460 0.73008
 H445 H 0.17597 0.73774 0.68715
 H446 H 0.14724 0.71516 0.72594
 H447 H 0.35054 0.73011 0.77869
 H448 H 0.28483 0.74245 0.86736
 H449 H 0.21481 0.77695 0.67870
 H450 H 0.21088 0.81587 0.71379
 H451 H 0.26141 0.64863 0.81737
 H452 H 0.23378 0.68360 0.85080
 H453 H 0.28585 0.82055 0.76743
 H454 H 0.32396 0.78489 0.76093
 H455 H 0.16291 0.67666 0.79663
 H456 H 0.19305 0.63879 0.75566
 O457 O 0.26524 0.31009 0.68681
 O458 O 0.22895 0.32126 0.72858
 O459 O 0.34509 0.27394 0.73398
 O460 O 0.35567 0.23416 0.76723
 O461 O 0.30799 0.22702 0.65113
 O462 O 0.26747 0.19076 0.64347
 O463 O 0.25897 0.18992 0.81583
 O464 O 0.29563 0.23117 0.82480
 O465 O 0.18034 0.23274 0.77395
 O466 O 0.17023 0.26173 0.72824
 O467 O 0.22026 0.14735 0.73675
 O468 O 0.26560 0.13642 0.70211
 O469 O 0.26015 0.14974 0.77994
 O470 O 0.29935 0.13949 0.73605
 O471 O 0.18285 0.18572 0.73834
 O472 O 0.17700 0.22860 0.69261
 O473 O 0.21716 0.22958 0.81280
 O474 O 0.26024 0.26930 0.82241
 O475 O 0.26385 0.27090 0.64968
 O476 O 0.22652 0.22586 0.64484
 O477 O 0.34472 0.22907 0.69030
 O478 O 0.35142 0.19278 0.73589
 O479 O 0.30707 0.31172 0.73356
 O480 O 0.26148 0.32202 0.76546
 Zr481 Zr 0.26451 0.28642 0.73031
 O482 O 0.23404 0.26054 0.75951
 Zr483 Zr 0.31950 0.23106 0.73307
 O484 O 0.29192 0.20281 0.76347
 Zr485 Zr 0.26526 0.22869 0.67631
 O486 O 0.23567 0.19957 0.70395
 Zr487 Zr 0.26074 0.23146 0.78923
 O488 O 0.29156 0.26010 0.76239
 Zr489 Zr 0.20724 0.22870 0.73237
 O490 O 0.23464 0.25789 0.70253
 Zr491 Zr 0.26265 0.17326 0.73608
 O492 O 0.29251 0.19940 0.70570
 O493 O 0.29395 0.25911 0.70237
 O494 O 0.23247 0.20060 0.76352
 C495 C 0.26426 0.30024 0.65805
 C496 C 0.33598 0.30298 0.73449
 C497 C 0.33659 0.22766 0.66103
 C498 C 0.25805 0.16043 0.80835
 C499 C 0.18858 0.23098 0.80308
 C500 C 0.19167 0.15666 0.73938
 H501 H 0.22051 0.27540 0.77139
 H502 H 0.22289 0.18569 0.69014
 H503 H 0.30770 0.27240 0.68899
 H504 H 0.30557 0.19058 0.77782
 H505 H 0.31229 0.24602 0.81791
 H506 H 0.34816 0.22305 0.78632
 H507 H 0.17375 0.20635 0.68590
 H508 H 0.23380 0.23152 0.62331
 H509 H 0.24140 0.28235 0.81848
 H510 H 0.27484 0.31499 0.78322
 H511 H 0.24943 0.14037 0.68583
 H512 H 0.28066 0.17416 0.65316
 H513 H 0.21314 0.31363 0.71315
 H514 H 0.17732 0.28141 0.73886
 H515 H 0.34575 0.17767 0.71886
 H516 H 0.31249 0.14339 0.75495
 O517 O 0.74547 0.67001 0.70847
 O518 O 0.77561 0.66071 0.75389
 O519 O 0.66031 0.70948 0.74484
 O520 O 0.64597 0.75082 0.77395
 O521 O 0.70750 0.74998 0.66505
 O522 O 0.74721 0.78711 0.66006
 O523 O 0.73927 0.79668 0.83373
 O524 O 0.69997 0.75764 0.83888
 O525 O 0.81940 0.75248 0.80093
 O526 O 0.83551 0.72226 0.75914
 O527 O 0.78453 0.83592 0.75588
 O528 O 0.74422 0.84645 0.71883
 O529 O 0.73839 0.83467 0.79582
 O530 O 0.70550 0.84247 0.74585
 O531 O 0.82199 0.79807 0.76127
 O532 O 0.83198 0.75120 0.72049
 O533 O 0.77941 0.75329 0.83652
 O534 O 0.73855 0.71741 0.84165
 O535 O 0.75265 0.70771 0.67092
 O536 O 0.78858 0.75385 0.66781
 O537 O 0.66596 0.75258 0.69891
 O538 O 0.65484 0.79067 0.74334
 O539 O 0.69777 0.67152 0.74973
 O540 O 0.74207 0.66264 0.78764
 Zr541 Zr 0.74087 0.69625 0.75066
 O542 O 0.76804 0.72386 0.78176
 Zr543 Zr 0.68629 0.75191 0.74480
 O544 O 0.71047 0.78123 0.77748
 Zr545 Zr 0.74669 0.75129 0.69494
 O546 O 0.77261 0.78213 0.72440
 Zr547 Zr 0.73879 0.75416 0.80781
 O548 O 0.71062 0.72429 0.77860
 Zr549 Zr 0.79777 0.75460 0.75670
 O550 O 0.77394 0.72351 0.72551
 Zr551 Zr 0.74246 0.80971 0.75261
 O552 O 0.71644 0.78217 0.71965
 O553 O 0.71497 0.72214 0.71843
 O554 O 0.76981 0.78416 0.78431
 C555 C 0.75110 0.67868 0.67995
 C556 C 0.66902 0.68050 0.74749
 C557 C 0.67788 0.75111 0.67089
 C558 C 0.73839 0.82567 0.82483
 C559 C 0.80875 0.75200 0.82927
 C560 C 0.81314 0.82714 0.75986
 H561 H 0.77989 0.70941 0.79568
 H562 H 0.78666 0.79545 0.71142
 H563 H 0.70292 0.70809 0.70407
 H564 H 0.69528 0.79403 0.78973
 H565 H 0.68441 0.74173 0.83169
 H566 H 0.65202 0.76042 0.79441
 H567 H 0.83498 0.77256 0.71142
 H568 H 0.78401 0.74657 0.64595
 H569 H 0.72167 0.70249 0.83552
 H570 H 0.72211 0.66435 0.79949
 H571 H 0.75806 0.83921 0.70148
 H572 H 0.73260 0.80386 0.66728
 H573 H 0.79384 0.66826 0.74147
 H574 H 0.82687 0.70237 0.76785
 H575 H 0.66144 0.80426 0.72552
 H576 H 0.69070 0.84028 0.76373
 O577 O 0.22689 0.66567 0.29059
 O578 O 0.20589 0.65084 0.24541
 O579 O 0.31606 0.70525 0.25884
 O580 O 0.32932 0.74816 0.22576
 O581 O 0.26600 0.74966 0.33474
 O582 O 0.22383 0.78275 0.33814
 O583 O 0.24331 0.78744 0.16516
 O584 O 0.27601 0.74484 0.15793
 O585 O 0.15758 0.74812 0.19633
 O586 O 0.14508 0.71090 0.23403
 O587 O 0.19059 0.82834 0.24180
 O588 O 0.23146 0.84116 0.27801
 O589 O 0.23583 0.82715 0.20081
 O590 O 0.26961 0.83738 0.25031
 O591 O 0.15301 0.79035 0.23641
 O592 O 0.14398 0.74863 0.27696
 O593 O 0.19878 0.74545 0.16207
 O594 O 0.24652 0.70712 0.16054
 O595 O 0.22521 0.70347 0.32908
 O596 O 0.18485 0.74679 0.32888
 O597 O 0.30878 0.74998 0.30246
 O598 O 0.32209 0.78530 0.25801
 O599 O 0.27969 0.66615 0.25258
 O600 O 0.23813 0.65838 0.21025
 Zr601 Zr 0.23626 0.69033 0.24892
 O602 O 0.20893 0.71647 0.21691
 Zr603 Zr 0.28985 0.74716 0.25605
 O604 O 0.26631 0.77472 0.22196
 Zr605 Zr 0.22799 0.74644 0.30371
 O606 O 0.20284 0.77614 0.27301
 Zr607 Zr 0.23924 0.74597 0.19148
 O608 O 0.26719 0.71815 0.22213
 Zr609 Zr 0.17844 0.74761 0.24071
 O610 O 0.20188 0.71746 0.27275
 Zr611 Zr 0.23320 0.80351 0.24491
 O612 O 0.25840 0.77751 0.27938
 O613 O 0.26084 0.71734 0.28176
 O614 O 0.20724 0.77640 0.21313
 C615 C 0.22396 0.67456 0.31945
 C616 C 0.30812 0.67599 0.25624
 C617 C 0.29574 0.75109 0.32998
 C618 C 0.24071 0.81676 0.17256
 C619 C 0.16921 0.74709 0.16842
 C620 C 0.16189 0.81942 0.23849
 H621 H 0.19703 0.70182 0.20303
 H622 H 0.18834 0.78937 0.28566
 H623 H 0.27258 0.70417 0.29702
 H624 H 0.28192 0.78730 0.21007
 H625 H 0.29450 0.75483 0.16806
 H626 H 0.32448 0.73364 0.20798
 H627 H 0.12332 0.75286 0.26703
 H628 H 0.18882 0.73984 0.35089
 H629 H 0.22654 0.69521 0.15888
 H630 H 0.25834 0.66213 0.19928
 H631 H 0.21621 0.83507 0.29456
 H632 H 0.23705 0.80060 0.33085
 H633 H 0.18466 0.65949 0.24170
 H634 H 0.14753 0.69625 0.25206
 H635 H 0.31332 0.80098 0.27304
 H636 H 0.28407 0.83521 0.23213
 O637 O 0.76140 0.35481 0.27604
 O638 O 0.79774 0.36335 0.23314
 O639 O 0.67838 0.32719 0.22293
 O640 O 0.66228 0.28840 0.19265
 O641 O 0.70822 0.27573 0.30778
 O642 O 0.74459 0.23562 0.31546
 O643 O 0.75586 0.23558 0.14234
 O644 O 0.72335 0.28138 0.13524
 O645 O 0.83786 0.26572 0.18723
 O646 O 0.84862 0.29894 0.22805
 O647 O 0.78679 0.18888 0.22307
 O648 O 0.74019 0.18201 0.25489
 O649 O 0.75008 0.19652 0.17868
 O650 O 0.70769 0.19027 0.22104
 O651 O 0.82961 0.22097 0.22565
 O652 O 0.83803 0.26120 0.26946
 O653 O 0.80212 0.27438 0.14814
 O654 O 0.76757 0.31383 0.13824
 O655 O 0.75699 0.31465 0.31140
 O656 O 0.78888 0.26615 0.31576
 O657 O 0.67267 0.28228 0.26811
 O658 O 0.66356 0.24730 0.22051
 O659 O 0.71880 0.36146 0.23141
 O660 O 0.76691 0.36701 0.19698
 Zr661 Zr 0.75911 0.33179 0.23156
 O662 O 0.78680 0.30236 0.20225
 Zr663 Zr 0.69886 0.28235 0.22583
 O664 O 0.72338 0.25185 0.19509
 Zr665 Zr 0.75136 0.27359 0.28359
 O666 O 0.77760 0.24174 0.25576
 Zr667 Zr 0.75817 0.27700 0.17063
 O668 O 0.73032 0.30887 0.19776
 Zr669 Zr 0.81006 0.26718 0.22844
 O670 O 0.78568 0.29941 0.25858
 Zr671 Zr 0.74829 0.21934 0.22268
 O672 O 0.72131 0.24793 0.25327
 O673 O 0.72639 0.30717 0.25807
 O674 O 0.78218 0.24273 0.19610
 C675 C 0.76065 0.34402 0.30443
 C676 C 0.68949 0.35520 0.22675
 C677 C 0.67998 0.27895 0.29743
 C678 C 0.75346 0.20626 0.15020
 C679 C 0.83032 0.26986 0.15810
 C680 C 0.81656 0.19342 0.22367
 H681 H 0.80207 0.31581 0.19081
 H682 H 0.78831 0.22640 0.26966
 H683 H 0.71395 0.32147 0.27177
 H684 H 0.70869 0.24139 0.18022
 H685 H 0.71032 0.29989 0.14111
 H686 H 0.67087 0.28204 0.17187
 H687 H 0.85894 0.25352 0.26257
 H688 H 0.78184 0.27210 0.33734
 H689 H 0.75540 0.33239 0.14545
 H690 H 0.74780 0.36812 0.18371
 H691 H 0.75520 0.18463 0.27255
 H692 H 0.72937 0.22090 0.30548
 H693 H 0.81245 0.35507 0.24916
 H694 H 0.84537 0.31384 0.24584
 H695 H 0.66595 0.23231 0.23826
 H696 H 0.69678 0.19423 0.20081
 C697 C 0.21387 0.11702 0.05757
 C698 C 0.23135 0.08870 0.05538
 C699 C 0.24966 0.07943 0.08164
 C700 C 0.25252 0.09955 0.10808
 C701 C 0.23610 0.12858 0.10861
 C702 C 0.21611 0.13653 0.08387
 C703 C 0.24042 0.14977 0.13351
 C704 C 0.26099 0.14268 0.15819
 C705 C 0.27628 0.11328 0.15870
 C706 C 0.27222 0.09185 0.13359
 H707 H 0.26351 0.05796 0.08079
 H708 H 0.20259 0.15819 0.08461
 H709 H 0.22792 0.17211 0.13359
 H710 H 0.28486 0.06961 0.13383
 H711 H 0.19800 0.12415 0.03892
 H712 H 0.29195 0.10737 0.17793
 C713 C 0.80123 0.61866 0.55623
 C714 C 0.78237 0.59124 0.55641
 C715 C 0.76364 0.58496 0.58308
 C716 C 0.76205 0.60697 0.60814
 C717 C 0.77960 0.63541 0.60660
 C718 C 0.79981 0.64055 0.58101
 C719 C 0.77608 0.65862 0.63022
 C720 C 0.75562 0.65362 0.65579
 C721 C 0.73929 0.62473 0.65788
 C722 C 0.74227 0.60170 0.63415
 H723 H 0.74888 0.56400 0.58344
 H724 H 0.81380 0.66199 0.57965
 H725 H 0.78915 0.68063 0.62866
 H726 H 0.72873 0.58002 0.63588
 H727 H 0.81620 0.62380 0.53619
 H728 H 0.72348 0.62033 0.67744
 C729 C 0.71023 0.96765 0.12278
 C730 C 0.72160 0.96114 0.09205
 C731 C 0.72758 0.92924 0.08375
 C732 C 0.72549 0.90518 0.10669
 C733 C 0.71583 0.91282 0.13774
 C734 C 0.70728 0.94385 0.14519
 C735 C 0.71587 0.88963 0.16129
 C736 C 0.72608 0.85867 0.15467
 C737 C 0.73465 0.85086 0.12346
 C738 C 0.73427 0.87388 0.09968
 H739 H 0.73640 0.92338 0.06043
 H740 H 0.69916 0.94996 0.16871
 H741 H 0.70888 0.89608 0.18509
 H742 H 0.74172 0.86741 0.07604
 H743 H 0.70335 0.99135 0.12971
 H744 H 0.74251 0.82718 0.11759
 C745 C 0.28463 0.43398 0.60536
 C746 C 0.26421 0.43138 0.57938
 C747 C 0.25169 0.40158 0.57124
 C748 C 0.25748 0.37519 0.59054
 C749 C 0.27642 0.37874 0.61780
 C750 C 0.29072 0.40790 0.62439
 C751 C 0.27960 0.35355 0.63888
 C752 C 0.26408 0.32471 0.63331
 C753 C 0.24685 0.32057 0.60529
 C754 C 0.24347 0.34571 0.58407
 H755 H 0.23593 0.39943 0.55122
 H756 H 0.30563 0.41086 0.64495
 H757 H 0.29339 0.35672 0.66023
 H758 H 0.22907 0.34242 0.56319
 H759 H 0.29497 0.45662 0.61165
 H760 H 0.23484 0.29842 0.60054
 C761 C 0.69307 0.06946 0.88990
 C762 C 0.71306 0.06732 0.91623
 C763 C 0.73293 0.09303 0.92369
 C764 C 0.73448 0.11945 0.90370
 C765 C 0.71573 0.12019 0.87617
 C766 C 0.69442 0.09562 0.87001
 C767 C 0.71962 0.14470 0.85441
 C768 C 0.74204 0.16857 0.85966
 C769 C 0.75922 0.16894 0.88795
 C770 C 0.75555 0.14442 0.90983
 H771 H 0.74852 0.09166 0.94388
 H772 H 0.67957 0.09613 0.84922
 H773 H 0.70603 0.14459 0.83273
 H774 H 0.76994 0.14439 0.93094
 H775 H 0.67700 0.05036 0.88413
 H776 H 0.77660 0.18723 0.89232
 C777 C 0.26139 0.58538 0.42794
 C778 C 0.24132 0.56038 0.41914
 C779 C 0.21902 0.56522 0.39524
 C780 C 0.21788 0.59390 0.37896
 C781 C 0.23885 0.61868 0.38706
 C782 C 0.26012 0.61439 0.41203
 C783 C 0.23911 0.64658 0.36902
 C784 C 0.21942 0.64917 0.34253
 C785 C 0.19803 0.62484 0.33544
 C786 C 0.19696 0.59757 0.35375
 H787 H 0.20300 0.54625 0.38877
 H788 H 0.27636 0.63308 0.41863
 H789 H 0.25596 0.66520 0.37421
 H790 H 0.18071 0.57881 0.34735
 H791 H 0.27869 0.58215 0.44639
 H792 H 0.18277 0.62657 0.31503
 C793 C 0.21696 0.92525 0.91310
 C794 C 0.23562 0.91702 0.93921
 C795 C 0.25595 0.89107 0.93683
 C796 C 0.25665 0.87259 0.90928
 C797 C 0.23689 0.88016 0.88349
 C798 C 0.21756 0.90695 0.88545
 C799 C 0.23584 0.86003 0.85691
 C800 C 0.25380 0.83216 0.85636
 C801 C 0.27443 0.82584 0.88151
 C802 C 0.27597 0.84592 0.90763
 H803 H 0.27075 0.88488 0.95672
 H804 H 0.20231 0.91324 0.86598
 H805 H 0.21976 0.86496 0.83769
 H806 H 0.29144 0.83995 0.92703
 H807 H 0.20108 0.94522 0.91450
 H808 H 0.28877 0.80468 0.88140
 C809 C 0.79121 0.38658 0.44105
 C810 C 0.77598 0.41616 0.44051
 C811 C 0.76305 0.42673 0.41172
 C812 C 0.76410 0.40740 0.38446
 C813 C 0.77807 0.37711 0.38606
 C814 C 0.79203 0.36722 0.41426
 C815 C 0.77740 0.35692 0.35961
 C816 C 0.76339 0.36664 0.33120
 C817 C 0.75073 0.39729 0.32931
 C818 C 0.75085 0.41741 0.35579
 H819 H 0.75122 0.44940 0.41077
 H820 H 0.80329 0.34428 0.41574
 H821 H 0.78758 0.33346 0.36122
 H822 H 0.74019 0.44060 0.35396
 H823 H 0.80231 0.37814 0.46241
 H824 H 0.73975 0.40526 0.30768
 C825 C 0.14989 0.21757 0.04350
 C826 C 0.11908 0.23021 0.04601
 C827 C 0.11007 0.24232 0.07613
 C828 C 0.13125 0.24238 0.10191
 C829 C 0.16211 0.23113 0.09762
 C830 C 0.17112 0.21893 0.06840
 C831 C 0.18358 0.23173 0.12268
 C832 C 0.17467 0.24262 0.15278
 C833 C 0.14370 0.25331 0.15726
 C834 C 0.12228 0.25353 0.13197
 H835 H 0.08714 0.25250 0.07994
 H836 H 0.19464 0.20983 0.06484
 H837 H 0.20727 0.22323 0.11873
 H838 H 0.09868 0.26222 0.13598
 H839 H 0.15814 0.20537 0.02266
 H840 H 0.13616 0.26191 0.18018
 C841 C 0.55876 0.77371 0.58853
 C842 C 0.56957 0.75798 0.56121
 C843 C 0.59918 0.74326 0.56209
 C844 C 0.61803 0.74489 0.58919
 C845 C 0.60706 0.76075 0.61652
 C846 C 0.57725 0.77494 0.61596
 C847 C 0.62627 0.76238 0.64364
 C848 C 0.65656 0.74900 0.64327
 C849 C 0.66700 0.73335 0.61582
 C850 C 0.64788 0.73110 0.58919
 H851 H 0.60766 0.73035 0.54162
 H852 H 0.56841 0.78733 0.63657
 H853 H 0.61801 0.77458 0.66463
 H854 H 0.65661 0.71883 0.56844
 H855 H 0.53624 0.78555 0.58858
 H856 H 0.69004 0.72252 0.61498
 C857 C 0.05247 0.78176 0.89509
 C858 C 0.04979 0.76102 0.92074
 C859 C 0.07589 0.74295 0.93011
 C860 C 0.10378 0.74383 0.91242
 C861 C 0.10563 0.76385 0.88582
 C862 C 0.08033 0.78343 0.87793
 C863 C 0.13191 0.76247 0.86622
 C864 C 0.15589 0.74052 0.87187
 C865 C 0.15510 0.72198 0.89922
 C866 C 0.12915 0.72378 0.91959
 H867 H 0.07377 0.72682 0.94987
 H868 H 0.08159 0.79897 0.85766
 H869 H 0.13291 0.77715 0.84529
 H870 H 0.12819 0.70838 0.93997
 H871 H 0.03266 0.79607 0.88787
 H872 H 0.17351 0.70495 0.90379
 C873 C 0.60828 0.24137 0.41879
 C874 C 0.57866 0.25263 0.40943
 C875 C 0.57617 0.27016 0.38139
 C876 C 0.60235 0.27452 0.36185
 C877 C 0.63183 0.26215 0.37087
 C878 C 0.63469 0.24626 0.39975
 C879 C 0.65759 0.26486 0.35033
 C880 C 0.65397 0.27903 0.32054
 C881 C 0.62471 0.29197 0.31226
 C882 C 0.59921 0.28996 0.33283
 H883 H 0.55360 0.27958 0.37425
 H884 H 0.65711 0.23665 0.40709
 H885 H 0.68001 0.25472 0.35695
 H886 H 0.57679 0.29969 0.32563
 H887 H 0.61081 0.22766 0.44019
 H888 H 0.62141 0.30336 0.28962
 C889 C 0.89642 0.75182 0.07080
 C890 C 0.92425 0.76568 0.08287
 C891 C 0.92238 0.78241 0.11171
 C892 C 0.89455 0.78318 0.12919
 C893 C 0.86740 0.76759 0.11782
 C894 C 0.86840 0.75263 0.08819
 C895 C 0.84017 0.76652 0.13673
 C896 C 0.84030 0.78051 0.16698
 C897 C 0.86714 0.79719 0.17717
 C898 C 0.89392 0.79860 0.15846
 H899 H 0.94259 0.79519 0.12078
 H900 H 0.84779 0.74071 0.07889
 H901 H 0.81955 0.75380 0.12854
 H902 H 0.91445 0.81101 0.16732
 H903 H 0.89654 0.73851 0.04890
 H904 H 0.86771 0.80882 0.20003
 C905 C 0.46847 0.26037 0.61054
 C906 C 0.46756 0.24178 0.58288
 C907 C 0.43943 0.22605 0.57478
 C908 C 0.41317 0.22760 0.59492
 C909 C 0.41515 0.24510 0.62340
 C910 C 0.44261 0.26190 0.63067
 C911 C 0.38985 0.24514 0.64451
 C912 C 0.36223 0.22825 0.63755
 C913 C 0.35980 0.21196 0.60865
 C914 C 0.38521 0.21142 0.58757
 H915 H 0.43838 0.21164 0.55354
 H916 H 0.44428 0.27583 0.65218
 H917 H 0.39170 0.25826 0.66652
 H918 H 0.38313 0.19805 0.56576
 H919 H 0.48947 0.27346 0.61691
 H920 H 0.33861 0.19894 0.60279
 C921 C 0.95292 0.23457 0.91112
 C922 C 0.94207 0.24765 0.93997
 C923 C 0.91242 0.26269 0.93987
 C924 C 0.89353 0.26293 0.91277
 C925 C 0.90425 0.24871 0.88453
 C926 C 0.93422 0.23505 0.88385
 C927 C 0.88452 0.24788 0.85778
 C928 C 0.85404 0.26076 0.85928
 C929 C 0.84412 0.27548 0.88745
 C930 C 0.86368 0.27672 0.91380
 H931 H 0.90387 0.27481 0.96074
 H932 H 0.94293 0.22398 0.86243
 H933 H 0.89248 0.23642 0.83626
 H934 H 0.85516 0.28791 0.93524
 H935 H 0.97513 0.22223 0.90973
 H936 H 0.82097 0.28593 0.88925
 C937 C 0.41089 0.72870 0.41720
 C938 C 0.39737 0.74055 0.44522
 C939 C 0.36702 0.75347 0.44403
 C940 C 0.35023 0.75415 0.41550
 C941 C 0.36390 0.74196 0.38750
 C942 C 0.39435 0.72942 0.38863
 C943 C 0.34662 0.74198 0.35910
 C944 C 0.31565 0.75355 0.35862
 C945 C 0.30266 0.76604 0.38659
 C946 C 0.31978 0.76648 0.41466
 H947 H 0.35647 0.76311 0.46530
 H948 H 0.40523 0.71984 0.36752
 H949 H 0.35682 0.73208 0.33777
 H950 H 0.30899 0.77603 0.43584
 H951 H 0.43414 0.71833 0.41750
 H952 H 0.27896 0.77533 0.38687
 C953 C 0.07240 0.09469 0.23741
 C954 C 0.08273 0.06629 0.25154
 C955 C 0.11152 0.06662 0.26792
 C956 C 0.13040 0.09366 0.26849
 C957 C 0.12062 0.12142 0.25282
 C958 C 0.09125 0.12189 0.23792
 C959 C 0.14088 0.14771 0.25147
 C960 C 0.17088 0.14600 0.26517
 C961 C 0.17954 0.11877 0.28204
 C962 C 0.15945 0.09290 0.28380
 H963 H 0.11934 0.04591 0.28071
 H964 H 0.08324 0.14297 0.22587
 H965 H 0.13403 0.16867 0.23849
 H966 H 0.16709 0.07191 0.29626
 H967 H 0.05061 0.09560 0.22427
 H968 H 0.20233 0.11716 0.29330
 C969 C 0.61192 0.54901 0.77529
 C970 C 0.58632 0.55076 0.75434
 C971 C 0.58012 0.57962 0.73904
 C972 C 0.60056 0.60562 0.74294
 C973 C 0.62730 0.60272 0.76253
 C974 C 0.63226 0.57466 0.77926
 C975 C 0.64917 0.62756 0.76440
 C976 C 0.64457 0.65557 0.74727
 C977 C 0.61719 0.65893 0.72904
 C978 C 0.59546 0.63407 0.72671
 H979 H 0.56049 0.58127 0.72281
 H980 H 0.65236 0.57222 0.79476
 H981 H 0.67002 0.62494 0.77887
 H982 H 0.57502 0.63685 0.71173
 H983 H 0.61678 0.52732 0.78794
 H984 H 0.61317 0.68037 0.71569
 C985 C 0.95525 0.11517 0.80323
 C986 C 0.95269 0.08689 0.78531
 C987 C 0.92349 0.08008 0.77073
 C988 C 0.89878 0.10217 0.77189
 C989 C 0.90301 0.13113 0.78820
 C990 C 0.93090 0.13698 0.80447
 C991 C 0.87964 0.15429 0.78733
 C992 C 0.85183 0.14907 0.77039
 C993 C 0.84686 0.11968 0.75551
 C994 C 0.87027 0.09641 0.75610
 H995 H 0.92039 0.05887 0.75660
 H996 H 0.93412 0.15873 0.81782
 H997 H 0.88338 0.17676 0.79932
 H998 H 0.86640 0.07429 0.74362
 H999 H 0.97609 0.12062 0.81687
 H1000 H 0.82544 0.11523 0.74237
 C1001 C 0.43644 0.62344 0.29849
 C1002 C 0.43944 0.59931 0.27556
 C1003 C 0.41385 0.59328 0.25516
 C1004 C 0.38649 0.61200 0.25682
 C1005 C 0.38487 0.63726 0.27880
 C1006 C 0.40969 0.64238 0.29987
 C1007 C 0.35875 0.65744 0.27901
 C1008 C 0.33372 0.65248 0.25794
 C1009 C 0.33463 0.62641 0.23724
 C1010 C 0.36094 0.60647 0.23647
 H1011 H 0.41553 0.57484 0.23737
 H1012 H 0.40856 0.66126 0.31728
 H1013 H 0.35802 0.67733 0.29532
 H1014 H 0.36154 0.58710 0.21961
 H1015 H 0.45502 0.62799 0.31539
 H1016 H 0.31556 0.62224 0.22077
 C1017 C 0.08160 0.91911 0.74562
 C1018 C 0.05390 0.90806 0.76052
 C1019 C 0.05486 0.87784 0.77467
 C1020 C 0.08181 0.85914 0.77351
 C1021 C 0.10923 0.87043 0.75854
 C1022 C 0.10886 0.90053 0.74469
 C1023 C 0.13627 0.85124 0.75754
 C1024 C 0.13559 0.82071 0.77077
 C1025 C 0.10796 0.81003 0.78558
 C1026 C 0.08152 0.82911 0.78722
 H1027 H 0.03507 0.86896 0.78807
 H1028 H 0.12956 0.90959 0.73284
 H1029 H 0.15736 0.85964 0.74589
 H1030 H 0.06063 0.82014 0.79884
 H1031 H 0.08228 0.94162 0.73359
 H1032 H 0.10665 0.78666 0.79593
 C1033 C 0.55894 0.41256 0.20325
 C1034 C 0.55987 0.43579 0.22715
 C1035 C 0.58862 0.44187 0.24268
 C1036 C 0.61534 0.42330 0.23600
 C1037 C 0.61328 0.39875 0.21328
 C1038 C 0.58532 0.39424 0.19639
 C1039 C 0.63862 0.37804 0.20888
 C1040 C 0.66615 0.38119 0.22700
 C1041 C 0.66887 0.40680 0.24814
 C1042 C 0.64362 0.42768 0.25265
 H1043 H 0.58969 0.45967 0.26118
 H1044 H 0.58351 0.37578 0.17860
 H1045 H 0.63638 0.35849 0.19231
 H1046 H 0.64578 0.44647 0.27004
 H1047 H 0.53739 0.40791 0.19041
 H1048 H 0.68979 0.40959 0.26247
 C1049 C 0.91813 0.93534 0.27495
 C1050 C 0.90720 0.96284 0.25947
 C1051 C 0.87593 0.96259 0.24808
 C1052 C 0.85654 0.93607 0.25165
 C1053 C 0.86819 0.90867 0.26647
 C1054 C 0.89890 0.90865 0.27828
 C1055 C 0.84900 0.88168 0.26887
 C1056 C 0.81819 0.88200 0.25685
 C1057 C 0.80671 0.90972 0.24272
 C1058 C 0.82575 0.93644 0.24000
 H1059 H 0.86673 0.98230 0.23472
 H1060 H 0.90811 0.88796 0.29013
 H1061 H 0.85807 0.86049 0.27996
 H1062 H 0.81644 0.95733 0.22857
 H1063 H 0.94123 0.93429 0.28545
 H1064 H 0.78315 0.91058 0.23308
 C1065 C 0.38772 0.43732 0.76057
 C1066 C 0.41525 0.43519 0.74223
 C1067 C 0.42330 0.40572 0.72872
 C1068 C 0.40310 0.37939 0.73198
 C1069 C 0.37464 0.38265 0.74893
 C1070 C 0.36756 0.41146 0.76369
 C1071 C 0.35332 0.35730 0.75030
 C1072 C 0.36007 0.32835 0.73534
 C1073 C 0.38903 0.32470 0.71978
 C1074 C 0.41027 0.35008 0.71790
 H1075 H 0.44448 0.40363 0.71465
 H1076 H 0.34612 0.41419 0.77723
 H1077 H 0.33120 0.36024 0.76269
 H1078 H 0.43202 0.34696 0.70496
 H1079 H 0.38139 0.45933 0.77213
 H1080 H 0.39473 0.30260 0.70807
 C1081 C 0.12684 0.18883 0.92739
 C1082 C 0.10655 0.21475 0.93095
 C1083 C 0.10314 0.23635 0.90601
 C1084 C 0.12175 0.23338 0.87867
 C1085 C 0.14332 0.20806 0.87611
 C1086 C 0.14468 0.18522 0.89996
 C1087 C 0.16414 0.20675 0.85047
 C1088 C 0.16380 0.23040 0.82733
 C1089 C 0.14110 0.25439 0.82886
 C1090 C 0.12026 0.25597 0.85445
 H1091 H 0.08749 0.25640 0.90873
 H1092 H 0.16026 0.16514 0.89784
 H1093 H 0.18120 0.18781 0.84889
 H1094 H 0.10370 0.27537 0.85580
 H1095 H 0.12946 0.17182 0.94629
 H1096 H 0.14045 0.27268 0.81100
 C1097 C 0.55383 0.77657 0.41964
 C1098 C 0.56468 0.75596 0.44320
 C1099 C 0.59109 0.73712 0.43736
 C1100 C 0.60724 0.73952 0.40864
 C1101 C 0.59702 0.76125 0.38540
 C1102 C 0.56996 0.77931 0.39098
 C1103 C 0.61481 0.76539 0.35768
 C1104 C 0.64278 0.74840 0.35354
 C1105 C 0.65163 0.72568 0.37591
 C1106 C 0.63403 0.72120 0.40322
 H1107 H 0.59921 0.72085 0.45534
 H1108 H 0.56165 0.79596 0.37348
 H1109 H 0.60802 0.78300 0.34043
 H1110 H 0.64195 0.70416 0.42054
 H1111 H 0.53333 0.79115 0.42380
 H1112 H 0.67285 0.71201 0.37257
 C1113 C 0.93983 0.72309 0.88224
 C1114 C 0.93648 0.73751 0.91222
 C1115 C 0.90627 0.74822 0.92133
 C1116 C 0.88100 0.74710 0.89990
 C1117 C 0.88564 0.73412 0.86949
 C1118 C 0.91476 0.72136 0.86125
 C1119 C 0.86144 0.73494 0.84727
 C1120 C 0.83244 0.74898 0.85457
 C1121 C 0.82734 0.76079 0.88522
 C1122 C 0.85150 0.75989 0.90775
 H1123 H 0.90277 0.75975 0.94397
 H1124 H 0.91841 0.71071 0.83820
 H1125 H 0.86549 0.72518 0.82387
 H1126 H 0.84739 0.76989 0.93100
 H1127 H 0.96187 0.71274 0.87481
 H1128 H 0.80510 0.77159 0.89141
 C1129 C 0.46764 0.20124 0.38169
 C1130 C 0.46646 0.21956 0.40945
 C1131 C 0.43838 0.23498 0.41775
 C1132 C 0.41247 0.23401 0.39728
 C1133 C 0.41464 0.21696 0.36854
 C1134 C 0.44191 0.19989 0.36142
 C1135 C 0.39001 0.21819 0.34679
 C1136 C 0.36309 0.23624 0.35321
 C1137 C 0.36033 0.25193 0.38239
 C1138 C 0.38495 0.25093 0.40427
 H1139 H 0.43739 0.24930 0.43905
 H1140 H 0.44375 0.18642 0.33964
 H1141 H 0.39204 0.20554 0.32452
 H1142 H 0.38280 0.26400 0.42625
 H1143 H 0.48895 0.18886 0.37516
 H1144 H 0.33963 0.26582 0.38779
 C1145 C 0.04215 0.78387 0.11281
 C1146 C 0.04028 0.76028 0.08932
 C1147 C 0.06659 0.74078 0.08367
 C1148 C 0.09394 0.74424 0.10203
 C1149 C 0.09481 0.76740 0.12621
 C1150 C 0.06909 0.78734 0.13112
 C1151 C 0.12091 0.76950 0.14603
 C1152 C 0.14614 0.74852 0.14266
 C1153 C 0.14617 0.72662 0.11764
 C1154 C 0.12014 0.72449 0.09738
 H1155 H 0.06552 0.72245 0.06571
 H1156 H 0.06963 0.80539 0.14942
 H1157 H 0.12107 0.78658 0.16518
 H1158 H 0.12003 0.70671 0.07883
 H1159 H 0.02271 0.79984 0.11701
 H1160 H 0.16543 0.71011 0.11489
 C1161 C 0.60717 0.20859 0.57336
 C1162 C 0.58389 0.23158 0.57839
 C1163 C 0.58960 0.25657 0.59950
 C1164 C 0.61759 0.25800 0.61662
 C1165 C 0.64061 0.23420 0.61251
 C1166 C 0.63537 0.20984 0.59040
 C1167 C 0.66769 0.23455 0.63157
 C1168 C 0.67118 0.25792 0.65502
 C1169 C 0.64880 0.28213 0.65784
 C1170 C 0.62234 0.28233 0.63862
 H1171 H 0.57192 0.27474 0.60292
 H1172 H 0.65273 0.19145 0.58680
 H1173 H 0.68485 0.21570 0.62960
 H1174 H 0.60500 0.30084 0.64184
 H1175 H 0.60318 0.18929 0.55689
 H1176 H 0.65132 0.30039 0.67576
 C1177 C 0.94742 0.22476 0.08219
 C1178 C 0.94329 0.24540 0.05655
 C1179 C 0.91994 0.26884 0.05855
 C1180 C 0.89943 0.27021 0.08432
 C1181 C 0.90289 0.24878 0.10963
 C1182 C 0.92748 0.22656 0.10863
 C1183 C 0.88107 0.24939 0.13475
 C1184 C 0.85542 0.27045 0.13397
 C1185 C 0.85275 0.29182 0.10880
 C1186 C 0.87470 0.29198 0.08443
 H1187 H 0.91694 0.28540 0.03927
 H1188 H 0.93061 0.20992 0.12777
 H1189 H 0.88318 0.23271 0.15403
 H1190 H 0.87180 0.30855 0.06518
 H1191 H 0.96520 0.20649 0.08128
 H1192 H 0.83341 0.30843 0.10790
 C1193 C 0.41093 0.70782 0.58796
 C1194 C 0.39846 0.72544 0.56273
 C1195 C 0.36932 0.74047 0.56679
 C1196 C 0.35278 0.73792 0.59523
 C1197 C 0.36555 0.72051 0.62063
 C1198 C 0.39467 0.70547 0.61667
 C1199 C 0.34881 0.71837 0.64929
 C1200 C 0.31919 0.73280 0.65223
 C1201 C 0.30687 0.74985 0.62664
 C1202 C 0.32357 0.75261 0.59855
 H1203 H 0.35965 0.75473 0.54793
 H1204 H 0.40481 0.69181 0.63572
 H1205 H 0.35834 0.70498 0.66885
 H1206 H 0.31348 0.76604 0.57930
 H1207 H 0.43317 0.69569 0.58546
 H1208 H 0.28421 0.76136 0.62846
 C1209 C 0.21451 0.12092 0.94090
 C1210 C 0.22473 0.08907 0.94058
 C1211 C 0.23687 0.07670 0.91188
 C1212 C 0.24128 0.09652 0.88552
 C1213 C 0.23332 0.12886 0.88779
 C1214 C 0.21950 0.14064 0.91525
 C1215 C 0.23942 0.14922 0.86267
 C1216 C 0.25281 0.13791 0.83452
 C1217 C 0.25990 0.10551 0.83179
 C1218 C 0.25446 0.08500 0.85725
 H1219 H 0.24503 0.05247 0.91043
 H1220 H 0.21282 0.16533 0.91710
 H1221 H 0.23350 0.17407 0.86510
 H1222 H 0.26068 0.06023 0.85488
 H1223 H 0.20265 0.13111 0.96113
 H1224 H 0.27004 0.09616 0.81023
 C1225 C 0.77271 0.57913 0.41173
 C1226 C 0.76105 0.58983 0.44100
 C1227 C 0.74621 0.61951 0.44251
 C1228 C 0.74529 0.63928 0.41613
 C1229 C 0.75768 0.62875 0.38696
 C1230 C 0.77074 0.59830 0.38485
 C1231 C 0.75741 0.64916 0.36075
 C1232 C 0.74585 0.68026 0.36384
 C1233 C 0.73389 0.69031 0.39321
 C1234 C 0.73316 0.66990 0.41891
 H1235 H 0.73617 0.62777 0.46459
 H1236 H 0.78038 0.58975 0.36271
 H1237 H 0.76684 0.64114 0.33832
 H1238 H 0.72373 0.67835 0.44118
 H1239 H 0.78440 0.55645 0.40983
 H1240 H 0.72485 0.71406 0.39639
 C1241 C 0.77574 0.06990 0.10670
 C1242 C 0.75732 0.07027 0.07896
 C1243 C 0.74691 0.09996 0.06750
 C1244 C 0.75169 0.12782 0.08543
 C1245 C 0.76850 0.12620 0.11412
 C1246 C 0.78146 0.09749 0.12385
 C1247 C 0.77072 0.15288 0.13364
 C1248 C 0.75552 0.18119 0.12578
 C1249 C 0.74031 0.18350 0.09644
 C1250 C 0.73849 0.15695 0.07632
 H1251 H 0.73259 0.10114 0.04637
 H1252 H 0.79497 0.09610 0.14551
 H1253 H 0.78313 0.15122 0.15585
 H1254 H 0.72561 0.15882 0.05433
 H1255 H 0.78584 0.04810 0.11539
 H1256 H 0.72857 0.20521 0.08985
 C1257 C 0.20606 0.56532 0.58245
 C1258 C 0.22989 0.54312 0.58846
 C1259 C 0.25078 0.54854 0.61355
 C1260 C 0.24765 0.57515 0.63290
 C1261 C 0.22369 0.59747 0.62686
 C1262 C 0.20305 0.59238 0.60147
 C1263 C 0.22068 0.62413 0.64663
 C1264 C 0.24078 0.62783 0.67269
 C1265 C 0.26449 0.60550 0.67828
 C1266 C 0.26810 0.57953 0.65839
 H1267 H 0.26981 0.53211 0.61792
 H1268 H 0.18447 0.60913 0.59650
 H1269 H 0.20229 0.64133 0.64241
 H1270 H 0.28660 0.56263 0.66322
 H1271 H 0.18963 0.56162 0.56325
 H1272 H 0.28038 0.60825 0.69812
 C1273 C 0.69277 0.94800 0.89044
 C1274 C 0.71583 0.94972 0.91427
 C1275 C 0.73720 0.92449 0.91739
 C1276 C 0.73666 0.89902 0.89565
 C1277 C 0.71462 0.89896 0.87059
 C1278 C 0.69234 0.92313 0.86871
 C1279 C 0.71542 0.87498 0.84753
 C1280 C 0.73733 0.85036 0.84959
 C1281 C 0.75827 0.84964 0.87525
 C1282 C 0.75820 0.87399 0.89790
 H1283 H 0.75501 0.92537 0.93567
 H1284 H 0.67491 0.92314 0.85005
 H1285 H 0.69891 0.87533 0.82801
 H1286 H 0.77515 0.87337 0.91699
 H1287 H 0.67546 0.96660 0.88800
 H1288 H 0.77526 0.83069 0.87724
 C1289 C 0.22437 0.44370 0.37826
 C1290 C 0.24106 0.44309 0.40693
 C1291 C 0.25881 0.41611 0.41458
 C1292 C 0.26077 0.39059 0.39333
 C1293 C 0.24496 0.39222 0.36402
 C1294 C 0.22647 0.41860 0.35692
 C1295 C 0.24805 0.36756 0.34213
 C1296 C 0.26620 0.34087 0.34928
 C1297 C 0.28107 0.33880 0.37879
 C1298 C 0.27863 0.36368 0.40059
 H1299 H 0.27192 0.41539 0.43652
 H1300 H 0.21385 0.41995 0.33473
 H1301 H 0.23604 0.36897 0.31957
 H1302 H 0.29077 0.36193 0.42302
 H1303 H 0.20990 0.46381 0.37215
 H1304 H 0.29505 0.31825 0.38469
 C1305 C 0.20298 0.92462 0.08098
 C1306 C 0.22457 0.91697 0.05694
 C1307 C 0.24628 0.89255 0.06217
 C1308 C 0.24614 0.87556 0.09053
 C1309 C 0.22413 0.88305 0.11448
 C1310 C 0.20276 0.90781 0.10948
 C1311 C 0.22343 0.86505 0.14248
 C1312 C 0.24397 0.83928 0.14617
 C1313 C 0.26610 0.83267 0.12241
 C1314 C 0.26737 0.85075 0.09501
 H1315 H 0.26344 0.88680 0.04410
 H1316 H 0.18565 0.91393 0.12744
 H1317 H 0.20604 0.87004 0.16054
 H1318 H 0.28445 0.84479 0.07696
 H1319 H 0.18593 0.94327 0.07753
 H1320 H 0.28217 0.81296 0.12485
 C1321 C 0.74534 0.42798 0.58378
 C1322 C 0.76372 0.41752 0.55812
 C1323 C 0.78156 0.38971 0.56156
 C1324 C 0.78056 0.37225 0.58962
 C1325 C 0.76212 0.38299 0.61528
 C1326 C 0.74469 0.41097 0.61213
 C1327 C 0.76104 0.36520 0.64331
 C1328 C 0.77740 0.33637 0.64544
 C1329 C 0.79554 0.32599 0.61971
 C1330 C 0.79743 0.34394 0.59220
 H1331 H 0.79644 0.38162 0.54239
 H1332 H 0.73023 0.41949 0.63145
 H1333 H 0.74665 0.37311 0.66293
 H1334 H 0.81163 0.33536 0.57272
 H1335 H 0.73107 0.44907 0.58182
 H1336 H 0.80832 0.30387 0.62092
 C1337 C 0.07284 0.10335 0.80290
 C1338 C 0.06774 0.07766 0.78223
 C1339 C 0.09075 0.07034 0.75944
 C1340 C 0.11729 0.08999 0.75580
 C1341 C 0.12082 0.11701 0.77537
 C1342 C 0.09906 0.12289 0.79947
 C1343 C 0.14550 0.13831 0.76994
 C1344 C 0.16714 0.13282 0.74553
 C1345 C 0.16468 0.10511 0.72726
 C1346 C 0.13972 0.08395 0.73216
 H1347 H 0.08706 0.05062 0.74336
 H1348 H 0.10174 0.14320 0.81500
 H1349 H 0.14776 0.15942 0.78451
 H1350 H 0.13761 0.06324 0.71709
 H1351 H 0.05575 0.10910 0.82100
 H1352 H 0.18142 0.10043 0.70854
 C1353 C 0.55681 0.62381 0.30783
 C1354 C 0.55640 0.59919 0.28534
 C1355 C 0.58346 0.59350 0.26701
 C1356 C 0.60964 0.61369 0.26946
 C1357 C 0.60874 0.63962 0.29067
 C1358 C 0.58272 0.64388 0.31044
 C1359 C 0.63310 0.66188 0.29062
 C1360 C 0.65835 0.65876 0.26954
 C1361 C 0.66036 0.63191 0.25004
 C1362 C 0.63604 0.60948 0.24993
 H1363 H 0.58345 0.57463 0.24957
 H1364 H 0.58194 0.66340 0.32715
 H1365 H 0.63174 0.68252 0.30593
 H1366 H 0.63727 0.58960 0.23370
 H1367 H 0.53665 0.62812 0.32284
 H1368 H 0.67973 0.62928 0.23365
 C1369 C 0.10578 0.94908 0.27381
 C1370 C 0.08114 0.94973 0.25161
 C1371 C 0.07527 0.92248 0.23311
 C1372 C 0.09513 0.89583 0.23553
 C1373 C 0.12101 0.89673 0.25648
 C1374 C 0.12565 0.92309 0.27598
 C1375 C 0.14225 0.87148 0.25736
 C1376 C 0.13786 0.84469 0.23814
 C1377 C 0.11117 0.84297 0.21866
 C1378 C 0.09018 0.86853 0.21702
 H1379 H 0.05622 0.92245 0.21613
 H1380 H 0.14500 0.92385 0.29263
 H1381 H 0.16239 0.87272 0.27303
 H1382 H 0.07031 0.86707 0.20108
 H1383 H 0.11021 0.96920 0.28916
 H1384 H 0.10701 0.82232 0.20409
 C1385 C 0.57598 0.40720 0.74044
 C1386 C 0.58801 0.43572 0.72829
 C1387 C 0.61904 0.43641 0.71684
 C1388 C 0.63865 0.41009 0.72021
 C1389 C 0.62669 0.38194 0.73359
 C1390 C 0.59507 0.38043 0.74275
 C1391 C 0.64684 0.35625 0.73870
 C1392 C 0.67902 0.35871 0.73149
 C1393 C 0.69050 0.38666 0.71770
 C1394 C 0.67043 0.41200 0.71178
 H1395 H 0.62843 0.45794 0.70663
 H1396 H 0.58549 0.35901 0.75300
 H1397 H 0.63768 0.33481 0.74931
 H1398 H 0.67995 0.43341 0.70145
 H1399 H 0.55228 0.40598 0.74966
 H1400 H 0.71509 0.38901 0.71156
 C1401 C 0.93212 0.10525 0.24274
 C1402 C 0.91707 0.07688 0.23362
 C1403 C 0.88645 0.07844 0.22137
 C1404 C 0.87028 0.10723 0.22034
 C1405 C 0.88518 0.13557 0.23022
 C1406 C 0.91642 0.13435 0.24078
 C1407 C 0.86819 0.16425 0.23029
 C1408 C 0.83621 0.16444 0.22167
 C1409 C 0.82200 0.13583 0.21195
 C1410 C 0.83892 0.10775 0.21076
 H1411 H 0.87474 0.05699 0.21347
 H1412 H 0.92835 0.15572 0.24851
 H1413 H 0.87942 0.18597 0.23812
 H1414 H 0.82711 0.08620 0.20332
 H1415 H 0.95564 0.10485 0.25246
 H1416 H 0.79739 0.13486 0.20563
 C1417 C 0.42130 0.57600 0.70653
 C1418 C 0.41707 0.55165 0.72866
 C1419 C 0.39549 0.55579 0.75332
 C1420 C 0.37722 0.58309 0.75528
 C1421 C 0.38062 0.60725 0.73247
 C1422 C 0.40311 0.60364 0.70838
 C1423 C 0.36080 0.63391 0.73377
 C1424 C 0.33740 0.63586 0.75717
 C1425 C 0.33510 0.61208 0.78013
 C1426 C 0.35495 0.58605 0.77935
 H1427 H 0.39265 0.53737 0.77090
 H1428 H 0.40620 0.62187 0.69071
 H1429 H 0.36248 0.65214 0.71588
 H1430 H 0.35226 0.56779 0.79707
 H1431 H 0.43808 0.57328 0.68748
 H1432 H 0.31738 0.61336 0.79848
 C1433 C 0.94125 0.88395 0.79959
 C1434 C 0.94026 0.91131 0.78074
 C1435 C 0.91236 0.91853 0.76446
 C1436 C 0.88666 0.89735 0.76519
 C1437 C 0.88890 0.86895 0.78266
 C1438 C 0.91590 0.86299 0.80052
 C1439 C 0.86457 0.84646 0.78126
 C1440 C 0.83765 0.85199 0.76291
 C1441 C 0.83486 0.88093 0.74684
 C1442 C 0.85924 0.90332 0.74778
 H1443 H 0.91137 0.93950 0.74981
 H1444 H 0.91785 0.84157 0.81439
 H1445 H 0.86674 0.82443 0.79416
 H1446 H 0.85691 0.92499 0.73438
 H1447 H 0.96233 0.87812 0.81265
 H1448 H 0.81427 0.88577 0.73265
 C1449 C 0.41687 0.43731 0.24543
 C1450 C 0.44624 0.42592 0.25547
 C1451 C 0.44846 0.39469 0.26652
 C1452 C 0.42220 0.37465 0.26619
 C1453 C 0.39291 0.38598 0.25531
 C1454 C 0.39041 0.41755 0.24544
 C1455 C 0.36693 0.36534 0.25381
 C1456 C 0.37017 0.33339 0.26254
 C1457 C 0.39935 0.32275 0.27394
 C1458 C 0.42502 0.34317 0.27588
 H1459 H 0.47081 0.38579 0.27491
 H1460 H 0.36820 0.42673 0.23704
 H1461 H 0.34459 0.37387 0.24503
 H1462 H 0.44726 0.33416 0.28443
 H1463 H 0.41457 0.46123 0.23661
 H1464 H 0.40247 0.29842 0.28129
   
