data_POSCAR
  _audit_creation_date              2014-09-24
  _audit_creation_method            'ToBaCCo'
  _symmetry_space_group_name_H-M    'P1'
  _symmetry_Int_Tables_number       1
  _symmetry_cell_setting            triclinic
  loop_
  _symmetry_equiv_pos_as_xyz
 x,y,z
_cell_length_a 53.1495
_cell_length_b 52.9835
_cell_length_c 55.9556
_cell_angle_alpha 88.856700
_cell_angle_beta 90.386900
_cell_angle_gamma 90.222500
loop_
  _atom_site_label
  _atom_site_type_symbol
  _atom_site_fract_x
  _atom_site_fract_y
  _atom_site_fract_z
C1 C 0.39697 0.00681 0.25148
 C2 C 0.10334 -0.00261 0.75011
 C3 C 0.60226 0.50049 0.24926
 C4 C 0.89466 0.50000 0.74757
 C5 C 0.24635 0.35645 0.99932
 C6 C 0.75586 0.14261 0.99819
 C7 C 0.24938 0.64454 0.50379
 C8 C 0.74978 0.85913 0.49639
 C9 C -0.00167 0.25771 0.36919
 C10 C 0.00189 0.74252 0.13845
 C11 C 0.48956 0.24725 0.63017
 C12 C 0.50431 0.75545 0.87437
 C13 C -0.25196 0.64562 1.00085
 C14 C -0.25163 0.35547 0.49352
 C15 C 0.25538 -0.14599 0.00177
 C16 C 0.25286 1.14465 0.50263
 C17 C 0.10846 0.50453 0.25059
 C18 C -0.10635 1.00155 0.24765
 C19 C 0.39460 0.49825 -0.25130
 C20 C 0.60611 -0.00220 -0.24760
 C21 C -0.00220 0.25251 0.88222
 C22 C 0.49447 0.24010 0.11881
 C23 C 0.00149 0.74204 0.61752
 C24 C 0.50664 0.75539 0.38141
 Zr25 Zr 0.02595 -0.02212 1.03405
 O26 O 0.05320 -0.00609 1.05703
 O27 O 0.02184 -0.05833 1.04884
 O28 O 0.01182 -0.01932 1.06924
 O29 O 0.06777 -0.03767 0.98938
 O30 O -0.02598 0.00050 1.06392
 O31 O 0.06173 -0.03905 1.02979
 O32 O -0.00975 -0.07557 1.02647
 O33 O -0.01290 -0.02828 1.03081
 O34 O 0.02046 -0.04348 1.00337
 O35 O 0.00955 0.01394 1.03211
 O36 O 0.04216 -0.00079 1.00583
 Zr37 Zr -0.02031 0.00796 0.96810
 Zr38 Zr -0.02902 0.00752 1.02699
 Zr39 Zr 0.03461 -0.02170 0.97509
 Zr40 Zr -0.01816 -0.04840 0.99955
 O41 O 0.06650 -0.00291 0.96076
 O42 O -0.05240 -0.05843 1.01657
 O43 O -0.00399 -0.02833 0.96971
 O44 O -0.03615 -0.01340 0.99630
 O45 O -0.01500 0.02955 0.99869
 O46 O 0.01849 0.01396 0.97164
 C47 C 0.00637 -0.07605 1.04371
 C48 C 0.07478 -0.04315 1.01089
 C49 C -0.00892 -0.01005 1.07699
 O50 O -0.06255 -0.01022 1.03886
 O51 O -0.06016 0.02738 1.01298
 O52 O -0.05481 0.02730 0.97251
 C53 C -0.06699 0.03312 0.99149
 O54 O 0.05335 0.04170 1.02731
 Zr55 Zr 0.02376 0.03418 1.00269
 O56 O -0.01678 0.04445 0.95379
 O57 O -0.03208 0.04209 1.04502
 O58 O 0.01221 0.06529 1.02315
 O59 O 0.05614 0.04696 0.98401
 O60 O 0.01200 0.06286 0.97855
 C61 C -0.00360 0.06318 0.96091
 O62 O -0.04875 -0.00759 0.94613
 O63 O 0.03926 -0.05741 0.95944
 O64 O -0.00736 0.00316 0.93276
 O65 O 0.02960 -0.01829 0.93786
 O66 O -0.00627 -0.08143 0.98212
 O67 O -0.04419 -0.05769 0.97207
 C68 C 0.01251 -0.00769 0.92483
 H69 H 0.02895 -0.06006 1.00427
 H70 H -0.05441 -0.01599 0.99368
 H71 H 0.02585 0.02338 0.95790
 H72 H 0.01289 0.02337 1.04691
 H73 H -0.05398 -0.07706 1.01617
 H74 H -0.07085 0.00165 1.04975
 H75 H -0.04800 0.04131 1.05414
 H76 H 0.02157 0.08034 1.01721
 H77 H -0.01657 -0.09568 0.98842
 H78 H 0.05511 -0.05656 0.95023
 H79 H 0.07487 -0.01494 0.95008
 H80 H 0.05700 0.06554 0.98555
 H81 H -0.05191 -0.07434 0.97575
 H82 H -0.05348 0.00565 0.93416
 H83 H 0.05793 -0.01935 1.06898
 H84 H 0.05787 0.05983 1.02632
 Zr85 Zr 0.51554 0.47205 0.52950
 O86 O 0.54195 0.47888 0.55717
 O87 O 0.50655 0.43398 0.53606
 O88 O 0.49928 0.47012 0.56402
 O89 O 0.56051 0.46351 0.48562
 O90 O 0.46409 0.49458 0.56035
 O91 O 0.55047 0.45366 0.52434
 O92 O 0.47627 0.42541 0.50816
 O93 O 0.47673 0.47080 0.52261
 O94 O 0.51120 0.45858 0.49482
 O95 O 0.50267 0.50926 0.53348
 O96 O 0.53600 0.49725 0.50720
 Zr97 Zr 0.47827 0.52044 0.46783
 Zr98 Zr 0.46427 0.50811 0.52485
 Zr99 Zr 0.52965 0.48439 0.47245
 Zr100 Zr 0.47277 0.45873 0.48747
 O101 O 0.56371 0.50301 0.46348
 O102 O 0.43642 0.44864 0.49992
 O103 O 0.49126 0.48320 0.46338
 O104 O 0.45827 0.49517 0.49016
 O105 O 0.48259 0.53426 0.50244
 O106 O 0.51701 0.52144 0.47486
 C107 C 0.49043 0.41943 0.52602
 C108 C 0.56517 0.45308 0.50609
 C109 C 0.47936 0.48048 0.57240
 O110 O 0.42896 0.49089 0.53157
 O111 O 0.43546 0.53242 0.51282
 O112 O 0.44472 0.54100 0.47369
 C113 C 0.43091 0.54306 0.49243
 O114 O 0.54880 0.53274 0.53736
 Zr115 Zr 0.52117 0.53378 0.50971
 O116 O 0.48670 0.55864 0.46150
 O117 O 0.46213 0.53887 0.54829
 O118 O 0.51063 0.56089 0.53513
 O119 O 0.55628 0.54625 0.49596
 O120 O 0.51472 0.56807 0.49119
 C121 C 0.50100 0.57385 0.47295
 O122 O 0.45059 0.51385 0.44125
 O123 O 0.53336 0.45214 0.45104
 O124 O 0.49329 0.52064 0.43281
 O125 O 0.52753 0.49480 0.43612
 O126 O 0.48350 0.42966 0.46414
 O127 O 0.44859 0.45865 0.45706
 C128 C 0.51231 0.50897 0.42411
 H129 H 0.51830 0.44149 0.49296
 H130 H 0.44016 0.49489 0.48592
 H131 H 0.52627 0.53260 0.46355
 H132 H 0.50557 0.51515 0.54995
 H133 H 0.43318 0.43095 0.49533
 H134 H 0.42055 0.50109 0.54382
 H135 H 0.44550 0.53777 0.55617
 H136 H 0.52198 0.57565 0.53309
 H137 H 0.47142 0.41552 0.46637
 H138 H 0.54996 0.45349 0.44314
 H139 H 0.57201 0.49271 0.45125
 H140 H 0.55888 0.56386 0.50113
 H141 H 0.43921 0.44248 0.45665
 H142 H 0.44845 0.52984 0.43192
 H143 H 0.54427 0.46276 0.56626
 H144 H 0.55531 0.55000 0.53998
 Zr145 Zr 0.47691 1.01289 0.53466
 O146 O 0.45157 0.99166 0.55614
 O147 O 0.47630 1.04798 0.55076
 O148 O 0.49112 1.00889 0.57001
 O149 O 0.43371 1.02779 0.48987
 O150 O 0.53118 0.99455 0.56484
 O151 O 0.43969 1.02656 0.53037
 O152 O 0.50506 1.07106 0.52931
 O153 O 0.51472 1.02406 0.53251
 O154 O 0.47985 1.03714 0.50482
 O155 O 0.49758 0.97934 0.53185
 O156 O 0.46332 0.99204 0.50549
 Zr157 Zr 0.52642 0.99417 0.46870
 Zr158 Zr 0.53509 0.99087 0.52776
 Zr159 Zr 0.46828 1.01617 0.47564
 Zr160 Zr 0.51752 1.04713 0.50205
 O161 O 0.43868 0.99468 0.46069
 O162 O 0.54996 1.05980 0.52061
 O163 O 0.50580 1.02797 0.47127
 O164 O 0.53965 1.01491 0.49792
 O165 O 0.52379 0.96972 0.49846
 O166 O 0.48867 0.98308 0.47127
 C167 C 0.48896 1.06809 0.54622
 C168 C 0.42638 1.03115 0.51142
 C169 C 0.51284 1.00167 0.57789
 O170 O 0.56640 1.01146 0.54060
 O171 O 0.56809 0.97549 0.51356
 O172 O 0.56277 0.97839 0.47304
 C173 C 0.57537 0.97211 0.49200
 O174 O 0.45728 0.94683 0.52502
 Zr175 Zr 0.48596 0.95991 0.50150
 O176 O 0.52777 0.95874 0.45317
 O177 O 0.54228 0.95566 0.54495
 O178 O 0.50095 0.92891 0.52140
 O179 O 0.45572 0.94462 0.48147
 O180 O 0.50185 0.93484 0.47701
 C181 C 0.51738 0.93788 0.45965
 O182 O 0.55273 1.01507 0.44803
 O183 O 0.45948 1.05206 0.46061
 O184 O 0.51290 1.00000 0.43329
 O185 O 0.47350 1.01609 0.43843
 O186 O 0.50209 1.07977 0.48510
 O187 O 0.54267 1.06171 0.47578
 C188 C 0.49175 1.00877 0.42535
 H189 H 0.46953 1.05256 0.50598
 H190 H 0.55749 1.01983 0.49575
 H191 H 0.48260 0.97389 0.45712
 H192 H 0.49538 0.96840 0.54625
 H193 H 0.54917 1.07847 0.52097
 H194 H 0.57606 0.99980 0.55121
 H195 H 0.55807 0.95763 0.55426
 H196 H 0.49361 0.91332 0.51474
 H197 H 0.51048 1.09466 0.49212
 H198 H 0.44379 1.05000 0.45118
 H199 H 0.42890 1.00633 0.45016
 H200 H 0.45737 0.92600 0.48224
 H201 H 0.54849 1.07871 0.48040
 H202 H 0.55912 1.00359 0.43569
 H203 H 0.44519 1.00314 0.56848
 H204 H 0.45484 0.92844 0.52313
 Zr205 Zr -0.01972 0.52705 1.03134
 O206 O -0.04412 0.51543 1.05927
 O207 O -0.01561 0.56554 1.03795
 O208 O -0.00230 0.52904 1.06555
 O209 O -0.06687 0.53373 0.98846
 O210 O 0.03529 0.50906 1.06070
 O211 O -0.05635 0.54224 1.02716
 O212 O 0.01162 0.57959 1.00913
 O213 O 0.01842 0.53325 1.02377
 O214 O -0.01831 0.54271 0.99673
 O215 O -0.00262 0.49142 1.03453
 O216 O -0.03832 0.50107 1.00909
 Zr217 Zr 0.02002 0.48674 0.96826
 Zr218 Zr 0.03504 0.49743 1.02509
 Zr219 Zr -0.03480 0.51637 0.97436
 Zr220 Zr 0.01954 0.54759 0.98875
 O221 O -0.06710 0.49457 0.96632
 O222 O 0.05447 0.56129 1.00176
 O223 O 0.00287 0.52250 0.96463
 O224 O 0.03814 0.51283 0.99049
 O225 O 0.01866 0.47073 1.00274
 O226 O -0.01805 0.48091 0.97606
 C227 C -0.00271 0.58279 1.02721
 C228 C -0.07158 0.54272 1.00912
 C229 C 0.01904 0.52056 1.07333
 O230 O 0.06872 0.51789 1.03089
 O231 O 0.06539 0.47635 1.01221
 O232 O 0.05535 0.46891 0.97322
 C233 C 0.06989 0.46692 0.99170
 O234 O -0.04591 0.46292 1.03898
 Zr235 Zr -0.01939 0.46637 1.01083
 O236 O 0.01563 0.44825 0.96149
 O237 O 0.04154 0.46611 1.04836
 O238 O -0.00498 0.43929 1.03572
 O239 O -0.05331 0.45054 0.99758
 O240 O -0.00960 0.43409 0.99188
 C241 C 0.00379 0.43090 0.97320
 O242 O 0.04590 0.49813 0.94150
 O243 O -0.04292 0.54888 0.95311
 O244 O 0.00376 0.48657 0.93357
 O245 O -0.03316 0.50795 0.93784
 O246 O 0.00514 0.57591 0.96514
 O247 O 0.04336 0.55230 0.95860
 C248 C -0.01685 0.49628 0.92535
 H249 H -0.02737 0.55893 0.99500
 H250 H 0.05596 0.51521 0.98590
 H251 H -0.02647 0.46937 0.96481
 H252 H -0.00416 0.48437 1.05098
 H253 H 0.05539 0.57954 0.99761
 H254 H 0.07867 0.50807 1.04287
 H255 H 0.05832 0.46863 1.05579
 H256 H -0.01476 0.42350 1.03375
 H257 H 0.01529 0.59142 0.96744
 H258 H -0.05967 0.54609 0.94570
 H259 H -0.07705 0.50448 0.95443
 H260 H -0.05363 0.43250 1.00260
 H261 H 0.05092 0.56941 0.95864
 H262 H 0.04949 0.48310 0.93180
 H263 H -0.04794 0.53057 1.06873
 H264 H -0.05043 0.44492 1.04150
 Zr265 Zr -0.02057 0.47668 0.46622
 O266 O -0.04451 0.48799 0.43758
 O267 O -0.01801 0.43776 0.46102
 O268 O -0.00325 0.47315 0.43235
 O269 O -0.06818 0.47304 0.50840
 O270 O 0.03514 0.49203 0.43715
 O271 O -0.05767 0.46258 0.47031
 O272 O 0.00834 0.42397 0.49092
 O273 O 0.01728 0.46946 0.47463
 O274 O -0.01992 0.46238 0.50135
 O275 O -0.00201 0.51161 0.46221
 O276 O -0.03824 0.50415 0.48717
 Zr277 Zr 0.02053 0.51797 0.52861
 Zr278 Zr 0.03537 0.50467 0.47245
 Zr279 Zr -0.03551 0.49010 0.52243
 Zr280 Zr 0.01767 0.45650 0.51015
 O281 O -0.06677 0.51349 0.52903
 O282 O 0.05199 0.44109 0.49814
 O283 O 0.00185 0.48300 0.53304
 O284 O 0.03771 0.49050 0.50759
 O285 O 0.01994 0.53262 0.49359
 O286 O -0.01723 0.52496 0.52000
 C287 C -0.00604 0.42051 0.47275
 C288 C -0.07301 0.46316 0.48805
 C289 C 0.01835 0.48080 0.42459
 O290 O 0.06816 0.48285 0.46783
 O291 O 0.06649 0.52531 0.48522
 O292 O 0.05662 0.53430 0.52379
 C293 C 0.07125 0.53531 0.50551
 O294 O -0.04468 0.54113 0.45649
 Zr295 Zr -0.01783 0.53812 0.48472
 O296 O 0.01843 0.55698 0.53347
 O297 O 0.04324 0.53502 0.44845
 O298 O -0.00312 0.56349 0.45849
 O299 O -0.05049 0.55612 0.49760
 O300 O -0.00535 0.57090 0.50172
 C301 C 0.00839 0.57437 0.52031
 O302 O 0.04574 0.50675 0.55627
 O303 O -0.04533 0.45876 0.54457
 O304 O 0.00420 0.51978 0.56301
 O305 O -0.03351 0.49943 0.55871
 O306 O 0.00216 0.42956 0.53449
 O307 O 0.04116 0.45225 0.54085
 C308 C -0.01673 0.51081 0.57117
 H309 H -0.02962 0.44653 0.50351
 H310 H 0.05540 0.48768 0.51257
 H311 H -0.02499 0.53731 0.53074
 H312 H -0.00326 0.51812 0.44554
 H313 H 0.05214 0.42298 0.50294
 H314 H 0.07855 0.49194 0.45578
 H315 H 0.05994 0.53171 0.44140
 H316 H -0.01234 0.57964 0.45973
 H317 H 0.01180 0.41369 0.53298
 H318 H -0.06192 0.46253 0.55164
 H319 H -0.07721 0.50446 0.54108
 H320 H -0.04983 0.57397 0.49199
 H321 H 0.04825 0.43499 0.54142
 H322 H 0.04996 0.52204 0.56546
 H323 H -0.04888 0.47261 0.42857
 H324 H -0.04916 0.55909 0.45375
 Zr325 Zr 0.48710 -0.02676 -0.02676
 O326 O 0.46289 -0.01640 -0.05551
 O327 O 0.49022 -0.06577 -0.03117
 O328 O 0.50419 -0.03092 -0.06061
 O329 O 0.43967 -0.02963 0.01551
 O330 O 0.54247 -0.01168 -0.05642
 O331 O 0.45017 -0.04109 -0.02229
 O332 O 0.51683 -0.07854 -0.00107
 O333 O 0.52501 -0.03350 -0.01827
 O334 O 0.48794 -0.04016 0.00865
 O335 O 0.50537 0.00822 -0.03165
 O336 O 0.46931 0.00118 -0.00647
 Zr337 Zr 0.52804 0.01648 0.03452
 Zr338 Zr 0.54281 0.00176 -0.02137
 Zr339 Zr 0.47220 -0.01196 0.02907
 Zr340 Zr 0.52559 -0.04549 0.01755
 O341 O 0.44069 0.01129 0.03510
 O342 O 0.56016 -0.06083 0.00609
 O343 O 0.50961 -0.01851 0.03983
 O344 O 0.54536 -0.01142 0.01410
 O345 O 0.52730 0.03018 -0.00083
 O346 O 0.49023 0.02297 0.02578
 C347 C 0.50258 -0.08259 -0.01921
 C348 C 0.43487 -0.04009 -0.00456
 C349 C 0.52566 -0.02328 -0.06864
 O350 O 0.57566 -0.02007 -0.02560
 O351 O 0.57380 0.02285 -0.00916
 O352 O 0.56404 0.03286 0.02920
 C353 C 0.57857 0.03343 0.01084
 O354 O 0.46246 0.03734 -0.03789
 Zr355 Zr 0.48949 0.03524 -0.00975
 O356 O 0.52582 0.05560 0.03848
 O357 O 0.55054 0.03155 -0.04604
 O358 O 0.50396 0.05999 -0.03662
 O359 O 0.45681 0.05349 0.00279
 O360 O 0.50190 0.06854 0.00647
 C361 C 0.51564 0.07259 0.02496
 O362 O 0.55328 0.00606 0.06242
 O363 O 0.46280 -0.04277 0.05203
 O364 O 0.51155 0.01934 0.06882
 O365 O 0.47399 -0.00140 0.06497
 O366 O 0.51026 -0.07210 0.04230
 O367 O 0.54892 -0.04871 0.04845
 C368 C 0.49058 0.01058 0.07712
 H369 H 0.47840 -0.05606 0.01116
 H370 H 0.56308 -0.01400 0.01910
 H371 H 0.48239 0.03558 0.03619
 H372 H 0.50402 0.01431 -0.04845
 H373 H 0.56049 -0.07881 0.01130
 H374 H 0.58597 -0.01125 -0.03790
 H375 H 0.56722 0.02809 -0.05307
 H376 H 0.49467 0.07612 -0.03572
 H377 H 0.52014 -0.08786 0.04119
 H378 H 0.44613 -0.03904 0.05893
 H379 H 0.43030 0.00245 0.04732
 H380 H 0.45740 0.07119 -0.00326
 H381 H 0.55623 -0.06586 0.04943
 H382 H 0.55744 0.02162 0.07122
 H383 H 0.45863 -0.03203 -0.06418
 H384 H 0.45794 0.05521 -0.04110
 Zr385 Zr 0.52176 0.51441 -0.03292
 O386 O 0.54900 0.49816 -0.05528
 O387 O 0.51819 0.55062 -0.04783
 O388 O 0.50782 0.51169 -0.06830
 O389 O 0.56344 0.53042 0.01236
 O390 O 0.46984 0.49186 -0.06371
 O391 O 0.55752 0.53159 -0.02814
 O392 O 0.48682 0.56809 -0.02591
 O393 O 0.48295 0.52061 -0.03042
 O394 O 0.51627 0.53587 -0.00241
 O395 O 0.50508 0.47837 -0.03118
 O396 O 0.53772 0.49317 -0.00439
 Zr397 Zr 0.47496 0.48459 0.03227
 Zr398 Zr 0.46652 0.48481 -0.02678
 Zr399 Zr 0.53017 0.51422 0.02613
 Zr400 Zr 0.47769 0.54083 0.00068
 O401 O 0.56187 0.49542 0.04095
 O402 O 0.44381 0.55091 -0.01725
 O403 O 0.49158 0.52086 0.03081
 O404 O 0.45943 0.50585 0.00372
 O405 O 0.48022 0.46285 0.00185
 O406 O 0.51373 0.47858 0.02943
 C407 C 0.50310 0.56852 -0.04281
 C408 C 0.57047 0.53595 -0.00906
 C409 C 0.48705 0.50247 -0.07644
 O410 O 0.43318 0.50249 -0.03931
 O411 O 0.43508 0.46511 -0.01320
 O412 O 0.44028 0.46533 0.02735
 C413 C 0.42807 0.45954 0.00821
 O414 O 0.54841 0.45032 -0.02569
 Zr415 Zr 0.51898 0.45821 -0.00144
 O416 O 0.47827 0.44821 0.04690
 O417 O 0.46331 0.45020 -0.04479
 O418 O 0.50713 0.42694 -0.02180
 O419 O 0.55135 0.44574 0.01770
 O420 O 0.50716 0.42972 0.02282
 C421 C 0.49154 0.42950 0.04025
 O422 O 0.44649 0.50025 0.05364
 O423 O 0.53502 0.54991 0.04189
 O424 O 0.48768 0.48965 0.06780
 O425 O 0.52489 0.51096 0.06326
 O426 O 0.48966 0.57372 0.01860
 O427 O 0.45128 0.55021 0.02741
 C428 C 0.50760 0.50052 0.07603
 H429 H 0.52488 0.55246 -0.00315
 H430 H 0.44118 0.50847 0.00600
 H431 H 0.52097 0.46926 0.04334
 H432 H 0.50842 0.46890 -0.04590
 H433 H 0.44241 0.56955 -0.01694
 H434 H 0.42487 0.49058 -0.05032
 H435 H 0.44744 0.45096 -0.05417
 H436 H 0.51632 0.41191 -0.01561
 H437 H 0.47974 0.58808 0.01201
 H438 H 0.55083 0.54906 0.05136
 H439 H 0.57028 0.50746 0.05177
 H440 H 0.55207 0.42712 0.01645
 H441 H 0.44387 0.56693 0.02355
 H442 H 0.44158 0.48708 0.06559
 H443 H 0.55399 0.51134 -0.06718
 H444 H 0.55288 0.43222 -0.02434
 Zr445 Zr 0.02426 1.01856 0.46479
 O446 O 0.05100 1.00362 0.44108
 O447 O 0.02001 1.05533 0.45135
 O448 O 0.00945 1.01706 0.42958
 O449 O 0.06716 1.03244 0.50971
 O450 O -0.02830 0.99687 0.43441
 O451 O 0.06014 1.03554 0.46941
 O452 O -0.01084 1.07160 0.47469
 O453 O -0.01447 1.02447 0.46850
 O454 O 0.01956 1.03860 0.49628
 O455 O 0.00775 0.98242 0.46554
 O456 O 0.04100 0.99615 0.49209
 Zr457 Zr -0.02072 0.98563 0.52998
 Zr458 Zr -0.03067 0.98851 0.47114
 Zr459 Zr 0.03423 1.01575 0.52365
 Zr460 Zr -0.01893 1.04324 0.50055
 O461 O 0.06625 0.99637 0.53708
 O462 O -0.05342 1.05396 0.48407
 O463 O -0.00423 1.02198 0.52952
 O464 O -0.03700 1.00810 0.50266
 O465 O -0.01618 0.96535 0.49855
 O466 O 0.01798 0.97994 0.52598
 C467 C 0.00487 1.07283 0.45733
 C468 C 0.07363 1.03893 0.48835
 C469 C -0.01145 1.00797 0.42161
 O470 O -0.06424 1.00673 0.45999
 O471 O -0.06179 0.96828 0.48458
 O472 O -0.05555 0.96657 0.52501
 C473 C -0.06825 0.96169 0.50589
 O474 O 0.05138 0.95453 0.46893
 Zr475 Zr 0.02249 0.96104 0.49413
 O476 O -0.01693 0.94856 0.54292
 O477 O -0.03436 0.95462 0.45201
 O478 O 0.01032 0.93072 0.47269
 O479 O 0.05529 0.94785 0.51210
 O480 O 0.01127 0.93136 0.51730
 C481 C -0.00392 0.93022 0.53505
 O482 O -0.04867 0.99993 0.55277
 O483 O 0.03956 1.05076 0.54055
 O484 O -0.00709 0.98943 0.56543
 O485 O 0.02989 1.01112 0.56078
 O486 O -0.00641 1.07536 0.51936
 O487 O -0.04449 1.05130 0.52842
 C488 C 0.01293 1.00019 0.57360
 H489 H 0.02812 1.05523 0.49595
 H490 H -0.05519 1.01056 0.50547
 H491 H 0.02557 0.97006 0.53937
 H492 H 0.01072 0.97360 0.45039
 H493 H -0.05486 1.07253 0.48520
 H494 H -0.07282 0.99533 0.44868
 H495 H -0.05044 0.95573 0.44298
 H496 H 0.01978 0.91550 0.47797
 H497 H -0.01657 1.08993 0.51361
 H498 H 0.05561 1.04956 0.54961
 H499 H 0.07496 1.00796 0.54812
 H500 H 0.05609 0.92934 0.50997
 H501 H -0.05194 1.06819 0.52552
 H502 H -0.05313 0.98616 0.56426
 H503 H 0.05558 1.01738 0.42961
 H504 H 0.05599 0.93644 0.46942
 Zr505 Zr 0.72346 0.26948 0.21286
 O506 O 0.73156 0.29590 0.18505
 O507 O 0.68562 0.26104 0.20580
 O508 O 0.72251 0.25301 0.17856
 O509 O 0.71369 0.31461 0.25607
 O510 O 0.74638 0.21745 0.18326
 O511 O 0.70504 0.30459 0.21733
 O512 O 0.67574 0.23103 0.23414
 O513 O 0.72153 0.23056 0.22032
 O514 O 0.70894 0.26536 0.24740
 O515 O 0.76051 0.25608 0.20970
 O516 O 0.74808 0.28981 0.23525
 Zr517 Zr 0.76933 0.23172 0.27586
 Zr518 Zr 0.75866 0.21759 0.21894
 Zr519 Zr 0.73415 0.28366 0.26991
 Zr520 Zr 0.70834 0.22685 0.25528
 O521 O 0.75277 0.31775 0.27835
 O522 O 0.69825 0.19059 0.24291
 O523 O 0.73221 0.24518 0.27951
 O524 O 0.74458 0.21186 0.25348
 O525 O 0.78422 0.23578 0.24142
 O526 O 0.77101 0.27054 0.26823
 C527 C 0.67051 0.24529 0.21600
 C528 C 0.70382 0.31927 0.23544
 C529 C 0.73291 0.23284 0.17071
 O530 O 0.74131 0.18236 0.21242
 O531 O 0.78210 0.18837 0.23184
 O532 O 0.78950 0.19772 0.27094
 C533 C 0.79197 0.18374 0.25248
 O534 O 0.78449 0.30214 0.20549
 Zr535 Zr 0.78439 0.27447 0.23353
 O536 O 0.80737 0.23962 0.28245
 O537 O 0.79012 0.21498 0.19615
 O538 O 0.81203 0.26362 0.20861
 O539 O 0.79684 0.30953 0.24702
 O540 O 0.81797 0.26752 0.25248
 C541 C 0.82304 0.25370 0.27095
 O542 O 0.76153 0.20426 0.30285
 O543 O 0.70154 0.28770 0.29098
 O544 O 0.76885 0.24704 0.31058
 O545 O 0.74360 0.28169 0.30639
 O546 O 0.67886 0.23792 0.27814
 O547 O 0.70687 0.20244 0.28586
 C548 C 0.75727 0.26633 0.31882
 H549 H 0.69193 0.27265 0.24895
 H550 H 0.74394 0.19371 0.25799
 H551 H 0.78193 0.27974 0.27954
 H552 H 0.76694 0.25885 0.19329
 H553 H 0.68039 0.18758 0.24711
 H554 H 0.75176 0.17378 0.20046
 H555 H 0.78907 0.19830 0.18849
 H556 H 0.82679 0.27487 0.21067
 H557 H 0.66462 0.22608 0.27576
 H558 H 0.70279 0.30439 0.29859
 H559 H 0.74230 0.32623 0.29036
 H560 H 0.81460 0.31190 0.24213
 H561 H 0.69065 0.19317 0.28596
 H562 H 0.77715 0.20191 0.31243
 H563 H 0.71584 0.29839 0.17563
 H564 H 0.80182 0.30863 0.20316
 Zr565 Zr 0.76579 0.72662 0.71484
 O566 O 0.74758 0.70118 0.69165
 O567 O 0.80221 0.72785 0.70112
 O568 O 0.76369 0.74184 0.67953
 O569 O 0.77844 0.68224 0.75973
 O570 O 0.74718 0.78113 0.68446
 O571 O 0.78016 0.68957 0.71937
 O572 O 0.82225 0.75677 0.72439
 O573 O 0.77522 0.76484 0.71818
 O574 O 0.78742 0.72945 0.74607
 O575 O 0.73131 0.74588 0.71609
 O576 O 0.74331 0.71124 0.74255
 Zr577 Zr 0.73999 0.77327 0.78022
 Zr578 Zr 0.74094 0.78376 0.72133
 Zr579 Zr 0.76478 0.71609 0.77379
 Zr580 Zr 0.79560 0.76749 0.75001
 O581 O 0.74343 0.68524 0.78729
 O582 O 0.80826 0.80110 0.73267
 O583 O 0.77463 0.75399 0.77938
 O584 O 0.76235 0.78828 0.75252
 O585 O 0.71803 0.77068 0.74915
 O586 O 0.73072 0.73510 0.77654
 C587 C 0.82140 0.74101 0.70723
 C588 C 0.78358 0.67569 0.73831
 C589 C 0.75591 0.76347 0.67155
 O590 O 0.76140 0.81613 0.71002
 O591 O 0.72348 0.81589 0.73503
 O592 O 0.72314 0.80922 0.77549
 C593 C 0.71810 0.82234 0.75641
 O594 O 0.70009 0.70420 0.72028
 Zr595 Zr 0.71008 0.73248 0.74506
 O596 O 0.70361 0.77236 0.79388
 O597 O 0.70692 0.79047 0.70241
 O598 O 0.68010 0.74725 0.72393
 O599 O 0.69464 0.70071 0.76346
 O600 O 0.68264 0.74609 0.76861
 C601 C 0.68380 0.76112 0.78635
 O602 O 0.75795 0.79989 0.80237
 O603 O 0.79975 0.70803 0.79051
 O604 O 0.74384 0.75895 0.81565
 O605 O 0.76180 0.72024 0.81097
 O606 O 0.82730 0.75273 0.76873
 O607 O 0.80701 0.79238 0.77740
 C608 C 0.75285 0.73789 0.82380
 H609 H 0.80322 0.71965 0.74570
 H610 H 0.76636 0.80627 0.75522
 H611 H 0.72080 0.72813 0.79007
 H612 H 0.72158 0.74374 0.70111
 H613 H 0.82689 0.80111 0.73338
 H614 H 0.75027 0.82581 0.69894
 H615 H 0.70900 0.80671 0.69352
 H616 H 0.66440 0.73898 0.72953
 H617 H 0.84235 0.76196 0.76283
 H618 H 0.79763 0.69186 0.79950
 H619 H 0.75466 0.67550 0.79824
 H620 H 0.67611 0.70153 0.76150
 H621 H 0.82403 0.79907 0.77384
 H622 H 0.74531 0.80536 0.81414
 H623 H 0.76031 0.69563 0.68000
 H624 H 0.68170 0.70121 0.72082
 Zr625 Zr 0.22819 0.22679 0.78425
 O626 O 0.23964 0.20114 0.81168
 O627 O 0.19018 0.23166 0.79206
 O628 O 0.22599 0.24307 0.81851
 O629 O 0.22120 0.18099 0.74118
 O630 O 0.24576 0.28119 0.81365
 O631 O 0.21213 0.19043 0.77986
 O632 O 0.17688 0.26071 0.76404
 O633 O 0.22231 0.26527 0.77676
 O634 O 0.21267 0.22933 0.74983
 O635 O 0.26372 0.24407 0.78734
 O636 O 0.25418 0.20893 0.76182
 Zr637 Zr 0.26884 0.26889 0.72104
 Zr638 Zr 0.25791 0.28214 0.77804
 Zr639 Zr 0.23911 0.21355 0.72726
 Zr640 Zr 0.20816 0.26753 0.74192
 O641 O 0.26082 0.18148 0.71917
 O642 O 0.19501 0.30293 0.75359
 O643 O 0.23319 0.25159 0.71760
 O644 O 0.24280 0.28628 0.74352
 O645 O 0.28445 0.26650 0.75546
 O646 O 0.27462 0.23050 0.72868
 C647 C 0.17361 0.24624 0.78245
 C648 C 0.21165 0.17573 0.76174
 C649 C 0.23408 0.26442 0.82623
 O650 O 0.23760 0.31563 0.78418
 O651 O 0.27899 0.31314 0.76502
 O652 O 0.28603 0.30460 0.72577
 C653 C 0.28812 0.31853 0.74432
 O654 O 0.29136 0.19963 0.79056
 Zr655 Zr 0.28879 0.22813 0.76339
 O656 O 0.30755 0.26619 0.71497
 O657 O 0.28908 0.28795 0.80103
 O658 O 0.31516 0.24053 0.78930
 O659 O 0.30564 0.19570 0.74878
 O660 O 0.32141 0.24087 0.74582
 C661 C 0.32488 0.25546 0.72756
 O662 O 0.25767 0.29518 0.69405
 O663 O 0.20690 0.20598 0.70608
 O664 O 0.26952 0.25339 0.68636
 O665 O 0.24777 0.21630 0.69075
 O666 O 0.17899 0.25319 0.71991
 O667 O 0.20384 0.29097 0.71090
 C668 C 0.25964 0.23297 0.67821
 H669 H 0.19629 0.22050 0.74845
 H670 H 0.24045 0.30427 0.73895
 H671 H 0.28639 0.22273 0.71735
 H672 H 0.27055 0.24200 0.80375
 H673 H 0.17686 0.30398 0.74952
 H674 H 0.24740 0.32529 0.79607
 H675 H 0.28655 0.30448 0.80862
 H676 H 0.33085 0.23078 0.78720
 H677 H 0.16386 0.26365 0.72248
 H678 H 0.20970 0.18949 0.69849
 H679 H 0.25101 0.17177 0.70733
 H680 H 0.32352 0.19564 0.75390
 H681 H 0.18680 0.29846 0.71068
 H682 H 0.27280 0.29931 0.68441
 H683 H 0.22455 0.19705 0.82138
 H684 H 0.30911 0.19432 0.79253
 Zr685 Zr 0.26734 0.77890 0.28837
 O686 O 0.24892 0.80603 0.30922
 O687 O 0.30254 0.77650 0.30498
 O688 O 0.26286 0.76522 0.32392
 O689 O 0.28468 0.82072 0.24284
 O690 O 0.24501 0.72629 0.31936
 O691 O 0.28384 0.81513 0.28344
 O692 O 0.32217 0.74542 0.28446
 O693 O 0.27504 0.74019 0.28697
 O694 O 0.29059 0.77387 0.25883
 O695 O 0.23213 0.76086 0.28565
 O696 O 0.24716 0.79388 0.25875
 Zr697 Zr 0.24310 0.73039 0.22325
 Zr698 Zr 0.24022 0.72240 0.28237
 Zr699 Zr 0.27011 0.78685 0.22922
 Zr700 Zr 0.29712 0.73536 0.25680
 O701 O 0.25109 0.81805 0.21342
 O702 O 0.30726 0.70171 0.27555
 O703 O 0.27850 0.74839 0.22564
 O704 O 0.26314 0.71574 0.25288
 O705 O 0.21956 0.73512 0.25268
 O706 O 0.23538 0.76902 0.22499
 C707 C 0.32106 0.76176 0.30111
 C708 C 0.28895 0.82804 0.26427
 C709 C 0.25401 0.74410 0.33211
 O710 O 0.25825 0.68964 0.29617
 O711 O 0.22211 0.69031 0.26873
 O712 O 0.22472 0.69510 0.22815
 C713 C 0.21794 0.68300 0.24730
 O714 O 0.20310 0.80358 0.27779
 Zr715 Zr 0.21317 0.77377 0.25490
 O716 O 0.20750 0.73165 0.20750
 O717 O 0.20491 0.71812 0.29926
 O718 O 0.18148 0.76134 0.27478
 O719 O 0.20025 0.80512 0.23417
 O720 O 0.18639 0.75970 0.23045
 C721 C 0.18776 0.74366 0.21355
 O722 O 0.26120 0.70246 0.20310
 O723 O 0.30626 0.79264 0.21442
 O724 O 0.24902 0.74329 0.18767
 O725 O 0.26860 0.78143 0.19210
 O726 O 0.33073 0.74838 0.24038
 O727 O 0.30894 0.70935 0.23076
 C728 C 0.25924 0.76374 0.17938
 H729 H 0.30682 0.78300 0.26004
 H730 H 0.26649 0.69751 0.25108
 H731 H 0.22643 0.77574 0.21068
 H732 H 0.22175 0.76401 0.29990
 H733 H 0.32588 0.70097 0.27603
 H734 H 0.24601 0.68093 0.30681
 H735 H 0.20567 0.70225 0.30891
 H736 H 0.16648 0.76984 0.26781
 H737 H 0.34485 0.73872 0.24769
 H738 H 0.30541 0.80843 0.20466
 H739 H 0.26331 0.82683 0.20282
 H740 H 0.18161 0.80494 0.23478
 H741 H 0.32550 0.70227 0.23548
 H742 H 0.24894 0.69683 0.19085
 H743 H 0.26114 0.81157 0.32154
 H744 H 0.18501 0.80748 0.27564
 Zr745 Zr 0.22585 0.76627 0.72221
 O746 O 0.23409 0.79279 0.69451
 O747 O 0.18820 0.75762 0.71495
 O748 O 0.22450 0.74991 0.68795
 O749 O 0.21590 0.81122 0.76543
 O750 O 0.24827 0.71426 0.69241
 O751 O 0.20734 0.80127 0.72666
 O752 O 0.17824 0.72712 0.74278
 O753 O 0.22390 0.72736 0.72952
 O754 O 0.21116 0.76199 0.75665
 O755 O 0.26286 0.75290 0.71890
 O756 O 0.25040 0.78654 0.74467
 Zr757 Zr 0.27160 0.72824 0.78499
 Zr758 Zr 0.26098 0.71439 0.72799
 Zr759 Zr 0.23635 0.78021 0.77925
 Zr760 Zr 0.21061 0.72345 0.76442
 O761 O 0.25488 0.81430 0.78789
 O762 O 0.20063 0.68700 0.75244
 O763 O 0.23446 0.74169 0.78871
 O764 O 0.24688 0.70849 0.76251
 O765 O 0.28654 0.73246 0.75059
 O766 O 0.27321 0.76710 0.77750
 C767 C 0.17322 0.74142 0.72461
 C768 C 0.20609 0.81591 0.74477
 C769 C 0.23464 0.72968 0.68002
 O770 O 0.24377 0.67908 0.72150
 O771 O 0.28457 0.68526 0.74065
 O772 O 0.29192 0.69431 0.77983
 C773 C 0.29446 0.68050 0.76125
 O774 O 0.28690 0.79883 0.71479
 Zr775 Zr 0.28670 0.77119 0.74286
 O776 O 0.30954 0.73632 0.79184
 O777 O 0.29225 0.71201 0.70495
 O778 O 0.31447 0.76017 0.71813
 O779 O 0.29904 0.80634 0.75625
 O780 O 0.32015 0.76452 0.76212
 C781 C 0.32516 0.75069 0.78060
 O782 O 0.26382 0.70059 0.81180
 O783 O 0.20371 0.78412 0.80029
 O784 O 0.27112 0.74341 0.81976
 O785 O 0.24590 0.77812 0.81569
 O786 O 0.18085 0.73463 0.78689
 O787 O 0.20921 0.69929 0.79517
 C788 C 0.25959 0.76272 0.82805
 H789 H 0.19412 0.76924 0.75812
 H790 H 0.24628 0.69032 0.76695
 H791 H 0.28407 0.77631 0.78884
 H792 H 0.26923 0.75572 0.70247
 H793 H 0.18281 0.68395 0.75678
 H794 H 0.25416 0.67060 0.70942
 H795 H 0.29118 0.69537 0.69721
 H796 H 0.32926 0.77138 0.72028
 H797 H 0.16667 0.72274 0.78443
 H798 H 0.20497 0.80075 0.80802
 H799 H 0.24435 0.82272 0.79989
 H800 H 0.31676 0.80879 0.75130
 H801 H 0.19287 0.69025 0.79554
 H802 H 0.27945 0.69822 0.82139
 H803 H 0.21843 0.79532 0.68502
 H804 H 0.30430 0.80505 0.71229
 Zr805 Zr 0.26143 0.22885 0.21978
 O806 O 0.24198 0.20305 0.19785
 O807 O 0.29720 0.22945 0.20475
 O808 O 0.25861 0.24321 0.18428
 O809 O 0.27552 0.18550 0.26508
 O810 O 0.24281 0.28286 0.18877
 O811 O 0.27585 0.19189 0.22457
 O812 O 0.31835 0.25882 0.22662
 O813 O 0.27133 0.26706 0.22199
 O814 O 0.28421 0.23225 0.25019
 O815 O 0.22723 0.24849 0.22159
 O816 O 0.23979 0.21433 0.24844
 Zr817 Zr 0.23835 0.27737 0.28488
 Zr818 Zr 0.23741 0.28639 0.22571
 Zr819 Zr 0.26240 0.21975 0.27883
 Zr820 Zr 0.29286 0.27031 0.25305
 O821 O 0.24120 0.18938 0.29349
 O822 O 0.30536 0.30339 0.23469
 O823 O 0.27277 0.25771 0.28331
 O824 O 0.25990 0.29146 0.25614
 O825 O 0.21536 0.27423 0.25452
 O826 O 0.22864 0.23918 0.28226
 C827 C 0.31666 0.24270 0.20979
 C828 C 0.27996 0.17846 0.24366
 C829 C 0.25107 0.26480 0.17605
 O830 O 0.25758 0.31846 0.21315
 O831 O 0.22066 0.31901 0.23915
 O832 O 0.22173 0.31347 0.27975
 C833 C 0.21612 0.32612 0.26050
 O834 O 0.19570 0.20719 0.22773
 Zr835 Zr 0.20691 0.23601 0.25150
 O836 O 0.20240 0.27727 0.29959
 O837 O 0.20284 0.29273 0.20761
 O838 O 0.17641 0.25047 0.23086
 O839 O 0.19184 0.20489 0.27116
 O840 O 0.18040 0.25066 0.27542
 C841 C 0.18222 0.26616 0.29275
 O842 O 0.25727 0.30433 0.30593
 O843 O 0.29780 0.21175 0.29474
 O844 O 0.24333 0.26368 0.32049
 O845 O 0.26078 0.22471 0.31593
 O846 O 0.32502 0.25556 0.27102
 O847 O 0.30546 0.29575 0.27951
 C848 C 0.25246 0.24268 0.32873
 H849 H 0.29992 0.22234 0.24951
 H850 H 0.26417 0.30948 0.25832
 H851 H 0.21911 0.23265 0.29622
 H852 H 0.21702 0.24608 0.20693
 H853 H 0.32400 0.30318 0.23488
 H854 H 0.24617 0.32786 0.20213
 H855 H 0.20476 0.30865 0.19818
 H856 H 0.16080 0.24256 0.23714
 H857 H 0.33996 0.26438 0.26436
 H858 H 0.29582 0.19583 0.30415
 H859 H 0.25267 0.17977 0.30430
 H860 H 0.17326 0.20591 0.26987
 H861 H 0.32254 0.30194 0.27542
 H862 H 0.24504 0.31020 0.31790
 H863 H 0.25416 0.19707 0.18588
 H864 H 0.17735 0.20428 0.22908
 Zr865 Zr 0.72278 0.73233 0.28043
 O866 O 0.73226 0.70743 0.30914
 O867 O 0.68415 0.73702 0.28569
 O868 O 0.71998 0.74951 0.31430
 O869 O 0.71709 0.68541 0.23819
 O870 O 0.74123 0.78679 0.30937
 O871 O 0.70704 0.69580 0.27641
 O872 O 0.67223 0.76468 0.25589
 O873 O 0.71800 0.77079 0.27205
 O874 O 0.70884 0.73433 0.24537
 O875 O 0.75863 0.74875 0.28425
 O876 O 0.74921 0.71336 0.25927
 Zr877 Zr 0.76703 0.77197 0.21780
 Zr878 Zr 0.75412 0.78674 0.27403
 Zr879 Zr 0.73566 0.71748 0.22409
 Zr880 Zr 0.70539 0.77247 0.23661
 O881 O 0.75704 0.68488 0.21705
 O882 O 0.69197 0.80750 0.24891
 O883 O 0.73106 0.75548 0.21356
 O884 O 0.74045 0.79040 0.23898
 O885 O 0.78135 0.77000 0.25275
 O886 O 0.77139 0.73358 0.22640
 C887 C 0.66777 0.75017 0.27404
 C888 C 0.70707 0.68065 0.25864
 C889 C 0.72887 0.77058 0.32198
 O890 O 0.73419 0.82073 0.27886
 O891 O 0.77619 0.81712 0.26121
 O892 O 0.78529 0.80720 0.22270
 C893 C 0.78658 0.82171 0.24091
 O894 O 0.78576 0.70481 0.29030
 Zr895 Zr 0.78421 0.73166 0.26159
 O896 O 0.80561 0.76663 0.21218
 O897 O 0.78461 0.79256 0.29785
 O898 O 0.81049 0.74538 0.28696
 O899 O 0.79948 0.69735 0.24934
 O900 O 0.81750 0.74084 0.24344
 C901 C 0.82198 0.75423 0.22461
 O902 O 0.75789 0.79846 0.19028
 O903 O 0.70393 0.70996 0.20224
 O904 O 0.76771 0.75608 0.18329
 O905 O 0.74526 0.71943 0.18778
 O906 O 0.67803 0.75891 0.21221
 O907 O 0.70273 0.79689 0.20610
 C908 C 0.75759 0.73574 0.17522
 H909 H 0.69256 0.72550 0.24328
 H910 H 0.73871 0.80836 0.23405
 H911 H 0.78311 0.72500 0.21557
 H912 H 0.76493 0.74692 0.30088
 H913 H 0.67400 0.80881 0.24423
 H914 H 0.74367 0.83042 0.29095
 H915 H 0.78219 0.80937 0.30496
 H916 H 0.82605 0.73528 0.28561
 H917 H 0.66274 0.76937 0.21383
 H918 H 0.70664 0.69321 0.19513
 H919 H 0.74745 0.67518 0.20504
 H920 H 0.81725 0.69657 0.25478
 H921 H 0.68596 0.80496 0.20566
 H922 H 0.77345 0.80174 0.18101
 H923 H 0.71658 0.70383 0.31814
 H924 H 0.80346 0.69980 0.29326
 Zr925 Zr 0.76647 0.27112 0.77781
 O926 O 0.75216 0.29749 0.80215
 O927 O 0.80351 0.26670 0.78985
 O928 O 0.76520 0.25560 0.81298
 O929 O 0.78015 0.31506 0.73294
 O930 O 0.74441 0.21815 0.80853
 O931 O 0.78350 0.30706 0.77313
 O932 O 0.81927 0.23651 0.76553
 O933 O 0.77197 0.23229 0.77380
 O934 O 0.78591 0.26690 0.74575
 O935 O 0.73025 0.25500 0.77776
 O936 O 0.74395 0.28872 0.75115
 Zr937 Zr 0.73242 0.22774 0.71313
 Zr938 Zr 0.73586 0.21652 0.77188
 Zr939 Zr 0.76304 0.28248 0.71907
 Zr940 Zr 0.79012 0.22834 0.74117
 O941 O 0.74384 0.31502 0.70629
 O942 O 0.80076 0.19372 0.75794
 O943 O 0.76878 0.24395 0.71283
 O944 O 0.75492 0.21060 0.73985
 O945 O 0.71258 0.23181 0.74504
 O946 O 0.72722 0.26654 0.71746
 C947 C 0.82100 0.25210 0.78276
 C948 C 0.78684 0.32099 0.75425
 C949 C 0.75576 0.23472 0.82114
 O950 O 0.75378 0.18245 0.78243
 O951 O 0.71520 0.18584 0.75864
 O952 O 0.71294 0.19304 0.71830
 C953 C 0.70824 0.17992 0.73745
 O954 O 0.70250 0.29877 0.77550
 Zr955 Zr 0.70874 0.27055 0.74974
 O956 O 0.69561 0.23253 0.70066
 O957 O 0.70229 0.21268 0.79178
 O958 O 0.67852 0.25774 0.77142
 O959 O 0.69598 0.30426 0.73262
 O960 O 0.67899 0.26064 0.72662
 C961 C 0.67765 0.24598 0.70863
 O962 O 0.74612 0.19984 0.69004
 O963 O 0.79778 0.28798 0.70141
 O964 O 0.73625 0.24189 0.67767
 O965 O 0.75809 0.27880 0.68201
 O966 O 0.82174 0.24050 0.72102
 O967 O 0.79733 0.20269 0.71332
 C968 C 0.74706 0.26203 0.66936
 H969 H 0.80252 0.27540 0.74557
 H970 H 0.75713 0.19238 0.73690
 H971 H 0.71741 0.27459 0.70429
 H972 H 0.72165 0.25777 0.79312
 H973 H 0.81924 0.19211 0.75632
 H974 H 0.74240 0.17368 0.79387
 H975 H 0.70330 0.19631 0.80061
 H976 H 0.66338 0.26742 0.76648
 H977 H 0.83625 0.22998 0.72618
 H978 H 0.79659 0.30431 0.69253
 H979 H 0.75532 0.32385 0.69499
 H980 H 0.67754 0.30521 0.73500
 H981 H 0.81388 0.19460 0.71609
 H982 H 0.73230 0.19581 0.67872
 H983 H 0.76607 0.30176 0.81329
 H984 H 0.68445 0.30334 0.77549
 C985 C 0.47030 1.01028 0.35503
 C986 C 0.46120 1.03319 0.34481
 C987 C 0.44758 1.03303 0.32282
 C988 C 0.44313 1.00997 0.31112
 C989 C 0.45332 0.98723 0.32072
 C990 C 0.46699 0.98740 0.34269
 C991 C 0.47678 0.96441 0.35200
 C992 C 0.47324 0.94189 0.33996
 C993 C 0.45980 0.94169 0.31856
 C994 C 0.44989 0.96404 0.30897
 C995 C 0.43837 1.05613 0.31319
 C996 C 0.44252 1.07875 0.32490
 C997 C 0.45582 1.07891 0.34637
 C998 C 0.46508 1.05644 0.35630
 C999 C 0.42724 1.00945 0.28982
 C1000 C 0.41368 1.00862 0.27241
 C1001 C 0.48051 1.00986 0.37927
 C1002 C 0.48702 1.00943 0.40001
 H1003 H 0.48741 0.96365 0.36856
 H1004 H 0.48101 0.92451 0.34725
 H1005 H 0.45705 0.92413 0.30932
 H1006 H 0.43963 0.96294 0.29225
 H1007 H 0.42795 1.05696 0.29651
 H1008 H 0.43536 1.09626 0.31726
 H1009 H 0.45900 1.09654 0.35538
 H1010 H 0.47542 1.05752 0.37298
 C1011 C -0.03869 0.49384 0.85510
 C1012 C -0.03692 0.51623 0.84090
 C1013 C -0.04904 0.51771 0.81816
 C1014 C -0.06288 0.49680 0.80967
 C1015 C -0.06373 0.47403 0.82340
 C1016 C -0.05159 0.47254 0.84613
 C1017 C -0.05292 0.44966 0.85956
 C1018 C -0.06584 0.42881 0.85079
 C1019 C -0.07775 0.43027 0.82861
 C1020 C -0.07680 0.45259 0.81502
 C1021 C -0.04723 0.54039 0.80448
 C1022 C -0.03379 0.56102 0.81298
 C1023 C -0.02194 0.55959 0.83518
 C1024 C -0.02344 0.53751 0.84907
 C1025 C -0.07703 0.49892 0.78733
 C1026 C -0.08943 0.50004 0.76915
 C1027 C -0.02920 0.49351 0.87960
 C1028 C -0.02265 0.49414 0.90032
 H1029 H -0.04390 0.44761 0.87688
 H1030 H -0.06663 0.41143 0.86128
 H1031 H -0.08779 0.41404 0.82189
 H1032 H -0.08637 0.45282 0.79790
 H1033 H -0.05610 0.54238 0.78708
 H1034 H -0.03257 0.57822 0.80226
 H1035 H -0.01152 0.57567 0.84169
 H1036 H -0.01384 0.53727 0.86618
 C1037 C 0.03298 -0.00628 0.85453
 C1038 C 0.03777 0.01708 0.84263
 C1039 C 0.05050 0.01759 0.82033
 C1040 C 0.05850 -0.00525 0.81011
 C1041 C 0.05262 -0.02865 0.82143
 C1042 C 0.03982 -0.02917 0.84369
 C1043 C 0.03448 -0.05280 0.85479
 C1044 C 0.04150 -0.07527 0.84420
 C1045 C 0.05395 -0.07476 0.82243
 C1046 C 0.05952 -0.05177 0.81110
 C1047 C 0.05520 0.04117 0.80888
 C1048 C 0.04762 0.06362 0.81917
 C1049 C 0.03531 0.06314 0.84101
 C1050 C 0.03039 0.04018 0.85269
 C1051 C 0.07380 -0.00462 0.78864
 C1052 C 0.08697 -0.00394 0.77112
 C1053 C 0.02335 -0.00666 0.87883
 C1054 C 0.01715 -0.00706 0.89956
 H1055 H 0.02471 -0.05415 0.87168
 H1056 H 0.03721 -0.09318 0.85291
 H1057 H 0.05930 -0.09227 0.81424
 H1058 H 0.06913 -0.05233 0.79414
 H1059 H 0.06462 0.04250 0.79181
 H1060 H 0.05132 0.08150 0.81013
 H1061 H 0.02947 0.08063 0.84893
 H1062 H 0.02063 0.04073 0.86958
 C1063 C 0.53434 0.51100 0.35440
 C1064 C 0.55052 0.53042 0.34591
 C1065 C 0.56376 0.52744 0.32415
 C1066 C 0.56049 0.50517 0.31082
 C1067 C 0.54340 0.48630 0.31873
 C1068 C 0.53029 0.48921 0.34058
 C1069 C 0.51351 0.46994 0.34825
 C1070 C 0.50976 0.44843 0.33472
 C1071 C 0.52260 0.44558 0.31338
 C1072 C 0.53926 0.46424 0.30539
 C1073 C 0.58031 0.54688 0.31636
 C1074 C 0.58344 0.56875 0.32949
 C1075 C 0.57034 0.57174 0.35066
 C1076 C 0.55411 0.55281 0.35890
 C1077 C 0.57485 0.50183 0.28908
 C1078 C 0.58713 0.50023 0.27109
 C1079 C 0.52428 0.51202 0.37848
 C1080 C 0.51765 0.51158 0.39907
 H1081 H 0.50302 0.47138 0.36467
 H1082 H 0.49682 0.43390 0.34083
 H1083 H 0.51962 0.42883 0.30295
 H1084 H 0.54882 0.46119 0.28868
 H1085 H 0.59102 0.54536 0.30010
 H1086 H 0.59612 0.58345 0.32322
 H1087 H 0.57281 0.58878 0.36078
 H1088 H 0.54429 0.55598 0.37545
 C1089 C 0.52826 0.50057 0.14641
 C1090 C 0.53374 0.52393 0.15721
 C1091 C 0.54742 0.52442 0.17913
 C1092 C 0.55552 0.50156 0.19013
 C1093 C 0.54885 0.47814 0.18002
 C1094 C 0.53514 0.47765 0.15812
 C1095 C 0.52895 0.45404 0.14821
 C1096 C 0.53604 0.43153 0.15964
 C1097 C 0.54950 0.43200 0.18102
 C1098 C 0.55591 0.45498 0.19116
 C1099 C 0.55302 0.54801 0.18938
 C1100 C 0.54527 0.57049 0.17832
 C1101 C 0.53190 0.57001 0.15690
 C1102 C 0.52617 0.54705 0.14637
 C1103 C 0.57161 0.50207 0.21122
 C1104 C 0.58536 0.50189 0.22847
 C1105 C 0.51830 0.50024 0.12214
 C1106 C 0.51205 0.50021 0.10136
 H1107 H 0.51841 0.45273 0.13165
 H1108 H 0.53104 0.41363 0.15187
 H1109 H 0.55500 0.41447 0.18982
 H1110 H 0.56635 0.45438 0.20784
 H1111 H 0.56336 0.54932 0.20605
 H1112 H 0.54968 0.58837 0.18643
 H1113 H 0.52590 0.58753 0.14839
 H1114 H 0.51563 0.54762 0.12975
 C1115 C 0.03404 0.99986 0.64401
 C1116 C 0.04225 1.02299 0.65376
 C1117 C 0.05520 1.02311 0.67610
 C1118 C 0.05985 1.00010 0.68863
 C1119 C 0.05062 0.97710 0.67942
 C1120 C 0.03769 0.97698 0.65706
 C1121 C 0.02899 0.95372 0.64809
 C1122 C 0.03289 0.93119 0.66084
 C1123 C 0.04548 0.93130 0.68270
 C1124 C 0.05430 0.95393 0.69196
 C1125 C 0.06353 1.04642 0.68527
 C1126 C 0.05917 1.06900 0.67277
 C1127 C 0.04652 1.06891 0.65095
 C1128 C 0.03813 1.04623 0.64146
 C1129 C 0.07490 0.99993 0.71047
 C1130 C 0.08769 0.99925 0.72841
 C1131 C 0.02416 0.99943 0.61967
 C1132 C 0.01776 0.99946 0.59891
 H1133 H 0.01900 0.95271 0.63121
 H1134 H 0.02614 0.91356 0.65372
 H1135 H 0.04844 0.91375 0.69254
 H1136 H 0.06397 0.95304 0.70904
 H1137 H 0.07343 1.04745 0.70219
 H1138 H 0.06564 1.08667 0.68005
 H1139 H 0.04317 1.08651 0.64131
 H1140 H 0.02830 1.04713 0.62447
 C1141 C -0.03928 0.51313 0.64085
 C1142 C -0.05984 0.52882 0.64646
 C1143 C -0.07242 0.52558 0.66869
 C1144 C -0.06407 0.50700 0.68548
 C1145 C -0.04280 0.49210 0.68033
 C1146 C -0.03042 0.49512 0.65795
 C1147 C -0.00943 0.47975 0.65313
 C1148 C -0.00083 0.46196 0.66993
 C1149 C -0.01290 0.45905 0.69179
 C1150 C -0.03367 0.47388 0.69702
 C1151 C -0.09343 0.54098 0.67347
 C1152 C -0.10146 0.55940 0.65705
 C1153 C -0.08897 0.56278 0.63548
 C1154 C -0.06846 0.54765 0.63011
 C1155 C -0.07762 0.50324 0.70783
 C1156 C -0.08967 0.50102 0.72602
 C1157 C -0.02912 0.51374 0.61671
 C1158 C -0.02235 0.51320 0.59614
 H1159 H 0.00063 0.48143 0.63641
 H1160 H 0.01530 0.45039 0.66597
 H1161 H -0.00613 0.44522 0.70478
 H1162 H -0.04245 0.47094 0.71425
 H1163 H -0.10391 0.53891 0.68988
 H1164 H -0.11748 0.57109 0.66109
 H1165 H -0.09525 0.57715 0.62280
 H1166 H -0.05935 0.55099 0.61309
 C1167 C 0.46529 0.01594 0.14563
 C1168 C 0.44327 0.03036 0.14911
 C1169 C 0.42971 0.02788 0.17088
 C1170 C 0.43846 0.01134 0.18931
 C1171 C 0.46101 -0.00234 0.18620
 C1172 C 0.47442 -0.00007 0.16430
 C1173 C 0.49671 -0.01418 0.16154
 C1174 C 0.50558 -0.03002 0.17989
 C1175 C 0.49251 -0.03221 0.20127
 C1176 C 0.47045 -0.01858 0.20448
 C1177 C 0.40737 0.04197 0.17358
 C1178 C 0.39890 0.05838 0.15553
 C1179 C 0.41229 0.06101 0.13438
 C1180 C 0.43417 0.04714 0.13107
 C1181 C 0.42427 0.00861 0.21141
 C1182 C 0.41211 0.00714 0.22958
 C1183 C 0.47678 0.01556 0.12205
 C1184 C 0.48443 0.01412 0.10182
 H1185 H 0.50757 -0.01299 0.14526
 H1186 H 0.52271 -0.04065 0.17750
 H1187 H 0.49948 -0.04455 0.21546
 H1188 H 0.46091 -0.02092 0.22142
 H1189 H 0.39617 0.04038 0.18960
 H1190 H 0.38183 0.06909 0.15797
 H1191 H 0.40565 0.07380 0.12041
 H1192 H 0.44394 0.04983 0.11430
 C1193 C 0.36019 0.42212 0.00905
 C1194 C 0.35582 0.39930 0.02204
 C1195 C 0.33242 0.38633 0.01960
 C1196 C 0.31339 0.39623 0.00422
 C1197 C 0.31763 0.41921 -0.00850
 C1198 C 0.34103 0.43215 -0.00611
 C1199 C 0.34472 0.45503 -0.01914
 C1200 C 0.32590 0.46487 -0.03402
 C1201 C 0.30307 0.45226 -0.03630
 C1202 C 0.29888 0.42968 -0.02374
 C1203 C 0.32862 0.36354 0.03274
 C1204 C 0.34727 0.35390 0.04794
 C1205 C 0.37004 0.36662 0.05040
 C1206 C 0.37442 0.38901 0.03755
 C1207 C 0.28948 0.38282 0.00161
 C1208 C 0.26982 0.37132 -0.00002
 C1209 C 0.38455 0.43496 0.01051
 C1210 C 0.40456 0.44599 0.01041
 H1211 H 0.36213 0.46560 -0.01794
 H1212 H 0.32906 0.48241 -0.04383
 H1213 H 0.28851 0.46001 -0.04787
 H1214 H 0.28080 0.42056 -0.02611
 H1215 H 0.31121 0.35298 0.03148
 H1216 H 0.34402 0.33648 0.05791
 H1217 H 0.38438 0.35911 0.06234
 H1218 H 0.39245 0.39819 0.04001
 C1219 C -0.13525 0.92273 0.50597
 C1220 C -0.15596 0.92957 0.52025
 C1221 C -0.17959 0.91708 0.51755
 C1222 C -0.18246 0.89773 0.50059
 C1223 C -0.16171 0.89074 0.48645
 C1224 C -0.13809 0.90322 0.48915
 C1225 C -0.11772 0.89581 0.47475
 C1226 C -0.12053 0.87666 0.45821
 C1227 C -0.14357 0.86449 0.45560
 C1228 C -0.16399 0.87138 0.46949
 C1229 C -0.19994 0.92436 0.53203
 C1230 C -0.19708 0.94335 0.54871
 C1231 C -0.17404 0.95552 0.55134
 C1232 C -0.15366 0.94880 0.53731
 C1233 C -0.20654 0.88461 0.49816
 C1234 C -0.22637 0.87338 0.49676
 C1235 C -0.11137 0.93639 0.50775
 C1236 C -0.09161 0.94786 0.50793
 H1237 H -0.09940 0.90467 0.47613
 H1238 H -0.10473 0.87122 0.44738
 H1239 H -0.14565 0.84963 0.44272
 H1240 H -0.18154 0.86138 0.46678
 H1241 H -0.21825 0.91548 0.53062
 H1242 H -0.21285 0.94866 0.55966
 H1243 H -0.17193 0.97026 0.56434
 H1244 H -0.13611 0.95878 0.54003
 C1245 C -0.13331 0.07269 0.99013
 C1246 C -0.15214 0.06462 1.00645
 C1247 C -0.17481 0.07866 1.00854
 C1248 C -0.17864 0.10075 0.99433
 C1249 C -0.15995 0.10864 0.97778
 C1250 C -0.13723 0.09464 0.97574
 C1251 C -0.11884 0.10308 0.95922
 C1252 C -0.12279 0.12458 0.94496
 C1253 C -0.14499 0.13816 0.94685
 C1254 C -0.16340 0.13039 0.96305
 C1255 C -0.19325 0.07016 1.02500
 C1256 C -0.18946 0.04847 1.03902
 C1257 C -0.16734 0.03480 1.03702
 C1258 C -0.14884 0.04268 1.02097
 C1259 C -0.20179 0.11526 0.99661
 C1260 C -0.22096 0.12744 0.99794
 C1261 C -0.10966 0.05880 0.98884
 C1262 C -0.09011 0.04713 0.98905
 H1263 H -0.10127 0.09313 0.95710
 H1264 H -0.10856 0.13073 0.93236
 H1265 H -0.14798 0.15478 0.93566
 H1266 H -0.18036 0.14154 0.96384
 H1267 H -0.21078 0.08016 1.02719
 H1268 H -0.20377 0.04225 1.05151
 H1269 H -0.16448 0.01796 1.04797
 H1270 H -0.13199 0.03136 1.02005
 C1271 C 0.36393 0.58141 0.49293
 C1272 C 0.34466 0.57023 0.50708
 C1273 C 0.32108 0.58261 0.50949
 C1274 C 0.31678 0.60616 0.49780
 C1275 C 0.33590 0.61717 0.48335
 C1276 C 0.35952 0.60482 0.48099
 C1277 C 0.37830 0.61632 0.46660
 C1278 C 0.37388 0.63925 0.45471
 C1279 C 0.35081 0.65122 0.45688
 C1280 C 0.33199 0.64043 0.47105
 C1281 C 0.30220 0.57097 0.52367
 C1282 C 0.30643 0.54781 0.53520
 C1283 C 0.32944 0.53576 0.53292
 C1284 C 0.34839 0.54674 0.51906
 C1285 C 0.29276 0.61906 0.50063
 C1286 C 0.27299 0.63013 0.50259
 C1287 C 0.38828 0.56888 0.49113
 C1288 C 0.40809 0.55767 0.49081
 H1289 H 0.39653 0.60768 0.46434
 H1290 H 0.38842 0.64774 0.44369
 H1291 H 0.34747 0.66895 0.44748
 H1292 H 0.31436 0.65045 0.47216
 H1293 H 0.28397 0.57960 0.52597
 H1294 H 0.29177 0.53917 0.54595
 H1295 H 0.33264 0.51778 0.54193
 H1296 H 0.36593 0.53657 0.51784
 C1297 C 0.13836 0.57398 0.50790
 C1298 C 0.16118 0.56101 0.50387
 C1299 C 0.18432 0.57462 0.50240
 C1300 C 0.18457 0.60116 0.50489
 C1301 C 0.16179 0.61410 0.50919
 C1302 C 0.13867 0.60049 0.51076
 C1303 C 0.11624 0.61392 0.51509
 C1304 C 0.11658 0.64002 0.51776
 C1305 C 0.13913 0.65329 0.51625
 C1306 C 0.16150 0.64061 0.51195
 C1307 C 0.20681 0.56120 0.49840
 C1308 C 0.20652 0.53509 0.49588
 C1309 C 0.18395 0.52180 0.49725
 C1310 C 0.16150 0.53451 0.50119
 C1311 C 0.20819 0.61523 0.50350
 C1312 C 0.22726 0.62778 0.50302
 C1313 C 0.11450 0.56021 0.50815
 C1314 C 0.09473 0.54883 0.50755
 H1315 H 0.09823 0.60442 0.51647
 H1316 H 0.09925 0.65001 0.52097
 H1317 H 0.13928 0.67356 0.51837
 H1318 H 0.17852 0.65182 0.51076
 H1319 H 0.22483 0.57072 0.49719
 H1320 H 0.22391 0.52511 0.49284
 H1321 H 0.18384 0.50152 0.49528
 H1322 H 0.14444 0.52334 0.50218
 C1323 C 0.64552 0.07216 0.01026
 C1324 C 0.66726 0.05981 0.00183
 C1325 C 0.69008 0.07356 -0.00151
 C1326 C 0.69107 0.09963 0.00347
 C1327 C 0.66941 0.11193 0.01216
 C1328 C 0.64668 0.09812 0.01575
 C1329 C 0.62544 0.11079 0.02475
 C1330 C 0.62658 0.13637 0.02998
 C1331 C 0.64870 0.14992 0.02626
 C1332 C 0.66988 0.13797 0.01735
 C1333 C 0.71150 0.06077 -0.00990
 C1334 C 0.71044 0.03513 -0.01491
 C1335 C 0.68816 0.02170 -0.01171
 C1336 C 0.66676 0.03380 -0.00345
 C1337 C 0.71445 0.11375 0.00032
 C1338 C 0.73351 0.12617 -0.00142
 C1339 C 0.62172 0.05849 0.01199
 C1340 C 0.60196 0.04710 0.01229
 H1341 H 0.60780 0.10105 0.02792
 H1342 H 0.61019 0.14576 0.03688
 H1343 H 0.64947 0.16981 0.03029
 H1344 H 0.68657 0.14938 0.01460
 H1345 H 0.72925 0.07042 -0.01269
 H1346 H 0.72701 0.02563 -0.02132
 H1347 H 0.68745 0.00179 -0.01563
 H1348 H 0.64990 0.02252 -0.00117
 C1349 C 0.64274 0.93479 0.48941
 C1350 C 0.64748 0.91596 0.47242
 C1351 C 0.66997 0.90147 0.47399
 C1352 C 0.68752 0.90566 0.49271
 C1353 C 0.68293 0.92470 0.50951
 C1354 C 0.66054 0.93932 0.50784
 C1355 C 0.65639 0.95813 0.52498
 C1356 C 0.67377 0.96236 0.54323
 C1357 C 0.69562 0.94807 0.54485
 C1358 C 0.70025 0.92944 0.52822
 C1359 C 0.67428 0.88287 0.45669
 C1360 C 0.65683 0.87852 0.43852
 C1361 C 0.63479 0.89253 0.43711
 C1362 C 0.63007 0.91106 0.45381
 C1363 C 0.70995 0.89000 0.49490
 C1364 C 0.72822 0.87646 0.49617
 C1365 C 0.61906 0.94865 0.48876
 C1366 C 0.59922 0.95971 0.48937
 H1367 H 0.63970 0.96977 0.52446
 H1368 H 0.67026 0.97680 0.55620
 H1369 H 0.70906 0.95143 0.55906
 H1370 H 0.71753 0.91884 0.53021
 H1371 H 0.69119 0.87158 0.45697
 H1372 H 0.66043 0.86422 0.42544
 H1373 H 0.62127 0.88902 0.42300
 H1374 H 0.61269 0.92150 0.45195
 C1375 C 0.13639 0.42780 0.99069
 C1376 C 0.15753 0.43843 1.00245
 C1377 C 0.18030 0.42448 1.00480
 C1378 C 0.18184 0.39985 0.99557
 C1379 C 0.16072 0.38924 0.98376
 C1380 C 0.13810 0.40336 0.98105
 C1381 C 0.11754 0.39253 0.96868
 C1382 C 0.11921 0.36843 0.95930
 C1383 C 0.14110 0.35444 0.96237
 C1384 C 0.16162 0.36458 0.97454
 C1385 C 0.20110 0.43558 1.01656
 C1386 C 0.19950 0.45975 1.02579
 C1387 C 0.17727 0.47335 1.02357
 C1388 C 0.15647 0.46292 1.01205
 C1389 C 0.20517 0.38552 0.99780
 C1390 C 0.22414 0.37298 0.99902
 C1391 C 0.11265 0.44155 0.98958
 C1392 C 0.09302 0.45304 0.98974
 H1393 H 0.10005 0.40262 0.96598
 H1394 H 0.10340 0.36055 0.94967
 H1395 H 0.14222 0.33564 0.95523
 H1396 H 0.17813 0.35287 0.97665
 H1397 H 0.21878 0.42571 1.01877
 H1398 H 0.21559 0.46796 1.03474
 H1399 H 0.17612 0.49211 1.03078
 H1400 H 0.13963 0.47428 1.01071
 C1401 C -0.01707 0.34898 0.45039
 C1402 C -0.03791 0.34398 0.43536
 C1403 C -0.03821 0.32175 0.42175
 C1404 C -0.01776 0.30489 0.42354
 C1405 C 0.00137 0.30831 0.44083
 C1406 C 0.00177 0.33060 0.45433
 C1407 C 0.02157 0.33433 0.47093
 C1408 C 0.04039 0.31630 0.47415
 C1409 C 0.03998 0.29436 0.46090
 C1410 C 0.02075 0.29034 0.44433
 C1411 C -0.05865 0.31734 0.40603
 C1412 C -0.07849 0.33442 0.40412
 C1413 C -0.07825 0.35624 0.41756
 C1414 C -0.05816 0.36112 0.43298
 C1415 C -0.01388 0.28695 0.40504
 C1416 C -0.00900 0.27328 0.38895
 C1417 C -0.01332 0.37406 0.45916
 C1418 C -0.00981 0.39524 0.46551
 H1419 H 0.02255 0.35108 0.48166
 H1420 H 0.05537 0.31937 0.48698
 H1421 H 0.05462 0.28040 0.46345
 H1422 H 0.02107 0.27297 0.43447
 H1423 H -0.05957 0.30055 0.39533
 H1424 H -0.09412 0.33070 0.39219
 H1425 H -0.09372 0.36942 0.41608
 H1426 H -0.05878 0.37825 0.44319
 C1427 C 0.49431 -0.15434 -0.04184
 C1428 C 0.47226 -0.16072 -0.05467
 C1429 C 0.47203 -0.18259 -0.06880
 C1430 C 0.49379 -0.19773 -0.06972
 C1431 C 0.51466 -0.19297 -0.05470
 C1432 C 0.51492 -0.17107 -0.04062
 C1433 C 0.53626 -0.16603 -0.02621
 C1434 C 0.55678 -0.18235 -0.02573
 C1435 C 0.55655 -0.20385 -0.03960
 C1436 C 0.53578 -0.20917 -0.05401
 C1437 C 0.45021 -0.18834 -0.08228
 C1438 C 0.42902 -0.17294 -0.08153
 C1439 C 0.42922 -0.15149 -0.06759
 C1440 C 0.45060 -0.14529 -0.05433
 C1441 C 0.49634 -0.21550 -0.08858
 C1442 C 0.49954 -0.22906 -0.10513
 C1443 C 0.49708 -0.12928 -0.03275
 C1444 C 0.49970 -0.10801 -0.02632
 H1445 H 0.53717 -0.14958 -0.01507
 H1446 H 0.57294 -0.17830 -0.01455
 H1447 H 0.57253 -0.21646 -0.03920
 H1448 H 0.53633 -0.22616 -0.06443
 H1449 H 0.44925 -0.20490 -0.09329
 H1450 H 0.41238 -0.17768 -0.09178
 H1451 H 0.41274 -0.13960 -0.06702
 H1452 H 0.44992 -0.12849 -0.04367
 C1453 C 0.00970 -0.13997 1.08459
 C1454 C 0.02477 -0.16009 1.07675
 C1455 C 0.02405 -0.18359 1.08918
 C1456 C 0.00842 -0.18658 1.10940
 C1457 C -0.00564 -0.16611 1.11798
 C1458 C -0.00500 -0.14261 1.10548
 C1459 C -0.01933 -0.12230 1.11415
 C1460 C -0.03385 -0.12523 1.13469
 C1461 C -0.03451 -0.14832 1.14693
 C1462 C -0.02063 -0.16863 1.13873
 C1463 C 0.03885 -0.20375 1.08085
 C1464 C 0.05414 -0.20059 1.06089
 C1465 C 0.05497 -0.17746 1.04875
 C1466 C 0.04045 -0.15738 1.05648
 C1467 C 0.00598 -0.21110 1.12055
 C1468 C 0.00401 -0.23193 1.12900
 C1469 C 0.00845 -0.11703 1.07047
 C1470 C 0.00739 -0.09824 1.05828
 H1471 H -0.01935 -0.10398 1.10524
 H1472 H -0.04461 -0.10950 1.14115
 H1473 H -0.04582 -0.15052 1.16286
 H1474 H -0.02167 -0.18622 1.14885
 H1475 H 0.03881 -0.22211 1.08966
 H1476 H 0.06539 -0.21617 1.05481
 H1477 H 0.06689 -0.17506 1.03326
 H1478 H 0.04175 -0.13974 1.04646
 C1479 C 0.48274 0.34838 0.55338
 C1480 C 0.46238 0.34303 0.56884
 C1481 C 0.46156 0.31965 0.58152
 C1482 C 0.48116 0.30205 0.57866
 C1483 C 0.50046 0.30661 0.56185
 C1484 C 0.50125 0.32995 0.54909
 C1485 C 0.52098 0.33449 0.53268
 C1486 C 0.53941 0.31635 0.52900
 C1487 C 0.53866 0.29346 0.54158
 C1488 C 0.51945 0.28855 0.55788
 C1489 C 0.44133 0.31469 0.59729
 C1490 C 0.42238 0.33242 0.60034
 C1491 C 0.42325 0.35543 0.58799
 C1492 C 0.44299 0.36079 0.57239
 C1493 C 0.48339 0.28119 0.59535
 C1494 C 0.48593 0.26514 0.61053
 C1495 C 0.48556 0.37340 0.54325
 C1496 C 0.48796 0.39444 0.53533
 H1497 H 0.52230 0.35201 0.52247
 H1498 H 0.55432 0.32006 0.51632
 H1499 H 0.55301 0.27943 0.53868
 H1500 H 0.51951 0.27044 0.56718
 H1501 H 0.43987 0.29703 0.60725
 H1502 H 0.40695 0.32828 0.61234
 H1503 H 0.40854 0.36919 0.59048
 H1504 H 0.44282 0.37890 0.56310
 C1505 C 0.47584 1.12829 0.58792
 C1506 C 0.45721 1.14597 0.58090
 C1507 C 0.45633 1.16966 0.59215
 C1508 C 0.47399 1.17520 0.61028
 C1509 C 0.49068 1.15645 0.61909
 C1510 C 0.49173 1.13285 0.60773
 C1511 C 0.50921 1.11458 0.61614
 C1512 C 0.52508 1.11954 0.63544
 C1513 C 0.52380 1.14259 0.64681
 C1514 C 0.50691 1.16097 0.63872
 C1515 C 0.43806 1.18750 0.58458
 C1516 C 0.42096 1.18191 0.56642
 C1517 C 0.42181 1.15866 0.55535
 C1518 C 0.43974 1.14082 0.56241
 C1519 C 0.47750 1.20084 0.61757
 C1520 C 0.48219 1.22205 0.62320
 C1521 C 0.48022 1.10661 0.57347
 C1522 C 0.48432 1.08898 0.56104
 H1523 H 0.51065 1.09628 0.60801
 H1524 H 0.53837 1.10540 0.64165
 H1525 H 0.53603 1.14629 0.66190
 H1526 H 0.50655 1.17863 0.64811
 H1527 H 0.43669 1.20576 0.59280
 H1528 H 0.40697 1.19569 0.56091
 H1529 H 0.40850 1.15440 0.54126
 H1530 H 0.43962 1.12292 0.55342
 C1531 C -0.01172 0.65244 1.05438
 C1532 C -0.03225 0.65584 1.06994
 C1533 C -0.03258 0.67703 1.08495
 C1534 C -0.01248 0.69450 1.08403
 C1535 C 0.00647 0.69261 1.06657
 C1536 C 0.00689 0.67136 1.05165
 C1537 C 0.02642 0.66923 1.03476
 C1538 C 0.04497 0.68780 1.03263
 C1539 C 0.04456 0.70870 1.04727
 C1540 C 0.02559 0.71115 1.06413
 C1541 C -0.05276 0.67985 1.10104
 C1542 C -0.07228 0.66221 1.10202
 C1543 C -0.07201 0.64142 1.08722
 C1544 C -0.05221 0.63812 1.07138
 C1545 C -0.00921 0.71214 1.10295
 C1546 C -0.00489 0.72605 1.11907
 C1547 C -0.00821 0.62833 1.04356
 C1548 C -0.00530 0.60769 1.03571
 H1549 H 0.02739 0.65333 1.02295
 H1550 H 0.05974 0.68596 1.01955
 H1551 H 0.05899 0.72309 1.04556
 H1552 H 0.02593 0.72778 1.07508
 H1553 H -0.05373 0.69580 1.11279
 H1554 H -0.08769 0.66470 1.11428
 H1555 H -0.08720 0.62777 1.08803
 H1556 H -0.05280 0.62173 1.06015
 C1557 C 0.51019 0.63396 -0.08090
 C1558 C 0.52604 0.65281 -0.07133
 C1559 C 0.52656 0.67716 -0.08218
 C1560 C 0.51111 0.68234 -0.10231
 C1561 C 0.49650 0.66309 -0.11278
 C1562 C 0.49608 0.63868 -0.10202
 C1563 C 0.48121 0.61960 -0.11255
 C1564 C 0.46721 0.62461 -0.13325
 C1565 C 0.46754 0.64862 -0.14377
 C1566 C 0.48197 0.66774 -0.13370
 C1567 C 0.54233 0.69595 -0.07232
 C1568 C 0.55709 0.69074 -0.05216
 C1569 C 0.55645 0.66688 -0.04140
 C1570 C 0.54120 0.64802 -0.05083
 C1571 C 0.50892 0.70787 -0.11114
 C1572 C 0.50682 0.72935 -0.11785
 C1573 C 0.50737 0.61030 -0.06814
 C1574 C 0.50515 0.59105 -0.05680
 H1575 H 0.48041 0.60065 -0.10501
 H1576 H 0.45606 0.60981 -0.14119
 H1577 H 0.45661 0.65244 -0.15983
 H1578 H 0.48174 0.68609 -0.14254
 H1579 H 0.54349 0.71477 -0.08012
 H1580 H 0.56906 0.70529 -0.04486
 H1581 H 0.56791 0.66291 -0.02571
 H1582 H 0.54151 0.62970 -0.04195
 C1583 C 0.00793 1.13844 0.41888
 C1584 C 0.02269 1.15852 0.42771
 C1585 C 0.02199 1.18238 0.41589
 C1586 C 0.00644 1.18585 0.39550
 C1587 C -0.00729 1.16546 0.38595
 C1588 C -0.00650 1.14155 0.39770
 C1589 C -0.02046 1.12132 0.38801
 C1590 C -0.03476 1.12472 0.36722
 C1591 C -0.03560 1.14823 0.35574
 C1592 C -0.02209 1.16846 0.36495
 C1593 C 0.03672 1.20240 0.42500
 C1594 C 0.05165 1.19887 0.44534
 C1595 C 0.05221 1.17550 0.45705
 C1596 C 0.03799 1.15546 0.44839
 C1597 C 0.00348 1.21076 0.38532
 C1598 C 0.00099 1.23186 0.37768
 C1599 C 0.00680 1.11496 0.43220
 C1600 C 0.00582 1.09565 0.44366
 H1601 H -0.02036 1.10268 0.39630
 H1602 H -0.04520 1.10904 0.35995
 H1603 H -0.04675 1.15080 0.33961
 H1604 H -0.02323 1.18639 0.35538
 H1605 H 0.03692 1.22093 0.41649
 H1606 H 0.06279 1.21437 0.45207
 H1607 H 0.06371 1.17287 0.47293
 H1608 H 0.03916 1.13759 0.45803
 C1609 C 0.74915 0.71525 0.89391
 C1610 C 0.72817 0.70010 0.90044
 C1611 C 0.72817 0.68667 0.92270
 C1612 C 0.74891 0.68885 0.93858
 C1613 C 0.76938 0.70487 0.93250
 C1614 C 0.76952 0.71805 0.91008
 C1615 C 0.79034 0.73366 0.90427
 C1616 C 0.81044 0.73625 0.92017
 C1617 C 0.81030 0.72339 0.94208
 C1618 C 0.79007 0.70783 0.94826
 C1619 C 0.70736 0.67099 0.92842
 C1620 C 0.68696 0.66891 0.91279
 C1621 C 0.68680 0.68232 0.89119
 C1622 C 0.70714 0.69772 0.88497
 C1623 C 0.74930 0.67418 0.96087
 C1624 C 0.74910 0.66152 0.97908
 C1625 C 0.75069 0.72576 0.86973
 C1626 C 0.75180 0.73258 0.84904
 H1627 H 0.79121 0.74410 0.88748
 H1628 H 0.82620 0.74832 0.91547
 H1629 H 0.82597 0.72547 0.95435
 H1630 H 0.79080 0.69819 0.96548
 H1631 H 0.70668 0.66011 0.94495
 H1632 H 0.67122 0.65681 0.91745
 H1633 H 0.67088 0.68072 0.87915
 H1634 H 0.70612 0.70778 0.86798
 C1635 C 0.25196 0.21935 0.39873
 C1636 C 0.27413 0.21905 0.41292
 C1637 C 0.27488 0.20480 0.43476
 C1638 C 0.25347 0.19086 0.44228
 C1639 C 0.23097 0.19197 0.42856
 C1640 C 0.23019 0.20633 0.40681
 C1641 C 0.20752 0.20696 0.39336
 C1642 C 0.18629 0.19373 0.40111
 C1643 C 0.18708 0.17964 0.42231
 C1644 C 0.20911 0.17869 0.43594
 C1645 C 0.29733 0.20460 0.44848
 C1646 C 0.31846 0.21812 0.44088
 C1647 C 0.31774 0.23201 0.41954
 C1648 C 0.29588 0.23252 0.40563
 C1649 C 0.25457 0.17491 0.46378
 C1650 C 0.25453 0.16133 0.48140
 C1651 C 0.25225 0.23052 0.37472
 C1652 C 0.25238 0.23762 0.35407
 H1653 H 0.20594 0.21774 0.37679
 H1654 H 0.16914 0.19437 0.39057
 H1655 H 0.17055 0.16934 0.42822
 H1656 H 0.20881 0.16742 0.45225
 H1657 H 0.29878 0.19407 0.46520
 H1658 H 0.33548 0.21780 0.45161
 H1659 H 0.33421 0.24248 0.41373
 H1660 H 0.29616 0.24367 0.38922
 C1661 C 0.75886 0.28821 0.38843
 C1662 C 0.73669 0.28509 0.40212
 C1663 C 0.73416 0.29781 0.42414
 C1664 C 0.75382 0.31358 0.43236
 C1665 C 0.77643 0.31583 0.41917
 C1666 C 0.77898 0.30304 0.39721
 C1667 C 0.80170 0.30567 0.38434
 C1668 C 0.82137 0.32052 0.39291
 C1669 C 0.81884 0.33313 0.41430
 C1670 C 0.79665 0.33093 0.42731
 C1671 C 0.71172 0.29463 0.43733
 C1672 C 0.69231 0.27927 0.42907
 C1673 C 0.69477 0.26682 0.40757
 C1674 C 0.71665 0.26966 0.39417
 C1675 C 0.75072 0.32787 0.45408
 C1676 C 0.74893 0.34015 0.47195
 C1677 C 0.75984 0.27841 0.36433
 C1678 C 0.75949 0.27183 0.34379
 H1679 H 0.80455 0.29618 0.36764
 H1680 H 0.83866 0.32227 0.38287
 H1681 H 0.83414 0.34471 0.42085
 H1682 H 0.79552 0.34118 0.44378
 H1683 H 0.70895 0.30391 0.45416
 H1684 H 0.67528 0.27701 0.43940
 H1685 H 0.67965 0.25490 0.40125
 H1686 H 0.71774 0.25951 0.37762
 C1687 C 0.26118 0.78488 0.89753
 C1688 C 0.28336 0.79351 0.90895
 C1689 C 0.28177 0.80614 0.93109
 C1690 C 0.25798 0.81035 0.94156
 C1691 C 0.23590 0.80091 0.93058
 C1692 C 0.23751 0.78806 0.90857
 C1693 C 0.21511 0.77898 0.89787
 C1694 C 0.19182 0.78253 0.90857
 C1695 C 0.19026 0.79517 0.93003
 C1696 C 0.21198 0.80430 0.94099
 C1697 C 0.30421 0.81461 0.94214
 C1698 C 0.32753 0.81095 0.93152
 C1699 C 0.32905 0.79881 0.90978
 C1700 C 0.30728 0.79010 0.89856
 C1701 C 0.25619 0.82527 0.96303
 C1702 C 0.25525 0.83809 0.98061
 C1703 C 0.26228 0.77493 0.87350
 C1704 C 0.26193 0.76825 0.85299
 H1705 H 0.21535 0.76897 0.88120
 H1706 H 0.17489 0.77544 0.90014
 H1707 H 0.17212 0.79790 0.93825
 H1708 H 0.20982 0.81397 0.95771
 H1709 H 0.30400 0.82403 0.95911
 H1710 H 0.34450 0.81761 0.94019
 H1711 H 0.34721 0.79605 0.90159
 H1712 H 0.30939 0.78061 0.88175
 C1713 C 0.25656 0.78513 0.10891
 C1714 C 0.27730 0.78284 0.09335
 C1715 C 0.27711 0.79558 0.07072
 C1716 C 0.25615 0.81046 0.06373
 C1717 C 0.23495 0.81187 0.07885
 C1718 C 0.23519 0.79926 0.10152
 C1719 C 0.21399 0.80146 0.11653
 C1720 C 0.19316 0.81566 0.10933
 C1721 C 0.19285 0.82782 0.08710
 C1722 C 0.21343 0.82597 0.07195
 C1723 C 0.29821 0.79332 0.05565
 C1724 C 0.31891 0.77884 0.06269
 C1725 C 0.31908 0.76637 0.08480
 C1726 C 0.29857 0.76830 0.10004
 C1727 C 0.25665 0.82517 0.04152
 C1728 C 0.25651 0.83796 0.02342
 C1729 C 0.25798 0.77501 0.13324
 C1730 C 0.25882 0.76852 0.15403
 H1731 H 0.21325 0.79221 0.13393
 H1732 H 0.17717 0.81723 0.12108
 H1733 H 0.17659 0.83875 0.08155
 H1734 H 0.21224 0.83565 0.05478
 H1735 H 0.29891 0.80266 0.03828
 H1736 H 0.33489 0.77728 0.05093
 H1737 H 0.33519 0.75513 0.09017
 H1738 H 0.29951 0.75822 0.11703
 C1739 C 0.74616 0.28375 0.59889
 C1740 C 0.76899 0.28513 0.58600
 C1741 C 0.76990 0.29837 0.56364
 C1742 C 0.74799 0.31014 0.55430
 C1743 C 0.72490 0.30778 0.56668
 C1744 C 0.72398 0.29451 0.58900
 C1745 C 0.70074 0.29266 0.60114
 C1746 C 0.67903 0.30361 0.59151
 C1747 C 0.67994 0.31665 0.56973
 C1748 C 0.70256 0.31878 0.55739
 C1749 C 0.79301 0.29980 0.55126
 C1750 C 0.81461 0.28843 0.56067
 C1751 C 0.81372 0.27549 0.58251
 C1752 C 0.79122 0.27381 0.59512
 C1753 C 0.74925 0.32550 0.53252
 C1754 C 0.74949 0.33881 0.51474
 C1755 C 0.74606 0.27371 0.62328
 C1756 C 0.74626 0.26716 0.64407
 H1757 H 0.69909 0.28264 0.61810
 H1758 H 0.66141 0.30199 0.60103
 H1759 H 0.66304 0.32517 0.56235
 H1760 H 0.70233 0.32911 0.54053
 H1761 H 0.79460 0.30964 0.53420
 H1762 H 0.83213 0.28968 0.55095
 H1763 H 0.83055 0.26668 0.58972
 H1764 H 0.79142 0.26347 0.61199
 C1765 C 0.25928 0.21153 0.60844
 C1766 C 0.23537 0.20462 0.59921
 C1767 C 0.23350 0.19222 0.57693
 C1768 C 0.25552 0.18689 0.56391
 C1769 C 0.27933 0.19480 0.57261
 C1770 C 0.28122 0.20705 0.59498
 C1771 C 0.30524 0.21434 0.60347
 C1772 C 0.32681 0.20982 0.59020
 C1773 C 0.32496 0.19802 0.56829
 C1774 C 0.30154 0.19054 0.55952
 C1775 C 0.20944 0.18519 0.56829
 C1776 C 0.18781 0.19030 0.58123
 C1777 C 0.18960 0.20245 0.60296
 C1778 C 0.21305 0.20954 0.61194
 C1779 C 0.25380 0.17241 0.54209
 C1780 C 0.25284 0.16000 0.52421
 C1781 C 0.26122 0.22128 0.63256
 C1782 C 0.26148 0.22778 0.65315
 H1783 H 0.30757 0.22372 0.62035
 H1784 H 0.34505 0.21556 0.59694
 H1785 H 0.34176 0.19462 0.55803
 H1786 H 0.30104 0.18153 0.54233
 H1787 H 0.20708 0.17574 0.55144
 H1788 H 0.16955 0.18483 0.57433
 H1789 H 0.17273 0.20640 0.61293
 H1790 H 0.21344 0.21902 0.62889
 C1791 C 0.75730 0.71401 0.10552
 C1792 C 0.73326 0.71126 0.09470
 C1793 C 0.73079 0.69875 0.07253
 C1794 C 0.75235 0.68915 0.06119
 C1795 C 0.77651 0.69293 0.07144
 C1796 C 0.77897 0.70525 0.09372
 C1797 C 0.80323 0.70822 0.10385
 C1798 C 0.82451 0.69941 0.09227
 C1799 C 0.82214 0.68757 0.07042
 C1800 C 0.79847 0.68434 0.06003
 C1801 C 0.70654 0.69586 0.06233
 C1802 C 0.68531 0.70510 0.07366
 C1803 C 0.68770 0.71737 0.09528
 C1804 C 0.71135 0.72046 0.10577
 C1805 C 0.74969 0.67442 0.03961
 C1806 C 0.74822 0.66165 0.02198
 C1807 C 0.75927 0.72374 0.12965
 C1808 C 0.75953 0.73031 0.15022
 H1809 H 0.80601 0.71746 0.12075
 H1810 H 0.84294 0.70182 0.10027
 H1811 H 0.83873 0.68081 0.06146
 H1812 H 0.79760 0.67514 0.04295
 H1813 H 0.70374 0.68649 0.04550
 H1814 H 0.66690 0.70274 0.06560
 H1815 H 0.67115 0.72453 0.10400
 H1816 H 0.71224 0.73020 0.12257
 C1817 C 0.17881 0.61610 0.24581
 C1818 C 0.18563 0.59708 0.26281
 C1819 C 0.17145 0.57425 0.26453
 C1820 C 0.15051 0.57044 0.24923
 C1821 C 0.14377 0.58939 0.23212
 C1822 C 0.15789 0.61227 0.23046
 C1823 C 0.15060 0.63093 0.21336
 C1824 C 0.13007 0.62709 0.19822
 C1825 C 0.11636 0.60474 0.19976
 C1826 C 0.12305 0.58604 0.21647
 C1827 C 0.17864 0.55564 0.28172
 C1828 C 0.19921 0.55944 0.29681
 C1829 C 0.21304 0.58171 0.29516
 C1830 C 0.20642 0.60037 0.27840
 C1831 C 0.13603 0.54702 0.25088
 C1832 C 0.12380 0.52769 0.25149
 C1833 C 0.19283 0.63984 0.24477
 C1834 C 0.20441 0.65954 0.24505
 H1835 H 0.16070 0.64863 0.21148
 H1836 H 0.12478 0.64155 0.18522
 H1837 H 0.10047 0.60185 0.18792
 H1838 H 0.11184 0.56896 0.21694
 H1839 H 0.16846 0.53800 0.28369
 H1840 H 0.20443 0.54501 0.30987
 H1841 H 0.22899 0.58456 0.30694
 H1842 H 0.21780 0.61734 0.27780
 C1843 C 0.67037 0.11232 0.73840
 C1844 C 0.64626 0.10869 0.72805
 C1845 C 0.63334 0.08530 0.73152
 C1846 C 0.64454 0.06560 0.74538
 C1847 C 0.66872 0.06916 0.75558
 C1848 C 0.68166 0.09251 0.75207
 C1849 C 0.70579 0.09552 0.76254
 C1850 C 0.71681 0.07609 0.77604
 C1851 C 0.70417 0.05330 0.77945
 C1852 C 0.68040 0.04977 0.76938
 C1853 C 0.60927 0.08221 0.72097
 C1854 C 0.59822 0.10163 0.70747
 C1855 C 0.61080 0.12448 0.70416
 C1856 C 0.63456 0.12807 0.71427
 C1857 C 0.63134 0.04162 0.74886
 C1858 C 0.62020 0.02176 0.75111
 C1859 C 0.68322 0.13665 0.73604
 C1860 C 0.69438 0.15661 0.73558
 H1861 H 0.71642 0.11286 0.76039
 H1862 H 0.73528 0.07873 0.78391
 H1863 H 0.71282 0.03827 0.78996
 H1864 H 0.67131 0.03171 0.77256
 H1865 H 0.59872 0.06480 0.72306
 H1866 H 0.57979 0.09894 0.69955
 H1867 H 0.60209 0.13952 0.69372
 H1868 H 0.64365 0.14614 0.71115
 C1869 C 0.82967 0.11618 0.25399
 C1870 C 0.85407 0.11280 0.26383
 C1871 C 0.86670 0.08931 0.26146
 C1872 C 0.85467 0.06900 0.24974
 C1873 C 0.83009 0.07224 0.24027
 C1874 C 0.81762 0.09585 0.24231
 C1875 C 0.79312 0.09853 0.23252
 C1876 C 0.78127 0.07854 0.22113
 C1877 C 0.79343 0.05550 0.21920
 C1878 C 0.81756 0.05228 0.22862
 C1879 C 0.89132 0.08672 0.27096
 C1880 C 0.90286 0.10643 0.28305
 C1881 C 0.89035 0.12917 0.28575
 C1882 C 0.86631 0.13250 0.27611
 C1883 C 0.86742 0.04473 0.24792
 C1884 C 0.87864 0.02489 0.24714
 C1885 C 0.81719 0.14067 0.25505
 C1886 C 0.80618 0.16066 0.25475
 H1887 H 0.78283 0.11605 0.23361
 H1888 H 0.76252 0.08094 0.21377
 H1889 H 0.78412 0.04003 0.21035
 H1890 H 0.82627 0.03401 0.22665
 H1891 H 0.90191 0.06949 0.26914
 H1892 H 0.92161 0.10401 0.29042
 H1893 H 0.89935 0.14434 0.29531
 H1894 H 0.85738 0.15059 0.27853
 C1895 C 0.33198 0.61292 0.76082
 C1896 C 0.35755 0.60984 0.76751
 C1897 C 0.36990 0.58644 0.76370
 C1898 C 0.35649 0.56593 0.75371
 C1899 C 0.33077 0.56880 0.74756
 C1900 C 0.31853 0.59233 0.75101
 C1901 C 0.29284 0.59465 0.74452
 C1902 C 0.27959 0.57438 0.73504
 C1903 C 0.29153 0.55142 0.73178
 C1904 C 0.31682 0.54856 0.73792
 C1905 C 0.39561 0.58413 0.77008
 C1906 C 0.40857 0.60403 0.78053
 C1907 C 0.39640 0.62669 0.78462
 C1908 C 0.37124 0.62975 0.77803
 C1909 C 0.36901 0.54172 0.75056
 C1910 C 0.37999 0.52184 0.74888
 C1911 C 0.31971 0.63743 0.76288
 C1912 C 0.30875 0.65743 0.76320
 H1913 H 0.28267 0.61208 0.74680
 H1914 H 0.25994 0.57650 0.73023
 H1915 H 0.28113 0.53572 0.72444
 H1916 H 0.32528 0.53034 0.73502
 H1917 H 0.40596 0.56695 0.76710
 H1918 H 0.42816 0.60181 0.78554
 H1919 H 0.40652 0.64199 0.79291
 H1920 H 0.36260 0.64777 0.78146
 C1921 C 0.32603 0.38618 0.74213
 C1922 C 0.31259 0.40875 0.74620
 C1923 C 0.32573 0.43208 0.74834
 C1924 C 0.35228 0.43278 0.74653
 C1925 C 0.36570 0.41027 0.74216
 C1926 C 0.35255 0.38698 0.73978
 C1927 C 0.36640 0.36486 0.73516
 C1928 C 0.39250 0.36567 0.73302
 C1929 C 0.40537 0.38836 0.73550
 C1930 C 0.39224 0.41042 0.74011
 C1931 C 0.31185 0.45432 0.75232
 C1932 C 0.28572 0.45358 0.75415
 C1933 C 0.27288 0.43081 0.75212
 C1934 C 0.28606 0.40859 0.74821
 C1935 C 0.36585 0.45663 0.74849
 C1936 C 0.37807 0.47592 0.74930
 C1937 C 0.31273 0.36205 0.74158
 C1938 C 0.30160 0.34209 0.74211
 H1939 H 0.35723 0.34676 0.73308
 H1940 H 0.40281 0.34858 0.72949
 H1941 H 0.42565 0.38887 0.73386
 H1942 H 0.40314 0.42755 0.74207
 H1943 H 0.32101 0.47248 0.75404
 H1944 H 0.27538 0.47078 0.75717
 H1945 H 0.25259 0.43034 0.75357
 H1946 H 0.27522 0.39136 0.74667
 C1947 C 0.82498 0.88923 0.23958
 C1948 C 0.81337 0.91015 0.25041
 C1949 C 0.82672 0.93338 0.25267
 C1950 C 0.85172 0.93562 0.24429
 C1951 C 0.86330 0.91473 0.23337
 C1952 C 0.84979 0.89165 0.23072
 C1953 C 0.86160 0.87137 0.21920
 C1954 C 0.88605 0.87373 0.21058
 C1955 C 0.89942 0.89604 0.21361
 C1956 C 0.88832 0.91631 0.22496
 C1957 C 0.81462 0.95393 0.26347
 C1958 C 0.79008 0.95167 0.27186
 C1959 C 0.77707 0.92901 0.26972
 C1960 C 0.78848 0.90844 0.25914
 C1961 C 0.86545 0.95944 0.24644
 C1962 C 0.87754 0.97883 0.24757
 C1963 C 0.81176 0.86502 0.23858
 C1964 C 0.80051 0.84508 0.23883
 H1965 H 0.85200 0.85358 0.21656
 H1966 H 0.89468 0.85814 0.20155
 H1967 H 0.91849 0.89770 0.20706
 H1968 H 0.89956 0.93318 0.22708
 H1969 H 0.82400 0.97193 0.26557
 H1970 H 0.78111 0.96759 0.28008
 H1971 H 0.75800 0.92736 0.27627
 H1972 H 0.77754 0.89125 0.25781
 C1973 C 0.67937 0.88907 0.75714
 C1974 C 0.67623 0.90387 0.77769
 C1975 C 0.66248 0.92687 0.77608
 C1976 C 0.65176 0.93488 0.75395
 C1977 C 0.65481 0.92004 0.73342
 C1978 C 0.66866 0.89712 0.73499
 C1979 C 0.67132 0.88262 0.71418
 C1980 C 0.66057 0.89047 0.69250
 C1981 C 0.64702 0.91283 0.69100
 C1982 C 0.64413 0.92753 0.71115
 C1983 C 0.65965 0.94131 0.79689
 C1984 C 0.66990 0.93320 0.81869
 C1985 C 0.68322 0.91069 0.82027
 C1986 C 0.68646 0.89615 0.80005
 C1987 C 0.63665 0.95775 0.75258
 C1988 C 0.62339 0.97623 0.75196
 C1989 C 0.69348 0.86553 0.75860
 C1990 C 0.70495 0.84587 0.75857
 H1991 H 0.68165 0.86506 0.71442
 H1992 H 0.66277 0.87912 0.67679
 H1993 H 0.63870 0.91883 0.67412
 H1994 H 0.63347 0.94480 0.70907
 H1995 H 0.64951 0.95898 0.79655
 H1996 H 0.66746 0.94443 0.83445
 H1997 H 0.69113 0.90447 0.83726
 H1998 H 0.69698 0.87879 0.80215
 C1999 C 0.17853 0.39363 0.25939
 C2000 C 0.17278 0.40782 0.27981
 C2001 C 0.15949 0.43103 0.27725
 C2002 C 0.15174 0.43988 0.25428
 C2003 C 0.15730 0.42560 0.23388
 C2004 C 0.17077 0.40250 0.23641
 C2005 C 0.17603 0.38864 0.21566
 C2006 C 0.16814 0.39725 0.19314
 C2007 C 0.15492 0.41974 0.19071
 C2008 C 0.14953 0.43385 0.21078
 C2009 C 0.15410 0.44485 0.29797
 C2010 C 0.16133 0.43592 0.32057
 C2011 C 0.17416 0.41319 0.32306
 C2012 C 0.17993 0.39926 0.30297
 C2013 C 0.13730 0.46315 0.25182
 C2014 C 0.12472 0.48212 0.25052
 C2015 C 0.19220 0.36984 0.26179
 C2016 C 0.20333 0.34994 0.26235
 H2017 H 0.18621 0.37100 0.21659
 H2018 H 0.17230 0.38637 0.17748
 H2019 H 0.14881 0.42632 0.17318
 H2020 H 0.13921 0.45124 0.20797
 H2021 H 0.14423 0.46267 0.29696
 H2022 H 0.15691 0.44667 0.33623
 H2023 H 0.17970 0.40633 0.34066
 H2024 H 0.18998 0.38172 0.30579
 C2025 C 0.10678 0.24926 0.81651
 C2026 C 0.10206 0.27055 0.83065
 C2027 C 0.07944 0.27182 0.84378
 C2028 C 0.06184 0.25182 0.84252
 C2029 C 0.06655 0.23053 0.82839
 C2030 C 0.08924 0.22918 0.81538
 C2031 C 0.09392 0.20755 0.80165
 C2032 C 0.07658 0.18779 0.80086
 C2033 C 0.05422 0.18918 0.81350
 C2034 C 0.04912 0.21030 0.82708
 C2035 C 0.07506 0.29311 0.85807
 C2036 C 0.09268 0.31259 0.85934
 C2037 C 0.11489 0.31137 0.84646
 C2038 C 0.11962 0.29065 0.83222
 C2039 C 0.03922 0.25273 0.85634
 C2040 C 0.02045 0.25300 0.86801
 C2041 C 0.13004 0.24777 0.80368
 C2042 C 0.14976 0.24684 0.79357
 H2043 H 0.11103 0.20565 0.79147
 H2044 H 0.08049 0.17133 0.79036
 H2045 H 0.04076 0.17381 0.81282
 H2046 H 0.03143 0.21057 0.83651
 H2047 H 0.05806 0.29490 0.86842
 H2048 H 0.08908 0.32871 0.87039
 H2049 H 0.12853 0.32654 0.84749
 H2050 H 0.13717 0.29056 0.82254
 C2051 C 0.59608 0.74146 0.29719
 C2052 C 0.57840 0.76113 0.29421
 C2053 C 0.55640 0.76097 0.30832
 C2054 C 0.55253 0.74122 0.32524
 C2055 C 0.56866 0.72011 0.32615
 C2056 C 0.59057 0.72016 0.31188
 C2057 C 0.60690 0.69915 0.31328
 C2058 C 0.60164 0.67864 0.32847
 C2059 C 0.58023 0.67870 0.34264
 C2060 C 0.56388 0.69922 0.34162
 C2061 C 0.53918 0.78117 0.30576
 C2062 C 0.54362 0.80094 0.28950
 C2063 C 0.56525 0.80109 0.27564
 C2064 C 0.58257 0.78147 0.27794
 C2065 C 0.53486 0.74479 0.34418
 C2066 C 0.52154 0.74907 0.36079
 C2067 C 0.62109 0.74472 0.28793
 C2068 C 0.64234 0.74755 0.28134
 H2069 H 0.62371 0.69830 0.30252
 H2070 H 0.61424 0.66263 0.32924
 H2071 H 0.57625 0.66278 0.35446
 H2072 H 0.54737 0.69848 0.35285
 H2073 H 0.52207 0.78173 0.31613
 H2074 H 0.53023 0.81620 0.28767
 H2075 H 0.56864 0.81648 0.26304
 H2076 H 0.59909 0.78227 0.26675
 C2077 C 0.59939 0.24041 0.18971
 C2078 C 0.58400 0.26213 0.18868
 C2079 C 0.56004 0.26088 0.17754
 C2080 C 0.55199 0.23807 0.16723
 C2081 C 0.56684 0.21606 0.16923
 C2082 C 0.59068 0.21720 0.18063
 C2083 C 0.60552 0.19509 0.18217
 C2084 C 0.59699 0.17250 0.17261
 C2085 C 0.57362 0.17141 0.16135
 C2086 C 0.55864 0.19290 0.15960
 C2087 C 0.54487 0.28278 0.17647
 C2088 C 0.55337 0.30542 0.18594
 C2089 C 0.57702 0.30675 0.19660
 C2090 C 0.59221 0.28539 0.19810
 C2091 C 0.53028 0.23819 0.15180
 C2092 C 0.51339 0.23882 0.13754
 C2093 C 0.62459 0.24220 0.19911
 C2094 C 0.64564 0.24369 0.20672
 H2095 H 0.62382 0.19502 0.19077
 H2096 H 0.60858 0.15576 0.17391
 H2097 H 0.56710 0.15385 0.15387
 H2098 H 0.54058 0.19115 0.15072
 H2099 H 0.52631 0.28260 0.16841
 H2100 H 0.54157 0.32203 0.18492
 H2101 H 0.58364 0.32443 0.20371
 H2102 H 0.61042 0.28732 0.20666
 C2103 C 0.10644 0.73585 0.68994
 C2104 C 0.08290 0.73676 0.70150
 C2105 C 0.06050 0.73748 0.68764
 C2106 C 0.06200 0.73738 0.66245
 C2107 C 0.08552 0.73583 0.65090
 C2108 C 0.10788 0.73488 0.66474
 C2109 C 0.13131 0.73325 0.65291
 C2110 C 0.13248 0.73270 0.62805
 C2111 C 0.11054 0.73375 0.61446
 C2112 C 0.08729 0.73542 0.62565
 C2113 C 0.03705 0.73848 0.69941
 C2114 C 0.03585 0.73875 0.72428
 C2115 C 0.05784 0.73807 0.73789
 C2116 C 0.08117 0.73710 0.72672
 C2117 C 0.03953 0.73915 0.64811
 C2118 C 0.02175 0.74060 0.63491
 C2119 C 0.12936 0.73723 0.70366
 C2120 C 0.14911 0.73896 0.71390
 H2121 H 0.14893 0.73235 0.66267
 H2122 H 0.15051 0.73158 0.61929
 H2123 H 0.11152 0.73336 0.59516
 H2124 H 0.07079 0.73650 0.61428
 H2125 H 0.01946 0.73901 0.68954
 H2126 H 0.01777 0.73949 0.73303
 H2127 H 0.05682 0.73827 0.75720
 H2128 H 0.09778 0.73652 0.73801
 C2129 C 0.88574 0.73161 0.66999
 C2130 C 0.88995 0.74692 0.64942
 C2131 C 0.91350 0.74604 0.63781
 C2132 C 0.93258 0.72995 0.64702
 C2133 C 0.92798 0.71379 0.66691
 C2134 C 0.90436 0.71457 0.67845
 C2135 C 0.90011 0.69847 0.69853
 C2136 C 0.91883 0.68218 0.70700
 C2137 C 0.94201 0.68145 0.69568
 C2138 C 0.94665 0.69705 0.67583
 C2139 C 0.91754 0.76171 0.61736
 C2140 C 0.89874 0.77777 0.60868
 C2141 C 0.87567 0.77872 0.62015
 C2142 C 0.87120 0.76351 0.64029
 C2143 C 0.95741 0.73179 0.63711
 C2144 C 0.97773 0.73533 0.62852
 C2145 C 0.86280 0.73448 0.68314
 C2146 C 0.84383 0.73744 0.69413
 H2147 H 0.88230 0.69824 0.70779
 H2148 H 0.91528 0.66998 0.72237
 H2149 H 0.95647 0.66873 0.70229
 H2150 H 0.96493 0.69581 0.66752
 H2151 H 0.93517 0.76166 0.60781
 H2152 H 0.90211 0.78954 0.59299
 H2153 H 0.86114 0.79129 0.61342
 H2154 H 0.85293 0.76487 0.64856
 C2155 C 0.37856 0.23085 0.16968
 C2156 C 0.38277 0.24602 0.14902
 C2157 C 0.40580 0.24400 0.13667
 C2158 C 0.42437 0.22697 0.14525
 C2159 C 0.41953 0.21070 0.16499
 C2160 C 0.39646 0.21267 0.17734
 C2161 C 0.39214 0.19671 0.19750
 C2162 C 0.41020 0.17930 0.20518
 C2163 C 0.43277 0.17728 0.19296
 C2164 C 0.43751 0.19280 0.17308
 C2165 C 0.40999 0.25967 0.11627
 C2166 C 0.39194 0.27703 0.10847
 C2167 C 0.36939 0.27912 0.12069
 C2168 C 0.36469 0.26375 0.14068
 C2169 C 0.44939 0.22885 0.13575
 C2170 C 0.47007 0.23272 0.12809
 C2171 C 0.35653 0.23500 0.18382
 C2172 C 0.33833 0.23870 0.19572
 H2173 H 0.37478 0.19747 0.20746
 H2174 H 0.40660 0.16722 0.22062
 H2175 H 0.44669 0.16364 0.19892
 H2176 H 0.45530 0.19057 0.16406
 H2177 H 0.42718 0.25859 0.10615
 H2178 H 0.39548 0.28894 0.09291
 H2179 H 0.35545 0.29270 0.11464
 H2180 H 0.34680 0.26594 0.14950
 C2181 C 0.38436 0.76734 0.34145
 C2182 C 0.40287 0.78486 0.33377
 C2183 C 0.42764 0.78299 0.34307
 C2184 C 0.43335 0.76409 0.36044
 C2185 C 0.41432 0.74791 0.36953
 C2186 C 0.38963 0.74954 0.35995
 C2187 C 0.37081 0.73300 0.36893
 C2188 C 0.37634 0.71531 0.38697
 C2189 C 0.40059 0.71366 0.39635
 C2190 C 0.41946 0.72971 0.38776
 C2191 C 0.44629 0.79992 0.33437
 C2192 C 0.44035 0.81867 0.31747
 C2193 C 0.41591 0.82083 0.30872
 C2194 C 0.39733 0.80405 0.31658
 C2195 C 0.45898 0.76079 0.36825
 C2196 C 0.48051 0.75818 0.37426
 C2197 C 0.36106 0.76574 0.32831
 C2198 C 0.34246 0.76400 0.31625
 H2199 H 0.35166 0.73374 0.36225
 H2200 H 0.36173 0.70283 0.39371
 H2201 H 0.40480 0.69986 0.41032
 H2202 H 0.43805 0.72775 0.39558
 H2203 H 0.46559 0.79887 0.34051
 H2204 H 0.45479 0.83160 0.31117
 H2205 H 0.41133 0.83553 0.29574
 H2206 H 0.37857 0.80643 0.30925
 C2207 C 0.88897 0.25629 0.81561
 C2208 C 0.89855 0.27968 0.82346
 C2209 C 0.92191 0.28041 0.83577
 C2210 C 0.93530 0.25777 0.84001
 C2211 C 0.92610 0.23450 0.83150
 C2212 C 0.90277 0.23376 0.81924
 C2213 C 0.89366 0.21028 0.81102
 C2214 C 0.90733 0.18817 0.81489
 C2215 C 0.93025 0.18890 0.82694
 C2216 C 0.93963 0.21173 0.83520
 C2217 C 0.93122 0.30388 0.84373
 C2218 C 0.91772 0.32606 0.83957
 C2219 C 0.89477 0.32535 0.82752
 C2220 C 0.88520 0.30247 0.81949
 C2221 C 0.95781 0.25785 0.85432
 C2222 C 0.97616 0.25629 0.86675
 C2223 C 0.86473 0.25519 0.80414
 C2224 C 0.84462 0.25381 0.79452
 H2225 H 0.87593 0.20874 0.80153
 H2226 H 0.90010 0.17039 0.80849
 H2227 H 0.94084 0.17169 0.82991
 H2228 H 0.95759 0.21130 0.84442
 H2229 H 0.94902 0.30533 0.85312
 H2230 H 0.92511 0.34388 0.84572
 H2231 H 0.88433 0.34262 0.82436
 H2232 H 0.86731 0.30286 0.81014
 C2233 C 0.53439 0.99831 0.64808
 C2234 C 0.53310 1.01908 0.66355
 C2235 C 0.54620 1.01831 0.68582
 C2236 C 0.56037 0.99669 0.69257
 C2237 C 0.56074 0.97549 0.67759
 C2238 C 0.54771 0.97628 0.65531
 C2239 C 0.54868 0.95494 0.64051
 C2240 C 0.56216 0.93348 0.64749
 C2241 C 0.57494 0.93275 0.66925
 C2242 C 0.57429 0.95344 0.68420
 C2243 C 0.54506 1.03951 0.70075
 C2244 C 0.53117 1.06078 0.69399
 C2245 C 0.51820 1.06143 0.67233
 C2246 C 0.51920 1.04093 0.65714
 C2247 C 0.57565 0.99671 0.71422
 C2248 C 0.58905 0.99692 0.73173
 C2249 C 0.52421 1.00030 0.62390
 C2250 C 0.51770 1.00137 0.60319
 H2251 H 0.53897 0.95455 0.62346
 H2252 H 0.56269 0.91734 0.63595
 H2253 H 0.58540 0.91605 0.67459
 H2254 H 0.58446 0.95193 0.70098
 H2255 H 0.55474 1.03983 0.71782
 H2256 H 0.53043 1.07681 0.70566
 H2257 H 0.50727 1.07790 0.66728
 H2258 H 0.50883 1.04229 0.64046
 C2259 C 0.04306 0.51774 1.14277
 C2260 C 0.04472 0.53813 1.15867
 C2261 C 0.05668 0.53473 1.18136
 C2262 C 0.06712 0.51099 1.18797
 C2263 C 0.06505 0.49047 1.17226
 C2264 C 0.05293 0.49381 1.14967
 C2265 C 0.05127 0.47295 1.13428
 C2266 C 0.06133 0.44958 1.14095
 C2267 C 0.07325 0.44639 1.16298
 C2268 C 0.07513 0.46652 1.17853
 C2269 C 0.05813 0.55544 1.19690
 C2270 C 0.04823 0.57887 1.19019
 C2271 C 0.03668 0.58220 1.16799
 C2272 C 0.03486 0.56212 1.15235
 C2273 C 0.08097 0.50797 1.21039
 C2274 C 0.09306 0.50586 1.22870
 C2275 C 0.03260 0.52136 1.11879
 C2276 C 0.02534 0.52243 1.09827
 H2277 H 0.04218 0.47442 1.11696
 H2278 H 0.05989 0.43387 1.12894
 H2279 H 0.08107 0.42821 1.16806
 H2280 H 0.08455 0.46308 1.19548
 H2281 H 0.06685 0.55373 1.21438
 H2282 H 0.04957 0.59452 1.20227
 H2283 H 0.02904 0.60045 1.16287
 H2284 H 0.02563 0.56556 1.13530
 C2285 C -0.03306 -0.01138 1.14600
 C2286 C -0.02642 0.00774 1.16222
 C2287 C -0.04063 0.01083 1.18343
 C2288 C -0.06150 -0.00513 1.18822
 C2289 C -0.06755 -0.02486 1.17241
 C2290 C -0.05309 -0.02819 1.15143
 C2291 C -0.05936 -0.04821 1.13607
 C2292 C -0.07948 -0.06433 1.14116
 C2293 C -0.09386 -0.06084 1.16147
 C2294 C -0.08810 -0.04131 1.17692
 C2295 C -0.03373 0.03019 1.19927
 C2296 C -0.01337 0.04606 1.19432
 C2297 C 0.00049 0.04306 1.17358
 C2298 C -0.00590 0.02417 1.15763
 C2299 C -0.07682 -0.00143 1.20930
 C2300 C -0.08999 0.00068 1.22666
 C2301 C -0.02162 -0.01186 1.12246
 C2302 C -0.01433 -0.01153 1.10208
 H2303 H -0.04869 -0.05171 1.12007
 H2304 H -0.08398 -0.07957 1.12923
 H2305 H -0.10958 -0.07330 1.16527
 H2306 H -0.10000 -0.03919 1.19233
 H2307 H -0.04397 0.03325 1.21561
 H2308 H -0.00832 0.06076 1.20664
 H2309 H 0.01630 0.05543 1.16984
 H2310 H 0.00549 0.02245 1.14179
 C2311 C 0.45887 0.48012 0.64256
 C2312 C 0.46342 0.50288 0.65481
 C2313 C 0.45160 0.50713 0.67710
 C2314 C 0.43530 0.48861 0.68706
 C2315 C 0.43174 0.46533 0.67540
 C2316 C 0.44363 0.46105 0.65313
 C2317 C 0.43968 0.43773 0.64179
 C2318 C 0.42447 0.41907 0.65215
 C2319 C 0.41275 0.42328 0.67385
 C2320 C 0.41621 0.44613 0.68536
 C2321 C 0.45619 0.53013 0.68881
 C2322 C 0.47206 0.54843 0.67883
 C2323 C 0.48363 0.54429 0.65706
 C2324 C 0.47941 0.52183 0.64510
 C2325 C 0.42172 0.49360 0.70896
 C2326 C 0.40983 0.49672 0.72699
 C2327 C 0.46768 0.47765 0.61814
 C2328 C 0.47381 0.47756 0.59739
 H2329 H 0.44845 0.43362 0.62491
 H2330 H 0.42174 0.40128 0.64329
 H2331 H 0.40090 0.40876 0.68180
 H2332 H 0.40663 0.44857 0.70213
 H2333 H 0.44763 0.53419 0.70580
 H2334 H 0.47541 0.56591 0.68805
 H2335 H 0.49597 0.55855 0.64940
 H2336 H 0.48894 0.51944 0.62827
 C2337 C 0.46498 0.50553 -0.14644
 C2338 C 0.44704 0.52411 -0.15313
 C2339 C 0.43368 0.52216 -0.17512
 C2340 C 0.43867 0.50190 -0.19053
 C2341 C 0.45750 0.48406 -0.18440
 C2342 C 0.47067 0.48586 -0.16227
 C2343 C 0.48916 0.46761 -0.15637
 C2344 C 0.49454 0.44814 -0.17190
 C2345 C 0.48166 0.44637 -0.19352
 C2346 C 0.46331 0.46407 -0.19978
 C2347 C 0.41523 0.54050 -0.18100
 C2348 C 0.41041 0.56042 -0.16583
 C2349 C 0.42366 0.56247 -0.14446
 C2350 C 0.44176 0.54456 -0.13807
 C2351 C 0.42399 0.49932 -0.21238
 C2352 C 0.41109 0.49809 -0.23017
 C2353 C 0.47529 0.50513 -0.12229
 C2354 C 0.48192 0.50426 -0.10163
 H2355 H 0.49973 0.46830 -0.13979
 H2356 H 0.50879 0.43435 -0.16713
 H2357 H 0.48590 0.43120 -0.20551
 H2358 H 0.45378 0.46193 -0.21678
 H2359 H 0.40428 0.53959 -0.19731
 H2360 H 0.39628 0.57431 -0.17067
 H2361 H 0.41983 0.57796 -0.13271
 H2362 H 0.45162 0.54699 -0.12129
 C2363 C -0.03563 1.01106 0.35228
 C2364 C -0.05495 1.02848 0.34638
 C2365 C -0.06893 1.02590 0.32481
 C2366 C -0.06317 1.00623 0.30896
 C2367 C -0.04308 0.98955 0.31432
 C2368 C -0.02931 0.99193 0.33607
 C2369 C -0.00957 0.97479 0.34120
 C2370 C -0.00352 0.95589 0.32528
 C2371 C -0.01694 0.95359 0.30401
 C2372 C -0.03653 0.97017 0.29851
 C2373 C -0.08872 1.04303 0.31974
 C2374 C -0.09423 1.06245 0.33527
 C2375 C -0.08037 1.06515 0.35621
 C2376 C -0.06097 1.04838 0.36183
 C2377 C -0.07799 1.00330 0.28724
 C2378 C -0.09066 1.00176 0.26932
 C2379 C -0.02448 1.01105 0.37609
 C2380 C -0.01718 1.01021 0.39656
 H2381 H 0.00146 0.97593 0.35748
 H2382 H 0.01168 0.94296 0.32946
 H2383 H -0.01216 0.93888 0.29171
 H2384 H -0.04645 0.96764 0.28177
 H2385 H -0.10020 1.04154 0.30381
 H2386 H -0.10936 1.07544 0.33103
 H2387 H -0.08472 1.08027 0.36822
 H2388 H -0.05068 1.05129 0.37831
 C2389 C 0.04051 0.48213 0.35483
 C2390 C 0.03474 0.50427 0.34127
 C2391 C 0.04715 0.50932 0.31921
 C2392 C 0.06521 0.49217 0.31074
 C2393 C 0.06997 0.46936 0.32364
 C2394 C 0.05768 0.46439 0.34577
 C2395 C 0.06316 0.44173 0.35853
 C2396 C 0.08019 0.42437 0.34965
 C2397 C 0.09209 0.42914 0.32796
 C2398 C 0.08711 0.45133 0.31504
 C2399 C 0.04133 0.53174 0.30621
 C2400 C 0.02368 0.54869 0.31469
 C2401 C 0.01153 0.54378 0.33622
 C2402 C 0.01695 0.52188 0.34945
 C2403 C 0.07952 0.49816 0.28923
 C2404 C 0.09217 0.50205 0.27164
 C2405 C 0.03089 0.47908 0.37906
 C2406 C 0.02423 0.47845 0.39968
 H2407 H 0.05423 0.43714 0.37540
 H2408 H 0.08412 0.40710 0.35961
 H2409 H 0.10524 0.41556 0.32110
 H2410 H 0.09671 0.45411 0.29821
 H2411 H 0.05026 0.53634 0.28934
 H2412 H 0.01939 0.56573 0.30449
 H2413 H -0.00218 0.55700 0.34272
 H2414 H 0.00693 0.51883 0.36604
 C2415 C 0.54584 -0.02312 -0.13895
 C2416 C 0.53778 -0.00227 -0.15329
 C2417 C 0.54888 0.00249 -0.17602
 C2418 C 0.56792 -0.01365 -0.18436
 C2419 C 0.57515 -0.03516 -0.17051
 C2420 C 0.56413 -0.03986 -0.14774
 C2421 C 0.57196 -0.06122 -0.13411
 C2422 C 0.59011 -0.07757 -0.14274
 C2423 C 0.60083 -0.07304 -0.16502
 C2424 C 0.59350 -0.05212 -0.17882
 C2425 C 0.54076 0.02361 -0.18984
 C2426 C 0.52214 0.03958 -0.18150
 C2427 C 0.51126 0.03494 -0.15931
 C2428 C 0.51894 0.01430 -0.14528
 C2429 C 0.58051 -0.00802 -0.20687
 C2430 C 0.59167 -0.00440 -0.22538
 C2431 C 0.53721 -0.02572 -0.11435
 C2432 C 0.53117 -0.02601 -0.09357
 H2433 H 0.56405 -0.06559 -0.11673
 H2434 H 0.59585 -0.09386 -0.13210
 H2435 H 0.61487 -0.08583 -0.17167
 H2436 H 0.60230 -0.04948 -0.19607
 H2437 H 0.54865 0.02795 -0.20723
 H2438 H 0.51611 0.05563 -0.19232
 H2439 H 0.49679 0.04739 -0.15293
 H2440 H 0.50985 0.01141 -0.12819
 C2441 C 0.63779 0.57427 -0.01030
 C2442 C 0.63921 0.59932 -0.01955
 C2443 C 0.66154 0.61386 -0.01632
 C2444 C 0.68268 0.60311 -0.00441
 C2445 C 0.68147 0.57787 0.00435
 C2446 C 0.65898 0.56347 0.00149
 C2447 C 0.65825 0.53839 0.01064
 C2448 C 0.67909 0.52778 0.02220
 C2449 C 0.70105 0.54180 0.02491
 C2450 C 0.70232 0.56657 0.01614
 C2451 C 0.66212 0.63908 -0.02513
 C2452 C 0.64156 0.64944 -0.03734
 C2453 C 0.61999 0.63507 -0.04093
 C2454 C 0.61863 0.61036 -0.03201
 C2455 C 0.70580 0.61782 -0.00169
 C2456 C 0.72494 0.63018 -0.00001
 C2457 C 0.61412 0.56021 -0.01151
 C2458 C 0.59430 0.54887 -0.01130
 H2459 H 0.64163 0.52669 0.00889
 H2460 H 0.67821 0.50855 0.02906
 H2461 H 0.71718 0.53346 0.03389
 H2462 H 0.71980 0.57673 0.01872
 H2463 H 0.67841 0.65105 -0.02263
 H2464 H 0.64241 0.66871 -0.04411
 H2465 H 0.60420 0.64312 -0.05068
 H2466 H 0.60139 0.59998 -0.03514
 C2467 C 0.14133 1.07645 0.48743
 C2468 C 0.16349 1.06365 0.49490
 C2469 C 0.18627 1.07737 0.49846
 C2470 C 0.18683 1.10388 0.49466
 C2471 C 0.16479 1.11662 0.48676
 C2472 C 0.14209 1.10286 0.48294
 C2473 C 0.12048 1.11602 0.47475
 C2474 C 0.12121 1.14202 0.47049
 C2475 C 0.14327 1.15550 0.47450
 C2476 C 0.16484 1.14305 0.48260
 C2477 C 0.20810 1.06410 0.50590
 C2478 C 0.20749 1.03804 0.50977
 C2479 C 0.18525 1.02466 0.50637
 C2480 C 0.16345 1.03721 0.49903
 C2481 C 0.21013 1.11798 0.49836
 C2482 C 0.22944 1.12986 0.50085
 C2483 C 0.11747 1.06279 0.48597
 C2484 C 0.09751 1.05171 0.48609
 H2485 H 0.10286 1.10637 0.47139
 H2486 H 0.10457 1.15175 0.46405
 H2487 H 0.14370 1.17571 0.47127
 H2488 H 0.18150 1.15438 0.48558
 H2489 H 0.22585 1.07368 0.50880
 H2490 H 0.22437 1.02819 0.51546
 H2491 H 0.18488 1.00442 0.50940
 H2492 H 0.14663 1.02597 0.49652
 C2493 C 0.14309 -0.07894 1.01109
 C2494 C 0.15659 -0.08697 1.03176
 C2495 C 0.17993 -0.09983 1.02946
 C2496 C 0.18962 -0.10481 1.00649
 C2497 C 0.17617 -0.09671 0.98582
 C2498 C 0.15292 -0.08372 0.98810
 C2499 C 0.13991 -0.07586 0.96709
 C2500 C 0.14952 -0.08070 0.94453
 C2501 C 0.17218 -0.09340 0.94233
 C2502 C 0.18543 -0.10137 0.96266
 C2503 C 0.19308 -0.10750 1.05043
 C2504 C 0.18341 -0.10285 1.07299
 C2505 C 0.16057 -0.09044 1.07522
 C2506 C 0.14726 -0.08251 1.05490
 C2507 C 0.21306 -0.11878 1.00414
 C2508 C 0.23231 -0.13076 1.00260
 C2509 C 0.11899 -0.06603 1.01317
 C2510 C 0.09884 -0.05544 1.01331
 H2511 H 0.12220 -0.06591 0.96782
 H2512 H 0.13930 -0.07454 0.92867
 H2513 H 0.17955 -0.09711 0.92476
 H2514 H 0.20299 -0.11117 0.96002
 H2515 H 0.21097 -0.11711 1.04962
 H2516 H 0.19370 -0.10893 1.08884
 H2517 H 0.15315 -0.08689 1.09280
 H2518 H 0.12961 -0.07286 1.05751
 C2519 C 0.63351 0.41712 0.50663
 C2520 C 0.63544 0.39050 0.50866
 C2521 C 0.65906 0.37851 0.50519
 C2522 C 0.68078 0.39318 0.49993
 C2523 C 0.67897 0.41983 0.49846
 C2524 C 0.65532 0.43181 0.50177
 C2525 C 0.65410 0.45846 0.50006
 C2526 C 0.67555 0.47287 0.49532
 C2527 C 0.69862 0.46117 0.49214
 C2528 C 0.70042 0.43496 0.49366
 C2529 C 0.66034 0.35186 0.50703
 C2530 C 0.63905 0.33748 0.51243
 C2531 C 0.61606 0.34919 0.51599
 C2532 C 0.61414 0.37538 0.51406
 C2533 C 0.70498 0.38083 0.49662
 C2534 C 0.72482 0.36994 0.49457
 C2535 C 0.60896 0.42931 0.50816
 C2536 C 0.58877 0.43982 0.50816
 H2537 H 0.63661 0.46845 0.50249
 H2538 H 0.67426 0.49325 0.49412
 H2539 H 0.71522 0.47246 0.48848
 H2540 H 0.71877 0.42673 0.49103
 H2541 H 0.67775 0.34186 0.50429
 H2542 H 0.64041 0.31712 0.51389
 H2543 H 0.59960 0.33792 0.52023
 H2544 H 0.59585 0.38363 0.51698
 C2545 C -0.14113 0.42651 0.48512
 C2546 C -0.14170 0.40022 0.48092
 C2547 C -0.16468 0.38650 0.48318
 C2548 C -0.18713 0.39915 0.48930
 C2549 C -0.18670 0.42553 0.49289
 C2550 C -0.16366 0.43922 0.49087
 C2551 C -0.16375 0.46552 0.49475
 C2552 C -0.18592 0.47798 0.50039
 C2553 C -0.20841 0.46462 0.50229
 C2554 C -0.20890 0.43868 0.49862
 C2555 C -0.16458 0.36018 0.47932
 C2556 C -0.14256 0.34781 0.47309
 C2557 C -0.12017 0.36123 0.47073
 C2558 C -0.11962 0.38712 0.47461
 C2559 C -0.21058 0.38494 0.49161
 C2560 C -0.22953 0.37228 0.49298
 C2561 C -0.11719 0.44009 0.48486
 C2562 C -0.09711 0.45090 0.48561
 H2563 H -0.14674 0.47673 0.49339
 H2564 H -0.18565 0.49812 0.50326
 H2565 H -0.22558 0.47439 0.50665
 H2566 H -0.22684 0.42910 0.50031
 H2567 H -0.18146 0.34885 0.48112
 H2568 H -0.14288 0.32768 0.47010
 H2569 H -0.10312 0.35150 0.46597
 H2570 H -0.10174 0.39673 0.47253
 C2571 C 0.36626 -0.07568 -0.00604
 C2572 C 0.35812 -0.09082 -0.02520
 C2573 C 0.33478 -0.10403 -0.02372
 C2574 C 0.31979 -0.10227 -0.00297
 C2575 C 0.32775 -0.08686 0.01605
 C2576 C 0.35100 -0.07352 0.01451
 C2577 C 0.35853 -0.05832 0.03384
 C2578 C 0.34358 -0.05637 0.05408
 C2579 C 0.32090 -0.06943 0.05557
 C2580 C 0.31298 -0.08453 0.03684
 C2581 C 0.32703 -0.11889 -0.04320
 C2582 C 0.34193 -0.12082 -0.06347
 C2583 C 0.36479 -0.10805 -0.06484
 C2584 C 0.37289 -0.09320 -0.04598
 C2585 C 0.29663 -0.11692 -0.00090
 C2586 C 0.27774 -0.12962 0.00063
 C2587 C 0.39056 -0.06287 -0.00700
 C2588 C 0.41078 -0.05235 -0.00668
 H2589 H 0.37600 -0.04777 0.03353
 H2590 H 0.34964 -0.04466 0.06869
 H2591 H 0.30936 -0.06785 0.07133
 H2592 H 0.29517 -0.09428 0.03881
 H2593 H 0.30933 -0.12903 -0.04303
 H2594 H 0.33569 -0.13224 -0.07821
 H2595 H 0.37628 -0.10960 -0.08064
 H2596 H 0.39078 -0.08357 -0.04789
 C2597 C 0.35833 1.06711 0.51404
 C2598 C 0.35501 1.08801 0.52909
 C2599 C 0.33305 1.10320 0.52677
 C2600 C 0.31450 1.09750 0.50934
 C2601 C 0.31740 1.07609 0.49489
 C2602 C 0.33933 1.06087 0.49724
 C2603 C 0.34181 1.03968 0.48244
 C2604 C 0.32316 1.03363 0.46586
 C2605 C 0.30174 1.04848 0.46360
 C2606 C 0.29879 1.06950 0.47788
 C2607 C 0.33024 1.12397 0.54204
 C2608 C 0.34854 1.12958 0.55910
 C2609 C 0.36998 1.11477 0.56133
 C2610 C 0.37332 1.09425 0.54650
 C2611 C 0.29262 1.11380 0.50621
 C2612 C 0.27461 1.12758 0.50406
 C2613 C 0.38195 1.05316 0.51465
 C2614 C 0.40199 1.04246 0.51402
 H2615 H 0.35808 1.02749 0.48362
 H2616 H 0.32534 1.01732 0.45473
 H2617 H 0.28730 1.04369 0.45070
 H2618 H 0.28178 1.08044 0.47549
 H2619 H 0.31383 1.13596 0.54105
 H2620 H 0.34603 1.14545 0.57071
 H2621 H 0.38411 1.11918 0.57465
 H2622 H 0.39028 1.08324 0.54897
 C2623 C -0.14044 0.57721 1.01045
 C2624 C -0.15525 0.57521 0.98938
 C2625 C -0.17871 0.58798 0.98744
 C2626 C -0.18736 0.60262 1.00658
 C2627 C -0.17285 0.60414 1.02787
 C2628 C -0.14927 0.59155 1.02974
 C2629 C -0.13497 0.59374 1.05102
 C2630 C -0.14376 0.60780 1.07000
 C2631 C -0.16688 0.61990 1.06827
 C2632 C -0.18133 0.61816 1.04749
 C2633 C -0.19300 0.58584 0.96614
 C2634 C -0.18442 0.57149 0.94728
 C2635 C -0.16152 0.55900 0.94916
 C2636 C -0.14703 0.56077 0.96991
 C2637 C -0.21066 0.61689 1.00408
 C2638 C -0.22960 0.62938 1.00225
 C2639 C -0.11592 0.56498 1.01181
 C2640 C -0.09560 0.55481 1.01156
 H2641 H -0.11691 0.58457 1.05323
 H2642 H -0.13262 0.60924 1.08619
 H2643 H -0.17367 0.63070 1.08312
 H2644 H -0.19925 0.62777 1.04705
 H2645 H -0.21096 0.59517 0.96385
 H2646 H -0.19560 0.57004 0.93112
 H2647 H -0.15494 0.54787 0.93446
 H2648 H -0.12938 0.55067 0.97049
 C2649 C 0.01832 0.64694 0.53974
 C2650 C -0.00162 0.66397 0.53518
 C2651 C -0.00263 0.68676 0.54787
 C2652 C 0.01624 0.69204 0.56494
 C2653 C 0.03778 0.67661 0.56714
 C2654 C 0.03883 0.65382 0.55443
 C2655 C 0.06009 0.63805 0.55735
 C2656 C 0.07996 0.64489 0.57232
 C2657 C 0.07896 0.66732 0.58479
 C2658 C 0.05805 0.68301 0.58239
 C2659 C -0.02306 0.70337 0.54376
 C2660 C -0.04199 0.69750 0.52740
 C2661 C -0.04105 0.67505 0.51497
 C2662 C -0.02114 0.65836 0.51878
 C2663 C 0.01154 0.71069 0.58263
 C2664 C 0.00695 0.72513 0.59820
 C2665 C 0.01587 0.62129 0.53219
 C2666 C 0.01277 0.59977 0.52674
 H2667 H 0.06166 0.62052 0.54788
 H2668 H 0.09622 0.63275 0.57421
 H2669 H 0.09442 0.67259 0.59638
 H2670 H 0.05798 0.70029 0.59233
 H2671 H -0.02443 0.72108 0.55298
 H2672 H -0.05747 0.71042 0.52437
 H2673 H -0.05580 0.67054 0.50231
 H2674 H -0.02106 0.64117 0.50865
 C2675 C 0.52315 0.14571 0.04347
 C2676 C 0.54108 0.15300 0.06076
 C2677 C 0.53752 0.17567 0.07325
 C2678 C 0.51618 0.19070 0.06804
 C2679 C 0.50021 0.18506 0.04860
 C2680 C 0.50372 0.16234 0.03620
 C2681 C 0.48707 0.15638 0.01729
 C2682 C 0.46753 0.17265 0.01077
 C2683 C 0.46410 0.19500 0.02295
 C2684 C 0.48018 0.20120 0.04174
 C2685 C 0.55502 0.18233 0.09124
 C2686 C 0.57573 0.16705 0.09644
 C2687 C 0.57929 0.14483 0.08408
 C2688 C 0.56212 0.13772 0.06647
 C2689 C 0.50859 0.20936 0.08477
 C2690 C 0.50193 0.22368 0.09974
 C2691 C 0.52207 0.11987 0.03619
 C2692 C 0.51964 0.09819 0.03098
 H2693 H 0.48915 0.13925 0.00728
 H2694 H 0.45499 0.16789 -0.00381
 H2695 H 0.44892 0.20759 0.01782
 H2696 H 0.47693 0.21881 0.05070
 H2697 H 0.55300 0.19949 0.10122
 H2698 H 0.58911 0.17249 0.11009
 H2699 H 0.59542 0.13305 0.08813
 H2700 H 0.56563 0.12037 0.05717
 C2701 C -0.01000 0.13080 0.92662
 C2702 C 0.00802 0.13785 0.90925
 C2703 C 0.00902 0.16315 0.90073
 C2704 C -0.00820 0.18096 0.90954
 C2705 C -0.02722 0.17352 0.92577
 C2706 C -0.02813 0.14823 0.93438
 C2707 C -0.04715 0.14103 0.95079
 C2708 C -0.06482 0.15845 0.95839
 C2709 C -0.06395 0.18328 0.94990
 C2710 C -0.04537 0.19086 0.93379
 C2711 C 0.02746 0.17007 0.88361
 C2712 C 0.04424 0.15232 0.87502
 C2713 C 0.04315 0.12743 0.88329
 C2714 C 0.02532 0.12018 0.90027
 C2715 C -0.00642 0.20680 0.90151
 C2716 C -0.00455 0.22790 0.89369
 C2717 C -0.00846 0.10633 0.93801
 C2718 C -0.00645 0.08639 0.94820
 H2719 H -0.04867 0.12188 0.95773
 H2720 H -0.07928 0.15264 0.97089
 H2721 H -0.07774 0.19673 0.95581
 H2722 H -0.04543 0.21036 0.92765
 H2723 H 0.02908 0.18920 0.87668
 H2724 H 0.05816 0.15791 0.86188
 H2725 H 0.05619 0.11368 0.87655
 H2726 H 0.02511 0.10058 0.90612
 C2727 C 0.50613 0.64613 0.44819
 C2728 C 0.52857 0.65382 0.43664
 C2729 C 0.53015 0.67823 0.42597
 C2730 C 0.50928 0.69461 0.42700
 C2731 C 0.48722 0.68731 0.43936
 C2732 C 0.48559 0.66287 0.44995
 C2733 C 0.46310 0.65556 0.46168
 C2734 C 0.44280 0.67206 0.46287
 C2735 C 0.44443 0.69608 0.45252
 C2736 C 0.46637 0.70374 0.44091
 C2737 C 0.55250 0.68547 0.41396
 C2738 C 0.57273 0.66894 0.41254
 C2739 C 0.57120 0.64498 0.42302
 C2740 C 0.54944 0.63741 0.43498
 C2741 C 0.50926 0.71742 0.41266
 C2742 C 0.50854 0.73529 0.39925
 C2743 C 0.50384 0.62064 0.45728
 C2744 C 0.50225 0.59926 0.46450
 H2745 H 0.46096 0.63707 0.47000
 H2746 H 0.42573 0.66617 0.47188
 H2747 H 0.42863 0.70884 0.45349
 H2748 H 0.46684 0.72265 0.43324
 H2749 H 0.55458 0.70395 0.40559
 H2750 H 0.58966 0.67475 0.40325
 H2751 H 0.58695 0.63217 0.42186
 H2752 H 0.54915 0.61859 0.44285
 C2753 C 0.52854 0.87477 0.42168
 C2754 C 0.50921 0.86891 0.40522
 C2755 C 0.50758 0.84427 0.39607
 C2756 C 0.52539 0.82585 0.40340
 C2757 C 0.54606 0.83240 0.41806
 C2758 C 0.54765 0.85709 0.42728
 C2759 C 0.56817 0.86334 0.44229
 C2760 C 0.58675 0.84562 0.44788
 C2761 C 0.58520 0.82140 0.43879
 C2762 C 0.56504 0.81472 0.42410
 C2763 C 0.48765 0.83848 0.38012
 C2764 C 0.46991 0.85661 0.37341
 C2765 C 0.47154 0.88082 0.38240
 C2766 C 0.49094 0.88702 0.39811
 C2767 C 0.52117 0.80004 0.39688
 C2768 C 0.51551 0.77926 0.39063
 C2769 C 0.52665 0.89766 0.43491
 C2770 C 0.52310 0.91625 0.44619
 H2771 H 0.57017 0.88202 0.44960
 H2772 H 0.60242 0.85069 0.45929
 H2773 H 0.59969 0.80773 0.44314
 H2774 H 0.56456 0.79571 0.41738
 H2775 H 0.48563 0.81994 0.37264
 H2776 H 0.45482 0.85185 0.36120
 H2777 H 0.45770 0.89486 0.37719
 H2778 H 0.49155 0.90616 0.40450
 C2779 C 0.00212 0.36016 0.94740
 C2780 C -0.01915 0.35398 0.93331
 C2781 C -0.02068 0.32997 0.92279
 C2782 C -0.00081 0.31258 0.92629
 C2783 C 0.01995 0.31837 0.94112
 C2784 C 0.02140 0.34234 0.95182
 C2785 C 0.04238 0.34799 0.96652
 C2786 C 0.06136 0.33029 0.97055
 C2787 C 0.06001 0.30682 0.95992
 C2788 C 0.03957 0.30083 0.94532
 C2789 C -0.04201 0.32406 0.90858
 C2790 C -0.06121 0.34155 0.90483
 C2791 C -0.05964 0.36519 0.91505
 C2792 C -0.03892 0.37143 0.92917
 C2793 C -0.00075 0.28998 0.91259
 C2794 C -0.00117 0.27233 0.89959
 C2795 C 0.00414 0.38508 0.95689
 C2796 C 0.00469 0.40605 0.96440
 H2797 H 0.04427 0.36604 0.97508
 H2798 H 0.07722 0.33483 0.98194
 H2799 H 0.07483 0.29317 0.96304
 H2800 H 0.03922 0.28230 0.93751
 H2801 H -0.04414 0.30587 0.90034
 H2802 H -0.07738 0.33671 0.89397
 H2803 H -0.07457 0.37875 0.91207
 H2804 H -0.03863 0.39004 0.93679
 C2805 C 0.48630 0.36269 0.07623
 C2806 C 0.46801 0.34482 0.06922
 C2807 C 0.46930 0.31979 0.07846
 C2808 C 0.48872 0.31308 0.09475
 C2809 C 0.50621 0.33130 0.10272
 C2810 C 0.50496 0.35631 0.09341
 C2811 C 0.52275 0.37433 0.10132
 C2812 C 0.54132 0.36769 0.11797
 C2813 C 0.54260 0.34312 0.12706
 C2814 C 0.52528 0.32504 0.11959
 C2815 C 0.45123 0.30191 0.07085
 C2816 C 0.43228 0.30872 0.05467
 C2817 C 0.43098 0.33331 0.04564
 C2818 C 0.44858 0.35126 0.05279
 C2819 C 0.49099 0.28733 0.10297
 C2820 C 0.49278 0.26589 0.10989
 C2821 C 0.48736 0.38685 0.06416
 C2822 C 0.48898 0.40654 0.05344
 H2823 H 0.52244 0.39370 0.09482
 H2824 H 0.55481 0.38167 0.12380
 H2825 H 0.55710 0.33802 0.13993
 H2826 H 0.52702 0.30617 0.12715
 H2827 H 0.45161 0.28252 0.07724
 H2828 H 0.41858 0.29483 0.04908
 H2829 H 0.41628 0.33850 0.03302
 H2830 H 0.44674 0.37019 0.04538
 C2831 C -0.00879 0.86137 0.56747
 C2832 C -0.01025 0.85863 0.59260
 C2833 C -0.00884 0.83424 0.60333
 C2834 C -0.00595 0.81297 0.58875
 C2835 C -0.00561 0.81561 0.56357
 C2836 C -0.00701 0.83999 0.55284
 C2837 C -0.00639 0.84238 0.52759
 C2838 C -0.00452 0.82117 0.51339
 C2839 C -0.00322 0.79722 0.52392
 C2840 C -0.00374 0.79436 0.54871
 C2841 C -0.01024 0.83174 0.62852
 C2842 C -0.01299 0.85288 0.64269
 C2843 C -0.01435 0.87683 0.63216
 C2844 C -0.01295 0.87980 0.60740
 C2845 C -0.00291 0.78835 0.59954
 C2846 C -0.00054 0.76754 0.60794
 C2847 C -0.00783 0.88617 0.55660
 C2848 C -0.00632 0.90651 0.54703
 H2849 H -0.00746 0.86060 0.51856
 H2850 H -0.00411 0.82332 0.49412
 H2851 H -0.00181 0.78078 0.51283
 H2852 H -0.00274 0.77533 0.55606
 H2853 H -0.00935 0.81347 0.63748
 H2854 H -0.01410 0.85066 0.66193
 H2855 H -0.01656 0.89319 0.64323
 H2856 H -0.01416 0.89879 0.60000
 C2857 C 0.24883 0.28612 0.10554
 C2858 C 0.26983 0.28582 0.09012
 C2859 C 0.26867 0.29864 0.06754
 C2860 C 0.24647 0.31160 0.06048
 C2861 C 0.22509 0.31088 0.07542
 C2862 C 0.22626 0.29811 0.09799
 C2863 C 0.20470 0.29797 0.11273
 C2864 C 0.18265 0.31007 0.10539
 C2865 C 0.18152 0.32254 0.08333
 C2866 C 0.20244 0.32301 0.06844
 C2867 C 0.29002 0.29839 0.05258
 C2868 C 0.31184 0.28569 0.05963
 C2869 C 0.31291 0.27304 0.08162
 C2870 C 0.29224 0.27315 0.09683
 C2871 C 0.24599 0.32671 0.03850
 C2872 C 0.24582 0.33987 0.02063
 C2873 C 0.25086 0.27614 0.12990
 C2874 C 0.25156 0.26973 0.15072
 H2875 H 0.20459 0.28845 0.13002
 H2876 H 0.16635 0.30975 0.11689
 H2877 H 0.16435 0.33191 0.07771
 H2878 H 0.20062 0.33292 0.05142
 H2879 H 0.29003 0.30785 0.03526
 H2880 H 0.32797 0.28560 0.04793
 H2881 H 0.32982 0.26302 0.08690
 H2882 H 0.29393 0.26306 0.11377
 C2883 C 0.75309 0.78675 0.60156
 C2884 C 0.77388 0.78699 0.58588
 C2885 C 0.77241 0.80051 0.56367
 C2886 C 0.75009 0.81357 0.55717
 C2887 C 0.72890 0.81231 0.57233
 C2888 C 0.73041 0.79892 0.59459
 C2889 C 0.70904 0.79829 0.60957
 C2890 C 0.68679 0.81032 0.60268
 C2891 C 0.68532 0.82332 0.58091
 C2892 C 0.70610 0.82445 0.56587
 C2893 C 0.79363 0.80087 0.54851
 C2894 C 0.81561 0.78815 0.55504
 C2895 C 0.81696 0.77480 0.57666
 C2896 C 0.79640 0.77420 0.59200
 C2897 C 0.74927 0.82917 0.53547
 C2898 C 0.74903 0.84256 0.51773
 C2899 C 0.75547 0.77599 0.62563
 C2900 C 0.75643 0.76895 0.64629
 H2901 H 0.70921 0.78838 0.62666
 H2902 H 0.67060 0.80951 0.61431
 H2903 H 0.66798 0.83258 0.57562
 H2904 H 0.70404 0.83483 0.54913
 H2905 H 0.79343 0.81089 0.53147
 H2906 H 0.83166 0.78863 0.54324
 H2907 H 0.83404 0.76484 0.58156
 H2908 H 0.79829 0.76353 0.60860
 C2909 C 0.23416 0.70778 0.61055
 C2910 C 0.21407 0.69432 0.59994
 C2911 C 0.21765 0.68228 0.57772
 C2912 C 0.24135 0.68369 0.56627
 C2913 C 0.26111 0.69798 0.57641
 C2914 C 0.25749 0.71012 0.59856
 C2915 C 0.27763 0.72418 0.60839
 C2916 C 0.30064 0.72617 0.59670
 C2917 C 0.30417 0.71425 0.57509
 C2918 C 0.28471 0.70029 0.56497
 C2919 C 0.19731 0.66880 0.56755
 C2920 C 0.17407 0.66737 0.57892
 C2921 C 0.17062 0.67910 0.60066
 C2922 C 0.19037 0.69235 0.61118
 C2923 C 0.24544 0.67014 0.54428
 C2924 C 0.24807 0.65865 0.52604
 C2925 C 0.23185 0.71719 0.63469
 C2926 C 0.23182 0.72377 0.65522
 H2927 H 0.27577 0.73388 0.62512
 H2928 H 0.31581 0.73703 0.60447
 H2929 H 0.32209 0.71585 0.56609
 H2930 H 0.28834 0.69138 0.54811
 H2931 H 0.19912 0.65929 0.55073
 H2932 H 0.15869 0.65707 0.57084
 H2933 H 0.15254 0.67791 0.60943
 H2934 H 0.18683 0.70117 0.62811
 C2935 C 0.73425 0.20964 0.10166
 C2936 C 0.71905 0.18909 0.09452
 C2937 C 0.72469 0.17612 0.07322
 C2938 C 0.74528 0.18402 0.05887
 C2939 C 0.75977 0.20528 0.06543
 C2940 C 0.75426 0.21811 0.08688
 C2941 C 0.76923 0.23912 0.09319
 C2942 C 0.78901 0.24728 0.07872
 C2943 C 0.79436 0.23476 0.05776
 C2944 C 0.77998 0.21397 0.05111
 C2945 C 0.70960 0.15518 0.06688
 C2946 C 0.68926 0.14758 0.08090
 C2947 C 0.68360 0.16043 0.10158
 C2948 C 0.69833 0.18090 0.10846
 C2949 C 0.75120 0.17027 0.03736
 C2950 C 0.75459 0.15815 0.01959
 C2951 C 0.73134 0.21993 0.12542
 C2952 C 0.73071 0.22690 0.14584
 H2953 H 0.76569 0.24954 0.10926
 H2954 H 0.80024 0.26343 0.08378
 H2955 H 0.80975 0.24118 0.04659
 H2956 H 0.78485 0.20481 0.03466
 H2957 H 0.71336 0.14442 0.05109
 H2958 H 0.67785 0.13160 0.07568
 H2959 H 0.66777 0.15447 0.11240
 H2960 H 0.69320 0.19034 0.12469
 C2961 C 0.75691 0.21221 0.89146
 C2962 C 0.73373 0.20337 0.90088
 C2963 C 0.73314 0.19072 0.92353
 C2964 C 0.75569 0.18706 0.93672
 C2965 C 0.77866 0.19701 0.92786
 C2966 C 0.77929 0.20953 0.90512
 C2967 C 0.80254 0.21889 0.89647
 C2968 C 0.82454 0.21614 0.90996
 C2969 C 0.82390 0.20408 0.93224
 C2970 C 0.80129 0.19454 0.94116
 C2971 C 0.70981 0.18174 0.93239
 C2972 C 0.68767 0.18520 0.91928
 C2973 C 0.68822 0.19758 0.89716
 C2974 C 0.71093 0.20658 0.88797
 C2975 C 0.75543 0.17200 0.95875
 C2976 C 0.75536 0.15896 0.97671
 C2977 C 0.75782 0.22222 0.86705
 C2978 C 0.75758 0.22898 0.84630
 H2979 H 0.80392 0.22853 0.87929
 H2980 H 0.84217 0.22347 0.90311
 H2981 H 0.84102 0.20210 0.94269
 H2982 H 0.80169 0.18540 0.95862
 H2983 H 0.70840 0.17205 0.94954
 H2984 H 0.66998 0.17825 0.92634
 H2985 H 0.67096 0.20024 0.88705
 H2986 H 0.71037 0.21616 0.87071
 C2987 C 0.25129 0.72197 0.40222
 C2988 C 0.27296 0.71991 0.41695
 C2989 C 0.27184 0.70591 0.43888
 C2990 C 0.24911 0.69387 0.44581
 C2991 C 0.22709 0.69714 0.43175
 C2992 C 0.22817 0.71128 0.40991
 C2993 C 0.20597 0.71398 0.39599
 C2994 C 0.18337 0.70306 0.40342
 C2995 C 0.18234 0.68922 0.42476
 C2996 C 0.20390 0.68621 0.43883
 C2997 C 0.29377 0.70403 0.45327
 C2998 C 0.31618 0.71559 0.44617
 C2999 C 0.31732 0.72909 0.42464
 C3000 C 0.29601 0.73126 0.41010
 C3001 C 0.24870 0.67697 0.46659
 C3002 C 0.24866 0.66244 0.48348
 C3003 C 0.25320 0.73255 0.37813
 C3004 C 0.25409 0.73925 0.35742
 H3005 H 0.20580 0.72466 0.37930
 H3006 H 0.16657 0.70535 0.39257
 H3007 H 0.16474 0.68077 0.43047
 H3008 H 0.20214 0.67535 0.45532
 H3009 H 0.29375 0.69380 0.47020
 H3010 H 0.33275 0.71407 0.45745
 H3011 H 0.33478 0.73801 0.41921
 H3012 H 0.29773 0.74208 0.39357
 C3013 C 0.73218 0.79311 0.39119
 C3014 C 0.71167 0.79852 0.40624
 C3015 C 0.71599 0.81050 0.42846
 C3016 C 0.74078 0.81726 0.43543
 C3017 C 0.76136 0.81110 0.42077
 C3018 C 0.75708 0.79893 0.39866
 C3019 C 0.77805 0.79312 0.38431
 C3020 C 0.80244 0.79918 0.39153
 C3021 C 0.80657 0.81113 0.41310
 C3022 C 0.78634 0.81707 0.42762
 C3023 C 0.69516 0.81567 0.44319
 C3024 C 0.67077 0.80940 0.43611
 C3025 C 0.66656 0.79788 0.41433
 C3026 C 0.68672 0.79242 0.39950
 C3027 C 0.74498 0.83147 0.45711
 C3028 C 0.74787 0.84375 0.47490
 C3029 C 0.72797 0.78326 0.36734
 C3030 C 0.72672 0.77646 0.34687
 H3031 H 0.77587 0.78378 0.36740
 H3032 H 0.81824 0.79457 0.38033
 H3033 H 0.82555 0.81580 0.41863
 H3034 H 0.79051 0.82630 0.44427
 H3035 H 0.69751 0.82451 0.46033
 H3036 H 0.65505 0.81357 0.44757
 H3037 H 0.64757 0.79307 0.40893
 H3038 H 0.68258 0.78331 0.38278
 C3039 C 0.23109 0.28807 0.89511
 C3040 C 0.21509 0.30841 0.90066
 C3041 C 0.21895 0.32190 0.92212
 C3042 C 0.23840 0.31459 0.93825
 C3043 C 0.25355 0.29343 0.93328
 C3044 C 0.24992 0.28019 0.91164
 C3045 C 0.26555 0.25934 0.90692
 C3046 C 0.28417 0.25171 0.92315
 C3047 C 0.28768 0.26463 0.94431
 C3048 C 0.27261 0.28529 0.94940
 C3049 C 0.20327 0.34273 0.92679
 C3050 C 0.18396 0.34968 0.91105
 C3051 C 0.17995 0.33625 0.89027
 C3052 C 0.19536 0.31591 0.88499
 C3053 C 0.24261 0.32882 0.95992
 C3054 C 0.24515 0.34107 0.97778
 C3055 C 0.23020 0.27745 0.87133
 C3056 C 0.23092 0.27034 0.85097
 H3057 H 0.26342 0.24863 0.89076
 H3058 H 0.29591 0.23567 0.91929
 H3059 H 0.30216 0.25863 0.95684
 H3060 H 0.27606 0.29476 0.96607
 H3061 H 0.20581 0.35392 0.94258
 H3062 H 0.17206 0.36558 0.91500
 H3063 H 0.16489 0.34167 0.87813
 H3064 H 0.19154 0.30604 0.86860
 C3065 C 0.82503 0.38834 0.75693
 C3066 C 0.81259 0.41119 0.75074
 C3067 C 0.82654 0.43411 0.74851
 C3068 C 0.85290 0.43411 0.75238
 C3069 C 0.86525 0.41138 0.75913
 C3070 C 0.85129 0.38848 0.76149
 C3071 C 0.86411 0.36607 0.76830
 C3072 C 0.88996 0.36624 0.77265
 C3073 C 0.90359 0.38858 0.77032
 C3074 C 0.89150 0.41092 0.76357
 C3075 C 0.81363 0.45666 0.74234
 C3076 C 0.78771 0.45661 0.73848
 C3077 C 0.77410 0.43423 0.74059
 C3078 C 0.78629 0.41173 0.74663
 C3079 C 0.86725 0.45749 0.74979
 C3080 C 0.87941 0.47679 0.74821
 C3081 C 0.81110 0.36456 0.75735
 C3082 C 0.79981 0.34472 0.75666
 H3083 H 0.85431 0.34823 0.77042
 H3084 H 0.89947 0.34892 0.77781
 H3085 H 0.92367 0.38860 0.77372
 H3086 H 0.90295 0.42777 0.76186
 H3087 H 0.82340 0.47455 0.74049
 H3088 H 0.77813 0.47404 0.73381
 H3089 H 0.75396 0.43429 0.73757
 H3090 H 0.77488 0.39482 0.74815
 C3091 C 0.32772 0.89517 0.26537
 C3092 C 0.31562 0.91886 0.26701
 C3093 C 0.32972 0.94163 0.26404
 C3094 C 0.35589 0.94066 0.25948
 C3095 C 0.36810 0.91699 0.25837
 C3096 C 0.35399 0.89423 0.26126
 C3097 C 0.36666 0.87086 0.25977
 C3098 C 0.39245 0.86997 0.25557
 C3099 C 0.40623 0.89219 0.25292
 C3100 C 0.39430 0.91547 0.25428
 C3101 C 0.31713 0.96501 0.26564
 C3102 C 0.29139 0.96594 0.27010
 C3103 C 0.27764 0.94372 0.27301
 C3104 C 0.28951 0.92040 0.27148
 C3105 C 0.37028 0.96395 0.25607
 C3106 C 0.38230 0.98326 0.25359
 C3107 C 0.31309 0.87179 0.26661
 C3108 C 0.30158 0.85203 0.26643
 H3109 H 0.35682 0.85305 0.26186
 H3110 H 0.40180 0.85194 0.25435
 H3111 H 0.42628 0.89138 0.24974
 H3112 H 0.40583 0.93223 0.25207
 H3113 H 0.32701 0.98280 0.26350
 H3114 H 0.28207 0.98400 0.27130
 H3115 H 0.25765 0.94455 0.27648
 H3116 H 0.27805 0.90364 0.27392
 C3117 C 0.16779 0.88313 0.74303
 C3118 C 0.15191 0.88798 0.76268
 C3119 C 0.13962 0.91172 0.76436
 C3120 C 0.14313 0.93056 0.74636
 C3121 C 0.15890 0.92570 0.72666
 C3122 C 0.17125 0.90197 0.72501
 C3123 C 0.18691 0.89766 0.70517
 C3124 C 0.19030 0.91621 0.68746
 C3125 C 0.17826 0.93935 0.68907
 C3126 C 0.16272 0.94414 0.70840
 C3127 C 0.12401 0.91606 0.78425
 C3128 C 0.12054 0.89752 0.80194
 C3129 C 0.13245 0.87433 0.80027
 C3130 C 0.14798 0.86952 0.78093
 C3131 C 0.13000 0.95462 0.74786
 C3132 C 0.11846 0.97421 0.74905
 C3133 C 0.18116 0.85914 0.74197
 C3134 C 0.19242 0.83930 0.74232
 H3135 H 0.19665 0.87994 0.70313
 H3136 H 0.20235 0.91259 0.67240
 H3137 H 0.18098 0.95369 0.67526
 H3138 H 0.15378 0.96245 0.70889
 H3139 H 0.11439 0.93382 0.78639
 H3140 H 0.10857 0.90120 0.81704
 H3141 H 0.12967 0.85998 0.81405
 H3142 H 0.15682 0.85117 0.78045
 C3143 C 0.66613 0.38686 0.23462
 C3144 C 0.63968 0.38749 0.23765
 C3145 C 0.62727 0.41094 0.24100
 C3146 C 0.64132 0.43373 0.24147
 C3147 C 0.66769 0.43317 0.23800
 C3148 C 0.68010 0.40973 0.23455
 C3149 C 0.70646 0.40978 0.23120
 C3150 C 0.72018 0.43225 0.23120
 C3151 C 0.70806 0.45510 0.23455
 C3152 C 0.68212 0.45567 0.23794
 C3153 C 0.60083 0.41099 0.24391
 C3154 C 0.58706 0.38857 0.24372
 C3155 C 0.59919 0.36568 0.24068
 C3156 C 0.62518 0.36504 0.23759
 C3157 C 0.62853 0.45767 0.24516
 C3158 C 0.61722 0.47724 0.24763
 C3159 C 0.67913 0.36267 0.23307
 C3160 C 0.69019 0.34272 0.23312
 H3161 H 0.71673 0.39249 0.22846
 H3162 H 0.74034 0.43193 0.22857
 H3163 H 0.71881 0.47250 0.23453
 H3164 H 0.67354 0.47390 0.24047
 H3165 H 0.59052 0.42830 0.24640
 H3166 H 0.56686 0.38895 0.24603
 H3167 H 0.58841 0.34832 0.24075
 H3168 H 0.63374 0.34678 0.23512
 C3169 C 0.67055 0.61230 0.26056
 C3170 C 0.68370 0.59034 0.25384
 C3171 C 0.67050 0.56716 0.25085
 C3172 C 0.64418 0.56601 0.25447
 C3173 C 0.63108 0.58789 0.26152
 C3174 C 0.64433 0.61099 0.26481
 C3175 C 0.63084 0.63243 0.27220
 C3176 C 0.60500 0.63116 0.27614
 C3177 C 0.59202 0.60870 0.27266
 C3178 C 0.60478 0.58730 0.26534
 C3179 C 0.68409 0.54553 0.24415
 C3180 C 0.70998 0.54672 0.24049
 C3181 C 0.72286 0.56935 0.24335
 C3182 C 0.70997 0.59097 0.24993
 C3183 C 0.63057 0.54232 0.25153
 C3184 C 0.61846 0.52304 0.24984
 C3185 C 0.68364 0.63651 0.26157
 C3186 C 0.69438 0.65669 0.26115
 H3187 H 0.64012 0.65033 0.27513
 H3188 H 0.59499 0.64772 0.28185
 H3189 H 0.57193 0.60783 0.27565
 H3190 H 0.59380 0.57034 0.26270
 H3191 H 0.67488 0.52750 0.24168
 H3192 H 0.72008 0.52998 0.23539
 H3193 H 0.74297 0.57017 0.24049
 H3194 H 0.72084 0.60811 0.25202
 C3195 C 0.17451 0.10762 0.76230
 C3196 C 0.18095 0.09047 0.74420
 C3197 C 0.16718 0.06753 0.74172
 C3198 C 0.14704 0.06173 0.75736
 C3199 C 0.14091 0.07865 0.77575
 C3200 C 0.15458 0.10166 0.77814
 C3201 C 0.14781 0.11835 0.79643
 C3202 C 0.12822 0.11245 0.81203
 C3203 C 0.11502 0.08991 0.80983
 C3204 C 0.12119 0.07315 0.79193
 C3205 C 0.17392 0.05087 0.72339
 C3206 C 0.19367 0.05663 0.70794
 C3207 C 0.20711 0.07900 0.71035
 C3208 C 0.20091 0.09578 0.72823
 C3209 C 0.13231 0.03869 0.75428
 C3210 C 0.11962 0.01984 0.75202
 C3211 C 0.18777 0.13174 0.76387
 C3212 C 0.19874 0.15181 0.76388
 H3213 H 0.15761 0.13606 0.79891
 H3214 H 0.12330 0.12543 0.82593
 H3215 H 0.09994 0.08537 0.82210
 H3216 H 0.11042 0.05583 0.79098
 H3217 H 0.16403 0.03322 0.72081
 H3218 H 0.19857 0.04366 0.69403
 H3219 H 0.22244 0.08338 0.69831
 H3220 H 0.21197 0.11291 0.72938
 C3221 C 0.31782 0.11132 0.24102
 C3222 C 0.34026 0.10995 0.22760
 C3223 C 0.35625 0.08857 0.23023
 C3224 C 0.34940 0.06827 0.24578
 C3225 C 0.32639 0.06912 0.25836
 C3226 C 0.31064 0.09074 0.25608
 C3227 C 0.28793 0.09123 0.26910
 C3228 C 0.28084 0.07090 0.28378
 C3229 C 0.29614 0.04974 0.28589
 C3230 C 0.31870 0.04878 0.27340
 C3231 C 0.37894 0.08808 0.21716
 C3232 C 0.38527 0.10770 0.20135
 C3233 C 0.36937 0.12830 0.19837
 C3234 C 0.34724 0.12966 0.21149
 C3235 C 0.36588 0.04647 0.24854
 C3236 C 0.37978 0.02850 0.25033
 C3237 C 0.30317 0.13454 0.24065
 C3238 C 0.29193 0.15432 0.24132
 H3239 H 0.27534 0.10722 0.26793
 H3240 H 0.26334 0.07156 0.29354
 H3241 H 0.29051 0.03398 0.29727
 H3242 H 0.32999 0.03193 0.27565
 H3243 H 0.39198 0.07255 0.21899
 H3244 H 0.40258 0.10688 0.19131
 H3245 H 0.37423 0.14335 0.18587
 H3246 H 0.33557 0.14615 0.20868
 C3247 C 0.82022 0.60783 0.73621
 C3248 C 0.84456 0.60680 0.72612
 C3249 C 0.85951 0.58475 0.72934
 C3250 C 0.84980 0.56348 0.74205
 C3251 C 0.82509 0.56415 0.75133
 C3252 C 0.81033 0.58641 0.74852
 C3253 C 0.78583 0.58667 0.75823
 C3254 C 0.77610 0.56554 0.77024
 C3255 C 0.79046 0.54377 0.77287
 C3256 C 0.81470 0.54299 0.76358
 C3257 C 0.88407 0.58457 0.71971
 C3258 C 0.89329 0.60520 0.70661
 C3259 C 0.87846 0.62649 0.70300
 C3260 C 0.85447 0.62750 0.71280
 C3261 C 0.86509 0.54083 0.74508
 C3262 C 0.87816 0.52224 0.74685
 C3263 C 0.80621 0.63146 0.73542
 C3264 C 0.79535 0.65146 0.73591
 H3265 H 0.77389 0.60312 0.75652
 H3266 H 0.75729 0.56605 0.77750
 H3267 H 0.78279 0.52740 0.78218
 H3268 H 0.82516 0.52564 0.76609
 H3269 H 0.89638 0.56851 0.72218
 H3270 H 0.91201 0.60461 0.69914
 H3271 H 0.88558 0.64233 0.69256
 H3272 H 0.84370 0.64455 0.70961
 C3273 C 0.89407 0.74896 0.20256
 C3274 C 0.91201 0.76851 0.20504
 C3275 C 0.93641 0.76554 0.19548
 C3276 C 0.94252 0.74302 0.18374
 C3277 C 0.92508 0.72289 0.18254
 C3278 C 0.90066 0.72588 0.19196
 C3279 C 0.88319 0.70573 0.19013
 C3280 C 0.88978 0.68329 0.17924
 C3281 C 0.91377 0.68038 0.16999
 C3282 C 0.93131 0.69990 0.17155
 C3283 C 0.95402 0.78551 0.19749
 C3284 C 0.94769 0.80773 0.20890
 C3285 C 0.92382 0.81053 0.21850
 C3286 C 0.90605 0.79125 0.21655
 C3287 C 0.96508 0.74194 0.16986
 C3288 C 0.98254 0.74170 0.15650
 C3289 C 0.86862 0.75258 0.21029
 C3290 C 0.84724 0.75427 0.21662
 H3291 H 0.86431 0.70706 0.19708
 H3292 H 0.87620 0.66808 0.17798
 H3293 H 0.91885 0.66291 0.16157
 H3294 H 0.94978 0.69673 0.16419
 H3295 H 0.97287 0.78406 0.19044
 H3296 H 0.96139 0.82280 0.21036
 H3297 H 0.91906 0.82773 0.22753
 H3298 H 0.88769 0.79430 0.22420
 C3299 C 0.39765 0.26727 0.70936
 C3300 C 0.40492 0.28822 0.69498
 C3301 C 0.42799 0.28748 0.68253
 C3302 C 0.44325 0.26580 0.68471
 C3303 C 0.43771 0.24666 0.70179
 C3304 C 0.41468 0.24739 0.71424
 C3305 C 0.40880 0.22760 0.73063
 C3306 C 0.42545 0.20766 0.73464
 C3307 C 0.44810 0.20694 0.72235
 C3308 C 0.45423 0.22616 0.70601
 C3309 C 0.43480 0.30813 0.66751
 C3310 C 0.41928 0.32923 0.66526
 C3311 C 0.39658 0.32995 0.67747
 C3312 C 0.38929 0.30961 0.69209
 C3313 C 0.46118 0.26064 0.66640
 C3314 C 0.47455 0.25494 0.65026
 C3315 C 0.37178 0.26421 0.71614
 C3316 C 0.35022 0.26046 0.72117
 H3317 H 0.39143 0.22749 0.74062
 H3318 H 0.42076 0.19271 0.74731
 H3319 H 0.46098 0.19143 0.72549
 H3320 H 0.47208 0.22498 0.69689
 H3321 H 0.45232 0.30826 0.65773
 H3322 H 0.42489 0.34508 0.65398
 H3323 H 0.38458 0.34635 0.67565
 H3324 H 0.37155 0.31092 0.70137
 C3325 C 0.39586 0.75623 0.80754
 C3326 C 0.40165 0.77720 0.82188
 C3327 C 0.42540 0.77858 0.83339
 C3328 C 0.44296 0.75895 0.83047
 C3329 C 0.43755 0.73848 0.81542
 C3330 C 0.41386 0.73716 0.80379
 C3331 C 0.40861 0.71648 0.78889
 C3332 C 0.42636 0.69758 0.78568
 C3333 C 0.44953 0.69873 0.79730
 C3334 C 0.45518 0.71892 0.81201
 C3335 C 0.43084 0.79949 0.84797
 C3336 C 0.41319 0.81851 0.85105
 C3337 C 0.38985 0.81714 0.83979
 C3338 C 0.38404 0.79677 0.82534
 C3339 C 0.46551 0.75857 0.84473
 C3340 C 0.48352 0.75757 0.85764
 C3341 C 0.37099 0.75378 0.79757
 C3342 C 0.35008 0.75202 0.78971
 H3343 H 0.39082 0.71475 0.77954
 H3344 H 0.42212 0.68199 0.77410
 H3345 H 0.46322 0.68395 0.79484
 H3346 H 0.47351 0.71910 0.82056
 H3347 H 0.44877 0.80140 0.85706
 H3348 H 0.41766 0.83439 0.86221
 H3349 H 0.37618 0.83194 0.84225
 H3350 H 0.36565 0.79657 0.81692
 C3351 C 0.89423 0.25838 0.29688
 C3352 C 0.90089 0.28031 0.30952
 C3353 C 0.92436 0.28137 0.32158
 C3354 C 0.94078 0.26048 0.32085
 C3355 C 0.93473 0.23916 0.30714
 C3356 C 0.91129 0.23813 0.29500
 C3357 C 0.90531 0.21652 0.28157
 C3358 C 0.92212 0.19648 0.28024
 C3359 C 0.94504 0.19740 0.29232
 C3360 C 0.95138 0.21847 0.30566
 C3361 C 0.93059 0.30320 0.33461
 C3362 C 0.91400 0.32345 0.33562
 C3363 C 0.89096 0.32242 0.32377
 C3364 C 0.88438 0.30114 0.31084
 C3365 C 0.96235 0.25980 0.33643
 C3366 C 0.97922 0.25900 0.35068
 C3367 C 0.86923 0.25612 0.28716
 C3368 C 0.84815 0.25465 0.27965
 H3369 H 0.88768 0.21496 0.27192
 H3370 H 0.91734 0.18017 0.26976
 H3371 H 0.95800 0.18176 0.29131
 H3372 H 0.96948 0.21844 0.31465
 H3373 H 0.94834 0.30490 0.34405
 H3374 H 0.91907 0.34001 0.34563
 H3375 H 0.87812 0.33818 0.32460
 H3376 H 0.86628 0.30125 0.30187
 C3377 C 0.11731 0.27941 0.32788
 C3378 C 0.09773 0.29258 0.31586
 C3379 C 0.07308 0.29175 0.32529
 C3380 C 0.06845 0.27787 0.34662
 C3381 C 0.08849 0.26681 0.35982
 C3382 C 0.11312 0.26758 0.35036
 C3383 C 0.13293 0.25592 0.36346
 C3384 C 0.12843 0.24390 0.38542
 C3385 C 0.10423 0.24309 0.39469
 C3386 C 0.08440 0.25437 0.38210
 C3387 C 0.05348 0.30442 0.31280
 C3388 C 0.05826 0.31775 0.29157
 C3389 C 0.08248 0.31863 0.28233
 C3390 C 0.10207 0.30615 0.29423
 C3391 C 0.04303 0.27256 0.35378
 C3392 C 0.02239 0.26649 0.36022
 C3393 C 0.14082 0.27560 0.31592
 C3394 C 0.15992 0.27146 0.30549
 H3395 H 0.15206 0.25616 0.35696
 H3396 H 0.14380 0.23522 0.39529
 H3397 H 0.10080 0.23372 0.41174
 H3398 H 0.06592 0.25339 0.39009
 H3399 H 0.03439 0.30430 0.31942
 H3400 H 0.04310 0.32745 0.28226
 H3401 H 0.08612 0.32902 0.26585
 H3402 H 0.12064 0.30741 0.28645
 C3403 C 0.61957 0.77259 0.82309
 C3404 C 0.61686 0.76072 0.84578
 C3405 C 0.59314 0.76082 0.85711
 C3406 C 0.57249 0.77271 0.84553
 C3407 C 0.57570 0.78624 0.82377
 C3408 C 0.59945 0.78622 0.81246
 C3409 C 0.60235 0.79951 0.79045
 C3410 C 0.58223 0.81252 0.77998
 C3411 C 0.55889 0.81249 0.79108
 C3412 C 0.55553 0.79947 0.81272
 C3413 C 0.59052 0.74844 0.87965
 C3414 C 0.61089 0.73635 0.89064
 C3415 C 0.63420 0.73626 0.87951
 C3416 C 0.63725 0.74825 0.85730
 C3417 C 0.54770 0.76867 0.85493
 C3418 C 0.52761 0.76348 0.86327
 C3419 C 0.64240 0.76913 0.80995
 C3420 C 0.66128 0.76555 0.79902
 H3421 H 0.62018 0.80010 0.78122
 H3422 H 0.58476 0.82266 0.76318
 H3423 H 0.54332 0.82262 0.78288
 H3424 H 0.53709 0.80003 0.82079
 H3425 H 0.57280 0.74812 0.88907
 H3426 H 0.60858 0.72702 0.90788
 H3427 H 0.64999 0.72690 0.88812
 H3428 H 0.65575 0.74775 0.84936
 C3429 C 0.61117 0.24601 0.67282
 C3430 C 0.59770 0.26897 0.67134
 C3431 C 0.57350 0.26943 0.66064
 C3432 C 0.56311 0.24694 0.65157
 C3433 C 0.57710 0.22429 0.65192
 C3434 C 0.60129 0.22380 0.66270
 C3435 C 0.61498 0.20093 0.66323
 C3436 C 0.60506 0.17920 0.65308
 C3437 C 0.58139 0.17972 0.64238
 C3438 C 0.56742 0.20194 0.64183
 C3439 C 0.56011 0.29249 0.65948
 C3440 C 0.57047 0.31450 0.66864
 C3441 C 0.59424 0.31406 0.67915
 C3442 C 0.60778 0.29160 0.68056
 C3443 C 0.53748 0.24685 0.64327
 C3444 C 0.51587 0.24702 0.63710
 C3445 C 0.63486 0.24523 0.68535
 C3446 C 0.65444 0.24521 0.69603
 H3447 H 0.63350 0.19964 0.67130
 H3448 H 0.61584 0.16190 0.65347
 H3449 H 0.57385 0.16283 0.63439
 H3450 H 0.54912 0.20148 0.63325
 H3451 H 0.54160 0.29380 0.65137
 H3452 H 0.56002 0.33198 0.66756
 H3453 H 0.60223 0.33119 0.68625
 H3454 H 0.62621 0.29222 0.68886
 C3455 C 0.12287 0.72887 0.17803
 C3456 C 0.11642 0.74325 0.15739
 C3457 C 0.09147 0.74236 0.14847
 C3458 C 0.07337 0.72715 0.16040
 C3459 C 0.08049 0.71080 0.17946
 C3460 C 0.10549 0.71162 0.18834
 C3461 C 0.11236 0.69543 0.20770
 C3462 C 0.09492 0.67877 0.21787
 C3463 C 0.07036 0.67798 0.20914
 C3464 C 0.06309 0.69388 0.19019
 C3465 C 0.08510 0.75723 0.12801
 C3466 C 0.10301 0.77248 0.11668
 C3467 C 0.12752 0.77332 0.12545
 C3468 C 0.13425 0.75896 0.14563
 C3469 C 0.04728 0.73028 0.15420
 C3470 C 0.02617 0.73495 0.14800
 C3471 C 0.14632 0.73373 0.19004
 C3472 C 0.16539 0.73838 0.20060
 H3473 H 0.13130 0.69529 0.21493
 H3474 H 0.10051 0.66635 0.23255
 H3475 H 0.05690 0.66497 0.21706
 H3476 H 0.04384 0.69261 0.18386
 H3477 H 0.06632 0.75704 0.12044
 H3478 H 0.09784 0.78364 0.10100
 H3479 H 0.14140 0.78511 0.11656
 H3480 H 0.15358 0.76010 0.15176
   
