data_POSCAR
  _audit_creation_date              2014-09-24
  _audit_creation_method            'ToBaCCo'
  _symmetry_space_group_name_H-M    'P1'
  _symmetry_Int_Tables_number       1
  _symmetry_cell_setting            triclinic
  loop_
  _symmetry_equiv_pos_as_xyz
 x,y,z
_cell_length_a 49.1802
_cell_length_b 49.3157
_cell_length_c 48.4351
_cell_angle_alpha 89.744500
_cell_angle_beta 89.984700
_cell_angle_gamma 90.399800
loop_
  _atom_site_label
  _atom_site_type_symbol
  _atom_site_fract_x
  _atom_site_fract_y
  _atom_site_fract_z
C1 C 0.26723 0.94772 -0.03231
 C2 C 0.26040 0.93453 -0.00738
 C3 C 0.25749 0.94853 0.01736
 C4 C 0.25998 0.97708 0.01744
 C5 C 0.26752 0.99100 -0.00712
 C6 C 0.27127 0.97635 -0.03206
 C7 C 0.28049 0.99065 -0.05555
 C8 C 0.28435 1.01857 -0.05506
 C9 C 0.27894 1.03371 -0.03122
 C10 C 0.27168 1.01963 -0.00661
 C11 C 0.25421 0.99215 0.04117
 C12 C 0.25864 1.01993 0.04183
 C13 C 0.26886 1.03401 0.01863
 C14 C 0.27555 1.06210 0.01968
 C15 C 0.28333 1.07524 -0.00492
 C16 C 0.28303 1.06220 -0.03050
 H17 H 0.28586 0.98051 -0.07447
 H18 H 0.29287 1.02793 -0.07336
 H19 H 0.24594 0.98269 0.05955
 H20 H 0.25338 1.03004 0.06078
 H21 H 0.25638 0.91293 -0.00693
 H22 H 0.28953 1.09631 -0.00454
 C23 C 0.72502 0.43750 0.45199
 C24 C 0.72160 0.42153 0.47577
 C25 C 0.72339 0.43249 0.50224
 C26 C 0.72690 0.46085 0.50548
 C27 C 0.72992 0.47758 0.48176
 C28 C 0.72931 0.46584 0.45496
 C29 C 0.73356 0.48272 0.43192
 C30 C 0.73709 0.51054 0.43491
 C31 C 0.73647 0.52285 0.46109
 C32 C 0.73353 0.50615 0.48483
 C33 C 0.72675 0.47302 0.53166
 C34 C 0.73091 0.50078 0.53469
 C35 C 0.73421 0.51788 0.51160
 C36 C 0.73837 0.54628 0.51453
 C37 C 0.74041 0.56250 0.49068
 C38 C 0.73918 0.55134 0.46406
 H39 H 0.73453 0.47466 0.41124
 H40 H 0.74079 0.52215 0.41629
 H41 H 0.72317 0.46129 0.55022
 H42 H 0.73137 0.50850 0.55552
 H43 H 0.71762 0.39999 0.47380
 H44 H 0.74165 0.58430 0.49293
 C45 C 0.72253 1.01850 1.03005
 C46 C 0.72421 0.99539 1.04678
 C47 C 0.73514 0.97082 1.03721
 C48 C 0.74566 0.97011 1.00980
 C49 C 0.74210 0.99277 0.99191
 C50 C 0.73029 1.01696 1.00199
 C51 C 0.72561 1.03848 0.98351
 C52 C 0.73307 1.03664 0.95584
 C53 C 0.74585 1.01333 0.94561
 C54 C 0.75015 0.99108 0.96374
 C55 C 0.76029 0.94768 0.99981
 C56 C 0.76836 0.94619 0.97241
 C57 C 0.76223 0.96700 0.95369
 C58 C 0.76860 0.96476 0.92531
 C59 C 0.76459 0.98694 0.90786
 C60 C 0.75375 1.01120 0.91756
 H61 H 0.71546 1.05674 0.99007
 H62 H 0.72830 1.05357 0.94249
 H63 H 0.76643 0.93112 1.01299
 H64 H 0.77973 0.92856 0.96617
 H65 H 0.71605 0.99701 1.06738
 H66 H 0.76990 0.98526 0.88618
 C67 C 0.23682 0.48106 0.54731
 C68 C 0.23054 0.50471 0.56191
 C69 C 0.22581 0.52947 0.54840
 C70 C 0.22621 0.53041 0.51919
 C71 C 0.23365 0.50705 0.50409
 C72 C 0.23943 0.48246 0.51821
 C73 C 0.24853 0.46015 0.50289
 C74 C 0.25085 0.46158 0.47431
 C75 C 0.24345 0.48510 0.45971
 C76 C 0.23548 0.50835 0.47479
 C77 C 0.21882 0.55398 0.50464
 C78 C 0.22010 0.55509 0.47598
 C79 C 0.22945 0.53291 0.46066
 C80 C 0.23222 0.53425 0.43154
 C81 C 0.23932 0.51091 0.41704
 C82 C 0.24455 0.48637 0.43051
 H83 H 0.25466 0.44149 0.51283
 H84 H 0.25893 0.44405 0.46392
 H85 H 0.21136 0.57173 0.51518
 H86 H 0.21335 0.57350 0.46604
 H87 H 0.22953 0.50382 0.58418
 H88 H 0.24083 0.51186 0.39470
 C89 C 0.93654 0.21848 -0.02512
 C90 C 0.92284 0.21647 0.00017
 C91 C 0.93602 0.22109 0.02526
 C92 C 0.96424 0.22638 0.02550
 C93 C 0.97912 0.22623 0.00041
 C94 C 0.96535 0.22164 -0.02496
 C95 C 0.98105 0.21812 -0.04885
 C96 C 1.00897 0.22259 -0.04866
 C97 C 1.02275 0.23031 -0.02436
 C98 C 1.00782 0.23067 0.00075
 C99 C 0.97782 0.23247 0.05015
 C100 C 1.00562 0.23713 0.05049
 C101 C 1.02137 0.23539 0.02623
 C102 C 1.05000 0.23946 0.02666
 C103 C 1.06408 0.24038 0.00137
 C104 C 1.05114 0.23619 -0.02424
 H105 H 0.97209 0.21090 -0.06785
 H106 H 1.01953 0.21890 -0.06781
 H107 H 0.96709 0.23412 0.06955
 H108 H 1.01418 0.24281 0.07015
 H109 H 0.90105 0.21279 0.00038
 H110 H 1.08558 0.24428 0.00172
 C111 C 0.44641 0.74557 0.54719
 C112 C 0.43283 0.74579 0.52167
 C113 C 0.44648 0.75141 0.49688
 C114 C 0.47477 0.75659 0.49723
 C115 C 0.48913 0.75574 0.52259
 C116 C 0.47494 0.75053 0.54768
 C117 C 0.48966 0.75115 0.57259
 C118 C 0.51764 0.75571 0.57284
 C119 C 0.53222 0.75998 0.54821
 C120 C 0.51773 0.76050 0.52285
 C121 C 0.48896 0.76346 0.47290
 C122 C 0.51681 0.76822 0.47320
 C123 C 0.53174 0.76610 0.49776
 C124 C 0.56021 0.77027 0.49814
 C125 C 0.57411 0.76942 0.52316
 C126 C 0.56074 0.76447 0.54825
 H127 H 0.47979 0.74855 0.59236
 H128 H 0.52755 0.75631 0.59275
 H129 H 0.47870 0.76569 0.45330
 H130 H 0.52642 0.77392 0.45393
 H131 H 0.41141 0.74066 0.52080
 H132 H 0.59604 0.77161 0.52272
 C133 C 0.02832 0.73004 -0.03123
 C134 C 0.00549 0.73476 -0.04765
 C135 C -0.01886 0.74497 -0.03719
 C136 C -0.02059 0.75114 -0.00856
 C137 C 0.00218 0.74597 0.00884
 C138 C 0.02655 0.73495 -0.00240
 C139 C 0.04752 0.72760 0.01580
 C140 C 0.04640 0.73426 0.04360
 C141 C 0.02388 0.74778 0.05460
 C142 C 0.00080 0.75221 0.03755
 C143 C -0.04321 0.76436 0.00280
 C144 C -0.04453 0.77034 0.03090
 C145 C -0.02340 0.76324 0.04905
 C146 C -0.02450 0.76893 0.07794
 C147 C -0.00051 0.76661 0.09347
 C148 C 0.02346 0.75631 0.08241
 H149 H 0.06489 0.71618 0.00895
 H150 H 0.06330 0.72827 0.05648
 H151 H -0.05978 0.77122 -0.01002
 H152 H -0.06182 0.78183 0.03786
 H153 H 0.00681 0.73058 -0.06964
 H154 H -0.00063 0.77200 0.11520
 C155 C 0.51646 0.21720 0.44838
 C156 C 0.49101 0.21987 0.43557
 C157 C 0.46674 0.21887 0.45066
 C158 C 0.46784 0.21572 0.47968
 C159 C 0.49342 0.21381 0.49314
 C160 C 0.51776 0.21394 0.47743
 C161 C 0.54266 0.21001 0.49115
 C162 C 0.54379 0.20739 0.51975
 C163 C 0.52016 0.20911 0.53593
 C164 C 0.49464 0.21167 0.52242
 C165 C 0.44402 0.21476 0.49565
 C166 C 0.44522 0.21227 0.52416
 C167 C 0.47028 0.21168 0.53809
 C168 C 0.47163 0.21018 0.56723
 C169 C 0.49680 0.20720 0.58017
 C170 C 0.52108 0.20717 0.56516
 H171 H 0.56160 0.20839 0.47998
 H172 H 0.56343 0.20360 0.52891
 H173 H 0.42406 0.21598 0.48643
 H174 H 0.42610 0.21055 0.53502
 H175 H 0.48999 0.22279 0.41343
 H176 H 0.49757 0.20577 0.60253
 C177 C 1.04923 0.04322 0.23361
 C178 C 1.06293 0.01854 0.23666
 C179 C 1.04923 -0.00665 0.23709
 C180 C 1.02032 -0.00685 0.23468
 C181 C 1.00602 0.01803 0.23192
 C182 C 1.02052 0.04303 0.23115
 C183 C 1.00590 0.06719 0.22734
 C184 C 0.97768 0.06703 0.22544
 C185 C 0.96274 0.04268 0.22702
 C186 C 0.97707 0.01789 0.22962
 C187 C 1.00519 -0.03125 0.23401
 C188 C 0.97708 -0.03131 0.23217
 C189 C 0.96253 -0.00706 0.22985
 C190 C 0.93380 -0.00719 0.22809
 C191 C 0.92003 0.01747 0.22612
 C192 C 0.93393 0.04240 0.22535
 H193 H 1.01604 0.08661 0.22540
 H194 H 0.96784 0.08632 0.22225
 H195 H 1.01447 -0.05097 0.23445
 H196 H 0.96703 -0.05086 0.23266
 H197 H 1.08451 0.01939 0.24073
 H198 H 0.89804 0.01718 0.22517
 C199 C 0.45663 0.47457 0.75235
 C200 C 0.44591 0.50047 0.75590
 C201 C 0.46220 0.52387 0.75440
 C202 C 0.49048 0.52112 0.74998
 C203 C 0.50158 0.49505 0.74507
 C204 C 0.48459 0.47164 0.74604
 C205 C 0.49623 0.44609 0.74141
 C206 C 0.52358 0.44364 0.73457
 C207 C 0.54087 0.46640 0.73407
 C208 C 0.52987 0.49235 0.73980
 C209 C 0.50812 0.54361 0.75139
 C210 C 0.53595 0.54077 0.74744
 C211 C 0.54720 0.51553 0.74075
 C212 C 0.57540 0.51246 0.73591
 C213 C 0.58559 0.48703 0.72916
 C214 C 0.56890 0.46410 0.72803
 H215 H 0.48443 0.42761 0.74288
 H216 H 0.53107 0.42357 0.73014
 H217 H 0.50072 0.56360 0.75643
 H218 H 0.54846 0.55869 0.74981
 H219 H 0.42421 0.50226 0.75925
 H220 H 0.60720 0.48493 0.72517
 C221 C 0.98663 1.05034 0.75316
 C222 C 1.01137 1.06478 0.75244
 C223 C 1.03677 1.05248 0.75644
 C224 C 1.03763 1.02377 0.75976
 C225 C 1.01309 1.00834 0.75939
 C226 C 0.98756 1.02166 0.75688
 C227 C 0.96367 1.00590 0.75932
 C228 C 0.96463 0.97794 0.76208
 C229 C 0.98949 0.96416 0.76280
 C230 C 1.01403 0.97944 0.76230
 C231 C 1.06219 1.01006 0.76477
 C232 C 1.06307 0.98205 0.76737
 C233 C 1.03942 0.96599 0.76528
 C234 C 1.04023 0.93711 0.76757
 C235 C 1.01545 0.92264 0.76683
 C236 C 0.99028 0.93556 0.76490
 H237 H 0.94368 1.01469 0.75986
 H238 H 0.94541 0.96739 0.76423
 H239 H 1.08128 1.02058 0.76754
 H240 H 1.08271 0.97352 0.77187
 H241 H 1.01114 1.08575 0.74612
 H242 H 1.01550 0.90075 0.76591
 C243 C 0.46525 0.57234 0.27655
 C244 C 0.48894 0.58693 0.28319
 C245 C 0.51460 0.57485 0.28287
 C246 C 0.51669 0.54668 0.27768
 C247 C 0.49301 0.53161 0.27066
 C248 C 0.46730 0.54455 0.26969
 C249 C 0.44445 0.52953 0.26108
 C250 C 0.44654 0.50223 0.25450
 C251 C 0.47145 0.48865 0.25670
 C252 C 0.49506 0.50355 0.26434
 C253 C 0.54161 0.53303 0.27985
 C254 C 0.54373 0.50571 0.27322
 C255 C 0.52078 0.49059 0.26517
 C256 C 0.52284 0.46300 0.25746
 C257 C 0.49916 0.44859 0.25064
 C258 C 0.47366 0.46074 0.25059
 H259 H 0.42471 0.53878 0.25875
 H260 H 0.42839 0.49205 0.24720
 H261 H 0.55984 0.54323 0.28688
 H262 H 0.56366 0.49669 0.27449
 H263 H 0.48750 0.60821 0.28847
 H264 H 0.50042 0.42713 0.24600
 O265 O 0.26686 0.19684 0.19359
 O266 O 0.29605 0.18612 0.23246
 O267 O 0.19153 0.21285 0.23612
 O268 O 0.17614 0.24214 0.26668
 O269 O 0.22054 0.26704 0.17054
 O270 O 0.25408 0.30080 0.16758
 O271 O 0.25257 0.28532 0.31879
 O272 O 0.22649 0.24518 0.32054
 O273 O 0.32631 0.26631 0.28084
 O274 O 0.33782 0.24028 0.24364
 O275 O 0.28370 0.33335 0.25498
 O276 O 0.24425 0.34071 0.22430
 O277 O 0.24859 0.32200 0.29051
 O278 O 0.21541 0.33135 0.25262
 O279 O 0.32063 0.30626 0.25032
 O280 O 0.33117 0.27689 0.21080
 O281 O 0.29460 0.25480 0.31324
 O282 O 0.26088 0.21746 0.31596
 O283 O 0.26286 0.23399 0.16590
 O284 O 0.28808 0.27649 0.16530
 O285 O 0.18734 0.25595 0.20143
 O286 O 0.17681 0.28058 0.24509
 O287 O 0.22836 0.18572 0.23072
 O288 O 0.26657 0.17895 0.26126
 Zr289 Zr 0.26206 0.21212 0.23386
 O290 O 0.28421 0.23469 0.26309
 Zr291 Zr 0.20835 0.25211 0.23947
 O292 O 0.22800 0.27570 0.26998
 Zr293 Zr 0.25658 0.26615 0.19327
 O294 O 0.27755 0.29110 0.22110
 Zr295 Zr 0.25741 0.25281 0.29112
 O296 O 0.23500 0.22805 0.26330
 Zr297 Zr 0.30449 0.26724 0.24392
 O298 O 0.28559 0.24235 0.21395
 Zr299 Zr 0.25042 0.30671 0.25033
 O300 O 0.22870 0.28469 0.22004
 O301 O 0.23436 0.23454 0.21103
 O302 O 0.27879 0.28474 0.27290
 C303 C 0.26669 0.20859 0.16984
 C304 C 0.20263 0.18957 0.23265
 C305 C 0.19568 0.26254 0.17707
 C306 C 0.24991 0.31089 0.31447
 C307 C 0.31909 0.26069 0.30564
 C308 C 0.30945 0.32941 0.25411
 H309 H 0.29742 0.22266 0.27233
 H310 H 0.28727 0.30549 0.21069
 H311 H 0.22447 0.22342 0.19729
 H312 H 0.21441 0.28293 0.28301
 H313 H 0.21389 0.23181 0.31215
 H314 H 0.18136 0.24890 0.28513
 H315 H 0.34912 0.28180 0.21873
 H316 H 0.30327 0.26392 0.16897
 H317 H 0.27723 0.20749 0.31004
 H318 H 0.25270 0.18115 0.27589
 H319 H 0.25947 0.34149 0.21095
 H320 H 0.24104 0.31318 0.17653
 H321 H 0.30925 0.19439 0.21947
 H322 H 0.33673 0.23004 0.22616
 H323 H 0.18023 0.29566 0.23195
 H324 H 0.20364 0.32412 0.26754
 O325 O 0.72328 0.83680 0.21882
 O326 O 0.69953 0.84456 0.25647
 O327 O 0.80232 0.81651 0.25343
 O328 O 0.81898 0.78391 0.28035
 O329 O 0.77149 0.77186 0.18283
 O330 O 0.74001 0.73816 0.17731
 O331 O 0.74582 0.73398 0.32957
 O332 O 0.76972 0.77327 0.33621
 O333 O 0.66922 0.75664 0.29688
 O334 O 0.65646 0.78618 0.26191
 O335 O 0.71160 0.69317 0.26067
 O336 O 0.75025 0.68963 0.22962
 O337 O 0.74830 0.70038 0.29766
 O338 O 0.78044 0.69697 0.25666
 O339 O 0.67457 0.72038 0.26329
 O340 O 0.66323 0.75325 0.22588
 O341 O 0.70248 0.76287 0.32904
 O342 O 0.73602 0.80149 0.33468
 O343 O 0.72941 0.80536 0.18517
 O344 O 0.70134 0.76253 0.18255
 O345 O 0.80540 0.77760 0.21433
 O346 O 0.81800 0.74846 0.25432
 O347 O 0.76493 0.84336 0.25492
 O348 O 0.72683 0.84339 0.28914
 Zr349 Zr 0.73169 0.81640 0.25565
 O350 O 0.71044 0.78998 0.28208
 Zr351 Zr 0.78593 0.77689 0.25334
 O352 O 0.76761 0.74935 0.28142
 Zr353 Zr 0.73633 0.76892 0.20739
 O354 O 0.71684 0.73980 0.23278
 Zr355 Zr 0.73876 0.76901 0.30625
 O356 O 0.76028 0.79729 0.28127
 Zr357 Zr 0.69020 0.75986 0.25943
 O358 O 0.70794 0.78892 0.23258
 Zr359 Zr 0.74475 0.72060 0.25917
 O360 O 0.76491 0.74698 0.23091
 O361 O 0.75874 0.79797 0.22872
 O362 O 0.71704 0.73922 0.28521
 C363 C 0.72400 0.82949 0.19350
 C364 C 0.79073 0.83979 0.25435
 C365 C 0.79664 0.77480 0.18941
 C366 C 0.74858 0.70910 0.32268
 C367 C 0.67760 0.75847 0.32189
 C368 C 0.68587 0.69701 0.26292
 H369 H 0.69740 0.80042 0.29328
 H370 H 0.70695 0.72662 0.22110
 H371 H 0.76796 0.81102 0.21620
 H372 H 0.78179 0.74080 0.29293
 H373 H 0.78286 0.78674 0.32878
 H374 H 0.81439 0.77498 0.29807
 H375 H 0.64563 0.74675 0.23352
 H376 H 0.70511 0.76955 0.16370
 H377 H 0.71784 0.80977 0.33292
 H378 H 0.74333 0.84189 0.30074
 H379 H 0.73587 0.69167 0.21550
 H380 H 0.75251 0.72447 0.18509
 H381 H 0.68282 0.83402 0.26049
 H382 H 0.65754 0.79838 0.24565
 H383 H 0.81411 0.73491 0.23981
 H384 H 0.79207 0.70153 0.27267
 O385 O 0.77415 0.17581 0.77137
 O386 O 0.74832 0.16332 0.73078
 O387 O 0.84003 0.22061 0.73184
 O388 O 0.84446 0.25757 0.70565
 O389 O 0.80211 0.24971 0.80606
 O390 O 0.76277 0.27508 0.81386
 O391 O 0.75679 0.28443 0.66355
 O392 O 0.79292 0.25430 0.65457
 O393 O 0.69375 0.23681 0.69784
 O394 O 0.69164 0.20428 0.73048
 O395 O 0.71692 0.30924 0.73384
 O396 O 0.75315 0.32374 0.76534
 O397 O 0.75417 0.31611 0.69741
 O398 O 0.78327 0.32764 0.73775
 O399 O 0.68935 0.27201 0.73524
 O400 O 0.69157 0.23426 0.76984
 O401 O 0.72537 0.24346 0.66406
 O402 O 0.76709 0.21778 0.65409
 O403 O 0.77064 0.20757 0.80511
 O404 O 0.73267 0.23952 0.81122
 O405 O 0.83418 0.25635 0.77270
 O406 O 0.83516 0.28995 0.73430
 O407 O 0.81314 0.18286 0.73291
 O408 O 0.77695 0.17052 0.70127
 Zr409 Zr 0.77320 0.19830 0.73416
 O410 O 0.74393 0.21790 0.70964
 Zr411 Zr 0.81284 0.25308 0.73495
 O412 O 0.78571 0.27462 0.70941
 Zr413 Zr 0.76597 0.24430 0.78368
 O414 O 0.73713 0.26609 0.76069
 Zr415 Zr 0.76275 0.24775 0.68504
 O416 O 0.79278 0.22633 0.70768
 Zr417 Zr 0.71652 0.23927 0.73439
 O418 O 0.74360 0.21664 0.75933
 Zr419 Zr 0.75673 0.29385 0.73434
 O420 O 0.78559 0.27449 0.75999
 O421 O 0.79464 0.22401 0.76008
 O422 O 0.73435 0.26842 0.70865
 C423 C 0.77283 0.18304 0.79683
 C424 C 0.83648 0.19479 0.73179
 C425 C 0.82669 0.25417 0.79807
 C426 C 0.75429 0.30897 0.67199
 C427 C 0.70087 0.23916 0.67239
 C428 C 0.69339 0.29774 0.73462
 H429 H 0.73409 0.20420 0.69856
 H430 H 0.72436 0.27505 0.77346
 H431 H 0.80788 0.21395 0.77151
 H432 H 0.79607 0.28762 0.69782
 H433 H 0.80892 0.24351 0.66017
 H434 H 0.83649 0.26611 0.68904
 H435 H 0.67233 0.23564 0.76390
 H436 H 0.73977 0.23497 0.82985
 H437 H 0.75480 0.20244 0.65859
 H438 H 0.78872 0.17935 0.68724
 H439 H 0.74049 0.31671 0.77957
 H440 H 0.77242 0.29124 0.80649
 H441 H 0.73358 0.16517 0.74450
 H442 H 0.69714 0.19161 0.74530
 H443 H 0.82874 0.30088 0.75008
 H444 H 0.79660 0.32660 0.72250
 O445 O 0.25313 0.79559 0.80862
 O446 O 0.27341 0.80412 0.76417
 O447 O 0.17646 0.76012 0.78487
 O448 O 0.16143 0.72447 0.76210
 O449 O 0.22435 0.72613 0.85103
 O450 O 0.26005 0.69521 0.85111
 O451 O 0.23427 0.68605 0.70263
 O452 O 0.20219 0.72091 0.70010
 O453 O 0.30922 0.72340 0.72180
 O454 O 0.32274 0.75451 0.75228
 O455 O 0.28311 0.65465 0.76604
 O456 O 0.25178 0.64529 0.80254
 O457 O 0.23975 0.65405 0.73608
 O458 O 0.21659 0.64689 0.78189
 O459 O 0.31552 0.68708 0.75897
 O460 O 0.32589 0.72532 0.79186
 O461 O 0.27082 0.72338 0.69553
 O462 O 0.23162 0.75369 0.69386
 O463 O 0.26124 0.76325 0.84120
 O464 O 0.29384 0.72563 0.84085
 O465 O 0.18596 0.72312 0.82490
 O466 O 0.17212 0.69083 0.78782
 O467 O 0.20750 0.79383 0.77757
 O468 O 0.23948 0.80118 0.74003
 Zr469 Zr 0.24473 0.77303 0.77262
 O470 O 0.26559 0.74949 0.74335
 Zr471 Zr 0.19899 0.72432 0.78333
 O472 O 0.21692 0.69950 0.75320
 Zr473 Zr 0.25531 0.72618 0.82106
 O474 O 0.27530 0.70042 0.79331
 Zr475 Zr 0.23819 0.72298 0.72389
 O476 O 0.21659 0.74817 0.75161
 Zr477 Zr 0.29401 0.72387 0.76237
 O478 O 0.27593 0.75028 0.79155
 Zr479 Zr 0.24701 0.67605 0.77236
 O480 O 0.22728 0.69916 0.80295
 O481 O 0.22558 0.75050 0.80331
 O482 O 0.26734 0.69791 0.74165
 C483 C 0.25967 0.78798 0.83316
 C484 C 0.18310 0.78515 0.78189
 C485 C 0.19844 0.72409 0.84827
 C486 C 0.23518 0.66133 0.71107
 C487 C 0.29683 0.72369 0.69842
 C488 C 0.30770 0.66225 0.76155
 H489 H 0.27486 0.76179 0.73015
 H490 H 0.28878 0.68956 0.80362
 H491 H 0.21630 0.76225 0.81683
 H492 H 0.20271 0.68829 0.74430
 H493 H 0.18903 0.73335 0.70880
 H494 H 0.16471 0.71638 0.74377
 H495 H 0.34302 0.72032 0.78241
 H496 H 0.29154 0.73125 0.86036
 H497 H 0.24646 0.76724 0.69536
 H498 H 0.22382 0.79464 0.72901
 H499 H 0.26633 0.65125 0.81527
 H500 H 0.24646 0.68092 0.84690
 H501 H 0.28991 0.79987 0.77498
 H502 H 0.32129 0.76852 0.76673
 H503 H 0.17965 0.67905 0.80250
 H504 H 0.20160 0.64909 0.76846
 O505 O 0.25680 0.33547 0.72475
 O506 O 0.23563 0.34108 0.76995
 O507 O 0.32547 0.28685 0.74356
 O508 O 0.33307 0.24767 0.76568
 O509 O 0.27506 0.26637 0.67463
 O510 O 0.23361 0.24396 0.67026
 O511 O 0.25508 0.21225 0.81632
 O512 O 0.29215 0.24258 0.82324
 O513 O 0.18678 0.26235 0.80161
 O514 O 0.18027 0.30007 0.77498
 O515 O 0.20168 0.19704 0.75056
 O516 O 0.23256 0.18818 0.71194
 O517 O 0.24307 0.18584 0.77989
 O518 O 0.26621 0.18050 0.73406
 O519 O 0.17557 0.23337 0.76129
 O520 O 0.17210 0.27549 0.73249
 O521 O 0.22390 0.25222 0.82773
 O522 O 0.26590 0.27624 0.83493
 O523 O 0.24595 0.30941 0.68764
 O524 O 0.20597 0.27841 0.68394
 O525 O 0.31115 0.25466 0.70153
 O526 O 0.31946 0.21867 0.73459
 O527 O 0.29968 0.32318 0.75525
 O528 O 0.26901 0.33117 0.79312
 Zr529 Zr 0.25970 0.30782 0.75782
 O530 O 0.23469 0.28439 0.78398
 Zr531 Zr 0.29735 0.25454 0.74242
 O532 O 0.27449 0.22892 0.76851
 Zr533 Zr 0.24337 0.26963 0.70382
 O534 O 0.21828 0.24413 0.72814
 Zr535 Zr 0.25687 0.25179 0.80014
 O536 O 0.28292 0.27694 0.77625
 Zr537 Zr 0.20301 0.26628 0.76156
 O538 O 0.22592 0.29281 0.73570
 Zr539 Zr 0.24123 0.21309 0.74637
 O540 O 0.26579 0.23663 0.71944
 O541 O 0.27605 0.28648 0.72499
 O542 O 0.22436 0.23416 0.77918
 C543 C 0.25116 0.33238 0.69906
 C544 C 0.32251 0.31208 0.74924
 C545 C 0.29993 0.25918 0.67803
 C546 C 0.24938 0.18922 0.80536
 C547 C 0.19836 0.25658 0.82471
 C548 C 0.17882 0.20802 0.75654
 H549 H 0.22717 0.29611 0.79858
 H550 H 0.20332 0.23691 0.71662
 H551 H 0.28765 0.29781 0.71279
 H552 H 0.28639 0.21458 0.77600
 H553 H 0.30658 0.25538 0.81714
 H554 H 0.32799 0.23588 0.78145
 H555 H 0.15429 0.27308 0.74180
 H556 H 0.20988 0.28612 0.66539
 H557 H 0.25531 0.29313 0.83343
 H558 H 0.28252 0.32073 0.80388
 H559 H 0.21735 0.19650 0.70166
 H560 H 0.24303 0.22659 0.67364
 H561 H 0.21985 0.34168 0.75731
 H562 H 0.18332 0.31468 0.76126
 H563 H 0.30928 0.20843 0.72038
 H564 H 0.28101 0.17874 0.74776
 O565 O 0.77161 0.66523 0.70273
 O566 O 0.79622 0.64915 0.74430
 O567 O 0.70186 0.70246 0.73701
 O568 O 0.69248 0.73481 0.76733
 O569 O 0.75003 0.74393 0.67480
 O570 O 0.79021 0.76960 0.67695
 O571 O 0.76935 0.75845 0.82605
 O572 O 0.73323 0.72568 0.82345
 O573 O 0.83945 0.72038 0.79866
 O574 O 0.84786 0.68963 0.76356
 O575 O 0.82105 0.79407 0.76529
 O576 O 0.78833 0.81125 0.73165
 O577 O 0.78050 0.79382 0.79786
 O578 O 0.75533 0.81081 0.75607
 O579 O 0.84911 0.75762 0.76642
 O580 O 0.85442 0.72390 0.72814
 O581 O 0.80199 0.71889 0.82631
 O582 O 0.76135 0.69116 0.82574
 O583 O 0.78229 0.70132 0.67525
 O584 O 0.81994 0.73443 0.68004
 O585 O 0.71324 0.74388 0.70341
 O586 O 0.70465 0.77135 0.74436
 O587 O 0.72995 0.66598 0.73753
 O588 O 0.76246 0.64914 0.76979
 Zr589 Zr 0.76920 0.68232 0.74282
 O590 O 0.79290 0.69907 0.77488
 Zr591 Zr 0.72825 0.73561 0.74303
 O592 O 0.75003 0.75445 0.77513
 Zr593 Zr 0.78247 0.73495 0.70182
 O594 O 0.80657 0.75388 0.73221
 Zr595 Zr 0.76909 0.72480 0.79936
 O596 O 0.74453 0.70560 0.76922
 Zr597 Zr 0.82331 0.72439 0.75849
 O598 O 0.80173 0.70493 0.72598
 Zr599 Zr 0.78214 0.77744 0.75803
 O600 O 0.75837 0.76096 0.72578
 O601 O 0.75110 0.71095 0.71748
 O602 O 0.80033 0.74924 0.78393
 C603 C 0.77742 0.67597 0.67912
 C604 C 0.70632 0.67687 0.73586
 C605 C 0.72444 0.74659 0.67958
 C606 C 0.77487 0.78360 0.82163
 C607 C 0.82780 0.71875 0.82246
 C608 C 0.84457 0.78316 0.76800
 H609 H 0.80123 0.68435 0.78583
 H610 H 0.82096 0.76472 0.72299
 H611 H 0.73981 0.70251 0.70291
 H612 H 0.73760 0.76559 0.78632
 H613 H 0.71958 0.71417 0.81394
 H614 H 0.69709 0.74265 0.78551
 H615 H 0.87216 0.72503 0.73780
 H616 H 0.81614 0.73225 0.66004
 H617 H 0.77399 0.67647 0.82077
 H618 H 0.74971 0.65554 0.78415
 H619 H 0.80347 0.80683 0.71902
 H620 H 0.77881 0.78439 0.68426
 H621 H 0.81050 0.65263 0.73030
 H622 H 0.84473 0.67818 0.74715
 H623 H 0.71409 0.78508 0.73281
 H624 H 0.74073 0.80775 0.76980
 O625 O 0.24883 0.71247 0.30564
 O626 O 0.22813 0.70173 0.26622
 O627 O 0.32549 0.74605 0.27551
 O628 O 0.33809 0.78318 0.24924
 O629 O 0.28279 0.78400 0.34401
 O630 O 0.24662 0.81250 0.34708
 O631 O 0.26204 0.81925 0.19607
 O632 O 0.29260 0.78181 0.19013
 O633 O 0.18911 0.78326 0.22249
 O634 O 0.17711 0.75415 0.25683
 O635 O 0.22104 0.85354 0.26016
 O636 O 0.25414 0.86278 0.29542
 O637 O 0.26176 0.85233 0.22858
 O638 O 0.28843 0.85914 0.27305
 O639 O 0.18712 0.82220 0.25616
 O640 O 0.17736 0.78696 0.29290
 O641 O 0.22514 0.78254 0.19301
 O642 O 0.26584 0.75073 0.19059
 O643 O 0.24670 0.74483 0.33889
 O644 O 0.21238 0.78248 0.33856
 O645 O 0.31986 0.78260 0.31578
 O646 O 0.33218 0.81421 0.27767
 O647 O 0.29343 0.71277 0.27199
 O648 O 0.25754 0.70691 0.23543
 Zr649 Zr 0.25619 0.73422 0.26899
 O650 O 0.23338 0.75764 0.24090
 Zr651 Zr 0.30358 0.78207 0.27521
 O652 O 0.28420 0.80654 0.24553
 Zr653 Zr 0.24986 0.78182 0.31685
 O654 O 0.22891 0.80810 0.29001
 Zr655 Zr 0.26008 0.78291 0.21871
 O656 O 0.28334 0.75805 0.24554
 Zr657 Zr 0.20731 0.78460 0.26145
 O658 O 0.22681 0.75789 0.28955
 Zr659 Zr 0.25634 0.83115 0.26611
 O660 O 0.27718 0.80807 0.29608
 O661 O 0.27791 0.75670 0.29763
 O662 O 0.23316 0.80910 0.23791
 C663 C 0.24608 0.72002 0.33084
 C664 C 0.31826 0.72115 0.27371
 C665 C 0.30851 0.78388 0.33976
 C666 C 0.26275 0.84421 0.20346
 C667 C 0.19943 0.78237 0.19817
 C668 C 0.19617 0.84680 0.25639
 H669 H 0.22296 0.74529 0.22877
 H670 H 0.21648 0.81970 0.30074
 H671 H 0.28795 0.74500 0.31074
 H672 H 0.29801 0.81732 0.23540
 H673 H 0.30699 0.79417 0.19694
 H674 H 0.33265 0.77392 0.23198
 H675 H 0.15989 0.79192 0.28407
 H676 H 0.21548 0.77604 0.35773
 H677 H 0.24928 0.73924 0.19094
 H678 H 0.27446 0.71095 0.22508
 H679 H 0.23911 0.85839 0.30829
 H680 H 0.25749 0.82811 0.34028
 H681 H 0.21048 0.70987 0.26125
 H682 H 0.17924 0.74151 0.27261
 H683 H 0.32563 0.82670 0.29212
 H684 H 0.30209 0.85671 0.25828
 O685 O 0.71650 0.30439 0.27335
 O686 O 0.74706 0.31780 0.23622
 O687 O 0.64592 0.28052 0.22580
 O688 O 0.63416 0.24970 0.19552
 O689 O 0.67558 0.23057 0.29437
 O690 O 0.70940 0.19841 0.29737
 O691 O 0.71777 0.21587 0.14705
 O692 O 0.68665 0.25274 0.14467
 O693 O 0.78649 0.24243 0.18820
 O694 O 0.79418 0.26820 0.22634
 O695 O 0.74921 0.17079 0.21137
 O696 O 0.71001 0.15809 0.23970
 O697 O 0.71338 0.17844 0.17430
 O698 O 0.68055 0.16545 0.21202
 O699 O 0.78336 0.20133 0.21839
 O700 O 0.78807 0.23167 0.25944
 O701 O 0.75476 0.25094 0.15506
 O702 O 0.71866 0.28381 0.15029
 O703 O 0.71513 0.26675 0.30064
 O704 O 0.74579 0.22696 0.30004
 O705 O 0.64400 0.23635 0.26045
 O706 O 0.63753 0.21188 0.21631
 O707 O 0.67931 0.31155 0.23429
 O708 O 0.71822 0.32261 0.20599
 Zr709 Zr 0.71536 0.28880 0.23286
 O710 O 0.74076 0.26888 0.20460
 Zr711 Zr 0.66618 0.24324 0.22387
 O712 O 0.68907 0.22204 0.19432
 Zr713 Zr 0.71264 0.23400 0.27292
 O714 O 0.73715 0.21160 0.24569
 Zr715 Zr 0.71707 0.24834 0.17520
 O716 O 0.69142 0.27049 0.20187
 Zr717 Zr 0.76311 0.23834 0.22435
 O718 O 0.74041 0.26079 0.25362
 Zr719 Zr 0.71329 0.19341 0.21489
 O720 O 0.68833 0.21291 0.24421
 O721 O 0.68871 0.26326 0.25389
 O722 O 0.74051 0.21856 0.19400
 C723 C 0.71676 0.29253 0.29704
 C724 C 0.65435 0.30482 0.23019
 C725 C 0.65092 0.23151 0.28557
 C726 C 0.71576 0.19010 0.15064
 C727 C 0.77934 0.24762 0.16320
 C728 C 0.77445 0.17726 0.21351
 H729 H 0.75321 0.28235 0.19609
 H730 H 0.74767 0.19811 0.25635
 H731 H 0.67713 0.27326 0.26705
 H732 H 0.67681 0.21362 0.18058
 H733 H 0.67304 0.26545 0.15218
 H734 H 0.64102 0.24455 0.17709
 H735 H 0.80674 0.22788 0.25282
 H736 H 0.73967 0.22992 0.31931
 H737 H 0.73254 0.29618 0.15810
 H738 H 0.70519 0.31931 0.19077
 H739 H 0.72341 0.15972 0.25483
 H740 H 0.69803 0.18541 0.28687
 H741 H 0.75992 0.31090 0.25024
 H742 H 0.79091 0.27874 0.24333
 H743 H 0.64148 0.19703 0.22949
 H744 H 0.66890 0.17117 0.19643
 C745 C 0.27543 0.07677 0.04476
 C746 C 0.27331 0.10499 0.04615
 C747 C 0.27376 0.11988 0.07226
 N748 N 0.27146 0.14722 0.07170
 N749 N 0.27142 0.16130 0.09503
 C750 C 0.27368 0.14858 0.11983
 N751 N 0.27606 0.12119 0.12043
 N752 N 0.27614 0.10707 0.09703
 C753 C 0.27280 0.16412 0.14559
 C754 C 0.27025 0.19222 0.14500
 H755 H 0.26960 0.11700 0.02784
 H756 H 0.27334 0.15333 0.16511
 H757 H 0.27656 0.06604 0.06419
 H758 H 0.26988 0.20278 0.12534
 C759 C 0.73941 0.55965 0.54215
 C760 C 0.75738 0.58097 0.54794
 C761 C 0.75914 0.59430 0.57519
 N762 N 0.77592 0.61601 0.57845
 N763 N 0.77784 0.62851 0.60273
 C764 C 0.76315 0.61973 0.62484
 N765 N 0.74648 0.59787 0.62165
 N766 N 0.74448 0.58540 0.59730
 C767 C 0.76466 0.63404 0.65165
 C768 C 0.77815 0.65893 0.65415
 H769 H 0.77108 0.58811 0.53192
 H770 H 0.75368 0.62571 0.66917
 H771 H 0.72604 0.55250 0.55839
 H772 H 0.78781 0.66768 0.63605
 C773 C 0.73408 0.94708 0.05389
 C774 C 0.72828 0.94641 0.08216
 C775 C 0.72683 0.92090 0.09795
 N776 N 0.71971 0.92161 0.12493
 N777 N 0.71884 0.89894 0.13989
 C778 C 0.72509 0.87465 0.12849
 N779 N 0.73216 0.87387 0.10143
 N780 N 0.73295 0.89660 0.08640
 C781 C 0.72559 0.84988 0.14561
 C782 C 0.71881 0.85117 0.17346
 H783 H 0.72559 0.96473 0.09390
 H784 H 0.73302 0.83118 0.13684
 H785 H 0.73730 0.92761 0.04445
 H786 H 0.71158 0.87015 0.18183
 C787 C 0.23912 0.45491 0.56263
 C788 C 0.24958 0.45313 0.58938
 C789 C 0.24897 0.42782 0.60564
 N790 N 0.25730 0.42809 0.63233
 N791 N 0.25628 0.40561 0.64765
 C792 C 0.24690 0.38195 0.63686
 N793 N 0.23871 0.38162 0.61010
 N794 N 0.23965 0.40415 0.59478
 C795 C 0.24558 0.35698 0.65368
 C796 C 0.25156 0.35705 0.68184
 H797 H 0.25815 0.47097 0.59908
 H798 H 0.23963 0.33824 0.64371
 H799 H 0.23157 0.43664 0.55287
 H800 H 0.25699 0.37598 0.69176
 C801 C 0.75071 0.03318 0.89705
 C802 C 0.76320 0.05835 0.90039
 C803 C 0.76461 0.07822 0.87773
 N804 N 0.77465 0.10345 0.88242
 N805 N 0.77633 0.12151 0.86195
 C806 C 0.76824 0.11493 0.83599
 N807 N 0.75840 0.08963 0.83125
 N808 N 0.75659 0.07161 0.85175
 C809 C 0.76948 0.13486 0.81336
 C810 C 0.77414 0.16222 0.81851
 H811 H 0.77298 0.06324 0.91980
 H812 H 0.76510 0.12813 0.79256
 H813 H 0.74229 0.02788 0.87710
 H814 H 0.77705 0.16899 0.83956
 C815 C 0.22756 0.55906 0.41481
 C816 C 0.24021 0.58386 0.42041
 C817 C 0.23842 0.60708 0.40124
 N818 N 0.24799 0.63184 0.40884
 N819 N 0.24724 0.65275 0.39129
 C820 C 0.23702 0.64959 0.36543
 N821 N 0.22749 0.62484 0.35786
 N822 N 0.22808 0.60402 0.37544
 C823 C 0.23736 0.67188 0.34514
 C824 C 0.24299 0.69876 0.35213
 H825 H 0.25238 0.58611 0.43891
 H826 H 0.23324 0.66681 0.32380
 H827 H 0.21678 0.55667 0.39546
 H828 H 0.24547 0.70429 0.37361
 C829 C 0.26882 0.93241 0.94310
 C830 C 0.27457 0.90471 0.94289
 C831 C 0.27264 0.88787 0.91808
 N832 N 0.27935 0.86136 0.91994
 N833 N 0.27639 0.84509 0.89835
 C834 C 0.26656 0.85465 0.87403
 N835 N 0.26008 0.88130 0.87201
 N836 N 0.26303 0.89765 0.89370
 C837 C 0.26201 0.83610 0.85072
 C838 C 0.26552 0.80831 0.85431
 H839 H 0.28130 0.89460 0.96152
 H840 H 0.25482 0.84411 0.83120
 H841 H 0.26573 0.94216 0.92335
 H842 H 0.27215 0.80067 0.87419
 C843 C 0.72311 0.42408 0.42448
 C844 C 0.73273 0.39781 0.42018
 C845 C 0.72878 0.38265 0.39433
 N846 N 0.73501 0.35591 0.39367
 N847 N 0.73137 0.34151 0.37077
 C848 C 0.72144 0.35331 0.34752
 N849 N 0.71537 0.38015 0.34807
 N850 N 0.71886 0.39455 0.37109
 C851 C 0.71759 0.33744 0.32203
 C852 C 0.71913 0.30917 0.32214
 H853 H 0.74317 0.38742 0.43677
 H854 H 0.71322 0.34814 0.30298
 H855 H 0.71338 0.43462 0.40756
 H856 H 0.72216 0.29860 0.34154
 C857 C 0.06452 0.24142 0.05189
 C858 C 0.08994 0.25393 0.05479
 C859 C 0.10471 0.25448 0.08119
 N860 N 0.12881 0.26783 0.08264
 N861 N 0.14292 0.26817 0.10604
 C862 C 0.13353 0.25520 0.12897
 N863 N 0.10927 0.24197 0.12763
 N864 N 0.09511 0.24162 0.10415
 C865 C 0.14996 0.25458 0.15443
 C866 C 0.17631 0.26508 0.15425
 H867 H 0.09913 0.26497 0.03783
 H868 H 0.14203 0.24452 0.17268
 H869 H 0.05569 0.23300 0.07048
 H870 H 0.18414 0.27418 0.13543
 C871 C 0.57747 0.76200 0.57368
 C872 C 0.60177 0.77643 0.57711
 C873 C 0.62140 0.76967 0.59879
 N874 N 0.64734 0.77907 0.59699
 N875 N 0.66574 0.77225 0.61593
 C876 C 0.65874 0.75584 0.63737
 N877 N 0.63274 0.74666 0.63932
 N878 N 0.61442 0.75330 0.62028
 C879 C 0.67831 0.74860 0.65889
 C880 C 0.70631 0.75268 0.65628
 H881 H 0.60756 0.79201 0.56238
 H882 H 0.67021 0.73935 0.67752
 H883 H 0.57174 0.74699 0.58901
 H884 H 0.71491 0.76002 0.63704
 C885 C 0.05138 0.72056 0.95451
 C886 C 0.07825 0.72907 0.95889
 C887 C 0.09936 0.72349 0.93794
 N888 N 0.12451 0.73491 0.93985
 N889 N 0.14271 0.73170 0.91967
 C890 C 0.13633 0.71702 0.89683
 N891 N 0.11138 0.70536 0.89514
 N892 N 0.09331 0.70848 0.91528
 C893 C 0.15485 0.71501 0.87311
 C894 C 0.18184 0.72375 0.87360
 H895 H 0.08321 0.74290 0.97546
 H896 H 0.14660 0.70666 0.85421
 H897 H 0.04749 0.70995 0.93533
 H898 H 0.19092 0.73045 0.89279
 C899 C 0.54140 0.21925 0.43118
 C900 C 0.54260 0.20880 0.40452
 C901 C 0.56635 0.21274 0.38657
 N902 N 0.56430 0.20691 0.35933
 N903 N 0.58532 0.21102 0.34249
 C904 C 0.60924 0.22098 0.35229
 N905 N 0.61143 0.22649 0.37962
 N906 N 0.59032 0.22254 0.39646
 C907 C 0.63233 0.22597 0.33363
 C908 C 0.62861 0.22689 0.30515
 H909 H 0.52528 0.19796 0.39612
 H910 H 0.65223 0.22984 0.34241
 H911 H 0.55901 0.22972 0.43939
 H912 H 0.60832 0.22460 0.29672
 C913 C 0.95218 0.77673 0.09305
 C914 C 0.92540 0.76801 0.08829
 C915 C 0.90370 0.77271 0.10898
 N916 N 0.87790 0.76379 0.10438
 N917 N 0.85866 0.76674 0.12358
 C918 C 0.86452 0.77861 0.14819
 N919 N 0.89026 0.78759 0.15272
 N920 N 0.90941 0.78476 0.13351
 C921 C 0.84405 0.78086 0.17039
 C922 C 0.81656 0.77471 0.16654
 H923 H 0.92062 0.75506 0.07097
 H924 H 0.85099 0.78737 0.19053
 H925 H 0.95576 0.78674 0.11262
 H926 H 0.80939 0.76933 0.14612
 C927 C 0.44744 0.21147 0.58524
 C928 C 0.42850 0.23231 0.58316
 C929 C 0.40462 0.23333 0.60127
 N930 N 0.38556 0.25284 0.59773
 N931 N 0.36404 0.25404 0.61444
 C932 C 0.36090 0.23567 0.63519
 N933 N 0.37988 0.21615 0.63859
 N934 N 0.40127 0.21492 0.62189
 C935 C 0.33895 0.23759 0.65543
 C936 C 0.31738 0.25571 0.65371
 H937 H 0.43113 0.24804 0.56769
 H938 H 0.34063 0.22463 0.67349
 H939 H 0.44594 0.19698 0.60205
 H940 H 0.31359 0.26721 0.63502
 C941 C 0.91996 0.21829 0.95113
 C942 C 0.92491 0.23352 0.92717
 C943 C 0.90397 0.23622 0.90559
 N944 N 0.90933 0.25031 0.88204
 N945 N 0.89016 0.25341 0.86282
 C946 C 0.86489 0.24270 0.86662
 N947 N 0.85956 0.22871 0.89016
 N948 N 0.87871 0.22551 0.90925
 C949 C 0.84335 0.24559 0.84587
 C950 C 0.84807 0.25543 0.81927
 H951 H 0.94311 0.24580 0.92512
 H952 H 0.82331 0.23802 0.85132
 H953 H 0.89982 0.20941 0.95321
 H954 H 0.86835 0.26182 0.81325
 C955 C 0.43096 0.75107 0.47067
 C956 C 0.40629 0.76447 0.46791
 C957 C 0.39248 0.76723 0.44114
 N958 N 0.36820 0.77997 0.43978
 N959 N 0.35551 0.78294 0.41570
 C960 C 0.36669 0.77342 0.39201
 N961 N 0.39108 0.76082 0.39332
 N962 N 0.40376 0.75779 0.41745
 C963 C 0.35223 0.77586 0.36549
 C964 C 0.32545 0.78474 0.36465
 H965 H 0.39737 0.77425 0.48569
 H966 H 0.36206 0.76893 0.34681
 H967 H 0.43996 0.74164 0.45275
 H968 H 0.31546 0.79035 0.38371
 C969 C 0.06526 0.06899 0.23496
 C970 C 0.09147 0.07146 0.22401
 C971 C 0.10816 0.09626 0.22669
 N972 N 0.13452 0.09606 0.21844
 N973 N 0.15011 0.11812 0.22093
 C974 C 0.13990 0.14131 0.23168
 N975 N 0.11346 0.14159 0.23978
 N976 N 0.09789 0.11947 0.23741
 C977 C 0.15699 0.16586 0.23455
 C978 C 0.18503 0.16539 0.23007
 H979 H 0.10034 0.05449 0.21322
 H980 H 0.14736 0.18454 0.24081
 H981 H 0.05655 0.08629 0.24529
 H982 H 0.19466 0.14641 0.22480
 C983 C 0.59583 0.53415 0.73986
 C984 C 0.59586 0.55852 0.72524
 C985 C 0.61888 0.57757 0.72761
 N986 N 0.61670 0.60351 0.71845
 N987 N 0.63758 0.62074 0.72081
 C988 C 0.66142 0.61253 0.73221
 N989 N 0.66365 0.58655 0.74106
 N990 N 0.64276 0.56943 0.73889
 C991 C 0.68477 0.63096 0.73507
 C992 C 0.68266 0.65894 0.73198
 H993 H 0.57901 0.56356 0.71182
 H994 H 0.70407 0.62217 0.74093
 H995 H 0.61339 0.52905 0.75231
 H996 H 0.66311 0.66795 0.72752
 C997 C 0.96181 0.06445 0.74875
 C998 C 0.95879 0.09252 0.75206
 C999 C 0.93325 0.10696 0.74644
 N1000 N 0.93309 0.13442 0.74756
 N1001 N 0.91030 0.14812 0.74300
 C1002 C 0.88669 0.13489 0.73723
 N1003 N 0.88678 0.10737 0.73615
 N1004 N 0.90967 0.09364 0.74058
 C1005 C 0.86123 0.15006 0.73322
 C1006 C 0.86131 0.17832 0.73167
 H1007 H 0.97523 0.10484 0.76005
 H1008 H 0.84219 0.13892 0.73233
 H1009 H 0.94379 0.05350 0.74255
 H1010 H 0.88057 0.18913 0.73181
 C1011 C 0.43862 0.58644 0.27731
 C1012 C 0.43571 0.61287 0.26752
 C1013 C 0.41000 0.62788 0.26873
 N1014 N 0.41002 0.65447 0.26168
 N1015 N 0.38730 0.66884 0.26304
 C1016 C 0.36354 0.65723 0.27139
 N1017 N 0.36336 0.63046 0.27812
 N1018 N 0.38622 0.61604 0.27689
 C1019 C 0.33866 0.67374 0.27346
 C1020 C 0.34092 0.70192 0.27340
 H1021 H 0.45316 0.62329 0.25874
 H1022 H 0.31897 0.66396 0.27549
 H1023 H 0.42100 0.57582 0.28543
 H1024 H 0.36108 0.71094 0.27292
 C1025 C 0.06509 0.92258 0.76911
 C1026 C 0.06712 0.89609 0.77951
 C1027 C 0.09243 0.88027 0.77932
 N1028 N 0.09204 0.85471 0.78970
 N1029 N 0.11428 0.83952 0.78924
 C1030 C 0.13790 0.84925 0.77842
 N1031 N 0.13841 0.87496 0.76818
 N1032 N 0.11607 0.89020 0.76859
 C1033 C 0.16228 0.83193 0.77716
 C1034 C 0.16060 0.80451 0.78424
 H1035 H 0.04977 0.88637 0.78918
 H1036 H 0.18124 0.84044 0.76961
 H1037 H 0.08380 0.93199 0.76230
 H1038 H 0.14118 0.79621 0.79083
 C1039 C 0.54912 0.44830 0.25670
 C1040 C 0.55440 0.42955 0.23593
 C1041 C 0.57708 0.41041 0.23682
 N1042 N 0.57663 0.38873 0.21973
 N1043 N 0.59616 0.37025 0.22084
 C1044 C 0.61702 0.37282 0.23900
 N1045 N 0.61776 0.39475 0.25585
 N1046 N 0.59803 0.41317 0.25491
 C1047 C 0.63828 0.35204 0.24052
 C1048 C 0.63363 0.32608 0.23018
 H1049 H 0.54004 0.42735 0.21911
 H1050 H 0.65734 0.35690 0.25062
 H1051 H 0.56370 0.45112 0.27319
 H1052 H 0.61373 0.32088 0.22212
 C1053 C 0.91781 0.96713 0.22777
 C1054 C 0.89374 0.96393 0.24265
 C1055 C 0.87867 0.93807 0.24360
 N1056 N 0.85387 0.93698 0.25580
 N1057 N 0.83997 0.91374 0.25700
 C1058 C 0.85040 0.89065 0.24622
 N1059 N 0.87531 0.89168 0.23420
 N1060 N 0.88918 0.91498 0.23287
 C1061 C 0.83493 0.86498 0.24719
 C1062 C 0.80753 0.86452 0.25445
 H1063 H 0.88586 0.98074 0.25446
 H1064 H 0.84488 0.84645 0.24097
 H1065 H 0.92542 0.95015 0.21608
 H1066 H 0.79743 0.88341 0.25913
 C1067 C 0.43771 0.45169 0.75760
 C1068 C 0.43189 0.43149 0.73844
 C1069 C 0.41016 0.41144 0.74368
 N1070 N 0.40862 0.38835 0.72860
 N1071 N 0.38874 0.37034 0.73315
 C1072 C 0.36959 0.37491 0.75280
 N1073 N 0.37104 0.39807 0.76769
 N1074 N 0.39102 0.41592 0.76332
 C1075 C 0.34677 0.35605 0.75728
 C1076 C 0.34679 0.32956 0.74744
 H1077 H 0.44312 0.43055 0.71924
 H1078 H 0.32936 0.36333 0.76871
 H1079 H 0.42538 0.45291 0.77610
 H1080 H 0.36488 0.32161 0.73769
 C1081 C 0.06611 0.23914 0.95080
 C1082 C 0.09448 0.23766 0.94882
 C1083 C 0.10935 0.24257 0.92289
 N1084 N 0.13682 0.24057 0.92273
 N1085 N 0.15085 0.24497 0.89963
 C1086 C 0.13798 0.25157 0.87575
 N1087 N 0.11046 0.25359 0.87587
 N1088 N 0.09639 0.24921 0.89903
 C1089 C 0.15351 0.25605 0.85009
 C1090 C 0.18179 0.25425 0.84985
 H1091 H 0.10669 0.23157 0.96627
 H1092 H 0.14258 0.26027 0.83116
 H1093 H 0.05536 0.24292 0.93176
 H1094 H 0.19244 0.25001 0.86894
 C1095 C 0.57697 0.77557 0.47331
 C1096 C 0.57800 0.75759 0.45124
 C1097 C 0.59927 0.75979 0.42995
 N1098 N 0.59749 0.74483 0.40658
 N1099 N 0.61698 0.74627 0.38750
 C1100 C 0.63911 0.76251 0.39123
 N1101 N 0.64099 0.77729 0.41469
 N1102 N 0.62141 0.77601 0.43367
 C1103 C 0.66078 0.76436 0.37036
 C1104 C 0.65688 0.75518 0.34351
 H1105 H 0.56363 0.74088 0.45016
 H1106 H 0.67963 0.77448 0.37583
 H1107 H 0.59221 0.79148 0.47470
 H1108 H 0.63731 0.74678 0.33763
 C1109 C 0.96072 0.74935 0.94291
 C1110 C 0.93341 0.74170 0.94553
 C1111 C 0.91618 0.73944 0.92053
 N1112 N 0.89157 0.72680 0.92157
 N1113 N 0.87701 0.72315 0.89860
 C1114 C 0.88661 0.73186 0.87371
 N1115 N 0.91103 0.74469 0.87275
 N1116 N 0.92550 0.74837 0.89565
 C1117 C 0.87112 0.72807 0.84794
 C1118 C 0.84473 0.71769 0.84751
 H1119 H 0.92572 0.73375 0.96491
 H1120 H 0.88024 0.73528 0.82888
 H1121 H 0.96774 0.75340 0.92205
 H1122 H 0.83510 0.71171 0.86674
 C1123 C 0.44052 0.22091 0.43559
 C1124 C 0.43660 0.24010 0.41479
 C1125 C 0.41102 0.24242 0.39924
 N1126 N 0.40950 0.26033 0.37802
 N1127 N 0.38687 0.26237 0.36313
 C1128 C 0.36477 0.24667 0.36893
 N1129 N 0.36614 0.22894 0.39041
 N1130 N 0.38887 0.22683 0.40529
 C1131 C 0.34025 0.24794 0.35143
 C1132 C 0.34105 0.26149 0.32615
 H1133 H 0.45296 0.25403 0.40959
 H1134 H 0.32225 0.23658 0.35743
 H1135 H 0.42395 0.20742 0.44119
 H1136 H 0.35977 0.27142 0.31981
 C1137 C 0.04693 0.75413 0.10154
 C1138 C 0.07262 0.76498 0.09565
 C1139 C 0.09399 0.76671 0.11700
 N1140 N 0.11931 0.77597 0.11055
 N1141 N 0.13840 0.77830 0.13002
 C1142 C 0.13276 0.77156 0.15666
 N1143 N 0.10748 0.76233 0.16304
 N1144 N 0.08850 0.75990 0.14361
 C1145 C 0.15294 0.77447 0.17890
 C1146 C 0.18041 0.78059 0.17462
 H1147 H 0.07677 0.77335 0.07536
 H1148 H 0.14574 0.77090 0.19976
 H1149 H 0.04265 0.74722 0.12236
 H1150 H 0.18821 0.78298 0.15383
 C1151 C 0.54645 0.20482 0.58148
 C1152 C 0.56798 0.22327 0.57915
 C1153 C 0.59074 0.22340 0.59894
 N1154 N 0.61332 0.23860 0.59381
 N1155 N 0.63367 0.23943 0.61199
 C1156 C 0.63207 0.22526 0.63607
 N1157 N 0.60945 0.21018 0.64123
 N1158 N 0.58922 0.20919 0.62298
 C1159 C 0.65384 0.22662 0.65687
 C1160 C 0.67961 0.23715 0.65108
 H1161 H 0.56774 0.23854 0.56302
 H1162 H 0.64953 0.21859 0.67728
 H1163 H 0.54636 0.19059 0.59858
 H1164 H 0.68453 0.24356 0.63024
 C1165 C 0.91948 0.22143 0.05079
 C1166 C 0.89554 0.23624 0.05187
 C1167 C 0.87843 0.23766 0.07658
 N1168 N 0.85491 0.25172 0.07542
 N1169 N 0.83862 0.25284 0.09728
 C1170 C 0.84526 0.24001 0.12118
 N1171 N 0.86897 0.22616 0.12248
 N1172 N 0.88529 0.22499 0.10053
 C1173 C 0.82650 0.24014 0.14482
 C1174 C 0.80020 0.24996 0.14176
 H1175 H 0.88904 0.24746 0.03377
 H1176 H 0.83275 0.23087 0.16410
 H1177 H 0.92674 0.21103 0.06906
 H1178 H 0.79384 0.25801 0.12196
 C1179 C 0.43062 0.73896 0.57276
 C1180 C 0.40339 0.74627 0.57621
 C1181 C 0.38751 0.73970 0.60125
 N1182 N 0.36031 0.74416 0.60149
 N1183 N 0.34557 0.73890 0.62401
 C1184 C 0.35749 0.72907 0.64725
 N1185 N 0.38473 0.72467 0.64706
 N1186 N 0.39946 0.72979 0.62446
 C1187 C 0.34152 0.72423 0.67266
 C1188 C 0.31313 0.72523 0.67287
 H1189 H 0.39315 0.75752 0.56009
 H1190 H 0.35240 0.72025 0.69168
 H1191 H 0.44041 0.72786 0.58924
 H1192 H 0.30236 0.72807 0.65358
 C1193 C 0.28661 0.07912 0.94622
 C1194 C 0.27255 0.07617 0.92129
 C1195 C 0.27161 0.09867 0.90114
 N1196 N 0.25575 0.09685 0.87827
 N1197 N 0.25348 0.11789 0.86102
 C1198 C 0.26689 0.14153 0.86617
 N1199 N 0.28285 0.14324 0.88888
 N1200 N 0.28518 0.12224 0.90600
 C1201 C 0.26408 0.16543 0.84825
 C1202 C 0.25061 0.16489 0.82297
 H1203 H 0.25925 0.05893 0.91790
 H1204 H 0.27367 0.18409 0.85506
 H1205 H 0.29665 0.09847 0.94954
 H1206 H 0.24217 0.14603 0.81532
 C1207 C 0.73853 0.56967 0.43956
 C1208 C 0.75308 0.59401 0.43782
 C1209 C 0.75208 0.61139 0.41299
 N1210 N 0.76276 0.63681 0.41373
 N1211 N 0.76172 0.65287 0.39157
 C1212 C 0.75014 0.64408 0.36773
 N1213 N 0.73974 0.61853 0.36687
 N1214 N 0.74064 0.60252 0.38910
 C1215 C 0.74821 0.66201 0.34335
 C1216 C 0.75246 0.68987 0.34561
 H1217 H 0.76559 0.60055 0.45496
 H1218 H 0.74179 0.65346 0.32383
 H1219 H 0.72600 0.56385 0.42218
 H1220 H 0.75717 0.69835 0.36567
 C1221 C 0.71155 0.04320 0.04325
 C1222 C 0.72586 0.06775 0.04374
 C1223 C 0.71951 0.08902 0.06406
 N1224 N 0.73252 0.11340 0.06304
 N1225 N 0.72832 0.13195 0.08255
 C1226 C 0.71111 0.12669 0.10390
 N1227 N 0.69808 0.10237 0.10484
 N1228 N 0.70212 0.08395 0.08528
 C1229 C 0.70775 0.14581 0.12689
 C1230 C 0.71672 0.17270 0.12597
 H1231 H 0.74349 0.07052 0.03059
 H1232 H 0.69801 0.13820 0.14548
 H1233 H 0.69461 0.04046 0.05732
 H1234 H 0.72463 0.18112 0.10687
 C1235 C 0.22304 0.55459 0.56499
 C1236 C 0.21196 0.55489 0.59147
 C1237 C 0.21458 0.57861 0.60952
 N1238 N 0.20964 0.57588 0.63692
 N1239 N 0.21358 0.59667 0.65393
 C1240 C 0.22249 0.62101 0.64415
 N1241 N 0.22697 0.62391 0.61666
 N1242 N 0.22322 0.60304 0.59966
 C1243 C 0.22777 0.64372 0.66298
 C1244 C 0.23022 0.63940 0.69130
 H1245 H 0.20260 0.53678 0.59999
 H1246 H 0.23075 0.66384 0.65440
 H1247 H 0.23174 0.57317 0.55678
 H1248 H 0.22866 0.61895 0.69945
 C1249 C 0.77900 0.93974 0.91242
 C1250 C 0.76565 0.91483 0.91526
 C1251 C 0.77259 0.89143 0.89799
 N1252 N 0.75889 0.86760 0.90102
 N1253 N 0.76382 0.84684 0.88425
 C1254 C 0.78262 0.84923 0.86382
 N1255 N 0.79646 0.87295 0.86097
 N1256 N 0.79160 0.89363 0.87777
 C1257 C 0.78668 0.82772 0.84343
 C1258 C 0.77427 0.80226 0.84522
 H1259 H 0.74855 0.91293 0.92926
 H1260 H 0.79901 0.83267 0.82553
 H1261 H 0.79485 0.94195 0.89701
 H1262 H 0.76345 0.79627 0.86377
 C1263 C 0.25160 0.46309 0.41281
 C1264 C 0.23844 0.43800 0.41476
 C1265 C 0.24367 0.41629 0.39479
 N1266 N 0.23298 0.39110 0.39873
 N1267 N 0.23701 0.37160 0.38020
 C1268 C 0.25180 0.37672 0.35705
 N1269 N 0.26247 0.40186 0.35316
 N1270 N 0.25858 0.42124 0.37172
 C1271 C 0.25510 0.35642 0.33532
 C1272 C 0.24839 0.32906 0.33841
 H1273 H 0.22357 0.43441 0.43089
 H1274 H 0.26311 0.36358 0.31572
 H1275 H 0.26516 0.46698 0.39558
 H1276 H 0.24252 0.32097 0.35838
 C1277 C 0.25183 0.93196 0.04235
 C1278 C 0.26713 0.93439 0.06647
 C1279 C 0.26409 0.91518 0.08960
 N1280 N 0.27602 0.92049 0.11428
 N1281 N 0.27392 0.90288 0.13515
 C1282 C 0.25999 0.87922 0.13199
 N1283 N 0.24818 0.87387 0.10729
 N1284 N 0.25010 0.89155 0.08652
 C1285 C 0.25812 0.85908 0.15436
 C1286 C 0.26476 0.86501 0.18167
 H1287 H 0.28221 0.95040 0.06822
 H1288 H 0.25053 0.83906 0.14920
 H1289 H 0.23784 0.91502 0.04032
 H1290 H 0.27048 0.88549 0.18735
 C1291 C 0.72147 0.41298 0.52549
 C1292 C 0.74119 0.41159 0.54606
 C1293 C 0.74153 0.38950 0.56651
 N1294 N 0.75643 0.39216 0.58991
 N1295 N 0.75726 0.37213 0.60841
 C1296 C 0.74346 0.34857 0.60405
 N1297 N 0.72880 0.34578 0.58051
 N1298 N 0.72775 0.36593 0.56213
 C1299 C 0.74461 0.32623 0.62419
 C1300 C 0.75204 0.33084 0.65150
 H1301 H 0.75708 0.42688 0.54702
 H1302 H 0.73869 0.30605 0.61768
 H1303 H 0.70645 0.39686 0.52404
 H1304 H 0.75568 0.35143 0.65838
 C1305 C 0.06067 0.06881 0.75557
 C1306 C 0.06098 0.09673 0.76095
 C1307 C 0.08572 0.11357 0.75891
 N1308 N 0.08438 0.14039 0.76480
 N1309 N 0.10642 0.15612 0.76299
 C1310 C 0.13068 0.14562 0.75522
 N1311 N 0.13205 0.11877 0.74933
 N1312 N 0.10997 0.10302 0.75112
 C1313 C 0.15518 0.16281 0.75317
 C1314 C 0.15447 0.19062 0.75825
 H1315 H 0.04288 0.10683 0.76815
 H1316 H 0.17416 0.15332 0.74749
 H1317 H 0.08004 0.05977 0.75099
 H1318 H 0.13540 0.20006 0.76373
 C1319 C 0.53832 0.59293 0.28778
 C1320 C 0.56084 0.59360 0.27022
 C1321 C 0.58253 0.61413 0.27285
 N1322 N 0.60581 0.61181 0.25798
 N1323 N 0.62513 0.63086 0.25936
 C1324 C 0.62177 0.65300 0.27556
 N1325 N 0.59852 0.65529 0.29041
 N1326 N 0.57931 0.63617 0.28919
 C1327 C 0.64179 0.67524 0.27589
 C1328 C 0.66794 0.67306 0.26499
 H1329 H 0.56228 0.57914 0.25353
 H1330 H 0.63548 0.69428 0.28488
 H1331 H 0.53630 0.60852 0.30332
 H1332 H 0.67534 0.65362 0.25801
 C1333 C 0.06415 0.96911 0.24111
 C1334 C 0.09184 0.96630 0.23528
 C1335 C 0.10628 0.94049 0.23916
 N1336 N 0.13331 0.93954 0.23399
 N1337 N 0.14693 0.91657 0.23744
 C1338 C 0.13410 0.89356 0.24610
 N1339 N 0.10695 0.89439 0.25101
 N1340 N 0.09329 0.91746 0.24763
 C1341 C 0.14968 0.86846 0.25074
 C1342 C 0.17794 0.86972 0.25145
 H1343 H 0.10340 0.98281 0.22623
 H1344 H 0.13911 0.84947 0.25458
 H1345 H 0.05402 0.95112 0.24864
 H1346 H 0.18781 0.88929 0.24893
 C1347 C 0.58225 0.43869 0.71979
 C1348 C 0.58483 0.41671 0.73772
 C1349 C 0.60598 0.39622 0.73334
 N1350 N 0.60599 0.37290 0.74833
 N1351 N 0.62613 0.35514 0.74561
 C1352 C 0.64711 0.36024 0.72802
 N1353 N 0.64711 0.38355 0.71311
 N1354 N 0.62689 0.40115 0.71564
 C1355 C 0.67037 0.34187 0.72597
 C1356 C 0.66927 0.31512 0.73519
 H1357 H 0.57272 0.41570 0.75639
 H1358 H 0.68887 0.34960 0.71654
 H1359 H 0.59516 0.43969 0.70167
 H1360 H 0.65019 0.30657 0.74242
 C1361 C 0.91777 0.06779 0.22415
 C1362 C 0.89368 0.06959 0.20901
 C1363 C 0.87562 0.09318 0.21031
 N1364 N 0.85057 0.09167 0.19868
 N1365 N 0.83344 0.11239 0.20040
 C1366 C 0.84076 0.13548 0.21373
 N1367 N 0.86595 0.13714 0.22509
 N1368 N 0.88304 0.11634 0.22350
 C1369 C 0.82170 0.15823 0.21631
 C1370 C 0.79418 0.15528 0.20997
 H1371 H 0.88721 0.05266 0.19640
 H1372 H 0.82925 0.17726 0.22447
 H1373 H 0.92441 0.08508 0.23611
 H1374 H 0.78653 0.13580 0.20307
 C1375 C 0.44894 0.55088 0.75576
 C1376 C 0.42586 0.55530 0.77179
 C1377 C 0.40863 0.57933 0.76866
 N1378 N 0.38329 0.57884 0.77964
 N1379 N 0.36657 0.59961 0.77594
 C1380 C 0.37452 0.62176 0.76121
 N1381 N 0.40008 0.62252 0.75058
 N1382 N 0.41679 0.60157 0.75408
 C1383 C 0.35566 0.64449 0.75703
 C1384 C 0.32780 0.64042 0.76056
 H1385 H 0.41882 0.53959 0.78581
 H1386 H 0.36361 0.66432 0.75153
 H1387 H 0.45642 0.56702 0.74252
 H1388 H 0.32029 0.62004 0.76443
 C1389 C 0.96514 0.91863 0.76320
 C1390 C 0.96185 0.89442 0.77793
 C1391 C 0.93711 0.87762 0.77569
 N1392 N 0.93677 0.85216 0.78642
 N1393 N 0.91465 0.83655 0.78427
 C1394 C 0.89198 0.84591 0.77148
 N1395 N 0.89222 0.87148 0.76102
 N1396 N 0.91440 0.88703 0.76301
 C1397 C 0.86757 0.82874 0.76848
 C1398 C 0.86823 0.80083 0.77307
 H1399 H 0.97791 0.88738 0.79141
 H1400 H 0.84908 0.83806 0.76100
 H1401 H 0.94884 0.92520 0.74980
 H1402 H 0.88717 0.79134 0.77903
 C1403 C 0.45034 0.44297 0.24374
 C1404 C 0.42788 0.44006 0.26107
 C1405 C 0.40818 0.41787 0.25722
 N1406 N 0.38436 0.41761 0.27138
 N1407 N 0.36687 0.39701 0.26863
 C1408 C 0.37276 0.37586 0.25182
 N1409 N 0.39661 0.37608 0.23782
 N1410 N 0.41396 0.39673 0.24040
 C1411 C 0.35433 0.35255 0.24906
 C1412 C 0.32730 0.35313 0.25759
 H1413 H 0.42539 0.45346 0.27852
 H1414 H 0.36213 0.33459 0.23906
 H1415 H 0.45310 0.42864 0.22710
 H1416 H 0.31880 0.37164 0.26577
   
