data_POSCAR
  _audit_creation_date              2014-09-24
  _audit_creation_method            'ToBaCCo'
  _symmetry_space_group_name_H-M    'P1'
  _symmetry_Int_Tables_number       1
  _symmetry_cell_setting            triclinic
  loop_
  _symmetry_equiv_pos_as_xyz
 x,y,z
_cell_length_a 55.9969
_cell_length_b 55.0493
_cell_length_c 57.4374
_cell_angle_alpha 87.368900
_cell_angle_beta 89.088600
_cell_angle_gamma 88.384400
loop_
  _atom_site_label
  _atom_site_type_symbol
  _atom_site_fract_x
  _atom_site_fract_y
  _atom_site_fract_z
Si1 Si 0.76467 0.61444 1.00263
 Si2 Si 0.73977 0.37249 0.51553
 Si3 Si 0.24223 -0.12158 0.01121
 Si4 Si 0.25019 0.11089 0.49425
 Si5 Si 0.13979 0.50104 0.24755
 Si6 Si -0.13129 0.01945 0.25275
 Si7 Si 0.37579 0.51798 0.75002
 Si8 Si 0.61457 0.99957 0.75209
 Si9 Si 0.01121 0.23610 -0.12104
 Si10 Si 0.50949 0.25953 0.10834
 Si11 Si 0.99653 0.74827 0.60673
 Si12 Si 0.50922 0.75129 0.36307
 C13 C 0.41297 -0.01804 0.25914
 H14 H 0.41555 -0.00074 0.26682
 C15 C 0.42773 -0.03809 0.26541
 H16 H 0.44194 -0.03592 0.27764
 C17 C 0.39085 -0.04195 0.23435
 H18 H 0.37601 -0.04364 0.22281
 C19 C 0.40510 -0.06246 0.24020
 H20 H 0.40094 -0.07967 0.23304
 N21 N 0.39490 -0.02032 0.24393
 C22 C 0.37425 0.05272 0.21788
 H23 H 0.35517 0.05159 0.22081
 C24 C 0.38369 0.07378 0.20750
 H25 H 0.37174 0.08891 0.20266
 C26 C 0.41291 0.03430 0.22100
 H27 H 0.42416 0.01874 0.22603
 C28 C 0.42316 0.05510 0.21067
 H29 H 0.44230 0.05533 0.20774
 Zn30 Zn 0.37340 0.00638 0.23839
 N31 N 0.38886 0.03362 0.22458
 C32 C 0.36394 0.03697 0.27554
 N33 N 0.35990 0.01462 0.26751
 C34 C 0.34800 -0.00235 0.28079
 C35 C 0.33943 0.00302 0.30304
 C36 C 0.35579 0.04306 0.29760
 C37 C 0.35814 -0.00554 0.19516
 C38 C 0.34270 -0.01249 0.17807
 C39 C 0.31037 -0.01180 0.20643
 C40 C 0.32649 -0.00470 0.22304
 N41 N 0.34996 -0.00216 0.21720
 H42 H 0.37394 0.05004 0.26509
 H43 H 0.34552 -0.02020 0.27422
 H44 H 0.33026 -0.01075 0.31354
 H45 H 0.35908 0.06103 0.30354
 H46 H 0.37687 -0.00324 0.19101
 H47 H 0.34981 -0.01585 0.16084
 H48 H 0.29178 -0.01405 0.21133
 H49 H 0.32027 -0.00147 0.24056
 C50 C 0.40845 0.07518 0.20377
 C51 C 0.42364 -0.06079 0.25616
 C52 C 0.31851 -0.01593 0.18364
 C53 C 0.34353 0.02594 0.31176
 C54 C 0.09190 1.00358 0.77628
 H55 H 0.09157 0.98549 0.78444
 C56 C 0.07863 1.02260 0.78598
 H57 H 0.06817 1.01896 0.80170
 C58 C 0.10735 1.03056 0.74681
 H59 H 0.11905 1.03382 0.73195
 C60 C 0.09430 1.05001 0.75582
 H61 H 0.09571 1.06790 0.74735
 N62 N 0.10608 1.00791 0.75718
 C63 C 0.12304 0.93878 0.72626
 H64 H 0.14231 0.93963 0.72655
 C65 C 0.11236 0.91988 0.71540
 H66 H 0.12356 0.90597 0.70765
 C67 C 0.08514 0.95630 0.73569
 H68 H 0.07470 0.97090 0.74314
 C69 C 0.07366 0.93762 0.72496
 H70 H 0.05434 0.93798 0.72422
 Zn71 Zn 0.12661 0.98252 0.74703
 N72 N 0.10942 0.95656 0.73598
 C73 C 0.14422 0.94821 0.78115
 N74 N 0.14547 0.97162 0.77267
 C75 C 0.15879 0.98803 0.78332
 C76 C 0.17166 0.98105 0.80330
 C77 C 0.15681 0.94046 0.80101
 C78 C 0.13374 1.00002 0.70165
 C79 C 0.14611 1.00782 0.68157
 C80 C 0.18304 1.00224 0.70261
 C81 C 0.16990 0.99457 0.72238
 N82 N 0.14567 0.99384 0.72157
 H83 H 0.13299 0.93561 0.77291
 H84 H 0.15915 1.00664 0.77643
 H85 H 0.18222 0.99433 0.81151
 H86 H 0.15513 0.92189 0.80776
 H87 H 0.11448 0.99893 0.70144
 H88 H 0.13615 1.01315 0.66608
 H89 H 0.20233 1.00252 0.70346
 H90 H 0.17908 0.98899 0.73822
 C91 C 0.08737 0.91934 0.71429
 C92 C 0.08007 1.04629 0.77595
 C93 C 0.17112 1.00900 0.68184
 C94 C 0.17068 0.95698 0.81243
 C95 C 0.60243 0.51824 0.27690
 H96 H 0.60079 0.50161 0.28752
 C97 C 0.59033 0.53951 0.28343
 H98 H 0.57943 0.53908 0.29917
 C99 C 0.62007 0.53937 0.24443
 H100 H 0.63216 0.53951 0.22960
 C101 C 0.60828 0.56094 0.25025
 H102 H 0.61106 0.57728 0.23944
 N103 N 0.61722 0.51863 0.25787
 C104 C 0.63179 0.44411 0.23785
 H105 H 0.65109 0.44426 0.23848
 C106 C 0.62053 0.42375 0.23022
 H107 H 0.63135 0.40833 0.22482
 C108 C 0.59448 0.46472 0.24308
 H109 H 0.58451 0.48090 0.24782
 C110 C 0.58244 0.44470 0.23540
 H111 H 0.56313 0.44549 0.23456
 Zn112 Zn 0.63679 0.49083 0.25210
 N113 N 0.61874 0.46402 0.24411
 C114 C 0.64955 0.46135 0.29140
 N115 N 0.65405 0.48278 0.27963
 C116 C 0.66881 0.49919 0.28847
 C117 C 0.67986 0.49417 0.30992
 C118 C 0.65994 0.45577 0.31292
 C119 C 0.64567 0.49968 0.20538
 C120 C 0.65822 0.50573 0.18493
 C121 C 0.69426 0.50718 0.20733
 C122 C 0.68099 0.50083 0.22745
 N123 N 0.65703 0.49779 0.22614
 H124 H 0.63727 0.44883 0.28453
 H125 H 0.67154 0.51642 0.27913
 H126 H 0.69125 0.50751 0.31698
 H127 H 0.65593 0.43873 0.32213
 H128 H 0.62666 0.49681 0.20481
 H129 H 0.64871 0.50714 0.16863
 H130 H 0.71315 0.51044 0.20878
 H131 H 0.68976 0.49882 0.24406
 C132 C 0.59554 0.42390 0.22876
 C133 C 0.59361 0.56138 0.27029
 C134 C 0.68276 0.51009 0.18575
 C135 C 0.67510 0.47236 0.32253
 C136 C 0.91248 0.47301 0.77714
 H137 H 0.91260 0.49111 0.78371
 C138 C 0.92651 0.45436 0.78765
 H139 H 0.93775 0.45834 0.80208
 C140 C 0.89690 0.44567 0.75092
 H141 H 0.88472 0.44215 0.73715
 C142 C 0.91073 0.42651 0.76085
 H143 H 0.90909 0.40842 0.75450
 N144 N 0.89788 0.46834 0.75930
 C145 C 0.87825 0.53826 0.72556
 H146 H 0.85907 0.53643 0.72605
 C147 C 0.88816 0.55921 0.71548
 H148 H 0.87643 0.57333 0.70793
 C149 C 0.91673 0.52169 0.73451
 H150 H 0.92773 0.50697 0.74194
 C151 C 0.92745 0.54243 0.72454
 H152 H 0.94671 0.54362 0.72460
 Zn153 Zn 0.87636 0.49351 0.74907
 N154 N 0.89251 0.52022 0.73514
 C155 C 0.86187 0.52654 0.78300
 N156 N 0.85936 0.50354 0.77587
 C157 C 0.84692 0.48685 0.78897
 C158 C 0.83650 0.49305 0.81026
 C159 C 0.85190 0.53344 0.80416
 C160 C 0.86595 0.47650 0.70577
 C161 C 0.85203 0.46875 0.68777
 C162 C 0.81698 0.47375 0.71237
 C163 C 0.83162 0.48145 0.72993
 N164 N 0.85566 0.48242 0.72641
 H165 H 0.87230 0.53940 0.77272
 H166 H 0.84568 0.46851 0.78317
 H167 H 0.82714 0.47941 0.82076
 H168 H 0.85429 0.55177 0.80962
 H169 H 0.88509 0.47774 0.70336
 H170 H 0.86068 0.46363 0.67167
 H171 H 0.79787 0.47318 0.71539
 H172 H 0.82373 0.48682 0.74626
 C173 C 0.91305 0.56166 0.71512
 C174 C 0.92543 0.43065 0.77976
 C175 C 0.82719 0.46726 0.69094
 C176 C 0.83931 0.51651 0.81823
 C177 C 0.27282 0.41295 -0.03236
 H178 H 0.28324 0.41358 -0.01671
 C179 C 0.27936 0.42681 -0.05234
 H180 H 0.29492 0.43799 -0.05188
 C181 C 0.24114 0.39594 -0.05244
 H182 H 0.22671 0.38336 -0.05271
 C183 C 0.24694 0.40957 -0.07272
 H184 H 0.23648 0.40767 -0.08819
 N185 N 0.25427 0.39757 -0.03288
 C186 C 0.23323 0.37670 0.03846
 H187 H 0.23493 0.35718 0.03713
 C188 C 0.22462 0.38637 0.05904
 H189 H 0.21996 0.37413 0.07360
 C190 C 0.23738 0.41621 0.02093
 H191 H 0.24210 0.42768 0.00587
 C192 C 0.22884 0.42671 0.04131
 H193 H 0.22692 0.44631 0.04175
 Zn194 Zn 0.24953 0.37552 -0.00704
 N195 N 0.23940 0.39159 0.01995
 C196 C 0.29029 0.36212 0.01910
 N197 N 0.27919 0.35901 -0.00139
 C198 C 0.28997 0.34610 -0.01849
 C199 C 0.31278 0.33555 -0.01518
 C200 C 0.31307 0.35212 0.02303
 C201 C 0.20271 0.36372 -0.01512
 C202 C 0.18342 0.34933 -0.01975
 C203 C 0.21047 0.31438 -0.02046
 C204 C 0.22930 0.32949 -0.01570
 N205 N 0.22514 0.35375 -0.01350
 H206 H 0.28181 0.37292 0.03227
 H207 H 0.28101 0.34439 -0.03486
 H208 H 0.32128 0.32560 -0.02902
 H209 H 0.32159 0.35486 0.03947
 H210 H 0.19989 0.38303 -0.01302
 H211 H 0.16582 0.35780 -0.02156
 H212 H 0.21405 0.29512 -0.02225
 H213 H 0.24715 0.32180 -0.01379
 C214 C 0.22213 0.41168 0.06063
 C215 C 0.26669 0.42476 -0.07307
 C216 C 0.18716 0.32432 -0.02263
 C217 C 0.32471 0.33883 0.00571
 C218 C 0.78037 0.07481 1.01353
 H219 H 0.79067 0.07318 0.99755
 C220 C 0.78801 0.06248 1.03402
 H221 H 0.80409 0.05110 1.03362
 C222 C 0.74729 0.09224 1.03359
 H223 H 0.73181 0.10437 1.03359
 C224 C 0.75420 0.08018 1.05440
 H225 H 0.74392 0.08326 1.07017
 N226 N 0.76043 0.08948 1.01371
 C227 C 0.73503 0.10054 0.94254
 H228 H 0.73386 0.12021 0.94168
 C229 C 0.72793 0.08763 0.92365
 H230 H 0.72106 0.09754 0.90836
 C231 C 0.74476 0.06386 0.96395
 H232 H 0.75121 0.05473 0.97977
 C233 C 0.73771 0.05016 0.94543
 H234 H 0.73904 0.03050 0.94705
 Zn235 Zn 0.75257 0.10841 0.98637
 N236 N 0.74353 0.08860 0.96206
 C237 C 0.78934 0.12403 0.95524
 N238 N 0.77987 0.12631 0.97701
 C239 C 0.79020 0.14051 0.99259
 C240 C 0.81047 0.15370 0.98623
 C241 C 0.80946 0.13694 0.94814
 C242 C 0.70466 0.11882 0.99591
 C243 C 0.68441 0.13263 1.00186
 C244 C 0.70842 0.16845 1.00033
 C245 C 0.72825 0.15393 0.99422
 N246 N 0.72613 0.12949 0.99269
 H247 H 0.78146 0.11208 0.94332
 H248 H 0.78262 0.14163 1.00996
 H249 H 0.81821 0.16526 0.99869
 H250 H 0.81673 0.13478 0.93076
 H251 H 0.70341 0.09941 0.99425
 H252 H 0.66756 0.12366 1.00445
 H253 H 0.71067 0.18770 1.00238
 H254 H 0.74536 0.16217 0.99122
 C255 C 0.72934 0.06209 0.92486
 C256 C 0.77500 0.06534 1.05489
 C257 C 0.68620 0.15774 1.00465
 C258 C 0.82020 0.15217 0.96363
 C259 C 0.28532 0.59701 0.51305
 H260 H 0.29435 0.59555 0.49636
 C261 C 0.29541 0.58584 0.53307
 H262 H 0.31194 0.57533 0.53153
 C263 C 0.25343 0.61349 0.53546
 H264 H 0.23759 0.62502 0.53656
 C265 C 0.26286 0.60265 0.55587
 H266 H 0.25401 0.60598 0.57235
 N267 N 0.26483 0.61073 0.51461
 C268 C 0.23203 0.62253 0.44667
 H269 H 0.22848 0.64187 0.44771
 C270 C 0.22309 0.61021 0.42819
 H271 H 0.21266 0.62013 0.41498
 C272 C 0.24974 0.58604 0.46282
 H273 H 0.25985 0.57668 0.47654
 C274 C 0.24150 0.57304 0.44428
 H275 H 0.24527 0.55366 0.44381
 Zn276 Zn 0.25458 0.62965 0.48802
 N277 N 0.24492 0.61037 0.46359
 C278 C 0.28916 0.64708 0.45556
 N279 N 0.28064 0.64866 0.47775
 C280 C 0.29190 0.66190 0.49349
 C281 C 0.31283 0.67397 0.48718
 C282 C 0.30993 0.65892 0.44850
 C283 C 0.20728 0.63749 0.50126
 C284 C 0.18645 0.65041 0.50709
 C285 C 0.20793 0.68775 0.50158
 C286 C 0.22843 0.67405 0.49584
 N287 N 0.22776 0.64937 0.49603
 H288 H 0.28027 0.63606 0.44345
 H289 H 0.28493 0.66254 0.51113
 H290 H 0.32168 0.68427 0.49997
 H291 H 0.31677 0.65684 0.43094
 H292 H 0.20723 0.61784 0.50105
 H293 H 0.17051 0.64049 0.51174
 H294 H 0.20871 0.70739 0.50128
 H295 H 0.24480 0.68314 0.49119
 C296 C 0.22777 0.58518 0.42688
 C297 C 0.28438 0.58899 0.55493
 C298 C 0.18657 0.67589 0.50737
 C299 C 0.32221 0.67238 0.46446
 C300 C 0.76492 0.92733 0.47863
 H301 H 0.77210 0.92787 0.49597
 C302 C 0.77377 0.94272 0.46072
 H303 H 0.78731 0.95548 0.46470
 C304 C 0.73886 0.90963 0.45254
 H305 H 0.72580 0.89619 0.44925
 C306 C 0.74747 0.92443 0.43402
 H307 H 0.74084 0.92207 0.41670
 N308 N 0.74778 0.91122 0.47429
 C309 C 0.72051 0.88942 0.54362
 H310 H 0.72110 0.86991 0.54194
 C311 C 0.71309 0.89913 0.56462
 H312 H 0.70766 0.88696 0.57897
 C313 C 0.72666 0.92888 0.52675
 H314 H 0.73183 0.94042 0.51192
 C315 C 0.71924 0.93940 0.54746
 H316 H 0.71914 0.95900 0.54844
 Zn317 Zn 0.73923 0.88858 0.49862
 N318 N 0.72766 0.90426 0.52541
 C319 C 0.77682 0.87089 0.52762
 N320 N 0.76731 0.87003 0.50604
 C321 C 0.77865 0.85759 0.48896
 C322 C 0.80039 0.84523 0.49335
 C323 C 0.79845 0.85884 0.53273
 C324 C 0.69353 0.87997 0.48346
 C325 C 0.67454 0.86674 0.47580
 C326 C 0.69913 0.83008 0.48019
 C327 C 0.71773 0.84407 0.48774
 N328 N 0.71471 0.86861 0.48885
 H329 H 0.76799 0.88138 0.54081
 H330 H 0.77098 0.85765 0.47179
 H331 H 0.80938 0.83578 0.47945
 H332 H 0.80560 0.85968 0.55008
 H333 H 0.69152 0.89945 0.48491
 H334 H 0.65785 0.87617 0.47150
 H335 H 0.70199 0.81066 0.47885
 H336 H 0.73454 0.83532 0.49258
 C337 C 0.71269 0.92442 0.56685
 C338 C 0.76543 0.94107 0.43789
 C339 C 0.67728 0.84147 0.47383
 C340 C 0.81066 0.84598 0.51544
 C341 C -0.02575 0.28786 0.41628
 H342 H -0.00829 0.29558 0.41755
 C343 C -0.04499 0.29710 0.42926
 H344 H -0.04205 0.31166 0.44083
 C345 C -0.05073 0.25961 0.39947
 H346 H -0.05308 0.24541 0.38743
 C347 C -0.07045 0.26835 0.41202
 H348 H -0.08775 0.26069 0.40941
 N349 N -0.02889 0.26934 0.40186
 C350 C 0.04071 0.23437 0.38999
 H351 H 0.03994 0.23381 0.37121
 C352 C 0.06013 0.22366 0.40177
 H353 H 0.07442 0.21516 0.39186
 C354 C 0.02294 0.24636 0.42554
 H355 H 0.00822 0.25488 0.43474
 C356 C 0.04217 0.23590 0.43808
 H357 H 0.04207 0.23647 0.45690
 Zn358 Zn -0.00275 0.25845 0.38336
 N359 N 0.02270 0.24557 0.40189
 C360 C 0.03102 0.29173 0.36494
 N361 N 0.00780 0.28521 0.36431
 C362 C -0.00828 0.29804 0.35074
 C363 C -0.00107 0.31810 0.33677
 C364 C 0.03902 0.31141 0.35111
 C365 C -0.01788 0.21175 0.37672
 C366 C -0.02435 0.19161 0.36465
 C367 C -0.01880 0.21511 0.32849
 C368 C -0.01238 0.23485 0.34130
 N369 N -0.01225 0.23287 0.36499
 H370 H 0.04342 0.28182 0.37627
 H371 H -0.02672 0.29268 0.35079
 H372 H -0.01399 0.32803 0.32592
 H373 H 0.05756 0.31636 0.35192
 H374 H -0.01737 0.21062 0.39556
 H375 H -0.02920 0.17513 0.37438
 H376 H -0.01866 0.21691 0.30963
 H377 H -0.00734 0.25164 0.33229
 C378 C 0.06104 0.22426 0.42614
 C379 C -0.06778 0.28739 0.42714
 C380 C -0.02488 0.19311 0.34019
 C381 C 0.02293 0.32483 0.33673
 C382 C 1.01514 0.78676 0.10740
 H383 H 0.99898 0.79794 0.10821
 C384 C 1.03437 0.79437 0.09337
 H385 H 1.03291 0.81159 0.08353
 C386 C 1.03702 0.75129 0.12022
 H387 H 1.03798 0.73454 0.13078
 C388 C 1.05665 0.75819 0.10643
 H389 H 1.07255 0.74653 0.10640
 N390 N 1.01690 0.76569 0.12064
 C391 C 0.94595 0.73817 0.13657
 H392 H 0.94607 0.73758 0.15542
 C393 C 0.92638 0.72960 0.12504
 H394 H 0.91135 0.72269 0.13515
 C395 C 0.96551 0.74782 0.10058
 H396 H 0.98093 0.75466 0.09112
 C397 C 0.94621 0.73952 0.08831
 H398 H 0.94703 0.73993 0.06945
 Zn399 Zn 0.99145 0.75744 0.14126
 N400 N 0.96504 0.74701 0.12429
 C401 C 0.95923 0.79333 0.15860
 N402 N 0.98254 0.78573 0.15749
 C403 C 1.00007 0.79927 0.16612
 C404 C 0.99440 0.82125 0.17645
 C405 C 0.95277 0.81503 0.16893
 C406 C 0.99445 0.70877 0.15900
 C407 C 1.00340 0.68904 0.17261
 C408 C 1.02795 0.71655 0.19260
 C409 C 1.01837 0.73583 0.17870
 N410 N 1.00202 0.73165 0.16217
 H411 H 0.94555 0.78294 0.15104
 H412 H 1.01856 0.79339 0.16433
 H413 H 1.00857 0.83184 0.18312
 H414 H 0.93416 0.82091 0.16923
 H415 H 0.98214 0.70555 0.14527
 H416 H 0.99768 0.67092 0.16926
 H417 H 1.04118 0.72017 0.20545
 H418 H 1.02449 0.75401 0.18074
 C419 C 0.92639 0.73010 0.10059
 C420 C 1.05561 0.78016 0.09301
 C421 C 1.02062 0.69275 0.18947
 C422 C 0.97046 0.82937 0.17792
 C423 C 0.50473 0.28290 0.59864
 H424 H 0.48829 0.29368 0.59798
 C425 C 0.52524 0.29147 0.58718
 H426 H 0.52436 0.30901 0.57788
 C427 C 0.52606 0.24771 0.61298
 H428 H 0.52651 0.23093 0.62346
 C429 C 0.54690 0.25546 0.60161
 H430 H 0.56298 0.24415 0.60309
 N431 N 0.50554 0.26147 0.61138
 C432 C 0.43347 0.23487 0.62098
 H433 H 0.43299 0.23335 0.63983
 C434 C 0.41443 0.22679 0.60841
 H435 H 0.39916 0.21935 0.61776
 C436 C 0.45419 0.24636 0.58606
 H437 H 0.46995 0.25362 0.57750
 C438 C 0.43546 0.23842 0.57273
 H439 H 0.43699 0.23955 0.55390
 Zn440 Zn 0.47809 0.25259 0.62906
 N441 N 0.45284 0.24439 0.60974
 C442 C 0.44622 0.28917 0.64493
 N443 N 0.46867 0.27932 0.64703
 C444 C 0.48493 0.28903 0.66104
 C445 C 0.47866 0.30920 0.67400
 C446 C 0.43918 0.30917 0.65764
 C447 C 0.48872 0.20346 0.63739
 C448 C 0.49390 0.18188 0.65018
 C449 C 0.49079 0.20405 0.68550
 C450 C 0.48553 0.22525 0.67200
 N451 N 0.48501 0.22462 0.64837
 H452 H 0.43376 0.28176 0.63320
 H453 H 0.50280 0.28110 0.66208
 H454 H 0.49170 0.31658 0.68525
 H455 H 0.42128 0.31686 0.65556
 H456 H 0.48789 0.20346 0.61859
 H457 H 0.49748 0.16537 0.64103
 H458 H 0.49134 0.20485 0.70429
 H459 H 0.48199 0.24214 0.68043
 C460 C 0.41537 0.22819 0.58395
 C461 C 0.54681 0.27782 0.58878
 C462 C 0.49521 0.18203 0.67456
 C463 C 0.45544 0.31940 0.67247
 C464 C 0.47612 0.77302 0.93608
 H465 H 0.49309 0.78168 0.93758
 C466 C 0.45624 0.78118 0.94887
 H467 H 0.45817 0.79592 0.96049
 C468 C 0.45283 0.74379 0.91854
 H469 H 0.45128 0.72979 0.90615
 C470 C 0.43257 0.75134 0.93096
 H471 H 0.41571 0.74295 0.92792
 N472 N 0.47406 0.75468 0.92122
 C473 C 0.54552 0.72545 0.90634
 H474 H 0.54429 0.72586 0.88754
 C475 C 0.56618 0.71625 0.91707
 H476 H 0.58090 0.70984 0.90634
 C477 C 0.52781 0.73393 0.94294
 H478 H 0.51270 0.74066 0.95290
 C479 C 0.54826 0.72483 0.95446
 H480 H 0.54868 0.72455 0.97331
 Zn481 Zn 0.50043 0.74632 0.90185
 N482 N 0.52697 0.73428 0.91926
 C483 C 0.53133 0.78357 0.88639
 N484 N 0.50905 0.77478 0.88419
 C485 C 0.49247 0.78684 0.87062
 C486 C 0.49823 0.80841 0.85821
 C487 C 0.53784 0.80493 0.87427
 C488 C 0.48767 0.69930 0.89351
 C489 C 0.48105 0.67958 0.88092
 C490 C 0.48407 0.70483 0.84552
 C491 C 0.49064 0.72415 0.85885
 N492 N 0.49197 0.72112 0.88244
 H493 H 0.54404 0.77428 0.89783
 H494 H 0.47472 0.77974 0.86953
 H495 H 0.48492 0.81765 0.84728
 H496 H 0.55559 0.81171 0.87651
 H497 H 0.48907 0.69736 0.91227
 H498 H 0.47704 0.66261 0.89023
 H499 H 0.48309 0.70752 0.82677
 H500 H 0.49463 0.74150 0.85033
 C501 C 0.56779 0.71583 0.94145
 C502 C 0.43402 0.77046 0.94618
 C503 C 0.47905 0.68219 0.85659
 C504 C 0.52125 0.81763 0.85988
 C505 C 0.50285 -0.19824 0.35623
 C506 C 0.49727 -0.17653 0.34388
 C507 C 0.49133 -0.17647 0.32025
 C508 C 0.49197 -0.19870 0.30894
 C509 C 0.49780 -0.22053 0.32137
 C510 C 0.50299 -0.22036 0.34514
 C511 C 0.48406 -0.15284 0.30868
 C512 C 0.47064 -0.15046 0.28955
 C513 C 0.46040 -0.12664 0.28094
 C514 C 0.45474 -0.12313 0.25730
 C515 C 0.44351 -0.10147 0.24903
 C516 C 0.43741 -0.08297 0.26434
 C517 C 0.44324 -0.08646 0.28798
 C518 C 0.45453 -0.10802 0.29620
 H519 H 0.50677 -0.19776 0.37461
 H520 H 0.49699 -0.15974 0.35303
 H521 H 0.48806 -0.19938 0.29062
 H522 H 0.49786 -0.23747 0.31253
 H523 H 0.48877 -0.13665 0.31739
 H524 H 0.46616 -0.16630 0.28023
 H525 H 0.45888 -0.13727 0.24523
 H526 H 0.43942 -0.09929 0.23068
 H527 H 0.43822 -0.07291 0.30037
 H528 H 0.45766 -0.11037 0.31471
 C529 C 0.99280 0.26151 0.83858
 C530 C 0.98495 0.28229 0.82568
 C531 C 0.98565 0.30539 0.83507
 C532 C 0.99501 0.30727 0.85755
 C533 C 1.00262 0.28646 0.87047
 C534 C 1.00156 0.26350 0.86109
 C535 C 0.97653 0.32684 0.82087
 C536 C 0.97051 0.34833 0.82982
 C537 C 0.96001 0.36948 0.81617
 C538 C 0.94900 0.38834 0.82845
 C539 C 0.93822 0.40836 0.81663
 C540 C 0.93823 0.41007 0.79216
 C541 C 0.94969 0.39154 0.77978
 C542 C 0.96062 0.37152 0.79162
 H543 H 0.99170 0.24391 0.83107
 H544 H 0.97799 0.28026 0.80841
 H545 H 0.99675 0.32463 0.86528
 H546 H 1.00939 0.28833 0.88784
 H547 H 0.97347 0.32412 0.80266
 H548 H 0.97190 0.35039 0.84836
 H549 H 0.94836 0.38738 0.84734
 H550 H 0.92930 0.42221 0.82666
 H551 H 0.95029 0.39260 0.76090
 H552 H 0.96956 0.35792 0.78138
 C553 C 0.03649 1.21278 0.84263
 C554 C 0.04289 1.19335 0.82884
 C555 C 0.03114 1.17119 0.83151
 C556 C 0.01197 1.16932 0.84761
 C557 C 0.00558 1.18884 0.86140
 C558 C 0.01824 1.21050 0.85948
 C559 C 0.03978 1.15074 0.81737
 C560 C 0.03503 1.12728 0.82232
 C561 C 0.04631 1.10712 0.80944
 C562 C 0.03459 1.08496 0.80870
 C563 C 0.04530 1.06526 0.79756
 C564 C 0.06809 1.06728 0.78714
 C565 C 0.07988 1.08941 0.78811
 C566 C 0.06918 1.10906 0.79915
 H567 H 0.04598 1.22950 0.84008
 H568 H 0.05742 1.19552 0.81630
 H569 H 0.00172 1.15300 0.84962
 H570 H -0.00927 1.18681 0.87348
 H571 H 0.05156 1.15530 0.80279
 H572 H 0.02290 1.12229 0.83645
 H573 H 0.01709 1.08291 0.81673
 H574 H 0.03571 1.04849 0.79703
 H575 H 0.09774 1.09136 0.78090
 H576 H 0.07927 1.12543 0.80022
 C577 C 0.50120 0.70356 0.34785
 C578 C 0.50714 0.68259 0.33594
 C579 C 0.52710 0.68194 0.32090
 C580 C 0.54006 0.70330 0.31679
 C581 C 0.53406 0.72426 0.32868
 C582 C 0.51510 0.72434 0.34491
 C583 C 0.53393 0.65875 0.31003
 C584 C 0.55659 0.65295 0.30408
 C585 C 0.56468 0.62936 0.29464
 C586 C 0.58769 0.62782 0.28469
 C587 C 0.59684 0.60590 0.27655
 C588 C 0.58322 0.58482 0.27819
 C589 C 0.56014 0.58625 0.28810
 C590 C 0.55093 0.60827 0.29626
 H591 H 0.48593 0.70321 0.35955
 H592 H 0.49651 0.66659 0.33901
 H593 H 0.55481 0.70396 0.30441
 H594 H 0.54440 0.74030 0.32517
 H595 H 0.51999 0.64584 0.30812
 H596 H 0.57034 0.66597 0.30659
 H597 H 0.59880 0.64364 0.28341
 H598 H 0.61487 0.60535 0.26948
 H599 H 0.54919 0.57033 0.28957
 H600 H 0.53334 0.60836 0.30425
 C601 C 0.51460 0.30878 0.11943
 C602 C 0.52313 0.32760 0.13216
 C603 C 0.53837 0.32264 0.15103
 C604 C 0.54553 0.29831 0.15649
 C605 C 0.53703 0.27944 0.14360
 C606 C 0.52114 0.28453 0.12531
 C607 C 0.54696 0.34349 0.16372
 C608 C 0.55539 0.34175 0.18548
 C609 C 0.56416 0.36300 0.19745
 C610 C 0.58182 0.35922 0.21437
 C611 C 0.59155 0.37893 0.22504
 C612 C 0.58359 0.40286 0.21920
 C613 C 0.56507 0.40657 0.20309
 C614 C 0.55541 0.38686 0.19236
 H615 H 0.50306 0.31337 0.10488
 H616 H 0.51770 0.34616 0.12728
 H617 H 0.55797 0.29375 0.17031
 H618 H 0.54282 0.26087 0.14795
 H619 H 0.54600 0.36111 0.15457
 H620 H 0.55675 0.32419 0.19470
 H621 H 0.58859 0.34101 0.21889
 H622 H 0.60550 0.37547 0.23770
 H623 H 0.55857 0.42478 0.19823
 H624 H 0.54115 0.39045 0.18009
 C625 C 0.00863 0.76765 0.65020
 C626 C 0.01628 0.78606 0.66412
 C627 C 0.02175 0.80905 0.65413
 C628 C 0.01847 0.81356 0.63005
 C629 C 0.01096 0.79517 0.61621
 C630 C 0.00635 0.77204 0.62611
 C631 C 0.03068 0.82791 0.66916
 C632 C 0.04489 0.84561 0.66086
 C633 C 0.05513 0.86423 0.67530
 C634 C 0.07542 0.87622 0.66669
 C635 C 0.08577 0.89405 0.67937
 C636 C 0.07597 0.90048 0.70097
 C637 C 0.05536 0.88886 0.70948
 C638 C 0.04501 0.87086 0.69678
 H639 H 0.00465 0.75009 0.65830
 H640 H 0.01828 0.78224 0.68267
 H641 H 0.02146 0.83130 0.62182
 H642 H 0.00877 0.79902 0.59769
 H643 H 0.02670 0.82610 0.68764
 H644 H 0.05062 0.84578 0.64277
 H645 H 0.08340 0.87170 0.65007
 H646 H 0.10134 0.90305 0.67212
 H647 H 0.04741 0.89352 0.72605
 H648 H 0.02898 0.86253 0.70369
 C649 C 1.00605 0.70615 0.63565
 C650 C 1.00014 0.68458 0.64800
 C651 C 0.97658 0.67650 0.64829
 C652 C 0.95922 0.68995 0.63533
 C653 C 0.96516 0.71139 0.62296
 C654 C 0.98850 0.71982 0.62332
 C655 C 0.97067 0.65368 0.66155
 C656 C 0.94891 0.65010 0.67096
 C657 C 0.94164 0.62730 0.68347
 C658 C 0.92138 0.62817 0.69811
 C659 C 0.91256 0.60696 0.70883
 C660 C 0.92366 0.58426 0.70499
 C661 C 0.94428 0.58335 0.69074
 C662 C 0.95317 0.60466 0.68000
 H663 H 1.02429 0.71218 0.63576
 H664 H 1.01392 0.67433 0.65753
 H665 H 0.94111 0.68375 0.63432
 H666 H 0.95143 0.72114 0.61300
 H667 H 0.98482 0.64011 0.66430
 H668 H 0.93570 0.66486 0.66999
 H669 H 0.91215 0.64535 0.70106
 H670 H 0.89688 0.60831 0.72003
 H671 H 0.95303 0.56609 0.68723
 H672 H 0.96846 0.60313 0.66838
 C673 C 0.49296 0.23592 0.15091
 C674 C 0.48252 0.21664 0.16377
 C675 C 0.47366 0.19672 0.15247
 C676 C 0.47570 0.19635 0.12803
 C677 C 0.48602 0.21556 0.11528
 C678 C 0.49496 0.23529 0.12660
 C679 C 0.46336 0.17617 0.16648
 C680 C 0.44738 0.16140 0.15781
 C681 C 0.43763 0.13984 0.17065
 C682 C 0.41652 0.13018 0.16262
 C683 C 0.40709 0.10926 0.17339
 C684 C 0.41867 0.09737 0.19239
 C685 C 0.43993 0.10687 0.20037
 C686 C 0.44936 0.12789 0.18961
 H687 H 0.49946 0.25113 0.15998
 H688 H 0.48129 0.21729 0.18258
 H689 H 0.46993 0.18101 0.11867
 H690 H 0.48750 0.21475 0.09650
 H691 H 0.46866 0.17370 0.18449
 H692 H 0.44046 0.16554 0.14055
 H693 H 0.40730 0.13881 0.14786
 H694 H 0.39091 0.10216 0.16658
 H695 H 0.44918 0.09813 0.21504
 H696 H 0.46602 0.13433 0.19591
 C697 C 0.34040 0.52550 -0.21483
 C698 C 0.32654 0.51871 -0.19519
 C699 C 0.32825 0.49490 -0.18533
 C700 C 0.34452 0.47820 -0.19519
 C701 C 0.35834 0.48501 -0.21470
 C702 C 0.35622 0.50861 -0.22482
 C703 C 0.31396 0.48818 -0.16414
 C704 C 0.30734 0.46526 -0.15916
 C705 C 0.29503 0.45683 -0.13731
 C706 C 0.28476 0.43386 -0.13667
 C707 C 0.27499 0.42387 -0.11601
 C708 C 0.27528 0.43658 -0.09535
 C709 C 0.28512 0.45984 -0.09603
 C710 C 0.29494 0.46988 -0.11678
 H711 H 0.33892 0.54397 -0.22210
 H712 H 0.31447 0.53204 -0.18768
 H713 H 0.34720 0.46004 -0.18750
 H714 H 0.37104 0.47184 -0.22140
 H715 H 0.30853 0.50256 -0.15281
 H716 H 0.31102 0.45166 -0.17188
 H717 H 0.28478 0.42329 -0.15212
 H718 H 0.26803 0.40572 -0.11607
 H719 H 0.28552 0.47014 -0.08044
 H720 H 0.30311 0.48741 -0.11635
 C721 C 0.82376 1.01067 0.27577
 C722 C 0.80957 1.00412 0.29528
 C723 C 0.81992 0.99941 0.31725
 C724 C 0.84482 1.00137 0.31924
 C725 C 0.85886 1.00796 0.29985
 C726 C 0.84853 1.01229 0.27797
 C727 C 0.80471 0.99082 0.33725
 C728 C 0.81123 0.99216 0.35955
 C729 C 0.79849 0.98014 0.37952
 C730 C 0.81179 0.97255 0.39913
 C731 C 0.80103 0.96013 0.41805
 C732 C 0.77648 0.95539 0.41807
 C733 C 0.76295 0.96369 0.39867
 C734 C 0.77384 0.97588 0.37954
 H735 H 0.81541 1.01413 0.25905
 H736 H 0.79049 1.00254 0.29319
 H737 H 0.85382 0.99704 0.33546
 H738 H 0.87801 1.00903 0.30183
 H739 H 0.78819 0.98226 0.33328
 H740 H 0.82759 1.00098 0.36353
 H741 H 0.83081 0.97562 0.39955
 H742 H 0.81219 0.95365 0.43237
 H743 H 0.74392 0.96084 0.39827
 H744 H 0.76290 0.98210 0.36498
 C745 C 0.85715 0.04925 1.21271
 C746 C 0.84761 0.05402 1.19065
 C747 C 0.83386 0.03673 1.18018
 C748 C 0.82963 0.01448 1.19248
 C749 C 0.83926 0.00972 1.21465
 C750 C 0.85313 0.02706 1.22486
 C751 C 0.82568 0.04229 1.15603
 C752 C 0.80791 0.03106 1.14587
 C753 C 0.80012 0.03814 1.12189
 C754 C 0.77598 0.03638 1.11619
 C755 C 0.76786 0.04459 1.09422
 C756 C 0.78383 0.05439 1.07737
 C757 C 0.80819 0.05503 1.08272
 C758 C 0.81627 0.04695 1.10470
 H759 H 0.86826 0.06275 1.21981
 H760 H 0.85135 0.07119 1.18152
 H761 H 0.81967 0.00041 1.18481
 H762 H 0.83643 -0.00775 1.22356
 H763 H 0.83417 0.05725 1.14654
 H764 H 0.79764 0.01768 1.15574
 H765 H 0.76325 0.02932 1.12902
 H766 H 0.74904 0.04352 1.09047
 H767 H 0.82093 0.06254 1.07016
 H768 H 0.83515 0.04779 1.10821
 C769 C 0.33392 0.52920 0.72337
 C770 C 0.32194 0.53570 0.70269
 C771 C 0.33476 0.54178 0.68209
 C772 C 0.35992 0.54100 0.68262
 C773 C 0.37180 0.53462 0.70327
 C774 C 0.35893 0.52870 0.72374
 C775 C 0.32140 0.54771 0.66030
 C776 C 0.33074 0.56024 0.64186
 C777 C 0.31817 0.56605 0.61960
 C778 C 0.33172 0.57488 0.60041
 C779 C 0.32087 0.58164 0.57928
 C780 C 0.29608 0.57981 0.57679
 C781 C 0.28248 0.57064 0.59585
 C782 C 0.29335 0.56387 0.61704
 H783 H 0.32362 0.52418 0.73885
 H784 H 0.30259 0.53583 0.70274
 H785 H 0.37064 0.54453 0.66709
 H786 H 0.39116 0.53380 0.70314
 H787 H 0.30329 0.54151 0.65980
 H788 H 0.34870 0.56678 0.64285
 H789 H 0.35083 0.57687 0.60183
 H790 H 0.33182 0.58904 0.56511
 H791 H 0.26335 0.56890 0.59445
 H792 H 0.28204 0.55755 0.63133
 C793 C 0.17668 0.52671 0.26815
 C794 C 0.18984 0.53433 0.28689
 C795 C 0.18545 0.52471 0.30957
 C796 C 0.16859 0.50640 0.31299
 C797 C 0.15566 0.49865 0.29427
 C798 C 0.15944 0.50889 0.27176
 C799 C 0.19801 0.53449 0.32946
 C800 C 0.18707 0.53718 0.35016
 C801 C 0.19815 0.54892 0.36979
 C802 C 0.18342 0.56247 0.38465
 C803 C 0.19312 0.57412 0.40324
 C804 C 0.21766 0.57194 0.40768
 C805 C 0.23239 0.55777 0.39330
 C806 C 0.22274 0.54649 0.37434
 H807 H 0.17961 0.53507 0.25094
 H808 H 0.20280 0.54840 0.28383
 H809 H 0.16518 0.49822 0.33018
 H810 H 0.14223 0.48517 0.29769
 H811 H 0.21570 0.54155 0.32640
 H812 H 0.16847 0.53252 0.35225
 H813 H 0.16440 0.56440 0.38161
 H814 H 0.18142 0.58482 0.41423
 H815 H 0.25138 0.55587 0.39647
 H816 H 0.23443 0.53569 0.36345
 C817 C 0.63538 0.03212 0.78237
 C818 C 0.65082 0.03869 0.79963
 C819 C 0.66657 0.02146 0.81017
 C820 C 0.66697 -0.00256 0.80273
 C821 C 0.65170 -0.00905 0.78504
 C822 C 0.63581 0.00829 0.77474
 C823 C 0.68232 0.02962 0.82853
 C824 C 0.68979 0.01542 0.84672
 C825 C 0.70243 0.02563 0.86639
 C826 C 0.69817 0.01631 0.88919
 C827 C 0.70757 0.02759 0.90826
 C828 C 0.72158 0.04829 0.90482
 C829 C 0.72708 0.05660 0.88191
 C830 C 0.71770 0.04537 0.86291
 H831 H 0.62303 0.04583 0.77528
 H832 H 0.65013 0.05728 0.80509
 H833 H 0.67921 -0.01619 0.81028
 H834 H 0.65216 -0.02760 0.77951
 H835 H 0.68584 0.04889 0.82821
 H836 H 0.68424 -0.00327 0.84852
 H837 H 0.68665 0.00098 0.89230
 H838 H 0.70303 0.02076 0.92571
 H839 H 0.73839 0.07207 0.87869
 H840 H 0.72214 0.05241 0.84552
 C841 C 0.61535 0.98769 0.70509
 C842 C 0.62578 0.98195 0.68378
 C843 C 0.65068 0.97959 0.68131
 C844 C 0.66505 0.98368 0.70062
 C845 C 0.65453 0.98960 0.72200
 C846 C 0.62961 0.99140 0.72435
 C847 C 0.66070 0.97326 0.65827
 C848 C 0.68202 0.96203 0.65530
 C849 C 0.69048 0.95359 0.63236
 C850 C 0.70602 0.93320 0.63178
 C851 C 0.71338 0.92388 0.61052
 C852 C 0.70556 0.93496 0.58935
 C853 C 0.69069 0.95592 0.58989
 C854 C 0.68325 0.96518 0.61116
 H855 H 0.59606 0.98925 0.70655
 H856 H 0.61431 0.97910 0.66919
 H857 H 0.68433 0.98274 0.69919
 H858 H 0.66586 0.99284 0.73655
 H859 H 0.64909 0.97624 0.64346
 H860 H 0.69273 0.95687 0.67034
 H861 H 0.71209 0.92412 0.64783
 H862 H 0.72525 0.90800 0.61066
 H863 H 0.68441 0.96487 0.57387
 H864 H 0.67189 0.98142 0.61090
 C865 C 0.18104 0.48835 0.22004
 C866 C 0.19238 0.48012 0.19982
 C867 C 0.17889 0.47365 0.18072
 C868 C 0.15382 0.47617 0.18207
 C869 C 0.14259 0.48425 0.20223
 C870 C 0.15607 0.49050 0.22126
 C871 C 0.19130 0.46481 0.15956
 C872 C 0.18090 0.45009 0.14497
 C873 C 0.19238 0.44076 0.12359
 C874 C 0.18268 0.42034 0.11394
 C875 C 0.19231 0.41104 0.09354
 C876 C 0.21187 0.42205 0.08214
 C877 C 0.22144 0.44275 0.09152
 C878 C 0.21181 0.45205 0.11207
 H879 H 0.19178 0.49285 0.23464
 H880 H 0.21170 0.47852 0.19919
 H881 H 0.14276 0.47229 0.16751
 H882 H 0.12327 0.48589 0.20286
 H883 H 0.20973 0.46968 0.15668
 H884 H 0.16328 0.44349 0.14931
 H885 H 0.16753 0.41147 0.12224
 H886 H 0.18423 0.39536 0.08652
 H887 H 0.23652 0.45160 0.08311
 H888 H 0.21940 0.46821 0.11857
 C889 C -0.23635 0.33778 0.48789
 C890 C -0.21625 0.32561 0.47881
 C891 C -0.19333 0.33007 0.48693
 C892 C -0.19103 0.34609 0.50511
 C893 C -0.21111 0.35815 0.51420
 C894 C -0.23388 0.35422 0.50555
 C895 C -0.17224 0.31795 0.47607
 C896 C -0.15067 0.32801 0.47480
 C897 C -0.12962 0.31696 0.46293
 C898 C -0.11148 0.33220 0.45443
 C899 C -0.09138 0.32263 0.44298
 C900 C -0.08881 0.29748 0.44000
 C901 C -0.10674 0.28214 0.44899
 C902 C -0.12692 0.29174 0.46034
 H903 H -0.25378 0.33470 0.48084
 H904 H -0.21853 0.31323 0.46494
 H905 H -0.17377 0.34941 0.51234
 H906 H -0.20859 0.37092 0.52763
 H907 H -0.17510 0.30121 0.46746
 H908 H -0.14857 0.34594 0.48137
 H909 H -0.11305 0.35167 0.45632
 H910 H -0.07809 0.33502 0.43604
 H911 H -0.10506 0.26263 0.44746
 H912 H -0.14012 0.27932 0.46736
 C913 C 0.29196 0.87677 1.00353
 C914 C 0.31423 0.86570 0.99936
 C915 C 0.31657 0.84037 0.99776
 C916 C 0.29606 0.82624 1.00112
 C917 C 0.27372 0.83740 1.00532
 C918 C 0.27157 0.86273 1.00634
 C919 C 0.34062 0.82987 0.99233
 C920 C 0.34457 0.80770 0.98402
 C921 C 0.36848 0.79867 0.97626
 C922 C 0.37274 0.77349 0.97530
 C923 C 0.39433 0.76427 0.96633
 C924 C 0.41209 0.78008 0.95788
 C925 C 0.40802 0.80528 0.95920
 C926 C 0.38645 0.81450 0.96819
 H927 H 0.29062 0.89638 1.00434
 H928 H 0.32965 0.87705 0.99698
 H929 H 0.29705 0.80663 1.00070
 H930 H 0.25818 0.82623 1.00756
 H931 H 0.35561 0.84152 0.99442
 H932 H 0.32987 0.79566 0.98222
 H933 H 0.35918 0.76090 0.98127
 H934 H 0.39701 0.74475 0.96576
 H935 H 0.42110 0.81795 0.95235
 H936 H 0.38363 0.83402 0.96780
 C937 C 1.22094 0.84184 0.04061
 C938 C 1.20226 0.82725 0.04870
 C939 C 1.18077 0.82707 0.03649
 C940 C 1.17897 0.84053 0.01513
 C941 C 1.19773 0.85502 0.00703
 C942 C 1.21854 0.85647 0.02012
 C943 C 1.16068 0.81309 0.04686
 C944 C 1.13765 0.81898 0.04276
 C945 C 1.11730 0.80724 0.05527
 C946 C 1.09446 0.80981 0.04557
 C947 C 1.07449 0.80062 0.05753
 C948 C 1.07690 0.78874 0.07958
 C949 C 1.09978 0.78596 0.08922
 C950 C 1.11974 0.79516 0.07728
 H951 H 1.23708 0.84180 0.05063
 H952 H 1.20434 0.81665 0.06494
 H953 H 1.16316 0.83996 0.00462
 H954 H 1.19567 0.86523 -0.00936
 H955 H 1.16521 0.79849 0.05939
 H956 H 1.13322 0.83362 0.03023
 H957 H 1.09203 0.81918 0.02873
 H958 H 1.05713 0.80287 0.04955
 H959 H 1.10217 0.77741 0.10641
 H960 H 1.13678 0.79351 0.08586
 C961 C 0.71662 0.32832 0.52944
 C962 C 0.69717 0.31503 0.53811
 C963 C 0.67602 0.32709 0.54519
 C964 C 0.67508 0.35265 0.54458
 C965 C 0.69456 0.36584 0.53623
 C966 C 0.71520 0.35380 0.52808
 C967 C 0.65534 0.31286 0.55372
 C968 C 0.63276 0.32062 0.54986
 C969 C 0.61153 0.30779 0.55917
 C970 C 0.58973 0.31141 0.54766
 C971 C 0.56887 0.30116 0.55687
 C972 C 0.56927 0.28736 0.57808
 C973 C 0.59121 0.28356 0.58951
 C974 C 0.61212 0.29361 0.58015
 H975 H 0.73259 0.31868 0.52370
 H976 H 0.69843 0.29534 0.53885
 H977 H 0.65938 0.36249 0.55073
 H978 H 0.69334 0.38553 0.53571
 H979 H 0.65886 0.29534 0.56251
 H980 H 0.62955 0.33694 0.53895
 H981 H 0.58881 0.32237 0.53152
 H982 H 0.55241 0.30417 0.54741
 H983 H 0.59214 0.27353 0.60614
 H984 H 0.62846 0.29105 0.58987
 C985 C 0.29694 0.11572 0.50970
 C986 C 0.31624 0.12785 0.51818
 C987 C 0.31492 0.15308 0.52074
 C988 C 0.29385 0.16606 0.51411
 C989 C 0.27446 0.15381 0.50551
 C990 C 0.27582 0.12852 0.50370
 C991 C 0.33524 0.16439 0.53196
 C992 C 0.33876 0.18837 0.53223
 C993 C 0.35858 0.19832 0.54538
 C994 C 0.36856 0.22047 0.53780
 C995 C 0.38719 0.23017 0.55011
 C996 C 0.39590 0.21804 0.57045
 C997 C 0.38569 0.19603 0.57813
 C998 C 0.36718 0.18636 0.56587
 H999 H 0.29833 0.09617 0.50833
 H1000 H 0.33216 0.11736 0.52319
 H1001 H 0.29189 0.18543 0.51616
 H1002 H 0.25833 0.16403 0.50084
 H1003 H 0.34817 0.15201 0.54034
 H1004 H 0.32747 0.20107 0.52221
 H1005 H 0.36203 0.23018 0.52224
 H1006 H 0.39453 0.24733 0.54394
 H1007 H 0.39210 0.18614 0.59363
 H1008 H 0.35942 0.16970 0.57276
 C1009 C 0.81108 0.61966 0.01957
 C1010 C 0.82933 0.63140 0.03040
 C1011 C 0.82594 0.65535 0.03733
 C1012 C 0.80384 0.66746 0.03304
 C1013 C 0.78548 0.65557 0.02230
 C1014 C 0.78887 0.63144 0.01589
 C1015 C 0.84540 0.66637 0.05005
 C1016 C 0.84834 0.69038 0.05098
 C1017 C 0.86812 0.70048 0.06401
 C1018 C 0.87793 0.72261 0.05616
 C1019 C 0.89692 0.73226 0.06795
 C1020 C 0.90615 0.72014 0.08806
 C1021 C 0.89595 0.69827 0.09619
 C1022 C 0.87713 0.68856 0.08435
 H1023 H 0.81433 0.60125 0.01419
 H1024 H 0.84617 0.62168 0.03343
 H1025 H 0.80042 0.68579 0.03853
 H1026 H 0.76862 0.66518 0.01938
 H1027 H 0.85846 0.65396 0.05818
 H1028 H 0.83690 0.70298 0.04098
 H1029 H 0.87111 0.73227 0.04070
 H1030 H 0.90423 0.74933 0.06148
 H1031 H 0.90274 0.68846 0.11158
 H1032 H 0.86951 0.67185 0.09132
 C1033 C 0.73327 0.63610 0.96876
 C1034 C 0.71254 0.64869 0.96149
 C1035 C 0.69727 0.65998 0.97762
 C1036 C 0.70386 0.65927 1.00124
 C1037 C 0.72476 0.64676 1.00846
 C1038 C 0.73936 0.63472 0.99234
 C1039 C 0.67430 0.67077 0.96890
 C1040 C 0.65705 0.68093 0.98207
 C1041 C 0.63374 0.68918 0.97218
 C1042 C 0.62129 0.70910 0.98144
 C1043 C 0.59959 0.71756 0.97183
 C1044 C 0.58985 0.70604 0.95294
 C1045 C 0.60184 0.68543 0.94442
 C1046 C 0.62347 0.67706 0.95394
 H1047 H 0.74397 0.62683 0.95592
 H1048 H 0.70802 0.64889 0.94321
 H1049 H 0.69282 0.66768 1.01436
 H1050 H 0.72902 0.64564 1.02681
 H1051 H 0.67125 0.66972 0.95039
 H1052 H 0.65985 0.68380 1.00028
 H1053 H 0.62866 0.71849 0.99573
 H1054 H 0.59080 0.73351 0.97875
 H1055 H 0.59445 0.67571 0.93036
 H1056 H 0.63199 0.66096 0.94709
 C1057 C 0.21706 0.12880 0.46038
 C1058 C 0.19675 0.14177 0.45264
 C1059 C 0.18322 0.15623 0.46776
 C1060 C 0.19092 0.15786 0.49089
 C1061 C 0.21143 0.14489 0.49860
 C1062 C 0.22454 0.13021 0.48341
 C1063 C 0.16108 0.16833 0.45847
 C1064 C 0.14507 0.18128 0.47078
 C1065 C 0.12279 0.19152 0.46013
 C1066 C 0.11271 0.21342 0.46784
 C1067 C 0.09232 0.22392 0.45720
 C1068 C 0.08155 0.21254 0.43878
 C1069 C 0.09101 0.19005 0.43187
 C1070 C 0.11130 0.17960 0.44246
 H1071 H 0.22647 0.11731 0.44833
 H1072 H 0.19131 0.14004 0.43478
 H1073 H 0.18120 0.16877 0.50322
 H1074 H 0.21681 0.14596 0.51654
 H1075 H 0.15773 0.16613 0.44017
 H1076 H 0.14832 0.18518 0.48870
 H1077 H 0.12102 0.22276 0.48166
 H1078 H 0.08541 0.24126 0.46290
 H1079 H 0.08269 0.18048 0.41822
 H1080 H 0.11786 0.16212 0.43682
 C1081 C 0.60613 0.04633 0.73208
 C1082 C 0.59274 0.06729 0.72602
 C1083 C 0.56813 0.06862 0.73085
 C1084 C 0.55711 0.04843 0.74199
 C1085 C 0.57067 0.02742 0.74828
 C1086 C 0.59531 0.02644 0.74358
 C1087 C 0.55507 0.09162 0.72444
 C1088 C 0.53172 0.09320 0.71965
 C1089 C 0.52045 0.11623 0.71038
 C1090 C 0.50263 0.11540 0.69359
 C1091 C 0.49378 0.13684 0.68247
 C1092 C 0.50237 0.15954 0.68819
 C1093 C 0.51910 0.16043 0.70607
 C1094 C 0.52803 0.13900 0.71709
 H1095 H 0.62512 0.04582 0.72815
 H1096 H 0.60165 0.08253 0.71744
 H1097 H 0.53823 0.04899 0.74631
 H1098 H 0.56196 0.01216 0.75697
 H1099 H 0.56573 0.10764 0.72165
 H1100 H 0.52130 0.07692 0.72003
 H1101 H 0.49629 0.09808 0.68836
 H1102 H 0.48055 0.13565 0.66905
 H1103 H 0.52605 0.17763 0.71088
 H1104 H 0.54121 0.14029 0.73054
 C1105 C 1.12603 0.54150 0.21801
 C1106 C 1.11420 0.56361 0.21258
 C1107 C 1.09814 0.57393 0.22854
 C1108 C 1.09425 0.56171 0.25030
 C1109 C 1.10631 0.53958 0.25580
 C1110 C 1.12211 0.52925 0.23960
 C1111 C 1.08681 0.59788 0.22209
 C1112 C 1.06586 0.60592 0.23084
 C1113 C 1.05443 0.62917 0.22225
 C1114 C 1.02946 0.63102 0.22081
 C1115 C 1.01836 0.65196 0.21078
 C1116 C 1.03202 0.67162 0.20236
 C1117 C 1.05693 0.67025 0.20498
 C1118 C 1.06804 0.64927 0.21483
 H1119 H 1.13867 0.53443 0.20543
 H1120 H 1.11775 0.57278 0.19584
 H1121 H 1.08253 0.56947 0.26331
 H1122 H 1.10359 0.53073 0.27283
 H1123 H 1.09545 0.60862 0.20827
 H1124 H 1.05580 0.59435 0.24292
 H1125 H 1.01860 0.61590 0.22668
 H1126 H 0.99909 0.65266 0.20929
 H1127 H 1.06794 0.68507 0.19862
 H1128 H 1.08729 0.64872 0.21636
 C1129 C 0.88509 0.97046 0.26018
 C1130 C 0.89840 0.94963 0.25480
 C1131 C 0.91512 0.95011 0.23631
 C1132 C 0.91881 0.97237 0.22378
 C1133 C 0.90546 0.99330 0.22928
 C1134 C 0.88841 0.99242 0.24739
 C1135 C 0.92706 0.92669 0.23037
 C1136 C 0.94043 0.92322 0.21115
 C1137 C 0.94896 0.89873 0.20442
 C1138 C 0.96947 0.89655 0.19021
 C1139 C 0.97695 0.87390 0.18220
 C1140 C 0.96382 0.85303 0.18795
 C1141 C 0.94344 0.85516 0.20236
 C1142 C 0.93604 0.87772 0.21045
 H1143 H 0.87177 0.96902 0.27394
 H1144 H 0.89507 0.93283 0.26473
 H1145 H 0.93162 0.97386 0.20958
 H1146 H 0.90811 1.01007 0.21908
 H1147 H 0.92371 0.91121 0.24216
 H1148 H 0.94508 0.93840 0.19955
 H1149 H 0.97956 0.91248 0.18508
 H1150 H 0.99254 0.87286 0.17085
 H1151 H 0.93301 0.83938 0.20712
 H1152 H 0.91970 0.87870 0.22070
 C1153 C 0.41823 0.48957 0.74062
 C1154 C 0.43046 0.46876 0.73302
 C1155 C 0.41780 0.44912 0.72513
 C1156 C 0.39273 0.45108 0.72413
 C1157 C 0.38062 0.47183 0.73158
 C1158 C 0.39321 0.49102 0.74020
 C1159 C 0.43095 0.42730 0.71696
 C1160 C 0.42156 0.40511 0.71887
 C1161 C 0.43197 0.38295 0.70841
 C1162 C 0.41751 0.36257 0.70783
 C1163 C 0.42539 0.34179 0.69667
 C1164 C 0.44805 0.34079 0.68591
 C1165 C 0.46301 0.36072 0.68726
 C1166 C 0.45508 0.38165 0.69838
 H1167 H 0.42833 0.50443 0.74670
 H1168 H 0.44980 0.46787 0.73349
 H1169 H 0.38241 0.43683 0.71717
 H1170 H 0.36130 0.47287 0.73066
 H1171 H 0.44840 0.42995 0.70912
 H1172 H 0.40449 0.40313 0.72780
 H1173 H 0.39973 0.36291 0.71556
 H1174 H 0.41363 0.32653 0.69626
 H1175 H 0.48057 0.36043 0.67909
 H1176 H 0.46706 0.39666 0.69875
 C1177 C 0.39346 0.56587 0.75011
 C1178 C 0.40654 0.58443 0.75915
 C1179 C 0.42113 0.57983 0.77862
 C1180 C 0.42297 0.55587 0.78837
 C1181 C 0.40979 0.53736 0.77935
 C1182 C 0.39491 0.54226 0.76025
 C1183 C 0.43350 0.60064 0.78825
 C1184 C 0.44311 0.60020 0.80954
 C1185 C 0.45350 0.62172 0.81978
 C1186 C 0.46994 0.61792 0.83785
 C1187 C 0.47879 0.63755 0.84929
 C1188 C 0.47118 0.66151 0.84310
 C1189 C 0.45503 0.66538 0.82472
 C1190 C 0.44622 0.64573 0.81322
 H1191 H 0.38185 0.57023 0.73556
 H1192 H 0.40479 0.60262 0.75121
 H1193 H 0.43442 0.55115 0.80293
 H1194 H 0.41103 0.51922 0.78745
 H1195 H 0.43386 0.61730 0.77750
 H1196 H 0.44327 0.58364 0.82037
 H1197 H 0.47578 0.59964 0.84331
 H1198 H 0.49147 0.63395 0.86314
 H1199 H 0.44847 0.68356 0.81982
 H1200 H 0.43300 0.64943 0.79991
 C1201 C -0.12774 0.06722 0.26719
 C1202 C -0.11608 0.08760 0.27430
 C1203 C -0.09114 0.08725 0.27630
 C1204 C -0.07799 0.06608 0.27054
 C1205 C -0.08974 0.04565 0.26334
 C1206 C -0.11467 0.04618 0.26159
 C1207 C -0.07983 0.10936 0.28432
 C1208 C -0.05834 0.10931 0.29430
 C1209 C -0.04873 0.13120 0.30458
 C1210 C -0.03282 0.12807 0.32315
 C1211 C -0.02468 0.14817 0.33440
 C1212 C -0.03213 0.17189 0.32716
 C1213 C -0.04720 0.17509 0.30787
 C1214 C -0.05537 0.15498 0.29664
 H1215 H -0.14704 0.06789 0.26605
 H1216 H -0.12665 0.10363 0.27853
 H1217 H -0.05870 0.06526 0.27131
 H1218 H -0.07932 0.02952 0.25922
 H1219 H -0.09067 0.12597 0.28365
 H1220 H -0.04833 0.09235 0.29704
 H1221 H -0.02715 0.10999 0.32939
 H1222 H -0.01266 0.14514 0.34889
 H1223 H -0.05323 0.19312 0.30185
 H1224 H -0.06693 0.15818 0.28183
 C1225 C 0.13360 0.45265 0.26304
 C1226 C 0.12102 0.43249 0.27130
 C1227 C 0.09604 0.43376 0.27388
 C1228 C 0.08385 0.45582 0.26754
 C1229 C 0.09659 0.47611 0.25924
 C1230 C 0.12156 0.47467 0.25731
 C1231 C 0.08412 0.41177 0.28384
 C1232 C 0.06043 0.40906 0.28619
 C1233 C 0.05012 0.38679 0.29742
 C1234 C 0.02789 0.38845 0.30900
 C1235 C 0.01860 0.36816 0.32124
 C1236 C 0.03139 0.34582 0.32206
 C1237 C 0.05301 0.34385 0.30951
 C1238 C 0.06219 0.36401 0.29716
 H1239 H 0.15289 0.45115 0.26149
 H1240 H 0.13094 0.41583 0.27591
 H1241 H 0.06467 0.45776 0.26918
 H1242 H 0.08692 0.49285 0.25455
 H1243 H 0.09592 0.39713 0.29024
 H1244 H 0.04816 0.42374 0.28102
 H1245 H 0.01807 0.40568 0.30921
 H1246 H 0.00185 0.37015 0.33075
 H1247 H 0.06291 0.32667 0.30935
 H1248 H 0.07876 0.36162 0.28750
 C1249 C 0.59890 0.95100 0.75318
 C1250 C 0.58790 0.93057 0.76320
 C1251 C 0.57539 0.93180 0.78449
 C1252 C 0.57388 0.95419 0.79548
 C1253 C 0.58494 0.97470 0.78536
 C1254 C 0.59761 0.97318 0.76421
 C1255 C 0.56605 0.90890 0.79525
 C1256 C 0.54975 0.90770 0.81260
 C1257 C 0.54232 0.88422 0.82380
 C1258 C 0.51959 0.88258 0.83433
 C1259 C 0.51247 0.86083 0.84563
 C1260 C 0.52811 0.84040 0.84692
 C1261 C 0.55086 0.84209 0.83640
 C1262 C 0.55794 0.86373 0.82508
 H1263 H 0.60892 0.94908 0.73710
 H1264 H 0.58958 0.91356 0.75447
 H1265 H 0.56500 0.95581 0.81220
 H1266 H 0.58413 0.99159 0.79433
 H1267 H 0.57284 0.89215 0.78812
 H1268 H 0.54105 0.92417 0.81848
 H1269 H 0.50734 0.89817 0.83383
 H1270 H 0.49495 0.86017 0.85386
 H1271 H 0.56328 0.82664 0.83700
 H1272 H 0.57589 0.86445 0.81788
 C1273 C 0.72810 0.58788 0.02612
 C1274 C 0.71863 0.57333 0.04435
 C1275 C 0.73354 0.56240 0.06149
 C1276 C 0.75841 0.56507 0.05910
 C1277 C 0.76784 0.57967 0.04082
 C1278 C 0.75269 0.59183 0.02467
 C1279 C 0.72211 0.54958 0.08187
 C1280 C 0.73315 0.54343 0.10196
 C1281 C 0.71994 0.53442 0.12301
 C1282 C 0.73147 0.51862 0.13937
 C1283 C 0.71949 0.51055 0.15975
 C1284 C 0.69583 0.51845 0.16426
 C1285 C 0.68456 0.53474 0.14807
 C1286 C 0.69643 0.54262 0.12772
 H1287 H 0.71602 0.59643 0.01351
 H1288 H 0.69945 0.57131 0.04548
 H1289 H 0.77073 0.55633 0.07132
 H1290 H 0.78692 0.58183 0.03981
 H1291 H 0.70316 0.54645 0.08069
 H1292 H 0.75217 0.54548 0.10358
 H1293 H 0.74971 0.51236 0.13627
 H1294 H 0.72865 0.49796 0.17182
 H1295 H 0.66665 0.54183 0.15134
 H1296 H 0.68735 0.55567 0.11604
 C1297 C 0.21973 1.07663 0.51692
 C1298 C 0.21050 1.06332 0.53619
 C1299 C 0.22033 1.06513 0.55840
 C1300 C 0.23950 1.08077 0.56090
 C1301 C 0.24870 1.09396 0.54165
 C1302 C 0.23899 1.09191 0.51951
 C1303 C 0.20916 1.05176 0.57861
 C1304 C 0.21999 1.04736 0.59914
 C1305 C 0.20788 1.03621 0.61994
 C1306 C 0.21565 1.04189 0.64211
 C1307 C 0.20401 1.03277 0.66222
 C1308 C 0.18446 1.01752 0.66058
 C1309 C 0.17728 1.01106 0.63839
 C1310 C 0.18886 1.02027 0.61828
 H1311 H 0.21167 1.07521 0.50004
 H1312 H 0.19550 1.05173 0.53379
 H1313 H 0.24702 1.08364 0.57773
 H1314 H 0.26305 1.10620 0.54437
 H1315 H 0.19107 1.04593 0.57647
 H1316 H 0.23805 1.05313 0.60144
 H1317 H 0.23039 1.05398 0.64386
 H1318 H 0.20990 1.03823 0.67902
 H1319 H 0.16270 0.99881 0.63656
 H1320 H 0.18295 1.01469 0.60155
 C1321 C 0.21239 0.91010 0.98314
 C1322 C 0.20504 0.92185 0.96227
 C1323 C 0.21858 0.91940 0.94168
 C1324 C 0.24022 0.90577 0.94265
 C1325 C 0.24748 0.89396 0.96349
 C1326 C 0.23352 0.89582 0.98384
 C1327 C 0.20943 0.93101 0.91963
 C1328 C 0.21545 0.92301 0.89854
 C1329 C 0.20477 0.93286 0.87648
 C1330 C 0.20533 0.91811 0.85718
 C1331 C 0.19467 0.92611 0.83629
 C1332 C 0.18334 0.94918 0.83415
 C1333 C 0.18348 0.96433 0.85319
 C1334 C 0.19413 0.95631 0.87413
 H1335 H 0.20128 0.91169 0.99863
 H1336 H 0.18840 0.93239 0.96209
 H1337 H 0.25165 0.90412 0.92742
 H1338 H 0.26387 0.88311 0.96344
 H1339 H 0.19588 0.94528 0.92110
 H1340 H 0.22732 0.90726 0.89730
 H1341 H 0.21369 0.90011 0.85838
 H1342 H 0.19525 0.91419 0.82179
 H1343 H 0.17484 0.98219 0.85209
 H1344 H 0.19398 0.96856 0.88832
 C1345 C 0.70611 0.38587 0.48059
 C1346 C 0.69833 0.39778 0.46007
 C1347 C 0.71301 0.41419 0.44758
 C1348 C 0.73581 0.41856 0.45630
 C1349 C 0.74360 0.40653 0.47697
 C1350 C 0.72874 0.39020 0.48929
 C1351 C 0.70380 0.42516 0.42529
 C1352 C 0.71382 0.44331 0.41251
 C1353 C 0.70343 0.45269 0.39012
 C1354 C 0.71849 0.46220 0.37236
 C1355 C 0.70928 0.46936 0.35047
 C1356 C 0.68486 0.46709 0.34607
 C1357 C 0.66965 0.45882 0.36421
 C1358 C 0.67875 0.45193 0.38604
 H1359 H 0.69447 0.37284 0.48920
 H1360 H 0.68080 0.39384 0.45373
 H1361 H 0.74794 0.43068 0.44711
 H1362 H 0.76137 0.40968 0.48316
 H1363 H 0.68777 0.41732 0.41894
 H1364 H 0.73039 0.45087 0.41778
 H1365 H 0.73749 0.46334 0.37518
 H1366 H 0.72133 0.47584 0.33677
 H1367 H 0.65064 0.45757 0.36142
 H1368 H 0.66636 0.44594 0.39961
 C1369 C 0.74829 0.41712 0.53723
 C1370 C 0.75596 0.43076 0.55556
 C1371 C 0.76359 0.41916 0.57656
 C1372 C 0.76347 0.39360 0.57883
 C1373 C 0.75587 0.38006 0.56054
 C1374 C 0.74856 0.39168 0.53956
 C1375 C 0.77318 0.43394 0.59505
 C1376 C 0.77376 0.42626 0.61757
 C1377 C 0.78608 0.43903 0.63593
 C1378 C 0.78088 0.43265 0.65938
 C1379 C 0.79372 0.44234 0.67727
 C1380 C 0.81222 0.45853 0.67209
 C1381 C 0.81707 0.46538 0.64865
 C1382 C 0.80423 0.45571 0.63075
 H1383 H 0.74246 0.42647 0.52127
 H1384 H 0.75605 0.45040 0.55330
 H1385 H 0.76996 0.38386 0.59435
 H1386 H 0.75622 0.36039 0.56260
 H1387 H 0.77986 0.45163 0.58976
 H1388 H 0.76492 0.40966 0.62300
 H1389 H 0.76717 0.41968 0.66387
 H1390 H 0.78975 0.43647 0.69513
 H1391 H 0.83106 0.47801 0.64411
 H1392 H 0.80927 0.46071 0.61297
 C1393 C 0.24167 -0.07602 0.03343
 C1394 C 0.24656 -0.06098 0.05167
 C1395 C 0.25686 -0.07072 0.07230
 C1396 C 0.26259 -0.09577 0.07416
 C1397 C 0.25780 -0.11069 0.05593
 C1398 C 0.24706 -0.10106 0.03554
 C1399 C 0.26352 -0.05418 0.09063
 C1400 C 0.26590 -0.06169 0.11305
 C1401 C 0.27666 -0.04708 0.13103
 C1402 C 0.27398 -0.05475 0.15457
 C1403 C 0.28664 -0.04380 0.17186
 C1404 C 0.30240 -0.02504 0.16593
 C1405 C 0.30426 -0.01659 0.14253
 C1406 C 0.29162 -0.02751 0.12524
 H1407 H 0.23413 -0.06787 0.01766
 H1408 H 0.24252 -0.04165 0.04957
 H1409 H 0.27167 -0.10379 0.08924
 H1410 H 0.26340 -0.12963 0.05754
 H1411 H 0.26672 -0.03545 0.08526
 H1412 H 0.26036 -0.07978 0.11854
 H1413 H 0.26273 -0.06988 0.15950
 H1414 H 0.28502 -0.05088 0.18971
 H1415 H 0.31610 -0.00198 0.13749
 H1416 H 0.29464 -0.02128 0.10735
 C1417 C 0.26069 0.06720 0.47042
 C1418 C 0.26996 0.05424 0.45174
 C1419 C 0.28160 0.06641 0.43296
 C1420 C 0.28335 0.09185 0.43297
 C1421 C 0.27400 0.10473 0.45151
 C1422 C 0.26250 0.09256 0.47026
 C1423 C 0.29088 0.05253 0.41309
 C1424 C 0.30999 0.05968 0.40048
 C1425 C 0.31876 0.04819 0.37903
 C1426 C 0.34190 0.05340 0.37095
 C1427 C 0.35017 0.04544 0.34951
 C1428 C 0.33540 0.03219 0.33550
 C1429 C 0.31250 0.02618 0.34387
 C1430 C 0.30418 0.03418 0.36541
 H1431 H 0.25209 0.05740 0.48482
 H1432 H 0.26824 0.03468 0.45202
 H1433 H 0.29146 0.10196 0.41846
 H1434 H 0.27549 0.12432 0.45107
 H1435 H 0.28204 0.03600 0.40922
 H1436 H 0.31994 0.07490 0.40611
 H1437 H 0.35350 0.06415 0.38107
 H1438 H 0.36806 0.04997 0.34371
 H1439 H 0.30065 0.01620 0.33333
 H1440 H 0.28604 0.03025 0.37075
 C1441 C 0.79166 0.61300 0.96101
 C1442 C 0.80165 0.60225 0.94148
 C1443 C 0.79843 0.57752 0.93785
 C1444 C 0.78550 0.56353 0.95462
 C1445 C 0.77554 0.57435 0.97426
 C1446 C 0.77841 0.59918 0.97739
 C1447 C 0.80927 0.56723 0.91664
 C1448 C 0.80198 0.54695 0.90710
 C1449 C 0.81229 0.53822 0.88495
 C1450 C 0.79830 0.52430 0.87079
 C1451 C 0.80711 0.51687 0.84923
 C1452 C 0.83012 0.52321 0.84148
 C1453 C 0.84445 0.53630 0.85605
 C1454 C 0.83573 0.54358 0.87759
 H1455 H 0.79410 0.63220 0.96323
 H1456 H 0.81168 0.61340 0.92899
 H1457 H 0.78323 0.54427 0.95283
 H1458 H 0.76550 0.56335 0.98684
 H1459 H 0.82283 0.57791 0.90769
 H1460 H 0.78689 0.53740 0.91465
 H1461 H 0.78031 0.51967 0.87617
 H1462 H 0.79573 0.50672 0.83836
 H1463 H 0.86251 0.54080 0.85081
 H1464 H 0.84749 0.55328 0.88843
 C1465 C 0.01808 0.72249 0.56995
 C1466 C 0.03731 0.71475 0.55602
 C1467 C 0.06001 0.72464 0.55815
 C1468 C 0.06297 0.74261 0.57446
 C1469 C 0.04376 0.75031 0.58831
 C1470 C 0.02123 0.74025 0.58623
 C1471 C 0.08042 0.71429 0.54467
 C1472 C 0.10127 0.72547 0.54111
 C1473 C 0.12271 0.71358 0.53068
 C1474 C 0.14534 0.72141 0.53673
 C1475 C 0.16609 0.70959 0.52873
 C1476 C 0.16466 0.68977 0.51429
 C1477 C 0.14202 0.68266 0.50734
 C1478 C 0.12126 0.69444 0.51539
 H1479 H 0.00090 0.71421 0.56839
 H1480 H 0.03456 0.70066 0.54386
 H1481 H 0.08023 0.75010 0.57744
 H1482 H 0.04692 0.76354 0.60117
 H1483 H 0.07829 0.69628 0.53835
 H1484 H 0.10346 0.74349 0.54736
 H1485 H 0.14696 0.73622 0.54833
 H1486 H 0.18323 0.71543 0.53452
 H1487 H 0.14035 0.66788 0.49572
 H1488 H 0.10421 0.68850 0.50955
 C1489 C 0.54439 0.22255 1.10130
 C1490 C 0.56435 0.21179 1.09083
 C1491 C 0.57570 0.22325 1.07155
 C1492 C 0.56674 0.24612 1.06308
 C1493 C 0.54672 0.25705 1.07380
 C1494 C 0.53524 0.24512 1.09277
 C1495 C 0.59708 0.21073 1.06169
 C1496 C 0.60589 0.21474 1.04004
 C1497 C 0.62618 0.19990 1.03081
 C1498 C 0.64134 0.20999 1.01346
 C1499 C 0.66078 0.19638 1.00479
 C1500 C 0.66528 0.17228 1.01315
 C1501 C 0.64975 0.16208 1.03014
 C1502 C 0.63037 0.17559 1.03870
 H1503 H 0.53652 0.21327 1.11641
 H1504 H 0.57099 0.19435 1.09791
 H1505 H 0.57539 0.25585 1.04865
 H1506 H 0.54033 0.27483 1.06742
 H1507 H 0.60550 0.19678 1.07292
 H1508 H 0.59826 0.22907 1.02873
 H1509 H 0.63830 0.22853 1.00681
 H1510 H 0.67218 0.20467 0.99144
 H1511 H 0.65273 0.14367 1.03714
 H1512 H 0.61859 0.16673 1.05133
 C1513 C 0.98880 0.20704 0.91486
 C1514 C 0.96917 0.19891 0.92811
 C1515 C 0.94694 0.21129 0.92647
 C1516 C 0.94523 0.23299 0.91256
 C1517 C 0.96479 0.24099 0.89924
 C1518 C 0.98653 0.22773 0.89979
 C1519 C 0.92581 0.20061 0.93860
 C1520 C 0.90353 0.20423 0.93059
 C1521 C 0.88230 0.19147 0.94021
 C1522 C 0.86237 0.19013 0.92588
 C1523 C 0.84219 0.17764 0.93362
 C1524 C 0.84135 0.16632 0.95602
 C1525 C 0.86097 0.16827 0.97073
 C1526 C 0.88128 0.18072 0.96293
 H1527 H 1.00544 0.19654 0.91556
 H1528 H 0.97108 0.18233 0.93891
 H1529 H 0.92873 0.24366 0.91160
 H1530 H 0.96256 0.25721 0.88805
 H1531 H 0.92911 0.18762 0.95298
 H1532 H 0.90080 0.21552 0.91489
 H1533 H 0.86252 0.19846 0.90842
 H1534 H 0.82718 0.17687 0.92204
 H1535 H 0.86081 0.15974 0.98810
 H1536 H 0.89598 0.18192 0.97476
 C1537 C 0.46169 0.76008 0.37922
 C1538 C 0.44091 0.75451 0.39181
 C1539 C 0.44050 0.73460 0.40795
 C1540 C 0.46182 0.72085 0.41187
 C1541 C 0.48272 0.72661 0.39933
 C1542 C 0.48267 0.74595 0.38257
 C1543 C 0.41703 0.72793 0.41847
 C1544 C 0.41381 0.71058 0.43532
 C1545 C 0.38975 0.70256 0.44306
 C1546 C 0.38681 0.69149 0.46539
 C1547 C 0.36471 0.68233 0.47263
 C1548 C 0.34514 0.68377 0.45755
 C1549 C 0.34802 0.69504 0.43528
 C1550 C 0.37005 0.70423 0.42807
 H1551 H 0.46090 0.77498 0.36630
 H1552 H 0.42483 0.76539 0.38832
 H1553 H 0.46240 0.70513 0.42382
 H1554 H 0.49868 0.71531 0.40200
 H1555 H 0.40150 0.73775 0.41154
 H1556 H 0.42902 0.70187 0.44392
 H1557 H 0.40174 0.68969 0.47716
 H1558 H 0.36316 0.67340 0.48976
 H1559 H 0.33326 0.69651 0.42330
 H1560 H 0.37169 0.71186 0.41045
 C1561 C 0.55626 0.76728 0.36675
 C1562 C 0.57588 0.77576 0.37822
 C1563 C 0.57623 0.77570 0.40262
 C1564 C 0.55661 0.76625 0.41540
 C1565 C 0.53691 0.75764 0.40380
 C1566 C 0.53655 0.75827 0.37936
 C1567 C 0.59631 0.78780 0.41348
 C1568 C 0.60142 0.78626 0.43624
 C1569 C 0.62073 0.80053 0.44586
 C1570 C 0.63354 0.79114 0.46521
 C1571 C 0.65199 0.80432 0.47433
 C1572 C 0.65767 0.82734 0.46448
 C1573 C 0.64448 0.83691 0.44542
 C1574 C 0.62618 0.82374 0.43628
 H1575 H 0.55609 0.76911 0.34795
 H1576 H 0.59051 0.78325 0.36789
 H1577 H 0.55585 0.76642 0.43421
 H1578 H 0.52168 0.75145 0.41398
 H1579 H 0.60761 0.79862 0.40183
 H1580 H 0.59194 0.77388 0.44801
 H1581 H 0.62945 0.77346 0.47309
 H1582 H 0.66164 0.79664 0.48924
 H1583 H 0.64848 0.85452 0.43737
 H1584 H 0.61616 0.83194 0.42186
 C1585 C 0.05709 0.25577 -0.11923
 C1586 C 0.07800 0.26248 -0.10868
 C1587 C 0.08113 0.25833 -0.08465
 C1588 C 0.06295 0.24686 -0.07137
 C1589 C 0.04199 0.23999 -0.08205
 C1590 C 0.03901 0.24425 -0.10611
 C1591 C 0.10355 0.26638 -0.07441
 C1592 C 0.10553 0.27220 -0.05212
 C1593 C 0.12718 0.28350 -0.04337
 C1594 C 0.12467 0.29982 -0.02538
 C1595 C 0.14427 0.31257 -0.01817
 C1596 C 0.16690 0.30905 -0.02864
 C1597 C 0.16969 0.29172 -0.04576
 C1598 C 0.15007 0.27903 -0.05303
 H1599 H 0.05489 0.26023 -0.13761
 H1600 H 0.09160 0.27144 -0.11930
 H1601 H 0.06488 0.24297 -0.05286
 H1602 H 0.02822 0.23146 -0.07143
 H1603 H 0.11833 0.26978 -0.08640
 H1604 H 0.09012 0.27112 -0.04055
 H1605 H 0.10731 0.30334 -0.01743
 H1606 H 0.14166 0.32545 -0.00460
 H1607 H 0.18690 0.28857 -0.05413
 H1608 H 0.15285 0.26595 -0.06637
 C1609 C 0.46510 0.28275 0.10153
 C1610 C 0.44596 0.29290 0.08900
 C1611 C 0.44550 0.29185 0.06468
 C1612 C 0.46473 0.28032 0.05304
 C1613 C 0.48421 0.27037 0.06571
 C1614 C 0.48453 0.27185 0.09001
 C1615 C 0.42507 0.30397 0.05247
 C1616 C 0.41667 0.29754 0.03198
 C1617 C 0.39446 0.30910 0.02240
 C1618 C 0.37819 0.29506 0.01088
 C1619 C 0.35573 0.30491 0.00455
 C1620 C 0.34931 0.32899 0.00960
 C1621 C 0.36626 0.34347 0.01964
 C1622 C 0.38862 0.33370 0.02586
 H1623 H 0.46489 0.28380 0.12033
 H1624 H 0.43139 0.30162 0.09838
 H1625 H 0.46502 0.27948 0.03426
 H1626 H 0.49888 0.26165 0.05655
 H1627 H 0.41528 0.31773 0.06193
 H1628 H 0.42464 0.28214 0.02338
 H1629 H 0.38240 0.27614 0.00779
 H1630 H 0.34302 0.29341 -0.00329
 H1631 H 0.36203 0.36230 0.02308
 H1632 H 0.40114 0.34531 0.03381
 C1633 C 0.95137 0.77148 0.60623
 C1634 C 0.93145 0.78323 0.59622
 C1635 C 0.92941 0.78573 0.57192
 C1636 C 0.94789 0.77631 0.55774
 C1637 C 0.96803 0.76468 0.56786
 C1638 C 0.96978 0.76218 0.59217
 C1639 C 0.90838 0.79941 0.56237
 C1640 C 0.89952 0.79659 0.54115
 C1641 C 0.87766 0.81008 0.53319
 C1642 C 0.86167 0.79897 0.51872
 C1643 C 0.84004 0.81074 0.51250
 C1644 C 0.83418 0.83395 0.52052
 C1645 C 0.85079 0.84551 0.53402
 C1646 C 0.87230 0.83377 0.54024
 H1647 H 0.95254 0.76990 0.62506
 H1648 H 0.91758 0.79047 0.60752
 H1649 H 0.94719 0.77851 0.53895
 H1650 H 0.98226 0.75801 0.55670
 H1651 H 0.89894 0.81138 0.57406
 H1652 H 0.90722 0.78290 0.53012
 H1653 H 0.86555 0.78083 0.51287
 H1654 H 0.82761 0.80138 0.50206
 H1655 H 0.84714 0.86370 0.53983
 H1656 H 0.88468 0.84328 0.55061
   
