data_POSCAR
  _audit_creation_date              2014-09-24
  _audit_creation_method            'ToBaCCo'
  _symmetry_space_group_name_H-M    'P1'
  _symmetry_Int_Tables_number       1
  _symmetry_cell_setting            triclinic
  loop_
  _symmetry_equiv_pos_as_xyz
 x,y,z
_cell_length_a 40.7896
_cell_length_b 40.8826
_cell_length_c 40.6995
_cell_angle_alpha 90.058800
_cell_angle_beta 89.840200
_cell_angle_gamma 90.317600
loop_
  _atom_site_label
  _atom_site_type_symbol
  _atom_site_fract_x
  _atom_site_fract_y
  _atom_site_fract_z
C1 C 0.11097 -0.00025 0.21944
 C2 C 0.13444 0.02853 0.22143
 C3 C 0.15224 0.02977 0.24932
 C4 C 0.14528 0.00144 0.27334
 C5 C 0.13212 -0.03036 0.22456
 C6 C 0.15003 -0.02979 0.25266
 C7 C 0.08989 0.00180 0.25069
 C8 C 0.10782 0.00235 0.27904
 H9 H 0.13531 0.04773 0.20306
 H10 H 0.16023 0.00219 0.29610
 H11 H 0.13065 -0.05170 0.20878
 H12 H 0.06336 0.00084 0.25043
 C13 C 0.39403 -0.00482 0.72238
 C14 C 0.36778 -0.03110 0.72565
 C15 C 0.34892 -0.02848 0.75291
 C16 C 0.35796 0.00127 0.77484
 C17 C 0.37570 0.02736 0.72413
 C18 C 0.35706 0.03125 0.75149
 C19 C 0.41281 -0.00615 0.75274
 C20 C 0.39298 -0.00256 0.78190
 H21 H 0.36641 -0.05205 0.70931
 H22 H 0.34197 0.00388 0.79681
 H23 H 0.37918 0.04653 0.70603
 H24 H 0.43925 -0.00820 0.75330
 C25 C 0.88965 0.49528 0.21753
 C26 C 0.86275 0.46980 0.22085
 C27 C 0.84439 0.47243 0.24839
 C28 C 0.85433 0.50164 0.27059
 C29 C 0.87250 0.52796 0.22016
 C30 C 0.85432 0.53200 0.24778
 C31 C 0.90971 0.49280 0.24936
 C32 C 0.89123 0.49641 0.27733
 H33 H 0.86090 0.44891 0.20447
 H34 H 0.83897 0.50439 0.29298
 H35 H 0.87638 0.54731 0.20233
 H36 H 0.93611 0.49023 0.24967
 C37 C 0.61065 0.50172 0.71800
 C38 C 0.63618 0.52871 0.71995
 C39 C 0.65410 0.52875 0.74780
 C40 C 0.64524 0.50080 0.77177
 C41 C 0.62956 0.47014 0.72295
 C42 C 0.64763 0.46924 0.75097
 C43 C 0.58995 0.50523 0.74936
 C44 C 0.60796 0.50444 0.77766
 H45 H 0.63776 0.54826 0.70199
 H46 H 0.66026 0.50044 0.79449
 H47 H 0.62703 0.44931 0.70663
 H48 H 0.56344 0.50632 0.74921
 C49 C 0.21900 0.10874 1.00189
 C50 C 0.22085 0.13417 1.02896
 C51 C 0.24860 0.15236 1.02879
 C52 C 0.27258 0.14378 1.00077
 C53 C 0.22398 0.12770 0.97013
 C54 C 0.25186 0.14603 0.96920
 C55 C 0.25029 0.08838 1.00542
 C56 C 0.27849 0.10664 1.00450
 H57 H 0.20286 0.13563 1.04859
 H58 H 0.29521 0.15900 1.00029
 H59 H 0.20769 0.12519 0.94926
 H60 H 0.25019 0.06192 1.00654
 C61 C 0.71738 0.39157 0.99589
 C62 C 0.71705 0.36442 0.97319
 C63 C 0.74535 0.34424 0.97428
 C64 C 0.76883 0.35449 1.00000
 C65 C 0.72157 0.37722 1.02789
 C66 C 0.74948 0.35647 1.03094
 C67 C 0.74802 0.40925 0.98967
 C68 C 0.77684 0.38899 0.99264
 H69 H 0.69922 0.36257 0.95347
 H70 H 0.79045 0.33818 1.00182
 H71 H 0.70502 0.38246 1.04814
 H72 H 0.74931 0.43550 0.98631
 C73 C 0.22167 0.89454 0.49685
 C74 C 0.22544 0.86821 0.47087
 C75 C 0.25300 0.85024 0.47340
 C76 C 0.27489 0.85999 0.50287
 C77 C 0.22434 0.87687 0.52949
 C78 C 0.25202 0.85909 0.53330
 C79 C 0.25339 0.91512 0.49471
 C80 C 0.28145 0.89699 0.49810
 H81 H 0.20902 0.86613 0.45002
 H82 H 0.29729 0.84490 0.50545
 H83 H 0.20647 0.88009 0.54899
 H84 H 0.25356 0.94150 0.49239
 C85 C 0.72031 0.61144 0.49714
 C86 C 0.72259 0.63491 0.52591
 C87 C 0.75083 0.65224 0.52720
 C88 C 0.77490 0.64484 0.49895
 C89 C 0.72622 0.63238 0.46677
 C90 C 0.75465 0.64989 0.46744
 C91 C 0.75098 0.58995 0.49957
 C92 C 0.77970 0.60737 0.50022
 H93 H 0.70412 0.63611 0.54510
 H94 H 0.79795 0.65941 0.49975
 H95 H 0.71049 0.63138 0.44536
 H96 H 0.75009 0.56348 0.49902
 C97 C -0.00024 0.21633 0.10883
 C98 C 0.02745 0.21851 0.13352
 C99 C 0.02824 0.24659 0.15101
 C100 C 0.00038 0.27052 0.14262
 C101 C -0.03140 0.22195 0.12869
 C102 C -0.03145 0.25024 0.14632
 C103 C 0.00322 0.24711 0.08747
 C104 C 0.00319 0.27562 0.10509
 H105 H 0.04672 0.20038 0.13498
 H106 H 0.00067 0.29341 0.15734
 H107 H -0.05273 0.20612 0.12677
 H108 H 0.00349 0.24647 0.06087
 C109 C -0.00541 0.71787 0.39155
 C110 C -0.02830 0.71835 0.36484
 C111 C -0.02774 0.74733 0.34573
 C112 C -0.00251 0.77086 0.35624
 C113 C 0.02787 0.72357 0.37586
 C114 C 0.03009 0.75119 0.35746
 C115 C -0.01159 0.74931 0.41155
 C116 C -0.00941 0.77734 0.39308
 H117 H -0.04748 0.69999 0.36240
 H118 H -0.00105 0.79320 0.34078
 H119 H 0.04851 0.70758 0.38030
 H120 H -0.01371 0.74954 0.43807
 C121 C 0.49279 0.21945 0.89297
 C122 C 0.46735 0.22307 0.86614
 C123 C 0.47069 0.25040 0.84774
 C124 C 0.50013 0.27215 0.85764
 C125 C 0.52566 0.22173 0.87559
 C126 C 0.53008 0.24911 0.85735
 C127 C 0.49075 0.25121 0.91317
 C128 C 0.49478 0.27895 0.89462
 H129 H 0.44631 0.20685 0.86404
 H130 H 0.50328 0.29437 0.84226
 H131 H 0.54472 0.20368 0.87911
 H132 H 0.48783 0.25164 0.93961
 C133 C 0.49838 0.72262 0.60932
 C134 C 0.52638 0.72366 0.63370
 C135 C 0.52788 0.75121 0.65196
 C136 C 0.50042 0.77587 0.64459
 C137 C 0.46758 0.72828 0.62970
 C138 C 0.46830 0.75604 0.64812
 C139 C 0.50216 0.75395 0.58875
 C140 C 0.50290 0.78199 0.60721
 H141 H 0.54537 0.70519 0.63439
 H142 H 0.50129 0.79832 0.65996
 H143 H 0.44593 0.71292 0.62765
 H144 H 0.50218 0.75401 0.56215
 C145 C 0.89149 0.99963 0.78220
 C146 C 0.87435 1.03010 0.77907
 C147 C 0.85442 1.03281 0.75037
 C148 C 0.85560 1.00351 0.72948
 C149 C 0.86533 0.97322 0.77993
 C150 C 0.84665 0.97463 0.75257
 C151 C 0.91140 0.99650 0.75037
 C152 C 0.89277 0.99879 0.72251
 H153 H 0.87730 1.04967 0.79685
 H154 H 0.84017 1.00491 0.70710
 H155 H 0.86408 0.95283 0.79696
 H156 H 0.93781 0.99403 0.74993
 C157 C 0.39055 0.50519 0.28070
 C158 C 0.36941 0.53516 0.27462
 C159 C 0.35106 0.53345 0.24681
 C160 C 0.35553 0.50137 0.22735
 C161 C 0.36693 0.47643 0.28022
 C162 C 0.34877 0.47405 0.25263
 C163 C 0.41117 0.50176 0.24932
 C164 C 0.39293 0.50014 0.22122
 H165 H 0.37087 0.55701 0.28967
 H166 H 0.34033 0.49972 0.20481
 H167 H 0.36643 0.45787 0.29926
 H168 H 0.43770 0.50273 0.24924
 C169 C 0.60775 1.00144 0.28171
 C170 C 0.62369 0.96871 0.27476
 C171 C 0.64237 0.96807 0.24705
 C172 C 0.64332 1.00141 0.22852
 C173 C 0.63427 1.02466 0.28220
 C174 C 0.65347 1.02572 0.25312
 C175 C 0.58799 1.00870 0.25041
 C176 C 0.60651 1.00799 0.22223
 H177 H 0.61957 0.94743 0.29014
 H178 H 0.65883 1.00118 0.20605
 H179 H 0.63648 1.04300 0.30141
 H180 H 0.56151 1.01044 0.25024
 C181 C 0.10722 0.50368 0.77864
 C182 C 0.12432 0.47091 0.77577
 C183 C 0.14256 0.46713 0.74812
 C184 C 0.14253 0.49757 0.72554
 C185 C 0.13423 0.52914 0.77548
 C186 C 0.15262 0.52650 0.74792
 C187 C 0.08720 0.50643 0.74687
 C188 C 0.10564 0.50296 0.71891
 H189 H 0.12061 0.45148 0.79353
 H190 H 0.15784 0.49495 0.70310
 H191 H 0.13641 0.54976 0.79215
 H192 H 0.06081 0.50909 0.74657
 C193 C 0.77986 0.89207 0.00269
 C194 C 0.77240 0.87168 0.03309
 C195 C 0.74419 0.85395 0.03109
 C196 C 0.72574 0.85824 -0.00159
 C197 C 0.77940 0.86803 -0.02570
 C198 C 0.75140 0.85049 -0.02830
 C199 C 0.74928 0.91328 -0.00190
 C200 C 0.72078 0.89563 -0.00375
 H201 H 0.78699 0.87302 0.05529
 H202 H 0.70288 0.84348 -0.00340
 H203 H 0.79880 0.86686 -0.04395
 H204 H 0.74993 0.93976 -0.00128
 C205 C 0.28095 0.39376 0.50270
 C206 C 0.27410 0.37442 0.53394
 C207 C 0.24644 0.35573 0.53276
 C208 C 0.22783 0.35813 0.49992
 C209 C 0.28117 0.36853 0.47533
 C210 C 0.25367 0.35007 0.47346
 C211 C 0.24972 0.41378 0.49726
 C212 C 0.22175 0.39522 0.49617
 H213 H 0.28898 0.37678 0.55586
 H214 H 0.20540 0.34267 0.49875
 H215 H 0.30035 0.36754 0.45683
 H216 H 0.24958 0.44026 0.49660
 C217 C 0.27901 0.60360 0.00548
 C218 C 0.27666 0.62167 -0.02698
 C219 C 0.24926 0.63991 -0.03064
 C220 C 0.22630 0.63897 -0.00029
 C221 C 0.27558 0.62970 0.03173
 C222 C 0.24834 0.64815 0.02928
 C223 C 0.24703 0.58345 0.00733
 C224 C 0.21923 0.60197 0.00402
 H225 H 0.29451 0.61840 -0.04648
 H226 H 0.20410 0.65436 -0.00275
 H227 H 0.29213 0.63152 0.05249
 H228 H 0.24654 0.55704 0.00921
 C229 C 0.78367 0.10639 0.50381
 C230 C 0.77982 0.12120 0.47200
 C231 C 0.75201 0.14209 0.46897
 C232 C 0.73244 0.14376 0.49979
 C233 C 0.78395 0.13320 0.52688
 C234 C 0.75583 0.15358 0.52580
 C235 C 0.75293 0.08877 0.50953
 C236 C 0.72423 0.10918 0.50661
 H237 H 0.79648 0.11607 0.45180
 H238 H 0.71090 0.16018 0.49802
 H239 H 0.80169 0.13474 0.54671
 H240 H 0.75151 0.06247 0.51253
 C241 C 1.00190 0.77770 0.89262
 C242 C 1.03218 0.77163 0.87159
 C243 C 1.03048 0.74418 0.85278
 C244 C 0.99804 0.72498 0.85670
 C245 C 0.97346 0.77766 0.86874
 C246 C 0.97107 0.75048 0.85005
 C247 C 0.99778 0.74626 0.91283
 C248 C 0.99618 0.71845 0.89413
 H249 H 1.05422 0.78648 0.87343
 H250 H 0.99638 0.70273 0.84111
 H251 H 0.95514 0.79681 0.86831
 H252 H 0.99850 0.74591 0.93942
 C253 C 0.50263 0.28430 0.39240
 C254 C 0.53274 0.27807 0.37108
 C255 C 0.53119 0.24997 0.35315
 C256 C 0.49909 0.23044 0.35821
 C257 C 0.47383 0.28307 0.36895
 C258 C 0.47160 0.25525 0.35119
 C259 C 0.49933 0.25343 0.41361
 C260 C 0.49789 0.22506 0.39583
 H261 H 0.55462 0.29318 0.37227
 H262 H 0.49754 0.20769 0.34335
 H263 H 0.45528 0.30197 0.36809
 H264 H 0.50042 0.25388 0.44018
 C265 C 1.00364 0.27896 0.60461
 C266 C 0.97089 0.27560 0.62207
 C267 C 0.96765 0.24835 0.64077
 C268 C 0.99851 0.22655 0.64071
 C269 C 1.02923 0.27679 0.63148
 C270 C 1.02708 0.24962 0.65026
 C271 C 1.00696 0.24707 0.58488
 C272 C 1.00400 0.21946 0.60379
 H273 H 0.95111 0.29283 0.61840
 H274 H 0.99629 0.20443 0.65639
 H275 H 1.04967 0.29380 0.63322
 H276 H 1.00954 0.24642 0.55841
 C277 C 0.50307 0.78098 0.10703
 C278 C 0.47042 0.77733 0.12468
 C279 C 0.46731 0.74977 0.14298
 C280 C 0.49831 0.72810 0.14253
 C281 C 0.52883 0.77856 0.13371
 C282 C 0.52693 0.75118 0.15220
 C283 C 0.50631 0.74929 0.08689
 C284 C 0.50348 0.72142 0.10546
 H285 H 0.45046 0.79434 0.12103
 H286 H 0.49624 0.70580 0.15796
 H287 H 0.54914 0.79571 0.13558
 H288 H 0.50846 0.74895 0.06038
 O289 O -0.01666 0.97878 0.90772
 O290 O 0.03781 0.99688 0.90642
 O291 O -0.01431 0.90387 0.98368
 O292 O -0.00462 0.90037 1.03679
 O293 O -0.09189 0.97910 0.98471
 O294 O -0.09300 1.03436 0.99854
 O295 O 0.06676 0.99246 1.07086
 O296 O 0.07150 0.94192 1.04676
 O297 O 0.07114 1.06235 0.99631
 O298 O 0.04686 1.06930 0.94573
 O299 O -0.00379 1.06747 1.06559
 O300 O -0.05549 1.03808 1.07494
 O301 O 0.02083 1.01519 1.09296
 O302 O -0.03715 0.99835 1.09514
 O303 O 0.01844 1.08964 1.01934
 O304 O 0.00119 1.08906 0.96063
 O305 O 0.09322 1.01707 1.01980
 O306 O 0.09362 0.96220 0.99603
 O307 O -0.06241 1.00188 0.92978
 O308 O -0.06967 1.05359 0.95790
 O309 O -0.07043 0.93329 1.00762
 O310 O -0.04042 0.92800 1.06024
 O311 O 0.00684 0.92574 0.93669
 O312 O 0.06113 0.95391 0.93629
 Zr313 Zr 0.01506 0.97510 0.94812
 O314 O 0.04558 1.00568 0.97618
 Zr315 Zr -0.02063 0.94431 1.01494
 O316 O 0.00955 0.97260 1.04561
 Zr317 Zr -0.05139 1.01029 0.97937
 O318 O -0.02356 1.04156 1.00931
 Zr319 Zr 0.05395 0.98378 1.02191
 O320 O 0.02554 0.95156 0.99287
 Zr321 Zr 0.02217 1.04980 0.98705
 O322 O -0.00702 1.02108 0.95528
 Zr323 Zr -0.01250 1.01818 1.05381
 O324 O -0.04446 0.98855 1.02563
 O325 O -0.03038 0.96513 0.96958
 O326 O 0.03279 1.02901 1.03253
 C327 C -0.04568 0.99053 0.90558
 C328 C -0.00317 0.90157 0.95423
 C329 C -0.09446 0.95032 0.99687
 C330 C 0.05015 1.00413 1.09496
 C331 C 0.09517 1.04624 1.00841
 C332 C 0.00734 1.09166 1.04876
 H333 H 0.06626 1.00951 0.96396
 H334 H -0.03596 1.06200 1.01267
 H335 H -0.04446 0.95090 0.95578
 H336 H 0.01335 0.96042 1.06622
 H337 H 0.06686 0.92291 1.03236
 H338 H 0.01658 0.90535 1.04742
 H339 H -0.01882 1.09598 0.97247
 H340 H -0.05355 1.06052 0.94103
 H341 H 0.11332 0.96303 1.01026
 H342 H 0.05881 0.93968 0.91668
 H343 H -0.06314 1.05584 1.06041
 H344 H -0.09482 1.02767 1.02185
 H345 H 0.03737 0.98118 0.88781
 H346 H 0.04182 1.05447 0.92719
 H347 H -0.05837 0.94316 1.06609
 H348 H -0.02606 0.97775 1.10116
 O349 O 0.48320 0.41104 0.48168
 O350 O 0.50060 0.40991 0.53624
 O351 O 0.40688 0.48567 0.48552
 O352 O 0.40306 0.53854 0.49560
 O353 O 0.48139 0.48744 0.40661
 O354 O 0.53675 0.50284 0.40483
 O355 O 0.49473 0.57384 0.56575
 O356 O 0.44477 0.54883 0.57127
 O357 O 0.56566 0.49934 0.56937
 O358 O 0.57289 0.44950 0.54411
 O359 O 0.57048 0.56905 0.49426
 O360 O 0.54100 0.57843 0.44322
 O361 O 0.51751 0.59603 0.51965
 O362 O 0.50069 0.59764 0.46158
 O363 O 0.59278 0.52326 0.51641
 O364 O 0.59276 0.46513 0.49862
 O365 O 0.52046 0.52282 0.59201
 O366 O 0.46566 0.49875 0.59296
 O367 O 0.50636 0.43306 0.43571
 O368 O 0.55683 0.46255 0.42718
 O369 O 0.43561 0.50980 0.42912
 O370 O 0.43031 0.56213 0.45917
 O371 O 0.42931 0.43896 0.50568
 O372 O 0.45741 0.43917 0.55994
 Zr373 Zr 0.47862 0.45116 0.51364
 O374 O 0.50906 0.47944 0.54406
 Zr375 Zr 0.44713 0.51730 0.47874
 O376 O 0.47542 0.54817 0.50872
 Zr377 Zr 0.51331 0.48282 0.44667
 O378 O 0.54456 0.51284 0.47453
 Zr379 Zr 0.48693 0.52477 0.55302
 O380 O 0.45477 0.49541 0.52479
 Zr381 Zr 0.55312 0.49073 0.52019
 O382 O 0.52451 0.45895 0.49094
 Zr383 Zr 0.52100 0.55693 0.48618
 O384 O 0.49127 0.52860 0.45434
 O385 O 0.46827 0.47240 0.46832
 O386 O 0.53217 0.53586 0.53140
 C387 C 0.49547 0.40884 0.45268
 C388 C 0.40488 0.45620 0.49627
 C389 C 0.45239 0.49922 0.40466
 C390 C 0.50605 0.59804 0.54901
 C391 C 0.54954 0.51120 0.59372
 C392 C 0.59477 0.55246 0.50518
 H393 H 0.51299 0.46722 0.56465
 H394 H 0.56500 0.51642 0.46192
 H395 H 0.45419 0.45835 0.45433
 H396 H 0.46303 0.56852 0.51269
 H397 H 0.42585 0.53427 0.56667
 H398 H 0.40821 0.54953 0.51661
 H399 H 0.59960 0.47710 0.47861
 H400 H 0.56475 0.44645 0.44344
 H401 H 0.46646 0.51290 0.61276
 H402 H 0.44325 0.41952 0.55768
 H403 H 0.55815 0.56363 0.43471
 H404 H 0.52914 0.52571 0.40304
 H405 H 0.48501 0.39119 0.53573
 H406 H 0.55824 0.43090 0.53875
 H407 H 0.44537 0.56812 0.44100
 H408 H 0.48001 0.60340 0.47290
 O409 O 0.59577 0.02526 0.48564
 O410 O 0.59628 -0.02988 0.50531
 O411 O 0.51917 0.01968 0.40986
 O412 O 0.46632 0.00953 0.40677
 O413 O 0.51749 0.09798 0.48474
 O414 O 0.50225 0.09781 0.54155
 O415 O 0.43346 -0.06349 0.49718
 O416 O 0.45832 -0.06733 0.44683
 O417 O 0.51076 -0.06721 0.56715
 O418 O 0.56537 -0.03233 0.57024
 O419 O 0.43933 0.00403 0.57434
 O420 O 0.42758 0.05531 0.54952
 O421 O 0.41116 -0.01793 0.52021
 O422 O 0.41030 0.04195 0.50591
 O423 O 0.48658 -0.01577 0.59594
 O424 O 0.53962 -0.00049 0.59947
 O425 O 0.48569 -0.08880 0.52216
 O426 O 0.50951 -0.08746 0.46613
 O427 O 0.57341 0.07084 0.50866
 O428 O 0.54484 0.07719 0.56000
 O429 O 0.49575 0.07544 0.43855
 O430 O 0.44284 0.04524 0.43551
 O431 O 0.56691 0.00064 0.43135
 O432 O 0.57102 -0.05189 0.45780
 Zr433 Zr 0.55599 -0.00778 0.48099
 O434 O 0.52850 -0.04015 0.51056
 Zr435 Zr 0.48841 0.02595 0.45076
 O436 O 0.45845 -0.00537 0.47888
 Zr437 Zr 0.52372 0.05783 0.51671
 O438 O 0.49512 0.02797 0.54797
 Zr439 Zr 0.48264 -0.04937 0.48911
 O440 O 0.51128 -0.01953 0.45758
 Zr441 Zr 0.51807 -0.01736 0.55537
 O442 O 0.54839 0.01405 0.52720
 Zr443 Zr 0.45044 0.01569 0.52522
 O444 O 0.47744 0.04911 0.49562
 O445 O 0.53371 0.03696 0.47133
 O446 O 0.47250 -0.02910 0.53502
 C447 C 0.59792 0.05435 0.49766
 C448 C 0.54879 0.00958 0.40725
 C449 C 0.50605 0.09997 0.45539
 C450 C 0.40902 -0.04716 0.50857
 C451 C 0.49814 -0.09121 0.55101
 C452 C 0.45660 -0.00698 0.59822
 H453 H 0.54101 -0.06059 0.51348
 H454 H 0.49170 0.03955 0.56903
 H455 H 0.54737 0.05123 0.45711
 H456 H 0.43786 -0.00928 0.46671
 H457 H 0.47217 -0.06130 0.42773
 H458 H 0.45526 -0.01142 0.41190
 H459 H 0.53567 0.02332 0.60060
 H460 H 0.56130 0.06112 0.56745
 H461 H 0.49629 -0.10785 0.46744
 H462 H 0.59235 -0.04831 0.44657
 H463 H 0.44417 0.06573 0.56383
 H464 H 0.47950 0.09946 0.53333
 H465 H 0.61622 -0.02788 0.49144
 H466 H 0.56907 -0.05461 0.56151
 H467 H 0.43770 0.06372 0.45036
 H468 H 0.40308 0.03056 0.48570
 O469 O 0.00514 0.42511 1.06257
 O470 O 0.05605 0.45340 1.06636
 O471 O -0.06665 0.49916 1.06873
 O472 O -0.08054 0.54522 1.04350
 O473 O -0.07205 0.42780 0.99069
 O474 O -0.04332 0.42163 0.94047
 O475 O 0.01391 0.58941 0.97982
 O476 O -0.00531 0.59057 1.03235
 O477 O 0.08982 0.51694 0.98038
 O478 O 0.09385 0.46343 0.99323
 O479 O 0.01457 0.51623 0.90476
 O480 O -0.04021 0.49983 0.90198
 O481 O -0.00938 0.56755 0.93393
 O482 O -0.06282 0.53527 0.92763
 O483 O 0.06158 0.49596 0.92639
 O484 O 0.06923 0.44068 0.95455
 O485 O 0.06705 0.56281 1.00213
 O486 O 0.04012 0.56309 1.05656
 O487 O -0.01593 0.40238 1.01601
 O488 O 0.00000 0.40279 0.95850
 O489 O -0.09523 0.47344 1.01241
 O490 O -0.09572 0.53191 0.99670
 O491 O -0.02057 0.47659 1.09033
 O492 O 0.03354 0.50234 1.08855
 Zr493 Zr 0.01150 0.47463 1.05015
 O494 O 0.04185 0.50500 1.02152
 Zr495 Zr -0.05612 0.50695 1.01876
 O496 O -0.02824 0.53988 0.99021
 Zr497 Zr -0.02264 0.44207 0.98346
 O498 O 0.00564 0.47223 0.95217
 Zr499 Zr 0.01777 0.54910 1.01158
 O500 O -0.01212 0.51977 1.04268
 Zr501 Zr 0.05012 0.48418 0.97529
 O502 O 0.02316 0.45141 1.00541
 Zr503 Zr -0.01738 0.51762 0.94509
 O504 O -0.04796 0.48555 0.97253
 O505 O -0.03346 0.46281 1.02870
 O506 O 0.02815 0.52908 0.96560
 C507 C -0.00473 0.40053 1.04551
 C508 C -0.04973 0.48780 1.09274
 C509 C -0.09694 0.44420 1.00083
 C510 C 0.00227 0.59172 0.95058
 C511 C 0.09172 0.54637 0.99141
 C512 C 0.04449 0.50719 0.90254
 H513 H 0.06261 0.50858 1.03356
 H514 H 0.00913 0.46070 0.93111
 H515 H -0.04722 0.44825 1.04251
 H516 H -0.04069 0.56039 0.98754
 H517 H -0.01578 0.58320 1.05305
 H518 H -0.06636 0.56478 1.04135
 H519 H 0.05781 0.43651 0.93353
 H520 H 0.02211 0.40039 0.96814
 H521 H 0.04976 0.58524 1.05373
 H522 H 0.03180 0.49016 1.10954
 H523 H -0.03351 0.47678 0.89926
 H524 H -0.05884 0.43803 0.93184
 H525 H 0.05286 0.44427 1.08873
 H526 H 0.08807 0.45290 1.01433
 H527 H -0.10074 0.52040 0.97589
 H528 H -0.06785 0.55576 0.93953
 O529 O 0.01812 0.40540 0.51312
 O530 O -0.00157 0.40537 0.45908
 O531 O 0.09290 0.48075 0.51033
 O532 O 0.09627 0.53418 0.50026
 O533 O 0.01976 0.48143 0.59025
 O534 O -0.03622 0.49373 0.59311
 O535 O 0.00139 0.56942 0.43349
 O536 O 0.05205 0.54661 0.42620
 O537 O -0.06817 0.49374 0.42873
 O538 O -0.07500 0.44385 0.45377
 O539 O -0.07113 0.56310 0.50572
 O540 O -0.04018 0.56940 0.55803
 O541 O -0.01961 0.59046 0.48089
 O542 O -0.00152 0.59167 0.53766
 O543 O -0.09394 0.51761 0.48290
 O544 O -0.09323 0.45821 0.50017
 O545 O -0.02305 0.51780 0.40610
 O546 O 0.03241 0.49599 0.40403
 O547 O -0.00359 0.42630 0.56026
 O548 O -0.05527 0.45330 0.56991
 O549 O 0.06571 0.50378 0.56762
 O550 O 0.06979 0.55676 0.53852
 O551 O 0.07065 0.43405 0.48928
 O552 O 0.04174 0.43608 0.43523
 Zr553 Zr 0.02106 0.44630 0.48213
 O554 O -0.01055 0.47461 0.45311
 Zr555 Zr 0.05281 0.51211 0.51819
 O556 O 0.02345 0.54305 0.48949
 Zr557 Zr -0.01268 0.47586 0.55044
 O558 O -0.04497 0.50591 0.52400
 Zr559 Zr 0.01106 0.52047 0.44481
 O560 O 0.04431 0.49125 0.47165
 Zr561 Zr -0.05444 0.48485 0.47787
 O562 O -0.02462 0.45291 0.50571
 Zr563 Zr -0.02174 0.55056 0.51319
 O564 O 0.00898 0.52213 0.54362
 O565 O 0.03202 0.46677 0.52778
 O566 O -0.03373 0.53040 0.46759
 C567 C 0.00750 0.40265 0.54268
 C568 C 0.09509 0.45135 0.49925
 C569 C 0.04902 0.49306 0.59221
 C570 C -0.00972 0.59304 0.45107
 C571 C -0.05223 0.50593 0.40427
 C572 C -0.09564 0.54688 0.49434
 H573 H -0.01474 0.46275 0.43232
 H574 H -0.06520 0.50899 0.53701
 H575 H 0.04655 0.45292 0.54130
 H576 H 0.03546 0.56377 0.48565
 H577 H 0.07151 0.53282 0.43024
 H578 H 0.09019 0.54653 0.48035
 H579 H -0.10025 0.47029 0.52002
 H580 H -0.06306 0.43752 0.55316
 H581 H 0.03087 0.51041 0.38451
 H582 H 0.05561 0.41630 0.43666
 H583 H -0.05943 0.55604 0.56450
 H584 H -0.02973 0.51701 0.59514
 H585 H 0.01417 0.38695 0.45843
 H586 H -0.05956 0.42563 0.45731
 H587 H 0.05490 0.56219 0.55696
 H588 H 0.01951 0.59720 0.52678
 O589 O 0.51845 0.90818 0.01669
 O590 O 0.49878 0.90797 -0.03727
 O591 O 0.59333 0.98356 0.01340
 O592 O 0.59652 1.03690 0.00265
 O593 O 0.52060 0.98493 0.09366
 O594 O 0.46442 0.99672 0.09662
 O595 O 0.49982 1.07165 -0.06377
 O596 O 0.55144 1.05003 -0.07057
 O597 O 0.43183 0.99611 -0.06773
 O598 O 0.42557 0.94597 -0.04254
 O599 O 0.42875 1.06536 0.00931
 O600 O 0.46034 1.07189 0.06152
 O601 O 0.47988 1.09297 -0.01604
 O602 O 0.49828 1.09473 0.04040
 O603 O 0.40619 1.01965 -0.01332
 O604 O 0.40704 0.96056 0.00380
 O605 O 0.47721 1.01929 -0.09078
 O606 O 0.53294 0.99872 -0.09249
 O607 O 0.49714 0.92915 0.06398
 O608 O 0.44569 0.95603 0.07399
 O609 O 0.56633 1.00739 0.07069
 O610 O 0.57023 1.05985 0.04118
 O611 O 0.57084 0.93686 -0.00741
 O612 O 0.54190 0.93872 -0.06131
 Zr613 Zr 0.52133 0.94903 -0.01438
 O614 O 0.48961 0.97712 -0.04342
 Zr615 Zr 0.55320 1.01505 0.02120
 O616 O 0.52350 1.04584 -0.00742
 Zr617 Zr 0.48797 0.97872 0.05401
 O618 O 0.45541 1.00845 0.02750
 Zr619 Zr 0.51099 1.02307 -0.05195
 O620 O 0.54444 0.99400 -0.02519
 Zr621 Zr 0.44580 0.98721 -0.01855
 O622 O 0.47580 0.95557 0.00943
 Zr623 Zr 0.47834 1.05319 0.01644
 O624 O 0.50942 1.02504 0.04678
 O625 O 0.53258 0.96968 0.03116
 O626 O 0.46624 1.03280 -0.02902
 C627 C 0.50796 0.90543 0.04630
 C628 C 0.59536 0.95412 0.00233
 C629 C 0.54976 0.99690 0.09547
 C630 C 0.48877 1.09532 -0.04619
 C631 C 0.44794 1.00766 -0.09241
 C632 C 0.40431 1.04889 -0.00187
 H633 H 0.48544 0.96510 -0.06413
 H634 H 0.43522 1.01147 0.04062
 H635 H 0.54717 0.95593 0.04471
 H636 H 0.53526 1.06667 -0.01145
 H637 H 0.57116 1.03658 -0.06666
 H638 H 0.59011 1.04995 -0.01670
 H639 H 0.40046 0.97234 0.02399
 H640 H 0.43759 0.94045 0.05721
 H641 H 0.53138 1.01305 -0.11208
 H642 H 0.55579 0.91895 -0.05991
 H643 H 0.44090 1.05878 0.06792
 H644 H 0.47093 1.02000 0.09862
 H645 H 0.51456 0.88959 -0.03791
 H646 H 0.44075 0.92769 -0.03829
 H647 H 0.55515 1.06560 0.05937
 H648 H 0.51937 1.10014 0.02958
 O649 O 0.57175 0.43707 0.00265
 O650 O 0.54621 0.42986 0.05435
 O651 O 0.49348 0.43029 -0.06646
 O652 O 0.44737 0.45674 -0.07792
 O653 O 0.56557 0.50935 -0.07157
 O654 O 0.57131 0.55950 -0.04214
 O655 O 0.40669 0.51450 0.01945
 O656 O 0.40630 0.46313 -0.00119
 O657 O 0.48069 0.51679 0.09266
 O658 O 0.53457 0.50074 0.09552
 O659 O 0.48149 0.59219 0.02026
 O660 O 0.49357 0.59603 -0.03584
 O661 O 0.42787 0.56188 -0.00125
 O662 O 0.45679 0.57157 -0.05623
 O663 O 0.50457 0.57037 0.06598
 O664 O 0.55790 0.54070 0.07194
 O665 O 0.43492 0.49368 0.07054
 O666 O 0.43575 0.43926 0.04370
 O667 O 0.59349 0.48416 -0.01813
 O668 O 0.59319 0.53996 -0.00006
 O669 O 0.51997 0.48628 -0.09401
 O670 O 0.46174 0.50384 -0.09263
 O671 O 0.51807 0.40831 -0.02149
 O672 O 0.49631 0.40876 0.03499
 Zr673 Zr 0.52226 0.44766 0.01169
 O674 O 0.49291 0.47507 0.04401
 Zr675 Zr 0.48716 0.48009 -0.05425
 O676 O 0.45528 0.50755 -0.02433
 Zr677 Zr 0.55290 0.51549 -0.02178
 O678 O 0.52385 0.54546 0.00851
 Zr679 Zr 0.44797 0.48460 0.02128
 O680 O 0.47627 0.45487 -0.01038
 Zr681 Zr 0.51359 0.52125 0.05291
 O682 O 0.54547 0.49230 0.02384
 Zr683 Zr 0.47750 0.55251 -0.01265
 O684 O 0.50839 0.52631 -0.04537
 O685 O 0.53219 0.47029 -0.03311
 O686 O 0.46777 0.53058 0.03252
 C687 C 0.59583 0.45459 -0.00789
 C688 C 0.50520 0.40604 -0.05020
 C689 C 0.54907 0.49840 -0.09609
 C690 C 0.40408 0.54422 0.00992
 C691 C 0.45130 0.50541 0.09479
 C692 C 0.49301 0.59451 0.04954
 H693 H 0.48997 0.46275 0.06475
 H694 H 0.53565 0.56636 0.01192
 H695 H 0.54615 0.45677 -0.04765
 H696 H 0.43423 0.51035 -0.03596
 H697 H 0.41385 0.44279 -0.01199
 H698 H 0.42821 0.45919 -0.06322
 H699 H 0.56355 0.56049 0.05912
 H700 H 0.59665 0.52971 0.02168
 H701 H 0.41370 0.44134 0.05380
 H702 H 0.50779 0.38779 0.03105
 H703 H 0.51697 0.59898 -0.03020
 H704 H 0.55462 0.56729 -0.05788
 H705 H 0.55546 0.40795 0.04965
 H706 H 0.54619 0.48084 0.08822
 H707 H 0.47335 0.52474 -0.09686
 H708 H 0.43662 0.55895 -0.06109
 O709 O -0.01733 0.08964 0.52041
 O710 O 0.00207 0.09041 0.46518
 O711 O -0.09298 0.01314 0.51673
 O712 O -0.09590 -0.03974 0.50503
 O713 O -0.01886 0.01255 0.59411
 O714 O 0.03744 -0.00309 0.59481
 O715 O -0.00560 -0.07172 0.43241
 O716 O -0.05518 -0.04733 0.42799
 O717 O 0.06509 0.00554 0.42926
 O718 O 0.06768 0.06006 0.46378
 O719 O 0.07175 -0.06550 0.50137
 O720 O 0.04648 -0.07826 0.55147
 O721 O 0.01713 -0.09408 0.47817
 O722 O 0.00243 -0.09495 0.53871
 O723 O 0.09328 -0.01814 0.48123
 O724 O 0.09635 0.03495 0.49619
 O725 O 0.02034 -0.01948 0.40715
 O726 O -0.03573 0.00394 0.40809
 O727 O 0.00613 0.06779 0.56609
 O728 O 0.05687 0.03886 0.57364
 O729 O -0.06473 -0.01011 0.57183
 O730 O -0.06753 -0.06316 0.54172
 O731 O -0.07100 0.06077 0.49742
 O732 O -0.04516 0.06392 0.44346
 Zr733 Zr -0.02175 0.04986 0.48783
 O734 O 0.00824 0.02291 0.45571
 Zr735 Zr -0.05220 -0.01760 0.52213
 O736 O -0.02384 -0.04713 0.49077
 Zr737 Zr 0.01358 0.01802 0.55403
 O738 O 0.04490 -0.01035 0.52447
 Zr739 Zr -0.01323 -0.02286 0.44651
 O740 O -0.04518 0.00522 0.47625
 Zr741 Zr 0.05269 0.01275 0.47899
 O742 O 0.02423 0.04278 0.51004
 Zr743 Zr 0.02227 -0.05504 0.51204
 O744 O -0.00750 -0.02830 0.54546
 O745 O -0.03149 0.02764 0.53289
 O746 O 0.03245 -0.03283 0.46706
 C747 C -0.00510 0.09201 0.54939
 C748 C -0.09518 0.04299 0.50723
 C749 C -0.04819 0.00103 0.59624
 C750 C 0.00538 -0.09612 0.44888
 C751 C 0.04925 -0.00695 0.40504
 C752 C 0.09573 -0.04787 0.49065
 H753 H 0.01135 0.03545 0.43516
 H754 H 0.06572 -0.01366 0.53635
 H755 H -0.04552 0.04129 0.54723
 H756 H -0.03602 -0.06773 0.48685
 H757 H -0.07433 -0.03384 0.43415
 H758 H -0.09036 -0.05112 0.48433
 H759 H 0.09775 0.03022 0.51996
 H760 H 0.06457 0.05541 0.55759
 H761 H -0.03397 -0.00904 0.38756
 H762 H -0.05687 0.08484 0.44696
 H763 H 0.05845 -0.06109 0.56373
 H764 H 0.02869 -0.02564 0.59691
 H765 H -0.01221 0.10992 0.46668
 H766 H 0.05907 0.06373 0.44139
 H767 H -0.05295 -0.06804 0.56048
 H768 H -0.01743 -0.10250 0.52697
 O769 O 0.73823 0.15396 0.26539
 O770 O 0.79418 0.15784 0.25186
 O771 O 0.72655 0.22802 0.34153
 O772 O 0.73582 0.28139 0.34561
 O773 O 0.65708 0.22061 0.26201
 O774 O 0.65784 0.23893 0.20665
 O775 O 0.80770 0.32466 0.26259
 O776 O 0.81295 0.29795 0.31074
 O777 O 0.82381 0.25144 0.18850
 O778 O 0.80450 0.19787 0.18130
 O779 O 0.74552 0.31250 0.17833
 O780 O 0.69330 0.31924 0.20117
 O781 O 0.76263 0.34207 0.23482
 O782 O 0.70160 0.33577 0.24642
 O783 O 0.77402 0.26955 0.15756
 O784 O 0.75948 0.21052 0.15606
 O785 O 0.84114 0.27721 0.23492
 O786 O 0.84035 0.25112 0.28959
 O787 O 0.69465 0.17040 0.23475
 O788 O 0.68471 0.20167 0.18642
 O789 O 0.67427 0.24593 0.30871
 O790 O 0.69784 0.30175 0.31523
 O791 O 0.75492 0.18466 0.32123
 O792 O 0.81131 0.18887 0.29678
 Zr793 Zr 0.76627 0.19685 0.27193
 O794 O 0.79651 0.22801 0.24365
 Zr795 Zr 0.72317 0.25909 0.30047
 O796 O 0.75261 0.29274 0.27458
 Zr797 Zr 0.69964 0.22189 0.23186
 O798 O 0.72739 0.25478 0.20291
 Zr799 Zr 0.79983 0.27394 0.26652
 O800 O 0.77155 0.24188 0.29651
 Zr801 Zr 0.77539 0.23726 0.19778
 O802 O 0.74688 0.20276 0.22420
 Zr803 Zr 0.73345 0.29974 0.22727
 O804 O 0.70168 0.26830 0.25438
 O805 O 0.71862 0.21347 0.27840
 O806 O 0.78100 0.28314 0.21975
 C807 C 0.71202 0.14828 0.24882
 C808 C 0.74021 0.20000 0.34470
 C809 C 0.65226 0.23184 0.29120
 C810 C 0.78990 0.34723 0.24991
 C811 C 0.84567 0.26631 0.20559
 C812 C 0.76077 0.29776 0.15483
 H813 H 0.81838 0.21793 0.24108
 H814 H 0.71656 0.25756 0.18141
 H815 H 0.70507 0.19776 0.29112
 H816 H 0.75331 0.31323 0.28747
 H817 H 0.80762 0.28267 0.32887
 H818 H 0.75487 0.29578 0.34124
 H819 H 0.73994 0.22153 0.14704
 H820 H 0.70348 0.18890 0.17798
 H821 H 0.85889 0.26692 0.28996
 H822 H 0.80921 0.16934 0.31107
 H823 H 0.68309 0.30095 0.18894
 H824 H 0.65283 0.26077 0.21587
 H825 H 0.79373 0.13908 0.26732
 H826 H 0.79709 0.17840 0.19374
 H827 H 0.67975 0.30502 0.29941
 H828 H 0.71156 0.34435 0.26685
 O829 O 0.76019 0.69079 0.67538
 O830 O 0.80893 0.68396 0.70240
 O831 O 0.69181 0.67664 0.75994
 O832 O 0.67504 0.70359 0.80283
 O833 O 0.67667 0.75998 0.68815
 O834 O 0.70489 0.80796 0.67763
 O835 O 0.77062 0.76765 0.84241
 O836 O 0.75312 0.71554 0.84344
 O837 O 0.84272 0.77300 0.76614
 O838 O 0.84505 0.75953 0.71211
 O839 O 0.76544 0.84450 0.76944
 O840 O 0.70994 0.84553 0.75824
 O841 O 0.74271 0.81182 0.82337
 O842 O 0.68963 0.81875 0.79249
 O843 O 0.81061 0.82654 0.74220
 O844 O 0.81880 0.79641 0.69002
 O845 O 0.82334 0.74616 0.81118
 O846 O 0.79759 0.69298 0.81305
 O847 O 0.73210 0.73470 0.65619
 O848 O 0.74636 0.79159 0.65650
 O849 O 0.65784 0.73080 0.73180
 O850 O 0.65930 0.74847 0.79020
 O851 O 0.73439 0.65885 0.72860
 O852 O 0.79041 0.66298 0.75227
 Zr853 Zr 0.76526 0.70009 0.72588
 O854 O 0.79584 0.72954 0.75501
 Zr855 Zr 0.69848 0.72765 0.76323
 O856 O 0.72672 0.75700 0.79480
 Zr857 Zr 0.72708 0.76564 0.69720
 O858 O 0.75569 0.79737 0.72600
 Zr859 Zr 0.77370 0.73740 0.80089
 O860 O 0.74388 0.70562 0.77274
 Zr861 Zr 0.80169 0.77630 0.73489
 O862 O 0.77408 0.74568 0.70330
 Zr863 Zr 0.73501 0.80285 0.77299
 O864 O 0.70385 0.77454 0.74247
 O865 O 0.71879 0.71941 0.71706
 O866 O 0.78189 0.78431 0.78167
 C867 C 0.74753 0.70769 0.65213
 C868 C 0.70826 0.65398 0.74559
 C869 C 0.65358 0.74661 0.70497
 C870 C 0.75597 0.79510 0.84648
 C871 C 0.84659 0.75884 0.79406
 C872 C 0.79307 0.84926 0.75497
 H873 H 0.81712 0.71823 0.75701
 H874 H 0.75734 0.81841 0.71417
 H875 H 0.70494 0.70520 0.70298
 H876 H 0.71498 0.75855 0.81602
 H877 H 0.74262 0.69485 0.83625
 H878 H 0.69067 0.70411 0.82135
 H879 H 0.80398 0.81446 0.68389
 H880 H 0.76835 0.78247 0.65195
 H881 H 0.80764 0.69535 0.83512
 H882 H 0.78693 0.64144 0.74159
 H883 H 0.71539 0.84940 0.73486
 H884 H 0.69196 0.81780 0.69568
 H885 H 0.80561 0.66143 0.69384
 H886 H 0.83974 0.73770 0.70302
 H887 H 0.65239 0.76834 0.77824
 H888 H 0.68451 0.80512 0.81193
 O889 O 0.31501 0.17953 0.74509
 O890 O 0.31664 0.20173 0.69111
 O891 O 0.32489 0.26593 0.80591
 O892 O 0.29565 0.30908 0.82020
 O893 O 0.24995 0.18927 0.82406
 O894 O 0.19685 0.17969 0.80048
 O895 O 0.22901 0.34033 0.72512
 O896 O 0.28258 0.34372 0.74142
 O897 O 0.22212 0.26243 0.65721
 O898 O 0.24196 0.21007 0.65509
 O899 O 0.15500 0.26356 0.73591
 O900 O 0.15669 0.25393 0.79325
 O901 O 0.18465 0.31913 0.75189
 O902 O 0.18047 0.29355 0.80876
 O903 O 0.17346 0.23562 0.69124
 O904 O 0.20684 0.18485 0.68439
 O905 O 0.24512 0.30979 0.67564
 O906 O 0.30280 0.31274 0.69562
 O907 O 0.27078 0.15849 0.77219
 O908 O 0.21386 0.15527 0.75832
 O909 O 0.27464 0.23594 0.84205
 O910 O 0.25144 0.29256 0.83942
 O911 O 0.34367 0.23604 0.76256
 O912 O 0.33729 0.25359 0.70489
 Zr913 Zr 0.30170 0.22813 0.73354
 O914 O 0.27022 0.25449 0.70239
 Zr915 Zr 0.27354 0.26669 0.80018
 O916 O 0.24193 0.29533 0.77137
 Zr917 Zr 0.23825 0.19797 0.77488
 O918 O 0.20445 0.22352 0.74592
 Zr919 Zr 0.26055 0.30021 0.72356
 O920 O 0.29430 0.27517 0.75350
 Zr921 Zr 0.22432 0.23155 0.69888
 O922 O 0.25708 0.20273 0.72691
 Zr923 Zr 0.19707 0.27070 0.76510
 O924 O 0.22756 0.24322 0.79694
 O925 O 0.28348 0.22090 0.78076
 O926 O 0.21469 0.27800 0.71767
 C927 C 0.29945 0.15601 0.75950
 C928 C 0.34803 0.25279 0.78895
 C929 C 0.26369 0.20669 0.84640
 C930 C 0.20009 0.34262 0.73728
 C931 C 0.23146 0.29231 0.65332
 C932 C 0.15049 0.24843 0.70857
 H933 H 0.28038 0.25679 0.68039
 H934 H 0.18396 0.21052 0.74532
 H935 H 0.29914 0.20868 0.79458
 H936 H 0.23925 0.31698 0.78185
 H937 H 0.30418 0.33750 0.75045
 H938 H 0.29233 0.32676 0.80404
 H939 H 0.18895 0.17855 0.69963
 H940 H 0.22309 0.15000 0.73643
 H941 H 0.29847 0.33380 0.68440
 H942 H 0.35904 0.24325 0.70765
 H943 H 0.15380 0.23040 0.78832
 H944 H 0.19021 0.19689 0.81627
 H945 H 0.33924 0.19355 0.69446
 H946 H 0.26350 0.20056 0.66054
 H947 H 0.23216 0.27956 0.84657
 H948 H 0.19350 0.31377 0.81196
 O949 O 0.19048 0.82602 0.25283
 O950 O 0.18345 0.80413 0.19848
 O951 O 0.17876 0.74778 0.31665
 O952 O 0.19978 0.69764 0.32468
 O953 O 0.26616 0.80880 0.32609
 O954 O 0.31374 0.81652 0.29404
 O955 O 0.25892 0.65806 0.22382
 O956 O 0.20792 0.65818 0.24696
 O957 O 0.26271 0.73595 0.15626
 O958 O 0.25340 0.79058 0.15659
 O959 O 0.33941 0.72511 0.22908
 O960 O 0.34290 0.73719 0.28710
 O961 O 0.30677 0.67553 0.24674
 O962 O 0.31713 0.69870 0.30351
 O963 O 0.31888 0.75161 0.18468
 O964 O 0.29405 0.80890 0.18187
 O965 O 0.23467 0.69171 0.17569
 O966 O 0.18274 0.69221 0.20604
 O967 O 0.23853 0.84343 0.27547
 O968 O 0.29398 0.84117 0.25455
 O969 O 0.23760 0.76500 0.34572
 O970 O 0.24857 0.70640 0.34086
 O971 O 0.15867 0.77623 0.27313
 O972 O 0.15705 0.75512 0.21695
 Zr973 Zr 0.19827 0.77701 0.24032
 O974 O 0.22336 0.74745 0.20651
 Zr975 Zr 0.22772 0.73611 0.30390
 O976 O 0.25317 0.70401 0.27236
 Zr977 Zr 0.26812 0.80100 0.27486
 O978 O 0.29599 0.77157 0.24279
 Zr979 Zr 0.22989 0.70060 0.22650
 O980 O 0.20195 0.72935 0.25967
 Zr981 Zr 0.27089 0.76531 0.19819
 O982 O 0.24435 0.79769 0.22905
 Zr983 Zr 0.29954 0.72399 0.26177
 O984 O 0.27540 0.75460 0.29597
 O985 O 0.22169 0.78282 0.28547
 O986 O 0.27701 0.71814 0.21617
 C987 C 0.20893 0.84810 0.26566
 C988 C 0.15566 0.76303 0.30149
 C989 C 0.25386 0.79175 0.34968
 C990 C 0.28872 0.65363 0.23306
 C991 C 0.24745 0.70860 0.15226
 C992 C 0.34208 0.73699 0.20008
 H993 H 0.21045 0.74684 0.18596
 H994 H 0.31780 0.78177 0.23968
 H995 H 0.20978 0.79685 0.30131
 H996 H 0.25472 0.68217 0.28264
 H997 H 0.18818 0.66554 0.25903
 H998 H 0.20303 0.67834 0.31042
 H999 H 0.31505 0.81126 0.19377
 H1000 H 0.28346 0.84616 0.23327
 H1001 H 0.18299 0.67077 0.19461
 H1002 H 0.13751 0.76910 0.22010
 H1003 H 0.35057 0.75838 0.27814
 H1004 H 0.32247 0.79788 0.30675
 H1005 H 0.16240 0.81516 0.20341
 H1006 H 0.23340 0.80210 0.16383
 H1007 H 0.27114 0.71462 0.34446
 H1008 H 0.30333 0.67900 0.30684
 O1009 O 0.23799 0.65423 0.76278
 O1010 O 0.29417 0.65848 0.75158
 O1011 O 0.22687 0.72684 0.84198
 O1012 O 0.23373 0.78039 0.84779
 O1013 O 0.15699 0.72180 0.76143
 O1014 O 0.15849 0.74188 0.70686
 O1015 O 0.30848 0.82463 0.76703
 O1016 O 0.31242 0.79635 0.81492
 O1017 O 0.32450 0.75432 0.69111
 O1018 O 0.30564 0.70061 0.68245
 O1019 O 0.24736 0.81585 0.68214
 O1020 O 0.19476 0.82211 0.70419
 O1021 O 0.26394 0.84325 0.73920
 O1022 O 0.20261 0.83718 0.75041
 O1023 O 0.27473 0.77257 0.66049
 O1024 O 0.26090 0.71372 0.65707
 O1025 O 0.34154 0.77816 0.73866
 O1026 O 0.34017 0.75023 0.79239
 O1027 O 0.19385 0.67263 0.73418
 O1028 O 0.18595 0.70510 0.68569
 O1029 O 0.17379 0.74492 0.80939
 O1030 O 0.19724 0.80106 0.81749
 O1031 O 0.25301 0.68265 0.82044
 O1032 O 0.31021 0.68820 0.79783
 Zr1033 Zr 0.26577 0.69688 0.77214
 O1034 O 0.29670 0.72869 0.74541
 Zr1035 Zr 0.22273 0.75879 0.80190
 O1036 O 0.25285 0.79299 0.77763
 Zr1037 Zr 0.19988 0.72389 0.73206
 O1038 O 0.22829 0.75734 0.70456
 Zr1039 Zr 0.29996 0.77393 0.76968
 O1040 O 0.27098 0.74119 0.79815
 Zr1041 Zr 0.27616 0.73941 0.69967
 O1042 O 0.24698 0.70439 0.72445
 Zr1043 Zr 0.23433 0.80153 0.73033
 O1044 O 0.20186 0.76958 0.75595
 O1045 O 0.21821 0.71384 0.77849
 O1046 O 0.28177 0.78457 0.72302
 C1047 C 0.21134 0.64964 0.74655
 C1048 C 0.23911 0.69810 0.84427
 C1049 C 0.15197 0.73152 0.79109
 C1050 C 0.29121 0.84768 0.75450
 C1051 C 0.34620 0.76863 0.70888
 C1052 C 0.26233 0.80119 0.65846
 H1053 H 0.31855 0.71860 0.74276
 H1054 H 0.21775 0.76080 0.68301
 H1055 H 0.20443 0.69779 0.79050
 H1056 H 0.25359 0.81308 0.79116
 H1057 H 0.30704 0.78034 0.83240
 H1058 H 0.25424 0.79300 0.84477
 H1059 H 0.24110 0.72458 0.64843
 H1060 H 0.20429 0.69133 0.67791
 H1061 H 0.35868 0.76602 0.79359
 H1062 H 0.30778 0.66830 0.81153
 H1063 H 0.18454 0.80423 0.69136
 H1064 H 0.15352 0.76351 0.71659
 H1065 H 0.29342 0.63931 0.76651
 H1066 H 0.29812 0.68077 0.69421
 H1067 H 0.17909 0.80451 0.80178
 H1068 H 0.21260 0.84520 0.77104
 O1069 O 0.25932 0.19154 0.17629
 O1070 O 0.30776 0.18337 0.20314
 O1071 O 0.19117 0.17736 0.26149
 O1072 O 0.17475 0.20437 0.30455
 O1073 O 0.17622 0.26048 0.18973
 O1074 O 0.20445 0.30906 0.18025
 O1075 O 0.27142 0.26696 0.34384
 O1076 O 0.25348 0.21480 0.34455
 O1077 O 0.34277 0.27262 0.26706
 O1078 O 0.34452 0.25834 0.21288
 O1079 O 0.26675 0.34405 0.27179
 O1080 O 0.21152 0.34637 0.26076
 O1081 O 0.24350 0.31134 0.32533
 O1082 O 0.19027 0.31902 0.29433
 O1083 O 0.31129 0.32582 0.24367
 O1084 O 0.31875 0.29631 0.19128
 O1085 O 0.32371 0.24558 0.31212
 O1086 O 0.29766 0.19232 0.31380
 O1087 O 0.23135 0.23572 0.15753
 O1088 O 0.24567 0.29252 0.15820
 O1089 O 0.15750 0.23146 0.23355
 O1090 O 0.15945 0.24944 0.29209
 O1091 O 0.23307 0.15943 0.22933
 O1092 O 0.28939 0.16276 0.25303
 Zr1093 Zr 0.26452 0.20023 0.22689
 O1094 O 0.29566 0.22912 0.25599
 Zr1095 Zr 0.19826 0.22825 0.26488
 O1096 O 0.22706 0.25702 0.29647
 Zr1097 Zr 0.22664 0.26632 0.19886
 O1098 O 0.25583 0.29753 0.22766
 Zr1099 Zr 0.27392 0.23693 0.30209
 O1100 O 0.24352 0.20569 0.27393
 Zr1101 Zr 0.30165 0.27589 0.23602
 O1102 O 0.27350 0.24585 0.20445
 Zr1103 Zr 0.23559 0.30291 0.27487
 O1104 O 0.20385 0.27519 0.24436
 O1105 O 0.21818 0.22005 0.21854
 O1106 O 0.28231 0.28382 0.28300
 C1107 C 0.24664 0.20867 0.15321
 C1108 C 0.20713 0.15471 0.24664
 C1109 C 0.15318 0.24696 0.20652
 C1110 C 0.25692 0.29444 0.34821
 C1111 C 0.34681 0.25859 0.29500
 C1112 C 0.29432 0.34854 0.25711
 H1113 H 0.31690 0.21770 0.25780
 H1114 H 0.25766 0.31867 0.21603
 H1115 H 0.20419 0.20602 0.20442
 H1116 H 0.21546 0.25853 0.31777
 H1117 H 0.24268 0.19433 0.33719
 H1118 H 0.19060 0.20442 0.32289
 H1119 H 0.30397 0.31446 0.18533
 H1120 H 0.26765 0.28346 0.15351
 H1121 H 0.30798 0.19457 0.33574
 H1122 H 0.28526 0.14123 0.24256
 H1123 H 0.21619 0.34984 0.23716
 H1124 H 0.19131 0.31836 0.19844
 H1125 H 0.30396 0.16091 0.19457
 H1126 H 0.33844 0.23713 0.20283
 H1127 H 0.15235 0.26913 0.27994
 H1128 H 0.18521 0.30553 0.31389
 O1129 O 0.81533 0.68109 0.24314
 O1130 O 0.81715 0.70319 0.18928
 O1131 O 0.82846 0.76938 0.30238
 O1132 O 0.79955 0.81309 0.31631
 O1133 O 0.75332 0.69342 0.32414
 O1134 O 0.69923 0.68444 0.30278
 O1135 O 0.73097 0.84268 0.22277
 O1136 O 0.78499 0.84565 0.23692
 O1137 O 0.72142 0.76265 0.15658
 O1138 O 0.74143 0.71024 0.15536
 O1139 O 0.65624 0.76608 0.23652
 O1140 O 0.66041 0.75773 0.29524
 O1141 O 0.68650 0.82196 0.24973
 O1142 O 0.68280 0.79923 0.30699
 O1143 O 0.67362 0.73710 0.19208
 O1144 O 0.70640 0.68600 0.18595
 O1145 O 0.74456 0.81057 0.17337
 O1146 O 0.80313 0.81353 0.19114
 O1147 O 0.77182 0.66125 0.27223
 O1148 O 0.71450 0.65851 0.26080
 O1149 O 0.77839 0.74048 0.34059
 O1150 O 0.75593 0.79731 0.33715
 O1151 O 0.84509 0.73650 0.26035
 O1152 O 0.83797 0.75502 0.20239
 Zr1153 Zr 0.80270 0.72986 0.23168
 O1154 O 0.77067 0.75568 0.20066
 Zr1155 Zr 0.77675 0.77031 0.29798
 O1156 O 0.74443 0.79837 0.26926
 Zr1157 Zr 0.74002 0.70131 0.27529
 O1158 O 0.70568 0.72629 0.24648
 Zr1159 Zr 0.76185 0.80200 0.22090
 O1160 O 0.79632 0.77749 0.25057
 Zr1161 Zr 0.72457 0.73290 0.19886
 O1162 O 0.75776 0.70461 0.22681
 Zr1163 Zr 0.69914 0.77401 0.26457
 O1164 O 0.73040 0.74729 0.29638
 O1165 O 0.78561 0.72390 0.27947
 O1166 O 0.71573 0.77992 0.21664
 C1167 C 0.79990 0.65804 0.25841
 C1168 C 0.85068 0.75414 0.28592
 C1169 C 0.76762 0.71126 0.34576
 C1170 C 0.70197 0.84519 0.23471
 C1171 C 0.73035 0.79250 0.15186
 C1172 C 0.65105 0.75038 0.20957
 H1173 H 0.78030 0.75737 0.17836
 H1174 H 0.68511 0.71340 0.24669
 H1175 H 0.80141 0.71163 0.29308
 H1176 H 0.74214 0.82031 0.27922
 H1177 H 0.80679 0.83937 0.24544
 H1178 H 0.79603 0.83031 0.29968
 H1179 H 0.68872 0.68029 0.20164
 H1180 H 0.72275 0.65261 0.23870
 H1181 H 0.79847 0.83428 0.17949
 H1182 H 0.85981 0.74496 0.20539
 H1183 H 0.65590 0.73463 0.28950
 H1184 H 0.69339 0.70217 0.31829
 H1185 H 0.83978 0.69502 0.19247
 H1186 H 0.76271 0.70020 0.16089
 H1187 H 0.73623 0.78508 0.34451
 H1188 H 0.69738 0.81834 0.31032
 O1189 O 0.67853 0.24397 0.81473
 O1190 O 0.70128 0.18927 0.81231
 O1191 O 0.76505 0.30445 0.82788
 O1192 O 0.80846 0.32005 0.79911
 O1193 O 0.68974 0.32426 0.75077
 O1194 O 0.68145 0.30098 0.69702
 O1195 O 0.84095 0.22555 0.72957
 O1196 O 0.84458 0.24248 0.78246
 O1197 O 0.76372 0.15785 0.72235
 O1198 O 0.70302 0.16196 0.74421
 O1199 O 0.76608 0.23731 0.65550
 O1200 O 0.75430 0.29632 0.66000
 O1201 O 0.82053 0.25341 0.68583
 O1202 O 0.79673 0.30822 0.68053
 O1203 O 0.73670 0.19286 0.67217
 O1204 O 0.69037 0.18062 0.70005
 O1205 O 0.80965 0.17613 0.74826
 O1206 O 0.81240 0.19837 0.80480
 O1207 O 0.65831 0.27200 0.77100
 O1208 O 0.65572 0.25946 0.71393
 O1209 O 0.73570 0.34185 0.77708
 O1210 O 0.79282 0.33987 0.75494
 O1211 O 0.73336 0.26145 0.84454
 O1212 O 0.75089 0.20517 0.83858
 Zr1213 Zr 0.72735 0.23315 0.80159
 O1214 O 0.75481 0.20281 0.77004
 Zr1215 Zr 0.76655 0.30021 0.77588
 O1216 O 0.79573 0.27226 0.74360
 Zr1217 Zr 0.69846 0.27535 0.73869
 O1218 O 0.72453 0.24667 0.70476
 Zr1219 Zr 0.80060 0.22452 0.76140
 O1220 O 0.77468 0.25339 0.79555
 Zr1221 Zr 0.73253 0.19952 0.72363
 O1222 O 0.70290 0.22734 0.75630
 Zr1223 Zr 0.77191 0.26614 0.69822
 O1224 O 0.74419 0.29747 0.72927
 O1225 O 0.72039 0.28053 0.78446
 O1226 O 0.77928 0.21865 0.71505
 C1227 C 0.65531 0.25863 0.79936
 C1228 C 0.75042 0.28741 0.85026
 C1229 C 0.70685 0.34639 0.76522
 C1230 C 0.84365 0.23821 0.70088
 C1231 C 0.79259 0.15364 0.73440
 C1232 C 0.75067 0.21035 0.64984
 H1233 H 0.75714 0.18111 0.78048
 H1234 H 0.71184 0.24612 0.68410
 H1235 H 0.70778 0.29401 0.80022
 H1236 H 0.81748 0.28277 0.74114
 H1237 H 0.83855 0.25215 0.80394
 H1238 H 0.82675 0.30504 0.79425
 H1239 H 0.67814 0.19961 0.69151
 H1240 H 0.65058 0.23727 0.72228
 H1241 H 0.83350 0.18697 0.80107
 H1242 H 0.73767 0.20596 0.85906
 H1243 H 0.73251 0.28781 0.65351
 H1244 H 0.69887 0.31683 0.69093
 H1245 H 0.69082 0.19125 0.83424
 H1246 H 0.71682 0.14930 0.75952
 H1247 H 0.78070 0.34657 0.73503
 H1248 H 0.81376 0.31418 0.69674
 N1249 N 0.06185 1.00846 1.18432
 C1250 C 0.09370 0.99948 1.18714
 N1251 N 0.11120 0.99304 1.15951
 N1252 N 0.09731 0.99484 1.13011
 C1253 C 0.06551 1.00371 1.12724
 N1254 N 0.04794 1.01040 1.15482
 N1255 N 0.56189 0.51364 0.68317
 C1256 C 0.59325 0.50298 0.68571
 N1257 N 0.61031 0.49626 0.65785
 N1258 N 0.59644 0.49940 0.62855
 C1259 C 0.56513 0.50994 0.62595
 N1260 N 0.54801 0.51689 0.65375
 N1261 N 0.39380 -0.00445 0.66222
 C1262 C 0.41162 -0.00766 0.69014
 N1263 N 0.44451 -0.01203 0.68772
 N1264 N 0.45893 -0.01268 0.65827
 C1265 C 0.44097 -0.00886 0.63044
 N1266 N 0.40817 -0.00489 0.63295
 N1267 N -0.11113 0.49679 1.15744
 C1268 C -0.09332 0.49211 1.18514
 N1269 N -0.06101 0.48486 1.18240
 N1270 N -0.04706 0.48279 1.15280
 C1271 C -0.06497 0.48793 1.12516
 N1272 N -0.09722 0.49491 1.12801
 N1273 N -0.11308 0.49518 0.33790
 C1274 C -0.09424 0.49885 0.31054
 N1275 N -0.06187 0.50581 0.31428
 N1276 N -0.04882 0.50879 0.34412
 C1277 C -0.06757 0.50486 0.37149
 N1278 N -0.09996 0.49783 0.36781
 N1279 N 0.38694 1.00101 -0.15922
 C1280 C 0.40643 0.99990 -0.18641
 N1281 N 0.43942 1.00195 -0.18229
 N1282 N 0.45234 1.00511 -0.15241
 C1283 C 0.43289 1.00603 -0.12530
 N1284 N 0.39990 1.00367 -0.12923
 N1285 N 0.56011 0.49691 -0.18598
 C1286 C 0.59263 0.50350 -0.18938
 N1287 N 0.61087 0.50813 -0.16188
 N1288 N 0.59705 0.50651 -0.13217
 C1289 C 0.56455 0.49978 -0.12882
 N1290 N 0.54635 0.49502 -0.15630
 N1291 N 0.11055 0.00559 0.33944
 C1292 C 0.09260 0.00005 0.31193
 N1293 N 0.06057 -0.00865 0.31528
 N1294 N 0.04696 -0.01151 0.34494
 C1295 C 0.06485 -0.00575 0.37243
 N1296 N 0.09688 0.00298 0.36912
 N1297 N 0.18427 1.05940 1.01247
 C1298 C 0.18682 1.09113 1.00296
 N1299 N 0.15910 1.10808 0.99640
 N1300 N 0.12989 1.09379 0.99863
 C1301 C 0.12726 1.06211 1.00800
 N1302 N 0.15493 1.04509 1.01484
 N1303 N 0.66040 0.61217 0.49035
 C1304 C 0.68768 0.59456 0.49711
 N1305 N 0.68422 0.56318 0.50745
 N1306 N 0.65451 0.54982 0.51040
 C1307 C 0.62728 0.56748 0.50347
 N1308 N 0.63075 0.59881 0.49318
 N1309 N 0.68509 0.44113 -0.01427
 C1310 C 0.68710 0.40902 -0.00578
 N1311 N 0.65895 0.39243 0.00114
 N1312 N 0.63010 0.40710 0.00009
 C1313 C 0.62801 0.43904 -0.00816
 N1314 N 0.65597 0.45589 -0.01540
 N1315 N 0.18557 -0.05685 0.48739
 C1316 C 0.18893 -0.08920 0.49389
 N1317 N 0.16155 -0.10783 0.49806
 N1318 N 0.13189 -0.09473 0.49643
 C1319 C 0.12842 -0.06245 0.49020
 N1320 N 0.15574 -0.04372 0.48558
 N1321 N 0.34188 -0.10733 0.49715
 C1322 C 0.31475 -0.08841 0.50048
 N1323 N 0.31887 -0.05609 0.50723
 N1324 N 0.34882 -0.04324 0.51041
 C1325 C 0.37595 -0.06212 0.50690
 N1326 N 0.37187 -0.09442 0.50002
 N1327 N -0.18669 0.43531 0.99361
 C1328 C -0.19119 0.40233 0.99356
 N1329 N -0.16423 0.38297 0.99591
 N1330 N -0.13420 0.39605 0.99805
 C1331 C -0.12993 0.42907 0.99858
 N1332 N -0.15680 0.44837 0.99625
 N1333 N -0.18504 0.55928 0.49158
 C1334 C -0.18778 0.59158 0.49895
 N1335 N -0.16000 0.60923 0.50426
 N1336 N -0.13067 0.59505 0.50260
 C1337 C -0.12797 0.56277 0.49516
 N1338 N -0.15573 0.54515 0.48968
 N1339 N 0.33881 1.11012 0.00770
 C1340 C 0.31136 1.09169 0.00331
 N1341 N 0.31473 1.05929 -0.00328
 N1342 N 0.34432 1.04583 -0.00533
 C1343 C 0.37175 1.06420 -0.00078
 N1344 N 0.36844 1.09659 0.00592
 N1345 N -0.00658 1.15647 1.10926
 C1346 C 0.00018 1.18391 1.09172
 N1347 N 0.01025 1.18088 1.06005
 N1348 N 0.01297 1.15139 1.04635
 C1349 C 0.00604 1.12400 1.06398
 N1350 N -0.00397 1.12708 1.09559
 N1351 N 0.49047 0.66299 0.60895
 C1352 C 0.49813 0.69043 0.59173
 N1353 N 0.50935 0.68734 0.56045
 N1354 N 0.51224 0.65783 0.54681
 C1355 C 0.50446 0.63045 0.56414
 N1356 N 0.49329 0.63360 0.59534
 N1357 N -0.01639 0.68211 0.44034
 C1358 C -0.00661 0.68551 0.40863
 N1359 N 0.00114 0.65839 0.39104
 N1360 N -0.00038 0.62894 0.40456
 C1361 C -0.01001 0.62542 0.43617
 N1362 N -0.01795 0.65247 0.45393
 N1363 N 0.49282 1.15959 -0.10827
 C1364 C 0.48932 1.18720 -0.09005
 N1365 N 0.48415 1.18448 -0.05722
 N1366 N 0.48303 1.15502 -0.04319
 C1367 C 0.48713 1.12749 -0.06152
 N1368 N 0.49188 1.13031 -0.09429
 N1369 N 0.49346 0.33910 -0.11015
 C1370 C 0.49706 0.31213 -0.09102
 N1371 N 0.50392 0.31628 -0.05865
 N1372 N 0.50700 0.34618 -0.04591
 C1373 C 0.50323 0.37314 -0.06497
 N1374 N 0.49622 0.36904 -0.09733
 N1375 N 0.00065 -0.18584 0.44015
 C1376 C -0.00660 -0.18960 0.40779
 N1377 N -0.00893 -0.16243 0.38876
 N1378 N -0.00471 -0.13268 0.40166
 C1379 C 0.00269 -0.12896 0.43398
 N1380 N 0.00517 -0.15614 0.45298
 N1381 N 0.49435 -0.18079 0.56043
 C1382 C 0.50222 -0.18492 0.59256
 N1383 N 0.50824 -0.15796 0.61120
 N1384 N 0.50679 -0.12808 0.59813
 C1385 C 0.49879 -0.12401 0.56601
 N1386 N 0.49264 -0.15095 0.54744
 N1387 N -0.00476 0.31108 1.05681
 C1388 C 0.00186 0.30815 1.08939
 N1389 N 0.00593 0.33577 1.10749
 N1390 N 0.00374 0.36515 1.09352
 C1391 C -0.00300 0.36806 1.06098
 N1392 N -0.00717 0.34045 1.04287
 N1393 N 0.73804 0.35295 0.08814
 C1394 C 0.75575 0.34226 0.06193
 N1395 N 0.77724 0.31737 0.06681
 N1396 N 0.77969 0.30335 0.09652
 C1397 C 0.76125 0.31410 0.12242
 N1398 N 0.74075 0.33942 0.11758
 N1399 N 0.24670 0.86040 0.59300
 C1400 C 0.25952 0.84553 0.56602
 N1401 N 0.27558 0.81681 0.56992
 N1402 N 0.27768 0.80315 0.59967
 C1403 C 0.26397 0.81779 0.62645
 N1404 N 0.24889 0.84690 0.62257
 N1405 N 0.77431 0.65823 0.58153
 C1406 C 0.75725 0.67180 0.55650
 N1407 N 0.73741 0.69757 0.56301
 N1408 N 0.73490 0.70954 0.59334
 C1409 C 0.75134 0.69545 0.61849
 N1410 N 0.77165 0.67004 0.61193
 N1411 N 0.27342 0.15971 0.08229
 C1412 C 0.25542 0.17258 0.05754
 N1413 N 0.23508 0.19791 0.06432
 N1414 N 0.23293 0.21006 0.09461
 C1415 C 0.25025 0.19656 0.11949
 N1416 N 0.27110 0.17167 0.11265
 N1417 N 0.27038 0.19341 0.93603
 C1418 C 0.26190 0.16125 0.93808
 N1419 N 0.25682 0.14420 0.90999
 N1420 N 0.25914 0.15870 0.88095
 C1421 C 0.26647 0.19096 0.87868
 N1422 N 0.27270 0.20806 0.90672
 N1423 N 0.77092 0.69872 0.43553
 C1424 C 0.76623 0.66580 0.43726
 N1425 N 0.76523 0.64827 0.40904
 N1426 N 0.76781 0.66298 0.38012
 C1427 C 0.77136 0.69589 0.37810
 N1428 N 0.77357 0.71357 0.40636
 N1429 N 0.27903 0.84302 0.42007
 C1430 C 0.26175 0.82950 0.44525
 N1431 N 0.24301 0.80265 0.43899
 N1432 N 0.24159 0.78984 0.40889
 C1433 C 0.25813 0.80395 0.38356
 N1434 N 0.27749 0.83035 0.38989
 N1435 N 0.77824 0.32565 0.92853
 C1436 C 0.75047 0.32361 0.94708
 N1437 N 0.72398 0.30801 0.93403
 N1438 N 0.72473 0.29543 0.90390
 C1439 C 0.75172 0.29883 0.88479
 N1440 N 0.77876 0.31364 0.89786
 N1441 N 0.83840 0.41954 0.27488
 C1442 C 0.82427 0.44388 0.25730
 N1443 N 0.79804 0.43635 0.23816
 N1444 N 0.78638 0.40585 0.23667
 C1445 C 0.80119 0.38139 0.25347
 N1446 N 0.82692 0.38897 0.27324
 N1447 N 0.30176 0.93650 0.74255
 C1448 C 0.32826 0.94332 0.76157
 N1449 N 0.34176 0.91865 0.77919
 N1450 N 0.32936 0.88843 0.77776
 C1451 C 0.30330 0.88155 0.75817
 N1452 N 0.28921 0.90636 0.74126
 N1453 N 0.14709 0.91206 0.26272
 C1454 C 0.16523 0.93988 0.26398
 N1455 N 0.19811 0.93764 0.26878
 N1456 N 0.21233 0.90836 0.27133
 C1457 C 0.19407 0.88052 0.26887
 N1458 N 0.16119 0.88302 0.26519
 N1459 N 0.64531 0.41015 0.75545
 C1460 C 0.66236 0.43809 0.76125
 N1461 N 0.69408 0.43589 0.77125
 N1462 N 0.70833 0.40662 0.77430
 C1463 C 0.69127 0.37873 0.76740
 N1464 N 0.65940 0.38117 0.75853
 N1465 N 0.69898 0.56522 0.73385
 C1466 C 0.67399 0.55779 0.75470
 N1467 N 0.66082 0.58209 0.77315
 N1468 N 0.67217 0.61264 0.77076
 C1469 C 0.69668 0.62011 0.74934
 N1470 N 0.71048 0.59568 0.73159
 N1471 N 0.19669 0.06627 0.23425
 C1472 C 0.17201 0.05896 0.25550
 N1473 N 0.15933 0.08323 0.27431
 N1474 N 0.17094 0.11367 0.27194
 C1475 C 0.19520 0.12102 0.25020
 N1476 N 0.20844 0.09661 0.23200
 N1477 N 0.35880 0.09054 0.74576
 C1478 C 0.34329 0.06384 0.75839
 N1479 N 0.31383 0.06786 0.77339
 N1480 N 0.30017 0.09749 0.77475
 C1481 C 0.31550 0.12397 0.76121
 N1482 N 0.34528 0.11997 0.74717
 N1483 N 0.85722 0.59130 0.24239
 C1484 C 0.84149 0.56486 0.25529
 N1485 N 0.81265 0.56947 0.27133
 N1486 N 0.79978 0.59941 0.27339
 C1487 C 0.81529 0.62565 0.25957
 N1488 N 0.84448 0.62104 0.24449
 N1489 N 0.90974 0.25792 0.14346
 C1490 C 0.93768 0.26170 0.16101
 N1491 N 0.93543 0.27045 0.19319
 N1492 N 0.90606 0.27413 0.20742
 C1493 C 0.87809 0.26918 0.18987
 N1494 N 0.88063 0.26164 0.15754
 N1495 N 0.40988 0.76583 0.64590
 C1496 C 0.43789 0.76746 0.66365
 N1497 N 0.43582 0.77297 0.69654
 N1498 N 0.40654 0.77567 0.71117
 C1499 C 0.37850 0.77280 0.69333
 N1500 N 0.38085 0.76851 0.66040
 N1501 N 0.43650 0.24004 0.80020
 C1502 C 0.44324 0.25934 0.82654
 N1503 N 0.41876 0.27777 0.83941
 N1504 N 0.38870 0.27670 0.82666
 C1505 C 0.38185 0.25673 0.80085
 N1506 N 0.40653 0.23910 0.78731
 N1507 N 0.92828 0.78084 0.32540
 C1508 C 0.94570 0.75255 0.32466
 N1509 N 0.93236 0.72619 0.30918
 N1510 N 0.90283 0.72751 0.29565
 C1511 C 0.88471 0.75501 0.29787
 N1512 N 0.89815 0.78194 0.31244
 N1513 N 0.06659 0.77364 0.31412
 C1514 C 0.06259 0.76079 0.34460
 N1515 N 0.08961 0.75118 0.36145
 N1516 N 0.11935 0.75320 0.34823
 C1517 C 0.12335 0.76493 0.31743
 N1518 N 0.09653 0.77575 0.30083
 N1519 N 0.58936 0.24282 0.85834
 C1520 C 0.56277 0.25600 0.84345
 N1521 N 0.56698 0.27198 0.81451
 N1522 N 0.59671 0.27378 0.80071
 C1523 C 0.62310 0.25976 0.81543
 N1524 N 0.61889 0.24469 0.84470
 N1525 N 0.58238 0.77456 0.65747
 C1526 C 0.55754 0.75701 0.67115
 N1527 N 0.56446 0.73625 0.69617
 N1528 N 0.59494 0.73336 0.70735
 C1529 C 0.61988 0.75032 0.69314
 N1530 N 0.61294 0.77153 0.66849
 N1531 N 0.06462 0.23339 0.19607
 C1532 C 0.05747 0.25351 0.17058
 N1533 N 0.08192 0.27187 0.15726
 N1534 N 0.11233 0.27021 0.16903
 C1535 C 0.11951 0.24965 0.19418
 N1536 N 0.09493 0.23188 0.20800
 N1537 N -0.10781 1.00207 0.84240
 C1538 C -0.09069 0.99719 0.81422
 N1539 N -0.05853 0.98895 0.81611
 N1540 N -0.04404 0.98618 0.84531
 C1541 C -0.06130 0.99145 0.87343
 N1542 N -0.09337 0.99947 0.87141
 N1543 N 0.39180 0.51418 0.34038
 C1544 C 0.40853 0.50633 0.31265
 N1545 N 0.43985 0.49556 0.31529
 N1546 N 0.45399 0.49317 0.34466
 C1547 C 0.43712 0.50109 0.37234
 N1548 N 0.40590 0.51187 0.36964
 N1549 N 0.55939 0.01362 0.31751
 C1550 C 0.59016 0.00160 0.31401
 N1551 N 0.60701 -0.00737 0.34123
 N1552 N 0.59370 -0.00464 0.37086
 C1553 C 0.56310 0.00747 0.37447
 N1554 N 0.54599 0.01631 0.34731
 N1555 N 0.10740 0.50242 0.83880
 C1556 C 0.08983 0.50661 0.81087
 N1557 N 0.05718 0.51246 0.81319
 N1558 N 0.04266 0.51356 0.84257
 C1559 C 0.06032 0.50881 0.87042
 N1560 N 0.09292 0.50335 0.86800
 N1561 N 0.05844 0.49453 0.68218
 C1562 C 0.09098 0.50072 0.68581
 N1563 N 0.10988 0.50371 0.65842
 N1564 N 0.09665 0.50104 0.62858
 C1565 C 0.06411 0.49475 0.62502
 N1566 N 0.04528 0.49156 0.65239
 N1567 N 0.55920 0.99972 0.18549
 C1568 C 0.59166 1.00642 0.18908
 N1569 N 0.61048 1.00945 0.16163
 N1570 N 0.59727 1.00629 0.13182
 C1571 C 0.56483 0.99938 0.12831
 N1572 N 0.54606 0.99626 0.15574
 N1573 N 0.38982 0.49552 0.16082
 C1574 C 0.40799 0.50123 0.18816
 N1575 N 0.44023 0.50899 0.18451
 N1576 N 0.45382 0.51082 0.15478
 C1577 C 0.43572 0.50493 0.12746
 N1578 N 0.40348 0.49712 0.13104
 N1579 N -0.11059 -0.00530 0.66197
 C1580 C -0.09223 -0.00069 0.68940
 N1581 N -0.05952 0.00478 0.68591
 N1582 N -0.04564 0.00560 0.65627
 C1583 C -0.06390 0.00078 0.62887
 N1584 N -0.09664 -0.00476 0.63227
 N1585 N -0.18385 0.94013 0.99273
 C1586 C -0.18775 0.90918 1.00416
 N1587 N -0.16081 0.89186 1.01275
 N1588 N -0.13107 0.90506 1.01046
 C1589 C -0.12715 0.93591 0.99897
 N1590 N -0.15403 0.95335 0.99038
 N1591 N 0.31558 0.44333 0.49295
 C1592 C 0.31288 0.41192 0.50348
 N1593 N 0.34050 0.39534 0.51127
 N1594 N 0.36973 0.40961 0.50896
 C1595 C 0.37251 0.44089 0.49833
 N1596 N 0.34493 0.45765 0.49058
 N1597 N 0.31437 0.55424 0.01397
 C1598 C 0.31146 0.58680 0.00824
 N1599 N 0.33907 0.60511 0.00435
 N1600 N 0.36851 0.59153 0.00549
 C1601 C 0.37156 0.55906 0.01092
 N1602 N 0.34401 0.54061 0.01532
 N1603 N -0.18438 0.05651 0.51316
 C1604 C -0.18618 0.08881 0.50544
 N1605 N -0.15794 0.10546 0.49909
 N1606 N -0.12918 0.09066 0.50001
 C1607 C -0.12729 0.05854 0.50750
 N1608 N -0.15534 0.04161 0.51416
 N1609 N 0.68772 0.06292 0.50452
 C1610 C 0.69226 0.09590 0.50519
 N1611 N 0.66535 0.11534 0.50308
 N1612 N 0.63531 0.10232 0.50068
 C1613 C 0.63100 0.06931 0.49957
 N1614 N 0.65783 0.04993 0.50160
 N1615 N 0.15875 0.60657 1.00374
 C1616 C 0.18588 0.58758 1.00091
 N1617 N 0.18180 0.55529 0.99405
 N1618 N 0.15189 0.54250 0.99033
 C1619 C 0.12475 0.56141 0.99337
 N1620 N 0.12877 0.59371 1.00033
 N1621 N 0.18478 0.44231 0.50164
 C1622 C 0.18871 0.40985 0.49579
 N1623 N 0.16160 0.39100 0.49106
 N1624 N 0.13175 0.40416 0.49199
 C1625 C 0.12790 0.43660 0.49806
 N1626 N 0.15499 0.45542 0.50281
 N1627 N 0.66062 0.89295 -0.00807
 C1628 C 0.68815 0.91110 -0.00325
 N1629 N 0.68498 0.94348 0.00359
 N1630 N 0.65547 0.95717 0.00555
 C1631 C 0.62796 0.93899 0.00070
 N1632 N 0.63110 0.90666 -0.00632
 N1633 N 0.01133 0.83698 0.89381
 C1634 C 0.00328 0.80951 0.91074
 N1635 N -0.00734 0.81237 0.94227
 N1636 N -0.00944 0.84174 0.95636
 C1637 C -0.00137 0.86916 0.93925
 N1638 N 0.00929 0.86621 0.90786
 N1639 N 0.51157 0.34386 0.39286
 C1640 C 0.50354 0.31648 0.40997
 N1641 N 0.49222 0.31960 0.44122
 N1642 N 0.48951 0.34908 0.45495
 C1643 C 0.49764 0.37640 0.43774
 N1644 N 0.50895 0.37324 0.40658
 N1645 N 0.01249 0.31350 0.55447
 C1646 C 0.00596 0.31102 0.58710
 N1647 N 0.00092 0.33868 0.60479
 N1648 N 0.00184 0.36780 0.59051
 C1649 C 0.00811 0.37043 0.55797
 N1650 N 0.01359 0.34283 0.54013
 N1651 N 0.51233 0.81610 0.05733
 C1652 C 0.50531 0.81327 0.08984
 N1653 N 0.50015 0.84079 0.10774
 N1654 N 0.50142 0.87008 0.09379
 C1655 C 0.50822 0.87303 0.06137
 N1656 N 0.51377 0.84558 0.04333
 N1657 N 0.49422 0.68428 0.05850
 C1658 C 0.50107 0.68827 0.09092
 N1659 N 0.50435 0.66118 0.10993
 N1660 N 0.50139 0.63132 0.09695
 C1661 C 0.49445 0.62738 0.06454
 N1662 N 0.49096 0.65446 0.04560
 N1663 N 0.00584 0.15935 0.60903
 C1664 C 0.00223 0.18616 0.58968
 N1665 N -0.00432 0.18175 0.55728
 N1666 N -0.00711 0.15177 0.54471
 C1667 C -0.00336 0.12497 0.56399
 N1668 N 0.00336 0.12931 0.59638
 N1669 N 0.49467 0.16481 0.39349
 C1670 C 0.49943 0.19243 0.41144
 N1671 N 0.50686 0.18944 0.44384
 N1672 N 0.50934 0.16006 0.45777
 C1673 C 0.50445 0.13246 0.43983
 N1674 N 0.49693 0.13542 0.40746
 N1675 N -0.00822 0.65823 0.89011
 C1676 C -0.00276 0.68531 0.90874
 N1677 N 0.00492 0.68133 0.94095
 N1678 N 0.00697 0.65156 0.95406
 C1679 C 0.00136 0.62451 0.93551
 N1680 N -0.00642 0.62841 0.90329
 N1681 N 0.25438 0.63879 0.90970
 C1682 C 0.24200 0.65384 0.93677
 N1683 N 0.22662 0.68297 0.93305
 N1684 N 0.22465 0.69676 0.90335
 C1685 C 0.23788 0.68188 0.87647
 N1686 N 0.25234 0.65243 0.88020
 N1687 N 0.76403 0.14602 0.41194
 C1688 C 0.74593 0.15643 0.43801
 N1689 N 0.72407 0.18096 0.43294
 N1690 N 0.72154 0.19483 0.40317
 C1691 C 0.74030 0.18429 0.37740
 N1692 N 0.76126 0.15940 0.38245
 N1693 N 0.27050 0.30646 0.43668
 C1694 C 0.24864 0.33035 0.44397
 N1695 N 0.22938 0.34216 0.41966
 N1696 N 0.23187 0.33045 0.38921
 C1697 C 0.25406 0.30687 0.38187
 N1698 N 0.27277 0.29450 0.40632
 N1699 N 0.72815 0.84353 0.91733
 C1700 C 0.74638 0.83102 0.94207
 N1701 N 0.76767 0.80650 0.93525
 N1702 N 0.77039 0.79461 0.90491
 C1703 C 0.75271 0.80765 0.88004
 N1704 N 0.73106 0.83185 0.88690
 N1705 N 0.73027 0.85556 0.08878
 C1706 C 0.73134 0.83791 0.06063
 N1707 N 0.72824 0.80483 0.06233
 N1708 N 0.72528 0.78998 0.09144
 C1709 C 0.72557 0.80779 0.11968
 N1710 N 0.72739 0.84083 0.11768
 N1711 N 0.23593 0.35646 0.59131
 C1712 C 0.23462 0.33951 0.56274
 N1713 N 0.22872 0.30674 0.56381
 N1714 N 0.22539 0.29145 0.59269
 C1715 C 0.22793 0.30850 0.62132
 N1716 N 0.23258 0.34131 0.61994
 N1717 N 0.77752 0.18941 0.56626
 C1718 C 0.75087 0.17422 0.55301
 N1719 N 0.72300 0.17249 0.57141
 N1720 N 0.72252 0.18441 0.60211
 C1721 C 0.74971 0.19878 0.61538
 N1722 N 0.77682 0.20191 0.59643
 N1723 N 0.25980 0.69575 0.06333
 C1724 C 0.24024 0.66944 0.05719
 N1725 N 0.22226 0.65681 0.08232
 N1726 N 0.22384 0.66988 0.11231
 C1727 C 0.24392 0.69578 0.11853
 N1728 N 0.26124 0.70900 0.09326
 N1729 N 0.16122 0.57880 0.72089
 C1730 C 0.17385 0.55429 0.73936
 N1731 N 0.19995 0.56106 0.75895
 N1732 N 0.21286 0.59106 0.76011
 C1733 C 0.19955 0.61575 0.74241
 N1734 N 0.17396 0.60888 0.72221
 N1735 N 0.68868 0.06609 0.27582
 C1736 C 0.67413 0.05289 0.24882
 N1737 N 0.67411 0.07061 0.22055
 N1738 N 0.68678 0.10088 0.22006
 C1739 C 0.70039 0.11419 0.24759
 N1740 N 0.70196 0.09581 0.27512
 N1741 N 0.84448 0.08803 0.76423
 C1742 C 0.83795 0.06235 0.74422
 N1743 N 0.81569 0.06656 0.71960
 N1744 N 0.80054 0.09541 0.71578
 C1745 C 0.80767 0.12100 0.73614
 N1746 N 0.82993 0.11655 0.76021
 N1747 N 0.35222 0.59128 0.23445
 C1748 C 0.33475 0.56302 0.23486
 N1749 N 0.30164 0.56436 0.23121
 N1750 N 0.28660 0.59320 0.22827
 C1751 C 0.30424 0.62153 0.22908
 N1752 N 0.33731 0.61988 0.23155
 N1753 N 0.30482 0.43719 0.26891
 C1754 C 0.32951 0.44427 0.24756
 N1755 N 0.34249 0.41971 0.22938
 N1756 N 0.33107 0.38927 0.23231
 C1757 C 0.30667 0.38215 0.25398
 N1758 N 0.29319 0.40682 0.27166
 N1759 N 0.80092 0.93855 0.76473
 C1760 C 0.82686 0.94568 0.74493
 N1761 N 0.84125 0.92091 0.72810
 N1762 N 0.83020 0.89031 0.73096
 C1763 C 0.80475 0.88316 0.75136
 N1764 N 0.78968 0.90800 0.76745
 N1765 N 0.63975 0.90870 0.24416
 C1766 C 0.65648 0.93655 0.23663
 N1767 N 0.68786 0.93404 0.22572
 N1768 N 0.70208 0.90471 0.22349
 C1769 C 0.68550 0.87703 0.23230
 N1770 N 0.65388 0.87959 0.24203
 N1771 N 0.14086 0.40774 0.75284
 C1772 C 0.15618 0.43465 0.74049
 N1773 N 0.18534 0.43089 0.72481
 N1774 N 0.19896 0.40130 0.72258
 C1775 C 0.18383 0.37456 0.73581
 N1776 N 0.15432 0.37833 0.75052
 N1777 N 0.08839 0.73209 0.85424
 C1778 C 0.06034 0.73243 0.83651
 N1779 N 0.06224 0.72922 0.80329
 N1780 N 0.09140 0.72670 0.78841
 C1781 C 0.11951 0.72760 0.80633
 N1782 N 0.11731 0.72966 0.83949
 N1783 N 0.58930 0.23840 0.35462
 C1784 C 0.56107 0.23766 0.33722
 N1785 N 0.56253 0.23159 0.30437
 N1786 N 0.59150 0.22746 0.28942
 C1787 C 0.61983 0.22936 0.30693
 N1788 N 0.61800 0.23428 0.33982
 N1789 N 0.56249 0.76418 0.19838
 C1790 C 0.55514 0.74359 0.17316
 N1791 N 0.57930 0.72438 0.16089
 N1792 N 0.60954 0.72585 0.17318
 C1793 C 0.61698 0.74694 0.19794
 N1794 N 0.59265 0.76549 0.21088
 N1795 N 0.06210 0.26196 0.69688
 C1796 C 0.05514 0.24187 0.67119
 N1797 N 0.07951 0.22312 0.65864
 N1798 N 0.10965 0.22453 0.67116
 C1799 C 0.11670 0.24513 0.69641
 N1800 N 0.09215 0.26320 0.70960
 N1801 N 0.90816 0.25186 0.63984
 C1802 C 0.93536 0.24050 0.65512
 N1803 N 0.93203 0.22606 0.68498
 N1804 N 0.90255 0.22407 0.69929
 C1805 C 0.87554 0.23641 0.68419
 N1806 N 0.87888 0.24983 0.65400
 N1807 N 0.40771 0.75183 0.14042
 C1808 C 0.43478 0.74108 0.15639
 N1809 N 0.43098 0.72637 0.18607
 N1810 N 0.40117 0.72364 0.19957
 C1811 C 0.37426 0.73539 0.18381
 N1812 N 0.37810 0.74904 0.15378
 N1813 N 0.41707 0.23206 0.34465
 C1814 C 0.44206 0.24984 0.33163
 N1815 N 0.43558 0.27053 0.30638
 N1816 N 0.40539 0.27300 0.29426
 C1817 C 0.38030 0.25571 0.30777
 N1818 N 0.38681 0.23472 0.33275
 N1819 N 0.91599 0.72913 0.84295
 C1820 C 0.94158 0.74620 0.83016
 N1821 N 0.93578 0.76761 0.80534
 N1822 N 0.90567 0.77145 0.79338
 C1823 C 0.88000 0.75488 0.80671
 N1824 N 0.88584 0.73316 0.83122
   
