data_POSCAR
  _audit_creation_date              2014-09-24
  _audit_creation_method            'ToBaCCo'
  _symmetry_space_group_name_H-M    'P1'
  _symmetry_Int_Tables_number       1
  _symmetry_cell_setting            triclinic
  loop_
  _symmetry_equiv_pos_as_xyz
 x,y,z
_cell_length_a 50.3002
_cell_length_b 50.3296
_cell_length_c 44.7007
_cell_angle_alpha 90.368600
_cell_angle_beta 89.646600
_cell_angle_gamma 90.714300
loop_
  _atom_site_label
  _atom_site_type_symbol
  _atom_site_fract_x
  _atom_site_fract_y
  _atom_site_fract_z
C1 C 0.37211 0.02229 0.30046
 C2 C 0.35542 0.04572 0.29057
 C3 C 0.34052 0.04034 0.26589
 C4 C 0.34352 0.01201 0.25333
 C5 C 0.35234 -0.00076 0.30477
 C6 C 0.33750 -0.00624 0.28003
 C7 C 0.38866 0.01452 0.27286
 C8 C 0.37356 0.00906 0.24825
 H9 H 0.35600 0.06510 0.30145
 H10 H 0.33117 0.00775 0.23328
 H11 H 0.35250 -0.01369 0.32416
 H12 H 0.41021 0.01328 0.27283
 C13 C 0.11867 -0.01553 0.77283
 C14 C 0.13255 -0.04028 0.76097
 C15 C 0.14783 -0.03559 0.73628
 C16 C 0.14773 -0.00657 0.72561
 C17 C 0.14112 0.00484 0.77817
 C18 C 0.15630 0.00957 0.75332
 C19 C 0.10361 -0.00530 0.74789
 C20 C 0.11974 -0.00030 0.72197
 H21 H 0.13183 -0.05937 0.77223
 H22 H 0.16026 -0.00295 0.70541
 H23 H 0.14281 0.01672 0.79849
 H24 H 0.08241 -0.00139 0.74883
 C25 C 0.62128 0.48501 0.27583
 C26 C 0.63478 0.46027 0.26357
 C27 C 0.64989 0.46493 0.23879
 C28 C 0.65011 0.49394 0.22830
 C29 C 0.64379 0.50527 0.28090
 C30 C 0.65878 0.51000 0.25595
 C31 C 0.60533 0.49604 0.24965
 C32 C 0.62059 0.50081 0.22483
 H33 H 0.63392 0.44111 0.27465
 H34 H 0.66246 0.49758 0.20799
 H35 H 0.64559 0.51721 0.30116
 H36 H 0.58417 0.50003 0.25074
 C37 C 0.87256 0.52182 0.79956
 C38 C 0.85579 0.54520 0.78972
 C39 C 0.84077 0.53975 0.76516
 C40 C 0.84373 0.51139 0.75265
 C41 C 0.85285 0.49875 0.80405
 C42 C 0.83789 0.49320 0.77944
 C43 C 0.88898 0.51401 0.77186
 C44 C 0.87376 0.50848 0.74737
 H45 H 0.85639 0.56459 0.80056
 H46 H 0.83128 0.50708 0.73270
 H47 H 0.85312 0.48588 0.82349
 H48 H 0.91054 0.51282 0.77168
 C49 C 0.28230 0.41634 0.99131
 C50 C 0.27389 0.39857 1.01753
 C51 C 0.25314 0.38186 1.01086
 C52 C 0.24299 0.38420 0.97869
 C53 C 0.28828 0.39729 0.96551
 C54 C 0.26782 0.38050 0.95896
 C55 C 0.25692 0.43076 0.98233
 C56 C 0.23626 0.41380 0.97594
 H57 H 0.28226 0.40034 1.03982
 H58 H 0.22630 0.37039 0.97310
 H59 H 0.30716 0.39699 0.95353
 H60 H 0.25439 0.45204 0.98513
 C61 C 0.76724 0.07270 0.98583
 C62 C 0.76047 0.09037 0.95922
 C63 C 0.74068 0.10792 0.96544
 C64 C 0.72968 0.10625 0.99763
 C65 C 0.77403 0.09212 1.01123
 C66 C 0.75444 0.10966 1.01742
 C67 C 0.74243 0.05985 0.99462
 C68 C 0.72178 0.07846 1.00108
 H69 H 0.77062 0.08942 0.93771
 H70 H 0.71370 0.12070 1.00272
 H71 H 0.79232 0.09137 1.02405
 H72 H 0.73911 0.03848 0.99384
 C73 C 0.26903 0.57365 0.48494
 C74 C 0.26266 0.59170 0.45859
 C75 C 0.24275 0.60909 0.46465
 C76 C 0.23116 0.60707 0.49646
 C77 C 0.27510 0.59252 0.51099
 C78 C 0.25541 0.60993 0.51702
 C79 C 0.24261 0.56000 0.49321
 C80 C 0.22281 0.57766 0.49917
 H81 H 0.27296 0.59085 0.43717
 H82 H 0.21503 0.62137 0.50142
 H83 H 0.29314 0.59162 0.52422
 H84 H 0.23944 0.53861 0.49261
 C85 C 0.78185 0.91645 0.49301
 C86 C 0.77338 0.89867 0.51920
 C87 C 0.75263 0.88199 0.51246
 C88 C 0.74255 0.88436 0.48025
 C89 C 0.78787 0.89741 0.46721
 C90 C 0.76741 0.88065 0.46059
 C91 C 0.75652 0.93090 0.48398
 C92 C 0.73586 0.91397 0.47751
 H93 H 0.78172 0.90041 0.54150
 H94 H 0.72586 0.87057 0.47461
 H95 H 0.80676 0.89713 0.45526
 H96 H 0.75400 0.95219 0.48678
 C97 C -0.01049 0.28620 0.39233
 C98 C 0.01301 0.28870 0.37031
 C99 C 0.01601 0.26698 0.35211
 C100 C -0.00495 0.24473 0.35762
 C101 C -0.03356 0.28051 0.37396
 C102 C -0.03063 0.25781 0.35491
 C103 C -0.00527 0.26045 0.40952
 C104 C -0.00229 0.23869 0.39138
 H105 H 0.02672 0.30555 0.37008
 H106 H -0.00261 0.22706 0.34281
 H107 H -0.05158 0.29223 0.37468
 H108 H -0.00381 0.25957 0.43373
 C109 C 0.01511 0.77145 0.10640
 C110 C -0.00856 0.77237 0.12804
 C111 C -0.01038 0.75109 0.14665
 C112 C 0.01189 0.73060 0.14206
 C113 C 0.03947 0.76830 0.12629
 C114 C 0.03793 0.74701 0.14493
 C115 C 0.01208 0.74478 0.08978
 C116 C 0.01037 0.72338 0.10846
 H117 H -0.02353 0.78775 0.12745
 H118 H 0.01057 0.71329 0.15733
 H119 H 0.05667 0.78157 0.12540
 H120 H 0.01122 0.74300 0.06558
 C121 C 0.51540 0.27150 0.60819
 C122 C 0.49166 0.27235 0.62974
 C123 C 0.48975 0.25099 0.64822
 C124 C 0.51204 0.23052 0.64364
 C125 C 0.53969 0.26826 0.62817
 C126 C 0.53808 0.24690 0.64669
 C127 C 0.51242 0.24490 0.59143
 C128 C 0.51062 0.22342 0.61000
 H129 H 0.47664 0.28769 0.62907
 H130 H 0.51066 0.21315 0.65882
 H131 H 0.55692 0.28150 0.62737
 H132 H 0.51157 0.24322 0.56722
 C133 C 0.49049 0.78556 0.89541
 C134 C 0.51388 0.78804 0.87325
 C135 C 0.51696 0.76619 0.85526
 C136 C 0.49621 0.74384 0.86113
 C137 C 0.46621 0.77952 0.87576
 C138 C 0.46909 0.75770 0.85776
 C139 C 0.49518 0.76129 0.91189
 C140 C 0.49838 0.73838 0.89312
 H141 H 0.52741 0.80503 0.87270
 H142 H 0.49859 0.72608 0.84646
 H143 H 0.44831 0.79139 0.87613
 H144 H 0.49646 0.76053 0.93614
 C145 C -0.22769 0.62263 0.95051
 C146 C -0.20435 0.60578 0.96034
 C147 C -0.20983 0.59083 0.98494
 C148 C -0.23817 0.59395 0.99750
 C149 C -0.25087 0.60303 0.94610
 C150 C -0.25645 0.58814 0.97076
 C151 C -0.23538 0.63913 0.97818
 C152 C -0.24094 0.62398 1.00272
 H153 H -0.18496 0.60627 0.94947
 H154 H -0.24251 0.58157 1.01749
 H155 H -0.26379 0.60332 0.92670
 H156 H -0.23651 0.66067 0.97831
 C157 C -0.26505 0.36868 0.47668
 C158 C -0.28980 0.38249 0.48868
 C159 C -0.28506 0.39769 0.51343
 C160 C -0.25598 0.39758 0.52400
 C161 C -0.24471 0.39115 0.47137
 C162 C -0.23993 0.40625 0.49626
 C163 C -0.25474 0.35356 0.50153
 C164 C -0.24967 0.36960 0.52750
 H165 H -0.30893 0.38177 0.47749
 H166 H -0.25230 0.41005 0.54423
 H167 H -0.23291 0.39293 0.45101
 H168 H -0.25088 0.33237 0.50051
 C169 C 0.23490 -0.12977 -0.02444
 C170 C 0.21012 -0.11583 -0.01274
 C171 C 0.21470 -0.10066 0.01206
 C172 C 0.24366 -0.10092 0.02299
 C173 C 0.25541 -0.10741 -0.02951
 C174 C 0.26005 -0.09235 -0.00455
 C175 C 0.24489 -0.14495 0.00053
 C176 C 0.24979 -0.12894 0.02656
 H177 H 0.19107 -0.11652 -0.02411
 H178 H 0.24721 -0.08848 0.04327
 H179 H 0.26745 -0.10573 -0.04971
 H180 H 0.24877 -0.16614 -0.00049
 C181 C 0.27195 1.12231 0.44932
 C182 C 0.29533 1.10556 0.45925
 C183 C 0.28980 1.09052 0.48377
 C184 C 0.26138 1.09346 0.49615
 C185 C 0.24889 1.10260 0.44470
 C186 C 0.24327 1.08762 0.46927
 C187 C 0.26403 1.13869 0.47700
 C188 C 0.25843 1.12346 0.50145
 H189 H 0.31478 1.10620 0.44852
 H190 H 0.25701 1.08100 0.51607
 H191 H 0.23607 1.10286 0.42521
 H192 H 0.26285 1.16023 0.47720
 C193 C 0.16654 0.53250 0.25757
 C194 C 0.14877 0.52404 0.23135
 C195 C 0.13208 0.50330 0.23804
 C196 C 0.13443 0.49319 0.27023
 C197 C 0.14747 0.53848 0.28336
 C198 C 0.13070 0.51802 0.28993
 C199 C 0.18100 0.50717 0.26658
 C200 C 0.16406 0.48650 0.27299
 H201 H 0.15054 0.53238 0.20905
 H202 H 0.12064 0.47650 0.27583
 H203 H 0.14714 0.55737 0.29530
 H204 H 0.20230 0.50466 0.26378
 C205 C -0.17728 1.01754 0.26406
 C206 C -0.15957 1.01075 0.29064
 C207 C -0.14215 0.99085 0.28442
 C208 C -0.14397 0.97977 0.25228
 C209 C -0.15788 1.02414 0.23857
 C210 C -0.14047 1.00444 0.23239
 C211 C -0.19030 0.99279 0.25539
 C212 C -0.17183 0.97203 0.24895
 H213 H -0.16044 1.02093 0.31213
 H214 H -0.12961 0.96370 0.24720
 H215 H -0.15857 1.04237 0.22568
 H216 H -0.21170 0.98960 0.25627
 C217 C 0.32303 0.51840 -0.23465
 C218 C 0.34104 0.51197 -0.20828
 C219 C 0.35845 0.49208 -0.21436
 C220 C 0.35649 0.48058 -0.24622
 C221 C 0.34197 0.52453 -0.26063
 C222 C 0.35940 0.50487 -0.26668
 C223 C 0.30938 0.49203 -0.24305
 C224 C 0.32707 0.47226 -0.24904
 H225 H 0.34021 0.52226 -0.18685
 H226 H 0.37080 0.46447 -0.25119
 H227 H 0.34112 0.54261 -0.27379
 H228 H 0.28798 0.48887 -0.24254
 C229 C 0.66671 0.03189 -0.24149
 C230 C 0.64892 0.02352 -0.26772
 C231 C 0.63216 0.00282 -0.26105
 C232 C 0.63448 -0.00733 -0.22887
 C233 C 0.64767 0.03792 -0.21571
 C234 C 0.63083 0.01751 -0.20915
 C235 C 0.68110 0.00651 -0.23251
 C236 C 0.66409 -0.01410 -0.22611
 H237 H 0.65068 0.03189 -0.29000
 H238 H 0.62064 -0.02398 -0.22329
 H239 H 0.64740 0.05679 -0.20373
 H240 H 0.70239 0.00395 -0.23529
 C241 C 0.03510 0.24025 0.85508
 C242 C 0.03778 0.26357 0.87730
 C243 C 0.01597 0.26674 0.89534
 C244 C -0.00654 0.24616 0.88945
 C245 C 0.02894 0.21598 0.87466
 C246 C 0.00716 0.21895 0.89272
 C247 C 0.01083 0.24513 0.83866
 C248 C -0.01203 0.24843 0.85749
 H249 H 0.05485 0.27699 0.87784
 H250 H -0.02426 0.24862 0.90416
 H251 H 0.04069 0.19800 0.87419
 H252 H 0.01003 0.24642 0.81442
 C253 C 0.52205 0.26561 0.14286
 C254 C 0.52285 0.24194 0.12123
 C255 C 0.50150 0.24015 0.10269
 C256 C 0.48109 0.26250 0.10731
 C257 C 0.51893 0.28995 0.12296
 C258 C 0.49758 0.28848 0.10439
 C259 C 0.49540 0.26268 0.15955
 C260 C 0.47393 0.26102 0.14093
 H261 H 0.53814 0.22688 0.12186
 H262 H 0.46373 0.26122 0.09209
 H263 H 0.53222 0.30713 0.12387
 H264 H 0.49368 0.26180 0.18376
 C265 C 0.02151 0.76523 0.64238
 C266 C 0.02233 0.74151 0.62081
 C267 C 0.00096 0.73965 0.60231
 C268 C -0.01949 0.76196 0.60691
 C269 C 0.01832 0.78952 0.62243
 C270 C -0.00305 0.78796 0.60390
 C271 C -0.00511 0.76228 0.65913
 C272 C -0.02660 0.76054 0.64055
 H273 H 0.03768 0.72650 0.62143
 H274 H -0.03687 0.76062 0.59172
 H275 H 0.03161 0.80671 0.62323
 H276 H -0.00680 0.76144 0.68334
 C277 C 0.53616 0.74049 0.35666
 C278 C 0.53864 0.76381 0.37880
 C279 C 0.51687 0.76690 0.39684
 C280 C 0.49446 0.74625 0.39115
 C281 C 0.52991 0.71620 0.37606
 C282 C 0.50817 0.71909 0.39411
 C283 C 0.51048 0.74564 0.33942
 C284 C 0.48867 0.74872 0.35739
 H285 H 0.55562 0.77736 0.37927
 H286 H 0.47674 0.74865 0.40584
 H287 H 0.54167 0.69823 0.37553
 H288 H 0.50967 0.74698 0.31519
 B289 B -0.01981 0.01284 1.03343
 B290 B -0.03236 0.00559 0.99993
 B291 B -0.00969 0.02992 1.00347
 B292 B 0.01258 0.02111 1.02965
 B293 B 0.00305 -0.00976 1.04199
 B294 B -0.02523 -0.01913 1.02354
 B295 B 0.01434 -0.01353 0.98251
 B296 B 0.02697 -0.00631 1.01597
 B297 B 0.00426 -0.03051 1.01233
 B298 B -0.01796 -0.02175 0.98628
 B299 B -0.00844 0.00905 0.97389
 B300 B 0.01990 0.01841 0.99232
 B301 B 0.48139 0.51317 0.53536
 B302 B 0.46913 0.50598 0.50170
 B303 B 0.49183 0.53025 0.50553
 B304 B 0.51384 0.52136 0.53196
 B305 B 0.50411 0.49050 0.54416
 B306 B 0.47598 0.48122 0.52537
 B307 B 0.51593 0.48675 0.48480
 B308 B 0.52827 0.49391 0.51841
 B309 B 0.50553 0.46977 0.51449
 B310 B 0.48358 0.47861 0.48819
 B311 B 0.49329 0.50940 0.47594
 B312 B 0.52148 0.51867 0.49470
 B313 B 0.51745 0.97072 0.54781
 B314 B 0.53231 0.97787 0.51538
 B315 B 0.50693 0.95624 0.51627
 B316 B 0.48457 0.96643 0.54217
 B317 B 0.49691 0.99550 0.55715
 B318 B 0.52693 1.00227 0.54048
 B319 B 0.48905 1.00309 0.49763
 B320 B 0.47408 0.99596 0.52995
 B321 B 0.49953 1.01754 0.52905
 B322 B 0.52180 1.00734 0.50322
 B323 B 0.50945 0.97838 0.48821
 B324 B 0.47948 0.97156 0.50483
 B325 B 0.01791 0.47036 1.04680
 B326 B 0.03271 0.47749 1.01433
 B327 B 0.00730 0.45590 1.01529
 B328 B -0.01499 0.46612 1.04125
 B329 B -0.00258 0.49517 1.05620
 B330 B 0.02742 0.50190 1.03945
 B331 B -0.01055 0.50279 0.99671
 B332 B -0.02546 0.49567 1.02907
 B333 B 0.00002 0.51721 1.02811
 B334 B 0.02222 0.50698 1.00221
 B335 B 0.00979 0.47805 0.98723
 B336 B -0.02015 0.47127 1.00393
 B337 B -0.00142 0.52280 0.47923
 B338 B 0.01425 0.51831 0.51148
 B339 B -0.01029 0.54019 0.50944
 B340 B -0.03385 0.52821 0.48608
 B341 B -0.02317 0.49784 0.47384
 B342 B 0.00704 0.49197 0.48960
 B343 B -0.02942 0.49564 0.53441
 B344 B -0.04508 0.50019 0.50218
 B345 B -0.02054 0.47829 0.50410
 B346 B 0.00301 0.49027 0.52752
 B347 B -0.00765 0.52069 0.53979
 B348 B -0.03790 0.52654 0.52406
 B349 B 0.49915 0.02294 -0.01954
 B350 B 0.51481 0.01859 0.01273
 B351 B 0.49023 0.04040 0.01058
 B352 B 0.46671 0.02831 -0.01275
 B353 B 0.47745 -0.00208 -0.02485
 B354 B 0.50767 -0.00784 -0.00905
 B355 B 0.47117 -0.00410 0.03572
 B356 B 0.45552 0.00032 0.00345
 B357 B 0.48010 -0.02153 0.00549
 B358 B 0.50362 -0.00942 0.02888
 B359 B 0.49289 0.02101 0.04102
 B360 B 0.46264 0.02675 0.02524
 B361 B 0.49342 0.49609 -0.03285
 B362 B 0.47858 0.50431 -0.00076
 B363 B 0.50183 0.48102 -0.00134
 B364 B 0.52559 0.48959 -0.02644
 B365 B 0.51632 0.51933 -0.04136
 B366 B 0.48670 0.52815 -0.02538
 B367 B 0.52368 0.52646 0.01859
 B368 B 0.53857 0.51831 -0.01350
 B369 B 0.51519 0.54159 -0.01301
 B370 B 0.49149 0.53295 0.01214
 B371 B 0.50076 0.50320 0.02700
 B372 B 0.53034 0.49434 0.01106
 B373 B -0.00679 0.99503 0.46568
 B374 B -0.02141 1.00329 0.49788
 B375 B 0.00174 0.97992 0.49710
 B376 B 0.02540 0.98840 0.47184
 B377 B 0.01615 1.01820 0.45702
 B378 B -0.01334 1.02712 0.47323
 B379 B 0.02388 1.02525 0.51693
 B380 B 0.03856 1.01707 0.48472
 B381 B 0.01527 1.04044 0.48541
 B382 B -0.00831 1.03187 0.51072
 B383 B 0.00093 1.00207 0.52547
 B384 B 0.03038 0.99311 0.50931
 B385 B 0.76384 0.23073 0.21589
 B386 B 0.75659 0.21818 0.24940
 B387 B 0.78088 0.24091 0.24588
 B388 B 0.77201 0.26313 0.21968
 B389 B 0.74116 0.25350 0.20730
 B390 B 0.73185 0.22523 0.22575
 B391 B 0.73730 0.26481 0.26677
 B392 B 0.74452 0.27743 0.23332
 B393 B 0.72036 0.25467 0.23692
 B394 B 0.72917 0.23250 0.26300
 B395 B 0.75996 0.24211 0.27543
 B396 B 0.76925 0.27045 0.25701
 B397 B 0.72041 0.76752 0.70340
 B398 B 0.72769 0.78237 0.73581
 B399 B 0.70610 0.75695 0.73501
 B400 B 0.71624 0.73464 0.70902
 B401 B 0.74523 0.74706 0.69389
 B402 B 0.75200 0.77707 0.71056
 B403 B 0.75313 0.73919 0.75335
 B404 B 0.74588 0.72424 0.72106
 B405 B 0.76741 0.74972 0.72186
 B406 B 0.75727 0.77194 0.74778
 B407 B 0.72839 0.75951 0.76294
 B408 B 0.72157 0.72955 0.74632
 B409 B 0.27219 0.24826 0.76970
 B410 B 0.26782 0.26388 0.73741
 B411 B 0.28969 0.23936 0.73960
 B412 B 0.27762 0.21584 0.76293
 B413 B 0.24719 0.22653 0.77500
 B414 B 0.24138 0.25671 0.75917
 B415 B 0.24522 0.22021 0.71442
 B416 B 0.24965 0.20460 0.74671
 B417 B 0.22775 0.22913 0.74463
 B418 B 0.23982 0.25263 0.72125
 B419 B 0.27030 0.24196 0.70914
 B420 B 0.27610 0.21175 0.72494
 B421 B 0.24532 0.74378 0.28279
 B422 B 0.25351 0.72911 0.25059
 B423 B 0.23004 0.75217 0.25141
 B424 B 0.23856 0.77591 0.27656
 B425 B 0.26846 0.76680 0.29126
 B426 B 0.27742 0.73732 0.27510
 B427 B 0.27525 0.77440 0.23130
 B428 B 0.26715 0.78912 0.26351
 B429 B 0.29060 0.76592 0.26278
 B430 B 0.28201 0.74226 0.23758
 B431 B 0.25210 0.75136 0.22294
 B432 B 0.24310 0.78081 0.23906
 B433 B 0.26335 0.73096 0.71572
 B434 B 0.25604 0.71864 0.74932
 B435 B 0.28035 0.74133 0.74566
 B436 B 0.27154 0.76338 0.71925
 B437 B 0.24070 0.75369 0.70689
 B438 B 0.23135 0.72554 0.72556
 B439 B 0.23677 0.76539 0.76626
 B440 B 0.24404 0.77779 0.73271
 B441 B 0.21986 0.75506 0.73647
 B442 B 0.22862 0.73307 0.76275
 B443 B 0.25939 0.74274 0.77515
 B444 B 0.26874 0.77095 0.75651
 B445 B 0.22075 0.26812 0.20251
 B446 B 0.22784 0.28300 0.23495
 B447 B 0.20626 0.25758 0.23403
 B448 B 0.21655 0.23526 0.20814
 B449 B 0.24562 0.24766 0.19321
 B450 B 0.25229 0.27769 0.20988
 B451 B 0.25318 0.23984 0.25273
 B452 B 0.24611 0.22486 0.22041
 B453 B 0.26764 0.25035 0.22133
 B454 B 0.25735 0.27259 0.24715
 B455 B 0.22839 0.26017 0.26212
 B456 B 0.22166 0.23020 0.24549
 B457 B 0.77303 0.74948 0.27054
 B458 B 0.76855 0.76506 0.23826
 B459 B 0.79048 0.74059 0.24040
 B460 B 0.77853 0.71707 0.26378
 B461 B 0.74810 0.72770 0.27594
 B462 B 0.74218 0.75785 0.26010
 B463 B 0.74599 0.72132 0.21538
 B464 B 0.75054 0.70574 0.24766
 B465 B 0.72858 0.73022 0.24563
 B466 B 0.74054 0.75374 0.22218
 B467 B 0.77101 0.74312 0.21000
 B468 B 0.77691 0.71294 0.22581
 B469 B 0.74562 0.24323 0.78415
 B470 B 0.75382 0.22844 0.75203
 B471 B 0.73041 0.25156 0.75271
 B472 B 0.73894 0.27535 0.77778
 B473 B 0.76879 0.26622 0.79259
 B474 B 0.77771 0.23667 0.77656
 B475 B 0.77570 0.27362 0.73260
 B476 B 0.76757 0.28846 0.76473
 B477 B 0.79098 0.26521 0.76415
 B478 B 0.78237 0.24149 0.73902
 B479 B 0.75251 0.25060 0.72428
 B480 B 0.74355 0.28012 0.74027
 C481 C 0.42283 1.04906 0.42090
 C482 C 0.43378 1.05495 0.38895
 C483 C 0.41673 1.03183 0.37672
 C484 C 0.40551 1.02602 0.40806
 C485 C 0.44559 1.02945 0.42538
 C486 C 0.42845 1.00646 0.41300
 C487 C 0.45680 1.03526 0.39406
 C488 C 0.43948 1.01227 0.38142
 C489 C 0.40093 1.03066 0.34947
 C490 C 0.38797 1.02768 0.32716
 C491 C 0.46158 1.02475 0.45185
 C492 C 0.47431 1.01737 0.47277
 H493 H 0.41625 1.06412 0.43752
 H494 H 0.43571 1.07490 0.37865
 H495 H 0.38425 1.02217 0.41355
 H496 H 0.42639 0.98647 0.42319
 H497 H 0.47808 1.03907 0.38865
 H498 H 0.44615 0.99710 0.36498
 C499 C -0.07741 0.54799 0.92035
 C500 C -0.06658 0.55499 0.88865
 C501 C -0.08267 0.53151 0.87568
 C502 C -0.09378 0.52460 0.90679
 C503 C -0.05392 0.52919 0.92442
 C504 C -0.07012 0.50584 0.91130
 C505 C -0.04281 0.53610 0.89334
 C506 C -0.05919 0.51275 0.87997
 C507 C -0.09847 0.53030 0.84842
 C508 C -0.11146 0.52728 0.82615
 C509 C -0.03798 0.52449 0.95093
 C510 C -0.02529 0.51710 0.97188
 H511 H -0.08464 0.56241 0.93734
 H512 H -0.06537 0.57521 0.87891
 H513 H -0.11490 0.51982 0.91205
 H514 H -0.07144 0.48557 0.92092
 H515 H -0.02167 0.54084 0.88817
 H516 H -0.05189 0.49821 0.86314
 C517 C 0.08613 -0.03294 0.89961
 C518 C 0.08052 -0.05212 0.87298
 C519 C 0.07875 -0.02802 0.85217
 C520 C 0.08460 -0.00892 0.87829
 C521 C 0.05608 -0.03099 0.90510
 C522 C 0.05443 -0.00697 0.88414
 C523 C 0.05014 -0.05014 0.87904
 C524 C 0.04872 -0.02605 0.85769
 C525 C 0.09166 -0.02463 0.82315
 C526 C 0.10315 -0.02075 0.79992
 C527 C 0.04271 -0.02949 0.93401
 C528 C 0.03075 -0.02474 0.95667
 H529 H 0.10129 -0.03584 0.91720
 H530 H 0.09142 -0.07066 0.86788
 H531 H 0.09881 0.00813 0.87761
 H532 H 0.04358 0.01165 0.88908
 H533 H 0.03590 -0.06714 0.87984
 H534 H 0.03353 -0.02311 0.84015
 C535 C 0.58837 0.46673 0.40258
 C536 C 0.58247 0.44801 0.37561
 C537 C 0.58142 0.47242 0.35517
 C538 C 0.58757 0.49105 0.38163
 C539 C 0.55836 0.46933 0.40788
 C540 C 0.55743 0.49366 0.38729
 C541 C 0.55212 0.45067 0.38148
 C542 C 0.55142 0.47506 0.36052
 C543 C 0.59445 0.47587 0.32623
 C544 C 0.60592 0.47978 0.30301
 C545 C 0.54473 0.47079 0.43664
 C546 C 0.53256 0.47553 0.45916
 H547 H 0.60334 0.46323 0.42023
 H548 H 0.59294 0.42927 0.37028
 H549 H 0.60219 0.50776 0.38132
 H550 H 0.54701 0.51248 0.39246
 H551 H 0.53747 0.43400 0.38190
 H552 H 0.53642 0.47859 0.34292
 C553 C 0.59546 0.54173 0.10139
 C554 C 0.58992 0.55587 0.13181
 C555 C 0.58858 0.52857 0.14705
 C556 C 0.59435 0.51445 0.11721
 C557 C 0.56535 0.53971 0.09614
 C558 C 0.56418 0.51248 0.11163
 C559 C 0.55949 0.55386 0.12595
 C560 C 0.55851 0.52654 0.14169
 C561 C 0.60064 0.52015 0.17508
 C562 C 0.60991 0.51174 0.19785
 C563 C 0.55134 0.54168 0.06773
 C564 C 0.53913 0.53839 0.04495
 H565 H 0.61047 0.54813 0.08453
 H566 H 0.60072 0.57363 0.14054
 H567 H 0.60870 0.49810 0.11387
 H568 H 0.55345 0.49459 0.10310
 H569 H 0.54509 0.57018 0.12919
 H570 H 0.54343 0.52010 0.15847
 C571 C 0.09573 1.04028 0.59989
 C572 C 0.09002 1.05431 0.63034
 C573 C 0.08866 1.02695 0.64545
 C574 C 0.09459 1.01295 0.61558
 C575 C 0.06565 1.03824 0.59445
 C576 C 0.06445 1.01095 0.60980
 C577 C 0.05962 1.05227 0.62429
 C578 C 0.05861 1.02488 0.63990
 C579 C 0.10057 1.01845 0.67353
 C580 C 0.10973 1.01001 0.69634
 C581 C 0.05171 1.04030 0.56601
 C582 C 0.03948 1.03709 0.54322
 H583 H 0.11081 1.04677 0.58315
 H584 H 0.10075 1.07204 0.63922
 H585 H 0.10898 0.99663 0.61224
 H586 H 0.05379 0.99307 0.60113
 H587 H 0.04518 1.06855 0.62753
 H588 H 0.04347 1.01835 0.65655
 C589 C -0.06184 0.46686 0.64299
 C590 C -0.06293 0.49347 0.66054
 C591 C -0.09271 0.48871 0.66643
 C592 C -0.09194 0.46209 0.64938
 C593 C -0.06913 0.48168 0.61433
 C594 C -0.09894 0.47693 0.62012
 C595 C -0.07002 0.50821 0.63156
 C596 C -0.09992 0.50351 0.63772
 C597 C -0.10521 0.49450 0.69537
 C598 C -0.11497 0.50051 0.71908
 C599 C -0.05539 0.48120 0.58542
 C600 C -0.04380 0.48477 0.56215
 H601 H -0.04609 0.45171 0.64480
 H602 H -0.04825 0.50041 0.67740
 H603 H -0.10116 0.44318 0.65712
 H604 H -0.11355 0.47001 0.60318
 H605 H -0.06086 0.52722 0.62398
 H606 H -0.11564 0.51869 0.63583
 C607 C 0.42959 0.00886 0.13229
 C608 C 0.39983 0.00335 0.13854
 C609 C 0.40748 -0.01077 0.16753
 C610 C 0.43712 -0.00522 0.16156
 C611 C 0.43129 -0.01789 0.11558
 C612 C 0.43901 -0.03203 0.14453
 C613 C 0.40162 -0.02344 0.12144
 C614 C 0.40906 -0.03760 0.15099
 C615 C 0.39485 -0.00495 0.19638
 C616 C 0.38497 0.00108 0.22003
 C617 C 0.44513 -0.01842 0.08673
 C618 C 0.45678 -0.01491 0.06348
 H619 H 0.43818 0.02800 0.12435
 H620 H 0.38366 0.01801 0.13635
 H621 H 0.45159 0.00242 0.17829
 H622 H 0.45522 -0.04666 0.14663
 H623 H 0.38722 -0.03104 0.10462
 H624 H 0.40040 -0.05665 0.15910
 C625 C 0.39257 0.45028 0.01217
 C626 C 0.36889 0.45901 0.03206
 C627 C 0.35121 0.45915 0.00419
 C628 C 0.37455 0.45026 -0.01567
 C629 C 0.39938 0.47961 0.00642
 C630 C 0.38169 0.47972 -0.02144
 C631 C 0.37616 0.48862 0.02633
 C632 C 0.35796 0.48850 -0.00163
 C633 C 0.32529 0.44613 0.00150
 C634 C 0.30510 0.43361 -0.00227
 C635 C 0.42662 0.48969 0.00617
 C636 C 0.44941 0.49681 0.00427
 H637 H 0.40714 0.43473 0.01781
 H638 H 0.36325 0.45036 0.05401
 H639 H 0.37361 0.43437 -0.03300
 H640 H 0.38736 0.48832 -0.04343
 H641 H 0.37727 0.50454 0.04359
 H642 H 0.34337 0.50402 -0.00731
 C643 C -0.12511 0.99265 0.52006
 C644 C -0.14089 0.98569 0.49126
 C645 C -0.14902 0.95899 0.50523
 C646 C -0.13375 0.96567 0.53399
 C647 C -0.10066 0.97907 0.50641
 C648 C -0.10881 0.95237 0.52032
 C649 C -0.11598 0.97234 0.47770
 C650 C -0.12447 0.94553 0.49161
 C651 C -0.17505 0.94612 0.50300
 C652 C -0.19531 0.93368 0.49942
 C653 C -0.07336 0.98895 0.50556
 C654 C -0.05056 0.99592 0.50323
 H655 H -0.12491 1.01218 0.53175
 H656 H -0.15443 0.99921 0.47933
 H657 H -0.14144 0.96280 0.55708
 H658 H -0.09525 0.93881 0.53219
 H659 H -0.10829 0.97515 0.45458
 H660 H -0.12449 0.92603 0.47986
 C661 C -0.13216 0.02208 1.00997
 C662 C -0.14216 0.04892 0.99829
 C663 C -0.16254 0.03390 0.97877
 C664 C -0.15289 0.00712 0.99047
 C665 C -0.11233 0.02120 0.98377
 C666 C -0.13253 0.00605 0.96422
 C667 C -0.12203 0.04797 0.97214
 C668 C -0.14273 0.03306 0.95253
 C669 C -0.18961 0.04378 0.97824
 C670 C -0.21038 0.05515 0.98031
 C671 C -0.08435 0.01539 0.98800
 C672 C -0.06134 0.01115 0.99268
 H673 H -0.12742 0.01762 1.03363
 H674 H -0.14642 0.06665 1.01235
 H675 H -0.16593 -0.00957 0.99789
 H676 H -0.12806 -0.01168 0.95025
 H677 H -0.10901 0.06469 0.96477
 H678 H -0.14748 0.03758 0.92890
 C679 C 0.36929 0.52292 0.51031
 C680 C 0.35958 0.54984 0.49855
 C681 C 0.33938 0.53497 0.47866
 C682 C 0.34874 0.50811 0.49043
 C683 C 0.38944 0.52200 0.48442
 C684 C 0.36942 0.50700 0.46449
 C685 C 0.38004 0.54885 0.47272
 C686 C 0.35951 0.53410 0.45274
 C687 C 0.31235 0.54493 0.47775
 C688 C 0.29155 0.55626 0.47959
 C689 C 0.41733 0.51602 0.48908
 C690 C 0.44025 0.51165 0.49409
 H691 H 0.37371 0.51836 0.53402
 H692 H 0.35524 0.56756 0.51260
 H693 H 0.33552 0.49147 0.49758
 H694 H 0.37398 0.48929 0.45054
 H695 H 0.39323 0.56552 0.46562
 H696 H 0.35509 0.53871 0.42904
 C697 C 0.11725 0.52468 0.52467
 C698 C 0.13234 0.53061 0.49510
 C699 C 0.14469 0.55547 0.50980
 C700 C 0.13005 0.54968 0.53934
 C701 C 0.09425 0.54186 0.51386
 C702 C 0.10655 0.56674 0.52854
 C703 C 0.10891 0.54766 0.48433
 C704 C 0.12166 0.57264 0.49897
 C705 C 0.17270 0.56307 0.50687
 C706 C 0.19563 0.56952 0.50374
 C707 C 0.06625 0.53404 0.51505
 C708 C 0.04326 0.52731 0.51460
 H709 H 0.11505 0.50488 0.53526
 H710 H 0.14326 0.51587 0.48132
 H711 H 0.13912 0.55060 0.56191
 H712 H 0.09555 0.58146 0.54229
 H713 H 0.09984 0.54676 0.46176
 H714 H 0.12383 0.59243 0.48835
 C715 C 0.61235 0.03749 -0.01264
 C716 C 0.62322 0.06630 -0.01010
 C717 C 0.64507 0.05646 0.01082
 C718 C 0.63461 0.02775 0.00822
 C719 C 0.59472 0.04253 0.01494
 C720 C 0.61653 0.03266 0.03585
 C721 C 0.60514 0.07124 0.01750
 C722 C 0.62745 0.06153 0.03841
 C723 C 0.67305 0.06421 0.00796
 C724 C 0.69598 0.07075 0.00501
 C725 C 0.56676 0.03454 0.01619
 C726 C 0.54381 0.02768 0.01580
 H727 H 0.60576 0.02752 -0.03360
 H728 H 0.62629 0.08018 -0.02904
 H729 H 0.64706 0.00999 0.00435
 H730 H 0.61340 0.01876 0.05476
 H731 H 0.59264 0.08898 0.02136
 H732 H 0.63404 0.07152 0.05935
 C733 C 0.62948 0.96817 0.47589
 C734 C 0.65130 0.96501 0.49986
 C735 C 0.65881 0.93830 0.48554
 C736 C 0.63744 0.94129 0.46147
 C737 C 0.60986 0.95324 0.49640
 C738 C 0.61733 0.92652 0.48209
 C739 C 0.63125 0.95022 0.52044
 C740 C 0.63916 0.92339 0.50606
 C741 C 0.68620 0.92994 0.48067
 C742 C 0.70884 0.92285 0.47823
 C743 C 0.58279 0.96168 0.50287
 C744 C 0.56057 0.96876 0.50839
 H745 H 0.62513 0.98670 0.46360
 H746 H 0.66559 0.98074 0.50706
 H747 H 0.64035 0.93753 0.43718
 H748 H 0.60299 0.91082 0.47494
 H749 H 0.62834 0.95397 0.54474
 H750 H 0.64349 0.90487 0.51837
 C751 C 0.12978 0.46781 0.97455
 C752 C 0.15166 0.46473 0.99847
 C753 C 0.15919 0.43802 0.98416
 C754 C 0.13776 0.44094 0.96015
 C755 C 0.11024 0.45288 0.99515
 C756 C 0.11773 0.42615 0.98086
 C757 C 0.13169 0.44993 1.01913
 C758 C 0.13962 0.42310 1.00477
 C759 C 0.18659 0.42971 0.97923
 C760 C 0.20924 0.42265 0.97673
 C761 C 0.08316 0.46128 1.00169
 C762 C 0.06095 0.46835 1.00726
 H763 H 0.12535 0.48631 0.96224
 H764 H 0.16594 0.48050 1.00559
 H765 H 0.14061 0.43715 0.93586
 H766 H 0.10340 0.41041 0.97378
 H767 H 0.12883 0.45371 1.04343
 H768 H 0.14401 0.40460 1.01710
 C769 C -0.04761 0.38281 0.46271
 C770 C -0.03245 0.37921 0.43270
 C771 C -0.01956 0.35401 0.44499
 C772 C -0.03469 0.35717 0.47481
 C773 C -0.02400 0.39916 0.47492
 C774 C -0.01108 0.37400 0.48726
 C775 C -0.00891 0.39586 0.44508
 C776 C 0.00401 0.37041 0.45719
 C777 C -0.01652 0.32946 0.42718
 C778 C -0.01379 0.30979 0.41179
 C779 C -0.02514 0.42548 0.48942
 C780 C -0.02444 0.44818 0.49842
 H781 H -0.06887 0.38811 0.46518
 H782 H -0.04117 0.38123 0.41008
 H783 H -0.04529 0.34097 0.48690
 H784 H -0.00236 0.37205 0.50988
 H785 H 0.00172 0.41200 0.43290
 H786 H 0.02530 0.36520 0.45473
 C787 C 0.49270 -0.10458 -0.05237
 C788 C 0.50471 -0.13022 -0.03959
 C789 C 0.48123 -0.14623 -0.05264
 C790 C 0.46925 -0.12084 -0.06559
 C791 C 0.47675 -0.10085 -0.02317
 C792 C 0.45323 -0.11680 -0.03622
 C793 C 0.48876 -0.12619 -0.01016
 C794 C 0.46524 -0.14263 -0.02345
 C795 C 0.48430 -0.17092 -0.07019
 C796 C 0.48709 -0.19072 -0.08537
 C797 C 0.47558 -0.07442 -0.00889
 C798 C 0.47626 -0.05167 -0.00005
 H799 H 0.50402 -0.08870 -0.06421
 H800 H 0.52594 -0.13586 -0.04116
 H801 H 0.46130 -0.11875 -0.08855
 H802 H 0.43202 -0.11108 -0.03464
 H803 H 0.49672 -0.12821 0.01281
 H804 H 0.45395 -0.15857 -0.01170
 C805 C 0.00452 -0.11785 1.06664
 C806 C -0.00809 -0.14305 1.05247
 C807 C 0.01757 -0.15820 1.05889
 C808 C 0.03020 -0.13325 1.07322
 C809 C 0.01597 -0.11015 1.03588
 C810 C 0.04169 -0.12521 1.04228
 C811 C 0.00333 -0.13506 1.02150
 C812 C 0.02908 -0.15064 1.02811
 C813 C 0.01752 -0.18429 1.07350
 C814 C 0.01674 -0.20484 1.08731
 C815 C 0.01375 -0.08282 1.02493
 C816 C 0.01054 -0.05997 1.01794
 H817 H -0.00560 -0.10413 1.08244
 H818 H -0.02859 -0.15058 1.05679
 H819 H 0.04124 -0.13270 1.09464
 H820 H 0.06215 -0.11758 1.03795
 H821 H -0.00772 -0.13553 1.00008
 H822 H 0.03919 -0.16443 1.01239
 C823 C 0.50378 0.36533 0.52381
 C824 C 0.52943 0.34944 0.53000
 C825 C 0.51821 0.34198 0.56095
 C826 C 0.49264 0.35743 0.55494
 C827 C 0.51687 0.39007 0.53802
 C828 C 0.50571 0.38248 0.56895
 C829 C 0.54249 0.37472 0.54401
 C830 C 0.53128 0.36678 0.57511
 C831 C 0.51801 0.31586 0.57548
 C832 C 0.51713 0.29527 0.58922
 C833 C 0.51480 0.41743 0.52711
 C834 C 0.51169 0.44030 0.52013
 H835 H 0.49247 0.36500 0.50257
 H836 H 0.53919 0.33555 0.51411
 H837 H 0.47212 0.35013 0.55956
 H838 H 0.49593 0.39630 0.58492
 H839 H 0.56298 0.38212 0.53937
 H840 H 0.54259 0.36717 0.59636
 C841 C 0.47379 1.11605 0.56254
 C842 C 0.48691 1.12401 0.59266
 C843 C 0.50164 1.14697 0.57687
 C844 C 0.48855 1.13946 0.54691
 C845 C 0.49755 1.09808 0.55548
 C846 C 0.51227 1.12104 0.53970
 C847 C 0.51062 1.10565 0.58543
 C848 C 0.52535 1.12895 0.56980
 C849 C 0.50452 1.17418 0.58895
 C850 C 0.50722 1.19653 0.59873
 C851 C 0.49636 1.07046 0.54440
 C852 C 0.49671 1.04743 0.53654
 H853 H 0.45255 1.11049 0.55940
 H854 H 0.47653 1.12542 0.61459
 H855 H 0.47948 1.15363 0.53114
 H856 H 0.52266 1.11961 0.51778
 H857 H 0.51970 1.09150 0.60122
 H858 H 0.54661 1.13442 0.57291
 C859 C 0.01244 0.62081 1.03853
 C860 C -0.01137 0.63910 1.04578
 C861 C 0.00176 0.64676 1.07567
 C862 C 0.02556 0.62887 1.06856
 C863 C -0.00210 0.59780 1.05444
 C864 C 0.01101 0.60552 1.08432
 C865 C -0.02595 0.61564 1.06153
 C866 C -0.01279 0.62375 1.09158
 C867 C 0.00450 0.67403 1.08765
 C868 C 0.00709 0.69643 1.09732
 C869 C -0.00318 0.57016 1.04342
 C870 C -0.00278 0.54711 1.03560
 H871 H 0.02278 0.61939 1.01658
 H872 H -0.02057 0.65317 1.02999
 H873 H 0.04680 0.63448 1.07158
 H874 H 0.02022 0.59147 1.10012
 H875 H -0.04716 0.60995 1.05848
 H876 H -0.02312 0.62515 1.11354
 C877 C 0.50107 0.64253 -0.03122
 C878 C 0.52363 0.66292 -0.03806
 C879 C 0.51220 0.66664 -0.06961
 C880 C 0.48965 0.64662 -0.06291
 C881 C 0.51871 0.62023 -0.04360
 C882 C 0.50730 0.62402 -0.07514
 C883 C 0.54134 0.64018 -0.05027
 C884 C 0.52984 0.64435 -0.08203
 C885 C 0.50769 0.69247 -0.08401
 C886 C 0.50345 0.71382 -0.09523
 C887 C 0.52063 0.59366 -0.03017
 C888 C 0.52002 0.57113 -0.02090
 H889 H 0.48930 0.64162 -0.01016
 H890 H 0.53031 0.67920 -0.02290
 H891 H 0.46834 0.64938 -0.06827
 H892 H 0.50060 0.60777 -0.09034
 H893 H 0.56262 0.63732 -0.04488
 H894 H 0.54160 0.64527 -0.10310
 C895 C -0.00719 1.13486 0.45560
 C896 C 0.00904 1.16045 0.46269
 C897 C 0.01211 1.16547 0.42891
 C898 C -0.00415 1.14021 0.42171
 C899 C 0.01879 1.11905 0.45482
 C900 C 0.02186 1.12409 0.42105
 C901 C 0.03510 1.14426 0.46211
 C902 C 0.03814 1.14972 0.42809
 C903 C 0.00751 1.19131 0.41458
 C904 C 0.00319 1.21267 0.40345
 C905 C 0.02076 1.09249 0.46825
 C906 C 0.02015 1.06996 0.47751
 H907 H -0.02584 1.12857 0.46710
 H908 H 0.00366 1.17563 0.47972
 H909 H -0.02033 1.13867 0.40498
 H910 H 0.02722 1.10890 0.40402
 H911 H 0.05127 1.14571 0.47885
 H912 H 0.05675 1.15604 0.41655
 C913 C 0.79848 0.67238 0.82960
 C914 C 0.80562 0.68320 0.86127
 C915 C 0.78209 0.66722 0.87432
 C916 C 0.77504 0.65612 0.84324
 C917 C 0.77976 0.69593 0.82556
 C918 C 0.75637 0.67985 0.83876
 C919 C 0.78680 0.70704 0.85662
 C920 C 0.76341 0.69077 0.87007
 C921 C 0.78086 0.65147 0.90159
 C922 C 0.77781 0.63853 0.92388
 C923 C 0.77503 0.71184 0.79906
 C924 C 0.76757 0.72451 0.77813
 H925 H 0.81284 0.66508 0.81257
 H926 H 0.82587 0.68432 0.87095
 H927 H 0.77016 0.63503 0.83801
 H928 H 0.73606 0.67861 0.82921
 H929 H 0.79165 0.72815 0.86176
 H930 H 0.74894 0.69815 0.88693
 C931 C 0.25643 0.17935 0.33730
 C932 C 0.27583 0.15625 0.34206
 C933 C 0.28181 0.16731 0.37344
 C934 C 0.26242 0.19022 0.36890
 C935 C 0.27954 0.19634 0.32492
 C936 C 0.28552 0.20740 0.35628
 C937 C 0.29899 0.17342 0.32924
 C938 C 0.30505 0.18421 0.36121
 C939 C 0.28056 0.15139 0.40059
 C940 C 0.27748 0.13832 0.42278
 C941 C 0.27487 0.21240 0.29851
 C942 C 0.26749 0.22514 0.27760
 H943 H 0.23639 0.17749 0.32716
 H944 H 0.27180 0.13506 0.33649
 H945 H 0.24732 0.19695 0.38542
 H946 H 0.28951 0.22861 0.36176
 H947 H 0.31396 0.16678 0.31254
 H948 H 0.32505 0.18595 0.37146
 C949 C 0.70055 0.30025 0.37027
 C950 C 0.72470 0.29900 0.39157
 C951 C 0.72245 0.32898 0.39720
 C952 C 0.69829 0.33057 0.37644
 C953 C 0.71961 0.30642 0.34421
 C954 C 0.71739 0.33641 0.34980
 C955 C 0.74369 0.30494 0.36512
 C956 C 0.74147 0.33505 0.37107
 C957 C 0.72580 0.34181 0.42627
 C958 C 0.72968 0.35324 0.44954
 C959 C 0.72119 0.29310 0.31526
 C960 C 0.72601 0.28117 0.29260
 H961 H 0.68366 0.28585 0.36946
 H962 H 0.72781 0.28380 0.40906
 H963 H 0.67964 0.34128 0.38160
 H964 H 0.71432 0.35157 0.33226
 H965 H 0.76242 0.29429 0.36011
 H966 H 0.75840 0.34941 0.37177
 C967 C 0.20033 0.80155 0.86954
 C968 C 0.22458 0.80038 0.89072
 C969 C 0.22241 0.83039 0.89615
 C970 C 0.19816 0.83191 0.87551
 C971 C 0.21929 0.80755 0.84333
 C972 C 0.21715 0.83758 0.84872
 C973 C 0.24347 0.80615 0.86412
 C974 C 0.24132 0.83630 0.86988
 C975 C 0.22586 0.84334 0.92514
 C976 C 0.22975 0.85480 0.94838
 C977 C 0.22073 0.79404 0.81449
 C978 C 0.22549 0.78195 0.79192
 H979 H 0.18342 0.78719 0.86892
 H980 H 0.22774 0.78528 0.90829
 H981 H 0.17955 0.84268 0.88071
 H982 H 0.21403 0.85265 0.83110
 H983 H 0.26215 0.79543 0.85908
 H984 H 0.25828 0.85063 0.87039
 C985 C 0.26077 0.81517 0.13841
 C986 C 0.26274 0.84533 0.13286
 C987 C 0.27681 0.83959 0.10299
 C988 C 0.27478 0.80953 0.10830
 C989 C 0.28805 0.81632 0.15383
 C990 C 0.30215 0.81049 0.12398
 C991 C 0.29007 0.84642 0.14862
 C992 C 0.30416 0.84090 0.11817
 C993 C 0.26837 0.85166 0.07497
 C994 C 0.26000 0.86094 0.05218
 C995 C 0.29012 0.80227 0.18219
 C996 C 0.28696 0.78999 0.20495
 H997 H 0.24288 0.80445 0.14696
 H998 H 0.24640 0.85968 0.13626
 H999 H 0.26829 0.79448 0.09152
 H1000 H 0.31846 0.79609 0.12068
 H1001 H 0.29651 0.86140 0.16550
 H1002 H 0.32191 0.85170 0.10941
 C1003 C 0.79073 0.34528 0.64956
 C1004 C 0.80478 0.33958 0.61912
 C1005 C 0.77742 0.33829 0.60397
 C1006 C 0.76340 0.34421 0.63384
 C1007 C 0.78863 0.31521 0.65494
 C1008 C 0.76134 0.31408 0.63955
 C1009 C 0.80268 0.30920 0.62511
 C1010 C 0.77530 0.30826 0.60946
 C1011 C 0.76898 0.35027 0.57591
 C1012 C 0.76058 0.35950 0.55310
 C1013 C 0.79067 0.30127 0.68338
 C1014 C 0.78747 0.28909 0.70620
 H1015 H 0.79724 0.36032 0.66634
 H1016 H 0.82256 0.35029 0.61029
 H1017 H 0.74710 0.35862 0.63717
 H1018 H 0.74342 0.30345 0.64818
 H1019 H 0.81895 0.29474 0.62188
 H1020 H 0.76875 0.29315 0.59277
 C1021 C 0.22593 0.15085 0.62845
 C1022 C 0.21170 0.15837 0.59896
 C1023 C 0.23853 0.15692 0.58238
 C1024 C 0.25272 0.14919 0.61130
 C1025 C 0.23143 0.18049 0.63447
 C1026 C 0.25817 0.17892 0.61770
 C1027 C 0.21721 0.18829 0.60558
 C1028 C 0.24403 0.18653 0.58850
 C1029 C 0.24435 0.14445 0.55344
 C1030 C 0.25041 0.13470 0.52973
 C1031 C 0.23090 0.19422 0.66338
 C1032 C 0.23442 0.20582 0.68666
 H1033 H 0.21838 0.13637 0.64520
 H1034 H 0.19265 0.14971 0.59084
 H1035 H 0.26743 0.13306 0.61337
 H1036 H 0.27731 0.18752 0.62566
 H1037 H 0.20254 0.20446 0.60359
 H1038 H 0.25161 0.20108 0.57184
 C1039 C 0.71778 0.68900 0.10670
 C1040 C 0.74455 0.68739 0.08950
 C1041 C 0.73926 0.65771 0.08354
 C1042 C 0.71248 0.65901 0.10024
 C1043 C 0.73217 0.68141 0.13555
 C1044 C 0.72688 0.65171 0.12969
 C1045 C 0.75886 0.68000 0.11867
 C1046 C 0.75362 0.65020 0.11243
 C1047 C 0.74507 0.64515 0.05465
 C1048 C 0.75110 0.63533 0.03097
 C1049 C 0.73164 0.69522 0.16442
 C1050 C 0.73517 0.70687 0.18766
 H1051 H 0.70297 0.70504 0.10470
 H1052 H 0.75196 0.70192 0.07274
 H1053 H 0.69347 0.65017 0.09225
 H1054 H 0.71951 0.63724 0.14654
 H1055 H 0.77797 0.68878 0.12651
 H1056 H 0.76847 0.63420 0.11451
 C1057 C 0.19999 0.64285 0.23723
 C1058 C 0.20885 0.61935 0.21716
 C1059 C 0.20914 0.60153 0.24491
 C1060 C 0.20012 0.62470 0.26494
 C1061 C 0.22931 0.64982 0.24299
 C1062 C 0.22956 0.63199 0.27073
 C1063 C 0.23844 0.62677 0.22291
 C1064 C 0.23847 0.60843 0.25073
 C1065 C 0.19624 0.57555 0.24745
 C1066 C 0.18378 0.55532 0.25116
 C1067 C 0.23921 0.67711 0.24342
 C1068 C 0.24618 0.69992 0.24545
 H1069 H 0.18433 0.65736 0.23172
 H1070 H 0.20020 0.61378 0.19518
 H1071 H 0.18425 0.62357 0.28228
 H1072 H 0.23816 0.63758 0.29274
 H1073 H 0.25434 0.62807 0.20563
 H1074 H 0.25410 0.59392 0.25628
 C1075 C 0.70030 0.14220 0.73840
 C1076 C 0.70926 0.11874 0.71835
 C1077 C 0.70942 0.10087 0.74606
 C1078 C 0.70029 0.12400 0.76607
 C1079 C 0.72959 0.14916 0.74436
 C1080 C 0.72970 0.13130 0.77207
 C1081 C 0.73882 0.12615 0.72430
 C1082 C 0.73872 0.10777 0.75209
 C1083 C 0.69650 0.07490 0.74849
 C1084 C 0.68402 0.05468 0.75213
 C1085 C 0.73948 0.17645 0.74489
 C1086 C 0.74646 0.19926 0.74695
 H1087 H 0.68467 0.15671 0.73282
 H1088 H 0.70073 0.11319 0.69630
 H1089 H 0.68434 0.12285 0.78331
 H1090 H 0.73818 0.13686 0.79415
 H1091 H 0.75481 0.12748 0.70713
 H1092 H 0.75432 0.09325 0.75771
 C1093 C 0.77285 0.11837 0.23961
 C1094 C 0.79961 0.10823 0.25140
 C1095 C 0.78440 0.08801 0.27094
 C1096 C 0.75770 0.09779 0.25912
 C1097 C 0.77204 0.13825 0.26575
 C1098 C 0.75670 0.11822 0.28532
 C1099 C 0.79873 0.12842 0.27749
 C1100 C 0.78364 0.10788 0.29711
 C1101 C 0.79410 0.06088 0.27157
 C1102 C 0.80532 0.04004 0.26955
 C1103 C 0.76637 0.16624 0.26142
 C1104 C 0.76218 0.18924 0.25668
 H1105 H 0.76846 0.12307 0.21592
 H1106 H 0.81735 0.10382 0.23741
 H1107 H 0.74094 0.08485 0.25170
 H1108 H 0.73897 0.12283 0.29922
 H1109 H 0.81553 0.14135 0.28487
 H1110 H 0.78807 0.10317 0.32077
 C1111 C 0.25669 0.61891 0.78620
 C1112 C 0.25766 0.59831 0.76018
 C1113 C 0.28451 0.58878 0.77187
 C1114 C 0.28377 0.60883 0.79788
 C1115 C 0.27178 0.63890 0.76634
 C1116 C 0.29861 0.62933 0.77796
 C1117 C 0.27256 0.61884 0.74037
 C1118 C 0.29946 0.60896 0.75204
 C1119 C 0.29436 0.56172 0.77266
 C1120 C 0.30565 0.54091 0.77075
 C1121 C 0.26594 0.66682 0.76180
 C1122 C 0.26165 0.68976 0.75687
 H1123 H 0.23902 0.62351 0.80019
 H1124 H 0.24094 0.58521 0.75299
 H1125 H 0.28839 0.60431 0.82154
 H1126 H 0.31537 0.64241 0.78510
 H1127 H 0.26800 0.62335 0.71667
 H1128 H 0.31715 0.60457 0.73796
 C1129 C 0.32003 0.35445 0.73307
 C1130 C 0.31030 0.37674 0.71218
 C1131 C 0.30492 0.39422 0.73980
 C1132 C 0.31478 0.37238 0.76071
 C1133 C 0.29136 0.34383 0.73535
 C1134 C 0.28601 0.36133 0.76296
 C1135 C 0.28147 0.36563 0.71445
 C1136 C 0.27626 0.38357 0.74211
 C1137 C 0.31250 0.42220 0.74294
 C1138 C 0.31893 0.44512 0.74622
 C1139 C 0.28356 0.31584 0.73398
 C1140 C 0.27683 0.29287 0.73433
 H1141 H 0.33789 0.34209 0.72932
 H1142 H 0.32038 0.38347 0.69135
 H1143 H 0.32852 0.37548 0.77979
 H1144 H 0.27596 0.35460 0.78381
 H1145 H 0.26771 0.36245 0.69541
 H1146 H 0.25837 0.39588 0.74589
 C1147 C 0.82084 0.85551 0.23283
 C1148 C 0.81087 0.87773 0.21199
 C1149 C 0.80599 0.89538 0.23960
 C1150 C 0.81609 0.87361 0.26044
 C1151 C 0.79217 0.84501 0.23573
 C1152 C 0.78732 0.86267 0.26333
 C1153 C 0.78204 0.86673 0.21489
 C1154 C 0.77732 0.88484 0.24253
 C1155 C 0.81372 0.92335 0.24231
 C1156 C 0.82032 0.94627 0.24514
 C1157 C 0.78428 0.81703 0.23461
 C1158 C 0.77752 0.79407 0.23510
 H1159 H 0.83860 0.84307 0.22880
 H1160 H 0.82065 0.88431 0.19093
 H1161 H 0.83014 0.87676 0.27923
 H1162 H 0.77756 0.85608 0.28442
 H1163 H 0.76797 0.86352 0.19614
 H1164 H 0.75953 0.89724 0.24658
 C1165 C 0.70007 0.88125 0.73088
 C1166 C 0.67325 0.88922 0.74528
 C1167 C 0.68822 0.90883 0.76579
 C1168 C 0.71492 0.90126 0.75146
 C1169 C 0.70306 0.85987 0.75491
 C1170 C 0.71805 0.87945 0.77542
 C1171 C 0.67635 0.86739 0.76923
 C1172 C 0.69119 0.88746 0.78986
 C1173 C 0.67993 0.93622 0.77068
 C1174 C 0.67290 0.95887 0.77313
 C1175 C 0.71147 0.83280 0.74842
 C1176 C 0.71854 0.81060 0.74287
 H1177 H 0.70381 0.87834 0.70658
 H1178 H 0.65472 0.89358 0.73297
 H1179 H 0.73069 0.91551 0.74426
 H1180 H 0.73659 0.87506 0.78770
 H1181 H 0.66062 0.85309 0.77639
 H1182 H 0.68744 0.89037 0.81415
 C1183 C 0.20026 0.38194 0.22992
 C1184 C 0.17340 0.38990 0.24423
 C1185 C 0.18832 0.40948 0.26483
 C1186 C 0.21506 0.40191 0.25059
 C1187 C 0.20317 0.36052 0.25393
 C1188 C 0.21810 0.38007 0.27454
 C1189 C 0.17641 0.36804 0.26816
 C1190 C 0.19119 0.38807 0.28888
 C1191 C 0.18001 0.43686 0.26974
 C1192 C 0.17294 0.45950 0.27221
 C1193 C 0.21157 0.33345 0.24745
 C1194 C 0.21866 0.31124 0.24193
 H1195 H 0.20407 0.37905 0.20563
 H1196 H 0.15491 0.39429 0.23185
 H1197 H 0.23085 0.41616 0.24347
 H1198 H 0.23659 0.37565 0.28688
 H1199 H 0.16065 0.35374 0.27523
 H1200 H 0.18738 0.39096 0.31316
 C1201 C 0.13229 0.20246 0.78622
 C1202 C 0.12846 0.21832 0.81572
 C1203 C 0.10315 0.23061 0.80293
 C1204 C 0.10654 0.21478 0.77361
 C1205 C 0.14845 0.22590 0.77332
 C1206 C 0.12318 0.23822 0.76047
 C1207 C 0.14491 0.24169 0.80266
 C1208 C 0.11935 0.25402 0.79004
 C1209 C 0.07852 0.23383 0.82055
 C1210 C 0.05877 0.23673 0.83580
 C1211 C 0.17485 0.22462 0.75899
 C1212 C 0.19760 0.22526 0.75014
 H1213 H 0.13782 0.18122 0.78445
 H1214 H 0.13051 0.21021 0.83862
 H1215 H 0.09047 0.20372 0.76180
 H1216 H 0.12120 0.24633 0.73757
 H1217 H 0.16092 0.25278 0.81455
 H1218 H 0.11391 0.27528 0.79180
 C1219 C 0.64581 0.74255 0.30386
 C1220 C 0.62012 0.75465 0.29129
 C1221 C 0.60413 0.73117 0.30435
 C1222 C 0.62957 0.71911 0.31709
 C1223 C 0.64936 0.72668 0.27458
 C1224 C 0.63342 0.70317 0.28764
 C1225 C 0.62396 0.73877 0.26178
 C1226 C 0.60753 0.71526 0.27508
 C1227 C 0.57953 0.73426 0.32205
 C1228 C 0.55981 0.73707 0.33735
 C1229 C 0.67573 0.72553 0.26016
 C1230 C 0.69846 0.72626 0.25123
 H1231 H 0.66178 0.75380 0.31564
 H1232 H 0.61452 0.77587 0.29299
 H1233 H 0.63175 0.71110 0.34002
 H1234 H 0.63910 0.68197 0.28594
 H1235 H 0.62185 0.74679 0.23885
 H1236 H 0.59150 0.70404 0.26339
 C1237 C 0.63298 0.25502 0.18239
 C1238 C 0.60778 0.24226 0.19643
 C1239 C 0.59256 0.26792 0.19024
 C1240 C 0.61750 0.28069 0.17604
 C1241 C 0.64065 0.26627 0.21325
 C1242 C 0.62552 0.29198 0.20709
 C1243 C 0.61576 0.25348 0.22750
 C1244 C 0.60010 0.27923 0.22113
 C1245 C 0.56643 0.26791 0.17565
 C1246 C 0.54583 0.26717 0.16188
 C1247 C 0.66800 0.26406 0.22423
 C1248 C 0.69087 0.26087 0.23125
 H1249 H 0.64673 0.24505 0.16650
 H1250 H 0.60030 0.22179 0.19192
 H1251 H 0.61802 0.29188 0.15472
 H1252 H 0.63310 0.31242 0.21160
 H1253 H 0.61530 0.24228 0.24882
 H1254 H 0.58628 0.28918 0.23694
 C1255 C 0.12492 0.79210 0.70646
 C1256 C 0.11694 0.78072 0.67544
 C1257 C 0.09206 0.76788 0.68968
 C1258 C 0.09956 0.77927 0.72054
 C1259 C 0.14016 0.76646 0.71268
 C1260 C 0.11532 0.75360 0.72697
 C1261 C 0.13252 0.75512 0.68184
 C1262 C 0.10738 0.74229 0.69593
 C1263 C 0.06592 0.76773 0.67512
 C1264 C 0.04531 0.76689 0.66137
 C1265 C 0.16751 0.76435 0.72366
 C1266 C 0.19038 0.76123 0.73072
 H1267 H 0.13243 0.81257 0.71092
 H1268 H 0.11741 0.79187 0.65409
 H1269 H 0.08570 0.78920 0.73634
 H1270 H 0.11492 0.74244 0.74831
 H1271 H 0.14631 0.74518 0.66597
 H1272 H 0.09997 0.72178 0.69148
 C1273 C 0.87127 0.76138 0.71152
 C1274 C 0.88920 0.73762 0.70297
 C1275 C 0.89686 0.75178 0.67368
 C1276 C 0.87933 0.77553 0.68209
 C1277 C 0.84796 0.74778 0.69513
 C1278 C 0.85568 0.76191 0.66585
 C1279 C 0.86543 0.72399 0.68673
 C1280 C 0.87355 0.73817 0.65729
 C1281 C 0.92410 0.75458 0.66158
 C1282 C 0.94647 0.75722 0.65181
 C1283 C 0.82034 0.74663 0.70627
 C1284 C 0.79731 0.74697 0.71421
 H1285 H 0.87012 0.77089 0.73396
 H1286 H 0.90324 0.72764 0.71816
 H1287 H 0.88521 0.79677 0.68006
 H1288 H 0.84165 0.77191 0.65064
 H1289 H 0.85947 0.70276 0.68880
 H1290 H 0.87468 0.72867 0.63484
 C1291 C 0.37149 0.26229 0.21138
 C1292 C 0.38956 0.23852 0.20330
 C1293 C 0.39730 0.25235 0.17384
 C1294 C 0.37962 0.27611 0.18178
 C1295 C 0.34831 0.24839 0.19507
 C1296 C 0.35610 0.26220 0.16562
 C1297 C 0.36593 0.22458 0.18714
 C1298 C 0.37411 0.23844 0.15752
 C1299 C 0.42457 0.25513 0.16185
 C1300 C 0.44698 0.25773 0.15214
 C1301 C 0.32064 0.24724 0.20608
 C1302 C 0.29758 0.24759 0.21388
 H1303 H 0.37021 0.27206 0.23367
 H1304 H 0.40359 0.22878 0.21873
 H1305 H 0.38542 0.29736 0.17946
 H1306 H 0.34210 0.27194 0.15018
 H1307 H 0.36005 0.20336 0.18950
 H1308 H 0.37538 0.22868 0.13523
 C1309 C 0.39358 0.75709 0.27811
 C1310 C 0.41134 0.77974 0.29109
 C1311 C 0.41560 0.76309 0.31938
 C1312 C 0.39823 0.74045 0.30657
 C1313 C 0.36924 0.76969 0.29325
 C1314 C 0.37360 0.75306 0.32155
 C1315 C 0.38654 0.79240 0.30606
 C1316 C 0.39127 0.77568 0.33455
 C1317 C 0.44139 0.75850 0.33385
 C1318 C 0.46271 0.75419 0.34512
 C1319 C 0.34268 0.77160 0.27979
 C1320 C 0.32014 0.77091 0.27056
 H1321 H 0.39435 0.74952 0.25474
 H1322 H 0.42714 0.79071 0.27867
 H1323 H 0.40316 0.71901 0.30694
 H1324 H 0.35783 0.74207 0.33401
 H1325 H 0.38153 0.81381 0.30565
 H1326 H 0.39048 0.78323 0.35792
 C1327 C 0.89395 0.25624 0.77927
 C1328 C 0.91180 0.27894 0.79200
 C1329 C 0.91617 0.26242 0.82038
 C1330 C 0.89870 0.23974 0.80781
 C1331 C 0.86970 0.26896 0.79447
 C1332 C 0.87415 0.25247 0.82285
 C1333 C 0.88709 0.29171 0.80703
 C1334 C 0.89192 0.27513 0.83560
 C1335 C 0.94203 0.25787 0.83472
 C1336 C 0.96340 0.25358 0.84589
 C1337 C 0.84309 0.27085 0.78111
 C1338 C 0.82053 0.27017 0.77192
 H1339 H 0.89461 0.24855 0.75595
 H1340 H 0.92757 0.28981 0.77942
 H1341 H 0.90360 0.21830 0.80831
 H1342 H 0.85843 0.24157 0.83547
 H1343 H 0.88211 0.31312 0.80650
 H1344 H 0.89125 0.28281 0.85893
 C1345 C 0.56017 0.98393 0.63901
 C1346 C 0.55816 0.96958 0.66934
 C1347 C 0.58864 0.96969 0.67082
 C1348 C 0.59073 0.98409 0.64072
 C1349 C 0.56106 0.95681 0.62293
 C1350 C 0.59155 0.95696 0.62440
 C1351 C 0.55880 0.94231 0.65298
 C1352 C 0.58972 0.94250 0.65498
 C1353 C 0.60389 0.97958 0.69640
 C1354 C 0.61656 0.98960 0.71634
 C1355 C 0.54532 0.95442 0.59569
 C1356 C 0.53246 0.95791 0.57351
 H1357 H 0.54788 1.00104 0.63223
 H1358 H 0.54458 0.97498 0.68803
 H1359 H 0.60387 1.00144 0.63587
 H1360 H 0.60510 0.95163 0.60567
 H1361 H 0.54558 0.92499 0.65765
 H1362 H 0.60211 0.92556 0.66197
 C1363 C 0.09195 0.45691 1.12353
 C1364 C 0.09097 0.48409 1.13973
 C1365 C 0.08887 0.46977 1.16989
 C1366 C 0.09011 0.44254 1.15416
 C1367 C 0.06146 0.45663 1.12196
 C1368 C 0.05919 0.44221 1.15207
 C1369 C 0.06042 0.48379 1.13794
 C1370 C 0.05840 0.46953 1.16832
 C1371 C 0.10402 0.47981 1.19548
 C1372 C 0.11660 0.48995 1.21542
 C1373 C 0.04578 0.45411 1.09469
 C1374 C 0.03294 0.45755 1.07249
 H1375 H 0.10557 0.45159 1.10485
 H1376 H 0.10405 0.50149 1.13486
 H1377 H 0.10256 0.42568 1.16125
 H1378 H 0.04604 0.42485 1.15676
 H1379 H 0.04807 0.50082 1.13106
 H1380 H 0.04475 0.47492 1.18694
 C1381 C -0.06509 -0.00211 1.12750
 C1382 C -0.06285 0.01482 1.15638
 C1383 C -0.09331 0.01503 1.15839
 C1384 C -0.09574 -0.00193 1.12987
 C1385 C -0.06598 0.02357 1.10904
 C1386 C -0.09645 0.02375 1.11105
 C1387 C -0.06348 0.04056 1.13753
 C1388 C -0.09428 0.04074 1.14003
 C1389 C -0.10893 0.00996 1.18546
 C1390 C -0.12268 0.00655 1.20724
 C1391 C -0.05031 0.02538 1.08154
 C1392 C -0.03693 0.02289 1.05937
 H1393 H -0.05288 -0.01973 1.12200
 H1394 H -0.04924 0.01095 1.17526
 H1395 H -0.10903 -0.01953 1.12706
 H1396 H -0.11004 0.02759 1.09214
 H1397 H -0.05015 0.05814 1.14027
 H1398 H -0.10654 0.05830 1.14561
 C1399 C 0.40410 0.52383 0.61212
 C1400 C 0.40485 0.49825 0.63111
 C1401 C 0.40686 0.51536 0.65955
 C1402 C 0.40585 0.54098 0.64101
 C1403 C 0.43458 0.52390 0.61046
 C1404 C 0.43667 0.54105 0.63888
 C1405 C 0.43552 0.49833 0.62910
 C1406 C 0.43734 0.51541 0.65790
 C1407 C 0.39107 0.51031 0.68650
 C1408 C 0.37723 0.50692 0.70820
 C1409 C 0.45048 0.52572 0.58313
 C1410 C 0.46405 0.52323 0.56111
 H1411 H 0.39065 0.52747 0.59302
 H1412 H 0.39173 0.48053 0.62824
 H1413 H 0.39339 0.55845 0.64634
 H1414 H 0.44983 0.55876 0.64167
 H1415 H 0.44793 0.48079 0.62385
 H1416 H 0.45081 0.51175 0.67697
 C1417 C 0.45078 0.46196 -0.13485
 C1418 C 0.42231 0.44951 -0.13483
 C1419 C 0.41184 0.47513 -0.14882
 C1420 C 0.43989 0.48750 -0.14926
 C1421 C 0.44516 0.47391 -0.10379
 C1422 C 0.43453 0.49939 -0.11794
 C1423 C 0.41710 0.46153 -0.10323
 C1424 C 0.40633 0.48705 -0.11771
 C1425 C 0.39312 0.47856 -0.17333
 C1426 C 0.37748 0.48374 -0.19261
 C1427 C 0.46331 0.47685 -0.07862
 C1428 C 0.47744 0.48298 -0.05807
 H1429 H 0.46926 0.45160 -0.14153
 H1430 H 0.41701 0.42902 -0.14215
 H1431 H 0.44905 0.49826 -0.16839
 H1432 H 0.43970 0.51997 -0.11076
 H1433 H 0.40800 0.45086 -0.08399
 H1434 H 0.38791 0.49745 -0.11086
 C1435 C -0.07809 0.99269 0.39183
 C1436 C -0.07011 0.99704 0.35886
 C1437 C -0.08865 0.97392 0.34985
 C1438 C -0.09685 0.96957 0.38264
 C1439 C -0.05525 0.97291 0.39483
 C1440 C -0.07375 0.94967 0.38604
 C1441 C -0.04708 0.97726 0.36205
 C1442 C -0.06588 0.95402 0.35267
 C1443 C -0.10738 0.97728 0.32535
 C1444 C -0.12307 0.98244 0.30609
 C1445 C -0.03710 0.97587 0.42000
 C1446 C -0.02293 0.98200 0.44052
 H1447 H -0.08297 1.00861 0.40822
 H1448 H -0.06878 1.01658 0.34751
 H1449 H -0.11752 0.96647 0.39087
 H1450 H -0.07497 0.93022 0.39757
 H1451 H -0.02641 0.98041 0.35388
 H1452 H -0.06113 0.93814 0.33622
 C1453 C 0.06988 0.51826 0.40464
 C1454 C 0.06183 0.50595 0.37422
 C1455 C 0.07720 0.52834 0.35837
 C1456 C 0.08552 0.54065 0.38850
 C1457 C 0.04488 0.53551 0.40403
 C1458 C 0.06024 0.55799 0.38829
 C1459 C 0.03661 0.52321 0.37390
 C1460 C 0.05225 0.54565 0.35764
 C1461 C 0.09553 0.52376 0.33343
 C1462 C 0.11119 0.52044 0.31336
 C1463 C 0.02733 0.53654 0.43010
 C1464 C 0.01369 0.53342 0.45197
 H1465 H 0.07699 0.50711 0.42434
 H1466 H 0.06268 0.48453 0.36824
 H1467 H 0.10588 0.54764 0.39428
 H1468 H 0.05934 0.57937 0.39439
 H1469 H 0.01625 0.51618 0.36818
 H1470 H 0.04521 0.55679 0.33791
 C1471 C 0.53970 0.04475 -0.12679
 C1472 C 0.56876 0.05543 -0.12897
 C1473 C 0.57750 0.02805 -0.14061
 C1474 C 0.54883 0.01738 -0.13887
 C1475 C 0.54536 0.03548 -0.09484
 C1476 C 0.55420 0.00816 -0.10659
 C1477 C 0.57405 0.04614 -0.09653
 C1478 C 0.58308 0.01879 -0.10863
 C1479 C 0.59575 0.02336 -0.16558
 C1480 C 0.61136 0.01997 -0.18569
 C1481 C 0.52785 0.03657 -0.06874
 C1482 C 0.51423 0.03350 -0.04685
 H1483 H 0.52173 0.05556 -0.13389
 H1484 H 0.57503 0.07482 -0.13858
 H1485 H 0.53872 0.00540 -0.15648
 H1486 H 0.54801 -0.01130 -0.09705
 H1487 H 0.58414 0.05806 -0.07886
 H1488 H 0.60101 0.00797 -0.10141
 C1489 C 0.64065 0.52616 -0.04063
 C1490 C 0.65061 0.55397 -0.05072
 C1491 C 0.66896 0.55519 -0.02338
 C1492 C 0.65948 0.52754 -0.01329
 C1493 C 0.61896 0.53962 -0.02181
 C1494 C 0.63728 0.54084 0.00556
 C1495 C 0.62849 0.56725 -0.03186
 C1496 C 0.64722 0.56861 -0.00456
 C1497 C 0.69636 0.56509 -0.02465
 C1498 C 0.71830 0.57474 -0.02633
 C1499 C 0.59100 0.53164 -0.02043
 C1500 C 0.56790 0.52557 -0.01831
 H1501 H 0.63755 0.50864 -0.05548
 H1502 H 0.65646 0.55947 -0.07388
 H1503 H 0.67256 0.51137 -0.00564
 H1504 H 0.63138 0.53535 0.02870
 H1505 H 0.61542 0.58344 -0.03950
 H1506 H 0.65024 0.58612 0.01030
 C1507 C 0.13707 1.04010 0.50366
 C1508 C 0.15945 1.02666 0.48522
 C1509 C 0.16885 1.05421 0.47470
 C1510 C 0.14693 1.06777 0.49311
 C1511 C 0.11892 1.03840 0.47618
 C1512 C 0.12837 1.06593 0.46569
 C1513 C 0.14079 1.02479 0.45776
 C1514 C 0.15067 1.05251 0.44724
 C1515 C 0.19620 1.06426 0.47354
 C1516 C 0.21809 1.07404 0.47199
 C1517 C 0.09098 1.03035 0.47756
 C1518 C 0.06788 1.02426 0.47974
 H1519 H 0.13107 1.03492 0.52686
 H1520 H 0.17257 1.01067 0.49326
 H1521 H 0.14978 1.08551 0.50768
 H1522 H 0.11527 1.08195 0.45767
 H1523 H 0.13786 1.00705 0.44321
 H1524 H 0.15662 1.05771 0.42403
 C1525 C 0.12129 -0.03806 1.00242
 C1526 C 0.14606 -0.02731 1.01911
 C1527 C 0.15071 -0.05529 1.03139
 C1528 C 0.12621 -0.06612 1.01467
 C1529 C 0.10427 -0.03208 1.03020
 C1530 C 0.10892 -0.06005 1.04245
 C1531 C 0.12861 -0.02107 1.04701
 C1532 C 0.13376 -0.04940 1.05928
 C1533 C 0.17549 -0.06986 1.02880
 C1534 C 0.19441 -0.08333 1.02306
 C1535 C 0.07788 -0.02084 1.02730
 C1536 C 0.05567 -0.01333 1.02314
 H1537 H 0.11585 -0.03333 0.97903
 H1538 H 0.16166 -0.01401 1.00956
 H1539 H 0.12542 -0.08481 1.00135
 H1540 H 0.09330 -0.07337 1.05193
 H1541 H 0.12917 -0.00235 1.06026
 H1542 H 0.13925 -0.05421 1.08262
 C1543 C 0.62206 0.46138 0.50470
 C1544 C 0.64706 0.47170 0.52127
 C1545 C 0.65141 0.44359 0.53331
 C1546 C 0.62668 0.43318 0.51671
 C1547 C 0.60529 0.46744 0.53265
 C1548 C 0.60963 0.43932 0.54466
 C1549 C 0.62986 0.47803 0.54934
 C1550 C 0.63471 0.44956 0.56137
 C1551 C 0.67600 0.42874 0.53045
 C1552 C 0.69477 0.41511 0.52454
 C1553 C 0.57903 0.47901 0.52994
 C1554 C 0.55690 0.48674 0.52580
 H1555 H 0.61655 0.46631 0.48138
 H1556 H 0.66278 0.48485 0.51169
 H1557 H 0.62556 0.41457 0.50326
 H1558 H 0.59389 0.42616 0.55417
 H1559 H 0.63075 0.49667 0.56271
 H1560 H 0.64027 0.44454 0.58463
 C1561 C -0.12899 0.44210 0.49002
 C1562 C -0.14737 0.44023 0.51779
 C1563 C -0.17069 0.44937 0.49857
 C1564 C -0.15266 0.45105 0.47077
 C1565 C -0.12313 0.47131 0.49785
 C1566 C -0.14640 0.48050 0.47860
 C1567 C -0.14113 0.46963 0.52567
 C1568 C -0.16491 0.47859 0.50643
 C1569 C -0.19646 0.43581 0.49857
 C1570 C -0.21682 0.42313 0.49793
 C1571 C -0.09630 0.48247 0.49792
 C1572 C -0.07387 0.49077 0.49893
 H1573 H -0.11388 0.42728 0.48325
 H1574 H -0.14810 0.42356 0.53393
 H1575 H -0.15776 0.44325 0.44821
 H1576 H -0.14558 0.49718 0.46249
 H1577 H -0.13596 0.47743 0.54821
 H1578 H -0.18003 0.49337 0.51321
 C1579 C 0.37132 -0.05737 -0.00981
 C1580 C 0.35284 -0.05956 0.01785
 C1581 C 0.32965 -0.04989 -0.00124
 C1582 C 0.34778 -0.04788 -0.02893
 C1583 C 0.37739 -0.02835 -0.00133
 C1584 C 0.35426 -0.01862 -0.02043
 C1585 C 0.35931 -0.03035 0.02639
 C1586 C 0.33566 -0.02085 0.00729
 C1587 C 0.30376 -0.06320 -0.00161
 C1588 C 0.28329 -0.07568 -0.00255
 C1589 C 0.40429 -0.01735 -0.00098
 C1590 C 0.42674 -0.00912 0.00017
 H1591 H 0.38631 -0.07219 -0.01685
 H1592 H 0.35192 -0.07650 0.03362
 H1593 H 0.34267 -0.05524 -0.05167
 H1594 H 0.35526 -0.00167 -0.03618
 H1595 H 0.36448 -0.02299 0.04912
 H1596 H 0.32064 -0.00606 0.01434
 C1597 C 0.38560 1.02730 0.49832
 C1598 C 0.35820 1.01970 0.51188
 C1599 C 0.35257 1.04934 0.51668
 C1600 C 0.37967 1.05704 0.50301
 C1601 C 0.39771 1.02657 0.52978
 C1602 C 0.39208 1.05621 0.53451
 C1603 C 0.37071 1.01873 0.54352
 C1604 C 0.36460 1.04869 0.54817
 C1605 C 0.32854 1.06290 0.50729
 C1606 C 0.31008 1.07500 0.49754
 C1607 C 0.42366 1.01466 0.53428
 C1608 C 0.44569 1.00574 0.53470
 H1609 H 0.39456 1.01841 0.47788
 H1610 H 0.34400 1.00486 0.50245
 H1611 H 0.38313 1.07288 0.48620
 H1612 H 0.40633 1.07105 0.54387
 H1613 H 0.36741 1.00284 0.56029
 H1614 H 0.35562 1.05765 0.56854
 C1615 C -0.11410 0.52750 0.99827
 C1616 C -0.14141 0.51975 1.01192
 C1617 C -0.14702 0.54933 1.01719
 C1618 C -0.12000 0.55719 1.00343
 C1619 C -0.10180 0.52642 1.02962
 C1620 C -0.10741 0.55600 1.03482
 C1621 C -0.12873 0.51843 1.04344
 C1622 C -0.13481 0.54833 1.04857
 C1623 C -0.17109 0.56300 1.00812
 C1624 C -0.18957 0.57519 0.99856
 C1625 C -0.07584 0.51445 1.03377
 C1626 C -0.05382 0.50549 1.03397
 H1627 H -0.10525 0.51884 0.97763
 H1628 H -0.15567 0.50501 1.00238
 H1629 H -0.11663 0.57322 0.98683
 H1630 H -0.09311 0.57074 1.04428
 H1631 H -0.13193 0.50234 1.06000
 H1632 H -0.14368 0.55706 1.06913
 C1633 C -0.01576 0.64579 0.51592
 C1634 C -0.02984 0.65375 0.54559
 C1635 C -0.00485 0.66951 0.55490
 C1636 C 0.00930 0.66203 0.52547
 C1637 C -0.00440 0.62128 0.53146
 C1638 C 0.02058 0.63703 0.54080
 C1639 C -0.01851 0.62886 0.56088
 C1640 C 0.00647 0.64491 0.57034
 C1641 C -0.00446 0.69569 0.56977
 C1642 C -0.00293 0.71631 0.58371
 C1643 C -0.00476 0.59366 0.52048
 C1644 C -0.00616 0.57039 0.51382
 H1645 H -0.02484 0.64588 0.49335
 H1646 H -0.05059 0.66081 0.54769
 H1647 H 0.02071 0.67598 0.51099
 H1648 H 0.04132 0.62993 0.53872
 H1649 H -0.02992 0.61496 0.57543
 H1650 H 0.01556 0.64471 0.59290
 C1651 C 0.48374 0.14584 0.01712
 C1652 C 0.47055 0.15369 0.04734
 C1653 C 0.49559 0.16991 0.05548
 C1654 C 0.50885 0.16253 0.02550
 C1655 C 0.49604 0.12159 0.03226
 C1656 C 0.52107 0.13779 0.04042
 C1657 C 0.48283 0.12907 0.06223
 C1658 C 0.50785 0.14557 0.07052
 C1659 C 0.49599 0.19613 0.07026
 C1660 C 0.49755 0.21679 0.08413
 C1661 C 0.49569 0.09393 0.02140
 C1662 C 0.49431 0.07064 0.01485
 H1663 H 0.47388 0.14569 -0.00503
 H1664 H 0.44977 0.16043 0.05031
 H1665 H 0.51952 0.17659 0.01047
 H1666 H 0.54185 0.13101 0.03747
 H1667 H 0.47216 0.11506 0.07732
 H1668 H 0.51772 0.14561 0.09266
 C1669 C -0.03939 0.12309 0.95902
 C1670 C -0.02900 0.14961 0.97296
 C1671 C -0.01146 0.15409 0.94507
 C1672 C -0.02181 0.12803 0.93094
 C1673 C -0.01621 0.10844 0.97362
 C1674 C 0.00127 0.11309 0.94571
 C1675 C -0.00584 0.13445 0.98780
 C1676 C 0.01165 0.13934 0.95968
 C1677 C -0.00701 0.17866 0.92778
 C1678 C -0.00157 0.19772 0.91240
 C1679 C -0.01687 0.08197 0.98759
 C1680 C -0.01529 0.05943 0.99664
 H1681 H -0.06044 0.11618 0.95891
 H1682 H -0.04145 0.16489 0.98404
 H1683 H -0.02834 0.12551 0.90741
 H1684 H 0.01377 0.09790 0.93454
 H1685 H 0.00071 0.13691 1.01133
 H1686 H 0.03274 0.14613 0.95982
 C1687 C 0.50278 0.61331 0.44749
 C1688 C 0.47965 0.62810 0.43263
 C1689 C 0.48988 0.65425 0.44665
 C1690 C 0.51305 0.63965 0.46135
 C1691 C 0.48530 0.60868 0.47540
 C1692 C 0.49556 0.63479 0.48948
 C1693 C 0.46206 0.62319 0.46072
 C1694 C 0.47235 0.64980 0.47455
 C1695 C 0.49422 0.67878 0.42926
 C1696 C 0.49957 0.69783 0.41383
 C1697 C 0.48469 0.58227 0.48949
 C1698 C 0.48629 0.55976 0.49862
 H1699 H 0.51535 0.59812 0.43640
 H1700 H 0.47314 0.62547 0.40910
 H1701 H 0.53410 0.64653 0.46148
 H1702 H 0.50208 0.63736 0.51301
 H1703 H 0.44104 0.61620 0.46062
 H1704 H 0.45982 0.66507 0.48554
 C1705 C 0.49699 0.87310 0.45307
 C1706 C 0.52207 0.86046 0.43911
 C1707 C 0.51310 0.83332 0.45147
 C1708 C 0.48801 0.84568 0.46525
 C1709 C 0.51249 0.87835 0.48214
 C1710 C 0.50350 0.85126 0.49460
 C1711 C 0.53758 0.86600 0.46835
 C1712 C 0.52865 0.83848 0.48053
 C1713 C 0.51363 0.80884 0.43316
 C1714 C 0.51462 0.78939 0.41712
 C1715 C 0.51165 0.90437 0.49743
 C1716 C 0.51021 0.92662 0.50768
 H1717 H 0.48395 0.88756 0.44185
 H1718 H 0.52968 0.86413 0.41612
 H1719 H 0.46759 0.83716 0.46381
 H1720 H 0.49590 0.84768 0.51760
 H1721 H 0.55799 0.87456 0.46978
 H1722 H 0.54169 0.82399 0.49170
 C1723 C -0.00329 0.37290 0.95203
 C1724 C 0.02165 0.36018 0.93785
 C1725 C 0.01263 0.33305 0.95021
 C1726 C -0.01232 0.34549 0.96421
 C1727 C 0.01241 0.37802 0.98099
 C1728 C 0.00337 0.35095 0.99345
 C1729 C 0.03736 0.36559 0.96697
 C1730 C 0.02837 0.33809 0.97915
 C1731 C 0.01297 0.30860 0.93182
 C1732 C 0.01383 0.28918 0.91571
 C1733 C 0.01177 0.40402 0.99635
 C1734 C 0.01047 0.42627 1.00664
 H1735 H -0.01634 0.38745 0.94094
 H1736 H 0.02913 0.36386 0.91481
 H1737 H -0.03279 0.33707 0.96290
 H1738 H -0.00411 0.34736 1.01650
 H1739 H 0.05781 0.37405 0.96827
 H1740 H 0.04142 0.32352 0.99019
 C1741 C 0.50108 0.37669 0.01400
 C1742 C 0.51346 0.37040 0.04474
 C1743 C 0.48776 0.35556 0.05379
 C1744 C 0.47530 0.36144 0.02323
 C1745 C 0.48953 0.40232 0.02738
 C1746 C 0.46376 0.38759 0.03638
 C1747 C 0.50194 0.39629 0.05792
 C1748 C 0.47623 0.38122 0.06713
 C1749 C 0.48868 0.33023 0.07009
 C1750 C 0.49150 0.31047 0.08496
 C1751 C 0.49207 0.42909 0.01449
 C1752 C 0.49553 0.45161 0.00596
 H1753 H 0.51134 0.37505 -0.00798
 H1754 H 0.53396 0.36319 0.04830
 H1755 H 0.46430 0.34685 0.00911
 H1756 H 0.44331 0.39493 0.03278
 H1757 H 0.51296 0.41080 0.07213
 H1758 H 0.46599 0.38293 0.08912
 C1759 C -0.00081 0.87533 0.51215
 C1760 C 0.01289 0.86873 0.54207
 C1761 C -0.01278 0.85475 0.55282
 C1762 C -0.02657 0.86094 0.52309
 C1763 C -0.01084 0.90137 0.52611
 C1764 C -0.03658 0.88750 0.53681
 C1765 C 0.00288 0.89502 0.55582
 C1766 C -0.02279 0.88083 0.56673
 C1767 C -0.01192 0.82951 0.56930
 C1768 C -0.00912 0.80984 0.58431
 C1769 C -0.00820 0.92806 0.51307
 C1770 C -0.00465 0.95054 0.50445
 H1771 H 0.00826 0.87330 0.48956
 H1772 H 0.03329 0.86086 0.54436
 H1773 H -0.03872 0.84667 0.50977
 H1774 H -0.05692 0.89550 0.53448
 H1775 H 0.01505 0.90922 0.56923
 H1776 H -0.03184 0.88293 0.58932
 C1777 C 0.20711 0.34187 0.12555
 C1778 C 0.23425 0.34088 0.10923
 C1779 C 0.21982 0.33871 0.07913
 C1780 C 0.19263 0.33996 0.09498
 C1781 C 0.20686 0.31141 0.12719
 C1782 C 0.19233 0.30907 0.09715
 C1783 C 0.23398 0.31035 0.11110
 C1784 C 0.21960 0.30825 0.08078
 C1785 C 0.22977 0.35381 0.05348
 C1786 C 0.23985 0.36637 0.03350
 C1787 C 0.20443 0.29581 0.15452
 C1788 C 0.20792 0.28306 0.17676
 H1789 H 0.20185 0.35552 0.14421
 H1790 H 0.25166 0.35398 0.11400
 H1791 H 0.17572 0.35237 0.08793
 H1792 H 0.17495 0.29589 0.09256
 H1793 H 0.25105 0.29804 0.11794
 H1794 H 0.22494 0.29458 0.06217
 C1795 C 0.73344 0.81015 0.61233
 C1796 C 0.71911 0.80813 0.58199
 C1797 C 0.71925 0.83859 0.58049
 C1798 C 0.73363 0.84069 0.61062
 C1799 C 0.70629 0.81107 0.62838
 C1800 C 0.70646 0.84154 0.62689
 C1801 C 0.69181 0.80881 0.59830
 C1802 C 0.69203 0.83971 0.59629
 C1803 C 0.72921 0.85381 0.55493
 C1804 C 0.73931 0.86644 0.53502
 C1805 C 0.70390 0.79535 0.65562
 C1806 C 0.70746 0.78250 0.67778
 H1807 H 0.75053 0.79786 0.61915
 H1808 H 0.72452 0.79455 0.56332
 H1809 H 0.75100 0.85381 0.61549
 H1810 H 0.70113 0.85510 0.64562
 H1811 H 0.67447 0.79561 0.59361
 H1812 H 0.67510 0.85211 0.58927
 C1813 C 0.27383 0.65399 0.63862
 C1814 C 0.24838 0.65508 0.61940
 C1815 C 0.26573 0.65702 0.59112
 C1816 C 0.29121 0.65566 0.60989
 C1817 C 0.27421 0.68445 0.64042
 C1818 C 0.29159 0.68647 0.61218
 C1819 C 0.24877 0.68572 0.62156
 C1820 C 0.26609 0.68748 0.59293
 C1821 C 0.26072 0.64137 0.56405
 C1822 C 0.25738 0.62765 0.54224
 C1823 C 0.27600 0.70021 0.66786
 C1824 C 0.27347 0.71369 0.68995
 H1825 H 0.27719 0.64043 0.65768
 H1826 H 0.23050 0.64214 0.62204
 H1827 H 0.30860 0.64305 0.60467
 H1828 H 0.30946 0.69944 0.60961
 H1829 H 0.23133 0.69830 0.62670
 H1830 H 0.26270 0.70105 0.57389
 C1831 C 0.79133 0.18683 0.11179
 C1832 C 0.79139 0.15603 0.10940
 C1833 C 0.76559 0.15704 0.09115
 C1834 C 0.76550 0.18749 0.09305
 C1835 C 0.77443 0.18448 0.14037
 C1836 C 0.74867 0.18540 0.12202
 C1837 C 0.77449 0.15402 0.13846
 C1838 C 0.74872 0.15476 0.11976
 C1839 C 0.76034 0.14134 0.06417
 C1840 C 0.75676 0.12753 0.04248
 C1841 C 0.77636 0.20021 0.16782
 C1842 C 0.77392 0.21361 0.18997
 H1843 H 0.80895 0.20008 0.10892
 H1844 H 0.80889 0.14370 0.10378
 H1845 H 0.76160 0.20105 0.07413
 H1846 H 0.73110 0.19769 0.12755
 H1847 H 0.77836 0.14048 0.15741
 H1848 H 0.73108 0.14155 0.12271
 C1849 C 0.71124 0.16675 0.85419
 C1850 C 0.73664 0.15622 0.86917
 C1851 C 0.72416 0.16154 0.90005
 C1852 C 0.69865 0.17178 0.88554
 C1853 C 0.72334 0.19491 0.85506
 C1854 C 0.71084 0.20036 0.88588
 C1855 C 0.74871 0.18451 0.86972
 C1856 C 0.73626 0.18969 0.90080
 C1857 C 0.72737 0.14277 0.92453
 C1858 C 0.73241 0.12705 0.94378
 C1859 C 0.72644 0.21307 0.82993
 C1860 C 0.73261 0.22720 0.80940
 H1861 H 0.70096 0.15758 0.83471
 H1862 H 0.74732 0.13792 0.86249
 H1863 H 0.67809 0.16628 0.89243
 H1864 H 0.70019 0.21871 0.89239
 H1865 H 0.76937 0.18989 0.86296
 H1866 H 0.74663 0.19892 0.92018
 C1867 C 0.21187 0.66716 0.35331
 C1868 C 0.23753 0.65681 0.36791
 C1869 C 0.22544 0.66220 0.39897
 C1870 C 0.19968 0.67225 0.38485
 C1871 C 0.22383 0.69538 0.35385
 C1872 C 0.21171 0.70088 0.38485
 C1873 C 0.24945 0.68518 0.36812
 C1874 C 0.23739 0.69041 0.39938
 C1875 C 0.22904 0.64358 0.42352
 C1876 C 0.23432 0.62803 0.44285
 C1877 C 0.22653 0.71350 0.32863
 C1878 C 0.23246 0.72766 0.30805
 H1879 H 0.20137 0.65786 0.33405
 H1880 H 0.24823 0.63855 0.36114
 H1881 H 0.17923 0.66666 0.39211
 H1882 H 0.20104 0.71920 0.39145
 H1883 H 0.26999 0.69064 0.36100
 H1884 H 0.24797 0.69978 0.41854
 C1885 C 0.75811 0.80424 0.35778
 C1886 C 0.76748 0.79886 0.39001
 C1887 C 0.77796 0.82759 0.39180
 C1888 C 0.76855 0.83317 0.35988
 C1889 C 0.78548 0.79564 0.34590
 C1890 C 0.79594 0.82438 0.34765
 C1891 C 0.79490 0.78997 0.37779
 C1892 C 0.80539 0.81908 0.38003
 C1893 C 0.77324 0.84573 0.41687
 C1894 C 0.76985 0.86126 0.43704
 C1895 C 0.78662 0.77821 0.31974
 C1896 C 0.78358 0.76461 0.29782
 H1897 H 0.73866 0.79794 0.34829
 H1898 H 0.75563 0.78863 0.40762
 H1899 H 0.75757 0.85104 0.35278
 H1900 H 0.80774 0.83460 0.32997
 H1901 H 0.80588 0.77208 0.38478
 H1902 H 0.82477 0.82546 0.38959
 C1903 C 0.25778 0.30365 0.85673
 C1904 C 0.26721 0.29840 0.88897
 C1905 C 0.27797 0.32704 0.89047
 C1906 C 0.26851 0.33249 0.85854
 C1907 C 0.28502 0.29470 0.84481
 C1908 C 0.29576 0.32335 0.84627
 C1909 C 0.29449 0.28916 0.87671
 C1910 C 0.30527 0.31818 0.87866
 C1911 C 0.27348 0.34537 0.91541
 C1912 C 0.27021 0.36103 0.93550
 C1913 C 0.28592 0.27708 0.81880
 C1914 C 0.28276 0.26340 0.79697
 H1915 H 0.23824 0.29747 0.84738
 H1916 H 0.25532 0.28841 0.90672
 H1917 H 0.25768 0.35042 0.85132
 H1918 H 0.30760 0.33333 0.82845
 H1919 H 0.30531 0.27120 0.88381
 H1920 H 0.32475 0.32444 0.88807
 C1921 C 0.81656 0.37833 0.78260
 C1922 C 0.81785 0.39693 0.75520
 C1923 C 0.80457 0.41878 0.77398
 C1924 C 0.80341 0.40056 0.80142
 C1925 C 0.78884 0.36884 0.77273
 C1926 C 0.77552 0.39064 0.79152
 C1927 C 0.78999 0.38703 0.74527
 C1928 C 0.77683 0.40934 0.76407
 C1929 C 0.81458 0.44613 0.77507
 C1930 C 0.82433 0.46802 0.77663
 C1931 C 0.78082 0.34090 0.77152
 C1932 C 0.77475 0.31780 0.76949
 H1933 H 0.83276 0.36526 0.79022
 H1934 H 0.83532 0.39984 0.74023
 H1935 H 0.80903 0.40647 0.82452
 H1936 H 0.75805 0.38765 0.80647
 H1937 H 0.78438 0.38105 0.72218
 H1938 H 0.76066 0.42243 0.75644
 C1939 C 0.31603 0.87887 0.28232
 C1940 C 0.31756 0.89763 0.25507
 C1941 C 0.30416 0.91938 0.27388
 C1942 C 0.30277 0.90100 0.30117
 C1943 C 0.28838 0.86947 0.27210
 C1944 C 0.27494 0.89117 0.29092
 C1945 C 0.28977 0.88783 0.24479
 C1946 C 0.27649 0.91004 0.26364
 C1947 C 0.31419 0.94672 0.27526
 C1948 C 0.32395 0.96860 0.27702
 C1949 C 0.28035 0.84154 0.27062
 C1950 C 0.27428 0.81845 0.26841
 H1951 H 0.33216 0.86573 0.28999
 H1952 H 0.33515 0.90061 0.24030
 H1953 H 0.30821 0.90677 0.32437
 H1954 H 0.25735 0.88811 0.30568
 H1955 H 0.28434 0.88200 0.22161
 H1956 H 0.26039 0.92319 0.25595
 C1957 C 0.22849 0.87928 0.70157
 C1958 C 0.20016 0.88412 0.68909
 C1959 C 0.19388 0.90087 0.71702
 C1960 C 0.22185 0.89653 0.72950
 C1961 C 0.21768 0.85476 0.71815
 C1962 C 0.21131 0.87158 0.74597
 C1963 C 0.18970 0.85910 0.70570
 C1964 C 0.18324 0.87619 0.73352
 C1965 C 0.17901 0.92546 0.71963
 C1966 C 0.16534 0.94423 0.72535
 C1967 C 0.22922 0.82852 0.72107
 C1968 C 0.23691 0.80640 0.72532
 H1969 H 0.24730 0.88013 0.68848
 H1970 H 0.19542 0.88964 0.66574
 H1971 H 0.23490 0.91224 0.73925
 H1972 H 0.21597 0.86611 0.76937
 H1973 H 0.17664 0.84336 0.69602
 H1974 H 0.16446 0.87511 0.74668
 C1975 C 0.72940 0.37913 0.20294
 C1976 C 0.70107 0.38430 0.19066
 C1977 C 0.69506 0.40096 0.21873
 C1978 C 0.72304 0.39629 0.23102
 C1979 C 0.71844 0.35462 0.21943
 C1980 C 0.71233 0.37135 0.24739
 C1981 C 0.69045 0.35928 0.20716
 C1982 C 0.68426 0.37629 0.23513
 C1983 C 0.68046 0.42569 0.22159
 C1984 C 0.66705 0.44460 0.22755
 C1985 C 0.72979 0.32828 0.22211
 C1986 C 0.73740 0.30610 0.22618
 H1987 H 0.74816 0.37987 0.18976
 H1988 H 0.69628 0.38998 0.16737
 H1989 H 0.73628 0.41183 0.24080
 H1990 H 0.71704 0.36572 0.27073
 H1991 H 0.67720 0.34370 0.19746
 H1992 H 0.66553 0.37532 0.24838
 C1993 C 0.72015 0.60948 0.22497
 C1994 C 0.72997 0.58588 0.24391
 C1995 C 0.70102 0.57970 0.25275
 C1996 C 0.69104 0.60284 0.23383
 C1997 C 0.72230 0.62753 0.25270
 C1998 C 0.69337 0.62128 0.26150
 C1999 C 0.73234 0.60445 0.27164
 C2000 C 0.70319 0.59778 0.28046
 C2001 C 0.68783 0.55377 0.25315
 C2002 C 0.67541 0.53326 0.25406
 C2003 C 0.73313 0.65447 0.25225
 C2004 C 0.74124 0.67695 0.25103
 H2005 H 0.72727 0.61473 0.20217
 H2006 H 0.74479 0.57097 0.23666
 H2007 H 0.67394 0.60184 0.21825
 H2008 H 0.67851 0.63617 0.26874
 H2009 H 0.74944 0.60553 0.28720
 H2010 H 0.69606 0.59261 0.30327
 C2011 C 0.21894 0.10859 0.72340
 C2012 C 0.22827 0.08484 0.74243
 C2013 C 0.19915 0.07892 0.75076
 C2014 C 0.18965 0.10222 0.73175
 C2015 C 0.22090 0.12655 0.75123
 C2016 C 0.19180 0.12056 0.75952
 C2017 C 0.23046 0.10331 0.77026
 C2018 C 0.20113 0.09691 0.77857
 C2019 C 0.18571 0.05311 0.75089
 C2020 C 0.17311 0.03272 0.75161
 C2021 C 0.23197 0.15340 0.75104
 C2022 C 0.24023 0.17583 0.74997
 H2023 H 0.22641 0.11383 0.70074
 H2024 H 0.24303 0.06980 0.73538
 H2025 H 0.17276 0.10143 0.71588
 H2026 H 0.17700 0.13558 0.76656
 H2027 H 0.24736 0.10418 0.78611
 H2028 H 0.19364 0.09175 0.80123
 C2029 C 0.30646 0.14289 0.21571
 C2030 C 0.30721 0.13031 0.24713
 C2031 C 0.29950 0.10331 0.23324
 C2032 C 0.29895 0.11551 0.20184
 C2033 C 0.27680 0.14853 0.22039
 C2034 C 0.26897 0.12162 0.20643
 C2035 C 0.27744 0.13625 0.25176
 C2036 C 0.26984 0.10895 0.23798
 C2037 C 0.31302 0.07922 0.24250
 C2038 C 0.32507 0.06070 0.25218
 C2039 C 0.26491 0.17449 0.21601
 C2040 C 0.25597 0.19650 0.21564
 H2041 H 0.32135 0.15717 0.20650
 H2042 H 0.32302 0.13367 0.26402
 H2043 H 0.30795 0.10663 0.18143
 H2044 H 0.25310 0.11843 0.18959
 H2045 H 0.26851 0.14511 0.27224
 H2046 H 0.25496 0.09472 0.24727
 C2047 C 0.77771 0.63565 0.75187
 C2048 C 0.76983 0.60835 0.73829
 C2049 C 0.79940 0.60265 0.73294
 C2050 C 0.80738 0.62965 0.74664
 C2051 C 0.77657 0.64790 0.72051
 C2052 C 0.80615 0.64220 0.71523
 C2053 C 0.76846 0.62099 0.70675
 C2054 C 0.79835 0.61481 0.70154
 C2055 C 0.81301 0.57856 0.74200
 C2056 C 0.82517 0.56005 0.75155
 C2057 C 0.76464 0.67387 0.71636
 C2058 C 0.75570 0.69588 0.71616
 H2059 H 0.76913 0.64455 0.77252
 H2060 H 0.75507 0.59416 0.74790
 H2061 H 0.82347 0.63300 0.76318
 H2062 H 0.82091 0.65643 0.70569
 H2063 H 0.75232 0.61781 0.69025
 H2064 H 0.80701 0.60589 0.68096
 C2065 C 0.89596 0.73431 0.23335
 C2066 C 0.90359 0.72077 0.20325
 C2067 C 0.91971 0.74571 0.19457
 C2068 C 0.91256 0.75931 0.22443
 C2069 C 0.87156 0.74638 0.21826
 C2070 C 0.88767 0.77132 0.20956
 C2071 C 0.87881 0.73282 0.18842
 C2072 C 0.89522 0.75774 0.17959
 C2073 C 0.94582 0.74595 0.17953
 C2074 C 0.96637 0.74736 0.16544
 C2075 C 0.84397 0.74611 0.22934
 C2076 C 0.82070 0.74475 0.23603
 H2077 H 0.89600 0.72472 0.25564
 H2078 H 0.91032 0.69997 0.20052
 H2079 H 0.92674 0.77017 0.23915
 H2080 H 0.88089 0.79211 0.21227
 H2081 H 0.86468 0.72196 0.17363
 H2082 H 0.89507 0.76734 0.15730
 C2083 C 0.39523 0.23331 0.73349
 C2084 C 0.40323 0.21999 0.70340
 C2085 C 0.41934 0.24504 0.69513
 C2086 C 0.41181 0.25844 0.72498
 C2087 C 0.37093 0.24537 0.71817
 C2088 C 0.38703 0.27042 0.70987
 C2089 C 0.37857 0.23202 0.68832
 C2090 C 0.39496 0.25706 0.67990
 C2091 C 0.44561 0.24550 0.68046
 C2092 C 0.46632 0.24707 0.66667
 C2093 C 0.34324 0.24494 0.72892
 C2094 C 0.31993 0.24350 0.73540
 H2095 H 0.39506 0.22359 0.75572
 H2096 H 0.41009 0.19923 0.70061
 H2097 H 0.42578 0.26927 0.73998
 H2098 H 0.38013 0.29117 0.71264
 H2099 H 0.36464 0.22119 0.67326
 H2100 H 0.39501 0.26679 0.65768
 C2101 C 0.38486 0.74534 0.76219
 C2102 C 0.38959 0.76262 0.79050
 C2103 C 0.40430 0.73944 0.80500
 C2104 C 0.39998 0.72210 0.77691
 C2105 C 0.35877 0.73484 0.77610
 C2106 C 0.37338 0.71158 0.79058
 C2107 C 0.36326 0.75212 0.80420
 C2108 C 0.37817 0.72896 0.81885
 C2109 C 0.42882 0.74377 0.82246
 C2110 C 0.44785 0.74911 0.83796
 C2111 C 0.33236 0.73422 0.76192
 C2112 C 0.30987 0.73580 0.75270
 H2113 H 0.38743 0.75205 0.73873
 H2114 H 0.39636 0.78370 0.79060
 H2115 H 0.41534 0.70975 0.76583
 H2116 H 0.36650 0.69054 0.79045
 H2117 H 0.34799 0.76452 0.81539
 H2118 H 0.37553 0.72227 0.84231
 C2119 C 0.88548 0.24510 0.26140
 C2120 C 0.89043 0.26260 0.28950
 C2121 C 0.90531 0.23955 0.30405
 C2122 C 0.90078 0.22201 0.27616
 C2123 C 0.85953 0.23466 0.27569
 C2124 C 0.87431 0.21154 0.29021
 C2125 C 0.86424 0.25215 0.30357
 C2126 C 0.87932 0.22913 0.31828
 C2127 C 0.92996 0.24407 0.32122
 C2128 C 0.94909 0.24960 0.33649
 C2129 C 0.83300 0.23391 0.26178
 C2130 C 0.81043 0.23542 0.25275
 H2131 H 0.88784 0.25165 0.23786
 H2132 H 0.89716 0.28369 0.28933
 H2133 H 0.91606 0.20960 0.26502
 H2134 H 0.86747 0.19049 0.29035
 H2135 H 0.84904 0.26460 0.31482
 H2136 H 0.87689 0.22260 0.34182
 C2137 C 0.12267 0.24710 0.29668
 C2138 C 0.10991 0.27208 0.31073
 C2139 C 0.08284 0.26319 0.29804
 C2140 C 0.09531 0.23820 0.28417
 C2141 C 0.12812 0.26278 0.26779
 C2142 C 0.10111 0.25387 0.25501
 C2143 C 0.11566 0.28777 0.28167
 C2144 C 0.08822 0.27891 0.26916
 C2145 C 0.05820 0.26365 0.31613
 C2146 C 0.03862 0.26464 0.33200
 C2147 C 0.15426 0.26207 0.25269
 C2148 C 0.17658 0.26075 0.24256
 H2149 H 0.13706 0.23400 0.30793
 H2150 H 0.11341 0.27953 0.33381
 H2151 H 0.08679 0.21778 0.28536
 H2152 H 0.09769 0.24642 0.23190
 H2153 H 0.12422 0.30818 0.28050
 H2154 H 0.07380 0.29201 0.25796
 C2155 C 0.61578 0.78716 0.78334
 C2156 C 0.58826 0.77802 0.77128
 C2157 C 0.58329 0.76252 0.80040
 C2158 C 0.61043 0.77170 0.81264
 C2159 C 0.62826 0.76214 0.76957
 C2160 C 0.62321 0.74669 0.79870
 C2161 C 0.60118 0.75294 0.75724
 C2162 C 0.59578 0.73749 0.78664
 C2163 C 0.55883 0.76295 0.81880
 C2164 C 0.53941 0.76391 0.83490
 C2165 C 0.65425 0.76144 0.75416
 C2166 C 0.67648 0.76012 0.74380
 H2167 H 0.62419 0.80761 0.78183
 H2168 H 0.57364 0.79092 0.76013
 H2169 H 0.61412 0.77938 0.83560
 H2170 H 0.63780 0.73378 0.80991
 H2171 H 0.59757 0.74526 0.73426
 H2172 H 0.58741 0.71703 0.78817
 C2173 C 0.63700 0.21312 0.71518
 C2174 C 0.61081 0.22469 0.72822
 C2175 C 0.60497 0.23702 0.69759
 C2176 C 0.63068 0.22546 0.68436
 C2177 C 0.65171 0.23892 0.72410
 C2178 C 0.64572 0.25119 0.69349
 C2179 C 0.62605 0.25050 0.73737
 C2180 C 0.61980 0.26275 0.70656
 C2181 C 0.57968 0.23792 0.68120
 C2182 C 0.55998 0.24076 0.66624
 C2183 C 0.67847 0.24156 0.73700
 C2184 C 0.70101 0.24512 0.74550
 H2185 H 0.64435 0.19271 0.71889
 H2186 H 0.59619 0.21375 0.74235
 H2187 H 0.63242 0.21515 0.66242
 H2188 H 0.66026 0.26216 0.67926
 H2189 H 0.62437 0.26083 0.75930
 H2190 H 0.61258 0.28322 0.70288
 C2191 C 0.12571 0.75102 0.23582
 C2192 C 0.11955 0.76318 0.20494
 C2193 C 0.10475 0.73742 0.19602
 C2194 C 0.11050 0.72518 0.22672
 C2195 C 0.15141 0.73941 0.22270
 C2196 C 0.13673 0.71358 0.21383
 C2197 C 0.14551 0.75158 0.19202
 C2198 C 0.13050 0.72582 0.18294
 C2199 C 0.07951 0.73825 0.17955
 C2200 C 0.05983 0.74101 0.16453
 C2201 C 0.17814 0.74209 0.23568
 C2202 C 0.20065 0.74569 0.24421
 H2203 H 0.12397 0.76142 0.25771
 H2204 H 0.11234 0.78363 0.20116
 H2205 H 0.09584 0.71428 0.24085
 H2206 H 0.14407 0.69318 0.21765
 H2207 H 0.16009 0.76251 0.17780
 H2208 H 0.13230 0.71544 0.16104
   
