data_POSCAR
  _audit_creation_date              2014-09-24
  _audit_creation_method            'ToBaCCo'
  _symmetry_space_group_name_H-M    'P1'
  _symmetry_Int_Tables_number       1
  _symmetry_cell_setting            triclinic
  loop_
  _symmetry_equiv_pos_as_xyz
 x,y,z
_cell_length_a 62.7320
_cell_length_b 61.9671
_cell_length_c 63.7255
_cell_angle_alpha 89.889600
_cell_angle_beta 89.801800
_cell_angle_gamma 89.650300
loop_
  _atom_site_label
  _atom_site_type_symbol
  _atom_site_fract_x
  _atom_site_fract_y
  _atom_site_fract_z
C1 C 0.36015 1.35858 0.32935
 C2 C 0.36776 1.34003 0.33981
 C3 C 0.35692 1.33143 0.35712
 C4 C 0.33843 1.34172 0.36446
 C5 C 0.33023 1.36037 0.35460
 C6 C 0.34143 1.36867 0.33710
 H7 H 0.38131 1.33115 0.33366
 H8 H 0.33101 1.33547 0.37855
 H9 H 0.33542 1.38292 0.32928
 C10 C 0.36059 0.86474 0.83270
 C11 C 0.34097 0.87138 0.84143
 C12 C 0.33138 0.85959 0.85798
 C13 C 0.34230 0.84126 0.86571
 C14 C 0.36185 0.83452 0.85717
 C15 C 0.37086 0.84635 0.84071
 H16 H 0.33294 0.88524 0.83469
 H17 H 0.33621 0.83258 0.87919
 H18 H 0.38559 0.84076 0.83359
 C19 C 0.86347 1.37005 0.83390
 C20 C 0.87393 1.35161 0.84157
 C21 C 0.86478 1.33912 0.85745
 C22 C 0.84507 1.34534 0.86594
 C23 C 0.83395 1.36366 0.85851
 C24 C 0.84361 1.37612 0.84251
 H25 H 0.88879 1.34637 0.83444
 H26 H 0.83886 1.33610 0.87900
 H27 H 0.83540 1.38997 0.83594
 C28 C 0.87029 0.87271 0.33717
 C29 C 0.87990 0.85459 0.34649
 C30 C 0.87074 0.84467 0.36411
 C31 C 0.85184 0.85325 0.37263
 C32 C 0.84197 0.87143 0.36357
 C33 C 0.85134 0.88108 0.34583
 H34 H 0.89404 0.84757 0.33939
 H35 H 0.84491 0.84585 0.38645
 H36 H 0.84372 0.89490 0.33854
 C37 C 0.63245 0.63012 0.33363
 C38 C 0.65178 0.62175 0.34166
 C39 C 0.66134 0.63063 0.35959
 C40 C 0.65155 0.64831 0.36956
 C41 C 0.63233 0.65692 0.36195
 C42 C 0.62290 0.64769 0.34420
 H43 H 0.65936 0.60795 0.33433
 H44 H 0.65869 0.65514 0.38348
 H45 H 0.60879 0.65539 0.33788
 C46 C 0.63480 0.13100 0.83145
 C47 C 0.65259 0.12140 0.84108
 C48 C 0.66320 0.13161 0.85786
 C49 C 0.65513 0.15173 0.86491
 C50 C 0.63733 0.16141 0.85536
 C51 C 0.62724 0.15087 0.83878
 H52 H 0.65862 0.10644 0.83459
 H53 H 0.66237 0.15994 0.87802
 H54 H 0.61364 0.15843 0.83123
 C55 C 1.15372 0.65349 0.81575
 C56 C 1.14574 0.67251 0.82480
 C57 C 1.15421 0.68057 0.84352
 C58 C 1.17085 0.66923 0.85338
 C59 C 1.17914 0.65011 0.84458
 C60 C 1.17034 0.64227 0.82579
 H61 H 1.13253 0.68088 0.81741
 H62 H 1.17743 0.67539 0.86786
 H63 H 1.17689 0.62783 0.81861
 C64 C 1.14358 0.13757 0.32710
 C65 C 1.13324 0.15530 0.33664
 C66 C 1.14080 0.16418 0.35543
 C67 C 1.15886 0.15507 0.36505
 C68 C 1.16918 0.13682 0.35644
 C69 C 1.16128 0.12836 0.33747
 H70 H 1.12008 0.16330 0.32883
 H71 H 1.16405 0.16161 0.37990
 H72 H 1.16916 0.11454 0.33056
 C73 C 0.64280 1.35412 0.67282
 C74 C 0.66158 1.36401 0.66583
 C75 C 0.67156 1.35778 0.64682
 C76 C 0.66189 1.34127 0.63489
 C77 C 0.64305 1.33127 0.64179
 C78 C 0.63368 1.33782 0.66073
 H79 H 0.66799 1.37699 0.67517
 H80 H 0.66924 1.33548 0.62058
 H81 H 0.61924 1.33006 0.66619
 C82 C 0.64466 0.85719 1.17207
 C83 C 0.66345 0.86453 1.16239
 C84 C 0.67178 0.85397 1.14465
 C85 C 0.66095 0.83614 1.13645
 C86 C 0.64215 0.82862 1.14586
 C87 C 0.63404 0.83932 1.16358
 H88 H 0.67205 0.87792 1.16915
 H89 H 0.66707 0.82822 1.12251
 H90 H 0.61960 0.83352 1.17097
 C91 C 1.14176 1.36116 1.17248
 C92 C 1.13467 1.34171 1.16344
 C93 C 1.14551 1.33240 1.14634
 C94 C 1.16377 1.34249 1.13830
 C95 C 1.17176 1.36149 1.14736
 C96 C 1.16036 1.37072 1.16422
 H97 H 1.12041 1.33395 1.16925
 H98 H 1.17223 1.33481 1.12547
 H99 H 1.16620 1.38541 1.17116
 C100 C 1.14176 0.86203 0.67186
 C101 C 1.13211 0.84433 0.66208
 C102 C 1.14164 0.83441 0.64451
 C103 C 1.16118 0.84240 0.63689
 C104 C 1.17114 0.85991 0.64675
 C105 C 1.16122 0.86967 0.66408
 H106 H 1.11722 0.83820 0.66827
 H107 H 1.16873 0.83491 0.62342
 H108 H 1.16882 0.88320 0.67171
 C109 C 0.35482 0.63901 0.67381
 C110 C 0.36443 0.65724 0.66497
 C111 C 0.35702 0.66593 0.64596
 C112 C 0.33970 0.65612 0.63580
 C113 C 0.33010 0.63735 0.64411
 C114 C 0.33802 0.62905 0.66321
 H115 H 0.37724 0.66513 0.67327
 H116 H 0.33457 0.66258 0.62084
 H117 H 0.33059 0.61523 0.67054
 C118 C 0.36242 0.12954 1.16665
 C119 C 0.34423 0.12095 1.15709
 C120 C 0.33561 0.13043 1.13894
 C121 C 0.34548 0.14873 1.13030
 C122 C 0.36377 0.15751 1.13959
 C123 C 0.37215 0.14776 1.15772
 H124 H 0.33629 0.10729 1.16424
 H125 H 0.33912 0.15594 1.11613
 H126 H 0.38614 0.15452 1.16506
 C127 C 0.84912 0.64582 1.17688
 C128 C 0.85781 0.66453 1.16749
 C129 C 0.84930 0.67293 1.14871
 C130 C 0.83265 0.66194 1.13875
 C131 C 0.82430 0.64300 1.14738
 C132 C 0.83246 0.63519 1.16636
 H133 H 0.87011 0.67354 1.17543
 H134 H 0.82634 0.66801 1.12405
 H135 H 0.82592 0.62040 1.17265
 C136 C 0.84059 0.15362 0.68451
 C137 C 0.82259 0.14540 0.67391
 C138 C 0.81347 0.15617 0.65657
 C139 C 0.82277 0.17561 0.64994
 C140 C 0.84077 0.18401 0.65984
 C141 C 0.84988 0.17283 0.67680
 H142 H 0.81553 0.13052 0.67928
 H143 H 0.81683 0.18391 0.63617
 H144 H 0.86333 0.18003 0.68469
 C145 C 1.35935 0.35873 0.67082
 C146 C 1.34098 0.36907 0.66317
 C147 C 1.33018 0.36093 0.64572
 C148 C 1.33801 0.34230 0.63578
 C149 C 1.35644 0.33149 0.64303
 C150 C 1.36710 0.34019 0.66057
 H151 H 1.33490 0.38336 0.67099
 H152 H 1.33007 0.33691 0.62170
 H153 H 1.38064 0.33181 0.66729
 C154 C 1.35803 0.85592 1.17396
 C155 C 1.36537 0.83718 1.16378
 C156 C 1.35455 0.82863 1.14626
 C157 C 1.33626 0.83975 1.13902
 C158 C 1.32886 0.85863 1.14886
 C159 C 1.33986 0.86661 1.16628
 H160 H 1.37875 0.82858 1.17055
 H161 H 1.32816 0.83444 1.12500
 H162 H 1.33413 0.88108 1.17403
 C163 C 0.86075 0.36664 1.17022
 C164 C 0.87121 0.34864 1.16146
 C165 C 0.86403 0.33927 1.14258
 C166 C 0.84640 0.34891 1.13242
 C167 C 0.83601 0.36704 1.14085
 C168 C 0.84334 0.37583 1.15969
 H169 H 0.88393 0.34112 1.17032
 H170 H 0.84105 0.34292 1.11740
 H171 H 0.83517 0.38964 1.16641
 C172 C 0.86724 0.86770 0.66709
 C173 C 0.84810 0.87642 0.65927
 C174 C 0.83854 0.86774 0.64123
 C175 C 0.84840 0.85018 0.63107
 C176 C 0.86748 0.84127 0.63874
 C177 C 0.87680 0.85020 0.65668
 H178 H 0.84055 0.88980 0.66735
 H179 H 0.84136 0.84361 0.61698
 H180 H 0.89112 0.84292 0.66309
 C181 C 0.63593 0.63633 0.66885
 C182 C 0.62655 0.65354 0.65784
 C183 C 0.63519 0.66077 0.63878
 C184 C 0.65320 0.65030 0.63052
 C185 C 0.66287 0.63305 0.64130
 C186 C 0.65398 0.62596 0.66037
 H187 H 0.61245 0.66139 0.66417
 H188 H 0.66008 0.65598 0.61592
 H189 H 0.66169 0.61310 0.66910
 C190 C 0.63741 1.12908 1.16725
 C191 C 0.65380 1.11985 1.15529
 C192 C 0.66030 1.12927 1.13638
 C193 C 0.65003 1.14809 1.12926
 C194 C 0.63342 1.15788 1.14101
 C195 C 0.62721 1.14788 1.16002
 H196 H 0.66189 1.10550 1.16100
 H197 H 0.65591 1.15554 1.11503
 H198 H 0.61426 1.15444 1.16933
 C199 C 0.14504 0.64597 1.17473
 C200 C 0.13753 0.66432 1.16374
 C201 C 0.14880 0.67302 1.14647
 C202 C 0.16766 0.66248 1.13995
 C203 C 0.17523 0.64403 1.15029
 C204 C 0.16396 0.63596 1.16757
 H205 H 0.12398 0.67311 1.16992
 H206 H 0.17643 0.66822 1.12642
 H207 H 0.16960 0.62115 1.17472
 C208 C 0.15363 1.15345 0.68420
 C209 C 0.14477 1.17247 0.67605
 C210 C 0.15154 1.18107 0.65667
 C211 C 0.16762 1.16986 0.64550
 C212 C 0.17687 1.15085 0.65362
 C213 C 0.16963 1.14268 0.67291
 H214 H 0.13160 1.17981 0.68448
 H215 H 0.17359 1.17617 0.63078
 H216 H 0.17687 1.12826 0.67946
 C217 C 1.34935 0.64547 0.32169
 C218 C 1.33057 0.63827 0.33136
 C219 C 1.32253 0.64853 0.34930
 C220 C 1.33351 0.66617 0.35766
 C221 C 1.35248 0.67386 0.34836
 C222 C 1.36031 0.66305 0.33037
 H223 H 1.32205 0.62472 0.32479
 H224 H 1.32761 0.67312 0.37213
 H225 H 1.37420 0.66904 0.32216
 C226 C 1.35701 1.13936 0.82726
 C227 C 1.33818 1.12978 0.83453
 C228 C 1.32642 1.13910 0.85088
 C229 C 1.33353 1.15832 0.85997
 C230 C 1.35238 1.16848 0.85303
 C231 C 1.36410 1.15856 0.83664
 H232 H 1.33254 1.11508 0.82730
 H233 H 1.32441 1.16497 0.87289
 H234 H 1.37835 1.16604 0.83047
 C235 C 0.85000 0.64753 0.82336
 C236 C 0.83350 0.63691 0.83416
 C237 C 0.82553 0.64506 0.85318
 C238 C 0.83412 0.66408 0.86133
 C239 C 0.85049 0.67498 0.85079
 C240 C 0.85865 0.66647 0.83195
 H241 H 0.82699 0.62213 0.82787
 H242 H 0.82776 0.67068 0.87581
 H243 H 0.87104 0.67506 0.82357
 C244 C 0.86751 1.13434 0.33472
 C245 C 0.84920 1.12436 0.34283
 C246 C 0.83937 1.13203 0.36122
 C247 C 0.84812 1.14994 0.37158
 C248 C 0.86662 1.15994 0.36381
 C249 C 0.87616 1.15199 0.34539
 H250 H 0.84242 1.11074 0.33464
 H251 H 0.84076 1.15584 0.38588
 H252 H 0.88994 1.16012 0.33889
 C253 C 0.64457 0.35749 0.32875
 C254 C 0.63800 0.33704 0.33637
 C255 C 0.64812 0.32707 0.35370
 C256 C 0.66464 0.33826 0.36373
 C257 C 0.67114 0.35858 0.35685
 C258 C 0.66126 0.36802 0.33942
 H259 H 0.62511 0.32871 0.32871
 H260 H 0.67231 0.33148 0.37746
 H261 H 0.66736 0.38330 0.33386
 C262 C 0.64785 0.84938 0.82223
 C263 C 0.64067 0.83099 0.83304
 C264 C 0.65117 0.82360 0.85113
 C265 C 0.66893 0.83492 0.85849
 C266 C 0.67637 0.85334 0.84797
 C267 C 0.66567 0.86055 0.82989
 H268 H 0.62698 0.82227 0.82728
 H269 H 0.67676 0.82956 0.87271
 H270 H 0.67166 0.87441 0.82139
 C271 C 0.14373 0.36102 0.82597
 C272 C 0.13656 0.34109 0.83416
 C273 C 0.14736 0.33079 0.85077
 C274 C 0.16569 0.34037 0.85910
 C275 C 0.17333 0.35987 0.85101
 C276 C 0.16219 0.37017 0.83479
 H277 H 0.12231 0.33367 0.82803
 H278 H 0.17422 0.33250 0.87176
 H279 H 0.16872 0.38494 0.82846
 C280 C 0.14125 0.85978 0.32733
 C281 C 0.13404 0.84112 0.33793
 C282 C 0.14497 0.83283 0.35541
 C283 C 0.16298 0.84364 0.36281
 C284 C 0.17043 0.86227 0.35281
 C285 C 0.15956 0.87023 0.33517
 H286 H 0.12078 0.83199 0.33184
 H287 H 0.17111 0.83762 0.37664
 H288 H 0.16531 0.88487 0.32789
 O289 O 0.97928 0.92187 0.89674
 O290 O 0.97971 0.89634 0.87269
 C291 C 0.97213 0.91395 0.87980
 C292 C 0.95444 0.92510 0.86871
 C293 C 0.94642 0.91708 0.84965
 H294 H 0.95358 0.90291 0.84253
 O295 O 1.01989 1.07710 0.89372
 O296 O 1.02010 1.10161 0.86858
 C297 C 1.02731 1.08422 0.87651
 C298 C 1.04488 1.07237 0.86601
 C299 C 1.05272 1.07915 0.84642
 H300 H 1.04539 1.09275 0.83846
 O301 O 0.89356 0.97902 0.92440
 O302 O 0.86872 0.97839 0.90002
 C303 C 0.87648 0.97115 0.91707
 C304 C 0.86603 0.95285 0.92801
 C305 C 0.84758 0.94347 0.91962
 H306 H 0.84059 0.95009 0.90546
 O307 O 1.10456 1.02143 0.92544
 O308 O 1.12989 1.02152 0.90135
 C309 C 1.12183 1.02903 0.91818
 C310 C 1.13245 1.04704 0.92918
 C311 C 1.15271 1.05392 0.92270
 H312 H 1.16093 1.04543 0.91020
 O313 O 0.92368 0.89210 0.98159
 O314 O 0.89927 0.86665 0.98195
 C315 C 0.91654 0.87433 0.97471
 C316 C 0.92818 0.86301 0.95767
 C317 C 0.92137 0.84282 0.95026
 H318 H 0.90792 0.83491 0.95763
 O319 O 1.07403 1.11083 0.97832
 O320 O 1.09865 1.13607 0.97766
 C321 C 1.08150 1.12814 0.97058
 C322 C 1.07040 1.13867 0.95276
 C323 C 1.07717 1.15876 0.94496
 H324 H 1.09014 1.16713 0.95254
 O325 O 0.92195 1.02106 0.89461
 O326 O 0.89716 1.02054 0.87017
 C327 C 0.91442 1.02812 0.87740
 C328 C 0.92561 1.04573 0.86608
 C329 C 0.91813 1.05345 0.84664
 H330 H 0.90460 1.04577 0.83932
 O331 O 1.07735 0.97823 0.89684
 O332 O 1.10260 0.97809 0.87267
 C333 C 1.08525 0.97067 0.87998
 C334 C 1.07427 0.95277 0.86917
 C335 C 1.08224 0.94419 0.85025
 H336 H 1.09640 0.95099 0.84312
 O337 O 1.02134 0.89355 0.92622
 O338 O 1.02199 0.86794 0.90224
 C339 C 1.02909 0.87602 0.91913
 C340 C 1.04693 0.86529 0.93035
 C341 C 1.05534 0.84560 0.92308
 H342 H 1.04821 0.83774 0.90968
 O343 O 0.97830 1.10738 0.92165
 O344 O 0.97817 1.13200 0.89660
 C345 C 0.97095 1.12475 0.91387
 C346 C 0.95342 1.13621 0.92478
 C347 C 0.94518 1.15564 0.91673
 H348 H 0.95211 1.16272 0.90274
 O349 O 0.89328 1.07917 0.97760
 O350 O 0.86828 1.10435 0.97715
 C351 C 0.87589 1.08666 0.97034
 C352 C 0.86470 1.07501 0.95341
 C353 C 0.84514 1.08275 0.94577
 H354 H 0.83771 1.09665 0.95311
 O355 O 1.10743 0.92381 0.98199
 O356 O 1.13249 0.89871 0.98256
 C357 C 1.12498 0.91620 0.97514
 C358 C 1.13625 0.92771 0.95801
 C359 C 1.15679 0.92138 0.95133
 H360 H 1.16498 0.90829 0.95928
 O361 O 0.97823 1.07739 0.89354
 O362 O 0.97839 1.10190 0.86840
 C363 C 0.97097 1.08466 0.87631
 C364 C 0.95333 1.07330 0.86565
 C365 C 0.94554 1.08086 0.84634
 H366 H 0.95279 1.09486 0.83913
 O367 O 1.02094 0.92248 0.89702
 O368 O 1.02140 0.89694 0.87296
 C369 C 1.02849 0.91457 0.88017
 C370 C 1.04627 0.92552 0.86929
 C371 C 1.05441 0.91721 0.85044
 H372 H 1.04680 0.90346 0.84321
 O373 O 1.10611 0.97932 0.92596
 O374 O 1.13144 0.97949 0.90186
 C375 C 1.12384 0.97232 0.91897
 C376 C 1.13553 0.95534 0.93063
 C377 C 1.15600 0.94892 0.92424
 H378 H 1.16337 0.95675 0.91087
 O379 O 0.89284 1.02131 0.92362
 O380 O 0.86793 1.02077 0.89930
 C381 C 0.87544 1.02853 0.91615
 C382 C 0.86434 1.04660 0.92688
 C383 C 0.84479 1.05469 0.91933
 H384 H 0.83743 1.04729 0.90581
 O385 O 0.92257 1.10845 0.97723
 O386 O 0.89758 1.13363 0.97667
 C387 C 0.91496 1.12583 0.96968
 C388 C 0.92604 1.13666 0.95212
 C389 C 0.91799 1.15602 0.94384
 H390 H 0.90422 1.16366 0.95103
 O391 O 1.07759 0.89507 0.98182
 O392 O 1.10249 0.86981 0.98230
 C393 C 1.08523 0.87745 0.97488
 C394 C 1.07427 0.86598 0.95765
 C395 C 1.08230 0.84622 0.95022
 H396 H 1.09627 0.83908 0.95745
 O397 O 1.07624 1.02019 0.89601
 O398 O 1.10147 1.02007 0.87182
 C399 C 1.08383 1.02722 0.87882
 C400 C 1.07235 1.04429 0.86714
 C401 C 1.07981 1.05111 0.84746
 H402 H 1.09364 1.04336 0.84050
 O403 O 0.92293 0.97898 0.89591
 O404 O 0.89817 0.97839 0.87144
 C405 C 0.91554 0.97121 0.87903
 C406 C 0.92683 0.95318 0.86849
 C407 C 0.91905 0.94488 0.84959
 H408 H 0.90535 0.95240 0.84220
 O409 O 1.01969 1.10757 0.92158
 O410 O 1.01962 1.13221 0.89656
 C411 C 1.02673 1.12508 0.91389
 C412 C 1.04360 1.13708 0.92504
 C413 C 1.05044 1.15723 0.91760
 H414 H 1.04307 1.16422 0.90381
 O415 O 0.97977 0.89292 0.92628
 O416 O 0.98043 0.86730 0.90231
 C417 C 0.97299 0.87506 0.91927
 C418 C 0.95592 0.86347 0.93064
 C419 C 0.94904 0.84327 0.92360
 H420 H 0.95666 0.83590 0.91010
 O421 O 1.10278 1.08075 0.97928
 O422 O 1.12760 1.10580 0.97859
 C423 C 1.12017 1.08802 0.97197
 C424 C 1.13165 1.07585 0.95538
 C425 C 1.15189 1.08250 0.94860
 H426 H 1.15924 1.09645 0.95572
 O427 O 0.89474 0.92201 0.98038
 O428 O 0.87018 0.89670 0.98065
 C429 C 0.87765 0.91412 0.97310
 C430 C 0.86672 0.92493 0.95528
 C431 C 0.84825 0.91591 0.94664
 H432 H 0.84140 0.90162 0.95372
 Cu433 Cu 1.00020 0.91029 0.91394
 Cu434 Cu 1.00089 0.87957 0.88513
 Cu435 Cu 0.99907 1.08985 0.91010
 Cu436 Cu 0.99911 1.11936 0.87997
 Cu437 Cu 0.91026 1.00024 0.91210
 Cu438 Cu 0.88048 0.99947 0.88282
 Cu439 Cu 1.08853 0.99974 0.91349
 Cu440 Cu 1.11891 0.99982 0.88452
 C441 C 0.94463 0.94330 0.87786
 H442 H 0.95047 0.94941 0.89266
 C443 C 0.92861 0.92682 0.84013
 C444 C 1.05470 1.05479 0.87615
 H445 H 1.04905 1.04974 0.89147
 C446 C 1.07015 1.06854 0.83705
 C447 C 0.87540 0.94353 0.94594
 H448 H 0.88986 0.95038 0.95227
 C449 C 0.83868 0.92491 0.92872
 C450 C 1.12211 1.05798 0.94568
 H451 H 1.10637 1.05291 0.95061
 C452 C 1.16254 1.07162 0.93230
 C453 C 0.94560 0.87308 0.94785
 H454 H 0.95071 0.88880 0.95317
 C455 C 0.93181 0.83281 0.93327
 C456 C 1.05350 1.12807 0.94277
 H457 H 1.04842 1.11243 0.94845
 C458 C 1.06717 1.16821 0.92745
 C459 C 0.94336 1.05564 0.87529
 H460 H 0.94908 1.04998 0.89036
 C461 C 0.92801 1.07106 0.83661
 C462 C 1.05616 0.94342 0.87842
 H463 H 1.05011 0.94968 0.89316
 C464 C 1.07244 0.92630 0.84087
 C465 C 1.05643 0.87528 0.94775
 H466 H 1.05030 0.89066 0.95324
 C467 C 1.07302 0.83598 0.93292
 C468 C 0.94389 1.12698 0.94262
 H469 H 0.94994 1.11181 0.94872
 C470 C 0.92738 1.16553 0.92611
 C471 C 0.87404 1.05680 0.94402
 H472 H 0.88928 1.05094 0.94968
 C473 C 0.83512 1.07285 0.92866
 C474 C 1.12591 0.94484 0.94766
 H475 H 1.11000 0.94962 0.95247
 C476 C 1.16686 0.93209 0.93452
 O477 O 1.02045 0.92598 1.10657
 O478 O 1.02073 0.90130 1.13154
 C479 C 1.02797 0.91864 1.12367
 C480 C 1.04576 0.93007 1.13408
 C481 C 1.05462 0.92210 1.15285
 H482 H 1.04812 0.90771 1.16003
 O483 O 0.97682 1.08110 1.10372
 O484 O 0.97609 1.10631 1.12810
 C485 C 0.96917 1.08868 1.12068
 C486 C 0.95162 1.07715 1.13144
 C487 C 0.94356 1.08450 1.15079
 H488 H 0.95060 1.09840 1.15830
 O489 O 0.89208 1.02331 1.07416
 O490 O 0.86681 1.02373 1.09831
 C491 C 0.87458 1.03081 1.08122
 C492 C 0.86358 1.04836 1.06970
 C493 C 0.84362 1.05620 1.07643
 H494 H 0.83581 1.04895 1.08988
 O495 O 1.10600 0.98286 1.07674
 O496 O 1.13073 0.98358 1.10122
 C497 C 1.12329 0.97562 1.08444
 C498 C 1.13430 0.95717 1.07417
 C499 C 1.15296 0.94818 1.08287
 H500 H 1.15987 0.95527 1.09678
 O501 O 1.07725 0.89513 1.02277
 O502 O 1.10191 0.86962 1.02330
 C503 C 1.08449 0.87751 1.03017
 C504 C 1.07274 0.86646 1.04728
 C505 C 1.07922 0.84597 1.05436
 H506 H 1.09232 0.83773 1.04662
 O507 O 0.92199 1.10943 1.01824
 O508 O 0.89701 1.13462 1.01760
 C509 C 0.91426 1.12708 1.02507
 C510 C 0.92500 1.13857 1.04239
 C511 C 0.91702 1.15843 1.04963
 H512 H 0.90380 1.16601 1.04153
 O513 O 0.92146 0.98191 1.10377
 O514 O 0.89623 0.98220 1.12796
 C515 C 0.91380 0.97487 1.12092
 C516 C 0.92522 0.95767 1.13257
 C517 C 0.91753 0.95052 1.15203
 H518 H 0.90367 0.95826 1.15896
 O519 O 1.07576 1.02518 1.10449
 O520 O 1.10037 1.02594 1.12910
 C521 C 1.08289 1.03284 1.12154
 C522 C 1.07092 1.05026 1.13241
 C523 C 1.07708 1.05729 1.15243
 H524 H 1.09014 1.04924 1.16037
 O525 O 0.97887 0.89595 1.07850
 O526 O 0.97906 0.87126 1.10347
 C527 C 0.97175 0.87849 1.08624
 C528 C 0.95451 0.86673 1.07533
 C529 C 0.94749 0.84669 1.08290
 H530 H 0.95497 0.83966 1.09662
 O531 O 1.01810 1.11094 1.07492
 O532 O 1.01744 1.13630 1.09915
 C533 C 1.02493 1.12869 1.08213
 C534 C 1.04208 1.14028 1.07081
 C535 C 1.04896 1.16056 1.07769
 H536 H 1.04134 1.16802 1.09115
 O537 O 0.89360 0.92264 1.02126
 O538 O 0.86888 0.89749 1.02169
 C539 C 0.87616 0.91528 1.02838
 C540 C 0.86460 0.92741 1.04494
 C541 C 0.84432 0.92087 1.05185
 H542 H 0.83665 0.90724 1.04449
 O543 O 1.10309 1.08217 1.02009
 O544 O 1.12782 1.10730 1.01945
 C545 C 1.12042 1.08988 1.02700
 C546 C 1.13182 1.07871 1.04427
 C547 C 1.15148 1.08646 1.05143
 H548 H 1.15877 1.10015 1.04369
 O549 O 1.01844 1.08140 1.10373
 O550 O 1.01777 1.10658 1.12813
 C551 C 1.02541 1.08909 1.12081
 C552 C 1.04284 1.07777 1.13202
 C553 C 1.04935 1.08470 1.15194
 H554 H 1.04139 1.09833 1.15922
 O555 O 0.97872 0.92613 1.10657
 O556 O 0.97886 0.90158 1.13166
 C557 C 0.97139 0.91888 1.12378
 C558 C 0.95349 0.93039 1.13421
 C559 C 0.94556 0.92346 1.15375
 H560 H 0.95301 0.90995 1.16174
 O561 O 1.10492 1.02515 1.07552
 O562 O 1.12967 1.02595 1.09999
 C563 C 1.12203 1.03297 1.08281
 C564 C 1.13273 1.05083 1.07148
 C565 C 1.15240 1.05885 1.07843
 H566 H 1.16009 1.05159 1.09192
 O567 O 0.89264 0.98120 1.07471
 O568 O 0.86733 0.98167 1.09882
 C569 C 0.87519 0.97401 1.08199
 C570 C 0.86417 0.95625 1.07105
 C571 C 0.84392 0.94954 1.07769
 H572 H 0.83615 0.95773 1.09066
 O573 O 1.07365 1.11167 1.01943
 O574 O 1.09825 1.13694 1.01888
 C575 C 1.08101 1.12935 1.02631
 C576 C 1.06961 1.14068 1.04354
 C577 C 1.07641 1.16094 1.05077
 H578 H 1.08970 1.16889 1.04316
 O579 O 0.92335 0.89349 1.02261
 O580 O 0.89885 0.86813 1.02310
 C581 C 0.91596 0.87612 1.03027
 C582 C 0.92719 0.86550 1.04804
 C583 C 0.92036 0.84544 1.05590
 H584 H 0.90724 0.83721 1.04843
 O585 O 1.07612 0.98316 1.10480
 O586 O 1.10080 0.98389 1.12935
 C587 C 1.08364 0.97616 1.12201
 C588 C 1.07280 0.95833 1.13322
 C589 C 1.08118 0.95033 1.15209
 H590 H 1.09479 0.95820 1.15906
 O591 O 0.92110 1.02393 1.10294
 O592 O 0.89591 1.02419 1.12716
 C593 C 0.91330 1.03148 1.11983
 C594 C 0.92426 1.04923 1.13085
 C595 C 0.91644 1.05681 1.15013
 H596 H 0.90288 1.04899 1.15739
 O597 O 0.97663 1.11031 1.07468
 O598 O 0.97586 1.13567 1.09892
 C599 C 0.96895 1.12783 1.08185
 C600 C 0.95149 1.13884 1.07040
 C601 C 0.94304 1.15853 1.07765
 H602 H 0.94952 1.16580 1.09166
 O603 O 1.02042 0.89633 1.07801
 O604 O 1.02061 0.87150 1.10285
 C605 C 1.02776 0.87885 1.08558
 C606 C 1.04505 0.86720 1.07438
 C607 C 1.05182 0.84678 1.08129
 H608 H 1.04414 0.83944 1.09475
 O609 O 1.10615 0.92483 1.02288
 O610 O 1.13092 0.89945 1.02358
 C611 C 1.12329 0.91714 1.03044
 C612 C 1.13410 0.92850 1.04783
 C613 C 1.15271 0.91982 1.05672
 H614 H 1.15977 0.90535 1.05009
 O615 O 0.89324 1.07959 1.01844
 O616 O 0.86822 1.10475 1.01789
 C617 C 0.87576 1.08727 1.02530
 C618 C 0.86433 1.07604 1.04238
 C619 C 0.84443 1.08365 1.04931
 H620 H 0.83701 1.09728 1.04148
 Cu621 Cu 0.99958 0.91362 1.08998
 Cu622 Cu 0.99985 0.88396 1.11991
 Cu623 Cu 0.99757 1.09339 1.08686
 Cu624 Cu 0.99675 1.12375 1.11604
 Cu625 Cu 0.91132 0.91003 1.00145
 Cu626 Cu 0.88183 0.87970 1.00190
 Cu627 Cu 1.08964 0.91225 1.00228
 Cu628 Cu 1.11944 0.88185 1.00300
 Cu629 Cu 0.91032 1.09166 0.99793
 Cu630 Cu 0.88029 1.12190 0.99728
 Cu631 Cu 1.08585 1.09393 0.99937
 Cu632 Cu 1.11553 1.12408 0.99856
 Cu633 Cu 0.90933 1.00255 1.08643
 Cu634 Cu 0.87903 1.00295 1.11550
 Cu635 Cu 1.08830 1.00406 1.08788
 Cu636 Cu 1.11790 1.00496 1.11734
 C637 C 1.05493 0.94826 1.12447
 H638 H 1.04854 0.95420 1.10977
 C639 C 1.07246 0.93206 1.16189
 C640 C 0.94197 1.05937 1.12171
 H641 H 0.94787 1.05380 1.10666
 C642 C 0.92589 1.07446 1.16017
 C643 C 0.87368 1.05826 1.05253
 H644 H 0.88921 1.05254 1.04744
 C645 C 0.83401 1.07391 1.06634
 C646 C 1.12514 0.94729 1.05654
 H647 H 1.11056 0.95385 1.04998
 C648 C 1.16214 0.92938 1.07434
 C649 C 1.05548 0.87683 1.05724
 H650 H 1.05054 0.89274 1.05204
 C651 C 1.06882 0.83599 1.07136
 C652 C 0.94242 1.12906 1.05270
 H653 H 0.94852 1.11364 1.04731
 C654 C 0.92576 1.16847 1.06737
 C655 C 0.94331 0.94765 1.12387
 H656 H 0.94911 0.95289 1.10867
 C657 C 0.92750 0.93341 1.16270
 C658 C 1.05363 1.06045 1.12245
 H659 H 1.04890 1.05524 1.10694
 C660 C 1.06639 1.07451 1.16234
 C661 C 0.94439 0.87589 1.05778
 H662 H 0.94957 0.89146 1.05202
 C663 C 0.93049 0.83587 1.07330
 C664 C 1.05233 1.13062 1.05358
 H665 H 1.04722 1.11486 1.04835
 C666 C 1.06606 1.17104 1.06778
 C667 C 0.87427 0.94524 1.05452
 H668 H 0.89002 0.95019 1.04951
 C669 C 0.83383 0.93193 1.06817
 C670 C 1.12268 1.06077 1.05427
 H671 H 1.10738 1.05490 1.04901
 C672 C 1.16188 1.07669 1.06851
 O673 O 1.07647 0.52244 0.60377
 O674 O 1.10116 0.52221 0.62832
 C675 C 1.08393 0.52980 0.62079
 C676 C 1.07276 0.54772 0.63163
 C677 C 1.07977 0.55486 0.65128
 H678 H 1.09311 0.54683 0.65879
 O679 O 0.92176 0.48406 0.60490
 O680 O 0.89685 0.48512 0.62938
 C681 C 0.91406 0.47718 0.62208
 C682 C 0.92486 0.45937 0.63338
 C683 C 0.91677 0.45198 0.65258
 H684 H 0.90312 0.46000 0.65962
 O685 O 1.02229 0.60985 0.57390
 O686 O 1.02253 0.63557 0.59775
 C687 C 1.02990 0.62735 0.58095
 C688 C 1.04799 0.63774 0.56984
 C689 C 1.05703 0.65690 0.57748
 H690 H 1.05035 0.66457 0.59129
 O691 O 0.97592 0.39660 0.57758
 O692 O 0.97579 0.37169 0.60234
 C693 C 0.96846 0.37928 0.58527
 C694 C 0.95071 0.36814 0.57463
 C695 C 0.94315 0.34842 0.58239
 H696 H 0.95075 0.34103 0.59588
 O697 O 1.10645 0.57672 0.51820
 O698 O 1.13200 0.60099 0.51717
 C699 C 1.12405 0.58394 0.52495
 C700 C 1.13497 0.57297 0.54261
 C701 C 1.15430 0.58102 0.55020
 H702 H 1.16189 0.59433 0.54214
 O703 O 0.89132 0.42679 0.52169
 O704 O 0.86560 0.40269 0.52208
 C705 C 0.87364 0.42009 0.52889
 C706 C 0.86261 0.43227 0.54575
 C707 C 0.84232 0.42595 0.55265
 H708 H 0.83457 0.41240 0.54521
 O709 O 0.97994 0.58163 0.60299
 O710 O 0.98017 0.60722 0.62699
 C711 C 0.97267 0.58968 0.61991
 C712 C 0.95500 0.57879 0.63118
 C713 C 0.94805 0.58633 0.65083
 H714 H 0.95591 0.60000 0.65793
 O715 O 1.01841 0.42556 0.60535
 O716 O 1.01807 0.40068 0.63013
 C717 C 1.02571 0.41790 0.62238
 C718 C 1.04377 0.42860 0.63297
 C719 C 1.05172 0.42018 0.65183
 H720 H 1.04378 0.40666 0.65921
 O721 O 1.10531 0.47956 0.57562
 O722 O 1.13025 0.47941 0.59992
 C723 C 1.12254 0.47192 0.58303
 C724 C 1.13327 0.45368 0.57226
 C725 C 1.15234 0.44492 0.58019
 H726 H 1.15960 0.45197 0.59395
 O727 O 0.89323 0.52613 0.57545
 O728 O 0.86830 0.52733 0.59991
 C729 C 0.87596 0.53401 0.58262
 C730 C 0.86497 0.55140 0.57091
 C731 C 0.84525 0.55955 0.57787
 H732 H 0.83786 0.55279 0.59177
 O733 O 0.92402 0.60920 0.51803
 O734 O 0.89955 0.63490 0.51766
 C735 C 0.91674 0.62698 0.52497
 C736 C 0.92796 0.63833 0.54212
 C737 C 0.91999 0.65804 0.54968
 H738 H 0.90622 0.66541 0.54228
 O739 O 1.07387 0.39365 0.52150
 O740 O 1.09833 0.36795 0.52224
 C741 C 1.08100 0.37610 0.52907
 C742 C 1.06935 0.36528 0.54632
 C743 C 1.07634 0.34517 0.55376
 H744 H 1.09002 0.33740 0.54653
 O745 O 0.92229 0.52620 0.60426
 O746 O 0.89752 0.52733 0.62888
 C747 C 0.91499 0.53412 0.62123
 C748 C 0.92676 0.55170 0.63184
 C749 C 0.92008 0.55949 0.65153
 H750 H 0.90671 0.55200 0.65942
 O751 O 1.07646 0.48035 0.60471
 O752 O 1.10127 0.48000 0.62914
 C753 C 1.08387 0.47287 0.62180
 C754 C 1.07235 0.45528 0.63279
 C755 C 1.08018 0.44647 0.65167
 H756 H 1.09454 0.45288 0.65861
 O757 O 1.01753 0.39535 0.57736
 O758 O 1.01737 0.37040 0.60208
 C759 C 1.02463 0.37771 0.58485
 C760 C 1.04190 0.36598 0.57365
 C761 C 1.04922 0.34583 0.58094
 H762 H 1.04164 0.33833 0.59437
 O763 O 0.98057 0.61031 0.57343
 O764 O 0.98060 0.63606 0.59726
 C765 C 0.97327 0.62807 0.58040
 C766 C 0.95559 0.63905 0.56915
 C767 C 0.94730 0.65880 0.57647
 H768 H 0.95428 0.66645 0.59006
 O769 O 0.89383 0.58080 0.51828
 O770 O 0.86934 0.60648 0.51782
 C771 C 0.87656 0.58890 0.52528
 C772 C 0.86519 0.57815 0.54274
 C773 C 0.84542 0.58605 0.54985
 H774 H 0.83787 0.59944 0.54176
 O775 O 1.10420 0.42190 0.52100
 O776 O 1.12870 0.39624 0.52171
 C777 C 1.12138 0.41408 0.52844
 C778 C 1.13261 0.42541 0.54557
 C779 C 1.15169 0.41695 0.55369
 H780 H 1.15880 0.40273 0.54663
 O781 O 0.97675 0.42608 0.60637
 O782 O 0.97638 0.40126 0.63122
 C783 C 0.96937 0.41888 0.62360
 C784 C 0.95196 0.43085 0.63435
 C785 C 0.94367 0.42373 0.65371
 H786 H 0.95050 0.40971 0.66140
 O787 O 1.02153 0.58076 0.60313
 O788 O 1.02184 0.60632 0.62715
 C789 C 1.02885 0.58845 0.62009
 C790 C 1.04602 0.57662 0.63130
 C791 C 1.05343 0.58369 0.65093
 H792 H 1.04613 0.59760 0.65837
 O793 O 0.89224 0.48419 0.57657
 O794 O 0.86721 0.48532 0.60093
 C795 C 0.87465 0.47747 0.58399
 C796 C 0.86307 0.46009 0.57291
 C797 C 0.84273 0.45346 0.57964
 H798 H 0.83504 0.46159 0.59268
 O799 O 1.10610 0.52165 0.57535
 O800 O 1.13096 0.52170 0.59972
 C801 C 1.12348 0.52894 0.58257
 C802 C 1.13469 0.54639 0.57105
 C803 C 1.15396 0.55492 0.57859
 H804 H 1.16094 0.54846 0.59281
 O805 O 0.91951 0.39612 0.52282
 O806 O 0.89395 0.37187 0.52362
 C807 C 0.91147 0.37911 0.53060
 C808 C 0.92253 0.36806 0.54818
 C809 C 0.91498 0.34843 0.55642
 H810 H 0.90113 0.34084 0.54958
 O811 O 1.07796 0.60708 0.51824
 O812 O 1.10348 0.63138 0.51746
 C813 C 1.08608 0.62441 0.52510
 C814 C 1.07552 0.63618 0.54256
 C815 C 1.08431 0.65530 0.55044
 H816 H 1.09835 0.66204 0.54304
 Cu817 Cu 1.08862 0.50103 0.58743
 Cu818 Cu 1.11841 0.50085 0.61672
 Cu819 Cu 0.90988 0.50505 0.58786
 Cu820 Cu 0.88001 0.50640 0.61728
 Cu821 Cu 1.00109 0.59311 0.58597
 Cu822 Cu 1.00129 0.62391 0.61464
 Cu823 Cu 0.99715 0.41340 0.58920
 Cu824 Cu 0.99688 0.38352 0.61894
 C825 C 1.05570 0.55852 0.62190
 H826 H 1.05036 0.55319 0.60663
 C827 C 1.07023 0.57277 0.66106
 C828 C 0.94256 0.44884 0.62447
 H829 H 0.94862 0.45426 0.60943
 C830 C 0.92596 0.43417 0.66280
 C831 C 1.05726 0.62765 0.55226
 H832 H 1.05061 0.61272 0.54647
 C833 C 1.07528 0.66573 0.56794
 C834 C 0.94048 0.37768 0.55736
 H835 H 0.94619 0.39299 0.55141
 C836 C 0.92534 0.33845 0.57344
 C837 C 1.12541 0.55549 0.55298
 H838 H 1.11035 0.54939 0.54733
 C839 C 1.16380 0.57237 0.56831
 C840 C 0.87275 0.44950 0.55582
 H841 H 0.88852 0.45426 0.55072
 C842 C 0.83218 0.43645 0.56949
 C843 C 0.94436 0.56134 0.62191
 H844 H 0.94946 0.55563 0.60663
 C845 C 0.93066 0.57677 0.66118
 C846 C 1.05404 0.44628 0.62367
 H847 H 1.04812 0.45264 0.60894
 C848 C 1.07001 0.42877 0.66118
 C849 C 1.12364 0.44392 0.55481
 H850 H 1.10873 0.45031 0.54885
 C851 C 1.16159 0.42647 0.57108
 C852 C 0.87470 0.56067 0.55322
 H853 H 0.89009 0.55469 0.54799
 C854 C 0.83534 0.57687 0.56744
 C855 C 0.94590 0.62904 0.55183
 H856 H 0.95191 0.61364 0.54630
 C857 C 0.92940 0.66829 0.56690
 C858 C 1.05196 0.37547 0.55619
 H859 H 1.04668 0.39116 0.55068
 C860 C 1.06642 0.33532 0.57102
 O861 O 1.07435 0.47550 0.39451
 O862 O 1.09908 0.47442 0.36986
 C863 C 1.08175 0.46745 0.37766
 C864 C 1.07037 0.44934 0.36751
 C865 C 1.07754 0.44069 0.34832
 H866 H 1.09127 0.44765 0.34055
 O867 O 0.92401 0.52272 0.39348
 O868 O 0.89943 0.52253 0.36883
 C869 C 0.91675 0.52982 0.37618
 C870 C 0.92829 0.54718 0.36494
 C871 C 0.92139 0.55470 0.34522
 H872 H 0.90807 0.54697 0.33760
 O873 O 0.98028 0.60827 0.42158
 O874 O 0.98060 0.63330 0.39693
 C875 C 0.97314 0.62586 0.41403
 C876 C 0.95559 0.63734 0.42501
 C877 C 0.94771 0.65717 0.41742
 H878 H 0.95486 0.66455 0.40370
 O879 O 1.01825 0.38946 0.42684
 O880 O 1.01774 0.36384 0.40288
 C881 C 1.02543 0.37176 0.41959
 C882 C 1.04349 0.36089 0.43032
 C883 C 1.05249 0.34173 0.42230
 H884 H 1.04569 0.33430 0.40850
 O885 O 1.10397 0.42124 0.47996
 O886 O 1.12859 0.39569 0.48074
 C887 C 1.12123 0.41312 0.47301
 C888 C 1.13236 0.42364 0.45524
 C889 C 1.15168 0.41522 0.44754
 H890 H 1.15913 0.40169 0.45549
 O891 O 0.89428 0.58016 0.47724
 O892 O 0.86983 0.60588 0.47687
 C893 C 0.87715 0.58814 0.46986
 C894 C 0.86605 0.57698 0.45253
 C895 C 0.84652 0.58485 0.44488
 H896 H 0.83898 0.59858 0.45242
 O897 O 1.02176 0.57778 0.39343
 O898 O 1.02254 0.60282 0.36880
 C899 C 1.02939 0.58511 0.37637
 C900 C 1.04672 0.57306 0.36560
 C901 C 1.05585 0.58101 0.34695
 H902 H 1.04994 0.59593 0.34017
 O903 O 0.97722 0.41999 0.39822
 O904 O 0.97659 0.39454 0.37408
 C905 C 0.97000 0.41258 0.38112
 C906 C 0.95373 0.42505 0.36935
 C907 C 0.94791 0.41880 0.34902
 H908 H 0.95540 0.40480 0.34190
 O909 O 1.10384 0.51772 0.42242
 O910 O 1.12877 0.51669 0.39795
 C911 C 1.12130 0.52457 0.41488
 C912 C 1.13277 0.54221 0.42564
 C913 C 1.15270 0.54907 0.41817
 H914 H 1.15986 0.54114 0.40473
 O915 O 0.89471 0.48173 0.42372
 O916 O 0.87022 0.48140 0.39899
 C917 C 0.87749 0.47432 0.41631
 C918 C 0.86609 0.45681 0.42745
 C919 C 0.84724 0.44858 0.41899
 H920 H 0.84053 0.45585 0.40499
 O921 O 1.07764 0.60696 0.47731
 O922 O 1.10302 0.63143 0.47654
 C923 C 1.08536 0.62430 0.46989
 C924 C 1.07384 0.63595 0.45305
 C925 C 1.08023 0.65663 0.44653
 H926 H 1.09332 0.66454 0.45438
 O927 O 0.91998 0.39468 0.48194
 O928 O 0.89445 0.37039 0.48265
 C929 C 0.91206 0.37713 0.47536
 C930 C 0.92312 0.36481 0.45861
 C931 C 0.91504 0.34498 0.45172
 H932 H 0.90123 0.33813 0.45945
 O933 O 0.92382 0.48053 0.39495
 O934 O 0.89945 0.48036 0.37008
 C935 C 0.91653 0.47283 0.37799
 C936 C 0.92777 0.45459 0.36769
 C937 C 0.92212 0.44805 0.34738
 H938 H 0.91001 0.45693 0.33883
 O939 O 1.07505 0.51783 0.39348
 O940 O 1.09988 0.51677 0.36892
 C941 C 1.08281 0.52487 0.37636
 C942 C 1.07250 0.54331 0.36549
 C943 C 1.08121 0.55136 0.34677
 H944 H 1.09457 0.54305 0.33952
 O945 O 0.97649 0.39052 0.42723
 O946 O 0.97579 0.36489 0.40331
 C947 C 0.96871 0.37309 0.42023
 C948 C 0.95083 0.36273 0.43162
 C949 C 0.94250 0.34288 0.42491
 H950 H 0.94958 0.33470 0.41157
 O951 O 1.02176 0.60742 0.42206
 O952 O 1.02215 0.63263 0.39758
 C953 C 1.02912 0.62494 0.41475
 C954 C 1.04621 0.63623 0.42615
 C955 C 1.05271 0.65689 0.41991
 H956 H 1.04487 0.66478 0.40683
 O957 O 0.89199 0.42554 0.48062
 O958 O 0.86638 0.40133 0.48093
 C959 C 0.87466 0.41831 0.47326
 C960 C 0.86451 0.42941 0.45516
 C961 C 0.84561 0.42139 0.44631
 H962 H 0.83797 0.40737 0.45309
 O963 O 1.10559 0.57589 0.47712
 O964 O 1.13109 0.60021 0.47612
 C965 C 1.12297 0.58279 0.46942
 C966 C 1.13358 0.57069 0.45220
 C967 C 1.15351 0.57728 0.44445
 H968 H 1.16157 0.59078 0.45165
 O969 O 1.01854 0.41867 0.39785
 O970 O 1.01790 0.39313 0.37380
 C971 C 1.02548 0.41067 0.38079
 C972 C 1.04287 0.42158 0.36921
 C973 C 1.05013 0.41333 0.34998
 H974 H 1.04223 0.39954 0.34315
 O975 O 0.98030 0.57844 0.39330
 O976 O 0.98092 0.60331 0.36850
 C977 C 0.97336 0.58597 0.37607
 C978 C 0.95600 0.57469 0.36501
 C979 C 0.94884 0.58209 0.34545
 H980 H 0.95634 0.59600 0.33832
 O981 O 0.89447 0.52380 0.42210
 O982 O 0.86979 0.52356 0.39756
 C983 C 0.87720 0.53119 0.41451
 C984 C 0.86603 0.54918 0.42535
 C985 C 0.84648 0.55729 0.41789
 H986 H 0.83918 0.55007 0.40424
 O987 O 1.10396 0.47568 0.42278
 O988 O 1.12876 0.47464 0.39818
 C989 C 1.12122 0.46784 0.41547
 C990 C 1.13228 0.45028 0.42695
 C991 C 1.15152 0.44152 0.41933
 H992 H 1.15854 0.44794 0.40510
 O993 O 1.07497 0.39161 0.48063
 O994 O 1.09962 0.36610 0.48147
 C995 C 1.08242 0.37374 0.47400
 C996 C 1.07141 0.36207 0.45694
 C997 C 1.08009 0.34289 0.44881
 H998 H 1.09426 0.33598 0.45587
 O999 O 0.92399 0.60900 0.47703
 O1000 O 0.89955 0.63474 0.47676
 C1001 C 0.91677 0.62664 0.46968
 C1002 C 0.92809 0.63757 0.45228
 C1003 C 0.92046 0.65730 0.44448
 H1004 H 0.90686 0.66504 0.45190
 Cu1005 Cu 1.08676 0.49672 0.41070
 Cu1006 Cu 1.11656 0.49555 0.38121
 Cu1007 Cu 0.91174 0.50231 0.41099
 Cu1008 Cu 0.88224 0.50191 0.38141
 Cu1009 Cu 1.08936 0.58922 0.49774
 Cu1010 Cu 1.11999 0.61840 0.49669
 Cu1011 Cu 1.08682 0.40970 0.50068
 Cu1012 Cu 1.11628 0.37895 0.50167
 Cu1013 Cu 0.91145 0.59217 0.49769
 Cu1014 Cu 0.88213 0.62309 0.49725
 Cu1015 Cu 0.90824 0.41321 0.50172
 Cu1016 Cu 0.87748 0.38419 0.50239
 Cu1017 Cu 1.00099 0.59048 0.41007
 Cu1018 Cu 1.00164 0.62053 0.38045
 Cu1019 Cu 0.99764 0.40711 0.41504
 Cu1020 Cu 0.99686 0.37646 0.38617
 C1021 C 1.05294 0.43973 0.37774
 H1022 H 1.04754 0.44601 0.39271
 C1023 C 1.06752 0.42263 0.33946
 C1024 C 0.94577 0.55713 0.37453
 H1025 H 0.95104 0.55161 0.38980
 C1026 C 0.93161 0.57219 0.33533
 C1027 C 0.94578 0.62779 0.44258
 H1028 H 0.95152 0.61236 0.44834
 C1029 C 0.93003 0.66714 0.42702
 C1030 C 1.05299 0.37078 0.44775
 H1031 H 1.04643 0.38576 0.45378
 C1032 C 1.07093 0.33270 0.43137
 C1033 C 1.12295 0.44133 0.44500
 H1034 H 1.10791 0.44773 0.45071
 C1035 C 1.16133 0.42393 0.42950
 C1036 C 0.87554 0.55904 0.44278
 H1037 H 0.89075 0.55309 0.44844
 C1038 C 0.83661 0.57518 0.42754
 C1039 C 1.05509 0.55412 0.37465
 H1040 H 1.04849 0.54815 0.38927
 C1041 C 1.07323 0.57034 0.33752
 C1042 C 0.94373 0.44310 0.37848
 H1043 H 0.94801 0.44789 0.39425
 C1044 C 0.93221 0.43025 0.33788
 C1045 C 1.12342 0.55300 0.44279
 H1046 H 1.10792 0.54800 0.44846
 C1047 C 1.16318 0.56657 0.42745
 C1048 C 0.87455 0.44725 0.44566
 H1049 H 0.88932 0.45329 0.45206
 C1050 C 0.83706 0.43078 0.42808
 C1051 C 1.05669 0.62601 0.44288
 H1052 H 1.05188 0.60995 0.44761
 C1053 C 1.06962 0.66727 0.43005
 C1054 C 0.94114 0.37341 0.44862
 H1055 H 0.94723 0.38887 0.45366
 C1056 C 0.92455 0.33391 0.43485
 O1057 O 0.57899 1.01704 0.60273
 O1058 O 0.60380 1.01654 0.62718
 C1059 C 0.58669 1.02438 0.61967
 C1060 C 0.57599 1.04252 0.63053
 C1061 C 0.58378 1.04982 0.64982
 H1062 H 0.59705 1.04150 0.65716
 O1063 O 0.42206 0.98281 0.60546
 O1064 O 0.39709 0.98426 0.62986
 C1065 C 0.41416 0.97600 0.62260
 C1066 C 0.42457 0.95790 0.63389
 C1067 C 0.41611 0.95038 0.65293
 H1068 H 0.40246 0.95850 0.65986
 O1069 O 0.52601 1.10577 0.57413
 O1070 O 0.52722 1.13115 0.59829
 C1071 C 0.53410 1.12301 0.58127
 C1072 C 0.55207 1.13327 0.56992
 C1073 C 0.56091 1.15271 0.57712
 H1074 H 0.55423 1.16062 0.59081
 O1075 O 0.47537 0.89383 0.57916
 O1076 O 0.47483 0.86885 0.60383
 C1077 C 0.46767 0.87656 0.58675
 C1078 C 0.44983 0.86578 0.57580
 C1079 C 0.44092 0.84660 0.58371
 H1080 H 0.44743 0.83926 0.59775
 O1081 O 0.61013 1.07199 0.51785
 O1082 O 0.63569 1.09626 0.51765
 C1083 C 0.62763 1.07902 0.52498
 C1084 C 0.63824 1.06739 0.54245
 C1085 C 0.65769 1.07476 0.55056
 H1086 H 0.66556 1.08839 0.54331
 O1087 O 0.39292 0.92592 0.52192
 O1088 O 0.36720 0.90182 0.52228
 C1089 C 0.37522 0.91924 0.52907
 C1090 C 0.36406 0.93156 0.54577
 C1091 C 0.34369 0.92535 0.55248
 H1092 H 0.33592 0.91180 0.54506
 O1093 O 0.48306 1.07848 0.60318
 O1094 O 0.48423 1.10382 0.62739
 C1095 C 0.47608 1.08665 0.62015
 C1096 C 0.45791 1.07648 0.63126
 C1097 C 0.45049 1.08502 0.65033
 H1098 H 0.45871 1.09847 0.65742
 O1099 O 0.51800 0.92226 0.60705
 O1100 O 0.51748 0.89752 0.63196
 C1101 C 0.52530 0.91461 0.62411
 C1102 C 0.54347 0.92540 0.63447
 C1103 C 0.55060 0.91869 0.65437
 H1104 H 0.54223 0.90603 0.66269
 O1105 O 0.60729 0.97330 0.57526
 O1106 O 0.63215 0.97290 0.59964
 C1107 C 0.62443 0.96549 0.58276
 C1108 C 0.63511 0.94727 0.57195
 C1109 C 0.65472 0.93906 0.57909
 H1110 H 0.66234 0.94640 0.59250
 O1111 O 0.39449 1.02588 0.57625
 O1112 O 0.36949 1.02735 0.60063
 C1113 C 0.37744 1.03420 0.58354
 C1114 C 0.36725 1.05250 0.57235
 C1115 C 0.34838 1.06202 0.58005
 H1116 H 0.34085 1.05553 0.59400
 O1117 O 0.42797 1.10962 0.51963
 O1118 O 0.40444 1.13620 0.51913
 C1119 C 0.42138 1.12775 0.52641
 C1120 C 0.43327 1.13875 0.54333
 C1121 C 0.42691 1.15925 0.55051
 H1122 H 0.41381 1.16757 0.54290
 O1123 O 0.57393 0.88981 0.52150
 O1124 O 0.59734 0.86314 0.52209
 C1125 C 0.58044 0.87203 0.52914
 C1126 C 0.56866 0.86194 0.54682
 C1127 C 0.57572 0.84221 0.55533
 H1128 H 0.58944 0.83405 0.54859
 O1129 O 0.42401 1.02482 0.60451
 O1130 O 0.39918 1.02641 0.62903
 C1131 C 0.41683 1.03283 0.62145
 C1132 C 0.42892 1.05021 0.63200
 C1133 C 0.42178 1.05899 0.65113
 H1134 H 0.40758 1.05267 0.65859
 O1135 O 0.57755 0.97507 0.60367
 O1136 O 0.60234 0.97468 0.62812
 C1137 C 0.58469 0.96796 0.62100
 C1138 C 0.57252 0.95149 0.63282
 C1139 C 0.57929 0.94471 0.65275
 H1140 H 0.59336 0.95181 0.65965
 O1141 O 0.51693 0.89358 0.57768
 O1142 O 0.51652 0.86864 0.60241
 C1143 C 0.52387 0.87591 0.58516
 C1144 C 0.54111 0.86395 0.57412
 C1145 C 0.54845 0.84425 0.58226
 H1146 H 0.54081 0.83737 0.59598
 O1147 O 0.48446 1.10770 0.57417
 O1148 O 0.48562 1.13315 0.59828
 C1149 C 0.47797 1.12568 0.58136
 C1150 C 0.46095 1.13769 0.57020
 C1151 C 0.45429 1.15809 0.57725
 H1152 H 0.46195 1.16522 0.59075
 O1153 O 0.39744 1.08165 0.52032
 O1154 O 0.37382 1.10815 0.51984
 C1155 C 0.38049 1.09036 0.52736
 C1156 C 0.36883 1.08001 0.54488
 C1157 C 0.34996 1.08926 0.55275
 H1158 H 0.34332 1.10348 0.54525
 O1159 O 0.60549 0.91660 0.52099
 O1160 O 0.62899 0.88999 0.52148
 C1161 C 0.62241 0.90808 0.52828
 C1162 C 0.63413 0.91912 0.54524
 C1163 C 0.65378 0.91111 0.55252
 H1164 H 0.66098 0.89721 0.54496
 O1165 O 0.47630 0.92417 0.60713
 O1166 O 0.47566 0.89931 0.63191
 C1167 C 0.46878 0.91699 0.62429
 C1168 C 0.45134 0.92905 0.63495
 C1169 C 0.44269 0.92181 0.65411
 H1170 H 0.44925 0.90761 0.66171
 O1171 O 0.52467 1.07642 0.60313
 O1172 O 0.52588 1.10169 0.62741
 C1173 C 0.53235 1.08375 0.62008
 C1174 C 0.54942 1.07152 0.63094
 C1175 C 0.55747 1.07860 0.65031
 H1176 H 0.55074 1.09280 0.65778
 O1177 O 0.39336 0.98375 0.57640
 O1178 O 0.36822 0.98508 0.60064
 C1179 C 0.37571 0.97715 0.58373
 C1180 C 0.36421 0.95971 0.57265
 C1181 C 0.34386 0.95309 0.57929
 H1182 H 0.33606 0.96123 0.59226
 O1183 O 0.60802 1.01543 0.57380
 O1184 O 0.63284 1.01499 0.59821
 C1185 C 0.62552 1.02237 0.58105
 C1186 C 0.63715 1.03965 0.56979
 C1187 C 0.65657 1.04726 0.57763
 H1188 H 0.66330 1.04003 0.59164
 O1189 O 0.42074 0.89477 0.52279
 O1190 O 0.39506 0.87064 0.52318
 C1191 C 0.41252 0.87773 0.53035
 C1192 C 0.42297 0.86643 0.54810
 C1193 C 0.41435 0.84727 0.55617
 H1194 H 0.40067 0.84012 0.54860
 O1195 O 0.58184 1.10255 0.51801
 O1196 O 0.60732 1.12691 0.51758
 C1197 C 0.58988 1.11987 0.52501
 C1198 C 0.57926 1.13163 0.54238
 C1199 C 0.58784 1.15101 0.54981
 H1200 H 0.60167 1.15788 0.54213
 Cu1201 Cu 0.59051 0.99518 0.58637
 Cu1202 Cu 0.62030 0.99472 0.61572
 Cu1203 Cu 0.41094 1.00417 0.58820
 Cu1204 Cu 0.38099 1.00590 0.61749
 Cu1205 Cu 0.50447 1.08955 0.58624
 Cu1206 Cu 0.50585 1.11999 0.61529
 Cu1207 Cu 0.49663 0.91099 0.59035
 Cu1208 Cu 0.49611 0.88108 0.62000
 C1209 C 0.55868 1.05333 0.62129
 H1210 H 0.55283 1.04796 0.60621
 C1211 C 0.57474 1.06787 0.65974
 C1212 C 0.44227 0.94725 0.62513
 H1213 H 0.44862 0.95277 0.61024
 C1214 C 0.42495 0.93234 0.66310
 C1215 C 0.56126 1.12297 0.55241
 H1216 H 0.55478 1.10784 0.54695
 C1217 C 0.57889 1.16160 0.56720
 C1218 C 0.44082 0.87543 0.55789
 H1219 H 0.44734 0.89038 0.55190
 C1220 C 0.42307 0.83729 0.57403
 C1221 C 0.62822 1.04967 0.55206
 H1222 H 0.61304 1.04412 0.54616
 C1223 C 0.66692 1.06483 0.56821
 C1224 C 0.37408 0.94892 0.55576
 H1225 H 0.38991 0.95363 0.55076
 C1226 C 0.33344 0.93600 0.56916
 C1227 C 0.44713 1.05896 0.62231
 H1228 H 0.45257 1.05253 0.60742
 C1229 C 0.43243 1.07647 0.66033
 C1230 C 0.55445 0.94192 0.62394
 H1231 H 0.54928 0.94694 0.60847
 C1232 C 0.56843 0.92839 0.66368
 C1233 C 0.62509 0.93732 0.55491
 H1234 H 0.60983 0.94339 0.54954
 C1235 C 0.66424 0.92100 0.56945
 C1236 C 0.37721 1.06151 0.55464
 H1237 H 0.39194 1.05450 0.54883
 C1238 C 0.33968 1.08048 0.57039
 C1239 C 0.45047 1.12824 0.55313
 H1240 H 0.45530 1.11234 0.54786
 C1241 C 0.43731 1.16904 0.56751
 C1242 C 0.55120 0.87263 0.55625
 H1243 H 0.54588 0.88804 0.55008
 C1244 C 0.56582 0.83341 0.57314
 O1245 O 0.57898 0.97252 0.39575
 O1246 O 0.60360 0.97100 0.37100
 C1247 C 0.58608 0.96449 0.37876
 C1248 C 0.57402 0.94715 0.36817
 C1249 C 0.58138 0.93837 0.34914
 H1250 H 0.59582 0.94453 0.34200
 O1251 O 0.42351 1.02145 0.39548
 O1252 O 0.39857 1.02226 0.37118
 C1253 C 0.41621 1.02891 0.37834
 C1254 C 0.42816 1.04590 0.36705
 C1255 C 0.42087 1.05406 0.34775
 H1256 H 0.40660 1.04752 0.34073
 O1257 O 0.48382 1.10448 0.42285
 O1258 O 0.48478 1.12929 0.39800
 C1259 C 0.47735 1.12232 0.41529
 C1260 C 0.46068 1.13479 0.42650
 C1261 C 0.45440 1.15530 0.41932
 H1262 H 0.46210 1.16226 0.40567
 O1263 O 0.51830 0.88977 0.42496
 O1264 O 0.51750 0.86430 0.40087
 C1265 C 0.52510 0.87188 0.41777
 C1266 C 0.54252 0.86027 0.42884
 C1267 C 0.55065 0.84060 0.42104
 H1268 H 0.54372 0.83341 0.40719
 O1269 O 0.60525 0.91652 0.48011
 O1270 O 0.62885 0.89001 0.48061
 C1271 C 0.62230 0.90791 0.47319
 C1272 C 0.63428 0.91869 0.45605
 C1273 C 0.65428 0.91089 0.44945
 H1274 H 0.66147 0.89728 0.45750
 O1275 O 0.39756 1.08064 0.47940
 O1276 O 0.37388 1.10708 0.47891
 C1277 C 0.38057 1.08898 0.47213
 C1278 C 0.36882 1.07782 0.45523
 C1279 C 0.34924 1.08602 0.44809
 H1280 H 0.34219 1.09987 0.45585
 O1281 O 0.52383 1.07226 0.39444
 O1282 O 0.52465 1.09685 0.36938
 C1283 C 0.53119 1.07908 0.37709
 C1284 C 0.54774 1.06641 0.36594
 C1285 C 0.55339 1.07161 0.34526
 H1286 H 0.54534 1.08481 0.33733
 O1287 O 0.47756 0.92072 0.39608
 O1288 O 0.47659 0.89534 0.37190
 C1289 C 0.46982 0.91319 0.37922
 C1290 C 0.45226 0.92498 0.36851
 C1291 C 0.44344 0.91701 0.34980
 H1292 H 0.44994 0.90249 0.34274
 O1293 O 0.60969 1.01449 0.42271
 O1294 O 0.63424 1.01339 0.39788
 C1295 C 0.62700 1.02141 0.41482
 C1296 C 0.63828 1.03943 0.42521
 C1297 C 0.65739 1.04777 0.41689
 H1298 H 0.66445 1.04058 0.40301
 O1299 O 0.39322 0.98101 0.42512
 O1300 O 0.36821 0.98160 0.40090
 C1301 C 0.37572 0.97404 0.41790
 C1302 C 0.36453 0.95636 0.42897
 C1303 C 0.34565 0.94771 0.42075
 H1304 H 0.33879 0.95452 0.40661
 O1305 O 0.58180 1.10253 0.47704
 O1306 O 0.60711 1.12707 0.47661
 C1307 C 0.58957 1.11985 0.46966
 C1308 C 0.57823 1.13122 0.45247
 C1309 C 0.58490 1.15160 0.44526
 H1310 H 0.59809 1.15961 0.45284
 O1311 O 0.42134 0.89427 0.48165
 O1312 O 0.39572 0.87007 0.48214
 C1313 C 0.41324 0.87696 0.47472
 C1314 C 0.42382 0.86521 0.45727
 C1315 C 0.41487 0.84622 0.44927
 H1316 H 0.40100 0.83937 0.45687
 O1317 O 0.42259 0.97946 0.39658
 O1318 O 0.39767 0.98015 0.37226
 C1319 C 0.41479 0.97216 0.37967
 C1320 C 0.42534 0.95376 0.36888
 C1321 C 0.41684 0.94555 0.35021
 H1322 H 0.40315 0.95340 0.34315
 O1323 O 0.57959 1.01440 0.39505
 O1324 O 0.60388 1.01304 0.36997
 C1325 C 0.58675 1.02094 0.37752
 C1326 C 0.57507 1.03813 0.36610
 C1327 C 0.58056 1.04361 0.34537
 H1328 H 0.59314 1.03480 0.33737
 O1329 O 0.47672 0.89168 0.42537
 O1330 O 0.47580 0.86622 0.40128
 C1331 C 0.46878 0.87438 0.41825
 C1332 C 0.45080 0.86404 0.42950
 C1333 C 0.44143 0.84521 0.42158
 H1334 H 0.44769 0.83799 0.40736
 O1335 O 0.52528 1.10258 0.42237
 O1336 O 0.52614 1.12727 0.39741
 C1337 C 0.53309 1.11972 0.41463
 C1338 C 0.55057 1.13090 0.42558
 C1339 C 0.55741 1.15117 0.41861
 H1340 H 0.54970 1.15862 0.40522
 O1341 O 0.39271 0.92464 0.48098
 O1342 O 0.36715 0.90037 0.48148
 C1343 C 0.37520 0.91746 0.47393
 C1344 C 0.36443 0.92864 0.45631
 C1345 C 0.34556 0.92027 0.44788
 H1346 H 0.33829 0.90624 0.45503
 O1347 O 0.61014 1.07196 0.47686
 O1348 O 0.63556 1.09638 0.47659
 C1349 C 0.62759 1.07908 0.46950
 C1350 C 0.63838 1.06758 0.45206
 C1351 C 0.65740 1.07561 0.44358
 H1352 H 0.66477 1.08961 0.45060
 O1353 O 0.51934 0.91923 0.39615
 O1354 O 0.51842 0.89387 0.37196
 C1355 C 0.52645 0.91108 0.37922
 C1356 C 0.54474 0.92124 0.36831
 C1357 C 0.55235 0.91275 0.34927
 H1358 H 0.54407 0.89945 0.34198
 O1359 O 0.48225 1.07481 0.39435
 O1360 O 0.48321 1.09958 0.36947
 C1361 C 0.47519 1.08258 0.37724
 C1362 C 0.45706 1.07213 0.36659
 C1363 C 0.44957 1.08007 0.34732
 H1364 H 0.45779 1.09328 0.33970
 O1365 O 0.39478 1.02320 0.42473
 O1366 O 0.36969 1.02393 0.40058
 C1367 C 0.37767 1.03127 0.41742
 C1368 C 0.36737 1.04972 0.42838
 C1369 C 0.34790 1.05838 0.42126
 H1370 H 0.34018 1.05129 0.40777
 O1371 O 0.60811 0.97239 0.42442
 O1372 O 0.63293 0.97102 0.39986
 C1373 C 0.62521 0.96427 0.41713
 C1374 C 0.63576 0.94640 0.42869
 C1375 C 0.65572 0.93839 0.42231
 H1376 H 0.66374 0.94564 0.40899
 O1377 O 0.57454 0.88870 0.48040
 O1378 O 0.59803 0.86210 0.48095
 C1379 C 0.58124 0.87067 0.47349
 C1380 C 0.56989 0.85986 0.45611
 C1381 C 0.57772 0.84030 0.44809
 H1382 H 0.59138 0.83260 0.45535
 O1383 O 0.42809 1.10859 0.47873
 O1384 O 0.40453 1.13516 0.47822
 C1385 C 0.42149 1.12641 0.47123
 C1386 C 0.43337 1.13676 0.45386
 C1387 C 0.42732 1.15724 0.44648
 H1388 H 0.41446 1.16594 0.45416
 Cu1389 Cu 0.59172 0.99360 0.41200
 Cu1390 Cu 0.62118 0.99197 0.38222
 Cu1391 Cu 0.41098 1.00126 0.41293
 Cu1392 Cu 0.38100 1.00206 0.38382
 Cu1393 Cu 0.59342 1.08483 0.49744
 Cu1394 Cu 0.62400 1.11408 0.49708
 Cu1395 Cu 0.58746 0.90557 0.50070
 Cu1396 Cu 0.61557 0.87356 0.50131
 Cu1397 Cu 0.41513 1.09247 0.49958
 Cu1398 Cu 0.38678 1.12430 0.49895
 Cu1399 Cu 0.40954 0.91229 0.50180
 Cu1400 Cu 0.37875 0.88327 0.50236
 Cu1401 Cu 0.50371 1.08602 0.41099
 Cu1402 Cu 0.50485 1.11571 0.38104
 Cu1403 Cu 0.49806 0.90790 0.41302
 Cu1404 Cu 0.49698 0.87741 0.38406
 C1405 C 0.55558 0.93858 0.37754
 H1406 H 0.54999 0.94501 0.39237
 C1407 C 0.57070 0.92112 0.33963
 C1408 C 0.44638 1.05491 0.37622
 H1409 H 0.45191 1.04893 0.39124
 C1410 C 0.43145 1.07122 0.33782
 C1411 C 0.45020 1.12576 0.44391
 H1412 H 0.45475 1.10981 0.44934
 C1413 C 0.43771 1.16662 0.42919
 C1414 C 0.55218 0.86965 0.44650
 H1415 H 0.54631 0.88496 0.45240
 C1416 C 0.56840 0.83067 0.43049
 C1417 C 0.62529 0.93657 0.44570
 H1418 H 0.60976 0.94250 0.45053
 C1419 C 0.66518 0.92070 0.43264
 C1420 C 0.37761 1.05951 0.44545
 H1421 H 0.39282 1.05324 0.45077
 C1422 C 0.33867 1.07655 0.43104
 C1423 C 0.55850 1.04950 0.37616
 H1424 H 0.55433 1.04557 0.39223
 C1425 C 0.56965 1.06023 0.33480
 C1426 C 0.44318 0.94347 0.37781
 H1427 H 0.44960 0.94950 0.39241
 C1428 C 0.42563 0.92712 0.34064
 C1429 C 0.62906 1.04938 0.44290
 H1430 H 0.61419 1.04333 0.44920
 C1431 C 0.66693 1.06602 0.42592
 C1432 C 0.37367 0.94683 0.44687
 H1433 H 0.38844 0.95313 0.45306
 C1434 C 0.33618 0.92953 0.43000
 C1435 C 0.56091 1.12115 0.44263
 H1436 H 0.55580 1.10537 0.44790
 C1437 C 0.57439 1.16178 0.42840
 C1438 C 0.44196 0.87383 0.44744
 H1439 H 0.44877 0.88864 0.45334
 C1440 C 0.42338 0.83621 0.43129
 O1441 O 0.47688 0.42059 0.89416
 O1442 O 0.47635 0.39583 0.86937
 C1443 C 0.46918 0.41329 0.87721
 C1444 C 0.45134 0.42501 0.86697
 C1445 C 0.44254 0.41747 0.84810
 H1446 H 0.44917 0.40323 0.84065
 O1447 O 0.52051 0.57636 0.89520
 O1448 O 0.52077 0.60166 0.87080
 C1449 C 0.52767 0.58381 0.87799
 C1450 C 0.54437 0.57161 0.86655
 C1451 C 0.55058 0.57750 0.84611
 H1452 H 0.54268 0.59086 0.83830
 O1453 O 0.39357 0.47972 0.92587
 O1454 O 0.36804 0.48047 0.90218
 C1455 C 0.37595 0.47277 0.91896
 C1456 C 0.36497 0.45506 0.93019
 C1457 C 0.34469 0.44827 0.92382
 H1458 H 0.33656 0.45675 0.91127
 O1459 O 0.60416 0.51738 0.92301
 O1460 O 0.62878 0.51734 0.89821
 C1461 C 0.62141 0.52468 0.91537
 C1462 C 0.63269 0.54235 0.92612
 C1463 C 0.65135 0.55087 0.91734
 H1464 H 0.65808 0.54369 0.90330
 O1465 O 0.42307 0.38963 0.97884
 O1466 O 0.39773 0.36513 0.97882
 C1467 C 0.41517 0.37237 0.97158
 C1468 C 0.42624 0.36105 0.95419
 C1469 C 0.41955 0.34064 0.94727
 H1470 H 0.40654 0.33259 0.95523
 O1471 O 0.57714 0.60357 0.97960
 O1472 O 0.60233 0.62824 0.97975
 C1473 C 0.58484 0.62112 0.97264
 C1474 C 0.57358 0.63295 0.95571
 C1475 C 0.58063 0.65329 0.94885
 H1476 H 0.59398 0.66090 0.95655
 O1477 O 0.42274 0.52098 0.89622
 O1478 O 0.39757 0.52164 0.87215
 C1479 C 0.41518 0.52850 0.87923
 C1480 C 0.42683 0.54576 0.86802
 C1481 C 0.42048 0.55267 0.84797
 H1482 H 0.40735 0.54475 0.84019
 O1483 O 0.57476 0.47591 0.89405
 O1484 O 0.59959 0.47576 0.86945
 C1485 C 0.58213 0.46872 0.87682
 C1486 C 0.57045 0.45180 0.86539
 C1487 C 0.57691 0.44551 0.84521
 H1488 H 0.59041 0.45333 0.83784
 O1489 O 0.51892 0.39053 0.92175
 O1490 O 0.51873 0.36557 0.89711
 C1491 C 0.52610 0.37296 0.91420
 C1492 C 0.54335 0.36129 0.92538
 C1493 C 0.54988 0.34055 0.91902
 H1494 H 0.54190 0.33271 0.90608
 O1495 O 0.47978 0.60631 0.92478
 O1496 O 0.47974 0.63172 0.90050
 C1497 C 0.47259 0.62404 0.91762
 C1498 C 0.45532 0.63543 0.92907
 C1499 C 0.44663 0.65476 0.92122
 H1500 H 0.45302 0.66181 0.90697
 O1501 O 0.39593 0.57813 0.98149
 O1502 O 0.37137 0.60372 0.98235
 C1503 C 0.37867 0.58629 0.97461
 C1504 C 0.36741 0.57584 0.95693
 C1505 C 0.34883 0.58521 0.94858
 H1506 H 0.34207 0.59949 0.95585
 O1507 O 0.60501 0.41775 0.97759
 O1508 O 0.62982 0.39240 0.97676
 C1509 C 0.62234 0.41025 0.97015
 C1510 C 0.63354 0.42236 0.95339
 C1511 C 0.65439 0.41678 0.94710
 H1512 H 0.66276 0.40375 0.95498
 O1513 O 0.47914 0.57681 0.89613
 O1514 O 0.47931 0.60204 0.87167
 C1515 C 0.47195 0.58454 0.87909
 C1516 C 0.45464 0.57319 0.86802
 C1517 C 0.44815 0.57986 0.84799
 H1518 H 0.45607 0.59329 0.84043
 O1519 O 0.51841 0.42009 0.89305
 O1520 O 0.51810 0.39541 0.86816
 C1521 C 0.52544 0.41277 0.87574
 C1522 C 0.54270 0.42440 0.86474
 C1523 C 0.54939 0.41822 0.84454
 H1524 H 0.54129 0.40527 0.83649
 O1525 O 0.60384 0.47532 0.92291
 O1526 O 0.62875 0.47539 0.89840
 C1527 C 0.62127 0.46806 0.91551
 C1528 C 0.63284 0.45075 0.92677
 C1529 C 0.65361 0.44504 0.92074
 H1530 H 0.66118 0.45352 0.90786
 O1531 O 0.39405 0.52195 0.92552
 O1532 O 0.36877 0.52277 0.90158
 C1533 C 0.37683 0.52998 0.91841
 C1534 C 0.36649 0.54835 0.92944
 C1535 C 0.34793 0.55804 0.92130
 H1536 H 0.34083 0.55167 0.90715
 O1537 O 0.42558 0.60689 0.98176
 O1538 O 0.40103 0.63249 0.98264
 C1539 C 0.41808 0.62462 0.97493
 C1540 C 0.42875 0.63571 0.95723
 C1541 C 0.42029 0.65499 0.94914
 H1542 H 0.40663 0.66247 0.95668
 O1543 O 0.57504 0.38916 0.97731
 O1544 O 0.59965 0.36361 0.97649
 C1545 C 0.58228 0.37165 0.96975
 C1546 C 0.57062 0.36068 0.95272
 C1547 C 0.57680 0.33996 0.94623
 H1548 H 0.58996 0.33186 0.95397
 O1549 O 0.57494 0.51789 0.89447
 O1550 O 0.59955 0.51758 0.86965
 C1551 C 0.58232 0.52510 0.87727
 C1552 C 0.57095 0.54268 0.86623
 C1553 C 0.57692 0.54869 0.84583
 H1554 H 0.58978 0.54014 0.83800
 O1555 O 0.42184 0.47890 0.89622
 O1556 O 0.39641 0.47956 0.87241
 C1557 C 0.41375 0.47169 0.87939
 C1558 C 0.42426 0.45358 0.86814
 C1559 C 0.41574 0.44581 0.84929
 H1560 H 0.40200 0.45378 0.84244
 O1561 O 0.52123 0.60512 0.92460
 O1562 O 0.52139 0.63065 0.90044
 C1563 C 0.52862 0.62266 0.91739
 C1564 C 0.54604 0.63362 0.92868
 C1565 C 0.55321 0.65393 0.92211
 H1566 H 0.54570 0.66180 0.90883
 O1567 O 0.47752 0.39053 0.92234
 O1568 O 0.47721 0.36557 0.89772
 C1569 C 0.47027 0.37302 0.91502
 C1570 C 0.45333 0.36147 0.92656
 C1571 C 0.44652 0.34112 0.91991
 H1572 H 0.45400 0.33368 0.90636
 O1573 O 0.60603 0.57350 0.97878
 O1574 O 0.63128 0.59810 0.97877
 C1575 C 0.62335 0.58092 0.97138
 C1576 C 0.63383 0.56987 0.95349
 C1577 C 0.65255 0.57822 0.94441
 H1578 H 0.65990 0.59246 0.95098
 O1579 O 0.39493 0.42054 0.97957
 O1580 O 0.36945 0.39617 0.97954
 C1581 C 0.37724 0.41371 0.97267
 C1582 C 0.36574 0.42609 0.95629
 C1583 C 0.34547 0.41955 0.94967
 H1584 H 0.33813 0.40552 0.95676
 Cu1585 Cu 0.49799 0.40795 0.91026
 Cu1586 Cu 0.49757 0.37812 0.88056
 Cu1587 Cu 0.50018 0.58862 0.91261
 Cu1588 Cu 0.50033 0.61912 0.88343
 Cu1589 Cu 0.41056 0.50035 0.91336
 Cu1590 Cu 0.38011 0.50117 0.88472
 Cu1591 Cu 0.58692 0.49659 0.91110
 Cu1592 Cu 0.61670 0.49645 0.88148
 C1593 C 0.44217 0.44318 0.87675
 H1594 H 0.44863 0.44890 0.89145
 C1595 C 0.42466 0.42772 0.83922
 C1596 C 0.55453 0.55406 0.87636
 H1597 H 0.55002 0.54959 0.89220
 C1598 C 0.56677 0.56597 0.83558
 C1599 C 0.37528 0.44400 0.94660
 H1600 H 0.39106 0.44894 0.95141
 C1601 C 0.33484 0.43051 0.93346
 C1602 C 0.62415 0.55181 0.94431
 H1603 H 0.60952 0.54552 0.95093
 C1604 C 0.66124 0.56891 0.92619
 C1605 C 0.44327 0.37119 0.94384
 H1606 H 0.44833 0.38703 0.94888
 C1607 C 0.42975 0.33049 0.93019
 C1608 C 0.55616 0.62338 0.94564
 H1609 H 0.55083 0.60758 0.95062
 C1610 C 0.57043 0.66394 0.93211
 C1611 C 0.44405 0.55600 0.87781
 H1612 H 0.44885 0.55095 0.89338
 C1613 C 0.43116 0.56965 0.83779
 C1614 C 0.55320 0.44134 0.87492
 H1615 H 0.54833 0.44599 0.89060
 C1616 C 0.56643 0.42882 0.83462
 C1617 C 0.55373 0.37113 0.94236
 H1618 H 0.54901 0.38722 0.94721
 C1619 C 0.56649 0.32973 0.92950
 C1620 C 0.44640 0.62616 0.94722
 H1621 H 0.45276 0.61106 0.95316
 C1622 C 0.42901 0.66452 0.93108
 C1623 C 0.37600 0.55730 0.94736
 H1624 H 0.39051 0.55018 0.95350
 C1625 C 0.33907 0.57657 0.93066
 C1626 C 0.62302 0.43950 0.94324
 H1627 H 0.60689 0.44376 0.94780
 C1628 C 0.66463 0.42826 0.93090
 O1629 O 0.52107 0.41603 1.10423
 O1630 O 0.52098 0.39043 1.12831
 C1631 C 0.52848 0.40793 1.12105
 C1632 C 0.54642 0.41864 1.13189
 C1633 C 0.55435 0.41030 1.15083
 H1634 H 0.54657 0.39662 1.15808
 O1635 O 0.48152 0.57339 1.10672
 O1636 O 0.48199 0.59809 1.13157
 C1637 C 0.47444 0.58082 1.12396
 C1638 C 0.45690 0.56949 1.13491
 C1639 C 0.44973 0.57647 1.15466
 H1640 H 0.45741 0.59000 1.16219
 O1641 O 0.39614 0.51893 1.07698
 O1642 O 0.37102 0.51885 1.10127
 C1643 C 0.37876 0.52638 1.08435
 C1644 C 0.36771 0.54425 1.07335
 C1645 C 0.34748 0.55134 1.08003
 H1646 H 0.33953 0.54313 1.09285
 O1647 O 0.60618 0.47242 1.07496
 O1648 O 0.63169 0.47182 1.09868
 C1649 C 0.62373 0.46486 1.08170
 C1650 C 0.63461 0.44738 1.06994
 C1651 C 0.65450 0.43938 1.07651
 H1652 H 0.66221 0.44639 1.09005
 O1653 O 0.57571 0.38791 1.01826
 O1654 O 0.60023 0.36227 1.01745
 C1655 C 0.58305 0.37005 1.02498
 C1656 C 0.57165 0.35847 1.04201
 C1657 C 0.57820 0.33773 1.04828
 H1658 H 0.59156 0.33003 1.04042
 O1659 O 0.42581 0.60623 1.02282
 O1660 O 0.40128 0.63185 1.02370
 C1661 C 0.41859 0.62374 1.03048
 C1662 C 0.43017 0.63441 1.04783
 C1663 C 0.42367 0.65477 1.05528
 H1664 H 0.41069 0.66321 1.04760
 O1665 O 0.42484 0.47571 1.10492
 O1666 O 0.39974 0.47566 1.12923
 C1667 C 0.41704 0.46809 1.12177
 C1668 C 0.42775 0.44979 1.13247
 C1669 C 0.41946 0.44170 1.15132
 H1670 H 0.40598 0.44974 1.15863
 O1671 O 0.57749 0.51398 1.10505
 O1672 O 0.60276 0.51322 1.12901
 C1673 C 0.58534 0.52093 1.12206
 C1674 C 0.57453 0.53869 1.13347
 C1675 C 0.58238 0.54577 1.15283
 H1676 H 0.59565 0.53730 1.16000
 O1677 O 0.47876 0.38764 1.07573
 O1678 O 0.47862 0.36195 1.09972
 C1679 C 0.47130 0.37005 1.08288
 C1680 C 0.45356 0.35934 1.07174
 C1681 C 0.44499 0.33984 1.07922
 H1682 H 0.45173 0.33220 1.09301
 O1683 O 0.52324 0.60249 1.07793
 O1684 O 0.52393 0.62730 1.10267
 C1685 C 0.53088 0.61977 1.08540
 C1686 C 0.54842 0.63079 1.07413
 C1687 C 0.55727 0.64987 1.08211
 H1688 H 0.55089 0.65692 1.09637
 O1689 O 0.39535 0.41990 1.02038
 O1690 O 0.36975 0.39565 1.02031
 C1691 C 0.37779 0.41288 1.02754
 C1692 C 0.36675 0.42470 1.04462
 C1693 C 0.34642 0.41829 1.05132
 H1694 H 0.33883 0.40468 1.04385
 O1695 O 0.60562 0.57203 1.01984
 O1696 O 0.63091 0.59659 1.01985
 C1697 C 0.62303 0.57921 1.02704
 C1698 C 0.63384 0.56787 1.04457
 C1699 C 0.65240 0.57663 1.05316
 H1700 H 0.65943 0.59086 1.04612
 O1701 O 0.52306 0.57268 1.10651
 O1702 O 0.52365 0.59736 1.13138
 C1703 C 0.53058 0.57978 1.12364
 C1704 C 0.54790 0.56764 1.13426
 C1705 C 0.55609 0.57460 1.15362
 H1706 H 0.54941 0.58879 1.16113
 O1707 O 0.47941 0.41702 1.10454
 O1708 O 0.47912 0.39148 1.12867
 C1709 C 0.47200 0.40928 1.12151
 C1710 C 0.45448 0.42088 1.13249
 C1711 C 0.44578 0.41288 1.15134
 H1712 H 0.45227 0.39832 1.15833
 O1713 O 0.60609 0.51453 1.07571
 O1714 O 0.63145 0.51405 1.09958
 C1715 C 0.62349 0.52185 1.08285
 C1716 C 0.63415 0.54007 1.07196
 C1717 C 0.65276 0.54924 1.08032
 H1718 H 0.65976 0.54261 1.09447
 O1719 O 0.39570 0.47686 1.07623
 O1720 O 0.37050 0.47684 1.10045
 C1721 C 0.37815 0.46971 1.08330
 C1722 C 0.36680 0.45256 1.07172
 C1723 C 0.34633 0.44606 1.07802
 H1724 H 0.33840 0.45442 1.09078
 O1725 O 0.57753 0.60271 1.02061
 O1726 O 0.60282 0.62728 1.02069
 C1727 C 0.58550 0.61986 1.02806
 C1728 C 0.57501 0.63082 1.04599
 C1729 C 0.58361 0.64985 1.05420
 H1730 H 0.59726 0.65719 1.04664
 O1731 O 0.42363 0.38936 1.01986
 O1732 O 0.39812 0.36502 1.01986
 C1733 C 0.41563 0.37205 1.02703
 C1734 C 0.42641 0.36037 1.04433
 C1735 C 0.41809 0.34091 1.05200
 H1736 H 0.40438 0.33381 1.04444
 O1737 O 0.57777 0.47182 1.10457
 O1738 O 0.60313 0.47099 1.12843
 C1739 C 0.58562 0.46391 1.12129
 C1740 C 0.57447 0.44593 1.13208
 C1741 C 0.58223 0.43727 1.15105
 H1742 H 0.59633 0.44406 1.15817
 O1743 O 0.42491 0.51784 1.10607
 O1744 O 0.39990 0.51781 1.13048
 C1745 C 0.41737 0.52501 1.12325
 C1746 C 0.42887 0.54226 1.13457
 C1747 C 0.42185 0.54951 1.15432
 H1748 H 0.40832 0.54187 1.16182
 O1749 O 0.48171 0.60336 1.07838
 O1750 O 0.48228 0.62824 1.10306
 C1751 C 0.47479 0.62100 1.08598
 C1752 C 0.45758 0.63297 1.07500
 C1753 C 0.45076 0.65324 1.08229
 H1754 H 0.45831 0.66022 1.09593
 O1755 O 0.52026 0.38751 1.07462
 O1756 O 0.52025 0.36170 1.09849
 C1757 C 0.52737 0.36962 1.08143
 C1758 C 0.54443 0.35825 1.06959
 C1759 C 0.55111 0.33746 1.07553
 H1760 H 0.54308 0.32930 1.08832
 O1761 O 0.60499 0.41717 1.01843
 O1762 O 0.62965 0.39166 1.01764
 C1763 C 0.62235 0.40918 1.02519
 C1764 C 0.63386 0.42010 1.04234
 C1765 C 0.65375 0.41234 1.04909
 H1766 H 0.66116 0.39883 1.04107
 O1767 O 0.39650 0.57686 1.02242
 O1768 O 0.37183 0.60235 1.02327
 C1769 C 0.37924 0.58447 1.02987
 C1770 C 0.36793 0.57261 1.04668
 C1771 C 0.34772 0.57946 1.05355
 H1772 H 0.34020 0.59334 1.04625
 Cu1773 Cu 0.49986 0.40462 1.08742
 Cu1774 Cu 0.49978 0.37384 1.11624
 Cu1775 Cu 0.50235 0.58550 1.08992
 Cu1776 Cu 0.50300 0.61525 1.11966
 Cu1777 Cu 0.41186 0.40723 0.99960
 Cu1778 Cu 0.38122 0.37802 0.99961
 Cu1779 Cu 0.58772 0.40555 0.99796
 Cu1780 Cu 0.61729 0.37489 0.99699
 Cu1781 Cu 0.41344 0.58949 1.00209
 Cu1782 Cu 0.38393 0.62019 1.00315
 Cu1783 Cu 0.58904 0.58550 0.99961
 Cu1784 Cu 0.61941 0.61497 0.99978
 Cu1785 Cu 0.41292 0.49738 1.08863
 Cu1786 Cu 0.38279 0.49727 1.11782
 Cu1787 Cu 0.58934 0.49321 1.08770
 Cu1788 Cu 0.61981 0.49245 1.11631
 C1789 C 0.55646 0.43657 1.12277
 H1790 H 0.55058 0.44289 1.10801
 C1791 C 0.57229 0.41938 1.16051
 C1792 C 0.44651 0.55224 1.12512
 H1793 H 0.45182 0.54695 1.10976
 C1794 C 0.43224 0.56657 1.16452
 C1795 C 0.37770 0.55487 1.05653
 H1796 H 0.39342 0.54967 1.05148
 C1797 C 0.33735 0.56889 1.07018
 C1798 C 0.62453 0.43777 1.05271
 H1799 H 0.60904 0.44363 1.04776
 C1800 C 0.66416 0.42184 1.06619
 C1801 C 0.55465 0.36851 1.05267
 H1802 H 0.54973 0.38464 1.04813
 C1803 C 0.56800 0.32706 1.06498
 C1804 C 0.44730 0.62378 1.05767
 H1805 H 0.45226 0.60799 1.05217
 C1806 C 0.43388 0.66435 1.07251
 C1807 C 0.44541 0.43944 1.12329
 H1808 H 0.45168 0.44547 1.10856
 C1809 C 0.42813 0.42315 1.16076
 C1810 C 0.55714 0.54956 1.12443
 H1811 H 0.55121 0.54434 1.10934
 C1812 C 0.57341 0.56377 1.16297
 C1813 C 0.44426 0.36934 1.05417
 H1814 H 0.45053 0.38453 1.04852
 C1815 C 0.42716 0.33058 1.06950
 C1816 C 0.55729 0.62152 1.05594
 H1817 H 0.55081 0.60662 1.04989
 C1818 C 0.57496 0.65940 1.07231
 C1819 C 0.37677 0.44195 1.05482
 H1820 H 0.39262 0.44674 1.04998
 C1821 C 0.33601 0.42890 1.06793
 C1822 C 0.62488 0.54947 1.05397
 H1823 H 0.61030 0.54286 1.04767
 C1824 C 0.66176 0.56770 1.07115
 C1825 C 1.14487 1.11238 1.27375
 C1826 C 1.12335 1.11373 1.26737
 C1827 C 1.10849 1.12276 1.28171
 C1828 C 1.11521 1.13079 1.30121
 C1829 C 1.13674 1.12952 1.30737
 C1830 C 1.15134 1.12005 1.29325
 C1831 C 1.08691 1.12365 1.27660
 C1832 C 1.07963 1.11556 1.25765
 C1833 C 1.09378 1.10655 1.24272
 C1834 C 1.11609 1.10623 1.24740
 C1835 C 1.13041 1.09879 1.23184
 C1836 C 1.12326 1.09155 1.21254
 C1837 C 1.10157 1.09102 1.20802
 C1838 C 1.08644 1.09821 1.22309
 C1839 C 1.06458 1.09658 1.21786
 C1840 C 1.05820 1.08874 1.19835
 C1841 C 1.07327 1.08224 1.18333
 C1842 C 1.09496 1.08337 1.18838
 H1843 H 1.15721 1.10532 1.26415
 H1844 H 1.10331 1.13713 1.31194
 H1845 H 1.16821 1.11929 1.29669
 H1846 H 1.07544 1.13058 1.28747
 H1847 H 1.06275 1.11708 1.25499
 H1848 H 1.14744 1.09879 1.23384
 H1849 H 1.13490 1.08617 1.20104
 H1850 H 1.05195 1.10089 1.22857
 H1851 H 1.04131 1.08754 1.19511
 H1852 H 1.10683 1.07859 1.17686
 C1853 C 1.13048 0.65356 0.76103
 C1854 C 1.12438 0.63179 0.75821
 C1855 C 1.12930 0.61698 0.77454
 C1856 C 1.13934 0.62396 0.79300
 C1857 C 1.14459 0.64570 0.79571
 C1858 C 1.14031 0.66031 0.77946
 C1859 C 1.12397 0.59530 0.77250
 C1860 C 1.11384 0.58784 0.75462
 C1861 C 1.10842 0.60187 0.73794
 C1862 C 1.11363 0.62426 0.73984
 C1863 C 1.10776 0.63839 0.72339
 C1864 C 1.09758 0.63097 0.70555
 C1865 C 1.09279 0.60919 0.70324
 C1866 C 1.09802 0.59428 0.71938
 C1867 C 1.09280 0.57233 0.71608
 C1868 C 1.08335 0.56559 0.69744
 C1869 C 1.07859 0.58038 0.68147
 C1870 C 1.08306 0.60223 0.68463
 H1871 H 1.12793 0.66589 0.74937
 H1872 H 1.14253 0.61256 0.80555
 H1873 H 1.14461 0.67713 0.78100
 H1874 H 1.12768 0.58390 0.78492
 H1875 H 1.11037 0.57086 0.75448
 H1876 H 1.11071 0.65547 0.72378
 H1877 H 1.09351 0.64245 0.69332
 H1878 H 1.09602 0.55983 0.72740
 H1879 H 1.07984 0.54862 0.69542
 H1880 H 1.07963 0.61376 0.67225
 C1881 C 0.59346 1.11306 0.79217
 C1882 C 0.60612 1.10651 0.77483
 C1883 C 0.62860 1.10707 0.77721
 C1884 C 0.63777 1.11421 0.79598
 C1885 C 0.62497 1.12123 0.81266
 C1886 C 0.60279 1.12037 0.81067
 C1887 C 0.64190 1.10091 0.76074
 C1888 C 0.63352 1.09464 0.74163
 C1889 C 0.61130 1.09425 0.73817
 C1890 C 0.59734 1.09981 0.75518
 C1891 C 0.57511 1.09856 0.75194
 C1892 C 0.56675 1.09234 0.73276
 C1893 C 0.58010 1.08731 0.71593
 C1894 C 0.60256 1.08834 0.71829
 C1895 C 0.61534 1.08351 0.70052
 C1896 C 0.60618 1.07726 0.68163
 C1897 C 0.58405 1.07572 0.67961
 C1898 C 0.57106 1.08108 0.69674
 H1899 H 0.57630 1.11318 0.79191
 H1900 H 0.65497 1.11514 0.79730
 H1901 H 0.59258 1.12560 0.82346
 H1902 H 0.65908 1.10112 0.76256
 H1903 H 0.64504 1.09005 0.72989
 H1904 H 0.56359 1.10214 0.76401
 H1905 H 0.54958 1.09154 0.73107
 H1906 H 0.63246 1.08447 0.70055
 H1907 H 0.61653 1.07366 0.66843
 H1908 H 0.55388 1.07990 0.69527
 C1909 C 0.59174 0.61541 1.29330
 C1910 C 0.60431 0.60637 1.27706
 C1911 C 0.62660 0.60499 1.28037
 C1912 C 0.63569 0.61225 1.29919
 C1913 C 0.62309 0.62163 1.31511
 C1914 C 0.60094 0.62290 1.31179
 C1915 C 0.63988 0.59669 1.26474
 C1916 C 0.63165 0.59008 1.24565
 C1917 C 0.60960 0.59133 1.24140
 C1918 C 0.59561 0.59898 1.25760
 C1919 C 0.57343 0.59887 1.25383
 C1920 C 0.56518 0.59190 1.23484
 C1921 C 0.57861 0.58508 1.21868
 C1922 C 0.60103 0.58491 1.22158
 C1923 C 0.61393 0.57852 1.20439
 C1924 C 0.60489 0.57198 1.18550
 C1925 C 0.58273 0.57154 1.18296
 C1926 C 0.56968 0.57834 1.19959
 H1927 H 0.57470 0.61725 1.29221
 H1928 H 0.65288 0.61166 1.30069
 H1929 H 0.59030 0.62912 1.32377
 H1930 H 0.65694 0.59543 1.26721
 H1931 H 0.64310 0.58374 1.23462
 H1932 H 0.56185 0.60379 1.26539
 H1933 H 0.54803 0.59199 1.23275
 H1934 H 0.63108 0.57867 1.20481
 H1935 H 0.61539 0.56741 1.17271
 H1936 H 0.55251 0.57807 1.19779
 C1937 C 0.91052 0.89171 1.29682
 C1938 C 0.89762 0.89623 1.27911
 C1939 C 0.87526 0.89386 1.28147
 C1940 C 0.86644 0.88689 1.30058
 C1941 C 0.87952 0.88193 1.31769
 C1942 C 0.90157 0.88462 1.31568
 C1943 C 0.86174 0.89811 1.26467
 C1944 C 0.86983 0.90439 1.24535
 C1945 C 0.89197 0.90667 1.24195
 C1946 C 0.90610 0.90275 1.25918
 C1947 C 0.92822 0.90535 1.25585
 C1948 C 0.93631 0.91148 1.23645
 C1949 C 0.92281 0.91521 1.21950
 C1950 C 0.90045 0.91280 1.22192
 C1951 C 0.88753 0.91660 1.20408
 C1952 C 0.89644 0.92296 1.18500
 C1953 C 0.91847 0.92568 1.18286
 C1954 C 0.93160 0.92151 1.20013
 H1955 H 0.92760 0.89320 1.29666
 H1956 H 0.84936 0.88460 1.30190
 H1957 H 0.91200 0.88112 1.32878
 H1958 H 0.84462 0.89644 1.26642
 H1959 H 0.85813 0.90735 1.23336
 H1960 H 0.93987 0.90280 1.26797
 H1961 H 0.95341 0.91331 1.23470
 H1962 H 0.87048 0.91484 1.20421
 H1963 H 0.88598 0.92570 1.17175
 H1964 H 0.94868 0.92367 1.19860
 C1965 C 0.90403 0.39378 0.79654
 C1966 C 0.89185 0.39747 0.77818
 C1967 C 0.86953 0.39405 0.77949
 C1968 C 0.86019 0.38629 0.79808
 C1969 C 0.87272 0.38157 0.81563
 C1970 C 0.89459 0.38586 0.81483
 C1971 C 0.85667 0.39780 0.76209
 C1972 C 0.86541 0.40442 0.74315
 C1973 C 0.88760 0.40740 0.74071
 C1974 C 0.90104 0.40401 0.75856
 C1975 C 0.92325 0.40683 0.75607
 C1976 C 0.93207 0.41271 0.73691
 C1977 C 0.91924 0.41608 0.71940
 C1978 C 0.89681 0.41354 0.72099
 C1979 C 0.88457 0.41726 0.70269
 C1980 C 0.89418 0.42353 0.68391
 C1981 C 0.91627 0.42622 0.68256
 C1982 C 0.92877 0.42219 0.70029
 H1983 H 0.92094 0.39648 0.79729
 H1984 H 0.84325 0.38288 0.79852
 H1985 H 0.90454 0.38263 0.82835
 H1986 H 0.83959 0.39537 0.76305
 H1987 H 0.85421 0.40680 0.73060
 H1988 H 0.93443 0.40445 0.76865
 H1989 H 0.94921 0.41464 0.73580
 H1990 H 0.86752 0.41563 0.70224
 H1991 H 0.88424 0.42634 0.67030
 H1992 H 0.94588 0.42439 0.69935
 C1993 C 0.40171 0.88809 0.79559
 C1994 C 0.38966 0.89243 0.77728
 C1995 C 0.36729 0.88933 0.77844
 C1996 C 0.35774 0.88129 0.79684
 C1997 C 0.37012 0.87604 0.81438
 C1998 C 0.39207 0.87996 0.81370
 C1999 C 0.35456 0.89376 0.76107
 C2000 C 0.36348 0.90089 0.74237
 C2001 C 0.38571 0.90372 0.74012
 C2002 C 0.39903 0.89943 0.75788
 C2003 C 0.42130 0.90185 0.75552
 C2004 C 0.43029 0.90825 0.73659
 C2005 C 0.41758 0.91261 0.71920
 C2006 C 0.39509 0.91053 0.72067
 C2007 C 0.38298 0.91537 0.70252
 C2008 C 0.39278 0.92212 0.68398
 C2009 C 0.41495 0.92422 0.68270
 C2010 C 0.42729 0.91922 0.70033
 H2011 H 0.41865 0.89055 0.79648
 H2012 H 0.34074 0.87822 0.79719
 H2013 H 0.40193 0.87640 0.82721
 H2014 H 0.33745 0.89152 0.76189
 H2015 H 0.35238 0.90377 0.72982
 H2016 H 0.43240 0.89870 0.76800
 H2017 H 0.44747 0.90981 0.73557
 H2018 H 0.36587 0.91429 0.70204
 H2019 H 0.38291 0.92568 0.67047
 H2020 H 0.44446 0.92099 0.69949
 C2021 C 0.40297 0.37009 1.28982
 C2022 C 0.39150 0.37993 1.27327
 C2023 C 0.36922 0.38269 1.27602
 C2024 C 0.35914 0.37627 1.29470
 C2025 C 0.37063 0.36624 1.31100
 C2026 C 0.39273 0.36333 1.30815
 C2027 C 0.35693 0.39158 1.25997
 C2028 C 0.36613 0.39743 1.24101
 C2029 C 0.38822 0.39493 1.23737
 C2030 C 0.40125 0.38679 1.25403
 C2031 C 0.42357 0.38608 1.25098
 C2032 C 0.43284 0.39287 1.23228
 C2033 C 0.42030 0.40014 1.21566
 C2034 C 0.39778 0.40082 1.21778
 C2035 C 0.38574 0.40722 1.20008
 C2036 C 0.39569 0.41385 1.18162
 C2037 C 0.41796 0.41433 1.18000
 C2038 C 0.43019 0.40698 1.19696
 H2039 H 0.41986 0.36700 1.28902
 H2040 H 0.34198 0.37797 1.29581
 H2041 H 0.40251 0.35633 1.32039
 H2042 H 0.33990 0.39389 1.26202
 H2043 H 0.35545 0.40441 1.22964
 H2044 H 0.43448 0.38084 1.26299
 H2045 H 0.45005 0.39233 1.23080
 H2046 H 0.36858 0.40706 1.19983
 H2047 H 0.38584 0.41867 1.16848
 H2048 H 0.44744 0.40711 1.19581
 C2049 C 0.84270 1.12110 0.73410
 C2050 C 0.86451 1.12177 0.73951
 C2051 C 0.87841 1.13299 0.72578
 C2052 C 0.87047 1.14378 0.70794
 C2053 C 0.84868 1.14305 0.70270
 C2054 C 0.83505 1.13141 0.71614
 C2055 C 0.90025 1.13326 0.72982
 C2056 C 0.90869 1.12244 0.74704
 C2057 C 0.89551 1.11124 0.76135
 C2058 C 0.87298 1.11153 0.75790
 C2059 C 0.85963 1.10200 0.77319
 C2060 C 0.86795 1.09236 0.79109
 C2061 C 0.88989 1.09129 0.79433
 C2062 C 0.90404 1.10027 0.77931
 C2063 C 0.92618 1.09777 0.78292
 C2064 C 0.93377 1.08781 0.80112
 C2065 C 0.91970 1.07997 0.81645
 C2066 C 0.89772 1.08149 0.81271
 H2067 H 0.83105 1.11250 0.74326
 H2068 H 0.88163 1.15188 0.69763
 H2069 H 0.81804 1.13087 0.71346
 H2070 H 0.91101 1.14183 0.71943
 H2071 H 0.92568 1.12370 0.74903
 H2072 H 0.84251 1.10227 0.77215
 H2073 H 0.85703 1.08558 0.80253
 H2074 H 0.93809 1.10310 0.77189
 H2075 H 0.95084 1.08624 0.80318
 H2076 H 0.88659 1.07557 0.82440
 C2077 C 0.84945 0.61856 0.22925
 C2078 C 0.87099 0.62006 0.23538
 C2079 C 0.88524 0.63069 0.22155
 C2080 C 0.87788 0.63997 0.20269
 C2081 C 0.85646 0.63791 0.19652
 C2082 C 0.84244 0.62717 0.21027
 C2083 C 0.90688 0.63165 0.22639
 C2084 C 0.91483 0.62179 0.24436
 C2085 C 0.90129 0.61097 0.25862
 C2086 C 0.87889 0.61097 0.25453
 C2087 C 0.86510 0.60215 0.26984
 C2088 C 0.87290 0.59313 0.28823
 C2089 C 0.89474 0.59202 0.29197
 C2090 C 0.90932 0.60056 0.27710
 C2091 C 0.93134 0.59807 0.28128
 C2092 C 0.93842 0.58840 0.29981
 C2093 C 0.92391 0.58090 0.31491
 C2094 C 0.90205 0.58256 0.31069
 H2095 H 0.83758 0.61036 0.23848
 H2096 H 0.88926 0.64759 0.19227
 H2097 H 0.82562 0.62587 0.20682
 H2098 H 0.91790 0.63985 0.21598
 H2099 H 0.93172 0.62339 0.24691
 H2100 H 0.84801 0.60248 0.26838
 H2101 H 0.86167 0.58678 0.29961
 H2102 H 0.94353 0.60309 0.27040
 H2103 H 0.95542 0.58676 0.30232
 H2104 H 0.89062 0.57694 0.32223
 C2105 C 0.37957 1.08836 0.20745
 C2106 C 0.38609 1.10146 0.22445
 C2107 C 0.38488 1.12416 0.22171
 C2108 C 0.37732 1.13312 0.20288
 C2109 C 0.37082 1.11990 0.18633
 C2110 C 0.37206 1.09747 0.18881
 C2111 C 0.39111 1.13791 0.23778
 C2112 C 0.39860 1.12975 0.25666
 C2113 C 0.40013 1.10731 0.26033
 C2114 C 0.39372 1.09291 0.24398
 C2115 C 0.39508 1.07046 0.24773
 C2116 C 0.40249 1.06231 0.26668
 C2117 C 0.40888 1.07608 0.28269
 C2118 C 0.40784 1.09878 0.27981
 C2119 C 0.41462 1.11195 0.29664
 C2120 C 0.42214 1.10294 0.31528
 C2121 C 0.42320 1.08054 0.31795
 C2122 C 0.41642 1.06719 0.30160
 H2123 H 0.38006 1.07100 0.20795
 H2124 H 0.37613 1.15051 0.20126
 H2125 H 0.36737 1.08688 0.17615
 H2126 H 0.39020 1.15527 0.23576
 H2127 H 0.40302 1.14163 0.26810
 H2128 H 0.39048 1.05860 0.23633
 H2129 H 0.40323 1.04496 0.26879
 H2130 H 0.41439 1.12931 0.29602
 H2131 H 0.42697 1.11363 0.32781
 H2132 H 0.41735 1.04982 0.30347
 C2133 C 0.35291 0.61679 0.72912
 C2134 C 0.37473 0.61366 0.73400
 C2135 C 0.38996 0.61948 0.71850
 C2136 C 0.38345 0.62794 0.69906
 C2137 C 0.36179 0.63064 0.69451
 C2138 C 0.34665 0.62510 0.70974
 C2139 C 0.41164 0.61674 0.72240
 C2140 C 0.41871 0.60831 0.74134
 C2141 C 0.40428 0.60222 0.75733
 C2142 C 0.38191 0.60500 0.75362
 C2143 C 0.36749 0.59904 0.76966
 C2144 C 0.37454 0.59082 0.78867
 C2145 C 0.39621 0.58806 0.79256
 C2146 C 0.41145 0.59357 0.77697
 C2147 C 0.43326 0.59024 0.78182
 C2148 C 0.43949 0.58224 0.80136
 C2149 C 0.42433 0.57719 0.81674
 C2150 C 0.40269 0.57996 0.81213
 H2151 H 0.34018 0.61300 0.73984
 H2152 H 0.39526 0.63207 0.68727
 H2153 H 0.32980 0.62736 0.70671
 H2154 H 0.42335 0.62118 0.71062
 H2155 H 0.43573 0.60687 0.74292
 H2156 H 0.35047 0.60059 0.76814
 H2157 H 0.36283 0.58660 0.80052
 H2158 H 0.44598 0.59364 0.77096
 H2159 H 0.45633 0.57993 0.80443
 H2160 H 0.39084 0.57629 0.82402
 C2161 C 1.12345 0.90455 0.71062
 C2162 C 1.11637 0.89206 0.72792
 C2163 C 1.11707 0.86926 0.72585
 C2164 C 1.12468 0.85961 0.70733
 C2165 C 1.13206 0.87225 0.69064
 C2166 C 1.13119 0.89475 0.69240
 C2167 C 1.11047 0.85613 0.74236
 C2168 C 1.10349 0.86501 0.76114
 C2169 C 1.10275 0.88757 0.76422
 C2170 C 1.10892 0.90135 0.74721
 C2171 C 1.10743 0.92392 0.75006
 C2172 C 1.10032 0.93277 0.76883
 C2173 C 1.09457 0.91961 0.78564
 C2174 C 1.09586 0.89683 0.78370
 C2175 C 1.09024 0.88428 0.80145
 C2176 C 1.08304 0.89395 0.81990
 C2177 C 1.08125 0.91642 0.82149
 C2178 C 1.08735 0.92918 0.80438
 H2179 H 1.12355 0.92191 0.71068
 H2180 H 1.12554 0.84217 0.70618
 H2181 H 1.13664 0.90487 0.67960
 H2182 H 1.11084 0.83871 0.74081
 H2183 H 1.09862 0.85358 0.77292
 H2184 H 1.11148 0.93535 0.73798
 H2185 H 1.09935 0.95019 0.77020
 H2186 H 1.09127 0.86694 0.80174
 H2187 H 1.07889 0.88374 0.83310
 H2188 H 1.08600 0.94660 0.80548
 C2189 C 1.12217 0.40275 0.21052
 C2190 C 1.11258 0.39013 0.22641
 C2191 C 1.11198 0.36748 0.22333
 C2192 C 1.12066 0.35809 0.20509
 C2193 C 1.13101 0.37075 0.18982
 C2194 C 1.13121 0.39326 0.19277
 C2195 C 1.10321 0.35419 0.23874
 C2196 C 1.09570 0.36273 0.25750
 C2197 C 1.09638 0.38512 0.26156
 C2198 C 1.10410 0.39913 0.24539
 C2199 C 1.10308 0.42165 0.24877
 C2200 C 1.09547 0.43019 0.26748
 C2201 C 1.08890 0.41674 0.28378
 C2202 C 1.08941 0.39400 0.28118
 C2203 C 1.08329 0.38112 0.29852
 C2204 C 1.07646 0.39047 0.31729
 C2205 C 1.07543 0.41294 0.31955
 C2206 C 1.08182 0.42597 0.30271
 H2207 H 1.12344 0.42004 0.21146
 H2208 H 1.12061 0.34067 0.20369
 H2209 H 1.13797 0.40391 0.18107
 H2210 H 1.10247 0.33688 0.23643
 H2211 H 1.08916 0.35128 0.26846
 H2212 H 1.10778 0.43327 0.23708
 H2213 H 1.09496 0.44758 0.26930
 H2214 H 1.08397 0.36375 0.29830
 H2215 H 1.07221 0.37997 0.33023
 H2216 H 1.08105 0.44339 0.30425
 C2217 C 0.62823 0.89982 0.21176
 C2218 C 0.62037 0.88728 0.22873
 C2219 C 0.62098 0.86452 0.22653
 C2220 C 0.62898 0.85495 0.20816
 C2221 C 0.63649 0.86759 0.19150
 C2222 C 0.63614 0.89008 0.19354
 C2223 C 0.61361 0.85129 0.24264
 C2224 C 0.60547 0.86005 0.26101
 C2225 C 0.60436 0.88259 0.26409
 C2226 C 0.61196 0.89646 0.24769
 C2227 C 0.61084 0.91900 0.25081
 C2228 C 0.60262 0.92775 0.26920
 C2229 C 0.59516 0.91450 0.28528
 C2230 C 0.59588 0.89173 0.28303
 C2231 C 0.58805 0.87910 0.29990
 C2232 C 0.57992 0.88869 0.31804
 C2233 C 0.57923 0.91116 0.32012
 C2234 C 0.58693 0.92397 0.30365
 H2235 H 0.62846 0.91718 0.21195
 H2236 H 0.62956 0.83750 0.20693
 H2237 H 0.64172 0.90023 0.18083
 H2238 H 0.61408 0.83388 0.24103
 H2239 H 0.60015 0.84854 0.27251
 H2240 H 0.61620 0.93049 0.23929
 H2241 H 0.60211 0.94516 0.27083
 H2242 H 0.58800 0.86174 0.29975
 H2243 H 0.57441 0.87839 0.33067
 H2244 H 0.58630 0.94141 0.30504
 C2245 C 0.61605 0.35107 0.72607
 C2246 C 0.61297 0.37309 0.73131
 C2247 C 0.61997 0.38878 0.71661
 C2248 C 0.62975 0.38252 0.69771
 C2249 C 0.63267 0.36069 0.69288
 C2250 C 0.62570 0.34508 0.70719
 C2251 C 0.61720 0.41066 0.72079
 C2252 C 0.60771 0.41751 0.73932
 C2253 C 0.60060 0.40266 0.75461
 C2254 C 0.60330 0.38006 0.75057
 C2255 C 0.59642 0.36521 0.76598
 C2256 C 0.58751 0.37209 0.78478
 C2257 C 0.58492 0.39398 0.78903
 C2258 C 0.59116 0.40963 0.77397
 C2259 C 0.58784 0.43164 0.77909
 C2260 C 0.57943 0.43770 0.79851
 C2261 C 0.57390 0.42215 0.81349
 C2262 C 0.57638 0.40028 0.80849
 H2263 H 0.61122 0.33800 0.73612
 H2264 H 0.63485 0.39470 0.68655
 H2265 H 0.62794 0.32807 0.70385
 H2266 H 0.62250 0.42271 0.70959
 H2267 H 0.60640 0.43472 0.74119
 H2268 H 0.59786 0.34801 0.76416
 H2269 H 0.58270 0.36006 0.79620
 H2270 H 0.59162 0.44468 0.76856
 H2271 H 0.57728 0.45471 0.80185
 H2272 H 0.57227 0.38813 0.82006
 C2273 C 1.29457 1.09057 1.11948
 C2274 C 1.27760 1.10414 1.11286
 C2275 C 1.28053 1.12676 1.11454
 C2276 C 1.29953 1.13518 1.12266
 C2277 C 1.31598 1.12148 1.12942
 C2278 C 1.31332 1.09914 1.12762
 C2279 C 1.26442 1.14093 1.10833
 C2280 C 1.24524 1.13326 1.10066
 C2281 C 1.24131 1.11092 1.09885
 C2282 C 1.25784 1.09610 1.10484
 C2283 C 1.25404 1.07377 1.10268
 C2284 C 1.23478 1.06611 1.09517
 C2285 C 1.21844 1.08027 1.08953
 C2286 C 1.22139 1.10288 1.09125
 C2287 C 1.20414 1.11646 1.08539
 C2288 C 1.18503 1.10790 1.07809
 C2289 C 1.18230 1.08558 1.07634
 C2290 C 1.19911 1.07185 1.08215
 H2291 H 1.29390 1.07324 1.11876
 H2292 H 1.30131 1.15250 1.12422
 H2293 H 1.32590 1.08819 1.13249
 H2294 H 1.26662 1.15822 1.10951
 H2295 H 1.23380 1.14543 1.09625
 H2296 H 1.26566 1.06161 1.10666
 H2297 H 1.23264 1.04882 1.09383
 H2298 H 1.20472 1.13378 1.08636
 H2299 H 1.17218 1.11888 1.07405
 H2300 H 1.19723 1.05454 1.08069
 C2301 C 1.29150 0.59492 0.62746
 C2302 C 1.27606 0.60691 0.61622
 C2303 C 1.27951 0.62937 0.61383
 C2304 C 1.29777 0.63917 0.62220
 C2305 C 1.31267 0.62720 0.63400
 C2306 C 1.30925 0.60486 0.63619
 C2307 C 1.26445 0.64211 0.60348
 C2308 C 1.24567 0.63324 0.59604
 C2309 C 1.24129 0.61103 0.59834
 C2310 C 1.25715 0.59748 0.60775
 C2311 C 1.25362 0.57498 0.60828
 C2312 C 1.23502 0.56607 0.60045
 C2313 C 1.21895 0.57915 0.59220
 C2314 C 1.22169 0.60185 0.59127
 C2315 C 1.20450 0.61444 0.58363
 C2316 C 1.18583 0.60481 0.57656
 C2317 C 1.18352 0.58232 0.57674
 C2318 C 1.20012 0.56960 0.58482
 H2319 H 1.29016 0.57784 0.63027
 H2320 H 1.29947 0.65649 0.62063
 H2321 H 1.32062 0.59464 0.64427
 H2322 H 1.26705 0.65927 0.60138
 H2323 H 1.23502 0.64426 0.58817
 H2324 H 1.26515 0.56365 0.61430
 H2325 H 1.23310 0.54870 0.60109
 H2326 H 1.20473 0.63181 0.58329
 H2327 H 1.17299 0.61513 0.57109
 H2328 H 1.19853 0.55219 0.58510
 C2329 C 0.76330 1.15348 0.62509
 C2330 C 0.75970 1.13104 0.62356
 C2331 C 0.77456 1.11705 0.63343
 C2332 C 0.79195 1.12535 0.64460
 C2333 C 0.79548 1.14774 0.64591
 C2334 C 0.78077 1.16156 0.63593
 C2335 C 0.77216 1.09476 0.63195
 C2336 C 0.75542 1.08593 0.62075
 C2337 C 0.74010 1.09911 0.61069
 C2338 C 0.74203 1.12205 0.61248
 C2339 C 0.72608 1.13522 0.60337
 C2340 C 0.70891 1.12640 0.59284
 C2341 C 0.70699 1.10414 0.59066
 C2342 C 0.72267 1.09012 0.59923
 C2343 C 0.72014 1.06767 0.59598
 C2344 C 0.70239 1.05962 0.58550
 C2345 C 0.68661 1.07356 0.57777
 C2346 C 0.68921 1.09584 0.58016
 H2347 H 0.75304 1.16538 0.61797
 H2348 H 0.80333 1.11410 0.65130
 H2349 H 0.78215 1.17892 0.63704
 H2350 H 0.78345 1.08395 0.63948
 H2351 H 0.75478 1.06858 0.62062
 H2352 H 0.72611 1.15255 0.60438
 H2353 H 0.69696 1.13718 0.58634
 H2354 H 0.73157 1.05583 0.60124
 H2355 H 0.70099 1.04234 0.58346
 H2356 H 0.67701 1.10679 0.57439
 C2357 C 0.78954 0.59807 1.12674
 C2358 C 0.77111 0.60931 1.11983
 C2359 C 0.77110 0.63215 1.12146
 C2360 C 0.78868 0.64302 1.12987
 C2361 C 0.80651 0.63156 1.13705
 C2362 C 0.80684 0.60906 1.13522
 C2363 C 0.75346 0.64410 1.11496
 C2364 C 0.73557 0.63397 1.10708
 C2365 C 0.73452 0.61127 1.10536
 C2366 C 0.75269 0.59873 1.11159
 C2367 C 0.75180 0.57606 1.10940
 C2368 C 0.73387 0.56596 1.10145
 C2369 C 0.71601 0.57790 1.09547
 C2370 C 0.71596 0.60071 1.09746
 C2371 C 0.69724 0.61199 1.09147
 C2372 C 0.67977 0.60113 1.08331
 C2373 C 0.68015 0.57869 1.08088
 C2374 C 0.69821 0.56710 1.08730
 H2375 H 0.79112 0.58078 1.12605
 H2376 H 0.78822 0.66044 1.13143
 H2377 H 0.82058 0.59986 1.14045
 H2378 H 0.75343 0.66156 1.11606
 H2379 H 0.72280 0.64457 1.10237
 H2380 H 0.76479 0.56552 1.11359
 H2381 H 0.73401 0.54853 1.09997
 H2382 H 0.69543 0.62920 1.09287
 H2383 H 0.66578 0.61039 1.07890
 H2384 H 0.69859 0.54971 1.08548
 C2385 C 1.27841 0.85594 0.88495
 C2386 C 1.27175 0.87773 0.88612
 C2387 C 1.28541 0.89349 0.87729
 C2388 C 1.30468 0.88747 0.86744
 C2389 C 1.31137 0.86574 0.86677
 C2390 C 1.29772 0.85017 0.87559
 C2391 C 1.27995 0.91529 0.87857
 C2392 C 1.26139 0.92191 0.88868
 C2393 C 1.24722 0.90687 0.89775
 C2394 C 1.25218 0.88438 0.89591
 C2395 C 1.23728 0.86929 0.90369
 C2396 C 1.21828 0.87587 0.91299
 C2397 C 1.21344 0.89770 0.91533
 C2398 C 1.22799 0.91355 0.90815
 C2399 C 1.22262 0.93546 0.91172
 C2400 C 1.20319 0.94126 0.92089
 C2401 C 1.18840 0.92555 0.92694
 C2402 C 1.19387 0.90374 0.92453
 H2403 H 1.26924 0.84285 0.89136
 H2404 H 1.31496 0.90003 0.86140
 H2405 H 1.30148 0.83312 0.87475
 H2406 H 1.29025 0.92747 0.87179
 H2407 H 1.25840 0.93903 0.88873
 H2408 H 1.23954 0.85211 0.90243
 H2409 H 1.20724 0.86366 0.91842
 H2410 H 1.23307 0.94857 0.90772
 H2411 H 1.19963 0.95823 0.92313
 H2412 H 1.18258 0.89143 0.92916
 C2413 C 1.28883 0.40226 0.36770
 C2414 C 1.27304 0.39002 0.37816
 C2415 C 1.27651 0.36749 0.37987
 C2416 C 1.29526 0.35795 0.37208
 C2417 C 1.31115 0.37028 0.36209
 C2418 C 1.30738 0.39258 0.35980
 C2419 C 1.26124 0.35442 0.38934
 C2420 C 1.24245 0.36314 0.39718
 C2421 C 1.23819 0.38551 0.39608
 C2422 C 1.25394 0.39925 0.38684
 C2423 C 1.25021 0.42176 0.38690
 C2424 C 1.23172 0.43054 0.39546
 C2425 C 1.21600 0.41734 0.40400
 C2426 C 1.21883 0.39462 0.40422
 C2427 C 1.20203 0.38197 0.41246
 C2428 C 1.18358 0.39154 0.42054
 C2429 C 1.18110 0.41401 0.42078
 C2430 C 1.19740 0.42681 0.41236
 H2431 H 1.28739 0.41940 0.36525
 H2432 H 1.29690 0.34057 0.37314
 H2433 H 1.31914 0.40303 0.35272
 H2434 H 1.26384 0.33716 0.39073
 H2435 H 1.23175 0.35182 0.40442
 H2436 H 1.26151 0.43318 0.38077
 H2437 H 1.22967 0.44793 0.39529
 H2438 H 1.20237 0.36460 0.41262
 H2439 H 1.17101 0.38119 0.42634
 H2440 H 1.19571 0.44423 0.41248
 C2441 C 0.79885 0.91026 0.38210
 C2442 C 0.78232 0.89624 0.38865
 C2443 C 0.78607 0.87372 0.38680
 C2444 C 0.80547 0.86583 0.37875
 C2445 C 0.82159 0.87995 0.37231
 C2446 C 0.81806 0.90220 0.37408
 C2447 C 0.77042 0.85912 0.39290
 C2448 C 0.75096 0.86624 0.40072
 C2449 C 0.74626 0.88845 0.40282
 C2450 C 0.76226 0.90372 0.39681
 C2451 C 0.75764 0.92592 0.39912
 C2452 C 0.73810 0.93305 0.40677
 C2453 C 0.72229 0.91845 0.41243
 C2454 C 0.72607 0.89593 0.41065
 C2455 C 0.70935 0.88190 0.41668
 C2456 C 0.68984 0.88996 0.42394
 C2457 C 0.68620 0.91221 0.42549
 C2458 C 0.70260 0.92634 0.41980
 H2459 H 0.79754 0.92757 0.38289
 H2460 H 0.80788 0.84856 0.37715
 H2461 H 0.83033 0.91349 0.36944
 H2462 H 0.77323 0.84189 0.39156
 H2463 H 0.73991 0.85376 0.40500
 H2464 H 0.76882 0.93839 0.39514
 H2465 H 0.73531 0.95027 0.40817
 H2466 H 0.71065 0.86460 0.41585
 H2467 H 0.67736 0.87866 0.42797
 H2468 H 0.70007 0.94361 0.42122
 C2469 C 0.78028 0.35749 0.88346
 C2470 C 0.77290 0.37901 0.88503
 C2471 C 0.78637 0.39549 0.87722
 C2472 C 0.80617 0.39040 0.86793
 C2473 C 0.81353 0.36892 0.86684
 C2474 C 0.80007 0.35264 0.87465
 C2475 C 0.78018 0.41706 0.87896
 C2476 C 0.76105 0.42273 0.88854
 C2477 C 0.74704 0.40695 0.89657
 C2478 C 0.75278 0.38469 0.89423
 C2479 C 0.73808 0.36887 0.90092
 C2480 C 0.71855 0.37452 0.90965
 C2481 C 0.71292 0.39609 0.91249
 C2482 C 0.72722 0.41264 0.90641
 C2483 C 0.72102 0.43424 0.91046
 C2484 C 0.70107 0.43909 0.91902
 C2485 C 0.68660 0.42270 0.92395
 C2486 C 0.69285 0.40118 0.92108
 H2487 H 0.77131 0.34390 0.88912
 H2488 H 0.81627 0.40346 0.86264
 H2489 H 0.80437 0.33575 0.87340
 H2490 H 0.79033 0.42977 0.87296
 H2491 H 0.75751 0.43974 0.88900
 H2492 H 0.74093 0.35183 0.89919
 H2493 H 0.70769 0.36179 0.91424
 H2494 H 0.73120 0.44780 0.90731
 H2495 H 0.69688 0.45585 0.92166
 H2496 H 0.68178 0.38836 0.92487
 C2497 C 0.72656 0.85217 1.11956
 C2498 C 0.73100 0.87425 1.11583
 C2499 C 0.71532 0.88960 1.12200
 C2500 C 0.69620 0.88297 1.13151
 C2501 C 0.69211 0.86105 1.13495
 C2502 C 0.70747 0.84579 1.12891
 C2503 C 0.71873 0.91152 1.11861
 C2504 C 0.73738 0.91871 1.10924
 C2505 C 0.75359 0.90419 1.10286
 C2506 C 0.75038 0.88157 1.10628
 C2507 C 0.76670 0.86707 1.10015
 C2508 C 0.78556 0.87429 1.09123
 C2509 C 0.78898 0.89621 1.08787
 C2510 C 0.77302 0.91152 1.09342
 C2511 C 0.77735 0.93356 1.08937
 C2512 C 0.79682 0.93999 1.08084
 C2513 C 0.81266 0.92480 1.07592
 C2514 C 0.80849 0.90289 1.07922
 H2515 H 0.73741 0.83933 1.11545
 H2516 H 0.68428 0.89488 1.13595
 H2517 H 0.70481 0.82876 1.13163
 H2518 H 0.70680 0.92332 1.12328
 H2519 H 0.73862 0.93592 1.10738
 H2520 H 0.76556 0.84987 1.10217
 H2521 H 0.79767 0.86252 1.08697
 H2522 H 0.76612 0.94633 1.09264
 H2523 H 0.79951 0.95702 1.07809
 H2524 H 0.82072 0.89100 1.07562
 C2525 C 0.72404 0.38638 0.64824
 C2526 C 0.72943 0.38825 0.62675
 C2527 C 0.71486 0.37981 0.61199
 C2528 C 0.69605 0.36956 0.61863
 C2529 C 0.69079 0.36779 0.64008
 C2530 C 0.70520 0.37646 0.65468
 C2531 C 0.71902 0.38172 0.59057
 C2532 C 0.73731 0.39187 0.58336
 C2533 C 0.75248 0.40039 0.59738
 C2534 C 0.74867 0.39821 0.61945
 C2535 C 0.76436 0.40575 0.63346
 C2536 C 0.78313 0.41498 0.62625
 C2537 C 0.78698 0.41744 0.60484
 C2538 C 0.77158 0.41058 0.59006
 C2539 C 0.77607 0.41415 0.56854
 C2540 C 0.79538 0.42308 0.56208
 C2541 C 0.81092 0.42890 0.57671
 C2542 C 0.80640 0.42642 0.59813
 H2543 H 0.73396 0.39247 0.66061
 H2544 H 0.68506 0.36391 0.60681
 H2545 H 0.70255 0.37492 0.67139
 H2546 H 0.70796 0.37530 0.57916
 H2547 H 0.73926 0.39237 0.56658
 H2548 H 0.76289 0.40439 0.65023
 H2549 H 0.79481 0.42021 0.63762
 H2550 H 0.76503 0.41029 0.55622
 H2551 H 0.79822 0.42535 0.54544
 H2552 H 0.81830 0.43083 0.60962
 C2553 C 0.22728 0.88183 0.64745
 C2554 C 0.23122 0.88667 0.62606
 C2555 C 0.21513 0.88134 0.61137
 C2556 C 0.19584 0.87207 0.61806
 C2557 C 0.19205 0.86808 0.63937
 C2558 C 0.20804 0.87279 0.65389
 C2559 C 0.21822 0.88551 0.59010
 C2560 C 0.23691 0.89493 0.58293
 C2561 C 0.25339 0.90073 0.59684
 C2562 C 0.25046 0.89661 0.61879
 C2563 C 0.26681 0.90268 0.63275
 C2564 C 0.28548 0.91210 0.62560
 C2565 C 0.28874 0.91593 0.60430
 C2566 C 0.27275 0.91045 0.58956
 C2567 C 0.27699 0.91477 0.56811
 C2568 C 0.29640 0.92353 0.56170
 C2569 C 0.31223 0.92846 0.57632
 C2570 C 0.30814 0.92494 0.59766
 H2571 H 0.23863 0.88484 0.65971
 H2572 H 0.18349 0.86854 0.60672
 H2573 H 0.20562 0.86947 0.67043
 H2574 H 0.20601 0.88146 0.57880
 H2575 H 0.23783 0.89751 0.56625
 H2576 H 0.26575 0.90042 0.64946
 H2577 H 0.29760 0.91634 0.63694
 H2578 H 0.26583 0.91138 0.55578
 H2579 H 0.29912 0.92635 0.54512
 H2580 H 0.32039 0.92853 0.60907
 C2581 C 0.22394 0.39040 1.14715
 C2582 C 0.23060 0.38854 1.12602
 C2583 C 0.21664 0.37820 1.11186
 C2584 C 0.19741 0.36918 1.11894
 C2585 C 0.19109 0.37078 1.14011
 C2586 C 0.20465 0.38178 1.15397
 C2587 C 0.22187 0.37696 1.09061
 C2588 C 0.24061 0.38589 1.08301
 C2589 C 0.25525 0.39604 1.09651
 C2590 C 0.25049 0.39671 1.11849
 C2591 C 0.26600 0.40503 1.13225
 C2592 C 0.28535 0.41268 1.12484
 C2593 C 0.28990 0.41286 1.10343
 C2594 C 0.27477 0.40500 1.08888
 C2595 C 0.27986 0.40654 1.06727
 C2596 C 0.29945 0.41465 1.06059
 C2597 C 0.31470 0.42149 1.07511
 C2598 C 0.30966 0.42073 1.09654
 H2599 H 0.23315 0.39862 1.15888
 H2600 H 0.18697 0.36173 1.10759
 H2601 H 0.20100 0.38300 1.17053
 H2602 H 0.21128 0.36906 1.07967
 H2603 H 0.24346 0.38397 1.06644
 H2604 H 0.26398 0.40526 1.14903
 H2605 H 0.29689 0.41860 1.13605
 H2606 H 0.26895 0.40195 1.05507
 H2607 H 0.30262 0.41567 1.04390
 H2608 H 0.32132 0.42584 1.10799
 C2609 C 0.70388 1.09054 0.87467
 C2610 C 0.72023 1.10345 0.88316
 C2611 C 0.71689 1.12608 0.88335
 C2612 C 0.69793 1.13518 0.87555
 C2613 C 0.68186 1.12224 0.86680
 C2614 C 0.68524 1.09975 0.86665
 C2615 C 0.73263 1.13969 0.89105
 C2616 C 0.75186 1.13144 0.89825
 C2617 C 0.75615 1.10904 0.89824
 C2618 C 0.73983 1.09476 0.89116
 C2619 C 0.74362 1.07229 0.89246
 C2620 C 0.76273 1.06404 0.90008
 C2621 C 0.77902 1.07774 0.90640
 C2622 C 0.77612 1.10044 0.90534
 C2623 C 0.79347 1.11358 0.91125
 C2624 C 0.81247 1.10453 0.91851
 C2625 C 0.81500 1.08212 0.92018
 C2626 C 0.79823 1.06881 0.91386
 H2627 H 0.70501 1.07323 0.87373
 H2628 H 0.69646 1.15259 0.87526
 H2629 H 0.67318 1.08887 0.86089
 H2630 H 0.73013 1.15702 0.89138
 H2631 H 0.76296 1.14317 0.90406
 H2632 H 0.73197 1.06050 0.88800
 H2633 H 0.76481 1.04668 0.90090
 H2634 H 0.79309 1.13092 0.91019
 H2635 H 0.82538 1.11522 0.92267
 H2636 H 0.80000 1.05143 0.91506
 C2637 C 0.70371 0.59027 0.37651
 C2638 C 0.72072 0.60367 0.38292
 C2639 C 0.71753 0.62632 0.38163
 C2640 C 0.69818 0.63495 0.37420
 C2641 C 0.68162 0.62142 0.36781
 C2642 C 0.68460 0.59904 0.36910
 C2643 C 0.73366 0.64033 0.38765
 C2644 C 0.75304 0.63247 0.39495
 C2645 C 0.75716 0.61009 0.39654
 C2646 C 0.74071 0.59543 0.39051
 C2647 C 0.74478 0.57305 0.39227
 C2648 C 0.76414 0.56521 0.39965
 C2649 C 0.78033 0.57922 0.40555
 C2650 C 0.77717 0.60187 0.40405
 C2651 C 0.79426 0.61530 0.41017
 C2652 C 0.81337 0.60657 0.41761
 C2653 C 0.81628 0.58421 0.41924
 C2654 C 0.79968 0.57063 0.41304
 H2655 H 0.70457 0.57292 0.37697
 H2656 H 0.69615 0.65230 0.37305
 H2657 H 0.67196 0.58820 0.36454
 H2658 H 0.73130 0.65765 0.38672
 H2659 H 0.76447 0.64454 0.39927
 H2660 H 0.73328 0.56100 0.38810
 H2661 H 0.76645 0.54789 0.40075
 H2662 H 0.79352 0.63263 0.40938
 H2663 H 0.82606 0.61746 0.42191
 H2664 H 0.80168 0.55329 0.41438
 C2665 C 0.20955 1.09561 0.37331
 C2666 C 0.22461 1.10813 0.38425
 C2667 C 0.22051 1.13057 0.38609
 C2668 C 0.20184 1.13979 0.37768
 C2669 C 0.18721 1.12726 0.36633
 C2670 C 0.19140 1.10499 0.36449
 C2671 C 0.23528 1.14384 0.39594
 C2672 C 0.25441 1.13550 0.40342
 C2673 C 0.25938 1.11331 0.40176
 C2674 C 0.24379 1.09925 0.39293
 C2675 C 0.24783 1.07680 0.39325
 C2676 C 0.26672 1.06840 0.40122
 C2677 C 0.28258 1.08197 0.40874
 C2678 C 0.27930 1.10463 0.40889
 C2679 C 0.29632 1.11769 0.41579
 C2680 C 0.31543 1.10854 0.42272
 C2681 C 0.31834 1.08609 0.42320
 C2682 C 0.30177 1.07292 0.41609
 H2683 H 0.21150 1.07853 0.37079
 H2684 H 0.19956 1.15709 0.37888
 H2685 H 0.18031 1.09437 0.35672
 H2686 H 0.23220 1.16099 0.39759
 H2687 H 0.26484 1.14689 0.41086
 H2688 H 0.23647 1.06513 0.38784
 H2689 H 0.26903 1.05104 0.40122
 H2690 H 0.29563 1.13506 0.41553
 H2691 H 0.32815 1.11921 0.42745
 H2692 H 0.30372 1.05553 0.41641
 C2693 C 0.21484 0.60537 0.86565
 C2694 C 0.23223 0.61689 0.87421
 C2695 C 0.23164 0.63973 0.87265
 C2696 C 0.21438 0.65033 0.86304
 C2697 C 0.19731 0.63867 0.85474
 C2698 C 0.19777 0.61612 0.85611
 C2699 C 0.24828 0.65197 0.88065
 C2700 C 0.26565 0.64216 0.89020
 C2701 C 0.26717 0.61949 0.89218
 C2702 C 0.25014 0.60663 0.88414
 C2703 C 0.25158 0.58398 0.88632
 C2704 C 0.26900 0.57418 0.89588
 C2705 C 0.28577 0.58643 0.90365
 C2706 C 0.28516 0.60926 0.90196
 C2707 C 0.30270 0.62084 0.91008
 C2708 C 0.31990 0.61020 0.91939
 C2709 C 0.32039 0.58766 0.92105
 C2710 C 0.30320 0.57589 0.91310
 H2711 H 0.21385 0.58804 0.86604
 H2712 H 0.21441 0.66778 0.86175
 H2713 H 0.18471 0.60671 0.84999
 H2714 H 0.24788 0.66943 0.87952
 H2715 H 0.27766 0.65297 0.89591
 H2716 H 0.23944 0.57321 0.88081
 H2717 H 0.26936 0.55673 0.89716
 H2718 H 0.30381 0.63815 0.90939
 H2719 H 0.33313 0.61972 0.92501
 H2720 H 0.30332 0.55844 0.91444
 C2721 C 1.14614 1.27639 1.12251
 C2722 C 1.12444 1.27295 1.11750
 C2723 C 1.10963 1.28943 1.12292
 C2724 C 1.11649 1.30860 1.13251
 C2725 C 1.13808 1.31184 1.13694
 C2726 C 1.15275 1.29548 1.13200
 C2727 C 1.08803 1.28681 1.11866
 C2728 C 1.08064 1.26813 1.10923
 C2729 C 1.09465 1.25119 1.10347
 C2730 C 1.11696 1.25376 1.10743
 C2731 C 1.13106 1.23712 1.10108
 C2732 C 1.12368 1.21846 1.09162
 C2733 C 1.10200 1.21547 1.08811
 C2734 C 1.08711 1.23175 1.09391
 C2735 C 1.06526 1.22769 1.09007
 C2736 C 1.05863 1.20825 1.08127
 C2737 C 1.07342 1.19219 1.07583
 C2738 C 1.09513 1.19605 1.07906
 H2739 H 1.15849 1.26467 1.11946
 H2740 H 1.10502 1.32121 1.13618
 H2741 H 1.16948 1.29739 1.13565
 H2742 H 1.07664 1.29937 1.12272
 H2743 H 1.06373 1.26759 1.10656
 H2744 H 1.14805 1.23800 1.10307
 H2745 H 1.13514 1.20613 1.08712
 H2746 H 1.05278 1.23902 1.09391
 H2747 H 1.04176 1.20574 1.07874
 H2748 H 1.10669 1.18360 1.07513
 C2749 C 1.09932 0.79698 0.62300
 C2750 C 1.11128 0.77857 0.61682
 C2751 C 1.13371 0.77932 0.61943
 C2752 C 1.14349 0.79757 0.62816
 C2753 C 1.13134 0.81547 0.63451
 C2754 C 1.10921 0.81500 0.63168
 C2755 C 1.14635 0.76180 0.61347
 C2756 C 1.13732 0.74340 0.60500
 C2757 C 1.11506 0.74164 0.60219
 C2758 C 1.10180 0.75950 0.60825
 C2759 C 1.07953 0.75761 0.60570
 C2760 C 1.07047 0.73906 0.59753
 C2761 C 1.08312 0.72158 0.59147
 C2762 C 1.10561 0.72257 0.59361
 C2763 C 1.11764 0.70435 0.58705
 C2764 C 1.10775 0.68614 0.57881
 C2765 C 1.08555 0.68527 0.57677
 C2766 C 1.07333 0.70308 0.58322
 H2767 H 1.08228 0.79810 0.62136
 H2768 H 1.16060 0.79762 0.63046
 H2769 H 1.09945 0.82875 0.63610
 H2770 H 1.16350 0.76229 0.61541
 H2771 H 1.14837 0.73072 0.60092
 H2772 H 1.06847 0.77021 0.61001
 H2773 H 1.05328 0.73841 0.59594
 H2774 H 1.13475 0.70354 0.58802
 H2775 H 1.11757 0.67249 0.57424
 H2776 H 1.05615 0.70267 0.58153
 C2777 C 0.60166 1.29474 0.61780
 C2778 C 0.61388 1.27654 0.61151
 C2779 C 0.63633 1.27765 0.61395
 C2780 C 0.64585 1.29591 0.62292
 C2781 C 0.63336 1.31328 0.62989
 C2782 C 0.61128 1.31266 0.62689
 C2783 C 0.64919 1.26034 0.60788
 C2784 C 0.64032 1.24163 0.59988
 C2785 C 0.61804 1.23937 0.59767
 C2786 C 0.60461 1.25724 0.60330
 C2787 C 0.58235 1.25507 0.60082
 C2788 C 0.57344 1.23612 0.59341
 C2789 C 0.58624 1.21848 0.58817
 C2790 C 0.60873 1.21980 0.59013
 C2791 C 0.62090 1.20131 0.58461
 C2792 C 0.61113 1.18261 0.57735
 C2793 C 0.58895 1.18150 0.57535
 C2794 C 0.57658 1.19950 0.58091
 H2795 H 0.58460 1.29560 0.61628
 H2796 H 0.66295 1.29620 0.62532
 H2797 H 0.60133 1.32606 0.63189
 H2798 H 0.66636 1.26116 0.60954
 H2799 H 0.65153 1.22914 0.59568
 H2800 H 0.57118 1.26775 0.60456
 H2801 H 0.55626 1.23525 0.59187
 H2802 H 0.63800 1.20062 0.58577
 H2803 H 0.62104 1.16879 0.57346
 H2804 H 0.55940 1.19882 0.57926
 C2805 C 0.59909 0.79010 1.12803
 C2806 C 0.61100 0.77170 1.12166
 C2807 C 0.63350 0.77267 1.12347
 C2808 C 0.64342 0.79117 1.13135
 C2809 C 0.63139 0.80918 1.13753
 C2810 C 0.60917 0.80844 1.13582
 C2811 C 0.64611 0.75518 1.11743
 C2812 C 0.63700 0.73666 1.10939
 C2813 C 0.61470 0.73478 1.10710
 C2814 C 0.60144 0.75250 1.11354
 C2815 C 0.57912 0.75041 1.11166
 C2816 C 0.57002 0.73184 1.10359
 C2817 C 0.58269 0.71459 1.09697
 C2818 C 0.60521 0.71575 1.09859
 C2819 C 0.61728 0.69779 1.09147
 C2820 C 0.60738 0.67968 1.08310
 C2821 C 0.58517 0.67870 1.08149
 C2822 C 0.57290 0.69618 1.08860
 H2823 H 0.58198 0.79099 1.12709
 H2824 H 0.66062 0.79145 1.13292
 H2825 H 0.59951 0.82225 1.14029
 H2826 H 0.66331 0.75584 1.11886
 H2827 H 0.64804 0.72403 1.10519
 H2828 H 0.56808 0.76286 1.11636
 H2829 H 0.55280 0.73102 1.10244
 H2830 H 0.63441 0.69711 1.09200
 H2831 H 0.61721 0.66623 1.07801
 H2832 H 0.55568 0.69561 1.08726
 C2833 C 0.90690 1.29907 0.87532
 C2834 C 0.89481 1.28017 0.87897
 C2835 C 0.87256 1.28128 0.87518
 C2836 C 0.86309 1.30040 0.86797
 C2837 C 0.87525 1.31895 0.86464
 C2838 C 0.89722 1.31809 0.86825
 C2839 C 0.85975 1.26337 0.87866
 C2840 C 0.86835 1.24435 0.88640
 C2841 C 0.89030 1.24239 0.89087
 C2842 C 0.90388 1.26036 0.88648
 C2843 C 0.92603 1.25789 0.88968
 C2844 C 0.93460 1.23877 0.89740
 C2845 C 0.92150 1.22146 0.90253
 C2846 C 0.89915 1.22300 0.89948
 C2847 C 0.88655 1.20514 0.90553
 C2848 C 0.89581 1.18664 0.91404
 C2849 C 0.91787 1.18521 0.91684
 C2850 C 0.93066 1.20262 0.91093
 H2851 H 0.92380 1.29990 0.87808
 H2852 H 0.84610 1.30083 0.86485
 H2853 H 0.90692 1.33231 0.86596
 H2854 H 0.84278 1.26411 0.87555
 H2855 H 0.85724 1.23134 0.88847
 H2856 H 0.93732 1.27039 0.88615
 H2857 H 0.95170 1.23763 0.89959
 H2858 H 0.86945 1.20495 0.90426
 H2859 H 0.88563 1.17327 0.91836
 H2860 H 0.94776 1.20166 0.91330
 C2861 C 0.91173 0.80343 0.38195
 C2862 C 0.89904 0.78524 0.38683
 C2863 C 0.87661 0.78753 0.38484
 C2864 C 0.86754 0.80705 0.37797
 C2865 C 0.88039 0.82467 0.37280
 C2866 C 0.90251 0.82272 0.37501
 C2867 C 0.86328 0.77029 0.38947
 C2868 C 0.87159 0.75061 0.39592
 C2869 C 0.89378 0.74729 0.39799
 C2870 C 0.90775 0.76491 0.39346
 C2871 C 0.92994 0.76158 0.39564
 C2872 C 0.93824 0.74186 0.40210
 C2873 C 0.92488 0.72458 0.40663
 C2874 C 0.90246 0.72694 0.40455
 C2875 C 0.88969 0.70877 0.40922
 C2876 C 0.89877 0.68947 0.41612
 C2877 C 0.92085 0.68742 0.41854
 C2878 C 0.93386 0.70495 0.41346
 H2879 H 0.92884 0.80336 0.38315
 H2880 H 0.85040 0.80832 0.37605
 H2881 H 0.91277 0.83621 0.37132
 H2882 H 0.84613 0.77199 0.38802
 H2883 H 0.86002 0.73831 0.39917
 H2884 H 0.94148 0.77396 0.39249
 H2885 H 0.95538 0.74014 0.40363
 H2886 H 0.87260 0.70882 0.40782
 H2887 H 0.88841 0.67599 0.41959
 H2888 H 0.95098 0.70347 0.41537
 C2889 C 0.35659 1.27572 0.38163
 C2890 C 0.37851 1.27149 0.38514
 C2891 C 0.39325 1.28771 0.37927
 C2892 C 0.38616 1.30725 0.37043
 C2893 C 0.36441 1.31107 0.36705
 C2894 C 0.34976 1.29514 0.37275
 C2895 C 0.41502 1.28436 0.38212
 C2896 C 0.42268 1.26510 0.39041
 C2897 C 0.40876 1.24832 0.39637
 C2898 C 0.38628 1.25172 0.39401
 C2899 C 0.37231 1.23525 0.40064
 C2900 C 0.37992 1.21600 0.40888
 C2901 C 0.40173 1.21224 0.41084
 C2902 C 0.41654 1.22825 0.40463
 C2903 C 0.43853 1.22332 0.40681
 C2904 C 0.44531 1.20345 0.41480
 C2905 C 0.43053 1.18783 0.42095
 C2906 C 0.40875 1.19238 0.41892
 H2907 H 0.34422 1.26433 0.38524
 H2908 H 0.39762 1.31956 0.36622
 H2909 H 0.33288 1.29751 0.36995
 H2910 H 0.42635 1.29674 0.37775
 H2911 H 0.43972 1.26398 0.39204
 H2912 H 0.35523 1.23669 0.39982
 H2913 H 0.36855 1.20383 0.41371
 H2914 H 0.45096 1.23433 0.40237
 H2915 H 0.46225 1.20035 0.41634
 H2916 H 0.39718 1.18022 0.42328
 C2917 C 0.40483 0.79589 0.87610
 C2918 C 0.39307 0.77712 0.88122
 C2919 C 0.37068 0.77785 0.87819
 C2920 C 0.36076 0.79644 0.87020
 C2921 C 0.37264 0.81484 0.86529
 C2922 C 0.39473 0.81435 0.86828
 C2923 C 0.35820 0.76006 0.88318
 C2924 C 0.36729 0.74153 0.89154
 C2925 C 0.38945 0.73994 0.89512
 C2926 C 0.40264 0.75783 0.88940
 C2927 C 0.42492 0.75575 0.89192
 C2928 C 0.43402 0.73709 0.90011
 C2929 C 0.42136 0.71982 0.90635
 C2930 C 0.39889 0.72099 0.90411
 C2931 C 0.38679 0.70315 0.91119
 C2932 C 0.39664 0.68503 0.91987
 C2933 C 0.41883 0.68394 0.92185
 C2934 C 0.43112 0.70137 0.91497
 H2935 H 0.42180 0.79703 0.87823
 H2936 H 0.34368 0.79654 0.86766
 H2937 H 0.40425 0.82847 0.86488
 H2938 H 0.34110 0.76050 0.88074
 H2939 H 0.35640 0.72860 0.89479
 H2940 H 0.43593 0.76822 0.88749
 H2941 H 0.45120 0.73625 0.90171
 H2942 H 0.36966 0.70267 0.91051
 H2943 H 0.38682 0.67165 0.92489
 H2944 H 0.44830 0.70071 0.91668
 C2945 C 1.13168 0.73722 0.84733
 C2946 C 1.12651 0.73914 0.86890
 C2947 C 1.13186 0.72157 0.88223
 C2948 C 1.14126 0.70272 0.87402
 C2949 C 1.14555 0.70090 0.85251
 C2950 C 1.14095 0.71843 0.83937
 C2951 C 1.12761 0.72277 0.90367
 C2952 C 1.11811 0.74101 0.91231
 C2953 C 1.11220 0.75887 0.89975
 C2954 C 1.11624 0.75780 0.87763
 C2955 C 1.10958 0.77527 0.86493
 C2956 C 1.09962 0.79328 0.87345
 C2957 C 1.09594 0.79477 0.89496
 C2958 C 1.10222 0.77770 0.90851
 C2959 C 1.09834 0.78036 0.93029
 C2960 C 1.08872 0.79909 0.93808
 C2961 C 1.08251 0.81577 0.92454
 C2962 C 1.08610 0.81343 0.90297
 H2963 H 1.12888 0.74991 0.83609
 H2964 H 1.14472 0.68921 0.88432
 H2965 H 1.14460 0.71764 0.82276
 H2966 H 1.13166 0.70941 0.91395
 H2967 H 1.11537 0.74043 0.92898
 H2968 H 1.11157 0.77552 0.84816
 H2969 H 1.09478 0.80625 0.86303
 H2970 H 1.10272 0.76843 0.94182
 H2971 H 1.08604 0.80052 0.95482
 H2972 H 1.08168 0.82644 0.89241
 C2973 C 1.09729 0.20256 0.37394
 C2974 C 1.10896 0.22033 0.38171
 C2975 C 1.13153 0.21900 0.38075
 C2976 C 1.14175 0.20063 0.37248
 C2977 C 1.12992 0.18328 0.36478
 C2978 C 1.10764 0.18445 0.36562
 C2979 C 1.14388 0.23605 0.38793
 C2980 C 1.13443 0.25460 0.39592
 C2981 C 1.11204 0.25690 0.39718
 C2982 C 1.09908 0.23936 0.39024
 C2983 C 1.07671 0.24140 0.39217
 C2984 C 1.06728 0.25987 0.40044
 C2985 C 1.07963 0.27720 0.40699
 C2986 C 1.10218 0.27609 0.40532
 C2987 C 1.11389 0.29435 0.41183
 C2988 C 1.10366 0.31253 0.42003
 C2989 C 1.08144 0.31334 0.42209
 C2990 C 1.06950 0.29564 0.41531
 H2991 H 1.08014 0.20210 0.37386
 H2992 H 1.15902 0.20002 0.37163
 H2993 H 1.09811 0.17119 0.35992
 H2994 H 1.16114 0.23508 0.38731
 H2995 H 1.14528 0.26681 0.40119
 H2996 H 1.06589 0.22886 0.38758
 H2997 H 1.05005 0.26059 0.40168
 H2998 H 1.13097 0.29530 0.41068
 H2999 H 1.11328 0.32619 0.42462
 H3000 H 1.05228 0.29607 0.41683
 C3001 C 0.59056 0.69603 0.38249
 C3002 C 0.60273 0.71451 0.38749
 C3003 C 0.62517 0.71301 0.38497
 C3004 C 0.63475 0.69403 0.37730
 C3005 C 0.62237 0.67620 0.37183
 C3006 C 0.60026 0.67732 0.37476
 C3007 C 0.63801 0.73055 0.38980
 C3008 C 0.62916 0.74975 0.39693
 C3009 C 0.60690 0.75231 0.39946
 C3010 C 0.59344 0.73437 0.39472
 C3011 C 0.57118 0.73697 0.39720
 C3012 C 0.56232 0.75628 0.40414
 C3013 C 0.57517 0.77385 0.40891
 C3014 C 0.59764 0.77220 0.40660
 C3015 C 0.60989 0.79059 0.41162
 C3016 C 0.60025 0.80945 0.41898
 C3017 C 0.57812 0.81082 0.42156
 C3018 C 0.56562 0.79305 0.41619
 H3019 H 0.57350 0.69546 0.38420
 H3020 H 0.65187 0.69339 0.37492
 H3021 H 0.59035 0.66363 0.37093
 H3022 H 0.65517 0.72947 0.38797
 H3023 H 0.64036 0.76235 0.40025
 H3024 H 0.55999 0.72435 0.39386
 H3025 H 0.54515 0.75744 0.40584
 H3026 H 0.62697 0.79106 0.41016
 H3027 H 0.61023 0.82312 0.42268
 H3028 H 0.54847 0.79398 0.41822
 C3029 C 0.61606 0.21859 0.85326
 C3030 C 0.61207 0.22339 0.87464
 C3031 C 0.61738 0.20735 0.88971
 C3032 C 0.62604 0.18739 0.88344
 C3033 C 0.62939 0.18286 0.86218
 C3034 C 0.62450 0.19868 0.84723
 C3035 C 0.61387 0.21118 0.91097
 C3036 C 0.60509 0.23056 0.91776
 C3037 C 0.59939 0.24706 0.90347
 C3038 C 0.60298 0.24343 0.88154
 C3039 C 0.59733 0.25995 0.86725
 C3040 C 0.58872 0.27938 0.87404
 C3041 C 0.58525 0.28324 0.89529
 C3042 C 0.59036 0.26714 0.91037
 C3043 C 0.58631 0.27197 0.93174
 C3044 C 0.57818 0.29204 0.93776
 C3045 C 0.57365 0.30796 0.92280
 C3046 C 0.57694 0.30333 0.90155
 H3047 H 0.61279 0.22973 0.84069
 H3048 H 0.62967 0.17514 0.89509
 H3049 H 0.62727 0.19563 0.83071
 H3050 H 0.61793 0.19901 0.92256
 H3051 H 0.60303 0.23206 0.93446
 H3052 H 0.59940 0.25848 0.85055
 H3053 H 0.58478 0.29160 0.86245
 H3054 H 0.58933 0.26074 0.94429
 H3055 H 0.57546 0.29514 0.95428
 H3056 H 0.57363 0.31565 0.88987
 C3057 C 0.84913 0.72835 1.12348
 C3058 C 0.87110 0.73307 1.12138
 C3059 C 0.88589 0.71751 1.12897
 C3060 C 0.87880 0.69815 1.13818
 C3061 C 0.85698 0.69369 1.13980
 C3062 C 0.84231 0.70904 1.13248
 C3063 C 0.90771 0.72124 1.12720
 C3064 C 0.91532 0.73999 1.11794
 C3065 C 0.90135 0.75600 1.11003
 C3066 C 0.87886 0.75257 1.11196
 C3067 C 0.86487 0.76878 1.10445
 C3068 C 0.87246 0.78762 1.09540
 C3069 C 0.89426 0.79117 1.09327
 C3070 C 0.90908 0.77542 1.10041
 C3071 C 0.93104 0.77987 1.09759
 C3072 C 0.93782 0.79923 1.08856
 C3073 C 0.92308 0.81486 1.08192
 C3074 C 0.90128 0.81058 1.08418
 H3075 H 0.83670 0.73909 1.11824
 H3076 H 0.89029 0.68630 1.14368
 H3077 H 0.82534 0.70615 1.13382
 H3078 H 0.91910 0.70944 1.13301
 H3079 H 0.93240 0.74146 1.11734
 H3080 H 0.84780 0.76754 1.10542
 H3081 H 0.86106 0.79960 1.08998
 H3082 H 0.94348 0.76878 1.10213
 H3083 H 0.95476 0.80194 1.08669
 H3084 H 0.88971 0.82263 1.07929
 C3085 C 0.84321 0.24088 0.63862
 C3086 C 0.86473 0.24278 0.63214
 C3087 C 0.87878 0.22543 0.63697
 C3088 C 0.87120 0.20669 0.64698
 C3089 C 0.84960 0.20473 0.65214
 C3090 C 0.83585 0.22215 0.64830
 C3091 C 0.90023 0.22665 0.63137
 C3092 C 0.90812 0.24455 0.62082
 C3093 C 0.89476 0.26207 0.61520
 C3094 C 0.87268 0.26113 0.62090
 C3095 C 0.85920 0.27839 0.61485
 C3096 C 0.86694 0.29605 0.60388
 C3097 C 0.88841 0.29739 0.59847
 C3098 C 0.90270 0.28047 0.60400
 C3099 C 0.92439 0.28285 0.59818
 C3100 C 0.93147 0.30136 0.58783
 C3101 C 0.91729 0.31807 0.58270
 C3102 C 0.89571 0.31582 0.58779
 H3103 H 0.83150 0.25341 0.63630
 H3104 H 0.88193 0.19324 0.64993
 H3105 H 0.81914 0.22112 0.65252
 H3106 H 0.91107 0.21350 0.63507
 H3107 H 0.92485 0.24399 0.61709
 H3108 H 0.84237 0.27875 0.61818
 H3109 H 0.85594 0.30889 0.59965
 H3110 H 0.93641 0.27091 0.60161
 H3111 H 0.94823 0.30269 0.58391
 H3112 H 0.88468 0.32882 0.58410
 C3113 C 0.39956 0.70561 0.62899
 C3114 C 0.38749 0.72318 0.62100
 C3115 C 0.36496 0.72121 0.62112
 C3116 C 0.35517 0.70244 0.62887
 C3117 C 0.36740 0.68536 0.63691
 C3118 C 0.38964 0.68714 0.63680
 C3119 C 0.35224 0.73803 0.61366
 C3120 C 0.36125 0.75697 0.60625
 C3121 C 0.38357 0.75992 0.60588
 C3122 C 0.39693 0.74262 0.61308
 C3123 C 0.41927 0.74531 0.61206
 C3124 C 0.42828 0.76418 0.60440
 C3125 C 0.41552 0.78128 0.59760
 C3126 C 0.39298 0.77952 0.59836
 C3127 C 0.38084 0.79757 0.59160
 C3128 C 0.39067 0.81616 0.58401
 C3129 C 0.41292 0.81760 0.58285
 C3130 C 0.42525 0.80012 0.58991
 H3131 H 0.41670 0.70561 0.62966
 H3132 H 0.33793 0.70133 0.62912
 H3133 H 0.39949 0.67408 0.64274
 H3134 H 0.33502 0.73657 0.61363
 H3135 H 0.35014 0.76898 0.60072
 H3136 H 0.43039 0.73301 0.61690
 H3137 H 0.44550 0.76540 0.60384
 H3138 H 0.36369 0.79802 0.59207
 H3139 H 0.38074 0.82961 0.57915
 H3140 H 0.44249 0.80103 0.58904
 C3141 C 0.40576 0.19736 1.12158
 C3142 C 0.39341 0.21534 1.11497
 C3143 C 0.37091 0.21354 1.11630
 C3144 C 0.36142 0.19463 1.12402
 C3145 C 0.37391 0.17713 1.13070
 C3146 C 0.39613 0.17868 1.12931
 C3147 C 0.35790 0.23066 1.11007
 C3148 C 0.36662 0.24971 1.10261
 C3149 C 0.38891 0.25251 1.10105
 C3150 C 0.40254 0.23499 1.10721
 C3151 C 0.42482 0.23772 1.10542
 C3152 C 0.43353 0.25679 1.09792
 C3153 C 0.42051 0.27402 1.09194
 C3154 C 0.39801 0.27222 1.09345
 C3155 C 0.38561 0.29031 1.08729
 C3156 C 0.39514 0.30907 1.07973
 C3157 C 0.41734 0.31062 1.07802
 C3158 C 0.42994 0.29305 1.08434
 H3159 H 0.42291 0.19713 1.12110
 H3160 H 0.34420 0.19372 1.12528
 H3161 H 0.40617 0.16529 1.13413
 H3162 H 0.34070 0.22935 1.11101
 H3163 H 0.35529 0.26197 1.09814
 H3164 H 0.43613 0.22535 1.10966
 H3165 H 0.45073 0.25807 1.09680
 H3166 H 0.36848 0.29066 1.08813
 H3167 H 0.38503 0.32256 1.07536
 H3168 H 0.44714 0.29405 1.08298
 C3169 C 1.13250 1.15144 0.73973
 C3170 C 1.12612 1.12966 0.74188
 C3171 C 1.13078 1.11540 0.72505
 C3172 C 1.14043 1.12304 0.70657
 C3173 C 1.14560 1.14486 0.70441
 C3174 C 1.14196 1.15884 0.72128
 C3175 C 1.12545 1.09367 0.72656
 C3176 C 1.11546 1.08564 0.74438
 C3177 C 1.11009 1.09918 0.76143
 C3178 C 1.11525 1.12162 0.76003
 C3179 C 1.10900 1.13537 0.77663
 C3180 C 1.09845 1.12752 0.79416
 C3181 C 1.09380 1.10567 0.79602
 C3182 C 1.09957 1.09109 0.77979
 C3183 C 1.09473 1.06898 0.78279
 C3184 C 1.08483 1.06183 0.80114
 C3185 C 1.07926 1.07637 0.81703
 C3186 C 1.08359 1.09830 0.81427
 H3187 H 1.13045 1.16326 0.75193
 H3188 H 1.14322 1.11212 0.69356
 H3189 H 1.14631 1.17569 0.72013
 H3190 H 1.12898 1.08270 0.71376
 H3191 H 1.11185 1.06869 0.74407
 H3192 H 1.11171 1.15250 0.77650
 H3193 H 1.09397 1.13872 0.80648
 H3194 H 1.09865 1.05669 0.77149
 H3195 H 1.08157 1.04478 0.80298
 H3196 H 1.07963 1.10958 0.82670
 C3197 C 1.10145 0.63301 0.21310
 C3198 C 1.11257 0.62200 0.22922
 C3199 C 1.13491 0.61958 0.22684
 C3200 C 1.14537 0.62733 0.20889
 C3201 C 1.13419 0.63807 0.19279
 C3202 C 1.11205 0.64090 0.19538
 C3203 C 1.14688 0.60951 0.24245
 C3204 C 1.13725 0.60186 0.26057
 C3205 C 1.11505 0.60379 0.26380
 C3206 C 1.10240 0.61352 0.24763
 C3207 C 1.08004 0.61413 0.25030
 C3208 C 1.07035 0.60572 0.26815
 C3209 C 1.08249 0.59674 0.28426
 C3210 C 1.10503 0.59593 0.28250
 C3211 C 1.11662 0.58742 0.29968
 C3212 C 1.10623 0.57939 0.31737
 C3213 C 1.08394 0.57950 0.31871
 C3214 C 1.07216 0.58846 0.30215
 H3215 H 1.08453 0.63596 0.21370
 H3216 H 1.16256 0.62577 0.20810
 H3217 H 1.10248 0.64853 0.18334
 H3218 H 1.16398 0.60752 0.24067
 H3219 H 1.14775 0.59407 0.27159
 H3220 H 1.06941 0.62064 0.23863
 H3221 H 1.05312 0.60637 0.26937
 H3222 H 1.13377 0.58700 0.30019
 H3223 H 1.11577 0.57326 0.33022
 H3224 H 1.05490 0.58870 0.30305
 C3225 C 0.64230 1.10435 0.22133
 C3226 C 0.62077 1.10115 0.22731
 C3227 C 0.60474 1.10731 0.21278
 C3228 C 0.61021 1.11640 0.19330
 C3229 C 0.63158 1.11946 0.18777
 C3230 C 0.64751 1.11333 0.20192
 C3231 C 0.58331 1.10443 0.21772
 C3232 C 0.57726 1.09577 0.23690
 C3233 C 0.59249 1.08961 0.25209
 C3234 C 0.61463 1.09226 0.24718
 C3235 C 0.62986 1.08614 0.26238
 C3236 C 0.62379 1.07818 0.28184
 C3237 C 0.60235 1.07582 0.28698
 C3238 C 0.58634 1.08120 0.27215
 C3239 C 0.56481 1.07817 0.27822
 C3240 C 0.55956 1.07092 0.29830
 C3241 C 0.57546 1.06630 0.31302
 C3242 C 0.59685 1.06842 0.30711
 H3243 H 0.65557 1.10022 0.23123
 H3244 H 0.59780 1.12090 0.18229
 H3245 H 0.66416 1.11576 0.19807
 H3246 H 0.57101 1.10904 0.20664
 H3247 H 0.56035 1.09431 0.23935
 H3248 H 0.64677 1.08747 0.25989
 H3249 H 0.63608 1.07397 0.29307
 H3250 H 0.55156 1.08138 0.26798
 H3251 H 0.54290 1.06900 0.30238
 H3252 H 0.60927 1.06500 0.31846
 C3253 C 0.61344 0.64056 0.72384
 C3254 C 0.61013 0.61873 0.72953
 C3255 C 0.61581 0.60266 0.71464
 C3256 C 0.62445 0.60840 0.69504
 C3257 C 0.62738 0.63010 0.68970
 C3258 C 0.62188 0.64605 0.70430
 C3259 C 0.61277 0.58093 0.71930
 C3260 C 0.60416 0.57463 0.73843
 C3261 C 0.59824 0.58991 0.75385
 C3262 C 0.60142 0.61233 0.74939
 C3263 C 0.59590 0.62758 0.76497
 C3264 C 0.58776 0.62127 0.78426
 C3265 C 0.58457 0.59955 0.78887
 C3266 C 0.58952 0.58352 0.77372
 C3267 C 0.58561 0.56173 0.77922
 C3268 C 0.57785 0.55623 0.79905
 C3269 C 0.57359 0.57213 0.81409
 C3270 C 0.57670 0.59381 0.80876
 H3271 H 0.60964 0.65390 0.73401
 H3272 H 0.62853 0.59598 0.68373
 H3273 H 0.62427 0.66295 0.70065
 H3274 H 0.61709 0.56859 0.70800
 H3275 H 0.60253 0.55750 0.74065
 H3276 H 0.59785 0.64469 0.76291
 H3277 H 0.58396 0.63359 0.79577
 H3278 H 0.58838 0.54847 0.76865
 H3279 H 0.57518 0.53937 0.80265
 H3280 H 0.57357 0.60623 0.82035
 C3281 C 0.90847 0.88523 0.70678
 C3282 C 0.89608 0.88888 0.72508
 C3283 C 0.87367 0.88643 0.72341
 C3284 C 0.86434 0.88016 0.70438
 C3285 C 0.87694 0.87605 0.68665
 C3286 C 0.89902 0.87887 0.68800
 C3287 C 0.86062 0.88996 0.74080
 C3288 C 0.86921 0.89583 0.75996
 C3289 C 0.89141 0.89836 0.76262
 C3290 C 0.90509 0.89478 0.74490
 C3291 C 0.92731 0.89710 0.74762
 C3292 C 0.93589 0.90300 0.76681
 C3293 C 0.92280 0.90683 0.78413
 C3294 C 0.90038 0.90446 0.78238
 C3295 C 0.88788 0.90851 0.80051
 C3296 C 0.89721 0.91522 0.81919
 C3297 C 0.91928 0.91800 0.82064
 C3298 C 0.93205 0.91337 0.80315
 H3299 H 0.92552 0.88701 0.70636
 H3300 H 0.84724 0.87781 0.70354
 H3301 H 0.90908 0.87607 0.67441
 H3302 H 0.84349 0.88812 0.73961
 H3303 H 0.85785 0.89822 0.77244
 H3304 H 0.93866 0.89446 0.73518
 H3305 H 0.95303 0.90470 0.76806
 H3306 H 0.87082 0.90692 0.80087
 H3307 H 0.88705 0.91839 0.83264
 H3308 H 0.94915 0.91558 0.80416
 C3309 C 0.85734 0.38856 0.22554
 C3310 C 0.87901 0.39137 0.23102
 C3311 C 0.89467 0.38556 0.21590
 C3312 C 0.88869 0.37759 0.19615
 C3313 C 0.86716 0.37513 0.19101
 C3314 C 0.85162 0.38060 0.20593
 C3315 C 0.91624 0.38768 0.22052
 C3316 C 0.92277 0.39523 0.23994
 C3317 C 0.90789 0.40117 0.25562
 C3318 C 0.88563 0.39953 0.25096
 C3319 C 0.87074 0.40616 0.26637
 C3320 C 0.87724 0.41369 0.28577
 C3321 C 0.89879 0.41491 0.29074
 C3322 C 0.91449 0.40871 0.27581
 C3323 C 0.93615 0.41016 0.28189
 C3324 C 0.94178 0.41729 0.30187
 C3325 C 0.92614 0.42330 0.31648
 C3326 C 0.90467 0.42218 0.31074
 H3327 H 0.84433 0.39208 0.23606
 H3328 H 0.90084 0.37347 0.18467
 H3329 H 0.83487 0.37840 0.20254
 H3330 H 0.92827 0.38333 0.20901
 H3331 H 0.93973 0.39632 0.24207
 H3332 H 0.85378 0.40590 0.26395
 H3333 H 0.86518 0.41853 0.29709
 H3334 H 0.94919 0.40574 0.27173
 H3335 H 0.95851 0.41821 0.30587
 H3336 H 0.89244 0.42651 0.32207
 C3337 C 0.40123 0.87188 0.21245
 C3338 C 0.38933 0.87896 0.23014
 C3339 C 0.36679 0.87816 0.22877
 C3340 C 0.35681 0.87071 0.21050
 C3341 C 0.36882 0.86387 0.19316
 C3342 C 0.39109 0.86446 0.19436
 C3343 C 0.35419 0.88477 0.24563
 C3344 C 0.36337 0.89230 0.26394
 C3345 C 0.38571 0.89357 0.26622
 C3346 C 0.39894 0.88679 0.24904
 C3347 C 0.42129 0.88814 0.25133
 C3348 C 0.43044 0.89595 0.26960
 C3349 C 0.41781 0.90270 0.28642
 C3350 C 0.39527 0.90153 0.28507
 C3351 C 0.38326 0.90848 0.30269
 C3352 C 0.39320 0.91653 0.32055
 C3353 C 0.41542 0.91796 0.32165
 C3354 C 0.42766 0.91078 0.30457
 H3355 H 0.41838 0.87185 0.21199
 H3356 H 0.33956 0.86996 0.20989
 H3357 H 0.40076 0.85939 0.18112
 H3358 H 0.33695 0.88417 0.24465
 H3359 H 0.35232 0.89711 0.27603
 H3360 H 0.43230 0.88336 0.23919
 H3361 H 0.44767 0.89677 0.27055
 H3362 H 0.36613 0.90798 0.30332
 H3363 H 0.38337 0.92154 0.33370
 H3364 H 0.44489 0.91189 0.30525
 C3365 C 0.40198 0.37505 0.70975
 C3366 C 0.38984 0.38167 0.72745
 C3367 C 0.36732 0.38053 0.72590
 C3368 C 0.35761 0.37315 0.70747
 C3369 C 0.36987 0.36672 0.69014
 C3370 C 0.39211 0.36770 0.69150
 C3371 C 0.35450 0.38671 0.74274
 C3372 C 0.36341 0.39410 0.76123
 C3373 C 0.38571 0.39564 0.76371
 C3374 C 0.39917 0.38933 0.74654
 C3375 C 0.42148 0.39094 0.74903
 C3376 C 0.43037 0.39849 0.76753
 C3377 C 0.41751 0.40474 0.78435
 C3378 C 0.39500 0.40337 0.78278
 C3379 C 0.38275 0.40987 0.80042
 C3380 C 0.39246 0.41758 0.81854
 C3381 C 0.41466 0.41911 0.81990
 C3382 C 0.42711 0.41249 0.80276
 H3383 H 0.41913 0.37533 0.70940
 H3384 H 0.34038 0.37209 0.70674
 H3385 H 0.40195 0.36296 0.67827
 H3386 H 0.33728 0.38585 0.74162
 H3387 H 0.35220 0.39854 0.77331
 H3388 H 0.43266 0.38652 0.73691
 H3389 H 0.44758 0.39948 0.76864
 H3390 H 0.36562 0.40923 0.80086
 H3391 H 0.38247 0.42219 0.83171
 H3392 H 0.44432 0.41373 0.80361
 C3393 C 1.09850 0.87175 1.28790
 C3394 C 1.10978 0.88282 1.27196
 C3395 C 1.13197 0.88564 1.27480
 C3396 C 1.14209 0.87835 1.29313
 C3397 C 1.13075 0.86748 1.30902
 C3398 C 1.10879 0.86417 1.30591
 C3399 C 1.14413 0.89559 1.25926
 C3400 C 1.13486 0.90258 1.24072
 C3401 C 1.11281 0.90024 1.23706
 C3402 C 1.09992 0.89092 1.25324
 C3403 C 1.07761 0.89040 1.25032
 C3404 C 1.06824 0.89846 1.23216
 C3405 C 1.08066 0.90684 1.21593
 C3406 C 1.10316 0.90742 1.21794
 C3407 C 1.11511 0.91497 1.20058
 C3408 C 1.10507 0.92254 1.18252
 C3409 C 1.08279 0.92297 1.18099
 C3410 C 1.07068 0.91476 1.19770
 H3411 H 1.08171 0.86838 1.28686
 H3412 H 1.15919 0.88028 1.29433
 H3413 H 1.09911 0.85637 1.31775
 H3414 H 1.16110 0.89791 1.26138
 H3415 H 1.14543 0.91035 1.22975
 H3416 H 1.06680 0.88436 1.26207
 H3417 H 1.05103 0.89799 1.23077
 H3418 H 1.13227 0.91488 1.20022
 H3419 H 1.11490 0.92794 1.16955
 H3420 H 1.05343 0.91485 1.19669
 C3421 C 1.12553 0.40417 0.78884
 C3422 C 1.11594 0.39223 0.77257
 C3423 C 1.11479 0.36953 0.77512
 C3424 C 1.12302 0.35941 0.79316
 C3425 C 1.13339 0.37137 0.80883
 C3426 C 1.13409 0.39395 0.80644
 C3427 C 1.10587 0.35689 0.75940
 C3428 C 1.09866 0.36613 0.74086
 C3429 C 1.09986 0.38860 0.73732
 C3430 C 1.10790 0.40197 0.75375
 C3431 C 1.10763 0.42458 0.75079
 C3432 C 1.10020 0.43382 0.73232
 C3433 C 1.09308 0.42100 0.71587
 C3434 C 1.09304 0.39820 0.71798
 C3435 C 1.08642 0.38594 0.70049
 C3436 C 1.07940 0.39595 0.68215
 C3437 C 1.07871 0.41849 0.68044
 C3438 C 1.08589 0.43093 0.69730
 H3439 H 1.12712 0.42144 0.78838
 H3440 H 1.12258 0.34197 0.79410
 H3441 H 1.14090 0.40410 0.81845
 H3442 H 1.10472 0.33955 0.76130
 H3443 H 1.09191 0.35513 0.72968
 H3444 H 1.11278 0.43575 0.76261
 H3445 H 1.10019 0.45126 0.73086
 H3446 H 1.08672 0.36857 0.70028
 H3447 H 1.07456 0.38592 0.66912
 H3448 H 1.08548 0.44838 0.69612
 C3449 C 0.62049 0.84789 0.76925
 C3450 C 0.61644 0.86999 0.76499
 C3451 C 0.62314 0.88523 0.78015
 C3452 C 0.63326 0.87847 0.79871
 C3453 C 0.63705 0.85653 0.80265
 C3454 C 0.63058 0.84138 0.78772
 C3455 C 0.61978 0.90720 0.77674
 C3456 C 0.61019 0.91456 0.75846
 C3457 C 0.60340 0.90015 0.74272
 C3458 C 0.60624 0.87746 0.74620
 C3459 C 0.59880 0.86302 0.73077
 C3460 C 0.58945 0.87038 0.71237
 C3461 C 0.58713 0.89239 0.70846
 C3462 C 0.59395 0.90765 0.72356
 C3463 C 0.59129 0.92982 0.71862
 C3464 C 0.58267 0.93637 0.69946
 C3465 C 0.57626 0.92120 0.68454
 C3466 C 0.57828 0.89920 0.68929
 H3467 H 0.61633 0.83515 0.75860
 H3468 H 0.63802 0.89034 0.81023
 H3469 H 0.63365 0.82434 0.79016
 H3470 H 0.62476 0.91892 0.78831
 H3471 H 0.60831 0.93178 0.75722
 H3472 H 0.59989 0.84576 0.73240
 H3473 H 0.58414 0.85865 0.70096
 H3474 H 0.59594 0.94259 0.72903
 H3475 H 0.58105 0.95347 0.69626
 H3476 H 0.57357 0.88733 0.67775
 C3477 C 0.62657 0.39909 1.28969
 C3478 C 0.61851 0.38644 1.27310
 C3479 C 0.61865 0.36374 1.27585
 C3480 C 0.62666 0.35432 1.29436
 C3481 C 0.63520 0.36703 1.31058
 C3482 C 0.63474 0.38961 1.30787
 C3483 C 0.61110 0.35041 1.25996
 C3484 C 0.60365 0.35901 1.24122
 C3485 C 0.60335 0.38149 1.23752
 C3486 C 0.61054 0.39548 1.25388
 C3487 C 0.60954 0.41800 1.25045
 C3488 C 0.60197 0.42660 1.23174
 C3489 C 0.59527 0.41323 1.21553
 C3490 C 0.59597 0.39048 1.21807
 C3491 C 0.58936 0.37770 1.20089
 C3492 C 0.58197 0.38715 1.18237
 C3493 C 0.58088 0.40962 1.18013
 C3494 C 0.58777 0.42257 1.19677
 H3495 H 0.62697 0.41645 1.28917
 H3496 H 0.62729 0.33689 1.29537
 H3497 H 0.64011 0.40033 1.32012
 H3498 H 0.61105 0.33303 1.26197
 H3499 H 0.59807 0.34745 1.22996
 H3500 H 0.61435 0.42960 1.26202
 H3501 H 0.60145 0.44400 1.22993
 H3502 H 0.58981 0.36034 1.20110
 H3503 H 0.57724 0.37672 1.16961
 H3504 H 0.58694 0.43998 1.19527
 C3505 C 0.90841 1.11885 1.29336
 C3506 C 0.89558 1.11400 1.27574
 C3507 C 0.87315 1.11568 1.27825
 C3508 C 0.86419 1.12203 1.29750
 C3509 C 0.87714 1.12692 1.31467
 C3510 C 0.89929 1.12522 1.31241
 C3511 C 0.85968 1.11115 1.26154
 C3512 C 0.86786 1.10494 1.24223
 C3513 C 0.89004 1.10300 1.23876
 C3514 C 0.90416 1.10760 1.25579
 C3515 C 0.92634 1.10564 1.25230
 C3516 C 0.93450 1.09926 1.23299
 C3517 C 0.92100 1.09460 1.21631
 C3518 C 0.89858 1.09648 1.21886
 C3519 C 0.88566 1.09165 1.20131
 C3520 C 0.89463 1.08483 1.18240
 C3521 C 0.91673 1.08265 1.18014
 C3522 C 0.92986 1.08783 1.19710
 H3523 H 0.92555 1.11795 1.29305
 H3524 H 0.84702 1.12361 1.29899
 H3525 H 0.90965 1.12872 1.32552
 H3526 H 0.84253 1.11242 1.26339
 H3527 H 0.85619 1.10173 1.23033
 H3528 H 0.93798 1.10887 1.26423
 H3529 H 0.95164 1.09789 1.23113
 H3530 H 0.86855 1.09285 1.20157
 H3531 H 0.88416 1.08131 1.16938
 H3532 H 0.94700 1.08609 1.19550
 C3533 C 0.84959 0.62371 0.76864
 C3534 C 0.87154 0.62211 0.76354
 C3535 C 0.88637 0.62933 0.77872
 C3536 C 0.87933 0.63786 0.79801
 C3537 C 0.85754 0.63912 0.80279
 C3538 C 0.84282 0.63202 0.78789
 C3539 C 0.90817 0.62788 0.77468
 C3540 C 0.91575 0.61924 0.75597
 C3541 C 0.90173 0.61176 0.74031
 C3542 C 0.87925 0.61352 0.74403
 C3543 C 0.86522 0.60674 0.72808
 C3544 C 0.87277 0.59839 0.70926
 C3545 C 0.89457 0.59624 0.70551
 C3546 C 0.90943 0.60274 0.72097
 C3547 C 0.93137 0.59984 0.71634
 C3548 C 0.93810 0.59130 0.69714
 C3549 C 0.92333 0.58525 0.68184
 C3550 C 0.90154 0.58769 0.68624
 H3551 H 0.83714 0.61853 0.75826
 H3552 H 0.89086 0.64312 0.80954
 H3553 H 0.82587 0.63305 0.79108
 H3554 H 0.91959 0.63341 0.78619
 H3555 H 0.93281 0.61886 0.75423
 H3556 H 0.84815 0.60783 0.72948
 H3557 H 0.86134 0.59350 0.69749
 H3558 H 0.94382 0.60386 0.72721
 H3559 H 0.95503 0.58923 0.69433
 H3560 H 0.88993 0.58330 0.67446
 C3561 C 0.38064 1.09771 0.79036
 C3562 C 0.38691 1.11030 0.77284
 C3563 C 0.38449 1.13303 0.77442
 C3564 C 0.37547 1.14245 0.79245
 C3565 C 0.36857 1.12962 0.80922
 C3566 C 0.37158 1.10725 0.80813
 C3567 C 0.39069 1.14628 0.75784
 C3568 C 0.39894 1.13757 0.73948
 C3569 C 0.40122 1.11504 0.73681
 C3570 C 0.39519 1.10117 0.75381
 C3571 C 0.39729 1.07864 0.75107
 C3572 C 0.40483 1.06989 0.73242
 C3573 C 0.41068 1.08313 0.71571
 C3574 C 0.40912 1.10590 0.71763
 C3575 C 0.41547 1.11852 0.70015
 C3576 C 0.42292 1.10890 0.68174
 C3577 C 0.42432 1.08643 0.67997
 C3578 C 0.41811 1.07363 0.69702
 H3579 H 0.38229 1.08042 0.79088
 H3580 H 0.37308 1.15978 0.79308
 H3581 H 0.36673 1.09701 0.82106
 H3582 H 0.38899 1.16366 0.75900
 H3583 H 0.40317 1.14909 0.72754
 H3584 H 0.39303 1.06713 0.76301
 H3585 H 0.40603 1.05248 0.73106
 H3586 H 0.41490 1.13588 0.70006
 H3587 H 0.42740 1.11915 0.66868
 H3588 H 0.41935 1.05621 0.69584
 C3589 C 0.34964 0.61994 1.26767
 C3590 C 0.37151 0.61526 1.26425
 C3591 C 0.38603 0.62092 1.28033
 C3592 C 0.37876 0.63069 1.29894
 C3593 C 0.35705 0.63509 1.30204
 C3594 C 0.34264 0.62965 1.28621
 C3595 C 0.40774 0.61686 1.27779
 C3596 C 0.41557 0.60748 1.25953
 C3597 C 0.40190 0.60165 1.24294
 C3598 C 0.37946 0.60536 1.24544
 C3599 C 0.36574 0.59908 1.22905
 C3600 C 0.37357 0.58992 1.21071
 C3601 C 0.39536 0.58661 1.20783
 C3602 C 0.40990 0.59231 1.22388
 C3603 C 0.43188 0.58860 1.21998
 C3604 C 0.43896 0.58000 1.20094
 C3605 C 0.42450 0.57467 1.18512
 C3606 C 0.40268 0.57783 1.18879
 H3607 H 0.33745 0.61653 1.25633
 H3608 H 0.39004 0.63468 1.31117
 H3609 H 0.32581 0.63322 1.28802
 H3610 H 0.41890 0.62108 1.29005
 H3611 H 0.43255 0.60501 1.25900
 H3612 H 0.34870 0.60097 1.22982
 H3613 H 0.36238 0.58549 1.19854
 H3614 H 0.44412 0.59233 1.23117
 H3615 H 0.45590 0.57748 1.19858
 H3616 H 0.39136 0.57400 1.17654
 C3617 C 1.14763 1.27409 0.87322
 C3618 C 1.12586 1.27051 0.87799
 C3619 C 1.11109 1.28704 0.87262
 C3620 C 1.11808 1.30646 0.86350
 C3621 C 1.13977 1.30989 0.85943
 C3622 C 1.15436 1.29341 0.86417
 C3623 C 1.08942 1.28423 0.87653
 C3624 C 1.08192 1.26534 0.88559
 C3625 C 1.09589 1.24840 0.89138
 C3626 C 1.11827 1.25116 0.88780
 C3627 C 1.13234 1.23461 0.89437
 C3628 C 1.12489 1.21588 0.90375
 C3629 C 1.10315 1.21269 0.90690
 C3630 C 1.08827 1.22882 0.90074
 C3631 C 1.06635 1.22450 0.90407
 C3632 C 1.05968 1.20505 0.91294
 C3633 C 1.07449 1.18923 0.91894
 C3634 C 1.09624 1.19327 0.91602
 H3635 H 1.15993 1.26229 0.87613
 H3636 H 1.10665 1.31914 0.85998
 H3637 H 1.17116 1.29543 0.86075
 H3638 H 1.07806 1.29682 0.87249
 H3639 H 1.06495 1.26468 0.88805
 H3640 H 1.14938 1.23566 0.89272
 H3641 H 1.13634 1.20365 0.90851
 H3642 H 1.05386 1.23563 0.89978
 H3643 H 1.04277 1.20236 0.91516
 H3644 H 1.10781 1.18099 0.92035
 C3645 C 1.14731 0.77743 0.38053
 C3646 C 1.12559 0.77289 0.38468
 C3647 C 1.11028 0.78876 0.37889
 C3648 C 1.11663 0.80820 0.36940
 C3649 C 1.13820 0.81235 0.36548
 C3650 C 1.15340 0.79678 0.37113
 C3651 C 1.08869 0.78519 0.38254
 C3652 C 1.08176 0.76610 0.39161
 C3653 C 1.09624 0.74964 0.39750
 C3654 C 1.11855 0.75317 0.39415
 C3655 C 1.13306 0.73684 0.40030
 C3656 C 1.12611 0.71756 0.40895
 C3657 C 1.10447 0.71368 0.41193
 C3658 C 1.08917 0.72967 0.40644
 C3659 C 1.06740 0.72479 0.40993
 C3660 C 1.06124 0.70480 0.41794
 C3661 C 1.07644 0.68897 0.42288
 C3662 C 1.09806 0.69366 0.42011
 H3663 H 1.16007 0.76638 0.38417
 H3664 H 1.10476 0.82025 0.36524
 H3665 H 1.17016 0.79945 0.36797
 H3666 H 1.07693 0.79729 0.37821
 H3667 H 1.06480 0.76479 0.39373
 H3668 H 1.15005 0.73833 0.39860
 H3669 H 1.13787 0.70545 0.41323
 H3670 H 1.05464 0.73591 0.40648
 H3671 H 1.04442 0.70168 0.42024
 H3672 H 1.10994 0.68143 0.42372
 C3673 C 0.65118 1.27275 0.37913
 C3674 C 0.62971 1.26605 0.37927
 C3675 C 0.61441 1.28000 0.36995
 C3676 C 0.62063 1.29960 0.36061
 C3677 C 0.64197 1.30643 0.36123
 C3678 C 0.65708 1.29248 0.37044
 C3679 C 0.59288 1.27457 0.37043
 C3680 C 0.58605 1.25594 0.38049
 C3681 C 0.60062 1.24161 0.39016
 C3682 C 0.62288 1.24627 0.38874
 C3683 C 0.63756 1.23090 0.39662
 C3684 C 0.63078 1.21186 0.40593
 C3685 C 0.60914 1.20751 0.40825
 C3686 C 0.59371 1.22249 0.40080
 C3687 C 0.57199 1.21776 0.40450
 C3688 C 0.56594 1.19847 0.41406
 C3689 C 0.58122 1.18318 0.42032
 C3690 C 0.60285 1.18805 0.41775
 H3691 H 0.66386 1.26342 0.38609
 H3692 H 0.60844 1.31014 0.35418
 H3693 H 0.67386 1.29646 0.37055
 H3694 H 0.58108 1.28504 0.36321
 H3695 H 0.56916 1.25296 0.37998
 H3696 H 0.65456 1.23281 0.39536
 H3697 H 0.64266 1.20045 0.41148
 H3698 H 0.55925 1.22870 0.40042
 H3699 H 0.54912 1.19544 0.41647
 H3700 H 0.61483 1.17638 0.42256
 C3701 C 0.65193 0.76974 0.87937
 C3702 C 0.63002 0.76583 0.88320
 C3703 C 0.61519 0.78170 0.87632
 C3704 C 0.62214 0.80040 0.86592
 C3705 C 0.64386 0.80388 0.86220
 C3706 C 0.65863 0.78842 0.86908
 C3707 C 0.59346 0.77885 0.87979
 C3708 C 0.58592 0.76049 0.88976
 C3709 C 0.59990 0.74402 0.89671
 C3710 C 0.62233 0.74676 0.89343
 C3711 C 0.63629 0.73024 0.90029
 C3712 C 0.62870 0.71155 0.90963
 C3713 C 0.60693 0.70850 0.91269
 C3714 C 0.59217 0.72475 0.90654
 C3715 C 0.57026 0.72082 0.91029
 C3716 C 0.56341 0.70138 0.91900
 C3717 C 0.57804 0.68519 0.92444
 C3718 C 0.59983 0.68903 0.92157
 H3719 H 0.66438 0.75873 0.88401
 H3720 H 0.61060 0.81244 0.86090
 H3721 H 0.67551 0.79064 0.86622
 H3722 H 0.58207 0.79096 0.87462
 H3723 H 0.56889 0.75968 0.89160
 H3724 H 0.65333 0.73108 0.89851
 H3725 H 0.64005 0.69923 0.91439
 H3726 H 0.55789 0.73230 0.90657
 H3727 H 0.54649 0.69896 0.92143
 H3728 H 0.61128 0.67653 0.92560
 C3729 C 0.90498 1.29695 1.12968
 C3730 C 0.89316 1.28204 1.11769
 C3731 C 0.87122 1.28647 1.11466
 C3732 C 0.86190 1.30541 1.12261
 C3733 C 0.87379 1.32032 1.13434
 C3734 C 0.89545 1.31556 1.13790
 C3735 C 0.85851 1.27190 1.10384
 C3736 C 0.86696 1.25273 1.09623
 C3737 C 0.88872 1.24747 1.09880
 C3738 C 0.90223 1.26276 1.10894
 C3739 C 0.92434 1.25843 1.10965
 C3740 C 0.93292 1.23963 1.10118
 C3741 C 0.91983 1.22412 1.09216
 C3742 C 0.89749 1.22761 1.09117
 C3743 C 0.88483 1.21086 1.08288
 C3744 C 0.89405 1.19186 1.07534
 C3745 C 0.91620 1.18880 1.07563
 C3746 C 0.92898 1.20505 1.08418
 H3747 H 0.92159 1.29459 1.13330
 H3748 H 0.84492 1.30781 1.12045
 H3749 H 0.90551 1.32660 1.14644
 H3750 H 0.84172 1.27527 1.10134
 H3751 H 0.85602 1.24257 1.08786
 H3752 H 0.93561 1.26956 1.11622
 H3753 H 0.95002 1.23712 1.10191
 H3754 H 0.86768 1.21162 1.08248
 H3755 H 0.88366 1.17932 1.06958
 H3756 H 0.94614 1.20295 1.08452
 C3757 C 0.90890 0.80207 0.61767
 C3758 C 0.89645 0.78408 0.61176
 C3759 C 0.87401 0.78587 0.61415
 C3760 C 0.86470 0.80468 0.62243
 C3761 C 0.87732 0.82207 0.62863
 C3762 C 0.89945 0.82064 0.62599
 C3763 C 0.86091 0.76879 0.60855
 C3764 C 0.86949 0.74972 0.60081
 C3765 C 0.89172 0.74687 0.59839
 C3766 C 0.90544 0.76439 0.60379
 C3767 C 0.92766 0.76159 0.60117
 C3768 C 0.93624 0.74240 0.59366
 C3769 C 0.92315 0.72515 0.58847
 C3770 C 0.90071 0.72706 0.59075
 C3771 C 0.88822 0.70895 0.58534
 C3772 C 0.89763 0.69005 0.57779
 C3773 C 0.91976 0.68839 0.57538
 C3774 C 0.93246 0.70597 0.58092
 H3775 H 0.92600 0.80236 0.61627
 H3776 H 0.84756 0.80554 0.62463
 H3777 H 0.90954 0.83399 0.63041
 H3778 H 0.84375 0.77012 0.61025
 H3779 H 0.85810 0.73748 0.59690
 H3780 H 0.93902 0.77396 0.60480
 H3781 H 0.95340 0.74104 0.59193
 H3782 H 0.87113 0.70869 0.58675
 H3783 H 0.88748 0.67654 0.57398
 H3784 H 0.94961 0.70483 0.57899
 C3785 C 0.35629 1.27927 0.61356
 C3786 C 0.37801 1.27309 0.61373
 C3787 C 0.39260 1.28724 0.62346
 C3788 C 0.38545 1.30629 0.63325
 C3789 C 0.36373 1.31222 0.63319
 C3790 C 0.34938 1.29836 0.62301
 C3791 C 0.41433 1.28242 0.62330
 C3792 C 0.42202 1.26390 0.61360
 C3793 C 0.40816 1.24910 0.60390
 C3794 C 0.38573 1.25348 0.60447
 C3795 C 0.37174 1.23792 0.59615
 C3796 C 0.37932 1.21887 0.58743
 C3797 C 0.40112 1.21462 0.58623
 C3798 C 0.41592 1.22979 0.59408
 C3799 C 0.43789 1.22494 0.59171
 C3800 C 0.44469 1.20553 0.58275
 C3801 C 0.42996 1.19026 0.57579
 C3802 C 0.40816 1.19508 0.57739
 H3803 H 0.34411 1.26984 0.60612
 H3804 H 0.39715 1.31693 0.64009
 H3805 H 0.33242 1.30161 0.62298
 H3806 H 0.42560 1.29316 0.63073
 H3807 H 0.43900 1.26140 0.61444
 H3808 H 0.35467 1.23968 0.59659
 H3809 H 0.36793 1.20730 0.58150
 H3810 H 0.45029 1.23585 0.59640
 H3811 H 0.46165 1.20250 0.58121
 H3812 H 0.39655 1.18337 0.57220
 C3813 C 0.35388 0.77631 1.11685
 C3814 C 0.37550 0.76975 1.11728
 C3815 C 0.39019 0.78374 1.12708
 C3816 C 0.38324 0.80297 1.13667
 C3817 C 0.36161 0.80924 1.13643
 C3818 C 0.34716 0.79557 1.12614
 C3819 C 0.41185 0.77855 1.12723
 C3820 C 0.41936 0.75980 1.11781
 C3821 C 0.40539 0.74513 1.10807
 C3822 C 0.38303 0.74993 1.10826
 C3823 C 0.36892 0.73456 1.09981
 C3824 C 0.37632 0.71529 1.09136
 C3825 C 0.39806 0.71062 1.09057
 C3826 C 0.41298 0.72559 1.09856
 C3827 C 0.43490 0.72031 1.09662
 C3828 C 0.44153 0.70073 1.08790
 C3829 C 0.42667 0.68566 1.08075
 C3830 C 0.40492 0.69088 1.08196
 H3831 H 0.34164 0.76701 1.10934
 H3832 H 0.39507 0.81345 1.14354
 H3833 H 0.33025 0.79910 1.12591
 H3834 H 0.42320 0.78917 1.13470
 H3835 H 0.43628 0.75704 1.11890
 H3836 H 0.35188 0.73666 1.09992
 H3837 H 0.36483 0.70389 1.08531
 H3838 H 0.44741 0.73101 1.10146
 H3839 H 0.45846 0.69743 1.08664
 H3840 H 0.39321 0.67935 1.07661
 C3841 C 0.85052 0.73029 0.87557
 C3842 C 0.87244 0.73401 0.87928
 C3843 C 0.88719 0.71810 0.87226
 C3844 C 0.88008 0.69925 0.86225
 C3845 C 0.85830 0.69565 0.85939
 C3846 C 0.84367 0.71143 0.86590
 C3847 C 0.90894 0.72087 0.87556
 C3848 C 0.91650 0.73893 0.88595
 C3849 C 0.90253 0.75515 0.89350
 C3850 C 0.88015 0.75279 0.88986
 C3851 C 0.86622 0.76926 0.89695
 C3852 C 0.87378 0.78739 0.90717
 C3853 C 0.89547 0.78990 0.91094
 C3854 C 0.91020 0.77378 0.90437
 C3855 C 0.93202 0.77712 0.90893
 C3856 C 0.93882 0.79594 0.91879
 C3857 C 0.92422 0.81202 0.92465
 C3858 C 0.90250 0.80870 0.92098
 H3859 H 0.83812 0.74140 0.88018
 H3860 H 0.89147 0.68701 0.85733
 H3861 H 0.82674 0.70907 0.86360
 H3862 H 0.92029 0.70882 0.87017
 H3863 H 0.93353 0.73968 0.88771
 H3864 H 0.84924 0.76880 0.89474
 H3865 H 0.86245 0.79965 0.91216
 H3866 H 0.94433 0.76562 0.90504
 H3867 H 0.95568 0.79799 0.92176
 H3868 H 0.89109 0.82115 0.92532
 C3869 C 0.90688 0.19947 0.38526
 C3870 C 0.89396 0.21711 0.39170
 C3871 C 0.87155 0.21492 0.38970
 C3872 C 0.86270 0.19604 0.38126
 C3873 C 0.87581 0.17907 0.37440
 C3874 C 0.89791 0.18090 0.37674
 C3875 C 0.85804 0.23170 0.39578
 C3876 C 0.86617 0.25089 0.40348
 C3877 C 0.88835 0.25416 0.40541
 C3878 C 0.90248 0.23686 0.39973
 C3879 C 0.92463 0.23997 0.40210
 C3880 C 0.93278 0.25930 0.40943
 C3881 C 0.91931 0.27642 0.41468
 C3882 C 0.89689 0.27417 0.41280
 C3883 C 0.88402 0.29219 0.41825
 C3884 C 0.89305 0.31137 0.42531
 C3885 C 0.91518 0.31341 0.42722
 C3886 C 0.92821 0.29584 0.42180
 H3887 H 0.92399 0.19950 0.38630
 H3888 H 0.84558 0.19486 0.37935
 H3889 H 0.90838 0.16787 0.37183
 H3890 H 0.84090 0.23007 0.39442
 H3891 H 0.85450 0.26291 0.40775
 H3892 H 0.93628 0.22773 0.39840
 H3893 H 0.94991 0.26089 0.41091
 H3894 H 0.86691 0.29218 0.41711
 H3895 H 0.88261 0.32482 0.42904
 H3896 H 0.94536 0.29719 0.42337
 C3897 C 0.39579 0.71227 0.36352
 C3898 C 0.38450 0.72821 0.37501
 C3899 C 0.36210 0.72600 0.37662
 C3900 C 0.35177 0.70817 0.36782
 C3901 C 0.36314 0.69206 0.35684
 C3902 C 0.38531 0.69469 0.35459
 C3903 C 0.34997 0.74160 0.38699
 C3904 C 0.35950 0.75956 0.39576
 C3905 C 0.38177 0.76255 0.39479
 C3906 C 0.39456 0.74632 0.38476
 C3907 C 0.41695 0.74856 0.38515
 C3908 C 0.42652 0.76614 0.39469
 C3909 C 0.41426 0.78244 0.40387
 C3910 C 0.39171 0.78107 0.40382
 C3911 C 0.38004 0.79849 0.41263
 C3912 C 0.39036 0.81612 0.42146
 C3913 C 0.41265 0.81714 0.42198
 C3914 C 0.42450 0.80018 0.41307
 H3915 H 0.41275 0.71291 0.36100
 H3916 H 0.33455 0.70751 0.36889
 H3917 H 0.39501 0.68270 0.34668
 H3918 H 0.33282 0.73995 0.38832
 H3919 H 0.34888 0.77059 0.40367
 H3920 H 0.42765 0.73670 0.37857
 H3921 H 0.44378 0.76705 0.39473
 H3922 H 0.36289 0.79931 0.41256
 H3923 H 0.38074 0.82927 0.42757
 H3924 H 0.44176 0.80071 0.41338
 C3925 C 0.35065 0.22178 0.88057
 C3926 C 0.37243 0.22726 0.88205
 C3927 C 0.38751 0.21263 0.87341
 C3928 C 0.38086 0.19357 0.86348
 C3929 C 0.35913 0.18812 0.86232
 C3930 C 0.34423 0.20270 0.87101
 C3931 C 0.40923 0.21693 0.87486
 C3932 C 0.41644 0.23537 0.88485
 C3933 C 0.40212 0.25053 0.89368
 C3934 C 0.37972 0.24664 0.89188
 C3935 C 0.36538 0.26236 0.89974
 C3936 C 0.37257 0.28120 0.90899
 C3937 C 0.39429 0.28510 0.91113
 C3938 C 0.40942 0.26970 0.90386
 C3939 C 0.43126 0.27424 0.90709
 C3940 C 0.43767 0.29361 0.91613
 C3941 C 0.42265 0.30914 0.92242
 C3942 C 0.40094 0.30457 0.92023
 H3943 H 0.33803 0.23177 0.88675
 H3944 H 0.39292 0.18249 0.85766
 H3945 H 0.32727 0.19995 0.86982
 H3946 H 0.42087 0.20584 0.86825
 H3947 H 0.43346 0.23741 0.88503
 H3948 H 0.34834 0.26086 0.89867
 H3949 H 0.36093 0.29290 0.91451
 H3950 H 0.44387 0.26319 0.90287
 H3951 H 0.45455 0.29651 0.91815
 H3952 H 0.38917 0.31649 0.92499
 C3953 C 1.14943 0.72540 1.11707
 C3954 C 1.12763 0.73130 1.11662
 C3955 C 1.11287 0.71683 1.12578
 C3956 C 1.11989 0.69775 1.13560
 C3957 C 1.14168 0.69218 1.13629
 C3958 C 1.15623 0.70632 1.12663
 C3959 C 1.09110 0.72138 1.12511
 C3960 C 1.08354 0.74004 1.11555
 C3961 C 1.09755 0.75520 1.10647
 C3962 C 1.12000 0.75097 1.10739
 C3963 C 1.13408 0.76673 1.09944
 C3964 C 1.12659 0.78590 1.09088
 C3965 C 1.10480 0.79010 1.08952
 C3966 C 1.08991 0.77471 1.09694
 C3967 C 1.06796 0.77959 1.09450
 C3968 C 1.06127 0.79920 1.08588
 C3969 C 1.07609 0.81464 1.07932
 C3970 C 1.09787 0.80981 1.08097
 H3971 H 1.16176 0.73511 1.11013
 H3972 H 1.10807 0.68685 1.14197
 H3973 H 1.17323 0.70335 1.12717
 H3974 H 1.07971 0.71037 1.13207
 H3975 H 1.06652 0.74230 1.11599
 H3976 H 1.15115 0.76503 1.10002
 H3977 H 1.13805 0.79762 1.08524
 H3978 H 1.05550 0.76860 1.09892
 H3979 H 1.04433 0.80227 1.08430
 H3980 H 1.10951 0.82167 1.07606
 C3981 C 1.12368 0.23453 0.65507
 C3982 C 1.12098 0.23814 0.63334
 C3983 C 1.12939 0.22243 0.61940
 C3984 C 1.14004 0.20402 0.62706
 C3985 C 1.14209 0.20030 0.64877
 C3986 C 1.13391 0.21607 0.66253
 C3987 C 1.12685 0.22494 0.59781
 C3988 C 1.11591 0.24257 0.58966
 C3989 C 1.10714 0.25866 0.60284
 C3990 C 1.11011 0.25664 0.62503
 C3991 C 1.10224 0.27326 0.63815
 C3992 C 1.09186 0.29119 0.62998
 C3993 C 1.08859 0.29326 0.60848
 C3994 C 1.09584 0.27692 0.59457
 C3995 C 1.09148 0.27965 0.57293
 C3996 C 1.08137 0.29825 0.56549
 C3997 C 1.07509 0.31468 0.57926
 C3998 C 1.07838 0.31188 0.60080
 H3999 H 1.11792 0.24551 0.66689
 H4000 H 1.14558 0.19202 0.61594
 H4001 H 1.13589 0.21463 0.67934
 H4002 H 1.13330 0.21304 0.58703
 H4003 H 1.11489 0.24323 0.57282
 H4004 H 1.10411 0.27316 0.65492
 H4005 H 1.08635 0.30364 0.64068
 H4006 H 1.09565 0.26779 0.56127
 H4007 H 1.07858 0.29986 0.54879
 H4008 H 1.07366 0.32457 0.61158
 C4009 C 0.61607 0.69945 0.59657
 C4010 C 0.61047 0.71808 0.60830
 C4011 C 0.61288 0.71705 0.63040
 C4012 C 0.62066 0.69831 0.64011
 C4013 C 0.62624 0.68014 0.62826
 C4014 C 0.62385 0.68087 0.60644
 C4015 C 0.60766 0.73477 0.64283
 C4016 C 0.60012 0.75370 0.63389
 C4017 C 0.59750 0.75576 0.61198
 C4018 C 0.60270 0.73764 0.59894
 C4019 C 0.60000 0.73972 0.57703
 C4020 C 0.59250 0.75874 0.56811
 C4021 C 0.58739 0.77650 0.58056
 C4022 C 0.58982 0.77534 0.60267
 C4023 C 0.58444 0.79392 0.61452
 C4024 C 0.57681 0.81256 0.60483
 C4025 C 0.57426 0.81350 0.58305
 C4026 C 0.57974 0.79545 0.57097
 H4027 H 0.61471 0.69861 0.57976
 H4028 H 0.62282 0.69803 0.65699
 H4029 H 0.62791 0.66694 0.59696
 H4030 H 0.60946 0.73401 0.65973
 H4031 H 0.59650 0.76645 0.64478
 H4032 H 0.60354 0.72689 0.56619
 H4033 H 0.59068 0.75954 0.55121
 H4034 H 0.58592 0.79474 0.63131
 H4035 H 0.57305 0.82647 0.61448
 H4036 H 0.57772 0.79605 0.55408
 C4037 C 0.60689 0.21221 1.14245
 C4038 C 0.60663 0.21831 1.12105
 C4039 C 0.61455 0.20320 1.10627
 C4040 C 0.62308 0.18329 1.11287
 C4041 C 0.62388 0.17760 1.13428
 C4042 C 0.61529 0.19237 1.14885
 C4043 C 0.61401 0.20798 1.08490
 C4044 C 0.60596 0.22755 1.07776
 C4045 C 0.59826 0.24340 1.09182
 C4046 C 0.59884 0.23880 1.11385
 C4047 C 0.59200 0.25500 1.12797
 C4048 C 0.58482 0.27493 1.12091
 C4049 C 0.58389 0.27956 1.09953
 C4050 C 0.59033 0.26385 1.08461
 C4051 C 0.58857 0.26937 1.06309
 C4052 C 0.58122 0.28970 1.05684
 C4053 C 0.57533 0.30526 1.07171
 C4054 C 0.57664 0.29998 1.09305
 H4055 H 0.60082 0.22239 1.15479
 H4056 H 0.62846 0.17199 1.10101
 H4057 H 0.61591 0.18933 1.16555
 H4058 H 0.61998 0.19646 1.07349
 H4059 H 0.60638 0.22987 1.06103
 H4060 H 0.59233 0.25299 1.14474
 H4061 H 0.57993 0.28689 1.13238
 H4062 H 0.59255 0.25836 1.05061
 H4063 H 0.57995 0.29317 1.04023
 H4064 H 0.57235 0.31195 1.10474
 C4065 C 1.27204 1.11298 0.85096
 C4066 C 1.26726 1.11132 0.87266
 C4067 C 1.28293 1.11841 0.88704
 C4068 C 1.30222 1.12708 0.87985
 C4069 C 1.30643 1.12899 0.85835
 C4070 C 1.29128 1.12167 0.84402
 C4071 C 1.27926 1.11699 0.90856
 C4072 C 1.26021 1.10897 0.91631
 C4073 C 1.24388 1.10201 0.90276
 C4074 C 1.24750 1.10309 0.88056
 C4075 C 1.23117 1.09612 0.86701
 C4076 C 1.21192 1.08860 0.87475
 C4077 C 1.20807 1.08763 0.89626
 C4078 C 1.22395 1.09418 0.91065
 C4079 C 1.21907 1.09275 0.93235
 C4080 C 1.19928 1.08536 0.93926
 C4081 C 1.18368 1.07911 0.92491
 C4082 C 1.18824 1.08023 0.90342
 H4083 H 1.26127 1.10791 0.83885
 H4084 H 1.31406 1.13238 0.89106
 H4085 H 1.29413 1.12311 0.82730
 H4086 H 1.29124 1.12230 0.91960
 H4087 H 1.25881 1.10858 0.93314
 H4088 H 1.23263 1.09635 0.85019
 H4089 H 1.19983 1.08355 0.86370
 H4090 H 1.23010 1.09719 0.94447
 H4091 H 1.19624 1.08437 0.95598
 H4092 H 1.17614 1.07571 0.89216
 C4093 C 1.26825 0.64900 0.37556
 C4094 C 1.26412 0.62677 0.37873
 C4095 C 1.27987 0.61180 0.37192
 C4096 C 1.29876 0.61894 0.36231
 C4097 C 1.30252 0.64098 0.35934
 C4098 C 1.28710 0.65588 0.36606
 C4099 C 1.27677 0.58974 0.37472
 C4100 C 1.25833 0.58203 0.38410
 C4101 C 1.24206 0.59616 0.39110
 C4102 C 1.24498 0.61891 0.38834
 C4103 C 1.22863 0.63303 0.39520
 C4104 C 1.21005 0.62532 0.40427
 C4105 C 1.20692 0.60326 0.40702
 C4106 C 1.22286 0.58830 0.40063
 C4107 C 1.21879 0.56608 0.40398
 C4108 C 1.19963 0.55919 0.41287
 C4109 C 1.18388 0.57407 0.41883
 C4110 C 1.18774 0.59612 0.41599
 H4111 H 1.25733 0.66158 0.38018
 H4112 H 1.31073 0.60729 0.35740
 H4113 H 1.28953 0.67302 0.36374
 H4114 H 1.28877 0.57823 0.36956
 H4115 H 1.25735 0.56476 0.38551
 H4116 H 1.22956 0.65030 0.39369
 H4117 H 1.19792 0.63682 0.40916
 H4118 H 1.22998 0.55353 0.39992
 H4119 H 1.19717 0.54206 0.41518
 H4120 H 1.17554 0.60777 0.42033
 C4121 C 0.79947 1.08897 0.37655
 C4122 C 0.78144 1.10123 0.38291
 C4123 C 0.78319 1.12405 0.38228
 C4124 C 0.80218 1.13393 0.37566
 C4125 C 0.81973 1.12151 0.36924
 C4126 C 0.81818 1.09899 0.36982
 C4127 C 0.76594 1.13699 0.38811
 C4128 C 0.74682 1.12789 0.39445
 C4129 C 0.74410 1.10529 0.39532
 C4130 C 0.76179 1.09171 0.38973
 C4131 C 0.75926 1.06912 0.39129
 C4132 C 0.74025 1.06006 0.39813
 C4133 C 0.72285 1.07302 0.40352
 C4134 C 0.72438 1.09581 0.40193
 C4135 C 0.70605 1.10816 0.40711
 C4136 C 0.68749 1.09834 0.41436
 C4137 C 0.68634 1.07590 0.41664
 C4138 C 0.70397 1.06328 0.41077
 H4139 H 0.79967 1.07160 0.37638
 H4140 H 0.80312 1.15139 0.37500
 H4141 H 0.83159 1.08901 0.36508
 H4142 H 0.76721 1.15443 0.38773
 H4143 H 0.73450 1.13920 0.39880
 H4144 H 0.77181 1.05784 0.38756
 H4145 H 0.73919 1.04264 0.39927
 H4146 H 0.70539 1.12547 0.40576
 H4147 H 0.67389 1.10844 0.41826
 H4148 H 0.70321 1.04588 0.41243
 C4149 C 0.79038 0.62335 0.89670
 C4150 C 0.77186 0.61687 0.88577
 C4151 C 0.77196 0.61903 0.86360
 C4152 C 0.78970 0.62758 0.85307
 C4153 C 0.80761 0.63438 0.86422
 C4154 C 0.80784 0.63199 0.88606
 C4155 C 0.75425 0.61295 0.85197
 C4156 C 0.73616 0.60503 0.86179
 C4157 C 0.73500 0.60284 0.88384
 C4158 C 0.75324 0.60858 0.89603
 C4159 C 0.75222 0.60590 0.91804
 C4160 C 0.73409 0.59798 0.92785
 C4161 C 0.71614 0.59252 0.91625
 C4162 C 0.71623 0.59498 0.89410
 C4163 C 0.69742 0.58949 0.88315
 C4164 C 0.67971 0.58139 0.89370
 C4165 C 0.67992 0.57852 0.91549
 C4166 C 0.69810 0.58442 0.92673
 H4167 H 0.79189 0.62223 0.91349
 H4168 H 0.78929 0.62961 0.83616
 H4169 H 0.82163 0.63692 0.89501
 H4170 H 0.75430 0.61445 0.83501
 H4171 H 0.72335 0.60068 0.85149
 H4172 H 0.76527 0.60969 0.92828
 H4173 H 0.73412 0.59614 0.94477
 H4174 H 0.69572 0.59126 0.86644
 H4175 H 0.66564 0.57739 0.88472
 H4176 H 0.69837 0.58224 0.94362
 C4177 C 1.29069 0.90294 1.13150
 C4178 C 1.27243 0.89122 1.12525
 C4179 C 1.27323 0.86843 1.12731
 C4180 C 1.29153 0.85804 1.13507
 C4181 C 1.30948 0.86988 1.14097
 C4182 C 1.30881 0.89240 1.13921
 C4183 C 1.25579 0.85600 1.12157
 C4184 C 1.23750 0.86556 1.11358
 C4185 C 1.23583 0.88815 1.11095
 C4186 C 1.25355 0.90123 1.11697
 C4187 C 1.25182 0.92382 1.11439
 C4188 C 1.23364 0.93333 1.10600
 C4189 C 1.21636 0.92084 1.09985
 C4190 C 1.21710 0.89808 1.10234
 C4191 C 1.19903 0.88622 1.09593
 C4192 C 1.18136 0.89648 1.08712
 C4193 C 1.18088 0.91889 1.08437
 C4194 C 1.19837 0.93102 1.09103
 H4195 H 1.29161 0.92025 1.13055
 H4196 H 1.29175 0.84062 1.13670
 H4197 H 1.32253 0.90194 1.14350
 H4198 H 1.25631 0.83858 1.12317
 H4199 H 1.22494 0.85461 1.10952
 H4200 H 1.26435 0.93476 1.11861
 H4201 H 1.23315 0.95073 1.10421
 H4202 H 1.19792 0.86896 1.09739
 H4203 H 1.16786 0.88676 1.08253
 H4204 H 1.19818 0.94839 1.08891
 C4205 C 1.29079 0.40404 0.62822
 C4206 C 1.27300 0.39172 0.62176
 C4207 C 1.27447 0.36897 0.62389
 C4208 C 1.29297 0.35920 0.63189
 C4209 C 1.31049 0.37161 0.63789
 C4210 C 1.30915 0.39410 0.63613
 C4211 C 1.25752 0.35596 0.61795
 C4212 C 1.23907 0.36491 0.60967
 C4213 C 1.23675 0.38742 0.60696
 C4214 C 1.25395 0.40109 0.61321
 C4215 C 1.25154 0.42361 0.61059
 C4216 C 1.23315 0.43252 0.60206
 C4217 C 1.21635 0.41946 0.59576
 C4218 C 1.21783 0.39672 0.59812
 C4219 C 1.20025 0.38427 0.59143
 C4220 C 1.18222 0.39399 0.58274
 C4221 C 1.18093 0.41642 0.58035
 C4222 C 1.19806 0.42907 0.58700
 H4223 H 1.29119 0.42138 0.62726
 H4224 H 1.29370 0.34179 0.63354
 H4225 H 1.32254 0.40406 0.64053
 H4226 H 1.25856 0.33857 0.61962
 H4227 H 1.22691 0.35354 0.60551
 H4228 H 1.26366 0.43496 0.61496
 H4229 H 1.23209 0.44991 0.60033
 H4230 H 1.19978 0.36696 0.59265
 H4231 H 1.16905 0.38385 0.57810
 H4232 H 1.19727 0.44645 0.58508
 C4233 C 0.79573 0.90762 0.62421
 C4234 C 0.77929 0.89399 0.61686
 C4235 C 0.78280 0.87139 0.61811
 C4236 C 0.80200 0.86304 0.62610
 C4237 C 0.81815 0.87677 0.63310
 C4238 C 0.81475 0.89910 0.63217
 C4239 C 0.76716 0.85715 0.61139
 C4240 C 0.74796 0.86472 0.60342
 C4241 C 0.74357 0.88704 0.60173
 C4242 C 0.75958 0.90194 0.60839
 C4243 C 0.75537 0.92425 0.60625
 C4244 C 0.73624 0.93181 0.59808
 C4245 C 0.72041 0.91757 0.59179
 C4246 C 0.72374 0.89498 0.59353
 C4247 C 0.70697 0.88132 0.58703
 C4248 C 0.68791 0.88979 0.57919
 C4249 C 0.68476 0.91211 0.57747
 C4250 C 0.70118 0.92589 0.58379
 H4251 H 0.79449 0.92495 0.62409
 H4252 H 0.80430 0.84571 0.62709
 H4253 H 0.82701 0.91010 0.63733
 H4254 H 0.76977 0.83986 0.61230
 H4255 H 0.73692 0.85251 0.59857
 H4256 H 0.76663 0.93646 0.61063
 H4257 H 0.73380 0.94910 0.59675
 H4258 H 0.70786 0.86400 0.58797
 H4259 H 0.67538 0.87874 0.57480
 H4260 H 0.69905 0.94321 0.58232
 C4261 C 0.79563 0.40735 1.11992
 C4262 C 0.77921 0.39387 1.11231
 C4263 C 0.78236 0.37124 1.11383
 C4264 C 0.80102 0.36269 1.12272
 C4265 C 0.81690 0.37628 1.13044
 C4266 C 0.81408 0.39864 1.12884
 C4267 C 0.76678 0.35714 1.10672
 C4268 C 0.74782 0.36491 1.09845
 C4269 C 0.74360 0.38727 1.09691
 C4270 C 0.75973 0.40201 1.10358
 C4271 C 0.75578 0.42437 1.10138
 C4272 C 0.73667 0.43212 1.09339
 C4273 C 0.72062 0.41802 1.08734
 C4274 C 0.72379 0.39539 1.08895
 C4275 C 0.70681 0.38187 1.08274
 C4276 C 0.68769 0.39051 1.07531
 C4277 C 0.68472 0.41286 1.07376
 C4278 C 0.70130 0.42652 1.07978
 H4279 H 0.79473 0.42469 1.11948
 H4280 H 0.80293 0.34534 1.12416
 H4281 H 0.82624 0.40949 1.13451
 H4282 H 0.76919 0.33983 1.10771
 H4283 H 0.73677 0.35280 1.09335
 H4284 H 0.76720 0.43646 1.10566
 H4285 H 0.73436 0.44943 1.09208
 H4286 H 0.70755 0.36454 1.08366
 H4287 H 0.67499 0.37959 1.07112
 H4288 H 0.69921 0.44385 1.07845
 C4289 C 0.69981 1.08917 1.11370
 C4290 C 0.71700 1.10254 1.10758
 C4291 C 0.71428 1.12517 1.10982
 C4292 C 0.69543 1.13378 1.11836
 C4293 C 0.67899 1.12024 1.12507
 C4294 C 0.68122 1.09793 1.12236
 C4295 C 0.73055 1.13915 1.10399
 C4296 C 0.74983 1.13126 1.09649
 C4297 C 0.75371 1.10887 1.09454
 C4298 C 0.73687 1.09427 1.09976
 C4299 C 0.74057 1.07191 1.09723
 C4300 C 0.76008 1.06401 1.09024
 C4301 C 0.77677 1.07796 1.08556
 C4302 C 0.77389 1.10060 1.08760
 C4303 C 0.79149 1.11397 1.08281
 C4304 C 0.81083 1.10521 1.07608
 C4305 C 0.81346 1.08288 1.07393
 C4306 C 0.79638 1.06933 1.07882
 H4307 H 0.70025 1.07186 1.11242
 H4308 H 0.69394 1.15106 1.12064
 H4309 H 0.66859 1.08716 1.12723
 H4310 H 0.72846 1.15647 1.10548
 H4311 H 0.76141 1.14330 1.09239
 H4312 H 0.72869 1.05992 1.10054
 H4313 H 0.76216 1.04671 1.08862
 H4314 H 0.79102 1.13126 1.08421
 H4315 H 0.82394 1.11600 1.07274
 H4316 H 0.79828 1.05201 1.07707
 C4317 C 0.70509 0.59222 0.62504
 C4318 C 0.72141 0.60551 0.61672
 C4319 C 0.71802 0.62815 0.61721
 C4320 C 0.69906 0.63685 0.62534
 C4321 C 0.68297 0.62346 0.63316
 C4322 C 0.68625 0.60111 0.63313
 C4323 C 0.73352 0.64212 0.60956
 C4324 C 0.75249 0.63423 0.60135
 C4325 C 0.75678 0.61186 0.60036
 C4326 C 0.74091 0.59723 0.60801
 C4327 C 0.74502 0.57485 0.60657
 C4328 C 0.76396 0.56697 0.59816
 C4329 C 0.77966 0.58098 0.59091
 C4330 C 0.77638 0.60362 0.59190
 C4331 C 0.79299 0.61705 0.58446
 C4332 C 0.81186 0.60832 0.57644
 C4333 C 0.81495 0.58596 0.57548
 C4334 C 0.79871 0.57238 0.58272
 H4335 H 0.70630 0.57489 0.62560
 H4336 H 0.69688 0.65422 0.62576
 H4337 H 0.67403 0.59043 0.63909
 H4338 H 0.73096 0.65944 0.60990
 H4339 H 0.76343 0.64626 0.59575
 H4340 H 0.73383 0.56283 0.61171
 H4341 H 0.76637 0.54965 0.59739
 H4342 H 0.79214 0.63439 0.58477
 H4343 H 0.82430 0.61920 0.57133
 H4344 H 0.80086 0.55503 0.58187
 C4345 C 0.21265 1.10705 0.63112
 C4346 C 0.22996 1.11893 0.62274
 C4347 C 0.22896 1.14175 0.62430
 C4348 C 0.21148 1.15199 0.63395
 C4349 C 0.19470 1.13995 0.64241
 C4350 C 0.19542 1.11743 0.64079
 C4351 C 0.24551 1.15431 0.61645
 C4352 C 0.26333 1.14482 0.60733
 C4353 C 0.26538 1.12217 0.60565
 C4354 C 0.24827 1.10901 0.61316
 C4355 C 0.25008 1.08639 0.61093
 C4356 C 0.26803 1.07690 0.60200
 C4357 C 0.28500 1.08943 0.59501
 C4358 C 0.28399 1.11225 0.59669
 C4359 C 0.30182 1.12412 0.58950
 C4360 C 0.31965 1.11376 0.58100
 C4361 C 0.32048 1.09125 0.57930
 C4362 C 0.30305 1.07919 0.58638
 H4363 H 0.21193 1.08971 0.63070
 H4364 H 0.21124 1.16943 0.63540
 H4365 H 0.18254 1.10776 0.64703
 H4366 H 0.24475 1.17176 0.61749
 H4367 H 0.27524 1.15584 0.60170
 H4368 H 0.23782 1.07541 0.61589
 H4369 H 0.26867 1.05946 0.60068
 H4370 H 0.30272 1.14143 0.59039
 H4371 H 0.33306 1.12347 0.57604
 H4372 H 0.30347 1.06175 0.58500
 C4373 C 0.22951 0.61689 1.15082
 C4374 C 0.23378 0.61360 1.12920
 C4375 C 0.21792 0.62020 1.11468
 C4376 C 0.19886 0.62981 1.12165
 C4377 C 0.19509 0.63319 1.14306
 C4378 C 0.21051 0.62651 1.15754
 C4379 C 0.22115 0.61733 1.09324
 C4380 C 0.23996 0.60837 1.08567
 C4381 C 0.25647 0.60183 1.09934
 C4382 C 0.25323 0.60424 1.12149
 C4383 C 0.26959 0.59734 1.13517
 C4384 C 0.28859 0.58882 1.12758
 C4385 C 0.29217 0.58677 1.10609
 C4386 C 0.27619 0.59311 1.09160
 C4387 C 0.28080 0.59066 1.06994
 C4388 C 0.30046 0.58261 1.06314
 C4389 C 0.31620 0.57664 1.07756
 C4390 C 0.31185 0.57860 1.09904
 H4391 H 0.24053 0.61247 1.16302
 H4392 H 0.18685 0.63462 1.11034
 H4393 H 0.20804 0.62912 1.17418
 H4394 H 0.20902 0.62224 1.08209
 H4395 H 0.24102 0.60687 1.06888
 H4396 H 0.26831 0.59834 1.15198
 H4397 H 0.30072 0.58390 1.13872
 H4398 H 0.26971 0.59493 1.05775
 H4399 H 0.30333 0.58099 1.04644
 H4400 H 0.32405 0.57426 1.11033
 C4401 C 0.71369 0.89789 0.86522
 C4402 C 0.73150 0.88619 0.87302
 C4403 C 0.73092 0.86337 0.87153
 C4404 C 0.71316 0.85294 0.86301
 C4405 C 0.69550 0.86473 0.85586
 C4406 C 0.69606 0.88729 0.85681
 C4407 C 0.74797 0.85094 0.87871
 C4408 C 0.76562 0.86054 0.88767
 C4409 C 0.76699 0.88316 0.88990
 C4410 C 0.74971 0.89624 0.88234
 C4411 C 0.75115 0.91886 0.88453
 C4412 C 0.76868 0.92842 0.89387
 C4413 C 0.78555 0.91593 0.90143
 C4414 C 0.78504 0.89313 0.89954
 C4415 C 0.80265 0.88129 0.90749
 C4416 C 0.81980 0.89166 0.91690
 C4417 C 0.82015 0.91415 0.91882
 C4418 C 0.80295 0.92620 0.91095
 H4419 H 0.71272 0.91524 0.86551
 H4420 H 0.71308 0.83547 0.86195
 H4421 H 0.68258 0.89679 0.85146
 H4422 H 0.74762 0.83349 0.87751
 H4423 H 0.77792 0.84959 0.89280
 H4424 H 0.73888 0.92978 0.87924
 H4425 H 0.76899 0.94585 0.89523
 H4426 H 0.80382 0.86399 0.90670
 H4427 H 0.83306 0.88196 0.92245
 H4428 H 0.80299 0.94362 0.91248
 C4429 C 0.70674 0.37920 0.40007
 C4430 C 0.72496 0.38632 0.38889
 C4431 C 0.72441 0.38511 0.36665
 C4432 C 0.70647 0.37696 0.35628
 C4433 C 0.68895 0.36942 0.36768
 C4434 C 0.68915 0.37084 0.38959
 C4435 C 0.74192 0.39164 0.35481
 C4436 C 0.76032 0.39882 0.36448
 C4437 C 0.76195 0.39989 0.38656
 C4438 C 0.74377 0.39416 0.39896
 C4439 C 0.74502 0.39645 0.42098
 C4440 C 0.76342 0.40378 0.43061
 C4441 C 0.78144 0.40886 0.41882
 C4442 C 0.78110 0.40676 0.39664
 C4443 C 0.80007 0.41148 0.38550
 C4444 C 0.81813 0.41880 0.39586
 C4445 C 0.81810 0.42160 0.41765
 C4446 C 0.79981 0.41623 0.42911
 H4447 H 0.70568 0.37936 0.41693
 H4448 H 0.70649 0.37565 0.33931
 H4449 H 0.67567 0.36518 0.39869
 H4450 H 0.74151 0.39096 0.33782
 H4451 H 0.77295 0.40366 0.35405
 H4452 H 0.73190 0.39297 0.43135
 H4453 H 0.76355 0.40541 0.44755
 H4454 H 0.80164 0.40954 0.36878
 H4455 H 0.83230 0.42229 0.38672
 H4456 H 0.79971 0.41828 0.44600
 C4457 C 0.20858 0.90583 0.37064
 C4458 C 0.22665 0.89372 0.37717
 C4459 C 0.22578 0.87097 0.37501
 C4460 C 0.20761 0.86099 0.36682
 C4461 C 0.18981 0.87319 0.36073
 C4462 C 0.19054 0.89568 0.36258
 C4463 C 0.24297 0.85815 0.38112
 C4464 C 0.26106 0.86729 0.38969
 C4465 C 0.26276 0.88981 0.39252
 C4466 C 0.24539 0.90330 0.38590
 C4467 C 0.24733 0.92586 0.38829
 C4468 C 0.26540 0.93496 0.39706
 C4469 C 0.28227 0.92205 0.40390
 C4470 C 0.28126 0.89929 0.40176
 C4471 C 0.29881 0.88699 0.40914
 C4472 C 0.31641 0.89688 0.41820
 C4473 C 0.31728 0.91933 0.42031
 C4474 C 0.30016 0.93185 0.41299
 H4475 H 0.20769 0.92314 0.37173
 H4476 H 0.20733 0.84358 0.36513
 H4477 H 0.17692 0.90547 0.35816
 H4478 H 0.24241 0.84076 0.37937
 H4479 H 0.27348 0.85607 0.39393
 H4480 H 0.23512 0.93709 0.38350
 H4481 H 0.26611 0.95236 0.39859
 H4482 H 0.29955 0.86966 0.40828
 H4483 H 0.32958 0.88685 0.42339
 H4484 H 0.30063 0.94925 0.41470
 C4485 C 0.22796 0.38533 0.85170
 C4486 C 0.23237 0.38703 0.87342
 C4487 C 0.21668 0.37947 0.88770
 C4488 C 0.19756 0.37057 0.88037
 C4489 C 0.19352 0.36913 0.85883
 C4490 C 0.20889 0.37655 0.84463
 C4491 C 0.22010 0.38083 0.90924
 C4492 C 0.23878 0.38950 0.91708
 C4493 C 0.25499 0.39720 0.90362
 C4494 C 0.25175 0.39590 0.88141
 C4495 C 0.26803 0.40340 0.86792
 C4496 C 0.28685 0.41172 0.87574
 C4497 C 0.29028 0.41305 0.89726
 C4498 C 0.27442 0.40598 0.91159
 C4499 C 0.27883 0.40794 0.93330
 C4500 C 0.29823 0.41612 0.94029
 C4501 C 0.31388 0.42274 0.92600
 C4502 C 0.30969 0.42129 0.90449
 H4503 H 0.23881 0.39059 0.83965
 H4504 H 0.18564 0.36501 0.89146
 H4505 H 0.20626 0.37532 0.82788
 H4506 H 0.20816 0.37509 0.92022
 H4507 H 0.24001 0.38981 0.93392
 H4508 H 0.26688 0.40299 0.85109
 H4509 H 0.29892 0.41714 0.86473
 H4510 H 0.26772 0.40330 0.94537
 H4511 H 0.30097 0.41736 0.95702
 H4512 H 0.32182 0.42611 0.89328
   
