data_POSCAR
  _audit_creation_date              2014-09-24
  _audit_creation_method            'ToBaCCo'
  _symmetry_space_group_name_H-M    'P1'
  _symmetry_Int_Tables_number       1
  _symmetry_cell_setting            triclinic
  loop_
  _symmetry_equiv_pos_as_xyz
 x,y,z
_cell_length_a 68.6817
_cell_length_b 45.7991
_cell_length_c 48.0510
_cell_angle_alpha 89.952000
_cell_angle_beta 89.967300
_cell_angle_gamma 89.988300
loop_
  _atom_site_label
  _atom_site_type_symbol
  _atom_site_fract_x
  _atom_site_fract_y
  _atom_site_fract_z
C1 C 0.00077 -0.00027 0.08999
 C2 C 0.00050 -0.00013 -0.09257
 C3 C -0.04460 -0.04829 0.04126
 C4 C -0.04457 0.04780 0.04129
 C5 C -0.04464 -0.04832 -0.04317
 C6 C 0.04534 -0.04555 -0.04631
 C7 C 0.04535 0.04510 -0.04631
 C8 C 0.04529 -0.04543 0.04363
 C9 C -0.04461 0.04803 -0.04308
 C10 C 0.04530 0.04490 0.04363
 O11 O -0.02676 -0.05448 -0.04943
 O12 O -0.04988 -0.02826 -0.02583
 O13 O -0.02674 0.05418 -0.04935
 O14 O -0.04987 0.02792 -0.02578
 O15 O 0.02745 0.05120 0.04979
 O16 O 0.05049 0.02646 0.02470
 O17 O 0.00032 0.02465 -0.07983
 O18 O 0.00032 -0.02496 -0.07986
 O19 O 0.00055 0.02460 0.07743
 O20 O 0.00053 -0.02514 0.07746
 O21 O 0.02740 -0.05173 -0.05225
 O22 O 0.05044 -0.02699 -0.02739
 O23 O -0.02671 -0.05441 0.04745
 O24 O -0.04986 -0.02829 0.02383
 O25 O 0.02743 -0.05174 0.04980
 O26 O 0.05048 -0.02698 0.02469
 O27 O 0.02741 0.05131 -0.05224
 O28 O 0.05044 0.02651 -0.02738
 O29 O 0.00129 0.08153 0.04102
 O30 O 0.00113 0.08148 -0.04397
 O31 O 0.00111 -0.08188 -0.04393
 O32 O 0.00127 -0.08204 0.04110
 O33 O -0.01648 -0.03865 -0.00115
 O34 O -0.01647 0.03820 -0.00115
 O35 O 0.01685 -0.03845 -0.00124
 O36 O -0.01744 -0.00025 0.03600
 O37 O -0.04986 0.02784 0.02386
 O38 O -0.02668 0.05389 0.04746
 O39 O 0.01818 -0.00027 0.03605
 O40 O 0.01815 -0.00021 -0.03863
 O41 O 0.01687 0.03798 -0.00125
 O42 O -0.01752 -0.00019 -0.03826
 Zr43 Zr 0.00033 0.03594 0.03497
 Zr44 Zr 0.00027 -0.03636 -0.03739
 Zr45 Zr -0.03304 -0.00022 -0.00106
 Zr46 Zr 0.00032 -0.03645 0.03499
 Zr47 Zr 0.00028 0.03596 -0.03737
 Zr48 Zr 0.03359 -0.00025 -0.00132
 H49 H 0.02472 -0.05656 -0.00126
 H50 H -0.02615 -0.00026 0.05241
 H51 H 0.02475 0.05608 -0.00127
 H52 H -0.02628 -0.00016 -0.05461
 H53 H -0.00211 0.09018 0.02279
 H54 H 0.00052 0.09029 -0.02521
 H55 H -0.00198 -0.09069 0.02283
 H56 H 0.00021 -0.09071 -0.02519
 C57 C 0.25027 0.24989 0.15823
 C58 C 0.25012 0.24971 0.34080
 C59 C 0.20491 0.29795 0.20737
 C60 C 0.20500 0.20170 0.20730
 C61 C 0.20481 0.29777 0.29186
 C62 C 0.29470 0.29531 0.29435
 C63 C 0.29476 0.20435 0.29431
 C64 C 0.29476 0.29541 0.20503
 C65 C 0.20490 0.20158 0.29164
 C66 C 0.29489 0.20439 0.20496
 O67 O 0.22269 0.30389 0.29809
 O68 O 0.19957 0.27780 0.27441
 O69 O 0.22278 0.19546 0.29788
 O70 O 0.19963 0.22165 0.27430
 O71 O 0.27703 0.19816 0.19874
 O72 O 0.30005 0.22304 0.22371
 O73 O 0.24991 0.22487 0.32824
 O74 O 0.24990 0.27459 0.32827
 O75 O 0.25008 0.22507 0.17095
 O76 O 0.25002 0.27469 0.17095
 O77 O 0.27683 0.30150 0.30053
 O78 O 0.29993 0.27669 0.27561
 O79 O 0.22279 0.30410 0.20120
 O80 O 0.19963 0.27787 0.22471
 O81 O 0.27690 0.30162 0.19882
 O82 O 0.29997 0.27673 0.22374
 O83 O 0.27689 0.19808 0.30046
 O84 O 0.29997 0.22302 0.27559
 O85 O 0.25076 0.16815 0.20697
 O86 O 0.25065 0.16806 0.29219
 O87 O 0.25057 0.33151 0.29207
 O88 O 0.25059 0.33154 0.20689
 O89 O 0.23300 0.28822 0.24959
 O90 O 0.23306 0.21139 0.24955
 O91 O 0.26631 0.28801 0.24963
 O92 O 0.23206 0.24982 0.21242
 O93 O 0.19968 0.22171 0.22466
 O94 O 0.22289 0.19560 0.20114
 O95 O 0.26774 0.24988 0.21224
 O96 O 0.26765 0.24980 0.28698
 O97 O 0.26638 0.21163 0.24960
 O98 O 0.23198 0.24975 0.28670
 Zr99 Zr 0.24988 0.21369 0.21339
 Zr100 Zr 0.24974 0.28595 0.28580
 Zr101 Zr 0.21645 0.24979 0.24954
 Zr102 Zr 0.24980 0.28600 0.21342
 Zr103 Zr 0.24979 0.21360 0.28576
 Zr104 Zr 0.28311 0.24985 0.24963
 H105 H 0.27412 0.30617 0.24965
 H106 H 0.22335 0.24984 0.19602
 H107 H 0.27422 0.19350 0.24961
 H108 H 0.22324 0.24970 0.30308
 H109 H 0.24856 0.15935 0.22551
 H110 H 0.24874 0.15929 0.27360
 H111 H 0.24915 0.34033 0.22557
 H112 H 0.24786 0.34024 0.27365
 C113 C 0.50010 -0.00102 0.09125
 C114 C 0.49994 -0.00123 -0.09084
 C115 C 0.54555 0.04675 0.04246
 C116 C 0.54564 -0.04901 0.04283
 C117 C 0.54562 0.04659 -0.04276
 C118 C 0.45559 0.04428 -0.04447
 C119 C 0.45559 -0.04667 -0.04430
 C120 C 0.45563 0.04448 0.04491
 C121 C 0.54560 -0.04905 -0.04253
 C122 C 0.45550 -0.04678 0.04522
 O123 O 0.52765 0.05266 -0.04875
 O124 O 0.55076 0.02676 -0.02499
 O125 O 0.52764 -0.05514 -0.04849
 O126 O 0.55075 -0.02919 -0.02485
 O127 O 0.47346 -0.05291 0.05120
 O128 O 0.45041 -0.02802 0.02642
 O129 O 0.50022 -0.02609 -0.07830
 O130 O 0.50022 0.02365 -0.07837
 O131 O 0.50035 -0.02591 0.07881
 O132 O 0.50037 0.02382 0.07868
 O133 O 0.47345 0.05050 -0.05070
 O134 O 0.45040 0.02565 -0.02567
 O135 O 0.52766 0.05300 0.04858
 O136 O 0.55080 0.02682 0.02497
 O137 O 0.47351 0.05075 0.05097
 O138 O 0.45041 0.02572 0.02629
 O139 O 0.47346 -0.05293 -0.05050
 O140 O 0.45040 -0.02802 -0.02556
 O141 O 0.49989 -0.08285 0.04299
 O142 O 0.49975 -0.08300 -0.04192
 O143 O 0.49973 0.08061 -0.04208
 O144 O 0.49994 0.08065 0.04265
 O145 O 0.51743 0.03731 0.00009
 O146 O 0.51741 -0.03965 0.00025
 O147 O 0.48402 0.03704 0.00018
 O148 O 0.51836 -0.00112 0.03724
 O149 O 0.55077 -0.02913 0.02512
 O150 O 0.52768 -0.05514 0.04884
 O151 O 0.48274 -0.00111 0.03762
 O152 O 0.48270 -0.00120 -0.03701
 O153 O 0.48402 -0.03938 0.00033
 O154 O 0.51831 -0.00121 -0.03692
 Zr155 Zr 0.50060 -0.03732 0.03643
 Zr156 Zr 0.50058 0.03500 -0.03599
 Zr157 Zr 0.53394 -0.00117 0.00011
 Zr158 Zr 0.50061 0.03509 0.03627
 Zr159 Zr 0.50057 -0.03740 -0.03585
 Zr160 Zr 0.46726 -0.00117 0.00034
 H161 H 0.47619 0.05518 0.00014
 H162 H 0.52707 -0.00110 0.05364
 H163 H 0.47619 -0.05752 0.00039
 H164 H 0.52698 -0.00124 -0.05337
 H165 H 0.50115 -0.09165 0.02429
 H166 H 0.50316 -0.09164 -0.02370
 H167 H 0.50038 0.08939 0.02384
 H168 H 0.50361 0.08923 -0.02404
 C169 C 0.75087 0.24963 0.15934
 C170 C 0.75070 0.24910 0.34142
 C171 C 0.70532 0.29712 0.20774
 C172 C 0.70547 0.20142 0.20781
 C173 C 0.70530 0.29710 0.29281
 C174 C 0.79520 0.29461 0.29532
 C175 C 0.79541 0.20404 0.29540
 C176 C 0.79521 0.29473 0.20543
 C177 C 0.70544 0.20135 0.29275
 C178 C 0.79537 0.20424 0.20541
 O179 O 0.72318 0.30335 0.29892
 O180 O 0.70007 0.27720 0.27528
 O181 O 0.72332 0.19520 0.29894
 O182 O 0.70016 0.22121 0.27519
 O183 O 0.77751 0.19790 0.19934
 O184 O 0.80056 0.22274 0.22429
 O185 O 0.75051 0.22426 0.32888
 O186 O 0.75043 0.27399 0.32893
 O187 O 0.75064 0.22473 0.17181
 O188 O 0.75057 0.27447 0.17186
 O189 O 0.77732 0.30089 0.30137
 O190 O 0.80045 0.27613 0.27646
 O191 O 0.72321 0.30332 0.20157
 O192 O 0.70008 0.27728 0.22536
 O193 O 0.77734 0.30102 0.19936
 O194 O 0.80045 0.27623 0.22431
 O195 O 0.77747 0.19781 0.30135
 O196 O 0.80049 0.22262 0.27645
 O197 O 0.75119 0.16769 0.20769
 O198 O 0.75132 0.16746 0.29244
 O199 O 0.75092 0.33100 0.29305
 O200 O 0.75115 0.33130 0.20851
 O201 O 0.73342 0.28780 0.25040
 O202 O 0.73353 0.21086 0.25030
 O203 O 0.76685 0.28759 0.25041
 O204 O 0.73258 0.24938 0.21327
 O205 O 0.70016 0.22130 0.22533
 O206 O 0.72337 0.19524 0.20174
 O207 O 0.76817 0.24947 0.21310
 O208 O 0.76814 0.24931 0.28766
 O209 O 0.76695 0.21113 0.25032
 O210 O 0.73253 0.24923 0.28740
 Zr211 Zr 0.75037 0.21322 0.21419
 Zr212 Zr 0.75024 0.28547 0.28653
 Zr213 Zr 0.71694 0.24929 0.25031
 Zr214 Zr 0.75027 0.28564 0.21428
 Zr215 Zr 0.75034 0.21307 0.28644
 Zr216 Zr 0.78363 0.24940 0.25038
 H217 H 0.77469 0.30572 0.25041
 H218 H 0.72389 0.24937 0.19684
 H219 H 0.77484 0.19304 0.25034
 H220 H 0.72382 0.24920 0.30381
 H221 H 0.75030 0.15888 0.22643
 H222 H 0.74770 0.15885 0.27430
 H223 H 0.74699 0.33979 0.22647
 H224 H 0.75083 0.33980 0.27426
 C225 C 0.00012 0.50027 0.09081
 C226 C 0.00008 0.50024 -0.09175
 C227 C -0.04511 0.45206 0.04187
 C228 C -0.04516 0.54831 0.04187
 C229 C -0.04515 0.45215 -0.04255
 C230 C 0.04472 0.45510 -0.04527
 C231 C 0.04469 0.54548 -0.04531
 C232 C 0.04475 0.45502 0.04454
 C233 C -0.04516 0.54839 -0.04249
 C234 C 0.04473 0.54558 0.04452
 O235 O -0.02727 0.44606 -0.04879
 O236 O -0.05042 0.47215 -0.02514
 O237 O -0.02728 0.55454 -0.04870
 O238 O -0.05043 0.52832 -0.02514
 O239 O 0.02685 0.55185 0.05063
 O240 O 0.04994 0.52707 0.02566
 O241 O -0.00014 0.52504 -0.07903
 O242 O -0.00011 0.47542 -0.07900
 O243 O -0.00010 0.52514 0.07827
 O244 O -0.00010 0.47541 0.07828
 O245 O 0.02686 0.44880 -0.05139
 O246 O 0.04993 0.47356 -0.02639
 O247 O -0.02722 0.44594 0.04804
 O248 O -0.05040 0.47212 0.02453
 O249 O 0.02689 0.44869 0.05064
 O250 O 0.04995 0.47355 0.02567
 O251 O 0.02683 0.55178 -0.05142
 O252 O 0.04991 0.52702 -0.02641
 O253 O 0.00066 0.58202 0.04198
 O254 O 0.00060 0.58194 -0.04309
 O255 O 0.00072 0.41853 -0.04273
 O256 O 0.00067 0.41854 0.04231
 O257 O -0.01701 0.46182 -0.00032
 O258 O -0.01704 0.53866 -0.00037
 O259 O 0.01633 0.46207 -0.00035
 O260 O -0.01802 0.50025 0.03678
 O261 O -0.05043 0.52829 0.02450
 O262 O -0.02728 0.55444 0.04808
 O263 O 0.01762 0.50027 0.03698
 O264 O 0.01762 0.50027 -0.03769
 O265 O 0.01630 0.53849 -0.00040
 O266 O -0.01804 0.50025 -0.03748
 Zr267 Zr -0.00025 0.53645 0.03580
 Zr268 Zr -0.00025 0.46409 -0.03652
 Zr269 Zr -0.03360 0.50023 -0.00033
 Zr270 Zr -0.00022 0.46408 0.03584
 Zr271 Zr -0.00027 0.53641 -0.03656
 Zr272 Zr 0.03306 0.50029 -0.00035
 H273 H 0.02420 0.44396 -0.00035
 H274 H -0.02675 0.50022 0.05317
 H275 H 0.02416 0.55661 -0.00041
 H276 H -0.02677 0.50026 -0.05386
 H277 H -0.00222 0.59073 0.02359
 H278 H -0.00088 0.59075 -0.02443
 H279 H -0.00089 0.40975 0.02366
 H280 H -0.00215 0.40980 -0.02435
 C281 C 0.25056 0.75049 0.15877
 C282 C 0.25035 0.75079 0.34088
 C283 C 0.20527 0.79894 0.20754
 C284 C 0.20502 0.70276 0.20744
 C285 C 0.20509 0.79886 0.29195
 C286 C 0.29496 0.79599 0.29450
 C287 C 0.29486 0.70501 0.29458
 C288 C 0.29520 0.79600 0.20509
 C289 C 0.20496 0.70269 0.29207
 C290 C 0.29491 0.70494 0.20523
 O291 O 0.22298 0.80493 0.29817
 O292 O 0.19981 0.77887 0.27455
 O293 O 0.22284 0.69651 0.29826
 O294 O 0.19973 0.72273 0.27465
 O295 O 0.27704 0.69877 0.19907
 O296 O 0.30014 0.72359 0.22393
 O297 O 0.25009 0.72591 0.32841
 O298 O 0.25016 0.77563 0.32832
 O299 O 0.25026 0.72565 0.17132
 O300 O 0.25036 0.77537 0.17122
 O301 O 0.27709 0.80229 0.30063
 O302 O 0.30018 0.77732 0.27580
 O303 O 0.22317 0.80501 0.20138
 O304 O 0.19992 0.77890 0.22488
 O305 O 0.27734 0.80230 0.19891
 O306 O 0.30032 0.77729 0.22385
 O307 O 0.27698 0.69884 0.30073
 O308 O 0.30012 0.72365 0.27585
 O309 O 0.25077 0.66882 0.20764
 O310 O 0.25061 0.66897 0.29264
 O311 O 0.25091 0.83245 0.29199
 O312 O 0.25100 0.83232 0.20695
 O313 O 0.23327 0.78911 0.24970
 O314 O 0.23312 0.71224 0.24986
 O315 O 0.26664 0.78881 0.24977
 O316 O 0.23228 0.75070 0.21268
 O317 O 0.19977 0.72276 0.22487
 O318 O 0.22291 0.69658 0.20128
 O319 O 0.26793 0.75052 0.21249
 O320 O 0.26783 0.75062 0.28714
 O321 O 0.26650 0.71240 0.24989
 O322 O 0.23217 0.75073 0.28689
 Zr323 Zr 0.24996 0.71441 0.21373
 Zr324 Zr 0.25000 0.78687 0.28588
 Zr325 Zr 0.21663 0.75073 0.24976
 Zr326 Zr 0.25015 0.78681 0.21359
 Zr327 Zr 0.24990 0.71449 0.28602
 Zr328 Zr 0.28333 0.75054 0.24983
 H329 H 0.27450 0.80691 0.24975
 H330 H 0.22357 0.75074 0.19628
 H331 H 0.27429 0.69422 0.24992
 H332 H 0.22343 0.75076 0.30327
 H333 H 0.24757 0.66017 0.22594
 H334 H 0.24956 0.66014 0.27393
 H335 H 0.25002 0.84117 0.22566
 H336 H 0.24788 0.84113 0.27365
 C337 C 0.49947 0.49998 0.09117
 C338 C 0.49966 0.50000 -0.09093
 C339 C 0.54499 0.54787 0.04260
 C340 C 0.54502 0.45222 0.04284
 C341 C 0.54503 0.54785 -0.04228
 C342 C 0.45516 0.54556 -0.04464
 C343 C 0.45515 0.45447 -0.04450
 C344 C 0.45511 0.54554 0.04470
 C345 C 0.54501 0.45204 -0.04209
 C346 C 0.45514 0.45460 0.04483
 O347 O 0.52716 0.55407 -0.04844
 O348 O 0.55029 0.52795 -0.02474
 O349 O 0.52713 0.44582 -0.04821
 O350 O 0.55027 0.47198 -0.02466
 O351 O 0.47299 0.44835 0.05103
 O352 O 0.44994 0.47323 0.02607
 O353 O 0.49991 0.47514 -0.07838
 O354 O 0.49991 0.52486 -0.07845
 O355 O 0.49974 0.47512 0.07869
 O356 O 0.49974 0.52485 0.07864
 O357 O 0.47303 0.55180 -0.05078
 O358 O 0.44993 0.52689 -0.02592
 O359 O 0.52710 0.55408 0.04871
 O360 O 0.55026 0.52799 0.02509
 O361 O 0.47297 0.55178 0.05088
 O362 O 0.44991 0.52688 0.02600
 O363 O 0.47302 0.44821 -0.05061
 O364 O 0.44993 0.47319 -0.02584
 O365 O 0.49924 0.41820 0.04235
 O366 O 0.49941 0.41828 -0.04245
 O367 O 0.49934 0.58175 -0.04248
 O368 O 0.49927 0.58178 0.04254
 O369 O 0.51691 0.53847 0.00011
 O370 O 0.51692 0.46154 0.00019
 O371 O 0.48354 0.53824 0.00007
 O372 O 0.51783 0.50002 0.03725
 O373 O 0.55028 0.47203 0.02520
 O374 O 0.52713 0.44606 0.04900
 O375 O 0.48221 0.50002 0.03740
 O376 O 0.48225 0.50002 -0.03724
 O377 O 0.48354 0.46182 0.00016
 O378 O 0.51788 0.49999 -0.03693
 Zr379 Zr 0.50009 0.46381 0.03630
 Zr380 Zr 0.50012 0.53620 -0.03605
 Zr381 Zr 0.53345 0.49999 0.00019
 Zr382 Zr 0.50008 0.53622 0.03623
 Zr383 Zr 0.50011 0.46381 -0.03596
 Zr384 Zr 0.46679 0.50004 0.00008
 H385 H 0.47572 0.55640 0.00005
 H386 H 0.52650 0.50004 0.05369
 H387 H 0.47571 0.44368 0.00019
 H388 H 0.52660 0.49997 -0.05334
 H389 H 0.50296 0.40960 0.02424
 H390 H 0.49984 0.40949 -0.02367
 H391 H 0.50177 0.59052 0.02406
 H392 H 0.50152 0.59051 -0.02394
 C393 C 0.75039 0.75040 0.15882
 C394 C 0.75029 0.75060 0.34090
 C395 C 0.70491 0.79817 0.20705
 C396 C 0.70494 0.70250 0.20756
 C397 C 0.70495 0.79854 0.29211
 C398 C 0.79481 0.79578 0.29462
 C399 C 0.79479 0.70528 0.29493
 C400 C 0.79483 0.79560 0.20473
 C401 C 0.70490 0.70280 0.29254
 C402 C 0.79481 0.70512 0.20505
 O403 O 0.72283 0.80477 0.29818
 O404 O 0.69967 0.77858 0.27469
 O405 O 0.72278 0.69665 0.29874
 O406 O 0.69964 0.72259 0.27488
 O407 O 0.77695 0.69878 0.19903
 O408 O 0.80004 0.72367 0.22385
 O409 O 0.75005 0.72571 0.32846
 O410 O 0.75004 0.77544 0.32832
 O411 O 0.75011 0.72556 0.17140
 O412 O 0.75014 0.77530 0.17125
 O413 O 0.77694 0.80214 0.30066
 O414 O 0.80003 0.77723 0.27582
 O415 O 0.72280 0.80431 0.20085
 O416 O 0.69965 0.77843 0.22478
 O417 O 0.77696 0.80191 0.19862
 O418 O 0.80003 0.77715 0.22368
 O419 O 0.77692 0.69902 0.30105
 O420 O 0.80002 0.72373 0.27599
 O421 O 0.75058 0.66868 0.20745
 O422 O 0.75074 0.66873 0.29210
 O423 O 0.75058 0.83230 0.29225
 O424 O 0.75077 0.83229 0.20774
 O425 O 0.73302 0.78897 0.24975
 O426 O 0.73301 0.71204 0.24995
 O427 O 0.76645 0.78870 0.24974
 O428 O 0.73211 0.75043 0.21278
 O429 O 0.69967 0.72247 0.22500
 O430 O 0.72283 0.69625 0.20149
 O431 O 0.76770 0.75042 0.21257
 O432 O 0.76769 0.75054 0.28713
 O433 O 0.76643 0.71225 0.24995
 O434 O 0.73208 0.75057 0.28691
 Zr435 Zr 0.74985 0.71423 0.21382
 Zr436 Zr 0.74984 0.78675 0.28588
 Zr437 Zr 0.71648 0.75051 0.24984
 Zr438 Zr 0.74985 0.78666 0.21363
 Zr439 Zr 0.74983 0.71434 0.28607
 Zr440 Zr 0.78317 0.75046 0.24984
 H441 H 0.77432 0.80680 0.24967
 H442 H 0.72342 0.75036 0.19636
 H443 H 0.77429 0.69413 0.25001
 H444 H 0.72338 0.75064 0.30333
 H445 H 0.75023 0.65994 0.22626
 H446 H 0.74681 0.66012 0.27409
 H447 H 0.74656 0.84084 0.22565
 H448 H 0.75066 0.84103 0.27342
 C449 C 0.00012 0.00056 0.40864
 C450 C -0.00012 0.00059 0.59102
 C451 C -0.04529 0.04855 0.45733
 C452 C -0.04519 -0.04762 0.45766
 C453 C -0.04532 0.04874 0.54182
 C454 C 0.04455 0.04586 0.54474
 C455 C 0.04456 -0.04458 0.54488
 C456 C 0.04459 0.04576 0.45486
 C457 C -0.04530 -0.04750 0.54199
 C458 C 0.04469 -0.04463 0.45503
 O459 O -0.02745 0.05490 0.54803
 O460 O -0.05057 0.02867 0.52450
 O461 O -0.02743 -0.05362 0.54826
 O462 O -0.05056 -0.02748 0.52458
 O463 O 0.02683 -0.05097 0.44891
 O464 O 0.04986 -0.02613 0.47389
 O465 O -0.00032 -0.02427 0.57850
 O466 O -0.00034 0.02545 0.57846
 O467 O -0.00011 -0.02429 0.42122
 O468 O -0.00014 0.02544 0.42113
 O469 O 0.02668 0.05218 0.55080
 O470 O 0.04978 0.02736 0.52589
 O471 O -0.02740 0.05467 0.45110
 O472 O -0.05055 0.02860 0.47481
 O473 O 0.02674 0.05206 0.44871
 O474 O 0.04979 0.02733 0.47380
 O475 O 0.02670 -0.05089 0.55097
 O476 O 0.04979 -0.02611 0.52597
 O477 O 0.00061 -0.08116 0.45732
 O478 O 0.00054 -0.08114 0.54237
 O479 O 0.00041 0.08232 0.54240
 O480 O 0.00057 0.08236 0.45746
 O481 O -0.01717 0.03902 0.49975
 O482 O -0.01713 -0.03784 0.49984
 O483 O 0.01617 0.03881 0.49979
 O484 O -0.01811 0.00055 0.46265
 O485 O -0.05049 -0.02755 0.47496
 O486 O -0.02730 -0.05375 0.45149
 O487 O 0.01752 0.00059 0.46253
 O488 O 0.01745 0.00061 0.53718
 O489 O 0.01622 -0.03763 0.49990
 O490 O -0.01819 0.00060 0.53691
 Zr491 Zr -0.00030 -0.03562 0.46369
 Zr492 Zr -0.00042 0.03679 0.53596
 Zr493 Zr -0.03371 0.00058 0.49975
 Zr494 Zr -0.00037 0.03676 0.46359
 Zr495 Zr -0.00040 -0.03558 0.53604
 Zr496 Zr 0.03293 0.00060 0.49987
 H497 H 0.02403 0.05692 0.49976
 H498 H -0.02682 0.00050 0.44625
 H499 H 0.02409 -0.05573 0.49994
 H500 H -0.02695 0.00062 0.55328
 H501 H -0.00117 -0.08994 0.47595
 H502 H -0.00214 -0.08988 0.52395
 H503 H -0.00284 0.09101 0.47567
 H504 H -0.00050 0.09111 0.52364
 C505 C 0.25016 0.24938 0.84196
 C506 C 0.25020 0.24925 0.65956
 C507 C 0.20483 0.20127 0.79303
 C508 C 0.20492 0.29757 0.79280
 C509 C 0.20483 0.20129 0.70858
 C510 C 0.29471 0.20375 0.70611
 C511 C 0.29479 0.29469 0.70598
 C512 C 0.29475 0.20371 0.79546
 C513 C 0.20490 0.29744 0.70849
 C514 C 0.29479 0.29478 0.79534
 O515 O 0.22271 0.19513 0.70237
 O516 O 0.19958 0.22131 0.72597
 O517 O 0.22279 0.30352 0.70225
 O518 O 0.19962 0.27744 0.72591
 O519 O 0.27693 0.30104 0.80151
 O520 O 0.29999 0.27608 0.77664
 O521 O 0.24999 0.27411 0.67207
 O522 O 0.24996 0.22439 0.67213
 O523 O 0.24995 0.27422 0.82937
 O524 O 0.24993 0.22450 0.82947
 O525 O 0.27684 0.19754 0.69995
 O526 O 0.29993 0.22238 0.72483
 O527 O 0.22271 0.19511 0.79925
 O528 O 0.19959 0.22132 0.77564
 O529 O 0.27688 0.19751 0.80167
 O530 O 0.29995 0.22237 0.77671
 O531 O 0.27693 0.30093 0.69979
 O532 O 0.29998 0.27605 0.72475
 O533 O 0.25065 0.33103 0.79334
 O534 O 0.25070 0.33101 0.70815
 O535 O 0.25059 0.16753 0.70837
 O536 O 0.25055 0.16760 0.79355
 O537 O 0.23298 0.21089 0.75083
 O538 O 0.23303 0.28774 0.75071
 O539 O 0.26629 0.21109 0.75081
 O540 O 0.23200 0.24935 0.78791
 O541 O 0.19964 0.27748 0.77553
 O542 O 0.22280 0.30368 0.79900
 O543 O 0.26767 0.24929 0.78814
 O544 O 0.26767 0.24924 0.71341
 O545 O 0.26635 0.28747 0.75070
 O546 O 0.23200 0.24931 0.71363
 Zr547 Zr 0.24981 0.28549 0.78689
 Zr548 Zr 0.24975 0.21310 0.71463
 Zr549 Zr 0.21644 0.24935 0.75077
 Zr550 Zr 0.24976 0.21314 0.78702
 Zr551 Zr 0.24981 0.28545 0.71452
 Zr552 Zr 0.28309 0.24925 0.75076
 H553 H 0.27411 0.19293 0.75082
 H554 H 0.22326 0.24939 0.80430
 H555 H 0.27419 0.30560 0.75066
 H556 H 0.22328 0.24932 0.69724
 H557 H 0.24918 0.33982 0.77466
 H558 H 0.24809 0.33976 0.72659
 H559 H 0.24883 0.15880 0.77492
 H560 H 0.24804 0.15881 0.72685
 C561 C 0.49957 0.00026 0.40903
 C562 C 0.49939 0.00009 0.59114
 C563 C 0.54494 -0.04756 0.45761
 C564 C 0.54496 0.04811 0.45778
 C565 C 0.54480 -0.04781 0.54245
 C566 C 0.45496 -0.04525 0.54459
 C567 C 0.45500 0.04566 0.54471
 C568 C 0.45509 -0.04514 0.45528
 C569 C 0.54486 0.04794 0.54262
 C570 C 0.45510 0.04583 0.45536
 O571 O 0.52692 -0.05404 0.54853
 O572 O 0.55010 -0.02785 0.52500
 O573 O 0.52697 0.05416 0.54875
 O574 O 0.55013 0.02809 0.52507
 O575 O 0.47297 0.05209 0.44923
 O576 O 0.44987 0.02714 0.47405
 O577 O 0.49965 0.02499 0.57865
 O578 O 0.49964 -0.02474 0.57859
 O579 O 0.49982 0.02513 0.42153
 O580 O 0.49980 -0.02460 0.42154
 O581 O 0.47281 -0.05156 0.55078
 O582 O 0.44978 -0.02655 0.52589
 O583 O 0.52706 -0.05373 0.45141
 O584 O 0.55018 -0.02775 0.47520
 O585 O 0.47295 -0.05141 0.44914
 O586 O 0.44986 -0.02650 0.47400
 O587 O 0.47286 0.05189 0.55091
 O588 O 0.44981 0.02706 0.52594
 O589 O 0.49931 0.08201 0.45748
 O590 O 0.49913 0.08193 0.54251
 O591 O 0.49917 -0.08155 0.54269
 O592 O 0.49917 -0.08152 0.45780
 O593 O 0.51679 -0.03827 0.50008
 O594 O 0.51681 0.03867 0.50011
 O595 O 0.48341 -0.03797 0.50002
 O596 O 0.51778 0.00025 0.46300
 O597 O 0.55019 0.02818 0.47528
 O598 O 0.52709 0.05437 0.45161
 O599 O 0.48217 0.00029 0.46271
 O600 O 0.48208 0.00019 0.53736
 O601 O 0.48345 0.03846 0.50006
 O602 O 0.51770 0.00015 0.53719
 Zr603 Zr 0.50004 0.03647 0.46394
 Zr604 Zr 0.49993 -0.03602 0.53618
 Zr605 Zr 0.53332 0.00019 0.50012
 Zr606 Zr 0.50002 -0.03594 0.46393
 Zr607 Zr 0.49996 0.03637 0.53623
 Zr608 Zr 0.46670 0.00027 0.50000
 H609 H 0.47558 -0.05610 0.49999
 H610 H 0.52650 0.00028 0.44660
 H611 H 0.47563 0.05662 0.50006
 H612 H 0.52638 0.00009 0.55362
 H613 H 0.50091 0.09078 0.47613
 H614 H 0.50206 0.09066 0.52415
 H615 H 0.50258 -0.09020 0.47601
 H616 H 0.50002 -0.09033 0.52394
 C617 C 0.75015 0.24947 0.84155
 C618 C 0.74992 0.24924 0.65947
 C619 C 0.70461 0.20168 0.79351
 C620 C 0.70469 0.29741 0.79285
 C621 C 0.70462 0.20130 0.70843
 C622 C 0.79447 0.20413 0.70561
 C623 C 0.79443 0.29459 0.70532
 C624 C 0.79452 0.20432 0.79547
 C625 C 0.70455 0.29703 0.70800
 C626 C 0.79455 0.29478 0.79516
 O627 O 0.72250 0.19508 0.70229
 O628 O 0.69935 0.22125 0.72587
 O629 O 0.72242 0.30320 0.70175
 O630 O 0.69931 0.27723 0.72566
 O631 O 0.77668 0.30112 0.80125
 O632 O 0.79975 0.27622 0.77635
 O633 O 0.74968 0.27414 0.67191
 O634 O 0.74968 0.22441 0.67206
 O635 O 0.74986 0.27431 0.82897
 O636 O 0.74988 0.22458 0.82912
 O637 O 0.77660 0.19773 0.69963
 O638 O 0.79969 0.22268 0.72440
 O639 O 0.72251 0.19555 0.79966
 O640 O 0.69934 0.22142 0.77580
 O641 O 0.77667 0.19799 0.80165
 O642 O 0.79970 0.22276 0.77651
 O643 O 0.77655 0.30085 0.69924
 O644 O 0.79966 0.27614 0.72424
 O645 O 0.75030 0.33119 0.79295
 O646 O 0.75035 0.33113 0.70824
 O647 O 0.75027 0.16756 0.70814
 O648 O 0.75050 0.16759 0.79265
 O649 O 0.73270 0.21087 0.75068
 O650 O 0.73270 0.28780 0.75047
 O651 O 0.76613 0.21118 0.75059
 O652 O 0.73181 0.24945 0.78767
 O653 O 0.69939 0.27741 0.77549
 O654 O 0.72257 0.30366 0.79888
 O655 O 0.76741 0.24944 0.78775
 O656 O 0.76734 0.24933 0.71318
 O657 O 0.76611 0.28764 0.75036
 O658 O 0.73174 0.24928 0.71352
 Zr659 Zr 0.74957 0.28564 0.78655
 Zr660 Zr 0.74951 0.21311 0.71451
 Zr661 Zr 0.71616 0.24932 0.75065
 Zr662 Zr 0.74955 0.21322 0.78675
 Zr663 Zr 0.74948 0.28552 0.71430
 Zr664 Zr 0.78284 0.24943 0.75042
 H665 H 0.77400 0.19308 0.75063
 H666 H 0.72314 0.24953 0.80411
 H667 H 0.77396 0.30576 0.75027
 H668 H 0.72302 0.24920 0.69713
 H669 H 0.74997 0.33994 0.77414
 H670 H 0.74651 0.33974 0.72630
 H671 H 0.74627 0.15903 0.77475
 H672 H 0.75032 0.15883 0.72696
 C673 C 0.00027 0.50004 0.40938
 C674 C 0.00016 0.50000 0.59176
 C675 C -0.04505 0.54805 0.45815
 C676 C -0.04500 0.45183 0.45842
 C677 C -0.04506 0.54822 0.54259
 C678 C 0.04481 0.54526 0.54537
 C679 C 0.04482 0.45478 0.54554
 C680 C 0.04485 0.54526 0.45551
 C681 C -0.04509 0.45196 0.54284
 C682 C 0.04487 0.45471 0.45566
 O683 O -0.02718 0.55435 0.54878
 O684 O -0.05033 0.52813 0.52529
 O685 O -0.02721 0.44585 0.54910
 O686 O -0.05034 0.47195 0.52540
 O687 O 0.02700 0.44841 0.44960
 O688 O 0.05008 0.47323 0.47450
 O689 O -0.00004 0.47513 0.57925
 O690 O -0.00006 0.52486 0.57918
 O691 O 0.00004 0.47518 0.42194
 O692 O 0.00005 0.52491 0.42188
 O693 O 0.02695 0.55156 0.55147
 O694 O 0.05004 0.52675 0.52653
 O695 O -0.02716 0.55415 0.45192
 O696 O -0.05032 0.52807 0.47562
 O697 O 0.02698 0.55155 0.44942
 O698 O 0.05007 0.52677 0.47442
 O699 O 0.02695 0.44851 0.55166
 O700 O 0.05004 0.47325 0.52662
 O701 O 0.00075 0.41829 0.45798
 O702 O 0.00079 0.41825 0.54297
 O703 O 0.00068 0.58172 0.54314
 O704 O 0.00082 0.58180 0.45822
 O705 O -0.01693 0.53844 0.50050
 O706 O -0.01692 0.46159 0.50058
 O707 O 0.01643 0.53821 0.50050
 O708 O -0.01790 0.50000 0.46342
 O709 O -0.05030 0.47191 0.47573
 O710 O -0.02711 0.44569 0.45225
 O711 O 0.01775 0.50001 0.46321
 O712 O 0.01771 0.50001 0.53786
 O713 O 0.01644 0.46180 0.50059
 O714 O -0.01795 0.50002 0.53766
 Zr715 Zr -0.00011 0.46382 0.46441
 Zr716 Zr -0.00016 0.53619 0.53668
 Zr717 Zr -0.03349 0.50001 0.50052
 Zr718 Zr -0.00012 0.53620 0.46433
 Zr719 Zr -0.00016 0.46383 0.53677
 Zr720 Zr 0.03319 0.50000 0.50052
 H721 H 0.02429 0.55632 0.50046
 H722 H -0.02662 0.49997 0.44703
 H723 H 0.02430 0.44368 0.50062
 H724 H -0.02669 0.50006 0.55404
 H725 H -0.00050 0.40950 0.47670
 H726 H -0.00233 0.40957 0.52468
 H727 H -0.00257 0.59045 0.47644
 H728 H -0.00019 0.59051 0.52439
 C729 C 0.25020 0.75048 0.84103
 C730 C 0.25012 0.75069 0.65892
 C731 C 0.20484 0.70235 0.79211
 C732 C 0.20477 0.79855 0.79242
 C733 C 0.20479 0.70255 0.70785
 C734 C 0.29467 0.70511 0.70523
 C735 C 0.29464 0.79610 0.70534
 C736 C 0.29471 0.70496 0.79459
 C737 C 0.20478 0.79879 0.70792
 C738 C 0.29468 0.79595 0.79469
 O739 O 0.22267 0.69643 0.70161
 O740 O 0.19952 0.72257 0.72522
 O741 O 0.22267 0.80495 0.70173
 O742 O 0.19951 0.77871 0.72526
 O743 O 0.27681 0.80220 0.80088
 O744 O 0.29987 0.77732 0.77593
 O745 O 0.24987 0.77553 0.67145
 O746 O 0.24989 0.72581 0.67141
 O747 O 0.24995 0.77536 0.82855
 O748 O 0.24994 0.72563 0.82851
 O749 O 0.27680 0.69890 0.69908
 O750 O 0.29988 0.72374 0.72397
 O751 O 0.22272 0.69621 0.79828
 O752 O 0.19955 0.72247 0.77482
 O753 O 0.27684 0.69872 0.80075
 O754 O 0.29991 0.72367 0.77588
 O755 O 0.27678 0.80237 0.69921
 O756 O 0.29986 0.77740 0.72403
 O757 O 0.25058 0.83230 0.79237
 O758 O 0.25047 0.83234 0.70735
 O759 O 0.25055 0.66889 0.70744
 O760 O 0.25053 0.66880 0.79262
 O761 O 0.23292 0.71216 0.74999
 O762 O 0.23289 0.78904 0.75005
 O763 O 0.26627 0.71234 0.74995
 O764 O 0.23194 0.75052 0.78713
 O765 O 0.19951 0.77860 0.77496
 O766 O 0.22266 0.80465 0.79863
 O767 O 0.26758 0.75052 0.78731
 O768 O 0.26757 0.75062 0.71264
 O769 O 0.26625 0.78876 0.75001
 O770 O 0.23191 0.75063 0.71290
 Zr771 Zr 0.24970 0.78673 0.78617
 Zr772 Zr 0.24970 0.71444 0.71382
 Zr773 Zr 0.21636 0.75060 0.75004
 Zr774 Zr 0.24973 0.71433 0.78611
 Zr775 Zr 0.24968 0.78681 0.71388
 Zr776 Zr 0.28301 0.75054 0.74997
 H777 H 0.27410 0.69419 0.74992
 H778 H 0.22322 0.75046 0.80353
 H779 H 0.27408 0.80690 0.75002
 H780 H 0.22318 0.75067 0.69652
 H781 H 0.24743 0.84101 0.77408
 H782 H 0.24946 0.84113 0.72608
 H783 H 0.24900 0.66000 0.77397
 H784 H 0.24803 0.66011 0.72591
 C785 C 0.49942 0.49967 0.40902
 C786 C 0.49941 0.49976 0.59111
 C787 C 0.54492 0.45196 0.45749
 C788 C 0.54486 0.54767 0.45760
 C789 C 0.54484 0.45178 0.54247
 C790 C 0.45497 0.45415 0.54476
 C791 C 0.45496 0.54521 0.54475
 C792 C 0.45502 0.45422 0.45535
 C793 C 0.54485 0.54755 0.54256
 C794 C 0.45497 0.54524 0.45539
 O795 O 0.52695 0.44556 0.54856
 O796 O 0.55013 0.47172 0.52499
 O797 O 0.52696 0.55370 0.54872
 O798 O 0.55013 0.52771 0.52498
 O799 O 0.47284 0.55150 0.44925
 O800 O 0.44976 0.52655 0.47410
 O801 O 0.49965 0.52463 0.57859
 O802 O 0.49967 0.47490 0.57862
 O803 O 0.49968 0.52453 0.42152
 O804 O 0.49969 0.47480 0.42153
 O805 O 0.47284 0.44792 0.55089
 O806 O 0.44975 0.47284 0.52605
 O807 O 0.52704 0.44579 0.45132
 O808 O 0.55016 0.47177 0.47509
 O809 O 0.47289 0.44799 0.44919
 O810 O 0.44979 0.47286 0.47409
 O811 O 0.47283 0.55144 0.55091
 O812 O 0.44975 0.52655 0.52604
 O813 O 0.49922 0.58145 0.45736
 O814 O 0.49907 0.58152 0.54222
 O815 O 0.49925 0.41799 0.54278
 O816 O 0.49915 0.41790 0.45799
 O817 O 0.51678 0.46127 0.50008
 O818 O 0.51676 0.53819 0.50003
 O819 O 0.48339 0.46151 0.50008
 O820 O 0.51772 0.49973 0.46297
 O821 O 0.55014 0.52775 0.47510
 O822 O 0.52697 0.55388 0.45150
 O823 O 0.48209 0.49971 0.46276
 O824 O 0.48206 0.49971 0.53739
 O825 O 0.48337 0.53792 0.50004
 O826 O 0.51769 0.49972 0.53713
 Zr827 Zr 0.49995 0.53591 0.46390
 Zr828 Zr 0.49994 0.46353 0.53622
 Zr829 Zr 0.53332 0.49973 0.50005
 Zr830 Zr 0.49998 0.46351 0.46395
 Zr831 Zr 0.49993 0.53592 0.53617
 Zr832 Zr 0.46662 0.49970 0.50007
 H833 H 0.47557 0.44336 0.50007
 H834 H 0.52641 0.49977 0.44654
 H835 H 0.47554 0.55606 0.50005
 H836 H 0.52638 0.49969 0.55355
 H837 H 0.50003 0.59024 0.47611
 H838 H 0.50257 0.59015 0.52402
 H839 H 0.50287 0.40930 0.47612
 H840 H 0.49971 0.40920 0.52401
 C841 C 0.75019 0.75034 0.84101
 C842 C 0.75001 0.75062 0.65893
 C843 C 0.70480 0.70234 0.79236
 C844 C 0.70464 0.79802 0.79285
 C845 C 0.70468 0.70273 0.70746
 C846 C 0.79455 0.70540 0.70485
 C847 C 0.79451 0.79587 0.70506
 C848 C 0.79464 0.70518 0.79469
 C849 C 0.70466 0.79848 0.70784
 C850 C 0.79455 0.79562 0.79491
 O851 O 0.72256 0.69660 0.70122
 O852 O 0.69942 0.72250 0.72510
 O853 O 0.72254 0.80474 0.70170
 O854 O 0.69941 0.77849 0.72528
 O855 O 0.77669 0.80191 0.80107
 O856 O 0.79976 0.77720 0.77597
 O857 O 0.74975 0.77546 0.67148
 O858 O 0.74980 0.72572 0.67140
 O859 O 0.74991 0.77524 0.82854
 O860 O 0.74993 0.72551 0.82846
 O861 O 0.77669 0.69909 0.69878
 O862 O 0.79977 0.72385 0.72375
 O863 O 0.72269 0.69613 0.79841
 O864 O 0.69949 0.72231 0.77495
 O865 O 0.77679 0.69880 0.80078
 O866 O 0.79983 0.72375 0.77586
 O867 O 0.77664 0.80221 0.69905
 O868 O 0.79975 0.77731 0.72386
 O869 O 0.75047 0.83225 0.79201
 O870 O 0.75026 0.83230 0.70746
 O871 O 0.75054 0.66873 0.70782
 O872 O 0.75046 0.66865 0.79250
 O873 O 0.73281 0.71199 0.74997
 O874 O 0.73275 0.78892 0.75008
 O875 O 0.76622 0.71226 0.74987
 O876 O 0.73189 0.75035 0.78710
 O877 O 0.69940 0.77828 0.77517
 O878 O 0.72253 0.80421 0.79899
 O879 O 0.76748 0.75043 0.78721
 O880 O 0.76742 0.75057 0.71265
 O881 O 0.76617 0.78872 0.75000
 O882 O 0.73182 0.75054 0.71296
 Zr883 Zr 0.74959 0.78662 0.78616
 Zr884 Zr 0.74960 0.71434 0.71380
 Zr885 Zr 0.71625 0.75043 0.75008
 Zr886 Zr 0.74967 0.71419 0.78605
 Zr887 Zr 0.74956 0.78675 0.71391
 Zr888 Zr 0.78292 0.75051 0.74990
 H889 H 0.77410 0.69415 0.74981
 H890 H 0.72320 0.75025 0.80354
 H891 H 0.77402 0.80684 0.75003
 H892 H 0.72311 0.75061 0.69656
 H893 H 0.74628 0.84080 0.77407
 H894 H 0.75031 0.84103 0.72627
 H895 H 0.75015 0.65990 0.77370
 H896 H 0.74665 0.66011 0.72586
 C897 C 0.00142 0.02624 0.16486
 C898 C 0.00146 -0.00016 0.17953
 C899 C 0.00137 -0.02661 0.16497
 C900 C 0.00119 -0.02669 0.13587
 C901 C 0.00108 -0.00025 0.12087
 C902 C 0.00123 0.02624 0.13576
 C903 C 0.00151 -0.00009 0.20951
 C904 C 0.00149 0.00001 0.23461
 C905 C 0.00141 0.00014 0.26401
 C906 C 0.00129 0.00025 0.28911
 C907 C 0.00109 0.00034 0.31909
 C908 C 0.00098 -0.02604 0.33379
 C909 C 0.00069 -0.02600 0.36289
 C910 C 0.00049 0.00050 0.37775
 C911 C 0.00064 0.02693 0.36273
 C912 C 0.00094 0.02681 0.33362
 H913 H 0.00149 0.04685 0.17591
 H914 H 0.00141 -0.04718 0.17612
 H915 H 0.00109 -0.04748 0.12515
 H916 H 0.00118 0.04700 0.12496
 H917 H 0.00110 -0.04666 0.32276
 H918 H 0.00060 -0.04675 0.37372
 H919 H 0.00052 0.04773 0.37343
 H920 H 0.00103 0.04737 0.32246
 C921 C 0.25097 0.22351 1.08572
 C922 C 0.25102 0.24990 1.07110
 C923 C 0.25090 0.27629 1.08568
 C924 C 0.25069 0.27638 1.11478
 C925 C 0.25057 0.24990 1.12999
 C926 C 0.25075 0.22342 1.11482
 C927 C 0.25112 0.24987 1.04111
 C928 C 0.25115 0.24982 1.01601
 C929 C 0.25113 0.24973 0.98661
 C930 C 0.25106 0.24965 0.96150
 C931 C 0.25093 0.24957 0.93152
 C932 C 0.25086 0.27596 0.91682
 C933 C 0.25064 0.27593 0.88772
 C934 C 0.25047 0.24943 0.87286
 C935 C 0.25058 0.22300 0.88787
 C936 C 0.25081 0.22311 0.91698
 H937 H 0.25107 0.20292 1.07462
 H938 H 0.25095 0.29687 1.07454
 H939 H 0.25058 0.29735 1.12521
 H940 H 0.25070 0.20245 1.12528
 H941 H 0.25096 0.29658 0.92786
 H942 H 0.25057 0.29668 0.87690
 H943 H 0.25048 0.20221 0.87717
 H944 H 0.25086 0.20254 0.92814
 C945 C 0.09528 0.06801 0.06923
 C946 C 0.09039 0.08760 0.09046
 C947 C 0.07080 0.09343 0.09620
 C948 C 0.05615 0.07970 0.08088
 C949 C 0.06088 0.05988 0.05951
 C950 C 0.08065 0.05423 0.05385
 C951 C 0.10542 0.10172 0.10637
 C952 C 0.11795 0.11366 0.11974
 C953 C 0.13258 0.12778 0.13534
 C954 C 0.14509 0.13999 0.14851
 C955 C 0.16009 0.15476 0.16395
 C956 C 0.15514 0.17500 0.18458
 C957 C 0.16972 0.19001 0.19898
 C958 C 0.18950 0.18497 0.19289
 C959 C 0.19430 0.16429 0.17232
 C960 C 0.17969 0.14934 0.15797
 H961 H 0.11041 0.06335 0.06461
 H962 H 0.06685 0.10855 0.11259
 H963 H 0.04112 0.08454 0.08588
 H964 H 0.08485 0.03909 0.03762
 H965 H 0.14000 0.17936 0.18938
 H966 H 0.16547 0.20571 0.21469
 H967 H 0.20935 0.15986 0.16704
 H968 H 0.18369 0.13373 0.14202
 C969 C 0.32033 0.34540 0.15374
 C970 C 0.33988 0.34025 0.16019
 C971 C 0.34473 0.32049 0.18130
 C972 C 0.33008 0.30591 0.19593
 C973 C 0.31033 0.31093 0.18963
 C974 C 0.30564 0.33087 0.16834
 C975 C 0.35496 0.35522 0.14511
 C976 C 0.36756 0.36778 0.13244
 C977 C 0.38230 0.38249 0.11759
 C978 C 0.39491 0.39504 0.10491
 C979 C 0.40999 0.40998 0.08982
 C980 C 0.42954 0.40480 0.09626
 C981 C 0.44424 0.41927 0.08163
 C982 C 0.43956 0.43916 0.06029
 C983 C 0.41981 0.44422 0.05400
 C984 C 0.40515 0.42970 0.06868
 H985 H 0.31643 0.36065 0.13742
 H986 H 0.35984 0.31635 0.18643
 H987 H 0.33424 0.29072 0.21216
 H988 H 0.29062 0.33523 0.16288
 H989 H 0.43343 0.38958 0.11262
 H990 H 0.45925 0.41489 0.08709
 H991 H 0.41566 0.45937 0.03773
 H992 H 0.39004 0.43385 0.06354
 C993 C 0.34497 0.17938 0.18119
 C994 C 0.34018 0.15956 0.16012
 C995 C 0.32061 0.15439 0.15371
 C996 C 0.30588 0.16892 0.16828
 C997 C 0.31052 0.18889 0.18954
 C998 C 0.33027 0.19395 0.19581
 C999 C 0.35531 0.14454 0.14507
 C1000 C 0.36795 0.13193 0.13243
 C1001 C 0.38273 0.11713 0.11760
 C1002 C 0.39535 0.10450 0.10495
 C1003 C 0.41046 0.08945 0.08985
 C1004 C 0.40561 0.06942 0.06900
 C1005 C 0.42027 0.05480 0.05435
 C1006 C 0.44004 0.06003 0.06036
 C1007 C 0.44473 0.08023 0.08140
 C1008 C 0.43004 0.09481 0.09601
 H1009 H 0.36007 0.18356 0.18634
 H1010 H 0.31673 0.13911 0.13742
 H1011 H 0.29088 0.16450 0.16283
 H1012 H 0.33440 0.20916 0.21200
 H1013 H 0.39050 0.06509 0.06406
 H1014 H 0.41609 0.03941 0.03833
 H1015 H 0.45976 0.08479 0.08666
 H1016 H 0.43397 0.11025 0.11213
 C1017 C 0.17944 0.35035 0.15815
 C1018 C 0.15986 0.34490 0.16425
 C1019 C 0.15498 0.32463 0.18491
 C1020 C 0.16961 0.30961 0.19922
 C1021 C 0.18937 0.31467 0.19302
 C1022 C 0.19410 0.33539 0.17242
 C1023 C 0.14479 0.35968 0.14891
 C1024 C 0.13222 0.37189 0.13584
 C1025 C 0.11751 0.38601 0.12036
 C1026 C 0.10493 0.39797 0.10708
 C1027 C 0.08987 0.41214 0.09124
 C1028 C 0.07029 0.40629 0.09701
 C1029 C 0.05561 0.42008 0.08173
 C1030 C 0.06033 0.43998 0.06040
 C1031 C 0.08009 0.44565 0.05472
 C1032 C 0.09474 0.43181 0.07005
 H1033 H 0.18338 0.36598 0.14217
 H1034 H 0.13985 0.32024 0.18980
 H1035 H 0.16541 0.29389 0.21496
 H1036 H 0.20913 0.33984 0.16706
 H1037 H 0.06635 0.39110 0.11337
 H1038 H 0.04059 0.41522 0.08674
 H1039 H 0.08428 0.46085 0.03851
 H1040 H 0.10986 0.43649 0.06540
 C1041 C 0.34475 0.17959 0.31833
 C1042 C 0.33990 0.15979 0.33941
 C1043 C 0.32033 0.15449 0.34573
 C1044 C 0.30564 0.16892 0.33104
 C1045 C 0.31034 0.18890 0.30978
 C1046 C 0.33009 0.19407 0.30361
 C1047 C 0.35498 0.14493 0.35459
 C1048 C 0.36759 0.13246 0.36734
 C1049 C 0.38233 0.11784 0.38229
 C1050 C 0.39493 0.10536 0.39505
 C1051 C 0.41001 0.09048 0.41024
 C1052 C 0.40514 0.07066 0.43129
 C1053 C 0.41978 0.05615 0.44603
 C1054 C 0.43954 0.06131 0.43988
 C1055 C 0.44425 0.08132 0.41865
 C1056 C 0.42958 0.09578 0.40396
 H1057 H 0.35986 0.18385 0.31329
 H1058 H 0.31643 0.13921 0.36203
 H1059 H 0.29062 0.16444 0.33642
 H1060 H 0.33425 0.20930 0.28741
 H1061 H 0.39002 0.06640 0.43631
 H1062 H 0.41560 0.04091 0.46220
 H1063 H 0.45928 0.08579 0.41330
 H1064 H 0.43350 0.11107 0.38768
 C1065 C 0.17932 0.35000 0.34122
 C1066 C 0.15973 0.34446 0.33527
 C1067 C 0.15485 0.32417 0.31466
 C1068 C 0.16948 0.30924 0.30025
 C1069 C 0.18925 0.31440 0.30629
 C1070 C 0.19398 0.33513 0.32685
 C1071 C 0.14468 0.35919 0.35072
 C1072 C 0.13213 0.37139 0.36389
 C1073 C 0.11748 0.38555 0.37949
 C1074 C 0.10495 0.39753 0.39286
 C1075 C 0.08992 0.41173 0.40880
 C1076 C 0.07032 0.40588 0.40317
 C1077 C 0.05568 0.41970 0.41851
 C1078 C 0.06043 0.43963 0.43976
 C1079 C 0.08022 0.44530 0.44529
 C1080 C 0.09483 0.43143 0.42991
 H1081 H 0.18327 0.36565 0.35715
 H1082 H 0.13972 0.31971 0.30988
 H1083 H 0.16529 0.29350 0.28455
 H1084 H 0.20901 0.33966 0.33210
 H1085 H 0.06635 0.39067 0.38688
 H1086 H 0.04064 0.41484 0.41360
 H1087 H 0.08443 0.46053 0.46143
 H1088 H 0.10996 0.43612 0.43444
 C1089 C 0.17938 0.14921 0.34079
 C1090 C 0.15982 0.15463 0.33458
 C1091 C 0.15496 0.17483 0.31386
 C1092 C 0.16962 0.18983 0.29958
 C1093 C 0.18936 0.18482 0.30590
 C1094 C 0.19406 0.16415 0.32655
 C1095 C 0.14473 0.13996 0.34994
 C1096 C 0.13213 0.12788 0.36305
 C1097 C 0.11740 0.11393 0.37859
 C1098 C 0.10481 0.10214 0.39194
 C1099 C 0.08973 0.08817 0.40790
 C1100 C 0.07017 0.09408 0.40211
 C1101 C 0.05548 0.08045 0.41750
 C1102 C 0.06018 0.06069 0.43894
 C1103 C 0.07993 0.05497 0.44463
 C1104 C 0.09459 0.06865 0.42920
 H1105 H 0.18328 0.13363 0.35682
 H1106 H 0.13985 0.17919 0.30890
 H1107 H 0.16545 0.20551 0.28379
 H1108 H 0.20908 0.15975 0.33199
 H1109 H 0.06626 0.10917 0.38566
 H1110 H 0.04046 0.08533 0.41248
 H1111 H 0.08409 0.03987 0.46092
 H1112 H 0.10970 0.06393 0.43384
 C1113 C 0.34468 0.32023 0.31838
 C1114 C 0.33982 0.34000 0.33945
 C1115 C 0.32023 0.34522 0.34576
 C1116 C 0.30556 0.33074 0.33109
 C1117 C 0.31028 0.31079 0.30984
 C1118 C 0.33004 0.30570 0.30367
 C1119 C 0.35489 0.35493 0.35462
 C1120 C 0.36749 0.36746 0.36737
 C1121 C 0.38222 0.38214 0.38231
 C1122 C 0.39481 0.39466 0.39505
 C1123 C 0.40989 0.40958 0.41023
 C1124 C 0.40503 0.42935 0.43131
 C1125 C 0.41968 0.44386 0.44603
 C1126 C 0.43944 0.43877 0.43986
 C1127 C 0.44415 0.41882 0.41859
 C1128 C 0.42947 0.40436 0.40391
 H1129 H 0.35980 0.31602 0.31333
 H1130 H 0.31630 0.36047 0.36205
 H1131 H 0.29053 0.33516 0.33647
 H1132 H 0.33423 0.29051 0.28748
 H1133 H 0.38991 0.43356 0.43637
 H1134 H 0.41549 0.45904 0.46223
 H1135 H 0.45918 0.41440 0.41321
 H1136 H 0.43340 0.38912 0.38762
 C1137 C 0.49918 0.02571 0.16588
 C1138 C 0.49902 -0.00066 0.18056
 C1139 C 0.49918 -0.02716 0.16613
 C1140 C 0.49951 -0.02733 0.13706
 C1141 C 0.49970 -0.00091 0.12205
 C1142 C 0.49951 0.02563 0.13682
 C1143 C 0.49881 -0.00050 0.21044
 C1144 C 0.49869 -0.00033 0.23549
 C1145 C 0.49862 -0.00013 0.26479
 C1146 C 0.49863 0.00002 0.28983
 C1147 C 0.49872 0.00012 0.31971
 C1148 C 0.49878 -0.02629 0.33434
 C1149 C 0.49902 -0.02627 0.36340
 C1150 C 0.49922 0.00024 0.37823
 C1151 C 0.49911 0.02669 0.36327
 C1152 C 0.49887 0.02659 0.33420
 H1153 H 0.49906 0.04635 0.17690
 H1154 H 0.49906 -0.04770 0.17734
 H1155 H 0.49963 -0.04815 0.12639
 H1156 H 0.49963 0.04636 0.12597
 H1157 H 0.49867 -0.04690 0.32329
 H1158 H 0.49908 -0.04703 0.37421
 H1159 H 0.49924 0.04748 0.37398
 H1160 H 0.49883 0.04715 0.32303
 C1161 C 0.75175 0.22332 1.08456
 C1162 C 0.75183 0.24978 1.07002
 C1163 C 0.75168 0.27620 1.08459
 C1164 C 0.75141 0.27619 1.11366
 C1165 C 0.75127 0.24968 1.12853
 C1166 C 0.75148 0.22323 1.11362
 C1167 C 0.75193 0.24982 1.04013
 C1168 C 0.75193 0.24982 1.01509
 C1169 C 0.75184 0.24980 0.98578
 C1170 C 0.75169 0.24976 0.96074
 C1171 C 0.75143 0.24969 0.93086
 C1172 C 0.75123 0.27610 0.91622
 C1173 C 0.75084 0.27607 0.88716
 C1174 C 0.75062 0.24955 0.87235
 C1175 C 0.75087 0.22311 0.88732
 C1176 C 0.75126 0.22322 0.91638
 H1177 H 0.75187 0.20275 1.07343
 H1178 H 0.75174 0.29680 1.07349
 H1179 H 0.75128 0.29695 1.12443
 H1180 H 0.75140 0.20244 1.12437
 H1181 H 0.75136 0.29671 0.92727
 H1182 H 0.75068 0.29682 0.87634
 H1183 H 0.75074 0.20231 0.87662
 H1184 H 0.75141 0.20266 0.92755
 C1185 C 0.59553 0.07155 0.06661
 C1186 C 0.59065 0.09173 0.08732
 C1187 C 0.57106 0.09790 0.09277
 C1188 C 0.55640 0.08369 0.07784
 C1189 C 0.56112 0.06301 0.05723
 C1190 C 0.58089 0.05728 0.05164
 C1191 C 0.60570 0.10570 0.10338
 C1192 C 0.61825 0.11727 0.11701
 C1193 C 0.63293 0.13078 0.13306
 C1194 C 0.64547 0.14236 0.14670
 C1195 C 0.66049 0.15635 0.16279
 C1196 C 0.65556 0.17639 0.18361
 C1197 C 0.67016 0.19068 0.19862
 C1198 C 0.68995 0.18514 0.19298
 C1199 C 0.69472 0.16461 0.17226
 C1200 C 0.68009 0.15036 0.15729
 H1201 H 0.61065 0.06661 0.06222
 H1202 H 0.56712 0.11349 0.10876
 H1203 H 0.54136 0.08863 0.08275
 H1204 H 0.58509 0.04154 0.03594
 H1205 H 0.64042 0.18118 0.18806
 H1206 H 0.66592 0.20630 0.21441
 H1207 H 0.70977 0.15980 0.16730
 H1208 H 0.68408 0.13489 0.14121
 C1209 C -0.17939 0.34342 0.15279
 C1210 C -0.15980 0.33762 0.15848
 C1211 C -0.15486 0.31800 0.17968
 C1212 C -0.16947 0.30416 0.19510
 C1213 C -0.18925 0.30978 0.18950
 C1214 C -0.19402 0.32963 0.16816
 C1215 C -0.14478 0.35180 0.14254
 C1216 C -0.13226 0.36377 0.12917
 C1217 C -0.11762 0.37794 0.11360
 C1218 C -0.10509 0.39018 0.10046
 C1219 C -0.09007 0.40499 0.08506
 C1220 C -0.07048 0.39953 0.09107
 C1221 C -0.05585 0.41453 0.07677
 C1222 C -0.06062 0.43529 0.05623
 C1223 C -0.08039 0.44036 0.05012
 C1224 C -0.09500 0.42530 0.06446
 H1225 H -0.18336 0.35857 0.13642
 H1226 H -0.13973 0.31336 0.18426
 H1227 H -0.16524 0.28900 0.21132
 H1228 H -0.20906 0.33444 0.16320
 H1229 H -0.06651 0.38387 0.10699
 H1230 H -0.04081 0.41008 0.08206
 H1231 H -0.08461 0.45612 0.03443
 H1232 H -0.11013 0.42969 0.05965
 C1233 C 0.93000 0.09992 0.09086
 C1234 C 0.91040 0.09446 0.08489
 C1235 C 0.90550 0.07427 0.06420
 C1236 C 0.92011 0.05936 0.04973
 C1237 C 0.93989 0.06443 0.05579
 C1238 C 0.94464 0.08506 0.07643
 C1239 C 0.89535 0.10917 0.10038
 C1240 C 0.88280 0.12133 0.11357
 C1241 C 0.86812 0.13543 0.12918
 C1242 C 0.85556 0.14735 0.14256
 C1243 C 0.84050 0.16149 0.15850
 C1244 C 0.82091 0.15563 0.15282
 C1245 C 0.80624 0.16938 0.16816
 C1246 C 0.81096 0.18924 0.18949
 C1247 C 0.83073 0.19493 0.19507
 C1248 C 0.84537 0.18113 0.17968
 H1249 H 0.93397 0.11548 0.10684
 H1250 H 0.89037 0.06987 0.05940
 H1251 H 0.91590 0.04370 0.03397
 H1252 H 0.95968 0.08952 0.08170
 H1253 H 0.81696 0.14046 0.13647
 H1254 H 0.79121 0.16450 0.16321
 H1255 H 0.83492 0.21010 0.21127
 H1256 H 0.86050 0.18583 0.18426
 C1257 C 0.67976 0.34812 0.15719
 C1258 C 0.66018 0.34213 0.16281
 C1259 C 0.65532 0.32206 0.18367
 C1260 C 0.66997 0.30777 0.19863
 C1261 C 0.68974 0.31334 0.19289
 C1262 C 0.69445 0.33387 0.17211
 C1263 C 0.64509 0.35618 0.14682
 C1264 C 0.63251 0.36784 0.13328
 C1265 C 0.61778 0.38144 0.11734
 C1266 C 0.60520 0.39310 0.10379
 C1267 C 0.59013 0.40717 0.08780
 C1268 C 0.57054 0.40124 0.09344
 C1269 C 0.55587 0.41550 0.07851
 C1270 C 0.56059 0.43598 0.05769
 C1271 C 0.58037 0.44149 0.05194
 C1272 C 0.59501 0.42719 0.06690
 H1273 H 0.68370 0.36361 0.14109
 H1274 H 0.64020 0.31726 0.18822
 H1275 H 0.66578 0.29214 0.21446
 H1276 H 0.70948 0.33870 0.16707
 H1277 H 0.56659 0.38578 0.10956
 H1278 H 0.54083 0.41072 0.08356
 H1279 H 0.58456 0.45708 0.03608
 H1280 H 0.61013 0.43194 0.06234
 C1281 C -0.15579 0.18228 0.31994
 C1282 C -0.16062 0.16229 0.34084
 C1283 C -0.18017 0.15614 0.34635
 C1284 C -0.19489 0.16992 0.33112
 C1285 C -0.19033 0.19031 0.30993
 C1286 C -0.17043 0.19616 0.30462
 C1287 C -0.14552 0.14810 0.35668
 C1288 C -0.13291 0.13615 0.36994
 C1289 C -0.11815 0.12204 0.38541
 C1290 C -0.10554 0.10987 0.39850
 C1291 C -0.09044 0.09516 0.41389
 C1292 C -0.09528 0.07498 0.43465
 C1293 C -0.08062 0.06008 0.44906
 C1294 C -0.06086 0.06516 0.44285
 C1295 C -0.05616 0.08576 0.42213
 C1296 C -0.07085 0.10061 0.40777
 H1297 H -0.14067 0.18720 0.31550
 H1298 H -0.18408 0.14068 0.36249
 H1299 H -0.20984 0.16455 0.33618
 H1300 H -0.16601 0.21155 0.28869
 H1301 H -0.11040 0.07058 0.43958
 H1302 H -0.08480 0.04444 0.46488
 H1303 H -0.04114 0.09023 0.41675
 H1304 H -0.06693 0.11617 0.39172
 C1305 C 0.67971 0.34817 0.34317
 C1306 C 0.66013 0.34215 0.33758
 C1307 C 0.65528 0.32206 0.31678
 C1308 C 0.66995 0.30776 0.30186
 C1309 C 0.68971 0.31335 0.30758
 C1310 C 0.69440 0.33392 0.32829
 C1311 C 0.64505 0.35617 0.35356
 C1312 C 0.63246 0.36779 0.36711
 C1313 C 0.61773 0.38134 0.38305
 C1314 C 0.60514 0.39296 0.39660
 C1315 C 0.59006 0.40697 0.41260
 C1316 C 0.57048 0.40101 0.40698
 C1317 C 0.55579 0.41524 0.42189
 C1318 C 0.56050 0.43573 0.44267
 C1319 C 0.58027 0.44127 0.44842
 C1320 C 0.59492 0.42698 0.43346
 H1321 H 0.68363 0.36368 0.35924
 H1322 H 0.64017 0.31724 0.31226
 H1323 H 0.66577 0.29211 0.28607
 H1324 H 0.70943 0.33876 0.33331
 H1325 H 0.56655 0.38556 0.39087
 H1326 H 0.54076 0.41045 0.41685
 H1327 H 0.58445 0.45686 0.46425
 H1328 H 0.61004 0.43176 0.43801
 C1329 C 0.67990 0.15058 0.34339
 C1330 C 0.66033 0.15648 0.33760
 C1331 C 0.65548 0.17629 0.31655
 C1332 C 0.67013 0.19050 0.30157
 C1333 C 0.68989 0.18508 0.30750
 C1334 C 0.69459 0.16474 0.32845
 C1335 C 0.64525 0.14269 0.35369
 C1336 C 0.63264 0.13131 0.36734
 C1337 C 0.61788 0.11806 0.38338
 C1338 C 0.60526 0.10669 0.39701
 C1339 C 0.59016 0.09292 0.41307
 C1340 C 0.57060 0.09895 0.40732
 C1341 C 0.55588 0.08481 0.42222
 C1342 C 0.56054 0.06436 0.44308
 C1343 C 0.58029 0.05881 0.44898
 C1344 C 0.59497 0.07300 0.43404
 H1345 H 0.68381 0.13528 0.35966
 H1346 H 0.64036 0.18099 0.31190
 H1347 H 0.66596 0.20597 0.28559
 H1348 H 0.70961 0.16005 0.33362
 H1349 H 0.56673 0.11435 0.39111
 H1350 H 0.54087 0.08961 0.41708
 H1351 H 0.58442 0.04325 0.46490
 H1352 H 0.61008 0.06819 0.43866
 C1353 C -0.15488 0.31776 0.32110
 C1354 C -0.15981 0.33749 0.34218
 C1355 C -0.17941 0.34341 0.34779
 C1356 C -0.19404 0.32961 0.33246
 C1357 C -0.18926 0.30965 0.31123
 C1358 C -0.16948 0.30392 0.30572
 C1359 C -0.14479 0.35168 0.35808
 C1360 C -0.13225 0.36365 0.37140
 C1361 C -0.11759 0.37780 0.38691
 C1362 C -0.10504 0.39003 0.40000
 C1363 C -0.09000 0.40482 0.41535
 C1364 C -0.09491 0.42512 0.43594
 C1365 C -0.08030 0.44015 0.45024
 C1366 C -0.06053 0.43508 0.44410
 C1367 C -0.05577 0.41434 0.42356
 C1368 C -0.07041 0.39936 0.40930
 H1369 H -0.13975 0.31303 0.31658
 H1370 H -0.18339 0.35864 0.36407
 H1371 H -0.20908 0.33452 0.33735
 H1372 H -0.16526 0.28867 0.28960
 H1373 H -0.11004 0.42952 0.44078
 H1374 H -0.08451 0.45590 0.46593
 H1375 H -0.04074 0.40988 0.41825
 H1376 H -0.06645 0.38370 0.39338
 C1377 C 0.00079 0.52663 0.16572
 C1378 C 0.00091 0.50019 0.18033
 C1379 C 0.00082 0.47378 0.16572
 C1380 C 0.00059 0.47377 0.13662
 C1381 C 0.00043 0.50025 0.12169
 C1382 C 0.00056 0.52670 0.13662
 C1383 C 0.00104 0.50016 0.21030
 C1384 C 0.00111 0.50013 0.23540
 C1385 C 0.00113 0.50009 0.26479
 C1386 C 0.00110 0.50006 0.28988
 C1387 C 0.00101 0.50005 0.31985
 C1388 C 0.00092 0.47362 0.33448
 C1389 C 0.00071 0.47357 0.36358
 C1390 C 0.00058 0.50004 0.37850
 C1391 C 0.00072 0.52651 0.36355
 C1392 C 0.00093 0.52647 0.33445
 H1393 H 0.00086 0.54721 0.17682
 H1394 H 0.00091 0.45318 0.17682
 H1395 H 0.00051 0.45300 0.12586
 H1396 H 0.00047 0.54748 0.12586
 H1397 H 0.00098 0.45303 0.32339
 H1398 H 0.00063 0.45280 0.37436
 H1399 H 0.00064 0.54728 0.37429
 H1400 H 0.00100 0.54707 0.32333
 C1401 C 0.25135 0.72395 1.08407
 C1402 C 0.25151 0.75037 1.06946
 C1403 C 0.25144 0.77683 1.08397
 C1404 C 0.25117 0.77691 1.11303
 C1405 C 0.25095 0.75045 1.12797
 C1406 C 0.25108 0.72395 1.11313
 C1407 C 0.25163 0.75034 1.03959
 C1408 C 0.25166 0.75032 1.01455
 C1409 C 0.25161 0.75031 0.98525
 C1410 C 0.25150 0.75032 0.96021
 C1411 C 0.25129 0.75035 0.93033
 C1412 C 0.25114 0.77681 0.91579
 C1413 C 0.25080 0.77689 0.88673
 C1414 C 0.25060 0.75043 0.87183
 C1415 C 0.25080 0.72393 0.88671
 C1416 C 0.25113 0.72393 0.91577
 H1417 H 0.25140 0.70335 1.07300
 H1418 H 0.25156 0.79740 1.07281
 H1419 H 0.25109 0.79770 1.12375
 H1420 H 0.25094 0.70319 1.12393
 H1421 H 0.25125 0.79738 0.92692
 H1422 H 0.25068 0.79768 0.87598
 H1423 H 0.25067 0.70317 0.87594
 H1424 H 0.25125 0.70333 0.92688
 C1425 C 0.09473 0.56899 0.06995
 C1426 C 0.08986 0.58868 0.09111
 C1427 C 0.07027 0.59445 0.09689
 C1428 C 0.05560 0.58058 0.08166
 C1429 C 0.06032 0.56068 0.06036
 C1430 C 0.08009 0.55507 0.05468
 C1431 C 0.10494 0.60295 0.10691
 C1432 C 0.11752 0.61497 0.12015
 C1433 C 0.13223 0.62916 0.13561
 C1434 C 0.14482 0.64138 0.14867
 C1435 C 0.15990 0.65614 0.16404
 C1436 C 0.15504 0.67645 0.18465
 C1437 C 0.16968 0.69136 0.19904
 C1438 C 0.18945 0.68617 0.19297
 C1439 C 0.19417 0.66545 0.17240
 C1440 C 0.17949 0.65059 0.15805
 H1441 H 0.10986 0.56435 0.06529
 H1442 H 0.06631 0.60965 0.11321
 H1443 H 0.04056 0.58540 0.08669
 H1444 H 0.08429 0.53988 0.03850
 H1445 H 0.13992 0.68093 0.18947
 H1446 H 0.16549 0.70710 0.21475
 H1447 H 0.20920 0.66089 0.16712
 H1448 H 0.18344 0.63493 0.14212
 C1449 C 0.43097 0.90395 0.09503
 C1450 C 0.41140 0.90977 0.08925
 C1451 C 0.40663 0.93015 0.06867
 C1452 C 0.42130 0.94466 0.05390
 C1453 C 0.44121 0.93908 0.05943
 C1454 C 0.44573 0.91837 0.08035
 C1455 C 0.39622 0.89486 0.10446
 C1456 C 0.38352 0.88239 0.11720
 C1457 C 0.36863 0.86779 0.13212
 C1458 C 0.35591 0.85535 0.14484
 C1459 C 0.34069 0.84049 0.16000
 C1460 C 0.32112 0.84593 0.15373
 C1461 C 0.30633 0.83154 0.16838
 C1462 C 0.31090 0.81142 0.18960
 C1463 C 0.33065 0.80611 0.19574
 C1464 C 0.34540 0.82055 0.18105
 H1465 H 0.43486 0.88822 0.11094
 H1466 H 0.39152 0.93486 0.06400
 H1467 H 0.41690 0.96028 0.03817
 H1468 H 0.46068 0.91317 0.08558
 H1469 H 0.31727 0.86129 0.13748
 H1470 H 0.29133 0.83616 0.16301
 H1471 H 0.33474 0.79080 0.21189
 H1472 H 0.36048 0.81613 0.18611
 C1473 C 0.34485 0.67984 0.18130
 C1474 C 0.33997 0.66007 0.16025
 C1475 C 0.32040 0.65491 0.15392
 C1476 C 0.30573 0.66945 0.16856
 C1477 C 0.31046 0.68940 0.18980
 C1478 C 0.33022 0.69443 0.19599
 C1479 C 0.35502 0.64508 0.14512
 C1480 C 0.36760 0.63251 0.13240
 C1481 C 0.38232 0.61778 0.11750
 C1482 C 0.39490 0.60521 0.10479
 C1483 C 0.40998 0.59026 0.08967
 C1484 C 0.40513 0.57048 0.06861
 C1485 C 0.41978 0.55593 0.05393
 C1486 C 0.43953 0.56102 0.06014
 C1487 C 0.44423 0.58097 0.08139
 C1488 C 0.42954 0.59547 0.09602
 H1489 H 0.35997 0.68399 0.18636
 H1490 H 0.31646 0.63965 0.13764
 H1491 H 0.29071 0.66508 0.16318
 H1492 H 0.33441 0.70962 0.21217
 H1493 H 0.39001 0.56629 0.06354
 H1494 H 0.41562 0.54073 0.03775
 H1495 H 0.45925 0.58539 0.08678
 H1496 H 0.43345 0.61073 0.11230
 C1497 C 0.09529 0.93173 0.06927
 C1498 C 0.09043 0.91222 0.09059
 C1499 C 0.07087 0.90630 0.09638
 C1500 C 0.05618 0.91989 0.08099
 C1501 C 0.06088 0.93965 0.05953
 C1502 C 0.08063 0.94537 0.05383
 C1503 C 0.10550 0.89829 0.10657
 C1504 C 0.11808 0.88653 0.11998
 C1505 C 0.13277 0.87261 0.13560
 C1506 C 0.14533 0.86055 0.14879
 C1507 C 0.16036 0.84589 0.16426
 C1508 C 0.15542 0.82574 0.18500
 C1509 C 0.17002 0.81075 0.19938
 C1510 C 0.18979 0.81571 0.19317
 C1511 C 0.19457 0.83633 0.17251
 C1512 C 0.17994 0.85127 0.15817
 H1513 H 0.11040 0.93645 0.06462
 H1514 H 0.06696 0.89122 0.11285
 H1515 H 0.04116 0.91501 0.08602
 H1516 H 0.08479 0.96047 0.03752
 H1517 H 0.14029 0.82141 0.18987
 H1518 H 0.16579 0.79510 0.21518
 H1519 H 0.20961 0.84070 0.16715
 H1520 H 0.18391 0.86682 0.14213
 C1521 C 0.34479 0.67988 0.31864
 C1522 C 0.33988 0.66007 0.33970
 C1523 C 0.32030 0.65491 0.34599
 C1524 C 0.30565 0.66948 0.33132
 C1525 C 0.31040 0.68946 0.31008
 C1526 C 0.33017 0.69449 0.30392
 C1527 C 0.35493 0.64505 0.35486
 C1528 C 0.36750 0.63244 0.36759
 C1529 C 0.38221 0.61766 0.38251
 C1530 C 0.39479 0.60507 0.39523
 C1531 C 0.40986 0.59007 0.41037
 C1532 C 0.40499 0.57022 0.43140
 C1533 C 0.41964 0.55564 0.44609
 C1534 C 0.43940 0.56075 0.43993
 C1535 C 0.44411 0.58078 0.41871
 C1536 C 0.42944 0.59531 0.40406
 H1537 H 0.35992 0.68404 0.31360
 H1538 H 0.31634 0.63964 0.36227
 H1539 H 0.29061 0.66509 0.33668
 H1540 H 0.33439 0.70970 0.28774
 H1541 H 0.38987 0.56600 0.43645
 H1542 H 0.41546 0.54039 0.46226
 H1543 H 0.45914 0.58523 0.41334
 H1544 H 0.43337 0.61062 0.38780
 C1545 C 0.17959 -0.14890 0.34128
 C1546 C 0.16001 -0.15431 0.33517
 C1547 C 0.15514 -0.17449 0.31446
 C1548 C 0.16978 -0.18945 0.30011
 C1549 C 0.18954 -0.18443 0.30632
 C1550 C 0.19426 -0.16380 0.32697
 C1551 C 0.14492 -0.13959 0.35055
 C1552 C 0.13233 -0.12743 0.36365
 C1553 C 0.11759 -0.11337 0.37915
 C1554 C 0.10499 -0.10147 0.39245
 C1555 C 0.08989 -0.08736 0.40832
 C1556 C 0.07032 -0.09328 0.40258
 C1557 C 0.05562 -0.07954 0.41786
 C1558 C 0.06030 -0.05964 0.43917
 C1559 C 0.08006 -0.05391 0.44481
 C1560 C 0.09473 -0.06770 0.42948
 H1561 H 0.18352 -0.13333 0.35729
 H1562 H 0.14002 -0.17885 0.30956
 H1563 H 0.16560 -0.20511 0.28434
 H1564 H 0.20928 -0.15939 0.33234
 H1565 H 0.06642 -0.10847 0.38624
 H1566 H 0.04060 -0.08445 0.41287
 H1567 H 0.08421 -0.03871 0.46100
 H1568 H 0.10984 -0.06296 0.43410
 C1569 C 0.17944 0.65031 0.34136
 C1570 C 0.15985 0.65591 0.33544
 C1571 C 0.15498 0.67631 0.31488
 C1572 C 0.16962 0.69127 0.30049
 C1573 C 0.18939 0.68604 0.30650
 C1574 C 0.19411 0.66522 0.32702
 C1575 C 0.14478 0.64112 0.35084
 C1576 C 0.13222 0.62886 0.36396
 C1577 C 0.11754 0.61464 0.37949
 C1578 C 0.10499 0.60260 0.39281
 C1579 C 0.08994 0.58833 0.40869
 C1580 C 0.07034 0.59409 0.40297
 C1581 C 0.05569 0.58023 0.41827
 C1582 C 0.06043 0.56035 0.43960
 C1583 C 0.08021 0.55475 0.44523
 C1584 C 0.09484 0.56866 0.42987
 H1585 H 0.18338 0.63459 0.35725
 H1586 H 0.13986 0.68083 0.31011
 H1587 H 0.16543 0.70709 0.28483
 H1588 H 0.20914 0.66063 0.33224
 H1589 H 0.06637 0.60928 0.38662
 H1590 H 0.04065 0.58504 0.41328
 H1591 H 0.08442 0.53956 0.46143
 H1592 H 0.10996 0.56403 0.43450
 C1593 C 0.34492 -0.17920 0.31851
 C1594 C 0.34005 -0.15940 0.33956
 C1595 C 0.32048 -0.15415 0.34587
 C1596 C 0.30580 -0.16861 0.33121
 C1597 C 0.31052 -0.18858 0.30998
 C1598 C 0.33028 -0.19371 0.30381
 C1599 C 0.35511 -0.14447 0.35469
 C1600 C 0.36768 -0.13193 0.36742
 C1601 C 0.38239 -0.11723 0.38233
 C1602 C 0.39496 -0.10469 0.39505
 C1603 C 0.41002 -0.08976 0.41020
 C1604 C 0.40513 -0.07000 0.43127
 C1605 C 0.41977 -0.05549 0.44598
 C1606 C 0.43953 -0.06057 0.43979
 C1607 C 0.44425 -0.08050 0.41853
 C1608 C 0.42959 -0.09497 0.40386
 H1609 H 0.36004 -0.18342 0.31347
 H1610 H 0.31655 -0.13887 0.36214
 H1611 H 0.29078 -0.16416 0.33658
 H1612 H 0.33446 -0.20892 0.28763
 H1613 H 0.39001 -0.06581 0.43633
 H1614 H 0.41558 -0.04031 0.46219
 H1615 H 0.45928 -0.08492 0.41314
 H1616 H 0.43352 -0.11021 0.38756
 C1617 C 0.49852 0.52639 0.16593
 C1618 C 0.49836 0.49995 0.18050
 C1619 C 0.49849 0.47352 0.16595
 C1620 C 0.49882 0.47349 0.13689
 C1621 C 0.49903 0.49998 0.12198
 C1622 C 0.49884 0.52645 0.13686
 C1623 C 0.49820 0.49992 0.21039
 C1624 C 0.49813 0.49989 0.23544
 C1625 C 0.49813 0.49984 0.26475
 C1626 C 0.49820 0.49980 0.28980
 C1627 C 0.49837 0.49976 0.31969
 C1628 C 0.49852 0.47330 0.33425
 C1629 C 0.49884 0.47323 0.36331
 C1630 C 0.49902 0.49970 0.37821
 C1631 C 0.49882 0.52619 0.36332
 C1632 C 0.49850 0.52618 0.33426
 H1633 H 0.49842 0.54697 0.17704
 H1634 H 0.49838 0.45293 0.17707
 H1635 H 0.49893 0.45272 0.12614
 H1636 H 0.49897 0.54723 0.12610
 H1637 H 0.49843 0.45273 0.32313
 H1638 H 0.49896 0.45245 0.37407
 H1639 H 0.49893 0.54695 0.37408
 H1640 H 0.49839 0.54678 0.32315
 C1641 C 0.75128 0.72378 1.08414
 C1642 C 0.75142 0.75019 1.06950
 C1643 C 0.75129 0.77666 1.08398
 C1644 C 0.75099 0.77677 1.11305
 C1645 C 0.75079 0.75033 1.12802
 C1646 C 0.75098 0.72381 1.11320
 C1647 C 0.75157 0.75012 1.03961
 C1648 C 0.75162 0.75009 1.01457
 C1649 C 0.75160 0.75007 0.98526
 C1650 C 0.75151 0.75009 0.96021
 C1651 C 0.75132 0.75014 0.93033
 C1652 C 0.75115 0.77661 0.91580
 C1653 C 0.75081 0.77671 0.88674
 C1654 C 0.75062 0.75027 0.87181
 C1655 C 0.75084 0.72375 0.88667
 C1656 C 0.75118 0.72373 0.91574
 H1657 H 0.75138 0.70317 1.07308
 H1658 H 0.75139 0.79722 1.07281
 H1659 H 0.75088 0.79757 1.12375
 H1660 H 0.75086 0.70306 1.12402
 H1661 H 0.75125 0.79717 0.92694
 H1662 H 0.75068 0.79751 0.87600
 H1663 H 0.75072 0.70300 0.87588
 H1664 H 0.75130 0.70312 0.92682
 C1665 C 0.59493 0.57284 0.06664
 C1666 C 0.59003 0.59288 0.08747
 C1667 C 0.57044 0.59891 0.09303
 C1668 C 0.55578 0.58468 0.07810
 C1669 C 0.56053 0.56414 0.05738
 C1670 C 0.58030 0.55857 0.05168
 C1671 C 0.60507 0.60684 0.10352
 C1672 C 0.61762 0.61839 0.11713
 C1673 C 0.63231 0.63186 0.13315
 C1674 C 0.64486 0.64342 0.14676
 C1675 C 0.65990 0.65739 0.16280
 C1676 C 0.65500 0.67750 0.18356
 C1677 C 0.66962 0.69181 0.19850
 C1678 C 0.68940 0.68619 0.19284
 C1679 C 0.69414 0.66557 0.17218
 C1680 C 0.67949 0.65132 0.15728
 H1681 H 0.61005 0.56803 0.06216
 H1682 H 0.56648 0.61439 0.10911
 H1683 H 0.54075 0.58951 0.08310
 H1684 H 0.58451 0.54293 0.03588
 H1685 H 0.63988 0.68235 0.18801
 H1686 H 0.66542 0.70750 0.21424
 H1687 H 0.70918 0.66072 0.16721
 H1688 H 0.68344 0.63579 0.14124
 C1689 C 0.92984 0.89964 0.09080
 C1690 C 0.91026 0.90507 0.08465
 C1691 C 0.90542 0.92521 0.06385
 C1692 C 0.92008 0.94011 0.04946
 C1693 C 0.93984 0.93507 0.05570
 C1694 C 0.94453 0.91449 0.07644
 C1695 C 0.89515 0.89039 0.10005
 C1696 C 0.88253 0.87827 0.11315
 C1697 C 0.86776 0.86424 0.12865
 C1698 C 0.85513 0.85236 0.14195
 C1699 C 0.84003 0.83826 0.15784
 C1700 C 0.82045 0.84410 0.15204
 C1701 C 0.80575 0.83038 0.16737
 C1702 C 0.81043 0.81057 0.18878
 C1703 C 0.83020 0.80490 0.19448
 C1704 C 0.84486 0.81867 0.17911
 H1705 H 0.93375 0.88411 0.10687
 H1706 H 0.89031 0.92959 0.05892
 H1707 H 0.91591 0.95574 0.03362
 H1708 H 0.95955 0.91006 0.08185
 H1709 H 0.81653 0.85922 0.13562
 H1710 H 0.79073 0.83523 0.16233
 H1711 H 0.83436 0.78977 0.21075
 H1712 H 0.85998 0.81398 0.18378
 C1713 C 0.92935 0.60061 0.09111
 C1714 C 0.90978 0.59517 0.08501
 C1715 C 0.90490 0.57495 0.06435
 C1716 C 0.91954 0.55996 0.05002
 C1717 C 0.93930 0.56501 0.05622
 C1718 C 0.94402 0.58568 0.07682
 C1719 C 0.89472 0.60991 0.10037
 C1720 C 0.88215 0.62209 0.11348
 C1721 C 0.86746 0.63618 0.12901
 C1722 C 0.85490 0.64811 0.14234
 C1723 C 0.83986 0.66225 0.15824
 C1724 C 0.82028 0.65635 0.15260
 C1725 C 0.80563 0.67013 0.16792
 C1726 C 0.81037 0.69006 0.18918
 C1727 C 0.83014 0.69577 0.19473
 C1728 C 0.84476 0.68194 0.17936
 H1729 H 0.93329 0.61621 0.10708
 H1730 H 0.88978 0.57057 0.05947
 H1731 H 0.91535 0.54427 0.03428
 H1732 H 0.95904 0.59012 0.08218
 H1733 H 0.81633 0.64114 0.13629
 H1734 H 0.79059 0.66525 0.16300
 H1735 H 0.83434 0.71100 0.21088
 H1736 H 0.85989 0.68666 0.18390
 C1737 C 0.59443 0.92783 0.06618
 C1738 C 0.58960 0.90716 0.08646
 C1739 C 0.57005 0.90052 0.09148
 C1740 C 0.55534 0.91475 0.07661
 C1741 C 0.55990 0.93615 0.05636
 C1742 C 0.57980 0.94216 0.05123
 C1743 C 0.60468 0.89318 0.10251
 C1744 C 0.61728 0.88163 0.11611
 C1745 C 0.63203 0.86819 0.13212
 C1746 C 0.64464 0.85668 0.14574
 C1747 C 0.65974 0.84280 0.16183
 C1748 C 0.65489 0.82290 0.18285
 C1749 C 0.66955 0.80875 0.19790
 C1750 C 0.68932 0.81429 0.19212
 C1751 C 0.69402 0.83466 0.17119
 C1752 C 0.67932 0.84877 0.15617
 H1753 H 0.60954 0.93311 0.06209
 H1754 H 0.56614 0.88450 0.10711
 H1755 H 0.54038 0.90912 0.08141
 H1756 H 0.58423 0.95822 0.03591
 H1757 H 0.63978 0.81811 0.18743
 H1758 H 0.66537 0.79324 0.21385
 H1759 H 0.70904 0.83946 0.16611
 H1760 H 0.68325 0.86413 0.13995
 C1761 C -0.15523 0.68194 0.32052
 C1762 C -0.16011 0.66233 0.34175
 C1763 C -0.17971 0.65659 0.34754
 C1764 C -0.19437 0.67041 0.33225
 C1765 C -0.18963 0.69024 0.31086
 C1766 C -0.16986 0.69582 0.30517
 C1767 C -0.14505 0.64809 0.35761
 C1768 C -0.13248 0.63608 0.37089
 C1769 C -0.11778 0.62189 0.38637
 C1770 C -0.10520 0.60966 0.39945
 C1771 C -0.09013 0.59486 0.41482
 C1772 C -0.09500 0.57465 0.43554
 C1773 C -0.08037 0.55967 0.44991
 C1774 C -0.06060 0.56471 0.44372
 C1775 C -0.05587 0.58536 0.42304
 C1776 C -0.07054 0.60028 0.40872
 H1777 H -0.14010 0.68655 0.31585
 H1778 H -0.18367 0.64144 0.36394
 H1779 H -0.20940 0.66562 0.33728
 H1780 H -0.16565 0.71096 0.28892
 H1781 H -0.11012 0.57028 0.44045
 H1782 H -0.08456 0.54400 0.46570
 H1783 H -0.04085 0.58980 0.41768
 H1784 H -0.06659 0.61587 0.39270
 C1785 C 0.67950 -0.15034 0.34247
 C1786 C 0.65992 -0.15640 0.33697
 C1787 C 0.65501 -0.17646 0.31618
 C1788 C 0.66964 -0.19073 0.30119
 C1789 C 0.68941 -0.18514 0.30685
 C1790 C 0.69415 -0.16456 0.32753
 C1791 C 0.64489 -0.14252 0.35309
 C1792 C 0.63233 -0.13103 0.36677
 C1793 C 0.61765 -0.11766 0.38287
 C1794 C 0.60509 -0.10620 0.39655
 C1795 C 0.59004 -0.09236 0.41266
 C1796 C 0.57047 -0.09839 0.40706
 C1797 C 0.55579 -0.08424 0.42202
 C1798 C 0.56050 -0.06378 0.44282
 C1799 C 0.58026 -0.05821 0.44857
 C1800 C 0.59491 -0.07241 0.43357
 H1801 H 0.68345 -0.13485 0.35854
 H1802 H 0.63989 -0.18130 0.31175
 H1803 H 0.66543 -0.20639 0.28542
 H1804 H 0.70919 -0.15973 0.33249
 H1805 H 0.56654 -0.11380 0.39091
 H1806 H 0.54076 -0.08905 0.41699
 H1807 H 0.58444 -0.04264 0.46443
 H1808 H 0.61003 -0.06761 0.43807
 C1809 C 0.67939 0.65188 0.34315
 C1810 C 0.65980 0.65783 0.33752
 C1811 C 0.65492 0.67783 0.31662
 C1812 C 0.66956 0.69211 0.30164
 C1813 C 0.68933 0.68659 0.30739
 C1814 C 0.69406 0.66611 0.32821
 C1815 C 0.64475 0.64383 0.35356
 C1816 C 0.63218 0.63220 0.36715
 C1817 C 0.61750 0.61863 0.38315
 C1818 C 0.60494 0.60699 0.39675
 C1819 C 0.58990 0.59293 0.41277
 C1820 C 0.57031 0.59893 0.40723
 C1821 C 0.55566 0.58462 0.42214
 C1822 C 0.56041 0.56401 0.44282
 C1823 C 0.58018 0.55844 0.44850
 C1824 C 0.59481 0.57281 0.43355
 H1825 H 0.68333 0.63643 0.35928
 H1826 H 0.63980 0.68260 0.31208
 H1827 H 0.66537 0.70770 0.28577
 H1828 H 0.70909 0.66132 0.33325
 H1829 H 0.56635 0.61447 0.39119
 H1830 H 0.54062 0.58944 0.41716
 H1831 H 0.58439 0.54276 0.46426
 H1832 H 0.60993 0.56800 0.43802
 C1833 C -0.15523 -0.18113 0.32024
 C1834 C -0.16012 -0.16148 0.34140
 C1835 C -0.17970 -0.15557 0.34710
 C1836 C -0.19436 -0.16930 0.33178
 C1837 C -0.18963 -0.18920 0.31049
 C1838 C -0.16986 -0.19492 0.30488
 C1839 C -0.14507 -0.14739 0.35730
 C1840 C -0.13251 -0.13550 0.37061
 C1841 C -0.11781 -0.12144 0.38613
 C1842 C -0.10524 -0.10929 0.39922
 C1843 C -0.09019 -0.09456 0.41458
 C1844 C -0.09509 -0.07433 0.43524
 C1845 C -0.08047 -0.05933 0.44955
 C1846 C -0.06071 -0.06436 0.44334
 C1847 C -0.05596 -0.08504 0.42275
 C1848 C -0.07061 -0.09999 0.40848
 H1849 H -0.14011 -0.18586 0.31566
 H1850 H -0.18365 -0.14038 0.36344
 H1851 H -0.20940 -0.16441 0.33674
 H1852 H -0.16566 -0.21012 0.28870
 H1853 H -0.11022 -0.06997 0.44013
 H1854 H -0.08468 -0.04363 0.46529
 H1855 H -0.04093 -0.08947 0.41738
 H1856 H -0.06666 -0.11560 0.39251
 C1857 C 0.00094 -0.02637 0.83484
 C1858 C 0.00099 0.00006 0.82026
 C1859 C 0.00094 0.02641 0.83491
 C1860 C 0.00081 0.02643 0.86401
 C1861 C 0.00070 -0.00008 0.87918
 C1862 C 0.00081 -0.02653 0.86395
 C1863 C 0.00101 0.00014 0.79026
 C1864 C 0.00099 0.00023 0.76514
 C1865 C 0.00091 0.00035 0.73573
 C1866 C 0.00081 0.00043 0.71061
 C1867 C 0.00065 0.00049 0.68062
 C1868 C 0.00052 0.02693 0.66600
 C1869 C 0.00028 0.02701 0.63688
 C1870 C 0.00016 0.00057 0.62193
 C1871 C 0.00032 -0.02591 0.63687
 C1872 C 0.00056 -0.02591 0.66598
 H1873 H 0.00099 -0.04693 0.82369
 H1874 H 0.00098 0.04702 0.82382
 H1875 H 0.00076 0.04738 0.87448
 H1876 H 0.00077 -0.04751 0.87437
 H1877 H 0.00059 0.04751 0.67710
 H1878 H 0.00019 0.04780 0.62613
 H1879 H 0.00026 -0.04668 0.62610
 H1880 H 0.00066 -0.04652 0.67706
 C1881 C 0.25073 0.27598 0.41578
 C1882 C 0.25083 0.24952 0.43037
 C1883 C 0.25076 0.22313 0.41572
 C1884 C 0.25055 0.22315 0.38661
 C1885 C 0.25040 0.24965 0.37170
 C1886 C 0.25052 0.27608 0.38667
 C1887 C 0.25095 0.24945 0.46037
 C1888 C 0.25101 0.24939 0.48547
 C1889 C 0.25102 0.24932 0.51488
 C1890 C 0.25100 0.24928 0.53999
 C1891 C 0.25091 0.24926 0.56998
 C1892 C 0.25080 0.22283 0.58462
 C1893 C 0.25060 0.22278 0.61373
 C1894 C 0.25050 0.24924 0.62866
 C1895 C 0.25066 0.27571 0.61370
 C1896 C 0.25085 0.27568 0.58459
 H1897 H 0.25078 0.29655 0.42690
 H1898 H 0.25085 0.20251 0.42679
 H1899 H 0.25049 0.20240 0.37583
 H1900 H 0.25042 0.29688 0.37593
 H1901 H 0.25084 0.20224 0.57353
 H1902 H 0.25050 0.20201 0.62450
 H1903 H 0.25060 0.29648 0.62445
 H1904 H 0.25094 0.29628 0.57348
 C1905 C 0.09452 0.06882 0.57052
 C1906 C 0.08963 0.08846 0.59169
 C1907 C 0.07005 0.09442 0.59734
 C1908 C 0.05539 0.08074 0.58196
 C1909 C 0.06012 0.06085 0.56066
 C1910 C 0.07989 0.05509 0.55510
 C1911 C 0.10469 0.10247 0.60767
 C1912 C 0.11728 0.11427 0.62105
 C1913 C 0.13200 0.12820 0.63664
 C1914 C 0.14460 0.14023 0.64980
 C1915 C 0.15970 0.15481 0.66525
 C1916 C 0.15485 0.17498 0.68599
 C1917 C 0.16951 0.18982 0.70038
 C1918 C 0.18927 0.18468 0.69419
 C1919 C 0.19396 0.16405 0.67352
 C1920 C 0.17927 0.14927 0.65917
 H1921 H 0.10964 0.06405 0.56597
 H1922 H 0.06610 0.10959 0.61369
 H1923 H 0.04035 0.08566 0.58689
 H1924 H 0.08409 0.03990 0.53892
 H1925 H 0.13974 0.17944 0.69087
 H1926 H 0.16534 0.20549 0.71617
 H1927 H 0.20898 0.15955 0.66817
 H1928 H 0.18319 0.13371 0.64314
 C1929 C 0.32035 0.34461 0.65451
 C1930 C 0.33993 0.33939 0.66081
 C1931 C 0.34479 0.31959 0.68189
 C1932 C 0.33014 0.30505 0.69663
 C1933 C 0.31038 0.31015 0.69047
 C1934 C 0.30567 0.33012 0.66920
 C1935 C 0.35500 0.35435 0.64562
 C1936 C 0.36757 0.36694 0.63285
 C1937 C 0.38227 0.38170 0.61787
 C1938 C 0.39484 0.39429 0.60509
 C1939 C 0.40989 0.40929 0.58990
 C1940 C 0.42947 0.40406 0.59615
 C1941 C 0.44413 0.41860 0.58146
 C1942 C 0.43940 0.43863 0.56025
 C1943 C 0.41964 0.44373 0.55414
 C1944 C 0.40500 0.42914 0.56887
 H1945 H 0.31643 0.35988 0.63822
 H1946 H 0.35990 0.31537 0.68693
 H1947 H 0.33431 0.28983 0.71283
 H1948 H 0.29065 0.33456 0.66383
 H1949 H 0.43342 0.38876 0.61240
 H1950 H 0.45916 0.41416 0.58679
 H1951 H 0.41544 0.45898 0.53799
 H1952 H 0.38988 0.43336 0.56387
 C1953 C 0.34467 0.17893 0.68203
 C1954 C 0.33980 0.15920 0.66094
 C1955 C 0.32023 0.15395 0.65465
 C1956 C 0.30556 0.16837 0.66936
 C1957 C 0.31027 0.18830 0.69063
 C1958 C 0.33003 0.19340 0.69679
 C1959 C 0.35487 0.14436 0.64571
 C1960 C 0.36745 0.13192 0.63290
 C1961 C 0.38218 0.11734 0.61789
 C1962 C 0.39477 0.10490 0.60509
 C1963 C 0.40985 0.09009 0.58987
 C1964 C 0.40501 0.07039 0.56875
 C1965 C 0.41967 0.05595 0.55399
 C1966 C 0.43942 0.06107 0.56019
 C1967 C 0.44411 0.08096 0.58149
 C1968 C 0.42941 0.09535 0.59620
 H1969 H 0.35979 0.18315 0.68705
 H1970 H 0.31632 0.13872 0.63834
 H1971 H 0.29053 0.16394 0.66400
 H1972 H 0.33420 0.20858 0.71299
 H1973 H 0.38990 0.06617 0.56370
 H1974 H 0.41551 0.04080 0.53776
 H1975 H 0.45912 0.08540 0.58688
 H1976 H 0.43331 0.11056 0.61254
 C1977 C 0.17944 0.34980 0.65919
 C1978 C 0.15985 0.34441 0.66534
 C1979 C 0.15497 0.32419 0.68604
 C1980 C 0.16960 0.30917 0.70036
 C1981 C 0.18937 0.31417 0.69412
 C1982 C 0.19410 0.33483 0.67347
 C1983 C 0.14479 0.35922 0.65000
 C1984 C 0.13222 0.37146 0.63693
 C1985 C 0.11752 0.38564 0.62145
 C1986 C 0.10496 0.39764 0.60817
 C1987 C 0.08990 0.41185 0.59232
 C1988 C 0.07031 0.40607 0.59810
 C1989 C 0.05565 0.41988 0.58280
 C1990 C 0.06039 0.43974 0.56144
 C1991 C 0.08016 0.44535 0.55576
 C1992 C 0.09479 0.43149 0.57110
 H1993 H 0.18338 0.36539 0.64318
 H1994 H 0.13985 0.31985 0.69097
 H1995 H 0.16540 0.29349 0.71614
 H1996 H 0.20913 0.33923 0.66807
 H1997 H 0.06636 0.39091 0.61447
 H1998 H 0.04062 0.41507 0.58782
 H1999 H 0.08436 0.46051 0.53953
 H2000 H 0.10992 0.43612 0.56645
 C2001 C 0.42989 0.09419 0.90415
 C2002 C 0.41032 0.08898 0.91058
 C2003 C 0.40552 0.06918 0.93170
 C2004 C 0.42021 0.05465 0.94635
 C2005 C 0.43996 0.05974 0.94007
 C2006 C 0.44461 0.07970 0.91876
 C2007 C 0.39519 0.10395 0.89550
 C2008 C 0.38254 0.11651 0.88285
 C2009 C 0.36774 0.13123 0.86803
 C2010 C 0.35509 0.14381 0.85539
 C2011 C 0.33997 0.15882 0.84032
 C2012 C 0.32040 0.15359 0.84670
 C2013 C 0.30569 0.16813 0.83211
 C2014 C 0.31035 0.18817 0.81088
 C2015 C 0.33011 0.19327 0.80465
 C2016 C 0.34478 0.17868 0.81927
 H2017 H 0.43377 0.10945 0.88783
 H2018 H 0.39042 0.06497 0.93685
 H2019 H 0.41608 0.03945 0.96258
 H2020 H 0.45962 0.08413 0.91330
 H2021 H 0.31650 0.13827 0.86296
 H2022 H 0.29067 0.16369 0.83753
 H2023 H 0.33426 0.20853 0.78847
 H2024 H 0.35989 0.18291 0.81416
 C2025 C 0.09471 0.43186 0.92930
 C2026 C 0.08984 0.41231 0.90806
 C2027 C 0.07027 0.40655 0.90220
 C2028 C 0.05559 0.42032 0.91747
 C2029 C 0.06030 0.44010 0.93886
 C2030 C 0.08006 0.44568 0.94461
 C2031 C 0.10491 0.39813 0.89227
 C2032 C 0.11750 0.38615 0.87905
 C2033 C 0.13222 0.37198 0.86367
 C2034 C 0.14481 0.35972 0.85070
 C2035 C 0.15988 0.34485 0.83549
 C2036 C 0.15501 0.32461 0.81485
 C2037 C 0.16964 0.30948 0.80068
 C2038 C 0.18939 0.31440 0.80701
 C2039 C 0.19412 0.33510 0.82759
 C2040 C 0.17945 0.35017 0.84172
 H2041 H 0.10983 0.43646 0.93400
 H2042 H 0.06636 0.39144 0.88579
 H2043 H 0.04057 0.41555 0.91240
 H2044 H 0.08423 0.46079 0.96088
 H2045 H 0.13989 0.32033 0.80987
 H2046 H 0.16546 0.29377 0.78494
 H2047 H 0.20913 0.33944 0.83305
 H2048 H 0.18337 0.36579 0.85769
 C2049 C 0.06976 0.09311 0.90286
 C2050 C 0.08931 0.08695 0.90838
 C2051 C 0.09414 0.06694 0.92924
 C2052 C 0.07950 0.05301 0.94451
 C2053 C 0.05960 0.05886 0.93919
 C2054 C 0.05504 0.07928 0.91804
 C2055 C 0.10441 0.10120 0.89263
 C2056 C 0.11705 0.11320 0.87947
 C2057 C 0.13184 0.12735 0.86414
 C2058 C 0.14448 0.13958 0.85119
 C2059 C 0.15962 0.15437 0.83596
 C2060 C 0.17918 0.14898 0.84224
 C2061 C 0.19390 0.16393 0.82804
 C2062 C 0.18924 0.18458 0.80734
 C2063 C 0.16950 0.18959 0.80099
 C2064 C 0.15482 0.17459 0.81522
 H2065 H 0.06587 0.10860 0.88674
 H2066 H 0.10925 0.06203 0.93369
 H2067 H 0.08391 0.03759 0.96042
 H2068 H 0.04009 0.08465 0.91298
 H2069 H 0.18306 0.13339 0.85827
 H2070 H 0.20891 0.15952 0.83353
 H2071 H 0.16536 0.20526 0.78517
 H2072 H 0.13972 0.17893 0.81019
 C2073 C 0.42962 0.40434 0.90430
 C2074 C 0.41004 0.40959 0.91058
 C2075 C 0.40517 0.42948 0.93156
 C2076 C 0.41981 0.44407 0.94621
 C2077 C 0.43957 0.43895 0.94007
 C2078 C 0.44429 0.41889 0.91891
 C2079 C 0.39496 0.39457 0.89549
 C2080 C 0.38237 0.38197 0.88281
 C2081 C 0.36764 0.36720 0.86795
 C2082 C 0.35505 0.35460 0.85528
 C2083 C 0.33996 0.33960 0.84020
 C2084 C 0.32038 0.34486 0.84652
 C2085 C 0.30569 0.33033 0.83193
 C2086 C 0.31038 0.31028 0.81075
 C2087 C 0.33014 0.30515 0.80457
 C2088 C 0.34480 0.31972 0.81920
 H2089 H 0.43355 0.38900 0.88809
 H2090 H 0.39005 0.43371 0.93659
 H2091 H 0.41562 0.45935 0.96233
 H2092 H 0.45932 0.41442 0.91356
 H2093 H 0.31647 0.36018 0.86275
 H2094 H 0.29067 0.33480 0.83731
 H2095 H 0.33431 0.28988 0.78843
 H2096 H 0.35991 0.31548 0.81414
 C2097 C 0.49895 -0.02755 0.83433
 C2098 C 0.49876 -0.00108 0.81978
 C2099 C 0.49890 0.02532 0.83438
 C2100 C 0.49925 0.02530 0.86345
 C2101 C 0.49949 -0.00120 0.87833
 C2102 C 0.49930 -0.02765 0.86341
 C2103 C 0.49854 -0.00098 0.78987
 C2104 C 0.49842 -0.00083 0.76482
 C2105 C 0.49835 -0.00062 0.73549
 C2106 C 0.49837 -0.00045 0.71043
 C2107 C 0.49847 -0.00028 0.68052
 C2108 C 0.49861 0.02622 0.66603
 C2109 C 0.49887 0.02639 0.63695
 C2110 C 0.49900 -0.00001 0.62196
 C2111 C 0.49880 -0.02656 0.63678
 C2112 C 0.49854 -0.02665 0.66585
 H2113 H 0.49885 -0.04811 0.82320
 H2114 H 0.49876 0.04593 0.82330
 H2115 H 0.49937 0.04606 0.87423
 H2116 H 0.49946 -0.04844 0.87415
 H2117 H 0.49856 0.04676 0.67721
 H2118 H 0.49900 0.04721 0.62625
 H2119 H 0.49888 -0.04729 0.62596
 H2120 H 0.49844 -0.04729 0.67689
 C2121 C 0.75128 0.27540 0.41625
 C2122 C 0.75141 0.24895 0.43080
 C2123 C 0.75140 0.22254 0.41621
 C2124 C 0.75120 0.22254 0.38713
 C2125 C 0.75101 0.24904 0.37225
 C2126 C 0.75109 0.27549 0.38717
 C2127 C 0.75146 0.24891 0.46072
 C2128 C 0.75144 0.24890 0.48578
 C2129 C 0.75134 0.24892 0.51511
 C2130 C 0.75120 0.24896 0.54017
 C2131 C 0.75097 0.24903 0.57009
 C2132 C 0.75083 0.22263 0.58474
 C2133 C 0.75050 0.22266 0.61382
 C2134 C 0.75030 0.24917 0.62864
 C2135 C 0.75048 0.27561 0.61366
 C2136 C 0.75081 0.27550 0.58458
 H2137 H 0.75129 0.29597 0.42737
 H2138 H 0.75150 0.20193 0.42731
 H2139 H 0.75117 0.20179 0.37635
 H2140 H 0.75097 0.29629 0.37643
 H2141 H 0.75095 0.20201 0.57369
 H2142 H 0.75039 0.20191 0.62464
 H2143 H 0.75035 0.29641 0.62435
 H2144 H 0.75091 0.29606 0.57341
 C2145 C 0.59478 0.07269 0.56679
 C2146 C 0.58986 0.09263 0.58769
 C2147 C 0.57028 0.09871 0.59322
 C2148 C 0.55564 0.08460 0.57821
 C2149 C 0.56039 0.06413 0.55743
 C2150 C 0.58016 0.05853 0.55174
 C2151 C 0.60488 0.10640 0.60386
 C2152 C 0.61741 0.11780 0.61760
 C2153 C 0.63206 0.13109 0.63376
 C2154 C 0.64460 0.14250 0.64749
 C2155 C 0.65961 0.15632 0.66363
 C2156 C 0.65470 0.17638 0.68442
 C2157 C 0.66932 0.19063 0.69940
 C2158 C 0.68909 0.18499 0.69374
 C2159 C 0.69384 0.16438 0.67307
 C2160 C 0.67919 0.15019 0.65814
 H2161 H 0.60990 0.06784 0.56234
 H2162 H 0.56633 0.11412 0.60936
 H2163 H 0.54060 0.08944 0.58320
 H2164 H 0.58436 0.04295 0.53589
 H2165 H 0.63958 0.18127 0.68884
 H2166 H 0.66512 0.20631 0.71515
 H2167 H 0.70887 0.15951 0.66811
 H2168 H 0.68314 0.13469 0.64208
 C2169 C -0.18004 0.34328 0.65271
 C2170 C -0.16045 0.33756 0.65854
 C2171 C -0.15558 0.31795 0.67978
 C2172 C -0.17023 0.30407 0.69510
 C2173 C -0.19000 0.30963 0.68938
 C2174 C -0.19472 0.32945 0.66799
 C2175 C -0.14537 0.35181 0.64274
 C2176 C -0.13276 0.36383 0.62953
 C2177 C -0.11800 0.37801 0.61415
 C2178 C -0.10538 0.39025 0.60116
 C2179 C -0.09026 0.40506 0.58589
 C2180 C -0.07069 0.39969 0.59214
 C2181 C -0.05599 0.41464 0.57791
 C2182 C -0.06066 0.43527 0.55720
 C2183 C -0.08041 0.44025 0.55087
 C2184 C -0.09508 0.42525 0.56514
 H2185 H -0.18398 0.35842 0.63631
 H2186 H -0.14046 0.31336 0.68448
 H2187 H -0.16603 0.28894 0.71136
 H2188 H -0.20975 0.33422 0.66294
 H2189 H -0.06679 0.38412 0.60818
 H2190 H -0.04098 0.41025 0.58337
 H2191 H -0.08457 0.45590 0.53504
 H2192 H -0.11019 0.42958 0.56013
 C2193 C 0.92911 0.10098 0.59100
 C2194 C 0.90955 0.09545 0.58490
 C2195 C 0.90471 0.07523 0.56422
 C2196 C 0.91937 0.06032 0.54989
 C2197 C 0.93912 0.06543 0.55611
 C2198 C 0.94381 0.08612 0.57671
 C2199 C 0.89446 0.11003 0.60032
 C2200 C 0.88187 0.12206 0.61349
 C2201 C 0.86715 0.13595 0.62910
 C2202 C 0.85457 0.14771 0.64252
 C2203 C 0.83952 0.16167 0.65854
 C2204 C 0.81995 0.15566 0.65295
 C2205 C 0.80529 0.16929 0.66837
 C2206 C 0.81003 0.18916 0.68967
 C2207 C 0.82979 0.19497 0.69518
 C2208 C 0.84442 0.18129 0.67971
 H2209 H 0.93301 0.11657 0.60700
 H2210 H 0.88960 0.07079 0.55934
 H2211 H 0.91521 0.04462 0.53414
 H2212 H 0.95882 0.09060 0.58208
 H2213 H 0.81601 0.14049 0.63660
 H2214 H 0.79026 0.16434 0.66349
 H2215 H 0.83398 0.21016 0.71136
 H2216 H 0.85954 0.18609 0.68420
 C2217 C 0.67906 0.34799 0.65747
 C2218 C 0.65948 0.34193 0.66302
 C2219 C 0.65459 0.32188 0.68386
 C2220 C 0.66922 0.30762 0.69887
 C2221 C 0.68899 0.31324 0.69318
 C2222 C 0.69372 0.33379 0.67243
 C2223 C 0.64446 0.35587 0.64692
 C2224 C 0.63194 0.36745 0.63325
 C2225 C 0.61731 0.38097 0.61715
 C2226 C 0.60480 0.39257 0.60348
 C2227 C 0.58980 0.40657 0.58737
 C2228 C 0.57021 0.40048 0.59281
 C2229 C 0.55558 0.41477 0.57786
 C2230 C 0.56037 0.43545 0.55724
 C2231 C 0.58015 0.44108 0.55166
 C2232 C 0.59475 0.42674 0.56665
 H2233 H 0.68301 0.36348 0.64137
 H2234 H 0.63946 0.31704 0.68833
 H2235 H 0.66502 0.29198 0.71468
 H2236 H 0.70875 0.33865 0.66744
 H2237 H 0.56623 0.38491 0.60881
 H2238 H 0.54054 0.40990 0.58276
 H2239 H 0.58438 0.45682 0.53595
 H2240 H 0.60988 0.43160 0.56228
 C2241 C 0.92974 0.10043 0.90795
 C2242 C 0.91020 0.09516 0.91444
 C2243 C 0.90541 0.07504 0.93527
 C2244 C 0.92010 0.05998 0.94937
 C2245 C 0.93982 0.06484 0.94278
 C2246 C 0.94447 0.08541 0.92202
 C2247 C 0.89506 0.10991 0.89929
 C2248 C 0.88239 0.12204 0.88638
 C2249 C 0.86757 0.13603 0.87107
 C2250 C 0.85490 0.14786 0.85790
 C2251 C 0.83977 0.16189 0.84213
 C2252 C 0.82022 0.15606 0.84811
 C2253 C 0.80549 0.16971 0.83284
 C2254 C 0.81013 0.18942 0.81133
 C2255 C 0.82987 0.19507 0.80545
 C2256 C 0.84457 0.18137 0.82076
 H2257 H 0.93359 0.11594 0.89183
 H2258 H 0.89032 0.07081 0.94045
 H2259 H 0.91598 0.04437 0.96527
 H2260 H 0.95946 0.08969 0.91636
 H2261 H 0.81636 0.14100 0.86462
 H2262 H 0.79048 0.16489 0.83800
 H2263 H 0.83399 0.21012 0.78909
 H2264 H 0.85967 0.18602 0.81596
 C2265 C 0.59493 0.42698 0.93399
 C2266 C 0.59003 0.40691 0.91322
 C2267 C 0.57045 0.40085 0.90767
 C2268 C 0.55580 0.41511 0.92257
 C2269 C 0.56054 0.43570 0.94323
 C2270 C 0.58031 0.44128 0.94893
 C2271 C 0.60505 0.39300 0.89714
 C2272 C 0.61758 0.38150 0.88347
 C2273 C 0.63222 0.36808 0.86739
 C2274 C 0.64475 0.35656 0.85371
 C2275 C 0.65974 0.34263 0.83761
 C2276 C 0.65480 0.32252 0.81689
 C2277 C 0.66940 0.30818 0.80193
 C2278 C 0.68918 0.31378 0.80755
 C2279 C 0.69396 0.33441 0.82816
 C2280 C 0.67932 0.34870 0.84308
 H2281 H 0.61006 0.43180 0.93844
 H2282 H 0.56651 0.38535 0.89162
 H2283 H 0.54077 0.41028 0.91758
 H2284 H 0.58450 0.45696 0.96469
 H2285 H 0.63967 0.31769 0.81250
 H2286 H 0.66518 0.29248 0.78621
 H2287 H 0.70900 0.33925 0.83308
 H2288 H 0.68329 0.36424 0.85909
 C2289 C 0.56995 0.09718 0.90853
 C2290 C 0.58952 0.09069 0.91354
 C2291 C 0.59439 0.06999 0.93378
 C2292 C 0.57979 0.05553 0.94871
 C2293 C 0.55986 0.06143 0.94362
 C2294 C 0.55526 0.08282 0.92337
 C2295 C 0.60459 0.10495 0.89759
 C2296 C 0.61716 0.11677 0.88408
 C2297 C 0.63187 0.13056 0.86818
 C2298 C 0.64444 0.14236 0.85466
 C2299 C 0.65951 0.15656 0.83868
 C2300 C 0.67912 0.15067 0.84425
 C2301 C 0.69378 0.16497 0.82929
 C2302 C 0.68904 0.18547 0.80848
 C2303 C 0.66925 0.19096 0.80281
 C2304 C 0.65462 0.17662 0.81781
 H2305 H 0.56600 0.11322 0.89293
 H2306 H 0.60952 0.06482 0.93788
 H2307 H 0.58424 0.03948 0.96402
 H2308 H 0.54030 0.08837 0.91859
 H2309 H 0.68309 0.13520 0.86034
 H2310 H 0.70881 0.16019 0.83429
 H2311 H 0.66503 0.20656 0.78697
 H2312 H 0.63949 0.18135 0.81328
 C2313 C 0.92934 0.39990 0.90818
 C2314 C 0.90976 0.40527 0.91436
 C2315 C 0.90490 0.42546 0.93508
 C2316 C 0.91954 0.44045 0.94937
 C2317 C 0.93930 0.43546 0.94310
 C2318 C 0.94402 0.41484 0.92243
 C2319 C 0.89468 0.39047 0.89906
 C2320 C 0.88209 0.37824 0.88604
 C2321 C 0.86736 0.36407 0.87064
 C2322 C 0.85477 0.35207 0.85742
 C2323 C 0.83969 0.33784 0.84165
 C2324 C 0.82011 0.34369 0.84742
 C2325 C 0.80543 0.32984 0.83221
 C2326 C 0.81014 0.30988 0.81095
 C2327 C 0.82990 0.30421 0.80528
 C2328 C 0.84456 0.31811 0.82053
 H2329 H 0.93328 0.38433 0.89217
 H2330 H 0.88978 0.42979 0.94003
 H2331 H 0.91535 0.45611 0.96516
 H2332 H 0.95904 0.41044 0.91701
 H2333 H 0.81618 0.35892 0.86372
 H2334 H 0.79040 0.33470 0.83723
 H2335 H 0.83409 0.28897 0.78912
 H2336 H 0.85967 0.31342 0.81588
 C2337 C 0.00071 0.47384 0.83571
 C2338 C 0.00079 0.50022 0.82107
 C2339 C 0.00068 0.52661 0.83566
 C2340 C 0.00047 0.52671 0.86477
 C2341 C 0.00035 0.50023 0.88000
 C2342 C 0.00050 0.47375 0.86482
 C2343 C 0.00089 0.50021 0.79106
 C2344 C 0.00094 0.50019 0.76594
 C2345 C 0.00095 0.50015 0.73651
 C2346 C 0.00091 0.50012 0.71139
 C2347 C 0.00082 0.50009 0.68138
 C2348 C 0.00074 0.52649 0.66670
 C2349 C 0.00055 0.52650 0.63758
 C2350 C 0.00043 0.50003 0.62268
 C2351 C 0.00056 0.47358 0.63767
 C2352 C 0.00074 0.47365 0.66679
 H2353 H 0.00080 0.45325 0.82462
 H2354 H 0.00074 0.54720 0.82453
 H2355 H 0.00039 0.54768 0.87520
 H2356 H 0.00045 0.45279 0.87529
 H2357 H 0.00080 0.54710 0.67776
 H2358 H 0.00048 0.54727 0.62679
 H2359 H 0.00049 0.45280 0.62695
 H2360 H 0.00081 0.45307 0.67792
 C2361 C 0.25110 0.77729 0.41564
 C2362 C 0.25116 0.75087 0.43026
 C2363 C 0.25102 0.72442 0.41573
 C2364 C 0.25079 0.72436 0.38666
 C2365 C 0.25068 0.75082 0.37171
 C2366 C 0.25087 0.77731 0.38657
 C2367 C 0.25127 0.75090 0.46017
 C2368 C 0.25131 0.75091 0.48523
 C2369 C 0.25128 0.75090 0.51456
 C2370 C 0.25120 0.75088 0.53962
 C2371 C 0.25104 0.75084 0.56953
 C2372 C 0.25093 0.72438 0.58409
 C2373 C 0.25065 0.72429 0.61317
 C2374 C 0.25047 0.75075 0.62809
 C2375 C 0.25063 0.77724 0.61320
 C2376 C 0.25091 0.77725 0.58412
 H2377 H 0.25121 0.79789 0.42672
 H2378 H 0.25107 0.70385 0.42688
 H2379 H 0.25067 0.70357 0.37593
 H2380 H 0.25081 0.79807 0.37577
 H2381 H 0.25102 0.70381 0.57297
 H2382 H 0.25055 0.70350 0.62392
 H2383 H 0.25053 0.79800 0.62397
 H2384 H 0.25100 0.79785 0.57303
 C2385 C 0.09476 0.56851 0.57091
 C2386 C 0.08985 0.58818 0.59205
 C2387 C 0.07027 0.59403 0.59778
 C2388 C 0.05562 0.58021 0.58251
 C2389 C 0.06037 0.56031 0.56123
 C2390 C 0.08014 0.55465 0.55559
 C2391 C 0.10489 0.60238 0.60788
 C2392 C 0.11745 0.61437 0.62114
 C2393 C 0.13213 0.62853 0.63659
 C2394 C 0.14469 0.64076 0.64962
 C2395 C 0.15975 0.65557 0.66491
 C2396 C 0.15487 0.67580 0.68557
 C2397 C 0.16950 0.69083 0.69982
 C2398 C 0.18926 0.68583 0.69355
 C2399 C 0.19399 0.66516 0.67294
 C2400 C 0.17933 0.65018 0.65873
 H2401 H 0.10989 0.56384 0.56630
 H2402 H 0.06631 0.60922 0.61411
 H2403 H 0.04058 0.58506 0.58749
 H2404 H 0.08435 0.53945 0.53942
 H2405 H 0.13975 0.68013 0.69051
 H2406 H 0.16531 0.70652 0.71558
 H2407 H 0.20901 0.66075 0.66752
 H2408 H 0.18326 0.63457 0.64275
 C2409 C 0.42934 0.90486 0.59591
 C2410 C 0.40979 0.91017 0.58955
 C2411 C 0.40496 0.92998 0.56849
 C2412 C 0.41963 0.94447 0.55380
 C2413 C 0.43937 0.93930 0.56001
 C2414 C 0.44405 0.91930 0.58127
 C2415 C 0.39470 0.89529 0.60470
 C2416 C 0.38210 0.88280 0.61743
 C2417 C 0.36737 0.86816 0.63236
 C2418 C 0.35478 0.85566 0.64510
 C2419 C 0.33972 0.84076 0.66027
 C2420 C 0.32016 0.84604 0.65397
 C2421 C 0.30548 0.83157 0.66865
 C2422 C 0.31020 0.81157 0.68988
 C2423 C 0.32995 0.80643 0.69604
 C2424 C 0.34459 0.82095 0.68132
 H2425 H 0.43322 0.88956 0.61221
 H2426 H 0.38985 0.93424 0.56343
 H2427 H 0.41549 0.95971 0.53761
 H2428 H 0.45906 0.91482 0.58666
 H2429 H 0.31625 0.86133 0.63768
 H2430 H 0.29046 0.83602 0.66329
 H2431 H 0.33412 0.79120 0.71222
 H2432 H 0.35971 0.81671 0.68635
 C2433 C 0.34465 0.68005 0.68124
 C2434 C 0.33979 0.66025 0.66021
 C2435 C 0.32021 0.65509 0.65389
 C2436 C 0.30554 0.66963 0.66852
 C2437 C 0.31025 0.68961 0.68975
 C2438 C 0.33001 0.69465 0.69592
 C2439 C 0.35486 0.64521 0.64510
 C2440 C 0.36744 0.63257 0.63240
 C2441 C 0.38216 0.61776 0.61752
 C2442 C 0.39475 0.60512 0.60483
 C2443 C 0.40982 0.59008 0.58973
 C2444 C 0.40497 0.57028 0.56869
 C2445 C 0.41962 0.55568 0.55402
 C2446 C 0.43938 0.56072 0.56021
 C2447 C 0.44408 0.58069 0.58145
 C2448 C 0.42940 0.59524 0.59607
 H2449 H 0.35977 0.68422 0.68631
 H2450 H 0.31628 0.63981 0.63762
 H2451 H 0.29051 0.66524 0.66314
 H2452 H 0.33419 0.70986 0.71210
 H2453 H 0.38985 0.56611 0.56362
 H2454 H 0.41544 0.54047 0.53785
 H2455 H 0.45910 0.58509 0.58684
 H2456 H 0.43332 0.61052 0.61233
 C2457 C 0.09454 0.93235 0.57055
 C2458 C 0.08966 0.91273 0.59177
 C2459 C 0.07008 0.90685 0.59751
 C2460 C 0.05541 0.92058 0.58217
 C2461 C 0.06014 0.94043 0.56080
 C2462 C 0.07990 0.94613 0.55516
 C2463 C 0.10472 0.89861 0.60766
 C2464 C 0.11731 0.88671 0.62097
 C2465 C 0.13203 0.87264 0.63647
 C2466 C 0.14462 0.86047 0.64955
 C2467 C 0.15970 0.84573 0.66489
 C2468 C 0.15483 0.82546 0.68556
 C2469 C 0.16948 0.81046 0.69985
 C2470 C 0.18924 0.81553 0.69362
 C2471 C 0.19395 0.83626 0.67301
 C2472 C 0.17927 0.85120 0.65876
 H2473 H 0.10966 0.93705 0.56592
 H2474 H 0.06614 0.89169 0.61390
 H2475 H 0.04038 0.91571 0.58716
 H2476 H 0.08409 0.96129 0.53892
 H2477 H 0.13972 0.82106 0.69046
 H2478 H 0.16530 0.79473 0.71559
 H2479 H 0.20897 0.84071 0.66763
 H2480 H 0.18319 0.86684 0.64278
 C2481 C 0.42961 0.59558 0.90395
 C2482 C 0.41002 0.59035 0.91025
 C2483 C 0.40516 0.57053 0.93131
 C2484 C 0.41981 0.55597 0.94602
 C2485 C 0.43958 0.56107 0.93987
 C2486 C 0.44429 0.58107 0.91862
 C2487 C 0.39494 0.60533 0.89509
 C2488 C 0.38234 0.61790 0.88236
 C2489 C 0.36759 0.63263 0.86745
 C2490 C 0.35498 0.64519 0.85473
 C2491 C 0.33988 0.66016 0.83959
 C2492 C 0.32031 0.65488 0.84588
 C2493 C 0.30561 0.66939 0.83125
 C2494 C 0.31030 0.68945 0.81004
 C2495 C 0.33006 0.69460 0.80388
 C2496 C 0.34472 0.68004 0.81856
 H2497 H 0.43354 0.61088 0.88768
 H2498 H 0.39005 0.56630 0.93636
 H2499 H 0.41563 0.54073 0.96221
 H2500 H 0.45931 0.58552 0.91325
 H2501 H 0.31639 0.63955 0.86213
 H2502 H 0.29059 0.66491 0.83661
 H2503 H 0.33423 0.70988 0.78773
 H2504 H 0.35984 0.68430 0.81352
 C2505 C 0.09414 0.93256 0.92922
 C2506 C 0.08931 0.91258 0.90836
 C2507 C 0.06976 0.90647 0.90284
 C2508 C 0.05504 0.92030 0.91803
 C2509 C 0.05960 0.94068 0.93918
 C2510 C 0.07950 0.94648 0.94449
 C2511 C 0.10442 0.89833 0.89258
 C2512 C 0.11705 0.88634 0.87938
 C2513 C 0.13183 0.87219 0.86400
 C2514 C 0.14446 0.86000 0.85099
 C2515 C 0.15959 0.84524 0.83568
 C2516 C 0.15476 0.82509 0.81492
 C2517 C 0.16944 0.81016 0.80058
 C2518 C 0.18919 0.81517 0.80685
 C2519 C 0.19387 0.83574 0.82758
 C2520 C 0.17916 0.85062 0.84187
 H2521 H 0.10926 0.93744 0.93367
 H2522 H 0.06585 0.89101 0.88673
 H2523 H 0.04009 0.91497 0.91297
 H2524 H 0.08392 0.96187 0.96040
 H2525 H 0.13966 0.82075 0.80994
 H2526 H 0.16528 0.79455 0.78475
 H2527 H 0.20888 0.84015 0.83300
 H2528 H 0.18307 0.86615 0.85792
 C2529 C 0.07020 0.59397 0.90202
 C2530 C 0.08977 0.58816 0.90785
 C2531 C 0.09465 0.56863 0.92913
 C2532 C 0.08001 0.55486 0.94451
 C2533 C 0.06026 0.56048 0.93878
 C2534 C 0.05553 0.58024 0.91736
 C2535 C 0.10483 0.60226 0.89197
 C2536 C 0.11742 0.61416 0.87869
 C2537 C 0.13214 0.62823 0.86323
 C2538 C 0.14473 0.64042 0.85020
 C2539 C 0.15980 0.65520 0.83492
 C2540 C 0.17936 0.64983 0.84114
 C2541 C 0.19403 0.66485 0.82696
 C2542 C 0.18931 0.68555 0.80635
 C2543 C 0.16957 0.69053 0.80003
 C2544 C 0.15493 0.67545 0.81425
 H2545 H 0.06628 0.60906 0.88558
 H2546 H 0.10977 0.56400 0.93381
 H2547 H 0.08420 0.53976 0.96080
 H2548 H 0.04050 0.58504 0.91231
 H2549 H 0.18328 0.63421 0.85714
 H2550 H 0.20905 0.66048 0.83240
 H2551 H 0.16539 0.70624 0.78426
 H2552 H 0.13981 0.67977 0.80928
 C2553 C 0.42989 0.90363 0.90429
 C2554 C 0.41033 0.90895 0.91065
 C2555 C 0.40554 0.92869 0.93179
 C2556 C 0.42023 0.94309 0.94649
 C2557 C 0.43998 0.93792 0.94026
 C2558 C 0.44462 0.91799 0.91895
 C2559 C 0.39520 0.89419 0.89547
 C2560 C 0.38254 0.88182 0.88273
 C2561 C 0.36772 0.86734 0.86779
 C2562 C 0.35506 0.85499 0.85504
 C2563 C 0.33992 0.84024 0.83984
 C2564 C 0.32036 0.84557 0.84619
 C2565 C 0.30564 0.83124 0.83149
 C2566 C 0.31029 0.81132 0.81018
 C2567 C 0.33003 0.80613 0.80397
 C2568 C 0.34472 0.82050 0.81871
 H2569 H 0.43377 0.88840 0.88795
 H2570 H 0.39044 0.93297 0.93688
 H2571 H 0.41610 0.95827 0.96272
 H2572 H 0.45963 0.91350 0.91353
 H2573 H 0.31649 0.86080 0.86252
 H2574 H 0.29063 0.83574 0.83689
 H2575 H 0.33417 0.79095 0.78774
 H2576 H 0.35983 0.81621 0.81363
 C2577 C 0.49882 0.47350 0.83432
 C2578 C 0.49869 0.49992 0.81971
 C2579 C 0.49883 0.52637 0.83424
 C2580 C 0.49912 0.52644 0.86331
 C2581 C 0.49930 0.49997 0.87825
 C2582 C 0.49912 0.47348 0.86340
 C2583 C 0.49851 0.49989 0.78981
 C2584 C 0.49841 0.49985 0.76476
 C2585 C 0.49837 0.49982 0.73543
 C2586 C 0.49840 0.49979 0.71038
 C2587 C 0.49851 0.49978 0.68048
 C2588 C 0.49860 0.52621 0.66588
 C2589 C 0.49886 0.52625 0.63681
 C2590 C 0.49903 0.49977 0.62193
 C2591 C 0.49888 0.47329 0.63686
 C2592 C 0.49863 0.47334 0.66593
 H2593 H 0.49872 0.45290 0.82325
 H2594 H 0.49873 0.54694 0.82309
 H2595 H 0.49924 0.54722 0.87404
 H2596 H 0.49923 0.45272 0.87419
 H2597 H 0.49851 0.54680 0.67697
 H2598 H 0.49895 0.54702 0.62603
 H2599 H 0.49899 0.45252 0.62612
 H2600 H 0.49856 0.45276 0.67707
 C2601 C 0.75104 0.77720 0.41563
 C2602 C 0.75115 0.75080 0.43028
 C2603 C 0.75104 0.72433 0.41578
 C2604 C 0.75080 0.72423 0.38671
 C2605 C 0.75064 0.75067 0.37173
 C2606 C 0.75079 0.77718 0.38656
 C2607 C 0.75126 0.75086 0.46019
 C2608 C 0.75129 0.75089 0.48525
 C2609 C 0.75125 0.75090 0.51458
 C2610 C 0.75116 0.75089 0.53964
 C2611 C 0.75098 0.75083 0.56955
 C2612 C 0.75088 0.72436 0.58409
 C2613 C 0.75058 0.72426 0.61316
 C2614 C 0.75038 0.75070 0.62810
 C2615 C 0.75053 0.77721 0.61323
 C2616 C 0.75082 0.77723 0.58415
 H2617 H 0.75112 0.79781 0.42669
 H2618 H 0.75112 0.70377 0.42695
 H2619 H 0.75070 0.70343 0.37600
 H2620 H 0.75070 0.79793 0.37574
 H2621 H 0.75100 0.70380 0.57295
 H2622 H 0.75050 0.70346 0.62390
 H2623 H 0.75040 0.79796 0.62402
 H2624 H 0.75090 0.79785 0.57307
 C2625 C 0.59478 0.57262 0.56662
 C2626 C 0.58985 0.59269 0.58741
 C2627 C 0.57026 0.59867 0.59296
 C2628 C 0.55562 0.58438 0.57805
 C2629 C 0.56038 0.56382 0.55735
 C2630 C 0.58017 0.55828 0.55167
 C2631 C 0.60487 0.60675 0.60343
 C2632 C 0.61740 0.61841 0.61702
 C2633 C 0.63206 0.63200 0.63301
 C2634 C 0.64459 0.64365 0.64659
 C2635 C 0.65963 0.65768 0.66260
 C2636 C 0.65473 0.67770 0.68345
 C2637 C 0.66935 0.69201 0.69840
 C2638 C 0.68913 0.68649 0.69266
 C2639 C 0.69387 0.66599 0.67189
 C2640 C 0.67922 0.65174 0.65699
 H2641 H 0.60991 0.56784 0.56215
 H2642 H 0.56628 0.61417 0.60901
 H2643 H 0.54058 0.58919 0.58303
 H2644 H 0.58439 0.54263 0.53590
 H2645 H 0.63960 0.68246 0.68797
 H2646 H 0.66514 0.70761 0.71422
 H2647 H 0.70891 0.66121 0.66686
 H2648 H 0.68318 0.63628 0.64089
 C2649 C 0.92914 0.90023 0.59124
 C2650 C 0.90958 0.90564 0.58502
 C2651 C 0.90473 0.92582 0.56427
 C2652 C 0.91939 0.94080 0.54998
 C2653 C 0.93914 0.93579 0.55630
 C2654 C 0.94383 0.91516 0.57699
 C2655 C 0.89449 0.89093 0.60035
 C2656 C 0.88189 0.87878 0.61343
 C2657 C 0.86717 0.86472 0.62894
 C2658 C 0.85460 0.85282 0.64226
 C2659 C 0.83955 0.83870 0.65818
 C2660 C 0.81997 0.84461 0.65251
 C2661 C 0.80531 0.83084 0.66786
 C2662 C 0.81006 0.81093 0.68915
 C2663 C 0.82983 0.80521 0.69473
 C2664 C 0.84445 0.81903 0.67934
 H2665 H 0.93304 0.88466 0.60728
 H2666 H 0.88962 0.93016 0.55929
 H2667 H 0.91523 0.95646 0.53416
 H2668 H 0.95884 0.91076 0.58244
 H2669 H 0.81602 0.85982 0.63617
 H2670 H 0.79028 0.83573 0.66293
 H2671 H 0.83403 0.78999 0.71091
 H2672 H 0.85958 0.81431 0.68390
 C2673 C 0.92939 0.60072 0.59159
 C2674 C 0.90982 0.59532 0.58540
 C2675 C 0.90497 0.57505 0.56476
 C2676 C 0.91963 0.55999 0.55055
 C2677 C 0.93938 0.56499 0.55684
 C2678 C 0.94408 0.58571 0.57742
 C2679 C 0.89472 0.61014 0.60064
 C2680 C 0.88211 0.62237 0.61363
 C2681 C 0.86737 0.63652 0.62902
 C2682 C 0.85477 0.64848 0.64225
 C2683 C 0.83969 0.66266 0.65806
 C2684 C 0.82011 0.65688 0.65225
 C2685 C 0.80543 0.67064 0.66754
 C2686 C 0.81013 0.69043 0.68893
 C2687 C 0.82990 0.69605 0.69463
 C2688 C 0.84455 0.68224 0.67929
 H2689 H 0.93330 0.61635 0.60755
 H2690 H 0.88986 0.57071 0.55981
 H2691 H 0.91547 0.54427 0.53482
 H2692 H 0.95909 0.59011 0.58284
 H2693 H 0.81618 0.64176 0.63585
 H2694 H 0.79040 0.66584 0.66251
 H2695 H 0.83408 0.71116 0.71088
 H2696 H 0.85967 0.68687 0.68397
 C2697 C 0.59470 0.92717 0.56645
 C2698 C 0.58978 0.90719 0.58733
 C2699 C 0.57020 0.90115 0.59290
 C2700 C 0.55555 0.91535 0.57794
 C2701 C 0.56032 0.93587 0.55718
 C2702 C 0.58009 0.94143 0.55145
 C2703 C 0.60479 0.89337 0.60348
 C2704 C 0.61733 0.88195 0.61720
 C2705 C 0.63200 0.86867 0.63333
 C2706 C 0.64455 0.85726 0.64703
 C2707 C 0.65959 0.84346 0.66314
 C2708 C 0.65471 0.82340 0.68397
 C2709 C 0.66936 0.80915 0.69893
 C2710 C 0.68911 0.81479 0.69318
 C2711 C 0.69383 0.83539 0.67247
 C2712 C 0.67916 0.84958 0.65756
 H2713 H 0.60983 0.93198 0.56198
 H2714 H 0.56624 0.88570 0.60904
 H2715 H 0.54052 0.91055 0.58295
 H2716 H 0.58430 0.95704 0.53562
 H2717 H 0.63960 0.81852 0.68845
 H2718 H 0.66518 0.79348 0.71472
 H2719 H 0.70886 0.84025 0.66745
 H2720 H 0.68308 0.86508 0.64146
 C2721 C 0.92935 0.60077 0.90832
 C2722 C 0.90977 0.59535 0.91448
 C2723 C 0.90490 0.57512 0.93518
 C2724 C 0.91954 0.56011 0.94947
 C2725 C 0.93930 0.56513 0.94321
 C2726 C 0.94402 0.58582 0.92257
 C2727 C 0.89471 0.61010 0.89915
 C2728 C 0.88213 0.62228 0.88607
 C2729 C 0.86742 0.63637 0.87057
 C2730 C 0.85485 0.64829 0.85727
 C2731 C 0.83978 0.66240 0.84140
 C2732 C 0.82021 0.65645 0.84712
 C2733 C 0.80553 0.67021 0.83183
 C2734 C 0.81023 0.69015 0.81054
 C2735 C 0.82999 0.69592 0.80491
 C2736 C 0.84464 0.68211 0.82025
 H2737 H 0.93328 0.61638 0.89232
 H2738 H 0.88978 0.57076 0.94011
 H2739 H 0.91536 0.54441 0.96524
 H2740 H 0.95904 0.59023 0.91716
 H2741 H 0.81628 0.64123 0.86346
 H2742 H 0.79050 0.66528 0.83681
 H2743 H 0.83416 0.71116 0.78873
 H2744 H 0.85976 0.68687 0.81565
 C2745 C 0.59436 0.92775 0.93394
 C2746 C 0.58948 0.90710 0.91371
 C2747 C 0.56992 0.90048 0.90878
 C2748 C 0.55524 0.91473 0.92369
 C2749 C 0.55984 0.93612 0.94389
 C2750 C 0.57975 0.94210 0.94893
 C2751 C 0.60454 0.89309 0.89762
 C2752 C 0.61711 0.88151 0.88398
 C2753 C 0.63182 0.86803 0.86793
 C2754 C 0.64441 0.85650 0.85428
 C2755 C 0.65949 0.84261 0.83816
 C2756 C 0.65463 0.82268 0.81721
 C2757 C 0.66929 0.80854 0.80212
 C2758 C 0.68906 0.81412 0.80781
 C2759 C 0.69376 0.83452 0.82868
 C2760 C 0.67908 0.84861 0.84372
 H2761 H 0.60947 0.93301 0.93797
 H2762 H 0.56599 0.88447 0.89318
 H2763 H 0.54028 0.90911 0.91896
 H2764 H 0.58420 0.95815 0.96422
 H2765 H 0.63952 0.81787 0.81270
 H2766 H 0.66510 0.79302 0.78623
 H2767 H 0.70879 0.83934 0.83368
 H2768 H 0.68301 0.86399 0.85989
 C2769 C 0.57052 0.59886 0.90728
 C2770 C 0.59009 0.59281 0.91287
 C2771 C 0.59498 0.57279 0.93374
 C2772 C 0.58034 0.55853 0.94872
 C2773 C 0.56058 0.56412 0.94297
 C2774 C 0.55586 0.58465 0.92222
 C2775 C 0.60513 0.60669 0.89678
 C2776 C 0.61768 0.61819 0.88310
 C2777 C 0.63233 0.63161 0.86701
 C2778 C 0.64486 0.64313 0.85332
 C2779 C 0.65986 0.65708 0.83721
 C2780 C 0.67945 0.65105 0.84270
 C2781 C 0.69408 0.66534 0.82776
 C2782 C 0.68929 0.68595 0.80710
 C2783 C 0.66952 0.69151 0.80144
 C2784 C 0.65492 0.67717 0.81643
 H2785 H 0.56659 0.61433 0.89116
 H2786 H 0.61010 0.56797 0.93823
 H2787 H 0.58453 0.54290 0.96454
 H2788 H 0.54083 0.58948 0.91720
 H2789 H 0.68342 0.63553 0.85876
 H2790 H 0.70912 0.66054 0.83272
 H2791 H 0.66529 0.70719 0.78569
 H2792 H 0.63979 0.68197 0.81201
 C2793 C 0.92969 0.89950 0.90770
 C2794 C 0.91014 0.90484 0.91410
 C2795 C 0.90536 0.92493 0.93492
 C2796 C 0.92005 0.93990 0.94911
 C2797 C 0.93978 0.93497 0.94261
 C2798 C 0.94442 0.91442 0.92185
 C2799 C 0.89500 0.89015 0.89889
 C2800 C 0.88234 0.87804 0.88593
 C2801 C 0.86753 0.86406 0.87058
 C2802 C 0.85488 0.85222 0.85738
 C2803 C 0.83976 0.83816 0.84158
 C2804 C 0.82020 0.84396 0.84751
 C2805 C 0.80548 0.83028 0.83225
 C2806 C 0.81015 0.81056 0.81078
 C2807 C 0.82990 0.80494 0.80495
 C2808 C 0.84458 0.81867 0.82026
 H2809 H 0.93356 0.88400 0.89160
 H2810 H 0.89026 0.92923 0.94004
 H2811 H 0.91593 0.95549 0.96499
 H2812 H 0.95942 0.91008 0.91626
 H2813 H 0.81631 0.85902 0.86398
 H2814 H 0.79046 0.83508 0.83737
 H2815 H 0.83405 0.78988 0.78863
 H2816 H 0.85969 0.81403 0.81550
   
