data_POSCAR
  _audit_creation_date              2014-09-24
  _audit_creation_method            'ToBaCCo'
  _symmetry_space_group_name_H-M    'P1'
  _symmetry_Int_Tables_number       1
  _symmetry_cell_setting            triclinic
  loop_
  _symmetry_equiv_pos_as_xyz
 x,y,z
_cell_length_a 40.0542
_cell_length_b 40.1379
_cell_length_c 40.1374
_cell_angle_alpha 89.972900
_cell_angle_beta 89.992500
_cell_angle_gamma 90.034700
loop_
  _atom_site_label
  _atom_site_type_symbol
  _atom_site_fract_x
  _atom_site_fract_y
  _atom_site_fract_z
C1 C 0.33132 1.37533 0.33348
 C2 C 0.34706 1.39136 0.30673
 C3 C 0.37761 1.37954 0.29331
 C4 C 0.39312 1.35263 0.31032
 C5 C 0.37676 1.33545 0.33615
 C6 C 0.34529 1.34635 0.34701
 C7 C 0.30126 1.38781 0.34622
 C8 C 0.28309 1.37069 0.37115
 C9 C 0.29650 1.33984 0.38241
 C10 C 0.32765 1.32817 0.37117
 C11 C 0.34114 1.29825 0.38345
 C12 C 0.37339 1.28735 0.37395
 C13 C 0.39121 1.30705 0.35072
 H14 H 0.33366 1.41185 0.29574
 H15 H 0.41779 1.34419 0.30371
 H16 H 0.29326 1.41168 0.33691
 H17 H 0.28301 1.32415 0.39962
 H18 H 0.32595 1.28361 0.40020
 H19 H 0.41629 1.30044 0.34336
 C20 C 0.33018 0.87412 0.83206
 C21 C 0.34587 0.88945 0.80488
 C22 C 0.37735 0.87861 0.79326
 C23 C 0.39345 0.85291 0.81136
 C24 C 0.37689 0.83588 0.83719
 C25 C 0.34482 0.84614 0.84696
 C26 C 0.29968 0.88631 0.84405
 C27 C 0.28195 0.86988 0.86980
 C28 C 0.29571 0.83952 0.88181
 C29 C 0.32717 0.82822 0.87128
 C30 C 0.34094 0.79889 0.88447
 C31 C 0.37349 0.78842 0.87579
 C32 C 0.39159 0.80816 0.85275
 H33 H 0.33222 0.90888 0.79233
 H34 H 0.41845 0.84509 0.80505
 H35 H 0.29115 0.90949 0.83357
 H36 H 0.28235 0.82396 0.89924
 H37 H 0.32568 0.78429 0.90119
 H38 H 0.41700 0.80199 0.84619
 C39 C 0.83208 1.37750 0.83397
 C40 C 0.84766 1.39331 0.80699
 C41 C 0.87752 1.38063 0.79275
 C42 C 0.89313 1.35390 0.80989
 C43 C 0.87700 1.33708 0.83604
 C44 C 0.84569 1.34815 0.84709
 C45 C 0.80242 1.39034 0.84725
 C46 C 0.78396 1.37272 0.87153
 C47 C 0.79672 1.34153 0.88220
 C48 C 0.82790 1.32984 0.87107
 C49 C 0.84134 1.29988 0.88328
 C50 C 0.87369 1.28911 0.87390
 C51 C 0.89147 1.30877 0.85064
 H52 H 0.83459 1.41429 0.79656
 H53 H 0.91761 1.34513 0.80303
 H54 H 0.79441 1.41441 0.83841
 H55 H 0.78292 1.32600 0.89930
 H56 H 0.82612 1.28520 0.89996
 H57 H 0.91656 1.30223 0.84328
 C58 C 0.82621 0.86972 0.32775
 C59 C 0.83684 0.88027 0.29615
 C60 C 0.86700 0.86845 0.28190
 C61 C 0.88389 0.84273 0.29928
 C62 C 0.87228 0.83062 0.32993
 C63 C 0.84449 0.84543 0.34506
 C64 C 0.79727 0.88306 0.34204
 C65 C 0.78755 0.87473 0.37481
 C66 C 0.80728 0.85136 0.39247
 C67 C 0.83476 0.83566 0.37727
 C68 C 0.85219 0.80985 0.39347
 C69 C 0.87784 0.79190 0.37699
 C70 C 0.88808 0.80356 0.34536
 H71 H 0.82100 0.89769 0.28313
 H72 H 0.90705 0.83240 0.29039
 H73 H 0.78236 0.89973 0.32704
 H74 H 0.80131 0.84479 0.41790
 H75 H 0.84481 0.80353 0.41857
 H76 H 0.90744 0.79113 0.33147
 C77 C 0.67367 0.63045 0.32759
 C78 C 0.66298 0.61995 0.29601
 C79 C 0.63278 0.63180 0.28184
 C80 C 0.61592 0.65748 0.29926
 C81 C 0.62760 0.66953 0.32989
 C82 C 0.65543 0.65471 0.34495
 C83 C 0.70264 0.61707 0.34182
 C84 C 0.71243 0.62536 0.37456
 C85 C 0.69272 0.64872 0.39228
 C86 C 0.66522 0.66444 0.37714
 C87 C 0.64781 0.69024 0.39338
 C88 C 0.62209 0.70818 0.37697
 C89 C 0.61182 0.69656 0.34536
 H90 H 0.67880 0.60257 0.28293
 H91 H 0.59274 0.66780 0.29042
 H92 H 0.71751 0.60041 0.32679
 H93 H 0.69873 0.65526 0.41770
 H94 H 0.65524 0.69655 0.41846
 H95 H 0.59244 0.70898 0.33148
 C96 C 0.67086 0.12576 0.83201
 C97 C 0.65573 0.11099 0.80419
 C98 C 0.62429 0.12182 0.79241
 C99 C 0.60763 0.14677 0.81094
 C100 C 0.62367 0.16340 0.83724
 C101 C 0.65570 0.15324 0.84727
 C102 C 0.70131 0.11359 0.84422
 C103 C 0.71850 0.12951 0.87070
 C104 C 0.70420 0.15956 0.88301
 C105 C 0.67282 0.17086 0.87212
 C106 C 0.65863 0.19996 0.88541
 C107 C 0.62613 0.21038 0.87628
 C108 C 0.60850 0.19073 0.85292
 H109 H 0.66972 0.09200 0.79133
 H110 H 0.58259 0.15441 0.80454
 H111 H 0.71028 0.09098 0.83302
 H112 H 0.71691 0.17492 0.90102
 H113 H 0.67356 0.21445 0.90248
 H114 H 0.58314 0.19677 0.84606
 C115 C 1.16992 0.62589 0.83192
 C116 C 1.15424 0.61065 0.80469
 C117 C 1.12270 0.62145 0.79316
 C118 C 1.10656 0.64702 0.81135
 C119 C 1.12309 0.66398 0.83720
 C120 C 1.15520 0.65376 0.84693
 C121 C 1.20045 0.61371 0.84388
 C122 C 1.21810 0.63003 0.86974
 C123 C 1.20427 0.66034 0.88182
 C124 C 1.17280 0.67164 0.87129
 C125 C 1.15898 0.70092 0.88452
 C126 C 1.12641 0.71136 0.87582
 C127 C 1.10834 0.69162 0.85281
 H128 H 1.16794 0.59132 0.79203
 H129 H 1.08153 0.65479 0.80508
 H130 H 1.20908 0.59063 0.83328
 H131 H 1.21758 0.67586 0.89929
 H132 H 1.17419 0.71550 0.90127
 H133 H 1.08291 0.69774 0.84627
 C134 C 1.16908 0.12505 0.33319
 C135 C 1.15335 0.10911 0.30639
 C136 C 1.12273 0.12089 0.29308
 C137 C 1.10718 0.14769 0.31020
 C138 C 1.12352 0.16478 0.33608
 C139 C 1.15503 0.15393 0.34685
 C140 C 1.19918 0.11259 0.34589
 C141 C 1.21728 0.12963 0.37092
 C142 C 1.20382 0.16041 0.38223
 C143 C 1.17265 0.17205 0.37105
 C144 C 1.15910 0.20186 0.38346
 C145 C 1.12680 0.21270 0.37409
 C146 C 1.10900 0.19306 0.35081
 H147 H 1.16680 0.08872 0.29528
 H148 H 1.08248 0.15609 0.30366
 H149 H 1.20725 0.08880 0.33646
 H150 H 1.21727 0.17609 0.39947
 H151 H 1.17429 0.21645 0.40023
 H152 H 1.08389 0.19960 0.34354
 C153 C 0.67171 1.37125 0.66966
 C154 C 0.65794 1.38433 0.69901
 C155 C 0.62547 1.37537 0.70955
 C156 C 0.60735 1.35247 0.68988
 C157 C 0.62208 1.33696 0.66226
 C158 C 0.65416 1.34674 0.65192
 C159 C 0.70307 1.38203 0.65826
 C160 C 0.71707 1.36992 0.62813
 C161 C 0.69947 1.34372 0.61191
 C162 C 0.66891 1.33162 0.62415
 C163 C 0.65323 1.30411 0.60922
 C164 C 0.62169 1.29255 0.62029
 C165 C 0.60554 1.31103 0.64556
 H166 H 0.67312 1.40108 0.71363
 H167 H 0.58197 1.34586 0.69619
 H168 H 0.71615 1.39971 0.67367
 H169 H 0.70815 1.33283 0.58897
 H170 H 0.66687 1.29131 0.58993
 H171 H 0.58050 1.30486 0.65340
 C172 C 0.67430 0.87060 1.17224
 C173 C 0.66362 0.88131 1.20377
 C174 C 0.63342 0.86956 1.21805
 C175 C 0.61644 0.84386 1.20067
 C176 C 0.62807 0.83163 1.17008
 C177 C 0.65598 0.84630 1.15498
 C178 C 0.70336 0.88376 1.15798
 C179 C 0.71316 0.87526 1.12528
 C180 C 0.69336 0.85192 1.10766
 C181 C 0.66577 0.83638 1.12285
 C182 C 0.64828 0.81058 1.10669
 C183 C 0.62249 0.79277 1.12313
 C184 C 0.61220 0.80456 1.15469
 H185 H 0.67947 0.89876 1.21673
 H186 H 0.59322 0.83362 1.20951
 H187 H 0.71831 0.90041 1.17296
 H188 H 0.69938 0.84523 1.08228
 H189 H 0.65572 0.80415 1.08164
 H190 H 0.59274 0.79224 1.16857
 C191 C 1.16980 1.37448 1.16715
 C192 C 1.15414 1.39007 1.19411
 C193 C 1.12269 1.37934 1.20581
 C194 C 1.10648 1.35357 1.18792
 C195 C 1.12303 1.33623 1.16236
 C196 C 1.15514 1.34637 1.15250
 C197 C 1.20035 1.38653 1.15523
 C198 C 1.21823 1.36987 1.12983
 C199 C 1.20436 1.33946 1.11785
 C200 C 1.17279 1.32820 1.12840
 C201 C 1.15890 1.29870 1.11556
 C202 C 1.12631 1.28829 1.12448
 C203 C 1.10829 1.30830 1.14725
 H204 H 1.16784 1.40957 1.20650
 H205 H 1.08143 1.34588 1.19425
 H206 H 1.20884 1.40982 1.16551
 H207 H 1.21772 1.32384 1.10051
 H208 H 1.17408 1.28391 1.09896
 H209 H 1.08289 1.30214 1.15395
 C210 C 1.16960 0.87350 0.66792
 C211 C 1.15393 0.88875 0.69512
 C212 C 1.12246 0.87784 0.70674
 C213 C 1.10635 0.85216 0.68866
 C214 C 1.12290 0.83517 0.66284
 C215 C 1.15496 0.84551 0.65304
 C216 C 1.20006 0.88578 0.65591
 C217 C 1.21777 0.86944 0.63013
 C218 C 1.20404 0.83904 0.61814
 C219 C 1.17261 0.82763 0.62873
 C220 C 1.15886 0.79825 0.61561
 C221 C 1.12632 0.78770 0.62436
 C222 C 1.10821 0.80741 0.64735
 H223 H 1.16759 0.90816 0.70770
 H224 H 1.08135 0.84430 0.69501
 H225 H 1.20858 0.90895 0.66641
 H226 H 1.21739 0.82353 0.60070
 H227 H 1.17412 0.78367 0.59891
 H228 H 1.08282 0.80118 0.65396
 C229 C 0.33263 0.62411 0.66683
 C230 C 0.34870 0.60847 0.69353
 C231 C 0.37951 0.62031 0.70597
 C232 C 0.39501 0.64684 0.68848
 C233 C 0.37812 0.66395 0.66292
 C234 C 0.34631 0.65313 0.65295
 C235 C 0.30256 0.61137 0.65445
 C236 C 0.28395 0.62873 0.63016
 C237 C 0.29651 0.65983 0.61909
 C238 C 0.32797 0.67144 0.62939
 C239 C 0.34114 0.70129 0.61672
 C240 C 0.37368 0.71203 0.62523
 C241 C 0.39221 0.69226 0.64788
 H242 H 0.33565 0.58809 0.70519
 H243 H 0.41970 0.65532 0.69512
 H244 H 0.29448 0.58747 0.66375
 H245 H 0.28232 0.67528 0.60223
 H246 H 0.32554 0.71601 0.60043
 H247 H 0.41754 0.69877 0.65443
 C248 C 0.33268 0.12241 1.16437
 C249 C 0.34886 0.10585 1.19047
 C250 C 0.37858 0.11856 1.20490
 C251 C 0.39363 0.14615 1.18845
 C252 C 0.37703 0.16352 1.16290
 C253 C 0.34571 0.15236 1.15196
 C254 C 0.30291 0.10965 1.15133
 C255 C 0.28375 0.12790 1.12822
 C256 C 0.29603 0.15942 1.11796
 C257 C 0.32738 0.17110 1.12872
 C258 C 0.34045 0.20140 1.11686
 C259 C 0.37284 0.21226 1.12597
 C260 C 0.39103 0.19237 1.14877
 H261 H 0.33635 0.08416 1.20009
 H262 H 0.41800 0.15515 1.19535
 H263 H 0.29521 0.08518 1.15943
 H264 H 0.28164 0.17515 1.10152
 H265 H 0.32496 0.21627 1.10061
 H266 H 0.41612 0.19908 1.15599
 C267 C 0.82661 0.63011 1.17219
 C268 C 0.83759 0.61956 1.20369
 C269 C 0.86853 0.63034 1.21674
 C270 C 0.88645 0.65463 1.19851
 C271 C 0.87425 0.66734 1.16836
 C272 C 0.84530 0.65371 1.15426
 C273 C 0.79702 0.61745 1.15854
 C274 C 0.78697 0.62580 1.12586
 C275 C 0.80680 0.64883 1.10782
 C276 C 0.83496 0.66389 1.12240
 C277 C 0.85250 0.68948 1.10591
 C278 C 0.87912 0.70668 1.12172
 C279 C 0.89043 0.69397 1.15259
 H280 H 0.82184 0.60263 1.21748
 H281 H 0.91037 0.66367 1.20689
 H282 H 0.78199 0.60118 1.17388
 H283 H 0.80050 0.65553 1.08252
 H284 H 0.84437 0.69623 1.08118
 H285 H 0.91088 0.70529 1.16584
 C286 C 0.82808 0.12762 0.66913
 C287 C 0.84176 0.11399 0.69826
 C288 C 0.87365 0.12379 0.71009
 C289 C 0.89126 0.14791 0.69121
 C290 C 0.87680 0.16334 0.66338
 C291 C 0.84525 0.15294 0.65221
 C292 C 0.79701 0.11660 0.65727
 C293 C 0.78296 0.12915 0.62737
 C294 C 0.80039 0.15582 0.61167
 C295 C 0.83065 0.16819 0.62441
 C296 C 0.84619 0.19605 0.60992
 C297 C 0.87746 0.20792 0.62148
 C298 C 0.89325 0.18966 0.64715
 H299 H 0.82640 0.09663 0.71197
 H300 H 0.91643 0.15508 0.69762
 H301 H 0.78416 0.09844 0.67229
 H302 H 0.79172 0.16700 0.58886
 H303 H 0.83269 0.20874 0.59048
 H304 H 0.91801 0.19614 0.65555
 C305 C 1.37474 0.33029 0.66657
 C306 C 1.39089 0.34543 0.69358
 C307 C 1.37912 0.37563 0.70765
 C308 C 1.35229 0.39159 0.69075
 C309 C 1.33509 0.37589 0.66450
 C310 C 1.34582 0.34459 0.65322
 C311 C 1.38708 0.30047 0.65333
 C312 C 1.36970 0.28268 0.62831
 C313 C 1.33900 0.29645 0.61713
 C314 C 1.32759 0.32749 0.62872
 C315 C 1.29790 0.34139 0.61637
 C316 C 1.28729 0.37360 0.62605
 C317 C 1.30690 0.39081 0.64985
 H318 H 1.41154 0.33188 0.70410
 H319 H 1.34389 0.41612 0.69766
 H320 H 1.41105 0.29237 0.66240
 H321 H 1.32326 0.28336 0.59966
 H322 H 1.28324 0.32653 0.59939
 H323 H 1.30042 0.41577 0.65753
 C324 C 1.37276 0.83029 1.16785
 C325 C 1.38888 0.84552 1.19484
 C326 C 1.37869 0.87697 1.20684
 C327 C 1.35297 0.89364 1.18915
 C328 C 1.33519 0.87760 1.16351
 C329 C 1.34477 0.84547 1.15344
 C330 C 1.38420 0.79973 1.15554
 C331 C 1.36692 0.78229 1.13012
 C332 C 1.33675 0.79672 1.11842
 C333 C 1.32621 0.82830 1.12925
 C334 C 1.29703 0.84272 1.11643
 C335 C 1.28734 0.87541 1.12526
 C336 C 1.30746 0.89289 1.14839
 H337 H 1.40841 0.83161 1.20699
 H338 H 1.34575 0.91873 1.19559
 H339 H 1.40753 0.79094 1.16552
 H340 H 1.32082 0.78385 1.10098
 H341 H 1.28189 0.82785 1.09985
 H342 H 1.30154 0.91824 1.15527
 C343 C 0.87398 0.33122 1.16766
 C344 C 0.88936 0.34675 1.19494
 C345 C 0.87807 0.37782 1.20724
 C346 C 0.85197 0.39374 1.18952
 C347 C 0.83500 0.37738 1.16357
 C348 C 0.84564 0.34567 1.15323
 C349 C 0.88645 0.30110 1.15506
 C350 C 0.86986 0.28346 1.12927
 C351 C 0.83928 0.29709 1.11768
 C352 C 0.82772 0.32819 1.12880
 C353 C 0.79812 0.34176 1.11604
 C354 C 0.78740 0.37402 1.12518
 C355 C 0.80699 0.39196 1.14839
 H356 H 0.90924 0.33326 1.20696
 H357 H 0.84377 0.41847 1.19617
 H358 H 0.90990 0.29276 1.16515
 H359 H 0.82372 0.28390 1.10014
 H360 H 0.78351 0.32659 1.09928
 H361 H 0.80047 0.41713 1.15536
 C362 C 0.87847 0.83584 0.66242
 C363 C 0.89514 0.85286 0.68808
 C364 C 0.87934 0.87889 0.70586
 C365 C 0.84838 0.89057 0.69346
 C366 C 0.83252 0.87508 0.66644
 C367 C 0.84658 0.84638 0.65238
 C368 C 0.89290 0.80779 0.64739
 C369 C 0.87464 0.78791 0.62475
 C370 C 0.84205 0.79834 0.61603
 C371 C 0.82857 0.82806 0.62860
 C372 C 0.79713 0.83944 0.61798
 C373 C 0.78410 0.87029 0.62911
 C374 C 0.80234 0.88758 0.65388
 H375 H 0.91995 0.84464 0.69459
 H376 H 0.83514 0.91071 0.70528
 H377 H 0.91826 0.80147 0.65403
 H378 H 0.82663 0.78348 0.59971
 H379 H 0.78335 0.82397 0.60082
 H380 H 0.79395 0.91122 0.66346
 C381 C 0.62135 0.66408 0.66261
 C382 C 0.60475 0.64709 0.68835
 C383 C 0.62061 0.62110 0.70615
 C384 C 0.65154 0.60940 0.69371
 C385 C 0.66732 0.62485 0.66660
 C386 C 0.65322 0.65352 0.65251
 C387 C 0.60688 0.69212 0.64757
 C388 C 0.62510 0.71196 0.62484
 C389 C 0.65767 0.70152 0.61606
 C390 C 0.67117 0.67181 0.62864
 C391 C 0.70258 0.66041 0.61797
 C392 C 0.71563 0.62957 0.62913
 C393 C 0.69746 0.61233 0.65399
 H394 H 0.57995 0.65530 0.69492
 H395 H 0.66482 0.58931 0.70556
 H396 H 0.58154 0.69844 0.65426
 H397 H 0.67306 0.71636 0.59967
 H398 H 0.71632 0.67586 0.60074
 H399 H 0.70586 0.58871 0.66362
 C400 C 0.62655 1.16906 1.16767
 C401 C 0.61122 1.15340 1.19490
 C402 C 0.62257 1.12230 1.20710
 C403 C 0.64877 1.10654 1.18938
 C404 C 0.66567 1.12304 1.16342
 C405 C 0.65492 1.15475 1.15318
 C406 C 0.61398 1.19920 1.15520
 C407 C 0.63046 1.21698 1.12946
 C408 C 0.66110 1.20350 1.11780
 C409 C 0.67276 1.17238 1.12876
 C410 C 0.70237 1.15892 1.11587
 C411 C 0.71321 1.12667 1.12490
 C412 C 0.69370 1.10860 1.14813
 H413 H 0.59132 1.16682 1.20694
 H414 H 0.65708 1.08184 1.19602
 H415 H 0.59053 1.20744 1.16539
 H416 H 0.67664 1.21681 1.10032
 H417 H 0.71689 1.17417 1.09907
 H418 H 0.70026 1.08341 1.15501
 C419 C 0.12566 0.66969 1.16728
 C420 C 0.10912 0.65443 1.19405
 C421 C 0.12025 0.62376 1.20760
 C422 C 0.14685 0.60756 1.19058
 C423 C 0.16449 0.62338 1.16469
 C424 C 0.15438 0.65505 1.15383
 C425 C 0.11395 0.69991 1.15434
 C426 C 0.13175 0.71762 1.12947
 C427 C 0.16227 0.70353 1.11838
 C428 C 0.17304 0.67219 1.12967
 C429 C 0.20251 0.65802 1.11728
 C430 C 0.21247 0.62552 1.12649
 C431 C 0.19254 0.60822 1.14996
 H432 H 0.08882 0.66822 1.20498
 H433 H 0.15461 0.58269 1.19715
 H434 H 0.09010 0.70834 1.16341
 H435 H 0.17834 0.71657 1.10114
 H436 H 0.21758 0.67287 1.10060
 H437 H 0.19872 0.58307 1.15731
 C438 C 0.12259 1.16656 0.66374
 C439 C 0.10591 1.15063 0.68996
 C440 C 0.11881 1.12134 0.70500
 C441 C 0.14650 1.10618 0.68877
 C442 C 0.16383 1.12241 0.66293
 C443 C 0.15265 1.15351 0.65160
 C444 C 0.10986 1.19610 0.65029
 C445 C 0.12837 1.21513 0.62721
 C446 C 0.15991 1.20280 0.61716
 C447 C 0.17148 1.17161 0.62822
 C448 C 0.20177 1.15847 0.61649
 C449 C 0.21250 1.12616 0.62574
 C450 C 0.19267 1.10827 0.64884
 H451 H 0.08389 1.16295 0.69907
 H452 H 0.15568 1.08204 0.69603
 H453 H 0.08525 1.20375 0.65811
 H454 H 0.17574 1.21703 0.60065
 H455 H 0.21670 1.17384 0.60017
 H456 H 0.19936 1.08330 0.65632
 C457 C 1.37496 0.67007 0.33309
 C458 C 1.39145 0.65480 0.30634
 C459 C 1.38031 0.62408 0.29286
 C460 C 1.35375 0.60787 0.30996
 C461 C 1.33616 0.62370 0.33584
 C462 C 1.34626 0.65541 0.34661
 C463 C 1.38667 0.70033 0.34595
 C464 C 1.36890 0.71803 0.37081
 C465 C 1.33837 0.70393 0.38192
 C466 C 1.32761 0.67257 0.37073
 C467 C 1.29813 0.65839 0.38315
 C468 C 1.28818 0.62587 0.37402
 C469 C 1.30814 0.60854 0.35064
 H470 H 1.41174 0.66862 0.29540
 H471 H 1.34596 0.58300 0.30346
 H472 H 1.41051 0.70880 0.33683
 H473 H 1.32230 0.71700 0.39910
 H474 H 1.28306 0.67326 0.39978
 H475 H 1.30200 0.58334 0.34339
 C476 C 1.36924 1.17233 0.83014
 C477 C 1.38311 1.15851 0.80126
 C478 C 1.37472 1.12602 0.79082
 C479 C 1.35108 1.10804 0.80995
 C480 C 1.33473 1.12290 0.83711
 C481 C 1.34437 1.15492 0.84751
 C482 C 1.37984 1.20360 0.84150
 C483 C 1.36762 1.21749 0.87159
 C484 C 1.34084 1.20026 0.88733
 C485 C 1.32875 1.16981 0.87495
 C486 C 1.30091 1.15430 0.88950
 C487 C 1.28948 1.12276 0.87848
 C488 C 1.30829 1.10655 0.85341
 H489 H 1.40019 1.17367 0.78697
 H490 H 1.34463 1.08266 0.80367
 H491 H 1.39762 1.21658 0.82612
 H492 H 1.32939 1.20917 0.90990
 H493 H 1.28779 1.16802 0.90850
 H494 H 1.30210 1.08158 0.84553
 C495 C 0.87756 0.66354 0.83721
 C496 C 0.89411 0.64656 0.81145
 C497 C 0.87824 0.62053 0.79371
 C498 C 0.84732 0.60880 0.80628
 C499 C 0.83157 0.62428 0.83338
 C500 C 0.84571 0.65298 0.84740
 C501 C 0.89210 0.69157 0.85221
 C502 C 0.87399 0.71143 0.87498
 C503 C 0.84142 0.70097 0.88384
 C504 C 0.82784 0.67126 0.87130
 C505 C 0.79644 0.65985 0.88207
 C506 C 0.78331 0.62902 0.87098
 C507 C 0.80142 0.61176 0.84609
 H508 H 0.91889 0.65482 0.80488
 H509 H 0.83406 0.58861 0.79458
 H510 H 0.91745 0.69786 0.84546
 H511 H 0.82610 0.71579 0.90028
 H512 H 0.78277 0.67531 0.89932
 H513 H 0.79295 0.58814 0.83651
 C514 C 0.87833 1.16537 0.33602
 C515 C 0.89489 1.14822 0.31042
 C516 C 0.87979 1.12087 0.29365
 C517 C 0.85013 1.10793 0.30821
 C518 C 0.83402 1.12421 0.33474
 C519 C 0.84710 1.15412 0.34711
 C520 C 0.89237 1.19414 0.35011
 C521 C 0.87417 1.21394 0.37284
 C522 C 0.84189 1.20312 0.38211
 C523 C 0.82898 1.17276 0.37060
 C524 C 0.79806 1.16095 0.38214
 C525 C 0.78584 1.12938 0.37245
 C526 C 0.80451 1.11128 0.34854
 H527 H 0.91929 1.15735 0.30373
 H528 H 0.83795 1.08603 0.29871
 H529 H 0.91745 1.20090 0.34286
 H530 H 0.82638 1.21803 0.39830
 H531 H 0.78399 1.17661 0.39890
 H532 H 0.79678 1.08683 0.34049
 C533 C 0.62149 0.33481 0.33608
 C534 C 0.60497 0.35198 0.31046
 C535 C 0.62015 0.37927 0.29365
 C536 C 0.64986 0.39214 0.30818
 C537 C 0.66589 0.37587 0.33478
 C538 C 0.65273 0.34600 0.34720
 C539 C 0.60738 0.30606 0.35018
 C540 C 0.62554 0.28621 0.37291
 C541 C 0.65781 0.29700 0.38224
 C542 C 0.67078 0.32735 0.37074
 C543 C 0.70168 0.33911 0.38233
 C544 C 0.71399 0.37065 0.37261
 C545 C 0.69541 0.38875 0.34860
 H546 H 0.58055 0.34292 0.30377
 H547 H 0.66214 0.41395 0.29858
 H548 H 0.58230 0.29933 0.34291
 H549 H 0.67328 0.28206 0.39845
 H550 H 0.71568 0.32344 0.39915
 H551 H 0.70320 0.41318 0.34050
 C552 C 0.62200 0.83650 0.83752
 C553 C 0.60543 0.85350 0.81179
 C554 C 0.62131 0.87951 0.79398
 C555 C 0.65226 0.89119 0.80646
 C556 C 0.66805 0.87569 0.83352
 C557 C 0.65390 0.84701 0.84760
 C558 C 0.60747 0.80849 0.85260
 C559 C 0.62564 0.78862 0.87533
 C560 C 0.65825 0.79901 0.88405
 C561 C 0.67183 0.82869 0.87144
 C562 C 0.70328 0.84003 0.88208
 C563 C 0.71641 0.87085 0.87092
 C564 C 0.69824 0.88816 0.84612
 H565 H 0.58062 0.84528 0.80526
 H566 H 0.66554 0.91134 0.79468
 H567 H 0.58210 0.80222 0.84594
 H568 H 0.67361 0.78415 0.90044
 H569 H 0.71700 0.82454 0.89927
 H570 H 0.70671 0.91179 0.83652
 C571 C 0.12596 0.33118 0.83377
 C572 C 0.11028 0.34643 0.80659
 C573 C 0.12098 0.37766 0.79442
 C574 C 0.14672 0.39416 0.81219
 C575 C 0.16408 0.37806 0.83806
 C576 C 0.15404 0.34609 0.84828
 C577 C 0.11405 0.30078 0.84603
 C578 C 0.13096 0.28312 0.87148
 C579 C 0.16122 0.29732 0.88346
 C580 C 0.17225 0.32881 0.87263
 C581 C 0.20163 0.34297 0.88546
 C582 C 0.21185 0.37549 0.87630
 C583 C 0.19192 0.39310 0.85314
 H584 H 0.09074 0.33257 0.79441
 H585 H 0.15436 0.41910 0.80559
 H586 H 0.09069 0.29224 0.83590
 H587 H 0.17689 0.28431 0.90104
 H588 H 0.21650 0.32805 0.90221
 H589 H 0.19809 0.41836 0.84614
 C590 C 0.12551 0.82998 0.33293
 C591 C 0.10904 0.84529 0.30618
 C592 C 0.12018 0.87602 0.29270
 C593 C 0.14681 0.89217 0.30975
 C594 C 0.16437 0.87632 0.33566
 C595 C 0.15421 0.84462 0.34645
 C596 C 0.11375 0.79974 0.34580
 C597 C 0.13146 0.78202 0.37070
 C598 C 0.16201 0.79608 0.38180
 C599 C 0.17282 0.82744 0.37060
 C600 C 0.20227 0.84160 0.38308
 C601 C 0.21226 0.87413 0.37396
 C602 C 0.19237 0.89147 0.35050
 H603 H 0.08875 0.83148 0.29524
 H604 H 0.15465 0.91702 0.30318
 H605 H 0.08993 0.79128 0.33664
 H606 H 0.17807 0.78301 0.39899
 H607 H 0.21729 0.82672 0.39974
 H608 H 0.19852 0.91666 0.34324
 O609 O 1.11675 1.03052 1.16967
 O610 O 1.15582 1.03106 1.20841
 C611 C 1.12823 1.04171 1.19697
 C612 C 1.11002 1.06840 1.21479
 C613 C 1.12121 1.07956 1.24820
 H614 H 1.13924 1.06376 1.26024
 O615 O 0.87975 0.96710 1.16542
 O616 O 0.84004 0.96616 1.20348
 C617 C 0.86709 0.95466 1.19163
 C618 C 0.88325 0.92568 1.20773
 C619 C 0.86886 0.91119 1.23857
 H620 H 0.85001 0.92591 1.25080
 O621 O 1.03284 1.16544 1.12227
 O622 O 1.03292 1.20449 1.16086
 C623 C 1.04445 1.19250 1.13385
 C624 C 1.07195 1.20972 1.11583
 C625 C 1.08554 1.23966 1.12799
 H626 H 1.07606 1.24922 1.15127
 O627 O 0.97003 0.83140 1.11915
 O628 O 0.97016 0.79205 1.15751
 C629 C 0.95948 0.80356 1.12996
 C630 C 0.93308 0.78555 1.11121
 C631 C 0.92254 0.75361 1.12102
 H632 H 0.93723 0.74122 1.13975
 O633 O 1.16296 1.11877 1.03339
 O634 O 1.20216 1.15737 1.03327
 C635 C 1.18999 1.13058 1.04496
 C636 C 1.20674 1.11388 1.07323
 C637 C 1.23730 1.12610 1.08525
 H638 H 1.24975 1.14530 1.07111
 O639 O 0.83660 0.87956 1.03310
 O640 O 0.79736 0.84103 1.03309
 C641 C 0.80939 0.86800 1.04453
 C642 C 0.79176 0.88588 1.07164
 C643 C 0.76175 0.87320 1.08470
 H644 H 0.75259 0.84976 1.07520
 O645 O 0.96816 1.11944 1.16801
 O646 O 0.96779 1.15808 1.20705
 C647 C 0.95676 1.13079 1.19526
 C648 C 0.93001 1.11229 1.21299
 C649 C 0.91805 1.12367 1.24607
 H650 H 0.92955 1.14610 1.25512
 O651 O 1.02970 0.88030 1.16866
 O652 O 1.02976 0.84159 1.20766
 C653 C 1.04041 0.86921 1.19633
 C654 C 1.06683 0.88784 1.21447
 C655 C 1.07852 0.87656 1.24776
 H656 H 1.06323 0.85801 1.25969
 O657 O 1.16354 0.96741 1.12271
 O658 O 1.20290 0.96776 1.16107
 C659 C 1.19096 0.95630 1.13405
 C660 C 1.20873 0.92942 1.11581
 C661 C 1.23880 0.91619 1.12817
 H662 H 1.24814 0.92550 1.15162
 O663 O 0.83658 1.03472 1.12156
 O664 O 0.79709 1.03447 1.15983
 C665 C 0.80954 1.04634 1.13322
 C666 C 0.79245 1.07391 1.11561
 C667 C 0.76245 1.08704 1.12802
 H668 H 0.75321 1.07758 1.15145
 O669 O 0.88212 1.16526 1.03248
 O670 O 0.84271 1.20359 1.03266
 C671 C 0.86982 1.19192 1.04428
 C672 C 0.88641 1.20874 1.07270
 C673 C 0.87209 1.23982 1.08678
 H674 H 0.85294 1.25164 1.07212
 O675 O 1.12050 0.83623 1.03311
 O676 O 1.16011 0.79809 1.03343
 C677 C 1.13302 0.80971 1.04503
 C678 C 1.11664 0.79300 1.07352
 C679 C 1.13083 0.76180 1.08752
 H680 H 1.14985 0.74975 1.07285
 O681 O 0.88087 1.03196 1.16874
 O682 O 0.84152 1.03109 1.20715
 C683 C 0.86913 1.04230 1.19628
 C684 C 0.88726 1.06864 1.21493
 C685 C 0.87750 1.07834 1.24556
 H686 H 0.85773 1.06428 1.25701
 O687 O 1.11849 0.96610 1.16923
 O688 O 1.15776 0.96659 1.20774
 C689 C 1.13051 0.95505 1.19636
 C690 C 1.11256 0.92843 1.21460
 C691 C 1.12411 0.91661 1.24378
 H692 H 1.14730 0.92668 1.25289
 O693 O 1.03494 0.83526 1.12290
 O694 O 1.03507 0.79644 1.16180
 C695 C 1.04727 0.80895 1.13541
 C696 C 1.07608 0.79274 1.11910
 C697 C 1.09101 0.76625 1.13310
 H698 H 1.08281 0.75889 1.15759
 O699 O 0.96720 1.16561 1.12323
 O700 O 0.96711 1.20447 1.16202
 C701 C 0.95531 1.19236 1.13527
 C702 C 0.92708 1.20918 1.11832
 C703 C 0.91210 1.23575 1.13224
 H704 H 0.92052 1.24331 1.15656
 O705 O 0.83579 1.12016 1.03151
 O706 O 0.79631 1.15842 1.03091
 C707 C 0.80825 1.13149 1.04247
 C708 C 0.79084 1.11410 1.07010
 C709 C 0.75958 1.12526 1.08147
 H710 H 0.74693 1.14417 1.06711
 O711 O 1.16541 0.88267 1.03152
 O712 O 1.20510 0.84463 1.03121
 C713 C 1.19303 0.87163 1.04255
 C714 C 1.21040 0.88933 1.07007
 C715 C 1.24160 0.87815 1.08146
 H716 H 1.25430 0.85932 1.06705
 O717 O 0.96471 0.87658 1.16481
 O718 O 0.96470 0.83734 1.20328
 C719 C 0.95241 0.86380 1.19101
 C720 C 0.92351 0.87986 1.20734
 C721 C 0.90838 0.86545 1.23355
 H722 H 0.91667 0.84096 1.24071
 O723 O 1.03280 1.12100 1.16930
 O724 O 1.03253 1.15998 1.20799
 C725 C 1.04380 1.13274 1.19658
 C726 C 1.07011 1.11450 1.21491
 C727 C 1.08200 1.12575 1.24419
 H728 H 1.07218 1.14894 1.25343
 O729 O 0.83468 0.96970 1.11940
 O730 O 0.79486 0.96944 1.15734
 C731 C 0.80702 0.95851 1.13021
 C732 C 0.78976 0.93121 1.11210
 C733 C 0.75854 0.91956 1.12306
 H734 H 0.74571 0.93374 1.14198
 O735 O 1.16205 1.03290 1.12386
 O736 O 1.20128 1.03345 1.16237
 C737 C 1.18877 1.04517 1.13574
 C738 C 1.20529 1.07349 1.11854
 C739 C 1.23441 1.08790 1.13175
 H740 H 1.24317 1.07884 1.15548
 O741 O 0.88153 0.83295 1.03296
 O742 O 0.84233 0.79435 1.03292
 C743 C 0.86971 0.80574 1.04412
 C744 C 0.88796 0.78742 1.07056
 C745 C 0.87635 0.75647 1.08223
 H746 H 0.85335 0.74715 1.07191
 O747 O 1.11803 1.16527 1.03200
 O748 O 1.15721 1.20388 1.03149
 C749 C 1.12989 1.19255 1.04297
 C750 C 1.11260 1.21039 1.07046
 C751 C 1.12432 1.24146 1.08169
 H752 H 1.14365 1.25361 1.06741
 Cu753 Cu 1.13641 0.99911 1.14239
 Cu754 Cu 1.18356 0.99971 1.18860
 Cu755 Cu 0.86195 1.00104 1.13999
 Cu756 Cu 0.81438 1.00031 1.18576
 Cu757 Cu 1.00039 1.13911 1.14171
 Cu758 Cu 1.00007 1.18583 1.18821
 Cu759 Cu 0.99984 0.85981 1.14002
 Cu760 Cu 0.99991 0.81293 1.18646
 C761 C 1.08497 1.08452 1.19973
 H762 H 1.07668 1.07687 1.17521
 C763 C 1.10911 1.10770 1.26266
 C764 C 0.90997 0.91124 1.19376
 H765 H 0.92094 0.92157 1.17136
 C766 C 0.88019 0.88208 1.25157
 C767 C 1.08586 1.19523 1.08719
 H768 H 1.07653 1.17145 1.07846
 C769 C 1.11161 1.25635 1.11098
 C770 C 0.91621 0.80173 1.08530
 H771 H 0.92433 0.82626 1.07744
 C772 C 0.89340 0.73871 1.10752
 C773 C 1.19140 1.08698 1.08946
 H774 H 1.16816 1.07704 1.07988
 C775 C 1.25144 1.11387 1.11497
 C776 C 0.80572 0.91471 1.08574
 H777 H 0.82965 0.92369 1.07691
 C778 C 0.74450 0.88982 1.11042
 C779 C 0.91528 1.08604 1.19856
 H780 H 0.92323 1.07782 1.17410
 C781 C 0.89292 1.10797 1.26273
 C782 C 1.08257 0.91325 1.19953
 H783 H 1.07468 0.92162 1.17511
 C784 C 1.10654 0.88924 1.26226
 C785 C 1.19461 0.91557 1.08691
 H786 H 1.17067 0.92451 1.07811
 C787 C 1.25587 0.89050 1.11120
 C788 C 0.80661 1.08781 1.08684
 H789 H 0.83047 1.07874 1.07796
 C790 C 0.74518 1.11254 1.11103
 C791 C 0.91331 1.19509 1.08722
 H792 H 0.92417 1.17248 1.07726
 C793 C 0.88357 1.25332 1.11562
 C794 C 1.08981 0.80674 1.08801
 H795 H 1.07897 0.82936 1.07801
 C796 C 1.11904 0.74827 1.11621
 O797 O 1.11738 0.96904 0.83037
 O798 O 1.15630 0.96911 0.79147
 C799 C 1.12882 0.95810 0.80298
 C800 C 1.11077 0.93114 0.78530
 C801 C 1.12068 0.92099 0.75335
 H802 H 1.13886 0.93620 0.74065
 O803 O 0.88228 1.03189 0.83193
 O804 O 0.84333 1.03161 0.79306
 C805 C 0.87044 1.04306 0.80477
 C806 C 0.88768 1.07053 0.78730
 C807 C 0.87510 1.08263 0.75474
 H808 H 0.85663 1.06731 0.74261
 O809 O 0.96768 1.16679 0.87755
 O810 O 0.96787 1.20584 0.83893
 C811 C 0.95627 1.19392 0.86593
 C812 C 0.92874 1.21117 0.88373
 C813 C 0.91483 1.24073 0.87103
 H814 H 0.92426 1.24997 0.84761
 O815 O 1.03316 0.83385 0.87861
 O816 O 1.03344 0.79454 0.84027
 C817 C 1.04487 0.80679 0.86717
 C818 C 1.07239 0.78978 0.88512
 C819 C 1.08581 0.75987 0.87289
 H820 H 1.07618 0.75035 0.84967
 O821 O 1.16374 0.88153 0.96639
 O822 O 1.20309 0.84314 0.96615
 C823 C 1.19065 0.86982 0.95450
 C824 C 1.20704 0.88648 0.92596
 C825 C 1.23833 0.87246 0.91210
 H826 H 1.25052 0.85381 0.92708
 O827 O 0.83799 1.11957 0.96645
 O828 O 0.79884 1.15815 0.96590
 C829 C 0.81100 1.13116 0.95460
 C830 C 0.79413 1.11385 0.92662
 C831 C 0.76276 1.12769 0.91268
 H832 H 0.75128 1.14716 0.92708
 O833 O 1.03080 1.11977 0.83086
 O834 O 1.03125 1.15840 0.79176
 C835 C 1.04187 1.13089 0.80336
 C836 C 1.06819 1.11216 0.78541
 C837 C 1.07884 1.12242 0.75149
 H838 H 1.06372 1.14139 0.74018
 O839 O 0.96835 0.87849 0.83197
 O840 O 0.96834 0.83949 0.79329
 C841 C 0.95714 0.86678 0.80479
 C842 C 0.93063 0.88517 0.78679
 C843 C 0.91887 0.87431 0.75562
 H844 H 0.92906 0.85147 0.74585
 O845 O 1.16398 1.03235 0.87736
 O846 O 1.20336 1.03258 0.83900
 C847 C 1.19138 1.04369 0.86618
 C848 C 1.20911 1.07030 0.88495
 C849 C 1.24006 1.08272 0.87390
 H850 H 1.24991 1.07305 0.85084
 O851 O 0.83796 0.96602 0.87772
 O852 O 0.79915 0.96546 0.83881
 C853 C 0.81132 0.95382 0.86566
 C854 C 0.79455 0.92553 0.88272
 C855 C 0.76566 0.91117 0.86898
 H856 H 0.75728 0.92057 0.84528
 O857 O 1.11890 1.16370 0.96679
 O858 O 1.15839 1.20200 0.96643
 C859 C 1.13128 1.19034 0.95492
 C860 C 1.11477 1.20730 0.92663
 C861 C 1.12915 1.23858 0.91299
 H862 H 1.14827 1.25027 0.92779
 O863 O 0.88205 0.83344 0.96815
 O864 O 0.84285 0.79483 0.96817
 C865 C 0.87017 0.80634 0.95688
 C866 C 0.88750 0.78883 0.92936
 C867 C 0.87584 0.75786 0.91797
 H868 H 0.85654 0.74557 0.93217
 O869 O 0.88325 0.96760 0.83144
 O870 O 0.84446 0.96750 0.79242
 C871 C 0.87196 0.95676 0.80391
 C872 C 0.89024 0.93035 0.78583
 C873 C 0.88050 0.92080 0.75364
 H874 H 0.86210 0.93602 0.74138
 O875 O 1.11939 1.03349 0.83025
 O876 O 1.15870 1.03353 0.79178
 C877 C 1.13135 1.04469 0.80313
 C878 C 1.11322 1.07107 0.78484
 C879 C 1.12362 1.08156 0.75473
 H880 H 1.14579 1.07017 0.74482
 O881 O 0.96777 0.83372 0.87823
 O882 O 0.96772 0.79447 0.83983
 C883 C 0.95608 0.80670 0.86663
 C884 C 0.92836 0.78969 0.88433
 C885 C 0.91471 0.75996 0.87185
 H886 H 0.92420 0.75058 0.84850
 O887 O 1.03331 1.16536 0.87633
 O888 O 1.03379 1.20421 0.83750
 C889 C 1.04559 1.19189 0.86418
 C890 C 1.07412 1.20828 0.88107
 C891 C 1.08927 1.23489 0.86739
 H892 H 1.08104 1.24252 0.84302
 O893 O 0.83651 0.87933 0.96775
 O894 O 0.79720 0.84086 0.96775
 C895 C 0.80937 0.86772 0.95613
 C896 C 0.79268 0.88470 0.92775
 C897 C 0.76236 0.87243 0.91502
 H898 H 0.74997 0.85299 0.92884
 O899 O 1.16428 1.11742 0.96841
 O900 O 1.20378 1.15571 0.96857
 C901 C 1.19197 1.12847 0.95752
 C902 C 1.20993 1.11036 0.93067
 C903 C 1.24198 1.12059 0.92077
 H904 H 1.25438 1.13892 0.93599
 O905 O 1.03305 0.87868 0.83231
 O906 O 1.03329 0.83962 0.79370
 C907 C 1.04441 0.86695 0.80520
 C908 C 1.07089 0.88535 0.78714
 C909 C 1.08294 0.87395 0.75630
 H910 H 1.07320 0.85073 0.74692
 O911 O 0.96628 1.12207 0.83133
 O912 O 0.96665 1.16104 0.79257
 C913 C 0.95498 1.13408 0.80432
 C914 C 0.92783 1.11646 0.78671
 C915 C 0.91479 1.12852 0.75830
 H916 H 0.92391 1.15216 0.74932
 O917 O 0.83688 1.03197 0.87757
 O918 O 0.79795 1.03144 0.83877
 C919 C 0.80998 1.04357 0.86545
 C920 C 0.79309 1.07206 0.88207
 C921 C 0.76611 1.08658 0.86825
 H922 H 0.75799 1.07711 0.84454
 O923 O 1.16352 0.96690 0.87532
 O924 O 1.20260 0.96704 0.83664
 C925 C 1.19030 0.95501 0.86322
 C926 C 1.20707 0.92669 0.88003
 C927 C 1.23384 0.91183 0.86621
 H928 H 1.24152 0.92026 0.84192
 O929 O 1.11919 0.83461 0.96813
 O930 O 1.15848 0.79615 0.96845
 C931 C 1.13101 0.80732 0.95721
 C932 C 1.11344 0.78929 0.93003
 C933 C 1.12498 0.75816 0.91880
 H934 H 1.14444 0.74608 0.93292
 O935 O 0.88224 1.16693 0.96737
 O936 O 0.84315 1.20558 0.96754
 C937 C 0.87047 1.19417 0.95625
 C938 C 0.88783 1.21190 0.92877
 C939 C 0.87586 1.24269 0.91712
 H940 H 0.85638 1.25478 0.93120
 Cu941 Cu 1.13728 1.00057 0.85731
 Cu942 Cu 1.18433 1.00063 0.81099
 Cu943 Cu 0.86382 0.99933 0.85876
 Cu944 Cu 0.81701 0.99884 0.81213
 Cu945 Cu 1.13704 1.13749 1.00013
 Cu946 Cu 1.18430 1.18361 0.99988
 Cu947 Cu 1.13825 0.86257 0.99978
 Cu948 Cu 1.18570 0.81672 0.99978
 Cu949 Cu 0.86347 1.13916 0.99946
 Cu950 Cu 0.81634 1.18529 0.99917
 Cu951 Cu 0.86303 0.86023 1.00056
 Cu952 Cu 0.81590 0.81401 1.00050
 Cu953 Cu 0.99947 1.13973 0.85803
 Cu954 Cu 1.00001 1.18650 0.81147
 Cu955 Cu 1.00056 0.86002 0.85919
 Cu956 Cu 1.00074 0.81292 0.81303
 C957 C 1.08519 0.91377 0.80151
 H958 H 1.07714 0.92176 0.82601
 C959 C 1.10790 0.89158 0.73864
 C960 C 0.91345 1.08612 0.80172
 H961 H 0.92286 1.07763 0.82555
 C962 C 0.88712 1.11083 0.74046
 C963 C 0.91485 1.19687 0.91247
 H964 H 0.92438 1.17331 0.92156
 C965 C 0.88850 1.25735 0.88768
 C966 C 1.08653 0.80438 0.91356
 H967 H 1.07727 0.82819 0.92226
 C968 C 1.11193 0.74320 0.88965
 C969 C 1.19298 0.91298 0.91120
 H970 H 1.17016 0.92356 0.92106
 C971 C 1.25164 0.88358 0.88310
 C972 C 0.80774 1.08673 0.91255
 H973 H 0.83059 1.07627 0.92246
 C974 C 0.74881 1.11572 0.88427
 C975 C 1.08417 1.08713 0.80060
 H976 H 1.07698 1.07953 0.82550
 C977 C 1.10595 1.10882 0.73615
 C978 C 0.91595 0.91303 0.80173
 H979 H 0.92377 0.92062 0.82642
 C980 C 0.89371 0.89200 0.73820
 C981 C 1.19415 1.08457 0.91318
 H982 H 1.16959 1.07634 0.92095
 C983 C 1.25727 1.10795 0.89163
 C984 C 0.80809 0.91184 0.91191
 H985 H 0.83117 0.92179 0.92185
 C986 C 0.74850 0.88491 0.88509
 C987 C 1.08783 1.19384 0.91203
 H988 H 1.07693 1.17114 0.92180
 C989 C 1.11763 1.25248 0.88441
 C990 C 0.91435 0.80407 0.91293
 H991 H 0.92373 0.82775 0.92187
 C992 C 0.88859 0.74322 0.88863
 O993 O 0.96927 0.38212 0.33135
 O994 O 0.96911 0.34344 0.29233
 C995 C 0.95823 0.37086 0.30391
 C996 C 0.93143 0.38911 0.28612
 C997 C 0.92105 0.37907 0.25427
 H998 H 0.93590 0.36046 0.24191
 O999 O 1.02975 0.61923 0.33180
 O1000 O 1.02939 0.65762 0.29250
 C1001 C 1.04032 0.63021 0.30400
 C1002 C 1.06692 0.61178 0.28591
 C1003 C 1.07855 0.62311 0.25257
 H1004 H 1.06317 0.64152 0.24055
 O1005 O 0.83542 0.46502 0.37973
 O1006 O 0.79615 0.46494 0.34123
 C1007 C 0.80861 0.45307 0.36782
 C1008 C 0.79193 0.42489 0.38480
 C1009 C 0.76307 0.41064 0.37107
 H1010 H 0.75469 0.41994 0.34731
 O1011 O 1.16511 0.53290 0.37716
 O1012 O 1.20426 0.53311 0.33856
 C1013 C 1.19233 0.54435 0.36567
 C1014 C 1.20990 0.57139 0.38380
 C1015 C 1.23976 0.58493 0.37126
 H1016 H 1.24901 0.57569 0.34775
 O1017 O 0.88232 0.33494 0.46705
 O1018 O 0.84360 0.29584 0.46735
 C1019 C 0.87052 0.30790 0.45563
 C1020 C 0.88751 0.29101 0.42756
 C1021 C 0.87594 0.26011 0.41598
 H1022 H 0.85693 0.24750 0.43030
 O1023 O 1.12088 0.66327 0.46687
 O1024 O 1.16006 0.70189 0.46662
 C1025 C 1.13308 0.68999 0.45504
 C1026 C 1.11647 0.70665 0.42665
 C1027 C 1.13049 0.73792 0.41266
 H1028 H 1.14949 0.75003 0.42732
 O1029 O 0.87868 0.53228 0.33513
 O1030 O 0.83933 0.53244 0.29671
 C1031 C 0.86630 0.54418 0.30854
 C1032 C 0.88262 0.57296 0.29216
 C1033 C 0.86999 0.58597 0.26219
 H1034 H 0.85056 0.57217 0.24972
 O1035 O 1.11866 0.46965 0.33009
 O1036 O 1.15746 0.46986 0.29107
 C1037 C 1.12998 0.45894 0.30255
 C1038 C 1.11174 0.43235 0.28465
 C1039 C 1.12147 0.42237 0.25259
 H1040 H 1.13975 0.43750 0.23997
 O1041 O 1.03337 0.33556 0.37754
 O1042 O 1.03333 0.29658 0.33888
 C1043 C 1.04490 0.30850 0.36587
 C1044 C 1.07243 0.29118 0.38367
 C1045 C 1.08601 0.26139 0.37115
 H1046 H 1.07644 0.25206 0.34783
 O1047 O 0.96985 0.66821 0.38109
 O1048 O 0.96972 0.70720 0.34236
 C1049 C 0.95913 0.69588 0.37001
 C1050 C 0.93256 0.71387 0.38852
 C1051 C 0.92172 0.74557 0.37828
 H1052 H 0.93630 0.75808 0.35950
 O1053 O 0.83567 0.62018 0.46684
 O1054 O 0.79670 0.65894 0.46694
 C1055 C 0.80853 0.63190 0.45547
 C1056 C 0.79078 0.61414 0.42835
 C1057 C 0.76094 0.62702 0.41521
 H1058 H 0.75193 0.65052 0.42471
 O1059 O 1.16376 0.38171 0.46663
 O1060 O 1.20286 0.34307 0.46632
 C1061 C 1.19069 0.36993 0.45481
 C1062 C 1.20741 0.38673 0.42649
 C1063 C 1.23889 0.37278 0.41289
 H1064 H 1.25091 0.35392 0.42776
 O1065 O 0.96467 0.62196 0.33654
 O1066 O 0.96423 0.66082 0.29770
 C1067 C 0.95212 0.63442 0.31031
 C1068 C 0.92317 0.61809 0.29427
 C1069 C 0.90841 0.63228 0.26594
 H1070 H 0.91749 0.65624 0.25790
 O1071 O 1.03381 0.38053 0.33142
 O1072 O 1.03372 0.34167 0.29257
 C1073 C 1.04504 0.36880 0.30426
 C1074 C 1.07156 0.38700 0.28629
 C1075 C 1.08335 0.37566 0.25538
 H1076 H 1.07337 0.35257 0.24595
 O1077 O 1.16422 0.46737 0.37586
 O1078 O 1.20311 0.46744 0.33701
 C1079 C 1.19096 0.45546 0.36371
 C1080 C 1.20782 0.42718 0.38068
 C1081 C 1.23488 0.41252 0.36721
 H1082 H 1.24281 0.42102 0.34300
 O1083 O 0.83334 0.53015 0.38114
 O1084 O 0.79383 0.53014 0.34290
 C1085 C 0.80581 0.54131 0.37002
 C1086 C 0.78861 0.56885 0.38785
 C1087 C 0.75758 0.58077 0.37667
 H1088 H 0.74478 0.56675 0.35760
 O1089 O 0.88081 0.66658 0.46680
 O1090 O 0.84187 0.70539 0.46694
 C1091 C 0.86910 0.69381 0.45562
 C1092 C 0.88728 0.71196 0.42903
 C1093 C 0.87534 0.74257 0.41686
 H1094 H 0.85210 0.75177 0.42681
 O1095 O 1.11892 0.33504 0.46759
 O1096 O 1.15800 0.29638 0.46764
 C1097 C 1.13068 0.30784 0.45635
 C1098 C 1.11329 0.29022 0.42879
 C1099 C 1.12496 0.25927 0.41725
 H1100 H 1.14428 0.24704 0.43142
 O1101 O 1.11958 0.53400 0.33121
 O1102 O 1.15867 0.53413 0.29251
 C1103 C 1.13136 0.54530 0.30408
 C1104 C 1.11307 0.57171 0.28591
 C1105 C 1.12449 0.58357 0.25671
 H1106 H 1.14783 0.57382 0.24766
 O1107 O 0.87977 0.46731 0.33306
 O1108 O 0.84061 0.46740 0.29446
 C1109 C 0.86806 0.45628 0.30577
 C1110 C 0.88638 0.42983 0.28753
 C1111 C 0.87479 0.41777 0.25672
 H1112 H 0.85175 0.42793 0.24728
 O1113 O 1.03477 0.66414 0.37771
 O1114 O 1.03467 0.70266 0.33852
 C1115 C 1.04697 0.69042 0.36500
 C1116 C 1.07577 0.70681 0.38120
 C1117 C 1.09055 0.73340 0.36720
 H1118 H 1.08215 0.74084 0.34280
 O1119 O 0.96781 0.33623 0.37672
 O1120 O 0.96749 0.29730 0.33799
 C1121 C 0.95588 0.30944 0.36483
 C1122 C 0.92804 0.29247 0.38229
 C1123 C 0.91438 0.26284 0.36956
 H1124 H 0.92379 0.25366 0.34610
 O1125 O 1.16646 0.61751 0.46817
 O1126 O 1.20569 0.65607 0.46842
 C1127 C 1.19390 0.62894 0.45706
 C1128 C 1.21137 0.61151 0.42945
 C1129 C 1.24241 0.62305 0.41790
 H1130 H 1.25496 0.64203 0.43226
 O1131 O 0.83499 0.37892 0.46869
 O1132 O 0.79614 0.34000 0.46931
 C1133 C 0.80767 0.36708 0.45765
 C1134 C 0.79028 0.38406 0.42970
 C1135 C 0.75991 0.37171 0.41698
 H1136 H 0.74764 0.35199 0.43057
 Cu1137 Cu 1.00110 0.36237 0.35827
 Cu1138 Cu 1.00082 0.31566 0.31169
 Cu1139 Cu 0.99980 0.63949 0.36066
 Cu1140 Cu 0.99946 0.68594 0.31382
 Cu1141 Cu 0.86074 0.49869 0.36110
 Cu1142 Cu 0.81347 0.49875 0.31502
 Cu1143 Cu 1.13813 0.50099 0.35762
 Cu1144 Cu 1.18500 0.50118 0.31107
 C1145 C 0.91456 0.41514 0.30206
 H1146 H 0.92270 0.42319 0.32650
 C1147 C 0.89193 0.39231 0.23926
 C1148 C 1.08291 0.58657 0.30094
 H1149 H 1.07509 0.57817 0.32538
 C1150 C 1.10667 0.61063 0.23812
 C1151 C 0.80549 0.41129 0.41393
 H1152 H 0.82857 0.42132 0.42380
 C1153 C 0.74592 0.38448 0.38716
 C1154 C 1.19579 0.58507 0.41274
 H1155 H 1.17199 0.57585 0.42167
 C1156 C 1.25671 0.61076 0.38813
 C1157 C 0.91414 0.30656 0.41108
 H1158 H 0.92355 0.33015 0.42024
 C1159 C 0.88850 0.24585 0.38639
 C1160 C 1.08967 0.69279 0.41222
 H1161 H 1.07898 0.67009 0.42221
 C1162 C 1.11867 0.75140 0.38399
 C1163 C 0.90983 0.58868 0.30748
 H1164 H 0.92024 0.57836 0.33015
 C1165 C 0.88230 0.61612 0.24871
 C1166 C 1.08610 0.41514 0.30082
 H1167 H 1.07818 0.42303 0.32539
 C1168 C 1.10835 0.39317 0.23773
 C1169 C 1.08645 0.30547 0.41235
 H1170 H 1.07713 0.32915 0.42132
 C1171 C 1.11218 0.24459 0.38785
 C1172 C 0.91576 0.69781 0.41459
 H1173 H 0.92413 0.67350 0.42280
 C1174 C 0.89232 0.76019 0.39147
 C1175 C 0.80454 0.58522 0.41432
 H1176 H 0.82832 0.57605 0.42330
 C1177 C 0.74366 0.61057 0.38939
 C1178 C 1.19346 0.41328 0.41167
 H1179 H 1.17050 0.42375 0.42133
 C1180 C 1.25260 0.38424 0.38423
 O1181 O 1.03051 0.38054 0.66978
 O1182 O 1.03097 0.34147 0.70846
 C1183 C 1.04150 0.36915 0.69720
 C1184 C 1.06801 0.38758 0.71515
 C1185 C 1.07809 0.37799 0.74726
 H1186 H 1.06313 0.35954 0.75981
 O1187 O 0.96793 0.62043 0.66792
 O1188 O 0.96793 0.65944 0.70659
 C1189 C 0.95662 0.63220 0.69504
 C1190 C 0.92983 0.61398 0.71289
 C1191 C 0.91803 0.62487 0.74404
 H1192 H 0.92847 0.64756 0.75390
 O1193 O 0.83656 0.53385 0.62165
 O1194 O 0.79785 0.53423 0.66067
 C1195 C 0.81001 0.54603 0.63387
 C1196 C 0.79336 0.57447 0.61701
 C1197 C 0.76462 0.58895 0.63087
 H1198 H 0.75623 0.57949 0.65455
 O1199 O 1.16440 0.46718 0.62236
 O1200 O 1.20355 0.46719 0.66094
 C1201 C 1.19161 0.45574 0.63391
 C1202 C 1.20905 0.42840 0.61599
 C1203 C 1.23880 0.41472 0.62866
 H1204 H 1.24804 0.42413 0.65208
 O1205 O 1.11936 0.33623 0.53271
 O1206 O 1.15860 0.29772 0.53258
 C1207 C 1.13152 0.30937 0.54421
 C1208 C 1.11484 0.29233 0.57239
 C1209 C 1.12708 0.26177 0.58432
 H1210 H 1.14638 0.24946 0.57019
 O1211 O 0.88174 0.66589 0.53163
 O1212 O 0.84286 0.70477 0.53171
 C1213 C 0.87012 0.69307 0.54292
 C1214 C 0.88765 0.71047 0.57040
 C1215 C 0.87625 0.74153 0.58174
 H1216 H 0.85706 0.75395 0.56753
 O1217 O 0.88114 0.46785 0.66685
 O1218 O 0.84242 0.46794 0.70595
 C1219 C 0.86967 0.45679 0.69421
 C1220 C 0.88774 0.43009 0.71210
 C1221 C 0.87738 0.42006 0.74612
 H1222 H 0.85924 0.43599 0.75775
 O1223 O 1.11758 0.53052 0.66924
 O1224 O 1.15642 0.53053 0.70820
 C1225 C 1.12893 0.54141 0.69671
 C1226 C 1.11080 0.56820 0.71454
 C1227 C 1.12087 0.57840 0.74644
 H1228 H 1.13922 0.56332 0.75899
 O1229 O 0.96813 0.33326 0.62225
 O1230 O 0.96846 0.29379 0.66044
 C1231 C 0.95715 0.30570 0.63335
 C1232 C 0.93059 0.28784 0.61466
 C1233 C 0.91795 0.25709 0.62591
 H1234 H 0.92763 0.24746 0.64904
 O1235 O 1.03313 0.66496 0.62145
 O1236 O 1.03338 0.70427 0.65979
 C1237 C 1.04487 0.69201 0.63292
 C1238 C 1.07247 0.70905 0.61503
 C1239 C 1.08580 0.73902 0.62728
 H1240 H 1.07609 0.74853 0.65048
 O1241 O 0.83826 0.37916 0.53413
 O1242 O 0.79966 0.34001 0.53477
 C1243 C 0.81173 0.36690 0.54639
 C1244 C 0.79493 0.38373 0.57474
 C1245 C 0.76420 0.36906 0.58932
 H1246 H 0.75677 0.34538 0.57925
 O1247 O 1.16491 0.61829 0.53328
 O1248 O 1.20391 0.65709 0.53342
 C1249 C 1.19179 0.63023 0.54503
 C1250 C 1.20829 0.61364 0.57353
 C1251 C 1.23844 0.62620 0.58616
 H1252 H 1.25091 0.64544 0.57212
 O1253 O 1.03273 0.62026 0.66789
 O1254 O 1.03297 0.65934 0.70649
 C1255 C 1.04409 0.63202 0.69500
 C1256 C 1.07067 0.61371 0.71300
 C1257 C 1.08285 0.62518 0.74378
 H1258 H 1.07304 0.64833 0.75323
 O1259 O 0.96608 0.37854 0.66815
 O1260 O 0.96642 0.33935 0.70669
 C1261 C 0.95485 0.36647 0.69516
 C1262 C 0.92812 0.38445 0.71306
 C1263 C 0.91714 0.37426 0.74305
 H1264 H 0.92787 0.35179 0.75303
 O1265 O 1.16317 0.53275 0.62365
 O1266 O 1.20218 0.53300 0.66239
 C1267 C 1.18984 0.54488 0.63575
 C1268 C 1.20642 0.57329 0.61884
 C1269 C 1.23506 0.58806 0.63267
 H1270 H 1.24338 0.57904 0.65655
 O1271 O 0.83500 0.46804 0.62154
 O1272 O 0.79610 0.46830 0.66039
 C1273 C 0.80796 0.45653 0.63347
 C1274 C 0.79119 0.42803 0.61670
 C1275 C 0.76221 0.41550 0.62835
 H1276 H 0.74993 0.42909 0.64795
 O1277 O 1.11971 0.66457 0.53189
 O1278 O 1.15862 0.70346 0.53163
 C1279 C 1.13128 0.69195 0.54289
 C1280 C 1.11359 0.70975 0.57015
 C1281 C 1.12497 0.74094 0.58139
 H1282 H 1.14435 0.75317 0.56724
 O1283 O 0.88330 0.33272 0.53173
 O1284 O 0.84467 0.29354 0.53185
 C1285 C 0.87214 0.30512 0.54259
 C1286 C 0.89036 0.28705 0.56915
 C1287 C 0.87992 0.25519 0.57913
 H1288 H 0.86140 0.24297 0.56399
 O1289 O 1.11928 0.46610 0.66852
 O1290 O 1.15833 0.46612 0.70726
 C1291 C 1.13115 0.45478 0.69559
 C1292 C 1.11308 0.42814 0.71353
 C1293 C 1.12445 0.41658 0.74453
 H1294 H 1.14743 0.42685 0.75400
 O1295 O 0.88176 0.53208 0.66782
 O1296 O 0.84305 0.53203 0.70693
 C1297 C 0.87053 0.54285 0.69541
 C1298 C 0.88891 0.56919 0.71356
 C1299 C 0.87906 0.57881 0.74571
 H1300 H 0.86039 0.56377 0.75780
 O1301 O 0.96771 0.66523 0.62165
 O1302 O 0.96767 0.70448 0.66005
 C1303 C 0.95608 0.69229 0.63321
 C1304 C 0.92850 0.70940 0.61544
 C1305 C 0.91507 0.73923 0.62788
 H1306 H 0.92461 0.74861 0.65121
 O1307 O 1.03354 0.33628 0.62313
 O1308 O 1.03422 0.29701 0.66155
 C1309 C 1.04595 0.30971 0.63497
 C1310 C 1.07438 0.29351 0.61773
 C1311 C 1.08879 0.26447 0.63083
 H1312 H 1.07977 0.25570 0.65458
 O1313 O 1.16531 0.38190 0.53186
 O1314 O 1.20460 0.34346 0.53144
 C1315 C 1.19276 0.37048 0.54296
 C1316 C 1.21024 0.38786 0.57065
 C1317 C 1.24119 0.37618 0.58233
 H1318 H 1.25354 0.35703 0.56808
 O1319 O 0.83556 0.62058 0.53214
 O1320 O 0.79656 0.65931 0.53224
 C1321 C 0.80853 0.63237 0.54381
 C1322 C 0.79174 0.61546 0.57216
 C1323 C 0.76154 0.62790 0.58499
 H1324 H 0.74931 0.64747 0.57126
 Cu1325 Cu 0.99944 0.36097 0.64188
 Cu1326 Cu 1.00004 0.31376 0.68799
 Cu1327 Cu 1.00036 0.63886 0.64084
 Cu1328 Cu 1.00052 0.68597 0.68697
 Cu1329 Cu 0.86345 0.36047 0.50038
 Cu1330 Cu 0.81703 0.31354 0.50089
 Cu1331 Cu 1.13793 0.36258 0.49972
 Cu1332 Cu 1.18497 0.31634 0.49949
 Cu1333 Cu 0.86228 0.63937 0.49928
 Cu1334 Cu 0.81551 0.68591 0.49947
 Cu1335 Cu 1.13907 0.63704 0.50006
 Cu1336 Cu 1.18601 0.68349 0.50007
 Cu1337 Cu 0.86230 0.50043 0.64036
 Cu1338 Cu 0.81566 0.50063 0.68714
 Cu1339 Cu 1.13734 0.49908 0.64192
 Cu1340 Cu 1.18426 0.49924 0.68840
 C1341 C 1.08504 0.41334 0.69898
 H1342 H 1.07712 0.42114 0.67438
 C1343 C 1.10713 0.39152 0.76224
 C1344 C 0.91490 0.58628 0.69783
 H1345 H 0.92279 0.57865 0.67317
 C1346 C 0.89256 0.60741 0.76131
 C1347 C 0.80694 0.58817 0.58785
 H1348 H 0.82992 0.57809 0.57781
 C1349 C 0.74763 0.61539 0.61489
 C1350 C 1.19486 0.41455 0.58715
 H1351 H 1.17117 0.42389 0.57810
 C1352 C 1.25565 0.38862 0.61199
 C1353 C 1.08786 0.30750 0.58869
 H1354 H 1.07786 0.33071 0.57921
 C1355 C 1.11465 0.24748 0.61395
 C1356 C 0.91439 0.69506 0.58685
 H1357 H 0.92357 0.67129 0.57796
 C1358 C 0.88908 0.75609 0.61108
 C1359 C 0.91248 0.41358 0.69702
 H1360 H 0.92021 0.42051 0.67210
 C1361 C 0.89024 0.39273 0.76148
 C1362 C 1.08502 0.58540 0.69852
 H1363 H 1.07689 0.57737 0.67406
 C1364 C 1.10802 0.60770 0.76128
 C1365 C 0.91636 0.30269 0.58641
 H1366 H 0.92470 0.32713 0.57852
 C1367 C 0.89250 0.23997 0.60828
 C1368 C 1.08673 0.69449 0.58661
 H1369 H 1.07757 0.67064 0.57789
 C1370 C 1.11190 0.75580 0.61055
 C1371 C 0.80767 0.41162 0.58809
 H1372 H 0.83044 0.42230 0.57816
 C1373 C 0.74741 0.38384 0.61473
 C1374 C 1.19295 0.58659 0.58948
 H1375 H 1.17002 0.57638 0.57946
 C1376 C 1.25208 0.61425 0.61628
 O1377 O 0.47049 0.88082 0.33091
 O1378 O 0.47069 0.84209 0.29196
 C1379 C 0.45988 0.86965 0.30323
 C1380 C 0.43318 0.88797 0.28522
 C1381 C 0.42245 0.87779 0.25343
 H1382 H 0.43707 0.85908 0.24089
 O1383 O 0.53095 1.11781 0.33090
 O1384 O 0.53147 1.15670 0.29206
 C1385 C 0.54221 1.12919 0.30359
 C1386 C 0.56905 1.11091 0.28587
 C1387 C 0.57949 1.12095 0.25404
 H1388 H 0.56465 1.13959 0.24169
 O1389 O 0.33510 0.96743 0.37768
 O1390 O 0.29620 0.96706 0.33883
 C1391 C 0.30798 0.95588 0.36604
 C1392 C 0.29041 0.92876 0.38411
 C1393 C 0.26062 0.91519 0.37146
 H1394 H 0.25141 0.92450 0.34796
 O1395 O 0.66452 1.03489 0.37959
 O1396 O 0.70380 1.03490 0.34110
 C1397 C 0.69132 1.04682 0.36765
 C1398 C 0.70796 1.07505 0.38457
 C1399 C 0.73682 1.08931 0.37086
 H1400 H 0.74525 1.08002 0.34711
 O1401 O 0.37967 0.83663 0.46702
 O1402 O 0.34036 0.79814 0.46674
 C1403 C 0.36738 0.80999 0.45514
 C1404 C 0.38390 0.79340 0.42667
 C1405 C 0.36987 0.76211 0.41275
 H1406 H 0.35097 0.74993 0.42749
 O1407 O 0.61739 1.16491 0.46676
 O1408 O 0.65614 1.20397 0.46704
 C1409 C 0.62920 1.19195 0.45535
 C1410 C 0.61219 1.20893 0.42736
 C1411 C 0.62371 1.23991 0.41592
 H1412 H 0.64266 1.25249 0.43032
 O1413 O 0.38168 1.03057 0.33050
 O1414 O 0.34314 1.03031 0.29125
 C1415 C 0.37053 1.04126 0.30285
 C1416 C 0.38905 1.06761 0.28476
 C1417 C 0.37856 1.07817 0.25090
 H1418 H 0.36004 1.06262 0.23937
 O1419 O 0.62131 0.96751 0.33528
 O1420 O 0.66075 0.96705 0.29695
 C1421 C 0.63376 0.95539 0.30882
 C1422 C 0.61745 0.92658 0.29249
 C1423 C 0.63180 0.91216 0.26158
 H1424 H 0.65082 0.92680 0.24949
 O1425 O 0.53040 0.83207 0.38046
 O1426 O 0.53025 0.79272 0.34214
 C1427 C 0.54095 0.80425 0.36965
 C1428 C 0.56744 0.78627 0.38830
 C1429 C 0.57824 0.75453 0.37819
 H1430 H 0.56365 0.74201 0.35944
 O1431 O 0.46642 1.16410 0.37673
 O1432 O 0.46670 1.20329 0.33824
 C1433 C 0.45498 1.19125 0.36515
 C1434 C 0.42750 1.20859 0.38305
 C1435 C 0.41394 1.23846 0.37063
 H1436 H 0.42340 1.24780 0.34725
 O1437 O 0.33642 1.11846 0.46662
 O1438 O 0.29749 1.15728 0.46627
 C1439 C 0.30956 1.13036 0.45477
 C1440 C 0.29284 1.11360 0.42644
 C1441 C 0.26141 1.12756 0.41276
 H1442 H 0.24940 1.14645 0.42758
 O1443 O 0.66418 0.87973 0.46695
 O1444 O 0.70314 0.84095 0.46709
 C1445 C 0.69136 0.86802 0.45563
 C1446 C 0.70917 0.88583 0.42858
 C1447 C 0.73905 0.87298 0.41548
 H1448 H 0.74806 0.84947 0.42495
 O1449 O 0.46652 1.11961 0.32991
 O1450 O 0.46700 1.15873 0.29130
 C1451 C 0.45570 1.13144 0.30262
 C1452 C 0.42955 1.11316 0.28421
 C1453 C 0.41866 1.12369 0.25431
 H1454 H 0.42947 1.14623 0.24460
 O1455 O 0.53556 0.87761 0.33504
 O1456 O 0.53572 0.83832 0.29667
 C1457 C 0.54795 0.86483 0.30890
 C1458 C 0.57690 0.88093 0.29261
 C1459 C 0.59198 0.86660 0.26636
 H1460 H 0.58357 0.84217 0.25913
 O1461 O 0.66665 0.96981 0.38124
 O1462 O 0.70624 0.96975 0.34306
 C1463 C 0.69421 0.95866 0.37021
 C1464 C 0.71142 0.93119 0.38814
 C1465 C 0.74248 0.91933 0.37702
 H1466 H 0.75532 0.93340 0.35801
 O1467 O 0.33604 1.03291 0.37620
 O1468 O 0.29737 1.03276 0.33713
 C1469 C 0.30937 1.04478 0.36388
 C1470 C 0.29246 1.07308 0.38072
 C1471 C 0.26545 1.08774 0.36716
 H1472 H 0.25756 1.07919 0.34296
 O1473 O 0.38138 1.16498 0.46747
 O1474 O 0.34251 1.20385 0.46771
 C1475 C 0.36971 1.19224 0.45627
 C1476 C 0.38700 1.20975 0.42854
 C1477 C 0.37538 1.24075 0.41706
 H1478 H 0.35622 1.25308 0.43137
 O1479 O 0.61897 0.83342 0.46678
 O1480 O 0.65789 0.79459 0.46698
 C1481 C 0.63069 0.80620 0.45561
 C1482 C 0.61259 0.78810 0.42895
 C1483 C 0.62451 0.75747 0.41687
 H1484 H 0.64769 0.74822 0.42691
 O1485 O 0.62033 1.03250 0.33282
 O1486 O 0.65949 1.03219 0.29421
 C1487 C 0.63209 1.04343 0.30550
 C1488 C 0.61389 1.06997 0.28723
 C1489 C 0.62558 1.08205 0.25644
 H1490 H 0.64855 1.07179 0.24697
 O1491 O 0.38092 0.96617 0.33217
 O1492 O 0.34216 0.96587 0.29315
 C1493 C 0.36933 0.95470 0.30504
 C1494 C 0.38763 0.92811 0.28717
 C1495 C 0.37588 0.91607 0.25651
 H1496 H 0.35258 0.92589 0.24734
 O1497 O 0.53204 1.16377 0.37611
 O1498 O 0.53256 1.20293 0.33758
 C1499 C 0.54402 1.19065 0.36441
 C1500 C 0.57175 1.20759 0.38204
 C1501 C 0.58538 1.23730 0.36944
 H1502 H 0.57602 1.24656 0.34598
 O1503 O 0.46544 0.83605 0.37707
 O1504 O 0.46534 0.79725 0.33819
 C1505 C 0.45314 0.80971 0.36461
 C1506 C 0.42439 0.79338 0.38100
 C1507 C 0.40956 0.76679 0.36708
 H1508 H 0.41780 0.75939 0.34262
 O1509 O 0.66476 1.12101 0.46838
 O1510 O 0.70366 1.15989 0.46900
 C1511 C 0.69211 1.13284 0.45735
 C1512 C 0.70952 1.11587 0.42943
 C1513 C 0.73990 1.12823 0.41675
 H1514 H 0.75214 1.14793 0.43035
 O1515 O 0.33392 0.88223 0.46831
 O1516 O 0.29452 0.84384 0.46867
 C1517 C 0.30640 0.87092 0.45726
 C1518 C 0.28895 0.88843 0.42964
 C1519 C 0.25795 0.87687 0.41798
 H1520 H 0.24543 0.85780 0.43225
 Cu1521 Cu 0.50047 0.86057 0.35971
 Cu1522 Cu 0.50051 0.81368 0.31335
 Cu1523 Cu 0.49887 1.13756 0.35742
 Cu1524 Cu 0.49953 1.18454 0.31109
 Cu1525 Cu 0.36218 0.99931 0.35817
 Cu1526 Cu 0.31562 0.99895 0.31135
 Cu1527 Cu 0.63925 1.00119 0.36105
 Cu1528 Cu 0.68657 1.00094 0.31501
 C1529 C 0.41617 0.91383 0.30135
 H1530 H 0.42443 0.92205 0.32570
 C1531 C 0.39308 0.89102 0.23875
 C1532 C 0.58578 1.08478 0.30178
 H1533 H 0.57758 1.07673 0.32621
 C1534 C 0.60859 1.10768 0.23904
 C1535 C 0.30450 0.91498 0.41303
 H1536 H 0.32825 0.92423 0.42204
 C1537 C 0.24368 0.88925 0.38820
 C1538 C 0.69434 1.08864 0.41367
 H1539 H 0.67126 1.07860 0.42354
 C1540 C 0.75391 1.11549 0.38695
 C1541 C 0.41061 0.80734 0.41209
 H1542 H 0.42132 0.83006 0.42202
 C1543 C 0.38161 0.74869 0.38403
 C1544 C 0.58561 1.19339 0.41080
 H1545 H 0.57624 1.16973 0.41984
 C1546 C 0.61120 1.25426 0.38636
 C1547 C 0.41397 1.08383 0.29987
 H1548 H 0.42174 1.07665 0.32472
 C1549 C 0.39156 1.10567 0.23578
 C1550 C 0.59060 0.91219 0.30633
 H1551 H 0.57964 0.92245 0.32877
 C1552 C 0.62028 0.88318 0.24842
 C1553 C 0.58420 0.80233 0.41438
 H1554 H 0.57585 0.82667 0.42252
 C1555 C 0.60759 0.73988 0.39144
 C1556 C 0.41362 1.19436 0.41186
 H1557 H 0.42291 1.17064 0.42079
 C1558 C 0.38798 1.25536 0.38755
 C1559 C 0.30676 1.08701 0.41171
 H1560 H 0.32968 1.07651 0.42144
 C1561 C 0.24773 1.11607 0.38408
 C1562 C 0.69543 0.91477 0.41455
 H1563 H 0.67162 0.92391 0.42348
 C1564 C 0.75635 0.88950 0.38970
 O1565 O 0.53188 0.87942 0.66807
 O1566 O 0.53187 0.84044 0.70682
 C1567 C 0.54315 0.86768 0.69523
 C1568 C 0.56987 0.88594 0.71310
 C1569 C 0.58161 0.87509 0.74429
 H1570 H 0.57119 0.85239 0.75418
 O1571 O 0.46921 1.11996 0.66953
 O1572 O 0.46934 1.15874 0.70845
 C1573 C 0.45823 1.13141 0.69692
 C1574 C 0.43094 1.11362 0.71438
 C1575 C 0.41916 1.12470 0.74543
 H1576 H 0.43321 1.14383 0.75810
 O1577 O 0.33524 1.03257 0.62192
 O1578 O 0.29623 1.03283 0.66067
 C1579 C 0.30814 1.04416 0.63355
 C1580 C 0.29081 1.07160 0.61568
 C1581 C 0.26116 1.08535 0.62843
 H1582 H 0.25191 1.07589 0.65185
 O1583 O 0.66303 0.96592 0.62199
 O1584 O 0.70200 0.96545 0.66075
 C1585 C 0.68966 0.95369 0.63405
 C1586 C 0.70625 0.92526 0.61715
 C1587 C 0.73504 0.91080 0.63096
 H1588 H 0.74346 0.92021 0.65463
 O1589 O 0.61795 0.83396 0.53162
 O1590 O 0.65683 0.79508 0.53175
 C1591 C 0.62956 0.80678 0.54294
 C1592 C 0.61202 0.78938 0.57043
 C1593 C 0.62340 0.75831 0.58178
 H1594 H 0.64256 0.74587 0.56754
 O1595 O 0.38101 1.16364 0.53268
 O1596 O 0.34185 1.20222 0.53283
 C1597 C 0.36888 1.19040 0.54442
 C1598 C 0.38553 1.20724 0.57274
 C1599 C 0.37137 1.23854 0.58647
 H1600 H 0.35236 1.25048 0.57170
 O1601 O 0.38211 0.96945 0.66909
 O1602 O 0.34348 0.96975 0.70825
 C1603 C 0.37089 0.95873 0.69669
 C1604 C 0.38907 0.93194 0.71455
 C1605 C 0.37905 0.92173 0.74649
 H1606 H 0.36069 0.93679 0.75904
 O1607 O 0.61902 1.03219 0.66753
 O1608 O 0.65806 1.03179 0.70630
 C1609 C 0.63079 1.04313 0.69481
 C1610 C 0.61319 1.07014 0.71267
 C1611 C 0.62324 1.07988 0.74472
 H1612 H 0.64162 1.06468 0.75710
 O1613 O 0.46666 0.83485 0.62172
 O1614 O 0.46645 0.79560 0.66016
 C1615 C 0.45493 0.80781 0.63328
 C1616 C 0.42731 0.79074 0.61551
 C1617 C 0.41389 0.76090 0.62799
 H1618 H 0.42355 0.75153 0.65128
 O1619 O 0.53176 1.16695 0.62192
 O1620 O 0.53208 1.20611 0.66041
 C1621 C 0.54297 1.19437 0.63309
 C1622 C 0.56930 1.21227 0.61418
 C1623 C 0.58164 1.24323 0.62511
 H1624 H 0.57197 1.25299 0.64819
 O1625 O 0.33582 0.88165 0.53341
 O1626 O 0.29673 0.84294 0.53376
 C1627 C 0.30898 0.86975 0.54532
 C1628 C 0.29251 0.88638 0.57381
 C1629 C 0.26133 0.87218 0.58778
 H1630 H 0.24923 0.85341 0.57289
 O1631 O 0.66141 1.12062 0.53379
 O1632 O 0.70006 1.15973 0.53442
 C1633 C 0.68798 1.13281 0.54601
 C1634 C 0.70484 1.11583 0.57423
 C1635 C 0.73585 1.13018 0.58851
 H1636 H 0.74348 1.15374 0.57828
 O1637 O 0.53396 1.12143 0.66759
 O1638 O 0.53428 1.16031 0.70639
 C1639 C 0.54569 1.13331 0.69447
 C1640 C 0.57284 1.11536 0.71184
 C1641 C 0.58494 1.12644 0.74277
 H1642 H 0.57491 1.14934 0.75258
 O1643 O 0.46709 0.87979 0.66786
 O1644 O 0.46687 0.84077 0.70655
 C1645 C 0.45575 0.86808 0.69500
 C1646 C 0.42921 0.88642 0.71301
 C1647 C 0.41711 0.87498 0.74383
 H1648 H 0.42695 0.85184 0.75328
 O1649 O 0.66448 1.03173 0.62142
 O1650 O 0.70361 1.03132 0.66002
 C1651 C 0.69165 1.04310 0.63313
 C1652 C 0.70849 1.07147 0.61616
 C1653 C 0.73773 1.08364 0.62744
 H1654 H 0.75011 1.06973 0.64676
 O1655 O 0.33589 0.96702 0.62394
 O1656 O 0.29714 0.96715 0.66294
 C1657 C 0.30922 0.95510 0.63628
 C1658 C 0.29241 0.92669 0.61962
 C1659 C 0.26572 0.91172 0.63354
 H1660 H 0.25807 0.92020 0.65781
 O1661 O 0.61655 1.16728 0.53137
 O1662 O 0.65523 1.20642 0.53147
 C1663 C 0.62771 1.19490 0.54217
 C1664 C 0.60940 1.21306 0.56857
 C1665 C 0.61955 1.24511 0.57820
 H1666 H 0.63795 1.25742 0.56295
 O1667 O 0.38041 0.83487 0.53209
 O1668 O 0.34141 0.79609 0.53182
 C1669 C 0.36873 0.80754 0.54315
 C1670 C 0.38624 0.78983 0.57059
 C1671 C 0.37468 0.75878 0.58214
 H1672 H 0.35521 0.74652 0.56817
 O1673 O 0.61778 0.96793 0.66807
 O1674 O 0.65672 0.96774 0.70694
 C1675 C 0.62912 0.95707 0.69557
 C1676 C 0.61071 0.93078 0.71377
 C1677 C 0.62048 0.92123 0.74596
 H1678 H 0.63909 0.93632 0.75807
 O1679 O 0.38031 1.03407 0.66796
 O1680 O 0.34129 1.03427 0.70675
 C1681 C 0.36832 1.04573 0.69484
 C1682 C 0.38582 1.07302 0.71231
 C1683 C 0.37292 1.08603 0.74208
 H1684 H 0.34937 1.07646 0.75097
 O1685 O 0.46652 1.16463 0.62330
 O1686 O 0.46653 1.20357 0.66202
 C1687 C 0.45450 1.19124 0.63542
 C1688 C 0.42606 1.20776 0.61851
 C1689 C 0.41111 1.23443 0.63218
 H1690 H 0.41929 1.24198 0.65661
 O1691 O 0.53208 0.83470 0.62174
 O1692 O 0.53214 0.79549 0.66023
 C1693 C 0.54371 0.80765 0.63334
 C1694 C 0.57125 0.79050 0.61555
 C1695 C 0.58468 0.76066 0.62800
 H1696 H 0.57518 0.75130 0.65137
 O1697 O 0.66411 0.87930 0.53223
 O1698 O 0.70309 0.84055 0.53236
 C1699 C 0.69111 0.86748 0.54392
 C1700 C 0.70789 0.88436 0.57228
 C1701 C 0.73813 0.87195 0.58505
 H1702 H 0.75039 0.85242 0.57128
 O1703 O 0.33478 1.11831 0.53180
 O1704 O 0.29558 1.15685 0.53138
 C1705 C 0.30734 1.12979 0.54288
 C1706 C 0.28980 1.11242 0.57056
 C1707 C 0.25893 1.12423 0.58235
 H1708 H 0.24666 1.14361 0.56831
 Cu1709 Cu 0.49945 0.86103 0.64094
 Cu1710 Cu 0.49930 0.81399 0.68719
 Cu1711 Cu 0.50045 1.13938 0.64168
 Cu1712 Cu 0.50063 1.18622 0.68813
 Cu1713 Cu 0.36139 0.86268 0.50020
 Cu1714 Cu 0.31430 0.81641 0.50027
 Cu1715 Cu 0.63746 0.86054 0.49931
 Cu1716 Cu 0.68422 0.81398 0.49956
 Cu1717 Cu 0.36230 1.13749 0.49967
 Cu1718 Cu 0.31546 1.18391 0.49953
 Cu1719 Cu 0.63629 1.13942 0.50007
 Cu1720 Cu 0.68277 1.18630 0.50057
 Cu1721 Cu 0.36217 1.00073 0.64171
 Cu1722 Cu 0.31547 1.00095 0.68841
 Cu1723 Cu 0.63735 0.99950 0.64068
 Cu1724 Cu 0.68430 0.99904 0.68713
 C1725 C 0.58478 0.91364 0.69802
 H1726 H 0.57695 0.92123 0.67332
 C1727 C 0.60701 0.89261 0.76158
 C1728 C 0.41467 1.08709 0.69855
 H1729 H 0.42383 1.07810 0.67480
 C1730 C 0.38946 1.11171 0.75944
 C1731 C 0.30503 1.08552 0.58689
 H1732 H 0.32866 1.07609 0.57776
 C1733 C 0.24438 1.11156 0.61187
 C1734 C 0.69264 0.91160 0.58801
 H1735 H 0.66964 0.92166 0.57802
 C1736 C 0.75206 0.88443 0.61493
 C1737 C 0.58533 0.80482 0.58692
 H1738 H 0.57615 0.82860 0.57801
 C1739 C 0.61063 0.74378 0.61117
 C1740 C 0.41231 1.19352 0.58744
 H1741 H 0.42304 1.17076 0.57768
 C1742 C 0.38295 1.25220 0.61512
 C1743 C 0.41483 0.91473 0.69851
 H1744 H 0.42294 0.92274 0.67403
 C1745 C 0.39196 0.89243 0.76135
 C1746 C 0.58738 1.08743 0.69688
 H1747 H 0.57917 1.07963 0.67238
 C1748 C 0.61013 1.10878 0.76005
 C1749 C 0.41315 0.80510 0.58694
 H1750 H 0.42243 0.82884 0.57801
 C1751 C 0.38781 0.74404 0.61137
 C1752 C 0.58359 1.19733 0.58603
 H1753 H 0.57547 1.17274 0.57841
 C1754 C 0.60685 1.26043 0.60724
 C1755 C 0.30646 0.91299 0.58845
 H1756 H 0.32920 0.92369 0.57850
 C1757 C 0.24801 0.88331 0.61676
 C1758 C 0.69189 1.08810 0.58774
 H1759 H 0.66890 1.07768 0.57807
 C1760 C 0.75265 1.11529 0.61384
 O1761 O 0.46898 0.37915 0.83224
 O1762 O 0.46887 0.34050 0.79322
 C1763 C 0.45795 0.36789 0.80478
 C1764 C 0.43131 0.38631 0.78687
 C1765 C 0.41997 0.37534 0.75338
 H1766 H 0.43517 0.35658 0.74177
 O1767 O 0.53186 0.62157 0.83244
 O1768 O 0.53181 0.66057 0.79372
 C1769 C 0.54305 0.63332 0.80524
 C1770 C 0.56955 0.61496 0.78723
 C1771 C 0.58127 0.62580 0.75603
 H1772 H 0.57111 0.64866 0.74628
 O1773 O 0.33587 0.46748 0.87786
 O1774 O 0.29674 0.46735 0.83926
 C1775 C 0.30856 0.45615 0.86647
 C1776 C 0.29084 0.42930 0.88489
 C1777 C 0.26069 0.41600 0.87276
 H1778 H 0.25130 0.42525 0.84931
 O1779 O 0.66164 0.53382 0.87795
 O1780 O 0.70078 0.53415 0.83937
 C1781 C 0.68844 0.54591 0.86607
 C1782 C 0.70521 0.57423 0.88312
 C1783 C 0.73411 0.58857 0.86931
 H1784 H 0.74248 0.57911 0.84564
 O1785 O 0.38023 0.33709 0.96673
 O1786 O 0.34061 0.29894 0.96661
 C1787 C 0.36747 0.31077 0.95463
 C1788 C 0.38354 0.29405 0.92593
 C1789 C 0.36819 0.26369 0.91138
 H1790 H 0.34480 0.25620 0.92215
 O1791 O 0.61793 0.66666 0.96867
 O1792 O 0.65713 0.70526 0.96842
 C1793 C 0.62976 0.69375 0.95729
 C1794 C 0.61231 0.71124 0.92982
 C1795 C 0.62388 0.74224 0.91841
 H1796 H 0.64317 0.75457 0.93257
 O1797 O 0.38304 0.53038 0.83079
 O1798 O 0.34433 0.53036 0.79171
 C1799 C 0.37183 0.54124 0.80327
 C1800 C 0.39015 0.56796 0.78547
 C1801 C 0.38077 0.57764 0.75321
 H1802 H 0.36280 0.56219 0.74058
 O1803 O 0.61752 0.46797 0.83176
 O1804 O 0.65674 0.46834 0.79315
 C1805 C 0.62952 0.45688 0.80464
 C1806 C 0.61245 0.42932 0.78717
 C1807 C 0.62369 0.41833 0.75593
 H1808 H 0.64252 0.43291 0.74336
 O1809 O 0.53264 0.33286 0.87896
 O1810 O 0.53283 0.29381 0.84035
 C1811 C 0.54420 0.30578 0.86740
 C1812 C 0.57159 0.28859 0.88537
 C1813 C 0.58510 0.25869 0.87316
 H1814 H 0.57553 0.24918 0.84991
 O1815 O 0.46671 0.66591 0.87891
 O1816 O 0.46638 0.70518 0.84050
 C1817 C 0.45494 0.69292 0.86740
 C1818 C 0.42736 0.70992 0.88528
 C1819 C 0.41401 0.73984 0.87299
 H1820 H 0.42369 0.74935 0.84977
 O1821 O 0.33594 0.61836 0.96682
 O1822 O 0.29659 0.65675 0.96632
 C1823 C 0.30908 0.63006 0.95477
 C1824 C 0.29285 0.61338 0.92614
 C1825 C 0.26157 0.62736 0.91219
 H1826 H 0.24929 0.64594 0.92716
 O1827 O 0.66316 0.38063 0.96699
 O1828 O 0.70225 0.34198 0.96689
 C1829 C 0.69022 0.36895 0.95540
 C1830 C 0.70715 0.38615 0.92741
 C1831 C 0.73758 0.37401 0.91497
 H1832 H 0.74973 0.35434 0.92866
 O1833 O 0.46724 0.62093 0.83275
 O1834 O 0.46696 0.65994 0.79404
 C1835 C 0.45601 0.63253 0.80552
 C1836 C 0.42989 0.61382 0.78727
 C1837 C 0.41843 0.62473 0.75603
 H1838 H 0.42842 0.64777 0.74650
 O1839 O 0.53370 0.37772 0.83301
 O1840 O 0.53382 0.33887 0.79417
 C1841 C 0.54530 0.36585 0.80607
 C1842 C 0.57251 0.38367 0.78866
 C1843 C 0.58567 0.37151 0.75862
 H1844 H 0.57634 0.34806 0.74930
 O1845 O 0.66229 0.46784 0.87806
 O1846 O 0.70150 0.46809 0.83953
 C1847 C 0.68923 0.45610 0.86618
 C1848 C 0.70602 0.42775 0.88313
 C1849 C 0.73503 0.41350 0.86953
 H1850 H 0.74368 0.42318 0.84603
 O1851 O 0.33661 0.53296 0.87563
 O1852 O 0.29775 0.53293 0.83675
 C1853 C 0.30992 0.54492 0.86338
 C1854 C 0.29308 0.57327 0.88013
 C1855 C 0.26628 0.58808 0.86628
 H1856 H 0.25861 0.57958 0.84201
 O1857 O 0.38043 0.66533 0.96849
 O1858 O 0.34115 0.70380 0.96856
 C1859 C 0.36865 0.69259 0.95742
 C1860 C 0.38628 0.71052 0.93018
 C1861 C 0.37481 0.74167 0.91888
 H1862 H 0.35539 0.75382 0.93298
 O1863 O 0.61851 0.33357 0.96821
 O1864 O 0.65752 0.29483 0.96863
 C1865 C 0.63016 0.30618 0.95736
 C1866 C 0.61256 0.28817 0.93029
 C1867 C 0.62410 0.25703 0.91921
 H1868 H 0.64345 0.24496 0.93348
 O1869 O 0.61646 0.53225 0.83164
 O1870 O 0.65554 0.53242 0.79290
 C1871 C 0.62797 0.54317 0.80424
 C1872 C 0.60982 0.56968 0.78618
 C1873 C 0.61954 0.57921 0.75397
 H1874 H 0.63787 0.56394 0.74168
 O1875 O 0.38059 0.46581 0.83109
 O1876 O 0.34145 0.46592 0.79245
 C1877 C 0.36857 0.45445 0.80408
 C1878 C 0.38628 0.42751 0.78619
 C1879 C 0.37502 0.41602 0.75678
 H1880 H 0.35229 0.42667 0.74728
 O1881 O 0.53212 0.66619 0.87879
 O1882 O 0.53212 0.70543 0.84033
 C1883 C 0.54375 0.69324 0.86717
 C1884 C 0.57139 0.71032 0.88486
 C1885 C 0.58496 0.74009 0.87234
 H1886 H 0.57543 0.74946 0.84900
 O1887 O 0.46731 0.33355 0.87802
 O1888 O 0.46718 0.29461 0.83931
 C1889 C 0.45548 0.30672 0.86614
 C1890 C 0.42687 0.29041 0.88302
 C1891 C 0.41388 0.26176 0.87141
 H1892 H 0.42730 0.24948 0.85171
 O1893 O 0.66342 0.62066 0.96819
 O1894 O 0.70273 0.65913 0.96789
 C1895 C 0.69051 0.63224 0.95641
 C1896 C 0.70712 0.61517 0.92801
 C1897 C 0.73743 0.62743 0.91519
 H1898 H 0.74983 0.64690 0.92893
 O1899 O 0.33470 0.38276 0.96898
 O1900 O 0.29510 0.34457 0.96946
 C1901 C 0.30702 0.37164 0.95812
 C1902 C 0.28943 0.38930 0.93073
 C1903 C 0.25814 0.37803 0.91958
 H1904 H 0.24558 0.35916 0.93409
 Cu1905 Cu 0.50062 0.35963 0.85950
 Cu1906 Cu 0.50058 0.31289 0.81297
 Cu1907 Cu 0.49949 0.63982 0.85966
 Cu1908 Cu 0.49924 0.68691 0.81342
 Cu1909 Cu 0.36281 0.49909 0.85783
 Cu1910 Cu 0.31601 0.49916 0.81130
 Cu1911 Cu 0.63572 0.50049 0.85891
 Cu1912 Cu 0.68289 0.50090 0.81264
 C1913 C 0.41570 0.41181 0.80172
 H1914 H 0.42346 0.42006 0.82622
 C1915 C 0.39241 0.38848 0.73844
 C1916 C 0.58420 0.58705 0.80213
 H1917 H 0.57639 0.57945 0.82684
 C1918 C 0.60634 0.60804 0.73856
 C1919 C 0.30510 0.41555 0.91375
 H1920 H 0.32909 0.42453 0.92239
 C1921 C 0.24363 0.39038 0.88997
 C1922 C 0.69169 0.58799 0.91228
 H1923 H 0.66861 0.57806 0.92226
 C1924 C 0.75126 0.61490 0.88528
 C1925 C 0.41119 0.30674 0.91204
 H1926 H 0.42228 0.32930 0.92190
 C1927 C 0.38216 0.24728 0.88532
 C1928 C 0.58546 0.69595 0.91345
 H1929 H 0.57616 0.67223 0.92241
 C1930 C 0.61106 0.75685 0.88907
 C1931 C 0.41540 0.58560 0.80185
 H1932 H 0.42300 0.57800 0.82661
 C1933 C 0.39377 0.60685 0.73820
 C1934 C 0.58626 0.41241 0.80284
 H1935 H 0.57719 0.42111 0.82673
 C1936 C 0.61113 0.38883 0.74145
 C1937 C 0.58569 0.30323 0.91380
 H1938 H 0.57647 0.32706 0.92247
 C1939 C 0.61127 0.24208 0.89001
 C1940 C 0.41317 0.69536 0.91374
 H1941 H 0.42237 0.67154 0.92249
 C1942 C 0.38790 0.75657 0.88969
 C1943 C 0.30705 0.58698 0.91135
 H1944 H 0.32988 0.57646 0.92126
 C1945 C 0.24838 0.61629 0.88312
 C1946 C 0.69206 0.41360 0.91188
 H1947 H 0.66888 0.42342 0.92170
 C1948 C 0.75187 0.38688 0.88548
 O1949 O 0.53180 0.38077 1.16795
 O1950 O 0.53216 0.34214 1.20704
 C1951 C 0.54321 0.36942 1.19521
 C1952 C 0.57000 0.38789 1.21292
 C1953 C 0.58196 0.37646 1.24601
 H1954 H 0.57053 0.35396 1.25502
 O1955 O 0.47024 0.62026 1.16840
 O1956 O 0.47015 0.65886 1.20747
 C1957 C 0.45955 0.63125 1.19612
 C1958 C 0.43324 0.61252 1.21431
 C1959 C 0.42175 0.62368 1.24771
 H1960 H 0.43707 0.64223 1.25958
 O1961 O 0.33579 0.53290 1.12310
 O1962 O 0.29684 0.53287 1.16190
 C1963 C 0.30857 0.54421 1.13471
 C1964 C 0.29083 0.57118 1.11659
 C1965 C 0.26097 0.58464 1.12921
 H1966 H 0.25181 0.57542 1.15277
 O1967 O 0.66389 0.46586 1.12195
 O1968 O 0.70320 0.46613 1.16040
 C1969 C 0.69092 0.45429 1.13372
 C1970 C 0.70812 0.42682 1.11612
 C1971 C 0.73819 0.41374 1.12847
 H1972 H 0.74746 0.42320 1.15188
 O1973 O 0.61856 0.33554 1.03315
 O1974 O 0.65785 0.29707 1.03356
 C1975 C 0.63072 0.30883 1.04501
 C1976 C 0.61391 0.29193 1.07324
 C1977 C 0.62816 0.26078 1.08719
 H1978 H 0.64737 0.24907 1.07252
 O1979 O 0.37896 0.66392 1.03351
 O1980 O 0.33935 0.70205 1.03358
 C1981 C 0.36640 0.69047 1.04531
 C1982 C 0.38269 0.70724 1.07383
 C1983 C 0.36817 0.73819 1.08805
 H1984 H 0.34895 0.75001 1.07349
 O1985 O 0.38282 0.46971 1.16969
 O1986 O 0.34419 0.46944 1.20888
 C1987 C 0.37162 0.45866 1.19717
 C1988 C 0.38998 0.43201 1.21492
 C1989 C 0.37900 0.42091 1.24843
 H1990 H 0.36103 0.43672 1.26053
 O1991 O 0.62016 0.53325 1.16550
 O1992 O 0.65965 0.53419 1.20378
 C1993 C 0.63265 0.54567 1.19178
 C1994 C 0.61642 0.57463 1.20778
 C1995 C 0.63074 0.58905 1.23865
 H1996 H 0.64945 0.57425 1.25099
 O1997 O 0.46689 0.33478 1.12236
 O1998 O 0.46682 0.29583 1.16108
 C1999 C 0.45520 0.30781 1.13410
 C2000 C 0.42747 0.29064 1.11634
 C2001 C 0.41360 0.26101 1.12898
 H2002 H 0.42305 0.25171 1.15237
 O2003 O 0.52994 0.66944 1.11911
 O2004 O 0.52977 0.70866 1.15756
 C2005 C 0.54055 0.69719 1.13005
 C2006 C 0.56727 0.71505 1.11155
 C2007 C 0.57833 0.74667 1.12180
 H2008 H 0.56380 0.75926 1.14054
 O2009 O 0.33705 0.38175 1.03400
 O2010 O 0.29778 0.34322 1.03427
 C2011 C 0.31015 0.36994 1.04589
 C2012 C 0.29365 0.38652 1.07436
 C2013 C 0.26233 0.37234 1.08807
 H2014 H 0.25031 0.35355 1.07314
 O2015 O 0.66364 0.62073 1.03359
 O2016 O 0.70291 0.65924 1.03328
 C2017 C 0.69087 0.63235 1.04492
 C2018 C 0.70846 0.61469 1.07221
 C2019 C 0.73829 0.62762 1.08538
 H2020 H 0.74736 0.65106 1.07578
 O2021 O 0.53518 0.62404 1.16461
 O2022 O 0.53515 0.66317 1.20316
 C2023 C 0.54745 0.63674 1.19087
 C2024 C 0.57630 0.62059 1.20724
 C2025 C 0.59140 0.63493 1.23349
 H2026 H 0.58315 0.65943 1.24066
 O2027 O 0.46714 0.37936 1.16925
 O2028 O 0.46744 0.34043 1.20803
 C2029 C 0.45618 0.36767 1.19658
 C2030 C 0.42993 0.38594 1.21494
 C2031 C 0.41819 0.37473 1.24431
 H2032 H 0.42811 0.35158 1.25357
 O2033 O 0.66568 0.53088 1.11995
 O2034 O 0.70528 0.53119 1.15811
 C2035 C 0.69323 0.54216 1.13094
 C2036 C 0.71046 0.56959 1.11295
 C2037 C 0.74149 0.58153 1.12413
 H2038 H 0.75424 0.56759 1.14329
 O2039 O 0.33664 0.46737 1.12471
 O2040 O 0.29788 0.46718 1.16370
 C2041 C 0.31000 0.45527 1.13698
 C2042 C 0.29327 0.42684 1.12016
 C2043 C 0.26644 0.41189 1.13384
 H2044 H 0.25867 0.42030 1.15811
 O2045 O 0.61876 0.66732 1.03349
 O2046 O 0.65800 0.70587 1.03317
 C2047 C 0.63068 0.69451 1.04456
 C2048 C 0.61263 0.71284 1.07113
 C2049 C 0.62478 0.74337 1.08330
 H2050 H 0.64810 0.75243 1.07338
 O2051 O 0.38139 0.33468 1.03220
 O2052 O 0.34215 0.29615 1.03193
 C2053 C 0.36950 0.30746 1.04333
 C2054 C 0.38670 0.28974 1.07104
 C2055 C 0.37465 0.25897 1.08284
 H2056 H 0.35512 0.24684 1.06883
 O2057 O 0.61926 0.46838 1.16883
 O2058 O 0.65841 0.46925 1.20743
 C2059 C 0.63088 0.45800 1.19641
 C2060 C 0.61271 0.43159 1.21496
 C2061 C 0.62239 0.42189 1.24562
 H2062 H 0.64203 0.43603 1.25717
 O2063 O 0.38115 0.53416 1.16933
 O2064 O 0.34224 0.53388 1.20821
 C2065 C 0.36941 0.54530 1.19655
 C2066 C 0.38755 0.57189 1.21464
 C2067 C 0.37618 0.58363 1.24391
 H2068 H 0.35304 0.57355 1.25315
 O2069 O 0.46490 0.66547 1.12278
 O2070 O 0.46472 0.70418 1.16175
 C2071 C 0.45247 0.69168 1.13538
 C2072 C 0.42343 0.70773 1.11924
 C2073 C 0.40819 0.73392 1.13347
 H2074 H 0.41645 0.74115 1.15795
 O2075 O 0.53264 0.33454 1.12326
 O2076 O 0.53273 0.29571 1.16212
 C2077 C 0.54456 0.30782 1.13537
 C2078 C 0.57291 0.29110 1.11853
 C2079 C 0.58786 0.26446 1.13241
 H2080 H 0.57921 0.25668 1.15659
 O2081 O 0.66490 0.38059 1.03202
 O2082 O 0.70424 0.34218 1.03178
 C2083 C 0.69236 0.36923 1.04311
 C2084 C 0.70976 0.38671 1.07061
 C2085 C 0.74107 0.37564 1.08186
 H2086 H 0.75376 0.35685 1.06740
 O2087 O 0.33395 0.61758 1.03203
 O2088 O 0.29427 0.65562 1.03148
 C2089 C 0.30634 0.62869 1.04301
 C2090 C 0.28903 0.61118 1.07075
 C2091 C 0.25801 0.62261 1.08240
 H2092 H 0.24533 0.64148 1.06802
 Cu2093 Cu 0.49948 0.36110 1.14169
 Cu2094 Cu 0.49980 0.31445 1.18828
 Cu2095 Cu 0.50007 0.64092 1.13983
 Cu2096 Cu 0.49994 0.68765 1.18636
 Cu2097 Cu 0.36236 0.36283 1.00049
 Cu2098 Cu 0.31502 0.31684 1.00061
 Cu2099 Cu 0.63737 0.36145 1.00003
 Cu2100 Cu 0.68439 0.31515 1.00016
 Cu2101 Cu 0.36127 0.63748 1.00023
 Cu2102 Cu 0.31383 0.68333 0.99992
 Cu2103 Cu 0.63708 0.63993 1.00108
 Cu2104 Cu 0.68424 0.68612 1.00064
 Cu2105 Cu 0.36284 0.50112 1.14267
 Cu2106 Cu 0.31621 0.50086 1.18942
 Cu2107 Cu 0.63831 0.49942 1.14023
 Cu2108 Cu 0.68560 0.50016 1.18628
 C2109 C 0.58475 0.41417 1.19851
 H2110 H 0.57683 0.42241 1.17405
 C2111 C 0.60702 0.39219 1.26272
 C2112 C 0.41743 0.58713 1.19940
 H2113 H 0.42517 0.57884 1.17491
 C2114 C 0.39382 0.61095 1.26234
 C2115 C 0.30478 0.58486 1.08753
 H2116 H 0.32856 0.57573 1.07852
 C2117 C 0.24389 0.61039 1.11231
 C2118 C 0.69395 0.41290 1.08738
 H2119 H 0.67003 0.42188 1.07856
 C2120 C 0.75545 0.38827 1.11142
 C2121 C 0.58690 0.30545 1.08763
 H2122 H 0.57612 0.32813 1.07771
 C2123 C 0.61660 0.24710 1.11590
 C2124 C 0.40975 0.69375 1.08813
 H2125 H 0.42084 0.67135 1.07796
 C2126 C 0.37986 0.75171 1.11679
 C2127 C 0.41495 0.41587 1.19975
 H2128 H 0.42309 0.42347 1.17515
 C2129 C 0.39115 0.39276 1.26287
 C2130 C 0.58980 0.58918 1.19370
 H2131 H 0.57891 0.57890 1.17124
 C2132 C 0.61952 0.61822 1.25155
 C2133 C 0.41366 0.30486 1.08749
 H2134 H 0.42325 0.32840 1.07838
 C2135 C 0.38735 0.24429 1.11229
 C2136 C 0.58400 0.69889 1.08553
 H2137 H 0.57546 0.67464 1.07732
 C2138 C 0.60786 0.76111 1.10866
 C2139 C 0.30754 0.41312 1.08910
 H2140 H 0.33036 0.42379 1.07929
 C2141 C 0.24874 0.38354 1.11685
 C2142 C 0.69460 0.58584 1.08636
 H2143 H 0.67083 0.57664 1.07737
 C2144 C 0.75550 0.61123 1.11129
   
