data_POSCAR
  _audit_creation_date              2014-09-24
  _audit_creation_method            'ToBaCCo'
  _symmetry_space_group_name_H-M    'P1'
  _symmetry_Int_Tables_number       1
  _symmetry_cell_setting            triclinic
  loop_
  _symmetry_equiv_pos_as_xyz
 x,y,z
_cell_length_a 93.1398
_cell_length_b 93.1311
_cell_length_c 93.2198
_cell_angle_alpha 90.009900
_cell_angle_beta 90.009200
_cell_angle_gamma 90.010600
loop_
  _atom_site_label
  _atom_site_type_symbol
  _atom_site_fract_x
  _atom_site_fract_y
  _atom_site_fract_z
C1 C 0.35576 0.33787 0.33812
 N2 N 0.34973 0.33199 0.35002
 C3 C 0.33784 0.33789 0.35605
 N4 N 0.33196 0.34981 0.35003
 C5 C 0.33785 0.35584 0.33813
 N6 N 0.34974 0.34979 0.33224
 C7 C 0.35596 0.83787 -0.16239
 N8 N 0.34986 0.84976 -0.16827
 C9 C 0.33793 0.85581 -0.16240
 N10 N 0.33211 0.84978 -0.15046
 C11 C 0.33804 0.83790 -0.14441
 N12 N 0.34995 0.83203 -0.15045
 C13 C 0.85561 0.33813 -0.16230
 N14 N 0.84959 0.33226 -0.15039
 C15 C 0.83769 0.33816 -0.14436
 N16 N 0.83180 0.35006 -0.15041
 C17 C 0.83765 0.35610 -0.16234
 N18 N 0.84957 0.35002 -0.16819
 C19 C 0.85608 0.83759 0.33784
 N20 N 0.85001 0.84950 0.33197
 C21 C 0.83812 0.85556 0.33787
 N22 N 0.83226 0.84956 0.34979
 C23 C 0.83816 0.83767 0.35583
 N24 N 0.85005 0.83176 0.34978
 C25 C 0.64423 0.66212 0.33802
 N26 N 0.65026 0.66798 0.34994
 C27 C 0.66216 0.66207 0.35597
 N28 N 0.66803 0.65016 0.34992
 C29 C 0.66215 0.64416 0.33801
 N30 N 0.65026 0.65022 0.33212
 C31 C 0.64407 0.16220 -0.16252
 N32 N 0.65017 0.15031 -0.16839
 C33 C 0.66210 0.14426 -0.16252
 N34 N 0.66792 0.15031 -0.15058
 C35 C 0.66199 0.16218 -0.14453
 N36 N 0.65009 0.16805 -0.15058
 C37 C 0.14449 0.66188 -0.16222
 N38 N 0.15052 0.66775 -0.15032
 C39 C 0.16242 0.66186 -0.14429
 N40 N 0.16831 0.64996 -0.15034
 C41 C 0.16245 0.64391 -0.16226
 N42 N 0.15053 0.64998 -0.16812
 C43 C 0.14413 0.16219 0.33755
 N44 N 0.15022 0.15029 0.33167
 C45 C 0.16212 0.14422 0.33755
 N46 N 0.16794 0.15024 0.34951
 C47 C 0.16202 0.16211 0.35556
 N48 N 0.15014 0.16802 0.34951
 C49 C 0.64420 0.33782 0.66192
 N50 N 0.65023 0.34973 0.66782
 C51 C 0.66213 0.35577 0.66193
 N52 N 0.66802 0.34975 0.65003
 C53 C 0.66213 0.33785 0.64399
 N54 N 0.65023 0.33194 0.65002
 C55 C 0.64408 0.83790 1.16237
 N56 N 0.65017 0.84981 1.16823
 C57 C 0.66209 0.85587 1.16236
 N58 N 0.66792 0.84982 1.15043
 C59 C 0.66200 0.83793 1.14440
 N60 N 0.65011 0.83204 1.15044
 C61 C 0.14402 0.33760 1.16227
 N62 N 0.15006 0.34954 1.16812
 C63 C 0.16194 0.35561 1.16221
 N64 N 0.16782 0.34960 1.15031
 C65 C 0.16195 0.33768 1.14429
 N66 N 0.15007 0.33176 1.15034
 C67 C 0.14412 0.83777 0.66241
 N68 N 0.15021 0.84967 0.66829
 C69 C 0.16213 0.85574 0.66242
 N70 N 0.16795 0.84972 0.65047
 C71 C 0.16203 0.83784 0.64442
 N72 N 0.15014 0.83194 0.65046
 C73 C 0.35579 0.66214 0.66207
 N74 N 0.34976 0.65023 0.66795
 C75 C 0.33786 0.64418 0.66206
 N76 N 0.33197 0.65020 0.65016
 C77 C 0.33786 0.66211 0.64413
 N78 N 0.34976 0.66802 0.65016
 C79 C 0.35584 0.16219 1.16243
 N80 N 0.34975 0.15029 1.16831
 C81 C 0.33783 0.14422 1.16244
 N82 N 0.33200 0.15025 1.15050
 C83 C 0.33792 0.16212 1.14445
 N84 N 0.34981 0.16802 1.15048
 C85 C 0.85559 0.66183 1.16221
 N86 N 0.84957 0.66771 1.15031
 C87 C 0.83766 0.66182 1.14428
 N88 N 0.83176 0.64992 1.15033
 C89 C 0.83762 0.64387 1.16225
 N90 N 0.84955 0.64994 1.16810
 C91 C 0.85583 0.16216 0.66228
 N92 N 0.84973 0.15027 0.66817
 C93 C 0.83781 0.14420 0.66230
 N94 N 0.83199 0.15022 0.65035
 C95 C 0.83792 0.16209 0.64430
 N96 N 0.84981 0.16799 0.65034
 C97 C 0.33785 0.35567 0.66225
 N98 N 0.34975 0.34964 0.66814
 C99 C 0.35579 0.33774 0.66225
 N100 N 0.34975 0.33185 0.65035
 C101 C 0.33785 0.33773 0.64432
 N102 N 0.33196 0.34964 0.65035
 C103 C 0.33805 0.85637 0.16195
 N104 N 0.34996 0.85035 0.16783
 C105 C 0.35600 0.83845 0.16194
 N106 N 0.34996 0.83256 0.15004
 C107 C 0.33805 0.83844 0.14402
 N108 N 0.33215 0.85034 0.15006
 C109 C 0.83824 0.35578 0.16189
 N110 N 0.85014 0.34974 0.16778
 C111 C 0.85616 0.33782 0.16189
 N112 N 0.85012 0.33194 0.14999
 C113 C 0.83822 0.33783 0.14396
 N114 N 0.83234 0.34975 0.14999
 C115 C 0.83813 0.85631 0.66216
 N116 N 0.85004 0.85029 0.66804
 C117 C 0.85608 0.83838 0.66217
 N118 N 0.85004 0.83248 0.65027
 C119 C 0.83813 0.83836 0.64425
 N120 N 0.83224 0.85026 0.65027
 C121 C 0.66206 0.64427 0.66232
 N122 N 0.65016 0.65030 0.66821
 C123 C 0.64412 0.66221 0.66233
 N124 N 0.65014 0.66810 0.65043
 C125 C 0.66204 0.66220 0.64439
 N126 N 0.66793 0.65030 0.65041
 C127 C 0.66189 0.14384 0.16177
 N128 N 0.66778 0.14987 0.14988
 C129 C 0.66190 0.16178 0.14385
 N130 N 0.64999 0.16767 0.14987
 C131 C 0.64395 0.16177 0.16176
 N132 N 0.64998 0.14987 0.16764
 C133 C 0.16194 0.64423 0.16192
 N134 N 0.15003 0.65028 0.16781
 C135 C 0.14401 0.66219 0.16193
 N136 N 0.15005 0.66807 0.15003
 C137 C 0.16195 0.66218 0.14400
 N138 N 0.16783 0.65027 0.15003
 C139 C 0.16185 0.14357 0.66206
 N140 N 0.14993 0.14960 0.66794
 C141 C 0.14389 0.16150 0.66205
 N142 N 0.14993 0.16738 0.65015
 C143 C 0.16184 0.16150 0.64413
 N144 N 0.16773 0.14960 0.65016
 C145 C 0.33802 0.64440 0.33786
 N146 N 0.33214 0.65043 0.34976
 C147 C 0.33802 0.66234 0.35579
 N148 N 0.34992 0.66823 0.34976
 C149 C 0.35595 0.66235 0.33785
 N150 N 0.34992 0.65044 0.33197
 C151 C 0.33800 0.14367 0.83809
 N152 N 0.33210 0.14971 0.84998
 C153 C 0.33799 0.16162 0.85601
 N154 N 0.34991 0.16751 0.84999
 C155 C 0.35594 0.16161 0.83810
 N156 N 0.34991 0.14971 0.83221
 C157 C 0.83819 0.64424 0.83810
 N158 N 0.83231 0.65028 0.84999
 C159 C 0.83819 0.66220 0.85601
 N160 N 0.85008 0.66809 0.84997
 C161 C 0.85612 0.66220 0.83808
 N162 N 0.85009 0.65028 0.83221
 C163 C 0.83815 0.14383 0.33779
 N164 N 0.85007 0.14986 0.33191
 C165 C 0.85611 0.16176 0.33781
 N166 N 0.85008 0.16764 0.34971
 C167 C 0.83817 0.16176 0.35573
 N168 N 0.83227 0.14986 0.34969
 C169 C 0.66211 0.35571 0.33774
 N170 N 0.66799 0.34967 0.34964
 C171 C 0.66209 0.33777 0.35566
 N172 N 0.65019 0.33188 0.34963
 C173 C 0.64416 0.33777 0.33773
 N174 N 0.65020 0.34967 0.33185
 C175 C 0.66208 0.85638 0.83814
 N176 N 0.66798 0.85035 0.85003
 C177 C 0.66209 0.83844 0.85606
 N178 N 0.65018 0.83256 0.85004
 C179 C 0.64413 0.83845 0.83816
 N180 N 0.65016 0.85035 0.83227
 C181 C 0.16181 0.35571 0.83806
 N182 N 0.16769 0.34966 0.84995
 C183 C 0.16180 0.33774 0.85596
 N184 N 0.14991 0.33185 0.84991
 C185 C 0.14388 0.33775 0.83801
 N186 N 0.14992 0.34967 0.83215
 C187 C 0.16194 0.85631 0.33796
 N188 N 0.16784 0.85028 0.34986
 C189 C 0.16195 0.83837 0.35589
 N190 N 0.15004 0.83248 0.34987
 C191 C 0.14400 0.83836 0.33797
 N192 N 0.15003 0.85026 0.33208
 O193 O 0.23173 0.98657 0.25147
 O194 O 0.25150 1.01456 0.23177
 O195 O 0.25149 0.98658 0.23176
 O196 O 0.23172 1.01455 0.25147
 O197 O 0.24845 1.01456 0.26822
 O198 O 0.26822 0.98657 0.24850
 O199 O 0.26822 1.01456 0.24852
 O200 O 0.24846 0.98657 0.26822
 Cu201 Cu 0.23993 1.00056 0.23994
 Cu202 Cu 0.26001 1.00057 0.26004
 C203 C 0.23673 0.98174 0.26320
 C204 C 0.26323 1.01939 0.23679
 C205 C 0.26322 0.98175 0.23677
 C206 C 0.23672 1.01938 0.26320
 O207 O 0.24839 0.51401 0.76840
 O208 O 0.26810 0.48600 0.74868
 O209 O 0.26811 0.51398 0.74865
 O210 O 0.24837 0.48602 0.76842
 O211 O 0.23161 0.48602 0.75170
 O212 O 0.25136 0.51397 0.73193
 O213 O 0.25134 0.48599 0.73196
 O214 O 0.23163 0.51400 0.75168
 Cu215 Cu 0.25992 0.50000 0.76021
 Cu216 Cu 0.23980 0.49999 0.74014
 C217 C 0.23666 0.51884 0.76340
 C218 C 0.26308 0.48116 0.73696
 C219 C 0.26310 0.51880 0.73693
 C220 C 0.23662 0.48119 0.76342
 O221 O 0.75146 -0.01433 0.26803
 O222 O 0.73170 0.01364 0.24830
 O223 O 0.73169 -0.01435 0.24832
 O224 O 0.75146 0.01365 0.26801
 O225 O 0.76819 0.01364 0.25127
 O226 O 0.74841 -0.01437 0.23158
 O227 O 0.74842 0.01362 0.23155
 O228 O 0.76819 -0.01435 0.25129
 Cu229 Cu 0.73990 -0.00034 0.25984
 Cu230 Cu 0.75998 -0.00037 0.23974
 C231 C 0.76319 -0.01916 0.26302
 C232 C 0.73670 0.01845 0.23656
 C233 C 0.73668 -0.01919 0.23660
 C234 C 0.76319 0.01847 0.26299
 O235 O 0.74864 0.48598 0.73188
 O236 O 0.76839 0.51394 0.75165
 O237 O 0.76837 0.48596 0.75163
 O238 O 0.74864 0.51397 0.73192
 O239 O 0.73189 0.51395 0.74865
 O240 O 0.75163 0.48594 0.76835
 O241 O 0.75164 0.51393 0.76838
 O242 O 0.73189 0.48596 0.74861
 Cu243 Cu 0.76019 0.49996 0.74010
 Cu244 Cu 0.74008 0.49994 0.76017
 C245 C 0.73690 0.48115 0.73688
 C246 C 0.76338 0.51876 0.76338
 C247 C 0.76336 0.48112 0.76334
 C248 C 0.73690 0.51879 0.73693
 O249 O 0.26816 0.51404 0.25151
 O250 O 0.24840 0.48602 0.23182
 O251 O 0.24841 0.51401 0.23178
 O252 O 0.26815 0.48605 0.25156
 O253 O 0.25140 0.48609 0.26828
 O254 O 0.23167 0.51404 0.24851
 O255 O 0.23166 0.48606 0.24855
 O256 O 0.25142 0.51407 0.26824
 Cu257 Cu 0.25996 0.50003 0.23999
 Cu258 Cu 0.23986 0.50007 0.26007
 C259 C 0.26316 0.51889 0.26323
 C260 C 0.23666 0.48121 0.23683
 C261 C 0.23668 0.51885 0.23677
 C262 C 0.26313 0.48125 0.26329
 O263 O 0.73180 0.98659 0.75153
 O264 O 0.75154 1.01457 0.73178
 O265 O 0.75155 0.98659 0.73180
 O266 O 0.73178 1.01458 0.75149
 O267 O 0.74852 1.01462 0.76823
 O268 O 0.76829 0.98662 0.74854
 O269 O 0.76827 1.01461 0.74851
 O270 O 0.74854 0.98663 0.76827
 Cu271 Cu 0.73999 1.00058 0.73997
 Cu272 Cu 0.76008 1.00062 0.76006
 C273 C 0.73681 0.98179 0.76326
 C274 C 0.76327 1.01942 0.73678
 C275 C 0.76329 0.98178 0.73682
 C276 C 0.73678 1.01943 0.76321
 O277 O 0.76841 0.48604 0.24833
 O278 O 0.74865 0.51399 0.26808
 O279 O 0.74867 0.48601 0.26806
 O280 O 0.76838 0.51402 0.24834
 O281 O 0.75163 0.51401 0.23161
 O282 O 0.73192 0.48600 0.25133
 O283 O 0.73190 0.51398 0.25136
 O284 O 0.75166 0.48602 0.23161
 Cu285 Cu 0.76020 0.50002 0.25988
 Cu286 Cu 0.74010 0.50000 0.23980
 C287 C 0.76340 0.48121 0.23661
 C288 C 0.73691 0.51881 0.26308
 C289 C 0.73693 0.48117 0.26305
 C290 C 0.76336 0.51885 0.23662
 O291 O 0.25150 -0.01460 0.76828
 O292 O 0.23172 0.01338 0.74858
 O293 O 0.23173 -0.01460 0.74857
 O294 O 0.25148 0.01339 0.76830
 O295 O 0.26821 0.01340 0.75156
 O296 O 0.24845 -0.01459 0.73183
 O297 O 0.24845 0.01339 0.73183
 O298 O 0.26823 -0.01458 0.75154
 Cu299 Cu 0.23993 -0.00061 0.76011
 Cu300 Cu 0.26001 -0.00059 0.74001
 C301 C 0.26323 -0.01941 0.76327
 C302 C 0.23672 0.01821 0.73685
 C303 C 0.23673 -0.01943 0.73684
 C304 C 0.26321 0.01822 0.76329
 O305 O 0.24840 0.26799 0.98607
 O306 O 0.26819 0.24830 1.01403
 O307 O 0.26816 0.24826 0.98608
 O308 O 0.24841 0.26802 1.01403
 O309 O 0.23169 0.25125 1.01405
 O310 O 0.25144 0.23150 0.98610
 O311 O 0.25146 0.23153 1.01406
 O312 O 0.23167 0.25122 0.98609
 Cu313 Cu 0.25997 0.25982 1.00005
 Cu314 Cu 0.23989 0.23969 1.00008
 C315 C 0.23667 0.26296 0.98126
 C316 C 0.26319 0.23656 1.01887
 C317 C 0.26317 0.23651 0.98127
 C318 C 0.23669 0.26299 1.01886
 O319 O 0.24843 0.76848 0.48604
 O320 O 0.26816 0.74869 0.51397
 O321 O 0.26818 0.74874 0.48602
 O322 O 0.24840 0.76843 0.51399
 O323 O 0.23166 0.75168 0.51394
 O324 O 0.25144 0.73199 0.48597
 O325 O 0.25141 0.73194 0.51392
 O326 O 0.23169 0.75173 0.48598
 Cu327 Cu 0.25997 0.76026 0.50001
 Cu328 Cu 0.23988 0.74015 0.49995
 C329 C 0.23670 0.76348 0.48119
 C330 C 0.26314 0.73694 0.51877
 C331 C 0.26318 0.73701 0.48117
 C332 C 0.23667 0.76340 0.51879
 O333 O 0.26845 0.75158 -0.01402
 O334 O 0.24867 0.73187 0.01394
 O335 O 0.24873 0.73181 -0.01402
 O336 O 0.26840 0.75165 0.01394
 O337 O 0.25164 0.76837 0.01387
 O338 O 0.23197 0.74853 -0.01409
 O339 O 0.23191 0.74860 0.01387
 O340 O 0.25169 0.76831 -0.01409
 Cu341 Cu 0.26024 0.74005 -0.00003
 Cu342 Cu 0.24012 0.76013 -0.00012
 C343 C 0.26344 0.76330 -0.01888
 C344 C 0.23692 0.73688 0.01873
 C345 C 0.23700 0.73679 -0.01888
 C346 C 0.26337 0.76339 0.01873
 O347 O 0.24832 0.23148 0.51405
 O348 O 0.26806 0.25128 0.48613
 O349 O 0.26806 0.25124 0.51409
 O350 O 0.24831 0.23153 0.48609
 O351 O 0.23156 0.24827 0.48613
 O352 O 0.25131 0.26798 0.51412
 O353 O 0.25131 0.26802 0.48616
 O354 O 0.23157 0.24822 0.51409
 Cu355 Cu 0.25986 0.23971 0.50009
 Cu356 Cu 0.23976 0.25980 0.50013
 C357 C 0.23659 0.23648 0.51889
 C358 C 0.26304 0.26303 0.48133
 C359 C 0.26305 0.26297 0.51893
 C360 C 0.23657 0.23655 0.48128
 O361 O 0.74851 0.76838 0.98617
 O362 O 0.76816 0.74854 1.01413
 O363 O 0.76824 0.74861 0.98617
 O364 O 0.74845 0.76831 1.01413
 O365 O 0.73168 0.75158 1.01404
 O366 O 0.75147 0.73189 0.98608
 O367 O 0.75140 0.73181 1.01404
 O368 O 0.73175 0.75165 0.98609
 Cu369 Cu 0.76002 0.76014 1.00016
 Cu370 Cu 0.73989 0.74006 1.00005
 C371 C 0.73678 0.76340 0.98131
 C372 C 0.76313 0.73679 1.01891
 C373 C 0.76322 0.73690 0.98130
 C374 C 0.73669 0.76330 1.01891
 O375 O 0.75164 0.23157 0.48588
 O376 O 0.73189 0.25133 0.51382
 O377 O 0.73189 0.25131 0.48586
 O378 O 0.75164 0.23159 0.51383
 O379 O 0.76838 0.24834 0.51383
 O380 O 0.74863 0.26806 0.48585
 O381 O 0.74863 0.26808 0.51381
 O382 O 0.76839 0.24832 0.48587
 Cu383 Cu 0.74009 0.23977 0.49985
 Cu384 Cu 0.76019 0.25988 0.49984
 C385 C 0.76338 0.23658 0.48105
 C386 C 0.73690 0.26307 0.51864
 C387 C 0.73690 0.26304 0.48103
 C388 C 0.76337 0.23661 0.51866
 O389 O 0.73163 0.24854 -0.01413
 O390 O 0.75143 0.26823 0.01385
 O391 O 0.75138 0.26830 -0.01411
 O392 O 0.73168 0.24849 0.01383
 O393 O 0.74842 0.23174 0.01377
 O394 O 0.76812 0.25155 -0.01418
 O395 O 0.76817 0.25148 0.01378
 O396 O 0.74837 0.23179 -0.01419
 Cu397 Cu 0.73985 0.26007 -0.00013
 Cu398 Cu 0.75995 0.23997 -0.00021
 C399 C 0.73663 0.23681 -0.01899
 C400 C 0.76318 0.26321 0.01864
 C401 C 0.76310 0.26330 -0.01897
 C402 C 0.73669 0.23674 0.01862
 O403 O 0.73191 0.74853 0.48620
 O404 O 0.75164 0.76833 0.51414
 O405 O 0.75168 0.76826 0.48619
 O406 O 0.73188 0.74858 0.51416
 O407 O 0.74861 0.73183 0.51421
 O408 O 0.76841 0.75151 0.48624
 O409 O 0.76837 0.75157 0.51420
 O410 O 0.74864 0.73178 0.48625
 Cu411 Cu 0.74010 0.76011 0.50017
 Cu412 Cu 0.76018 0.73999 0.50023
 C413 C 0.73691 0.73679 0.48140
 C414 C 0.76337 0.76332 0.51899
 C415 C 0.76341 0.76324 0.48139
 C416 C 0.73688 0.73686 0.51901
 O417 O 1.01438 0.26804 0.24839
 O418 O 0.98640 0.24829 0.26812
 O419 O 1.01439 0.24830 0.26813
 O420 O 0.98640 0.26803 0.24839
 O421 O 0.98640 0.25128 0.23166
 O422 O 1.01439 0.23155 0.25140
 O423 O 0.98641 0.23154 0.25140
 O424 O 1.01438 0.25129 0.23167
 Cu425 Cu 1.00039 0.25984 0.25993
 Cu426 Cu 1.00040 0.23974 0.23986
 C427 C 1.01921 0.26303 0.23667
 C428 C 0.98158 0.23655 0.26312
 C429 C 1.01922 0.23657 0.26313
 C430 C 0.98157 0.26301 0.23667
 O431 O 0.51411 0.26792 0.74853
 O432 O 0.48617 0.24817 0.76831
 O433 O 0.51415 0.24817 0.76826
 O434 O 0.48613 0.26792 0.74859
 O435 O 0.48610 0.25118 0.73185
 O436 O 0.51412 0.23143 0.75153
 O437 O 0.48614 0.23142 0.75158
 O438 O 0.51408 0.25118 0.73180
 Cu439 Cu 0.50014 0.25972 0.76010
 Cu440 Cu 0.50010 0.23962 0.74001
 C441 C 0.51891 0.26292 0.73680
 C442 C 0.48133 0.23643 0.76331
 C443 C 0.51897 0.23644 0.76324
 C444 C 0.48128 0.26291 0.73687
 O445 O -0.01434 0.23151 0.74836
 O446 O 0.01367 0.25123 0.76809
 O447 O -0.01431 0.25129 0.76806
 O448 O 0.01364 0.23146 0.74838
 O449 O 0.01369 0.24818 0.73163
 O450 O -0.01427 0.26801 0.75131
 O451 O 0.01371 0.26796 0.75134
 O452 O -0.01429 0.24823 0.73161
 Cu453 Cu -0.00034 0.23970 0.75990
 Cu454 Cu -0.00029 0.25977 0.73979
 C455 C -0.01915 0.23651 0.73662
 C456 C 0.01852 0.26295 0.76307
 C457 C -0.01911 0.26303 0.76303
 C458 C 0.01849 0.23644 0.73665
 O459 O 0.51373 0.24827 0.23161
 O460 O 0.48580 0.26801 0.25141
 O461 O 0.51378 0.26800 0.25135
 O462 O 0.48575 0.24827 0.23166
 O463 O 0.48577 0.23152 0.24838
 O464 O 0.51380 0.25125 0.26807
 O465 O 0.48582 0.25125 0.26812
 O466 O 0.51376 0.23151 0.24832
 Cu467 Cu 0.49976 0.25982 0.23983
 Cu468 Cu 0.49979 0.23970 0.25990
 C469 C 0.51856 0.23653 0.23660
 C470 C 0.48099 0.26299 0.26314
 C471 C 0.51863 0.26299 0.26307
 C472 C 0.48092 0.23653 0.23667
 O473 O 0.98631 0.75175 0.73177
 O474 O 1.01427 0.73193 0.75145
 O475 O 0.98629 0.73198 0.75148
 O476 O 1.01429 0.75170 0.73174
 O477 O 1.01434 0.76843 0.74849
 O478 O 0.98635 0.74871 0.76823
 O479 O 1.01433 0.74866 0.76820
 O480 O 0.98636 0.76848 0.74852
 Cu481 Cu 1.00029 0.74016 0.73993
 Cu482 Cu 1.00035 0.76024 0.76004
 C483 C 0.98151 0.76349 0.73680
 C484 C 1.01913 0.73692 0.76317
 C485 C 0.98149 0.73699 0.76322
 C486 C 1.01915 0.76342 0.73676
 O487 O 0.48624 0.75191 0.23168
 O488 O 0.51419 0.73214 0.25143
 O489 O 0.48621 0.73216 0.25141
 O490 O 0.51422 0.75189 0.23170
 O491 O 0.51423 0.76864 0.24843
 O492 O 0.48621 0.74891 0.26814
 O493 O 0.51419 0.74889 0.26816
 O494 O 0.48625 0.76866 0.24841
 Cu495 Cu 0.50022 0.74035 0.23988
 Cu496 Cu 0.50022 0.76045 0.25996
 C497 C 0.48142 0.76365 0.23668
 C498 C 0.51901 0.73715 0.26316
 C499 C 0.48138 0.73718 0.26313
 C500 C 0.51906 0.76362 0.23671
 O501 O 0.01382 0.75161 0.26830
 O502 O -0.01415 0.73180 0.24860
 O503 O 0.01383 0.73187 0.24856
 O504 O -0.01416 0.75154 0.26834
 O505 O -0.01422 0.76830 0.25162
 O506 O 0.01377 0.74862 0.23184
 O507 O -0.01421 0.74855 0.23188
 O508 O 0.01376 0.76836 0.25158
 Cu509 Cu -0.00016 0.74003 0.26013
 Cu510 Cu -0.00023 0.76014 0.24006
 C511 C 0.01861 0.76336 0.26330
 C512 C -0.01901 0.73681 0.23689
 C513 C 0.01863 0.73689 0.23683
 C514 C -0.01902 0.76327 0.26335
 O515 O 0.48588 0.76859 0.75166
 O516 O 0.51389 0.74884 0.73199
 O517 O 0.48591 0.74883 0.73194
 O518 O 0.51386 0.76860 0.75170
 O519 O 0.51384 0.75187 0.76844
 O520 O 0.48589 0.73210 0.74868
 O521 O 0.51387 0.73211 0.74873
 O522 O 0.48586 0.75186 0.76840
 Cu523 Cu 0.49989 0.76039 0.74015
 Cu524 Cu 0.49986 0.74031 0.76024
 C525 C 0.48104 0.76359 0.76338
 C526 C 0.51871 0.73711 0.73701
 C527 C 0.48108 0.73710 0.73695
 C528 C 0.51868 0.76361 0.76344
 C529 C 0.38664 0.33065 0.31254
 C530 C 0.39258 0.31818 0.31844
 C531 C 0.38663 0.31226 0.33089
 C532 C 0.37473 0.31872 0.33737
 C533 C 0.36860 0.33120 0.33145
 C534 C 0.37474 0.33713 0.31899
 C535 C 0.40460 0.31131 0.31158
 C536 C 0.41457 0.30549 0.30575
 C537 C 0.42614 0.29857 0.29882
 C538 C 0.43592 0.29259 0.29283
 C539 C 0.44748 0.28535 0.28557
 C540 C 0.45304 0.27256 0.29113
 C541 C 0.46403 0.26533 0.28391
 C542 C 0.46959 0.27082 0.27098
 C543 C 0.46400 0.28375 0.26553
 C544 C 0.45301 0.29095 0.27278
 H545 H 0.39115 0.33531 0.30289
 H546 H 0.39114 0.30260 0.33554
 H547 H 0.37030 0.31386 0.34694
 H548 H 0.37032 0.34672 0.31414
 H549 H 0.44882 0.26812 0.30102
 H550 H 0.46809 0.25541 0.28839
 H551 H 0.46804 0.28826 0.25562
 H552 H 0.44877 0.30085 0.26837
 C553 C 0.38639 0.81273 0.83077
 C554 C 0.39231 0.81864 0.81832
 C555 C 0.38630 0.83104 0.81237
 C556 C 0.37436 0.83748 0.81879
 C557 C 0.36818 0.83158 0.83129
 C558 C 0.37445 0.81912 0.83723
 C559 C 0.40438 0.81182 0.81149
 C560 C 0.41439 0.80603 0.80569
 C561 C 0.42599 0.79914 0.79881
 C562 C 0.43581 0.79317 0.79286
 C563 C 0.44741 0.78595 0.78566
 C564 C 0.45299 0.79154 0.77288
 C565 C 0.46401 0.78434 0.76569
 C566 C 0.46960 0.77142 0.77118
 C567 C 0.46400 0.76595 0.78409
 C568 C 0.45297 0.77317 0.79126
 H569 H 0.39096 0.80311 0.83546
 H570 H 0.39080 0.83570 0.80272
 H571 H 0.36996 0.84704 0.81384
 H572 H 0.37012 0.81420 0.84683
 H573 H 0.44875 0.80141 0.76844
 H574 H 0.46808 0.78884 0.75578
 H575 H 0.46806 0.75603 0.78860
 H576 H 0.44872 0.76874 0.80114
 C577 C -0.11352 0.33088 0.81212
 C578 C -0.10756 0.31843 0.81806
 C579 C -0.11350 0.31253 0.83052
 C580 C -0.12540 0.31899 0.83699
 C581 C -0.13155 0.33146 0.83105
 C582 C -0.12542 0.33736 0.81856
 C583 C -0.09554 0.31156 0.81121
 C584 C -0.08556 0.30572 0.80540
 C585 C -0.07399 0.29878 0.79851
 C586 C -0.06421 0.29277 0.79254
 C587 C -0.05264 0.28550 0.78533
 C588 C -0.04712 0.27270 0.79094
 C589 C -0.03613 0.26544 0.78375
 C590 C -0.03052 0.27089 0.77083
 C591 C -0.03607 0.28382 0.76534
 C592 C -0.04707 0.29106 0.77255
 H593 H -0.10901 0.33552 0.80246
 H594 H -0.10898 0.30289 0.83520
 H595 H -0.12982 0.31415 0.84658
 H596 H -0.12986 0.34694 0.81370
 H597 H -0.05137 0.26829 0.80082
 H598 H -0.03209 0.25552 0.78827
 H599 H -0.03200 0.28830 0.75543
 H600 H -0.05128 0.30095 0.76810
 C601 C -0.11357 0.81235 0.33098
 C602 C -0.10764 0.81826 0.31853
 C603 C -0.11361 0.83068 0.31260
 C604 C -0.12553 0.83715 0.31901
 C605 C -0.13172 0.83126 0.33152
 C606 C -0.12549 0.81878 0.33745
 C607 C -0.09559 0.81141 0.31169
 C608 C -0.08559 0.80561 0.30588
 C609 C -0.07400 0.79872 0.29897
 C610 C -0.06420 0.79276 0.29299
 C611 C -0.05262 0.78555 0.28575
 C612 C -0.04709 0.79116 0.27297
 C613 C -0.03607 0.78398 0.26573
 C614 C -0.03045 0.77107 0.27119
 C615 C -0.03601 0.76557 0.28410
 C616 C -0.04702 0.77277 0.29132
 H617 H -0.10903 0.80272 0.33566
 H618 H -0.10910 0.83533 0.30294
 H619 H -0.12990 0.84672 0.31407
 H620 H -0.12983 0.81387 0.34704
 H621 H -0.05135 0.80104 0.26854
 H622 H -0.03203 0.78850 0.25581
 H623 H -0.03192 0.75566 0.28859
 H624 H -0.05124 0.76832 0.30120
 C625 C 0.61337 0.68776 0.33083
 C626 C 0.60743 0.68186 0.31837
 C627 C 0.61336 0.66940 0.31244
 C628 C 0.62526 0.66291 0.31888
 C629 C 0.63141 0.66881 0.33137
 C630 C 0.62527 0.68129 0.33730
 C631 C 0.59541 0.68874 0.31152
 C632 C 0.58544 0.69458 0.30569
 C633 C 0.57388 0.70151 0.29878
 C634 C 0.56410 0.70750 0.29279
 C635 C 0.55254 0.71475 0.28555
 C636 C 0.54699 0.70916 0.27276
 C637 C 0.53600 0.71638 0.26552
 C638 C 0.53042 0.72931 0.27099
 C639 C 0.53600 0.73479 0.28391
 C640 C 0.54699 0.72755 0.29113
 H641 H 0.60887 0.69741 0.33550
 H642 H 0.60885 0.66476 0.30278
 H643 H 0.62968 0.65332 0.31402
 H644 H 0.62970 0.68613 0.34689
 H645 H 0.55121 0.69927 0.26834
 H646 H 0.53194 0.71188 0.25561
 H647 H 0.53195 0.74472 0.28841
 H648 H 0.55122 0.73198 0.30101
 C649 C 0.61372 0.16901 0.81224
 C650 C 0.60772 0.18142 0.81818
 C651 C 0.61363 0.18734 0.83064
 C652 C 0.62558 0.18095 0.83710
 C653 C 0.63185 0.16849 0.83117
 C654 C 0.62567 0.16258 0.81866
 C655 C 0.59565 0.18823 0.81135
 C656 C 0.58564 0.19403 0.80555
 C657 C 0.57403 0.20091 0.79867
 C658 C 0.56421 0.20687 0.79272
 C659 C 0.55260 0.21410 0.78551
 C660 C 0.54705 0.22688 0.79112
 C661 C 0.53602 0.23410 0.78394
 C662 C 0.53041 0.22862 0.77104
 C663 C 0.53599 0.21570 0.76555
 C664 C 0.54702 0.20850 0.77275
 H665 H 0.60922 0.16435 0.80259
 H666 H 0.60907 0.19696 0.83532
 H667 H 0.62991 0.18588 0.84669
 H668 H 0.63007 0.15302 0.81371
 H669 H 0.55131 0.23132 0.80099
 H670 H 0.53196 0.24402 0.78846
 H671 H 0.53192 0.21119 0.75564
 H672 H 0.55126 0.19862 0.76830
 C673 C 1.11359 0.66911 0.81222
 C674 C 1.10764 0.68156 0.81815
 C675 C 1.11358 0.68746 0.83061
 C676 C 1.12550 0.68101 0.83707
 C677 C 1.13165 0.66854 0.83113
 C678 C 1.12550 0.66263 0.81865
 C679 C 1.09561 0.68842 0.81131
 C680 C 1.08562 0.69426 0.80551
 C681 C 1.07405 0.70119 0.79862
 C682 C 1.06425 0.70719 0.79266
 C683 C 1.05268 0.71446 0.78545
 C684 C 1.04716 0.72726 0.79107
 C685 C 1.03616 0.73451 0.78389
 C686 C 1.03054 0.72906 0.77097
 C687 C 1.03609 0.71613 0.76547
 C688 C 1.04710 0.70889 0.77268
 H689 H 1.10908 0.66446 0.80256
 H690 H 1.10907 0.69711 0.83529
 H691 H 1.12992 0.68585 0.84666
 H692 H 1.12994 0.65306 0.81378
 H693 H 1.05142 0.73167 0.80094
 H694 H 1.03212 0.74444 0.78840
 H695 H 1.03201 0.71164 0.75556
 H696 H 1.05131 0.69900 0.76823
 C697 C 1.11375 0.18739 0.33069
 C698 C 1.10784 0.18150 0.31822
 C699 C 1.11383 0.16909 0.31228
 C700 C 1.12575 0.16262 0.31870
 C701 C 1.13193 0.16851 0.33123
 C702 C 1.12567 0.18097 0.33716
 C703 C 1.09579 0.18833 0.31138
 C704 C 1.08579 0.19414 0.30557
 C705 C 1.07420 0.20104 0.29867
 C706 C 1.06440 0.20701 0.29270
 C707 C 1.05281 0.21423 0.28547
 C708 C 1.04725 0.20863 0.27270
 C709 C 1.03624 0.21582 0.26547
 C710 C 1.03064 0.22875 0.27095
 C711 C 1.03623 0.23424 0.28386
 C712 C 1.04725 0.22702 0.29106
 H713 H 1.10919 0.19701 0.33538
 H714 H 1.10934 0.16444 0.30261
 H715 H 1.13015 0.15306 0.31375
 H716 H 1.13000 0.18588 0.34677
 H717 H 1.05149 0.19874 0.26827
 H718 H 1.03218 0.21131 0.25556
 H719 H 1.03217 0.24416 0.28836
 H720 H 1.05148 0.23146 0.30093
 C721 C 0.61331 0.31221 0.66912
 C722 C 0.60736 0.31812 0.68157
 C723 C 0.61331 0.33059 0.68749
 C724 C 0.62522 0.33707 0.68105
 C725 C 0.63136 0.33115 0.66858
 C726 C 0.62522 0.31867 0.66265
 C727 C 0.59534 0.31126 0.68842
 C728 C 0.58536 0.30543 0.69425
 C729 C 0.57379 0.29852 0.70116
 C730 C 0.56400 0.29253 0.70715
 C731 C 0.55244 0.28529 0.71440
 C732 C 0.54691 0.29088 0.72719
 C733 C 0.53592 0.28367 0.73443
 C734 C 0.53031 0.27075 0.72896
 C735 C 0.53588 0.26527 0.71603
 C736 C 0.54687 0.27250 0.70882
 H737 H 0.60880 0.30256 0.66446
 H738 H 0.60880 0.33524 0.69714
 H739 H 0.62965 0.34666 0.68591
 H740 H 0.62964 0.31382 0.65307
 H741 H 0.55115 0.30077 0.73161
 H742 H 0.53188 0.28818 0.74435
 H743 H 0.53181 0.25535 0.71154
 H744 H 0.55109 0.26807 0.69893
 C745 C 0.61368 0.81272 0.16923
 C746 C 0.60776 0.81864 0.18168
 C747 C 0.61375 0.83106 0.18761
 C748 C 0.62568 0.83751 0.18119
 C749 C 0.63187 0.83160 0.16869
 C750 C 0.62561 0.81912 0.16277
 C751 C 0.59569 0.81182 0.18851
 C752 C 0.58569 0.80602 0.19432
 C753 C 0.57409 0.79913 0.20121
 C754 C 0.56427 0.79317 0.20718
 C755 C 0.55268 0.78595 0.21439
 C756 C 0.54712 0.79155 0.22717
 C757 C 0.53609 0.78436 0.23438
 C758 C 0.53049 0.77143 0.22890
 C759 C 0.53608 0.76595 0.21599
 C760 C 0.54711 0.77316 0.20880
 H761 H 0.60912 0.80309 0.16456
 H762 H 0.60924 0.83573 0.19726
 H763 H 0.63007 0.84708 0.18613
 H764 H 0.62995 0.81419 0.15318
 H765 H 0.55136 0.80143 0.23160
 H766 H 0.53203 0.78887 0.24429
 H767 H 0.53202 0.75603 0.21148
 H768 H 0.55135 0.76872 0.19893
 C769 C 1.11370 0.33068 0.18750
 C770 C 1.10776 0.31823 0.18159
 C771 C 1.11371 0.31231 0.16915
 C772 C 1.12562 0.31875 0.16268
 C773 C 1.13183 0.33126 0.16859
 C774 C 1.12562 0.33716 0.18108
 C775 C 1.09572 0.31137 0.18842
 C776 C 1.08573 0.30554 0.19423
 C777 C 1.07415 0.29863 0.20113
 C778 C 1.06435 0.29265 0.20710
 C779 C 1.05278 0.28541 0.21433
 C780 C 1.04722 0.27261 0.20874
 C781 C 1.03622 0.26538 0.21594
 C782 C 1.03062 0.27086 0.22885
 C783 C 1.03621 0.28379 0.23433
 C784 C 1.04722 0.29100 0.22711
 H785 H 1.10918 0.33534 0.19715
 H786 H 1.10919 0.30266 0.16448
 H787 H 1.12998 0.31383 0.15310
 H788 H 1.12997 0.34675 0.18601
 H789 H 1.05146 0.26818 0.19887
 H790 H 1.03216 0.25546 0.21144
 H791 H 1.03215 0.28830 0.24424
 H792 H 1.05145 0.30089 0.23154
 C793 C 1.11372 0.81257 0.66924
 C794 C 1.10781 0.81847 0.68170
 C795 C 1.11380 0.83088 0.68765
 C796 C 1.12573 0.83734 0.68124
 C797 C 1.13191 0.83145 0.66872
 C798 C 1.12565 0.81899 0.66278
 C799 C 1.09575 0.81163 0.68853
 C800 C 1.08575 0.80583 0.69433
 C801 C 1.07415 0.79893 0.70122
 C802 C 1.06434 0.79297 0.70719
 C803 C 1.05275 0.78575 0.71442
 C804 C 1.04721 0.79134 0.72720
 C805 C 1.03620 0.78415 0.73443
 C806 C 1.03057 0.77123 0.72894
 C807 C 1.03614 0.76576 0.71601
 C808 C 1.04716 0.77297 0.70882
 H809 H 1.10916 0.80295 0.66454
 H810 H 1.10930 0.83553 0.69731
 H811 H 1.13013 0.84690 0.68619
 H812 H 1.12999 0.81408 0.65318
 H813 H 1.05148 0.80121 0.73164
 H814 H 1.03215 0.78865 0.74434
 H815 H 1.03206 0.75585 0.71150
 H816 H 1.05138 0.76854 0.69893
 C817 C 0.38667 0.66938 0.68765
 C818 C 0.39262 0.68184 0.68173
 C819 C 0.38667 0.68775 0.66928
 C820 C 0.37477 0.68129 0.66281
 C821 C 0.36862 0.66881 0.66873
 C822 C 0.37477 0.66290 0.68120
 C823 C 0.40464 0.68871 0.68859
 C824 C 0.41462 0.69454 0.69441
 C825 C 0.42619 0.70146 0.70133
 C826 C 0.43598 0.70745 0.70732
 C827 C 0.44754 0.71470 0.71456
 C828 C 0.45310 0.72749 0.70898
 C829 C 0.46410 0.73473 0.71619
 C830 C 0.46967 0.72926 0.72912
 C831 C 0.46408 0.71634 0.73459
 C832 C 0.45308 0.70912 0.72735
 H833 H 0.39118 0.66472 0.69730
 H834 H 0.39118 0.69741 0.66462
 H835 H 0.37034 0.68614 0.65322
 H836 H 0.37034 0.65331 0.68605
 H837 H 0.44888 0.73191 0.69909
 H838 H 0.46816 0.74465 0.71169
 H839 H 0.46812 0.71184 0.74451
 H840 H 0.44884 0.69923 0.73178
 C841 C 0.38625 0.18737 0.16925
 C842 C 0.39218 0.18148 0.18170
 C843 C 0.38619 0.16907 0.18765
 C844 C 0.37425 0.16261 0.18125
 C845 C 0.36806 0.16850 0.16873
 C846 C 0.37431 0.18096 0.16279
 C847 C 0.40425 0.18831 0.18853
 C848 C 0.41426 0.19411 0.19432
 C849 C 0.42586 0.20100 0.20121
 C850 C 0.43568 0.20697 0.20716
 C851 C 0.44728 0.21420 0.21437
 C852 C 0.45287 0.20859 0.22713
 C853 C 0.46390 0.21579 0.23434
 C854 C 0.46949 0.22872 0.22886
 C855 C 0.46387 0.23421 0.21596
 C856 C 0.45284 0.22699 0.20878
 H857 H 0.39081 0.19700 0.16456
 H858 H 0.39069 0.16442 0.19731
 H859 H 0.36986 0.15305 0.18620
 H860 H 0.36997 0.18588 0.15320
 H861 H 0.44863 0.19871 0.23157
 H862 H 0.46798 0.21127 0.24424
 H863 H 0.46792 0.24413 0.21146
 H864 H 0.44858 0.23143 0.19892
 C865 C -0.11350 0.66905 0.18777
 C866 C -0.10754 0.68150 0.18184
 C867 C -0.11348 0.68740 0.16938
 C868 C -0.12540 0.68096 0.16292
 C869 C -0.13156 0.66849 0.16886
 C870 C -0.12542 0.66258 0.18133
 C871 C -0.09550 0.68836 0.18868
 C872 C -0.08551 0.69419 0.19449
 C873 C -0.07393 0.70111 0.20139
 C874 C -0.06414 0.70711 0.20735
 C875 C -0.05256 0.71437 0.21457
 C876 C -0.04704 0.72717 0.20898
 C877 C -0.03604 0.73443 0.21617
 C878 C -0.03042 0.72896 0.22908
 C879 C -0.03597 0.71601 0.23455
 C880 C -0.04698 0.70878 0.22734
 H881 H -0.10899 0.66440 0.19742
 H882 H -0.10896 0.69705 0.16471
 H883 H -0.12982 0.68580 0.15333
 H884 H -0.12986 0.65300 0.18620
 H885 H -0.05130 0.73160 0.19911
 H886 H -0.03201 0.74436 0.21167
 H887 H -0.03189 0.71151 0.24446
 H888 H -0.05119 0.69889 0.23177
 C889 C -0.11384 0.16905 0.68753
 C890 C -0.10784 0.18145 0.68158
 C891 C -0.11376 0.18735 0.66911
 C892 C -0.12569 0.18093 0.66265
 C893 C -0.13196 0.16848 0.66860
 C894 C -0.12578 0.16259 0.68111
 C895 C -0.09578 0.18829 0.68841
 C896 C -0.08578 0.19409 0.69421
 C897 C -0.07417 0.20099 0.70110
 C898 C -0.06436 0.20696 0.70707
 C899 C -0.05277 0.21418 0.71429
 C900 C -0.04718 0.22695 0.70869
 C901 C -0.03616 0.23417 0.71588
 C902 C -0.03058 0.22869 0.72881
 C903 C -0.03620 0.21579 0.73429
 C904 C -0.04722 0.20859 0.72708
 H905 H -0.10934 0.16440 0.69719
 H906 H -0.10920 0.19697 0.66442
 H907 H -0.13003 0.18584 0.65305
 H908 H -0.13017 0.15304 0.68607
 H909 H -0.05141 0.23138 0.69880
 H910 H -0.03207 0.24407 0.71137
 H911 H -0.03215 0.21129 0.74421
 H912 H -0.05148 0.19872 0.73152
 C913 C 0.31230 0.38677 0.33094
 C914 C 0.31822 0.39271 0.31850
 C915 C 0.33067 0.38675 0.31258
 C916 C 0.33713 0.37483 0.31901
 C917 C 0.33120 0.36869 0.33148
 C918 C 0.31873 0.37485 0.33741
 C919 C 0.31138 0.40475 0.31165
 C920 C 0.30556 0.41474 0.30583
 C921 C 0.29867 0.42632 0.29892
 C922 C 0.29270 0.43612 0.29293
 C923 C 0.28547 0.44769 0.28569
 C924 C 0.29107 0.45323 0.27290
 C925 C 0.28387 0.46423 0.26566
 C926 C 0.27095 0.46984 0.27113
 C927 C 0.26547 0.46427 0.28405
 C928 C 0.27269 0.45327 0.29127
 H929 H 0.30265 0.39129 0.33561
 H930 H 0.33533 0.39126 0.30293
 H931 H 0.34671 0.37039 0.31416
 H932 H 0.31387 0.37042 0.34699
 H933 H 0.30095 0.44898 0.26848
 H934 H 0.28838 0.46827 0.25575
 H935 H 0.25555 0.46834 0.28854
 H936 H 0.26825 0.44905 0.30115
 C937 C 0.33097 -0.11388 0.81235
 C938 C 0.31853 -0.10794 0.81829
 C939 C 0.31265 -0.11387 0.83075
 C940 C 0.31910 -0.12578 0.83721
 C941 C 0.33159 -0.13200 0.83128
 C942 C 0.33746 -0.12579 0.81877
 C943 C 0.31167 -0.09590 0.81146
 C944 C 0.30583 -0.08592 0.80565
 C945 C 0.29890 -0.07434 0.79876
 C946 C 0.29290 -0.06455 0.79280
 C947 C 0.28565 -0.05297 0.78558
 C948 C 0.27286 -0.04743 0.79118
 C949 C 0.26561 -0.03643 0.78399
 C950 C 0.27107 -0.03083 0.77108
 C951 C 0.28400 -0.03640 0.76559
 C952 C 0.29122 -0.04741 0.77280
 H953 H 0.33561 -0.10937 0.80270
 H954 H 0.30301 -0.10935 0.83543
 H955 H 0.31419 -0.13013 0.84680
 H956 H 0.34704 -0.13015 0.81383
 H957 H 0.26844 -0.05168 0.80106
 H958 H 0.25569 -0.03238 0.78850
 H959 H 0.28849 -0.03234 0.75568
 H960 H 0.30111 -0.05163 0.76836
 C961 C 0.81245 0.38648 0.83080
 C962 C 0.81838 0.39242 0.81837
 C963 C 0.83080 0.38645 0.81244
 C964 C 0.83726 0.37451 0.81886
 C965 C 0.83134 0.36831 0.83135
 C966 C 0.81886 0.37455 0.83726
 C967 C 0.81155 0.40448 0.81153
 C968 C 0.80575 0.41449 0.80573
 C969 C 0.79887 0.42609 0.79884
 C970 C 0.79291 0.43590 0.79287
 C971 C 0.78569 0.44750 0.78565
 C972 C 0.79129 0.45306 0.77288
 C973 C 0.78410 0.46409 0.76567
 C974 C 0.77118 0.46968 0.77115
 C975 C 0.76569 0.46408 0.78406
 C976 C 0.77290 0.45306 0.79125
 H977 H 0.80282 0.39102 0.83547
 H978 H 0.83547 0.39096 0.80280
 H979 H 0.84683 0.37014 0.81392
 H980 H 0.81393 0.37020 0.84685
 H981 H 0.80117 0.44882 0.76845
 H982 H 0.78861 0.46815 0.75577
 H983 H 0.75577 0.46815 0.78856
 H984 H 0.76846 0.44882 0.80112
 C985 C 0.83088 -0.11359 0.31226
 C986 C 0.81844 -0.10762 0.31819
 C987 C 0.81255 -0.11353 0.33067
 C988 C 0.81900 -0.12543 0.33714
 C989 C 0.83146 -0.13161 0.33120
 C990 C 0.83736 -0.12549 0.31871
 C991 C 0.81158 -0.09559 0.31133
 C992 C 0.80575 -0.08562 0.30551
 C993 C 0.79883 -0.07405 0.29860
 C994 C 0.79284 -0.06427 0.29262
 C995 C 0.78558 -0.05270 0.28538
 C996 C 0.77280 -0.04714 0.29097
 C997 C 0.76556 -0.03615 0.28377
 C998 C 0.77102 -0.03057 0.27084
 C999 C 0.78395 -0.03616 0.26536
 C1000 C 0.79116 -0.04716 0.27259
 H1001 H 0.83552 -0.10911 0.30259
 H1002 H 0.80292 -0.10900 0.33534
 H1003 H 0.81417 -0.12984 0.34675
 H1004 H 0.84693 -0.12995 0.31384
 H1005 H 0.76838 -0.05137 0.30086
 H1006 H 0.75564 -0.03209 0.28827
 H1007 H 0.78844 -0.03211 0.25544
 H1008 H 0.80104 -0.05140 0.26816
 C1009 C 0.31229 0.61326 0.66926
 C1010 C 0.31822 0.60732 0.68171
 C1011 C 0.33067 0.61328 0.68763
 C1012 C 0.33713 0.62520 0.68119
 C1013 C 0.33121 0.63133 0.66871
 C1014 C 0.31873 0.62517 0.66279
 C1015 C 0.31137 0.59528 0.68856
 C1016 C 0.30556 0.58530 0.69439
 C1017 C 0.29866 0.57372 0.70130
 C1018 C 0.29268 0.56392 0.70729
 C1019 C 0.28545 0.55235 0.71453
 C1020 C 0.29106 0.54680 0.72731
 C1021 C 0.28385 0.53580 0.73455
 C1022 C 0.27092 0.53021 0.72909
 C1023 C 0.26543 0.53579 0.71617
 C1024 C 0.27266 0.54679 0.70896
 H1025 H 0.30264 0.60873 0.66460
 H1026 H 0.33533 0.60878 0.69728
 H1027 H 0.34672 0.62964 0.68604
 H1028 H 0.31388 0.62959 0.65321
 H1029 H 0.30094 0.55105 0.73173
 H1030 H 0.28837 0.53175 0.74446
 H1031 H 0.25551 0.53172 0.71168
 H1032 H 0.26821 0.55101 0.69908
 C1033 C 0.33090 1.11392 0.18770
 C1034 C 0.31847 1.10795 0.18177
 C1035 C 0.31258 1.11388 0.16931
 C1036 C 0.31901 1.12579 0.16284
 C1037 C 0.33150 1.13203 0.16877
 C1038 C 0.33738 1.12584 0.18128
 C1039 C 0.31162 1.09591 0.18861
 C1040 C 0.30579 1.08592 0.19441
 C1041 C 0.29887 1.07434 0.20130
 C1042 C 0.29288 1.06454 0.20727
 C1043 C 0.28563 1.05296 0.21448
 C1044 C 0.27284 1.04741 0.20888
 C1045 C 0.26560 1.03640 0.21607
 C1046 C 0.27106 1.03081 0.22898
 C1047 C 0.28399 1.03639 0.23447
 C1048 C 0.29121 1.04740 0.22726
 H1049 H 0.33555 1.10941 0.19736
 H1050 H 0.30294 1.10934 0.16463
 H1051 H 0.31410 1.13013 0.15325
 H1052 H 0.34696 1.13021 0.18622
 H1053 H 0.26842 1.05165 0.19900
 H1054 H 0.25568 1.03235 0.21155
 H1055 H 0.28848 1.03233 0.24439
 H1056 H 0.30109 1.05163 0.23171
 C1057 C 0.81240 0.61350 0.16911
 C1058 C 0.81833 0.60755 0.18154
 C1059 C 0.83077 0.61352 0.18746
 C1060 C 0.83723 0.62545 0.18105
 C1061 C 0.83131 0.63166 0.16856
 C1062 C 0.81881 0.62543 0.16265
 C1063 C 0.81151 0.59549 0.18838
 C1064 C 0.80571 0.58549 0.19419
 C1065 C 0.79883 0.57388 0.20108
 C1066 C 0.79287 0.56407 0.20705
 C1067 C 0.78566 0.55247 0.21428
 C1068 C 0.79127 0.54692 0.22705
 C1069 C 0.78409 0.53590 0.23427
 C1070 C 0.77117 0.53028 0.22880
 C1071 C 0.76567 0.53587 0.21589
 C1072 C 0.77288 0.54689 0.20869
 H1073 H 0.80276 0.60896 0.16445
 H1074 H 0.83545 0.60899 0.19710
 H1075 H 0.84681 0.62982 0.18598
 H1076 H 0.81388 0.62979 0.15308
 H1077 H 0.80115 0.55118 0.23148
 H1078 H 0.78860 0.53184 0.24418
 H1079 H 0.75576 0.53179 0.21139
 H1080 H 0.76843 0.55112 0.19882
 C1081 C 0.81255 1.11387 0.66917
 C1082 C 0.81844 1.10795 0.68163
 C1083 C 0.83087 1.11391 0.68757
 C1084 C 0.83736 1.12583 0.68114
 C1085 C 0.83148 1.13201 0.66863
 C1086 C 0.81899 1.12578 0.66270
 C1087 C 0.81159 1.09591 0.68848
 C1088 C 0.80576 1.08592 0.69429
 C1089 C 0.79885 1.07435 0.70120
 C1090 C 0.79286 1.06455 0.70717
 C1091 C 0.78563 1.05298 0.71441
 C1092 C 0.79122 1.04744 0.72720
 C1093 C 0.78401 1.03643 0.73443
 C1094 C 0.77109 1.03083 0.72895
 C1095 C 0.76561 1.03640 0.71603
 C1096 C 0.77284 1.04741 0.70882
 H1097 H 0.80292 1.10933 0.66449
 H1098 H 0.83552 1.10941 0.69723
 H1099 H 0.84693 1.13020 0.68609
 H1100 H 0.81409 1.13011 0.65310
 H1101 H 0.80110 1.05168 0.73163
 H1102 H 0.78852 1.03239 0.74435
 H1103 H 0.75570 1.03233 0.71153
 H1104 H 0.76841 1.05163 0.69894
 C1105 C 0.68769 0.61323 0.33078
 C1106 C 0.68177 0.60730 0.31831
 C1107 C 0.66932 0.61328 0.31240
 C1108 C 0.66287 0.62519 0.31886
 C1109 C 0.66879 0.63131 0.33134
 C1110 C 0.68126 0.62514 0.33726
 C1111 C 0.68861 0.59527 0.31145
 C1112 C 0.69442 0.58529 0.30562
 C1113 C 0.70132 0.57371 0.29869
 C1114 C 0.70730 0.56392 0.29271
 C1115 C 0.71453 0.55235 0.28546
 C1116 C 0.70894 0.54680 0.27268
 C1117 C 0.71615 0.53580 0.26544
 C1118 C 0.72908 0.53022 0.27091
 C1119 C 0.73456 0.53580 0.28383
 C1120 C 0.72733 0.54680 0.29104
 H1121 H 0.69733 0.60869 0.33544
 H1122 H 0.66466 0.60879 0.30274
 H1123 H 0.65329 0.62964 0.31400
 H1124 H 0.68611 0.62955 0.34685
 H1125 H 0.69905 0.55104 0.26826
 H1126 H 0.71164 0.53175 0.25553
 H1127 H 0.74448 0.53175 0.28833
 H1128 H 0.73176 0.55103 0.30092
 C1129 C 0.68738 1.11394 0.83064
 C1130 C 0.68149 1.10799 0.81819
 C1131 C 0.66906 1.11394 0.81225
 C1132 C 0.66256 1.12585 0.81866
 C1133 C 0.66844 1.13207 0.83117
 C1134 C 0.68093 1.12586 0.83710
 C1135 C 0.68836 1.09595 0.81136
 C1136 C 0.69419 1.08597 0.80556
 C1137 C 0.70112 1.07438 0.79868
 C1138 C 0.70711 1.06459 0.79272
 C1139 C 0.71437 1.05301 0.78551
 C1140 C 0.70879 1.04742 0.77273
 C1141 C 0.71601 1.03641 0.76553
 C1142 C 0.72894 1.03085 0.77101
 C1143 C 0.73441 1.03646 0.78393
 C1144 C 0.72716 1.04747 0.79111
 H1145 H 0.69702 1.10942 0.83533
 H1146 H 0.66441 1.10942 0.80259
 H1147 H 0.65299 1.13021 0.81371
 H1148 H 0.68584 1.13021 0.84670
 H1149 H 0.69890 1.05164 0.76829
 H1150 H 0.71151 1.03233 0.75562
 H1151 H 0.74433 1.03242 0.78844
 H1152 H 0.73159 1.05173 0.80098
 C1153 C 0.18764 0.61352 0.83088
 C1154 C 0.18171 0.60757 0.81844
 C1155 C 0.16928 0.61355 0.81252
 C1156 C 0.16283 0.62548 0.81893
 C1157 C 0.16875 0.63169 0.83142
 C1158 C 0.18124 0.62546 0.83734
 C1159 C 0.18853 0.59551 0.81161
 C1160 C 0.19432 0.58550 0.80581
 C1161 C 0.20120 0.57389 0.79891
 C1162 C 0.20715 0.56407 0.79295
 C1163 C 0.21436 0.55247 0.78573
 C1164 C 0.20874 0.54690 0.77296
 C1165 C 0.21593 0.53587 0.76574
 C1166 C 0.22885 0.53027 0.77121
 C1167 C 0.23435 0.53587 0.78412
 C1168 C 0.22714 0.54690 0.79131
 H1169 H 0.19728 0.60898 0.83554
 H1170 H 0.16460 0.60902 0.80288
 H1171 H 0.15325 0.62986 0.81400
 H1172 H 0.18618 0.62982 0.84691
 H1173 H 0.19886 0.55115 0.76853
 H1174 H 0.21141 0.53181 0.75584
 H1175 H 0.24427 0.53181 0.78862
 H1176 H 0.23159 0.55115 0.80118
 C1177 C 0.18736 1.11386 0.33071
 C1178 C 0.18148 1.10794 0.31824
 C1179 C 0.16907 1.11392 0.31229
 C1180 C 0.16259 1.12583 0.31871
 C1181 C 0.16846 1.13202 0.33123
 C1182 C 0.18093 1.12578 0.33717
 C1183 C 0.18834 1.09590 0.31140
 C1184 C 0.19417 1.08591 0.30560
 C1185 C 0.20109 1.07433 0.29871
 C1186 C 0.20708 1.06453 0.29274
 C1187 C 0.21433 1.05295 0.28552
 C1188 C 0.20875 1.04739 0.27274
 C1189 C 0.21596 1.03638 0.26553
 C1190 C 0.22889 1.03080 0.27102
 C1191 C 0.23435 1.03640 0.28394
 C1192 C 0.22711 1.04740 0.29113
 H1193 H 0.19699 1.10932 0.33540
 H1194 H 0.16443 1.10942 0.30262
 H1195 H 0.15302 1.13021 0.31375
 H1196 H 0.18583 1.13011 0.34678
 H1197 H 0.19886 1.05162 0.26830
 H1198 H 0.21147 1.03232 0.25561
 H1199 H 0.24427 1.03234 0.28845
 H1200 H 0.23154 1.05165 0.30101
 C1201 C 0.68770 0.38670 0.66916
 C1202 C 0.68178 0.39263 0.68161
 C1203 C 0.66932 0.38667 0.68752
 C1204 C 0.66286 0.37476 0.68107
 C1205 C 0.66878 0.36862 0.66860
 C1206 C 0.68126 0.37478 0.66268
 C1207 C 0.68862 0.40467 0.68847
 C1208 C 0.69444 0.41465 0.69431
 C1209 C 0.70134 0.42623 0.70123
 C1210 C 0.70731 0.43602 0.70722
 C1211 C 0.71454 0.44760 0.71447
 C1212 C 0.70895 0.45314 0.72726
 C1213 C 0.71615 0.46414 0.73450
 C1214 C 0.72908 0.46974 0.72904
 C1215 C 0.73456 0.46417 0.71612
 C1216 C 0.72733 0.45317 0.70890
 H1217 H 0.69735 0.39122 0.66451
 H1218 H 0.66465 0.39117 0.69717
 H1219 H 0.65327 0.37032 0.68592
 H1220 H 0.68612 0.37036 0.65310
 H1221 H 0.69906 0.44889 0.73168
 H1222 H 0.71164 0.46818 0.74441
 H1223 H 0.74448 0.46824 0.71162
 H1224 H 0.73177 0.44894 0.69901
 C1225 C 0.68734 -0.11377 0.16919
 C1226 C 0.68145 -0.10783 0.18164
 C1227 C 0.66902 -0.11379 0.18758
 C1228 C 0.66254 -0.12572 0.18117
 C1229 C 0.66842 -0.13193 0.16867
 C1230 C 0.68091 -0.12570 0.16274
 C1231 C 0.68830 -0.09577 0.18846
 C1232 C 0.69413 -0.08578 0.19426
 C1233 C 0.70105 -0.07418 0.20114
 C1234 C 0.70703 -0.06438 0.20710
 C1235 C 0.71428 -0.05279 0.21431
 C1236 C 0.70870 -0.04721 0.22708
 C1237 C 0.71592 -0.03620 0.23429
 C1238 C 0.72884 -0.03061 0.22880
 C1239 C 0.73431 -0.03622 0.21588
 C1240 C 0.72707 -0.04724 0.20870
 H1241 H 0.69697 -0.10924 0.16451
 H1242 H 0.66437 -0.10927 0.19723
 H1243 H 0.65297 -0.13008 0.18612
 H1244 H 0.68582 -0.13006 0.15315
 H1245 H 0.69882 -0.05144 0.23153
 H1246 H 0.71143 -0.03212 0.24420
 H1247 H 0.74422 -0.03217 0.21137
 H1248 H 0.73149 -0.05149 0.19883
 C1249 C 0.18745 0.38660 0.16937
 C1250 C 0.18153 0.39253 0.18183
 C1251 C 0.16911 0.38654 0.18777
 C1252 C 0.16266 0.37461 0.18134
 C1253 C 0.16857 0.36848 0.16886
 C1254 C 0.18102 0.37467 0.16291
 C1255 C 0.18837 0.40459 0.18867
 C1256 C 0.19418 0.41459 0.19447
 C1257 C 0.20108 0.42619 0.20136
 C1258 C 0.20705 0.43600 0.20732
 C1259 C 0.21429 0.44759 0.21454
 C1260 C 0.20870 0.45317 0.22731
 C1261 C 0.21591 0.46420 0.23451
 C1262 C 0.22883 0.46978 0.22903
 C1263 C 0.23431 0.46416 0.21612
 C1264 C 0.22708 0.45314 0.20894
 H1265 H 0.19708 0.39115 0.16469
 H1266 H 0.16445 0.39104 0.19742
 H1267 H 0.15309 0.37015 0.18621
 H1268 H 0.18587 0.37025 0.15332
 H1269 H 0.19881 0.44894 0.23174
 H1270 H 0.21140 0.46827 0.24442
 H1271 H 0.24423 0.46821 0.21162
 H1272 H 0.23151 0.44889 0.19907
 C1273 C 0.18738 -0.11391 0.66930
 C1274 C 0.18149 -0.10799 0.68176
 C1275 C 0.16907 -0.11396 0.68770
 C1276 C 0.16258 -0.12588 0.68127
 C1277 C 0.16846 -0.13206 0.66875
 C1278 C 0.18094 -0.12583 0.66282
 C1279 C 0.18835 -0.09595 0.68860
 C1280 C 0.19418 -0.08596 0.69441
 C1281 C 0.20110 -0.07438 0.70131
 C1282 C 0.20709 -0.06458 0.70728
 C1283 C 0.21434 -0.05300 0.71451
 C1284 C 0.20875 -0.04745 0.72729
 C1285 C 0.21597 -0.03644 0.73451
 C1286 C 0.22889 -0.03085 0.72903
 C1287 C 0.23436 -0.03644 0.71611
 C1288 C 0.22712 -0.04745 0.70891
 H1289 H 0.19701 -0.10937 0.66462
 H1290 H 0.16443 -0.10946 0.69736
 H1291 H 0.15301 -0.13025 0.68621
 H1292 H 0.18585 -0.13016 0.65322
 H1293 H 0.19887 -0.05168 0.73173
 H1294 H 0.21147 -0.03238 0.74443
 H1295 H 0.24427 -0.03238 0.71160
 H1296 H 0.23154 -0.05168 0.69903
 C1297 C 0.33063 0.31232 0.38693
 C1298 C 0.31818 0.31825 0.39289
 C1299 C 0.31227 0.33072 0.38695
 C1300 C 0.31872 0.33718 0.37504
 C1301 C 0.33118 0.33124 0.36889
 C1302 C 0.33710 0.31876 0.37503
 C1303 C 0.31133 0.31141 0.40492
 C1304 C 0.30551 0.30559 0.41489
 C1305 C 0.29860 0.29868 0.42646
 C1306 C 0.29263 0.29269 0.43625
 C1307 C 0.28540 0.28544 0.44781
 C1308 C 0.27261 0.29102 0.45337
 C1309 C 0.26538 0.28380 0.46436
 C1310 C 0.27087 0.27087 0.46993
 C1311 C 0.28379 0.26540 0.46434
 C1312 C 0.29099 0.27265 0.45335
 H1313 H 0.33529 0.30266 0.39144
 H1314 H 0.30263 0.33539 0.39146
 H1315 H 0.31387 0.34677 0.37062
 H1316 H 0.34668 0.31389 0.37059
 H1317 H 0.26817 0.30091 0.44915
 H1318 H 0.25546 0.28830 0.46843
 H1319 H 0.28830 0.25548 0.46838
 H1320 H 0.30088 0.26822 0.44911
 C1321 C 0.33097 0.81240 -0.11345
 C1322 C 0.31852 0.81831 -0.10749
 C1323 C 0.31256 0.83074 -0.11345
 C1324 C 0.31896 0.83719 -0.12539
 C1325 C 0.33143 0.83127 -0.13154
 C1326 C 0.33740 0.81882 -0.12538
 C1327 C 0.31170 0.81147 -0.09543
 C1328 C 0.30591 0.80567 -0.08543
 C1329 C 0.29902 0.79878 -0.07384
 C1330 C 0.29305 0.79282 -0.06403
 C1331 C 0.28581 0.78561 -0.05245
 C1332 C 0.27302 0.79120 -0.04692
 C1333 C 0.26578 0.78402 -0.03591
 C1334 C 0.27127 0.77111 -0.03029
 C1335 C 0.28421 0.76563 -0.03585
 C1336 C 0.29142 0.77284 -0.04686
 H1337 H 0.33567 0.80276 -0.10892
 H1338 H 0.30291 0.83539 -0.10893
 H1339 H 0.31407 0.84675 -0.12983
 H1340 H 0.34699 0.81397 -0.12982
 H1341 H 0.26857 0.80107 -0.05119
 H1342 H 0.25586 0.78852 -0.03188
 H1343 H 0.28872 0.75573 -0.03176
 H1344 H 0.30131 0.76840 -0.05107
 C1345 C 0.81214 0.33100 -0.11345
 C1346 C 0.81807 0.31856 -0.10749
 C1347 C 0.83053 0.31263 -0.11343
 C1348 C 0.83699 0.31906 -0.12535
 C1349 C 0.83105 0.33152 -0.13151
 C1350 C 0.81857 0.33745 -0.12537
 C1351 C 0.81124 0.31171 -0.09545
 C1352 C 0.80543 0.30589 -0.08546
 C1353 C 0.79855 0.29898 -0.07388
 C1354 C 0.79260 0.29299 -0.06409
 C1355 C 0.78539 0.28573 -0.05251
 C1356 C 0.79100 0.27293 -0.04700
 C1357 C 0.78382 0.26568 -0.03600
 C1358 C 0.77090 0.27115 -0.03037
 C1359 C 0.76541 0.28408 -0.03592
 C1360 C 0.77262 0.29131 -0.04692
 H1361 H 0.80249 0.33567 -0.10894
 H1362 H 0.83520 0.30299 -0.10891
 H1363 H 0.84657 0.31420 -0.12978
 H1364 H 0.81371 0.34703 -0.12981
 H1365 H 0.80087 0.26850 -0.05126
 H1366 H 0.78833 0.25575 -0.03197
 H1367 H 0.75550 0.28858 -0.03183
 H1368 H 0.76817 0.30121 -0.05112
 C1369 C 0.81267 0.83056 0.38680
 C1370 C 0.81859 0.81811 0.39275
 C1371 C 0.83102 0.81216 0.38679
 C1372 C 0.83747 0.81857 0.37485
 C1373 C 0.83154 0.83105 0.36870
 C1374 C 0.81908 0.83700 0.37486
 C1375 C 0.81176 0.81129 0.40481
 C1376 C 0.80595 0.80551 0.41481
 C1377 C 0.79904 0.79864 0.42641
 C1378 C 0.79306 0.79269 0.43621
 C1379 C 0.78582 0.78550 0.44780
 C1380 C 0.79140 0.77272 0.45339
 C1381 C 0.78418 0.76553 0.46441
 C1382 C 0.77125 0.77103 0.46997
 C1383 C 0.76579 0.78395 0.46435
 C1384 C 0.77303 0.79112 0.45333
 H1385 H 0.80303 0.83525 0.39132
 H1386 H 0.83569 0.80251 0.39130
 H1387 H 0.84703 0.81370 0.37041
 H1388 H 0.81422 0.84658 0.37043
 H1389 H 0.80128 0.76827 0.44918
 H1390 H 0.78867 0.75561 0.46849
 H1391 H 0.75587 0.78847 0.46838
 H1392 H 0.76861 0.80099 0.44907
 C1393 C 0.68770 0.33068 0.61309
 C1394 C 0.68177 0.31822 0.60714
 C1395 C 0.66932 0.31229 0.61308
 C1396 C 0.66286 0.31872 0.62500
 C1397 C 0.66878 0.33120 0.63115
 C1398 C 0.68126 0.33714 0.62501
 C1399 C 0.68862 0.31138 0.59510
 C1400 C 0.69444 0.30557 0.58512
 C1401 C 0.70134 0.29866 0.57354
 C1402 C 0.70731 0.29268 0.56375
 C1403 C 0.71454 0.28545 0.55218
 C1404 C 0.70895 0.27265 0.54663
 C1405 C 0.71615 0.26542 0.53563
 C1406 C 0.72908 0.27090 0.53004
 C1407 C 0.73455 0.28384 0.53562
 C1408 C 0.72733 0.29104 0.54662
 H1409 H 0.69735 0.33535 0.60859
 H1410 H 0.66466 0.30264 0.60857
 H1411 H 0.65327 0.31386 0.62942
 H1412 H 0.68611 0.34672 0.62944
 H1413 H 0.69907 0.26822 0.55087
 H1414 H 0.71165 0.25550 0.53158
 H1415 H 0.74447 0.28834 0.53156
 H1416 H 0.73176 0.30093 0.55085
 C1417 C 0.66911 0.81239 1.11345
 C1418 C 0.68156 0.81831 1.10749
 C1419 C 0.68750 0.83076 1.11344
 C1420 C 0.68109 0.83722 1.12537
 C1421 C 0.66862 0.83129 1.13153
 C1422 C 0.66267 0.81882 1.12538
 C1423 C 0.68838 0.81147 1.09544
 C1424 C 0.69418 0.80566 1.08545
 C1425 C 0.70108 0.79877 1.07386
 C1426 C 0.70706 0.79281 1.06406
 C1427 C 0.71430 0.78560 1.05248
 C1428 C 0.72710 0.79120 1.04696
 C1429 C 0.73434 0.78401 1.03596
 C1430 C 0.72886 0.77111 1.03032
 C1431 C 0.71591 0.76562 1.03587
 C1432 C 0.70870 0.77283 1.04688
 H1433 H 0.66443 0.80274 1.10894
 H1434 H 0.69715 0.83543 1.10892
 H1435 H 0.68597 0.84680 1.12981
 H1436 H 0.65309 0.81396 1.12982
 H1437 H 0.73154 0.80107 1.05123
 H1438 H 0.74427 0.78852 1.03193
 H1439 H 0.71140 0.75572 1.03178
 H1440 H 0.69880 0.76839 1.05108
 C1441 C 0.18747 0.33055 1.11335
 C1442 C 0.18157 0.31808 1.10741
 C1443 C 0.16914 0.31212 1.11338
 C1444 C 0.16268 0.31855 1.12530
 C1445 C 0.16859 0.33104 1.13143
 C1446 C 0.18104 0.33701 1.12527
 C1447 C 0.18841 0.31125 1.09537
 C1448 C 0.19422 0.30544 1.08538
 C1449 C 0.20112 0.29855 1.07379
 C1450 C 0.20710 0.29258 1.06400
 C1451 C 0.21433 0.28535 1.05242
 C1452 C 0.20875 0.27255 1.04687
 C1453 C 0.21595 0.26533 1.03587
 C1454 C 0.22886 0.27082 1.03027
 C1455 C 0.23433 0.28376 1.03585
 C1456 C 0.22711 0.29096 1.04685
 H1457 H 0.19710 0.33525 1.10882
 H1458 H 0.16449 0.30246 1.10888
 H1459 H 0.15312 0.31367 1.12975
 H1460 H 0.18588 0.34661 1.12969
 H1461 H 0.19887 0.26810 1.05112
 H1462 H 0.21145 0.25540 1.03182
 H1463 H 0.24424 0.28827 1.03179
 H1464 H 0.23153 0.30085 1.05108
 C1465 C 0.16912 0.81237 0.61342
 C1466 C 0.18157 0.81830 0.60747
 C1467 C 0.18751 0.83074 0.61344
 C1468 C 0.18110 0.83717 0.62538
 C1469 C 0.16864 0.83123 0.63154
 C1470 C 0.16269 0.81877 0.62537
 C1471 C 0.18839 0.81149 0.59540
 C1472 C 0.19419 0.80570 0.58539
 C1473 C 0.20108 0.79883 0.57379
 C1474 C 0.20705 0.79288 0.56398
 C1475 C 0.21429 0.78568 0.55239
 C1476 C 0.22708 0.79129 0.54685
 C1477 C 0.23431 0.78412 0.53584
 C1478 C 0.22883 0.77120 0.53021
 C1479 C 0.21591 0.76571 0.53578
 C1480 C 0.20870 0.77290 0.54680
 H1481 H 0.16444 0.80273 0.60889
 H1482 H 0.19715 0.83542 0.60892
 H1483 H 0.18598 0.84674 0.62983
 H1484 H 0.15312 0.81390 0.62981
 H1485 H 0.23151 0.80117 0.55112
 H1486 H 0.24423 0.78864 0.53180
 H1487 H 0.21140 0.75579 0.53170
 H1488 H 0.19881 0.76845 0.55101
 C1489 C 0.33067 0.68767 0.61322
 C1490 C 0.31822 0.68174 0.60727
 C1491 C 0.31229 0.66928 0.61322
 C1492 C 0.31873 0.66282 0.62513
 C1493 C 0.33121 0.66876 0.63128
 C1494 C 0.33713 0.68123 0.62514
 C1495 C 0.31137 0.68858 0.59524
 C1496 C 0.30556 0.69440 0.58525
 C1497 C 0.29866 0.70130 0.57368
 C1498 C 0.29269 0.70729 0.56388
 C1499 C 0.28547 0.71453 0.55231
 C1500 C 0.27269 0.70894 0.54673
 C1501 C 0.26547 0.71616 0.53573
 C1502 C 0.27096 0.72910 0.53017
 C1503 C 0.28388 0.73457 0.53579
 C1504 C 0.29107 0.72733 0.54678
 H1505 H 0.33533 0.69732 0.60871
 H1506 H 0.30265 0.66460 0.60870
 H1507 H 0.31388 0.65323 0.62956
 H1508 H 0.34671 0.68610 0.62957
 H1509 H 0.26825 0.69905 0.55095
 H1510 H 0.25556 0.71166 0.53166
 H1511 H 0.28839 0.74450 0.53175
 H1512 H 0.30095 0.73177 0.55104
 C1513 C 0.31241 0.16923 1.11348
 C1514 C 0.31835 0.18167 1.10751
 C1515 C 0.33080 0.18760 1.11347
 C1516 C 0.33724 0.18119 1.12541
 C1517 C 0.33129 0.16874 1.13157
 C1518 C 0.31883 0.16280 1.12542
 C1519 C 0.31152 0.18848 1.09545
 C1520 C 0.30571 0.19427 1.08545
 C1521 C 0.29881 0.20114 1.07385
 C1522 C 0.29283 0.20709 1.06405
 C1523 C 0.28559 0.21429 1.05246
 C1524 C 0.29117 0.22708 1.04688
 C1525 C 0.28396 0.23427 1.03587
 C1526 C 0.27103 0.22876 1.03029
 C1527 C 0.26557 0.21584 1.03590
 C1528 C 0.27281 0.20867 1.04691
 H1529 H 0.30276 0.16455 1.10897
 H1530 H 0.33548 0.19724 1.10894
 H1531 H 0.34682 0.18606 1.12984
 H1532 H 0.31395 0.15323 1.12987
 H1533 H 0.30105 0.23153 1.05111
 H1534 H 0.28845 0.24419 1.03179
 H1535 H 0.25566 0.21131 1.03185
 H1536 H 0.26839 0.19878 1.05116
 C1537 C 0.81209 0.66900 1.11339
 C1538 C 0.81803 0.68145 1.10743
 C1539 C 0.83050 0.68736 1.11336
 C1540 C 0.83696 0.68092 1.12528
 C1541 C 0.83101 0.66846 1.13144
 C1542 C 0.81852 0.66254 1.12530
 C1543 C 0.81119 0.68829 1.09539
 C1544 C 0.80539 0.69412 1.08540
 C1545 C 0.79851 0.70105 1.07382
 C1546 C 0.79257 0.70705 1.06403
 C1547 C 0.78537 0.71432 1.05246
 C1548 C 0.79100 0.72712 1.04695
 C1549 C 0.78383 0.73438 1.03595
 C1550 C 0.77091 0.72893 1.03032
 C1551 C 0.76540 0.71600 1.03585
 C1552 C 0.77259 0.70875 1.04685
 H1553 H 0.80243 0.66435 1.10888
 H1554 H 0.83518 0.69700 1.10884
 H1555 H 0.84655 0.68578 1.12970
 H1556 H 0.81365 0.65297 1.12974
 H1557 H 0.80088 0.73153 1.05123
 H1558 H 0.78836 0.74430 1.03193
 H1559 H 0.75549 0.71151 1.03176
 H1560 H 0.76813 0.69886 1.05105
 C1561 C 0.81243 0.16921 0.61331
 C1562 C 0.81839 0.18164 0.60734
 C1563 C 0.83084 0.18757 0.61330
 C1564 C 0.83727 0.18116 0.62524
 C1565 C 0.83130 0.16871 0.63141
 C1566 C 0.81884 0.16277 0.62526
 C1567 C 0.81157 0.18846 0.59527
 C1568 C 0.80578 0.19425 0.58527
 C1569 C 0.79889 0.20113 0.57366
 C1570 C 0.79293 0.20709 0.56385
 C1571 C 0.78571 0.21430 0.55225
 C1572 C 0.79131 0.22708 0.54669
 C1573 C 0.78412 0.23429 0.53567
 C1574 C 0.77120 0.22880 0.53008
 C1575 C 0.76571 0.21588 0.53568
 C1576 C 0.77293 0.20869 0.54669
 H1577 H 0.80278 0.16454 0.60879
 H1578 H 0.83553 0.19720 0.60877
 H1579 H 0.84685 0.18602 0.62968
 H1580 H 0.81395 0.15321 0.62971
 H1581 H 0.80119 0.23153 0.55093
 H1582 H 0.78862 0.24421 0.53161
 H1583 H 0.75580 0.21136 0.53162
 H1584 H 0.76850 0.19881 0.55094
 C1585 C 0.66936 0.68759 0.38690
 C1586 C 0.68181 0.68165 0.39285
 C1587 C 0.68772 0.66919 0.38689
 C1588 C 0.68128 0.66275 0.37497
 C1589 C 0.66881 0.66870 0.36882
 C1590 C 0.66290 0.68117 0.37498
 C1591 C 0.68866 0.68847 0.40490
 C1592 C 0.69448 0.69428 0.41489
 C1593 C 0.70138 0.70118 0.42647
 C1594 C 0.70735 0.70715 0.43627
 C1595 C 0.71458 0.71439 0.44785
 C1596 C 0.72735 0.70880 0.45343
 C1597 C 0.73457 0.71601 0.46443
 C1598 C 0.72910 0.72895 0.47000
 C1599 C 0.71618 0.73443 0.46439
 C1600 C 0.70898 0.72719 0.45338
 H1601 H 0.66471 0.69724 0.39143
 H1602 H 0.69736 0.66451 0.39140
 H1603 H 0.68613 0.65316 0.37053
 H1604 H 0.65332 0.68605 0.37055
 H1605 H 0.73179 0.69890 0.44921
 H1606 H 0.74448 0.71150 0.46850
 H1607 H 0.71168 0.74435 0.46843
 H1608 H 0.69911 0.73163 0.44913
 C1609 C 0.66906 0.18771 -0.11357
 C1610 C 0.68152 0.18180 -0.10761
 C1611 C 0.68748 0.16937 -0.11357
 C1612 C 0.68107 0.16291 -0.12550
 C1613 C 0.66860 0.16882 -0.13166
 C1614 C 0.66263 0.18128 -0.12551
 C1615 C 0.68833 0.18865 -0.09556
 C1616 C 0.69413 0.19446 -0.08556
 C1617 C 0.70102 0.20135 -0.07396
 C1618 C 0.70700 0.20731 -0.06415
 C1619 C 0.71423 0.21452 -0.05257
 C1620 C 0.72702 0.20891 -0.04703
 C1621 C 0.73426 0.21609 -0.03602
 C1622 C 0.72879 0.22901 -0.03040
 C1623 C 0.71586 0.23450 -0.03597
 C1624 C 0.70865 0.22730 -0.04698
 H1625 H 0.66437 0.19734 -0.10905
 H1626 H 0.69713 0.16472 -0.10905
 H1627 H 0.68596 0.15334 -0.12994
 H1628 H 0.65305 0.18612 -0.12995
 H1629 H 0.73145 0.19904 -0.05129
 H1630 H 0.74418 0.21158 -0.03198
 H1631 H 0.71136 0.24442 -0.03189
 H1632 H 0.69876 0.23174 -0.05120
 C1633 C 0.18799 0.66903 -0.11339
 C1634 C 0.18206 0.68147 -0.10742
 C1635 C 0.16960 0.68739 -0.11336
 C1636 C 0.16314 0.68096 -0.12528
 C1637 C 0.16907 0.66850 -0.13144
 C1638 C 0.18155 0.66257 -0.12530
 C1639 C 0.18890 0.68832 -0.09538
 C1640 C 0.19470 0.69414 -0.08539
 C1641 C 0.20159 0.70106 -0.07381
 C1642 C 0.20754 0.70706 -0.06401
 C1643 C 0.21474 0.71432 -0.05244
 C1644 C 0.20912 0.72712 -0.04692
 C1645 C 0.21629 0.73438 -0.03591
 C1646 C 0.22921 0.72893 -0.03029
 C1647 C 0.23472 0.71600 -0.03584
 C1648 C 0.22752 0.70876 -0.04684
 H1649 H 0.19764 0.66436 -0.10888
 H1650 H 0.16493 0.69704 -0.10884
 H1651 H 0.15355 0.68582 -0.12970
 H1652 H 0.18641 0.65299 -0.12975
 H1653 H 0.19924 0.73153 -0.05119
 H1654 H 0.21176 0.74430 -0.03189
 H1655 H 0.24463 0.71151 -0.03175
 H1656 H 0.23198 0.69887 -0.05105
 C1657 C 0.18748 0.16921 0.38657
 C1658 C 0.18154 0.18164 0.39254
 C1659 C 0.16911 0.18759 0.38656
 C1660 C 0.16268 0.18118 0.37461
 C1661 C 0.16863 0.16873 0.36845
 C1662 C 0.18108 0.16278 0.37462
 C1663 C 0.18836 0.18846 0.40461
 C1664 C 0.19415 0.19424 0.41462
 C1665 C 0.20104 0.20111 0.42624
 C1666 C 0.20700 0.20706 0.43606
 C1667 C 0.21423 0.21426 0.44766
 C1668 C 0.20863 0.22703 0.45325
 C1669 C 0.21582 0.23423 0.46427
 C1670 C 0.22875 0.22875 0.46985
 C1671 C 0.23423 0.21583 0.46423
 C1672 C 0.22701 0.20866 0.45321
 H1673 H 0.19712 0.16453 0.39110
 H1674 H 0.16443 0.19722 0.39109
 H1675 H 0.15311 0.18605 0.37016
 H1676 H 0.18596 0.15321 0.37017
 H1677 H 0.19874 0.23148 0.44902
 H1678 H 0.21132 0.24414 0.46835
 H1679 H 0.24415 0.21132 0.46828
 H1680 H 0.23145 0.19878 0.44894
 C1681 C 0.33064 0.38659 0.68781
 C1682 C 0.31819 0.39254 0.68189
 C1683 C 0.31227 0.38659 0.66944
 C1684 C 0.31871 0.37467 0.66298
 C1685 C 0.33119 0.36852 0.66890
 C1686 C 0.33711 0.37467 0.68137
 C1687 C 0.31134 0.40458 0.68873
 C1688 C 0.30552 0.41458 0.69453
 C1689 C 0.29862 0.42616 0.70143
 C1690 C 0.29264 0.43597 0.70740
 C1691 C 0.28541 0.44755 0.71463
 C1692 C 0.27262 0.45311 0.70904
 C1693 C 0.26540 0.46412 0.71624
 C1694 C 0.27089 0.46973 0.72914
 C1695 C 0.28382 0.46414 0.73461
 C1696 C 0.29102 0.45312 0.72739
 H1697 H 0.33531 0.39111 0.69745
 H1698 H 0.30262 0.39110 0.66477
 H1699 H 0.31386 0.37024 0.65340
 H1700 H 0.34670 0.37024 0.68623
 H1701 H 0.26817 0.44886 0.69917
 H1702 H 0.25548 0.46818 0.71174
 H1703 H 0.28834 0.46821 0.74452
 H1704 H 0.30091 0.44889 0.73182
 C1705 C 0.33085 0.88728 0.18752
 C1706 C 0.31839 0.89322 0.18162
 C1707 C 0.31246 0.88727 0.16918
 C1708 C 0.31890 0.87536 0.16270
 C1709 C 0.33139 0.86922 0.16861
 C1710 C 0.33732 0.87537 0.18107
 C1711 C 0.31154 0.90525 0.18847
 C1712 C 0.30572 0.91524 0.19430
 C1713 C 0.29881 0.92682 0.20121
 C1714 C 0.29283 0.93661 0.20719
 C1715 C 0.28559 0.94818 0.21443
 C1716 C 0.27281 0.95374 0.20883
 C1717 C 0.26558 0.96475 0.21603
 C1718 C 0.27105 0.97033 0.22895
 C1719 C 0.28397 0.96474 0.23444
 C1720 C 0.29118 0.95373 0.22721
 H1721 H 0.33553 0.89180 0.19716
 H1722 H 0.30279 0.89177 0.16453
 H1723 H 0.31403 0.87092 0.15313
 H1724 H 0.34692 0.87094 0.18592
 H1725 H 0.26838 0.94951 0.19894
 H1726 H 0.25566 0.96881 0.21152
 H1727 H 0.28846 0.96879 0.24436
 H1728 H 0.30106 0.94949 0.23165
 C1729 C 0.83105 0.38670 0.18745
 C1730 C 0.81860 0.39266 0.18152
 C1731 C 0.81269 0.38671 0.16907
 C1732 C 0.81912 0.37479 0.16261
 C1733 C 0.83159 0.36863 0.16854
 C1734 C 0.83752 0.37478 0.18101
 C1735 C 0.81176 0.40470 0.18836
 C1736 C 0.80594 0.41469 0.19417
 C1737 C 0.79902 0.42627 0.20107
 C1738 C 0.79304 0.43607 0.20704
 C1739 C 0.78579 0.44765 0.21426
 C1740 C 0.77300 0.45319 0.20867
 C1741 C 0.76576 0.46419 0.21587
 C1742 C 0.77124 0.46980 0.22879
 C1743 C 0.78417 0.46422 0.23426
 C1744 C 0.79139 0.45322 0.22704
 H1745 H 0.83571 0.39121 0.19710
 H1746 H 0.80304 0.39123 0.16440
 H1747 H 0.81427 0.37036 0.15303
 H1748 H 0.84709 0.37034 0.18587
 H1749 H 0.76856 0.44894 0.19880
 H1750 H 0.75583 0.46824 0.21137
 H1751 H 0.78868 0.46829 0.24417
 H1752 H 0.80128 0.44899 0.23147
 C1753 C 0.81254 0.88722 0.66935
 C1754 C 0.81847 0.89318 0.68179
 C1755 C 0.83093 0.88724 0.68770
 C1756 C 0.83740 0.87532 0.68127
 C1757 C 0.83147 0.86916 0.66881
 C1758 C 0.81899 0.87530 0.66289
 C1759 C 0.81162 0.90522 0.68863
 C1760 C 0.80580 0.91521 0.69444
 C1761 C 0.79889 0.92680 0.70133
 C1762 C 0.79291 0.93660 0.70730
 C1763 C 0.78567 0.94819 0.71452
 C1764 C 0.79126 0.95376 0.72729
 C1765 C 0.78405 0.96477 0.73450
 C1766 C 0.77112 0.97035 0.72902
 C1767 C 0.76565 0.96474 0.71610
 C1768 C 0.77288 0.95373 0.70892
 H1769 H 0.80289 0.89172 0.66469
 H1770 H 0.83560 0.89176 0.69734
 H1771 H 0.84699 0.87090 0.68612
 H1772 H 0.81412 0.87086 0.65331
 H1773 H 0.80114 0.94953 0.73173
 H1774 H 0.78855 0.96885 0.74441
 H1775 H 0.75573 0.96879 0.71159
 H1776 H 0.76845 0.94948 0.69904
 C1777 C 0.66928 0.61336 0.68787
 C1778 C 0.68172 0.60740 0.68193
 C1779 C 0.68763 0.61335 0.66948
 C1780 C 0.68118 0.62526 0.66302
 C1781 C 0.66872 0.63142 0.66896
 C1782 C 0.66280 0.62527 0.68144
 C1783 C 0.68858 0.59536 0.68877
 C1784 C 0.69440 0.58537 0.69457
 C1785 C 0.70132 0.57378 0.70145
 C1786 C 0.70730 0.56398 0.70741
 C1787 C 0.71454 0.55239 0.71463
 C1788 C 0.72733 0.54684 0.70904
 C1789 C 0.73456 0.53583 0.71622
 C1790 C 0.72908 0.53022 0.72913
 C1791 C 0.71615 0.53580 0.73460
 C1792 C 0.70894 0.54681 0.72740
 H1793 H 0.66462 0.60885 0.69752
 H1794 H 0.69727 0.60883 0.66480
 H1795 H 0.68603 0.62969 0.65344
 H1796 H 0.65323 0.62971 0.68630
 H1797 H 0.73177 0.55110 0.69917
 H1798 H 0.74448 0.53178 0.71172
 H1799 H 0.71164 0.53172 0.74451
 H1800 H 0.69906 0.55104 0.73183
 C1801 C 0.66907 0.11292 0.18732
 C1802 C 0.68154 0.10698 0.18141
 C1803 C 0.68747 0.11293 0.16898
 C1804 C 0.68103 0.12485 0.16251
 C1805 C 0.66854 0.13099 0.16842
 C1806 C 0.66261 0.12484 0.18088
 C1807 C 0.68838 0.09494 0.18826
 C1808 C 0.69420 0.08496 0.19408
 C1809 C 0.70111 0.07338 0.20099
 C1810 C 0.70709 0.06358 0.20697
 C1811 C 0.71432 0.05201 0.21421
 C1812 C 0.72710 0.04644 0.20861
 C1813 C 0.73434 0.03544 0.21581
 C1814 C 0.72887 0.02986 0.22874
 C1815 C 0.71595 0.03547 0.23422
 C1816 C 0.70874 0.04647 0.22699
 H1817 H 0.66440 0.10841 0.19696
 H1818 H 0.69713 0.10842 0.16432
 H1819 H 0.68589 0.12928 0.15294
 H1820 H 0.65301 0.12927 0.18572
 H1821 H 0.73153 0.05067 0.19873
 H1822 H 0.74425 0.03137 0.21131
 H1823 H 0.71145 0.03142 0.24414
 H1824 H 0.69886 0.05071 0.23143
 C1825 C 0.16911 0.61332 0.18748
 C1826 C 0.18157 0.60737 0.18157
 C1827 C 0.18749 0.61331 0.16912
 C1828 C 0.18106 0.62523 0.16265
 C1829 C 0.16858 0.63138 0.16857
 C1830 C 0.16265 0.62524 0.18104
 C1831 C 0.18841 0.59533 0.18841
 C1832 C 0.19423 0.58534 0.19424
 C1833 C 0.20113 0.57376 0.20115
 C1834 C 0.20711 0.56397 0.20713
 C1835 C 0.21434 0.55240 0.21438
 C1836 C 0.22712 0.54683 0.20880
 C1837 C 0.23434 0.53583 0.21602
 C1838 C 0.22886 0.53026 0.22894
 C1839 C 0.21594 0.53586 0.23440
 C1840 C 0.20874 0.54686 0.22716
 H1841 H 0.16445 0.60881 0.19712
 H1842 H 0.19715 0.60879 0.16446
 H1843 H 0.18592 0.62966 0.15308
 H1844 H 0.15307 0.62968 0.18589
 H1845 H 0.23156 0.55105 0.19892
 H1846 H 0.24426 0.53176 0.21152
 H1847 H 0.21143 0.53182 0.24432
 H1848 H 0.19886 0.55111 0.23159
 C1849 C 0.16905 0.11267 0.68763
 C1850 C 0.18151 0.10673 0.68172
 C1851 C 0.18744 0.11268 0.66928
 C1852 C 0.18099 0.12459 0.66281
 C1853 C 0.16851 0.13073 0.66872
 C1854 C 0.16258 0.12458 0.68118
 C1855 C 0.18837 0.09470 0.68858
 C1856 C 0.19419 0.08471 0.69440
 C1857 C 0.20110 0.07314 0.70131
 C1858 C 0.20708 0.06335 0.70728
 C1859 C 0.21433 0.05177 0.71451
 C1860 C 0.22711 0.04622 0.70892
 C1861 C 0.23435 0.03521 0.71611
 C1862 C 0.22888 0.02963 0.72904
 C1863 C 0.21596 0.03522 0.73452
 C1864 C 0.20875 0.04622 0.72730
 H1865 H 0.16438 0.10816 0.69727
 H1866 H 0.19710 0.10817 0.66463
 H1867 H 0.18585 0.12902 0.65323
 H1868 H 0.15299 0.12901 0.68603
 H1869 H 0.23154 0.05045 0.69904
 H1870 H 0.24426 0.03116 0.71161
 H1871 H 0.21147 0.03116 0.74443
 H1872 H 0.19887 0.05046 0.73174
 C1873 C 0.33081 0.61348 0.31231
 C1874 C 0.31836 0.60752 0.31823
 C1875 C 0.31245 0.61346 0.33068
 C1876 C 0.31889 0.62539 0.33714
 C1877 C 0.33136 0.63154 0.33121
 C1878 C 0.33728 0.62540 0.31874
 C1879 C 0.31151 0.59547 0.31140
 C1880 C 0.30569 0.58548 0.30559
 C1881 C 0.29877 0.57388 0.29870
 C1882 C 0.29279 0.56408 0.29274
 C1883 C 0.28554 0.55249 0.28552
 C1884 C 0.27275 0.54695 0.29112
 C1885 C 0.26551 0.53593 0.28394
 C1886 C 0.27099 0.53032 0.27103
 C1887 C 0.28392 0.53589 0.26555
 C1888 C 0.29113 0.54691 0.27276
 H1889 H 0.33547 0.60896 0.30266
 H1890 H 0.30280 0.60894 0.33535
 H1891 H 0.31404 0.62982 0.34673
 H1892 H 0.34686 0.62984 0.31388
 H1893 H 0.26832 0.55121 0.30099
 H1894 H 0.25559 0.53188 0.28844
 H1895 H 0.28842 0.53181 0.25565
 H1896 H 0.30102 0.55114 0.26832
 C1897 C 0.31242 0.11276 0.83087
 C1898 C 0.31835 0.10681 0.81843
 C1899 C 0.33081 0.11275 0.81253
 C1900 C 0.33728 0.12467 0.81897
 C1901 C 0.33134 0.13082 0.83143
 C1902 C 0.31886 0.12468 0.83734
 C1903 C 0.31150 0.09476 0.81158
 C1904 C 0.30569 0.08478 0.80576
 C1905 C 0.29878 0.07319 0.79885
 C1906 C 0.29281 0.06339 0.79287
 C1907 C 0.28557 0.05181 0.78564
 C1908 C 0.29116 0.04626 0.77285
 C1909 C 0.28395 0.03525 0.76562
 C1910 C 0.27104 0.02965 0.77110
 C1911 C 0.26557 0.03523 0.78403
 C1912 C 0.27279 0.04624 0.79123
 H1913 H 0.30276 0.10825 0.83552
 H1914 H 0.33549 0.10824 0.80289
 H1915 H 0.34687 0.12910 0.81413
 H1916 H 0.31399 0.12912 0.84691
 H1917 H 0.30104 0.05051 0.76841
 H1918 H 0.28845 0.03120 0.75571
 H1919 H 0.25565 0.03116 0.78854
 H1920 H 0.26837 0.05047 0.80111
 C1921 C 0.83100 0.61330 0.81257
 C1922 C 0.81855 0.60734 0.81850
 C1923 C 0.81263 0.61329 0.83094
 C1924 C 0.81907 0.62522 0.83740
 C1925 C 0.83154 0.63138 0.83146
 C1926 C 0.83746 0.62522 0.81899
 C1927 C 0.81170 0.59529 0.81166
 C1928 C 0.80588 0.58530 0.80585
 C1929 C 0.79897 0.57371 0.79896
 C1930 C 0.79299 0.56391 0.79298
 C1931 C 0.78575 0.55232 0.78575
 C1932 C 0.77296 0.54677 0.79133
 C1933 C 0.76573 0.53576 0.78413
 C1934 C 0.77121 0.53017 0.77121
 C1935 C 0.78414 0.53576 0.76575
 C1936 C 0.79134 0.54677 0.77297
 H1937 H 0.83566 0.60878 0.80292
 H1938 H 0.80299 0.60877 0.83561
 H1939 H 0.81422 0.62965 0.84698
 H1940 H 0.84704 0.62966 0.81413
 H1941 H 0.76852 0.55100 0.80121
 H1942 H 0.75581 0.53170 0.78862
 H1943 H 0.78864 0.53171 0.75583
 H1944 H 0.80123 0.55101 0.76855
 C1945 C 0.81254 0.11295 0.33056
 C1946 C 0.81846 0.10700 0.31811
 C1947 C 0.83092 0.11295 0.31220
 C1948 C 0.83740 0.12485 0.31865
 C1949 C 0.83148 0.13100 0.33112
 C1950 C 0.81900 0.12485 0.33704
 C1951 C 0.81160 0.09497 0.31125
 C1952 C 0.80577 0.08499 0.30543
 C1953 C 0.79885 0.07342 0.29852
 C1954 C 0.79286 0.06362 0.29254
 C1955 C 0.78560 0.05205 0.28531
 C1956 C 0.79118 0.04649 0.27253
 C1957 C 0.78396 0.03548 0.26531
 C1958 C 0.77103 0.02990 0.27080
 C1959 C 0.76557 0.03549 0.28372
 C1960 C 0.77282 0.04650 0.29091
 H1961 H 0.80289 0.10844 0.33521
 H1962 H 0.83559 0.10844 0.30255
 H1963 H 0.84700 0.12928 0.31380
 H1964 H 0.81415 0.12928 0.34662
 H1965 H 0.80106 0.05072 0.26809
 H1966 H 0.78845 0.03142 0.25540
 H1967 H 0.75566 0.03144 0.28823
 H1968 H 0.76840 0.05074 0.30080
 C1969 C 0.66933 0.38662 0.31219
 C1970 C 0.68178 0.39257 0.31811
 C1971 C 0.68770 0.38662 0.33056
 C1972 C 0.68125 0.37470 0.33702
 C1973 C 0.66877 0.36855 0.33109
 C1974 C 0.66285 0.37470 0.31862
 C1975 C 0.68864 0.40461 0.31128
 C1976 C 0.69446 0.41460 0.30547
 C1977 C 0.70138 0.42618 0.29858
 C1978 C 0.70736 0.43598 0.29261
 C1979 C 0.71459 0.44757 0.28538
 C1980 C 0.72738 0.45313 0.29097
 C1981 C 0.73460 0.46415 0.28378
 C1982 C 0.72912 0.46974 0.27087
 C1983 C 0.71619 0.46415 0.26539
 C1984 C 0.70899 0.45313 0.27261
 H1985 H 0.66467 0.39113 0.30254
 H1986 H 0.69735 0.39113 0.33523
 H1987 H 0.68610 0.37027 0.34660
 H1988 H 0.65327 0.37027 0.31376
 H1989 H 0.73182 0.44889 0.30084
 H1990 H 0.74452 0.46821 0.28828
 H1991 H 0.71168 0.46821 0.25549
 H1992 H 0.69910 0.44889 0.26818
 C1993 C 0.68766 0.88729 0.83091
 C1994 C 0.68172 0.89324 0.81847
 C1995 C 0.66925 0.88729 0.81257
 C1996 C 0.66279 0.87538 0.81902
 C1997 C 0.66873 0.86923 0.83148
 C1998 C 0.68123 0.87537 0.83738
 C1999 C 0.68857 0.90528 0.81162
 C2000 C 0.69438 0.91526 0.80579
 C2001 C 0.70128 0.92685 0.79888
 C2002 C 0.70725 0.93664 0.79289
 C2003 C 0.71447 0.94822 0.78564
 C2004 C 0.70888 0.95375 0.77286
 C2005 C 0.71608 0.96476 0.76562
 C2006 C 0.72899 0.97037 0.77109
 C2007 C 0.73448 0.96481 0.78402
 C2008 C 0.72726 0.95380 0.79123
 H2009 H 0.69733 0.89180 0.83555
 H2010 H 0.66457 0.89181 0.80294
 H2011 H 0.65319 0.87095 0.81418
 H2012 H 0.68610 0.87094 0.84695
 H2013 H 0.69900 0.94949 0.76843
 H2014 H 0.71157 0.96879 0.75570
 H2015 H 0.74439 0.96888 0.78852
 H2016 H 0.73169 0.94958 0.80112
 C2017 C 0.16902 0.38665 0.81255
 C2018 C 0.18147 0.39261 0.81849
 C2019 C 0.18738 0.38665 0.83094
 C2020 C 0.18094 0.37472 0.83738
 C2021 C 0.16847 0.36857 0.83143
 C2022 C 0.16255 0.37473 0.81897
 C2023 C 0.18832 0.40466 0.81167
 C2024 C 0.19415 0.41465 0.80587
 C2025 C 0.20105 0.42624 0.79898
 C2026 C 0.20703 0.43604 0.79301
 C2027 C 0.21427 0.44763 0.78578
 C2028 C 0.22706 0.45318 0.79136
 C2029 C 0.23429 0.46419 0.78416
 C2030 C 0.22880 0.46978 0.77125
 C2031 C 0.21586 0.46419 0.76579
 C2032 C 0.20866 0.45319 0.77301
 H2033 H 0.16437 0.39118 0.80291
 H2034 H 0.19703 0.39116 0.83562
 H2035 H 0.18579 0.37028 0.84696
 H2036 H 0.15297 0.37029 0.81410
 H2037 H 0.23150 0.44894 0.80124
 H2038 H 0.24421 0.46825 0.78865
 H2039 H 0.21135 0.46825 0.75588
 H2040 H 0.19877 0.44895 0.76859
 C2041 C 0.18751 0.88723 0.33075
 C2042 C 0.18158 0.89317 0.31831
 C2043 C 0.16912 0.88721 0.31240
 C2044 C 0.16266 0.87529 0.31884
 C2045 C 0.16859 0.86915 0.33131
 C2046 C 0.18107 0.87531 0.33722
 C2047 C 0.18842 0.90521 0.31146
 C2048 C 0.19424 0.91520 0.30564
 C2049 C 0.20114 0.92678 0.29873
 C2050 C 0.20712 0.93658 0.29276
 C2051 C 0.21435 0.94816 0.28553
 C2052 C 0.20877 0.95371 0.27274
 C2053 C 0.21598 0.96472 0.26553
 C2054 C 0.22890 0.97032 0.27101
 C2055 C 0.23437 0.96474 0.28394
 C2056 C 0.22714 0.95373 0.29113
 H2057 H 0.19716 0.89175 0.33541
 H2058 H 0.16445 0.89172 0.30275
 H2059 H 0.15307 0.87085 0.31399
 H2060 H 0.18593 0.87088 0.34680
 H2061 H 0.19889 0.94947 0.26830
 H2062 H 0.21148 0.96877 0.25561
 H2063 H 0.24428 0.96880 0.28845
 H2064 H 0.23156 0.94950 0.30101
 C2065 C 0.38670 0.31217 0.66943
 C2066 C 0.39265 0.31809 0.68188
 C2067 C 0.38670 0.33054 0.68781
 C2068 C 0.37478 0.33701 0.68137
 C2069 C 0.36864 0.33108 0.66890
 C2070 C 0.37479 0.31861 0.66297
 C2071 C 0.40470 0.31124 0.68872
 C2072 C 0.41469 0.30542 0.69453
 C2073 C 0.42628 0.29851 0.70142
 C2074 C 0.43608 0.29252 0.70738
 C2075 C 0.44767 0.28528 0.71459
 C2076 C 0.45325 0.29087 0.72736
 C2077 C 0.46427 0.28366 0.73456
 C2078 C 0.46985 0.27074 0.72907
 C2079 C 0.46423 0.26526 0.71617
 C2080 C 0.45321 0.27249 0.70899
 H2081 H 0.39122 0.30252 0.66477
 H2082 H 0.39122 0.33520 0.69746
 H2083 H 0.37035 0.34659 0.68623
 H2084 H 0.37035 0.31375 0.65339
 H2085 H 0.44902 0.30076 0.73180
 H2086 H 0.46835 0.28817 0.74447
 H2087 H 0.46828 0.25534 0.71165
 H2088 H 0.44896 0.26806 0.69911
 C2089 C 0.38693 0.81289 0.16911
 C2090 C 0.39288 0.81881 0.18155
 C2091 C 0.38693 0.83127 0.18748
 C2092 C 0.37501 0.83773 0.18104
 C2093 C 0.36885 0.83180 0.16858
 C2094 C 0.37500 0.81932 0.16265
 C2095 C 0.40492 0.81196 0.18839
 C2096 C 0.41491 0.80615 0.19421
 C2097 C 0.42650 0.79924 0.20111
 C2098 C 0.43629 0.79326 0.20708
 C2099 C 0.44787 0.78602 0.21431
 C2100 C 0.45343 0.79162 0.22709
 C2101 C 0.46443 0.78441 0.23432
 C2102 C 0.47001 0.77148 0.22885
 C2103 C 0.46442 0.76600 0.21593
 C2104 C 0.45342 0.77323 0.20873
 H2105 H 0.39144 0.80324 0.16444
 H2106 H 0.39145 0.83593 0.19712
 H2107 H 0.37057 0.84731 0.18590
 H2108 H 0.37057 0.81446 0.15307
 H2109 H 0.44919 0.80151 0.23152
 H2110 H 0.46849 0.78892 0.24423
 H2111 H 0.46848 0.75608 0.21143
 H2112 H 0.44918 0.76880 0.19885
 C2113 C 0.88707 0.33061 0.18745
 C2114 C 0.89300 0.31814 0.18154
 C2115 C 0.88705 0.31222 0.16909
 C2116 C 0.87514 0.31867 0.16263
 C2117 C 0.86900 0.33116 0.16855
 C2118 C 0.87516 0.33708 0.18101
 C2119 C 0.90504 0.31129 0.18838
 C2120 C 0.91503 0.30547 0.19420
 C2121 C 0.92661 0.29856 0.20110
 C2122 C 0.93641 0.29259 0.20708
 C2123 C 0.94799 0.28536 0.21431
 C2124 C 0.95355 0.27257 0.20873
 C2125 C 0.96456 0.26534 0.21593
 C2126 C 0.97015 0.27083 0.22884
 C2127 C 0.96455 0.28376 0.23431
 C2128 C 0.95354 0.29096 0.22709
 H2129 H 0.89159 0.33527 0.19709
 H2130 H 0.89155 0.30256 0.16443
 H2131 H 0.87070 0.31381 0.15305
 H2132 H 0.87073 0.34668 0.18586
 H2133 H 0.94931 0.26812 0.19885
 H2134 H 0.96862 0.25542 0.21143
 H2135 H 0.96861 0.28827 0.24423
 H2136 H 0.94930 0.30084 0.23152
 C2137 C 0.88700 0.81282 0.66936
 C2138 C 0.89295 0.81875 0.68180
 C2139 C 0.88700 0.83121 0.68772
 C2140 C 0.87508 0.83767 0.68128
 C2141 C 0.86893 0.83173 0.66882
 C2142 C 0.87508 0.81926 0.66289
 C2143 C 0.90499 0.81191 0.68864
 C2144 C 0.91498 0.80608 0.69445
 C2145 C 0.92657 0.79917 0.70134
 C2146 C 0.93636 0.79318 0.70730
 C2147 C 0.94794 0.78592 0.71451
 C2148 C 0.95352 0.79150 0.72729
 C2149 C 0.96453 0.78427 0.73450
 C2150 C 0.97010 0.77134 0.72900
 C2151 C 0.96448 0.76588 0.71608
 C2152 C 0.95348 0.77313 0.70890
 H2153 H 0.89151 0.80317 0.66470
 H2154 H 0.89151 0.83588 0.69736
 H2155 H 0.87064 0.84725 0.68613
 H2156 H 0.87065 0.81439 0.65332
 H2157 H 0.94931 0.80138 0.73174
 H2158 H 0.96861 0.78876 0.74441
 H2159 H 0.96852 0.75596 0.71156
 H2160 H 0.94922 0.76871 0.69903
 C2161 C 0.61323 0.31220 0.33054
 C2162 C 0.60728 0.31812 0.31810
 C2163 C 0.61324 0.33057 0.31218
 C2164 C 0.62516 0.33704 0.31861
 C2165 C 0.63131 0.33111 0.33108
 C2166 C 0.62515 0.31864 0.33701
 C2167 C 0.59523 0.31127 0.31125
 C2168 C 0.58524 0.30546 0.30545
 C2169 C 0.57365 0.29855 0.29855
 C2170 C 0.56384 0.29257 0.29259
 C2171 C 0.55225 0.28534 0.28537
 C2172 C 0.54667 0.29094 0.27260
 C2173 C 0.53564 0.28374 0.26540
 C2174 C 0.53006 0.27081 0.27087
 C2175 C 0.53568 0.26532 0.28377
 C2176 C 0.54670 0.27255 0.29096
 H2177 H 0.60871 0.30255 0.33521
 H2178 H 0.60873 0.33524 0.30253
 H2179 H 0.62960 0.34662 0.31376
 H2180 H 0.62958 0.31379 0.34659
 H2181 H 0.55090 0.30083 0.26817
 H2182 H 0.53157 0.28825 0.25549
 H2183 H 0.53162 0.25540 0.28827
 H2184 H 0.55095 0.26810 0.30082
 C2185 C 0.61320 0.81287 0.83099
 C2186 C 0.60724 0.81880 0.81855
 C2187 C 0.61319 0.83125 0.81263
 C2188 C 0.62511 0.83772 0.81906
 C2189 C 0.63127 0.83179 0.83152
 C2190 C 0.62513 0.81932 0.83744
 C2191 C 0.59519 0.81195 0.81171
 C2192 C 0.58520 0.80612 0.80590
 C2193 C 0.57361 0.79921 0.79900
 C2194 C 0.56382 0.79323 0.79303
 C2195 C 0.55224 0.78599 0.78580
 C2196 C 0.54669 0.79158 0.77301
 C2197 C 0.53568 0.78436 0.76579
 C2198 C 0.53009 0.77144 0.77126
 C2199 C 0.53567 0.76597 0.78419
 C2200 C 0.54667 0.77321 0.79139
 H2201 H 0.60869 0.80322 0.83565
 H2202 H 0.60866 0.83592 0.80299
 H2203 H 0.62954 0.84731 0.81420
 H2204 H 0.62957 0.81446 0.84702
 H2205 H 0.55093 0.80146 0.76858
 H2206 H 0.53163 0.78886 0.75587
 H2207 H 0.53160 0.75605 0.78869
 H2208 H 0.55090 0.76878 0.80127
 C2209 C 0.11300 0.31215 0.83074
 C2210 C 0.10705 0.31809 0.81830
 C2211 C 0.11300 0.33056 0.81241
 C2212 C 0.12491 0.33703 0.81887
 C2213 C 0.13105 0.33109 0.83133
 C2214 C 0.12490 0.31860 0.83723
 C2215 C 0.09502 0.31124 0.81143
 C2216 C 0.08504 0.30542 0.80560
 C2217 C 0.07347 0.29852 0.79867
 C2218 C 0.06368 0.29254 0.79268
 C2219 C 0.05210 0.28530 0.78544
 C2220 C 0.04657 0.29089 0.77264
 C2221 C 0.03556 0.28368 0.76541
 C2222 C 0.02994 0.27077 0.77089
 C2223 C 0.03551 0.26530 0.78383
 C2224 C 0.04652 0.27253 0.79103
 H2225 H 0.10848 0.30249 0.83538
 H2226 H 0.10850 0.33524 0.80276
 H2227 H 0.12934 0.34663 0.81404
 H2228 H 0.12933 0.31373 0.84680
 H2229 H 0.05083 0.30076 0.76821
 H2230 H 0.03153 0.28818 0.75549
 H2231 H 0.03143 0.25540 0.78833
 H2232 H 0.05073 0.26810 0.80092
 C2233 C 0.11309 0.83113 0.31242
 C2234 C 0.10715 0.81867 0.31834
 C2235 C 0.11310 0.81276 0.33079
 C2236 C 0.12501 0.81921 0.33725
 C2237 C 0.13116 0.83169 0.33132
 C2238 C 0.12501 0.83761 0.31885
 C2239 C 0.09511 0.81181 0.31150
 C2240 C 0.08512 0.80597 0.30569
 C2241 C 0.07354 0.79905 0.29880
 C2242 C 0.06375 0.79305 0.29283
 C2243 C 0.05217 0.78579 0.28561
 C2244 C 0.04665 0.77299 0.29120
 C2245 C 0.03565 0.76574 0.28401
 C2246 C 0.03003 0.77121 0.27111
 C2247 C 0.03558 0.78415 0.26563
 C2248 C 0.04659 0.79138 0.27284
 H2249 H 0.10857 0.83578 0.30277
 H2250 H 0.10859 0.80311 0.33546
 H2251 H 0.12945 0.81436 0.34683
 H2252 H 0.12943 0.84719 0.31400
 H2253 H 0.05091 0.76856 0.30107
 H2254 H 0.03162 0.75581 0.28851
 H2255 H 0.03150 0.78865 0.25573
 H2256 H 0.05080 0.80127 0.26841
 C2257 C 0.61324 0.66943 0.68791
 C2258 C 0.60728 0.68188 0.68199
 C2259 C 0.61322 0.68780 0.66953
 C2260 C 0.62513 0.68135 0.66306
 C2261 C 0.63128 0.66887 0.66899
 C2262 C 0.62514 0.66296 0.68146
 C2263 C 0.59525 0.68874 0.68883
 C2264 C 0.58526 0.69456 0.69464
 C2265 C 0.57368 0.70148 0.70154
 C2266 C 0.56388 0.70747 0.70750
 C2267 C 0.55230 0.71472 0.71472
 C2268 C 0.54676 0.72750 0.70911
 C2269 C 0.53574 0.73474 0.71630
 C2270 C 0.53014 0.72927 0.72921
 C2271 C 0.53572 0.71635 0.73470
 C2272 C 0.54673 0.70914 0.72749
 H2273 H 0.60873 0.66477 0.69756
 H2274 H 0.60870 0.69745 0.66487
 H2275 H 0.62955 0.68620 0.65348
 H2276 H 0.62958 0.65337 0.68632
 H2277 H 0.55100 0.73193 0.69924
 H2278 H 0.53169 0.74466 0.71178
 H2279 H 0.53165 0.71185 0.74461
 H2280 H 0.55096 0.69925 0.73193
 C2281 C 0.61303 0.18735 0.16894
 C2282 C 0.60708 0.18142 0.18138
 C2283 C 0.61302 0.16896 0.18729
 C2284 C 0.62494 0.16249 0.18086
 C2285 C 0.63109 0.16843 0.16840
 C2286 C 0.62495 0.18091 0.16248
 C2287 C 0.59504 0.18826 0.18823
 C2288 C 0.58505 0.19408 0.19404
 C2289 C 0.57347 0.20098 0.20095
 C2290 C 0.56367 0.20695 0.20694
 C2291 C 0.55210 0.21418 0.21419
 C2292 C 0.54656 0.20858 0.22696
 C2293 C 0.53556 0.21578 0.23421
 C2294 C 0.52997 0.22871 0.22875
 C2295 C 0.53554 0.23419 0.21583
 C2296 C 0.54654 0.22697 0.20861
 H2297 H 0.60852 0.19700 0.16429
 H2298 H 0.60850 0.16429 0.19693
 H2299 H 0.62937 0.15290 0.18571
 H2300 H 0.62939 0.18577 0.15291
 H2301 H 0.55081 0.19869 0.23138
 H2302 H 0.53152 0.21126 0.24412
 H2303 H 0.53147 0.24412 0.21135
 H2304 H 0.55076 0.23142 0.19874
 C2305 C 0.11312 0.68779 0.16913
 C2306 C 0.10717 0.68186 0.18157
 C2307 C 0.11310 0.66939 0.18748
 C2308 C 0.12501 0.66292 0.18104
 C2309 C 0.13117 0.66885 0.16858
 C2310 C 0.12503 0.68134 0.16267
 C2311 C 0.09513 0.68871 0.18842
 C2312 C 0.08515 0.69453 0.19425
 C2313 C 0.07357 0.70142 0.20117
 C2314 C 0.06378 0.70739 0.20716
 C2315 C 0.05220 0.71460 0.21442
 C2316 C 0.04661 0.72738 0.20885
 C2317 C 0.03561 0.73459 0.21607
 C2318 C 0.03005 0.72909 0.22899
 C2319 C 0.03567 0.71618 0.23445
 C2320 C 0.04668 0.70899 0.22720
 H2321 H 0.10861 0.69745 0.16448
 H2322 H 0.10859 0.66472 0.19712
 H2323 H 0.12944 0.65332 0.18588
 H2324 H 0.12947 0.68620 0.15309
 H2325 H 0.05082 0.73183 0.19896
 H2326 H 0.03152 0.74450 0.21158
 H2327 H 0.03164 0.71166 0.24436
 H2328 H 0.05094 0.69911 0.23162
 C2329 C 0.11297 0.18706 0.66921
 C2330 C 0.10702 0.18114 0.68166
 C2331 C 0.11298 0.16869 0.68759
 C2332 C 0.12489 0.16223 0.68116
 C2333 C 0.13104 0.16815 0.66869
 C2334 C 0.12489 0.18062 0.66276
 C2335 C 0.09498 0.18799 0.68850
 C2336 C 0.08499 0.19382 0.69431
 C2337 C 0.07341 0.20074 0.70120
 C2338 C 0.06362 0.20673 0.70716
 C2339 C 0.05204 0.21400 0.71436
 C2340 C 0.04647 0.20843 0.72714
 C2341 C 0.03546 0.21566 0.73435
 C2342 C 0.02990 0.22859 0.72885
 C2343 C 0.03551 0.23404 0.71593
 C2344 C 0.04651 0.22678 0.70875
 H2345 H 0.10845 0.19671 0.66455
 H2346 H 0.10846 0.16403 0.69724
 H2347 H 0.12933 0.15264 0.68602
 H2348 H 0.12932 0.18547 0.65318
 H2349 H 0.05069 0.19854 0.73159
 H2350 H 0.03139 0.21118 0.74426
 H2351 H 0.03147 0.24396 0.71142
 H2352 H 0.05076 0.23120 0.69888
 C2353 C 0.38685 0.68794 0.33066
 C2354 C 0.39280 0.68202 0.31821
 C2355 C 0.38685 0.66956 0.31229
 C2356 C 0.37494 0.66309 0.31873
 C2357 C 0.36879 0.66901 0.33120
 C2358 C 0.37494 0.68149 0.33712
 C2359 C 0.40484 0.68888 0.31136
 C2360 C 0.41482 0.69470 0.30555
 C2361 C 0.42640 0.70161 0.29865
 C2362 C 0.43620 0.70759 0.29268
 C2363 C 0.44778 0.71483 0.28545
 C2364 C 0.45334 0.70923 0.27268
 C2365 C 0.46436 0.71643 0.26546
 C2366 C 0.46995 0.72936 0.27094
 C2367 C 0.46436 0.73484 0.28385
 C2368 C 0.45334 0.72762 0.29104
 H2369 H 0.39137 0.69760 0.33532
 H2370 H 0.39136 0.66490 0.30264
 H2371 H 0.37050 0.65350 0.31387
 H2372 H 0.37051 0.68635 0.34670
 H2373 H 0.44910 0.69934 0.26824
 H2374 H 0.46842 0.71192 0.25555
 H2375 H 0.46842 0.74476 0.28835
 H2376 H 0.44911 0.73205 0.30092
 C2377 C 0.38686 0.18719 0.83092
 C2378 C 0.39282 0.18127 0.81848
 C2379 C 0.38687 0.16881 0.81256
 C2380 C 0.37495 0.16234 0.81900
 C2381 C 0.36880 0.16827 0.83146
 C2382 C 0.37494 0.18075 0.83738
 C2383 C 0.40486 0.18812 0.81164
 C2384 C 0.41484 0.19394 0.80582
 C2385 C 0.42642 0.20085 0.79892
 C2386 C 0.43622 0.20683 0.79294
 C2387 C 0.44779 0.21406 0.78570
 C2388 C 0.45333 0.20847 0.77291
 C2389 C 0.46433 0.21567 0.76568
 C2390 C 0.46993 0.22860 0.77114
 C2391 C 0.46436 0.23408 0.78407
 C2392 C 0.45336 0.22685 0.79128
 H2393 H 0.39137 0.19685 0.83558
 H2394 H 0.39139 0.16414 0.80292
 H2395 H 0.37052 0.15275 0.81414
 H2396 H 0.37051 0.18561 0.84695
 H2397 H 0.44908 0.19858 0.76848
 H2398 H 0.46837 0.21117 0.75576
 H2399 H 0.46842 0.24400 0.78857
 H2400 H 0.44913 0.23128 0.80116
 C2401 C 0.88701 0.66940 0.81251
 C2402 C 0.89295 0.68187 0.81841
 C2403 C 0.88700 0.68780 0.83085
 C2404 C 0.87509 0.68136 0.83732
 C2405 C 0.86895 0.66886 0.83142
 C2406 C 0.87510 0.66293 0.81895
 C2407 C 0.90498 0.68873 0.81155
 C2408 C 0.91496 0.69454 0.80573
 C2409 C 0.92654 0.70145 0.79881
 C2410 C 0.93634 0.70742 0.79283
 C2411 C 0.94791 0.71465 0.78559
 C2412 C 0.95350 0.72743 0.79118
 C2413 C 0.96451 0.73465 0.78397
 C2414 C 0.97007 0.72917 0.77104
 C2415 C 0.96445 0.71626 0.76556
 C2416 C 0.95344 0.70906 0.77279
 H2417 H 0.89152 0.66473 0.80286
 H2418 H 0.89151 0.69747 0.83550
 H2419 H 0.87066 0.68622 0.84690
 H2420 H 0.87067 0.65333 0.81411
 H2421 H 0.94929 0.73186 0.80107
 H2422 H 0.96859 0.74456 0.78848
 H2423 H 0.96848 0.71176 0.75564
 H2424 H 0.94918 0.69919 0.76836
 C2425 C 0.88705 0.18732 0.33065
 C2426 C 0.89299 0.18140 0.31820
 C2427 C 0.88703 0.16895 0.31227
 C2428 C 0.87511 0.16249 0.31870
 C2429 C 0.86897 0.16841 0.33117
 C2430 C 0.87513 0.18088 0.33710
 C2431 C 0.90504 0.18825 0.31136
 C2432 C 0.91503 0.19406 0.30555
 C2433 C 0.92662 0.20097 0.29866
 C2434 C 0.93642 0.20695 0.29269
 C2435 C 0.94800 0.21418 0.28546
 C2436 C 0.95356 0.20858 0.27269
 C2437 C 0.96457 0.21579 0.26547
 C2438 C 0.97016 0.22872 0.27094
 C2439 C 0.96457 0.23420 0.28385
 C2440 C 0.95356 0.22697 0.29105
 H2441 H 0.89157 0.19697 0.33532
 H2442 H 0.89154 0.16429 0.30262
 H2443 H 0.87067 0.15291 0.31384
 H2444 H 0.87070 0.18574 0.34669
 H2445 H 0.94933 0.19870 0.26826
 H2446 H 0.96863 0.21128 0.25556
 H2447 H 0.96863 0.24413 0.28835
 H2448 H 0.94932 0.23141 0.30092
 C2449 C 0.33066 0.31216 0.61343
 C2450 C 0.31820 0.31808 0.60748
 C2451 C 0.31228 0.33053 0.61343
 C2452 C 0.31872 0.33700 0.62534
 C2453 C 0.33119 0.33108 0.63148
 C2454 C 0.33712 0.31860 0.62534
 C2455 C 0.31135 0.31122 0.59545
 C2456 C 0.30554 0.30541 0.58546
 C2457 C 0.29863 0.29850 0.57388
 C2458 C 0.29265 0.29253 0.56409
 C2459 C 0.28542 0.28530 0.55251
 C2460 C 0.27262 0.29089 0.54697
 C2461 C 0.26540 0.28370 0.53596
 C2462 C 0.27087 0.27078 0.53035
 C2463 C 0.28380 0.26530 0.53593
 C2464 C 0.29101 0.27252 0.54694
 H2465 H 0.33532 0.30250 0.60892
 H2466 H 0.30262 0.33519 0.60892
 H2467 H 0.31386 0.34658 0.62977
 H2468 H 0.34671 0.31374 0.62977
 H2469 H 0.26819 0.30077 0.55121
 H2470 H 0.25547 0.28821 0.53191
 H2471 H 0.28831 0.25538 0.53186
 H2472 H 0.30090 0.26808 0.55117
 C2473 C 0.31245 0.83121 0.11315
 C2474 C 0.31838 0.81876 0.10720
 C2475 C 0.33085 0.81285 0.11313
 C2476 C 0.33732 0.81930 0.12504
 C2477 C 0.33138 0.83177 0.13119
 C2478 C 0.31889 0.83768 0.12505
 C2479 C 0.31153 0.81190 0.09517
 C2480 C 0.30572 0.80606 0.08520
 C2481 C 0.29882 0.79913 0.07362
 C2482 C 0.29286 0.79313 0.06384
 C2483 C 0.28565 0.78586 0.05227
 C2484 C 0.29127 0.77306 0.04675
 C2485 C 0.28409 0.76580 0.03576
 C2486 C 0.27116 0.77125 0.03014
 C2487 C 0.26566 0.78418 0.03569
 C2488 C 0.27286 0.79142 0.04669
 H2489 H 0.30279 0.83586 0.10865
 H2490 H 0.33552 0.80320 0.10862
 H2491 H 0.34692 0.81446 0.12946
 H2492 H 0.31403 0.84726 0.12949
 H2493 H 0.30115 0.76865 0.05101
 H2494 H 0.28861 0.75588 0.03173
 H2495 H 0.25574 0.78866 0.03161
 H2496 H 0.26841 0.80131 0.05089
 C2497 C 0.83097 0.31226 0.11308
 C2498 C 0.81853 0.31820 0.10713
 C2499 C 0.81263 0.33067 0.11308
 C2500 C 0.81908 0.33713 0.12498
 C2501 C 0.83155 0.33118 0.13113
 C2502 C 0.83745 0.31869 0.12499
 C2503 C 0.81166 0.31136 0.09510
 C2504 C 0.80582 0.30556 0.08512
 C2505 C 0.79889 0.29867 0.07355
 C2506 C 0.79288 0.29271 0.06376
 C2507 C 0.78562 0.28550 0.05219
 C2508 C 0.77282 0.29111 0.04668
 C2509 C 0.76556 0.28393 0.03568
 C2510 C 0.77103 0.27101 0.03005
 C2511 C 0.78397 0.26552 0.03559
 C2512 C 0.79120 0.27272 0.04660
 H2513 H 0.83562 0.30259 0.10857
 H2514 H 0.80298 0.33535 0.10856
 H2515 H 0.81425 0.34673 0.12941
 H2516 H 0.84703 0.31382 0.12942
 H2517 H 0.76840 0.30098 0.05095
 H2518 H 0.75564 0.28844 0.03165
 H2519 H 0.78846 0.25561 0.03151
 H2520 H 0.80109 0.26828 0.05080
 C2521 C 0.83093 0.81275 0.61338
 C2522 C 0.81847 0.81865 0.60743
 C2523 C 0.81254 0.83110 0.61337
 C2524 C 0.81898 0.83759 0.62527
 C2525 C 0.83147 0.83168 0.63142
 C2526 C 0.83740 0.81921 0.62528
 C2527 C 0.81162 0.81178 0.59541
 C2528 C 0.80581 0.80594 0.58544
 C2529 C 0.79891 0.79901 0.57387
 C2530 C 0.79293 0.79301 0.56409
 C2531 C 0.78571 0.78575 0.55252
 C2532 C 0.79130 0.77294 0.54701
 C2533 C 0.78410 0.76569 0.53601
 C2534 C 0.77119 0.77117 0.53040
 C2535 C 0.76571 0.78411 0.53595
 C2536 C 0.77293 0.79134 0.54694
 H2537 H 0.83561 0.80309 0.60887
 H2538 H 0.80288 0.83576 0.60886
 H2539 H 0.81412 0.84718 0.62970
 H2540 H 0.84700 0.81436 0.62971
 H2541 H 0.80117 0.76851 0.55126
 H2542 H 0.78860 0.75576 0.53198
 H2543 H 0.75580 0.78861 0.53187
 H2544 H 0.76850 0.80124 0.55115
 C2545 C 0.33083 0.68791 0.38668
 C2546 C 0.31838 0.68198 0.39263
 C2547 C 0.31246 0.66952 0.38669
 C2548 C 0.31890 0.66305 0.37478
 C2549 C 0.33137 0.66899 0.36863
 C2550 C 0.33730 0.68147 0.37477
 C2551 C 0.31154 0.68882 0.40467
 C2552 C 0.30572 0.69463 0.41465
 C2553 C 0.29881 0.70153 0.42623
 C2554 C 0.29282 0.70749 0.43603
 C2555 C 0.28558 0.71471 0.44760
 C2556 C 0.27278 0.70910 0.45313
 C2557 C 0.26554 0.71628 0.46414
 C2558 C 0.27102 0.72920 0.46975
 C2559 C 0.28395 0.73470 0.46419
 C2560 C 0.29116 0.72749 0.45318
 H2561 H 0.33549 0.69757 0.39119
 H2562 H 0.30282 0.66484 0.39120
 H2563 H 0.31405 0.65346 0.37035
 H2564 H 0.34688 0.68634 0.37034
 H2565 H 0.26835 0.69922 0.44887
 H2566 H 0.25562 0.71177 0.46817
 H2567 H 0.28845 0.74461 0.46827
 H2568 H 0.30105 0.73193 0.44897
 C2569 C 0.33079 0.18721 0.88689
 C2570 C 0.31832 0.18130 0.89282
 C2571 C 0.31240 0.16884 0.88688
 C2572 C 0.31885 0.16236 0.87498
 C2573 C 0.33133 0.16829 0.86884
 C2574 C 0.33726 0.18076 0.87499
 C2575 C 0.31147 0.18816 0.90485
 C2576 C 0.30565 0.19398 0.91482
 C2577 C 0.29874 0.20090 0.92639
 C2578 C 0.29277 0.20689 0.93617
 C2579 C 0.28553 0.21413 0.94774
 C2580 C 0.27275 0.20853 0.95330
 C2581 C 0.26552 0.21574 0.96430
 C2582 C 0.27099 0.22868 0.96986
 C2583 C 0.28391 0.23417 0.96426
 C2584 C 0.29111 0.22694 0.95327
 H2585 H 0.33546 0.19687 0.89140
 H2586 H 0.30274 0.16418 0.89138
 H2587 H 0.31399 0.15278 0.87054
 H2588 H 0.34685 0.18562 0.87057
 H2589 H 0.26832 0.19863 0.94908
 H2590 H 0.25561 0.21123 0.96836
 H2591 H 0.28840 0.24411 0.96830
 H2592 H 0.30099 0.23138 0.94902
 C2593 C 0.83096 0.68780 0.88688
 C2594 C 0.81852 0.68186 0.89283
 C2595 C 0.81262 0.66938 0.88690
 C2596 C 0.81906 0.66291 0.87500
 C2597 C 0.83153 0.66886 0.86885
 C2598 C 0.83744 0.68135 0.87497
 C2599 C 0.81166 0.68870 0.90486
 C2600 C 0.80583 0.69452 0.91484
 C2601 C 0.79891 0.70141 0.92641
 C2602 C 0.79291 0.70737 0.93619
 C2603 C 0.78565 0.71459 0.94776
 C2604 C 0.77284 0.70900 0.95326
 C2605 C 0.76559 0.71618 0.96426
 C2606 C 0.77107 0.72909 0.96989
 C2607 C 0.78402 0.73457 0.96436
 C2608 C 0.79125 0.72736 0.95336
 H2609 H 0.83562 0.69746 0.89138
 H2610 H 0.80297 0.66470 0.89142
 H2611 H 0.81422 0.65331 0.87058
 H2612 H 0.84701 0.68622 0.87054
 H2613 H 0.76841 0.69913 0.94899
 H2614 H 0.75565 0.71168 0.96827
 H2615 H 0.78853 0.74448 0.96846
 H2616 H 0.80115 0.73180 0.94917
 C2617 C 0.83099 0.18732 0.38664
 C2618 C 0.81853 0.18141 0.39257
 C2619 C 0.81259 0.16896 0.38661
 C2620 C 0.81903 0.16249 0.37470
 C2621 C 0.83152 0.16841 0.36857
 C2622 C 0.83745 0.18088 0.37473
 C2623 C 0.81168 0.18826 0.40460
 C2624 C 0.80586 0.19407 0.41458
 C2625 C 0.79895 0.20098 0.42616
 C2626 C 0.79298 0.20696 0.43595
 C2627 C 0.78574 0.21420 0.44752
 C2628 C 0.77296 0.20860 0.45307
 C2629 C 0.76573 0.21581 0.46407
 C2630 C 0.77120 0.22875 0.46965
 C2631 C 0.78413 0.23423 0.46406
 C2632 C 0.79133 0.22699 0.45306
 H2633 H 0.83566 0.19697 0.39116
 H2634 H 0.80293 0.16430 0.39112
 H2635 H 0.81417 0.15291 0.37027
 H2636 H 0.84705 0.18574 0.37031
 H2637 H 0.76852 0.19871 0.44884
 H2638 H 0.75581 0.21131 0.46812
 H2639 H 0.78863 0.24415 0.46811
 H2640 H 0.80122 0.23143 0.44883
 C2641 C 0.68766 0.33058 0.38656
 C2642 C 0.68174 0.31812 0.39251
 C2643 C 0.66928 0.31220 0.38656
 C2644 C 0.66282 0.31864 0.37465
 C2645 C 0.66875 0.33112 0.36850
 C2646 C 0.68122 0.33705 0.37465
 C2647 C 0.68858 0.31128 0.40454
 C2648 C 0.69440 0.30547 0.41452
 C2649 C 0.70131 0.29857 0.42610
 C2650 C 0.70729 0.29260 0.43589
 C2651 C 0.71453 0.28537 0.44747
 C2652 C 0.70894 0.27258 0.45303
 C2653 C 0.71615 0.26537 0.46403
 C2654 C 0.72907 0.27086 0.46962
 C2655 C 0.73455 0.28378 0.46402
 C2656 C 0.72732 0.29098 0.45302
 H2657 H 0.69732 0.33525 0.39107
 H2658 H 0.66461 0.30255 0.39107
 H2659 H 0.65323 0.31378 0.37022
 H2660 H 0.68609 0.34663 0.37022
 H2661 H 0.69905 0.26814 0.44880
 H2662 H 0.71164 0.25545 0.46809
 H2663 H 0.74447 0.28829 0.46808
 H2664 H 0.73175 0.30086 0.44878
 C2665 C 0.68771 0.83122 0.88691
 C2666 C 0.68178 0.81877 0.89286
 C2667 C 0.66931 0.81286 0.88693
 C2668 C 0.66283 0.81931 0.87504
 C2669 C 0.66876 0.83178 0.86889
 C2670 C 0.68125 0.83770 0.87502
 C2671 C 0.68863 0.81191 0.90489
 C2672 C 0.69445 0.80608 0.91486
 C2673 C 0.70134 0.79915 0.92643
 C2674 C 0.70731 0.79315 0.93621
 C2675 C 0.71451 0.78587 0.94777
 C2676 C 0.70889 0.77308 0.95328
 C2677 C 0.71607 0.76581 0.96427
 C2678 C 0.72899 0.77126 0.96990
 C2679 C 0.73450 0.78419 0.96436
 C2680 C 0.72730 0.79144 0.95336
 H2681 H 0.69737 0.83588 0.89141
 H2682 H 0.66463 0.80321 0.89145
 H2683 H 0.65323 0.81446 0.87062
 H2684 H 0.68612 0.84728 0.87058
 H2685 H 0.69901 0.76866 0.94901
 H2686 H 0.71154 0.75589 0.96829
 H2687 H 0.74442 0.78868 0.96845
 H2688 H 0.73176 0.80133 0.94917
 C2689 C 0.18735 0.33053 0.88686
 C2690 C 0.18144 0.31805 0.89278
 C2691 C 0.16899 0.31213 0.88681
 C2692 C 0.16253 0.31858 0.87491
 C2693 C 0.16845 0.33107 0.86879
 C2694 C 0.18092 0.33701 0.87496
 C2695 C 0.18828 0.31120 0.90481
 C2696 C 0.19410 0.30537 0.91479
 C2697 C 0.20101 0.29847 0.92636
 C2698 C 0.20700 0.29250 0.93614
 C2699 C 0.21425 0.28527 0.94771
 C2700 C 0.20868 0.27248 0.95327
 C2701 C 0.21590 0.26526 0.96427
 C2702 C 0.22882 0.27077 0.96985
 C2703 C 0.23428 0.28370 0.96426
 C2704 C 0.22704 0.29089 0.95326
 H2705 H 0.19700 0.33520 0.89139
 H2706 H 0.16433 0.30246 0.89130
 H2707 H 0.15295 0.31372 0.87046
 H2708 H 0.18577 0.34660 0.87055
 H2709 H 0.19880 0.26803 0.94904
 H2710 H 0.21141 0.25534 0.96833
 H2711 H 0.24420 0.28822 0.96831
 H2712 H 0.23146 0.30078 0.94902
 C2713 C 0.16915 0.81281 0.38678
 C2714 C 0.18161 0.81873 0.39272
 C2715 C 0.18754 0.83118 0.38677
 C2716 C 0.18109 0.83765 0.37487
 C2717 C 0.16861 0.83172 0.36873
 C2718 C 0.16268 0.81925 0.37488
 C2719 C 0.18847 0.81188 0.40475
 C2720 C 0.19428 0.80606 0.41473
 C2721 C 0.20118 0.79914 0.42630
 C2722 C 0.20715 0.79315 0.43609
 C2723 C 0.21438 0.78589 0.44766
 C2724 C 0.22716 0.79148 0.45324
 C2725 C 0.23437 0.78426 0.46423
 C2726 C 0.22889 0.77132 0.46979
 C2727 C 0.21597 0.76585 0.46417
 C2728 C 0.20878 0.77309 0.45318
 H2729 H 0.16449 0.80315 0.39130
 H2730 H 0.19720 0.83585 0.39128
 H2731 H 0.18595 0.84723 0.37044
 H2732 H 0.15309 0.81439 0.37045
 H2733 H 0.23160 0.80138 0.44902
 H2734 H 0.24429 0.78876 0.46831
 H2735 H 0.21146 0.75592 0.46820
 H2736 H 0.19890 0.76866 0.44892
 C2737 C 0.68759 0.66938 0.61348
 C2738 C 0.68167 0.68184 0.60754
 C2739 C 0.66922 0.68777 0.61349
 C2740 C 0.66276 0.68133 0.62541
 C2741 C 0.66869 0.66885 0.63155
 C2742 C 0.68116 0.66292 0.62539
 C2743 C 0.68851 0.68868 0.59550
 C2744 C 0.69433 0.69449 0.58552
 C2745 C 0.70124 0.70139 0.57394
 C2746 C 0.70722 0.70735 0.56414
 C2747 C 0.71447 0.71456 0.55257
 C2748 C 0.70889 0.72735 0.54699
 C2749 C 0.71611 0.73455 0.53599
 C2750 C 0.72904 0.72906 0.53042
 C2751 C 0.73450 0.71613 0.53603
 C2752 C 0.72726 0.70895 0.54704
 H2753 H 0.69723 0.66471 0.60896
 H2754 H 0.66456 0.69742 0.60899
 H2755 H 0.65318 0.68619 0.62984
 H2756 H 0.68601 0.65333 0.62982
 H2757 H 0.69901 0.73180 0.55121
 H2758 H 0.71162 0.74447 0.53191
 H2759 H 0.74442 0.71161 0.53199
 H2760 H 0.73168 0.69907 0.55129
 C2761 C 0.66912 0.18737 0.11298
 C2762 C 0.68158 0.18145 0.10704
 C2763 C 0.68750 0.16900 0.11299
 C2764 C 0.68105 0.16252 0.12489
 C2765 C 0.66856 0.16844 0.13102
 C2766 C 0.66264 0.18092 0.12488
 C2767 C 0.68844 0.18831 0.09502
 C2768 C 0.69426 0.19414 0.08505
 C2769 C 0.70117 0.20106 0.07349
 C2770 C 0.70714 0.20705 0.06371
 C2771 C 0.71437 0.21431 0.05214
 C2772 C 0.72715 0.20873 0.04657
 C2773 C 0.73437 0.21596 0.03558
 C2774 C 0.72888 0.22889 0.03002
 C2775 C 0.71596 0.23436 0.03563
 C2776 C 0.70877 0.22711 0.04662
 H2777 H 0.66445 0.19702 0.10847
 H2778 H 0.69716 0.16434 0.10849
 H2779 H 0.68590 0.15294 0.12932
 H2780 H 0.65305 0.18578 0.12930
 H2781 H 0.73159 0.19883 0.05078
 H2782 H 0.74428 0.21146 0.03150
 H2783 H 0.71145 0.24429 0.03160
 H2784 H 0.69889 0.23154 0.05088
 C2785 C 0.18754 0.66936 0.11313
 C2786 C 0.18163 0.68182 0.10719
 C2787 C 0.16918 0.68776 0.11313
 C2788 C 0.16270 0.68132 0.12503
 C2789 C 0.16861 0.66883 0.13117
 C2790 C 0.18108 0.66289 0.12503
 C2791 C 0.18849 0.68867 0.09516
 C2792 C 0.19433 0.69448 0.08518
 C2793 C 0.20125 0.70137 0.07362
 C2794 C 0.20725 0.70734 0.06383
 C2795 C 0.21450 0.71456 0.05227
 C2796 C 0.20891 0.72733 0.04667
 C2797 C 0.21613 0.73454 0.03568
 C2798 C 0.22908 0.72907 0.03013
 C2799 C 0.23456 0.71616 0.03576
 C2800 C 0.22731 0.70897 0.04676
 H2801 H 0.19718 0.66468 0.10862
 H2802 H 0.16453 0.69742 0.10862
 H2803 H 0.15312 0.68619 0.12946
 H2804 H 0.18593 0.65330 0.12945
 H2805 H 0.19901 0.73176 0.05087
 H2806 H 0.21163 0.74445 0.03159
 H2807 H 0.24449 0.71166 0.03174
 H2808 H 0.23175 0.69910 0.05102
 C2809 C 0.16902 0.18708 0.61324
 C2810 C 0.18149 0.18117 0.60731
 C2811 C 0.18742 0.16872 0.61326
 C2812 C 0.18098 0.16225 0.62516
 C2813 C 0.16850 0.16816 0.63130
 C2814 C 0.16256 0.18063 0.62515
 C2815 C 0.18834 0.18803 0.59528
 C2816 C 0.19415 0.19386 0.58531
 C2817 C 0.20105 0.20079 0.57374
 C2818 C 0.20702 0.20679 0.56396
 C2819 C 0.21425 0.21404 0.55240
 C2820 C 0.22703 0.20846 0.54683
 C2821 C 0.23425 0.21569 0.53584
 C2822 C 0.22877 0.22863 0.53028
 C2823 C 0.21584 0.23409 0.53588
 C2824 C 0.20865 0.22684 0.54687
 H2825 H 0.16435 0.19673 0.60873
 H2826 H 0.19709 0.16407 0.60876
 H2827 H 0.18585 0.15267 0.62959
 H2828 H 0.15296 0.18548 0.62957
 H2829 H 0.23147 0.19857 0.55104
 H2830 H 0.24417 0.21120 0.53177
 H2831 H 0.21133 0.24402 0.53185
 H2832 H 0.19876 0.23126 0.55112
   
