data_POSCAR
  _audit_creation_date              2014-09-24
  _audit_creation_method            'ToBaCCo'
  _symmetry_space_group_name_H-M    'P1'
  _symmetry_Int_Tables_number       1
  _symmetry_cell_setting            triclinic
  loop_
  _symmetry_equiv_pos_as_xyz
 x,y,z
_cell_length_a 84.5505
_cell_length_b 84.7437
_cell_length_c 84.8012
_cell_angle_alpha 89.980400
_cell_angle_beta 89.985500
_cell_angle_gamma 89.947100
loop_
  _atom_site_label
  _atom_site_type_symbol
  _atom_site_fract_x
  _atom_site_fract_y
  _atom_site_fract_z
N1 N 0.36180 0.31820 0.32940
 N2 N 0.36141 0.32896 0.31824
 C3 C 0.37375 0.32668 0.30844
 C4 C 0.38239 0.31386 0.31379
 C5 C 0.37443 0.30879 0.32714
 H6 H 0.37640 0.33395 0.29831
 H7 H 0.37749 0.29890 0.33459
 Cu8 Cu 0.34503 0.34512 0.31787
 Cu9 Cu 0.34597 0.31715 0.34603
 Cu10 Cu 0.31693 0.34605 0.34595
 N11 N 0.32891 0.36154 0.31827
 N12 N 0.31784 0.36168 0.32915
 C13 C 0.30821 0.37409 0.32668
 C14 C 0.31357 0.38227 0.31359
 C15 C 0.32676 0.37395 0.30857
 H16 H 0.29821 0.37709 0.33403
 H17 H 0.33414 0.37667 0.29853
 N18 N 0.31801 0.32923 0.36196
 N19 N 0.32893 0.31810 0.36187
 C20 C 0.32647 0.30838 0.37419
 C21 C 0.31344 0.31369 0.38252
 C22 C 0.30839 0.32695 0.37441
 H23 H 0.33379 0.29832 0.37707
 H24 H 0.29837 0.33432 0.37731
 H25 H 0.32797 0.32809 0.33365
 H26 H 0.34086 0.34100 0.34602
 N27 N 0.36182 0.81796 -0.17123
 N28 N 0.36242 0.82967 -0.18136
 C29 C 0.37511 0.82771 -0.19077
 C30 C 0.38287 0.81391 -0.18640
 C31 C 0.37397 0.80806 -0.17394
 H32 H 0.37824 0.83562 -0.20026
 H33 H 0.37627 0.79759 -0.16703
 Cu34 Cu 0.34618 0.84597 -0.18147
 Cu35 Cu 0.34581 0.81676 -0.15474
 Cu36 Cu 0.31702 0.84598 -0.15466
 N37 N 0.32998 0.86232 -0.18142
 N38 N 0.31826 0.86185 -0.17127
 C39 C 0.30839 0.87399 -0.17407
 C40 C 0.31429 0.88276 -0.18661
 C41 C 0.32809 0.87493 -0.19092
 H42 H 0.29791 0.87640 -0.16718
 H43 H 0.33600 0.87794 -0.20045
 N44 N 0.31785 0.82894 -0.13884
 N45 N 0.32868 0.81771 -0.13899
 C46 C 0.32621 0.80802 -0.12664
 C47 C 0.31326 0.81344 -0.11824
 C48 C 0.30828 0.82673 -0.12634
 H49 H 0.33352 0.79797 -0.12374
 H50 H 0.29838 0.83423 -0.12334
 H51 H 0.32841 0.82841 -0.16714
 H52 H 0.34091 0.84063 -0.15376
 N53 N 0.86176 0.31861 -0.17080
 N54 N 0.86214 0.33018 -0.18112
 C55 C 0.87463 0.32811 -0.19076
 C56 C 0.88248 0.31447 -0.18627
 C57 C 0.87394 0.30876 -0.17356
 H58 H 0.87767 0.33580 -0.20046
 H59 H 0.87649 0.29833 -0.16666
 Cu60 Cu 0.84598 0.34651 -0.18102
 Cu61 Cu 0.84573 0.31733 -0.15432
 Cu62 Cu 0.81676 0.34643 -0.15431
 N63 N 0.82978 0.36282 -0.18101
 N64 N 0.81804 0.36233 -0.17088
 C65 C 0.80815 0.37445 -0.17372
 C66 C 0.81406 0.38320 -0.18626
 C67 C 0.82788 0.37540 -0.19053
 H68 H 0.79763 0.37681 -0.16689
 H69 H 0.83582 0.37840 -0.20004
 N70 N 0.81763 0.32935 -0.13852
 N71 N 0.82853 0.31819 -0.13863
 C72 C 0.82607 0.30847 -0.12630
 C73 C 0.81306 0.31381 -0.11796
 C74 C 0.80802 0.32707 -0.12606
 H75 H 0.83344 0.29847 -0.12338
 H76 H 0.79806 0.33450 -0.12309
 H77 H 0.82822 0.32890 -0.16677
 H78 H 0.84060 0.34117 -0.15333
 N79 N 0.86134 0.81819 0.32891
 N80 N 0.86088 0.82890 0.31771
 C81 C 0.87314 0.82656 0.30783
 C82 C 0.88181 0.81375 0.31319
 C83 C 0.87393 0.80875 0.32661
 H84 H 0.87580 0.83385 0.29771
 H85 H 0.87709 0.79895 0.33414
 Cu86 Cu 0.84472 0.84529 0.31765
 Cu87 Cu 0.84579 0.81737 0.34582
 Cu88 Cu 0.81731 0.84682 0.34632
 N89 N 0.82844 0.86155 0.31788
 N90 N 0.81816 0.86239 0.32947
 C91 C 0.80884 0.87508 0.32732
 C92 C 0.81338 0.88265 0.31351
 C93 C 0.82587 0.87360 0.30784
 H94 H 0.79932 0.87832 0.33518
 H95 H 0.83287 0.87581 0.29741
 N96 N 0.81837 0.82994 0.36228
 N97 N 0.82905 0.81858 0.36194
 C98 C 0.82653 0.80879 0.37420
 C99 C 0.81370 0.81428 0.38273
 C100 C 0.80884 0.82772 0.37481
 H101 H 0.83367 0.79855 0.37687
 H102 H 0.79895 0.83522 0.37784
 H103 H 0.82771 0.82863 0.33380
 H104 H 0.84109 0.84127 0.34591
 N105 N 0.63871 0.68252 0.32895
 N106 N 0.63785 0.67060 0.31908
 C107 C 0.62498 0.67243 0.30990
 C108 C 0.61739 0.68628 0.31420
 C109 C 0.62649 0.69236 0.32635
 H110 H 0.62154 0.66441 0.30061
 H111 H 0.62437 0.70310 0.33290
 Cu112 Cu 0.65383 0.65406 0.31904
 Cu113 Cu 0.65579 0.68455 0.34420
 Cu114 Cu 0.68278 0.65385 0.34623
 N115 N 0.67040 0.63811 0.31886
 N116 N 0.68172 0.63817 0.32948
 C117 C 0.69153 0.62595 0.32676
 C118 C 0.68603 0.61771 0.31378
 C119 C 0.67258 0.62579 0.30908
 H120 H 0.70176 0.62315 0.33388
 H121 H 0.66502 0.62295 0.29920
 N122 N 0.68186 0.67097 0.36194
 N123 N 0.67173 0.68279 0.36104
 C124 C 0.67412 0.69255 0.37334
 C125 C 0.68635 0.68660 0.38244
 C126 C 0.69094 0.67289 0.37483
 H127 H 0.66728 0.70309 0.37563
 H128 H 0.70034 0.66498 0.37832
 H129 H 0.67279 0.67102 0.33253
 H130 H 0.65916 0.66054 0.34639
 N131 N 0.63889 0.18219 -0.17101
 N132 N 0.63789 0.17015 -0.18071
 C133 C 0.62502 0.17199 -0.18989
 C134 C 0.61756 0.18596 -0.18574
 C135 C 0.62674 0.19210 -0.17369
 H136 H 0.62150 0.16390 -0.19909
 H137 H 0.62474 0.20294 -0.16727
 Cu138 Cu 0.65374 0.15345 -0.18070
 Cu139 Cu 0.65601 0.18427 -0.15584
 Cu140 Cu 0.68336 0.15393 -0.15415
 N141 N 0.67048 0.13765 -0.18094
 N142 N 0.68225 0.13819 -0.17085
 C143 C 0.69227 0.12620 -0.17380
 C144 C 0.68638 0.11743 -0.18633
 C145 C 0.67247 0.12513 -0.19051
 H146 H 0.70281 0.12387 -0.16699
 H147 H 0.66450 0.12205 -0.19996
 N148 N 0.68242 0.17102 -0.13840
 N149 N 0.67211 0.18269 -0.13915
 C150 C 0.67441 0.19240 -0.12680
 C151 C 0.68677 0.18657 -0.11780
 C152 C 0.69153 0.17298 -0.12553
 H153 H 0.66741 0.20279 -0.12438
 H154 H 0.70103 0.16516 -0.12211
 H155 H 0.67280 0.17077 -0.16787
 H156 H 0.65963 0.16027 -0.15355
 N157 N 0.13919 0.68288 -0.17173
 N158 N 0.13871 0.67127 -0.18199
 C159 C 0.12589 0.67307 -0.19124
 C160 C 0.11795 0.68660 -0.18659
 C161 C 0.12678 0.69252 -0.17417
 H162 H 0.12268 0.66523 -0.20076
 H163 H 0.12432 0.70298 -0.16729
 Cu164 Cu 0.15497 0.65503 -0.18201
 Cu165 Cu 0.15603 0.68473 -0.15611
 Cu166 Cu 0.18254 0.65351 -0.15368
 N167 N 0.17108 0.63865 -0.18200
 N168 N 0.18158 0.63792 -0.17059
 C169 C 0.19090 0.62525 -0.17284
 C170 C 0.18604 0.61760 -0.18642
 C171 C 0.17344 0.62648 -0.19195
 H172 H 0.20059 0.62195 -0.16521
 H173 H 0.16632 0.62407 -0.20226
 N174 N 0.18158 0.67063 -0.13794
 N175 N 0.17166 0.68262 -0.13898
 C176 C 0.17411 0.69239 -0.12669
 C177 C 0.18616 0.68628 -0.11746
 C178 C 0.19058 0.67245 -0.12497
 H179 H 0.16749 0.70309 -0.12455
 H180 H 0.19986 0.66444 -0.12140
 H181 H 0.17347 0.67134 -0.16712
 H182 H 0.15908 0.66071 -0.15428
 N183 N 0.13799 0.18175 0.32968
 N184 N 0.13791 0.17049 0.31902
 C185 C 0.12554 0.17271 0.30926
 C186 C 0.11747 0.18613 0.31402
 C187 C 0.12576 0.19156 0.32701
 H188 H 0.12268 0.16520 0.29937
 H189 H 0.12297 0.20174 0.33416
 Cu190 Cu 0.15388 0.15394 0.31913
 Cu191 Cu 0.15373 0.18275 0.34640
 Cu192 Cu 0.18448 0.15581 0.34427
 N193 N 0.17046 0.13798 0.31911
 N194 N 0.18242 0.13882 0.32896
 C195 C 0.19228 0.12663 0.32633
 C196 C 0.18615 0.11757 0.31418
 C197 C 0.17227 0.12516 0.30991
 H198 H 0.20304 0.12448 0.33287
 H199 H 0.16422 0.12174 0.30062
 N200 N 0.18274 0.17168 0.36115
 N201 N 0.17089 0.18179 0.36209
 C202 C 0.17284 0.19081 0.37500
 C203 C 0.18659 0.18621 0.38258
 C204 C 0.19254 0.17403 0.37344
 H205 H 0.16491 0.20018 0.37853
 H206 H 0.20310 0.16721 0.37570
 H207 H 0.17091 0.17280 0.33265
 H208 H 0.16042 0.15917 0.34649
 N209 N 0.63840 0.31797 0.67089
 N210 N 0.63815 0.32936 0.68140
 C211 C 0.62574 0.32717 0.69111
 C212 C 0.61781 0.31364 0.68646
 C213 C 0.62623 0.30812 0.67359
 H214 H 0.62274 0.33478 0.70089
 H215 H 0.62355 0.29785 0.66653
 Cu216 Cu 0.65396 0.34604 0.68117
 Cu217 Cu 0.65420 0.31691 0.65420
 Cu218 Cu 0.68422 0.34463 0.65560
 N219 N 0.67037 0.36217 0.68106
 N220 N 0.68219 0.36154 0.67102
 C221 C 0.69196 0.37379 0.67363
 C222 C 0.68594 0.38267 0.68598
 C223 C 0.67219 0.37492 0.69037
 H224 H 0.70263 0.37605 0.66699
 H225 H 0.66425 0.37817 0.69982
 N226 N 0.68265 0.32859 0.63885
 N227 N 0.67132 0.31789 0.63846
 C228 C 0.67352 0.30854 0.62581
 C229 C 0.68680 0.31365 0.61777
 C230 C 0.69226 0.32642 0.62636
 H231 H 0.66588 0.29886 0.62255
 H232 H 0.70256 0.33351 0.62380
 H233 H 0.67127 0.32743 0.66760
 H234 H 0.66020 0.34060 0.65376
 N235 N 0.63850 0.81774 1.17098
 N236 N 0.63821 0.82918 1.18144
 C237 C 0.62577 0.82702 1.19113
 C238 C 0.61785 0.81348 1.18651
 C239 C 0.62632 0.80790 1.17369
 H240 H 0.62274 0.83468 1.20086
 H241 H 0.62363 0.79764 1.16663
 Cu242 Cu 0.65405 0.84582 1.18128
 Cu243 Cu 0.65422 0.81676 1.15424
 Cu244 Cu 0.68260 0.84624 1.15368
 N245 N 0.67049 0.86187 1.18121
 N246 N 0.68151 0.86202 1.17029
 C247 C 0.69114 0.87441 1.17272
 C248 C 0.68592 0.88250 1.18592
 C249 C 0.67279 0.87416 1.19103
 H250 H 0.70126 0.87722 1.16546
 H251 H 0.66534 0.87696 1.20099
 N252 N 0.68174 0.82922 1.13790
 N253 N 0.67108 0.81787 1.13823
 C254 C 0.67361 0.80810 1.12596
 C255 C 0.68644 0.81361 1.11744
 C256 C 0.69128 0.82702 1.12538
 H257 H 0.66645 0.79791 1.12323
 H258 H 0.70111 0.83456 1.12232
 H259 H 0.67172 0.82853 1.16652
 H260 H 0.65880 0.84067 1.15338
 N261 N 0.13890 0.31742 1.17146
 N262 N 0.13809 0.32928 1.18142
 C263 C 0.12526 0.32742 1.19065
 C264 C 0.11765 0.31361 1.18630
 C265 C 0.12669 0.30759 1.17407
 H266 H 0.12184 0.33540 1.19999
 H267 H 0.12453 0.29691 1.16744
 Cu268 Cu 0.15404 0.34583 1.18138
 Cu269 Cu 0.15585 0.31549 1.15603
 Cu270 Cu 0.18242 0.34649 1.15363
 N271 N 0.17049 0.36187 1.18144
 N272 N 0.18136 0.36218 1.17036
 C273 C 0.19095 0.37459 1.17279
 C274 C 0.18586 0.38253 1.18613
 C275 C 0.17284 0.37407 1.19133
 H276 H 0.20098 0.37751 1.16545
 H277 H 0.16548 0.37676 1.20140
 N278 N 0.18157 0.32933 1.13799
 N279 N 0.17161 0.31740 1.13901
 C280 C 0.17405 0.30761 1.12674
 C281 C 0.18615 0.31366 1.11753
 C282 C 0.19060 0.32746 1.12505
 H283 H 0.16737 0.29697 1.12456
 H284 H 0.19989 0.33544 1.12148
 H285 H 0.17291 0.32911 1.16743
 H286 H 0.15890 0.33950 1.15389
 N287 N 0.13861 0.81812 0.67071
 N288 N 0.13815 0.82972 0.68098
 C289 C 0.12527 0.82799 0.69017
 C290 C 0.11729 0.81450 0.68550
 C291 C 0.12614 0.80855 0.67309
 H292 H 0.12215 0.83575 0.69979
 H293 H 0.12376 0.79803 0.66630
 Cu294 Cu 0.15475 0.84560 0.68178
 Cu295 Cu 0.15564 0.81605 0.65541
 Cu296 Cu 0.18329 0.84614 0.65404
 N297 N 0.17103 0.86180 0.68149
 N298 N 0.18219 0.86188 0.67071
 C299 C 0.19183 0.87425 0.67324
 C300 C 0.18639 0.88246 0.68628
 C301 C 0.17314 0.87420 0.69119
 H302 H 0.20194 0.87714 0.66600
 H303 H 0.16567 0.87693 0.70117
 N304 N 0.18239 0.82908 0.63829
 N305 N 0.17172 0.81773 0.63868
 C306 C 0.17394 0.80818 0.62618
 C307 C 0.18672 0.81368 0.61759
 C308 C 0.19179 0.82694 0.62565
 H309 H 0.16688 0.79787 0.62360
 H310 H 0.20147 0.83459 0.62239
 H311 H 0.17315 0.82871 0.66722
 H312 H 0.15953 0.84006 0.65408
 N313 N 0.36189 0.68178 0.67081
 N314 N 0.36147 0.67107 0.68201
 C315 C 0.37377 0.67337 0.69183
 C316 C 0.38242 0.68616 0.68645
 C317 C 0.37450 0.69118 0.67306
 H318 H 0.37640 0.66613 0.70200
 H319 H 0.37759 0.70103 0.66557
 Cu320 Cu 0.34512 0.65491 0.68242
 Cu321 Cu 0.34611 0.68277 0.65413
 Cu322 Cu 0.31715 0.65386 0.65421
 N323 N 0.32907 0.63846 0.68195
 N324 N 0.31805 0.63827 0.67104
 C325 C 0.30846 0.62583 0.67349
 C326 C 0.31380 0.61769 0.68661
 C327 C 0.32694 0.62605 0.69166
 H328 H 0.29851 0.62280 0.66610
 H329 H 0.33429 0.62337 0.70173
 N330 N 0.31824 0.67064 0.63816
 N331 N 0.32914 0.68177 0.63826
 C332 C 0.32668 0.69148 0.62592
 C333 C 0.31367 0.68615 0.61758
 C334 C 0.30864 0.67290 0.62570
 H335 H 0.33398 0.70154 0.62304
 H336 H 0.29863 0.66554 0.62280
 H337 H 0.32809 0.67187 0.66649
 H338 H 0.34108 0.65891 0.65424
 N339 N 0.36186 0.18161 1.17087
 N340 N 0.36119 0.17116 1.18230
 C341 C 0.37341 0.17353 1.19220
 C342 C 0.38226 0.18611 1.18664
 C343 C 0.37454 0.19093 1.17307
 H344 H 0.37587 0.16645 1.20252
 H345 H 0.37780 0.20060 1.16542
 Cu346 Cu 0.34481 0.15503 1.18288
 Cu347 Cu 0.34624 0.18248 1.15406
 Cu348 Cu 0.31609 0.15492 1.15544
 N349 N 0.32907 0.13831 1.18188
 N350 N 0.31808 0.13815 1.17093
 C351 C 0.30881 0.12542 1.17300
 C352 C 0.31424 0.11711 1.18599
 C353 C 0.32714 0.12567 1.19132
 H354 H 0.29865 0.12264 1.16578
 H355 H 0.33459 0.12287 1.20129
 N356 N 0.31789 0.17079 1.13860
 N357 N 0.32927 0.18143 1.13818
 C358 C 0.32710 0.19078 1.12552
 C359 C 0.31380 0.18570 1.11749
 C360 C 0.30830 0.17297 1.12611
 H361 H 0.33473 0.20048 1.12227
 H362 H 0.29793 0.16596 1.12359
 H363 H 0.32833 0.17282 1.16711
 H364 H 0.34013 0.15880 1.15482
 N365 N 0.86177 0.68163 1.17077
 N366 N 0.86112 0.67117 1.18220
 C367 C 0.87335 0.67357 1.19209
 C368 C 0.88217 0.68617 1.18654
 C369 C 0.87443 0.69098 1.17297
 H370 H 0.87582 0.66649 1.20241
 H371 H 0.87766 0.70066 1.16532
 Cu372 Cu 0.84478 0.65502 1.18277
 Cu373 Cu 0.84613 0.68248 1.15398
 Cu374 Cu 0.81602 0.65488 1.15537
 N375 N 0.82905 0.63828 1.18180
 N376 N 0.81804 0.63810 1.17087
 C377 C 0.80878 0.62537 1.17296
 C378 C 0.81423 0.61708 1.18596
 C379 C 0.82713 0.62565 1.19125
 H380 H 0.79861 0.62259 1.16577
 H381 H 0.83460 0.62287 1.20121
 N382 N 0.81779 0.67077 1.13853
 N383 N 0.82915 0.68142 1.13812
 C384 C 0.82697 0.69077 1.12546
 C385 C 0.81368 0.68569 1.11743
 C386 C 0.80819 0.67294 1.12604
 H387 H 0.83459 0.70047 1.12221
 H388 H 0.79783 0.66592 1.12353
 H389 H 0.82824 0.67278 1.16704
 H390 H 0.84004 0.65879 1.15472
 N391 N 0.86161 0.18215 0.67119
 N392 N 0.86149 0.17108 0.68205
 C393 C 0.87387 0.17326 0.69180
 C394 C 0.88215 0.18645 0.68684
 C395 C 0.87398 0.19180 0.67373
 H396 H 0.87661 0.16587 0.70182
 H397 H 0.87697 0.20180 0.66640
 Cu398 Cu 0.84530 0.15478 0.68236
 Cu399 Cu 0.84600 0.18301 0.65435
 Cu400 Cu 0.81623 0.15499 0.65538
 N401 N 0.82949 0.13811 0.68153
 N402 N 0.81832 0.13810 0.67076
 C403 C 0.80899 0.12543 0.67291
 C404 C 0.81455 0.11703 0.68579
 C405 C 0.82760 0.12546 0.69095
 H406 H 0.79868 0.12277 0.66586
 H407 H 0.83517 0.12257 0.70081
 N408 N 0.81786 0.17105 0.63868
 N409 N 0.82908 0.18186 0.63840
 C410 C 0.82688 0.19122 0.62575
 C411 C 0.81371 0.18598 0.61760
 C412 C 0.80833 0.17314 0.62613
 H413 H 0.83442 0.20101 0.62257
 H414 H 0.79810 0.16597 0.62349
 H415 H 0.82841 0.17275 0.66730
 H416 H 0.84024 0.15923 0.65449
 N417 N 0.31791 0.36175 0.67096
 N418 N 0.32894 0.36156 0.68187
 C419 C 0.32681 0.37398 0.69155
 C420 C 0.31367 0.38235 0.68650
 C421 C 0.30832 0.37420 0.67340
 H422 H 0.33418 0.37666 0.70161
 H423 H 0.29836 0.37724 0.66601
 Cu424 Cu 0.34501 0.34511 0.68235
 Cu425 Cu 0.31702 0.34615 0.65416
 Cu426 Cu 0.34602 0.31722 0.65411
 N427 N 0.36138 0.32896 0.68194
 N428 N 0.36180 0.31823 0.67077
 C429 C 0.37443 0.30882 0.67303
 C430 C 0.38236 0.31387 0.68639
 C431 C 0.37370 0.32668 0.69175
 H432 H 0.37753 0.29896 0.66556
 H433 H 0.37633 0.33394 0.70189
 N434 N 0.32904 0.31821 0.63825
 N435 N 0.31812 0.32935 0.63815
 C436 C 0.30852 0.32707 0.62569
 C437 C 0.31357 0.31382 0.61759
 C438 C 0.32659 0.30850 0.62593
 H439 H 0.29849 0.33444 0.62278
 H440 H 0.33391 0.29844 0.62306
 H441 H 0.32799 0.32815 0.66646
 H442 H 0.34094 0.34109 0.65418
 N443 N 0.31819 0.86226 0.17038
 N444 N 0.32871 0.86159 0.18177
 C445 C 0.32637 0.87382 0.19165
 C446 C 0.31375 0.88266 0.18612
 C447 C 0.30886 0.87493 0.17259
 H448 H 0.33349 0.87626 0.20194
 H449 H 0.29914 0.87819 0.16498
 Cu450 Cu 0.34469 0.84505 0.18237
 Cu451 Cu 0.31731 0.84665 0.15359
 Cu452 Cu 0.34594 0.81739 0.15387
 N453 N 0.36106 0.82890 0.18192
 N454 N 0.36158 0.81826 0.17067
 C455 C 0.37422 0.80887 0.17291
 C456 C 0.38208 0.81385 0.18634
 C457 C 0.37335 0.82658 0.19176
 H458 H 0.37739 0.79908 0.16537
 H459 H 0.37594 0.83380 0.20194
 N460 N 0.32911 0.81853 0.13786
 N461 N 0.31834 0.82980 0.13762
 C462 C 0.30879 0.82758 0.12512
 C463 C 0.31374 0.81423 0.11710
 C464 C 0.32664 0.80879 0.12556
 H465 H 0.29886 0.83504 0.12214
 H466 H 0.33385 0.79863 0.12279
 H467 H 0.32781 0.82840 0.16602
 H468 H 0.34117 0.84129 0.15409
 N469 N 0.81788 0.36198 0.17088
 N470 N 0.82896 0.36181 0.18175
 C471 C 0.82681 0.37419 0.19148
 C472 C 0.81361 0.38252 0.18649
 C473 C 0.80825 0.37438 0.17339
 H474 H 0.83421 0.37690 0.20150
 H475 H 0.79827 0.37741 0.16602
 Cu476 Cu 0.84513 0.34547 0.18181
 Cu477 Cu 0.81699 0.34641 0.15398
 Cu478 Cu 0.84601 0.31739 0.15397
 N479 N 0.86135 0.32918 0.18186
 N480 N 0.86174 0.31838 0.17074
 C481 C 0.87432 0.30893 0.17307
 C482 C 0.88226 0.31402 0.18641
 C483 C 0.87364 0.32688 0.19171
 H484 H 0.87741 0.29905 0.16562
 H485 H 0.87633 0.33420 0.20179
 N486 N 0.82905 0.31846 0.13804
 N487 N 0.81815 0.32962 0.13792
 C488 C 0.80858 0.32737 0.12543
 C489 C 0.81363 0.31413 0.11732
 C490 C 0.82663 0.30877 0.12569
 H491 H 0.79857 0.33476 0.12251
 H492 H 0.83393 0.29870 0.12283
 H493 H 0.82802 0.32840 0.16621
 H494 H 0.84087 0.34120 0.15372
 N495 N 0.81824 0.86253 0.67043
 N496 N 0.82966 0.86270 0.68094
 C497 C 0.82757 0.87516 0.69060
 C498 C 0.81408 0.88319 0.68592
 C499 C 0.80848 0.87479 0.67307
 H500 H 0.83516 0.87805 0.70043
 H501 H 0.79817 0.87750 0.66603
 Cu502 Cu 0.84584 0.84638 0.68103
 Cu503 Cu 0.81703 0.84662 0.65388
 Cu504 Cu 0.84577 0.81731 0.65420
 N505 N 0.86201 0.83005 0.68113
 N506 N 0.86171 0.81854 0.67076
 C507 C 0.87395 0.80875 0.67347
 C508 C 0.88245 0.81444 0.68622
 C509 C 0.87451 0.82800 0.69077
 H510 H 0.87660 0.79839 0.66651
 H511 H 0.87752 0.83569 0.70048
 N512 N 0.82868 0.81823 0.63840
 N513 N 0.81788 0.82950 0.63815
 C514 C 0.80829 0.82721 0.62569
 C515 C 0.81323 0.81384 0.61771
 C516 C 0.82616 0.80844 0.62614
 H517 H 0.79840 0.83470 0.62266
 H518 H 0.83343 0.79833 0.62333
 H519 H 0.82819 0.82894 0.66646
 H520 H 0.84085 0.84117 0.65323
 N521 N 0.68243 0.63853 0.67129
 N522 N 0.67128 0.63862 0.68209
 C523 C 0.67337 0.62619 0.69176
 C524 C 0.68659 0.61789 0.68682
 C525 C 0.69205 0.62611 0.67379
 H526 H 0.66590 0.62342 0.70173
 H527 H 0.70207 0.62311 0.66647
 Cu528 Cu 0.65507 0.65494 0.68241
 Cu529 Cu 0.68334 0.65414 0.65447
 Cu530 Cu 0.65376 0.68247 0.65384
 N531 N 0.63856 0.67094 0.68185
 N532 N 0.63799 0.68151 0.67053
 C533 C 0.62532 0.69086 0.67274
 C534 C 0.61750 0.68594 0.68622
 C535 C 0.62628 0.67327 0.69171
 H536 H 0.62214 0.70063 0.66518
 H537 H 0.62376 0.66614 0.70197
 N538 N 0.67079 0.68152 0.63801
 N539 N 0.68219 0.67088 0.63838
 C540 C 0.69200 0.67337 0.62611
 C541 C 0.68649 0.68615 0.61755
 C542 C 0.67302 0.69101 0.62546
 H543 H 0.70226 0.66624 0.62343
 H544 H 0.66547 0.70083 0.62238
 H545 H 0.67190 0.67204 0.66646
 H546 H 0.65933 0.65870 0.65423
 N547 N 0.68229 0.13820 0.17071
 N548 N 0.67073 0.13780 0.18106
 C549 C 0.67285 0.12531 0.19066
 C550 C 0.68651 0.11748 0.18611
 C551 C 0.69218 0.12605 0.17341
 H552 H 0.66510 0.12219 0.20030
 H553 H 0.70256 0.12347 0.16642
 Cu554 Cu 0.65402 0.15363 0.18095
 Cu555 Cu 0.68336 0.15402 0.15412
 Cu556 Cu 0.65411 0.18268 0.15389
 N557 N 0.63806 0.17019 0.18100
 N558 N 0.63831 0.18163 0.17054
 C559 C 0.62612 0.19148 0.17325
 C560 C 0.61767 0.18590 0.18608
 C561 C 0.62562 0.17235 0.19069
 H562 H 0.62346 0.20178 0.16622
 H563 H 0.62263 0.16471 0.20045
 N564 N 0.67111 0.18175 0.13804
 N565 N 0.68238 0.17097 0.13826
 C566 C 0.69215 0.17344 0.12596
 C567 C 0.68672 0.18633 0.11752
 C568 C 0.67335 0.19129 0.12553
 H569 H 0.70228 0.16618 0.12314
 H570 H 0.66586 0.20117 0.12252
 H571 H 0.67161 0.17137 0.16665
 H572 H 0.65941 0.15887 0.15319
 N573 N 0.18162 0.63794 0.17026
 N574 N 0.17063 0.63815 0.18121
 C575 C 0.17278 0.62573 0.19090
 C576 C 0.18589 0.61735 0.18580
 C577 C 0.19121 0.62549 0.17268
 H578 H 0.16547 0.62307 0.20101
 H579 H 0.20119 0.62247 0.16529
 Cu580 Cu 0.15456 0.65462 0.18175
 Cu581 Cu 0.18265 0.65368 0.15358
 Cu582 Cu 0.15583 0.68450 0.15569
 N583 N 0.13811 0.67071 0.18104
 N584 N 0.13872 0.68240 0.17088
 C585 C 0.12629 0.69204 0.17323
 C586 C 0.11731 0.68606 0.18552
 C587 C 0.12518 0.67247 0.19015
 H588 H 0.12397 0.70259 0.16644
 H589 H 0.12192 0.66464 0.19968
 N590 N 0.17174 0.68268 0.13882
 N591 N 0.18180 0.67080 0.13789
 C592 C 0.19090 0.67272 0.12500
 C593 C 0.18640 0.68649 0.11743
 C594 C 0.17420 0.69247 0.12655
 H595 H 0.20027 0.66478 0.12150
 H596 H 0.16744 0.70307 0.12430
 H597 H 0.17315 0.67123 0.16713
 H598 H 0.15903 0.66045 0.15406
 N599 N 0.18173 0.13765 0.67074
 N600 N 0.17044 0.13761 0.68139
 C601 C 0.17262 0.12526 0.69116
 C602 C 0.18604 0.11716 0.68641
 C603 C 0.19152 0.12541 0.67341
 H604 H 0.16508 0.12243 0.70106
 H605 H 0.20173 0.12261 0.66627
 Cu606 Cu 0.15393 0.15360 0.68129
 Cu607 Cu 0.18281 0.15340 0.65402
 Cu608 Cu 0.15582 0.18411 0.65614
 N609 N 0.13793 0.17013 0.68131
 N610 N 0.13876 0.18206 0.67144
 C611 C 0.12653 0.19188 0.67408
 C612 C 0.11746 0.18577 0.68625
 C613 C 0.12508 0.17193 0.69053
 H614 H 0.12438 0.20263 0.66755
 H615 H 0.12168 0.16390 0.69983
 N616 N 0.17176 0.18238 0.63927
 N617 N 0.18189 0.17056 0.63835
 C618 C 0.19097 0.17251 0.62545
 C619 C 0.18637 0.18624 0.61785
 C620 C 0.17414 0.19217 0.62698
 H621 H 0.20036 0.16461 0.62194
 H622 H 0.16731 0.20271 0.62471
 H623 H 0.17285 0.17058 0.66774
 H624 H 0.15919 0.16012 0.65393
 N625 N 0.31812 0.63783 0.32915
 N626 N 0.32864 0.63847 0.31775
 C627 C 0.32629 0.62625 0.30788
 C628 C 0.31366 0.61743 0.31342
 C629 C 0.30879 0.62517 0.32696
 H630 H 0.33340 0.62378 0.29757
 H631 H 0.29908 0.62193 0.33459
 Cu632 Cu 0.34463 0.65499 0.31716
 Cu633 Cu 0.31725 0.65342 0.34596
 Cu634 Cu 0.34588 0.68262 0.34568
 N635 N 0.36101 0.67111 0.31761
 N636 N 0.36151 0.68174 0.32888
 C637 C 0.37414 0.69112 0.32664
 C638 C 0.38201 0.68616 0.31321
 C639 C 0.37330 0.67343 0.30777
 H640 H 0.37729 0.70090 0.33419
 H641 H 0.37591 0.66623 0.29758
 N642 N 0.32907 0.68150 0.36171
 N643 N 0.31829 0.67025 0.36195
 C644 C 0.30875 0.67249 0.37447
 C645 C 0.31371 0.68583 0.38248
 C646 C 0.32661 0.69124 0.37401
 H647 H 0.29882 0.66505 0.37746
 H648 H 0.33383 0.70138 0.37677
 H649 H 0.32776 0.67166 0.33354
 H650 H 0.34111 0.65874 0.34545
 N651 N 0.31801 0.13806 0.82904
 N652 N 0.32929 0.13806 0.81837
 C653 C 0.32716 0.12571 0.80860
 C654 C 0.31379 0.11756 0.81337
 C655 C 0.30828 0.12579 0.82637
 H656 H 0.33472 0.12291 0.79871
 H657 H 0.29813 0.12290 0.83356
 Cu658 Cu 0.34569 0.15416 0.81843
 Cu659 Cu 0.31705 0.15363 0.84590
 Cu660 Cu 0.34600 0.18260 0.84605
 N661 N 0.36166 0.17067 0.81842
 N662 N 0.36182 0.18162 0.82938
 C663 C 0.37424 0.19123 0.82697
 C664 C 0.38232 0.18608 0.81372
 C665 C 0.37395 0.17302 0.80858
 H666 H 0.37712 0.20128 0.83427
 H667 H 0.37678 0.16562 0.79859
 N668 N 0.32898 0.18154 0.86190
 N669 N 0.31809 0.17040 0.86197
 C670 C 0.30848 0.17262 0.87444
 C671 C 0.31350 0.18585 0.88259
 C672 C 0.32651 0.19121 0.87427
 H673 H 0.29848 0.16523 0.87732
 H674 H 0.33381 0.20126 0.87717
 H675 H 0.32828 0.17144 0.83352
 H676 H 0.34093 0.15878 0.84640
 N677 N 0.81838 0.63797 0.82909
 N678 N 0.82979 0.63781 0.81857
 C679 C 0.82769 0.62540 0.80887
 C680 C 0.81420 0.61738 0.81352
 C681 C 0.80860 0.62575 0.82640
 H682 H 0.83532 0.62250 0.79906
 H683 H 0.79832 0.62302 0.83347
 Cu684 Cu 0.84625 0.65386 0.81857
 Cu685 Cu 0.81729 0.65373 0.84576
 Cu686 Cu 0.84590 0.68301 0.84551
 N687 N 0.86208 0.67052 0.81845
 N688 N 0.86172 0.68200 0.82884
 C689 C 0.87387 0.69188 0.82611
 C690 C 0.88239 0.68626 0.81333
 C691 C 0.87453 0.67267 0.80877
 H692 H 0.87649 0.70221 0.83311
 H693 H 0.87759 0.66499 0.79907
 N694 N 0.82894 0.68194 0.86142
 N695 N 0.81818 0.67067 0.86164
 C696 C 0.80862 0.67287 0.87415
 C697 C 0.81355 0.68619 0.88220
 C698 C 0.82645 0.69165 0.87375
 H699 H 0.79874 0.66537 0.87715
 H700 H 0.83368 0.70177 0.87657
 H701 H 0.82849 0.67133 0.83305
 H702 H 0.84114 0.65913 0.84637
 N703 N 0.81808 0.13768 0.32922
 N704 N 0.82864 0.13830 0.31786
 C705 C 0.82629 0.12609 0.30796
 C706 C 0.81362 0.11730 0.31348
 C707 C 0.80872 0.12505 0.32699
 H708 H 0.83346 0.12357 0.29771
 H709 H 0.79900 0.12182 0.33462
 Cu710 Cu 0.84477 0.15468 0.31778
 Cu711 Cu 0.81723 0.15322 0.34616
 Cu712 Cu 0.84591 0.18251 0.34587
 N713 N 0.86100 0.17095 0.31770
 N714 N 0.86147 0.18164 0.32892
 C715 C 0.87406 0.19106 0.32662
 C716 C 0.88193 0.18606 0.31319
 C717 C 0.87326 0.17328 0.30782
 H718 H 0.87721 0.20085 0.33415
 H719 H 0.87590 0.16601 0.29768
 N720 N 0.82912 0.18128 0.36198
 N721 N 0.81835 0.17002 0.36220
 C722 C 0.80882 0.17222 0.37474
 C723 C 0.81376 0.18554 0.38277
 C724 C 0.82665 0.19099 0.37431
 H725 H 0.79888 0.16478 0.37771
 H726 H 0.83384 0.20115 0.37708
 H727 H 0.82782 0.17147 0.33387
 H728 H 0.84105 0.15869 0.34599
 N729 N 0.68181 0.36186 0.32937
 N730 N 0.67090 0.36157 0.31834
 C731 C 0.67306 0.37396 0.30862
 C732 C 0.68608 0.38242 0.31379
 C733 C 0.69134 0.37435 0.32698
 H734 H 0.66580 0.37656 0.29846
 H735 H 0.70123 0.37743 0.33443
 Cu736 Cu 0.65488 0.34508 0.31777
 Cu737 Cu 0.68280 0.34619 0.34611
 Cu738 Cu 0.65603 0.31537 0.34408
 N739 N 0.63840 0.32904 0.31860
 N740 N 0.63896 0.31744 0.32886
 C741 C 0.62650 0.30784 0.32658
 C742 C 0.61756 0.31375 0.31423
 C743 C 0.62547 0.32726 0.30948
 H744 H 0.62415 0.29735 0.33345
 H745 H 0.62225 0.33502 0.29989
 N746 N 0.67190 0.31726 0.36097
 N747 N 0.68193 0.32914 0.36187
 C748 C 0.69104 0.32724 0.37475
 C749 C 0.68656 0.31348 0.38235
 C750 C 0.67437 0.30748 0.37325
 H751 H 0.70041 0.33517 0.37823
 H752 H 0.66764 0.29688 0.37550
 H753 H 0.67338 0.32854 0.33263
 H754 H 0.65916 0.33943 0.34554
 N755 N 0.68198 0.86199 0.82927
 N756 N 0.67092 0.86180 0.81837
 C757 C 0.67312 0.87412 0.80857
 C758 C 0.68628 0.88246 0.81357
 C759 C 0.69160 0.87436 0.82673
 H760 H 0.66575 0.87680 0.79850
 H761 H 0.70157 0.87739 0.83410
 Cu762 Cu 0.65469 0.84552 0.81836
 Cu763 Cu 0.68295 0.84639 0.84615
 Cu764 Cu 0.65601 0.81559 0.84413
 N765 N 0.63839 0.82931 0.81859
 N766 N 0.63902 0.81759 0.82873
 C767 C 0.62664 0.80792 0.82630
 C768 C 0.61770 0.81389 0.81397
 C769 C 0.62554 0.82750 0.80937
 H770 H 0.62430 0.79740 0.83310
 H771 H 0.62225 0.83536 0.79988
 N772 N 0.67188 0.81748 0.86107
 N773 N 0.68196 0.82933 0.86196
 C774 C 0.69104 0.82743 0.87486
 C775 C 0.68651 0.81371 0.88248
 C776 C 0.67430 0.80773 0.87339
 H777 H 0.70044 0.83534 0.87832
 H778 H 0.66755 0.79716 0.87566
 H779 H 0.67332 0.82883 0.83279
 H780 H 0.65936 0.83959 0.84601
 N781 N 0.18180 0.36209 0.82955
 N782 N 0.17050 0.36217 0.81891
 C783 C 0.17269 0.37451 0.80914
 C784 C 0.18613 0.38257 0.81387
 C785 C 0.19160 0.37431 0.82687
 H786 H 0.16515 0.37735 0.79925
 H787 H 0.20181 0.37709 0.83400
 Cu788 Cu 0.15396 0.34623 0.81905
 Cu789 Cu 0.18286 0.34637 0.84629
 Cu790 Cu 0.15586 0.31572 0.84423
 N791 N 0.13797 0.32971 0.81906
 N792 N 0.13880 0.31779 0.82894
 C793 C 0.12658 0.30797 0.82630
 C794 C 0.11752 0.31408 0.81412
 C795 C 0.12513 0.32792 0.80984
 H796 H 0.12444 0.29724 0.83284
 H797 H 0.12173 0.33594 0.80053
 N798 N 0.17181 0.31743 0.86110
 N799 N 0.18194 0.32923 0.86199
 C800 C 0.19103 0.32729 0.87488
 C801 C 0.18645 0.31358 0.88250
 C802 C 0.17421 0.30766 0.87340
 H803 H 0.20043 0.33518 0.87836
 H804 H 0.16738 0.29713 0.87569
 H805 H 0.17287 0.32919 0.83258
 H806 H 0.15922 0.33969 0.84641
 N807 N 0.18181 0.86185 0.32924
 N808 N 0.17078 0.86167 0.31831
 C809 C 0.17296 0.87403 0.30856
 C810 C 0.18612 0.88236 0.31360
 C811 C 0.19143 0.87424 0.32675
 H812 H 0.16559 0.87675 0.29851
 H813 H 0.20141 0.87724 0.33412
 Cu814 Cu 0.15452 0.84542 0.31838
 Cu815 Cu 0.18276 0.84624 0.34612
 Cu816 Cu 0.15580 0.81546 0.34406
 N817 N 0.13825 0.82917 0.31845
 N818 N 0.13883 0.81749 0.32863
 C819 C 0.12644 0.80784 0.32622
 C820 C 0.11751 0.81381 0.31388
 C821 C 0.12538 0.82740 0.30927
 H822 H 0.12408 0.79732 0.33302
 H823 H 0.12210 0.83528 0.29980
 N824 N 0.17165 0.81732 0.36101
 N825 N 0.18175 0.82916 0.36191
 C826 C 0.19081 0.82725 0.37482
 C827 C 0.18624 0.81353 0.38243
 C828 C 0.17404 0.80757 0.37332
 H829 H 0.20020 0.83514 0.37831
 H830 H 0.16727 0.79700 0.37559
 H831 H 0.17313 0.82868 0.33275
 H832 H 0.15916 0.83944 0.34597
 O833 O 0.26977 0.98458 0.24841
 O834 O 0.24803 1.01550 0.26998
 O835 O 0.24790 0.98460 0.26991
 O836 O 0.26977 1.01548 0.24836
 O837 O 0.25123 1.01563 0.23004
 O838 O 0.22963 0.98460 0.25134
 O839 O 0.22966 1.01555 0.25149
 O840 O 0.25134 0.98466 0.23000
 Cu841 Cu 0.26071 1.00003 0.26102
 Cu842 Cu 0.23864 1.00011 0.23887
 C843 C 0.26411 0.97913 0.23566
 C844 C 0.23528 1.02102 0.26426
 C845 C 0.23518 0.97911 0.26414
 C846 C 0.26404 1.02105 0.23567
 O847 O 0.25203 0.51559 0.73027
 O848 O 0.23009 0.48446 0.75118
 O849 O 0.22997 0.51544 0.75156
 O850 O 0.25217 0.48476 0.73009
 O851 O 0.26999 0.48437 0.74909
 O852 O 0.24830 0.51556 0.77007
 O853 O 0.24789 0.48470 0.77020
 O854 O 0.27019 0.51539 0.74895
 Cu855 Cu 0.23924 0.50009 0.73891
 Cu856 Cu 0.26092 0.49998 0.76144
 C857 C 0.26475 0.52098 0.73614
 C858 C 0.23535 0.47910 0.76415
 C859 C 0.23554 0.52100 0.76432
 C860 C 0.26470 0.47907 0.73611
 O861 O 0.72991 0.01529 0.24838
 O862 O 0.75109 -0.01599 0.26973
 O863 O 0.75138 0.01504 0.26994
 O864 O 0.72975 -0.01556 0.24791
 O865 O 0.74875 -0.01594 0.23007
 O866 O 0.76991 0.01524 0.25162
 O867 O 0.77008 -0.01560 0.25188
 O868 O 0.74828 0.01505 0.22990
 Cu869 Cu 0.73869 -0.00032 0.26083
 Cu870 Cu 0.76111 -0.00029 0.23902
 C871 C 0.73556 0.02068 0.23560
 C872 C 0.76408 -0.02131 0.26437
 C873 C 0.76416 0.02063 0.26437
 C874 C 0.73576 -0.02125 0.23540
 O875 O 0.74792 0.48452 0.72994
 O876 O 0.77020 0.51540 0.75088
 O877 O 0.77020 0.48433 0.75081
 O878 O 0.74792 0.51531 0.72997
 O879 O 0.73018 0.51541 0.74906
 O880 O 0.75252 0.48451 0.76996
 O881 O 0.75246 0.51527 0.76996
 O882 O 0.73022 0.48433 0.74905
 Cu883 Cu 0.76087 0.49989 0.73852
 Cu884 Cu 0.73952 0.49987 0.76138
 C885 C 0.73541 0.47893 0.73605
 C886 C 0.76500 0.52082 0.76386
 C887 C 0.76504 0.47894 0.76382
 C888 C 0.73538 0.52085 0.73609
 O889 O 0.26981 0.51544 0.25137
 O890 O 0.24832 0.48446 0.22983
 O891 O 0.24793 0.51539 0.22986
 O892 O 0.26993 0.48450 0.25117
 O893 O 0.25164 0.48440 0.26972
 O894 O 0.22968 0.51535 0.24847
 O895 O 0.22981 0.48443 0.24818
 O896 O 0.25137 0.51534 0.26979
 Cu897 Cu 0.26084 0.50000 0.23870
 Cu898 Cu 0.23879 0.49984 0.26090
 C899 C 0.26412 0.52089 0.26413
 C900 C 0.23555 0.47894 0.23546
 C901 C 0.23519 0.52086 0.23566
 C902 C 0.26438 0.47895 0.26394
 O903 O 0.72986 0.98464 0.75121
 O904 O 0.75141 1.01590 0.73022
 O905 O 0.75199 0.98502 0.73012
 O906 O 0.72968 1.01565 0.75146
 O907 O 0.74789 1.01583 0.77010
 O908 O 0.76982 0.98470 0.74911
 O909 O 0.76984 1.01569 0.74865
 O910 O 0.74770 0.98499 0.77019
 Cu911 Cu 0.73891 1.00027 0.73889
 Cu912 Cu 0.76065 1.00032 0.76137
 C913 C 0.73517 0.97932 0.76418
 C914 C 0.76418 1.02130 0.73593
 C915 C 0.76455 0.97937 0.73614
 C916 C 0.73515 1.02123 0.76425
 O917 O 0.75129 0.51572 0.23020
 O918 O 0.72983 0.48437 0.25115
 O919 O 0.72955 0.51537 0.25143
 O920 O 0.75197 0.48484 0.23006
 O921 O 0.76978 0.48454 0.24907
 O922 O 0.74779 0.51562 0.27003
 O923 O 0.74765 0.48478 0.27015
 O924 O 0.76973 0.51552 0.24861
 Cu925 Cu 0.73884 0.50004 0.23885
 Cu926 Cu 0.76057 0.50014 0.26133
 C927 C 0.76405 0.52114 0.23590
 C928 C 0.73514 0.47908 0.26413
 C929 C 0.73503 0.52098 0.26421
 C930 C 0.76453 0.47922 0.23609
 O931 O 0.25264 -0.01566 0.77006
 O932 O 0.23027 0.01526 0.74917
 O933 O 0.23031 -0.01580 0.74922
 O934 O 0.25256 0.01513 0.77007
 O935 O 0.27028 0.01526 0.75097
 O936 O 0.24796 -0.01559 0.73005
 O937 O 0.24800 0.01516 0.73008
 O938 O 0.27030 -0.01583 0.75089
 Cu939 Cu 0.23964 -0.00027 0.76151
 Cu940 Cu 0.26096 -0.00025 0.73862
 C941 C 0.26515 -0.02124 0.76389
 C942 C 0.23545 0.02069 0.73619
 C943 C 0.23546 -0.02116 0.73620
 C944 C 0.26508 0.02068 0.76395
 O945 O 0.24884 0.26959 0.98462
 O946 O 0.26997 0.24748 1.01552
 O947 O 0.26994 0.24748 0.98475
 O948 O 0.24883 0.26959 1.01565
 O949 O 0.22981 0.25179 1.01553
 O950 O 0.25091 0.22969 0.98463
 O951 O 0.25094 0.22969 1.01567
 O952 O 0.22982 0.25179 0.98476
 Cu953 Cu 0.26127 0.26036 1.00014
 Cu954 Cu 0.23850 0.23892 1.00015
 C955 C 0.23586 0.26433 0.97920
 C956 C 0.26393 0.23493 1.02107
 C957 C 0.26389 0.23495 0.97920
 C958 C 0.23585 0.26434 1.02107
 O959 O 0.24887 0.76969 0.48436
 O960 O 0.27000 0.74793 0.51547
 O961 O 0.27012 0.74773 0.48464
 O962 O 0.24844 0.76975 0.51531
 O963 O 0.23000 0.75135 0.51550
 O964 O 0.25117 0.72985 0.48433
 O965 O 0.25138 0.72971 0.51531
 O966 O 0.22991 0.75182 0.48465
 Cu967 Cu 0.26122 0.76061 0.49997
 Cu968 Cu 0.23876 0.73885 0.49992
 C969 C 0.23589 0.76436 0.47902
 C970 C 0.26418 0.73522 0.52088
 C971 C 0.26415 0.73519 0.47899
 C972 C 0.23569 0.76411 0.52090
 O973 O 0.27014 0.75225 -0.01561
 O974 O 0.24900 0.73027 0.01536
 O975 O 0.24899 0.73022 -0.01567
 O976 O 0.27015 0.75231 0.01517
 O977 O 0.25115 0.77016 0.01528
 O978 O 0.22999 0.74808 -0.01556
 O979 O 0.23000 0.74814 0.01521
 O980 O 0.25114 0.77011 -0.01575
 Cu981 Cu 0.26144 0.73944 -0.00018
 Cu982 Cu 0.23870 0.76095 -0.00021
 C983 C 0.26410 0.76480 -0.02118
 C984 C 0.23602 0.73558 0.02078
 C985 C 0.23601 0.73551 -0.02108
 C986 C 0.26412 0.76488 0.02070
 O987 O 0.26984 0.25190 0.48465
 O988 O 0.24873 0.23016 0.51580
 O989 O 0.24837 0.23003 0.48483
 O990 O 0.26999 0.25206 0.51547
 O991 O 0.25102 0.26994 0.51579
 O992 O 0.22987 0.24841 0.48466
 O993 O 0.22974 0.24803 0.51552
 O994 O 0.25117 0.27011 0.48481
 Cu995 Cu 0.26110 0.23920 0.50017
 Cu996 Cu 0.23859 0.26095 0.50022
 C997 C 0.26399 0.26461 0.47924
 C998 C 0.23574 0.23549 0.52116
 C999 C 0.23561 0.23566 0.47925
 C1000 C 0.26400 0.26460 0.52112
 O1001 O 0.75114 0.72983 0.98444
 O1002 O 0.73004 0.75190 1.01536
 O1003 O 0.73005 0.75193 0.98461
 O1004 O 0.75111 0.72975 1.01548
 O1005 O 0.77018 0.74751 1.01537
 O1006 O 0.74910 0.76971 0.98449
 O1007 O 0.74910 0.76966 1.01552
 O1008 O 0.77019 0.74760 0.98459
 Cu1009 Cu 0.73871 0.73903 0.99997
 Cu1010 Cu 0.76152 0.76044 1.00000
 C1011 C 0.76412 0.73508 0.97901
 C1012 C 0.73610 0.76442 1.02093
 C1013 C 0.73611 0.76448 0.97907
 C1014 C 0.76410 0.73497 1.02090
 O1015 O 0.74900 0.26965 0.48452
 O1016 O 0.77009 0.24750 0.51542
 O1017 O 0.77006 0.24751 0.48466
 O1018 O 0.74908 0.26971 0.51557
 O1019 O 0.72997 0.25199 0.51548
 O1020 O 0.75099 0.22976 0.48458
 O1021 O 0.75099 0.22978 0.51561
 O1022 O 0.72992 0.25191 0.48470
 Cu1023 Cu 0.76143 0.26041 0.50004
 Cu1024 Cu 0.73859 0.23905 0.50010
 C1025 C 0.73600 0.26442 0.47912
 C1026 C 0.76401 0.23499 0.52099
 C1027 C 0.76398 0.23498 0.47914
 C1028 C 0.73608 0.26451 0.52101
 O1029 O 0.72982 0.24825 -0.01538
 O1030 O 0.75122 0.27039 0.01528
 O1031 O 0.75103 0.27023 -0.01570
 O1032 O 0.72994 0.24868 0.01547
 O1033 O 0.74846 0.23033 0.01531
 O1034 O 0.77004 0.25238 -0.01538
 O1035 O 0.76991 0.25221 0.01544
 O1036 O 0.74883 0.23041 -0.01565
 Cu1037 Cu 0.73863 0.26121 -0.00011
 Cu1038 Cu 0.76118 0.23950 -0.00005
 C1039 C 0.73584 0.23571 -0.02100
 C1040 C 0.76405 0.26491 0.02084
 C1041 C 0.76402 0.26491 -0.02103
 C1042 C 0.73570 0.23595 0.02090
 O1043 O 0.76998 0.75228 0.48474
 O1044 O 0.74835 0.73024 0.51540
 O1045 O 0.74872 0.73037 0.48444
 O1046 O 0.76983 0.75210 0.51556
 O1047 O 0.75116 0.77032 0.51539
 O1048 O 0.72973 0.74825 0.48473
 O1049 O 0.72986 0.74863 0.51558
 O1050 O 0.75100 0.77016 0.48441
 Cu1051 Cu 0.76108 0.73941 0.50005
 Cu1052 Cu 0.73858 0.76117 0.50000
 C1053 C 0.76399 0.76482 0.47908
 C1054 C 0.73559 0.73588 0.52100
 C1055 C 0.73573 0.73570 0.47910
 C1056 C 0.76398 0.76481 0.52096
 O1057 O 0.98409 0.24843 0.26977
 O1058 O 1.01564 0.26972 0.24890
 O1059 O 0.98465 0.27012 0.24833
 O1060 O 1.01507 0.24788 0.27019
 O1061 O 1.01559 0.23004 0.25124
 O1062 O 0.98419 0.25143 0.23023
 O1063 O 1.01518 0.25188 0.22996
 O1064 O 0.98461 0.22974 0.25168
 Cu1065 Cu 0.99986 0.26087 0.26116
 Cu1066 Cu 0.99990 0.23895 0.23891
 C1067 C 0.97883 0.23554 0.26424
 C1068 C 1.02093 0.26438 0.23593
 C1069 C 0.97892 0.26433 0.23574
 C1070 C 1.02082 0.23537 0.26423
 O1071 O 0.48432 0.25135 0.73031
 O1072 O 0.51579 0.23008 0.75134
 O1073 O 0.48480 0.22981 0.75189
 O1074 O 0.51531 0.25195 0.73006
 O1075 O 0.51574 0.26983 0.74895
 O1076 O 0.48429 0.24854 0.76994
 O1077 O 0.51528 0.24797 0.77023
 O1078 O 0.48476 0.27009 0.74836
 Cu1079 Cu 0.50006 0.23896 0.73905
 Cu1080 Cu 0.50001 0.26094 0.76123
 C1081 C 0.47902 0.26426 0.73579
 C1082 C 0.52105 0.23545 0.76430
 C1083 C 0.47903 0.23564 0.76445
 C1084 C 0.52103 0.26448 0.73600
 O1085 O -0.01549 0.27009 0.75107
 O1086 O 0.01548 0.24782 0.73020
 O1087 O -0.01537 0.24784 0.73023
 O1088 O 0.01563 0.27000 0.75116
 O1089 O 0.01546 0.25228 0.77022
 O1090 O -0.01554 0.23013 0.74931
 O1091 O 0.01558 0.23009 0.74925
 O1092 O -0.01540 0.25239 0.77015
 Cu1093 Cu 0.00007 0.26075 0.73879
 Cu1094 Cu 0.00003 0.23941 0.76161
 C1095 C -0.02095 0.26491 0.76404
 C1096 C 0.02101 0.23528 0.73627
 C1097 C -0.02096 0.23534 0.73633
 C1098 C 0.02103 0.26479 0.76414
 O1099 O 0.48484 0.22967 0.24841
 O1100 O 0.51537 0.25176 0.27022
 O1101 O 0.48438 0.25120 0.26998
 O1102 O 0.51582 0.22988 0.24895
 O1103 O 0.51534 0.24776 0.23004
 O1104 O 0.48487 0.26994 0.25192
 O1105 O 0.51587 0.26964 0.25131
 O1106 O 0.48435 0.24841 0.23035
 Cu1107 Cu 0.50011 0.23880 0.26125
 Cu1108 Cu 0.50011 0.26077 0.23905
 C1109 C 0.47907 0.23551 0.23585
 C1110 C 0.52113 0.26428 0.26427
 C1111 C 0.47910 0.26412 0.26448
 C1112 C 0.52107 0.23522 0.23598
 O1113 O 0.98464 0.75260 0.72992
 O1114 O 1.01566 0.73037 0.75081
 O1115 O 0.98456 0.73037 0.75083
 O1116 O 1.01550 0.75256 0.72986
 O1117 O 1.01566 0.77028 0.74891
 O1118 O 0.98467 0.74809 0.76988
 O1119 O 1.01551 0.74808 0.76987
 O1120 O 0.98453 0.77032 0.74897
 Cu1121 Cu 1.00009 0.73967 0.73848
 Cu1122 Cu 1.00010 0.76101 0.76129
 C1123 C 0.97908 0.76512 0.73601
 C1124 C 1.02107 0.73556 0.76379
 C1125 C 0.97913 0.73557 0.76380
 C1126 C 1.02107 0.76508 0.73593
 O1127 O 0.51558 0.76994 0.24882
 O1128 O 0.48409 0.74862 0.26973
 O1129 O 0.51507 0.74811 0.27012
 O1130 O 0.48459 0.77024 0.24823
 O1131 O 0.48419 0.75153 0.23016
 O1132 O 0.51563 0.73024 0.25122
 O1133 O 0.48464 0.72991 0.25166
 O1134 O 0.51517 0.75206 0.22991
 Cu1135 Cu 0.49983 0.76106 0.26109
 Cu1136 Cu 0.49992 0.73910 0.23888
 C1137 C 0.52089 0.76458 0.23588
 C1138 C 0.47884 0.73572 0.26421
 C1139 C 0.52085 0.73559 0.26420
 C1140 C 0.47888 0.76443 0.23565
 O1141 O 0.01518 0.75210 0.27003
 O1142 O -0.01529 0.72992 0.24822
 O1143 O 0.01571 0.73019 0.24878
 O1144 O -0.01581 0.75146 0.26978
 O1145 O -0.01536 0.77019 0.25171
 O1146 O 0.01518 0.74807 0.22987
 O1147 O -0.01581 0.74865 0.23015
 O1148 O 0.01563 0.76998 0.25112
 Cu1149 Cu -0.00004 0.73909 0.26106
 Cu1150 Cu -0.00008 0.76105 0.23886
 C1151 C 0.02089 0.76464 0.26409
 C1152 C -0.02107 0.73575 0.23567
 C1153 C 0.02095 0.73554 0.23580
 C1154 C -0.02111 0.76436 0.26428
 O1155 O 0.48447 0.77028 0.75133
 O1156 O 0.51555 0.74862 0.73008
 O1157 O 0.48453 0.74860 0.73005
 O1158 O 0.51550 0.77031 0.75139
 O1159 O 0.51549 0.75209 0.76998
 O1160 O 0.48452 0.73029 0.74855
 O1161 O 0.51549 0.73025 0.74853
 O1162 O 0.48455 0.75214 0.77001
 Cu1163 Cu 0.50002 0.76128 0.73886
 Cu1164 Cu 0.50002 0.73936 0.76113
 C1165 C 0.47900 0.76479 0.76416
 C1166 C 0.52103 0.73587 0.73577
 C1167 C 0.47901 0.73589 0.73578
 C1168 C 0.52099 0.76479 0.76420
 C1169 C 0.42466 0.29379 0.29356
 C1170 C 0.41471 0.30354 0.28450
 C1171 C 0.40107 0.31015 0.29109
 C1172 C 0.39698 0.30707 0.30685
 C1173 C 0.40694 0.29738 0.31593
 C1174 C 0.42063 0.29087 0.30938
 C1175 C 0.43900 0.28645 0.28648
 C1176 C 0.44344 0.27099 0.29058
 C1177 C 0.45671 0.26394 0.28374
 C1178 C 0.46576 0.27210 0.27249
 C1179 C 0.46141 0.28758 0.26842
 C1180 C 0.44823 0.29471 0.27540
 H1181 H 0.39359 0.31743 0.28371
 H1182 H 0.40428 0.29493 0.32817
 H1183 H 0.45962 0.25192 0.28696
 H1184 H 0.46818 0.29417 0.25981
 H1185 H 0.42816 0.28366 0.31679
 H1186 H 0.43645 0.26417 0.29881
 H1187 H 0.41729 0.30582 0.27220
 H1188 H 0.44529 0.30671 0.27215
 C1189 C 0.42447 0.79409 0.79349
 C1190 C 0.41940 0.80932 0.78926
 C1191 C 0.40566 0.81579 0.79576
 C1192 C 0.39669 0.80735 0.80694
 C1193 C 0.40192 0.79216 0.81129
 C1194 C 0.41550 0.78559 0.80456
 C1195 C 0.43887 0.78702 0.78620
 C1196 C 0.44867 0.77672 0.79484
 C1197 C 0.46183 0.76964 0.78777
 C1198 C 0.46566 0.77291 0.77199
 C1199 C 0.45610 0.78343 0.76344
 C1200 C 0.44280 0.79029 0.77041
 H1201 H 0.40235 0.82757 0.79214
 H1202 H 0.39540 0.78503 0.81964
 H1203 H 0.46901 0.76159 0.79465
 H1204 H 0.45863 0.78600 0.75119
 H1205 H 0.41879 0.77369 0.80786
 H1206 H 0.44621 0.77413 0.80709
 H1207 H 0.42615 0.81638 0.78103
 H1208 H 0.43540 0.79786 0.76325
 C1209 C -0.07556 0.29430 0.79299
 C1210 C -0.07955 0.31018 0.79027
 C1211 C -0.09319 0.31670 0.79693
 C1212 C -0.10312 0.30753 0.80655
 C1213 C -0.09914 0.29166 0.80928
 C1214 C -0.08556 0.28511 0.80253
 C1215 C -0.06112 0.28729 0.78581
 C1216 C -0.05200 0.27623 0.79419
 C1217 C -0.03877 0.26919 0.78725
 C1218 C -0.03426 0.27317 0.77181
 C1219 C -0.04315 0.28448 0.76353
 C1220 C -0.05647 0.29141 0.77043
 H1221 H -0.09579 0.32901 0.79471
 H1222 H -0.10662 0.28419 0.81644
 H1223 H -0.03213 0.26055 0.79394
 H1224 H -0.04008 0.28765 0.75154
 H1225 H -0.08304 0.27276 0.80461
 H1226 H -0.05507 0.27299 0.80616
 H1227 H -0.07200 0.31766 0.78316
 H1228 H -0.06336 0.29968 0.76353
 C1229 C -0.07575 0.79387 0.29314
 C1230 C -0.07978 0.79102 0.30897
 C1231 C -0.09353 0.79746 0.31545
 C1232 C -0.10355 0.80703 0.30631
 C1233 C -0.09945 0.81006 0.29054
 C1234 C -0.08574 0.80351 0.28401
 C1235 C -0.06135 0.78659 0.28613
 C1236 C -0.05214 0.79485 0.27504
 C1237 C -0.03890 0.78776 0.26813
 C1238 C -0.03449 0.77231 0.27226
 C1239 C -0.04351 0.76416 0.28353
 C1240 C -0.05683 0.77118 0.29031
 H1241 H -0.09619 0.79507 0.32770
 H1242 H -0.10697 0.81725 0.28311
 H1243 H -0.03215 0.79435 0.25950
 H1244 H -0.04055 0.75217 0.28681
 H1245 H -0.08316 0.80574 0.27170
 H1246 H -0.05513 0.80682 0.27174
 H1247 H -0.07222 0.78390 0.31643
 H1248 H -0.06380 0.76435 0.29856
 C1249 C 0.57525 0.70638 0.29373
 C1250 C 0.58534 0.71562 0.30312
 C1251 C 0.59895 0.70908 0.30982
 C1252 C 0.60286 0.69317 0.30721
 C1253 C 0.59279 0.68393 0.29781
 C1254 C 0.57913 0.69045 0.29119
 C1255 C 0.56088 0.71341 0.28644
 C1256 C 0.55631 0.70916 0.27108
 C1257 C 0.54306 0.71607 0.26404
 C1258 C 0.53416 0.72749 0.27214
 C1259 C 0.53861 0.73165 0.28755
 C1260 C 0.55179 0.72464 0.29464
 H1261 H 0.60652 0.71661 0.31681
 H1262 H 0.59532 0.67160 0.29568
 H1263 H 0.54005 0.71276 0.25208
 H1264 H 0.53197 0.74039 0.29410
 H1265 H 0.57151 0.68294 0.28421
 H1266 H 0.56320 0.70079 0.26431
 H1267 H 0.58289 0.72800 0.30507
 H1268 H 0.55483 0.72799 0.30658
 C1269 C 0.57547 0.20618 0.79376
 C1270 C 0.57931 0.19024 0.79122
 C1271 C 0.59296 0.18369 0.79785
 C1272 C 0.60306 0.19290 0.80724
 C1273 C 0.59920 0.20883 0.80982
 C1274 C 0.58560 0.21540 0.80313
 C1275 C 0.56110 0.21324 0.78648
 C1276 C 0.55204 0.22449 0.79469
 C1277 C 0.53886 0.23152 0.78761
 C1278 C 0.53436 0.22734 0.77223
 C1279 C 0.54323 0.21589 0.76412
 C1280 C 0.55648 0.20897 0.77114
 H1281 H 0.59545 0.17135 0.79573
 H1282 H 0.60679 0.21635 0.81680
 H1283 H 0.53224 0.24027 0.79417
 H1284 H 0.54019 0.21256 0.75218
 H1285 H 0.58317 0.22779 0.80507
 H1286 H 0.55511 0.22785 0.80661
 H1287 H 0.57167 0.18274 0.78425
 H1288 H 0.56334 0.20057 0.76437
 C1289 C 1.07555 0.70629 0.79308
 C1290 C 1.07969 0.69046 0.79034
 C1291 C 1.09343 0.68407 0.79694
 C1292 C 1.10332 0.69334 0.80650
 C1293 C 1.09914 0.70914 0.80932
 C1294 C 1.08546 0.71555 0.80265
 C1295 C 1.06110 0.71321 0.78584
 C1296 C 1.05186 0.72421 0.79418
 C1297 C 1.03868 0.73122 0.78713
 C1298 C 1.03433 0.72729 0.77164
 C1299 C 1.04333 0.71604 0.76341
 C1300 C 1.05660 0.70912 0.77041
 H1301 H 1.09617 0.67181 0.79466
 H1302 H 1.10657 0.71669 0.81646
 H1303 H 1.03195 0.73982 0.79379
 H1304 H 1.04038 0.71290 0.75139
 H1305 H 1.08281 0.72787 0.80476
 H1306 H 1.05482 0.72741 0.80617
 H1307 H 1.07221 0.68293 0.78324
 H1308 H 1.06359 0.70090 0.76355
 C1309 C 1.07534 0.20619 0.29357
 C1310 C 1.07947 0.19038 0.29066
 C1311 C 1.09318 0.18390 0.29722
 C1312 C 1.10301 0.19303 0.30695
 C1313 C 1.09886 0.20881 0.30992
 C1314 C 1.08523 0.21533 0.30326
 C1315 C 1.06092 0.21319 0.28633
 C1316 C 1.05166 0.22418 0.29468
 C1317 C 1.03846 0.23119 0.28763
 C1318 C 1.03413 0.22724 0.27214
 C1319 C 1.04318 0.21603 0.26391
 C1320 C 1.05646 0.20915 0.27089
 H1321 H 1.09591 0.17166 0.29483
 H1322 H 1.10628 0.21625 0.31719
 H1323 H 1.03170 0.23976 0.29428
 H1324 H 1.04026 0.21288 0.25188
 H1325 H 1.08259 0.22763 0.30550
 H1326 H 1.05461 0.22737 0.30669
 H1327 H 1.07201 0.18293 0.28345
 H1328 H 1.06346 0.20096 0.26401
 C1329 C 0.57563 0.29360 0.70681
 C1330 C 0.57968 0.30944 0.70965
 C1331 C 0.59340 0.31591 0.70313
 C1332 C 0.60333 0.30674 0.69351
 C1333 C 0.59927 0.29093 0.69061
 C1334 C 0.58561 0.28442 0.69723
 C1335 C 0.56119 0.28661 0.71400
 C1336 C 0.55203 0.27554 0.70567
 C1337 C 0.53881 0.26855 0.71268
 C1338 C 0.53435 0.27258 0.72812
 C1339 C 0.54329 0.28388 0.73633
 C1340 C 0.55659 0.29075 0.72939
 H1341 H 0.59606 0.32817 0.70546
 H1342 H 0.60675 0.28347 0.68342
 H1343 H 0.53212 0.25992 0.70604
 H1344 H 0.54027 0.28710 0.74832
 H1345 H 0.58304 0.27210 0.69505
 H1346 H 0.55507 0.27229 0.69370
 H1347 H 0.57214 0.31692 0.71678
 H1348 H 0.56351 0.29900 0.73626
 C1349 C 0.57560 0.79357 0.20680
 C1350 C 0.58557 0.78436 0.19723
 C1351 C 0.59925 0.79083 0.19063
 C1352 C 0.60335 0.80663 0.19353
 C1353 C 0.59342 0.81583 0.20313
 C1354 C 0.57968 0.80940 0.20964
 C1355 C 0.56113 0.78662 0.21397
 C1356 C 0.55655 0.79073 0.22937
 C1357 C 0.54322 0.78390 0.23628
 C1358 C 0.53424 0.77267 0.22803
 C1359 C 0.53868 0.76866 0.21258
 C1360 C 0.55194 0.77562 0.20560
 H1361 H 0.60672 0.78335 0.18345
 H1362 H 0.59611 0.82809 0.20546
 H1363 H 0.54021 0.78709 0.24828
 H1364 H 0.53197 0.76008 0.20591
 H1365 H 0.57216 0.81689 0.21676
 H1366 H 0.56351 0.79893 0.23626
 H1367 H 0.58296 0.77205 0.19505
 H1368 H 0.55497 0.77239 0.19362
 C1369 C 1.07548 0.29352 0.20667
 C1370 C 1.07939 0.30942 0.20932
 C1371 C 1.09307 0.31593 0.20274
 C1372 C 1.10312 0.30672 0.19327
 C1373 C 1.09918 0.29084 0.19056
 C1374 C 1.08556 0.28431 0.19722
 C1375 C 1.06108 0.28650 0.21390
 C1376 C 1.05196 0.27537 0.20561
 C1377 C 1.03875 0.26838 0.21264
 C1378 C 1.03428 0.27246 0.22806
 C1379 C 1.04320 0.28379 0.23625
 C1380 C 1.05648 0.29067 0.22928
 H1381 H 1.09562 0.32824 0.20494
 H1382 H 1.10674 0.28333 0.18352
 H1383 H 1.03209 0.25971 0.20603
 H1384 H 1.04018 0.28704 0.24823
 H1385 H 1.08308 0.27195 0.19518
 H1386 H 1.05502 0.27208 0.19366
 H1387 H 1.07178 0.31691 0.21635
 H1388 H 1.06339 0.29897 0.23611
 C1389 C 1.07535 0.79447 0.70641
 C1390 C 1.07937 0.81035 0.70908
 C1391 C 1.09295 0.81685 0.70229
 C1392 C 1.10281 0.80766 0.69260
 C1393 C 1.09877 0.79181 0.68987
 C1394 C 1.08525 0.78529 0.69674
 C1395 C 1.06101 0.78746 0.71376
 C1396 C 1.05181 0.77641 0.70548
 C1397 C 1.03867 0.76936 0.71257
 C1398 C 1.03432 0.77332 0.72806
 C1399 C 1.04330 0.78460 0.73625
 C1400 C 1.05653 0.79154 0.72921
 H1401 H 1.09560 0.82913 0.70452
 H1402 H 1.10619 0.78431 0.68266
 H1403 H 1.03197 0.76074 0.70594
 H1404 H 1.04036 0.78775 0.74828
 H1405 H 1.08271 0.77294 0.69468
 H1406 H 1.05475 0.77319 0.69347
 H1407 H 1.07189 0.81782 0.71627
 H1408 H 1.06350 0.79980 0.73603
 C1409 C 0.42463 0.70621 0.70671
 C1410 C 0.42072 0.70898 0.69083
 C1411 C 0.40704 0.70248 0.68428
 C1412 C 0.39699 0.69294 0.69340
 C1413 C 0.40097 0.69001 0.70922
 C1414 C 0.41459 0.69661 0.71582
 C1415 C 0.43896 0.71354 0.71380
 C1416 C 0.44806 0.70537 0.72505
 C1417 C 0.46123 0.71251 0.73203
 C1418 C 0.46569 0.72790 0.72779
 C1419 C 0.45676 0.73597 0.71637
 C1420 C 0.44352 0.72891 0.70953
 H1421 H 0.40446 0.70481 0.67200
 H1422 H 0.39340 0.68285 0.71662
 H1423 H 0.46789 0.70599 0.74078
 H1424 H 0.45976 0.74793 0.71301
 H1425 H 0.41707 0.69445 0.72816
 H1426 H 0.44504 0.69343 0.72844
 H1427 H 0.42832 0.71606 0.68339
 H1428 H 0.43662 0.73568 0.70116
 C1429 C 0.42455 0.20604 0.20688
 C1430 C 0.41450 0.19646 0.21599
 C1431 C 0.40085 0.18990 0.20941
 C1432 C 0.39685 0.19286 0.19359
 C1433 C 0.40691 0.20239 0.18447
 C1434 C 0.42061 0.20885 0.19101
 C1435 C 0.43890 0.21332 0.21394
 C1436 C 0.44343 0.22872 0.20975
 C1437 C 0.45671 0.23573 0.21657
 C1438 C 0.46571 0.22757 0.22787
 C1439 C 0.46128 0.21214 0.23201
 C1440 C 0.44807 0.20506 0.22506
 H1441 H 0.39329 0.18275 0.21682
 H1442 H 0.40433 0.20474 0.17220
 H1443 H 0.45968 0.24771 0.21328
 H1444 H 0.46801 0.20554 0.24066
 H1445 H 0.42821 0.21594 0.18357
 H1446 H 0.43648 0.23555 0.20147
 H1447 H 0.41702 0.19427 0.22831
 H1448 H 0.44507 0.19309 0.22837
 C1449 C -0.07558 0.70621 0.20675
 C1450 C -0.07955 0.70902 0.19089
 C1451 C -0.09323 0.70253 0.18436
 C1452 C -0.10325 0.69296 0.19348
 C1453 C -0.09923 0.68999 0.20928
 C1454 C -0.08559 0.69658 0.21586
 C1455 C -0.06124 0.71351 0.21380
 C1456 C -0.05203 0.70526 0.22490
 C1457 C -0.03882 0.71235 0.23183
 C1458 C -0.03443 0.72780 0.22770
 C1459 C -0.04347 0.73595 0.21643
 C1460 C -0.05676 0.72893 0.20963
 H1461 H -0.09583 0.70489 0.17209
 H1462 H -0.10676 0.68281 0.21670
 H1463 H -0.03207 0.70576 0.24046
 H1464 H -0.04053 0.74795 0.21316
 H1465 H -0.08306 0.69438 0.22818
 H1466 H -0.05500 0.69328 0.22820
 H1467 H -0.07197 0.71614 0.18345
 H1468 H -0.06373 0.73575 0.20138
 C1469 C -0.07566 0.20625 0.70734
 C1470 C -0.08546 0.21543 0.69757
 C1471 C -0.09911 0.20899 0.69088
 C1472 C -0.10335 0.19326 0.69390
 C1473 C -0.09362 0.18409 0.70372
 C1474 C -0.07990 0.19049 0.71031
 C1475 C -0.06118 0.21316 0.71452
 C1476 C -0.05667 0.20916 0.72998
 C1477 C -0.04333 0.21601 0.73689
 C1478 C -0.03428 0.22713 0.72856
 C1479 C -0.03864 0.23099 0.71305
 C1480 C -0.05188 0.22402 0.70608
 H1481 H -0.10645 0.21645 0.68354
 H1482 H -0.09643 0.17187 0.70615
 H1483 H -0.04039 0.21294 0.74894
 H1484 H -0.03187 0.23948 0.70630
 H1485 H -0.07251 0.18300 0.71758
 H1486 H -0.06369 0.20105 0.73693
 H1487 H -0.08275 0.22770 0.69530
 H1488 H -0.05483 0.22715 0.69406
 C1489 C 0.29360 0.42444 0.29320
 C1490 C 0.30943 0.42025 0.29025
 C1491 C 0.31589 0.40654 0.29681
 C1492 C 0.30672 0.39677 0.30658
 C1493 C 0.29094 0.40099 0.30962
 C1494 C 0.28444 0.41461 0.30295
 C1495 C 0.28660 0.43886 0.28597
 C1496 C 0.27553 0.44805 0.29430
 C1497 C 0.26850 0.46123 0.28726
 C1498 C 0.27252 0.46564 0.27180
 C1499 C 0.28381 0.45666 0.26358
 C1500 C 0.29070 0.44338 0.27054
 H1501 H 0.32814 0.40375 0.29438
 H1502 H 0.28349 0.39363 0.31693
 H1503 H 0.25987 0.46794 0.29390
 H1504 H 0.28700 0.45963 0.25157
 H1505 H 0.27213 0.41728 0.30523
 H1506 H 0.27229 0.44508 0.30628
 H1507 H 0.31692 0.42766 0.28302
 H1508 H 0.29894 0.43643 0.26367
 C1509 C 0.29462 -0.07574 0.79305
 C1510 C 0.30998 -0.08072 0.78907
 C1511 C 0.31640 -0.09445 0.79563
 C1512 C 0.30777 -0.10347 0.80663
 C1513 C 0.29244 -0.09834 0.81071
 C1514 C 0.28593 -0.08480 0.80390
 C1515 C 0.28761 -0.06130 0.78579
 C1516 C 0.27706 -0.05171 0.79436
 C1517 C 0.26997 -0.03857 0.78734
 C1518 C 0.27344 -0.03452 0.77166
 C1519 C 0.28425 -0.04382 0.76319
 C1520 C 0.29117 -0.05711 0.77012
 H1521 H 0.32830 -0.09767 0.79225
 H1522 H 0.28518 -0.10494 0.81887
 H1523 H 0.26171 -0.03160 0.79419
 H1524 H 0.28702 -0.04110 0.75101
 H1525 H 0.27392 -0.08161 0.80697
 H1526 H 0.27426 -0.05434 0.80654
 H1527 H 0.31718 -0.07390 0.78103
 H1528 H 0.29897 -0.06432 0.76302
 C1529 C 0.79436 0.42452 0.79312
 C1530 C 0.80959 0.41936 0.78895
 C1531 C 0.81603 0.40571 0.79561
 C1532 C 0.80752 0.39692 0.80690
 C1533 C 0.79231 0.40222 0.81116
 C1534 C 0.78578 0.41571 0.80427
 C1535 C 0.78737 0.43891 0.78580
 C1536 C 0.77723 0.44882 0.79448
 C1537 C 0.77018 0.46196 0.78743
 C1538 C 0.77331 0.46568 0.77159
 C1539 C 0.78372 0.45605 0.76299
 C1540 C 0.79058 0.44276 0.76997
 H1541 H 0.82783 0.40234 0.79205
 H1542 H 0.78514 0.39583 0.81956
 H1543 H 0.76223 0.46920 0.79436
 H1544 H 0.78620 0.45851 0.75070
 H1545 H 0.77387 0.41907 0.80751
 H1546 H 0.77472 0.44644 0.80677
 H1547 H 0.81670 0.42599 0.78064
 H1548 H 0.79806 0.43528 0.76280
 C1549 C 0.79346 -0.07583 0.29350
 C1550 C 0.80460 -0.08482 0.28507
 C1551 C 0.81130 -0.09838 0.29170
 C1552 C 0.80684 -0.10353 0.30687
 C1553 C 0.79564 -0.09449 0.31525
 C1554 C 0.78919 -0.08079 0.30872
 C1555 C 0.78615 -0.06148 0.28639
 C1556 C 0.77030 -0.05756 0.28965
 C1557 C 0.76333 -0.04425 0.28285
 C1558 C 0.77193 -0.03466 0.27242
 C1559 C 0.78775 -0.03849 0.26915
 C1560 C 0.79483 -0.05167 0.27616
 H1561 H 0.81968 -0.10495 0.28466
 H1562 H 0.79196 -0.09771 0.32703
 H1563 H 0.75104 -0.04174 0.28543
 H1564 H 0.79468 -0.03129 0.26117
 H1565 H 0.78093 -0.07401 0.31574
 H1566 H 0.76311 -0.06498 0.29717
 H1567 H 0.80796 -0.08158 0.27319
 H1568 H 0.80712 -0.05412 0.27358
 C1569 C 0.29396 0.57549 0.70699
 C1570 C 0.30974 0.57976 0.71003
 C1571 C 0.31616 0.59348 0.70348
 C1572 C 0.30700 0.60318 0.69361
 C1573 C 0.29127 0.59888 0.69049
 C1574 C 0.28481 0.58525 0.69715
 C1575 C 0.28701 0.56105 0.71419
 C1576 C 0.27606 0.55180 0.70580
 C1577 C 0.26904 0.53862 0.71281
 C1578 C 0.27295 0.53426 0.72831
 C1579 C 0.28414 0.54327 0.73660
 C1580 C 0.29102 0.55656 0.72965
 H1581 H 0.32837 0.59633 0.70598
 H1582 H 0.28382 0.60619 0.68311
 H1583 H 0.26049 0.53188 0.70612
 H1584 H 0.28724 0.54033 0.74864
 H1585 H 0.27253 0.58252 0.69480
 H1586 H 0.27290 0.55474 0.69378
 H1587 H 0.31722 0.57240 0.71734
 H1588 H 0.29917 0.56355 0.73658
 C1589 C 0.29393 1.07511 0.20636
 C1590 C 0.30438 1.08457 0.21512
 C1591 C 0.31109 1.09809 0.20847
 C1592 C 0.30743 1.10256 0.19293
 C1593 C 0.29706 1.09308 0.18414
 C1594 C 0.29044 1.07949 0.19074
 C1595 C 0.28649 1.06091 0.21354
 C1596 C 0.27073 1.05696 0.21002
 C1597 C 0.26362 1.04379 0.21691
 C1598 C 0.27201 1.03436 0.22766
 C1599 C 0.28776 1.03823 0.23120
 C1600 C 0.29496 1.05131 0.22413
 H1601 H 0.31890 1.10520 0.21566
 H1602 H 0.29412 1.09603 0.17208
 H1603 H 0.25137 1.04126 0.21415
 H1604 H 0.29453 1.03115 0.23942
 H1605 H 0.28267 1.07235 0.18355
 H1606 H 0.26374 1.06427 0.20220
 H1607 H 0.30713 1.08173 0.22727
 H1608 H 0.30719 1.05385 0.22693
 C1609 C 0.79396 0.57514 0.20647
 C1610 C 0.80445 0.58461 0.21518
 C1611 C 0.81115 0.59811 0.20848
 C1612 C 0.80744 0.60254 0.19294
 C1613 C 0.79703 0.59305 0.18420
 C1614 C 0.79042 0.57949 0.19086
 C1615 C 0.78651 0.56098 0.21372
 C1616 C 0.77073 0.55705 0.21025
 C1617 C 0.76362 0.54391 0.21719
 C1618 C 0.77202 0.53448 0.22794
 C1619 C 0.78777 0.53835 0.23146
 C1620 C 0.79497 0.55140 0.22435
 H1621 H 0.81899 0.60522 0.21562
 H1622 H 0.79406 0.59599 0.17214
 H1623 H 0.75137 0.54138 0.21444
 H1624 H 0.79454 0.53127 0.23968
 H1625 H 0.78262 0.57233 0.18370
 H1626 H 0.76373 0.56434 0.20242
 H1627 H 0.80723 0.58179 0.22732
 H1628 H 0.80721 0.55392 0.22711
 C1629 C 0.79420 1.07520 0.70642
 C1630 C 0.80473 1.08464 0.71509
 C1631 C 0.81146 1.09811 0.70835
 C1632 C 0.80773 1.10254 0.69282
 C1633 C 0.79726 1.09307 0.68412
 C1634 C 0.79063 1.07953 0.69081
 C1635 C 0.78672 1.06106 0.71371
 C1636 C 0.77093 1.05718 0.71026
 C1637 C 0.76379 1.04406 0.71722
 C1638 C 0.77218 1.03461 0.72796
 C1639 C 0.78795 1.03844 0.73145
 C1640 C 0.79518 1.05147 0.72433
 H1641 H 0.81933 1.10522 0.71546
 H1642 H 0.79426 1.09601 0.67206
 H1643 H 0.75153 1.04156 0.71448
 H1644 H 0.79471 1.03135 0.73967
 H1645 H 0.78279 1.07239 0.68368
 H1646 H 0.76394 1.06449 0.70244
 H1647 H 0.80754 1.08184 0.72723
 H1648 H 0.80742 1.05397 0.72708
 C1649 C 0.70594 0.57561 0.29325
 C1650 C 0.71519 0.58550 0.30284
 C1651 C 0.70873 0.59913 0.30952
 C1652 C 0.69289 0.60328 0.30666
 C1653 C 0.68366 0.59346 0.29701
 C1654 C 0.69008 0.57976 0.29044
 C1655 C 0.71286 0.56113 0.28609
 C1656 C 0.70867 0.55651 0.27072
 C1657 C 0.71551 0.54318 0.26381
 C1658 C 0.72682 0.53426 0.27204
 C1659 C 0.73089 0.53873 0.28747
 C1660 C 0.72392 0.55196 0.29444
 H1661 H 0.71624 0.60653 0.31672
 H1662 H 0.67137 0.59619 0.29471
 H1663 H 0.71227 0.54015 0.25184
 H1664 H 0.73953 0.53205 0.29413
 H1665 H 0.68254 0.57230 0.28332
 H1666 H 0.70041 0.56344 0.26384
 H1667 H 0.72753 0.58286 0.30500
 H1668 H 0.72721 0.55501 0.30640
 C1669 C 0.70605 1.07592 0.79336
 C1670 C 0.71482 1.08508 0.80405
 C1671 C 0.70832 1.09865 0.81084
 C1672 C 0.69293 1.10369 0.80688
 C1673 C 0.68425 1.09459 0.79601
 C1674 C 0.69064 1.08084 0.78950
 C1675 C 0.71300 1.06144 0.78615
 C1676 C 0.70923 1.05712 0.77057
 C1677 C 0.71604 1.04377 0.76367
 C1678 C 0.72697 1.03454 0.77207
 C1679 C 0.73067 1.03872 0.78766
 C1680 C 0.72366 1.05193 0.79466
 H1681 H 0.71563 1.10532 0.81889
 H1682 H 0.67230 1.09775 0.79272
 H1683 H 0.71310 1.04095 0.75156
 H1684 H 0.73903 1.03180 0.79444
 H1685 H 0.68337 1.07395 0.78157
 H1686 H 0.70134 1.06427 0.76350
 H1687 H 0.72687 1.08195 0.80703
 H1688 H 0.72662 1.05465 0.80677
 C1689 C 0.20580 0.57529 0.79336
 C1690 C 0.19643 0.58549 0.78418
 C1691 C 0.18993 0.59916 0.79076
 C1692 C 0.19273 0.60301 0.80663
 C1693 C 0.20202 0.59279 0.81582
 C1694 C 0.20842 0.57907 0.80929
 C1695 C 0.21310 0.56097 0.78628
 C1696 C 0.22845 0.55632 0.79066
 C1697 C 0.23553 0.54310 0.78380
 C1698 C 0.22750 0.53430 0.77228
 C1699 C 0.21212 0.53884 0.76795
 C1700 C 0.20497 0.55199 0.77493
 H1701 H 0.18296 0.60685 0.78330
 H1702 H 0.20423 0.59526 0.82814
 H1703 H 0.24747 0.54003 0.78725
 H1704 H 0.20563 0.53227 0.75912
 H1705 H 0.21533 0.57135 0.81678
 H1706 H 0.23519 0.56312 0.79911
 H1707 H 0.19440 0.58309 0.77181
 H1708 H 0.19304 0.55510 0.77147
 C1709 C 0.20620 1.07547 0.29372
 C1710 C 0.21551 1.08558 0.30300
 C1711 C 0.20900 1.09919 0.30969
 C1712 C 0.19303 1.10307 0.30718
 C1713 C 0.18372 1.09298 0.29787
 C1714 C 0.19022 1.07933 0.29126
 C1715 C 0.21320 1.06109 0.28645
 C1716 C 0.20879 1.05640 0.27117
 C1717 C 0.21565 1.04313 0.26416
 C1718 C 0.22720 1.03433 0.27221
 C1719 C 0.23152 1.03889 0.28753
 C1720 C 0.22454 1.05208 0.29460
 H1721 H 0.21659 1.10677 0.31661
 H1722 H 0.17135 1.09550 0.29581
 H1723 H 0.21222 1.04004 0.25226
 H1724 H 0.24036 1.03232 0.29404
 H1725 H 0.18264 1.07169 0.28436
 H1726 H 0.20032 1.06321 0.26443
 H1727 H 0.22794 1.08315 0.30488
 H1728 H 0.22802 1.05520 0.30649
 C1729 C 0.70602 0.42459 0.70676
 C1730 C 0.69011 0.42059 0.70945
 C1731 C 0.68360 0.40700 0.70273
 C1732 C 0.69282 0.39712 0.69309
 C1733 C 0.70871 0.40114 0.69035
 C1734 C 0.71524 0.41467 0.69714
 C1735 C 0.71303 0.43896 0.71403
 C1736 C 0.72414 0.44810 0.70573
 C1737 C 0.73117 0.46125 0.71277
 C1738 C 0.72715 0.46567 0.72823
 C1739 C 0.71582 0.45676 0.73643
 C1740 C 0.70888 0.44352 0.72944
 H1741 H 0.67129 0.40437 0.70497
 H1742 H 0.71623 0.39372 0.68317
 H1743 H 0.73984 0.46790 0.70612
 H1744 H 0.71261 0.45975 0.74843
 H1745 H 0.72761 0.41721 0.69506
 H1746 H 0.72740 0.44510 0.69375
 H1747 H 0.68260 0.42807 0.71660
 H1748 H 0.70058 0.43661 0.73628
 C1749 C 0.70626 -0.07553 0.20624
 C1750 C 0.69578 -0.08496 0.21501
 C1751 C 0.68909 -0.09851 0.20840
 C1752 C 0.69282 -0.10302 0.19290
 C1753 C 0.70326 -0.09359 0.18411
 C1754 C 0.70985 -0.07999 0.19067
 C1755 C 0.71361 -0.06126 0.21333
 C1756 C 0.72939 -0.05730 0.20990
 C1757 C 0.73641 -0.04406 0.21674
 C1758 C 0.72789 -0.03456 0.22733
 C1759 C 0.71211 -0.03843 0.23073
 C1760 C 0.70501 -0.05158 0.22374
 H1761 H 0.68122 -0.10557 0.21557
 H1762 H 0.70624 -0.09657 0.17207
 H1763 H 0.74868 -0.04152 0.21407
 H1764 H 0.70524 -0.03130 0.23883
 H1765 H 0.71765 -0.07287 0.18347
 H1766 H 0.73647 -0.06466 0.20221
 H1767 H 0.69295 -0.08204 0.22712
 H1768 H 0.69276 -0.05412 0.22645
 C1769 C 0.20611 0.42455 0.20645
 C1770 C 0.19581 0.41498 0.21530
 C1771 C 0.18917 0.40141 0.20870
 C1772 C 0.19275 0.39701 0.19312
 C1773 C 0.20300 0.40658 0.18427
 C1774 C 0.20955 0.42020 0.19082
 C1775 C 0.21342 0.43885 0.21353
 C1776 C 0.22911 0.44297 0.20989
 C1777 C 0.23611 0.45624 0.21669
 C1778 C 0.22766 0.46560 0.22746
 C1779 C 0.21196 0.46158 0.23108
 C1780 C 0.20488 0.44840 0.22411
 H1781 H 0.18145 0.39424 0.21592
 H1782 H 0.20587 0.40369 0.17217
 H1783 H 0.24831 0.45890 0.21386
 H1784 H 0.20516 0.46861 0.23931
 H1785 H 0.21720 0.42742 0.18356
 H1786 H 0.23615 0.43571 0.20207
 H1787 H 0.19311 0.41781 0.22746
 H1788 H 0.19270 0.44573 0.22698
 C1789 C 0.20625 -0.07554 0.70700
 C1790 C 0.21523 -0.08490 0.69663
 C1791 C 0.20877 -0.09848 0.68987
 C1792 C 0.19321 -0.10309 0.69340
 C1793 C 0.18424 -0.09378 0.70379
 C1794 C 0.19066 -0.08014 0.71047
 C1795 C 0.21318 -0.06115 0.71426
 C1796 C 0.20972 -0.05714 0.72999
 C1797 C 0.21658 -0.04386 0.73695
 C1798 C 0.22720 -0.03440 0.72841
 C1799 C 0.23053 -0.03828 0.71266
 C1800 C 0.22353 -0.05145 0.70563
 H1801 H 0.21610 -0.10546 0.68207
 H1802 H 0.17216 -0.09687 0.70664
 H1803 H 0.21395 -0.04129 0.74918
 H1804 H 0.23862 -0.03117 0.70577
 H1805 H 0.18333 -0.07309 0.71822
 H1806 H 0.20203 -0.06450 0.73707
 H1807 H 0.22737 -0.08189 0.69393
 H1808 H 0.22623 -0.05402 0.69342
 C1809 C 0.29320 0.29368 0.42470
 C1810 C 0.30290 0.28453 0.41479
 C1811 C 0.30953 0.29104 0.40116
 C1812 C 0.30651 0.30681 0.39703
 C1813 C 0.29680 0.31596 0.40690
 C1814 C 0.29028 0.30950 0.42060
 C1815 C 0.28598 0.28670 0.43911
 C1816 C 0.27054 0.29084 0.44370
 C1817 C 0.26359 0.28401 0.45700
 C1818 C 0.27185 0.27273 0.46593
 C1819 C 0.28733 0.26868 0.46147
 C1820 C 0.29435 0.27564 0.44827
 H1821 H 0.31680 0.28361 0.39373
 H1822 H 0.29439 0.32821 0.40419
 H1823 H 0.25157 0.28723 0.46001
 H1824 H 0.29401 0.26006 0.46816
 H1825 H 0.28309 0.31697 0.42807
 H1826 H 0.26363 0.29907 0.43677
 H1827 H 0.30516 0.27223 0.41741
 H1828 H 0.30636 0.27238 0.44525
 C1829 C 0.29321 0.79372 -0.07584
 C1830 C 0.30286 0.78450 -0.08574
 C1831 C 0.30944 0.79092 -0.09943
 C1832 C 0.30642 0.80668 -0.10364
 C1833 C 0.29679 0.81591 -0.09376
 C1834 C 0.29032 0.80953 -0.08001
 C1835 C 0.28603 0.78682 -0.06138
 C1836 C 0.27058 0.79097 -0.05679
 C1837 C 0.26365 0.78417 -0.04346
 C1838 C 0.27194 0.77294 -0.03450
 C1839 C 0.28743 0.76890 -0.03895
 C1840 C 0.29442 0.77582 -0.05219
 H1841 H 0.31666 0.78343 -0.10685
 H1842 H 0.29441 0.82815 -0.09652
 H1843 H 0.25163 0.78738 -0.04045
 H1844 H 0.29413 0.76031 -0.03225
 H1845 H 0.28318 0.81705 -0.07253
 H1846 H 0.26366 0.79917 -0.06374
 H1847 H 0.30510 0.77221 -0.08306
 H1848 H 0.30643 0.77256 -0.05521
 C1849 C 0.79314 0.29398 -0.07558
 C1850 C 0.80277 0.28479 -0.08551
 C1851 C 0.80930 0.29125 -0.09921
 C1852 C 0.80624 0.30701 -0.10337
 C1853 C 0.79663 0.31620 -0.09346
 C1854 C 0.79020 0.30979 -0.07970
 C1855 C 0.78597 0.28703 -0.06114
 C1856 C 0.77051 0.29112 -0.05658
 C1857 C 0.76358 0.28426 -0.04329
 C1858 C 0.77188 0.27303 -0.03433
 C1859 C 0.78738 0.26905 -0.03875
 C1860 C 0.79438 0.27602 -0.05196
 H1861 H 0.81651 0.28378 -0.10666
 H1862 H 0.79421 0.32844 -0.09619
 H1863 H 0.75154 0.28744 -0.04030
 H1864 H 0.79409 0.26046 -0.03205
 H1865 H 0.78307 0.31728 -0.07219
 H1866 H 0.76358 0.29932 -0.06352
 H1867 H 0.80504 0.27250 -0.08287
 H1868 H 0.80640 0.27280 -0.05498
 C1869 C 0.79335 0.79407 0.42474
 C1870 C 0.80304 0.78496 0.41480
 C1871 C 0.80970 0.79153 0.40122
 C1872 C 0.80674 0.80734 0.39719
 C1873 C 0.79704 0.81646 0.40710
 C1874 C 0.79048 0.80992 0.42074
 C1875 C 0.78609 0.78702 0.43909
 C1876 C 0.77062 0.79112 0.44361
 C1877 C 0.76363 0.78423 0.45686
 C1878 C 0.77188 0.77295 0.46580
 C1879 C 0.78738 0.76893 0.46139
 C1880 C 0.79444 0.77595 0.44823
 H1881 H 0.81694 0.78411 0.39376
 H1882 H 0.79467 0.82873 0.40447
 H1883 H 0.75159 0.78742 0.45983
 H1884 H 0.79405 0.76031 0.46808
 H1885 H 0.78329 0.81736 0.42825
 H1886 H 0.76373 0.79937 0.43669
 H1887 H 0.80525 0.77263 0.41735
 H1888 H 0.80646 0.77272 0.44525
 C1889 C 0.70700 0.29382 0.57550
 C1890 C 0.71016 0.30953 0.57981
 C1891 C 0.70364 0.31595 0.59353
 C1892 C 0.69369 0.30687 0.60320
 C1893 C 0.69043 0.29121 0.59887
 C1894 C 0.69706 0.28474 0.58523
 C1895 C 0.71419 0.28685 0.56107
 C1896 C 0.70571 0.27600 0.55180
 C1897 C 0.71270 0.26897 0.53861
 C1898 C 0.72828 0.27276 0.53428
 C1899 C 0.73666 0.28385 0.54331
 C1900 C 0.72973 0.29075 0.55660
 H1901 H 0.70624 0.32811 0.59643
 H1902 H 0.68298 0.28382 0.60616
 H1903 H 0.70593 0.26050 0.53186
 H1904 H 0.74875 0.28686 0.54039
 H1905 H 0.69463 0.27250 0.58248
 H1906 H 0.69363 0.27293 0.55472
 H1907 H 0.71753 0.31695 0.57247
 H1908 H 0.73672 0.29882 0.56360
 C1909 C 0.70679 0.79366 1.07530
 C1910 C 0.70956 0.80951 1.07933
 C1911 C 0.70298 0.81596 1.09300
 C1912 C 0.69338 0.80676 1.10292
 C1913 C 0.69051 0.79095 1.09886
 C1914 C 0.69718 0.78446 1.08525
 C1915 C 0.71404 0.78669 1.06091
 C1916 C 0.70569 0.77564 1.05177
 C1917 C 0.71273 0.76863 1.03860
 C1918 C 0.72824 0.77263 1.03418
 C1919 C 0.73647 0.78392 1.04310
 C1920 C 0.72949 0.79081 1.05635
 H1921 H 0.70527 0.82824 1.09566
 H1922 H 0.68333 0.78348 1.10633
 H1923 H 0.70607 0.76001 1.03194
 H1924 H 0.74851 0.78711 1.04010
 H1925 H 0.69504 0.77213 1.08268
 H1926 H 0.69368 0.77240 1.05478
 H1927 H 0.71667 0.81700 1.07181
 H1928 H 0.73636 0.79906 1.06327
 C1929 C 0.20639 0.29368 1.07532
 C1930 C 0.19704 0.28441 1.08544
 C1931 C 0.19038 0.29092 1.09905
 C1932 C 0.19298 0.30683 1.10293
 C1933 C 0.20229 0.31610 1.09280
 C1934 C 0.20888 0.30962 1.07915
 C1935 C 0.21367 0.28668 1.06097
 C1936 C 0.22906 0.29094 1.05632
 C1937 C 0.23609 0.28401 1.04310
 C1938 C 0.22795 0.27256 1.03431
 C1939 C 0.21251 0.26842 1.03882
 C1940 C 0.20543 0.27544 1.05196
 H1941 H 0.18344 0.28337 1.10666
 H1942 H 0.20439 0.32844 1.09530
 H1943 H 0.24807 0.28732 1.04003
 H1944 H 0.20592 0.25966 1.03226
 H1945 H 0.21581 0.31716 1.07150
 H1946 H 0.23585 0.29934 1.06314
 H1947 H 0.19511 0.27202 1.08301
 H1948 H 0.19347 0.27208 1.05504
 C1949 C 0.20664 0.79368 0.57528
 C1950 C 0.19083 0.79067 0.57948
 C1951 C 0.18439 0.79712 0.59323
 C1952 C 0.19353 0.80688 0.60300
 C1953 C 0.20927 0.81005 0.59875
 C1954 C 0.21577 0.80346 0.58510
 C1955 C 0.21366 0.78640 0.56091
 C1956 C 0.22475 0.79467 0.55169
 C1957 C 0.23176 0.78755 0.53855
 C1958 C 0.22768 0.77208 0.53421
 C1959 C 0.21640 0.76392 0.54324
 C1960 C 0.20955 0.77096 0.55647
 H1961 H 0.17216 0.79461 0.59607
 H1962 H 0.21670 0.81735 0.60613
 H1963 H 0.24039 0.79414 0.53179
 H1964 H 0.21317 0.75191 0.54033
 H1965 H 0.22807 0.80579 0.58242
 H1966 H 0.22801 0.80666 0.55461
 H1967 H 0.18336 0.78342 0.57208
 H1968 H 0.20131 0.76411 0.56345
 C1969 C 0.29341 0.70617 0.57542
 C1970 C 0.30310 0.71531 0.58532
 C1971 C 0.30974 0.70880 0.59894
 C1972 C 0.30674 0.69303 0.60307
 C1973 C 0.29704 0.68388 0.59321
 C1974 C 0.29051 0.69035 0.57952
 C1975 C 0.28618 0.71315 0.56101
 C1976 C 0.27075 0.70902 0.55644
 C1977 C 0.26380 0.71585 0.54314
 C1978 C 0.27205 0.72710 0.53419
 C1979 C 0.28752 0.73115 0.53864
 C1980 C 0.29454 0.72419 0.55185
 H1981 H 0.31700 0.71623 0.60636
 H1982 H 0.29465 0.67164 0.59592
 H1983 H 0.25177 0.71264 0.54013
 H1984 H 0.29419 0.73977 0.53195
 H1985 H 0.28333 0.68288 0.57205
 H1986 H 0.26384 0.70080 0.56337
 H1987 H 0.30534 0.72761 0.58270
 H1988 H 0.30655 0.72745 0.55486
 C1989 C 0.29338 0.20562 1.07537
 C1990 C 0.30333 0.21470 1.08507
 C1991 C 0.31005 0.20820 1.09866
 C1992 C 0.30686 0.19251 1.10296
 C1993 C 0.29690 0.18343 1.09331
 C1994 C 0.29030 0.18988 1.07964
 C1995 C 0.28608 0.21261 1.06100
 C1996 C 0.27053 0.20867 1.05661
 C1997 C 0.26352 0.21557 1.04337
 C1998 C 0.27181 0.22671 1.03431
 C1999 C 0.28739 0.23054 1.03857
 C2000 C 0.29448 0.22351 1.05170
 H2001 H 0.31750 0.21558 1.10595
 H2002 H 0.29436 0.17125 1.09619
 H2003 H 0.25142 0.21252 1.04050
 H2004 H 0.29411 0.23905 1.03179
 H2005 H 0.28292 0.18246 1.07232
 H2006 H 0.26361 0.20055 1.06364
 H2007 H 0.30571 0.22695 1.08234
 H2008 H 0.30656 0.22661 1.05456
 C2009 C 0.79334 0.70561 1.07528
 C2010 C 0.80326 0.71469 1.08501
 C2011 C 0.80995 0.70819 1.09861
 C2012 C 0.80675 0.69250 1.10290
 C2013 C 0.79681 0.68342 1.09323
 C2014 C 0.79025 0.68987 1.07954
 C2015 C 0.78610 0.71261 1.06088
 C2016 C 0.77057 0.70868 1.05644
 C2017 C 0.76360 0.71560 1.04319
 C2018 C 0.77194 0.72673 1.03416
 C2019 C 0.78751 0.73054 1.03846
 C2020 C 0.79455 0.72350 1.05161
 H2021 H 0.81737 0.71557 1.10592
 H2022 H 0.79426 0.67124 1.09610
 H2023 H 0.75150 0.71257 1.04029
 H2024 H 0.79425 0.73904 1.03171
 H2025 H 0.78288 0.68245 1.07220
 H2026 H 0.76361 0.70058 1.06345
 H2027 H 0.80565 0.72694 1.08229
 H2028 H 0.80662 0.72658 1.05451
 C2029 C 0.79338 0.20574 0.57536
 C2030 C 0.80320 0.21489 0.58512
 C2031 C 0.80990 0.20844 0.59874
 C2032 C 0.80681 0.19273 0.60302
 C2033 C 0.79698 0.18357 0.59331
 C2034 C 0.79040 0.18998 0.57961
 C2035 C 0.78611 0.21269 0.56096
 C2036 C 0.77060 0.20869 0.55651
 C2037 C 0.76359 0.21558 0.54326
 C2038 C 0.77188 0.22676 0.53423
 C2039 C 0.78744 0.23063 0.53854
 C2040 C 0.79450 0.22362 0.55169
 H2041 H 0.81725 0.21589 0.60607
 H2042 H 0.79451 0.17137 0.59617
 H2043 H 0.75152 0.21249 0.54035
 H2044 H 0.79414 0.23917 0.53179
 H2045 H 0.78310 0.18251 0.57224
 H2046 H 0.76368 0.20054 0.56351
 H2047 H 0.80550 0.22716 0.58241
 H2048 H 0.80656 0.22677 0.55460
 C2049 C 0.70638 0.70657 0.42473
 C2050 C 0.70900 0.69066 0.42084
 C2051 C 0.70249 0.68418 0.40715
 C2052 C 0.69311 0.69344 0.39705
 C2053 C 0.69037 0.70931 0.40100
 C2054 C 0.69696 0.71581 0.41464
 C2055 C 0.71363 0.71356 0.43910
 C2056 C 0.70534 0.72474 0.44816
 C2057 C 0.71239 0.73172 0.46133
 C2058 C 0.72784 0.72757 0.46582
 C2059 C 0.73602 0.71619 0.45696
 C2060 C 0.72903 0.70931 0.44371
 H2061 H 0.70470 0.67187 0.40461
 H2062 H 0.68337 0.71684 0.39342
 H2063 H 0.70577 0.74043 0.46795
 H2064 H 0.74802 0.71289 0.46000
 H2065 H 0.69493 0.72818 0.41712
 H2066 H 0.69337 0.72808 0.44510
 H2067 H 0.71598 0.68313 0.42846
 H2068 H 0.73586 0.70097 0.43685
 C2069 C 0.70657 0.20648 -0.07538
 C2070 C 0.70927 0.19059 -0.07931
 C2071 C 0.70283 0.18413 -0.09304
 C2072 C 0.69344 0.19337 -0.10313
 C2073 C 0.69060 0.20922 -0.09914
 C2074 C 0.69713 0.21571 -0.08546
 C2075 C 0.71378 0.21348 -0.06099
 C2076 C 0.70548 0.22467 -0.05194
 C2077 C 0.71252 0.23167 -0.03878
 C2078 C 0.72796 0.22755 -0.03427
 C2079 C 0.73616 0.21616 -0.04311
 C2080 C 0.72919 0.20926 -0.05635
 H2081 H 0.70509 0.17183 -0.09562
 H2082 H 0.68358 0.21674 -0.10671
 H2083 H 0.70588 0.24039 -0.03218
 H2084 H 0.74816 0.21288 -0.04006
 H2085 H 0.69503 0.22806 -0.08296
 H2086 H 0.69351 0.22800 -0.05502
 H2087 H 0.71626 0.18307 -0.07168
 H2088 H 0.73604 0.20092 -0.06320
 C2089 C 0.20650 0.70625 -0.07531
 C2090 C 0.20894 0.69029 -0.07911
 C2091 C 0.20231 0.68381 -0.09275
 C2092 C 0.19302 0.69312 -0.10289
 C2093 C 0.19049 0.70905 -0.09903
 C2094 C 0.19718 0.71554 -0.08544
 C2095 C 0.21380 0.71324 -0.06096
 C2096 C 0.20558 0.72451 -0.05196
 C2097 C 0.21267 0.73151 -0.03883
 C2098 C 0.22810 0.72731 -0.03431
 C2099 C 0.23621 0.71581 -0.04310
 C2100 C 0.22917 0.70890 -0.05631
 H2101 H 0.20437 0.67146 -0.09522
 H2102 H 0.18357 0.71662 -0.10664
 H2103 H 0.20610 0.74031 -0.03227
 H2104 H 0.24818 0.71245 -0.04003
 H2105 H 0.19529 0.72795 -0.08303
 H2106 H 0.19364 0.72792 -0.05505
 H2107 H 0.21584 0.68273 -0.07145
 H2108 H 0.23594 0.70046 -0.06312
 C2109 C 0.20664 0.20609 0.42490
 C2110 C 0.19065 0.20861 0.42108
 C2111 C 0.18415 0.20215 0.40739
 C2112 C 0.19345 0.19291 0.39721
 C2113 C 0.20939 0.19024 0.40109
 C2114 C 0.21592 0.19679 0.41474
 C2115 C 0.21367 0.21337 0.43923
 C2116 C 0.22504 0.20524 0.44823
 C2117 C 0.23200 0.21234 0.46139
 C2118 C 0.22763 0.22768 0.46593
 C2119 C 0.21609 0.23571 0.45711
 C2120 C 0.20925 0.22867 0.44388
 H2121 H 0.17179 0.20429 0.40490
 H2122 H 0.21695 0.18335 0.39344
 H2123 H 0.24085 0.20585 0.46797
 H2124 H 0.21262 0.24762 0.46018
 H2125 H 0.22834 0.19484 0.41715
 H2126 H 0.22853 0.19334 0.44512
 H2127 H 0.18309 0.21549 0.42876
 H2128 H 0.20077 0.23541 0.43707
 C2129 C 0.29387 0.42459 0.70684
 C2130 C 0.28471 0.41487 0.69698
 C2131 C 0.29116 0.40123 0.69033
 C2132 C 0.30688 0.39688 0.69348
 C2133 C 0.31605 0.40655 0.70335
 C2134 C 0.30964 0.42027 0.70990
 C2135 C 0.28692 0.43901 0.71407
 C2136 C 0.29086 0.44338 0.72958
 C2137 C 0.28398 0.45665 0.73655
 C2138 C 0.27287 0.46578 0.72825
 C2139 C 0.26904 0.46154 0.71270
 C2140 C 0.27605 0.44836 0.70566
 H2141 H 0.28371 0.39395 0.68295
 H2142 H 0.32826 0.40365 0.70587
 H2143 H 0.28702 0.45950 0.74862
 H2144 H 0.26055 0.46837 0.70599
 H2145 H 0.31711 0.42760 0.71722
 H2146 H 0.29895 0.43631 0.73651
 H2147 H 0.27244 0.41765 0.69462
 H2148 H 0.27295 0.44550 0.69361
 C2149 C 0.29372 0.92481 0.20646
 C2150 C 0.29109 0.92103 0.19053
 C2151 C 0.29757 0.90737 0.18395
 C2152 C 0.30696 0.89720 0.19310
 C2153 C 0.30975 0.90103 0.20898
 C2154 C 0.30316 0.91464 0.21560
 C2155 C 0.28642 0.93913 0.21357
 C2156 C 0.29459 0.94808 0.22491
 C2157 C 0.28747 0.96124 0.23191
 C2158 C 0.27210 0.96583 0.22761
 C2159 C 0.26403 0.95706 0.21609
 C2160 C 0.27107 0.94382 0.20922
 H2161 H 0.29536 0.90491 0.17163
 H2162 H 0.31678 0.89337 0.21641
 H2163 H 0.29400 0.96779 0.24073
 H2164 H 0.25208 0.96016 0.21268
 H2165 H 0.30520 0.91701 0.22798
 H2166 H 0.30651 0.94495 0.22835
 H2167 H 0.28412 0.92873 0.18307
 H2168 H 0.26430 0.93704 0.20077
 C2169 C 0.79380 0.42477 0.20685
 C2170 C 0.78465 0.41506 0.19698
 C2171 C 0.79110 0.40141 0.19033
 C2172 C 0.80682 0.39705 0.19349
 C2173 C 0.81598 0.40671 0.20337
 C2174 C 0.80957 0.42044 0.20992
 C2175 C 0.78686 0.43920 0.21407
 C2176 C 0.79079 0.44360 0.22957
 C2177 C 0.78390 0.45687 0.23654
 C2178 C 0.77277 0.46597 0.22823
 C2179 C 0.76896 0.46172 0.21268
 C2180 C 0.77598 0.44854 0.20565
 H2181 H 0.78365 0.39414 0.18293
 H2182 H 0.82819 0.40382 0.20589
 H2183 H 0.78694 0.45973 0.24861
 H2184 H 0.76046 0.46853 0.20597
 H2185 H 0.81704 0.42776 0.21725
 H2186 H 0.79889 0.43653 0.23650
 H2187 H 0.77238 0.41784 0.19461
 H2188 H 0.77288 0.44567 0.19361
 C2189 C 0.79389 0.92502 0.70676
 C2190 C 0.80978 0.92096 0.70954
 C2191 C 0.81631 0.90737 0.70283
 C2192 C 0.80715 0.89757 0.69308
 C2193 C 0.79129 0.90164 0.69024
 C2194 C 0.78472 0.91516 0.69705
 C2195 C 0.78686 0.93937 0.71405
 C2196 C 0.77577 0.94856 0.70575
 C2197 C 0.76875 0.96172 0.71281
 C2198 C 0.77276 0.96610 0.72827
 C2199 C 0.78406 0.95713 0.73647
 C2200 C 0.79097 0.94388 0.72948
 H2201 H 0.82861 0.90470 0.70512
 H2202 H 0.78383 0.89426 0.68297
 H2203 H 0.76010 0.96843 0.70617
 H2204 H 0.78726 0.96009 0.74848
 H2205 H 0.77237 0.91773 0.69491
 H2206 H 0.77253 0.94560 0.69377
 H2207 H 0.81725 0.92839 0.71675
 H2208 H 0.79924 0.93692 0.73632
 C2209 C 0.70624 0.57554 0.70714
 C2210 C 0.69047 0.57988 0.71015
 C2211 C 0.68411 0.59363 0.70361
 C2212 C 0.69334 0.60333 0.69381
 C2213 C 0.70907 0.59898 0.69073
 C2214 C 0.71547 0.58529 0.69737
 C2215 C 0.71312 0.56104 0.71430
 C2216 C 0.72398 0.55173 0.70584
 C2217 C 0.73096 0.53849 0.71280
 C2218 C 0.72712 0.53415 0.72832
 C2219 C 0.71601 0.54322 0.73667
 C2220 C 0.70914 0.55655 0.72977
 H2221 H 0.67189 0.59653 0.70607
 H2222 H 0.71657 0.60627 0.68340
 H2223 H 0.73945 0.53171 0.70604
 H2224 H 0.71296 0.54029 0.74873
 H2225 H 0.72775 0.58251 0.69505
 H2226 H 0.72710 0.55467 0.69381
 H2227 H 0.68295 0.57253 0.71742
 H2228 H 0.70105 0.56359 0.73673
 C2229 C 0.70656 0.07527 0.20633
 C2230 C 0.71578 0.08527 0.19682
 C2231 C 0.70927 0.09893 0.19024
 C2232 C 0.69340 0.10299 0.19309
 C2233 C 0.68418 0.09303 0.20262
 C2234 C 0.69066 0.07931 0.20911
 C2235 C 0.71356 0.06085 0.21352
 C2236 C 0.70931 0.05624 0.22888
 C2237 C 0.71615 0.04294 0.23583
 C2238 C 0.72754 0.03402 0.22767
 C2239 C 0.73171 0.03851 0.21228
 C2240 C 0.72474 0.05173 0.20525
 H2241 H 0.71677 0.10643 0.18312
 H2242 H 0.67188 0.09568 0.20492
 H2243 H 0.71283 0.03991 0.24779
 H2244 H 0.74041 0.03184 0.20569
 H2245 H 0.68314 0.07176 0.21617
 H2246 H 0.70099 0.06313 0.23571
 H2247 H 0.72814 0.08271 0.19468
 H2248 H 0.72808 0.05479 0.19331
 C2249 C 0.20590 0.57524 0.20627
 C2250 C 0.21505 0.58505 0.19648
 C2251 C 0.20853 0.59865 0.18978
 C2252 C 0.19275 0.60286 0.19282
 C2253 C 0.18360 0.59311 0.20263
 C2254 C 0.19007 0.57943 0.20921
 C2255 C 0.21291 0.56085 0.21353
 C2256 C 0.20881 0.55635 0.22897
 C2257 C 0.21572 0.54310 0.23596
 C2258 C 0.22702 0.53413 0.22776
 C2259 C 0.23102 0.53849 0.21229
 C2260 C 0.22398 0.55164 0.20522
 H2261 H 0.21598 0.60600 0.18245
 H2262 H 0.17134 0.59591 0.20505
 H2263 H 0.21253 0.54016 0.24798
 H2264 H 0.23965 0.53177 0.20565
 H2265 H 0.18259 0.57203 0.21647
 H2266 H 0.20056 0.56331 0.23583
 H2267 H 0.22737 0.58239 0.19421
 H2268 H 0.22720 0.55458 0.19322
 C2269 C 0.20607 0.07516 0.70708
 C2270 C 0.21524 0.08497 0.69731
 C2271 C 0.20873 0.09855 0.69058
 C2272 C 0.19293 0.10274 0.69355
 C2273 C 0.18377 0.09300 0.70337
 C2274 C 0.19024 0.07935 0.71001
 C2275 C 0.21305 0.06074 0.71429
 C2276 C 0.20902 0.05623 0.72974
 C2277 C 0.21594 0.04294 0.73668
 C2278 C 0.22716 0.03395 0.72839
 C2279 C 0.23105 0.03832 0.71288
 C2280 C 0.22401 0.05150 0.70589
 H2281 H 0.21619 0.10588 0.68324
 H2282 H 0.17151 0.09577 0.70576
 H2283 H 0.21284 0.03999 0.74872
 H2284 H 0.23961 0.03159 0.70617
 H2285 H 0.18276 0.07195 0.71727
 H2286 H 0.20083 0.06320 0.73666
 H2287 H 0.22756 0.08230 0.69506
 H2288 H 0.22717 0.05446 0.69387
 C2289 C 0.29365 0.57524 0.29321
 C2290 C 0.29102 0.57907 0.30913
 C2291 C 0.29750 0.59274 0.31566
 C2292 C 0.30688 0.60288 0.30648
 C2293 C 0.30966 0.59900 0.29061
 C2294 C 0.30307 0.58538 0.28403
 C2295 C 0.28636 0.56091 0.28616
 C2296 C 0.29455 0.55192 0.27484
 C2297 C 0.28745 0.53875 0.26787
 C2298 C 0.27208 0.53419 0.27217
 C2299 C 0.26399 0.54299 0.28367
 C2300 C 0.27101 0.55623 0.29051
 H2301 H 0.29529 0.59524 0.32798
 H2302 H 0.31668 0.60663 0.28315
 H2303 H 0.29399 0.53218 0.25906
 H2304 H 0.25205 0.53990 0.28708
 H2305 H 0.30511 0.58296 0.27166
 H2306 H 0.30648 0.55502 0.27140
 H2307 H 0.28406 0.57140 0.31662
 H2308 H 0.26424 0.56304 0.29895
 C2309 C 0.29412 0.07533 0.79291
 C2310 C 0.28489 0.08508 0.80269
 C2311 C 0.29128 0.09874 0.80934
 C2312 C 0.30702 0.10306 0.80630
 C2313 C 0.31625 0.09337 0.79648
 C2314 C 0.30989 0.07964 0.78991
 C2315 C 0.28726 0.06084 0.78575
 C2316 C 0.29124 0.05638 0.77027
 C2317 C 0.28440 0.04305 0.76337
 C2318 C 0.27332 0.03396 0.77173
 C2319 C 0.26949 0.03828 0.78726
 C2320 C 0.27644 0.05151 0.79422
 H2321 H 0.28377 0.10603 0.81668
 H2322 H 0.32847 0.09624 0.79403
 H2323 H 0.28744 0.04014 0.75131
 H2324 H 0.26103 0.03147 0.79402
 H2325 H 0.31742 0.07229 0.78265
 H2326 H 0.29931 0.06343 0.76331
 H2327 H 0.27261 0.08230 0.80500
 H2328 H 0.27333 0.05443 0.80626
 C2329 C 0.79427 0.57532 0.79293
 C2330 C 0.78508 0.58512 0.80271
 C2331 C 0.79156 0.59872 0.80941
 C2332 C 0.80734 0.60294 0.80641
 C2333 C 0.81652 0.59320 0.79659
 C2334 C 0.81008 0.57953 0.78998
 C2335 C 0.78732 0.56088 0.78574
 C2336 C 0.79133 0.55638 0.77028
 C2337 C 0.78444 0.54309 0.76335
 C2338 C 0.77326 0.53408 0.77166
 C2339 C 0.76938 0.53844 0.78717
 C2340 C 0.77638 0.55163 0.79415
 H2341 H 0.78408 0.60604 0.81675
 H2342 H 0.82876 0.59598 0.79417
 H2343 H 0.78754 0.54015 0.75131
 H2344 H 0.76084 0.53170 0.79389
 H2345 H 0.81756 0.57215 0.78271
 H2346 H 0.79949 0.56337 0.76335
 H2347 H 0.77278 0.58243 0.80499
 H2348 H 0.77323 0.55458 0.80617
 C2349 C 0.79366 0.07501 0.29344
 C2350 C 0.79104 0.07888 0.30935
 C2351 C 0.79752 0.09258 0.31582
 C2352 C 0.80688 0.10270 0.30660
 C2353 C 0.80966 0.09876 0.29074
 C2354 C 0.80308 0.08511 0.28422
 C2355 C 0.78638 0.06064 0.28644
 C2356 C 0.79458 0.05162 0.27516
 C2357 C 0.78749 0.03845 0.26820
 C2358 C 0.77209 0.03390 0.27247
 C2359 C 0.76400 0.04272 0.28394
 C2360 C 0.77102 0.05597 0.29079
 H2361 H 0.79532 0.09511 0.32814
 H2362 H 0.81667 0.10637 0.28325
 H2363 H 0.79404 0.03186 0.25942
 H2364 H 0.75204 0.03965 0.28733
 H2365 H 0.80512 0.08265 0.27186
 H2366 H 0.80652 0.05471 0.27173
 H2367 H 0.78410 0.07123 0.31687
 H2368 H 0.76424 0.06279 0.29921
 C2369 C 0.70594 0.42463 0.29345
 C2370 C 0.69018 0.42033 0.29035
 C2371 C 0.68376 0.40661 0.29689
 C2372 C 0.69289 0.39693 0.30680
 C2373 C 0.70861 0.40126 0.30998
 C2374 C 0.71508 0.41490 0.30333
 C2375 C 0.71291 0.43904 0.28620
 C2376 C 0.72380 0.44836 0.29460
 C2377 C 0.73082 0.46152 0.28755
 C2378 C 0.72699 0.46578 0.27200
 C2379 C 0.71587 0.45668 0.26371
 C2380 C 0.70898 0.44343 0.27070
 H2381 H 0.67155 0.40373 0.29435
 H2382 H 0.71604 0.39397 0.31739
 H2383 H 0.73932 0.46833 0.29425
 H2384 H 0.71281 0.45954 0.25164
 H2385 H 0.72734 0.41765 0.30572
 H2386 H 0.72690 0.44549 0.30665
 H2387 H 0.68272 0.42767 0.28301
 H2388 H 0.70088 0.43638 0.26377
 C2389 C 0.70603 0.92479 0.79336
 C2390 C 0.69027 0.92047 0.79027
 C2391 C 0.68389 0.90671 0.79675
 C2392 C 0.69307 0.89700 0.80659
 C2393 C 0.70878 0.90134 0.80976
 C2394 C 0.71520 0.91503 0.80318
 C2395 C 0.71296 0.93924 0.78617
 C2396 C 0.72384 0.94855 0.79459
 C2397 C 0.73085 0.96174 0.78757
 C2398 C 0.72700 0.96603 0.77203
 C2399 C 0.71588 0.95695 0.76373
 C2400 C 0.70900 0.94368 0.77068
 H2401 H 0.67169 0.90382 0.79422
 H2402 H 0.71624 0.89403 0.81712
 H2403 H 0.73934 0.96853 0.79428
 H2404 H 0.71281 0.95984 0.75167
 H2405 H 0.72747 0.91780 0.80556
 H2406 H 0.72695 0.94565 0.80663
 H2407 H 0.68278 0.92783 0.78298
 H2408 H 0.70090 0.93664 0.76375
 C2409 C 0.20613 0.42460 0.79330
 C2410 C 0.21531 0.41476 0.80303
 C2411 C 0.20881 0.40116 0.80973
 C2412 C 0.19301 0.39699 0.80676
 C2413 C 0.18384 0.40677 0.79698
 C2414 C 0.19030 0.42044 0.79038
 C2415 C 0.21310 0.43902 0.78609
 C2416 C 0.20905 0.44354 0.77065
 C2417 C 0.21593 0.45682 0.76371
 C2418 C 0.22715 0.46581 0.77199
 C2419 C 0.23107 0.46144 0.78748
 C2420 C 0.22407 0.44824 0.79448
 H2421 H 0.21628 0.39380 0.81704
 H2422 H 0.17158 0.40402 0.79458
 H2423 H 0.21280 0.45978 0.75169
 H2424 H 0.23964 0.46816 0.79417
 H2425 H 0.18282 0.42786 0.78314
 H2426 H 0.20087 0.43657 0.76374
 H2427 H 0.22763 0.41741 0.80528
 H2428 H 0.22725 0.44528 0.80648
 C2429 C 0.20600 0.92464 0.29341
 C2430 C 0.19020 0.92041 0.29038
 C2431 C 0.18378 0.90666 0.29685
 C2432 C 0.19295 0.89688 0.30663
 C2433 C 0.20870 0.90113 0.30974
 C2434 C 0.21517 0.91480 0.30316
 C2435 C 0.21298 0.93907 0.28620
 C2436 C 0.22399 0.94828 0.29455
 C2437 C 0.23102 0.96146 0.28751
 C2438 C 0.22705 0.96582 0.27203
 C2439 C 0.21581 0.95683 0.26379
 C2440 C 0.20892 0.94357 0.27076
 H2441 H 0.17156 0.90383 0.29436
 H2442 H 0.21616 0.89376 0.31705
 H2443 H 0.23960 0.96819 0.29417
 H2444 H 0.21265 0.95977 0.25177
 H2445 H 0.22746 0.91750 0.30549
 H2446 H 0.22718 0.94534 0.30656
 H2447 H 0.18272 0.92782 0.28314
 H2448 H 0.20072 0.93660 0.26386
 C2449 C 0.42463 0.29389 0.70663
 C2450 C 0.41462 0.30354 0.71571
 C2451 C 0.40097 0.31013 0.70912
 C2452 C 0.39695 0.30711 0.69333
 C2453 C 0.40698 0.29751 0.68423
 C2454 C 0.42068 0.29104 0.69078
 C2455 C 0.43897 0.28657 0.71373
 C2456 C 0.44345 0.27113 0.70960
 C2457 C 0.45670 0.26408 0.71648
 C2458 C 0.46569 0.27223 0.72777
 C2459 C 0.46131 0.28769 0.73185
 C2460 C 0.44814 0.29482 0.72484
 H2461 H 0.39343 0.31733 0.71651
 H2462 H 0.40436 0.29512 0.67197
 H2463 H 0.45964 0.25207 0.71324
 H2464 H 0.46803 0.29427 0.74049
 H2465 H 0.42826 0.28390 0.68337
 H2466 H 0.43650 0.26432 0.70134
 H2467 H 0.41714 0.30577 0.72803
 H2468 H 0.44517 0.30681 0.72811
 C2469 C 0.42442 0.79396 0.20653
 C2470 C 0.41433 0.80349 0.21566
 C2471 C 0.40066 0.81004 0.20908
 C2472 C 0.39668 0.80710 0.19327
 C2473 C 0.40677 0.79761 0.18413
 C2474 C 0.42050 0.79118 0.19066
 C2475 C 0.43878 0.78668 0.21360
 C2476 C 0.44335 0.77129 0.20941
 C2477 C 0.45662 0.76427 0.21627
 C2478 C 0.46555 0.77240 0.22762
 C2479 C 0.46109 0.78782 0.23176
 C2480 C 0.44790 0.79492 0.22477
 H2481 H 0.39306 0.81715 0.21650
 H2482 H 0.40420 0.79529 0.17185
 H2483 H 0.45962 0.75229 0.21297
 H2484 H 0.46777 0.79439 0.24046
 H2485 H 0.42813 0.78412 0.18322
 H2486 H 0.43645 0.76448 0.20109
 H2487 H 0.41682 0.80565 0.22799
 H2488 H 0.44486 0.80687 0.22809
 C2489 C 0.92459 0.29411 0.20661
 C2490 C 0.92064 0.29127 0.19075
 C2491 C 0.90691 0.29773 0.18422
 C2492 C 0.89687 0.30729 0.19334
 C2493 C 0.90091 0.31031 0.20912
 C2494 C 0.91457 0.30374 0.21570
 C2495 C 0.93892 0.28677 0.21369
 C2496 C 0.94809 0.29497 0.22483
 C2497 C 0.96125 0.28781 0.23183
 C2498 C 0.96561 0.27235 0.22772
 C2499 C 0.95661 0.26424 0.21641
 C2500 C 0.94339 0.27133 0.20954
 H2501 H 0.90430 0.29534 0.17197
 H2502 H 0.89335 0.31749 0.21652
 H2503 H 0.96797 0.29436 0.24050
 H2504 H 0.95953 0.25224 0.21315
 H2505 H 0.91710 0.30596 0.22802
 H2506 H 0.94514 0.30696 0.22812
 H2507 H 0.92823 0.28416 0.18332
 H2508 H 0.93643 0.26454 0.20125
 C2509 C 0.92450 0.79443 0.70692
 C2510 C 0.92047 0.81030 0.70962
 C2511 C 0.90681 0.81677 0.70295
 C2512 C 0.89690 0.80756 0.69335
 C2513 C 0.90095 0.79171 0.69062
 C2514 C 0.91454 0.78521 0.69737
 C2515 C 0.93894 0.78745 0.71413
 C2516 C 0.94810 0.77639 0.70578
 C2517 C 0.96132 0.76938 0.71277
 C2518 C 0.96578 0.77337 0.72822
 C2519 C 0.95686 0.78467 0.73646
 C2520 C 0.94355 0.79158 0.72952
 H2521 H 0.90416 0.82907 0.70516
 H2522 H 0.89349 0.78422 0.68346
 H2523 H 0.96799 0.76074 0.70610
 H2524 H 0.95989 0.78786 0.74845
 H2525 H 0.91710 0.77286 0.69530
 H2526 H 0.94506 0.77315 0.69382
 H2527 H 0.92799 0.81780 0.71672
 H2528 H 0.93663 0.79985 0.73639
 C2529 C 0.57540 0.29363 0.29386
 C2530 C 0.58539 0.28448 0.30346
 C2531 C 0.59898 0.29104 0.31016
 C2532 C 0.60299 0.30688 0.30733
 C2533 C 0.59301 0.31604 0.29774
 C2534 C 0.57936 0.30952 0.29113
 C2535 C 0.56107 0.28656 0.28654
 C2536 C 0.55658 0.29068 0.27111
 C2537 C 0.54337 0.28374 0.26406
 C2538 C 0.53442 0.27239 0.27220
 C2539 C 0.53881 0.26834 0.28766
 C2540 C 0.55193 0.27540 0.29477
 H2541 H 0.60649 0.28356 0.31730
 H2542 H 0.59562 0.32833 0.29545
 H2543 H 0.54042 0.28697 0.25206
 H2544 H 0.53212 0.25966 0.29425
 H2545 H 0.57181 0.31698 0.28399
 H2546 H 0.56350 0.29900 0.26431
 H2547 H 0.58289 0.27213 0.30557
 H2548 H 0.55490 0.27214 0.30676
 C2549 C 0.57538 0.79399 0.79371
 C2550 C 0.58543 0.78475 0.80318
 C2551 C 0.59908 0.79123 0.80982
 C2552 C 0.60310 0.80709 0.80707
 C2553 C 0.59307 0.81633 0.79761
 C2554 C 0.57936 0.80988 0.79105
 C2555 C 0.56099 0.78699 0.78643
 C2556 C 0.55638 0.79126 0.77108
 C2557 C 0.54314 0.78436 0.76405
 C2558 C 0.53427 0.77292 0.77214
 C2559 C 0.53875 0.76875 0.78754
 C2560 C 0.55191 0.77577 0.79463
 H2561 H 0.60661 0.78370 0.81688
 H2562 H 0.59569 0.82863 0.79539
 H2563 H 0.54011 0.78768 0.75209
 H2564 H 0.53212 0.76000 0.79409
 H2565 H 0.57177 0.81740 0.78403
 H2566 H 0.56325 0.79964 0.76430
 H2567 H 0.58291 0.77239 0.80523
 H2568 H 0.55495 0.77240 0.80657
 C2569 C 0.07546 0.29408 0.79345
 C2570 C 0.08550 0.28483 0.80290
 C2571 C 0.09909 0.29133 0.80965
 C2572 C 0.10302 0.30722 0.80705
 C2573 C 0.09301 0.31648 0.79758
 C2574 C 0.07938 0.31000 0.79089
 C2575 C 0.06106 0.28710 0.78618
 C2576 C 0.05645 0.29131 0.77081
 C2577 C 0.04319 0.28440 0.76382
 C2578 C 0.03430 0.27302 0.77199
 C2579 C 0.03877 0.26895 0.78742
 C2580 C 0.05195 0.27596 0.79446
 H2581 H 0.10661 0.28378 0.81671
 H2582 H 0.09556 0.32880 0.79545
 H2583 H 0.04015 0.28765 0.75184
 H2584 H 0.03213 0.26026 0.79404
 H2585 H 0.07179 0.31752 0.78386
 H2586 H 0.06334 0.29964 0.76400
 H2587 H 0.08302 0.27245 0.80486
 H2588 H 0.05500 0.27266 0.80641
 C2589 C 0.07520 0.79392 0.29362
 C2590 C 0.08519 0.78471 0.30316
 C2591 C 0.09885 0.79118 0.30980
 C2592 C 0.10291 0.80702 0.30699
 C2593 C 0.09293 0.81624 0.29746
 C2594 C 0.07922 0.80979 0.29089
 C2595 C 0.06082 0.78692 0.28634
 C2596 C 0.05631 0.79107 0.27093
 C2597 C 0.04310 0.78414 0.26388
 C2598 C 0.03415 0.77279 0.27203
 C2599 C 0.03852 0.76875 0.28749
 C2600 C 0.05166 0.77580 0.29460
 H2601 H 0.10634 0.78366 0.31690
 H2602 H 0.09558 0.82852 0.29518
 H2603 H 0.04014 0.78737 0.25188
 H2604 H 0.03183 0.76008 0.29409
 H2605 H 0.07167 0.81729 0.28381
 H2606 H 0.06324 0.79937 0.26412
 H2607 H 0.08264 0.77237 0.30526
 H2608 H 0.05464 0.77253 0.30658
 C2609 C 0.57531 0.70604 0.70657
 C2610 C 0.57914 0.70873 0.69066
 C2611 C 0.59281 0.70221 0.68407
 C2612 C 0.60293 0.69274 0.69320
 C2613 C 0.59903 0.68989 0.70906
 C2614 C 0.58541 0.69651 0.71568
 C2615 C 0.56100 0.71341 0.71369
 C2616 C 0.55195 0.70528 0.72500
 C2617 C 0.53881 0.71245 0.73202
 C2618 C 0.53434 0.72785 0.72776
 C2619 C 0.54321 0.73587 0.71628
 C2620 C 0.55643 0.72878 0.70940
 H2621 H 0.59533 0.70447 0.67177
 H2622 H 0.60664 0.68279 0.71647
 H2623 H 0.53218 0.70596 0.74081
 H2624 H 0.54020 0.74783 0.71291
 H2625 H 0.58299 0.69442 0.72804
 H2626 H 0.55498 0.69334 0.72840
 H2627 H 0.57149 0.71576 0.68321
 H2628 H 0.56329 0.73551 0.70098
 C2629 C 0.57554 0.20598 0.20657
 C2630 C 0.58542 0.21511 0.19685
 C2631 C 0.59906 0.20859 0.19018
 C2632 C 0.60320 0.19280 0.19316
 C2633 C 0.59336 0.18368 0.20290
 C2634 C 0.57967 0.19017 0.20948
 C2635 C 0.56113 0.21299 0.21382
 C2636 C 0.55667 0.20895 0.22928
 C2637 C 0.54341 0.21585 0.23628
 C2638 C 0.53437 0.22709 0.22806
 C2639 C 0.53869 0.23103 0.21256
 C2640 C 0.55188 0.22400 0.20549
 H2641 H 0.60646 0.21602 0.18290
 H2642 H 0.59609 0.17143 0.20530
 H2643 H 0.54049 0.21270 0.24831
 H2644 H 0.53193 0.23961 0.20591
 H2645 H 0.57221 0.18272 0.21671
 H2646 H 0.56367 0.20075 0.23615
 H2647 H 0.58279 0.22741 0.19460
 H2648 H 0.55481 0.22718 0.19348
 C2649 C 0.07517 0.70616 0.20604
 C2650 C 0.08517 0.71535 0.19648
 C2651 C 0.09875 0.70879 0.18974
 C2652 C 0.10274 0.69292 0.19246
 C2653 C 0.09275 0.68373 0.20200
 C2654 C 0.07911 0.69025 0.20867
 C2655 C 0.06085 0.71323 0.21341
 C2656 C 0.05635 0.70904 0.22881
 C2657 C 0.04316 0.71599 0.23591
 C2658 C 0.03422 0.72741 0.22783
 C2659 C 0.03860 0.73151 0.21238
 C2660 C 0.05171 0.72444 0.20522
 H2661 H 0.10626 0.71630 0.18263
 H2662 H 0.09535 0.67142 0.20421
 H2663 H 0.04021 0.71272 0.24790
 H2664 H 0.03192 0.74023 0.20584
 H2665 H 0.07156 0.68277 0.21576
 H2666 H 0.06327 0.70067 0.23557
 H2667 H 0.08268 0.72771 0.19446
 H2668 H 0.05467 0.72775 0.19325
 C2669 C 0.07538 0.20581 0.70693
 C2670 C 0.07929 0.18989 0.70947
 C2671 C 0.09293 0.18339 0.70278
 C2672 C 0.10296 0.19264 0.69332
 C2673 C 0.09902 0.20855 0.69073
 C2674 C 0.08543 0.21506 0.69749
 C2675 C 0.06099 0.21282 0.71420
 C2676 C 0.05189 0.22399 0.70593
 C2677 C 0.03873 0.23104 0.71299
 C2678 C 0.03427 0.22700 0.72842
 C2679 C 0.04313 0.21559 0.73659
 C2680 C 0.05638 0.20863 0.72958
 H2681 H 0.09549 0.17106 0.70489
 H2682 H 0.10655 0.21609 0.68369
 H2683 H 0.03211 0.23976 0.70637
 H2684 H 0.04010 0.21236 0.74857
 H2685 H 0.08295 0.22745 0.69554
 H2686 H 0.05493 0.22728 0.69398
 H2687 H 0.07171 0.18237 0.71649
 H2688 H 0.06326 0.20027 0.73639
 C2689 C 0.42432 0.70613 0.29309
 C2690 C 0.41429 0.69658 0.28394
 C2691 C 0.40063 0.69000 0.29049
 C2692 C 0.39661 0.69292 0.30630
 C2693 C 0.40665 0.70242 0.31546
 C2694 C 0.42037 0.70889 0.30895
 C2695 C 0.43869 0.71343 0.28606
 C2696 C 0.44320 0.72882 0.29028
 C2697 C 0.45648 0.73586 0.28349
 C2698 C 0.46549 0.72774 0.27217
 C2699 C 0.46108 0.71232 0.26799
 C2700 C 0.44787 0.70521 0.27492
 H2701 H 0.39307 0.68289 0.28305
 H2702 H 0.40404 0.70473 0.32773
 H2703 H 0.45944 0.74784 0.28681
 H2704 H 0.46781 0.70576 0.25932
 H2705 H 0.42796 0.71595 0.31642
 H2706 H 0.43624 0.73562 0.29858
 H2707 H 0.41682 0.69444 0.27161
 H2708 H 0.44488 0.69325 0.27157
 C2709 C 0.42452 0.20615 0.79347
 C2710 C 0.41459 0.19640 0.78441
 C2711 C 0.40095 0.18981 0.79101
 C2712 C 0.39685 0.19291 0.80676
 C2713 C 0.40677 0.20263 0.81582
 C2714 C 0.42047 0.20910 0.80928
 C2715 C 0.43888 0.21343 0.78640
 C2716 C 0.44333 0.22888 0.79049
 C2717 C 0.45661 0.23588 0.78366
 C2718 C 0.46568 0.22769 0.77244
 C2719 C 0.46133 0.21222 0.76840
 C2720 C 0.44812 0.20513 0.77536
 H2721 H 0.39348 0.18252 0.78365
 H2722 H 0.40409 0.20508 0.82805
 H2723 H 0.45953 0.24790 0.78688
 H2724 H 0.46811 0.20560 0.75982
 H2725 H 0.42798 0.21631 0.81668
 H2726 H 0.43633 0.23573 0.79869
 H2727 H 0.41718 0.19410 0.77212
 H2728 H 0.44519 0.19313 0.77213
 C2729 C 0.92454 0.70627 0.79284
 C2730 C 0.91460 0.71544 0.80248
 C2731 C 0.90096 0.70895 0.80915
 C2732 C 0.89686 0.69315 0.80625
 C2733 C 0.90674 0.68399 0.79656
 C2734 C 0.92044 0.69045 0.78998
 C2735 C 0.93900 0.71324 0.78566
 C2736 C 0.94358 0.70919 0.77024
 C2737 C 0.95689 0.71609 0.76332
 C2738 C 0.96584 0.72732 0.77160
 C2739 C 0.96141 0.73123 0.78709
 C2740 C 0.94819 0.72421 0.79406
 H2741 H 0.89353 0.71641 0.81638
 H2742 H 0.90406 0.67173 0.79422
 H2743 H 0.95989 0.71296 0.75131
 H2744 H 0.96811 0.73980 0.79379
 H2745 H 0.92794 0.68298 0.78281
 H2746 H 0.93663 0.70099 0.76333
 H2747 H 0.91721 0.72775 0.80468
 H2748 H 0.94518 0.72739 0.80606
 C2749 C 0.92432 0.20592 0.29312
 C2750 C 0.92036 0.20868 0.30898
 C2751 C 0.90662 0.20224 0.31547
 C2752 C 0.89656 0.19277 0.30630
 C2753 C 0.90060 0.18983 0.29050
 C2754 C 0.91429 0.19638 0.28397
 C2755 C 0.93869 0.21322 0.28610
 C2756 C 0.94788 0.20501 0.27495
 C2757 C 0.96108 0.21213 0.26802
 C2758 C 0.96548 0.22755 0.27220
 C2759 C 0.95647 0.23566 0.28352
 C2760 C 0.94319 0.22862 0.29033
 H2761 H 0.90400 0.20456 0.32775
 H2762 H 0.89304 0.18272 0.28306
 H2763 H 0.96782 0.20557 0.25935
 H2764 H 0.95942 0.24764 0.28684
 H2765 H 0.91683 0.19422 0.27164
 H2766 H 0.94489 0.19305 0.27162
 H2767 H 0.92795 0.21573 0.31646
 H2768 H 0.93624 0.23541 0.29862
 C2769 C 0.29333 0.29374 0.57549
 C2770 C 0.29037 0.30955 0.57958
 C2771 C 0.29690 0.31604 0.59325
 C2772 C 0.30665 0.30692 0.60310
 C2773 C 0.30972 0.29116 0.59897
 C2774 C 0.30309 0.28463 0.58537
 C2775 C 0.28608 0.28673 0.56113
 C2776 C 0.29447 0.27573 0.55193
 C2777 C 0.28742 0.26874 0.53876
 C2778 C 0.27189 0.27271 0.53440
 C2779 C 0.26361 0.28392 0.54340
 C2780 C 0.27059 0.29078 0.55666
 H2781 H 0.29446 0.32828 0.59595
 H2782 H 0.31703 0.28375 0.60639
 H2783 H 0.29411 0.26017 0.53202
 H2784 H 0.25155 0.28707 0.54047
 H2785 H 0.30538 0.27233 0.58276
 H2786 H 0.30651 0.27253 0.55487
 H2787 H 0.28314 0.31699 0.57211
 H2788 H 0.26367 0.29896 0.56363
 C2789 C 0.29343 0.79417 0.07502
 C2790 C 0.29057 0.81002 0.07905
 C2791 C 0.29713 0.81650 0.09271
 C2792 C 0.30680 0.80735 0.10261
 C2793 C 0.30977 0.79155 0.09854
 C2794 C 0.30311 0.78502 0.08494
 C2795 C 0.28618 0.78716 0.06065
 C2796 C 0.29454 0.77611 0.05151
 C2797 C 0.28750 0.76909 0.03835
 C2798 C 0.27198 0.77308 0.03395
 C2799 C 0.26373 0.78436 0.04287
 C2800 C 0.27071 0.79126 0.05612
 H2801 H 0.29477 0.82877 0.09537
 H2802 H 0.31700 0.78411 0.10599
 H2803 H 0.29417 0.76046 0.03168
 H2804 H 0.25168 0.78754 0.03990
 H2805 H 0.30532 0.77270 0.08237
 H2806 H 0.30656 0.77288 0.05449
 H2807 H 0.28340 0.81748 0.07155
 H2808 H 0.26381 0.79951 0.06304
 C2809 C 0.79334 0.29407 0.07524
 C2810 C 0.79045 0.30990 0.07929
 C2811 C 0.79700 0.31639 0.09295
 C2812 C 0.80671 0.30724 0.10283
 C2813 C 0.80971 0.29146 0.09874
 C2814 C 0.80305 0.28493 0.08514
 C2815 C 0.78609 0.28706 0.06087
 C2816 C 0.79445 0.27599 0.05172
 C2817 C 0.78740 0.26900 0.03855
 C2818 C 0.77192 0.27305 0.03412
 C2819 C 0.76366 0.28433 0.04305
 C2820 C 0.77064 0.29119 0.05632
 H2821 H 0.79461 0.32864 0.09564
 H2822 H 0.81697 0.28403 0.10617
 H2823 H 0.79407 0.26037 0.03187
 H2824 H 0.75163 0.28753 0.04006
 H2825 H 0.80528 0.27262 0.08256
 H2826 H 0.80646 0.27274 0.05472
 H2827 H 0.78326 0.31736 0.07181
 H2828 H 0.76374 0.29943 0.06324
 C2829 C 0.79313 0.79387 0.57548
 C2830 C 0.80271 0.78468 0.58547
 C2831 C 0.80929 0.79118 0.59911
 C2832 C 0.80635 0.80698 0.60318
 C2833 C 0.79678 0.81618 0.59322
 C2834 C 0.79030 0.80972 0.57951
 C2835 C 0.78594 0.78690 0.56107
 C2836 C 0.77053 0.79110 0.55644
 C2837 C 0.76359 0.78426 0.54314
 C2838 C 0.77183 0.77294 0.53426
 C2839 C 0.78728 0.76882 0.53877
 C2840 C 0.79429 0.77579 0.55197
 H2841 H 0.81646 0.78371 0.60661
 H2842 H 0.79445 0.82845 0.59587
 H2843 H 0.75159 0.78752 0.54009
 H2844 H 0.79395 0.76016 0.53213
 H2845 H 0.78321 0.81722 0.57196
 H2846 H 0.76364 0.79938 0.56332
 H2847 H 0.80489 0.77236 0.58291
 H2848 H 0.80627 0.77248 0.55504
 C2849 C 0.29349 0.70597 0.42460
 C2850 C 0.30317 0.71508 0.41466
 C2851 C 0.30979 0.70853 0.40105
 C2852 C 0.30680 0.69274 0.39698
 C2853 C 0.29713 0.68362 0.40690
 C2854 C 0.29060 0.69013 0.42057
 C2855 C 0.28624 0.71301 0.43896
 C2856 C 0.27077 0.70894 0.44349
 C2857 C 0.26379 0.71582 0.45674
 C2858 C 0.27204 0.72707 0.46570
 C2859 C 0.28754 0.73107 0.46129
 C2860 C 0.29460 0.72405 0.44812
 H2861 H 0.31703 0.71595 0.39358
 H2862 H 0.29474 0.67136 0.40424
 H2863 H 0.25175 0.71265 0.45971
 H2864 H 0.29421 0.73967 0.46798
 H2865 H 0.28343 0.68269 0.42809
 H2866 H 0.26388 0.70072 0.43656
 H2867 H 0.30540 0.72740 0.41722
 H2868 H 0.30662 0.72727 0.44513
 C2869 C 0.29312 0.20580 0.92472
 C2870 C 0.29017 0.19002 0.92057
 C2871 C 0.29675 0.18356 0.90690
 C2872 C 0.30653 0.19270 0.89710
 C2873 C 0.30957 0.20845 0.90128
 C2874 C 0.30289 0.21494 0.91489
 C2875 C 0.28588 0.21277 0.93913
 C2876 C 0.29429 0.22369 0.94837
 C2877 C 0.28727 0.23067 0.96156
 C2878 C 0.27172 0.22677 0.96592
 C2879 C 0.26341 0.21562 0.95690
 C2880 C 0.27037 0.20876 0.94361
 H2881 H 0.29432 0.17134 0.90414
 H2882 H 0.31689 0.21588 0.89391
 H2883 H 0.29399 0.23919 0.96831
 H2884 H 0.25134 0.21252 0.95984
 H2885 H 0.30517 0.22723 0.91755
 H2886 H 0.30634 0.22685 0.94542
 H2887 H 0.28292 0.18256 0.92800
 H2888 H 0.26344 0.20063 0.93662
 C2889 C 0.79327 0.70606 0.92442
 C2890 C 0.79041 0.69025 0.92031
 C2891 C 0.79696 0.68382 0.90661
 C2892 C 0.80663 0.69301 0.89674
 C2893 C 0.80960 0.70878 0.90090
 C2894 C 0.80295 0.71525 0.91454
 C2895 C 0.78605 0.71301 0.93885
 C2896 C 0.79445 0.72397 0.94805
 C2897 C 0.78745 0.73090 0.96128
 C2898 C 0.77194 0.72693 0.96570
 C2899 C 0.76364 0.71575 0.95671
 C2900 C 0.77059 0.70892 0.94339
 H2901 H 0.79460 0.67158 0.90389
 H2902 H 0.81684 0.71625 0.89348
 H2903 H 0.79416 0.73946 0.96799
 H2904 H 0.75160 0.71259 0.95969
 H2905 H 0.80517 0.72755 0.91717
 H2906 H 0.80647 0.72718 0.94505
 H2907 H 0.78324 0.68276 0.92778
 H2908 H 0.76367 0.70075 0.93643
 C2909 C 0.79329 0.20564 0.42480
 C2910 C 0.79044 0.18981 0.42075
 C2911 C 0.79706 0.18330 0.40712
 C2912 C 0.80678 0.19244 0.39725
 C2913 C 0.80973 0.20823 0.40134
 C2914 C 0.80301 0.21477 0.41491
 C2915 C 0.78602 0.21265 0.43916
 C2916 C 0.79439 0.22365 0.44834
 C2917 C 0.78735 0.23067 0.46150
 C2918 C 0.77182 0.22674 0.46589
 C2919 C 0.76355 0.21551 0.45694
 C2920 C 0.77054 0.20860 0.44369
 H2921 H 0.79471 0.17104 0.40445
 H2922 H 0.81700 0.21566 0.39392
 H2923 H 0.79405 0.23926 0.46819
 H2924 H 0.75150 0.21237 0.45991
 H2925 H 0.80522 0.22708 0.41749
 H2926 H 0.80643 0.22684 0.44537
 H2927 H 0.78323 0.18236 0.42822
 H2928 H 0.76364 0.20039 0.43674
 C2929 C 0.70679 0.29355 0.42461
 C2930 C 0.69738 0.28429 0.41455
 C2931 C 0.69074 0.29077 0.40092
 C2932 C 0.69342 0.30665 0.39694
 C2933 C 0.70282 0.31591 0.40700
 C2934 C 0.70939 0.30945 0.42067
 C2935 C 0.71402 0.28659 0.43902
 C2936 C 0.72941 0.29081 0.44366
 C2937 C 0.73638 0.28395 0.45695
 C2938 C 0.72816 0.27261 0.46583
 C2939 C 0.71271 0.26852 0.46132
 C2940 C 0.70569 0.27548 0.44811
 H2941 H 0.68373 0.28323 0.39337
 H2942 H 0.70499 0.32822 0.40443
 H2943 H 0.74837 0.28721 0.46001
 H2944 H 0.70605 0.25984 0.46795
 H2945 H 0.71637 0.31698 0.42827
 H2946 H 0.73627 0.29912 0.43678
 H2947 H 0.69537 0.27193 0.41706
 H2948 H 0.69373 0.27215 0.44503
 C2949 C 0.70680 0.79373 0.92468
 C2950 C 0.69737 0.78448 0.91463
 C2951 C 0.69070 0.79099 0.90102
 C2952 C 0.69337 0.80687 0.89707
 C2953 C 0.70277 0.81612 0.90712
 C2954 C 0.70937 0.80964 0.92078
 C2955 C 0.71405 0.78675 0.93907
 C2956 C 0.72946 0.79095 0.94369
 C2957 C 0.73645 0.78406 0.95695
 C2958 C 0.72825 0.77270 0.96581
 C2959 C 0.71279 0.76862 0.96133
 C2960 C 0.70575 0.77561 0.94815
 H2961 H 0.68369 0.78345 0.89346
 H2962 H 0.70494 0.82844 0.90457
 H2963 H 0.74845 0.78731 0.95999
 H2964 H 0.70614 0.75993 0.96795
 H2965 H 0.71636 0.81716 0.92838
 H2966 H 0.73630 0.79928 0.93681
 H2967 H 0.69538 0.77211 0.91711
 H2968 H 0.69377 0.77230 0.94509
 C2969 C 0.20656 0.29359 0.92478
 C2970 C 0.19711 0.28436 0.91473
 C2971 C 0.19049 0.29087 0.90109
 C2972 C 0.19324 0.30674 0.89711
 C2973 C 0.20264 0.31597 0.90718
 C2974 C 0.20919 0.30949 0.92087
 C2975 C 0.21381 0.28658 0.93917
 C2976 C 0.22922 0.29079 0.94380
 C2977 C 0.23620 0.28389 0.95705
 C2978 C 0.22800 0.27253 0.96592
 C2979 C 0.21255 0.26844 0.96142
 C2980 C 0.20551 0.27544 0.94824
 H2981 H 0.18347 0.28335 0.89353
 H2982 H 0.20485 0.32828 0.90463
 H2983 H 0.24820 0.28715 0.96010
 H2984 H 0.20591 0.25974 0.96804
 H2985 H 0.21619 0.31700 0.92847
 H2986 H 0.23606 0.29912 0.93693
 H2987 H 0.19508 0.27200 0.91722
 H2988 H 0.19354 0.27212 0.94518
 C2989 C 0.20645 0.79351 0.42465
 C2990 C 0.19703 0.78428 0.41458
 C2991 C 0.19038 0.79079 0.40097
 C2992 C 0.19306 0.80668 0.39703
 C2993 C 0.20245 0.81592 0.40710
 C2994 C 0.20903 0.80943 0.42076
 C2995 C 0.21373 0.78651 0.43901
 C2996 C 0.22913 0.79076 0.44361
 C2997 C 0.23615 0.78388 0.45686
 C2998 C 0.22798 0.77250 0.46574
 C2999 C 0.21254 0.76837 0.46126
 C3000 C 0.20547 0.77534 0.44809
 H3001 H 0.18337 0.78327 0.39340
 H3002 H 0.20463 0.82824 0.40456
 H3003 H 0.24814 0.78718 0.45989
 H3004 H 0.20593 0.75966 0.46789
 H3005 H 0.21602 0.81695 0.42837
 H3006 H 0.23595 0.79910 0.43673
 H3007 H 0.19503 0.77191 0.41706
 H3008 H 0.19350 0.77200 0.44504
 C3009 C 0.70663 0.70634 0.57541
 C3010 C 0.71584 0.69682 0.58544
 C3011 C 0.70929 0.69021 0.59905
 C3012 C 0.69341 0.69304 0.60304
 C3013 C 0.68419 0.70254 0.59303
 C3014 C 0.69070 0.70905 0.57936
 C3015 C 0.71366 0.71362 0.56106
 C3016 C 0.70934 0.72897 0.55647
 C3017 C 0.71617 0.73599 0.54321
 C3018 C 0.72762 0.72791 0.53432
 C3019 C 0.73189 0.71253 0.53881
 C3020 C 0.72493 0.70543 0.55199
 H3021 H 0.71678 0.68311 0.60659
 H3022 H 0.67186 0.70480 0.59562
 H3023 H 0.71277 0.74794 0.54019
 H3024 H 0.74066 0.70599 0.53217
 H3025 H 0.68318 0.71609 0.57178
 H3026 H 0.70095 0.73575 0.56334
 H3027 H 0.72822 0.69473 0.58294
 H3028 H 0.72835 0.69350 0.55504
 C3029 C 0.70680 0.20645 0.07534
 C3030 C 0.69089 0.20924 0.07934
 C3031 C 0.68440 0.20274 0.09303
 C3032 C 0.69360 0.19319 0.10299
 C3033 C 0.70945 0.19026 0.09894
 C3034 C 0.71599 0.19687 0.08532
 C3035 C 0.71382 0.21372 0.06100
 C3036 C 0.72502 0.20549 0.05187
 C3037 C 0.73197 0.21259 0.03868
 C3038 C 0.72775 0.22799 0.03424
 C3039 C 0.71637 0.23612 0.04319
 C3040 C 0.70956 0.22911 0.05645
 H3041 H 0.67209 0.20507 0.09568
 H3042 H 0.71693 0.18311 0.10644
 H3043 H 0.74069 0.20603 0.03200
 H3044 H 0.71303 0.24809 0.04020
 H3045 H 0.72835 0.19471 0.08277
 H3046 H 0.72839 0.19354 0.05488
 H3047 H 0.68339 0.21633 0.07180
 H3048 H 0.70124 0.23592 0.06337
 C3049 C 0.20664 0.70646 0.07520
 C3050 C 0.19721 0.71571 0.08526
 C3051 C 0.19056 0.70921 0.09889
 C3052 C 0.19325 0.69333 0.10284
 C3053 C 0.20264 0.68407 0.09277
 C3054 C 0.20922 0.69054 0.07910
 C3055 C 0.21391 0.71344 0.06082
 C3056 C 0.22930 0.70915 0.05618
 C3057 C 0.23630 0.71602 0.04291
 C3058 C 0.22814 0.72743 0.03406
 C3059 C 0.21270 0.73159 0.03857
 C3060 C 0.20564 0.72463 0.05175
 H3061 H 0.18354 0.71676 0.10645
 H3062 H 0.20482 0.67175 0.09531
 H3063 H 0.24829 0.71269 0.03986
 H3064 H 0.20609 0.74032 0.03196
 H3065 H 0.21621 0.68301 0.07149
 H3066 H 0.23612 0.70079 0.06303
 H3067 H 0.19520 0.72809 0.08278
 H3068 H 0.19368 0.72800 0.05483
 C3069 C 0.20640 0.20628 0.57556
 C3070 C 0.19696 0.21550 0.58565
 C3071 C 0.19037 0.20897 0.59929
 C3072 C 0.19313 0.19310 0.60323
 C3073 C 0.20253 0.18387 0.59313
 C3074 C 0.20904 0.19037 0.57944
 C3075 C 0.21365 0.21330 0.56119
 C3076 C 0.22905 0.20906 0.55655
 C3077 C 0.23604 0.21595 0.54330
 C3078 C 0.22786 0.22736 0.53445
 C3079 C 0.21242 0.23151 0.53897
 C3080 C 0.20537 0.22451 0.55214
 H3081 H 0.18335 0.21649 0.60687
 H3082 H 0.20475 0.17156 0.59567
 H3083 H 0.24803 0.21265 0.54024
 H3084 H 0.20580 0.24024 0.53237
 H3085 H 0.21603 0.18286 0.57182
 H3086 H 0.23588 0.20070 0.56339
 H3087 H 0.19491 0.22787 0.58318
 H3088 H 0.19340 0.22786 0.55522
   
