data_POSCAR
  _audit_creation_date              2014-09-24
  _audit_creation_method            'ToBaCCo'
  _symmetry_space_group_name_H-M    'P1'
  _symmetry_Int_Tables_number       1
  _symmetry_cell_setting            triclinic
  loop_
  _symmetry_equiv_pos_as_xyz
 x,y,z
_cell_length_a 66.2198
_cell_length_b 66.7867
_cell_length_c 67.4314
_cell_angle_alpha 89.815000
_cell_angle_beta 90.000600
_cell_angle_gamma 90.587300
loop_
  _atom_site_label
  _atom_site_type_symbol
  _atom_site_fract_x
  _atom_site_fract_y
  _atom_site_fract_z
O1 O 0.34771 0.31951 -0.02248
 O2 O 0.32093 0.34921 0.01452
 O3 O 0.34762 0.32112 0.01526
 O4 O 0.32117 0.34792 -0.02420
 O5 O 0.29644 0.32562 -0.02347
 O6 O 0.32339 0.29822 0.01625
 O7 O 0.29634 0.32670 0.01548
 O8 O 0.32329 0.29678 -0.02201
 Cu9 Cu 0.33663 0.33685 -0.00436
 Cu10 Cu 0.30725 0.30967 -0.00340
 C11 C 0.34052 0.30275 -0.02806
 C12 C 0.30420 0.34302 0.02153
 C13 C 0.34046 0.30481 0.02211
 C14 C 0.30432 0.34150 -0.03070
 O15 O 0.67871 0.65408 0.02098
 O16 O 0.65707 0.67934 -0.02233
 O17 O 0.68299 0.65113 -0.01722
 O18 O 0.65269 0.68259 0.01547
 O19 O 0.67754 0.70479 0.01717
 O20 O 0.70772 0.67344 -0.01677
 O21 O 0.68122 0.70233 -0.02116
 O22 O 0.70377 0.67608 0.02165
 Cu23 Cu 0.66547 0.66451 -0.00080
 Cu24 Cu 0.69509 0.69139 0.00029
 C25 C 0.69503 0.66056 0.02863
 C26 C 0.66516 0.69532 -0.02896
 C27 C 0.70049 0.65678 -0.02274
 C28 C 0.65973 0.69915 0.02173
 O29 O 0.69079 0.33433 0.98163
 O30 O 0.66589 0.31268 1.02527
 O31 O 0.69412 0.33955 1.01924
 O32 O 0.66324 0.30768 0.98705
 O33 O 0.68646 0.28425 0.98790
 O34 O 0.71704 0.31599 1.02168
 O35 O 0.68844 0.28864 1.02645
 O36 O 0.71463 0.31153 0.98342
 Cu37 Cu 0.67614 0.32583 1.00332
 Cu38 Cu 0.70395 0.29767 1.00513
 C39 C 0.70700 0.32682 0.97511
 C40 C 0.67263 0.29684 1.03319
 C41 C 0.71103 0.33354 1.02573
 C42 C 0.66968 0.29077 0.98152
 O43 O 0.33491 0.69311 1.00988
 O44 O 0.30382 0.65926 0.97958
 O45 O 0.33190 0.68596 0.97262
 O46 O 0.30793 0.66558 1.01718
 O47 O 0.28290 0.68685 1.01419
 O48 O 0.30955 0.71017 0.97127
 O49 O 0.28102 0.68284 0.97590
 O50 O 0.31058 0.71543 1.00959
 Cu51 Cu 0.32193 0.67367 0.99501
 Cu52 Cu 0.29362 0.70117 0.99257
 C53 C 0.32816 0.71009 1.01486
 C54 C 0.28713 0.66521 0.97251
 C55 C 0.32545 0.70191 0.96470
 C56 C 0.29101 0.67207 1.02302
 O57 O -0.01689 0.34568 0.31733
 O58 O 0.01966 0.31550 0.34457
 O59 O 0.02179 0.34199 0.31664
 O60 O -0.01943 0.31898 0.34535
 O61 O -0.02213 0.29470 0.32345
 O62 O 0.01839 0.31878 0.29362
 O63 O 0.01722 0.29168 0.32210
 O64 O -0.02068 0.32176 0.29511
 Cu65 Cu 0.00153 0.33284 0.33325
 Cu66 Cu -0.00210 0.30426 0.30635
 C67 C -0.02486 0.33913 0.30148
 C68 C 0.02486 0.29853 0.33803
 C69 C 0.02694 0.33460 0.30009
 C70 C -0.02779 0.30283 0.33953
 O71 O 0.01379 0.68610 0.65384
 O72 O -0.02126 0.65429 0.68222
 O73 O -0.02481 0.68201 0.65598
 O74 O 0.01791 0.65709 0.67961
 O75 O 0.01728 0.67866 0.70428
 O76 O -0.02447 0.70526 0.67910
 O77 O -0.02215 0.67692 0.70595
 O78 O 0.01469 0.70802 0.67824
 Cu79 Cu -0.00342 0.66759 0.66559
 Cu80 Cu -0.00361 0.69443 0.69437
 C81 C 0.01996 0.70265 0.66096
 C82 C -0.02802 0.66028 0.69877
 C83 C -0.03183 0.69806 0.66315
 C84 C 0.02471 0.66326 0.69611
 O85 O 1.02260 0.65537 0.31968
 O86 O 0.98463 0.68490 0.34567
 O87 O 0.98358 0.65869 0.31757
 O88 O 1.02352 0.68149 0.34779
 O89 O 1.02726 0.70575 0.32582
 O90 O 0.98711 0.68257 0.29511
 O91 O 0.98817 0.70929 0.32375
 O92 O 1.02630 0.67933 0.29733
 Cu93 Cu 1.00320 0.66770 0.33485
 Cu94 Cu 1.00753 0.69668 0.30824
 C95 C 1.03103 0.66224 0.30414
 C96 C 0.97997 0.70216 0.33933
 C97 C 0.97851 0.66659 0.30119
 C98 C 1.03228 0.69752 0.34212
 O99 O 0.97448 0.30703 0.66587
 O100 O 1.02078 0.32867 0.68680
 O101 O 1.01253 0.30137 0.66045
 O102 O 0.98279 0.33378 0.69277
 O103 O 0.98123 0.30992 0.71544
 O104 O 1.01411 0.27857 0.68408
 O105 O 1.02000 0.30647 0.71110
 O106 O 0.97526 0.28249 0.68785
 Cu107 Cu 0.99764 0.32001 0.67417
 Cu108 Cu 0.99763 0.29198 0.70196
 C109 C 0.96730 0.29075 0.67278
 C110 C 1.02794 0.32180 0.70287
 C111 C 1.01841 0.28438 0.66658
 C112 C 0.97703 0.32755 0.70967
 O113 O 0.31299 -0.02094 0.33782
 O114 O 0.33843 0.02056 0.31220
 O115 O 0.31100 0.01772 0.33940
 O116 O 0.34030 -0.01830 0.31068
 O117 O 0.31671 -0.01894 0.28759
 O118 O 0.28711 0.01747 0.31658
 O119 O 0.31504 0.02024 0.28890
 O120 O 0.28893 -0.02132 0.31517
 Cu121 Cu 0.32806 -0.00016 0.32727
 Cu122 Cu 0.29960 -0.00063 0.29967
 C123 C 0.29661 -0.02818 0.33105
 C124 C 0.33122 0.02753 0.29620
 C125 C 0.29400 0.02364 0.33309
 C126 C 0.33353 -0.02496 0.29434
 O127 O 0.65612 0.01172 0.68767
 O128 O 0.69056 -0.01662 0.65581
 O129 O 0.66265 -0.02586 0.68167
 O130 O 0.68259 0.02083 0.66053
 O131 O 0.70706 0.02137 0.68273
 O132 O 0.68475 -0.02411 0.70609
 O133 O 0.71322 -0.01697 0.67981
 O134 O 0.67995 0.01427 0.71042
 Cu135 Cu 0.67067 -0.00262 0.66910
 Cu136 Cu 0.69860 -0.00125 0.69712
 C137 C 0.66215 0.01788 0.70450
 C138 C 0.70779 -0.02162 0.66235
 C139 C 0.66977 -0.03271 0.69774
 C140 C 0.69847 0.02885 0.66757
 O141 O 0.31404 1.02255 0.66255
 O142 O 0.34541 0.98874 0.69188
 O143 O 0.31930 0.98419 0.66306
 O144 O 0.33974 1.02683 0.69067
 O145 O 0.31572 1.02333 0.71316
 O146 O 0.29448 0.98076 0.68465
 O147 O 0.32086 0.98471 0.71369
 O148 O 0.28938 1.01951 0.68439
 Cu149 Cu 0.33205 1.00573 0.67483
 Cu150 Cu 0.30261 1.00165 0.70118
 C151 C 0.29648 1.02706 0.66847
 C152 C 0.33878 0.98124 0.70796
 C153 C 0.30321 0.97542 0.66876
 C154 C 0.33137 1.03238 0.70664
 O155 O 0.68091 1.01751 0.34136
 O156 O 0.65662 0.97617 0.31466
 O157 O 0.68369 0.97894 0.34278
 O158 O 0.65418 1.01435 0.31347
 O159 O 0.67864 1.01651 0.29132
 O160 O 0.70750 0.97895 0.31990
 O161 O 0.68010 0.97773 0.29150
 O162 O 0.70594 1.01800 0.31985
 Cu163 Cu 0.66653 0.99657 0.33036
 Cu164 Cu 0.69555 0.99789 0.30342
 C165 C 0.69773 1.02469 0.33553
 C166 C 0.66361 0.97042 0.29812
 C167 C 0.70067 0.97299 0.33655
 C168 C 0.66111 1.02130 0.29727
 C169 C 0.87091 0.79638 0.50251
 C170 C 0.86922 0.80675 0.48453
 C171 C 0.85971 0.82543 0.48420
 C172 C 0.85068 0.83328 0.50147
 C173 C 0.85230 0.82223 0.51932
 C174 C 0.86279 0.80411 0.52001
 C175 C 0.83929 0.85261 0.50084
 C176 C 0.83667 0.86409 0.51821
 C177 C 0.82497 0.88148 0.51804
 C178 C 0.81671 0.88806 0.50010
 C179 C 0.81978 0.87758 0.48242
 C180 C 0.83055 0.85958 0.48299
 H181 H 0.87912 0.78243 0.50296
 H182 H 0.85926 0.83356 0.47033
 H183 H 0.84514 0.82731 0.53278
 H184 H 0.84372 0.85976 0.53200
 H185 H 0.80715 0.90113 0.49999
 H186 H 0.83191 0.85113 0.46944
 C187 C 0.11202 0.18643 0.49970
 C188 C 0.12373 0.18349 0.48273
 C189 C 0.13920 0.16936 0.48311
 C190 C 0.14289 0.15776 0.50026
 C191 C 0.13041 0.16061 0.51703
 C192 C 0.11524 0.17517 0.51697
 C193 C 0.16035 0.14365 0.50099
 C194 C 0.17012 0.13947 0.51915
 C195 C 0.18733 0.12743 0.51977
 C196 C 0.19520 0.11989 0.50208
 C197 C 0.18597 0.12391 0.48385
 C198 C 0.16822 0.13521 0.48344
 H199 H 0.10051 0.19784 0.49950
 H200 H 0.14878 0.16818 0.47018
 H201 H 0.13235 0.15156 0.53020
 H202 H 0.16501 0.14611 0.53284
 H203 H 0.20855 0.11063 0.50253
 H204 H 0.16098 0.13776 0.46930
 C205 C 0.12998 0.79826 0.50431
 C206 C 0.13309 0.81076 0.52068
 C207 C 0.14870 0.82513 0.52015
 C208 C 0.16157 0.82679 0.50348
 C209 C 0.15834 0.81358 0.48742
 C210 C 0.14238 0.79967 0.48759
 C211 C 0.17825 0.84213 0.50262
 C212 C 0.18548 0.84915 0.48412
 C213 C 0.20207 0.86223 0.48298
 C214 C 0.21066 0.86961 0.50044
 C215 C 0.20292 0.86414 0.51906
 C216 C 0.18720 0.84985 0.52008
 H217 H 0.11776 0.78734 0.50458
 H218 H 0.15033 0.83517 0.53260
 H219 H 0.16832 0.81369 0.47474
 H220 H 0.17852 0.84435 0.47041
 H221 H 0.22335 0.87993 0.49945
 H222 H 0.18197 0.84499 0.53451
 C223 C 0.85990 0.21257 0.50087
 C224 C 0.85487 0.20271 0.51854
 C225 C 0.84143 0.18637 0.51802
 C226 C 0.83147 0.18080 0.50024
 C227 C 0.83675 0.19125 0.48264
 C228 C 0.85118 0.20681 0.48284
 C229 C 0.81501 0.16501 0.50036
 C230 C 0.80854 0.15553 0.48265
 C231 C 0.79196 0.14223 0.48265
 C232 C 0.78268 0.13711 0.50065
 C233 C 0.78917 0.14562 0.51849
 C234 C 0.80488 0.15985 0.51819
 H235 H 0.87091 0.22468 0.50116
 H236 H 0.83852 0.17853 0.53176
 H237 H 0.82934 0.18801 0.46874
 H238 H 0.81591 0.15863 0.46868
 H239 H 0.77046 0.12619 0.50077
 H240 H 0.80850 0.16718 0.53199
 C241 C 0.50463 0.87124 0.79647
 C242 C 0.48717 0.86866 0.80798
 C243 C 0.48660 0.85352 0.82250
 C244 C 0.50309 0.84048 0.82519
 C245 C 0.52035 0.84336 0.81309
 C246 C 0.52133 0.85889 0.79910
 C247 C 0.50236 0.82386 0.84030
 C248 C 0.52041 0.81563 0.84783
 C249 C 0.51999 0.79901 0.86053
 C250 C 0.50140 0.79140 0.86705
 C251 C 0.48319 0.80008 0.86109
 C252 C 0.48374 0.81581 0.84716
 H253 H 0.50525 0.88299 0.78536
 H254 H 0.47336 0.85236 0.83181
 H255 H 0.53305 0.83338 0.81400
 H256 H 0.53498 0.82178 0.84373
 H257 H 0.50120 0.77866 0.87704
 H258 H 0.46959 0.82168 0.84187
 C259 C 0.49594 0.12685 0.20016
 C260 C 0.47896 0.13828 0.19559
 C261 C 0.48043 0.15328 0.18107
 C262 C 0.49878 0.15685 0.17096
 C263 C 0.51557 0.14482 0.17553
 C264 C 0.51429 0.12991 0.19020
 C265 C 0.50054 0.17339 0.15609
 C266 C 0.51897 0.18389 0.15363
 C267 C 0.52065 0.19969 0.13999
 C268 C 0.50373 0.20524 0.12892
 C269 C 0.48525 0.19499 0.13095
 C270 C 0.48378 0.17902 0.14448
 H271 H 0.49481 0.11550 0.21165
 H272 H 0.46739 0.16250 0.17821
 H273 H 0.52961 0.14678 0.16750
 H274 H 0.53196 0.18022 0.16262
 H275 H 0.50502 0.21762 0.11855
 H276 H 0.46967 0.17078 0.14560
 C277 C 0.49631 0.11733 0.80850
 C278 C 0.51469 0.11848 0.81879
 C279 C 0.51646 0.13155 0.83501
 C280 C 0.50014 0.14366 0.84076
 C281 C 0.48185 0.14213 0.83013
 C282 C 0.47983 0.12891 0.81419
 C283 C 0.50223 0.15840 0.85727
 C284 C 0.48521 0.16395 0.86852
 C285 C 0.48649 0.17932 0.88261
 C286 C 0.50521 0.18866 0.88601
 C287 C 0.52245 0.18290 0.87558
 C288 C 0.52095 0.16787 0.86120
 H289 H 0.49478 0.10740 0.79590
 H290 H 0.53049 0.13201 0.84322
 H291 H 0.46922 0.15162 0.83371
 H292 H 0.47086 0.15639 0.86638
 H293 H 0.50640 0.20076 0.89662
 H294 H 0.53422 0.16431 0.85259
 C295 C 0.49563 0.87658 0.19323
 C296 C 0.51351 0.87488 0.18227
 C297 C 0.51346 0.86320 0.16498
 C298 C 0.49579 0.85290 0.15877
 C299 C 0.47804 0.85493 0.17021
 C300 C 0.47781 0.86700 0.18717
 C301 C 0.49576 0.84027 0.14039
 C302 C 0.47770 0.83691 0.12964
 C303 C 0.47740 0.82463 0.11280
 C304 C 0.49547 0.81628 0.10618
 C305 C 0.51376 0.81993 0.11602
 C306 C 0.51373 0.83143 0.13342
 H307 H 0.49548 0.88568 0.20650
 H308 H 0.52711 0.86271 0.15622
 H309 H 0.46432 0.84697 0.16630
 H310 H 0.46380 0.84399 0.13402
 H311 H 0.49523 0.80637 0.09350
 H312 H 0.52779 0.83343 0.14135
 C313 C 0.79730 0.49143 0.87264
 C314 C 0.80519 0.47390 0.86457
 C315 C 0.82228 0.47511 0.85238
 C316 C 0.83203 0.49362 0.84865
 C317 C 0.82410 0.51106 0.85745
 C318 C 0.80642 0.51010 0.86896
 C319 C 0.84968 0.49470 0.83479
 C320 C 0.85335 0.51204 0.82328
 C321 C 0.86897 0.51259 0.80926
 C322 C 0.88089 0.49566 0.80649
 C323 C 0.87767 0.47824 0.81771
 C324 C 0.86233 0.47799 0.83209
 H325 H 0.78412 0.49051 0.88214
 H326 H 0.82745 0.46154 0.84538
 H327 H 0.83130 0.52548 0.85510
 H328 H 0.84365 0.52491 0.82446
 H329 H 0.89258 0.49600 0.79524
 H330 H 0.86038 0.46468 0.84110
 C331 C 0.20781 0.50444 0.12985
 C332 C 0.20250 0.48579 0.13788
 C333 C 0.18716 0.48459 0.15218
 C334 C 0.17645 0.50181 0.15807
 C335 C 0.18151 0.52031 0.14885
 C336 C 0.19769 0.52178 0.13548
 C337 C 0.16127 0.50074 0.17470
 C338 C 0.15658 0.51805 0.18578
 C339 C 0.14344 0.51710 0.20205
 C340 C 0.13555 0.49854 0.20800
 C341 C 0.14014 0.48108 0.19763
 C342 C 0.15227 0.48231 0.18059
 H343 H 0.21989 0.50551 0.11903
 H344 H 0.18439 0.47023 0.15911
 H345 H 0.17351 0.53385 0.15236
 H346 H 0.16357 0.53235 0.18247
 H347 H 0.12557 0.49764 0.22072
 H348 H 0.15496 0.46868 0.17246
 C349 C 0.80029 0.50248 0.12592
 C350 C 0.80236 0.51946 0.13786
 C351 C 0.81737 0.51993 0.15249
 C352 C 0.83097 0.50393 0.15483
 C353 C 0.82878 0.48713 0.14225
 C354 C 0.81330 0.48621 0.12804
 C355 C 0.84713 0.50476 0.17043
 C356 C 0.85534 0.48702 0.17847
 C357 C 0.87034 0.48785 0.19317
 C358 C 0.87609 0.50646 0.20094
 C359 C 0.86804 0.52419 0.19347
 C360 C 0.85425 0.52337 0.17776
 H361 H 0.78845 0.50198 0.11483
 H362 H 0.81798 0.53276 0.16221
 H363 H 0.83922 0.47482 0.14306
 H364 H 0.85028 0.47248 0.17341
 H365 H 0.88696 0.50722 0.21295
 H366 H 0.84895 0.53736 0.17168
 C367 C 0.19774 0.49724 0.86833
 C368 C 0.18602 0.51415 0.86452
 C369 C 0.17224 0.51377 0.84869
 C370 C 0.17041 0.49676 0.83637
 C371 C 0.18251 0.47995 0.84059
 C372 C 0.19600 0.48009 0.85661
 C373 C 0.15633 0.49668 0.81895
 C374 C 0.14820 0.47852 0.81164
 C375 C 0.13620 0.47815 0.79450
 C376 C 0.13130 0.49623 0.78517
 C377 C 0.13857 0.51456 0.79247
 C378 C 0.15131 0.51467 0.80911
 H379 H 0.20847 0.49744 0.88047
 H380 H 0.16283 0.52670 0.84631
 H381 H 0.18209 0.46687 0.83119
 H382 H 0.15135 0.46450 0.81903
 H383 H 0.12137 0.49605 0.77240
 H384 H 0.15765 0.52882 0.81393
 C385 C 0.27426 0.37936 0.06498
 C386 C 0.29441 0.38328 0.05954
 C387 C 0.30407 0.37136 0.04558
 C388 C 0.29391 0.35510 0.03679
 C389 C 0.27391 0.35083 0.04251
 C390 C 0.26414 0.36290 0.05642
 C391 C 0.26380 0.39295 0.07888
 N392 N 0.24364 0.39116 0.08232
 N393 N 0.23416 0.40427 0.09383
 C394 C 0.24447 0.41967 0.10242
 N395 N 0.26466 0.42123 0.09920
 N396 N 0.27411 0.40817 0.08771
 C397 C 0.23383 0.43536 0.11377
 C398 C 0.24459 0.45214 0.12086
 C399 C 0.23445 0.46812 0.12945
 C400 C 0.21334 0.46769 0.13127
 C401 C 0.20262 0.45051 0.12524
 C402 C 0.21277 0.43450 0.11650
 H403 H 0.30269 0.39581 0.06579
 H404 H 0.31953 0.37498 0.04161
 H405 H 0.26569 0.33838 0.03601
 H406 H 0.24863 0.35944 0.06031
 H407 H 0.26082 0.45327 0.11920
 H408 H 0.24308 0.48109 0.13426
 H409 H 0.18632 0.44986 0.12645
 H410 H 0.20404 0.42177 0.11131
 C411 C 0.72279 0.62607 0.07503
 C412 C 0.70312 0.62148 0.06852
 C413 C 0.69392 0.63305 0.05387
 C414 C 0.70412 0.64954 0.04543
 C415 C 0.72344 0.65468 0.05252
 C416 C 0.73269 0.64305 0.06715
 C417 C 0.73336 0.61238 0.08883
 N418 N 0.75295 0.61571 0.09394
 N419 N 0.76298 0.60238 0.10478
 C420 C 0.75384 0.58516 0.11097
 N421 N 0.73414 0.58204 0.10620
 N422 N 0.72412 0.59536 0.09538
 C423 C 0.76558 0.56922 0.12091
 C424 C 0.75678 0.55027 0.12434
 C425 C 0.76854 0.53431 0.13085
 C426 C 0.78931 0.53698 0.13421
 C427 C 0.79788 0.55618 0.13207
 C428 C 0.78614 0.57215 0.12542
 H429 H 0.69499 0.60859 0.07430
 H430 H 0.67896 0.62877 0.04885
 H431 H 0.73166 0.66734 0.04635
 H432 H 0.74782 0.64706 0.07187
 H433 H 0.74097 0.54749 0.12119
 H434 H 0.76152 0.51970 0.13266
 H435 H 0.81389 0.55860 0.13449
 H436 H 0.79338 0.58657 0.12307
 C437 C 0.73683 0.35878 0.92799
 C438 C 0.74759 0.34494 0.93957
 C439 C 0.73777 0.33377 0.95438
 C440 C 0.71708 0.33644 0.95798
 C441 C 0.70619 0.34956 0.94580
 C442 C 0.71591 0.36050 0.93092
 C443 C 0.74740 0.37266 0.91420
 N444 N 0.73673 0.38592 0.90320
 N445 N 0.74607 0.40003 0.89256
 C446 C 0.76653 0.40151 0.89243
 N447 N 0.77727 0.38793 0.90303
 N448 N 0.76790 0.37379 0.91370
 C449 C 0.77667 0.41880 0.88270
 C450 C 0.79785 0.42058 0.88251
 C451 C 0.80721 0.43818 0.87573
 C452 C 0.79555 0.45435 0.86918
 C453 C 0.77447 0.45221 0.86842
 C454 C 0.76513 0.43460 0.87502
 H455 H 0.76371 0.34318 0.93762
 H456 H 0.74651 0.32372 0.96354
 H457 H 0.69017 0.35174 0.94809
 H458 H 0.70709 0.37091 0.92225
 H459 H 0.80719 0.40867 0.88823
 H460 H 0.82351 0.43951 0.87648
 H461 H 0.76518 0.46438 0.86316
 H462 H 0.74879 0.43373 0.87482
 C463 C 0.24938 0.62367 0.94051
 C464 C 0.26502 0.61688 0.95279
 C465 C 0.27753 0.63045 0.96273
 C466 C 0.27449 0.65114 0.96090
 C467 C 0.25887 0.65802 0.94858
 C468 C 0.24655 0.64439 0.93829
 C469 C 0.23621 0.60900 0.93023
 N470 N 0.22629 0.61385 0.91326
 N471 N 0.21533 0.60012 0.90362
 C472 C 0.21367 0.58109 0.91070
 N473 N 0.22333 0.57641 0.92782
 N474 N 0.23439 0.59005 0.93736
 C475 C 0.20304 0.56519 0.89938
 C476 C 0.19865 0.54672 0.90852
 C477 C 0.19175 0.53051 0.89735
 C478 C 0.18917 0.53234 0.87676
 C479 C 0.19208 0.55118 0.86780
 C480 C 0.19893 0.56750 0.87904
 H481 H 0.26770 0.60102 0.95468
 H482 H 0.28935 0.62468 0.97220
 H483 H 0.25620 0.67390 0.94691
 H484 H 0.23459 0.65003 0.92892
 H485 H 0.20130 0.54453 0.92422
 H486 H 0.18923 0.51626 0.90470
 H487 H 0.19026 0.55298 0.85194
 H488 H 0.20210 0.58157 0.87158
 C489 C 0.06598 0.26421 0.37366
 C490 C 0.05566 0.25512 0.35775
 C491 C 0.04270 0.26632 0.34571
 C492 C 0.03973 0.28677 0.34945
 C493 C 0.05055 0.29593 0.36492
 C494 C 0.06354 0.28483 0.37682
 C495 C 0.07826 0.25228 0.38771
 N496 N 0.08737 0.26132 0.40339
 N497 N 0.09702 0.25063 0.41703
 C498 C 0.09805 0.23041 0.41560
 N499 N 0.08928 0.22134 0.39971
 N500 N 0.07957 0.23205 0.38605
 C501 C 0.10704 0.21852 0.43192
 C502 C 0.10962 0.19771 0.43017
 C503 C 0.11606 0.18637 0.44645
 C504 C 0.11976 0.19561 0.46478
 C505 C 0.11802 0.21646 0.46629
 C506 C 0.11186 0.22781 0.45003
 H507 H 0.05724 0.23927 0.35487
 H508 H 0.03458 0.25886 0.33386
 H509 H 0.04876 0.31170 0.36809
 H510 H 0.07128 0.29240 0.38884
 H511 H 0.10615 0.19012 0.41640
 H512 H 0.11726 0.17028 0.44499
 H513 H 0.12099 0.22392 0.48025
 H514 H 0.11014 0.24379 0.45192
 C515 C 0.05396 0.74314 0.62391
 C516 C 0.04305 0.72705 0.61571
 C517 C 0.03265 0.71357 0.62788
 C518 C 0.03260 0.71606 0.64854
 C519 C 0.04370 0.73202 0.65684
 C520 C 0.05451 0.74534 0.64462
 C521 C 0.06438 0.75751 0.61061
 N522 N 0.08121 0.76769 0.61649
 N523 N 0.09112 0.77966 0.60384
 C524 C 0.08440 0.78209 0.58493
 N525 N 0.06737 0.77219 0.57927
 N526 N 0.05760 0.76014 0.59182
 C527 C 0.09622 0.79357 0.57003
 C528 C 0.08738 0.79834 0.55169
 C529 C 0.09921 0.80548 0.53606
 C530 C 0.12014 0.80798 0.53839
 C531 C 0.12876 0.80493 0.55718
 C532 C 0.11687 0.79778 0.57292
 H533 H 0.04254 0.72485 0.59981
 H534 H 0.02416 0.70150 0.62102
 H535 H 0.04390 0.73428 0.67274
 H536 H 0.06282 0.75762 0.65129
 H537 H 0.07145 0.79563 0.54908
 H538 H 0.09217 0.80805 0.52179
 H539 H 0.14489 0.80672 0.55931
 H540 H 0.12410 0.79432 0.58691
 C541 C 0.93882 0.73634 0.37471
 C542 C 0.95122 0.74600 0.36061
 C543 C 0.96415 0.73489 0.34853
 C544 C 0.96509 0.71397 0.35056
 C545 C 0.95232 0.70433 0.36427
 C546 C 0.93927 0.71535 0.37611
 C547 C 0.92620 0.74790 0.38867
 N548 N 0.91285 0.73825 0.40072
 N549 N 0.90249 0.74821 0.41434
 C550 C 0.90503 0.76827 0.41656
 N551 N 0.91817 0.77802 0.40432
 N552 N 0.92853 0.76804 0.39064
 C553 C 0.89458 0.77884 0.43286
 C554 C 0.89795 0.79937 0.43636
 C555 C 0.88928 0.80871 0.45284
 C556 C 0.87722 0.79764 0.46615
 C557 C 0.87331 0.77734 0.46225
 C558 C 0.88184 0.76806 0.44582
 H559 H 0.95117 0.76215 0.35911
 H560 H 0.97386 0.74270 0.33809
 H561 H 0.95260 0.68821 0.36606
 H562 H 0.92994 0.70738 0.38676
 H563 H 0.90765 0.80812 0.42666
 H564 H 0.89256 0.82438 0.45555
 H565 H 0.86377 0.76855 0.47209
 H566 H 0.87874 0.75229 0.44356
 C567 C 0.92199 0.26211 0.63697
 C568 C 0.92405 0.28309 0.63715
 C569 C 0.93809 0.29242 0.64957
 C570 C 0.95022 0.28105 0.66232
 C571 C 0.94730 0.26020 0.66315
 C572 C 0.93339 0.25078 0.65050
 C573 C 0.90926 0.25229 0.62164
 N574 N 0.90987 0.23218 0.61865
 N575 N 0.89990 0.22378 0.60358
 C576 C 0.88893 0.23516 0.59085
 N577 N 0.88804 0.25518 0.59410
 N578 N 0.89799 0.26355 0.60913
 C579 C 0.87916 0.22634 0.57305
 C580 C 0.87019 0.23893 0.55890
 C581 C 0.86222 0.23111 0.54140
 C582 C 0.86286 0.21048 0.53760
 C583 C 0.87124 0.19771 0.55193
 C584 C 0.87943 0.20558 0.56947
 H585 H 0.91546 0.29233 0.62706
 H586 H 0.93992 0.30853 0.64871
 H587 H 0.95653 0.25107 0.67280
 H588 H 0.93207 0.23462 0.65083
 H589 H 0.86962 0.25496 0.56111
 H590 H 0.85552 0.24125 0.53076
 H591 H 0.87192 0.18173 0.54934
 H592 H 0.88620 0.19546 0.58008
 C593 C 0.36567 0.07361 0.26647
 C594 C 0.36854 0.06961 0.28675
 C595 C 0.35698 0.05499 0.29639
 C596 C 0.34210 0.04410 0.28609
 C597 C 0.33853 0.04864 0.26604
 C598 C 0.35028 0.06320 0.25628
 C599 C 0.37965 0.08751 0.25596
 N600 N 0.37917 0.08948 0.23589
 N601 N 0.39309 0.10047 0.22644
 C602 C 0.40807 0.10995 0.23665
 N603 N 0.40825 0.10832 0.25672
 N604 N 0.39435 0.09736 0.26615
 C605 C 0.42502 0.12010 0.22619
 C606 C 0.44238 0.12594 0.23681
 C607 C 0.45960 0.13276 0.22686
 C608 C 0.45977 0.13416 0.20611
 C609 C 0.44208 0.12961 0.19550
 C610 C 0.42486 0.12252 0.20545
 H611 H 0.38017 0.07734 0.29512
 H612 H 0.35996 0.05199 0.31191
 H613 H 0.32712 0.04050 0.25774
 H614 H 0.34763 0.06596 0.24067
 H615 H 0.44305 0.12440 0.25278
 H616 H 0.47304 0.13636 0.23533
 H617 H 0.44194 0.13053 0.17946
 H618 H 0.41171 0.11827 0.19685
 C619 C 0.62064 0.04780 0.74320
 C620 C 0.61365 0.03716 0.72657
 C621 C 0.62720 0.02790 0.71379
 C622 C 0.64806 0.02880 0.71747
 C623 C 0.65512 0.03955 0.73402
 C624 C 0.64153 0.04912 0.74667
 C625 C 0.60604 0.05723 0.75681
 N626 N 0.61175 0.07231 0.76915
 N627 N 0.59831 0.08105 0.78095
 C628 C 0.57868 0.07490 0.78101
 N629 N 0.57307 0.05970 0.76882
 N630 N 0.58645 0.05107 0.75696
 C631 C 0.56331 0.08515 0.79317
 C632 C 0.54423 0.07621 0.79602
 C633 C 0.52881 0.08667 0.80534
 C634 C 0.53201 0.10639 0.81190
 C635 C 0.55141 0.11495 0.81011
 C636 C 0.56695 0.10440 0.80087
 H637 H 0.59765 0.03599 0.72339
 H638 H 0.62129 0.01966 0.70122
 H639 H 0.67113 0.04052 0.73721
 H640 H 0.64736 0.05720 0.75938
 H641 H 0.54103 0.06128 0.79058
 H642 H 0.51415 0.07950 0.80693
 H643 H 0.55430 0.13016 0.81495
 H644 H 0.58151 0.11167 0.79894
 C645 C 0.37948 0.94772 0.74477
 C646 C 0.35852 0.94617 0.74788
 C647 C 0.34512 0.95692 0.73586
 C648 C 0.35247 0.96903 0.72030
 C649 C 0.37339 0.97015 0.71700
 C650 C 0.38671 0.95976 0.72915
 C651 C 0.39400 0.93706 0.75761
 N652 N 0.41341 0.94363 0.75881
 N653 N 0.42691 0.93375 0.76955
 C654 C 0.42164 0.91682 0.77953
 N655 N 0.40214 0.91028 0.77850
 N656 N 0.38855 0.92028 0.76783
 C657 C 0.43733 0.90512 0.78996
 C658 C 0.43407 0.88489 0.79502
 C659 C 0.45003 0.87321 0.80203
 C660 C 0.46948 0.88157 0.80412
 C661 C 0.47232 0.90211 0.80042
 C662 C 0.45646 0.91373 0.79338
 H663 H 0.35253 0.93700 0.75982
 H664 H 0.32907 0.95579 0.73875
 H665 H 0.37956 0.97943 0.70522
 H666 H 0.40275 0.96112 0.72624
 H667 H 0.41949 0.87783 0.79261
 H668 H 0.44744 0.85740 0.80472
 H669 H 0.48704 0.90905 0.80231
 H670 H 0.45941 0.92934 0.78997
 C671 C 0.62496 0.93479 0.26088
 C672 C 0.61905 0.93990 0.28018
 C673 C 0.63218 0.95032 0.29266
 C674 C 0.65150 0.95618 0.28607
 C675 C 0.65787 0.95013 0.26711
 C676 C 0.64473 0.93937 0.25465
 C677 C 0.60980 0.92626 0.24710
 N678 N 0.61511 0.91433 0.23168
 N679 N 0.60107 0.90694 0.21942
 C680 C 0.58126 0.91151 0.22195
 N681 N 0.57608 0.92353 0.23726
 N682 N 0.59002 0.93069 0.24959
 C683 C 0.56528 0.90325 0.20893
 C684 C 0.54697 0.91349 0.20705
 C685 C 0.53062 0.90475 0.19724
 C686 C 0.53204 0.88539 0.18932
 C687 C 0.55075 0.87562 0.19002
 C688 C 0.56730 0.88453 0.19970
 H689 H 0.60400 0.93631 0.28548
 H690 H 0.62677 0.95461 0.30718
 H691 H 0.67266 0.95440 0.26161
 H692 H 0.64965 0.93559 0.23983
 H693 H 0.54509 0.92811 0.21367
 H694 H 0.51658 0.91289 0.19645
 H695 H 0.55227 0.86067 0.18407
 H696 H 0.58126 0.87632 0.20092
 C697 C 0.37914 0.26235 0.94080
 C698 C 0.35837 0.25809 0.94224
 C699 C 0.34545 0.27158 0.95167
 C700 C 0.35309 0.28966 0.95942
 C701 C 0.37367 0.29431 0.95688
 C702 C 0.38655 0.28075 0.94783
 C703 C 0.39345 0.24745 0.93310
 N704 N 0.41276 0.24743 0.93982
 N705 N 0.42598 0.23430 0.93298
 C706 C 0.42050 0.22068 0.91905
 N707 N 0.40115 0.22063 0.91230
 N708 N 0.38781 0.23368 0.91931
 C709 C 0.43585 0.20718 0.91071
 C710 C 0.43396 0.19963 0.89137
 C711 C 0.45006 0.18958 0.88251
 C712 C 0.46823 0.18676 0.89293
 C713 C 0.46945 0.19302 0.91276
 C714 C 0.45351 0.20323 0.92150
 H715 H 0.35229 0.24399 0.93690
 H716 H 0.32965 0.26760 0.95341
 H717 H 0.38008 0.30808 0.96268
 H718 H 0.40245 0.28453 0.94669
 H719 H 0.42051 0.20247 0.88271
 H720 H 0.44868 0.18505 0.86716
 H721 H 0.48305 0.19063 0.92134
 H722 H 0.45526 0.20857 0.93656
 C723 C 0.63205 0.72723 0.92641
 C724 C 0.62940 0.70646 0.92893
 C725 C 0.64073 0.69603 0.94292
 C726 C 0.65518 0.70604 0.95458
 C727 C 0.65868 0.72658 0.95137
 C728 C 0.64713 0.73711 0.93748
 C729 C 0.61810 0.73849 0.91338
 N730 N 0.61778 0.75884 0.91349
 N731 N 0.60388 0.76878 0.90319
 C732 C 0.58974 0.75877 0.89234
 N733 N 0.59036 0.73846 0.89195
 N734 N 0.60421 0.72856 0.90223
 C735 C 0.57301 0.76949 0.88242
 C736 C 0.55725 0.75855 0.87342
 C737 C 0.54037 0.76827 0.86587
 C738 C 0.53885 0.78917 0.86698
 C739 C 0.55493 0.80029 0.87512
 C740 C 0.57184 0.79052 0.88286
 H741 H 0.61801 0.69830 0.92064
 H742 H 0.63781 0.68017 0.94496
 H743 H 0.66971 0.73468 0.96018
 H744 H 0.64963 0.75308 0.93582
 H745 H 0.55763 0.74237 0.87269
 H746 H 0.52828 0.75940 0.85940
 H747 H 0.55407 0.81643 0.87617
 H748 H 0.58373 0.79940 0.88962
 C749 C 0.36759 0.75136 0.04520
 C750 C 0.34654 0.75336 0.04685
 C751 C 0.33354 0.73990 0.03711
 C752 C 0.34141 0.72395 0.02606
 C753 C 0.36244 0.72172 0.02494
 C754 C 0.37536 0.73537 0.03422
 C755 C 0.38167 0.76584 0.05450
 N756 N 0.40008 0.76927 0.04626
 N757 N 0.41338 0.78148 0.05490
 C758 C 0.40892 0.79071 0.07223
 N759 N 0.39042 0.78742 0.08046
 N760 N 0.37699 0.77531 0.07169
 C761 C 0.42466 0.80273 0.08246
 C762 C 0.42419 0.80548 0.10312
 C763 C 0.44090 0.81378 0.11300
 C764 C 0.45827 0.81957 0.10235
 C765 C 0.45800 0.81829 0.08156
 C766 C 0.44145 0.80988 0.07174
 H767 H 0.34019 0.76559 0.05522
 H768 H 0.31737 0.74195 0.03819
 H769 H 0.36897 0.70968 0.01643
 H770 H 0.39151 0.73335 0.03284
 H771 H 0.41144 0.80013 0.11177
 H772 H 0.44070 0.81453 0.12904
 H773 H 0.47098 0.82306 0.07291
 H774 H 0.44213 0.80831 0.05578
 C775 C 0.63703 0.26943 0.07940
 C776 C 0.63441 0.28965 0.07428
 C777 C 0.64643 0.29866 0.05972
 C778 C 0.66151 0.28774 0.05004
 C779 C 0.66486 0.26782 0.05582
 C780 C 0.65268 0.25871 0.07031
 C781 C 0.62248 0.25935 0.09296
 N782 N 0.62281 0.23919 0.09576
 N783 N 0.60841 0.22997 0.10628
 C784 C 0.59308 0.24052 0.11445
 N785 N 0.59303 0.26070 0.11201
 N786 N 0.60740 0.26990 0.10151
 C787 C 0.57568 0.23017 0.12400
 C788 C 0.55846 0.24106 0.12934
 C789 C 0.54087 0.23116 0.13549
 C790 C 0.54016 0.21019 0.13663
 C791 C 0.55772 0.19932 0.13259
 C792 C 0.57531 0.20921 0.12625
 H793 H 0.62259 0.29842 0.08100
 H794 H 0.64359 0.31410 0.05573
 H795 H 0.67639 0.25904 0.04862
 H796 H 0.65516 0.24314 0.07397
 H797 H 0.55821 0.25721 0.12795
 H798 H 0.52758 0.23988 0.13877
 H799 H 0.55750 0.18311 0.13331
 H800 H 0.58834 0.20038 0.12239
 C801 C 0.26175 0.06676 0.63175
 C802 C 0.28279 0.06540 0.62957
 C803 C 0.29395 0.05271 0.64170
 C804 C 0.28442 0.04116 0.65649
 C805 C 0.26347 0.04292 0.65917
 C806 C 0.25220 0.05553 0.64683
 C807 C 0.24998 0.07909 0.61763
 N808 N 0.22946 0.07825 0.61722
 N809 N 0.21915 0.08820 0.60341
 C810 C 0.22893 0.09942 0.58948
 N811 N 0.24940 0.10051 0.59016
 N812 N 0.25968 0.09059 0.60391
 C813 C 0.21784 0.10890 0.57286
 C814 C 0.22860 0.11790 0.55715
 C815 C 0.21855 0.12464 0.54028
 C816 C 0.19749 0.12273 0.53875
 C817 C 0.18653 0.11482 0.55485
 C818 C 0.19663 0.10787 0.57174
 H819 H 0.29069 0.07381 0.61816
 H820 H 0.31010 0.05184 0.63937
 H821 H 0.25573 0.03420 0.67046
 H822 H 0.23602 0.05627 0.64893
 H823 H 0.24491 0.11910 0.55752
 H824 H 0.22729 0.13093 0.52814
 H825 H 0.17027 0.11317 0.55397
 H826 H 0.18787 0.10113 0.58361
 C827 C 0.72701 0.06782 0.37186
 C828 C 0.73691 0.06017 0.35510
 C829 C 0.72709 0.04640 0.34261
 C830 C 0.70730 0.03967 0.34689
 C831 C 0.69739 0.04773 0.36349
 C832 C 0.70705 0.06166 0.37566
 C833 C 0.73737 0.08154 0.38591
 N834 N 0.72646 0.09161 0.39960
 N835 N 0.73554 0.10284 0.41325
 C836 C 0.75597 0.10449 0.41393
 N837 N 0.76696 0.09465 0.40006
 N838 N 0.75784 0.08342 0.38629
 C839 C 0.76579 0.11580 0.43030
 C840 C 0.78691 0.11602 0.43285
 C841 C 0.79566 0.12519 0.44951
 C842 C 0.78342 0.13414 0.46394
 C843 C 0.76246 0.13462 0.46094
 C844 C 0.75377 0.12561 0.44436
 H845 H 0.75227 0.06471 0.35172
 H846 H 0.73523 0.04061 0.32998
 H847 H 0.68214 0.04314 0.36731
 H848 H 0.69894 0.06720 0.38844
 H849 H 0.79661 0.10865 0.42228
 H850 H 0.81187 0.12464 0.45150
 H851 H 0.75272 0.14174 0.47165
 H852 H 0.73750 0.12598 0.44285
 C853 C 0.74983 0.94930 0.62371
 C854 C 0.73395 0.96069 0.61596
 C855 C 0.71999 0.96962 0.62856
 C856 C 0.72186 0.96770 0.64921
 C857 C 0.73771 0.95627 0.65702
 C858 C 0.75145 0.94692 0.64436
 C859 C 0.76458 0.94015 0.61013
 N860 N 0.77431 0.92302 0.61507
 N861 N 0.78680 0.91436 0.60224
 C862 C 0.79024 0.92266 0.58410
 N863 N 0.78074 0.93994 0.57936
 N864 N 0.76814 0.94847 0.59207
 C865 C 0.80263 0.91243 0.56904
 C866 C 0.81002 0.92319 0.55260
 C867 C 0.81870 0.91322 0.53664
 C868 C 0.81995 0.89223 0.53663
 C869 C 0.81395 0.88157 0.55369
 C870 C 0.80543 0.89161 0.56981
 H871 H 0.73223 0.96264 0.60010
 H872 H 0.70801 0.97845 0.62213
 H873 H 0.73947 0.95456 0.67291
 H874 H 0.76357 0.93823 0.65070
 H875 H 0.80841 0.93929 0.55173
 H876 H 0.82364 0.92188 0.52389
 H877 H 0.81464 0.86538 0.55409
 H878 H 0.79991 0.88292 0.58230
 C879 C 0.26671 0.92715 0.36673
 C880 C 0.28770 0.93021 0.36806
 C881 C 0.29739 0.94431 0.35602
 C882 C 0.28642 0.95554 0.34217
 C883 C 0.26561 0.95184 0.34006
 C884 C 0.25580 0.93784 0.35234
 C885 C 0.25633 0.91397 0.38131
 N886 N 0.23588 0.91385 0.38310
 N887 N 0.22683 0.90351 0.39759
 C888 C 0.23787 0.89286 0.41087
 N889 N 0.25825 0.89265 0.40877
 N890 N 0.26727 0.90298 0.39433
 C891 C 0.22824 0.88308 0.42827
 C892 C 0.24032 0.87463 0.44320
 C893 C 0.23167 0.86740 0.46068
 C894 C 0.21074 0.86828 0.46362
 C895 C 0.19847 0.87583 0.44840
 C896 C 0.20715 0.88326 0.43090
 H897 H 0.29662 0.92222 0.37890
 H898 H 0.31349 0.94671 0.35784
 H899 H 0.25679 0.96030 0.32949
 H900 H 0.23963 0.93577 0.35088
 H901 H 0.25659 0.87412 0.44169
 H902 H 0.24140 0.86138 0.47211
 H903 H 0.18227 0.87668 0.45038
 H904 H 0.19741 0.88960 0.41967
 C905 C 0.07270 0.35854 0.73146
 C906 C 0.07037 0.35904 0.71073
 C907 C 0.05656 0.34632 0.70136
 C908 C 0.04491 0.33261 0.71242
 C909 C 0.04815 0.33113 0.73297
 C910 C 0.06185 0.34405 0.74242
 C911 C 0.08507 0.37414 0.74150
 N912 N 0.08469 0.37620 0.76155
 N913 N 0.09427 0.39145 0.77030
 C914 C 0.10461 0.40529 0.75937
 N915 N 0.10527 0.40299 0.73939
 N916 N 0.09570 0.38778 0.73065
 C917 C 0.11390 0.42322 0.76875
 C918 C 0.12288 0.43820 0.75689
 C919 C 0.13031 0.45582 0.76536
 C920 C 0.12903 0.45892 0.78590
 C921 C 0.12062 0.44376 0.79790
 C922 C 0.11306 0.42609 0.78941
 H923 H 0.07856 0.36988 0.70177
 H924 H 0.05449 0.34770 0.68548
 H925 H 0.03932 0.32073 0.74187
 H926 H 0.06339 0.34317 0.75838
 H927 H 0.12389 0.43651 0.74096
 H928 H 0.13704 0.46712 0.75579
 H929 H 0.11939 0.44579 0.81378
 H930 H 0.10625 0.41487 0.79898
 C931 C 0.07457 0.62544 0.27451
 C932 C 0.06691 0.64257 0.26505
 C933 C 0.05303 0.65481 0.27476
 C934 C 0.04641 0.65004 0.29402
 C935 C 0.05434 0.63313 0.30356
 C936 C 0.06830 0.62105 0.29397
 C937 C 0.08827 0.61164 0.26401
 N938 N 0.09674 0.59607 0.27384
 N939 N 0.10788 0.58274 0.26428
 C940 C 0.11104 0.58436 0.24445
 N941 N 0.10284 0.60012 0.23463
 N942 N 0.09171 0.61350 0.24422
 C943 C 0.12178 0.56837 0.23364
 C944 C 0.12355 0.56890 0.21286
 C945 C 0.13148 0.55258 0.20260
 C946 C 0.13770 0.53543 0.21293
 C947 C 0.13692 0.53533 0.23374
 C948 C 0.12909 0.55162 0.24398
 H949 H 0.07147 0.64640 0.25008
 H950 H 0.04719 0.66777 0.26705
 H951 H 0.04966 0.62913 0.31845
 H952 H 0.07385 0.60799 0.30172
 H953 H 0.11816 0.58160 0.20444
 H954 H 0.13187 0.55300 0.18655
 H955 H 0.14195 0.52242 0.24207
 H956 H 0.12817 0.55076 0.25999
 C957 C 0.93878 0.37909 0.26683
 C958 C 0.93865 0.35852 0.26253
 C959 C 0.95014 0.34527 0.27399
 C960 C 0.96159 0.35239 0.29011
 C961 C 0.96095 0.37285 0.29480
 C962 C 0.94982 0.38603 0.28323
 C963 C 0.92850 0.39370 0.25393
 N964 N 0.93569 0.41275 0.25280
 N965 N 0.92666 0.42626 0.24144
 C966 C 0.90997 0.42136 0.23079
 N967 N 0.90268 0.40228 0.23188
 N968 N 0.91186 0.38865 0.24315
 C969 C 0.89988 0.43695 0.21887
 C970 C 0.87912 0.43587 0.21456
 C971 C 0.86944 0.45211 0.20552
 C972 C 0.88044 0.46955 0.20058
 C973 C 0.90138 0.46999 0.20381
 C974 C 0.91095 0.45397 0.21293
 H975 H 0.93027 0.35281 0.24993
 H976 H 0.95031 0.32956 0.27006
 H977 H 0.96959 0.37885 0.30710
 H978 H 0.95005 0.40178 0.28702
 H979 H 0.87024 0.42291 0.21899
 H980 H 0.85327 0.45137 0.20320
 H981 H 0.91034 0.48300 0.19967
 H982 H 0.92703 0.45510 0.21572
 C983 C 0.93014 0.62229 0.73054
 C984 C 0.93538 0.61816 0.71078
 C985 C 0.94879 0.63063 0.70050
 C986 C 0.95722 0.64762 0.70965
 C987 C 0.95163 0.65210 0.72923
 C988 C 0.93826 0.63952 0.73960
 C989 C 0.91713 0.60807 0.74176
 N990 N 0.91369 0.61050 0.76147
 N991 N 0.90328 0.59679 0.77175
 C992 C 0.89584 0.58011 0.76273
 N993 N 0.89897 0.57791 0.74296
 N994 N 0.90936 0.59158 0.73271
 C995 C 0.88619 0.56377 0.77436
 C996 C 0.88173 0.54533 0.76526
 C997 C 0.87527 0.52895 0.77654
 C998 C 0.87292 0.53068 0.79713
 C999 C 0.87612 0.54935 0.80614
 C1000 C 0.88280 0.56576 0.79486
 H1001 H 0.92943 0.60505 0.70330
 H1002 H 0.95266 0.62683 0.68538
 H1003 H 0.95785 0.66513 0.73666
 H1004 H 0.93452 0.64316 0.75479
 H1005 H 0.88401 0.54326 0.74950
 H1006 H 0.87264 0.51473 0.76925
 H1007 H 0.87442 0.55098 0.82203
 H1008 H 0.88597 0.57978 0.80231
 C1009 C 0.73406 0.61840 0.93993
 C1010 C 0.71400 0.61382 0.94510
 C1011 C 0.70305 0.62649 0.95735
 C1012 C 0.71172 0.64434 0.96466
 C1013 C 0.73177 0.64912 0.95923
 C1014 C 0.74287 0.63619 0.94712
 C1015 C 0.74553 0.60431 0.92735
 N1016 N 0.76602 0.60525 0.92604
 N1017 N 0.77612 0.59178 0.91544
 C1018 C 0.76613 0.57691 0.90565
 N1019 N 0.74567 0.57620 0.90680
 N1020 N 0.73562 0.58956 0.91741
 C1021 C 0.77706 0.56108 0.89472
 C1022 C 0.76607 0.54664 0.88396
 C1023 C 0.77579 0.53057 0.87514
 C1024 C 0.79679 0.52843 0.87680
 C1025 C 0.80802 0.54327 0.88675
 C1026 C 0.79823 0.55946 0.89568
 H1027 H 0.70674 0.60020 0.93993
 H1028 H 0.68768 0.62219 0.96105
 H1029 H 0.73902 0.66270 0.96453
 H1030 H 0.75829 0.64016 0.94335
 H1031 H 0.74980 0.54749 0.88266
 H1032 H 0.76681 0.51956 0.86722
 H1033 H 0.82423 0.54196 0.88825
 H1034 H 0.80715 0.57034 0.90381
 C1035 C 0.27413 0.37556 0.92537
 C1036 C 0.26503 0.35814 0.93322
 C1037 C 0.27509 0.34657 0.94745
 C1038 C 0.29442 0.35229 0.95427
 C1039 C 0.30360 0.36950 0.94600
 C1040 C 0.29364 0.38089 0.93174
 C1041 C 0.26318 0.38879 0.91138
 N1042 N 0.27255 0.40516 0.90355
 N1043 N 0.26251 0.41801 0.89222
 C1044 C 0.24263 0.41507 0.88815
 N1045 N 0.23329 0.39848 0.89567
 N1046 N 0.24335 0.38560 0.90704
 C1047 C 0.23114 0.43060 0.87729
 C1048 C 0.21051 0.42790 0.87289
 C1049 C 0.19924 0.44367 0.86497
 C1050 C 0.20837 0.46243 0.86153
 C1051 C 0.22915 0.46479 0.86491
 C1052 C 0.24043 0.44905 0.87259
 H1053 H 0.25003 0.35357 0.92859
 H1054 H 0.26752 0.33339 0.95335
 H1055 H 0.31850 0.37442 0.95066
 H1056 H 0.30117 0.39418 0.92603
 H1057 H 0.20290 0.41386 0.87621
 H1058 H 0.18319 0.44156 0.86253
 H1059 H 0.23654 0.47909 0.86219
 H1060 H 0.25630 0.45166 0.87562
 C1061 C 0.26063 0.63837 0.06740
 C1062 C 0.28126 0.63559 0.06362
 C1063 C 0.29130 0.64714 0.04943
 C1064 C 0.28115 0.66216 0.03878
 C1065 C 0.26076 0.66582 0.04342
 C1066 C 0.25052 0.65382 0.05739
 C1067 C 0.24987 0.62419 0.08078
 N1068 N 0.22950 0.62151 0.07977
 N1069 N 0.22037 0.60705 0.09028
 C1070 C 0.23124 0.59474 0.10223
 N1071 N 0.25148 0.59781 0.10354
 N1072 N 0.26058 0.61217 0.09305
 C1073 C 0.22180 0.57722 0.11238
 C1074 C 0.23410 0.56359 0.12260
 C1075 C 0.22601 0.54593 0.13042
 C1076 C 0.20538 0.54145 0.12843
 C1077 C 0.19276 0.55539 0.11909
 C1078 C 0.20094 0.57310 0.11100
 H1079 H 0.28957 0.62387 0.07104
 H1080 H 0.30705 0.64395 0.04658
 H1081 H 0.25242 0.67727 0.03561
 H1082 H 0.23465 0.65640 0.06011
 H1083 H 0.25018 0.56622 0.12411
 H1084 H 0.23598 0.53555 0.13783
 H1085 H 0.17678 0.55223 0.11743
 H1086 H 0.19103 0.58330 0.10329
 C1087 C 0.74861 0.37465 0.05646
 C1088 C 0.72986 0.38051 0.04887
 C1089 C 0.71723 0.36675 0.03942
 C1090 C 0.72319 0.34673 0.03686
 C1091 C 0.74186 0.34073 0.04488
 C1092 C 0.75436 0.35454 0.05477
 C1093 C 0.76203 0.38983 0.06557
 N1094 N 0.77510 0.38504 0.08035
 N1095 N 0.78627 0.39923 0.08910
 C1096 C 0.78500 0.41867 0.08319
 N1097 N 0.77219 0.42330 0.06820
 N1098 N 0.76092 0.40921 0.05962
 C1099 C 0.79591 0.43492 0.09371
 C1100 C 0.79791 0.45384 0.08472
 C1101 C 0.80492 0.47024 0.09555
 C1102 C 0.80996 0.46814 0.11567
 C1103 C 0.80945 0.44895 0.12429
 C1104 C 0.80251 0.43244 0.11337
 H1105 H 0.72491 0.39586 0.05021
 H1106 H 0.70299 0.37206 0.03361
 H1107 H 0.74697 0.32546 0.04332
 H1108 H 0.76876 0.34965 0.06055
 H1109 H 0.79329 0.45618 0.06949
 H1110 H 0.80560 0.48477 0.08840
 H1111 H 0.81321 0.44693 0.13980
 H1112 H 0.80118 0.41802 0.12068
 C1113 C 0.92354 0.72864 0.63015
 C1114 C 0.92939 0.70920 0.62496
 C1115 C 0.94378 0.69906 0.63610
 C1116 C 0.95259 0.70792 0.65299
 C1117 C 0.94600 0.72703 0.65877
 C1118 C 0.93177 0.73736 0.64734
 C1119 C 0.90997 0.73997 0.61681
 N1120 N 0.90851 0.76021 0.61806
 N1121 N 0.89798 0.77048 0.60465
 C1122 C 0.88844 0.76092 0.58947
 N1123 N 0.88953 0.74066 0.58855
 N1124 N 0.90006 0.73043 0.60190
 C1125 C 0.87883 0.77230 0.57312
 C1126 C 0.87035 0.76207 0.55687
 C1127 C 0.86413 0.77251 0.54002
 C1128 C 0.86614 0.79344 0.53904
 C1129 C 0.87332 0.80383 0.55574
 C1130 C 0.87965 0.79336 0.57262
 H1131 H 0.92338 0.70199 0.61184
 H1132 H 0.94820 0.68430 0.63120
 H1133 H 0.95232 0.73434 0.67171
 H1134 H 0.92748 0.75229 0.65177
 H1135 H 0.86925 0.74588 0.55679
 H1136 H 0.85834 0.76417 0.52746
 H1137 H 0.87508 0.81996 0.55534
 H1138 H 0.88600 0.80172 0.58489
 C1139 C 0.92708 0.27566 0.37563
 C1140 C 0.93537 0.29446 0.38048
 C1141 C 0.95008 0.30342 0.36849
 C1142 C 0.95684 0.29395 0.35111
 C1143 C 0.94815 0.27532 0.34596
 C1144 C 0.93354 0.26624 0.35816
 C1145 C 0.91241 0.26579 0.38924
 N1146 N 0.90734 0.24612 0.38722
 N1147 N 0.89521 0.23707 0.40035
 C1148 C 0.88758 0.24734 0.41598
 N1149 N 0.89240 0.26706 0.41776
 N1150 N 0.90453 0.27607 0.40470
 C1151 C 0.87559 0.23707 0.43169
 C1152 C 0.86841 0.24799 0.44798
 C1153 C 0.85951 0.23821 0.46412
 C1154 C 0.85749 0.21726 0.46437
 C1155 C 0.86346 0.20638 0.44761
 C1156 C 0.87248 0.21619 0.43142
 H1157 H 0.93080 0.30216 0.39383
 H1158 H 0.95623 0.31780 0.37300
 H1159 H 0.95286 0.26754 0.33271
 H1160 H 0.92740 0.25177 0.35395
 H1161 H 0.87029 0.26410 0.44864
 H1162 H 0.85474 0.24698 0.47674
 H1163 H 0.86212 0.19020 0.44747
 H1164 H 0.87772 0.20732 0.41907
 C1165 C 0.04777 0.24577 0.62635
 C1166 C 0.04070 0.26450 0.62016
 C1167 C 0.03172 0.27747 0.63361
 C1168 C 0.02910 0.27187 0.65362
 C1169 C 0.03658 0.25319 0.65990
 C1170 C 0.04603 0.24037 0.64642
 C1171 C 0.05641 0.23197 0.61158
 N1172 N 0.07098 0.21869 0.61657
 N1173 N 0.07920 0.20697 0.60282
 C1174 C 0.07294 0.20790 0.58363
 N1175 N 0.05818 0.22099 0.57879
 N1176 N 0.05013 0.23280 0.59244
 C1177 C 0.08280 0.19613 0.56786
 C1178 C 0.07279 0.19298 0.54976
 C1179 C 0.08296 0.18480 0.53364
 C1180 C 0.10348 0.17983 0.53513
 C1181 C 0.11311 0.18165 0.55364
 C1182 C 0.10283 0.18967 0.56990
 H1183 H 0.04208 0.26916 0.60481
 H1184 H 0.02630 0.29169 0.62809
 H1185 H 0.03496 0.24835 0.67517
 H1186 H 0.05139 0.22600 0.65155
 H1187 H 0.05725 0.19748 0.54784
 H1188 H 0.07497 0.18311 0.51972
 H1189 H 0.12894 0.17805 0.55524
 H1190 H 0.11092 0.19190 0.58369
 C1191 C 0.07630 0.72414 0.37956
 C1192 C 0.06745 0.70556 0.38439
 C1193 C 0.05316 0.69673 0.37191
 C1194 C 0.04736 0.70616 0.35412
 C1195 C 0.05671 0.72449 0.34896
 C1196 C 0.07096 0.73340 0.36158
 C1197 C 0.09015 0.73414 0.39378
 N1198 N 0.09687 0.75318 0.39062
 N1199 N 0.10797 0.76263 0.40424
 C1200 C 0.11284 0.75342 0.42158
 N1201 N 0.10643 0.73428 0.42454
 N1202 N 0.09534 0.72485 0.41095
 C1203 C 0.12326 0.76452 0.43767
 C1204 C 0.12582 0.75555 0.45640
 C1205 C 0.13298 0.76673 0.47241
 C1206 C 0.13788 0.78710 0.47005
 C1207 C 0.13655 0.79579 0.45111
 C1208 C 0.12925 0.78463 0.43507
 H1209 H 0.07121 0.69796 0.39809
 H1210 H 0.04650 0.68254 0.37643
 H1211 H 0.05277 0.73219 0.33536
 H1212 H 0.07754 0.74770 0.35737
 H1213 H 0.12154 0.74006 0.45893
 H1214 H 0.13414 0.75962 0.48682
 H1215 H 0.14016 0.81150 0.44893
 H1216 H 0.12759 0.79197 0.42083
 C1217 C 0.63575 0.92005 0.72601
 C1218 C 0.63358 0.92392 0.70562
 C1219 C 0.64536 0.93860 0.69630
 C1220 C 0.65973 0.94973 0.70707
 C1221 C 0.66284 0.94506 0.72717
 C1222 C 0.65093 0.93038 0.73657
 C1223 C 0.62109 0.90665 0.73633
 N1224 N 0.62217 0.90356 0.75623
 N1225 N 0.60777 0.89320 0.76569
 C1226 C 0.59166 0.88554 0.75565
 N1227 N 0.59082 0.88830 0.73572
 N1228 N 0.60522 0.89861 0.72627
 C1229 C 0.57445 0.87605 0.76634
 C1230 C 0.55598 0.87273 0.75652
 C1231 C 0.53892 0.86633 0.76703
 C1232 C 0.53999 0.86285 0.78754
 C1233 C 0.55867 0.86501 0.79720
 C1234 C 0.57573 0.87166 0.78672
 H1235 H 0.62220 0.91615 0.69695
 H1236 H 0.64272 0.94169 0.68074
 H1237 H 0.67380 0.95338 0.73586
 H1238 H 0.65308 0.92771 0.75227
 H1239 H 0.55443 0.87587 0.74084
 H1240 H 0.52471 0.86458 0.75923
 H1241 H 0.55983 0.86250 0.81303
 H1242 H 0.58974 0.87395 0.79471
 C1243 C 0.36939 0.93240 0.26236
 C1244 C 0.35268 0.94141 0.25319
 C1245 C 0.34077 0.95507 0.26360
 C1246 C 0.34548 0.96013 0.28330
 C1247 C 0.36201 0.95091 0.29249
 C1248 C 0.37375 0.93718 0.28220
 C1249 C 0.38283 0.91877 0.25126
 N1250 N 0.39799 0.90913 0.26075
 N1251 N 0.41105 0.89801 0.25074
 C1252 C 0.40953 0.89600 0.23077
 N1253 N 0.39415 0.90536 0.22127
 N1254 N 0.38105 0.91649 0.23131
 C1255 C 0.42545 0.88542 0.21953
 C1256 C 0.42500 0.88459 0.19869
 C1257 C 0.44155 0.87729 0.18811
 C1258 C 0.45887 0.87079 0.19818
 C1259 C 0.45877 0.87037 0.21899
 C1260 C 0.44224 0.87753 0.22955
 H1261 H 0.34889 0.93804 0.23794
 H1262 H 0.32810 0.96191 0.25613
 H1263 H 0.36597 0.95435 0.30769
 H1264 H 0.38650 0.93058 0.28976
 H1265 H 0.41227 0.89041 0.19050
 H1266 H 0.44131 0.87785 0.17206
 H1267 H 0.47186 0.86521 0.22709
 H1268 H 0.44305 0.87770 0.24559
 C1269 C 0.62158 0.05559 0.26003
 C1270 C 0.61419 0.04525 0.27671
 C1271 C 0.62724 0.03482 0.28909
 C1272 C 0.64801 0.03417 0.28497
 C1273 C 0.65556 0.04480 0.26848
 C1274 C 0.64245 0.05562 0.25620
 C1275 C 0.60720 0.06569 0.24665
 N1276 N 0.61281 0.08178 0.23546
 N1277 N 0.59932 0.09120 0.22416
 C1278 C 0.57978 0.08473 0.22346
 N1279 N 0.57435 0.06849 0.23444
 N1280 N 0.58774 0.05921 0.24581
 C1281 C 0.56423 0.09569 0.21213
 C1282 C 0.54552 0.08641 0.20818
 C1283 C 0.52969 0.09731 0.20004
 C1284 C 0.53210 0.11779 0.19579
 C1285 C 0.55116 0.12682 0.19858
 C1286 C 0.56712 0.11584 0.20664
 H1287 H 0.59822 0.04513 0.28017
 H1288 H 0.62089 0.02675 0.30161
 H1289 H 0.67151 0.04455 0.26494
 H1290 H 0.64853 0.06348 0.24343
 H1291 H 0.54290 0.07082 0.21192
 H1292 H 0.51533 0.08982 0.19760
 H1293 H 0.55344 0.14260 0.19550
 H1294 H 0.58137 0.12339 0.20949
 C1295 C 0.36296 0.07778 0.73950
 C1296 C 0.34862 0.06539 0.74906
 C1297 C 0.33743 0.05125 0.73825
 C1298 C 0.34056 0.04915 0.71776
 C1299 C 0.35400 0.06231 0.70809
 C1300 C 0.36498 0.07651 0.71880
 C1301 C 0.37723 0.09042 0.75102
 N1302 N 0.39189 0.10112 0.74155
 N1303 N 0.40641 0.11041 0.75170
 C1304 C 0.40691 0.10945 0.77180
 N1305 N 0.39194 0.09923 0.78135
 N1306 N 0.37740 0.08989 0.77117
 C1307 C 0.42463 0.11735 0.78278
 C1308 C 0.42478 0.11781 0.80363
 C1309 C 0.44252 0.12262 0.81390
 C1310 C 0.46045 0.12679 0.80349
 C1311 C 0.46008 0.12730 0.78271
 C1312 C 0.44233 0.12277 0.77245
 H1313 H 0.34661 0.06605 0.76497
 H1314 H 0.32712 0.04131 0.74605
 H1315 H 0.35652 0.06121 0.69226
 H1316 H 0.37573 0.08590 0.71089
 H1317 H 0.41138 0.11381 0.81201
 H1318 H 0.44251 0.12211 0.82996
 H1319 H 0.47370 0.13069 0.77440
 H1320 H 0.44277 0.12263 0.75640
 C1321 C 0.62076 0.73812 0.05444
 C1322 C 0.61280 0.72288 0.04238
 C1323 C 0.62555 0.70993 0.03233
 C1324 C 0.64661 0.71215 0.03374
 C1325 C 0.65467 0.72726 0.04598
 C1326 C 0.64181 0.74000 0.05647
 C1327 C 0.60689 0.75232 0.06400
 N1328 N 0.61114 0.76069 0.08190
 N1329 N 0.59805 0.77301 0.09051
 C1330 C 0.58038 0.77763 0.08138
 N1331 N 0.57631 0.76939 0.06343
 N1332 N 0.58923 0.75694 0.05497
 C1333 C 0.56530 0.79073 0.09076
 C1334 C 0.55160 0.80109 0.07873
 C1335 C 0.53558 0.81141 0.08712
 C1336 C 0.53262 0.81140 0.10776
 C1337 C 0.54697 0.80200 0.11994
 C1338 C 0.56326 0.79181 0.11148
 H1339 H 0.59662 0.72102 0.04066
 H1340 H 0.61889 0.69850 0.02295
 H1341 H 0.67086 0.72926 0.04735
 H1342 H 0.64830 0.75169 0.06564
 H1343 H 0.55299 0.80083 0.06273
 H1344 H 0.52512 0.81898 0.07737
 H1345 H 0.54507 0.80171 0.13588
 H1346 H 0.57363 0.78393 0.12108
 C1347 C 0.37881 0.26860 0.05869
 C1348 C 0.38590 0.28662 0.05037
 C1349 C 0.37309 0.29875 0.03936
 C1350 C 0.35288 0.29306 0.03612
 C1351 C 0.34550 0.27535 0.04502
 C1352 C 0.35835 0.26329 0.05639
 C1353 C 0.39322 0.25520 0.06875
 N1354 N 0.38721 0.24214 0.08315
 N1355 N 0.40064 0.23051 0.09227
 C1356 C 0.42050 0.23132 0.08713
 N1357 N 0.42635 0.24422 0.07261
 N1358 N 0.41303 0.25593 0.06365
 C1359 C 0.43586 0.21930 0.09759
 C1360 C 0.45469 0.21616 0.08860
 C1361 C 0.47033 0.20725 0.09914
 C1362 C 0.46762 0.20144 0.11900
 C1363 C 0.44843 0.20346 0.12767
 C1364 C 0.43264 0.21227 0.11701
 H1365 H 0.40153 0.29123 0.05210
 H1366 H 0.37930 0.31227 0.03276
 H1367 H 0.32999 0.27058 0.04279
 H1368 H 0.35251 0.24946 0.06267
 H1369 H 0.45754 0.22108 0.07353
 H1370 H 0.48478 0.20541 0.09188
 H1371 H 0.44591 0.19917 0.14298
 H1372 H 0.41827 0.21449 0.12431
 C1373 C 0.63336 0.25698 0.94028
 C1374 C 0.62973 0.27736 0.94374
 C1375 C 0.64155 0.28815 0.95713
 C1376 C 0.65747 0.27894 0.96731
 C1377 C 0.66144 0.25865 0.96364
 C1378 C 0.64940 0.24772 0.95033
 C1379 C 0.61981 0.24555 0.92685
 N1380 N 0.62026 0.22522 0.92605
 N1381 N 0.60686 0.21509 0.91511
 C1382 C 0.59255 0.22487 0.90448
 N1383 N 0.59244 0.24518 0.90499
 N1384 N 0.60577 0.25528 0.91591
 C1385 C 0.57613 0.21382 0.89414
 C1386 C 0.55978 0.22439 0.88609
 C1387 C 0.54276 0.21421 0.87907
 C1388 C 0.54181 0.19325 0.87969
 C1389 C 0.55860 0.18254 0.88641
 C1390 C 0.57562 0.19275 0.89369
 H1391 H 0.61750 0.28501 0.93635
 H1392 H 0.63819 0.30380 0.95947
 H1393 H 0.67365 0.25117 0.97125
 H1394 H 0.65259 0.23204 0.94798
 H1395 H 0.55965 0.24060 0.88603
 H1396 H 0.52999 0.22273 0.87381
 H1397 H 0.55809 0.16633 0.88705
 H1398 H 0.58801 0.18416 0.89966
 C1399 C 0.36493 0.73114 0.92293
 C1400 C 0.34677 0.74035 0.92840
 C1401 C 0.33318 0.73051 0.94122
 C1402 C 0.33750 0.71126 0.94854
 C1403 C 0.35497 0.70163 0.94180
 C1404 C 0.36854 0.71148 0.92927
 C1405 C 0.38118 0.74233 0.91253
 N1406 N 0.40071 0.73771 0.91629
 N1407 N 0.41571 0.74804 0.90792
 C1408 C 0.41185 0.76335 0.89526
 N1409 N 0.39231 0.76792 0.89123
 N1410 N 0.37722 0.75769 0.89985
 C1411 C 0.42891 0.77483 0.88668
 C1412 C 0.42871 0.78167 0.86695
 C1413 C 0.44614 0.79037 0.85856
 C1414 C 0.46388 0.79262 0.86991
 C1415 C 0.46344 0.78687 0.88999
 C1416 C 0.44630 0.77787 0.89816
 H1417 H 0.34364 0.75553 0.92371
 H1418 H 0.31983 0.73831 0.94611
 H1419 H 0.35871 0.68674 0.94694
 H1420 H 0.38228 0.70391 0.92508
 H1421 H 0.41544 0.77944 0.85780
 H1422 H 0.44595 0.79461 0.84306
 H1423 H 0.47654 0.78901 0.89939
 H1424 H 0.44673 0.77307 0.91352
 C1425 C 0.73807 0.93816 0.37526
 C1426 C 0.74141 0.93771 0.35469
 C1427 C 0.72905 0.94872 0.34186
 C1428 C 0.71289 0.95988 0.34942
 C1429 C 0.70910 0.95949 0.36991
 C1430 C 0.72167 0.94894 0.38268
 C1431 C 0.75213 0.92863 0.38928
 N1432 N 0.75599 0.93752 0.40695
 N1433 N 0.76844 0.92917 0.41995
 C1434 C 0.77741 0.91147 0.41594
 N1435 N 0.77353 0.90246 0.39827
 N1436 N 0.76122 0.91098 0.38509
 C1437 C 0.79056 0.90225 0.43102
 C1438 C 0.79130 0.88137 0.43352
 C1439 C 0.80146 0.87311 0.44982
 C1440 C 0.81120 0.88562 0.46367
 C1441 C 0.81156 0.90639 0.46024
 C1442 C 0.80120 0.91460 0.44424
 H1443 H 0.75403 0.92954 0.34866
 H1444 H 0.73227 0.94875 0.32612
 H1445 H 0.69684 0.96799 0.37621
 H1446 H 0.71870 0.94941 0.39848
 H1447 H 0.78315 0.87154 0.42352
 H1448 H 0.80085 0.85706 0.45208
 H1449 H 0.81941 0.91641 0.47029
 H1450 H 0.80115 0.93073 0.44246
 C1451 C 0.27489 0.93320 0.62937
 C1452 C 0.26691 0.93611 0.64844
 C1453 C 0.27646 0.94931 0.66168
 C1454 C 0.29425 0.95956 0.65612
 C1455 C 0.30276 0.95565 0.63746
 C1456 C 0.29314 0.94274 0.62423
 C1457 C 0.26364 0.92178 0.61413
 N1458 N 0.26641 0.92633 0.59470
 N1459 N 0.25585 0.91696 0.58072
 C1460 C 0.24215 0.90251 0.58553
 N1461 N 0.23946 0.89771 0.60497
 N1462 N 0.24993 0.90728 0.61904
 C1463 C 0.23032 0.89275 0.56965
 C1464 C 0.22413 0.87260 0.57098
 C1465 C 0.21475 0.86321 0.55477
 C1466 C 0.21123 0.87396 0.53712
 C1467 C 0.21643 0.89440 0.53641
 C1468 C 0.22604 0.90360 0.55235
 H1469 H 0.25283 0.92896 0.65276
 H1470 H 0.26958 0.95196 0.67599
 H1471 H 0.31650 0.96318 0.63271
 H1472 H 0.29978 0.94060 0.60971
 H1473 H 0.22728 0.86393 0.58421
 H1474 H 0.21094 0.84744 0.55579
 H1475 H 0.21332 0.90331 0.52333
 H1476 H 0.23029 0.91926 0.55107
 C1477 C 0.25952 0.06175 0.37139
 C1478 C 0.28055 0.06009 0.37361
 C1479 C 0.29169 0.04806 0.36088
 C1480 C 0.28217 0.03755 0.34543
 C1481 C 0.26127 0.03971 0.34269
 C1482 C 0.25001 0.05161 0.35563
 C1483 C 0.24773 0.07329 0.38607
 N1484 N 0.22723 0.07200 0.38679
 N1485 N 0.21692 0.08138 0.40094
 C1486 C 0.22670 0.09245 0.41492
 N1487 N 0.24714 0.09394 0.41396
 N1488 N 0.25741 0.08457 0.39989
 C1489 C 0.21566 0.10181 0.43159
 C1490 C 0.22646 0.11232 0.44626
 C1491 C 0.21664 0.11980 0.46289
 C1492 C 0.19574 0.11705 0.46532
 C1493 C 0.18470 0.10727 0.45036
 C1494 C 0.19459 0.09963 0.43366
 H1495 H 0.28841 0.06767 0.38554
 H1496 H 0.30780 0.04680 0.36330
 H1497 H 0.25352 0.03174 0.33092
 H1498 H 0.23385 0.05263 0.35347
 H1499 H 0.24265 0.11447 0.44515
 H1500 H 0.22545 0.12762 0.47403
 H1501 H 0.16856 0.10497 0.45190
 H1502 H 0.18581 0.09167 0.42261
 C1503 C 0.72487 0.07658 0.63305
 C1504 C 0.70413 0.07211 0.63176
 C1505 C 0.69546 0.05722 0.64365
 C1506 C 0.70724 0.04651 0.65728
 C1507 C 0.72773 0.05171 0.65947
 C1508 C 0.73650 0.06656 0.64740
 C1509 C 0.73439 0.09041 0.61842
 N1510 N 0.75476 0.09311 0.61777
 N1511 N 0.76331 0.10404 0.60342
 C1512 C 0.75187 0.11272 0.58909
 N1513 N 0.73151 0.11031 0.58998
 N1514 N 0.72297 0.09941 0.60431
 C1515 C 0.76136 0.12323 0.57198
 C1516 C 0.74947 0.12935 0.55580
 C1517 C 0.75847 0.13725 0.53871
 C1518 C 0.77954 0.13936 0.53742
 C1519 C 0.79140 0.13417 0.55390
 C1520 C 0.78241 0.12611 0.57098
 H1521 H 0.69464 0.07958 0.62102
 H1522 H 0.67958 0.05368 0.64174
 H1523 H 0.73718 0.04368 0.66984
 H1524 H 0.75250 0.06970 0.64886
 H1525 H 0.73322 0.12748 0.55605
 H1526 H 0.74895 0.14139 0.52633
 H1527 H 0.80770 0.13556 0.55325
 H1528 H 0.79201 0.12164 0.58318
 C1529 C 0.93446 0.63470 0.26630
 C1530 C 0.93532 0.63225 0.28700
 C1531 C 0.94931 0.64301 0.29827
 C1532 C 0.96263 0.65671 0.28920
 C1533 C 0.96123 0.65992 0.26864
 C1534 C 0.94735 0.64890 0.25726
 C1535 C 0.92109 0.62146 0.25438
 N1536 N 0.92289 0.62040 0.23433
 N1537 N 0.91219 0.60698 0.22400
 C1538 C 0.89926 0.59410 0.23331
 N1539 N 0.89718 0.59552 0.25328
 N1540 N 0.90784 0.60889 0.26357
 C1541 C 0.88907 0.57759 0.22243
 C1542 C 0.87888 0.56242 0.23308
 C1543 C 0.87145 0.54547 0.22343
 C1544 C 0.87377 0.54337 0.20288
 C1545 C 0.88289 0.55892 0.19195
 C1546 C 0.89061 0.57588 0.20167
 H1547 H 0.92563 0.62150 0.29451
 H1548 H 0.94990 0.64035 0.31411
 H1549 H 0.97134 0.67041 0.26128
 H1550 H 0.94702 0.65120 0.24136
 H1551 H 0.87730 0.56321 0.24903
 H1552 H 0.86431 0.53369 0.23209
 H1553 H 0.88483 0.55753 0.17607
 H1554 H 0.89828 0.58733 0.19303
 C1555 C 0.94777 0.36873 0.74904
 C1556 C 0.94599 0.34799 0.75237
 C1557 C 0.95532 0.33443 0.73953
 C1558 C 0.96618 0.34140 0.72292
 C1559 C 0.96747 0.36211 0.71940
 C1560 C 0.95854 0.37559 0.73238
 C1561 C 0.93868 0.38339 0.76272
 N1562 N 0.94620 0.40235 0.76358
 N1563 N 0.93767 0.41600 0.77509
 C1564 C 0.92118 0.41135 0.78621
 N1565 N 0.91372 0.39231 0.78552
 N1566 N 0.92237 0.37857 0.77408
 C1567 C 0.91084 0.42726 0.79750
 C1568 C 0.89057 0.42502 0.80337
 C1569 C 0.88002 0.44131 0.81112
 C1570 C 0.88959 0.46008 0.81321
 C1571 C 0.91025 0.46183 0.80873
 C1572 C 0.92073 0.44565 0.80090
 H1573 H 0.93778 0.34229 0.76511
 H1574 H 0.95410 0.31854 0.74260
 H1575 H 0.97583 0.36799 0.70682
 H1576 H 0.96003 0.39147 0.72929
 H1577 H 0.88254 0.41103 0.80098
 H1578 H 0.86408 0.43952 0.81435
 H1579 H 0.91815 0.47598 0.81058
 H1580 H 0.93643 0.44779 0.79687
 C1581 C 0.06954 0.62716 0.72508
 C1582 C 0.06577 0.62524 0.70465
 C1583 C 0.05166 0.63738 0.69523
 C1584 C 0.04104 0.65191 0.70592
 C1585 C 0.04538 0.65448 0.72616
 C1586 C 0.05943 0.64217 0.73568
 C1587 C 0.08303 0.61277 0.73527
 N1588 N 0.08479 0.61253 0.75535
 N1589 N 0.09570 0.59855 0.76445
 C1590 C 0.10532 0.58423 0.75384
 N1591 N 0.10380 0.58470 0.73376
 N1592 N 0.09292 0.59865 0.72469
 C1593 C 0.11598 0.56756 0.76386
 C1594 C 0.12399 0.55180 0.75263
 C1595 C 0.13204 0.53497 0.76195
 C1596 C 0.13239 0.53350 0.78272
 C1597 C 0.12536 0.54965 0.79401
 C1598 C 0.11717 0.56649 0.78468
 H1599 H 0.07329 0.61393 0.69597
 H1600 H 0.04878 0.63511 0.67958
 H1601 H 0.03743 0.66555 0.73479
 H1602 H 0.06203 0.64412 0.75141
 H1603 H 0.12350 0.55213 0.73658
 H1604 H 0.13763 0.52287 0.75288
 H1605 H 0.12537 0.54886 0.81005
 H1606 H 0.11123 0.57838 0.79379
 C1607 C 0.07014 0.36845 0.26568
 C1608 C 0.05708 0.35468 0.25632
 C1609 C 0.04356 0.34294 0.26753
 C1610 C 0.04267 0.34502 0.28825
 C1611 C 0.05613 0.35833 0.29760
 C1612 C 0.06978 0.36978 0.28649
 C1613 C 0.08331 0.38225 0.25406
 N1614 N 0.09744 0.39365 0.26343
 N1615 N 0.10817 0.40733 0.25354
 C1616 C 0.10529 0.41031 0.23382
 N1617 N 0.09140 0.39867 0.22431
 N1618 N 0.08065 0.38491 0.23423
 C1619 C 0.11600 0.42701 0.22352
 C1620 C 0.11279 0.43111 0.20325
 C1621 C 0.12137 0.44824 0.19439
 C1622 C 0.13307 0.46161 0.20573
 C1623 C 0.13696 0.45704 0.22567
 C1624 C 0.12863 0.43995 0.23443
 H1625 H 0.05704 0.35323 0.24033
 H1626 H 0.03330 0.33283 0.25994
 H1627 H 0.05587 0.36017 0.31355
 H1628 H 0.07960 0.38019 0.29424
 H1629 H 0.10321 0.42142 0.19440
 H1630 H 0.11818 0.45151 0.17897
 H1631 H 0.14613 0.46704 0.23463
 H1632 H 0.13161 0.43727 0.25000
   
