data_POSCAR
  _audit_creation_date              2014-09-24
  _audit_creation_method            'ToBaCCo'
  _symmetry_space_group_name_H-M    'P1'
  _symmetry_Int_Tables_number       1
  _symmetry_cell_setting            triclinic
  loop_
  _symmetry_equiv_pos_as_xyz
 x,y,z
_cell_length_a 34.4318
_cell_length_b 34.2919
_cell_length_c 34.4028
_cell_angle_alpha 90.001000
_cell_angle_beta 89.791400
_cell_angle_gamma 90.109500
loop_
  _atom_site_label
  _atom_site_type_symbol
  _atom_site_fract_x
  _atom_site_fract_y
  _atom_site_fract_z
C1 C 0.20117 1.11535 0.02500
 C2 C 0.19881 1.10106 0.06207
 C3 C 0.21496 1.06406 0.06123
 N4 N 0.22671 1.05523 0.02470
 C5 C 0.21938 1.08704 0.00273
 C6 C 0.21746 1.03853 0.09346
 C7 C 0.21339 0.99788 0.08763
 C8 C 0.19224 0.97317 0.11160
 C9 C 0.19540 0.93644 0.09622
 C10 C 0.21764 0.93980 0.06270
 N11 N 0.22792 0.97749 0.05717
 C12 C 0.22947 0.90804 0.03948
 C13 C 0.24196 0.91217 0.00060
 C14 C 0.25826 0.88271 -0.02146
 C15 C 0.26217 0.89701 -0.05837
 C16 C 0.24812 0.93502 -0.05787
 N17 N 0.23652 0.94435 -0.02141
 C18 C 0.24576 0.96059 -0.09031
 C19 C 0.24785 1.00162 -0.08483
 C20 C 0.26749 1.02666 -0.10968
 C21 C 0.26491 1.06330 -0.09399
 C22 C 0.24364 1.06000 -0.05978
 N23 N 0.23397 1.02204 -0.05396
 C24 C 0.23218 1.09192 -0.03609
 H25 H 0.19016 1.14330 0.01565
 H26 H 0.18477 1.11565 0.08617
 H27 H 0.21582 1.01138 -0.03210
 H28 H 0.17499 0.98094 0.13677
 H29 H 0.18209 0.91035 0.10802
 H30 H 0.26686 0.85391 -0.01200
 H31 H 0.27584 0.88119 -0.08182
 H32 H 0.27829 1.08913 -0.10616
 H33 H 0.24710 0.98789 0.03605
 H34 H 0.28360 1.01907 -0.13567
 C35 C 0.74383 0.52816 0.61831
 C36 C 0.74786 0.56495 0.60346
 C37 C 0.75071 0.56119 0.56333
 N38 N 0.74939 0.52296 0.55356
 C39 C 0.74449 0.50274 0.58706
 C40 C 0.75795 0.59227 0.53694
 C41 C 0.75923 0.58725 0.49589
 C42 C 0.77344 0.61451 0.46957
 C43 C 0.76864 0.59923 0.43307
 C44 C 0.75021 0.56351 0.43749
 N45 N 0.74474 0.55639 0.47593
 C46 C 0.73660 0.53964 0.40661
 C47 C 0.72564 0.50039 0.41294
 C48 C 0.70327 0.47781 0.38816
 C49 C 0.70355 0.44058 0.40270
 C50 C 0.72526 0.44192 0.43646
 N51 N 0.73864 0.47844 0.44278
 C52 C 0.73435 0.40957 0.45989
 C53 C 0.74628 0.41402 0.49884
 C54 C 0.76317 0.38522 0.52131
 C55 C 0.76545 0.39962 0.55847
 C56 C 0.75053 0.43721 0.55757
 N57 N 0.73927 0.44584 0.52099
 C58 C 0.74431 0.46152 0.59015
 H59 H 0.74284 0.52111 0.64891
 H60 H 0.74993 0.59096 0.62101
 H61 H 0.72290 0.46998 0.51282
 H62 H 0.78579 0.64286 0.47529
 H63 H 0.77797 0.61336 0.40656
 H64 H 0.68796 0.48719 0.36249
 H65 H 0.68888 0.41561 0.39026
 H66 H 0.77745 0.38391 0.58279
 H67 H 0.72827 0.53372 0.48751
 H68 H 0.77256 0.35656 0.51214
 C69 C 0.79000 0.88257 1.01672
 C70 C 0.79385 0.89570 1.05408
 C71 C 0.77908 0.93332 1.05489
 N72 N 0.76678 0.94363 1.01904
 C73 C 0.77245 0.91225 0.99589
 C74 C 0.77836 0.95800 1.08793
 C75 C 0.78291 0.99880 1.08323
 C76 C 0.80527 1.02245 1.10703
 C77 C 0.80156 1.05984 1.09343
 C78 C 0.77782 1.05798 1.06103
 N79 N 0.76715 1.02053 1.05444
 C80 C 0.76535 1.09071 1.03957
 C81 C 0.75222 1.08779 1.00086
 C82 C 0.73551 1.11779 0.97989
 C83 C 0.73193 1.10475 0.94246
 C84 C 0.74626 1.06690 0.94172
 N85 N 0.75790 1.05643 0.97774
 C86 C 0.74886 1.04249 0.90853
 C87 C 0.74529 1.00156 0.91252
 C88 C 0.72498 0.97811 0.88684
 C89 C 0.72672 0.94085 0.90104
 C90 C 0.74817 0.94234 0.93510
 N91 N 0.75871 0.97973 0.94241
 C92 C 0.75931 0.90932 0.95707
 H93 H 0.79986 0.85456 1.00617
 H94 H 0.80807 0.87989 1.07719
 H95 H 0.77733 0.98916 0.96430
 H96 H 0.82353 1.01358 1.13098
 H97 H 0.81558 1.08536 1.10553
 H98 H 0.72657 1.14614 0.99035
 H99 H 0.71840 1.12108 0.91935
 H100 H 0.71298 0.91572 0.88792
 H101 H 0.74704 1.01104 1.03391
 H102 H 0.70927 0.98718 0.86120
 C103 C 0.29497 0.39803 0.44391
 C104 C 0.29149 0.38438 0.48117
 C105 C 0.27184 0.41261 0.50214
 N106 N 0.26415 0.44362 0.47901
 C107 C 0.27757 0.43430 0.44317
 C108 C 0.25986 0.40900 0.54147
 C109 C 0.24787 0.44165 0.56368
 C110 C 0.22856 0.43969 0.59915
 C111 C 0.22594 0.47711 0.61302
 C112 C 0.24314 0.50104 0.58550
 N113 N 0.25601 0.47938 0.55522
 C114 C 0.24586 0.54196 0.58900
 C115 C 0.24362 0.56662 0.55619
 C116 C 0.22999 0.60472 0.55617
 C117 C 0.23372 0.61820 0.51896
 C118 C 0.24978 0.58815 0.49746
 N119 N 0.25499 0.55639 0.52001
 C120 C 0.26259 0.59135 0.45869
 C121 C 0.27432 0.55882 0.43643
 C122 C 0.29679 0.56102 0.40300
 C123 C 0.30067 0.52365 0.38933
 C124 C 0.27970 0.49967 0.41419
 N125 N 0.26447 0.52121 0.44347
 C126 C 0.27628 0.45877 0.41012
 H127 H 0.31115 0.38419 0.42079
 H128 H 0.30334 0.35734 0.49186
 H129 H 0.24532 0.51132 0.46484
 H130 H 0.21706 0.41416 0.61364
 H131 H 0.21194 0.48587 0.63985
 H132 H 0.21674 0.62101 0.57954
 H133 H 0.22530 0.64687 0.50897
 H134 H 0.31857 0.51508 0.36490
 H135 H 0.27327 0.48932 0.53237
 H136 H 0.31001 0.58673 0.39033
 C137 C 1.10102 0.20257 -0.05729
 C138 C 1.11504 0.20440 -0.02017
 C139 C 1.08810 0.22515 0.00157
 N140 N 1.05717 0.23443 -0.02083
 C141 C 1.06542 0.22136 -0.05703
 C142 C 1.09220 0.23645 0.04107
 C143 C 1.05875 0.24457 0.06392
 C144 C 1.05809 0.26539 0.09862
 C145 C 1.02095 0.26278 0.11321
 C146 C 0.99976 0.24103 0.08683
 N147 N 1.02271 0.23057 0.05659
 C148 C 0.96094 0.22890 0.09209
 C149 C 0.93742 0.21829 0.06042
 C150 C 0.90260 0.19825 0.06317
 C151 C 0.88777 0.19684 0.02635
 C152 C 0.91340 0.21696 0.00252
 N153 N 0.94442 0.22902 0.02324
 C154 C 0.90861 0.22280 -0.03789
 C155 C 0.94113 0.21977 -0.06320
 C156 C 0.93988 0.20313 -0.09991
 C157 C 0.97708 0.20337 -0.11406
 C158 C 1.00029 0.22104 -0.08631
 N159 N 0.97834 0.22966 -0.05466
 C160 C 1.04116 0.22588 -0.08987
 H161 H 1.11461 0.18711 -0.08113
 H162 H 1.14141 0.19060 -0.01029
 H163 H 0.98770 0.24449 -0.03002
 H164 H 1.08164 0.28116 0.11218
 H165 H 1.01073 0.27559 0.14010
 H166 H 0.88969 0.18510 0.08875
 H167 H 0.86206 0.18106 0.01778
 H168 H 0.98629 0.18935 -0.14064
 H169 H 1.01516 0.21127 0.03440
 H170 H 0.91549 0.18921 -0.11401
 C171 C 0.44024 0.76072 0.59813
 C172 C 0.47748 0.76037 0.61195
 C173 C 0.50085 0.74656 0.58211
 N174 N 0.47876 0.73700 0.55110
 C175 C 0.44164 0.74574 0.56068
 C176 C 0.54141 0.74040 0.58414
 C177 C 0.56241 0.72652 0.55171
 C178 C 0.59663 0.70530 0.55292
 C179 C 0.61043 0.70332 0.51541
 C180 C 0.58476 0.72415 0.49246
 N181 N 0.55502 0.73724 0.51468
 C182 C 0.59061 0.73417 0.45298
 C183 C 0.55888 0.74409 0.42893
 C184 C 0.56129 0.75956 0.39174
 C185 C 0.52421 0.76117 0.37776
 C186 C 0.49996 0.74814 0.40732
 N187 N 0.52132 0.73711 0.43829
 C188 C 0.45922 0.74359 0.40486
 C189 C 0.43699 0.73113 0.43723
 C190 C 0.40153 0.71192 0.43573
 C191 C 0.38779 0.70986 0.47327
 C192 C 0.41456 0.72882 0.49661
 N193 N 0.44498 0.74074 0.47452
 C194 C 0.40932 0.73803 0.53648
 H195 H 0.41546 0.77122 0.61433
 H196 H 0.48567 0.76855 0.64111
 H197 H 0.46734 0.75920 0.48342
 H198 H 0.61040 0.69228 0.57792
 H199 H 0.63669 0.68861 0.50629
 H200 H 0.58667 0.76901 0.37578
 H201 H 0.51676 0.77011 0.34864
 H202 H 0.36095 0.69611 0.48218
 H203 H 0.53394 0.75727 0.50619
 H204 H 0.38692 0.70007 0.41063
 C205 C 0.02602 0.77820 -0.12209
 C206 C 0.06300 0.77734 -0.10801
 C207 C 0.06068 0.76371 -0.07006
 N208 N 0.02297 0.75759 -0.06043
 C209 C 0.00147 0.76740 -0.09186
 C210 C 0.09266 0.75593 -0.04513
 C211 C 0.08674 0.74606 -0.00554
 C212 C 0.11274 0.72555 0.01739
 C213 C 0.09826 0.72591 0.05458
 C214 C 0.06321 0.74563 0.05320
 N215 N 0.05600 0.75720 0.01635
 C216 C 0.04114 0.75729 0.08568
 C217 C 0.00049 0.76244 0.08329
 C218 C -0.02345 0.77521 0.11316
 C219 C -0.06050 0.77489 0.09904
 C220 C -0.05845 0.76040 0.06137
 N221 N -0.02104 0.75285 0.05190
 C222 C -0.09033 0.75327 0.03633
 C223 C -0.08400 0.74458 -0.00339
 C224 C -0.10879 0.72309 -0.02673
 C225 C -0.09401 0.72482 -0.06382
 C226 C -0.06032 0.74711 -0.06213
 N227 N -0.05391 0.75810 -0.02493
 C228 C -0.03951 0.76246 -0.09421
 H229 H 0.01923 0.78410 -0.15209
 H230 H 0.08819 0.78581 -0.12477
 H231 H -0.03317 0.77833 -0.01582
 H232 H 0.13959 0.71184 0.00841
 H233 H 0.11209 0.71271 0.07943
 H234 H -0.01574 0.78341 0.14245
 H235 H -0.08557 0.78485 0.11515
 H236 H -0.10682 0.71086 -0.08886
 H237 H 0.03402 0.77626 0.00793
 H238 H -0.13494 0.70782 -0.01801
 C239 C 0.62052 0.28286 0.47906
 C240 C 0.60651 0.28141 0.44190
 C241 C 0.56846 0.26837 0.44451
 N242 N 0.55878 0.26237 0.48221
 C243 C 0.59036 0.27200 0.50356
 C244 C 0.54391 0.26039 0.41254
 C245 C 0.50443 0.25005 0.41708
 C246 C 0.48223 0.23187 0.38888
 C247 C 0.44468 0.23137 0.40233
 C248 C 0.44491 0.24895 0.43869
 N249 N 0.48165 0.25975 0.44766
 C250 C 0.41167 0.25880 0.46084
 C251 C 0.41345 0.26333 0.50184
 C252 C 0.38231 0.27213 0.52600
 C253 C 0.39638 0.27364 0.56308
 C254 C 0.43544 0.26411 0.56094
 N255 N 0.44570 0.25750 0.52350
 C256 C 0.46058 0.26000 0.59317
 C257 C 0.50084 0.25314 0.58890
 C258 C 0.52446 0.23813 0.61770
 C259 C 0.56194 0.24065 0.60430
 C260 C 0.56034 0.25676 0.56728
 N261 N 0.52279 0.26380 0.55797
 C262 C 0.59276 0.26847 0.54458
 H263 H 0.65005 0.28991 0.48658
 H264 H 0.62302 0.28884 0.41615
 H265 H 0.51323 0.28012 0.53436
 H266 H 0.49194 0.22055 0.36114
 H267 H 0.42047 0.21903 0.38672
 H268 H 0.35214 0.27608 0.51854
 H269 H 0.37917 0.28081 0.58839
 H270 H 0.58697 0.23126 0.62054
 H271 H 0.48966 0.27779 0.47062
 H272 H 0.51569 0.22695 0.64582
 C273 C 1.11423 0.02000 0.26869
 C274 C 1.09976 0.05684 0.27316
 C275 C 1.06320 0.05703 0.25627
 N276 N 1.05477 0.02117 0.24218
 C277 C 1.08640 -0.00120 0.24876
 C278 C 1.03814 0.08971 0.25398
 C279 C 0.99734 0.08460 0.25620
 C280 C 0.97262 0.10955 0.27602
 C281 C 0.93595 0.09429 0.27300
 C282 C 0.93906 0.06022 0.25145
 N283 N 0.97681 0.05400 0.24201
 C284 C 0.90716 0.03716 0.23928
 C285 C 0.91155 -0.00187 0.22690
 C286 C 0.88324 -0.02395 0.20861
 C287 C 0.89733 -0.06112 0.20606
 C288 C 0.93420 -0.06045 0.22210
 N289 N 0.94317 -0.02401 0.23412
 C290 C 0.95977 -0.09250 0.22324
 C291 C 1.00009 -0.08643 0.21908
 C292 C 1.02360 -0.10859 0.19526
 C293 C 1.06039 -0.09374 0.19818
 C294 C 1.05835 -0.06243 0.22361
 N295 N 1.02110 -0.05731 0.23543
 C296 C 1.09073 -0.04002 0.23551
 H297 H 1.14173 0.00988 0.27990
 H298 H 1.11400 0.07986 0.28918
 H299 H 1.01129 -0.03732 0.25608
 H300 H 0.98039 0.13532 0.29242
 H301 H 0.91016 0.10663 0.28612
 H302 H 0.85560 -0.01437 0.19731
 H303 H 0.88282 -0.08500 0.19156
 H304 H 1.08551 -0.10381 0.18212
 H305 H 0.98733 0.03225 0.22367
 H306 H 1.01450 -0.13160 0.17601
 C307 C 0.52341 0.61671 0.69821
 C308 C 0.56060 0.60227 0.69781
 C309 C 0.55964 0.56765 0.71855
 N310 N 0.52327 0.56052 0.73168
 C311 C 0.50111 0.59071 0.71969
 C312 C 0.59214 0.54439 0.72765
 C313 C 0.58777 0.50549 0.74044
 C314 C 0.61527 0.48423 0.76070
 C315 C 0.60112 0.44680 0.76387
 C316 C 0.56536 0.44624 0.74538
 N317 N 0.55725 0.48231 0.73170
 C318 C 0.54211 0.41283 0.73880
 C319 C 0.50212 0.41685 0.73043
 C320 C 0.47817 0.38857 0.71461
 C321 C 0.44096 0.40278 0.71664
 C322 C 0.44353 0.43988 0.73252
 N323 N 0.48093 0.44837 0.74076
 C324 C 0.41207 0.46358 0.74418
 C325 C 0.41631 0.50445 0.74897
 C326 C 0.38900 0.52922 0.76544
 C327 C 0.40352 0.56639 0.76254
 C328 C 0.43880 0.56380 0.74311
 N329 N 0.44638 0.52590 0.73506
 C330 C 0.46178 0.59584 0.73065
 H331 H 0.51397 0.64312 0.68392
 H332 H 0.58533 0.61555 0.68348
 H333 H 0.46886 0.51564 0.71751
 H334 H 0.64270 0.49452 0.77205
 H335 H 0.61560 0.42298 0.77841
 H336 H 0.48643 0.36065 0.70267
 H337 H 0.41539 0.38740 0.70689
 H338 H 0.38921 0.59214 0.77360
 H339 H 0.53432 0.48965 0.71341
 H340 H 0.36092 0.52205 0.77756
 C341 C 0.88951 1.02613 0.79820
 C342 C 0.90393 1.06351 0.79752
 C343 C 0.93905 1.06179 0.77781
 N344 N 0.94655 1.02490 0.76647
 C345 C 0.91610 1.00313 0.77836
 C346 C 0.96257 1.09380 0.76759
 C347 C 1.00157 1.08826 0.75616
 C348 C 1.02399 1.11463 0.73548
 C349 C 1.06120 1.10008 0.73498
 C350 C 1.06049 1.06504 0.75539
 N351 N 1.02375 1.05779 0.76738
 C352 C 1.09303 1.04350 0.76847
 C353 C 1.09015 1.00231 0.77356
 C354 C 1.12044 0.97738 0.78291
 C355 C 1.10579 0.94042 0.78293
 C356 C 1.06739 0.94300 0.77110
 N357 N 1.05796 0.98093 0.76542
 C358 C 1.04216 0.91090 0.76386
 C359 C 1.00213 0.91668 0.75614
 C360 C 0.97895 0.89167 0.73456
 C361 C 0.94203 0.90670 0.73522
 C362 C 0.94351 0.94064 0.75709
 N363 N 0.98045 0.94693 0.76915
 C364 C 0.91111 0.96382 0.76752
 H365 H 0.86258 1.01708 0.81180
 H366 H 0.89023 1.08885 0.81029
 H367 H 0.98951 0.96852 0.78847
 H368 H 1.01470 1.14178 0.72250
 H369 H 1.08559 1.11412 0.72094
 H370 H 1.15077 0.98386 0.78725
 H371 H 1.12249 0.91498 0.79065
 H372 H 0.91725 0.89421 0.72050
 H373 H 1.01547 1.03616 0.78708
 H374 H 0.98781 0.86560 0.71921
 C375 C 0.39502 0.43950 0.29297
 C376 C 0.38146 0.47688 0.29000
 C377 C 0.41071 0.49876 0.27275
 N378 N 0.44230 0.47612 0.26654
 C379 C 0.43254 0.43967 0.27821
 C380 C 0.40728 0.53822 0.26085
 C381 C 0.43990 0.56128 0.25007
 C382 C 0.43787 0.59696 0.23103
 C383 C 0.47496 0.61147 0.22892
 C384 C 0.49895 0.58419 0.24610
 N385 N 0.47752 0.55339 0.25859
 C386 C 0.53982 0.58813 0.24829
 C387 C 0.56461 0.55532 0.24621
 C388 C 0.60267 0.55541 0.23262
 C389 C 0.61611 0.51812 0.23611
 C390 C 0.58617 0.49639 0.25205
 N391 N 0.55445 0.51891 0.25739
 C392 C 0.58947 0.45747 0.26470
 C393 C 0.55709 0.43495 0.27638
 C394 C 0.55931 0.40162 0.29902
 C395 C 0.52216 0.38760 0.30277
 C396 C 0.49829 0.41206 0.28153
 N397 N 0.51966 0.44158 0.26630
 C398 C 0.45768 0.40703 0.27749
 H399 H 0.37960 0.41583 0.30695
 H400 H 0.35350 0.48675 0.30042
 H401 H 0.50988 0.46276 0.24696
 H402 H 0.41256 0.61109 0.21905
 H403 H 0.48349 0.63844 0.21492
 H404 H 0.61907 0.57878 0.21946
 H405 H 0.64472 0.50823 0.22759
 H406 H 0.51356 0.36310 0.32060
 H407 H 0.48746 0.53031 0.27546
 H408 H 0.58488 0.38922 0.31239
 O409 O 0.22570 0.13619 0.23092
 O410 O 0.24570 0.13482 0.29744
 O411 O 0.13758 0.22656 0.23484
 O412 O 0.13500 0.28979 0.24936
 O413 O 0.22623 0.22795 0.14213
 O414 O 0.29355 0.24224 0.14069
 O415 O 0.24769 0.33113 0.32897
 O416 O 0.18393 0.30180 0.33569
 O417 O 0.32684 0.24008 0.33499
 O418 O 0.33305 0.17624 0.30109
 O419 O 0.33319 0.32274 0.24885
 O420 O 0.30047 0.32976 0.18295
 O421 O 0.27280 0.35608 0.27301
 O422 O 0.25363 0.35741 0.20504
 O423 O 0.35881 0.26670 0.27305
 O424 O 0.35914 0.19809 0.25328
 O425 O 0.27469 0.27238 0.35979
 O426 O 0.21262 0.24859 0.36709
 O427 O 0.25007 0.16170 0.17477
 O428 O 0.31359 0.19149 0.16748
 O429 O 0.17104 0.25272 0.16903
 O430 O 0.16724 0.31638 0.20225
 O431 O 0.16308 0.17089 0.26003
 O432 O 0.19827 0.16105 0.32122
 Zr433 Zr 0.22204 0.18406 0.26921
 O434 O 0.25823 0.21751 0.30555
 Zr435 Zr 0.18608 0.26341 0.22751
 O436 O 0.22093 0.30039 0.26193
 Zr437 Zr 0.26364 0.21975 0.18956
 O438 O 0.30194 0.25453 0.22237
 Zr439 Zr 0.23404 0.27290 0.31470
 O440 O 0.19488 0.23762 0.28256
 Zr441 Zr 0.31110 0.22849 0.27691
 O442 O 0.27651 0.19122 0.24216
 Zr443 Zr 0.27533 0.30820 0.23500
 O444 O 0.23872 0.27508 0.19820
 O445 O 0.21010 0.20926 0.21563
 O446 O 0.28764 0.28325 0.28863
 C447 C 0.23644 0.13340 0.19520
 C448 C 0.13461 0.19139 0.24744
 C449 C 0.19115 0.24038 0.13999
 C450 C 0.26219 0.35909 0.30868
 C451 C 0.30917 0.25851 0.36230
 C452 C 0.36136 0.30259 0.26267
 H453 H 0.26187 0.20377 0.33054
 H454 H 0.32652 0.25805 0.20786
 H455 H 0.19268 0.19312 0.19937
 H456 H 0.20732 0.32539 0.26633
 H457 H 0.16149 0.28479 0.32961
 H458 H 0.14293 0.30758 0.27051
 H459 H 0.36469 0.20928 0.22735
 H460 H 0.32135 0.17196 0.18716
 H461 H 0.19126 0.23082 0.35985
 H462 H 0.17531 0.17700 0.32801
 H463 H 0.32510 0.31566 0.17834
 H464 H 0.28614 0.27003 0.13869
 H465 H 0.27196 0.13090 0.28632
 H466 H 0.31660 0.16935 0.32372
 H467 H 0.18560 0.32256 0.18090
 H468 H 0.22818 0.36400 0.21671
 O469 O 0.77253 0.85736 0.22304
 O470 O 0.75538 0.85803 0.28985
 O471 O 0.86130 0.76687 0.22302
 O472 O 0.86479 0.70393 0.23766
 O473 O 0.77190 0.76718 0.13307
 O474 O 0.70476 0.75091 0.13294
 O475 O 0.75175 0.66339 0.32131
 O476 O 0.81633 0.69007 0.32544
 O477 O 0.67422 0.75011 0.32790
 O478 O 0.66725 0.81626 0.29494
 O479 O 0.66546 0.67156 0.23857
 O480 O 0.69942 0.66167 0.17587
 O481 O 0.72647 0.63748 0.26600
 O482 O 0.74637 0.63578 0.19729
 O483 O 0.64072 0.72636 0.26635
 O484 O 0.63973 0.79422 0.24835
 O485 O 0.72960 0.72555 0.35406
 O486 O 0.79584 0.74341 0.35540
 O487 O 0.74759 0.83227 0.16714
 O488 O 0.68421 0.80154 0.16061
 O489 O 0.82630 0.73972 0.15856
 O490 O 0.83084 0.67649 0.19180
 O491 O 0.83616 0.82292 0.24807
 O492 O 0.80487 0.82987 0.31111
 Zr493 Zr 0.77776 0.80901 0.26010
 O494 O 0.74191 0.77589 0.29720
 Zr495 Zr 0.81286 0.72969 0.21742
 O496 O 0.77886 0.69294 0.25302
 Zr497 Zr 0.73481 0.77371 0.18137
 O498 O 0.69733 0.73858 0.21499
 Zr499 Zr 0.76683 0.72077 0.30601
 O500 O 0.80524 0.75558 0.27254
 Zr501 Zr 0.68874 0.76413 0.26988
 O502 O 0.72272 0.80176 0.23451
 Zr503 Zr 0.72413 0.68491 0.22718
 O504 O 0.75977 0.71827 0.18937
 O505 O 0.78870 0.78393 0.20619
 O506 O 0.71265 0.70960 0.28137
 C507 C 0.76127 0.86047 0.18765
 C508 C 0.86432 0.80242 0.23452
 C509 C 0.80652 0.75358 0.13016
 C510 C 0.73741 0.63509 0.30157
 C511 C 0.69417 0.73663 0.35640
 C512 C 0.63751 0.69138 0.25348
 H513 H 0.73823 0.79023 0.32184
 H514 H 0.67262 0.73516 0.20085
 H515 H 0.80556 0.80022 0.18939
 H516 H 0.79250 0.66797 0.25730
 H517 H 0.83933 0.70482 0.31620
 H518 H 0.85750 0.68421 0.25737
 H519 H 0.63503 0.78477 0.22162
 H520 H 0.67685 0.82123 0.18035
 H521 H 0.78712 0.77059 0.35922
 H522 H 0.82486 0.81046 0.31826
 H523 H 0.67785 0.67894 0.16802
 H524 H 0.71374 0.72368 0.12975
 H525 H 0.72803 0.86070 0.28154
 H526 H 0.68152 0.82104 0.31938
 H527 H 0.81186 0.67016 0.17119
 H528 H 0.77096 0.62819 0.20997
 O529 O 0.77338 0.14317 0.77376
 O530 O 0.75635 0.14285 0.70681
 O531 O 0.86323 0.23266 0.77431
 O532 O 0.86760 0.29595 0.75999
 O533 O 0.77327 0.23197 0.86336
 O534 O 0.70684 0.25090 0.86396
 O535 O 0.76095 0.33912 0.67712
 O536 O 0.82144 0.30826 0.67035
 O537 O 0.67722 0.25081 0.66861
 O538 O 0.66829 0.18643 0.70061
 O539 O 0.66941 0.33091 0.75745
 O540 O 0.70267 0.33954 0.82107
 O541 O 0.72803 0.36264 0.72954
 O542 O 0.75072 0.36557 0.79862
 O543 O 0.64379 0.27573 0.73113
 O544 O 0.64300 0.20621 0.74892
 O545 O 0.73042 0.28272 0.64530
 O546 O 0.79841 0.25520 0.64199
 O547 O 0.74541 0.16835 0.82834
 O548 O 0.68432 0.20167 0.83635
 O549 O 0.82898 0.25787 0.83847
 O550 O 0.83348 0.32279 0.80674
 O551 O 0.83808 0.17756 0.74722
 O552 O 0.80616 0.17058 0.68512
 Zr553 Zr 0.77949 0.19158 0.73643
 O554 O 0.74459 0.22546 0.69929
 Zr555 Zr 0.81536 0.27020 0.78005
 O556 O 0.78249 0.30766 0.74434
 Zr557 Zr 0.73606 0.22745 0.81515
 O558 O 0.69953 0.26303 0.78155
 Zr559 Zr 0.77062 0.28035 0.69111
 O560 O 0.80791 0.24485 0.72474
 Zr561 Zr 0.69130 0.23740 0.72667
 O562 O 0.72435 0.19946 0.76195
 Zr563 Zr 0.72748 0.31634 0.76967
 O564 O 0.76211 0.28248 0.80770
 O565 O 0.79002 0.21618 0.79055
 O566 O 0.71638 0.29161 0.71567
 C567 C 0.75944 0.14001 0.80835
 C568 C 0.86621 0.19752 0.76167
 C569 C 0.80856 0.24378 0.86650
 C570 C 0.74229 0.36601 0.69514
 C571 C 0.69560 0.26967 0.64202
 C572 C 0.64115 0.31101 0.74337
 H573 H 0.74076 0.21165 0.67441
 H574 H 0.67477 0.26671 0.79568
 H575 H 0.80627 0.19911 0.80701
 H576 H 0.79660 0.33246 0.74026
 H577 H 0.84376 0.29334 0.68064
 H578 H 0.86060 0.31536 0.73997
 H579 H 0.63561 0.21831 0.77398
 H580 H 0.67585 0.18262 0.81648
 H581 H 0.78125 0.23485 0.63105
 H582 H 0.82374 0.19152 0.67589
 H583 H 0.68035 0.32284 0.82838
 H584 H 0.71665 0.27786 0.86717
 H585 H 0.72909 0.14020 0.71566
 H586 H 0.68503 0.17950 0.67825
 H587 H 0.81420 0.32889 0.82727
 H588 H 0.77445 0.37378 0.78455
 O589 O 0.22871 0.86353 0.77089
 O590 O 0.24717 0.86527 0.70351
 O591 O 0.14009 0.77309 0.76924
 O592 O 0.13640 0.71054 0.75348
 O593 O 0.23062 0.77203 0.85820
 O594 O 0.29757 0.75445 0.85712
 O595 O 0.24347 0.66911 0.67058
 O596 O 0.18089 0.70118 0.66592
 O597 O 0.32599 0.75691 0.66198
 O598 O 0.33283 0.82317 0.69499
 O599 O 0.33475 0.67698 0.74704
 O600 O 0.30359 0.66788 0.81264
 O601 O 0.27279 0.64365 0.72398
 O602 O 0.25555 0.64178 0.79261
 O603 O 0.36016 0.73354 0.72356
 O604 O 0.36122 0.80112 0.74080
 O605 O 0.27054 0.73148 0.63659
 O606 O 0.20671 0.75000 0.63366
 O607 O 0.25667 0.83737 0.82477
 O608 O 0.31856 0.80550 0.83078
 O609 O 0.17576 0.74523 0.83282
 O610 O 0.16998 0.68281 0.79907
 O611 O 0.16491 0.82896 0.74333
 O612 O 0.19694 0.83909 0.68197
 Zr613 Zr 0.22367 0.81603 0.73218
 O614 O 0.25833 0.78292 0.69391
 Zr615 Zr 0.18851 0.73606 0.77383
 O616 O 0.22178 0.69956 0.73760
 Zr617 Zr 0.26740 0.77886 0.80960
 O618 O 0.30427 0.74442 0.77476
 Zr619 Zr 0.23300 0.72790 0.68470
 O620 O 0.19569 0.76290 0.71911
 Zr621 Zr 0.31192 0.77073 0.72011
 O622 O 0.27897 0.80784 0.75683
 Zr623 Zr 0.27701 0.69103 0.76226
 O624 O 0.24186 0.72376 0.80097
 O625 O 0.21320 0.79004 0.78576
 O626 O 0.28757 0.71630 0.70814
 C627 C 0.24211 0.86600 0.80567
 C628 C 0.13680 0.80835 0.75704
 C629 C 0.19590 0.75854 0.86120
 C630 C 0.25864 0.64080 0.68970
 C631 C 0.30592 0.74293 0.63378
 C632 C 0.36296 0.69769 0.73373
 H633 H 0.26173 0.79733 0.66926
 H634 H 0.32924 0.74082 0.78835
 H635 H 0.19657 0.80622 0.80285
 H636 H 0.20760 0.67479 0.73367
 H637 H 0.15920 0.71801 0.67471
 H638 H 0.14346 0.69161 0.73296
 H639 H 0.36642 0.79162 0.76742
 H640 H 0.32653 0.82511 0.81118
 H641 H 0.21151 0.77840 0.63296
 H642 H 0.17758 0.81955 0.67336
 H643 H 0.32703 0.68359 0.81826
 H644 H 0.28852 0.72713 0.85943
 H645 H 0.27411 0.86821 0.71302
 H646 H 0.31843 0.82783 0.67061
 H647 H 0.18919 0.67592 0.81928
 H648 H 0.23000 0.63502 0.78138
 O649 O 0.25175 0.33049 0.67196
 O650 O 0.19068 0.34054 0.70343
 O651 O 0.33092 0.33536 0.76851
 O652 O 0.34537 0.30210 0.82073
 O653 O 0.33836 0.24424 0.67969
 O654 O 0.30451 0.18413 0.67152
 O655 O 0.22994 0.23235 0.86623
 O656 O 0.25134 0.29663 0.86827
 O657 O 0.14296 0.23469 0.77628
 O658 O 0.14237 0.25137 0.70899
 O659 O 0.22720 0.14502 0.78217
 O660 O 0.29411 0.13871 0.76100
 O661 O 0.25407 0.17631 0.84032
 O662 O 0.31951 0.16719 0.80631
 O663 O 0.17414 0.17106 0.75288
 O664 O 0.16945 0.20472 0.68651
 O665 O 0.16907 0.25648 0.83293
 O666 O 0.20129 0.32238 0.83920
 O667 O 0.27386 0.27365 0.64586
 O668 O 0.25526 0.20645 0.64547
 O669 O 0.36378 0.27255 0.73377
 O670 O 0.36179 0.24586 0.80174
 O671 O 0.27916 0.36303 0.73816
 O672 O 0.21171 0.36533 0.75438
 Zr673 Zr 0.24007 0.31620 0.73047
 O674 O 0.20109 0.28338 0.76475
 Zr675 Zr 0.31676 0.27621 0.77294
 O676 O 0.28119 0.24301 0.81025
 Zr677 Zr 0.27944 0.23579 0.69373
 O678 O 0.24307 0.19938 0.72733
 Zr679 Zr 0.22711 0.27021 0.81836
 O680 O 0.26483 0.30637 0.78555
 Zr681 Zr 0.19090 0.22873 0.73896
 O682 O 0.22568 0.26372 0.70192
 Zr683 Zr 0.26787 0.19026 0.78234
 O684 O 0.30682 0.22192 0.74652
 O685 O 0.29285 0.28928 0.71909
 O686 O 0.21447 0.21651 0.79328
 C687 C 0.26290 0.30936 0.64317
 C688 C 0.31252 0.36465 0.75468
 C689 C 0.36662 0.25902 0.69905
 C690 C 0.24043 0.19654 0.86861
 C691 C 0.14049 0.24439 0.81221
 C692 C 0.19203 0.14327 0.77033
 H693 H 0.17671 0.29819 0.76797
 H694 H 0.23850 0.17455 0.71350
 H695 H 0.30988 0.30612 0.70298
 H696 H 0.29470 0.23909 0.83525
 H697 H 0.26895 0.31751 0.85893
 H698 H 0.32897 0.29722 0.84386
 H699 H 0.18194 0.17907 0.68249
 H700 H 0.22869 0.21687 0.64219
 H701 H 0.17684 0.32688 0.82491
 H702 H 0.22038 0.36726 0.78170
 H703 H 0.28332 0.13350 0.73491
 H704 H 0.32111 0.17350 0.69241
 H705 H 0.18105 0.32078 0.68480
 H706 H 0.13896 0.27868 0.71756
 H707 H 0.36828 0.22284 0.78561
 H708 H 0.32484 0.18124 0.83084
 O709 O 0.76791 0.67703 0.65977
 O710 O 0.82347 0.66689 0.69735
 O711 O 0.67581 0.66928 0.74370
 O712 O 0.66068 0.69747 0.79979
 O713 O 0.67507 0.76172 0.66088
 O714 O 0.70881 0.82034 0.65310
 O715 O 0.76687 0.77337 0.85477
 O716 O 0.74906 0.70957 0.85588
 O717 O 0.85961 0.78030 0.77309
 O718 O 0.86788 0.75783 0.70558
 O719 O 0.77274 0.86366 0.76706
 O720 O 0.70644 0.86518 0.74580
 O721 O 0.74519 0.82963 0.82733
 O722 O 0.68151 0.83691 0.79033
 O723 O 0.82949 0.83830 0.74457
 O724 O 0.84198 0.80434 0.68040
 O725 O 0.83182 0.75124 0.82573
 O726 O 0.79993 0.68398 0.82826
 O727 O 0.74283 0.73149 0.63154
 O728 O 0.76134 0.79952 0.63295
 O729 O 0.64499 0.73560 0.71392
 O730 O 0.64155 0.75473 0.78216
 O731 O 0.73188 0.64352 0.71973
 O732 O 0.79736 0.64252 0.74664
 Zr733 Zr 0.77114 0.69077 0.71896
 O734 O 0.80624 0.72487 0.75581
 Zr735 Zr 0.68974 0.72783 0.75474
 O736 O 0.72108 0.76199 0.79475
 Zr737 Zr 0.73272 0.76980 0.67871
 O738 O 0.76432 0.80745 0.71523
 Zr739 Zr 0.77519 0.73646 0.80703
 O740 O 0.74118 0.69921 0.77164
 Zr741 Zr 0.81627 0.77995 0.73087
 O742 O 0.78629 0.74363 0.69142
 Zr743 Zr 0.73498 0.81558 0.76843
 O744 O 0.70061 0.78262 0.72945
 O745 O 0.71869 0.71610 0.70288
 O746 O 0.78800 0.79098 0.78335
 C747 C 0.75737 0.69699 0.63016
 C748 C 0.69612 0.64089 0.73036
 C749 C 0.64490 0.74997 0.67948
 C750 C 0.75604 0.80906 0.85660
 C751 C 0.86015 0.76863 0.80842
 C752 C 0.80868 0.86645 0.75762
 H753 H 0.83085 0.71113 0.76105
 H754 H 0.76886 0.83238 0.70153
 H755 H 0.70332 0.69986 0.68474
 H756 H 0.70548 0.76525 0.81870
 H757 H 0.73168 0.68893 0.84577
 H758 H 0.67300 0.70541 0.82447
 H759 H 0.82758 0.82836 0.67377
 H760 H 0.78764 0.78810 0.63085
 H761 H 0.82632 0.68108 0.81720
 H762 H 0.78280 0.63803 0.77110
 H763 H 0.71808 0.87079 0.72008
 H764 H 0.69091 0.83167 0.67262
 H765 H 0.83683 0.68822 0.68323
 H766 H 0.87494 0.73369 0.71958
 H767 H 0.63772 0.78024 0.76928
 H768 H 0.67544 0.82274 0.81466
 O769 O 0.24314 0.67444 0.33461
 O770 O 0.18177 0.66516 0.30313
 O771 O 0.32646 0.66654 0.24657
 O772 O 0.33470 0.69671 0.18438
 O773 O 0.33072 0.76228 0.32532
 O774 O 0.29535 0.82057 0.33354
 O775 O 0.22475 0.76888 0.13885
 O776 O 0.24693 0.70131 0.13804
 O777 O 0.14039 0.77449 0.22293
 O778 O 0.13326 0.75444 0.28886
 O779 O 0.22545 0.85884 0.22249
 O780 O 0.29345 0.86186 0.24236
 O781 O 0.25153 0.82455 0.16281
 O782 O 0.31614 0.83411 0.19625
 O783 O 0.17119 0.83397 0.25112
 O784 O 0.16292 0.79823 0.31634
 O785 O 0.16524 0.74129 0.17132
 O786 O 0.20109 0.67734 0.16586
 O787 O 0.26972 0.73013 0.35892
 O788 O 0.24518 0.79657 0.35857
 O789 O 0.35832 0.73419 0.27195
 O790 O 0.35953 0.74832 0.20396
 O791 O 0.27038 0.63990 0.26992
 O792 O 0.20281 0.63833 0.25341
 Zr793 Zr 0.23225 0.68751 0.27589
 O794 O 0.19506 0.71991 0.23967
 Zr795 Zr 0.31126 0.72464 0.23394
 O796 O 0.27765 0.75800 0.19521
 Zr797 Zr 0.27207 0.76819 0.31101
 O798 O 0.23770 0.80436 0.27582
 Zr799 Zr 0.22345 0.73093 0.18670
 O800 O 0.25912 0.69492 0.22136
 Zr801 Zr 0.18537 0.77549 0.26368
 O802 O 0.21802 0.74087 0.30265
 Zr803 Zr 0.26435 0.81179 0.22121
 O804 O 0.30137 0.78002 0.25839
 O805 O 0.28536 0.71401 0.28741
 O806 O 0.21098 0.78576 0.20975
 C807 C 0.25785 0.69475 0.36230
 C808 C 0.30592 0.63760 0.25860
 C809 C 0.35992 0.74970 0.30591
 C810 C 0.23603 0.80440 0.13548
 C811 C 0.13807 0.76020 0.18858
 C812 C 0.19049 0.86181 0.23513
 H813 H 0.17048 0.70552 0.23583
 H814 H 0.23350 0.82943 0.28936
 H815 H 0.30259 0.69834 0.30425
 H816 H 0.29192 0.76141 0.17048
 H817 H 0.27249 0.71312 0.13209
 H818 H 0.31455 0.67838 0.17502
 H819 H 0.17685 0.82285 0.32190
 H820 H 0.22036 0.78279 0.36354
 H821 H 0.17701 0.67143 0.18051
 H822 H 0.21319 0.63402 0.22690
 H823 H 0.28075 0.86955 0.26703
 H824 H 0.31263 0.83134 0.31312
 H825 H 0.17234 0.68572 0.32102
 H826 H 0.13192 0.72614 0.28360
 H827 H 0.36172 0.77583 0.21239
 H828 H 0.32197 0.81885 0.17255
 O829 O 0.75605 0.32465 0.33674
 O830 O 0.81788 0.33280 0.30511
 O831 O 0.67512 0.33440 0.24425
 O832 O 0.66579 0.30608 0.18605
 O833 O 0.66508 0.24152 0.32604
 O834 O 0.69777 0.18043 0.33444
 O835 O 0.77610 0.22782 0.14178
 O836 O 0.75365 0.29383 0.14054
 O837 O 0.86036 0.22494 0.23031
 O838 O 0.86203 0.24360 0.29766
 O839 O 0.77112 0.13883 0.22884
 O840 O 0.70262 0.13825 0.24511
 O841 O 0.74815 0.17283 0.16620
 O842 O 0.68280 0.16545 0.19781
 O843 O 0.82632 0.16415 0.25492
 O844 O 0.83318 0.19753 0.32047
 O845 O 0.83635 0.25244 0.17529
 O846 O 0.81144 0.31381 0.16895
 O847 O 0.72676 0.27013 0.36085
 O848 O 0.74768 0.20291 0.36157
 O849 O 0.64105 0.27128 0.27207
 O850 O 0.64244 0.24930 0.20382
 O851 O 0.72833 0.35869 0.27508
 O852 O 0.79770 0.36007 0.25559
 Zr853 Zr 0.76716 0.31134 0.27800
 O854 O 0.80456 0.27766 0.24306
 Zr855 Zr 0.68907 0.27564 0.23406
 O856 O 0.72322 0.24077 0.19685
 Zr857 Zr 0.72392 0.23199 0.31299
 O858 O 0.75898 0.19489 0.27930
 Zr859 Zr 0.77836 0.26595 0.18942
 O860 O 0.74248 0.30402 0.22242
 Zr861 Zr 0.81245 0.22241 0.26818
 O862 O 0.77894 0.25794 0.30583
 Zr863 Zr 0.73401 0.18707 0.22414
 O864 O 0.69627 0.22036 0.25971
 O865 O 0.71332 0.28602 0.28820
 O866 O 0.78861 0.21131 0.21370
 C867 C 0.73996 0.30505 0.36429
 C868 C 0.69395 0.36199 0.26105
 C869 C 0.63750 0.25726 0.30658
 C870 C 0.76397 0.19255 0.13859
 C871 C 0.86381 0.23684 0.19510
 C872 C 0.80616 0.13595 0.24096
 H873 H 0.82939 0.29176 0.23935
 H874 H 0.76212 0.16995 0.29331
 H875 H 0.69641 0.30241 0.30477
 H876 H 0.70999 0.23758 0.17160
 H877 H 0.74125 0.31805 0.15011
 H878 H 0.67959 0.29673 0.16260
 H879 H 0.81789 0.17366 0.32576
 H880 H 0.77371 0.21438 0.36589
 H881 H 0.80011 0.33736 0.18091
 H882 H 0.78251 0.37044 0.23353
 H883 H 0.71300 0.13174 0.27107
 H884 H 0.67915 0.17165 0.31438
 H885 H 0.82649 0.31234 0.32345
 H886 H 0.86735 0.27019 0.28786
 H887 H 0.63678 0.22428 0.21706
 H888 H 0.67718 0.18179 0.17483
 C889 C 0.22202 0.05427 0.13156
 C890 C 0.22716 0.03324 0.16574
 C891 C 0.23216 0.06015 0.19444
 C892 C 0.23148 0.09559 0.17588
 O893 O 0.22587 0.09220 0.13808
 H894 H 0.22901 0.00209 0.16982
 H895 H 0.23719 0.05456 0.22497
 C896 C 0.76641 0.63151 0.55365
 C897 C 0.80072 0.65173 0.54820
 C898 C 0.79898 0.68261 0.57304
 C899 C 0.76413 0.67874 0.59237
 O900 O 0.74453 0.64762 0.58099
 H901 H 0.82540 0.64326 0.53057
 H902 H 0.82213 0.70302 0.57938
 C903 C 0.77470 0.94120 0.12570
 C904 C 0.77151 0.96125 0.16074
 C905 C 0.76674 0.93357 0.18873
 C906 C 0.76569 0.89873 0.16906
 O907 O 0.77001 0.90318 0.13119
 H908 H 0.77093 0.99228 0.16601
 H909 H 0.76326 0.93830 0.21965
 C910 C 0.25971 0.36975 0.56063
 C911 C 0.25057 0.33482 0.54266
 C912 C 0.25299 0.30707 0.57091
 C913 C 0.26222 0.32708 0.60432
 O914 O 0.26631 0.36493 0.59827
 H915 H 0.24192 0.33016 0.51281
 H916 H 0.24665 0.27628 0.56800
 C917 C 0.75347 0.05914 0.87087
 C918 C 0.76567 0.03941 0.83768
 C919 C 0.76962 0.06703 0.80938
 C920 C 0.75985 0.10160 0.82712
 O921 O 0.75070 0.09699 0.86411
 H922 H 0.77291 0.00888 0.83458
 H923 H 0.77906 0.06258 0.77967
 C924 C 0.26603 0.63065 0.44096
 C925 C 0.28345 0.66250 0.45828
 C926 C 0.28163 0.69163 0.43143
 C927 C 0.26345 0.67523 0.39970
 O928 O 0.25419 0.63826 0.40529
 H929 H 0.29650 0.66400 0.48682
 H930 H 0.29312 0.72089 0.43421
 C931 C 0.24297 0.94503 0.87127
 C932 C 0.23086 0.96532 0.83849
 C933 C 0.22911 0.93859 0.80912
 C934 C 0.23997 0.90384 0.82578
 O935 O 0.24774 0.90758 0.86315
 H936 H 0.22222 0.99555 0.83630
 H937 H 0.22025 0.94367 0.77940
 C938 C 0.73157 0.36997 0.44261
 C939 C 0.71587 0.33771 0.46086
 C940 C 0.71789 0.30835 0.43421
 C941 C 0.73455 0.32494 0.40167
 O942 O 0.74272 0.36228 0.40660
 H943 H 0.70383 0.33609 0.48989
 H944 H 0.70768 0.27869 0.43773
 C945 C 0.12956 0.23912 0.05849
 C946 C 0.16470 0.24398 0.03910
 C947 C 0.19257 0.24395 0.06707
 C948 C 0.17272 0.24026 0.10161
 O949 O 0.13478 0.23751 0.09665
 H950 H 0.16980 0.24875 0.00844
 H951 H 0.22354 0.24762 0.06291
 C952 C 0.56342 0.75250 0.61932
 C953 C 0.55861 0.78808 0.63765
 C954 C 0.58697 0.79000 0.66492
 C955 C 0.60754 0.75597 0.66076
 O956 O 0.59393 0.73343 0.63282
 H957 H 0.53840 0.81105 0.63037
 H958 H 0.59363 0.81441 0.68371
 C959 C 0.13106 0.75773 0.93983
 C960 C 0.16395 0.76855 0.96041
 C961 C 0.19349 0.76984 0.93386
 C962 C 0.17663 0.75934 0.89918
 O963 O 0.13923 0.75185 0.90279
 H964 H 0.16587 0.77664 0.99070
 H965 H 0.22332 0.77839 0.93894
 C966 C 0.56010 0.26302 0.37246
 C967 C 0.54192 0.28116 0.34161
 C968 C 0.56799 0.28007 0.31169
 C969 C 0.60007 0.26134 0.32655
 O970 O 0.59531 0.25091 0.36322
 H971 H 0.51356 0.29467 0.34146
 H972 H 0.56462 0.29273 0.28308
 C973 C 0.87133 0.75440 0.05139
 C974 C 0.83833 0.76497 0.03091
 C975 C 0.80888 0.76561 0.05761
 C976 C 0.82589 0.75500 0.09220
 O977 O 0.86337 0.74813 0.08845
 H978 H 0.83624 0.77358 0.00073
 H979 H 0.77897 0.77385 0.05269
 C980 C 0.44428 0.26348 0.63321
 C981 C 0.46159 0.28401 0.66311
 C982 C 0.43550 0.28335 0.69299
 C983 C 0.40410 0.26273 0.67901
 O984 O 0.40944 0.25049 0.64300
 H985 H 0.48925 0.29905 0.66256
 H986 H 0.43820 0.29782 0.72081
 C987 C 0.87093 0.22896 0.94603
 C988 C 0.83661 0.23510 0.96664
 C989 C 0.80843 0.24067 0.93953
 C990 C 0.82742 0.23938 0.90440
 O991 O 0.86502 0.23292 0.90815
 H992 H 0.83211 0.23711 0.99764
 H993 H 0.77794 0.24628 0.94477
 C994 C 0.43887 0.75444 0.36834
 C995 C 0.44449 0.78935 0.34900
 C996 C 0.41801 0.78968 0.31982
 C997 C 0.39766 0.75541 0.32387
 O998 O 0.40962 0.73433 0.35362
 H999 H 0.46392 0.81292 0.35674
 H1000 H 0.41189 0.81353 0.30018
 C1001 C 0.05427 0.12793 0.25121
 C1002 C 0.03449 0.16148 0.24025
 C1003 C 0.06182 0.19026 0.23767
 C1004 C 0.09633 0.17244 0.24685
 O1005 O 0.09193 0.13497 0.25443
 H1006 H 0.00419 0.16457 0.23279
 H1007 H 0.05725 0.22031 0.22925
 C1008 C 0.63163 0.56182 0.72466
 C1009 C 0.66440 0.54259 0.71165
 C1010 C 0.69353 0.56956 0.71249
 C1011 C 0.67633 0.60325 0.72588
 O1012 O 0.63890 0.59869 0.73323
 H1013 H 0.66662 0.51258 0.70244
 H1014 H 0.72353 0.56535 0.70408
 C1015 C 0.94548 0.13358 0.76813
 C1016 C 0.96441 0.16682 0.78059
 C1017 C 0.93741 0.19581 0.77895
 C1018 C 0.90403 0.17813 0.76550
 O1019 O 0.90883 0.14047 0.75899
 H1020 H 0.99402 0.16936 0.79074
 H1021 H 0.94129 0.22595 0.78746
 C1022 C 0.36783 0.55640 0.25857
 C1023 C 0.33423 0.53766 0.24674
 C1024 C 0.30583 0.56527 0.24770
 C1025 C 0.32429 0.59909 0.25876
 O1026 O 0.36170 0.59391 0.26538
 H1027 H 0.33094 0.50777 0.23723
 H1028 H 0.27581 0.56175 0.23914
 C1029 C 0.05763 0.87252 0.76305
 C1030 C 0.03790 0.83878 0.77352
 C1031 C 0.06475 0.80954 0.77189
 C1032 C 0.09872 0.82734 0.76021
 O1033 O 0.09441 0.86514 0.75467
 H1034 H 0.00818 0.83602 0.78348
 H1035 H 0.06039 0.77921 0.77949
 C1036 C 0.62878 0.44007 0.26842
 C1037 C 0.66011 0.45803 0.28593
 C1038 C 0.68944 0.43147 0.28455
 C1039 C 0.67377 0.39924 0.26641
 O1040 O 0.63697 0.40426 0.25682
 H1041 H 0.66113 0.48687 0.29861
 H1042 H 0.71843 0.43483 0.29616
 C1043 C 0.94332 0.86682 0.22439
 C1044 C 0.96422 0.83221 0.22554
 C1045 C 0.93734 0.80308 0.22847
 C1046 C 0.90215 0.82179 0.23058
 O1047 O 0.90566 0.86007 0.22863
 H1048 H 0.99529 0.82802 0.22568
 H1049 H 0.94281 0.77207 0.23018
 C1050 C 0.37546 0.44407 0.75668
 C1051 C 0.35941 0.44813 0.79333
 C1052 C 0.33030 0.42138 0.79533
 C1053 C 0.33095 0.40253 0.76007
 O1054 O 0.35864 0.41568 0.73681
 H1055 H 0.36964 0.46633 0.81688
 H1056 H 0.31307 0.41398 0.82066
 C1057 C 0.05877 0.23238 0.87306
 C1058 C 0.03960 0.24165 0.83875
 C1059 C 0.06772 0.24632 0.81126
 C1060 C 0.10214 0.24141 0.83066
 O1061 O 0.09700 0.23365 0.86793
 H1062 H 0.00901 0.24649 0.83393
 H1063 H 0.06369 0.25389 0.78100
 C1064 C 0.63070 0.73424 0.43617
 C1065 C 0.66444 0.74280 0.45626
 C1066 C 0.69347 0.74235 0.42920
 C1067 C 0.67524 0.73464 0.39450
 O1068 O 0.63752 0.72944 0.39862
 H1069 H 0.66746 0.75031 0.48664
 H1070 H 0.72380 0.74923 0.43376
 C1071 C 0.93951 0.77405 0.87229
 C1072 C 0.94885 0.80541 0.84852
 C1073 C 0.92086 0.80671 0.82088
 C1074 C 0.89554 0.77710 0.83033
 O1075 O 0.90616 0.75788 0.86174
 H1076 H 0.97163 0.82684 0.85217
 H1077 H 0.91825 0.82781 0.79762
 C1078 C 0.37469 0.26747 0.43994
 C1079 C 0.35161 0.29943 0.44778
 C1080 C 0.32215 0.29793 0.42171
 C1081 C 0.33040 0.26657 0.39830
 O1082 O 0.36225 0.24805 0.40906
 H1083 H 0.35665 0.32209 0.46901
 H1084 H 0.29856 0.31837 0.41848
 C1085 C 0.06196 0.76792 0.12191
 C1086 C 0.05673 0.80286 0.14098
 C1087 C 0.08244 0.80277 0.17079
 C1088 C 0.10281 0.76856 0.16665
 O1089 O 0.09084 0.74748 0.13684
 H1090 H 0.03777 0.82637 0.13250
 H1091 H 0.08785 0.82599 0.19133
 C1092 C 0.62978 0.27873 0.56484
 C1093 C 0.65084 0.31252 0.55830
 C1094 C 0.68033 0.31207 0.58460
 C1095 C 0.67447 0.27873 0.60616
 O1096 O 0.64391 0.25863 0.59441
 H1097 H 0.64444 0.33569 0.53797
 H1098 H 0.70185 0.33464 0.58927
 C1099 C 0.94352 0.22845 0.13168
 C1100 C 0.96164 0.21457 0.16462
 C1101 C 0.93434 0.21662 0.19338
 C1102 C 0.90161 0.23158 0.17582
 O1103 O 0.90710 0.23874 0.13848
 H1104 H 0.99083 0.20320 0.16702
 H1105 H 0.93758 0.20745 0.22330
 C1106 C 0.36922 0.73943 0.55362
 C1107 C 0.33562 0.74904 0.53378
 C1108 C 0.30666 0.74907 0.56096
 C1109 C 0.32475 0.74065 0.59554
 O1110 O 0.36235 0.73458 0.59120
 H1111 H 0.33261 0.75690 0.50350
 H1112 H 0.27652 0.75674 0.55655
 C1113 C 0.23536 0.13217 0.94742
 C1114 C 0.24609 0.16532 0.96779
 C1115 C 0.24675 0.19475 0.94119
 C1116 C 0.23768 0.17726 0.90641
 O1117 O 0.23074 0.13956 0.90999
 H1118 H 0.25399 0.16765 0.99811
 H1119 H 0.25521 0.22477 0.94606
 C1120 C 0.73528 0.55609 0.36626
 C1121 C 0.74134 0.53523 0.33227
 C1122 C 0.74004 0.56190 0.30292
 C1123 C 0.73446 0.59720 0.32107
 O1124 O 0.73137 0.59381 0.35920
 H1125 H 0.74782 0.50453 0.32917
 H1126 H 0.74520 0.55663 0.27232
 C1127 C 0.76883 0.12979 0.05804
 C1128 C 0.78450 0.16240 0.04036
 C1129 C 0.78442 0.19069 0.06816
 C1130 C 0.76880 0.17323 0.10078
 O1131 O 0.75947 0.13631 0.09480
 H1132 H 0.79526 0.16497 0.01090
 H1133 H 0.79497 0.22030 0.06519
 C1134 C 0.25153 0.55949 0.62835
 C1135 C 0.26960 0.54105 0.65922
 C1136 C 0.27425 0.56894 0.68708
 C1137 C 0.25922 0.60243 0.67104
 O1138 O 0.24572 0.59682 0.63572
 H1139 H 0.28002 0.51134 0.66063
 H1140 H 0.28795 0.56555 0.71515
 C1141 C 0.75600 0.87019 0.93834
 C1142 C 0.74415 0.83625 0.95668
 C1143 C 0.74438 0.80824 0.92861
 C1144 C 0.75512 0.82732 0.89504
 O1145 O 0.76216 0.86472 0.90072
 H1146 H 0.73539 0.83248 0.98668
 H1147 H 0.73605 0.77796 0.93181
 C1148 C 0.27415 0.44041 0.37038
 C1149 C 0.27024 0.46011 0.33534
 C1150 C 0.26670 0.43216 0.30751
 C1151 C 0.26688 0.39737 0.32730
 O1152 O 0.27088 0.40216 0.36521
 H1153 H 0.26816 0.49106 0.33007
 H1154 H 0.26270 0.43665 0.27664
 C1155 C 0.22704 0.86850 0.05681
 C1156 C 0.20926 0.83679 0.03973
 C1157 C 0.21126 0.80763 0.06659
 C1158 C 0.22986 0.82395 0.09813
 O1159 O 0.23924 0.86085 0.09235
 H1160 H 0.19559 0.83565 0.01151
 H1161 H 0.19955 0.77843 0.06399
 C1162 C 0.73593 0.44305 0.62853
 C1163 C 0.70549 0.45384 0.65244
 C1164 C 0.70551 0.42792 0.68243
 C1165 C 0.73532 0.40248 0.67406
 O1166 O 0.75360 0.41143 0.64142
 H1167 H 0.68457 0.47674 0.64736
 H1168 H 0.68472 0.42619 0.70606
 C1169 C 0.12763 0.06391 0.77809
 C1170 C 0.15252 0.05433 0.80827
 C1171 C 0.18083 0.08193 0.80811
 C1172 C 0.17070 0.10730 0.77893
 O1173 O 0.13828 0.09705 0.76130
 H1174 H 0.14920 0.03178 0.83001
 H1175 H 0.20478 0.08447 0.82827
 C1176 C 0.55707 0.62815 0.25213
 C1177 C 0.53907 0.65941 0.27025
 C1178 C 0.56648 0.68815 0.27239
 C1179 C 0.59935 0.67228 0.25592
 O1180 O 0.59374 0.63619 0.24392
 H1181 H 0.51001 0.66058 0.28226
 H1182 H 0.56328 0.71663 0.28558
 C1183 C 0.12802 0.94284 0.23264
 C1184 C 0.16209 0.96212 0.22290
 C1185 C 0.19014 0.93414 0.22201
 C1186 C 0.17137 0.89989 0.23147
 O1187 O 0.13381 0.90495 0.23754
 H1188 H 0.16590 0.99258 0.21562
 H1189 H 0.22060 0.93819 0.21522
 C1190 C 0.56024 0.37329 0.74184
 C1191 C 0.54127 0.33929 0.75265
 C1192 C 0.56883 0.31084 0.75224
 C1193 C 0.60285 0.32959 0.74252
 O1194 O 0.59787 0.36727 0.73628
 H1195 H 0.51127 0.33565 0.76135
 H1196 H 0.56507 0.28055 0.76026
 C1197 C 0.86765 0.05492 0.24073
 C1198 C 0.83360 0.03578 0.25075
 C1199 C 0.80526 0.06340 0.24952
 C1200 C 0.82423 0.09748 0.24012
 O1201 O 0.86184 0.09255 0.23481
 H1202 H 0.82995 0.00565 0.25935
 H1203 H 0.77489 0.05969 0.25691
 C1204 C 0.44401 0.63567 0.73041
 C1205 C 0.46356 0.67031 0.73722
 C1206 C 0.43588 0.69869 0.73691
 C1207 C 0.40134 0.67933 0.73107
 O1208 O 0.40613 0.64136 0.72694
 H1209 H 0.49405 0.67442 0.74353
 H1210 H 0.44004 0.72945 0.74263
 C1211 C 0.87132 0.94667 0.76482
 C1212 C 0.83751 0.96699 0.75691
 C1213 C 0.80883 0.93962 0.75536
 C1214 C 0.82732 0.90460 0.76124
 O1215 O 0.86495 0.90870 0.76706
 H1216 H 0.83414 0.99782 0.75123
 H1217 H 0.77853 0.94435 0.74858
 C1218 C 0.44059 0.36662 0.27478
 C1219 C 0.46126 0.33213 0.27033
 C1220 C 0.43426 0.30332 0.26658
 C1221 C 0.39907 0.32209 0.26721
 O1222 O 0.40273 0.36020 0.27161
 H1223 H 0.49226 0.32792 0.26814
 H1224 H 0.43963 0.27254 0.26221
   
