data_POSCAR
  _audit_creation_date              2014-09-24
  _audit_creation_method            'ToBaCCo'
  _symmetry_space_group_name_H-M    'P1'
  _symmetry_Int_Tables_number       1
  _symmetry_cell_setting            triclinic
  loop_
  _symmetry_equiv_pos_as_xyz
 x,y,z
_cell_length_a 73.9989
_cell_length_b 74.0551
_cell_length_c 77.3961
_cell_angle_alpha 91.666000
_cell_angle_beta 90.931100
_cell_angle_gamma 88.752700
loop_
  _atom_site_label
  _atom_site_type_symbol
  _atom_site_fract_x
  _atom_site_fract_y
  _atom_site_fract_z
C1 C 0.40578 0.01201 0.27754
 H2 H 0.39659 0.02347 0.27647
 C3 C 0.41729 0.01079 0.29199
 H4 H 0.41675 0.02137 0.30193
 C5 C 0.41697 -0.01611 0.26638
 H6 H 0.41663 -0.02662 0.25638
 C7 C 0.42866 -0.01789 0.28062
 H8 H 0.43746 -0.02973 0.28135
 N9 N 0.40588 -0.00131 0.26506
 C10 C 0.39272 0.00307 0.21022
 H11 H 0.37812 0.00371 0.21087
 C12 C 0.40115 0.00445 0.19433
 H13 H 0.39287 0.00627 0.18282
 C14 C 0.42110 0.00048 0.22462
 H15 H 0.42884 -0.00089 0.23648
 C16 C 0.43012 0.00176 0.20896
 H17 H 0.44474 0.00096 0.20892
 Zn18 Zn 0.38971 -0.00058 0.24579
 N19 N 0.40271 0.00088 0.22493
 C20 C 0.38219 0.03658 0.24566
 N21 N 0.37427 0.02030 0.24712
 C22 C 0.35601 0.01909 0.24827
 C23 C 0.34499 0.03471 0.24812
 C24 C 0.37170 0.05250 0.24539
 C25 C 0.37740 -0.03420 0.23203
 C26 C 0.36851 -0.05064 0.23219
 C27 C 0.35745 -0.04247 0.26054
 C28 C 0.36660 -0.02617 0.25977
 N29 N 0.37625 -0.02227 0.24563
 H30 H 0.39672 0.03716 0.24453
 H31 H 0.34990 0.00603 0.24901
 H32 H 0.33048 0.03345 0.24881
 H33 H 0.37833 0.06530 0.24437
 H34 H 0.38567 -0.03124 0.22114
 H35 H 0.37090 -0.05976 0.22130
 H36 H 0.34944 -0.04426 0.27186
 H37 H 0.36604 -0.01655 0.27056
 C38 C 0.42011 0.00361 0.19349
 C39 C 0.42888 -0.00436 0.29372
 C40 C 0.35812 -0.05536 0.24659
 C41 C 0.35281 0.05171 0.24657
 C42 C 0.07967 0.00836 0.71992
 H43 H 0.07740 0.01983 0.72865
 C44 C 0.06969 0.00687 0.70442
 H45 H 0.05986 0.01734 0.70125
 C46 C 0.09563 -0.01893 0.71318
 H47 H 0.10591 -0.02887 0.71639
 C48 C 0.08603 -0.02093 0.69763
 H49 H 0.08884 -0.03265 0.68933
 N50 N 0.09221 -0.00458 0.72410
 C51 C 0.09875 -0.00209 0.78042
 H52 H 0.11336 -0.00262 0.78129
 C53 C 0.08863 -0.00026 0.79544
 H54 H 0.09554 0.00045 0.80787
 C55 C 0.07205 -0.00217 0.76310
 H56 H 0.06564 -0.00287 0.75047
 C57 C 0.06136 -0.00057 0.77785
 H58 H 0.04678 0.00015 0.77645
 Zn59 Zn 0.10578 -0.00254 0.74520
 N60 N 0.09041 -0.00240 0.76463
 C61 C 0.11631 0.03199 0.75832
 N62 N 0.11889 0.01941 0.74536
 C63 C 0.13060 0.02235 0.73241
 C64 C 0.14079 0.03807 0.73257
 C65 C 0.12625 0.04781 0.75903
 C66 C 0.11388 -0.03926 0.74860
 C67 C 0.12436 -0.05517 0.74824
 C68 C 0.15099 -0.03731 0.74532
 C69 C 0.13998 -0.02170 0.74571
 N70 N 0.12172 -0.02298 0.74687
 H71 H 0.10660 0.02983 0.76824
 H72 H 0.13214 0.01238 0.72202
 H73 H 0.15001 0.04011 0.72213
 H74 H 0.12431 0.05728 0.76978
 H75 H 0.09936 -0.03989 0.74971
 H76 H 0.11778 -0.06799 0.74938
 H77 H 0.16542 -0.03606 0.74375
 H78 H 0.14603 -0.00866 0.74465
 C79 C 0.06970 0.00086 0.79424
 C80 C 0.07286 -0.00795 0.69301
 C81 C 0.14315 -0.05437 0.74624
 C82 C 0.13883 0.05100 0.74614
 C83 C 0.57197 0.49718 0.23647
 H84 H 0.56606 0.49894 0.24909
 C85 C 0.56073 0.49445 0.22195
 H86 H 0.54623 0.49427 0.22355
 C87 C 0.59800 0.49441 0.21908
 H88 H 0.61257 0.49421 0.21813
 C89 C 0.58730 0.49145 0.20429
 H90 H 0.59374 0.48931 0.19191
 N91 N 0.59026 0.49719 0.23477
 C92 C 0.59670 0.48826 0.28774
 H93 H 0.60593 0.47700 0.28535
 C94 C 0.58904 0.49073 0.30405
 H95 H 0.59222 0.48110 0.31398
 C96 C 0.58209 0.51501 0.27811
 H97 H 0.57992 0.52472 0.26806
 C98 C 0.57400 0.51789 0.29418
 H99 H 0.56559 0.52985 0.29642
 Zn100 Zn 0.60618 0.49907 0.25420
 N101 N 0.59328 0.50044 0.27522
 C102 C 0.63075 0.52387 0.26775
 N103 N 0.61997 0.52035 0.25370
 C104 C 0.61850 0.53212 0.24055
 C105 C 0.62825 0.54812 0.24120
 C106 C 0.64066 0.53970 0.26895
 C107 C 0.61377 0.46183 0.25258
 C108 C 0.62430 0.44603 0.25063
 C109 C 0.65094 0.46426 0.25015
 C110 C 0.63989 0.47973 0.25206
 N111 N 0.62166 0.47825 0.25328
 H112 H 0.63152 0.51438 0.27811
 H113 H 0.60958 0.52926 0.22967
 H114 H 0.62670 0.55746 0.23075
 H115 H 0.64925 0.54214 0.28020
 H116 H 0.59923 0.46104 0.25335
 H117 H 0.61774 0.43309 0.25021
 H118 H 0.66538 0.46574 0.24889
 H119 H 0.64589 0.49290 0.25220
 C120 C 0.57775 0.50586 0.30751
 C121 C 0.56840 0.49137 0.20561
 C122 C 0.64316 0.44711 0.24928
 C123 C 0.63944 0.55213 0.25560
 C124 C 0.90814 0.51350 0.78183
 H125 H 0.90104 0.52587 0.77854
 C126 C 0.91865 0.51291 0.79700
 H127 H 0.91873 0.52488 0.80533
 C128 C 0.91569 0.48297 0.77500
 H129 H 0.91463 0.47142 0.76619
 C130 C 0.92625 0.48170 0.79004
 H131 H 0.93350 0.46910 0.79209
 N132 N 0.90685 0.49865 0.77122
 C133 C 0.90246 0.49677 0.71504
 H134 H 0.88808 0.49533 0.71291
 C135 C 0.91392 0.49752 0.70092
 H136 H 0.90825 0.49653 0.68795
 C137 C 0.92720 0.50068 0.73451
 H138 H 0.93232 0.50219 0.74762
 C139 C 0.93911 0.50173 0.72075
 H140 H 0.95335 0.50371 0.72341
 Zn141 Zn 0.89302 0.49883 0.75042
 N142 N 0.90922 0.49828 0.73147
 C143 C 0.88154 0.53238 0.73662
 N144 N 0.87848 0.52062 0.74942
 C145 C 0.86592 0.52466 0.76169
 C146 C 0.85584 0.54087 0.76127
 C147 C 0.87175 0.54868 0.73569
 C148 C 0.88102 0.46446 0.73744
 C149 C 0.87124 0.44851 0.73757
 C150 C 0.85674 0.45942 0.76363
 C151 C 0.86681 0.47518 0.76301
 N152 N 0.87852 0.47759 0.74992
 H153 H 0.89188 0.52942 0.72723
 H154 H 0.86394 0.51554 0.77207
 H155 H 0.84589 0.54373 0.77113
 H156 H 0.87473 0.55790 0.72556
 H157 H 0.89093 0.46603 0.72757
 H158 H 0.87372 0.43821 0.72763
 H159 H 0.84736 0.45798 0.77406
 H160 H 0.86553 0.48528 0.77326
 C161 C 0.93248 0.50017 0.70370
 C162 C 0.92795 0.49678 0.80153
 C163 C 0.85884 0.44579 0.75076
 C164 C 0.85871 0.55318 0.74814
 C165 C 0.21946 0.37784 0.98698
 H166 H 0.22912 0.37647 0.97666
 C167 C 0.20375 0.38841 0.98476
 H168 H 0.20156 0.39535 0.97276
 C169 C 0.21061 0.37030 1.01510
 H170 H 0.21316 0.36295 1.02678
 C171 C 0.19478 0.38084 1.01348
 H172 H 0.18529 0.38149 1.02399
 N173 N 0.22261 0.36906 1.00197
 C174 C 0.28086 0.35872 1.00624
 H175 H 0.28101 0.34416 1.00704
 C176 C 0.29696 0.36811 1.00832
 H177 H 0.30949 0.36059 1.01035
 C178 C 0.26422 0.38611 1.00286
 H179 H 0.25138 0.39310 1.00117
 C180 C 0.28003 0.39605 1.00485
 H181 H 0.27915 0.41065 1.00460
 Zn182 Zn 0.24362 0.35389 1.00325
 N183 N 0.26492 0.36777 1.00360
 C184 C 0.25684 0.33691 0.97231
 N185 N 0.24300 0.33784 0.98368
 C186 C 0.22783 0.32804 0.98089
 C187 C 0.22617 0.31671 0.96621
 C188 C 0.25579 0.32568 0.95753
 C189 C 0.24734 0.35050 1.03892
 C190 C 0.25048 0.34174 1.05445
 C191 C 0.24704 0.31311 1.03912
 C192 C 0.24411 0.32243 1.02382
 N193 N 0.24440 0.34081 1.02399
 H194 H 0.26860 0.34510 0.97452
 H195 H 0.21693 0.32919 0.99003
 H196 H 0.21401 0.30900 0.96424
 H197 H 0.26681 0.32538 0.94849
 H198 H 0.24778 0.36509 1.03865
 H199 H 0.25298 0.34970 1.06616
 H200 H 0.24722 0.29848 1.03870
 H201 H 0.24219 0.31494 1.01178
 C202 C 0.29668 0.38705 1.00780
 C203 C 0.19113 0.39000 0.99810
 C204 C 0.25060 0.32278 1.05464
 C205 C 0.24026 0.31545 0.95427
 C206 C 0.77282 0.11957 0.98154
 H207 H 0.76300 0.11914 0.97103
 C208 C 0.78861 0.10888 0.98054
 H209 H 0.79009 0.09989 0.96938
 C210 C 0.78191 0.13161 1.00884
 H211 H 0.77955 0.14092 1.01961
 C212 C 0.79786 0.12116 1.00843
 H213 H 0.80741 0.12312 1.01899
 N214 N 0.76974 0.13061 0.99554
 C215 C 0.71157 0.14238 0.99390
 H216 H 0.71190 0.15697 0.99369
 C217 C 0.69501 0.13375 0.99437
 H218 H 0.68263 0.14182 0.99446
 C219 C 0.72743 0.11427 0.99479
 H220 H 0.74011 0.10677 0.99529
 C221 C 0.71112 0.10508 0.99544
 H222 H 0.71139 0.09048 0.99604
 Zn223 Zn 0.74891 0.14604 0.99522
 N224 N 0.72734 0.13261 0.99398
 C225 C 0.73881 0.15924 0.96228
 N226 N 0.75083 0.16075 0.97570
 C227 C 0.76536 0.17163 0.97486
 C228 C 0.76822 0.18156 0.96009
 C229 C 0.74123 0.16881 0.94724
 C230 C 0.74484 0.15069 1.03049
 C231 C 0.74192 0.15968 1.04629
 C232 C 0.74450 0.18812 1.03209
 C233 C 0.74731 0.17853 1.01646
 N234 N 0.74742 0.16014 1.01598
 H235 H 0.72760 0.15020 0.96299
 H236 H 0.77495 0.17228 0.98555
 H237 H 0.78006 0.18985 0.95951
 H238 H 0.73159 0.16732 0.93665
 H239 H 0.74476 0.13608 1.02969
 H240 H 0.73994 0.15185 1.05768
 H241 H 0.74412 0.20274 1.03225
 H242 H 0.74894 0.18581 1.00471
 C243 C 0.69463 0.11486 0.99523
 C244 C 0.80165 0.10948 0.99409
 C245 C 0.74151 0.17865 1.04722
 C246 C 0.75619 0.18002 0.94594
 C247 C 0.27850 0.62029 0.48799
 H248 H 0.26835 0.61862 0.47789
 C249 C 0.29475 0.61033 0.48714
 H250 H 0.29697 0.60099 0.47632
 C251 C 0.28826 0.63526 0.51384
 H252 H 0.28584 0.64527 0.52402
 C253 C 0.30476 0.62568 0.51342
 H254 H 0.31474 0.62817 0.52354
 N255 N 0.27557 0.63250 0.50117
 C256 C 0.21709 0.64275 0.50008
 H257 H 0.21706 0.65728 0.49898
 C258 C 0.20076 0.63384 0.50139
 H259 H 0.18822 0.64164 0.50125
 C260 C 0.23360 0.61513 0.50228
 H261 H 0.24645 0.60794 0.50293
 C262 C 0.21753 0.60566 0.50375
 H263 H 0.21817 0.59115 0.50512
 Zn264 Zn 0.25434 0.64732 0.50009
 N265 N 0.23307 0.63335 0.50039
 C266 C 0.24320 0.65717 0.46631
 N267 N 0.25551 0.66019 0.47925
 C268 C 0.26991 0.67095 0.47695
 C269 C 0.27243 0.67905 0.46107
 C270 C 0.24528 0.66487 0.45022
 C271 C 0.25008 0.65502 0.53493
 C272 C 0.24703 0.66534 0.54998
 C273 C 0.25050 0.69236 0.53371
 C274 C 0.25324 0.68148 0.51883
 N275 N 0.25297 0.66315 0.51973
 H276 H 0.23209 0.64825 0.46819
 H277 H 0.27975 0.67279 0.48730
 H278 H 0.28424 0.68714 0.45931
 H279 H 0.23549 0.66206 0.43999
 H280 H 0.24974 0.64043 0.53523
 H281 H 0.24460 0.65860 0.56193
 H282 H 0.25048 0.70693 0.53281
 H283 H 0.25517 0.68771 0.50656
 C284 C 0.20081 0.61503 0.50328
 C285 C 0.30825 0.61314 0.49984
 C286 C 0.24705 0.68426 0.54947
 C287 C 0.26019 0.67575 0.44735
 C288 C 0.72547 0.87915 0.47763
 H289 H 0.73499 0.87695 0.46728
 C290 C 0.71003 0.89003 0.47504
 H291 H 0.70789 0.89637 0.46272
 C292 C 0.71666 0.87340 0.50620
 H293 H 0.71906 0.86659 0.51820
 C294 C 0.70114 0.88430 0.50422
 H295 H 0.69178 0.88580 0.51480
 N296 N 0.72852 0.87113 0.49303
 C297 C 0.78652 0.85925 0.49665
 H298 H 0.78617 0.84478 0.49814
 C299 C 0.80297 0.86809 0.49800
 H300 H 0.81526 0.86023 0.50014
 C301 C 0.77076 0.88698 0.49235
 H302 H 0.75812 0.89433 0.49062
 C303 C 0.78695 0.89640 0.49363
 H304 H 0.78657 0.91097 0.49279
 Zn305 Zn 0.74919 0.85556 0.49498
 N306 N 0.77084 0.86873 0.49392
 C307 C 0.76114 0.83622 0.46484
 N308 N 0.74778 0.83803 0.47666
 C309 C 0.73253 0.82814 0.47513
 C310 C 0.73023 0.81588 0.46123
 C311 C 0.75946 0.82402 0.45082
 C312 C 0.75266 0.85547 0.53077
 C313 C 0.75604 0.84833 0.54700
 C314 C 0.75420 0.81832 0.53410
 C315 C 0.75079 0.82607 0.51805
 N316 N 0.75022 0.84435 0.51668
 H317 H 0.77297 0.84448 0.46602
 H318 H 0.72202 0.83000 0.48461
 H319 H 0.71797 0.80817 0.46020
 H320 H 0.77007 0.82306 0.44135
 H321 H 0.75247 0.86995 0.52927
 H322 H 0.75797 0.85748 0.55801
 H323 H 0.75519 0.80376 0.53485
 H324 H 0.74931 0.81746 0.50662
 C325 C 0.80334 0.88696 0.49671
 C326 C 0.69762 0.89274 0.48845
 C327 C 0.75720 0.82951 0.54880
 C328 C 0.74378 0.81375 0.44880
 C329 C 0.02078 0.26851 0.39882
 H330 H 0.03312 0.26077 0.39649
 C331 C 0.02132 0.28463 0.40847
 H332 H 0.03418 0.28932 0.41350
 C333 C -0.01084 0.27217 0.39418
 H334 H -0.02324 0.26739 0.38829
 C335 C -0.01092 0.28844 0.40374
 H336 H -0.02351 0.29597 0.40540
 N337 N 0.00489 0.26262 0.39196
 C338 C 0.01514 0.20543 0.38260
 H339 H 0.01224 0.20430 0.36887
 C340 C 0.02003 0.19010 0.39173
 H341 H 0.02031 0.17727 0.38470
 C342 C 0.01669 0.22365 0.40819
 H343 H 0.01520 0.23673 0.41459
 C344 C 0.02145 0.20867 0.41789
 H345 H 0.02420 0.21088 0.43154
 Zn346 Zn 0.00637 0.24170 0.37780
 N347 N 0.01373 0.22179 0.39088
 C348 C 0.03835 0.23572 0.35863
 N349 N 0.02337 0.24642 0.36082
 C350 C 0.02074 0.26177 0.35180
 C351 C 0.03348 0.26688 0.33991
 C352 C 0.05137 0.24025 0.34680
 C353 C -0.02975 0.23176 0.37805
 C354 C -0.04672 0.22770 0.37107
 C355 C -0.03527 0.23303 0.34262
 C356 C -0.01852 0.23690 0.35013
 N357 N -0.01617 0.23648 0.36757
 H358 H 0.04048 0.22391 0.36631
 H359 H 0.00883 0.27018 0.35407
 H360 H 0.03126 0.27916 0.33285
 H361 H 0.06342 0.23180 0.34547
 H362 H -0.02735 0.23123 0.39185
 H363 H -0.05738 0.22395 0.37959
 H364 H -0.03701 0.23397 0.32876
 H365 H -0.00745 0.24031 0.34201
 C366 C 0.02315 0.19142 0.40978
 C367 C 0.00535 0.29487 0.41092
 C368 C -0.04968 0.22845 0.35313
 C369 C 0.04905 0.25606 0.33736
 C370 C 0.00992 0.73148 0.11151
 H371 H 0.02174 0.73979 0.11118
 C372 C 0.00991 0.71467 0.10298
 H373 H 0.02175 0.71020 0.09587
 C374 C -0.02008 0.72759 0.12084
 H375 H -0.03165 0.73261 0.12798
 C376 C -0.02066 0.71064 0.11253
 H377 H -0.03273 0.70273 0.11335
 N378 N -0.00506 0.73773 0.11988
 C379 C -0.00021 0.79572 0.11859
 H380 H -0.00133 0.79920 0.13221
 C381 C 0.00248 0.80917 0.10677
 H382 H 0.00332 0.82310 0.11132
 C383 C -0.00026 0.77330 0.09607
 H384 H -0.00154 0.75933 0.09194
 C385 C 0.00225 0.78636 0.08376
 H386 H 0.00319 0.78233 0.07023
 Zn387 Zn -0.00383 0.76093 0.13018
 N388 N -0.00105 0.77816 0.11313
 C389 C 0.03000 0.77234 0.14342
 N390 N 0.01618 0.76084 0.14548
 C391 C 0.01679 0.74828 0.15796
 C392 C 0.03168 0.74710 0.16918
 C393 C 0.04506 0.77172 0.15442
 C394 C -0.04059 0.76860 0.13234
 C395 C -0.05699 0.77283 0.14022
 C396 C -0.04119 0.77458 0.16775
 C397 C -0.02512 0.77034 0.15926
 N398 N -0.02519 0.76702 0.14194
 H399 H 0.02960 0.78178 0.13307
 H400 H 0.00572 0.73909 0.15908
 H401 H 0.03200 0.73707 0.17909
 H402 H 0.05608 0.78078 0.15243
 H403 H -0.04015 0.76613 0.11850
 H404 H -0.06886 0.77267 0.13192
 H405 H -0.04013 0.77770 0.18144
 H406 H -0.01257 0.76982 0.16656
 C407 C 0.00394 0.80448 0.08915
 C408 C -0.00559 0.70411 0.10328
 C409 C -0.05782 0.77558 0.15840
 C410 C 0.04603 0.75896 0.16745
 C411 C 0.49200 0.23221 0.59361
 H412 H 0.49696 0.24306 0.58618
 C413 C 0.48861 0.21570 0.58529
 H414 H 0.49121 0.21406 0.57159
 C415 C 0.48172 0.22124 0.62009
 H416 H 0.47856 0.22369 0.63355
 C417 C 0.47806 0.20449 0.61225
 H418 H 0.47267 0.19389 0.61988
 N419 N 0.48899 0.23455 0.61083
 C420 C 0.48676 0.28846 0.60323
 H421 H 0.47513 0.29024 0.61140
 C422 C 0.48952 0.30066 0.59024
 H423 H 0.48004 0.31186 0.58866
 C424 C 0.51356 0.27217 0.59569
 H425 H 0.52281 0.26093 0.59789
 C426 C 0.51685 0.28408 0.58253
 H427 H 0.52866 0.28192 0.57458
 Zn428 Zn 0.49373 0.25697 0.62212
 N429 N 0.49852 0.27434 0.60549
 C430 C 0.52689 0.26730 0.63726
 N431 N 0.51380 0.25470 0.63741
 C432 C 0.51505 0.24052 0.64818
 C433 C 0.53024 0.23820 0.65885
 C434 C 0.54230 0.26551 0.64770
 C435 C 0.45693 0.26309 0.62578
 C436 C 0.44088 0.26696 0.63439
 C437 C 0.45826 0.27235 0.66072
 C438 C 0.47402 0.26847 0.65155
 N439 N 0.47301 0.26382 0.63445
 H440 H 0.52547 0.27873 0.62896
 H441 H 0.50437 0.23086 0.64843
 H442 H 0.53107 0.22676 0.66725
 H443 H 0.55281 0.27539 0.64697
 H444 H 0.45660 0.25916 0.61220
 H445 H 0.42814 0.26579 0.62740
 H446 H 0.45918 0.27582 0.67439
 H447 H 0.48701 0.26892 0.65812
 C448 C 0.50460 0.29840 0.57956
 C449 C 0.48181 0.20153 0.59468
 C450 C 0.44143 0.27143 0.65212
 C451 C 0.54421 0.25068 0.65852
 C452 C 0.52251 0.76751 0.89663
 H453 H 0.53501 0.75987 0.89488
 C454 C 0.52239 0.78350 0.90656
 H455 H 0.53490 0.78819 0.91238
 C456 C 0.49118 0.77110 0.89031
 H457 H 0.47915 0.76637 0.88369
 C458 C 0.49044 0.78717 0.90011
 H459 H 0.47772 0.79458 0.90119
 N460 N 0.50707 0.76168 0.88877
 C461 C 0.51514 0.70432 0.87878
 H462 H 0.51298 0.70362 0.86492
 C463 C 0.51760 0.68851 0.88793
 H464 H 0.51722 0.67559 0.88103
 C465 C 0.51701 0.72208 0.90473
 H466 H 0.51631 0.73515 0.91127
 C467 C 0.51947 0.70662 0.91439
 H468 H 0.52096 0.70794 0.92831
 Zn469 Zn 0.50901 0.74102 0.87430
 N470 N 0.51481 0.72064 0.88728
 C471 C 0.54179 0.73410 0.85695
 N472 N 0.52714 0.74539 0.85841
 C473 C 0.52574 0.76090 0.84947
 C474 C 0.53943 0.76556 0.83838
 C475 C 0.55574 0.73818 0.84597
 C476 C 0.47313 0.73112 0.87278
 C477 C 0.45634 0.72741 0.86525
 C478 C 0.46833 0.73468 0.83748
 C479 C 0.48493 0.73812 0.84554
 N480 N 0.48690 0.73656 0.86292
 H481 H 0.54288 0.72213 0.86456
 H482 H 0.51405 0.76977 0.85117
 H483 H 0.53815 0.77795 0.83133
 H484 H 0.56750 0.72924 0.84522
 H485 H 0.47523 0.72968 0.88655
 H486 H 0.44557 0.72299 0.87331
 H487 H 0.46685 0.73651 0.82370
 H488 H 0.49617 0.74212 0.83790
 C489 C 0.51951 0.68957 0.90599
 C490 C 0.50623 0.79361 0.90824
 C491 C 0.45373 0.72936 0.84739
 C492 C 0.55468 0.75413 0.83660
 C493 C -0.25212 0.66517 0.96980
 H494 H -0.24136 0.66711 0.97926
 C495 C -0.25233 0.67490 0.95452
 H496 H -0.24161 0.68423 0.95228
 C497 C -0.27869 0.65005 0.96082
 H498 H -0.28881 0.64015 0.96307
 C499 C -0.27937 0.65940 0.94544
 H500 H -0.29022 0.65675 0.93622
 N501 N -0.26522 0.65304 0.97268
 C502 C -0.26826 0.64476 1.02817
 H503 H -0.26863 0.63016 1.02772
 C504 C -0.26945 0.65412 1.04400
 H505 H -0.27014 0.64617 1.05545
 C506 C -0.26567 0.67209 1.01345
 H507 H -0.26444 0.67904 1.00147
 C508 C -0.26675 0.68208 1.02907
 H509 H -0.26673 0.69664 1.02850
 Zn510 Zn -0.26441 0.63900 0.99294
 N511 N -0.26621 0.65375 1.01333
 C512 C -0.23082 0.62731 1.00747
 N513 N -0.24220 0.62541 0.99356
 C514 C -0.23789 0.61404 0.98006
 C515 C -0.22194 0.60353 0.98052
 C516 C -0.21478 0.61709 1.00846
 C517 C -0.30113 0.63152 0.99452
 C518 C -0.31676 0.62128 0.99375
 C519 C -0.29810 0.59440 0.98961
 C520 C -0.28279 0.60518 0.99053
 N521 N -0.28458 0.62344 0.99262
 H522 H -0.23416 0.63669 1.01792
 H523 H -0.24696 0.61301 0.96898
 H524 H -0.21879 0.59456 0.96964
 H525 H -0.20623 0.61852 1.01988
 H526 H -0.30218 0.64604 0.99642
 H527 H -0.32976 0.62806 0.99533
 H528 H -0.29639 0.57997 0.98742
 H529 H -0.26954 0.59892 0.98933
 C530 C -0.26871 0.67319 1.04484
 C531 C -0.26600 0.67190 0.94202
 C532 C -0.31542 0.60246 0.99103
 C533 C -0.21018 0.60487 0.99495
 C534 C -0.22840 0.33430 0.52557
 H535 H -0.21712 0.33266 0.51689
 C536 C -0.22955 0.32370 0.53923
 H537 H -0.21923 0.31333 0.54095
 C538 C -0.25594 0.34996 0.53232
 H539 H -0.26602 0.36036 0.52993
 C540 C -0.25786 0.33856 0.54744
 H541 H -0.26918 0.34162 0.55576
 N542 N -0.24226 0.34764 0.52207
 C543 C -0.23993 0.35598 0.46668
 H544 H -0.24007 0.37059 0.46686
 C545 C -0.23789 0.34630 0.45110
 H546 H -0.23678 0.35359 0.43924
 C547 C -0.24090 0.32880 0.48204
 H548 H -0.24194 0.32204 0.49415
 C549 C -0.23898 0.31854 0.46667
 H550 H -0.23838 0.30394 0.46711
 Zn551 Zn -0.24038 0.36197 0.50220
 N552 N -0.24080 0.34717 0.48179
 C553 C -0.20473 0.36853 0.49210
 N554 N -0.21782 0.37412 0.50335
 C555 C -0.21463 0.38752 0.51537
 C556 C -0.19816 0.39655 0.51568
 C557 C -0.18801 0.37686 0.49223
 C558 C -0.27705 0.37074 0.49890
 C559 C -0.29284 0.38139 0.49954
 C560 C -0.27449 0.40779 0.50317
 C561 C -0.25905 0.39657 0.50248
 N562 N -0.26059 0.37834 0.50095
 H563 H -0.20710 0.35741 0.48308
 H564 H -0.22492 0.39132 0.52464
 H565 H -0.19587 0.40735 0.52513
 H566 H -0.17782 0.37227 0.48312
 H567 H -0.27793 0.35623 0.49720
 H568 H -0.30554 0.37464 0.49761
 H569 H -0.27250 0.42208 0.50543
 H570 H -0.24588 0.40250 0.50357
 C571 C -0.23694 0.32734 0.45101
 C572 C -0.24524 0.32571 0.55112
 C573 C -0.29193 0.40032 0.50216
 C574 C -0.18464 0.39119 0.50397
 C575 C 0.25249 -0.17104 0.02241
 H576 H 0.25410 -0.17771 0.00991
 C577 C 0.25001 -0.18091 0.03639
 H578 H 0.24938 -0.19542 0.03462
 C579 C 0.25015 -0.14332 0.03870
 H580 H 0.24979 -0.12870 0.03941
 C581 C 0.24724 -0.15359 0.05443
 H582 H 0.24590 -0.14593 0.06646
 N583 N 0.25249 -0.15165 0.02386
 C584 C 0.26776 -0.16256 -0.01989
 H585 H 0.27880 -0.16313 -0.01057
 C586 C 0.26904 -0.17229 -0.03561
 H587 H 0.28119 -0.18020 -0.03828
 C588 C 0.23907 -0.15055 -0.02808
 H589 H 0.22758 -0.14176 -0.02532
 C590 C 0.23973 -0.16011 -0.04388
 H591 H 0.22848 -0.15883 -0.05291
 Zn592 Zn 0.25339 -0.13719 0.00405
 N593 N 0.25301 -0.15184 -0.01649
 C594 C 0.28759 -0.12491 0.01680
 N595 N 0.27504 -0.12385 0.00381
 C596 C 0.27800 -0.11397 -0.01037
 C597 C 0.29399 -0.10445 -0.01182
 C598 C 0.30379 -0.11560 0.01588
 C599 C 0.21633 -0.12880 0.00620
 C600 C 0.20073 -0.11790 0.00737
 C601 C 0.21935 -0.09165 0.00616
 C602 C 0.23459 -0.10310 0.00500
 N603 N 0.23283 -0.12132 0.00484
 H604 H 0.28517 -0.13314 0.02780
 H605 H 0.26790 -0.11353 -0.02062
 H606 H 0.29590 -0.09647 -0.02312
 H607 H 0.31370 -0.11683 0.02625
 H608 H 0.21530 -0.14335 0.00625
 H609 H 0.18793 -0.12462 0.00764
 H610 H 0.22158 -0.07727 0.00684
 H611 H 0.24785 -0.09734 0.00451
 C612 C 0.25500 -0.17093 -0.04798
 C613 C 0.24694 -0.17186 0.05364
 C614 C 0.20188 -0.09886 0.00732
 C615 C 0.30719 -0.10518 0.00141
 C616 C 0.25443 1.16548 0.47378
 H617 H 0.26475 1.16762 0.48365
 C618 C 0.25406 1.17598 0.45899
 H619 H 0.26423 1.18609 0.45752
 C620 C 0.22898 1.14937 0.46345
 H621 H 0.21933 1.13885 0.46499
 C622 C 0.22813 1.15948 0.44854
 H623 H 0.21754 1.15680 0.43905
 N624 N 0.24182 1.15264 0.47587
 C625 C 0.23670 1.14426 0.53124
 H626 H 0.23653 1.12965 0.53081
 C627 C 0.23492 1.15367 0.54701
 H628 H 0.23354 1.14614 0.55868
 C629 C 0.23918 1.17166 0.51649
 H630 H 0.24068 1.17863 0.50456
 C631 C 0.23752 1.18165 0.53206
 H632 H 0.23772 1.19626 0.53193
 Zn633 Zn 0.24199 1.13853 0.49612
 N634 N 0.23901 1.15328 0.51642
 C635 C 0.27532 1.12821 0.51183
 N636 N 0.26439 1.12537 0.49775
 C637 C 0.26930 1.11340 0.48491
 C638 C 0.28536 1.10315 0.48634
 C639 C 0.29148 1.11834 0.51375
 C640 C 0.20532 1.13066 0.49544
 C641 C 0.18985 1.12031 0.49347
 C642 C 0.20892 1.09350 0.49132
 C643 C 0.22409 1.10440 0.49329
 N644 N 0.22204 1.12268 0.49490
 H645 H 0.27160 1.13817 0.52167
 H646 H 0.26056 1.11158 0.47368
 H647 H 0.28874 1.09333 0.47621
 H648 H 0.29995 1.12094 0.52505
 H649 H 0.20405 1.14520 0.49700
 H650 H 0.17670 1.12700 0.49378
 H651 H 0.21083 1.07904 0.48953
 H652 H 0.23743 1.09822 0.49326
 C653 C 0.23542 1.17262 0.54760
 C654 C 0.24075 1.17302 0.44611
 C655 C 0.19151 1.10148 0.49109
 C656 C 0.29662 1.10541 0.50103
 C657 C 0.13003 0.48125 0.26894
 H658 H 0.13143 0.49225 0.27834
 C659 C 0.13952 0.46493 0.27135
 H660 H 0.14823 0.46352 0.28262
 C661 C 0.11620 0.46942 0.24335
 H662 H 0.10675 0.47101 0.23270
 C663 C 0.12532 0.45286 0.24532
 H664 H 0.12312 0.44206 0.23584
 N665 N 0.11865 0.48322 0.25510
 C666 C 0.10906 0.54178 0.25239
 H667 H 0.09444 0.54180 0.25227
 C668 C 0.11810 0.55805 0.25137
 H669 H 0.11031 0.57054 0.25049
 C670 C 0.13686 0.52532 0.25314
 H671 H 0.14408 0.51250 0.25358
 C672 C 0.14648 0.54133 0.25195
 H673 H 0.16111 0.54071 0.25185
 Zn674 Zn 0.10423 0.50478 0.25370
 N675 N 0.11846 0.52586 0.25347
 C676 C 0.09051 0.51861 0.28566
 N677 N 0.08890 0.50544 0.27315
 C678 C 0.07738 0.49156 0.27491
 C679 C 0.06699 0.49048 0.28977
 C680 C 0.08045 0.51802 0.30073
 C681 C 0.10033 0.50413 0.21810
 C682 C 0.09178 0.50506 0.20198
 C683 C 0.06308 0.50778 0.21631
 C684 C 0.07229 0.50659 0.23220
 N685 N 0.09059 0.50474 0.23278
 H686 H 0.10002 0.52931 0.28425
 H687 H 0.07660 0.48107 0.26492
 H688 H 0.05829 0.47906 0.29114
 H689 H 0.08207 0.52854 0.31061
 H690 H 0.11494 0.50323 0.21897
 H691 H 0.10051 0.50542 0.19096
 H692 H 0.04851 0.50858 0.21667
 H693 H 0.06478 0.50738 0.24407
 C694 C 0.13706 0.55799 0.25115
 C695 C 0.13706 0.45037 0.25954
 C696 C 0.07269 0.50697 0.20057
 C697 C 0.06868 0.50368 0.30306
 C698 C -0.13405 1.01821 0.26441
 H699 H -0.13237 1.00850 0.27451
 C700 C -0.14412 1.03415 0.26747
 H701 H -0.15040 1.03649 0.27989
 C702 C -0.12761 1.02705 0.23602
 H703 H -0.12080 1.02447 0.22393
 C704 C -0.13768 1.04308 0.23848
 H705 H -0.13854 1.05265 0.22817
 N706 N -0.12603 1.01497 0.24889
 C707 C -0.11598 0.95671 0.24388
 H708 H -0.10146 0.95653 0.24239
 C709 C -0.12546 0.94064 0.24220
 H710 H -0.11808 0.92807 0.23977
 C711 C -0.14318 0.97347 0.24856
 H712 H -0.15008 0.98635 0.25058
 C713 C -0.15321 0.95769 0.24705
 H714 H -0.16778 0.95860 0.24801
 Zn715 Zn -0.11105 0.99394 0.24648
 N716 N -0.12490 0.97271 0.24692
 C717 C -0.09408 0.98207 0.27738
 N718 N -0.09412 0.99481 0.26507
 C719 C -0.08348 1.00952 0.26671
 C720 C -0.07233 1.01199 0.28130
 C721 C -0.08328 0.98409 0.29225
 C722 C -0.11031 0.99073 0.21078
 C723 C -0.10309 0.98908 0.19429
 C724 C -0.07330 0.99254 0.20694
 C725 C -0.08117 0.99403 0.22326
 N726 N -0.09939 0.99327 0.22485
 H727 H -0.10291 0.97068 0.27601
 H728 H -0.08410 1.01966 0.25692
 H729 H -0.06435 1.02405 0.28265
 H730 H -0.08366 0.97402 0.30209
 H731 H -0.12473 0.98966 0.21246
 H732 H -0.11240 0.98623 0.18372
 H733 H -0.05882 0.99392 0.20631
 H734 H -0.07265 0.99571 0.23463
 C735 C -0.14437 0.94100 0.24362
 C736 C -0.14600 1.04686 0.25441
 C737 C -0.08422 0.99005 0.19192
 C738 C -0.07243 0.99935 0.29446
 C739 C 0.36943 0.51796 -0.23035
 H740 H 0.37039 0.50825 -0.22018
 C741 C 0.35958 0.53411 -0.22773
 H742 H 0.35276 0.53662 -0.21559
 C743 C 0.37731 0.52652 -0.25845
 H744 H 0.38457 0.52376 -0.27026
 C745 C 0.36748 0.54276 -0.25644
 H746 H 0.36724 0.55228 -0.26680
 N747 N 0.37798 0.51443 -0.24555
 C748 C 0.38610 0.45483 -0.25014
 H749 H 0.40065 0.45407 -0.25135
 C750 C 0.37651 0.43972 -0.25101
 H751 H 0.38380 0.42697 -0.25240
 C752 C 0.35988 0.47350 -0.24575
 H753 H 0.35341 0.48664 -0.24414
 C754 C 0.34871 0.45718 -0.24647
 H755 H 0.33424 0.45924 -0.24565
 Zn756 Zn 0.39215 0.49273 -0.24748
 N757 N 0.37732 0.47212 -0.24739
 C758 C 0.40724 0.47983 -0.21619
 N759 N 0.40830 0.49277 -0.22823
 C760 C 0.41950 0.50699 -0.22585
 C761 C 0.42996 0.50879 -0.21072
 C762 C 0.41738 0.48115 -0.20085
 C763 C 0.39446 0.49029 -0.28329
 C764 C 0.40254 0.48869 -0.29943
 C765 C 0.43182 0.48903 -0.28517
 C766 C 0.42314 0.49072 -0.26925
 N767 N 0.40476 0.49148 -0.26863
 H768 H 0.39802 0.46883 -0.21813
 H769 H 0.41981 0.51728 -0.23548
 H770 H 0.43832 0.52052 -0.20878
 H771 H 0.41611 0.47090 -0.19128
 H772 H 0.37988 0.49050 -0.28241
 H773 H 0.39405 0.48764 -0.31093
 H774 H 0.44645 0.48865 -0.28547
 H775 H 0.43110 0.49126 -0.25742
 C776 C 0.35643 0.44060 -0.24912
 C777 C 0.35848 0.54676 -0.24090
 C778 C 0.42148 0.48811 -0.30055
 C779 C 0.42868 0.49595 -0.19782
 C780 C 0.63084 -0.02061 -0.24037
 H781 H 0.63270 -0.00978 -0.23086
 C782 C 0.63961 -0.03647 -0.23847
 H783 H 0.64815 -0.03806 -0.22713
 C784 C 0.61562 -0.03094 -0.26601
 H785 H 0.60584 -0.02901 -0.27634
 C786 C 0.62490 -0.04872 -0.26440
 H787 H 0.62232 -0.05880 -0.27448
 N788 N 0.61857 -0.01796 -0.25469
 C789 C 0.61125 0.04107 -0.25560
 H790 H 0.59664 0.04195 -0.25531
 C791 C 0.62121 0.05683 -0.25655
 H792 H 0.61378 0.06955 -0.25629
 C793 C 0.63801 0.02309 -0.25556
 H794 H 0.64450 0.00989 -0.25569
 C795 C 0.64855 0.03850 -0.25647
 H796 H 0.66300 0.03645 -0.25754
 Zn797 Zn 0.60469 0.00402 -0.25504
 N798 N 0.61970 0.02463 -0.25502
 C799 C 0.59202 0.01700 -0.22220
 N800 N 0.59011 0.00426 -0.23508
 C801 C 0.57855 -0.00963 -0.23357
 C802 C 0.56826 -0.01106 -0.21872
 C803 C 0.58210 0.01599 -0.20704
 C804 C 0.59861 0.00492 -0.29075
 C805 C 0.58882 0.00699 -0.30617
 C806 C 0.56139 0.00955 -0.28971
 C807 C 0.57172 0.00742 -0.27458
 N808 N 0.59000 0.00513 -0.27536
 H809 H 0.60154 0.02772 -0.22347
 H810 H 0.57754 -0.01978 -0.24386
 H811 H 0.55940 -0.02241 -0.21764
 H812 H 0.58387 0.02618 -0.19687
 H813 H 0.61317 0.00332 -0.29100
 H814 H 0.59597 0.00661 -0.31827
 H815 H 0.54692 0.01174 -0.28878
 H816 H 0.56515 0.00807 -0.26221
 C817 C 0.64031 0.05592 -0.25702
 C818 C 0.63653 -0.05181 -0.25107
 C819 C 0.56994 0.00949 -0.30579
 C820 C 0.57011 0.00174 -0.20511
 C821 C 0.02669 0.25952 0.85996
 H822 H 0.01929 0.27217 0.85862
 C823 C 0.04425 0.25768 0.85390
 H824 H 0.05022 0.26891 0.84757
 C825 C 0.02785 0.22956 0.87001
 H826 H 0.02158 0.21883 0.87672
 C827 C 0.04547 0.22711 0.86410
 H828 H 0.05260 0.21442 0.86620
 N829 N 0.01885 0.24555 0.86774
 C830 C -0.03816 0.25942 0.86428
 H831 H -0.04139 0.25908 0.87785
 C832 C -0.05160 0.26351 0.85217
 H833 H -0.06529 0.26614 0.85646
 C834 C -0.01642 0.25569 0.84219
 H835 H -0.00274 0.25237 0.83840
 C836 C -0.02954 0.25951 0.82957
 H837 H -0.02586 0.25930 0.81608
 Zn838 Zn -0.00421 0.25028 0.87676
 N839 N -0.02095 0.25586 0.85916
 C840 C -0.01083 0.28582 0.88962
 N841 N -0.00184 0.26996 0.89244
 C842 C 0.01001 0.26816 0.90593
 C843 C 0.01300 0.28266 0.91745
 C844 C -0.00822 0.30064 0.90077
 C845 C -0.01479 0.21459 0.87823
 C846 C -0.02023 0.19888 0.88594
 C847 C -0.02265 0.21567 0.91311
 C848 C -0.01707 0.23103 0.90488
 N849 N -0.01277 0.23006 0.88787
 H850 H -0.01977 0.28716 0.87856
 H851 H 0.01726 0.25547 0.90760
 H852 H 0.02262 0.28113 0.92802
 H853 H -0.01557 0.31316 0.89840
 H854 H -0.01162 0.21437 0.86462
 H855 H -0.02087 0.18646 0.87825
 H856 H -0.02573 0.21657 0.92674
 H857 H -0.01604 0.24364 0.91215
 C858 C -0.04734 0.26356 0.83458
 C859 C 0.05390 0.24135 0.85603
 C860 C -0.02387 0.19924 0.90369
 C861 C 0.00390 0.29918 0.91482
 C862 C 0.47848 0.26509 0.16161
 H863 H 0.48573 0.27748 0.16020
 C864 C 0.46495 0.26426 0.17390
 H865 H 0.46174 0.27614 0.18184
 C866 C 0.47292 0.23501 0.15199
 H867 H 0.47556 0.22383 0.14310
 C868 C 0.45946 0.23353 0.16417
 H869 H 0.45225 0.22100 0.16474
 N870 N 0.48205 0.25065 0.15086
 C871 C 0.53529 0.25790 0.12978
 H872 H 0.53199 0.25644 0.11614
 C873 C 0.55301 0.26114 0.13511
 H874 H 0.56334 0.26230 0.12548
 C875 C 0.52557 0.25860 0.15885
 H876 H 0.51483 0.25747 0.16802
 C877 C 0.54313 0.26181 0.16476
 H878 H 0.54581 0.26297 0.17854
 Zn879 Zn 0.49849 0.25364 0.13292
 N880 N 0.52199 0.25703 0.14161
 C881 C 0.50186 0.28831 0.11961
 N882 N 0.49067 0.27411 0.12082
 C883 C 0.47363 0.27458 0.11395
 C884 C 0.46749 0.28957 0.10483
 C885 C 0.49634 0.30344 0.11054
 C886 C 0.50487 0.21722 0.12507
 C887 C 0.50482 0.20130 0.11505
 C888 C 0.49481 0.21855 0.09048
 C889 C 0.49467 0.23411 0.10107
 N890 N 0.49926 0.23307 0.11811
 H891 H 0.51508 0.28800 0.12569
 H892 H 0.46491 0.26321 0.11543
 H893 H 0.45405 0.28967 0.09908
 H894 H 0.50545 0.31461 0.10963
 H895 H 0.50890 0.21693 0.13856
 H896 H 0.50880 0.18864 0.12082
 H897 H 0.49078 0.21939 0.07700
 H898 H 0.49080 0.24694 0.09569
 C899 C 0.55707 0.26329 0.15280
 C900 C 0.45501 0.24842 0.17502
 C901 C 0.49957 0.20190 0.09761
 C902 C 0.47906 0.30408 0.10284
 C903 C -0.02137 0.76945 0.64379
 H904 H -0.01599 0.78272 0.64195
 C905 C -0.03641 0.76768 0.65282
 H906 H -0.04316 0.77980 0.65778
 C907 C -0.01899 0.73782 0.63740
 H908 H -0.01241 0.72629 0.63118
 C909 C -0.03558 0.73517 0.64716
 H910 H -0.03989 0.72143 0.64848
 N911 N -0.01235 0.75385 0.63629
 C912 C 0.04377 0.76806 0.63114
 H913 H 0.04581 0.76389 0.61779
 C914 C 0.05830 0.77400 0.64127
 H915 H 0.07161 0.77414 0.63566
 C916 C 0.02406 0.77176 0.65489
 H917 H 0.01080 0.77049 0.66026
 C918 C 0.03821 0.77786 0.66549
 H919 H 0.03559 0.78151 0.67887
 Zn920 Zn 0.00872 0.75746 0.62366
 N921 N 0.02708 0.76704 0.63806
 C922 C 0.01215 0.78871 0.60418
 N923 N 0.00259 0.77344 0.60600
 C924 C -0.01219 0.76983 0.59591
 C925 C -0.01791 0.78191 0.58332
 C926 C 0.00706 0.80099 0.59165
 C927 C 0.02336 0.72282 0.62587
 C928 C 0.02870 0.70557 0.62008
 C929 C 0.02314 0.71477 0.59069
 C930 C 0.01775 0.73182 0.59708
 N931 N 0.01749 0.73530 0.61441
 H932 H 0.02355 0.79157 0.61260
 H933 H -0.01966 0.75768 0.59784
 H934 H -0.02976 0.77899 0.57542
 H935 H 0.01466 0.81323 0.59052
 H936 H 0.02327 0.72613 0.63958
 H937 H 0.03276 0.69556 0.62938
 H938 H 0.02255 0.71189 0.57690
 H939 H 0.01334 0.74208 0.58821
 C940 C 0.05565 0.77884 0.65874
 C941 C -0.04416 0.74943 0.65492
 C942 C 0.02825 0.70130 0.60231
 C943 C -0.00817 0.79768 0.58110
 C944 C 0.52116 0.72865 0.35445
 H945 H 0.50742 0.72765 0.34964
 C946 C 0.53543 0.72410 0.34351
 H947 H 0.53256 0.71975 0.33029
 C948 C 0.54164 0.73518 0.37754
 H949 H 0.54403 0.73956 0.39076
 C950 C 0.55629 0.73075 0.36706
 H951 H 0.56986 0.73212 0.37231
 N952 N 0.52450 0.73448 0.37100
 C953 C 0.46925 0.73558 0.37381
 H954 H 0.46917 0.72622 0.38423
 C955 C 0.45393 0.73744 0.36331
 H956 H 0.44207 0.72975 0.36603
 C957 C 0.48471 0.75680 0.35746
 H958 H 0.49694 0.76403 0.35511
 C959 C 0.46965 0.75909 0.34662
 H960 H 0.47031 0.76815 0.33593
 Zn961 Zn 0.50497 0.74211 0.38500
 N962 N 0.48419 0.74532 0.37085
 C963 C 0.50261 0.77971 0.39295
 N964 N 0.51061 0.76371 0.39719
 C965 C 0.52232 0.76258 0.41087
 C966 C 0.52689 0.77803 0.42053
 C967 C 0.50680 0.79548 0.40224
 C968 C 0.50960 0.70854 0.40056
 C969 C 0.50615 0.69546 0.41254
 C970 C 0.48436 0.71597 0.42606
 C971 C 0.48840 0.72876 0.41393
 N972 N 0.50064 0.72473 0.40140
 H973 H 0.49284 0.78033 0.38250
 H974 H 0.52793 0.74959 0.41445
 H975 H 0.53639 0.77692 0.43126
 H976 H 0.50015 0.80807 0.39878
 H977 H 0.51925 0.70568 0.39045
 H978 H 0.51313 0.68247 0.41157
 H979 H 0.47445 0.71920 0.43588
 H980 H 0.48161 0.74185 0.41428
 C981 C 0.45403 0.74929 0.34950
 C982 C 0.55327 0.72544 0.34972
 C983 C 0.49330 0.69910 0.42538
 C984 C 0.51917 0.79476 0.41615
 Zr985 Zr 0.01442 -0.01030 1.01992
 O986 O 0.02940 0.00060 1.04116
 O987 O 0.01443 -0.03777 1.02541
 O988 O 0.00071 -0.01295 1.04348
 O989 O 0.05052 -0.01233 0.99203
 O990 O -0.02768 -0.00213 1.03743
 O991 O 0.04186 -0.01884 1.01925
 O992 O -0.00252 -0.05032 1.00353
 O993 O -0.01167 -0.01793 1.01227
 O994 O 0.01660 -0.02215 0.99518
 O995 O -0.00133 0.01368 1.02075
 O996 O 0.02621 0.00941 1.00474
 Zr997 Zr -0.01458 0.01408 0.97155
 Zr998 Zr -0.02698 0.00612 1.01175
 Zr999 Zr 0.02689 -0.00234 0.97977
 Zr1000 Zr -0.00940 -0.02878 0.98721
 O1001 O 0.04832 0.01552 0.97600
 O1002 O -0.03385 -0.04095 0.99405
 O1003 O 0.00126 -0.00997 0.97048
 O1004 O -0.02605 -0.00558 0.98683
 O1005 O -0.01689 0.02607 0.99625
 O1006 O 0.01147 0.02155 0.97938
 C1007 C 0.00689 -0.05127 1.01764
 C1008 C 0.05369 -0.01848 1.00720
 C1009 C -0.01572 -0.00893 1.04774
 O1010 O -0.04936 -0.01090 1.01409
 O1011 O -0.04983 0.01852 1.00034
 O1012 O -0.04149 0.02431 0.97284
 C1013 C -0.05295 0.02486 0.98525
 O1014 O 0.02663 0.03770 1.02589
 Zr1015 Zr 0.00924 0.03255 1.00427
 O1016 O -0.01532 0.04167 0.96641
 O1017 O -0.03575 0.02803 1.02791
 O1018 O -0.00458 0.05086 1.02130
 O1019 O 0.03208 0.04669 0.99615
 O1020 O -0.00079 0.05437 0.98978
 C1021 C -0.00993 0.05537 0.97552
 O1022 O -0.03055 0.00334 0.95093
 O1023 O 0.03672 -0.02491 0.96506
 O1024 O -0.00135 0.01510 0.94753
 O1025 O 0.02683 0.00350 0.95341
 O1026 O 0.00491 -0.04855 0.97213
 O1027 O -0.02376 -0.03449 0.96375
 C1028 C 0.01482 0.01021 0.94309
 H1029 H 0.02453 -0.03309 0.99480
 H1030 H -0.03826 -0.00874 0.98246
 H1031 H 0.01677 0.03036 0.97164
 H1032 H -0.00174 0.01897 1.03263
 H1033 H -0.03255 -0.05408 0.99135
 H1034 H -0.05786 -0.00459 1.02211
 H1035 H -0.04777 0.02490 1.03228
 H1036 H 0.00078 0.06290 1.02011
 H1037 H -0.00109 -0.06025 0.97353
 H1038 H 0.04873 -0.02168 0.96074
 H1039 H 0.05691 0.00916 0.96811
 H1040 H 0.03007 0.05961 0.99938
 H1041 H -0.02753 -0.04725 0.96347
 H1042 H -0.03419 0.01357 0.94353
 H1043 H 0.03312 -0.00963 1.04852
 H1044 H 0.02814 0.05089 1.02754
 Zr1045 Zr 0.52008 0.48376 0.52829
 O1046 O 0.53541 0.49080 0.55074
 O1047 O 0.52044 0.45554 0.52913
 O1048 O 0.50680 0.47736 0.55129
 O1049 O 0.55581 0.48723 0.50034
 O1050 O 0.47810 0.48840 0.54708
 O1051 O 0.54758 0.47576 0.52601
 O1052 O 0.50367 0.44679 0.50551
 O1053 O 0.49389 0.47730 0.51981
 O1054 O 0.52193 0.47641 0.50208
 O1055 O 0.50425 0.50725 0.53302
 O1056 O 0.53160 0.50601 0.51642
 Zr1057 Zr 0.49031 0.51628 0.48498
 Zr1058 Zr 0.47848 0.50115 0.52322
 Zr1059 Zr 0.53191 0.49879 0.49003
 Zr1060 Zr 0.49584 0.47101 0.49345
 O1061 O 0.55296 0.51756 0.48866
 O1062 O 0.47175 0.45742 0.49889
 O1063 O 0.50615 0.49269 0.48002
 O1064 O 0.47914 0.49398 0.49689
 O1065 O 0.48831 0.52376 0.51117
 O1066 O 0.51647 0.52244 0.49356
 C1067 C 0.51333 0.44343 0.51908
 C1068 C 0.55924 0.47847 0.51418
 C1069 C 0.49038 0.48033 0.55615
 O1070 O 0.45619 0.48371 0.52296
 O1071 O 0.45534 0.51514 0.51414
 O1072 O 0.46344 0.52601 0.48818
 C1073 C 0.45204 0.52411 0.50039
 O1074 O 0.53209 0.53023 0.54184
 Zr1075 Zr 0.51458 0.52888 0.51982
 O1076 O 0.48992 0.54459 0.48429
 O1077 O 0.46988 0.51998 0.54264
 O1078 O 0.50086 0.54405 0.53944
 O1079 O 0.53746 0.54423 0.51403
 O1080 O 0.50473 0.55303 0.50917
 C1081 C 0.49569 0.55657 0.49530
 O1082 O 0.47371 0.50953 0.46329
 O1083 O 0.54194 0.47894 0.47220
 O1084 O 0.50293 0.52070 0.46111
 O1085 O 0.53118 0.50838 0.46480
 O1086 O 0.50981 0.45451 0.47497
 O1087 O 0.48081 0.46924 0.46985
 C1088 C 0.51884 0.51623 0.45563
 H1089 H 0.52997 0.46578 0.49983
 H1090 H 0.46688 0.49150 0.49219
 H1091 H 0.52167 0.53246 0.48720
 H1092 H 0.50398 0.51046 0.54552
 H1093 H 0.47309 0.44488 0.49419
 H1094 H 0.44779 0.48845 0.53193
 H1095 H 0.45792 0.51605 0.54650
 H1096 H 0.50630 0.55617 0.54026
 H1097 H 0.50399 0.44257 0.47447
 H1098 H 0.55382 0.48308 0.46832
 H1099 H 0.56143 0.51270 0.47981
 H1100 H 0.53562 0.55645 0.51936
 H1101 H 0.47693 0.45663 0.46776
 H1102 H 0.47014 0.52100 0.45771
 H1103 H 0.53928 0.47937 0.55623
 H1104 H 0.53364 0.54301 0.54555
 Zr1105 Zr 0.48123 1.01514 0.51692
 O1106 O 0.46533 1.00499 0.53680
 O1107 O 0.47928 1.04303 0.52187
 O1108 O 0.49291 1.02045 0.54166
 O1109 O 0.44728 1.01198 0.48581
 O1110 O 0.52269 1.01279 0.53805
 O1111 O 0.45351 1.02195 0.51338
 O1112 O 0.49647 1.05485 0.50096
 O1113 O 0.50712 1.02407 0.51136
 O1114 O 0.48000 1.02460 0.49172
 O1115 O 0.49858 0.99252 0.51988
 O1116 O 0.47205 0.99320 0.50135
 Zr1117 Zr 0.51525 0.98880 0.47209
 Zr1118 Zr 0.52414 1.00126 0.51299
 Zr1119 Zr 0.47228 1.00265 0.47607
 Zr1120 Zr 0.50590 1.03249 0.48589
 O1121 O 0.45247 0.98290 0.47111
 O1122 O 0.52886 1.04709 0.49444
 O1123 O 0.49782 1.01143 0.46886
 O1124 O 0.52418 1.01062 0.48774
 O1125 O 0.51664 0.97920 0.49725
 O1126 O 0.48939 0.98002 0.47779
 C1127 C 0.48638 1.05635 0.51436
 C1128 C 0.44265 1.01952 0.50032
 C1129 C 0.50942 1.01899 0.54715
 O1130 O 0.54538 1.01978 0.51629
 O1131 O 0.54824 0.98888 0.50423
 O1132 O 0.54250 0.98043 0.47616
 C1133 C 0.55289 0.98138 0.48971
 O1134 O 0.47247 0.96669 0.52338
 Zr1135 Zr 0.49064 0.97139 0.50308
 O1136 O 0.51812 0.96092 0.46766
 O1137 O 0.53294 0.98195 0.53109
 O1138 O 0.50480 0.95569 0.52160
 O1139 O 0.46935 0.95496 0.49357
 O1140 O 0.50285 0.94906 0.48988
 C1141 C 0.51290 0.94758 0.47645
 O1142 O 0.53200 0.99890 0.45283
 O1143 O 0.46208 1.02306 0.45975
 O1144 O 0.50392 0.98498 0.44695
 O1145 O 0.47445 0.99414 0.45007
 O1146 O 0.49135 1.04990 0.46911
 O1147 O 0.52127 1.03712 0.46355
 C1148 C 0.48772 0.98783 0.44104
 H1149 H 0.47143 1.03491 0.49030
 H1150 H 0.53641 1.01426 0.48438
 H1151 H 0.48526 0.97015 0.46987
 H1152 H 0.49856 0.98835 0.53192
 H1153 H 0.52682 1.05983 0.49122
 H1154 H 0.55366 1.01491 0.52529
 H1155 H 0.54446 0.98630 0.53623
 H1156 H 0.50049 0.94313 0.52028
 H1157 H 0.49647 1.06211 0.47068
 H1158 H 0.45066 1.01857 0.45451
 H1159 H 0.44403 0.98785 0.46228
 H1160 H 0.47203 0.94247 0.49728
 H1161 H 0.52425 1.05008 0.46325
 H1162 H 0.53677 0.98832 0.44603
 H1163 H 0.46049 1.01555 0.54357
 H1164 H 0.47197 0.95355 0.52530
 Zr1165 Zr -0.02393 0.51691 1.02624
 O1166 O -0.04124 0.50738 1.04533
 O1167 O -0.02412 0.54472 1.03190
 O1168 O -0.01280 0.52070 1.05143
 O1169 O -0.05686 0.51746 0.99397
 O1170 O 0.01636 0.51056 1.04856
 O1171 O -0.05104 0.52563 1.02210
 O1172 O -0.00469 0.55568 1.01239
 O1173 O 0.00283 0.52397 1.02180
 O1174 O -0.02346 0.52722 1.00139
 O1175 O -0.00847 0.49296 1.02900
 O1176 O -0.03417 0.49624 1.00970
 Zr1177 Zr 0.00978 0.48944 0.98175
 Zr1178 Zr 0.01799 0.49990 1.02321
 Zr1179 Zr -0.03224 0.50644 0.98481
 Zr1180 Zr 0.00325 0.53324 0.99665
 O1181 O -0.05345 0.48852 0.97868
 O1182 O 0.02712 0.54567 1.00615
 O1183 O -0.00577 0.51342 0.97871
 O1184 O 0.01974 0.51002 0.99835
 O1185 O 0.00945 0.47897 1.00656
 O1186 O -0.01696 0.48253 0.98636
 C1187 C -0.01539 0.55760 1.02531
 C1188 C -0.06154 0.52462 1.00864
 C1189 C 0.00331 0.51763 1.05741
 O1190 O 0.04042 0.51669 1.02791
 O1191 O 0.04152 0.48617 1.01482
 O1192 O 0.03632 0.47912 0.98635
 C1193 C 0.04625 0.47893 1.00022
 O1194 O -0.03662 0.46911 1.03086
 Zr1195 Zr -0.01736 0.47303 1.01132
 O1196 O 0.01072 0.46158 0.97661
 O1197 O 0.02466 0.47936 1.04082
 O1198 O -0.00506 0.45577 1.02969
 O1199 O -0.03956 0.45861 1.00069
 O1200 O -0.00649 0.45024 0.99775
 C1201 C 0.00401 0.44842 0.98467
 O1202 O 0.02788 0.49884 0.96329
 O1203 O -0.04005 0.52801 0.96877
 O1204 O -0.00095 0.48703 0.95625
 O1205 O -0.02980 0.49834 0.95872
 O1206 O -0.00939 0.55238 0.98026
 O1207 O 0.01962 0.53737 0.97486
 C1208 C -0.01673 0.49116 0.94998
 H1209 H -0.03117 0.53819 1.00007
 H1210 H 0.03235 0.51283 0.99551
 H1211 H -0.02156 0.47324 0.97805
 H1212 H -0.00927 0.48844 1.04087
 H1213 H 0.02622 0.55862 1.00329
 H1214 H 0.04795 0.51093 1.03700
 H1215 H 0.03626 0.48269 1.04650
 H1216 H -0.01025 0.44363 1.02785
 H1217 H -0.00336 0.56407 0.98244
 H1218 H -0.05162 0.52463 0.96306
 H1219 H -0.06114 0.49436 0.96975
 H1220 H -0.03802 0.44587 1.00410
 H1221 H 0.02355 0.55007 0.97501
 H1222 H 0.03213 0.48815 0.95634
 H1223 H -0.04558 0.51806 1.05224
 H1224 H -0.03811 0.45601 1.03242
 Zr1225 Zr -0.00575 0.48728 0.48428
 O1226 O -0.02511 0.49803 0.46672
 O1227 O -0.00270 0.46062 0.47481
 O1228 O 0.00465 0.48801 0.45893
 O1229 O -0.03586 0.47795 0.51647
 O1230 O 0.03175 0.50173 0.46309
 O1231 O -0.03154 0.47596 0.48734
 O1232 O 0.01968 0.44886 0.49198
 O1233 O 0.02218 0.48287 0.48721
 O1234 O -0.00175 0.47299 0.50700
 O1235 O 0.00554 0.51313 0.48525
 O1236 O -0.01774 0.50344 0.50411
 Zr1237 Zr 0.02679 0.51088 0.53199
 Zr1238 Zr 0.03324 0.50859 0.48952
 Zr1239 Zr -0.01220 0.48942 0.52683
 Zr1240 Zr 0.02601 0.46950 0.51031
 O1241 O -0.03493 0.50360 0.53706
 O1242 O 0.05040 0.46169 0.49788
 O1243 O 0.01555 0.48487 0.53122
 O1244 O 0.03847 0.49462 0.51222
 O1245 O 0.02286 0.52535 0.50934
 O1246 O -0.00114 0.51503 0.52901
 C1247 C 0.00806 0.44770 0.47943
 C1248 C -0.04095 0.47353 0.50097
 C1249 C 0.01981 0.49380 0.45348
 O1250 O 0.05788 0.49588 0.48192
 O1251 O 0.05520 0.52320 0.49952
 O1252 O 0.05142 0.52443 0.52869
 C1253 C 0.06021 0.52796 0.51495
 O1254 O -0.02594 0.53356 0.48752
 Zr1255 Zr -0.00502 0.52856 0.50603
 O1256 O 0.02372 0.53754 0.54142
 O1257 O 0.03496 0.53253 0.47542
 O1258 O 0.00329 0.55030 0.49102
 O1259 O -0.02884 0.53772 0.51873
 O1260 O 0.00240 0.54977 0.52334
 C1261 C 0.01372 0.55074 0.53613
 O1262 O 0.04747 0.50073 0.54851
 O1263 O -0.01603 0.46425 0.53840
 O1264 O 0.01766 0.50786 0.55756
 O1265 O -0.00786 0.49135 0.55363
 O1266 O 0.01785 0.44694 0.52429
 O1267 O 0.04530 0.46354 0.53009
 C1268 C 0.00418 0.49911 0.56324
 H1269 H -0.00780 0.46119 0.50673
 H1270 H 0.05161 0.49283 0.51432
 H1271 H -0.00653 0.52198 0.53883
 H1272 H 0.00319 0.51940 0.47428
 H1273 H 0.05171 0.44838 0.49851
 H1274 H 0.06364 0.50397 0.47375
 H1275 H 0.04654 0.53174 0.46916
 H1276 H -0.00368 0.56123 0.49487
 H1277 H 0.02505 0.43629 0.52010
 H1278 H -0.02737 0.46537 0.54504
 H1279 H -0.04079 0.49532 0.54497
 H1280 H -0.02979 0.55099 0.51750
 H1281 H 0.05084 0.45145 0.52773
 H1282 H 0.05054 0.51059 0.55693
 H1283 H -0.02842 0.48809 0.45847
 H1284 H -0.02950 0.54653 0.48808
 Zr1285 Zr 0.48756 -0.01206 -0.02720
 O1286 O 0.46947 -0.00323 -0.04684
 O1287 O 0.49095 -0.03951 -0.03385
 O1288 O 0.49963 -0.01381 -0.05190
 O1289 O 0.45454 -0.01652 0.00343
 O1290 O 0.52690 -0.00058 -0.04723
 O1291 O 0.46156 -0.02308 -0.02468
 O1292 O 0.51147 -0.04969 -0.01391
 O1293 O 0.51512 -0.01664 -0.02194
 O1294 O 0.48940 -0.02364 -0.00288
 O1295 O 0.49946 0.01343 -0.02808
 O1296 O 0.47447 0.00647 -0.01004
 Zr1297 Zr 0.51700 0.01620 0.02003
 Zr1298 Zr 0.52669 0.00889 -0.02146
 Zr1299 Zr 0.47785 -0.00485 0.01436
 Zr1300 Zr 0.51678 -0.02726 0.00268
 O1301 O 0.45485 0.01087 0.02167
 O1302 O 0.54196 -0.03684 -0.00700
 O1303 O 0.50510 -0.00941 0.02113
 O1304 O 0.52976 -0.00240 0.00289
 O1305 O 0.51522 0.02796 -0.00422
 O1306 O 0.48945 0.02054 0.01471
 C1307 C 0.50096 -0.05199 -0.02719
 C1308 C 0.45077 -0.02316 -0.01173
 C1309 C 0.51527 -0.00885 -0.05691
 O1310 O 0.55144 -0.00517 -0.02605
 O1311 O 0.54824 0.02412 -0.01146
 O1312 O 0.54221 0.02873 0.01712
 C1313 C 0.55213 0.03054 0.00374
 O1314 O 0.46830 0.03444 -0.03009
 Zr1315 Zr 0.48772 0.03130 -0.00980
 O1316 O 0.51401 0.04380 0.02634
 O1317 O 0.53025 0.03102 -0.03768
 O1318 O 0.49761 0.05090 -0.02650
 O1319 O 0.46329 0.04235 0.00037
 O1320 O 0.49458 0.05421 0.00552
 C1321 C 0.50493 0.05647 0.01891
 O1322 O 0.53609 0.00772 0.03896
 O1323 O 0.47227 -0.02842 0.02801
 O1324 O 0.50588 0.01623 0.04513
 O1325 O 0.48018 0.00003 0.04111
 O1326 O 0.50691 -0.04790 0.01820
 O1327 O 0.53420 -0.03117 0.02441
 C1328 C 0.49173 0.00849 0.05074
 H1329 H 0.48310 -0.03527 -0.00239
 H1330 H 0.54268 -0.00418 0.00609
 H1331 H 0.48355 0.02869 0.02339
 H1332 H 0.49810 0.01847 -0.03975
 H1333 H 0.54287 -0.04997 -0.00490
 H1334 H 0.55808 0.00180 -0.03455
 H1335 H 0.54226 0.02926 -0.04304
 H1336 H 0.49062 0.06227 -0.02431
 H1337 H 0.51420 -0.05902 0.01568
 H1338 H 0.46044 -0.02631 0.03362
 H1339 H 0.44810 0.00365 0.02989
 H1340 H 0.46281 0.05536 -0.00228
 H1341 H 0.53965 -0.04350 0.02372
 H1342 H 0.53877 0.01841 0.04652
 H1343 H 0.46664 -0.01395 -0.05430
 H1344 H 0.46491 0.04739 -0.03102
 Zr1345 Zr 0.50531 0.50957 -0.01545
 O1346 O 0.52174 0.49801 -0.03520
 O1347 O 0.50563 0.53700 -0.02108
 O1348 O 0.49320 0.51231 -0.04024
 O1349 O 0.53945 0.51060 0.01562
 O1350 O 0.46446 0.50275 -0.03658
 O1351 O 0.53257 0.51712 -0.01237
 O1352 O 0.48702 0.55031 -0.00103
 O1353 O 0.47864 0.51794 -0.01042
 O1354 O 0.50555 0.52177 0.00925
 O1355 O 0.49007 0.48596 -0.01743
 O1356 O 0.51633 0.48990 0.00115
 Zr1357 Zr 0.47340 0.48648 0.03038
 Zr1358 Zr 0.46374 0.49425 -0.01098
 Zr1359 Zr 0.51500 0.50204 0.02594
 Zr1360 Zr 0.47894 0.52911 0.01461
 O1361 O 0.53578 0.48344 0.03289
 O1362 O 0.45502 0.54174 0.00491
 O1363 O 0.48861 0.51028 0.03250
 O1364 O 0.46274 0.50624 0.01381
 O1365 O 0.47306 0.47425 0.00567
 O1366 O 0.50010 0.47843 0.02525
 C1367 C 0.49760 0.55086 -0.01406
 C1368 C 0.54361 0.51637 0.00068
 C1369 C 0.47701 0.50912 -0.04580
 O1370 O 0.44109 0.51152 -0.01548
 O1371 O 0.44035 0.48256 -0.00164
 O1372 O 0.44688 0.47676 0.02659
 C1373 C 0.43629 0.47647 0.01318
 O1374 O 0.51884 0.46142 -0.01950
 Zr1375 Zr 0.49981 0.46715 0.00030
 O1376 O 0.47307 0.45894 0.03594
 O1377 O 0.45676 0.47237 -0.02779
 O1378 O 0.48779 0.44884 -0.01782
 O1379 O 0.52222 0.45268 0.01090
 O1380 O 0.48910 0.44573 0.01391
 C1381 C 0.47926 0.44504 0.02742
 O1382 O 0.45566 0.49767 0.04922
 O1383 O 0.52424 0.52480 0.04047
 O1384 O 0.48481 0.48588 0.05566
 O1385 O 0.51236 0.49861 0.05259
 O1386 O 0.49172 0.54852 0.03108
 O1387 O 0.46253 0.53567 0.03629
 C1388 C 0.49983 0.49213 0.06176
 H1389 H 0.51336 0.53244 0.01025
 H1390 H 0.45021 0.50974 0.01697
 H1391 H 0.50496 0.46975 0.03373
 H1392 H 0.49055 0.48055 -0.02926
 H1393 H 0.45593 0.55489 0.00746
 H1394 H 0.43336 0.50534 -0.02430
 H1395 H 0.44501 0.47565 -0.03330
 H1396 H 0.49339 0.43674 -0.01601
 H1397 H 0.48586 0.56042 0.02891
 H1398 H 0.53578 0.52115 0.04619
 H1399 H 0.54367 0.48982 0.04142
 H1400 H 0.52071 0.43975 0.00763
 H1401 H 0.45861 0.54853 0.03591
 H1402 H 0.45178 0.48759 0.05637
 H1403 H 0.52586 0.50805 -0.04228
 H1404 H 0.52095 0.44819 -0.02067
 Zr1405 Zr 0.01411 1.00699 0.47115
 O1406 O 0.02892 0.99797 0.44925
 O1407 O 0.01491 1.03506 0.46916
 O1408 O 0.00063 1.01345 0.44774
 O1409 O 0.05030 1.00225 0.49964
 O1410 O -0.02832 1.00482 0.45206
 O1411 O 0.04172 1.01350 0.47356
 O1412 O -0.00134 1.04588 0.49214
 O1413 O -0.01171 1.01555 0.47908
 O1414 O 0.01668 1.01521 0.49713
 O1415 O -0.00240 0.98448 0.46700
 O1416 O 0.02528 0.98444 0.48391
 Zr1417 Zr -0.01564 0.97829 0.51520
 Zr1418 Zr -0.02778 0.99273 0.47626
 Zr1419 Zr 0.02635 0.99263 0.51007
 Zr1420 Zr -0.00909 1.02271 0.50524
 O1421 O 0.04708 0.97263 0.51212
 O1422 O -0.03308 1.03760 0.49935
 O1423 O 0.00095 1.00088 0.51957
 O1424 O -0.02646 1.00084 0.50236
 O1425 O -0.01833 0.96995 0.48925
 O1426 O 0.01018 0.97000 0.50715
 C1427 C 0.00804 1.04803 0.47849
 C1428 C 0.05358 1.01040 0.48558
 C1429 C -0.01600 1.01165 0.44286
 O1430 O -0.04968 1.01157 0.47575
 O1431 O -0.05099 0.98052 0.48541
 O1432 O -0.04278 0.97024 0.51195
 C1433 C -0.05428 0.97233 0.49942
 O1434 O 0.02456 0.95921 0.45932
 Zr1435 Zr 0.00759 0.96267 0.48111
 O1436 O -0.01664 0.95010 0.51705
 O1437 O -0.03717 0.97395 0.45721
 O1438 O -0.00697 0.94776 0.46188
 O1439 O 0.03018 0.94600 0.48770
 O1440 O -0.00266 0.93967 0.49259
 C1441 C -0.01143 0.93730 0.50654
 O1442 O -0.03168 0.98699 0.53640
 O1443 O 0.03699 1.01235 0.52753
 O1444 O -0.00268 0.97405 0.53940
 O1445 O 0.02611 0.98344 0.53546
 O1446 O 0.00575 1.03916 0.52305
 O1447 O -0.02330 1.02624 0.52879
 C1448 C 0.01363 0.97702 0.54473
 H1449 H 0.02495 1.02542 0.49907
 H1450 H -0.03855 1.00430 0.50681
 H1451 H 0.01525 0.95987 0.51389
 H1452 H -0.00300 0.98085 0.45459
 H1453 H -0.03138 1.05018 0.50370
 H1454 H -0.05835 1.00711 0.46679
 H1455 H -0.04910 0.97857 0.45307
 H1456 H -0.00193 0.93525 0.46159
 H1457 H 0.00011 1.05142 0.52305
 H1458 H 0.04890 1.00763 0.53163
 H1459 H 0.05590 0.97724 0.52086
 H1460 H 0.02788 0.93372 0.48282
 H1461 H -0.02681 1.03913 0.53050
 H1462 H -0.03541 0.97601 0.54236
 H1463 H 0.03293 1.00886 0.44333
 H1464 H 0.02566 0.94620 0.45608
 Zr1465 Zr 0.74412 0.26912 0.22710
 O1466 O 0.75570 0.28580 0.20866
 O1467 O 0.71662 0.27065 0.22032
 O1468 O 0.74114 0.25806 0.20173
 O1469 O 0.74348 0.30221 0.25955
 O1470 O 0.75060 0.22876 0.20436
 O1471 O 0.73631 0.29651 0.23116
 O1472 O 0.70345 0.25244 0.23953
 O1473 O 0.73557 0.24275 0.23078
 O1474 O 0.73224 0.26919 0.25142
 O1475 O 0.76762 0.25272 0.22522
 O1476 O 0.76424 0.27846 0.24465
 Zr1477 Zr 0.76728 0.23441 0.27223
 Zr1478 Zr 0.75912 0.22665 0.23024
 Zr1479 Zr 0.75235 0.27707 0.26897
 Zr1480 Zr 0.72471 0.24283 0.25548
 O1481 O 0.77101 0.29714 0.27663
 O1482 O 0.71163 0.21990 0.24457
 O1483 O 0.74379 0.25099 0.27436
 O1484 O 0.74732 0.22539 0.25455
 O1485 O 0.77940 0.23419 0.24797
 O1486 O 0.77567 0.26079 0.26838
 C1487 C 0.70282 0.26312 0.22669
 C1488 C 0.73728 0.30705 0.24470
 C1489 C 0.74429 0.24198 0.19550
 O1490 O 0.74149 0.20517 0.22423
 O1491 O 0.77092 0.20250 0.23893
 O1492 O 0.77657 0.20742 0.26769
 C1493 C 0.77695 0.19743 0.25373
 O1494 O 0.79306 0.27953 0.22482
 Zr1495 Zr 0.78684 0.26068 0.24393
 O1496 O 0.79473 0.23254 0.27889
 O1497 O 0.78066 0.21894 0.21374
 O1498 O 0.80478 0.24744 0.22636
 O1499 O 0.80141 0.28238 0.25543
 O1500 O 0.80825 0.24908 0.25856
 C1501 C 0.80874 0.23875 0.27169
 O1502 O 0.75593 0.21674 0.28992
 O1503 O 0.73000 0.28636 0.28376
 O1504 O 0.76835 0.24500 0.29795
 O1505 O 0.75778 0.27398 0.29539
 O1506 O 0.70545 0.25608 0.27172
 O1507 O 0.71843 0.22622 0.27641
 C1508 C 0.76390 0.26075 0.30434
 H1509 H 0.72159 0.27745 0.25243
 H1510 H 0.74372 0.21294 0.25703
 H1511 H 0.78453 0.26502 0.27724
 H1512 H 0.77294 0.25331 0.21360
 H1513 H 0.69854 0.22142 0.24688
 H1514 H 0.74753 0.19735 0.21536
 H1515 H 0.77720 0.20749 0.20774
 H1516 H 0.81705 0.25203 0.22888
 H1517 H 0.69354 0.25072 0.26904
 H1518 H 0.73369 0.29766 0.28988
 H1519 H 0.76490 0.30508 0.28536
 H1520 H 0.81435 0.28027 0.25272
 H1521 H 0.70556 0.22285 0.27552
 H1522 H 0.76599 0.21207 0.29728
 H1523 H 0.74565 0.29060 0.20136
 H1524 H 0.80635 0.28037 0.22394
 Zr1525 Zr 0.77065 0.74094 0.72459
 O1526 O 0.76351 0.72358 0.70346
 O1527 O 0.79837 0.74391 0.72071
 O1528 O 0.77330 0.75337 0.70050
 O1529 O 0.77307 0.70667 0.75404
 O1530 O 0.75936 0.78091 0.70457
 O1531 O 0.78155 0.71441 0.72710
 O1532 O 0.80694 0.76362 0.74232
 O1533 O 0.77478 0.76814 0.73146
 O1534 O 0.78056 0.74145 0.75004
 O1535 O 0.74528 0.75398 0.72160
 O1536 O 0.75100 0.72807 0.73910
 Zr1537 Zr 0.73910 0.76992 0.76992
 Zr1538 Zr 0.74930 0.78082 0.72978
 Zr1539 Zr 0.76061 0.73011 0.76470
 Zr1540 Zr 0.78362 0.76849 0.75719
 O1541 O 0.74461 0.70741 0.76917
 O1542 O 0.79363 0.79389 0.75038
 O1543 O 0.76459 0.75692 0.77317
 O1544 O 0.75882 0.78249 0.75538
 O1545 O 0.72912 0.76957 0.74444
 O1546 O 0.73523 0.74278 0.76291
 C1547 C 0.81015 0.75369 0.72874
 C1548 C 0.78069 0.70313 0.73947
 C1549 C 0.76796 0.76901 0.69523
 O1550 O 0.76439 0.80450 0.72713
 O1551 O 0.73445 0.80327 0.73953
 O1552 O 0.72658 0.79567 0.76672
 C1553 C 0.72660 0.80660 0.75402
 O1554 O 0.72478 0.72352 0.71615
 Zr1555 Zr 0.72625 0.74240 0.73732
 O1556 O 0.71120 0.76757 0.77333
 O1557 O 0.72777 0.78638 0.71229
 O1558 O 0.70801 0.75331 0.71873
 O1559 O 0.71424 0.71840 0.74547
 O1560 O 0.70230 0.75030 0.75001
 C1561 C 0.69905 0.75984 0.76381
 O1562 O 0.74602 0.78814 0.79044
 O1563 O 0.78314 0.72331 0.78061
 O1564 O 0.73765 0.75802 0.79448
 O1565 O 0.75349 0.73147 0.79080
 O1566 O 0.80350 0.75698 0.77384
 O1567 O 0.78586 0.78446 0.78035
 C1568 C 0.74460 0.74312 0.80015
 H1569 H 0.79218 0.73470 0.75134
 H1570 H 0.76042 0.79518 0.75938
 H1571 H 0.72650 0.73693 0.77040
 H1572 H 0.74091 0.75314 0.70945
 H1573 H 0.80654 0.79421 0.75398
 H1574 H 0.75792 0.81190 0.71843
 H1575 H 0.73003 0.79837 0.70749
 H1576 H 0.69657 0.74666 0.71934
 H1577 H 0.81463 0.76404 0.77283
 H1578 H 0.78078 0.71134 0.78540
 H1579 H 0.75126 0.70007 0.77779
 H1580 H 0.70149 0.71865 0.74137
 H1581 H 0.79822 0.78929 0.78145
 H1582 H 0.73481 0.79092 0.79696
 H1583 H 0.77472 0.72066 0.69699
 H1584 H 0.71200 0.72047 0.71378
 Zr1585 Zr 0.23542 0.23123 0.77342
 O1586 O 0.24610 0.21105 0.78975
 O1587 O 0.20981 0.23607 0.78389
 O1588 O 0.23873 0.24132 0.79916
 O1589 O 0.22265 0.20156 0.74030
 O1590 O 0.25510 0.26678 0.79620
 O1591 O 0.22206 0.20639 0.76953
 O1592 O 0.19839 0.25945 0.76830
 O1593 O 0.23249 0.25933 0.77188
 O1594 O 0.21977 0.23603 0.75122
 O1595 O 0.26187 0.24097 0.77243
 O1596 O 0.24955 0.21840 0.75281
 Zr1597 Zr 0.25758 0.26235 0.72678
 Zr1598 Zr 0.25871 0.26889 0.76951
 Zr1599 Zr 0.23432 0.22473 0.73061
 Zr1600 Zr 0.21771 0.26392 0.74922
 O1601 O 0.24638 0.20127 0.71908
 O1602 O 0.21218 0.28904 0.76213
 O1603 O 0.23099 0.25265 0.72750
 O1604 O 0.24341 0.27489 0.74735
 O1605 O 0.27341 0.25762 0.74891
 O1606 O 0.26044 0.23431 0.72846
 C1607 C 0.19751 0.24802 0.78048
 C1608 C 0.21872 0.19684 0.75565
 C1609 C 0.24702 0.25529 0.80537
 O1610 O 0.24739 0.29360 0.77913
 O1611 O 0.27328 0.29044 0.75996
 O1612 O 0.27241 0.28626 0.73067
 C1613 C 0.27715 0.29508 0.74458
 O1614 O 0.27982 0.20799 0.76807
 Zr1615 Zr 0.27526 0.22964 0.75098
 O1616 O 0.28358 0.25814 0.71693
 O1617 O 0.28417 0.26965 0.78233
 O1618 O 0.29832 0.23597 0.76644
 O1619 O 0.28265 0.20590 0.73656
 O1620 O 0.29606 0.23680 0.73438
 C1621 C 0.29687 0.24808 0.72207
 O1622 O 0.24726 0.28333 0.71116
 O1623 O 0.20811 0.22249 0.71947
 O1624 O 0.25285 0.25329 0.70095
 O1625 O 0.23518 0.22873 0.70387
 O1626 O 0.19340 0.25688 0.73604
 O1627 O 0.21151 0.28302 0.72991
 C1628 C 0.24330 0.24019 0.69470
 H1629 H 0.20763 0.23072 0.75162
 H1630 H 0.24215 0.28809 0.74582
 H1631 H 0.26659 0.22864 0.71835
 H1632 H 0.26881 0.23811 0.78309
 H1633 H 0.19891 0.29112 0.76176
 H1634 H 0.25652 0.29902 0.78711
 H1635 H 0.28444 0.28114 0.78922
 H1636 H 0.30857 0.22838 0.76208
 H1637 H 0.18362 0.26485 0.74075
 H1638 H 0.20808 0.21110 0.71242
 H1639 H 0.23715 0.19585 0.71122
 H1640 H 0.29596 0.20435 0.73763
 H1641 H 0.19981 0.28917 0.73251
 H1642 H 0.25672 0.28597 0.70271
 H1643 H 0.23657 0.20839 0.79813
 H1644 H 0.29244 0.20344 0.76702
 Zr1645 Zr 0.27019 0.76187 0.26996
 O1646 O 0.26271 0.78062 0.28989
 O1647 O 0.29765 0.75732 0.27570
 O1648 O 0.27180 0.75029 0.29473
 O1649 O 0.27511 0.79419 0.23905
 O1650 O 0.25652 0.72406 0.29091
 O1651 O 0.28189 0.78745 0.26701
 O1652 O 0.30637 0.73582 0.25569
 O1653 O 0.27338 0.73407 0.26478
 O1654 O 0.28121 0.75905 0.24529
 O1655 O 0.24416 0.75126 0.27170
 O1656 O 0.25191 0.77541 0.25325
 Zr1657 Zr 0.23960 0.73289 0.22381
 Zr1658 Zr 0.24730 0.72376 0.26518
 Zr1659 Zr 0.26259 0.77106 0.22849
 Zr1660 Zr 0.28341 0.73145 0.23980
 O1661 O 0.24762 0.79436 0.22117
 O1662 O 0.29207 0.70601 0.24916
 O1663 O 0.26574 0.74352 0.22182
 O1664 O 0.25797 0.71967 0.24048
 O1665 O 0.22843 0.73570 0.24843
 O1666 O 0.23664 0.76067 0.22903
 C1667 C 0.30945 0.74644 0.26882
 C1668 C 0.28198 0.79806 0.25407
 C1669 C 0.26560 0.73538 0.30027
 O1670 O 0.26067 0.69878 0.26983
 O1671 O 0.23118 0.70257 0.25574
 O1672 O 0.22616 0.70827 0.22727
 C1673 C 0.22432 0.69864 0.24076
 O1674 O 0.22490 0.78371 0.27382
 Zr1675 Zr 0.22648 0.76340 0.25389
 O1676 O 0.21202 0.73709 0.21829
 O1677 O 0.22505 0.72138 0.28174
 O1678 O 0.20697 0.75530 0.27172
 O1679 O 0.21597 0.78771 0.24348
 O1680 O 0.20285 0.75658 0.23989
 C1681 C 0.19980 0.74632 0.22650
 O1682 O 0.24679 0.71311 0.20468
 O1683 O 0.28628 0.77550 0.21437
 O1684 O 0.23959 0.74348 0.19866
 O1685 O 0.25757 0.76809 0.20180
 O1686 O 0.30418 0.74015 0.22361
 O1687 O 0.28605 0.71353 0.21798
 C1688 C 0.24819 0.75685 0.19263
 H1689 H 0.29309 0.76484 0.24445
 H1690 H 0.25914 0.70665 0.23733
 H1691 H 0.22855 0.76668 0.22055
 H1692 H 0.23937 0.75316 0.28350
 H1693 H 0.30509 0.70443 0.24656
 H1694 H 0.25350 0.69259 0.27851
 H1695 H 0.22640 0.70949 0.28723
 H1696 H 0.19590 0.76280 0.26986
 H1697 H 0.31503 0.73241 0.22581
 H1698 H 0.28452 0.78724 0.20867
 H1699 H 0.25504 0.80060 0.21274
 H1700 H 0.20305 0.78873 0.24659
 H1701 H 0.29822 0.70769 0.21818
 H1702 H 0.23582 0.71079 0.19749
 H1703 H 0.27373 0.78308 0.29697
 H1704 H 0.21220 0.78795 0.27504
 Zr1705 Zr 0.24095 0.76545 0.72982
 O1706 O 0.25068 0.78123 0.70971
 O1707 O 0.21294 0.76689 0.72541
 O1708 O 0.23598 0.75328 0.70516
 O1709 O 0.24300 0.79997 0.76084
 O1710 O 0.24546 0.72405 0.70843
 O1711 O 0.23356 0.79302 0.73330
 O1712 O 0.20166 0.74933 0.74622
 O1713 O 0.23290 0.73932 0.73533
 O1714 O 0.23130 0.76666 0.75507
 O1715 O 0.26425 0.74896 0.72676
 O1716 O 0.26246 0.77556 0.74530
 Zr1717 Zr 0.26816 0.73286 0.77449
 Zr1718 Zr 0.25638 0.72318 0.73359
 Zr1719 Zr 0.25282 0.77532 0.77062
 Zr1720 Zr 0.22429 0.74054 0.76086
 O1721 O 0.27193 0.79570 0.77578
 O1722 O 0.21051 0.71712 0.75208
 O1723 O 0.24490 0.74954 0.77779
 O1724 O 0.24680 0.72305 0.75888
 O1725 O 0.27806 0.73154 0.74929
 O1726 O 0.27605 0.75899 0.76883
 C1727 C 0.19980 0.75959 0.73313
 C1728 C 0.23561 0.80416 0.74627
 C1729 C 0.23852 0.73689 0.69946
 O1730 O 0.23853 0.70139 0.73010
 O1731 O 0.26926 0.69954 0.74229
 O1732 O 0.27737 0.70579 0.77032
 C1733 C 0.27672 0.69522 0.75677
 O1734 O 0.28929 0.77573 0.72312
 Zr1735 Zr 0.28497 0.75777 0.74350
 O1736 O 0.29608 0.73132 0.77895
 O1737 O 0.27632 0.71479 0.71559
 O1738 O 0.30135 0.74381 0.72503
 O1739 O 0.30038 0.77990 0.75289
 O1740 O 0.30765 0.74678 0.75677
 C1741 C 0.30935 0.73707 0.77028
 O1742 O 0.25862 0.71589 0.79375
 O1743 O 0.23185 0.78518 0.78685
 O1744 O 0.27107 0.74451 0.79969
 O1745 O 0.26076 0.77355 0.79666
 O1746 O 0.20638 0.75451 0.77799
 O1747 O 0.22002 0.72504 0.78306
 C1748 C 0.26735 0.76059 0.80570
 H1749 H 0.22076 0.77497 0.75660
 H1750 H 0.24354 0.71074 0.76220
 H1751 H 0.28563 0.76358 0.77677
 H1752 H 0.26852 0.74900 0.71471
 H1753 H 0.19768 0.71873 0.75538
 H1754 H 0.24380 0.69320 0.72108
 H1755 H 0.27246 0.70305 0.71044
 H1756 H 0.31374 0.74854 0.72631
 H1757 H 0.19436 0.74896 0.77653
 H1758 H 0.23594 0.79679 0.79211
 H1759 H 0.26659 0.80405 0.78464
 H1760 H 0.31301 0.77768 0.74918
 H1761 H 0.20720 0.72152 0.78333
 H1762 H 0.26932 0.71161 0.80049
 H1763 H 0.23999 0.78572 0.70306
 H1764 H 0.30243 0.77659 0.72114
 Zr1765 Zr 0.26453 0.23910 0.22899
 O1766 O 0.25737 0.22415 0.20625
 O1767 O 0.29274 0.23925 0.22742
 O1768 O 0.27024 0.25299 0.20624
 O1769 O 0.26196 0.20255 0.25569
 O1770 O 0.25907 0.28150 0.21176
 O1771 O 0.27302 0.21168 0.23011
 O1772 O 0.30163 0.25570 0.25129
 O1773 O 0.27086 0.26511 0.23827
 O1774 O 0.27227 0.23660 0.25492
 O1775 O 0.24082 0.25482 0.22542
 O1776 O 0.24252 0.22706 0.24093
 Zr1777 Zr 0.23239 0.26740 0.27416
 Zr1778 Zr 0.24685 0.28038 0.23599
 Zr1779 Zr 0.25014 0.22603 0.26710
 Zr1780 Zr 0.27753 0.26250 0.26440
 O1781 O 0.23178 0.20456 0.26779
 O1782 O 0.29073 0.28701 0.25984
 O1783 O 0.25615 0.25158 0.27797
 O1784 O 0.25440 0.27908 0.26210
 O1785 O 0.22447 0.27006 0.24826
 O1786 O 0.22635 0.24142 0.26472
 C1787 C 0.30490 0.24644 0.23730
 C1788 C 0.27060 0.19964 0.24153
 C1789 C 0.26700 0.26950 0.20202
 O1790 O 0.26424 0.30270 0.23654
 O1791 O 0.23302 0.30320 0.24633
 O1792 O 0.22246 0.29434 0.27221
 C1793 C 0.22427 0.30611 0.26041
 O1794 O 0.21782 0.22721 0.21606
 Zr1795 Zr 0.21945 0.24399 0.23876
 O1796 O 0.20411 0.26737 0.27569
 O1797 O 0.22758 0.28941 0.21749
 O1798 O 0.20385 0.25829 0.22019
 O1799 O 0.20445 0.22072 0.24393
 O1800 O 0.19535 0.25310 0.25055
 C1801 C 0.19197 0.26164 0.26488
 O1802 O 0.23931 0.28342 0.29630
 O1803 O 0.27023 0.21605 0.28434
 O1804 O 0.22840 0.25400 0.29760
 O1805 O 0.24014 0.22564 0.29229
 O1806 O 0.29463 0.24811 0.28170
 O1807 O 0.27934 0.27664 0.28864
 C1808 C 0.23240 0.23772 0.30208
 H1809 H 0.28306 0.22867 0.25659
 H1810 H 0.25686 0.29122 0.26719
 H1811 H 0.21645 0.23590 0.27105
 H1812 H 0.23738 0.25539 0.21303
 H1813 H 0.30331 0.28571 0.26429
 H1814 H 0.25928 0.31134 0.22804
 H1815 H 0.23138 0.30149 0.21395
 H1816 H 0.19174 0.25283 0.21950
 H1817 H 0.30645 0.25417 0.28217
 H1818 H 0.26637 0.20395 0.28779
 H1819 H 0.23682 0.19586 0.27618
 H1820 H 0.19212 0.22260 0.23901
 H1821 H 0.29192 0.28057 0.29069
 H1822 H 0.22789 0.28670 0.30229
 H1823 H 0.26876 0.22063 0.20031
 H1824 H 0.20499 0.22580 0.21256
 Zr1825 Zr 0.73626 0.73042 0.26813
 O1826 O 0.75035 0.71139 0.28350
 O1827 O 0.71059 0.73081 0.27904
 O1828 O 0.73883 0.73997 0.29412
 O1829 O 0.72715 0.70014 0.23439
 O1830 O 0.75112 0.76775 0.29168
 O1831 O 0.72645 0.70403 0.26372
 O1832 O 0.69496 0.75206 0.26377
 O1833 O 0.72895 0.75788 0.26755
 O1834 O 0.71960 0.73352 0.24629
 O1835 O 0.76077 0.74416 0.26701
 O1836 O 0.75160 0.72050 0.24696
 Zr1837 Zr 0.75212 0.76624 0.22215
 Zr1838 Zr 0.75324 0.77145 0.26504
 Zr1839 Zr 0.73507 0.72518 0.22519
 Zr1840 Zr 0.71316 0.76089 0.24521
 O1841 O 0.75036 0.70419 0.21288
 O1842 O 0.70417 0.78413 0.25953
 O1843 O 0.72744 0.75249 0.22301
 O1844 O 0.73673 0.77580 0.24328
 O1845 O 0.76895 0.76324 0.24391
 O1846 O 0.75925 0.73879 0.22292
 C1847 C 0.69625 0.74022 0.27564
 C1848 C 0.72412 0.69452 0.24965
 C1849 C 0.74528 0.75478 0.30061
 O1850 O 0.73843 0.79371 0.27574
 O1851 O 0.76371 0.79550 0.25602
 O1852 O 0.76365 0.79191 0.22664
 C1853 C 0.76689 0.80102 0.24078
 O1854 O 0.78347 0.71437 0.26137
 Zr1855 Zr 0.77513 0.73570 0.24506
 O1856 O 0.77797 0.76617 0.21152
 O1857 O 0.77859 0.77590 0.27729
 O1858 O 0.79726 0.74503 0.26036
 O1859 O 0.78569 0.71379 0.22981
 O1860 O 0.79402 0.74664 0.22840
 C1861 C 0.79274 0.75815 0.21625
 O1862 O 0.73835 0.78615 0.20756
 O1863 O 0.70941 0.71915 0.21427
 O1864 O 0.74803 0.75744 0.19614
 O1865 O 0.73438 0.73031 0.19864
 O1866 O 0.69021 0.75091 0.23155
 O1867 O 0.70361 0.77999 0.22703
 C1868 C 0.74033 0.74324 0.18970
 H1869 H 0.70846 0.72638 0.24658
 H1870 H 0.73344 0.78875 0.24219
 H1871 H 0.76587 0.73443 0.21254
 H1872 H 0.76836 0.74203 0.27743
 H1873 H 0.69078 0.78408 0.25949
 H1874 H 0.74677 0.80023 0.28376
 H1875 H 0.77724 0.78705 0.28460
 H1876 H 0.80840 0.73927 0.25561
 H1877 H 0.67937 0.75697 0.23661
 H1878 H 0.71101 0.70808 0.20689
 H1879 H 0.74196 0.69767 0.20492
 H1880 H 0.79905 0.71433 0.23058
 H1881 H 0.69129 0.78426 0.23018
 H1882 H 0.74702 0.79049 0.19905
 H1883 H 0.74165 0.70700 0.29196
 H1884 H 0.79657 0.71184 0.25996
 Zr1885 Zr 0.76698 0.26331 0.77049
 O1886 O 0.76050 0.28015 0.79220
 O1887 O 0.79496 0.25946 0.77378
 O1888 O 0.77085 0.24978 0.79404
 O1889 O 0.76881 0.29835 0.74200
 O1890 O 0.75674 0.22300 0.78908
 O1891 O 0.77796 0.28938 0.76875
 O1892 O 0.80279 0.24011 0.75156
 O1893 O 0.77065 0.23609 0.76295
 O1894 O 0.77600 0.26300 0.74503
 O1895 O 0.74157 0.25156 0.77314
 O1896 O 0.74698 0.27765 0.75634
 Zr1897 Zr 0.73382 0.23723 0.72447
 Zr1898 Zr 0.74506 0.22475 0.76429
 Zr1899 Zr 0.75577 0.27586 0.73072
 Zr1900 Zr 0.77867 0.23597 0.73726
 O1901 O 0.73970 0.29943 0.72683
 O1902 O 0.78885 0.21017 0.74425
 O1903 O 0.75929 0.24904 0.72164
 O1904 O 0.75380 0.22319 0.73872
 O1905 O 0.72455 0.23745 0.74988
 O1906 O 0.73038 0.26441 0.73210
 C1907 C 0.80658 0.24991 0.76510
 C1908 C 0.77693 0.30104 0.75666
 C1909 C 0.76597 0.23403 0.79865
 O1910 O 0.75935 0.19975 0.76579
 O1911 O 0.72875 0.20388 0.75440
 O1912 O 0.72103 0.21211 0.72707
 C1913 C 0.72059 0.20119 0.73977
 O1914 O 0.72120 0.28264 0.77949
 Zr1915 Zr 0.72212 0.26457 0.75767
 O1916 O 0.70593 0.24152 0.72078
 O1917 O 0.72456 0.22018 0.78231
 O1918 O 0.70423 0.25368 0.77559
 O1919 O 0.71038 0.28966 0.75039
 O1920 O 0.69776 0.25880 0.74433
 C1921 C 0.69410 0.24991 0.73021
 O1922 O 0.73977 0.21896 0.70367
 O1923 O 0.77783 0.28215 0.71505
 O1924 O 0.73241 0.24955 0.70007
 O1925 O 0.74810 0.27546 0.70456
 O1926 O 0.79774 0.24655 0.72029
 O1927 O 0.77998 0.21997 0.71405
 C1928 C 0.73934 0.26424 0.69480
 H1929 H 0.78756 0.26927 0.74374
 H1930 H 0.75506 0.21050 0.73446
 H1931 H 0.72156 0.27095 0.72468
 H1932 H 0.73771 0.25223 0.78534
 H1933 H 0.80163 0.20925 0.74063
 H1934 H 0.75319 0.19260 0.77449
 H1935 H 0.72671 0.20785 0.78664
 H1936 H 0.69277 0.26084 0.77506
 H1937 H 0.80886 0.23888 0.72100
 H1938 H 0.77536 0.29439 0.71060
 H1939 H 0.74611 0.30670 0.71841
 H1940 H 0.69771 0.29001 0.75438
 H1941 H 0.79212 0.21416 0.71315
 H1942 H 0.72834 0.21705 0.69704
 H1943 H 0.77195 0.28243 0.79868
 H1944 H 0.70847 0.28603 0.78196
 C1945 C 0.44941 1.00869 0.31690
 C1946 C 0.45960 1.00702 0.33218
 C1947 C 0.46106 0.99040 0.34041
 C1948 C 0.45285 0.97522 0.33255
 C1949 C 0.44271 0.97687 0.31725
 C1950 C 0.44061 0.99369 0.30938
 C1951 C 0.47065 0.98957 0.35740
 C1952 C 0.46612 0.97799 0.36955
 C1953 C 0.47297 0.97923 0.38763
 C1954 C 0.46133 0.97452 0.40080
 C1955 C 0.46646 0.97685 0.41811
 C1956 C 0.48356 0.98351 0.42268
 C1957 C 0.49570 0.98726 0.40956
 C1958 C 0.49039 0.98529 0.39212
 H1959 H 0.44834 1.02175 0.31099
 H1960 H 0.46594 1.01889 0.33785
 H1961 H 0.45412 0.96206 0.33821
 H1962 H 0.43610 0.96505 0.31182
 H1963 H 0.48018 1.00008 0.36066
 H1964 H 0.45528 0.96868 0.36687
 H1965 H 0.44792 0.96966 0.39769
 H1966 H 0.45690 0.97371 0.42799
 H1967 H 0.50896 0.99241 0.41279
 H1968 H 0.49982 0.98863 0.38222
 C1969 C -0.05427 0.51128 0.82531
 C1970 C -0.04455 0.51021 0.84092
 C1971 C -0.04201 0.49366 0.84901
 C1972 C -0.04867 0.47798 0.84076
 C1973 C -0.05828 0.47895 0.82510
 C1974 C -0.06159 0.49568 0.81712
 C1975 C -0.03287 0.49329 0.86622
 C1976 C -0.03720 0.48147 0.87821
 C1977 C -0.03077 0.48291 0.89639
 C1978 C -0.04268 0.47834 0.90937
 C1979 C -0.03781 0.48067 0.92675
 C1980 C -0.02071 0.48714 0.93155
 C1981 C -0.00833 0.49083 0.91862
 C1982 C -0.01339 0.48891 0.90111
 H1983 H -0.05552 0.52438 0.81957
 H1984 H -0.03929 0.52247 0.84688
 H1985 H -0.04658 0.46488 0.84641
 H1986 H -0.06380 0.46652 0.81987
 H1987 H -0.02391 0.50422 0.86974
 H1988 H -0.04760 0.47174 0.87527
 H1989 H -0.05606 0.47356 0.90606
 H1990 H -0.04754 0.47761 0.93650
 H1991 H 0.00493 0.49584 0.92206
 H1992 H -0.00379 0.49218 0.89133
 C1993 C 0.04363 -0.00614 0.81326
 C1994 C 0.03435 -0.00371 0.82883
 C1995 C 0.04015 0.00900 0.84144
 C1996 C 0.05483 0.01996 0.83773
 C1997 C 0.06419 0.01739 0.82231
 C1998 C 0.05893 0.00409 0.81007
 C1999 C 0.03111 0.01010 0.85848
 C2000 C 0.03985 0.01553 0.87299
 C2001 C 0.03249 0.01475 0.89065
 C2002 C 0.04491 0.01411 0.90449
 C2003 C 0.03904 0.01289 0.92140
 C2004 C 0.02050 0.01251 0.92502
 C2005 C 0.00792 0.01376 0.91127
 C2006 C 0.01386 0.01479 0.89417
 H2007 H 0.03924 -0.01642 0.80397
 H2008 H 0.02296 -0.01217 0.83124
 H2009 H 0.05923 0.03051 0.84669
 H2010 H 0.07562 0.02583 0.81994
 H2011 H 0.01767 0.00473 0.85927
 H2012 H 0.05387 0.01926 0.87223
 H2013 H 0.05931 0.01423 0.90220
 H2014 H 0.04912 0.01218 0.93168
 H2015 H -0.00645 0.01358 0.91368
 H2016 H 0.00388 0.01572 0.88385
 C2017 C 0.58300 0.50814 0.33946
 C2018 C 0.57716 0.51227 0.35619
 C2019 C 0.55922 0.51785 0.35922
 C2020 C 0.54722 0.51953 0.34503
 C2021 C 0.55316 0.51561 0.32818
 C2022 C 0.57110 0.50974 0.32526
 C2023 C 0.55394 0.52187 0.37736
 C2024 C 0.53710 0.52044 0.38336
 C2025 C 0.53286 0.52146 0.40213
 C2026 C 0.51486 0.52429 0.40734
 C2027 C 0.51024 0.52350 0.42483
 C2028 C 0.52355 0.51968 0.43745
 C2029 C 0.54160 0.51741 0.43226
 C2030 C 0.54618 0.51815 0.41491
 H2031 H 0.59698 0.50399 0.33760
 H2032 H 0.58672 0.51095 0.36686
 H2033 H 0.53340 0.52416 0.34682
 H2034 H 0.54373 0.51703 0.31744
 H2035 H 0.56487 0.52511 0.38627
 H2036 H 0.52608 0.51752 0.37441
 H2037 H 0.50428 0.52670 0.39779
 H2038 H 0.49619 0.52519 0.42836
 H2039 H 0.55225 0.51441 0.44157
 H2040 H 0.56011 0.51525 0.41168
 C2041 C 0.56162 0.47438 0.17779
 C2042 C 0.55124 0.47172 0.16271
 C2043 C 0.53603 0.48278 0.15936
 C2044 C 0.53085 0.49601 0.17186
 C2045 C 0.54114 0.49856 0.18704
 C2046 C 0.55683 0.48800 0.19002
 C2047 C 0.52638 0.48064 0.14248
 C2048 C 0.51882 0.49473 0.13437
 C2049 C 0.51263 0.49372 0.11608
 C2050 C 0.51555 0.50862 0.10583
 C2051 C 0.51111 0.50800 0.08827
 C2052 C 0.50313 0.49265 0.08062
 C2053 C 0.49935 0.47797 0.09096
 C2054 C 0.50427 0.47840 0.10858
 H2055 H 0.57346 0.46582 0.17989
 H2056 H 0.55543 0.46134 0.15337
 H2057 H 0.51893 0.50447 0.16990
 H2058 H 0.53709 0.50911 0.19624
 H2059 H 0.52752 0.46769 0.13565
 H2060 H 0.51941 0.50806 0.14046
 H2061 H 0.52185 0.52060 0.11132
 H2062 H 0.51401 0.51956 0.08057
 H2063 H 0.49317 0.46601 0.08532
 H2064 H 0.50156 0.46683 0.11630
 C2065 C 0.04424 0.99434 0.67496
 C2066 C 0.03488 0.99192 0.65919
 C2067 C 0.04385 0.98511 0.64445
 C2068 C 0.06254 0.98134 0.64569
 C2069 C 0.07186 0.98376 0.66138
 C2070 C 0.06283 0.99012 0.67625
 C2071 C 0.03371 0.98305 0.62779
 C2072 C 0.03893 0.97138 0.61515
 C2073 C 0.03111 0.97118 0.59740
 C2074 C 0.04248 0.96603 0.58372
 C2075 C 0.03646 0.96724 0.56662
 C2076 C 0.01875 0.97319 0.56279
 C2077 C 0.00691 0.97725 0.57644
 C2078 C 0.01307 0.97640 0.59365
 H2079 H 0.03687 0.99922 0.68619
 H2080 H 0.02055 0.99521 0.65854
 H2081 H 0.07019 0.97691 0.63449
 H2082 H 0.08627 0.98089 0.66179
 H2083 H 0.02201 0.99182 0.62581
 H2084 H 0.05051 0.96250 0.61733
 H2085 H 0.05636 0.96180 0.58625
 H2086 H 0.04583 0.96393 0.55633
 H2087 H -0.00681 0.98190 0.57379
 H2088 H 0.00381 0.98000 0.60393
 C2089 C -0.04242 0.51528 0.68852
 C2090 C -0.03141 0.51699 0.67413
 C2091 C -0.03271 0.50477 0.65999
 C2092 C -0.04548 0.49097 0.66039
 C2093 C -0.05661 0.48940 0.67465
 C2094 C -0.05523 0.50155 0.68885
 C2095 C -0.02164 0.50735 0.64446
 C2096 C -0.01616 0.49339 0.63429
 C2097 C -0.00845 0.49508 0.61684
 C2098 C -0.00988 0.48016 0.60537
 C2099 C -0.00497 0.48140 0.58817
 C2100 C 0.00185 0.49750 0.58203
 C2101 C 0.00451 0.51213 0.59367
 C2102 C -0.00071 0.51099 0.61097
 H2103 H -0.04125 0.52497 0.69920
 H2104 H -0.02189 0.52788 0.67401
 H2105 H -0.04731 0.48167 0.64949
 H2106 H -0.06635 0.47869 0.67456
 H2107 H -0.01870 0.52106 0.64116
 H2108 H -0.01892 0.47982 0.63827
 H2109 H -0.01561 0.46769 0.60952
 H2110 H -0.00699 0.46985 0.57949
 H2111 H 0.00978 0.52468 0.58920
 H2112 H 0.00106 0.52264 0.61954
 C2113 C 0.42171 -0.00465 0.16193
 C2114 C 0.43002 -0.00413 0.14591
 C2115 C 0.44616 0.00519 0.14396
 C2116 C 0.45384 0.01406 0.15858
 C2117 C 0.44544 0.01356 0.17468
 C2118 C 0.42924 0.00423 0.17652
 C2119 C 0.45422 0.00487 0.12647
 C2120 C 0.46979 0.01251 0.12216
 C2121 C 0.47683 0.01084 0.10427
 C2122 C 0.48728 0.02462 0.09763
 C2123 C 0.49287 0.02374 0.08035
 C2124 C 0.48804 0.00903 0.06949
 C2125 C 0.47850 -0.00517 0.07645
 C2126 C 0.47315 -0.00439 0.09362
 H2127 H 0.40946 -0.01227 0.16291
 H2128 H 0.42381 -0.01121 0.13498
 H2129 H 0.46622 0.02141 0.15776
 H2130 H 0.45150 0.02069 0.18564
 H2131 H 0.44654 -0.00211 0.11641
 H2132 H 0.47729 0.02061 0.13150
 H2133 H 0.49060 0.03634 0.10566
 H2134 H 0.50031 0.03481 0.07533
 H2135 H 0.47500 -0.01691 0.06852
 H2136 H 0.46603 -0.01576 0.09845
 C2137 C 0.32657 0.39196 0.02301
 C2138 C 0.34257 0.40149 0.02551
 C2139 C 0.34598 0.41672 0.01578
 C2140 C 0.33303 0.42206 0.00326
 C2141 C 0.31703 0.41253 0.00078
 C2142 C 0.31361 0.39734 0.01059
 C2143 C 0.36349 0.42600 0.01845
 C2144 C 0.36631 0.44299 0.01369
 C2145 C 0.38418 0.45173 0.01470
 C2146 C 0.38754 0.46534 0.00302
 C2147 C 0.40434 0.47351 0.00281
 C2148 C 0.41816 0.46853 0.01450
 C2149 C 0.41465 0.45539 0.02670
 C2150 C 0.39783 0.44699 0.02676
 H2151 H 0.32428 0.38044 0.03094
 H2152 H 0.35231 0.39697 0.03514
 H2153 H 0.33533 0.43326 -0.00502
 H2154 H 0.30750 0.41681 -0.00913
 H2155 H 0.37447 0.41833 0.02431
 H2156 H 0.35534 0.45072 0.00790
 H2157 H 0.37724 0.46938 -0.00628
 H2158 H 0.40653 0.48371 -0.00665
 H2159 H 0.42505 0.45130 0.03589
 H2160 H 0.39557 0.43691 0.03628
 C2161 C -0.16642 0.89122 0.51141
 C2162 C -0.15003 0.90016 0.51341
 C2163 C -0.14619 0.91491 0.50321
 C2164 C -0.15910 0.92039 0.49072
 C2165 C -0.17549 0.91143 0.48871
 C2166 C -0.17934 0.89670 0.49899
 C2167 C -0.12831 0.92356 0.50540
 C2168 C -0.12507 0.94043 0.50058
 C2169 C -0.10694 0.94869 0.50139
 C2170 C -0.10362 0.96275 0.49019
 C2171 C -0.08665 0.97056 0.48982
 C2172 C -0.07256 0.96469 0.50085
 C2173 C -0.07601 0.95106 0.51256
 C2174 C -0.09303 0.94309 0.51282
 H2175 H -0.16902 0.88008 0.51971
 H2176 H -0.14032 0.89556 0.52304
 H2177 H -0.15647 0.93124 0.48213
 H2178 H -0.18499 0.91577 0.47880
 H2179 H -0.11749 0.91552 0.51106
 H2180 H -0.13595 0.94847 0.49503
 H2181 H -0.11411 0.96747 0.48139
 H2182 H -0.08454 0.98115 0.48075
 H2183 H -0.06545 0.94629 0.52126
 H2184 H -0.09520 0.93268 0.52202
 C2185 C -0.17226 0.09443 1.00852
 C2186 C -0.15616 0.08425 1.00780
 C2187 C -0.14902 0.07822 0.99194
 C2188 C -0.15858 0.08241 0.97669
 C2189 C -0.17476 0.09259 0.97736
 C2190 C -0.18197 0.09893 0.99331
 C2191 C -0.13201 0.06715 0.99217
 C2192 C -0.12146 0.06366 0.97842
 C2193 C -0.10437 0.05276 0.97957
 C2194 C -0.09045 0.05558 0.96786
 C2195 C -0.07387 0.04614 0.96925
 C2196 C -0.07093 0.03365 0.98239
 C2197 C -0.08515 0.03027 0.99360
 C2198 C -0.10169 0.03957 0.99214
 H2199 H -0.17728 0.09804 1.02122
 H2200 H -0.14928 0.08099 1.01981
 H2201 H -0.15379 0.07777 0.96418
 H2202 H -0.18112 0.09591 0.96516
 H2203 H -0.12762 0.06229 1.00464
 H2204 H -0.12473 0.06974 0.96619
 H2205 H -0.09224 0.06547 0.95789
 H2206 H -0.06319 0.04904 0.96040
 H2207 H -0.08348 0.02047 1.00365
 H2208 H -0.11230 0.03633 1.00090
 C2209 C 0.34217 0.61284 0.50201
 C2210 C 0.35898 0.60396 0.50053
 C2211 C 0.36013 0.58552 0.49586
 C2212 C 0.34404 0.57621 0.49228
 C2213 C 0.32722 0.58514 0.49363
 C2214 C 0.32608 0.60354 0.49860
 C2215 C 0.37827 0.57659 0.49458
 C2216 C 0.38118 0.55893 0.49721
 C2217 C 0.39943 0.55019 0.49734
 C2218 C 0.40243 0.53509 0.50760
 C2219 C 0.41945 0.52662 0.50846
 C2220 C 0.43387 0.53282 0.49877
 C2221 C 0.43078 0.54762 0.48805
 C2222 C 0.41374 0.55629 0.48739
 H2223 H 0.34177 0.62709 0.50555
 H2224 H 0.37114 0.61150 0.50319
 H2225 H 0.34437 0.56211 0.48819
 H2226 H 0.31507 0.57760 0.49090
 H2227 H 0.38971 0.58515 0.49268
 H2228 H 0.36998 0.55073 0.50081
 H2229 H 0.39161 0.53001 0.51525
 H2230 H 0.42132 0.51515 0.51673
 H2231 H 0.44160 0.55270 0.48042
 H2232 H 0.41178 0.56761 0.47898
 C2233 C 0.16861 0.61006 0.49404
 C2234 C 0.15229 0.60107 0.49516
 C2235 C 0.15028 0.58730 0.50703
 C2236 C 0.16512 0.58258 0.51772
 C2237 C 0.18155 0.59152 0.51650
 C2238 C 0.18347 0.60538 0.50465
 C2239 C 0.13294 0.57755 0.50691
 C2240 C 0.12698 0.56786 0.52002
 C2241 C 0.10986 0.55769 0.51873
 C2242 C 0.10001 0.55449 0.53369
 C2243 C 0.08384 0.54488 0.53264
 C2244 C 0.07733 0.53812 0.51659
 C2245 C 0.08746 0.54107 0.50173
 C2246 C 0.10349 0.55062 0.50278
 H2247 H 0.16970 0.62048 0.48461
 H2248 H 0.14118 0.60484 0.48663
 H2249 H 0.16427 0.57175 0.52673
 H2250 H 0.19273 0.58767 0.52491
 H2251 H 0.12443 0.57892 0.49549
 H2252 H 0.13441 0.56778 0.53217
 H2253 H 0.10474 0.55959 0.54617
 H2254 H 0.07644 0.54280 0.54435
 H2255 H 0.08309 0.53590 0.48915
 H2256 H 0.11101 0.55214 0.49106
 C2257 C 0.66254 0.11085 -0.01478
 C2258 C 0.64599 0.10219 -0.01419
 C2259 C 0.64343 0.08819 -0.00269
 C2260 C 0.65795 0.08284 0.00812
 C2261 C 0.67461 0.09141 0.00740
 C2262 C 0.67707 0.10554 -0.00404
 C2263 C 0.62588 0.07884 -0.00326
 C2264 C 0.61929 0.06958 0.00983
 C2265 C 0.60201 0.05975 0.00823
 C2266 C 0.59154 0.05723 0.02293
 C2267 C 0.57525 0.04786 0.02162
 C2268 C 0.56927 0.04061 0.00558
 C2269 C 0.57998 0.04292 -0.00903
 C2270 C 0.59611 0.05228 -0.00772
 H2271 H 0.66408 0.12153 -0.02388
 H2272 H 0.63512 0.10643 -0.02280
 H2273 H 0.65664 0.07180 0.01683
 H2274 H 0.68555 0.08709 0.01589
 H2275 H 0.61779 0.08019 -0.01496
 H2276 H 0.62633 0.06962 0.02220
 H2277 H 0.59589 0.06267 0.03542
 H2278 H 0.56740 0.04628 0.03314
 H2279 H 0.57599 0.03741 -0.02160
 H2280 H 0.60410 0.05333 -0.01923
 C2281 C 0.67070 0.90284 0.47063
 C2282 C 0.65480 0.91323 0.46860
 C2283 C 0.64882 0.92515 0.48187
 C2284 C 0.65948 0.92679 0.49709
 C2285 C 0.67527 0.91629 0.49916
 C2286 C 0.68101 0.90412 0.48602
 C2287 C 0.63164 0.93570 0.47921
 C2288 C 0.62231 0.94367 0.49219
 C2289 C 0.60510 0.95417 0.49007
 C2290 C 0.59992 0.96604 0.50363
 C2291 C 0.58333 0.97531 0.50312
 C2292 C 0.57127 0.97288 0.48905
 C2293 C 0.57657 0.96133 0.47519
 C2294 C 0.59331 0.95203 0.47569
 H2295 H 0.67473 0.89352 0.46029
 H2296 H 0.64702 0.91177 0.45669
 H2297 H 0.65596 0.93628 0.50741
 H2298 H 0.68316 0.91789 0.51099
 H2299 H 0.62648 0.93661 0.46610
 H2300 H 0.62737 0.94263 0.50530
 H2301 H 0.60868 0.96797 0.51486
 H2302 H 0.57981 0.98411 0.51402
 H2303 H 0.56755 0.95902 0.46423
 H2304 H 0.59660 0.94274 0.46511
 C2305 C 0.16431 0.40050 0.98031
 C2306 C 0.14826 0.41070 0.97846
 C2307 C 0.14167 0.42163 0.99220
 C2308 C 0.15185 0.42245 1.00777
 C2309 C 0.16781 0.41217 1.00964
 C2310 C 0.17421 0.40102 0.99598
 C2311 C 0.12448 0.43218 0.98966
 C2312 C 0.11446 0.43880 1.00281
 C2313 C 0.09746 0.44969 1.00087
 C2314 C 0.09177 0.46025 1.01516
 C2315 C 0.07548 0.47005 1.01466
 C2316 C 0.06421 0.46948 0.99984
 C2317 C 0.06996 0.45910 0.98534
 C2318 C 0.08643 0.44928 0.98583
 H2319 H 0.16882 0.39197 0.96956
 H2320 H 0.14086 0.40989 0.96628
 H2321 H 0.14783 0.43122 1.01849
 H2322 H 0.17535 0.41320 1.02173
 H2323 H 0.11997 0.43433 0.97650
 H2324 H 0.11889 0.43641 1.01593
 H2325 H 0.09992 0.46083 1.02691
 H2326 H 0.07162 0.47788 1.02609
 H2327 H 0.06156 0.45822 0.97377
 H2328 H 0.09013 0.44101 0.97465
 C2329 C 0.01674 0.31471 0.43522
 C2330 C 0.01829 0.33166 0.44335
 C2331 C 0.00896 0.34673 0.43681
 C2332 C -0.00199 0.34454 0.42190
 C2333 C -0.00354 0.32757 0.41376
 C2334 C 0.00593 0.31253 0.42026
 C2335 C 0.01168 0.36451 0.44549
 C2336 C -0.00015 0.37840 0.44442
 C2337 C 0.00265 0.39607 0.45333
 C2338 C -0.00652 0.41136 0.44705
 C2339 C -0.00454 0.42823 0.45531
 C2340 C 0.00661 0.43010 0.47010
 C2341 C 0.01577 0.41478 0.47639
 C2342 C 0.01373 0.39793 0.46820
 H2343 H 0.02408 0.30331 0.44057
 H2344 H 0.02685 0.33302 0.45479
 H2345 H -0.00892 0.35590 0.41610
 H2346 H -0.01164 0.32633 0.40202
 H2347 H 0.02393 0.36595 0.45318
 H2348 H -0.01236 0.37700 0.43666
 H2349 H -0.01524 0.41025 0.43571
 H2350 H -0.01185 0.43976 0.45017
 H2351 H 0.02425 0.41568 0.48791
 H2352 H 0.02050 0.38641 0.47389
 C2353 C 0.51584 -0.18644 -0.06675
 C2354 C 0.51633 -0.16952 -0.05834
 C2355 C 0.50699 -0.15466 -0.06529
 C2356 C 0.49727 -0.15698 -0.08095
 C2357 C 0.49677 -0.17388 -0.08933
 C2358 C 0.50608 -0.18875 -0.08234
 C2359 C 0.50841 -0.13685 -0.05635
 C2360 C 0.49589 -0.12364 -0.05801
 C2361 C 0.49762 -0.10548 -0.04983
 C2362 C 0.48791 -0.09103 -0.05709
 C2363 C 0.48913 -0.07363 -0.04987
 C2364 C 0.50003 -0.07033 -0.03512
 C2365 C 0.50961 -0.08485 -0.02772
 C2366 C 0.50836 -0.10226 -0.03494
 H2367 H 0.52308 -0.19772 -0.06106
 H2368 H 0.52401 -0.16803 -0.04637
 H2369 H 0.49051 -0.14573 -0.08711
 H2370 H 0.48954 -0.17518 -0.10156
 H2371 H 0.52024 -0.13473 -0.04823
 H2372 H 0.48403 -0.12590 -0.06608
 H2373 H 0.47944 -0.09320 -0.06848
 H2374 H 0.48149 -0.06278 -0.05584
 H2375 H 0.51793 -0.08283 -0.01622
 H2376 H 0.51555 -0.11312 -0.02857
 C2377 C -0.00323 -0.18049 1.06125
 C2378 C -0.00126 -0.16607 1.05024
 C2379 C 0.01102 -0.15240 1.05443
 C2380 C 0.02223 -0.15403 1.06917
 C2381 C 0.02019 -0.16833 1.08020
 C2382 C 0.00714 -0.18142 1.07657
 C2383 C 0.01119 -0.13622 1.04374
 C2384 C 0.01475 -0.11986 1.05065
 C2385 C 0.01331 -0.10288 1.04114
 C2386 C 0.02178 -0.08762 1.04836
 C2387 C 0.01987 -0.07094 1.04061
 C2388 C 0.00932 -0.06912 1.02548
 C2389 C 0.00094 -0.08443 1.01813
 C2390 C 0.00286 -0.10115 1.02590
 H2391 H -0.01334 -0.19048 1.05818
 H2392 H -0.00988 -0.16518 1.03883
 H2393 H 0.03243 -0.14417 1.07236
 H2394 H 0.02868 -0.16909 1.09170
 H2395 H 0.00711 -0.13778 1.03031
 H2396 H 0.01847 -0.11858 1.06421
 H2397 H 0.02979 -0.08858 1.06015
 H2398 H 0.02654 -0.05944 1.04663
 H2399 H -0.00735 -0.08346 1.00653
 H2400 H -0.00433 -0.11244 1.02018
 C2401 C 0.49301 0.31777 0.55574
 C2402 C 0.49539 0.33163 0.54425
 C2403 C 0.51238 0.33936 0.54266
 C2404 C 0.52732 0.33192 0.55163
 C2405 C 0.52494 0.31805 0.56314
 C2406 C 0.50763 0.31131 0.56575
 C2407 C 0.51354 0.35613 0.53292
 C2408 C 0.52497 0.36922 0.53768
 C2409 C 0.52296 0.38794 0.53174
 C2410 C 0.52948 0.40191 0.54258
 C2411 C 0.52641 0.41991 0.53844
 C2412 C 0.51683 0.42433 0.52326
 C2413 C 0.51090 0.41033 0.51205
 C2414 C 0.51401 0.39229 0.51619
 H2415 H 0.47961 0.31246 0.55718
 H2416 H 0.48373 0.33697 0.53728
 H2417 H 0.54074 0.33714 0.55020
 H2418 H 0.53647 0.31321 0.57060
 H2419 H 0.50284 0.35883 0.52360
 H2420 H 0.53454 0.36696 0.54816
 H2421 H 0.53651 0.39891 0.55458
 H2422 H 0.53136 0.43034 0.54728
 H2423 H 0.50380 0.41327 0.50008
 H2424 H 0.50935 0.38189 0.50720
 C2425 C 0.46343 1.17386 0.58896
 C2426 C 0.46094 1.15715 0.58047
 C2427 C 0.47397 1.15012 0.56900
 C2428 C 0.48984 1.15978 0.56661
 C2429 C 0.49230 1.17643 0.57501
 C2430 C 0.47908 1.18370 0.58614
 C2431 C 0.47121 1.13232 0.56038
 C2432 C 0.47873 1.12781 0.54518
 C2433 C 0.47865 1.10948 0.53707
 C2434 C 0.48565 1.10718 0.52038
 C2435 C 0.48778 1.08997 0.51281
 C2436 C 0.48289 1.07465 0.52178
 C2437 C 0.47533 1.07695 0.53825
 C2438 C 0.47332 1.09415 0.54588
 H2439 H 0.45304 1.17921 0.59749
 H2440 H 0.44874 1.14980 0.58272
 H2441 H 0.50060 1.15440 0.55854
 H2442 H 0.50471 1.18352 0.57300
 H2443 H 0.46270 1.12299 0.56678
 H2444 H 0.48577 1.13802 0.53834
 H2445 H 0.48992 1.11872 0.51332
 H2446 H 0.49354 1.08866 0.50005
 H2447 H 0.47150 1.06540 0.54553
 H2448 H 0.46819 1.09513 0.55886
 C2449 C 0.00912 0.67498 1.09322
 C2450 C 0.00882 0.65882 1.08353
 C2451 C -0.00679 0.65382 1.07423
 C2452 C -0.02210 0.66541 1.07462
 C2453 C -0.02177 0.68161 1.08426
 C2454 C -0.00615 0.68658 1.09363
 C2455 C -0.00638 0.63682 1.06383
 C2456 C -0.02117 0.62733 1.05996
 C2457 C -0.02020 0.60995 1.05020
 C2458 C -0.03233 0.59641 1.05399
 C2459 C -0.03099 0.57945 1.04571
 C2460 C -0.01763 0.57585 1.03328
 C2461 C -0.00602 0.58973 1.02893
 C2462 C -0.00729 0.60662 1.03731
 H2463 H 0.02129 0.67837 1.10045
 H2464 H 0.02079 0.65013 1.08335
 H2465 H -0.03417 0.66226 1.06715
 H2466 H -0.03360 0.69049 1.08402
 H2467 H 0.00677 0.63142 1.06012
 H2468 H -0.03412 0.63160 1.06517
 H2469 H -0.04252 0.59880 1.06373
 H2470 H -0.04027 0.56911 1.04920
 H2471 H 0.00430 0.58746 1.01930
 H2472 H 0.00185 0.61702 1.03368
 C2473 C 0.53030 0.65775 -0.08956
 C2474 C 0.52962 0.64162 -0.08073
 C2475 C 0.51883 0.64040 -0.06609
 C2476 C 0.50881 0.65572 -0.06033
 C2477 C 0.50954 0.67183 -0.06912
 C2478 C 0.52012 0.67294 -0.08392
 C2479 C 0.51737 0.62265 -0.05804
 C2480 C 0.51141 0.62053 -0.04198
 C2481 C 0.50844 0.60260 -0.03480
 C2482 C 0.49541 0.60105 -0.02201
 C2483 C 0.49176 0.58425 -0.01530
 C2484 C 0.50120 0.56866 -0.02122
 C2485 C 0.51454 0.57029 -0.03377
 C2486 C 0.51821 0.58708 -0.04042
 H2487 H 0.53864 0.65830 -0.10090
 H2488 H 0.53737 0.62999 -0.08548
 H2489 H 0.49980 0.65526 -0.04951
 H2490 H 0.50122 0.68323 -0.06475
 H2491 H 0.52092 0.61090 -0.06601
 H2492 H 0.50774 0.63218 -0.03395
 H2493 H 0.48783 0.61286 -0.01738
 H2494 H 0.48150 0.58347 -0.00555
 H2495 H 0.52233 0.55862 -0.03837
 H2496 H 0.52886 0.58782 -0.04976
 C2497 C 0.03532 1.16029 0.41165
 C2498 C 0.03769 1.14440 0.42072
 C2499 C 0.03170 1.14344 0.43771
 C2500 C 0.02453 1.15903 0.44598
 C2501 C 0.02230 1.17501 0.43701
 C2502 C 0.02710 1.17581 0.41945
 C2503 C 0.03228 1.12575 0.44600
 C2504 C 0.01943 1.12079 0.45679
 C2505 C 0.01767 1.10211 0.46269
 C2506 C 0.00745 1.09917 0.47741
 C2507 C 0.00439 1.08163 0.48268
 C2508 C 0.01139 1.06666 0.47320
 C2509 C 0.02166 1.06963 0.45847
 C2510 C 0.02469 1.08712 0.45322
 H2511 H 0.04022 1.16033 0.39856
 H2512 H 0.04362 1.13261 0.41422
 H2513 H 0.02029 1.15885 0.45929
 H2514 H 0.01570 1.18627 0.44371
 H2515 H 0.04261 1.11613 0.44177
 H2516 H 0.00912 1.13052 0.46090
 H2517 H 0.00170 1.11048 0.48479
 H2518 H -0.00358 1.07982 0.49409
 H2519 H 0.02718 1.05843 0.45080
 H2520 H 0.03204 1.08869 0.44142
 C2521 C 0.73034 0.67079 0.90981
 C2522 C 0.73071 0.67882 0.89375
 C2523 C 0.73470 0.69716 0.89244
 C2524 C 0.73839 0.70737 0.90768
 C2525 C 0.73815 0.69925 0.92384
 C2526 C 0.73411 0.68086 0.92506
 C2527 C 0.73626 0.70445 0.87489
 C2528 C 0.73525 0.72202 0.87105
 C2529 C 0.73801 0.72800 0.85313
 C2530 C 0.72867 0.74327 0.84686
 C2531 C 0.73079 0.74849 0.82969
 C2532 C 0.74246 0.73858 0.81859
 C2533 C 0.75226 0.72375 0.82520
 C2534 C 0.75015 0.71860 0.84219
 H2535 H 0.72750 0.65653 0.91026
 H2536 H 0.72804 0.67058 0.88224
 H2537 H 0.74194 0.72144 0.90715
 H2538 H 0.74108 0.70735 0.93538
 H2539 H 0.73795 0.69454 0.86442
 H2540 H 0.73179 0.73211 0.88092
 H2541 H 0.71943 0.75091 0.85513
 H2542 H 0.72315 0.76006 0.82506
 H2543 H 0.76168 0.71597 0.81724
 H2544 H 0.75818 0.70727 0.84676
 C2545 C 0.24302 0.20240 0.43061
 C2546 C 0.24142 0.21240 0.41553
 C2547 C 0.23656 0.20399 0.39968
 C2548 C 0.23405 0.18519 0.39912
 C2549 C 0.23567 0.17523 0.41412
 C2550 C 0.23995 0.18371 0.43010
 C2551 C 0.23510 0.21481 0.38382
 C2552 C 0.22453 0.20999 0.37026
 C2553 C 0.22496 0.21847 0.35315
 C2554 C 0.22085 0.20764 0.33852
 C2555 C 0.22260 0.21425 0.32196
 C2556 C 0.22806 0.23204 0.31963
 C2557 C 0.23110 0.24335 0.33423
 C2558 C 0.22971 0.23658 0.35091
 H2559 H 0.24629 0.20935 0.44272
 H2560 H 0.24373 0.22680 0.41628
 H2561 H 0.23119 0.17800 0.38705
 H2562 H 0.23376 0.16077 0.41315
 H2563 H 0.24334 0.22667 0.38322
 H2564 H 0.21615 0.19827 0.37116
 H2565 H 0.21700 0.19373 0.33987
 H2566 H 0.22008 0.20529 0.31091
 H2567 H 0.23537 0.25710 0.33273
 H2568 H 0.23252 0.24544 0.36195
 C2569 C 0.78003 0.32312 0.42351
 C2570 C 0.78300 0.31432 0.40761
 C2571 C 0.77296 0.29919 0.40246
 C2572 C 0.76018 0.29264 0.41391
 C2573 C 0.75726 0.30145 0.42994
 C2574 C 0.76689 0.31703 0.43470
 C2575 C 0.77501 0.29213 0.38445
 C2576 C 0.76819 0.27665 0.37800
 C2577 C 0.76805 0.27241 0.35914
 C2578 C 0.76894 0.25441 0.35289
 C2579 C 0.76807 0.25041 0.33504
 C2580 C 0.76593 0.26440 0.32321
 C2581 C 0.76500 0.28236 0.32958
 C2582 C 0.76597 0.28631 0.34724
 H2583 H 0.78792 0.33487 0.42698
 H2584 H 0.79292 0.31968 0.39909
 H2585 H 0.75190 0.28124 0.41034
 H2586 H 0.74699 0.29652 0.43831
 H2587 H 0.78220 0.30062 0.37582
 H2588 H 0.76240 0.26701 0.38644
 H2589 H 0.77030 0.24345 0.36182
 H2590 H 0.76870 0.23644 0.33054
 H2591 H 0.76331 0.29352 0.32091
 H2592 H 0.76455 0.30030 0.35154
 C2593 C 0.25038 0.82926 0.91987
 C2594 C 0.25241 0.82146 0.90338
 C2595 C 0.26087 0.80443 0.90101
 C2596 C 0.26723 0.79528 0.91569
 C2597 C 0.26514 0.80311 0.93228
 C2598 C 0.25672 0.82023 0.93456
 C2599 C 0.26309 0.79739 0.88296
 C2600 C 0.26960 0.78092 0.87821
 C2601 C 0.27120 0.77528 0.85969
 C2602 C 0.26908 0.75707 0.85454
 C2603 C 0.26876 0.75190 0.83693
 C2604 C 0.27057 0.76492 0.82426
 C2605 C 0.27394 0.78286 0.82951
 C2606 C 0.27444 0.78795 0.84698
 H2607 H 0.24420 0.84262 0.92104
 H2608 H 0.24749 0.82893 0.89236
 H2609 H 0.27401 0.78224 0.91454
 H2610 H 0.27008 0.79574 0.94334
 H2611 H 0.25859 0.80640 0.87292
 H2612 H 0.27289 0.77100 0.88780
 H2613 H 0.26691 0.74698 0.86410
 H2614 H 0.26623 0.73796 0.83323
 H2615 H 0.27583 0.79312 0.82003
 H2616 H 0.27710 0.80191 0.85044
 C2617 C 0.23388 0.82536 0.08269
 C2618 C 0.23094 0.81534 0.09738
 C2619 C 0.23797 0.79772 0.09866
 C2620 C 0.24737 0.78996 0.08458
 C2621 C 0.25011 0.79985 0.06973
 C2622 C 0.24371 0.81791 0.06856
 C2623 C 0.23556 0.78806 0.11498
 C2624 C 0.24804 0.77645 0.12117
 C2625 C 0.24754 0.76972 0.13898
 C2626 C 0.26386 0.76826 0.14832
 C2627 C 0.26396 0.76359 0.16565
 C2628 C 0.24779 0.75971 0.17386
 C2629 C 0.23149 0.76013 0.16433
 C2630 C 0.23133 0.76532 0.14701
 H2631 H 0.22782 0.83877 0.08236
 H2632 H 0.22341 0.82155 0.10796
 H2633 H 0.25266 0.77624 0.08499
 H2634 H 0.25803 0.79342 0.05958
 H2635 H 0.22431 0.79226 0.12306
 H2636 H 0.26026 0.77372 0.11395
 H2637 H 0.27652 0.77147 0.14239
 H2638 H 0.27669 0.76327 0.17276
 H2639 H 0.21887 0.75722 0.17046
 H2640 H 0.21858 0.76602 0.13998
 C2641 C 0.76913 0.30740 0.57388
 C2642 C 0.76810 0.29814 0.58930
 C2643 C 0.75146 0.29581 0.59724
 C2644 C 0.73569 0.30254 0.58916
 C2645 C 0.73667 0.31194 0.57381
 C2646 C 0.75349 0.31497 0.56601
 C2647 C 0.75141 0.28824 0.61476
 C2648 C 0.73688 0.28142 0.62222
 C2649 C 0.73715 0.27696 0.64077
 C2650 C 0.72730 0.26240 0.64666
 C2651 C 0.72773 0.25818 0.66425
 C2652 C 0.73775 0.26872 0.67624
 C2653 C 0.74704 0.28365 0.67027
 C2654 C 0.74674 0.28771 0.65283
 H2655 H 0.78246 0.30952 0.56892
 H2656 H 0.78050 0.29325 0.59537
 H2657 H 0.72260 0.30121 0.59496
 H2658 H 0.72407 0.31660 0.56805
 H2659 H 0.76402 0.28873 0.62205
 H2660 H 0.72461 0.27908 0.61476
 H2661 H 0.71955 0.25412 0.63761
 H2662 H 0.72035 0.24666 0.66842
 H2663 H 0.75480 0.29223 0.67904
 H2664 H 0.75391 0.29944 0.64885
 C2665 C 0.22178 0.17713 0.57686
 C2666 C 0.22124 0.18561 0.59318
 C2667 C 0.23273 0.19994 0.59755
 C2668 C 0.24459 0.20590 0.58494
 C2669 C 0.24511 0.19738 0.56853
 C2670 C 0.23392 0.18271 0.56442
 C2671 C 0.23229 0.20736 0.61561
 C2672 C 0.24054 0.22240 0.62146
 C2673 C 0.24020 0.22840 0.63997
 C2674 C 0.25444 0.23872 0.64694
 C2675 C 0.25520 0.24328 0.66466
 C2676 C 0.24171 0.23755 0.67570
 C2677 C 0.22698 0.22811 0.66855
 C2678 C 0.22612 0.22376 0.65091
 H2679 H 0.21276 0.16608 0.57401
 H2680 H 0.21190 0.18075 0.60255
 H2681 H 0.25386 0.21670 0.58773
 H2682 H 0.25474 0.20186 0.55927
 H2683 H 0.22500 0.19950 0.62465
 H2684 H 0.24845 0.23016 0.61284
 H2685 H 0.26531 0.24273 0.63877
 H2686 H 0.26668 0.25063 0.66980
 H2687 H 0.21615 0.22389 0.67666
 H2688 H 0.21441 0.21667 0.64598
 C2689 C 0.72190 0.67528 0.07531
 C2690 C 0.72148 0.68429 0.09136
 C2691 C 0.72927 0.70126 0.09388
 C2692 C 0.73715 0.70930 0.07967
 C2693 C 0.73758 0.70028 0.06348
 C2694 C 0.73022 0.68289 0.06100
 C2695 C 0.72874 0.70961 0.11158
 C2696 C 0.73670 0.72504 0.11678
 C2697 C 0.73638 0.73165 0.13512
 C2698 C 0.75064 0.74210 0.14185
 C2699 C 0.75158 0.74682 0.15953
 C2700 C 0.73827 0.74106 0.17074
 C2701 C 0.72345 0.73164 0.16382
 C2702 C 0.72236 0.72720 0.14622
 H2703 H 0.71508 0.66253 0.07421
 H2704 H 0.71499 0.67784 0.10194
 H2705 H 0.74318 0.72244 0.08089
 H2706 H 0.74449 0.70677 0.05323
 H2707 H 0.72195 0.70191 0.12111
 H2708 H 0.74468 0.73240 0.10790
 H2709 H 0.76146 0.74598 0.13354
 H2710 H 0.76313 0.75415 0.16456
 H2711 H 0.71279 0.72740 0.17214
 H2712 H 0.71062 0.72005 0.14146
 C2713 C 0.14118 0.59040 0.26035
 C2714 C 0.15015 0.60676 0.25957
 C2715 C 0.16480 0.60857 0.24851
 C2716 C 0.17049 0.59348 0.23835
 C2717 C 0.16161 0.57700 0.23927
 C2718 C 0.14680 0.57531 0.25024
 C2719 C 0.17437 0.62601 0.24887
 C2720 C 0.18431 0.63192 0.23588
 C2721 C 0.19420 0.64921 0.23721
 C2722 C 0.19764 0.65879 0.22224
 C2723 C 0.20720 0.67499 0.22325
 C2724 C 0.21374 0.68177 0.23928
 C2725 C 0.21042 0.67199 0.25420
 C2726 C 0.20086 0.65595 0.25318
 H2727 H 0.12999 0.58947 0.26910
 H2728 H 0.14562 0.61807 0.26770
 H2729 H 0.18202 0.59422 0.23000
 H2730 H 0.16621 0.56561 0.23129
 H2731 H 0.17254 0.63464 0.26027
 H2732 H 0.18478 0.62430 0.22375
 H2733 H 0.19284 0.65379 0.20974
 H2734 H 0.20959 0.68208 0.21150
 H2735 H 0.21532 0.67663 0.26678
 H2736 H 0.19908 0.64868 0.26494
 C2737 C 0.66903 0.07211 0.74772
 C2738 C 0.67913 0.08783 0.74720
 C2739 C 0.67156 0.10388 0.74084
 C2740 C 0.65349 0.10385 0.73498
 C2741 C 0.64330 0.08814 0.73554
 C2742 C 0.65078 0.07187 0.74202
 C2743 C 0.68269 0.12043 0.74157
 C2744 C 0.67901 0.13548 0.73272
 C2745 C 0.69003 0.15207 0.73453
 C2746 C 0.68994 0.16445 0.72109
 C2747 C 0.69991 0.18036 0.72260
 C2748 C 0.71006 0.18432 0.73772
 C2749 C 0.70991 0.17199 0.75123
 C2750 C 0.70001 0.15617 0.74970
 H2751 H 0.67553 0.06047 0.75344
 H2752 H 0.69295 0.08747 0.75205
 H2753 H 0.64696 0.11597 0.73023
 H2754 H 0.62966 0.08888 0.73036
 H2755 H 0.69478 0.11987 0.74960
 H2756 H 0.66792 0.13566 0.72344
 H2757 H 0.68219 0.16178 0.70933
 H2758 H 0.69958 0.18958 0.71199
 H2759 H 0.71738 0.17459 0.76316
 H2760 H 0.69994 0.14742 0.76065
 C2761 C 0.84559 0.07410 0.27303
 C2762 C 0.83647 0.09074 0.27544
 C2763 C 0.82536 0.09779 0.26228
 C2764 C 0.82296 0.08741 0.24689
 C2765 C 0.83214 0.07087 0.24445
 C2766 C 0.84371 0.06411 0.25740
 C2767 C 0.81635 0.11579 0.26504
 C2768 C 0.81130 0.12627 0.25188
 C2769 C 0.80192 0.14415 0.25361
 C2770 C 0.79297 0.15071 0.23892
 C2771 C 0.78460 0.16773 0.23923
 C2772 C 0.78504 0.17888 0.25425
 C2773 C 0.79381 0.17230 0.26914
 C2774 C 0.80219 0.15507 0.26885
 H2775 H 0.85446 0.06926 0.28324
 H2776 H 0.83840 0.09830 0.28750
 H2777 H 0.81386 0.09184 0.23672
 H2778 H 0.83006 0.06326 0.23245
 H2779 H 0.81421 0.12051 0.27823
 H2780 H 0.81397 0.12153 0.23880
 H2781 H 0.79253 0.14264 0.22702
 H2782 H 0.77797 0.17220 0.22748
 H2783 H 0.79451 0.18058 0.28089
 H2784 H 0.80924 0.15065 0.28037
 C2785 C 0.34925 0.57417 0.77714
 C2786 C 0.33983 0.59070 0.77913
 C2787 C 0.32909 0.59751 0.76557
 C2788 C 0.32755 0.58706 0.75012
 C2789 C 0.33706 0.57064 0.74810
 C2790 C 0.34812 0.56406 0.76152
 C2791 C 0.31949 0.61527 0.76811
 C2792 C 0.31370 0.62535 0.75489
 C2793 C 0.30361 0.64284 0.75668
 C2794 C 0.29335 0.64853 0.74240
 C2795 C 0.28430 0.66523 0.74274
 C2796 C 0.28539 0.67692 0.75736
 C2797 C 0.29549 0.67119 0.77185
 C2798 C 0.30452 0.65428 0.77154
 H2799 H 0.35771 0.56947 0.78771
 H2800 H 0.34113 0.59831 0.79124
 H2801 H 0.31881 0.59124 0.73958
 H2802 H 0.33556 0.56293 0.73607
 H2803 H 0.31735 0.62014 0.78125
 H2804 H 0.31616 0.62056 0.74179
 H2805 H 0.29241 0.64004 0.73079
 H2806 H 0.27668 0.66906 0.73131
 H2807 H 0.29674 0.67990 0.78327
 H2808 H 0.31260 0.65054 0.78269
 C2809 C 0.32897 0.42383 0.75789
 C2810 C 0.31914 0.40791 0.75744
 C2811 C 0.32580 0.39224 0.74894
 C2812 C 0.34265 0.39281 0.74090
 C2813 C 0.35258 0.40870 0.74140
 C2814 C 0.34603 0.42459 0.74999
 C2815 C 0.31528 0.37542 0.74974
 C2816 C 0.31714 0.36117 0.73871
 C2817 C 0.30685 0.34431 0.74038
 C2818 C 0.30337 0.33333 0.72564
 C2819 C 0.29374 0.31733 0.72689
 C2820 C 0.28760 0.31186 0.74299
 C2821 C 0.29147 0.32269 0.75777
 C2822 C 0.30100 0.33865 0.75651
 H2823 H 0.32336 0.43519 0.76525
 H2824 H 0.30632 0.40779 0.76398
 H2825 H 0.34846 0.38094 0.73448
 H2826 H 0.36520 0.40842 0.73456
 H2827 H 0.30517 0.37509 0.75967
 H2828 H 0.32591 0.36200 0.72772
 H2829 H 0.30795 0.33725 0.71309
 H2830 H 0.29114 0.30926 0.71526
 H2831 H 0.28713 0.31887 0.77043
 H2832 H 0.30399 0.34634 0.76827
 C2833 C 0.84987 0.91125 0.22824
 C2834 C 0.84013 0.89534 0.22603
 C2835 C 0.82546 0.89191 0.23664
 C2836 C 0.82088 0.90478 0.24973
 C2837 C 0.83058 0.92072 0.25189
 C2838 C 0.84521 0.92413 0.24121
 C2839 C 0.81598 0.87446 0.23416
 C2840 C 0.79968 0.87126 0.24065
 C2841 C 0.79112 0.85333 0.23970
 C2842 C 0.77962 0.84891 0.25308
 C2843 C 0.77168 0.83201 0.25323
 C2844 C 0.77473 0.81919 0.23979
 C2845 C 0.78572 0.82378 0.22600
 C2846 C 0.79395 0.84068 0.22600
 H2847 H 0.86095 0.91355 0.21967
 H2848 H 0.84407 0.88567 0.21594
 H2849 H 0.81015 0.90254 0.25867
 H2850 H 0.82688 0.93021 0.26221
 H2851 H 0.82297 0.86375 0.22697
 H2852 H 0.79256 0.88181 0.24789
 H2853 H 0.77707 0.85844 0.26369
 H2854 H 0.76313 0.82895 0.26395
 H2855 H 0.78827 0.81417 0.21546
 H2856 H 0.80237 0.84383 0.21524
 C2857 C 0.63776 0.91488 0.74427
 C2858 C 0.64635 0.89809 0.74665
 C2859 C 0.66293 0.89681 0.75557
 C2860 C 0.67053 0.91269 0.76255
 C2861 C 0.66184 0.92950 0.76042
 C2862 C 0.64532 0.93104 0.75109
 C2863 C 0.67186 0.87877 0.75741
 C2864 C 0.68989 0.87643 0.75780
 C2865 C 0.69902 0.85839 0.75757
 C2866 C 0.71527 0.85617 0.74862
 C2867 C 0.72415 0.83936 0.74762
 C2868 C 0.71728 0.82443 0.75598
 C2869 C 0.70133 0.82672 0.76549
 C2870 C 0.69215 0.84354 0.76615
 H2871 H 0.62479 0.91491 0.73763
 H2872 H 0.64007 0.88603 0.74134
 H2873 H 0.68315 0.91219 0.76980
 H2874 H 0.66864 0.94128 0.76562
 H2875 H 0.66339 0.86702 0.75687
 H2876 H 0.69836 0.88805 0.75650
 H2877 H 0.72091 0.86741 0.74204
 H2878 H 0.73650 0.83803 0.74031
 H2879 H 0.69575 0.81543 0.77205
 H2880 H 0.67983 0.84495 0.77345
 C2881 C 0.13686 0.41642 0.25924
 C2882 C 0.14547 0.39963 0.26155
 C2883 C 0.16373 0.39851 0.26667
 C2884 C 0.17306 0.41465 0.27004
 C2885 C 0.16439 0.43147 0.26785
 C2886 C 0.14624 0.43255 0.26224
 C2887 C 0.17250 0.38036 0.26833
 C2888 C 0.19024 0.37728 0.26598
 C2889 C 0.19883 0.35895 0.26549
 C2890 C 0.21425 0.35607 0.25541
 C2891 C 0.22252 0.33898 0.25398
 C2892 C 0.21580 0.32434 0.26290
 C2893 C 0.20072 0.32729 0.27352
 C2894 C 0.19223 0.34442 0.27474
 H2895 H 0.12277 0.41677 0.25524
 H2896 H 0.13790 0.38745 0.25905
 H2897 H 0.18699 0.41439 0.27450
 H2898 H 0.17199 0.44364 0.27029
 H2899 H 0.16378 0.36901 0.27000
 H2900 H 0.19865 0.38840 0.26263
 H2901 H 0.21972 0.36703 0.24829
 H2902 H 0.23422 0.33724 0.24582
 H2903 H 0.19525 0.31627 0.28056
 H2904 H 0.18063 0.34626 0.28299
 C2905 C 0.07860 0.22348 0.84124
 C2906 C 0.09600 0.22222 0.83450
 C2907 C 0.10766 0.23685 0.83626
 C2908 C 0.10206 0.25239 0.84575
 C2909 C 0.08472 0.25365 0.85247
 C2910 C 0.07269 0.23937 0.84997
 C2911 C 0.12535 0.23575 0.82771
 C2912 C 0.13301 0.25035 0.82141
 C2913 C 0.14977 0.24947 0.81134
 C2914 C 0.15252 0.26283 0.79924
 C2915 C 0.16799 0.26235 0.78920
 C2916 C 0.18117 0.24859 0.79121
 C2917 C 0.17860 0.23542 0.80362
 C2918 C 0.16306 0.23586 0.81361
 H2919 H 0.06959 0.21228 0.83913
 H2920 H 0.10012 0.21005 0.82739
 H2921 H 0.11101 0.26362 0.84794
 H2922 H 0.08067 0.26584 0.85960
 H2923 H 0.13125 0.22245 0.82515
 H2924 H 0.12602 0.26333 0.82243
 H2925 H 0.14253 0.27354 0.79739
 H2926 H 0.16961 0.27278 0.77986
 H2927 H 0.18857 0.22473 0.80561
 H2928 H 0.16162 0.22568 0.82320
 C2929 C 0.56802 0.72980 0.32138
 C2930 C 0.58334 0.72926 0.31111
 C2931 C 0.59964 0.72172 0.31730
 C2932 C 0.60003 0.71349 0.33346
 C2933 C 0.58469 0.71401 0.34372
 C2934 C 0.56870 0.72263 0.33798
 C2935 C 0.61603 0.72350 0.30692
 C2936 C 0.63261 0.72460 0.31404
 C2937 C 0.64868 0.72873 0.30397
 C2938 C 0.66566 0.72227 0.30956
 C2939 C 0.68116 0.72612 0.30046
 C2940 C 0.67998 0.73679 0.28572
 C2941 C 0.66301 0.74367 0.28041
 C2942 C 0.64751 0.73970 0.28945
 H2943 H 0.55591 0.73662 0.31665
 H2944 H 0.58269 0.73551 0.29862
 H2945 H 0.61216 0.70684 0.33832
 H2946 H 0.58543 0.70796 0.35630
 H2947 H 0.61415 0.72531 0.29317
 H2948 H 0.63464 0.72277 0.32776
 H2949 H 0.66689 0.71404 0.32088
 H2950 H 0.69406 0.72073 0.30496
 H2951 H 0.66166 0.75200 0.26918
 H2952 H 0.63472 0.74550 0.28518
 C2953 C 0.59052 0.25797 0.15092
 C2954 C 0.60806 0.26080 0.15714
 C2955 C 0.61110 0.27244 0.17144
 C2956 C 0.59642 0.28202 0.17885
 C2957 C 0.57890 0.27925 0.17260
 C2958 C 0.57574 0.26694 0.15879
 C2959 C 0.62955 0.27364 0.17879
 C2960 C 0.63258 0.27580 0.19581
 C2961 C 0.65071 0.27367 0.20370
 C2962 C 0.65219 0.26645 0.22020
 C2963 C 0.66913 0.26305 0.22768
 C2964 C 0.68493 0.26713 0.21889
 C2965 C 0.68343 0.27502 0.20261
 C2966 C 0.66646 0.27824 0.19506
 H2967 H 0.58848 0.24834 0.14031
 H2968 H 0.61920 0.25336 0.15120
 H2969 H 0.59843 0.29158 0.18952
 H2970 H 0.56780 0.28673 0.17858
 H2971 H 0.64072 0.27045 0.17028
 H2972 H 0.62124 0.27701 0.20448
 H2973 H 0.64021 0.26296 0.22713
 H2974 H 0.66984 0.25719 0.24033
 H2975 H 0.69537 0.27845 0.19560
 H2976 H 0.66570 0.28430 0.18250
 C2977 C 0.08560 0.79341 0.66396
 C2978 C 0.10147 0.79532 0.67377
 C2979 C 0.10337 0.78706 0.68978
 C2980 C 0.08856 0.77816 0.69651
 C2981 C 0.07272 0.77622 0.68671
 C2982 C 0.07130 0.78331 0.67009
 C2983 C 0.12127 0.78687 0.69851
 C2984 C 0.12710 0.77280 0.70774
 C2985 C 0.14576 0.77062 0.71456
 C2986 C 0.14892 0.75852 0.72792
 C2987 C 0.16644 0.75502 0.73402
 C2988 C 0.18124 0.76344 0.72674
 C2989 C 0.17808 0.77560 0.71336
 C2990 C 0.16053 0.77914 0.70728
 H2991 H 0.08470 0.79937 0.65135
 H2992 H 0.11261 0.80250 0.66847
 H2993 H 0.08931 0.77226 0.70914
 H2994 H 0.06195 0.76838 0.69182
 H2995 H 0.13023 0.79779 0.69597
 H2996 H 0.11805 0.76185 0.70998
 H2997 H 0.13779 0.75165 0.73361
 H2998 H 0.16837 0.74557 0.74434
 H2999 H 0.18918 0.78230 0.70744
 H3000 H 0.15875 0.78810 0.69658
 C3001 C 0.92835 0.73269 0.66141
 C3002 C 0.91248 0.73114 0.67068
 C3003 C 0.90768 0.74410 0.68341
 C3004 C 0.91947 0.75835 0.68719
 C3005 C 0.93529 0.76001 0.67787
 C3006 C 0.93999 0.74733 0.66465
 C3007 C 0.89028 0.74227 0.69226
 C3008 C 0.88156 0.75612 0.70023
 C3009 C 0.86354 0.75451 0.70787
 C3010 C 0.85861 0.76644 0.72145
 C3011 C 0.84139 0.76594 0.72846
 C3012 C 0.82865 0.75364 0.72184
 C3013 C 0.83360 0.74168 0.70821
 C3014 C 0.85086 0.74212 0.70127
 H3015 H 0.93084 0.72278 0.65114
 H3016 H 0.90365 0.71999 0.66755
 H3017 H 0.91677 0.76817 0.69748
 H3018 H 0.94409 0.77097 0.68161
 H3019 H 0.88414 0.72913 0.69154
 H3020 H 0.88757 0.76930 0.70118
 H3021 H 0.86811 0.77621 0.72661
 H3022 H 0.83799 0.77542 0.73889
 H3023 H 0.82407 0.73211 0.70274
 H3024 H 0.85397 0.73312 0.69041
 C3025 C 0.43905 0.25619 0.20281
 C3026 C 0.42350 0.25623 0.21285
 C3027 C 0.40783 0.24779 0.20659
 C3028 C 0.40784 0.23958 0.18998
 C3029 C 0.42327 0.23959 0.17998
 C3030 C 0.43906 0.24786 0.18625
 C3031 C 0.39116 0.24890 0.21683
 C3032 C 0.37860 0.23616 0.21544
 C3033 C 0.36014 0.23846 0.22223
 C3034 C 0.34635 0.22850 0.21410
 C3035 C 0.32845 0.23109 0.21902
 C3036 C 0.32395 0.24359 0.23235
 C3037 C 0.33783 0.25311 0.24094
 C3038 C 0.35579 0.25058 0.23593
 H3039 H 0.45104 0.26267 0.20797
 H3040 H 0.42368 0.26289 0.22551
 H3041 H 0.39576 0.23371 0.18436
 H3042 H 0.42263 0.23362 0.16705
 H3043 H 0.38896 0.26095 0.22482
 H3044 H 0.38135 0.22407 0.20763
 H3045 H 0.34938 0.21900 0.20359
 H3046 H 0.31812 0.22333 0.21230
 H3047 H 0.33483 0.26267 0.25141
 H3048 H 0.36612 0.25811 0.24284
 C3049 C 0.43176 0.76834 0.33302
 C3050 C 0.41590 0.77013 0.32313
 C3051 C 0.40606 0.75483 0.31806
 C3052 C 0.41235 0.73768 0.32309
 C3053 C 0.42815 0.73591 0.33295
 C3054 C 0.43790 0.75122 0.33817
 C3055 C 0.38869 0.75728 0.30866
 C3056 C 0.38132 0.74416 0.29878
 C3057 C 0.36309 0.74570 0.29088
 C3058 C 0.35881 0.73442 0.27662
 C3059 C 0.34143 0.73473 0.26938
 C3060 C 0.32791 0.74625 0.27638
 C3061 C 0.33219 0.75753 0.29071
 C3062 C 0.34957 0.75722 0.29794
 H3063 H 0.43893 0.78038 0.33705
 H3064 H 0.41120 0.78349 0.31958
 H3065 H 0.40486 0.72561 0.31994
 H3066 H 0.43267 0.72254 0.33664
 H3067 H 0.38195 0.77036 0.30989
 H3068 H 0.38894 0.73178 0.29611
 H3069 H 0.36894 0.72528 0.27110
 H3070 H 0.33860 0.72583 0.25836
 H3071 H 0.32206 0.76647 0.29650
 H3072 H 0.35216 0.76565 0.30931
 C3073 C 0.92537 0.28079 0.82444
 C3074 C 0.91008 0.28215 0.81376
 C3075 C 0.90724 0.26941 0.80029
 C3076 C 0.92074 0.25623 0.79668
 C3077 C 0.93612 0.25496 0.80730
 C3078 C 0.93819 0.26681 0.82164
 C3079 C 0.88949 0.26948 0.79136
 C3080 C 0.88166 0.25425 0.78563
 C3081 C 0.86248 0.25366 0.78019
 C3082 C 0.85694 0.24016 0.76832
 C3083 C 0.83875 0.23881 0.76347
 C3084 C 0.82572 0.25079 0.77067
 C3085 C 0.83125 0.26407 0.78283
 C3086 C 0.84943 0.26549 0.78757
 H3087 H 0.92687 0.29026 0.83527
 H3088 H 0.89997 0.29256 0.81663
 H3089 H 0.91924 0.24660 0.78600
 H3090 H 0.94589 0.24412 0.80486
 H3091 H 0.88191 0.28214 0.79125
 H3092 H 0.88915 0.24153 0.78564
 H3093 H 0.86673 0.23071 0.76272
 H3094 H 0.83491 0.22838 0.75412
 H3095 H 0.82156 0.27349 0.78864
 H3096 H 0.85310 0.27560 0.79730
 C3097 C 0.54237 1.00456 0.67526
 C3098 C 0.53276 1.00691 0.65972
 C3099 C 0.53979 1.01725 0.64656
 C3100 C 0.55677 1.02519 0.64934
 C3101 C 0.56635 1.02285 0.66486
 C3102 C 0.55937 1.01239 0.67795
 C3103 C 0.52974 1.01825 0.62978
 C3104 C 0.53298 1.03046 0.61777
 C3105 C 0.52541 1.02924 0.59994
 C3106 C 0.53625 1.03457 0.58639
 C3107 C 0.53065 1.03190 0.56923
 C3108 C 0.51382 1.02429 0.56524
 C3109 C 0.50237 1.02005 0.57877
 C3110 C 0.50818 1.02236 0.59603
 H3111 H 0.53669 0.99624 0.68499
 H3112 H 0.51985 1.00044 0.65789
 H3113 H 0.56308 1.03281 0.63948
 H3114 H 0.57930 1.02924 0.66657
 H3115 H 0.51989 1.00793 0.62695
 H3116 H 0.54280 1.04083 0.62037
 H3117 H 0.54950 1.04006 0.58906
 H3118 H 0.53968 1.03537 0.55902
 H3119 H 0.48934 1.01414 0.57600
 H3120 H 0.49931 1.01856 0.60623
 C3121 C 0.07275 0.50222 1.16933
 C3122 C 0.06453 0.50424 1.15316
 C3123 C 0.04734 0.51230 1.15148
 C3124 C 0.03828 0.51799 1.16655
 C3125 C 0.04644 0.51589 1.18288
 C3126 C 0.06413 0.50826 1.18473
 C3127 C 0.03999 0.51468 1.13368
 C3128 C 0.02356 0.52147 1.12947
 C3129 C 0.01777 0.52315 1.11110
 C3130 C -0.00039 0.52060 1.10620
 C3131 C -0.00554 0.51992 1.08866
 C3132 C 0.00745 0.52181 1.07582
 C3133 C 0.02528 0.52578 1.08083
 C3134 C 0.03035 0.52662 1.09824
 H3135 H 0.08566 0.49512 1.16944
 H3136 H 0.07177 0.49940 1.14182
 H3137 H 0.02505 0.52444 1.16592
 H3138 H 0.03903 0.52140 1.19379
 H3139 H 0.04878 0.51016 1.12330
 H3140 H 0.01381 0.52490 1.13934
 H3141 H -0.01040 0.51823 1.11589
 H3142 H -0.01939 0.51690 1.08512
 H3143 H 0.03549 0.52770 1.07122
 H3144 H 0.04426 0.52957 1.10156
 C3145 C -0.08730 -0.00790 1.16018
 C3146 C -0.08017 -0.00985 1.14366
 C3147 C -0.06211 -0.01518 1.14126
 C3148 C -0.05123 -0.01870 1.15587
 C3149 C -0.05838 -0.01690 1.17251
 C3150 C -0.07666 -0.01153 1.17507
 C3151 C -0.05553 -0.01690 1.12328
 C3152 C -0.03816 -0.01587 1.11869
 C3153 C -0.03273 -0.01500 1.10032
 C3154 C -0.01513 -0.02030 1.09548
 C3155 C -0.00954 -0.01876 1.07834
 C3156 C -0.02146 -0.01173 1.06575
 C3157 C -0.03905 -0.00645 1.07069
 C3158 C -0.04455 -0.00792 1.08769
 H3159 H -0.10108 -0.00287 1.16102
 H3160 H -0.08882 -0.00684 1.13264
 H3161 H -0.03733 -0.02329 1.15454
 H3162 H -0.04959 -0.02054 1.18319
 H3163 H -0.06585 -0.01822 1.11329
 H3164 H -0.02760 -0.01505 1.12849
 H3165 H -0.00566 -0.02557 1.10499
 H3166 H 0.00414 -0.02285 1.07502
 H3167 H -0.04858 -0.00074 1.06148
 H3168 H -0.05794 -0.00288 1.09091
 C3169 C 0.42312 0.49641 0.66840
 C3170 C 0.43067 0.49450 0.65203
 C3171 C 0.44552 0.48276 0.64906
 C3172 C 0.45281 0.47302 0.66300
 C3173 C 0.44525 0.47499 0.67947
 C3174 C 0.43020 0.48657 0.68229
 C3175 C 0.45227 0.48082 0.63110
 C3176 C 0.46787 0.47259 0.62639
 C3177 C 0.47375 0.47194 0.60811
 C3178 C 0.49224 0.47237 0.60433
 C3179 C 0.49790 0.47395 0.58723
 C3180 C 0.48510 0.47508 0.57366
 C3181 C 0.46672 0.47322 0.57736
 C3182 C 0.46111 0.47153 0.59434
 H3183 H 0.41171 0.50564 0.67020
 H3184 H 0.42476 0.50220 0.64159
 H3185 H 0.46402 0.46359 0.66127
 H3186 H 0.45085 0.46707 0.68988
 H3187 H 0.44405 0.48726 0.62124
 H3188 H 0.47716 0.46741 0.63606
 H3189 H 0.50227 0.47237 0.61468
 H3190 H 0.51216 0.47530 0.58477
 H3191 H 0.45655 0.47365 0.56714
 H3192 H 0.44682 0.47030 0.59665
 C3193 C 0.45590 0.50450 -0.17961
 C3194 C 0.46429 0.50738 -0.16342
 C3195 C 0.45476 0.50485 -0.14817
 C3196 C 0.43690 0.49873 -0.14942
 C3197 C 0.42862 0.49571 -0.16553
 C3198 C 0.43796 0.49864 -0.18081
 C3199 C 0.46375 0.50789 -0.13109
 C3200 C 0.45444 0.51401 -0.11729
 C3201 C 0.46142 0.51464 -0.09919
 C3202 C 0.44868 0.51656 -0.08601
 C3203 C 0.45394 0.51542 -0.06871
 C3204 C 0.47217 0.51256 -0.06406
 C3205 C 0.48518 0.51168 -0.07711
 C3206 C 0.47986 0.51262 -0.09457
 H3207 H 0.46348 0.50670 -0.19119
 H3208 H 0.47814 0.51181 -0.16278
 H3209 H 0.42935 0.49603 -0.13795
 H3210 H 0.41475 0.49131 -0.16602
 H3211 H 0.47802 0.50464 -0.13000
 H3212 H 0.44033 0.51778 -0.11916
 H3213 H 0.43443 0.51830 -0.08912
 H3214 H 0.44360 0.51640 -0.05896
 H3215 H 0.49934 0.50953 -0.07387
 H3216 H 0.49019 0.51149 -0.10427
 C3217 C -0.04441 1.00869 0.31097
 C3218 C -0.03517 1.01213 0.32663
 C3219 C -0.04380 1.01008 0.34244
 C3220 C -0.06166 1.00394 0.34232
 C3221 C -0.07079 1.00028 0.32674
 C3222 C -0.06232 1.00269 0.31090
 C3223 C -0.03379 1.01344 0.35893
 C3224 C -0.04215 1.02004 0.37309
 C3225 C -0.03413 1.02054 0.39081
 C3226 C -0.04602 1.02278 0.40468
 C3227 C -0.03987 1.02088 0.42165
 C3228 C -0.02157 1.01693 0.42524
 C3229 C -0.00934 1.01603 0.41154
 C3230 C -0.01555 1.01775 0.39443
 H3231 H -0.03753 1.01051 0.29892
 H3232 H -0.02133 1.01658 0.32640
 H3233 H -0.06853 1.00163 0.35428
 H3234 H -0.08461 0.99579 0.32708
 H3235 H -0.01956 1.00986 0.35930
 H3236 H -0.05627 1.02407 0.37192
 H3237 H -0.06034 1.02514 0.40235
 H3238 H -0.04960 1.02187 0.43196
 H3239 H 0.00486 1.01305 0.41395
 H3240 H -0.00582 1.01643 0.38419
 C3241 C 0.04114 0.49635 0.32013
 C3242 C 0.03257 0.49428 0.33597
 C3243 C 0.04200 0.49734 0.35162
 C3244 C 0.05994 0.50322 0.35114
 C3245 C 0.06842 0.50541 0.33539
 C3246 C 0.05920 0.50190 0.31970
 C3247 C 0.03291 0.49493 0.36835
 C3248 C 0.04216 0.48914 0.38225
 C3249 C 0.03522 0.48901 0.40013
 C3250 C 0.04808 0.48806 0.41359
 C3251 C 0.04285 0.48921 0.43077
 C3252 C 0.02453 0.49108 0.43506
 C3253 C 0.01143 0.49115 0.42170
 C3254 C 0.01673 0.49025 0.40432
 H3255 H 0.03363 0.49374 0.30823
 H3256 H 0.01867 0.49001 0.33600
 H3257 H 0.06744 0.50634 0.36294
 H3258 H 0.08236 0.50959 0.33553
 H3259 H 0.01865 0.49830 0.36912
 H3260 H 0.05626 0.48526 0.38070
 H3261 H 0.06238 0.48694 0.41082
 H3262 H 0.05326 0.48883 0.44076
 H3263 H -0.00279 0.49248 0.42469
 H3264 H 0.00638 0.49064 0.39431
 C3265 C 0.54204 -0.00522 -0.18879
 C3266 C 0.53305 -0.00758 -0.17324
 C3267 C 0.54222 -0.00543 -0.15733
 C3268 C 0.56040 -0.00019 -0.15726
 C3269 C 0.56931 0.00234 -0.17275
 C3270 C 0.56029 -0.00028 -0.18870
 C3271 C 0.53251 -0.00797 -0.14096
 C3272 C 0.54101 -0.01439 -0.12690
 C3273 C 0.53318 -0.01484 -0.10936
 C3274 C 0.54529 -0.01661 -0.09536
 C3275 C 0.53923 -0.01538 -0.07843
 C3276 C 0.52079 -0.01263 -0.07497
 C3277 C 0.50839 -0.01194 -0.08889
 C3278 C 0.51453 -0.01294 -0.10600
 H3279 H 0.53468 -0.00713 -0.20090
 H3280 H 0.51898 -0.01133 -0.17364
 H3281 H 0.56774 0.00221 -0.14523
 H3282 H 0.58338 0.00607 -0.17224
 H3283 H 0.51832 -0.00422 -0.14062
 H3284 H 0.55508 -0.01859 -0.12798
 H3285 H 0.55968 -0.01827 -0.09750
 H3286 H 0.54909 -0.01618 -0.06796
 H3287 H 0.49410 -0.00986 -0.08655
 H3288 H 0.50469 -0.01197 -0.11641
 C3289 C 0.65240 0.59818 -0.01893
 C3290 C 0.63667 0.58807 -0.02006
 C3291 C 0.63602 0.57098 -0.01275
 C3292 C 0.65177 0.56397 -0.00468
 C3293 C 0.66752 0.57412 -0.00350
 C3294 C 0.66798 0.59143 -0.01047
 C3295 C 0.61871 0.56110 -0.01388
 C3296 C 0.61462 0.54754 -0.00356
 C3297 C 0.59667 0.53887 -0.00350
 C3298 C 0.59188 0.52961 0.01125
 C3299 C 0.57487 0.52196 0.01241
 C3300 C 0.56218 0.52324 -0.00126
 C3301 C 0.56719 0.53192 -0.01633
 C3302 C 0.58425 0.53961 -0.01748
 H3303 H 0.65237 0.61127 -0.02481
 H3304 H 0.62486 0.59375 -0.02654
 H3305 H 0.65215 0.55064 0.00066
 H3306 H 0.67925 0.56850 0.00312
 H3307 H 0.60852 0.56619 -0.02277
 H3308 H 0.62426 0.54341 0.00628
 H3309 H 0.60120 0.52863 0.02214
 H3310 H 0.57158 0.51529 0.02418
 H3311 H 0.55781 0.53306 -0.02716
 H3312 H 0.58758 0.54606 -0.02933
 C3313 C 0.16077 1.09668 0.47772
 C3314 C 0.14521 1.08650 0.47521
 C3315 C 0.14362 1.06971 0.48294
 C3316 C 0.15809 1.06331 0.49334
 C3317 C 0.17369 1.07350 0.49583
 C3318 C 0.17516 1.09036 0.48815
 C3319 C 0.12633 1.05996 0.48052
 C3320 C 0.12411 1.04254 0.48416
 C3321 C 0.10630 1.03366 0.48312
 C3322 C 0.10319 1.01941 0.49417
 C3323 C 0.08625 1.01147 0.49456
 C3324 C 0.07205 1.01741 0.48367
 C3325 C 0.07543 1.03105 0.47194
 C3326 C 0.09237 1.03912 0.47168
 H3327 H 0.16157 1.10948 0.47140
 H3328 H 0.13432 1.09183 0.46720
 H3329 H 0.15735 1.05074 0.49999
 H3330 H 0.18442 1.06839 0.50414
 H3331 H 0.11484 1.06779 0.47584
 H3332 H 0.13539 1.03458 0.48904
 H3333 H 0.11374 1.01479 0.50296
 H3334 H 0.08418 1.00090 0.50365
 H3335 H 0.06482 1.03590 0.46334
 H3336 H 0.09444 1.04964 0.46255
 C3337 C 0.18601 -0.06968 1.00203
 C3338 C 0.17040 -0.05871 1.00250
 C3339 C 0.15432 -0.06491 1.00932
 C3340 C 0.15421 -0.08247 1.01573
 C3341 C 0.16981 -0.09350 1.01528
 C3342 C 0.18609 -0.08744 1.00829
 C3343 C 0.13782 -0.05309 1.00838
 C3344 C 0.12279 -0.05544 1.01752
 C3345 C 0.10585 -0.04450 1.01524
 C3346 C 0.09275 -0.04443 1.02819
 C3347 C 0.07604 -0.03547 1.02593
 C3348 C 0.07199 -0.02644 1.01056
 C3349 C 0.08525 -0.02622 0.99774
 C3350 C 0.10190 -0.03518 0.99999
 H3351 H 0.19767 -0.06431 0.99590
 H3352 H 0.17084 -0.04535 0.99720
 H3353 H 0.14206 -0.08799 1.02082
 H3354 H 0.16897 -0.10664 1.02090
 H3355 H 0.13834 -0.04181 0.99985
 H3356 H 0.12275 -0.06567 1.02721
 H3357 H 0.09534 -0.05161 1.04001
 H3358 H 0.06613 -0.03604 1.03603
 H3359 H 0.08261 -0.01954 0.98567
 H3360 H 0.11125 -0.03529 0.98941
 C3361 C 0.69200 0.42998 0.50051
 C3362 C 0.67629 0.44067 0.50232
 C3363 C 0.66014 0.43325 0.50775
 C3364 C 0.65999 0.41473 0.51114
 C3365 C 0.67566 0.40398 0.50932
 C3366 C 0.69208 0.41132 0.50393
 C3367 C 0.64362 0.44502 0.50869
 C3368 C 0.62886 0.44113 0.51767
 C3369 C 0.61180 0.45214 0.51737
 C3370 C 0.59894 0.44972 0.53023
 C3371 C 0.58210 0.45872 0.52962
 C3372 C 0.57768 0.47030 0.51603
 C3373 C 0.59071 0.47301 0.50337
 C3374 C 0.60748 0.46401 0.50396
 H3375 H 0.70379 0.43643 0.49570
 H3376 H 0.67673 0.45485 0.49930
 H3377 H 0.64776 0.40829 0.51495
 H3378 H 0.67478 0.38999 0.51277
 H3379 H 0.64393 0.45754 0.50186
 H3380 H 0.62917 0.42947 0.52578
 H3381 H 0.60181 0.44057 0.54064
 H3382 H 0.57238 0.45622 0.53954
 H3383 H 0.58779 0.48172 0.49263
 H3384 H 0.61665 0.46593 0.49348
 C3385 C -0.15087 0.38975 0.50513
 C3386 C -0.13408 0.39803 0.50498
 C3387 C -0.13297 0.41678 0.50328
 C3388 C -0.14905 0.42722 0.50216
 C3389 C -0.16589 0.41896 0.50271
 C3390 C -0.16692 0.40014 0.50408
 C3391 C -0.11493 0.42509 0.50387
 C3392 C -0.11085 0.43975 0.49504
 C3393 C -0.09277 0.44803 0.49642
 C3394 C -0.08540 0.45624 0.48206
 C3395 C -0.06841 0.46429 0.48330
 C3396 C -0.05872 0.46468 0.49908
 C3397 C -0.06628 0.45664 0.51346
 C3398 C -0.08303 0.44838 0.51215
 H3399 H -0.15134 0.37523 0.50628
 H3400 H -0.12189 0.38974 0.50607
 H3401 H -0.14862 0.44176 0.50126
 H3402 H -0.17812 0.42722 0.50185
 H3403 H -0.10442 0.41833 0.51132
 H3404 H -0.12072 0.44547 0.48615
 H3405 H -0.09274 0.45627 0.46984
 H3406 H -0.06300 0.47046 0.47202
 H3407 H -0.05921 0.45666 0.52583
 H3408 H -0.08851 0.44262 0.52359
 C3409 C 0.33203 -0.08658 0.01485
 C3410 C 0.34806 -0.07709 0.01370
 C3411 C 0.35689 -0.07579 -0.00215
 C3412 C 0.34923 -0.08438 -0.01692
 C3413 C 0.33315 -0.09391 -0.01576
 C3414 C 0.32434 -0.09513 0.00014
 C3415 C 0.37393 -0.06543 -0.00233
 C3416 C 0.38324 -0.06155 -0.01652
 C3417 C 0.40008 -0.05088 -0.01568
 C3418 C 0.41303 -0.05336 -0.02869
 C3419 C 0.42933 -0.04401 -0.02781
 C3420 C 0.43296 -0.03191 -0.01390
 C3421 C 0.41964 -0.02889 -0.00132
 C3422 C 0.40340 -0.03812 -0.00224
 H3423 H 0.32550 -0.08699 0.02724
 H3424 H 0.35355 -0.07061 0.02532
 H3425 H 0.35553 -0.08401 -0.02938
 H3426 H 0.32775 -0.10057 -0.02730
 H3427 H 0.37911 -0.06086 0.01016
 H3428 H 0.37892 -0.06662 -0.02911
 H3429 H 0.41072 -0.06289 -0.03933
 H3430 H 0.43928 -0.04663 -0.03773
 H3431 H 0.42179 -0.01942 0.00941
 H3432 H 0.39347 -0.03512 0.00760
 C3433 C 0.31906 1.08843 0.51960
 C3434 C 0.33519 1.07849 0.52177
 C3435 C 0.34617 1.07407 0.50760
 C3436 C 0.34076 1.08006 0.49115
 C3437 C 0.32464 1.09006 0.48899
 C3438 C 0.31359 1.09441 0.50319
 C3439 C 0.36346 1.06393 0.51056
 C3440 C 0.37153 1.05363 0.49825
 C3441 C 0.38915 1.04384 0.50051
 C3442 C 0.39396 1.03050 0.48809
 C3443 C 0.41100 1.02204 0.48854
 C3444 C 0.42379 1.02672 0.50146
 C3445 C 0.41881 1.03961 0.51431
 C3446 C 0.40171 1.04815 0.51383
 H3447 H 0.31079 1.09131 0.53080
 H3448 H 0.33906 1.07415 0.53458
 H3449 H 0.34913 1.07749 0.47998
 H3450 H 0.32106 1.09476 0.47624
 H3451 H 0.36923 1.06453 0.52349
 H3452 H 0.36476 1.05189 0.48583
 H3453 H 0.38462 1.02688 0.47769
 H3454 H 0.41431 1.01215 0.47844
 H3455 H 0.42840 1.04368 0.52433
 H3456 H 0.39877 1.05859 0.52348
 C3457 C -0.19311 0.57544 0.98996
 C3458 C -0.17736 0.56472 0.99124
 C3459 C -0.16149 0.57171 0.99875
 C3460 C -0.16163 0.58986 1.00468
 C3461 C -0.17737 0.60060 1.00338
 C3462 C -0.19333 0.59352 0.99604
 C3463 C -0.14494 0.55996 0.99929
 C3464 C -0.13085 0.56282 1.01014
 C3465 C -0.11386 0.55166 1.00997
 C3466 C -0.10215 0.55243 1.02445
 C3467 C -0.08544 0.54317 1.02433
 C3468 C -0.07997 0.53298 1.00964
 C3469 C -0.09185 0.53195 0.99527
 C3470 C -0.10851 0.54120 0.99538
 H3471 H -0.20519 0.56948 0.98441
 H3472 H -0.17762 0.55084 0.98642
 H3473 H -0.14954 0.59601 1.00997
 H3474 H -0.17694 0.61457 1.00785
 H3475 H -0.14474 0.54821 0.99066
 H3476 H -0.13176 0.57361 1.01985
 H3477 H -0.10583 0.56048 1.03582
 H3478 H -0.07661 0.54438 1.03559
 H3479 H -0.08809 0.52436 0.98366
 H3480 H -0.11677 0.54059 0.98374
 C3481 C 0.04200 0.67869 0.58139
 C3482 C 0.04348 0.66103 0.57461
 C3483 C 0.03411 0.64708 0.58213
 C3484 C 0.02419 0.65079 0.59719
 C3485 C 0.02292 0.66834 0.60409
 C3486 C 0.03147 0.68251 0.59603
 C3487 C 0.03418 0.62897 0.57376
 C3488 C 0.01911 0.61930 0.57263
 C3489 C 0.01819 0.60176 0.56324
 C3490 C 0.00203 0.59715 0.55468
 C3491 C 0.00063 0.58064 0.54569
 C3492 C 0.01527 0.56825 0.54549
 C3493 C 0.03137 0.57272 0.55433
 C3494 C 0.03287 0.58940 0.56305
 H3495 H 0.04884 0.68940 0.57507
 H3496 H 0.05133 0.65837 0.56308
 H3497 H 0.01718 0.64016 0.60346
 H3498 H 0.01464 0.67096 0.61534
 H3499 H 0.04624 0.62429 0.56710
 H3500 H 0.00659 0.62504 0.57766
 H3501 H -0.00948 0.60646 0.55480
 H3502 H -0.01197 0.57745 0.53909
 H3503 H 0.04285 0.56339 0.55435
 H3504 H 0.04536 0.59247 0.56988
 C3505 C 0.48794 0.17094 0.09257
 C3506 C 0.48677 0.15500 0.08263
 C3507 C 0.49654 0.15282 0.06734
 C3508 C 0.50708 0.16705 0.06177
 C3509 C 0.50792 0.18317 0.07153
 C3510 C 0.49851 0.18511 0.08708
 C3511 C 0.49535 0.13566 0.05738
 C3512 C 0.50969 0.12787 0.04969
 C3513 C 0.50861 0.10991 0.04113
 C3514 C 0.52301 0.09749 0.04305
 C3515 C 0.52181 0.08003 0.03588
 C3516 C 0.50635 0.07492 0.02632
 C3517 C 0.49223 0.08760 0.02388
 C3518 C 0.49330 0.10493 0.03131
 H3519 H 0.48045 0.17232 0.10447
 H3520 H 0.47848 0.14421 0.08704
 H3521 H 0.51445 0.16578 0.04981
 H3522 H 0.51608 0.19403 0.06710
 H3523 H 0.48274 0.12851 0.05768
 H3524 H 0.52282 0.13401 0.05105
 H3525 H 0.53498 0.10117 0.05048
 H3526 H 0.53299 0.07056 0.03774
 H3527 H 0.48021 0.08403 0.01649
 H3528 H 0.48218 0.11443 0.02935
 C3529 C -0.03799 0.16878 0.90466
 C3530 C -0.03965 0.15210 0.91240
 C3531 C -0.03092 0.14871 0.92824
 C3532 C -0.02068 0.16243 0.93634
 C3533 C -0.01903 0.17904 0.92861
 C3534 C -0.02743 0.18231 0.91259
 C3535 C -0.03113 0.13027 0.93500
 C3536 C -0.02770 0.12672 0.95162
 C3537 C -0.02417 0.10828 0.95778
 C3538 C -0.01292 0.10620 0.97236
 C3539 C -0.00819 0.08903 0.97806
 C3540 C -0.01476 0.07355 0.96933
 C3541 C -0.02645 0.07565 0.95499
 C3542 C -0.03117 0.09285 0.94930
 H3543 H -0.04471 0.17098 0.89234
 H3544 H -0.04747 0.14169 0.90584
 H3545 H -0.01311 0.16018 0.94817
 H3546 H -0.01042 0.18902 0.93481
 H3547 H -0.03311 0.11931 0.92566
 H3548 H -0.02589 0.13773 0.96094
 H3549 H -0.00743 0.11790 0.97915
 H3550 H 0.00071 0.08791 0.98924
 H3551 H -0.03204 0.06401 0.94820
 H3552 H -0.04038 0.09394 0.93837
 C3553 C 0.47102 0.68048 0.44049
 C3554 C 0.46717 0.66574 0.45056
 C3555 C 0.48123 0.65563 0.45822
 C3556 C 0.49923 0.66070 0.45587
 C3557 C 0.50306 0.67528 0.44571
 C3558 C 0.48903 0.68507 0.43768
 C3559 C 0.47709 0.63867 0.46671
 C3560 C 0.48814 0.63149 0.47864
 C3561 C 0.48743 0.61252 0.48383
 C3562 C 0.49683 0.60753 0.49886
 C3563 C 0.49905 0.58938 0.50284
 C3564 C 0.49202 0.57580 0.49175
 C3565 C 0.48200 0.58081 0.47702
 C3566 C 0.47977 0.59899 0.47305
 H3567 H 0.46000 0.68778 0.43425
 H3568 H 0.45324 0.66193 0.45201
 H3569 H 0.51047 0.65289 0.46108
 H3570 H 0.51704 0.67864 0.44373
 H3571 H 0.46515 0.63158 0.46232
 H3572 H 0.49895 0.63953 0.48419
 H3573 H 0.50299 0.61769 0.50728
 H3574 H 0.50674 0.58602 0.51437
 H3575 H 0.47634 0.57068 0.46826
 H3576 H 0.47284 0.60222 0.46109
 C3577 C 0.52431 0.81136 0.44440
 C3578 C 0.52662 0.82749 0.45390
 C3579 C 0.52827 0.84387 0.44546
 C3580 C 0.52801 0.84375 0.42726
 C3581 C 0.52575 0.82765 0.41780
 C3582 C 0.52348 0.81139 0.42626
 C3583 C 0.52805 0.86092 0.45590
 C3584 C 0.53308 0.87672 0.44972
 C3585 C 0.52899 0.89442 0.45825
 C3586 C 0.53755 0.90970 0.45227
 C3587 C 0.53252 0.92695 0.45837
 C3588 C 0.51878 0.92929 0.47060
 C3589 C 0.51054 0.91399 0.47696
 C3590 C 0.51547 0.89674 0.47078
 H3591 H 0.52241 0.79902 0.45125
 H3592 H 0.52656 0.82724 0.46789
 H3593 H 0.52867 0.85606 0.42016
 H3594 H 0.52535 0.82800 0.40382
 H3595 H 0.52288 0.86037 0.46885
 H3596 H 0.53994 0.87693 0.43749
 H3597 H 0.54789 0.90831 0.44254
 H3598 H 0.53927 0.93847 0.45333
 H3599 H 0.49985 0.91536 0.48634
 H3600 H 0.50809 0.88546 0.47538
 C3601 C 0.00798 0.31338 0.94438
 C3602 C 0.01003 0.32869 0.95518
 C3603 C 0.01164 0.34580 0.94811
 C3604 C 0.01121 0.34734 0.93003
 C3605 C 0.00914 0.33210 0.91930
 C3606 C 0.00725 0.31503 0.92635
 C3607 C 0.01200 0.36197 0.95974
 C3608 C 0.01890 0.37760 0.95496
 C3609 C 0.01611 0.39503 0.96443
 C3610 C 0.02643 0.40972 0.95973
 C3611 C 0.02274 0.42699 0.96658
 C3612 C 0.00859 0.42995 0.97829
 C3613 C -0.00137 0.41518 0.98347
 C3614 C 0.00226 0.39789 0.97653
 H3615 H 0.00639 0.30036 0.95013
 H3616 H 0.01007 0.32721 0.96906
 H3617 H 0.01176 0.36033 0.92406
 H3618 H 0.00878 0.33371 0.90543
 H3619 H 0.00601 0.36093 0.97232
 H3620 H 0.02646 0.37790 0.94312
 H3621 H 0.03710 0.40791 0.95038
 H3622 H 0.03081 0.43807 0.96248
 H3623 H -0.01239 0.41705 0.99243
 H3624 H -0.00636 0.38710 0.98019
 C3625 C 0.45668 0.32852 0.09501
 C3626 C 0.45234 0.34434 0.08624
 C3627 C 0.46462 0.35140 0.07471
 C3628 C 0.48130 0.34235 0.07206
 C3629 C 0.48563 0.32668 0.08084
 C3630 C 0.47352 0.31978 0.09258
 C3631 C 0.46068 0.36905 0.06689
 C3632 C 0.46803 0.37352 0.05194
 C3633 C 0.46846 0.39209 0.04545
 C3634 C 0.47538 0.39435 0.02892
 C3635 C 0.47859 0.41155 0.02299
 C3636 C 0.47490 0.42694 0.03348
 C3637 C 0.46729 0.42479 0.04978
 C3638 C 0.46419 0.40753 0.05578
 H3639 H 0.44719 0.32350 0.10413
 H3640 H 0.43952 0.35123 0.08865
 H3641 H 0.49141 0.34768 0.06378
 H3642 H 0.49866 0.32012 0.07869
 H3643 H 0.45214 0.37858 0.07398
 H3644 H 0.47505 0.36313 0.04434
 H3645 H 0.47885 0.38273 0.02071
 H3646 H 0.48424 0.41273 0.01026
 H3647 H 0.46426 0.43640 0.05814
 H3648 H 0.45916 0.40647 0.06873
 C3649 C -0.03208 0.81751 0.56784
 C3650 C -0.03698 0.83212 0.55760
 C3651 C -0.02404 0.84034 0.54755
 C3652 C -0.00619 0.83335 0.54756
 C3653 C -0.00130 0.81888 0.55786
 C3654 C -0.01408 0.81113 0.56839
 C3655 C -0.02877 0.85748 0.53908
 C3656 C -0.01943 0.86346 0.52581
 C3657 C -0.02017 0.88238 0.52018
 C3658 C -0.01242 0.88625 0.50435
 C3659 C -0.01010 0.90408 0.49969
 C3660 C -0.01539 0.91849 0.51086
 C3661 C -0.02384 0.91464 0.52642
 C3662 C -0.02614 0.89678 0.53108
 H3663 H -0.04211 0.81182 0.57602
 H3664 H -0.05074 0.83740 0.55796
 H3665 H 0.00433 0.83962 0.54045
 H3666 H 0.01265 0.81412 0.55806
 H3667 H -0.03960 0.86571 0.54461
 H3668 H -0.00993 0.85438 0.51928
 H3669 H -0.00759 0.87543 0.49578
 H3670 H -0.00367 0.90653 0.48754
 H3671 H -0.02812 0.92542 0.53529
 H3672 H -0.03176 0.89443 0.54361
 C3673 C 0.24509 0.29823 0.07561
 C3674 C 0.24899 0.28966 0.09116
 C3675 C 0.26285 0.29585 0.10230
 C3676 C 0.27321 0.31045 0.09719
 C3677 C 0.26922 0.31909 0.08172
 C3678 C 0.25499 0.31323 0.07086
 C3679 C 0.26578 0.28696 0.11916
 C3680 C 0.27409 0.29494 0.13283
 C3681 C 0.27445 0.28747 0.15043
 C3682 C 0.27547 0.29964 0.16463
 C3683 C 0.27397 0.29361 0.18144
 C3684 C 0.27174 0.27519 0.18451
 C3685 C 0.27198 0.26279 0.17041
 C3686 C 0.27326 0.26887 0.15349
 H3687 H 0.23406 0.29340 0.06749
 H3688 H 0.24087 0.27837 0.09467
 H3689 H 0.28449 0.31525 0.10495
 H3690 H 0.27740 0.33031 0.07816
 H3691 H 0.25938 0.27412 0.12076
 H3692 H 0.27912 0.30845 0.13174
 H3693 H 0.27663 0.31399 0.16267
 H3694 H 0.27400 0.30349 0.19205
 H3695 H 0.27030 0.24851 0.17240
 H3696 H 0.27303 0.25904 0.14288
 C3697 C 0.77503 0.83018 0.57666
 C3698 C 0.77913 0.82354 0.59299
 C3699 C 0.77059 0.80821 0.59888
 C3700 C 0.75790 0.79949 0.58793
 C3701 C 0.75376 0.80619 0.57156
 C3702 C 0.76210 0.82177 0.56583
 C3703 C 0.77409 0.80287 0.61698
 C3704 C 0.77074 0.78650 0.62304
 C3705 C 0.77214 0.78245 0.64171
 C3706 C 0.77484 0.76450 0.64676
 C3707 C 0.77446 0.76014 0.66426
 C3708 C 0.77106 0.77363 0.67702
 C3709 C 0.76885 0.79164 0.67196
 C3710 C 0.76934 0.79599 0.65456
 H3711 H 0.78199 0.84198 0.57253
 H3712 H 0.78889 0.83056 0.60116
 H3713 H 0.75064 0.78794 0.59216
 H3714 H 0.74358 0.79952 0.56361
 H3715 H 0.77975 0.81306 0.62568
 H3716 H 0.76677 0.77567 0.61418
 H3717 H 0.77687 0.75379 0.63712
 H3718 H 0.77606 0.74612 0.66772
 H3719 H 0.76616 0.80238 0.68142
 H3720 H 0.76666 0.80990 0.65125
 C3721 C 0.25417 0.70967 0.57055
 C3722 C 0.25126 0.71890 0.58635
 C3723 C 0.23723 0.71397 0.59718
 C3724 C 0.22548 0.70029 0.59135
 C3725 C 0.22853 0.69095 0.57570
 C3726 C 0.24311 0.69527 0.56532
 C3727 C 0.23575 0.72279 0.61464
 C3728 C 0.22801 0.71480 0.62793
 C3729 C 0.22911 0.72158 0.64613
 C3730 C 0.22780 0.70896 0.65919
 C3731 C 0.23021 0.71416 0.67651
 C3732 C 0.23370 0.73221 0.68127
 C3733 C 0.23399 0.74513 0.66833
 C3734 C 0.23180 0.73986 0.65087
 H3735 H 0.26547 0.71331 0.56274
 H3736 H 0.26038 0.72952 0.59039
 H3737 H 0.21399 0.69660 0.59883
 H3738 H 0.21951 0.68022 0.57172
 H3739 H 0.24290 0.73525 0.61697
 H3740 H 0.22230 0.70158 0.62588
 H3741 H 0.22553 0.69485 0.65595
 H3742 H 0.22970 0.70391 0.68619
 H3743 H 0.23661 0.75915 0.67165
 H3744 H 0.23236 0.75005 0.64117
 C3745 C 0.72441 0.18191 0.07481
 C3746 C 0.72174 0.18988 0.09115
 C3747 C 0.73219 0.20447 0.09701
 C3748 C 0.74511 0.21131 0.08587
 C3749 C 0.74775 0.20333 0.06944
 C3750 C 0.73770 0.18829 0.06390
 C3751 C 0.73041 0.21070 0.11531
 C3752 C 0.73700 0.22616 0.12206
 C3753 C 0.73734 0.23018 0.14097
 C3754 C 0.73725 0.24819 0.14721
 C3755 C 0.73883 0.25217 0.16500
 C3756 C 0.74087 0.23817 0.17682
 C3757 C 0.74076 0.22018 0.17051
 C3758 C 0.73907 0.21623 0.15286
 H3759 H 0.71622 0.17055 0.07079
 H3760 H 0.71172 0.18431 0.09943
 H3761 H 0.75374 0.22227 0.08999
 H3762 H 0.75819 0.20843 0.06136
 H3763 H 0.72351 0.20178 0.12373
 H3764 H 0.74242 0.23611 0.11371
 H3765 H 0.73613 0.25918 0.13830
 H3766 H 0.73900 0.26617 0.16943
 H3767 H 0.74235 0.20904 0.17921
 H3768 H 0.73983 0.20220 0.14857
 C3769 C 0.76520 0.20735 0.92975
 C3770 C 0.76834 0.21596 0.91423
 C3771 C 0.76638 0.20659 0.89830
 C3772 C 0.76076 0.18854 0.89819
 C3773 C 0.75747 0.18003 0.91365
 C3774 C 0.75966 0.18930 0.92960
 C3775 C 0.76914 0.21609 0.88196
 C3776 C 0.77494 0.20735 0.86759
 C3777 C 0.77477 0.21513 0.85013
 C3778 C 0.77444 0.20304 0.83585
 C3779 C 0.77232 0.20932 0.81913
 C3780 C 0.77078 0.22791 0.81619
 C3781 C 0.77226 0.24017 0.83032
 C3782 C 0.77414 0.23384 0.84720
 H3783 H 0.76682 0.21488 0.94186
 H3784 H 0.77238 0.22994 0.91464
 H3785 H 0.75847 0.18106 0.88617
 H3786 H 0.75331 0.16609 0.91312
 H3787 H 0.76571 0.23035 0.88179
 H3788 H 0.77872 0.19317 0.86832
 H3789 H 0.77509 0.18858 0.83767
 H3790 H 0.77144 0.19954 0.80847
 H3791 H 0.77116 0.25458 0.82840
 H3792 H 0.77486 0.24362 0.85783
 C3793 C 0.26152 0.67086 0.41531
 C3794 C 0.26479 0.67686 0.39876
 C3795 C 0.26995 0.69470 0.39618
 C3796 C 0.27218 0.70640 0.41070
 C3797 C 0.26910 0.70029 0.42738
 C3798 C 0.26356 0.68250 0.42982
 C3799 C 0.27273 0.70016 0.37812
 C3800 C 0.27185 0.71724 0.37265
 C3801 C 0.27150 0.72147 0.35395
 C3802 C 0.27695 0.73847 0.34855
 C3803 C 0.27562 0.74300 0.33105
 C3804 C 0.26856 0.73066 0.31867
 C3805 C 0.26326 0.71365 0.32416
 C3806 C 0.26457 0.70917 0.34148
 H3807 H 0.25762 0.65699 0.41679
 H3808 H 0.26306 0.66751 0.38785
 H3809 H 0.27648 0.72013 0.40930
 H3810 H 0.27083 0.70952 0.43836
 H3811 H 0.27457 0.68924 0.36868
 H3812 H 0.27058 0.72842 0.38188
 H3813 H 0.28211 0.74830 0.35791
 H3814 H 0.27971 0.75626 0.32730
 H3815 H 0.25765 0.70377 0.31510
 H3816 H 0.25948 0.69625 0.34504
 C3817 C 0.72477 0.80106 0.42431
 C3818 C 0.72307 0.79090 0.40885
 C3819 C 0.73792 0.78109 0.40211
 C3820 C 0.75422 0.78069 0.41176
 C3821 C 0.75594 0.79089 0.42715
 C3822 C 0.74138 0.80153 0.43340
 C3823 C 0.73625 0.77230 0.38465
 C3824 C 0.75040 0.77023 0.37411
 C3825 C 0.74886 0.76496 0.35554
 C3826 C 0.76178 0.77152 0.34441
 C3827 C 0.76060 0.76792 0.32668
 C3828 C 0.74665 0.75733 0.31960
 C3829 C 0.73407 0.75004 0.33073
 C3830 C 0.73506 0.75395 0.34860
 H3831 H 0.71331 0.80914 0.42877
 H3832 H 0.71032 0.79133 0.40178
 H3833 H 0.76576 0.77268 0.40739
 H3834 H 0.76876 0.79061 0.43411
 H3835 H 0.72279 0.76954 0.37969
 H3836 H 0.76354 0.77466 0.37862
 H3837 H 0.77261 0.77989 0.34941
 H3838 H 0.77064 0.77352 0.31846
 H3839 H 0.72323 0.74178 0.32559
 H3840 H 0.72512 0.74834 0.35690
 C3841 C 0.22233 0.30374 0.92858
 C3842 C 0.22123 0.29405 0.91281
 C3843 C 0.23636 0.28454 0.90627
 C3844 C 0.25239 0.28411 0.91633
 C3845 C 0.25352 0.29385 0.93204
 C3846 C 0.23861 0.30404 0.93820
 C3847 C 0.23514 0.27584 0.88873
 C3848 C 0.24958 0.27350 0.87858
 C3849 C 0.24859 0.26767 0.86009
 C3850 C 0.26231 0.27318 0.84928
 C3851 C 0.26180 0.26888 0.83164
 C3852 C 0.24768 0.25866 0.82433
 C3853 C 0.23423 0.25247 0.83520
 C3854 C 0.23461 0.25702 0.85295
 H3855 H 0.21062 0.31151 0.93295
 H3856 H 0.20867 0.29450 0.90543
 H3857 H 0.26414 0.27633 0.91212
 H3858 H 0.26610 0.29344 0.93939
 H3859 H 0.22180 0.27311 0.88347
 H3860 H 0.26264 0.27785 0.88338
 H3861 H 0.27331 0.28123 0.85443
 H3862 H 0.27250 0.27367 0.82367
 H3863 H 0.22323 0.24451 0.82992
 H3864 H 0.22405 0.25216 0.86100
 C3865 C 0.84189 0.42067 0.73565
 C3866 C 0.83218 0.40469 0.73585
 C3867 C 0.82864 0.39631 0.75146
 C3868 C 0.83496 0.40451 0.76701
 C3869 C 0.84472 0.42053 0.76680
 C3870 C 0.84835 0.42880 0.75111
 C3871 C 0.81797 0.37944 0.75070
 C3872 C 0.81574 0.36835 0.76395
 C3873 C 0.80509 0.35148 0.76236
 C3874 C 0.80857 0.33749 0.77394
 C3875 C 0.79919 0.32123 0.77246
 C3876 C 0.78604 0.31864 0.75935
 C3877 C 0.78213 0.33290 0.74816
 C3878 C 0.79140 0.34912 0.74971
 H3879 H 0.84411 0.42678 0.72335
 H3880 H 0.82737 0.39886 0.72367
 H3881 H 0.83233 0.39882 0.77938
 H3882 H 0.84961 0.42633 0.77895
 H3883 H 0.81219 0.37573 0.73820
 H3884 H 0.82257 0.37104 0.77617
 H3885 H 0.81886 0.33899 0.78397
 H3886 H 0.80254 0.31055 0.78130
 H3887 H 0.77187 0.33153 0.73809
 H3888 H 0.78764 0.35977 0.74100
 C3889 C 0.34603 0.91786 0.23170
 C3890 C 0.33729 0.90135 0.23207
 C3891 C 0.33140 0.89445 0.24760
 C3892 C 0.33430 0.90469 0.26291
 C3893 C 0.34308 0.92129 0.26264
 C3894 C 0.34933 0.92840 0.24699
 C3895 C 0.32179 0.87696 0.24687
 C3896 C 0.31801 0.86702 0.26060
 C3897 C 0.30831 0.84959 0.25899
 C3898 C 0.31058 0.83676 0.27194
 C3899 C 0.30190 0.82009 0.27058
 C3900 C 0.29069 0.81593 0.25623
 C3901 C 0.28802 0.82901 0.24356
 C3902 C 0.29657 0.84563 0.24496
 H3903 H 0.34924 0.92244 0.21903
 H3904 H 0.33495 0.89397 0.21996
 H3905 H 0.32977 0.90010 0.27521
 H3906 H 0.34546 0.92790 0.27505
 H3907 H 0.31823 0.87176 0.23409
 H3908 H 0.32277 0.87119 0.27335
 H3909 H 0.31934 0.83952 0.28301
 H3910 H 0.30421 0.81038 0.28062
 H3911 H 0.27922 0.82646 0.23248
 H3912 H 0.29373 0.85536 0.23508
 C3913 C 0.14791 0.91378 0.73493
 C3914 C 0.15831 0.89786 0.73333
 C3915 C 0.17546 0.89640 0.74127
 C3916 C 0.18198 0.91143 0.75091
 C3917 C 0.17155 0.92740 0.75248
 C3918 C 0.15436 0.92873 0.74458
 C3919 C 0.18555 0.87881 0.73948
 C3920 C 0.20259 0.87578 0.74511
 C3921 C 0.21162 0.85766 0.74427
 C3922 C 0.22487 0.85354 0.75679
 C3923 C 0.23300 0.83634 0.75715
 C3924 C 0.22828 0.82289 0.74478
 C3925 C 0.21561 0.82726 0.73173
 C3926 C 0.20735 0.84445 0.73147
 H3927 H 0.13485 0.91444 0.72842
 H3928 H 0.15288 0.88659 0.72582
 H3929 H 0.19493 0.91103 0.75752
 H3930 H 0.17682 0.93860 0.76016
 H3931 H 0.17822 0.86766 0.73361
 H3932 H 0.21004 0.88649 0.75150
 H3933 H 0.22858 0.86351 0.76666
 H3934 H 0.24280 0.83350 0.76730
 H3935 H 0.21171 0.81724 0.72197
 H3936 H 0.19765 0.84732 0.72125
 C3937 C 0.64874 0.41626 0.23573
 C3938 C 0.65940 0.40058 0.23342
 C3939 C 0.67620 0.39866 0.24196
 C3940 C 0.68207 0.41294 0.25298
 C3941 C 0.67141 0.42865 0.25525
 C3942 C 0.65459 0.43048 0.24672
 C3943 C 0.68657 0.38131 0.23948
 C3944 C 0.70364 0.37836 0.24508
 C3945 C 0.71295 0.36041 0.24378
 C3946 C 0.72600 0.35601 0.25640
 C3947 C 0.73429 0.33888 0.25639
 C3948 C 0.72997 0.32581 0.24352
 C3949 C 0.71757 0.33050 0.23035
 C3950 C 0.70910 0.34761 0.23049
 H3951 H 0.63597 0.41732 0.22877
 H3952 H 0.65445 0.38986 0.22489
 H3953 H 0.69465 0.41207 0.26020
 H3954 H 0.67618 0.43925 0.26401
 H3955 H 0.67947 0.37029 0.23311
 H3956 H 0.71089 0.38900 0.25181
 H3957 H 0.72937 0.36568 0.26666
 H3958 H 0.74388 0.33577 0.26665
 H3959 H 0.71397 0.32076 0.22023
 H3960 H 0.69955 0.35073 0.22021
 C3961 C 0.65085 0.57909 0.27265
 C3962 C 0.66032 0.59523 0.27386
 C3963 C 0.66895 0.60186 0.25940
 C3964 C 0.66756 0.59212 0.24354
 C3965 C 0.65801 0.57601 0.24232
 C3966 C 0.64959 0.56927 0.25687
 C3967 C 0.67849 0.61930 0.26119
 C3968 C 0.69185 0.62391 0.25075
 C3969 C 0.70069 0.64176 0.25147
 C3970 C 0.70947 0.64726 0.23665
 C3971 C 0.71737 0.66418 0.23625
 C3972 C 0.71691 0.67604 0.25077
 C3973 C 0.70871 0.67031 0.26588
 C3974 C 0.70066 0.65335 0.26625
 H3975 H 0.64425 0.57444 0.28404
 H3976 H 0.66095 0.60256 0.28617
 H3977 H 0.67346 0.59703 0.23193
 H3978 H 0.65733 0.56876 0.22998
 H3979 H 0.67418 0.62854 0.27146
 H3980 H 0.69619 0.61446 0.24064
 H3981 H 0.70989 0.63857 0.22515
 H3982 H 0.72369 0.66804 0.22443
 H3983 H 0.70817 0.67908 0.27732
 H3984 H 0.69453 0.64944 0.27812
 C3985 C 0.16803 0.06701 0.74179
 C3986 C 0.17847 0.08255 0.74278
 C3987 C 0.17116 0.09902 0.74918
 C3988 C 0.15300 0.09970 0.75432
 C3989 C 0.14252 0.08419 0.75323
 C3990 C 0.14990 0.06762 0.74699
 C3991 C 0.18251 0.11532 0.74928
 C3992 C 0.17974 0.12995 0.75967
 C3993 C 0.19057 0.14656 0.75876
 C3994 C 0.19197 0.15827 0.77333
 C3995 C 0.20143 0.17443 0.77256
 C3996 C 0.20945 0.17935 0.75708
 C3997 C 0.20801 0.16759 0.74253
 C3998 C 0.19868 0.15147 0.74333
 H3999 H 0.17426 0.05447 0.73715
 H4000 H 0.19237 0.08166 0.73860
 H4001 H 0.14668 0.11227 0.75875
 H4002 H 0.12850 0.08528 0.75698
 H4003 H 0.19393 0.11493 0.74070
 H4004 H 0.16948 0.12971 0.76947
 H4005 H 0.18568 0.15491 0.78533
 H4006 H 0.20215 0.18322 0.78397
 H4007 H 0.21392 0.17092 0.73035
 H4008 H 0.19743 0.14318 0.73165
 C4009 C 0.32656 0.07091 0.25714
 C4010 C 0.31612 0.08690 0.25705
 C4011 C 0.32006 0.10082 0.24584
 C4012 C 0.33487 0.09841 0.23474
 C4013 C 0.34537 0.08245 0.23489
 C4014 C 0.34138 0.06852 0.24613
 C4015 C 0.30902 0.11785 0.24688
 C4016 C 0.30775 0.12997 0.23427
 C4017 C 0.29722 0.14733 0.23577
 C4018 C 0.30115 0.16133 0.22463
 C4019 C 0.29216 0.17815 0.22608
 C4020 C 0.27895 0.18136 0.23872
 C4021 C 0.27453 0.16713 0.24944
 C4022 C 0.28343 0.15032 0.24793
 H4023 H 0.32326 0.06058 0.26611
 H4024 H 0.30493 0.08842 0.26587
 H4025 H 0.33872 0.10892 0.22622
 H4026 H 0.35663 0.08098 0.22616
 H4027 H 0.30174 0.12033 0.25874
 H4028 H 0.31506 0.12746 0.22243
 H4029 H 0.31153 0.15939 0.21500
 H4030 H 0.29593 0.18878 0.21761
 H4031 H 0.26424 0.16902 0.25916
 H4032 H 0.27935 0.13980 0.25633
 C4033 C 0.84502 0.58070 0.76307
 C4034 C 0.83588 0.59741 0.76268
 C4035 C 0.83014 0.60478 0.74693
 C4036 C 0.83356 0.59482 0.73150
 C4037 C 0.84275 0.57808 0.73191
 C4038 C 0.84862 0.57082 0.74770
 C4039 C 0.82016 0.62246 0.74743
 C4040 C 0.81727 0.63302 0.73375
 C4041 C 0.80727 0.65069 0.73496
 C4042 C 0.81044 0.66395 0.72279
 C4043 C 0.80159 0.68090 0.72392
 C4044 C 0.78932 0.68490 0.73724
 C4045 C 0.78571 0.67137 0.74904
 C4046 C 0.79445 0.65449 0.74786
 H4047 H 0.84954 0.57566 0.77544
 H4048 H 0.83337 0.60468 0.77478
 H4049 H 0.82895 0.59967 0.71912
 H4050 H 0.84502 0.57067 0.71984
 H4051 H 0.81563 0.62726 0.76000
 H4052 H 0.82309 0.62919 0.72141
 H4053 H 0.82005 0.66132 0.71257
 H4054 H 0.80465 0.69097 0.71459
 H4055 H 0.77609 0.67381 0.75929
 H4056 H 0.79094 0.64445 0.75703
 C4057 C 0.92416 0.77506 0.18440
 C4058 C 0.90733 0.77613 0.19224
 C4059 C 0.89173 0.78056 0.18271
 C4060 C 0.89342 0.78522 0.16539
 C4061 C 0.91022 0.78416 0.15746
 C4062 C 0.92602 0.77841 0.16657
 C4063 C 0.87407 0.77927 0.19118
 C4064 C 0.85846 0.77669 0.18252
 C4065 C 0.84173 0.77213 0.19138
 C4066 C 0.82495 0.77765 0.18447
 C4067 C 0.80895 0.77308 0.19247
 C4068 C 0.80950 0.76260 0.20735
 C4069 C 0.82634 0.75673 0.21398
 C4070 C 0.84227 0.76143 0.20608
 H4071 H 0.93524 0.77018 0.19235
 H4072 H 0.90640 0.77259 0.20568
 H4073 H 0.88184 0.78970 0.15784
 H4074 H 0.91058 0.78843 0.14425
 H4075 H 0.87419 0.77894 0.20517
 H4076 H 0.85780 0.77726 0.16858
 H4077 H 0.82425 0.78566 0.17297
 H4078 H 0.79618 0.77773 0.18699
 H4079 H 0.82726 0.74857 0.22536
 H4080 H 0.85497 0.75634 0.21134
 C4081 C 0.40960 0.28321 0.65465
 C4082 C 0.39287 0.28337 0.66275
 C4083 C 0.39065 0.27375 0.67787
 C4084 C 0.40573 0.26506 0.68549
 C4085 C 0.42246 0.26501 0.67748
 C4086 C 0.42442 0.27367 0.66175
 C4087 C 0.37242 0.27248 0.68508
 C4088 C 0.36698 0.25740 0.69241
 C4089 C 0.34869 0.25511 0.69930
 C4090 C 0.34626 0.24154 0.71125
 C4091 C 0.32936 0.23898 0.71837
 C4092 C 0.31444 0.24989 0.71357
 C4093 C 0.31674 0.26314 0.70119
 C4094 C 0.33367 0.26570 0.69408
 H4095 H 0.41086 0.29022 0.64266
 H4096 H 0.38147 0.29038 0.65682
 H4097 H 0.40456 0.25806 0.69749
 H4098 H 0.43367 0.25754 0.68321
 H4099 H 0.36322 0.28387 0.68346
 H4100 H 0.37639 0.24608 0.69360
 H4101 H 0.35757 0.23305 0.71532
 H4102 H 0.32807 0.22859 0.72781
 H4103 H 0.30550 0.27170 0.69712
 H4104 H 0.33479 0.27586 0.68443
 C4105 C 0.41997 0.73201 0.84781
 C4106 C 0.40308 0.72997 0.83984
 C4107 C 0.40166 0.72251 0.82305
 C4108 C 0.41738 0.71634 0.81459
 C4109 C 0.43428 0.71824 0.82262
 C4110 C 0.43577 0.72635 0.83922
 C4111 C 0.38362 0.72170 0.81473
 C4112 C 0.38101 0.72323 0.79766
 C4113 C 0.36276 0.72529 0.78992
 C4114 C 0.36034 0.73605 0.77542
 C4115 C 0.34302 0.73967 0.76879
 C4116 C 0.32781 0.73241 0.77649
 C4117 C 0.33037 0.72086 0.79046
 C4118 C 0.34766 0.71729 0.79707
 H4119 H 0.42065 0.73849 0.86052
 H4120 H 0.39112 0.73475 0.84662
 H4121 H 0.41665 0.70998 0.80183
 H4122 H 0.44618 0.71334 0.81585
 H4123 H 0.37208 0.72184 0.82316
 H4124 H 0.39246 0.72507 0.78940
 H4125 H 0.37183 0.74219 0.76959
 H4126 H 0.34154 0.74845 0.75790
 H4127 H 0.31899 0.71471 0.79646
 H4128 H 0.34915 0.70836 0.80786
 C4129 C 0.91657 0.23176 0.35367
 C4130 C 0.89964 0.23001 0.34568
 C4131 C 0.89806 0.22184 0.32917
 C4132 C 0.91357 0.21443 0.32121
 C4133 C 0.93048 0.21605 0.32926
 C4134 C 0.93222 0.22512 0.34539
 C4135 C 0.88019 0.22181 0.32045
 C4136 C 0.87825 0.22317 0.30329
 C4137 C 0.86044 0.22596 0.29481
 C4138 C 0.85934 0.23609 0.27978
 C4139 C 0.84258 0.24010 0.27211
 C4140 C 0.82660 0.23386 0.27925
 C4141 C 0.82782 0.22305 0.29389
 C4142 C 0.84456 0.21912 0.30157
 H4143 H 0.91746 0.23893 0.36604
 H4144 H 0.88783 0.23570 0.35209
 H4145 H 0.91268 0.20746 0.30874
 H4146 H 0.94224 0.21035 0.32278
 H4147 H 0.86840 0.22276 0.32856
 H4148 H 0.89011 0.22421 0.29539
 H4149 H 0.87143 0.24135 0.27425
 H4150 H 0.84214 0.24830 0.26075
 H4151 H 0.81582 0.21777 0.29957
 H4152 H 0.84501 0.21073 0.31280
 C4153 C 0.06930 0.27943 0.32602
 C4154 C 0.08419 0.28409 0.31636
 C4155 C 0.09316 0.27105 0.30595
 C4156 C 0.08670 0.25329 0.30508
 C4157 C 0.07189 0.24864 0.31476
 C4158 C 0.06330 0.26156 0.32559
 C4159 C 0.11035 0.27571 0.29790
 C4160 C 0.11728 0.26625 0.28448
 C4161 C 0.13620 0.26761 0.27892
 C4162 C 0.14094 0.26002 0.26279
 C4163 C 0.15901 0.25860 0.25800
 C4164 C 0.17278 0.26465 0.26935
 C4165 C 0.16800 0.27287 0.28526
 C4166 C 0.14992 0.27427 0.29005
 H4167 H 0.06302 0.28959 0.33444
 H4168 H 0.08905 0.29778 0.31741
 H4169 H 0.09354 0.24268 0.29766
 H4170 H 0.06744 0.23480 0.31416
 H4171 H 0.11775 0.28683 0.30373
 H4172 H 0.10903 0.25641 0.27762
 H4173 H 0.13066 0.25468 0.25404
 H4174 H 0.16218 0.25228 0.24559
 H4175 H 0.17827 0.27768 0.29429
 H4176 H 0.14695 0.27976 0.30281
 C4177 C 0.57636 0.77672 0.82615
 C4178 C 0.59178 0.78086 0.81701
 C4179 C 0.60078 0.76748 0.80702
 C4180 C 0.59392 0.74989 0.80614
 C4181 C 0.57856 0.74576 0.81527
 C4182 C 0.56982 0.75904 0.82559
 C4183 C 0.61818 0.77173 0.79914
 C4184 C 0.62502 0.76207 0.78581
 C4185 C 0.64377 0.76357 0.77984
 C4186 C 0.64823 0.75570 0.76375
 C4187 C 0.66612 0.75482 0.75840
 C4188 C 0.68000 0.76177 0.76910
 C4189 C 0.67551 0.77011 0.78504
 C4190 C 0.65760 0.77093 0.79042
 H4191 H 0.56999 0.78715 0.83420
 H4192 H 0.59693 0.79444 0.81806
 H4193 H 0.60077 0.73902 0.79907
 H4194 H 0.57373 0.73206 0.81456
 H4195 H 0.62561 0.78289 0.80483
 H4196 H 0.61670 0.75218 0.77910
 H4197 H 0.63787 0.74982 0.75543
 H4198 H 0.66908 0.74840 0.74599
 H4199 H 0.68590 0.77555 0.79360
 H4200 H 0.65486 0.77665 0.80313
 C4201 C 0.56907 0.23073 0.67006
 C4202 C 0.58558 0.22841 0.67878
 C4203 C 0.59426 0.24324 0.68664
 C4204 C 0.58600 0.26049 0.68573
 C4205 C 0.56949 0.26281 0.67703
 C4206 C 0.56097 0.24800 0.66892
 C4207 C 0.61246 0.24042 0.69442
 C4208 C 0.61985 0.25196 0.70602
 C4209 C 0.63874 0.25019 0.71241
 C4210 C 0.64358 0.25910 0.72797
 C4211 C 0.66149 0.25878 0.73390
 C4212 C 0.67500 0.24963 0.72428
 C4213 C 0.67013 0.24060 0.70873
 C4214 C 0.65222 0.24094 0.70281
 H4215 H 0.56295 0.21911 0.66372
 H4216 H 0.59176 0.21502 0.67914
 H4217 H 0.59245 0.27238 0.69115
 H4218 H 0.56349 0.27625 0.67645
 H4219 H 0.61989 0.22829 0.69046
 H4220 H 0.61180 0.26311 0.71130
 H4221 H 0.63349 0.26647 0.73551
 H4222 H 0.66476 0.26590 0.74592
 H4223 H 0.68020 0.23352 0.70095
 H4224 H 0.64918 0.23441 0.69045
 C4225 C 0.07048 0.77332 0.18532
 C4226 C 0.08681 0.77218 0.19450
 C4227 C 0.09542 0.75538 0.19692
 C4228 C 0.08688 0.73957 0.19089
 C4229 C 0.07047 0.74070 0.18179
 C4230 C 0.06235 0.75761 0.17859
 C4231 C 0.11341 0.75493 0.20540
 C4232 C 0.12600 0.74220 0.20162
 C4233 C 0.14471 0.74295 0.20853
 C4234 C 0.15867 0.73457 0.19900
 C4235 C 0.17660 0.73563 0.20477
 C4236 C 0.18088 0.74505 0.22027
 C4237 C 0.16681 0.75304 0.23003
 C4238 C 0.14892 0.75191 0.22430
 H4239 H 0.06432 0.78650 0.18326
 H4240 H 0.09304 0.78451 0.19924
 H4241 H 0.09288 0.72636 0.19304
 H4242 H 0.06445 0.72840 0.17674
 H4243 H 0.11689 0.76644 0.21362
 H4244 H 0.12306 0.73173 0.19200
 H4245 H 0.15572 0.72744 0.18689
 H4246 H 0.18710 0.72920 0.19702
 H4247 H 0.16959 0.76010 0.24221
 H4248 H 0.13847 0.75794 0.23234
   
