data_POSCAR
  _audit_creation_date              2014-09-24
  _audit_creation_method            'ToBaCCo'
  _symmetry_space_group_name_H-M    'P1'
  _symmetry_Int_Tables_number       1
  _symmetry_cell_setting            triclinic
  loop_
  _symmetry_equiv_pos_as_xyz
 x,y,z
_cell_length_a 94.0988
_cell_length_b 94.0903
_cell_length_c 94.1575
_cell_angle_alpha 89.988700
_cell_angle_beta 89.986600
_cell_angle_gamma 89.972900
loop_
  _atom_site_label
  _atom_site_type_symbol
  _atom_site_fract_x
  _atom_site_fract_y
  _atom_site_fract_z
C1 C 0.34980 0.34990 0.33154
 C2 C 0.36190 0.34368 0.32544
 C3 C 0.36802 0.33138 0.33138
 C4 C 0.36189 0.32542 0.34365
 C5 C 0.34978 0.33153 0.34986
 C6 C 0.34370 0.34380 0.34378
 C7 C 0.34361 0.36203 0.32547
 C8 C 0.33134 0.36817 0.33143
 C9 C 0.32538 0.36204 0.34370
 C10 C 0.33145 0.34991 0.34989
 C11 C 0.32537 0.34371 0.36200
 C12 C 0.33131 0.33142 0.36811
 C13 C 0.34358 0.32544 0.36197
 H14 H 0.36649 0.34839 0.31599
 H15 H 0.36646 0.31595 0.34835
 H16 H 0.34832 0.36661 0.31601
 H17 H 0.31593 0.36664 0.34841
 H18 H 0.31591 0.34843 0.36658
 H19 H 0.34828 0.31597 0.36654
 C20 C 0.34983 0.85004 -0.16902
 C21 C 0.36194 0.84383 -0.17513
 C22 C 0.36813 0.83152 -0.16919
 C23 C 0.36199 0.82562 -0.15686
 C24 C 0.34989 0.83173 -0.15065
 C25 C 0.34377 0.84397 -0.15676
 C26 C 0.34361 0.86215 -0.17512
 C27 C 0.33131 0.86833 -0.16918
 C28 C 0.32542 0.86219 -0.15684
 C29 C 0.33153 0.85008 -0.15065
 C30 C 0.32548 0.84391 -0.13850
 C31 C 0.33146 0.83165 -0.13237
 C32 C 0.34372 0.82567 -0.13851
 H33 H 0.36643 0.84859 -0.18460
 H34 H 0.36652 0.81618 -0.15206
 H35 H 0.34837 0.86665 -0.18460
 H36 H 0.31597 0.86671 -0.15204
 H37 H 0.31603 0.84863 -0.13391
 H38 H 0.34844 0.81622 -0.13391
 C39 C 0.84986 0.35011 -0.16893
 C40 C 0.86198 0.34391 -0.17503
 C41 C 0.86817 0.33161 -0.16909
 C42 C 0.86202 0.32570 -0.15676
 C43 C 0.84991 0.33180 -0.15057
 C44 C 0.84379 0.34404 -0.15668
 C45 C 0.84364 0.36222 -0.17504
 C46 C 0.83133 0.36840 -0.16911
 C47 C 0.82542 0.36224 -0.15678
 C48 C 0.83154 0.35014 -0.15058
 C49 C 0.82547 0.34395 -0.13844
 C50 C 0.83145 0.33169 -0.13231
 C51 C 0.84373 0.32573 -0.13843
 H52 H 0.86648 0.34868 -0.18449
 H53 H 0.86655 0.31626 -0.15196
 H54 H 0.84841 0.36673 -0.18450
 H55 H 0.81596 0.36676 -0.15199
 H56 H 0.81601 0.34866 -0.13386
 H57 H 0.84845 0.31628 -0.13384
 C58 C 0.84958 0.85022 0.33142
 C59 C 0.86172 0.84402 0.32535
 C60 C 0.86786 0.83176 0.33132
 C61 C 0.86174 0.82581 0.34360
 C62 C 0.84961 0.83189 0.34979
 C63 C 0.84350 0.84413 0.34367
 C64 C 0.84337 0.86232 0.32531
 C65 C 0.83105 0.86849 0.33122
 C66 C 0.82512 0.86232 0.34354
 C67 C 0.83124 0.85022 0.34975
 C68 C 0.82516 0.84403 0.36188
 C69 C 0.83114 0.83177 0.36802
 C70 C 0.84342 0.82581 0.36191
 H71 H 0.86629 0.84872 0.31589
 H72 H 0.86634 0.81636 0.34832
 H73 H 0.84816 0.86683 0.31585
 H74 H 0.81566 0.86684 0.34831
 H75 H 0.81569 0.84873 0.36645
 H76 H 0.84815 0.81636 0.36650
 C77 C 0.65012 0.65036 0.33140
 C78 C 0.63801 0.65657 0.32531
 C79 C 0.63188 0.66884 0.33128
 C80 C 0.63798 0.67479 0.34356
 C81 C 0.65009 0.66869 0.34976
 C82 C 0.65620 0.65644 0.34366
 C83 C 0.65633 0.63825 0.32531
 C84 C 0.66860 0.63211 0.33127
 C85 C 0.67455 0.63822 0.34355
 C86 C 0.66845 0.65033 0.34976
 C87 C 0.67452 0.65652 0.36188
 C88 C 0.66855 0.66879 0.36801
 C89 C 0.65628 0.67476 0.36188
 H90 H 0.63344 0.65188 0.31585
 H91 H 0.63339 0.68424 0.34827
 H92 H 0.65164 0.63368 0.31585
 H93 H 0.68400 0.63363 0.34826
 H94 H 0.68398 0.65180 0.36647
 H95 H 0.65156 0.68421 0.36647
 C96 C 0.65034 0.15025 -0.16869
 C97 C 0.63821 0.15645 -0.17476
 C98 C 0.63208 0.16873 -0.16880
 C99 C 0.63820 0.17468 -0.15653
 C100 C 0.65033 0.16860 -0.15035
 C101 C 0.65643 0.15635 -0.15645
 C102 C 0.65654 0.13814 -0.17479
 C103 C 0.66887 0.13197 -0.16887
 C104 C 0.67480 0.13814 -0.15657
 C105 C 0.66869 0.15025 -0.15037
 C106 C 0.67477 0.15646 -0.13826
 C107 C 0.66881 0.16873 -0.13213
 C108 C 0.65652 0.17468 -0.13824
 H109 H 0.63363 0.15175 -0.18421
 H110 H 0.63361 0.18414 -0.15182
 H111 H 0.65176 0.13363 -0.18423
 H112 H 0.68426 0.13363 -0.15179
 H113 H 0.68424 0.15175 -0.13368
 H114 H 0.65181 0.18414 -0.13366
 C115 C 0.15045 0.65030 -0.16876
 C116 C 0.13832 0.65650 -0.17483
 C117 C 0.13219 0.66877 -0.16887
 C118 C 0.13831 0.67473 -0.15660
 C119 C 0.15043 0.66864 -0.15041
 C120 C 0.15654 0.65639 -0.15651
 C121 C 0.15666 0.63819 -0.17485
 C122 C 0.16898 0.63202 -0.16894
 C123 C 0.17490 0.63819 -0.15663
 C124 C 0.16880 0.65030 -0.15043
 C125 C 0.17488 0.65650 -0.13832
 C126 C 0.16891 0.66877 -0.13219
 C127 C 0.15662 0.67473 -0.13831
 H128 H 0.13374 0.65180 -0.18428
 H129 H 0.13372 0.68418 -0.15189
 H130 H 0.15187 0.63367 -0.18430
 H131 H 0.18437 0.63367 -0.15185
 H132 H 0.18434 0.65180 -0.13374
 H133 H 0.15190 0.68418 -0.13372
 C134 C 0.15023 0.15045 0.33109
 C135 C 0.13812 0.15666 0.32499
 C136 C 0.13192 0.16896 0.33092
 C137 C 0.13805 0.17485 0.34327
 C138 C 0.15015 0.16874 0.34947
 C139 C 0.15628 0.15650 0.34336
 C140 C 0.15645 0.13835 0.32499
 C141 C 0.16875 0.13216 0.33092
 C142 C 0.17464 0.13829 0.34327
 C143 C 0.16851 0.15039 0.34947
 C144 C 0.17455 0.15655 0.36162
 C145 C 0.16857 0.16881 0.36776
 C146 C 0.15631 0.17478 0.36162
 H147 H 0.13363 0.15191 0.31551
 H148 H 0.13352 0.18429 0.34806
 H149 H 0.15170 0.13385 0.31551
 H150 H 0.18408 0.13376 0.34806
 H151 H 0.18400 0.15183 0.36622
 H152 H 0.15159 0.18423 0.36622
 C153 C 0.65008 0.35014 0.66817
 C154 C 0.63796 0.34395 0.67425
 C155 C 0.63182 0.33169 0.66828
 C156 C 0.63793 0.32574 0.65599
 C157 C 0.65005 0.33183 0.64979
 C158 C 0.65616 0.34407 0.65590
 C159 C 0.65630 0.36224 0.67427
 C160 C 0.66858 0.36836 0.66832
 C161 C 0.67452 0.36225 0.65603
 C162 C 0.66842 0.35016 0.64981
 C163 C 0.67449 0.34397 0.63769
 C164 C 0.66852 0.33171 0.63155
 C165 C 0.65624 0.32576 0.63767
 H166 H 0.63339 0.34864 0.68372
 H167 H 0.63334 0.31630 0.65127
 H168 H 0.65160 0.36681 0.68374
 H169 H 0.68399 0.36683 0.65133
 H170 H 0.68396 0.34867 0.63311
 H171 H 0.65152 0.31631 0.63308
 C172 C 0.64995 0.84985 1.16851
 C173 C 0.63784 0.84367 1.17461
 C174 C 0.63166 0.83136 1.16869
 C175 C 0.63782 0.82543 1.15637
 C176 C 0.64993 0.83152 1.15017
 C177 C 0.65603 0.84376 1.15626
 C178 C 0.65616 0.86197 1.17458
 C179 C 0.66844 0.86809 1.16862
 C180 C 0.67438 0.86196 1.15634
 C181 C 0.66829 0.84985 1.15015
 C182 C 0.67436 0.84365 1.13803
 C183 C 0.66840 0.83139 1.13191
 C184 C 0.65612 0.82543 1.13805
 H185 H 0.63333 0.84845 1.18406
 H186 H 0.63329 0.81598 1.15159
 H187 H 0.65147 0.86655 1.18404
 H188 H 0.68384 0.86654 1.15163
 H189 H 0.68382 0.84836 1.13345
 H190 H 0.65141 0.81598 1.13347
 C191 C 0.15008 0.34983 1.16865
 C192 C 0.13799 0.34361 1.17477
 C193 C 0.13183 0.33128 1.16885
 C194 C 0.13800 0.32537 1.15653
 C195 C 0.15009 0.33149 1.15032
 C196 C 0.15617 0.34375 1.15640
 C197 C 0.15626 0.36196 1.17472
 C198 C 0.16852 0.36811 1.16874
 C199 C 0.17447 0.36200 1.15646
 C200 C 0.16840 0.34987 1.15028
 C201 C 0.17448 0.34369 1.13816
 C202 C 0.16854 0.33140 1.13205
 C203 C 0.15629 0.32542 1.13819
 H204 H 0.13347 0.34838 1.18423
 H205 H 0.13350 0.31590 1.15176
 H206 H 0.15157 0.36653 1.18419
 H207 H 0.18391 0.36660 1.15174
 H208 H 0.18392 0.34842 1.13356
 H209 H 0.15160 0.31595 1.13362
 C210 C 0.14986 0.84989 0.66851
 C211 C 0.13776 0.84367 0.67462
 C212 C 0.13159 0.83136 0.66869
 C213 C 0.13774 0.82547 0.65635
 C214 C 0.14983 0.83158 0.65014
 C215 C 0.15593 0.84382 0.65624
 C216 C 0.15606 0.86200 0.67460
 C217 C 0.16832 0.86814 0.66863
 C218 C 0.17426 0.86204 0.65633
 C219 C 0.16817 0.84994 0.65013
 C220 C 0.17423 0.84377 0.63799
 C221 C 0.16827 0.83150 0.63186
 C222 C 0.15602 0.82552 0.63800
 H223 H 0.13326 0.84844 0.68409
 H224 H 0.13322 0.81602 0.65156
 H225 H 0.15138 0.86656 0.68408
 H226 H 0.18370 0.86664 0.65161
 H227 H 0.18368 0.84850 0.63340
 H228 H 0.15131 0.81607 0.63341
 C229 C 0.34975 0.65039 0.66823
 C230 C 0.36186 0.65660 0.67431
 C231 C 0.36798 0.66888 0.66835
 C232 C 0.36186 0.67483 0.65608
 C233 C 0.34975 0.66874 0.64988
 C234 C 0.34366 0.65648 0.65597
 C235 C 0.34355 0.63828 0.67431
 C236 C 0.33128 0.63215 0.66836
 C237 C 0.32532 0.63827 0.65608
 C238 C 0.33141 0.65038 0.64988
 C239 C 0.32533 0.65658 0.63777
 C240 C 0.33128 0.66886 0.63164
 C241 C 0.34355 0.67482 0.63777
 H242 H 0.36644 0.65189 0.68377
 H243 H 0.36644 0.68429 0.65137
 H244 H 0.34826 0.63370 0.68377
 H245 H 0.31587 0.63369 0.65138
 H246 H 0.31587 0.65187 0.63319
 H247 H 0.34826 0.68429 0.63318
 C248 C 0.34987 0.15037 1.16880
 C249 C 0.36199 0.15656 1.17489
 C250 C 0.36819 0.16886 1.16895
 C251 C 0.36204 0.17476 1.15661
 C252 C 0.34993 0.16867 1.15042
 C253 C 0.34381 0.15644 1.15654
 C254 C 0.34365 0.13827 1.17492
 C255 C 0.33134 0.13210 1.16899
 C256 C 0.32545 0.13825 1.15665
 C257 C 0.33157 0.15034 1.15045
 C258 C 0.32551 0.15652 1.13830
 C259 C 0.33149 0.16877 1.13216
 C260 C 0.34376 0.17473 1.13828
 H261 H 0.36649 0.15180 1.18436
 H262 H 0.36658 0.18420 1.15181
 H263 H 0.34841 0.13377 1.18439
 H264 H 0.31600 0.13374 1.15187
 H265 H 0.31606 0.15181 1.13372
 H266 H 0.34848 0.18417 1.13368
 C267 C 0.84972 0.65008 1.16856
 C268 C 0.86183 0.65629 1.17463
 C269 C 0.86796 0.66855 1.16865
 C270 C 0.86185 0.67449 1.15637
 C271 C 0.84974 0.66839 1.15018
 C272 C 0.84364 0.65615 1.15630
 C273 C 0.84352 0.63797 1.17467
 C274 C 0.83121 0.63179 1.16875
 C275 C 0.82529 0.63794 1.15642
 C276 C 0.83139 0.65005 1.15021
 C277 C 0.82532 0.65623 1.13808
 C278 C 0.83128 0.66849 1.13194
 C279 C 0.84355 0.67446 1.13806
 H280 H 0.86641 0.65160 1.18410
 H281 H 0.86643 0.68394 1.15165
 H282 H 0.84830 0.63347 1.18413
 H283 H 0.81584 0.63342 1.15164
 H284 H 0.81586 0.65152 1.13350
 H285 H 0.84826 0.68391 1.13346
 C286 C 0.84978 0.15048 0.66833
 C287 C 0.86188 0.15669 0.67443
 C288 C 0.86801 0.16897 0.66846
 C289 C 0.86191 0.17491 0.65618
 C290 C 0.84980 0.16882 0.64997
 C291 C 0.84370 0.15657 0.65607
 C292 C 0.84358 0.13837 0.67442
 C293 C 0.83131 0.13224 0.66846
 C294 C 0.82537 0.13835 0.65617
 C295 C 0.83146 0.15046 0.64996
 C296 C 0.82539 0.15665 0.63784
 C297 C 0.83136 0.16892 0.63171
 C298 C 0.84362 0.17489 0.63784
 H299 H 0.86645 0.15199 0.68389
 H300 H 0.86649 0.18437 0.65147
 H301 H 0.84827 0.13380 0.68389
 H302 H 0.81592 0.13376 0.65146
 H303 H 0.81594 0.15194 0.63325
 H304 H 0.84833 0.18435 0.63326
 C305 C 0.34958 0.34998 0.66842
 C306 C 0.34337 0.36210 0.67451
 C307 C 0.33108 0.36822 0.66857
 C308 C 0.32511 0.36209 0.65631
 C309 C 0.33120 0.34997 0.65011
 C310 C 0.34347 0.34388 0.65619
 C311 C 0.36170 0.34379 0.67449
 C312 C 0.36784 0.33151 0.66854
 C313 C 0.36170 0.32554 0.65628
 C314 C 0.34958 0.33162 0.65009
 C315 C 0.34337 0.32553 0.63799
 C316 C 0.33108 0.33149 0.63188
 C317 C 0.32511 0.34376 0.63801
 H318 H 0.34809 0.36668 0.68396
 H319 H 0.31565 0.36667 0.65161
 H320 H 0.36629 0.34850 0.68394
 H321 H 0.36629 0.31608 0.65157
 H322 H 0.34808 0.31607 0.63341
 H323 H 0.31564 0.34847 0.63343
 C324 C 0.34986 0.85052 0.16816
 C325 C 0.34365 0.86263 0.17425
 C326 C 0.33136 0.86875 0.16830
 C327 C 0.32540 0.86263 0.15604
 C328 C 0.33149 0.85051 0.14983
 C329 C 0.34376 0.84442 0.15591
 C330 C 0.36199 0.84432 0.17423
 C331 C 0.36812 0.83204 0.16827
 C332 C 0.36199 0.82609 0.15600
 C333 C 0.34987 0.83217 0.14982
 C334 C 0.34366 0.82608 0.13771
 C335 C 0.33138 0.83204 0.13160
 C336 C 0.32541 0.84431 0.13773
 H337 H 0.34836 0.86721 0.18370
 H338 H 0.31593 0.86721 0.15134
 H339 H 0.36657 0.84902 0.18368
 H340 H 0.36658 0.81663 0.15129
 H341 H 0.34838 0.81663 0.13313
 H342 H 0.31594 0.84901 0.13316
 C343 C 0.85024 0.35001 0.16821
 C344 C 0.84404 0.36213 0.17428
 C345 C 0.83177 0.36827 0.16831
 C346 C 0.82581 0.36214 0.15604
 C347 C 0.83190 0.35002 0.14986
 C348 C 0.84415 0.34391 0.15596
 C349 C 0.86235 0.34380 0.17430
 C350 C 0.86847 0.33151 0.16835
 C351 C 0.86236 0.32555 0.15608
 C352 C 0.85025 0.33165 0.14987
 C353 C 0.84405 0.32556 0.13776
 C354 C 0.83178 0.33153 0.13163
 C355 C 0.82582 0.34382 0.13775
 H356 H 0.84874 0.36671 0.18373
 H357 H 0.81636 0.36673 0.15133
 H358 H 0.86692 0.34851 0.18375
 H359 H 0.86694 0.31609 0.15138
 H360 H 0.84875 0.31610 0.13319
 H361 H 0.81637 0.34853 0.13316
 C362 C 0.84979 0.85020 0.66838
 C363 C 0.84358 0.86231 0.67448
 C364 C 0.83128 0.86843 0.66854
 C365 C 0.82532 0.86231 0.65627
 C366 C 0.83141 0.85020 0.65006
 C367 C 0.84369 0.84411 0.65614
 C368 C 0.86192 0.84401 0.67445
 C369 C 0.86805 0.83174 0.66848
 C370 C 0.86192 0.82578 0.65621
 C371 C 0.84979 0.83186 0.65003
 C372 C 0.84358 0.82577 0.63793
 C373 C 0.83129 0.83172 0.63183
 C374 C 0.82532 0.84400 0.63796
 H375 H 0.84829 0.86689 0.68393
 H376 H 0.81585 0.86688 0.65158
 H377 H 0.86650 0.84871 0.68390
 H378 H 0.86651 0.81632 0.65150
 H379 H 0.84830 0.81632 0.63334
 H380 H 0.81585 0.84870 0.63340
 C381 C 0.65014 0.65035 0.66868
 C382 C 0.65636 0.63824 0.67477
 C383 C 0.66863 0.63211 0.66880
 C384 C 0.67458 0.63822 0.65652
 C385 C 0.66847 0.65033 0.65031
 C386 C 0.65622 0.65643 0.65641
 C387 C 0.63802 0.65656 0.67477
 C388 C 0.63188 0.66882 0.66880
 C389 C 0.63799 0.67477 0.65651
 C390 C 0.65011 0.66868 0.65031
 C391 C 0.65629 0.67475 0.63818
 C392 C 0.66857 0.66879 0.63205
 C393 C 0.67454 0.65652 0.63818
 H394 H 0.65167 0.63367 0.68423
 H395 H 0.68403 0.63364 0.65180
 H396 H 0.63345 0.65186 0.68423
 H397 H 0.63340 0.68422 0.65180
 H398 H 0.65157 0.68421 0.63360
 H399 H 0.68400 0.65181 0.63360
 C400 C 0.65020 0.15009 0.16811
 C401 C 0.65641 0.13798 0.17420
 C402 C 0.66871 0.13187 0.16827
 C403 C 0.67469 0.13801 0.15602
 C404 C 0.66860 0.15012 0.14981
 C405 C 0.65632 0.15620 0.15587
 C406 C 0.63806 0.15628 0.17417
 C407 C 0.63193 0.16855 0.16820
 C408 C 0.63807 0.17452 0.15594
 C409 C 0.65021 0.16845 0.14977
 C410 C 0.65643 0.17455 0.13767
 C411 C 0.66873 0.16860 0.13158
 C412 C 0.67470 0.15633 0.13771
 H413 H 0.65169 0.13339 0.18365
 H414 H 0.68417 0.13344 0.15133
 H415 H 0.63347 0.15156 0.18361
 H416 H 0.63348 0.18398 0.15123
 H417 H 0.65172 0.18400 0.13308
 H418 H 0.68418 0.15164 0.13315
 C419 C 0.15007 0.65038 0.16815
 C420 C 0.15626 0.63826 0.17423
 C421 C 0.16855 0.63213 0.16828
 C422 C 0.17452 0.63826 0.15602
 C423 C 0.16843 0.65038 0.14982
 C424 C 0.15617 0.65648 0.15591
 C425 C 0.13795 0.65658 0.17423
 C426 C 0.13182 0.66886 0.16828
 C427 C 0.13795 0.67483 0.15601
 C428 C 0.15007 0.66874 0.14981
 C429 C 0.15628 0.67483 0.13771
 C430 C 0.16857 0.66887 0.13159
 C431 C 0.17453 0.65658 0.13771
 H432 H 0.15155 0.63367 0.18369
 H433 H 0.18398 0.63367 0.15132
 H434 H 0.13336 0.65187 0.18368
 H435 H 0.13337 0.68429 0.15131
 H436 H 0.15158 0.68429 0.13313
 H437 H 0.18399 0.65188 0.13314
 C438 C 0.14995 0.15021 0.66866
 C439 C 0.15616 0.13810 0.67475
 C440 C 0.16842 0.13195 0.66878
 C441 C 0.17436 0.13805 0.65649
 C442 C 0.16827 0.15017 0.65028
 C443 C 0.15602 0.15628 0.65638
 C444 C 0.13784 0.15643 0.67475
 C445 C 0.13171 0.16870 0.66879
 C446 C 0.13782 0.17464 0.65649
 C447 C 0.14992 0.16853 0.65028
 C448 C 0.15610 0.17459 0.63815
 C449 C 0.16836 0.16862 0.63201
 C450 C 0.17433 0.15634 0.63815
 H451 H 0.15147 0.13353 0.68422
 H452 H 0.18381 0.13346 0.65177
 H453 H 0.13328 0.15174 0.68423
 H454 H 0.13323 0.18409 0.65178
 H455 H 0.15139 0.18405 0.63356
 H456 H 0.18378 0.15162 0.63356
 C457 C 0.34987 0.65051 0.33127
 C458 C 0.34368 0.63839 0.32520
 C459 C 0.33141 0.63226 0.33116
 C460 C 0.32545 0.63838 0.34344
 C461 C 0.33152 0.65050 0.34962
 C462 C 0.34377 0.65661 0.34352
 C463 C 0.36198 0.65672 0.32518
 C464 C 0.36809 0.66900 0.33113
 C465 C 0.36196 0.67496 0.34340
 C466 C 0.34985 0.66887 0.34961
 C467 C 0.34365 0.67495 0.36172
 C468 C 0.33138 0.66899 0.36785
 C469 C 0.32543 0.65670 0.36173
 H470 H 0.34839 0.63381 0.31574
 H471 H 0.31599 0.63380 0.34815
 H472 H 0.36656 0.65201 0.31573
 H473 H 0.36653 0.68443 0.34810
 H474 H 0.34835 0.68442 0.36629
 H475 H 0.31598 0.65199 0.36632
 C476 C 0.35002 0.15003 0.83162
 C477 C 0.34382 0.13791 0.82555
 C478 C 0.33155 0.13178 0.83152
 C479 C 0.32560 0.13790 0.84379
 C480 C 0.33168 0.15002 0.84998
 C481 C 0.34393 0.15612 0.84388
 C482 C 0.36212 0.15624 0.82553
 C483 C 0.36824 0.16852 0.83147
 C484 C 0.36212 0.17448 0.84375
 C485 C 0.35002 0.16838 0.84996
 C486 C 0.34382 0.17447 0.86207
 C487 C 0.33155 0.16850 0.86821
 C488 C 0.32560 0.15622 0.86210
 H489 H 0.34853 0.13333 0.81609
 H490 H 0.31614 0.13332 0.84850
 H491 H 0.36670 0.15153 0.81607
 H492 H 0.36670 0.18394 0.84845
 H493 H 0.34852 0.18393 0.86665
 H494 H 0.31614 0.15151 0.86668
 C495 C 0.85013 0.65021 0.83151
 C496 C 0.84395 0.63808 0.82544
 C497 C 0.83169 0.63194 0.83141
 C498 C 0.82572 0.63806 0.84368
 C499 C 0.83179 0.65019 0.84987
 C500 C 0.84403 0.65631 0.84376
 C501 C 0.86223 0.65643 0.82541
 C502 C 0.86833 0.66873 0.83136
 C503 C 0.86220 0.67468 0.84363
 C504 C 0.85010 0.66858 0.84984
 C505 C 0.84389 0.67466 0.86195
 C506 C 0.83163 0.66868 0.86808
 C507 C 0.82569 0.65639 0.86197
 H508 H 0.84866 0.63351 0.81598
 H509 H 0.81627 0.63347 0.84840
 H510 H 0.86681 0.65173 0.81596
 H511 H 0.86676 0.68416 0.84832
 H512 H 0.84858 0.68413 0.86652
 H513 H 0.81624 0.65167 0.86656
 C514 C 0.85016 0.15014 0.33133
 C515 C 0.84396 0.13803 0.32526
 C516 C 0.83168 0.13191 0.33121
 C517 C 0.82571 0.13805 0.34347
 C518 C 0.83179 0.15017 0.34966
 C519 C 0.84405 0.15625 0.34357
 C520 C 0.86228 0.15634 0.32525
 C521 C 0.86840 0.16861 0.33120
 C522 C 0.86227 0.17459 0.34347
 C523 C 0.85015 0.16851 0.34966
 C524 C 0.84393 0.17461 0.36176
 C525 C 0.83165 0.16866 0.36788
 C526 C 0.82570 0.15638 0.36176
 H527 H 0.84867 0.13343 0.31581
 H528 H 0.81624 0.13348 0.34818
 H529 H 0.86687 0.15162 0.31581
 H530 H 0.86685 0.18405 0.34816
 H531 H 0.84864 0.18407 0.36633
 H532 H 0.81623 0.15168 0.36634
 C533 C 0.65007 0.34994 0.33097
 C534 C 0.65627 0.36206 0.32488
 C535 C 0.66853 0.36820 0.33085
 C536 C 0.67447 0.36208 0.34313
 C537 C 0.66839 0.34997 0.34934
 C538 C 0.65615 0.34386 0.34323
 C539 C 0.63796 0.34373 0.32488
 C540 C 0.63184 0.33146 0.33085
 C541 C 0.63795 0.32551 0.34313
 C542 C 0.65006 0.33161 0.34933
 C543 C 0.65625 0.32553 0.36146
 C544 C 0.66851 0.33151 0.36759
 C545 C 0.67446 0.34378 0.36146
 H546 H 0.65157 0.36663 0.31542
 H547 H 0.68392 0.36667 0.34785
 H548 H 0.63339 0.34843 0.31541
 H549 H 0.63337 0.31605 0.34784
 H550 H 0.65154 0.31607 0.36604
 H551 H 0.68391 0.34850 0.36604
 C552 C 0.64987 0.85022 0.83168
 C553 C 0.65607 0.86234 0.82561
 C554 C 0.66836 0.86845 0.83156
 C555 C 0.67432 0.86230 0.84382
 C556 C 0.66824 0.85018 0.85001
 C557 C 0.65598 0.84410 0.84392
 C558 C 0.63775 0.84403 0.82560
 C559 C 0.63163 0.83175 0.83155
 C560 C 0.63776 0.82577 0.84381
 C561 C 0.64988 0.83184 0.85000
 C562 C 0.65609 0.82573 0.86210
 C563 C 0.66838 0.83167 0.86821
 C564 C 0.67433 0.84396 0.86210
 H565 H 0.65136 0.86694 0.81616
 H566 H 0.68379 0.86687 0.84852
 H567 H 0.63317 0.84876 0.81616
 H568 H 0.63318 0.81630 0.84850
 H569 H 0.65139 0.81626 0.86667
 H570 H 0.68380 0.84865 0.86668
 C571 C 0.14994 0.35023 0.83183
 C572 C 0.15613 0.36235 0.82575
 C573 C 0.16842 0.36846 0.83170
 C574 C 0.17439 0.36231 0.84395
 C575 C 0.16831 0.35019 0.85014
 C576 C 0.15605 0.34411 0.84406
 C577 C 0.13781 0.34404 0.82575
 C578 C 0.13169 0.33175 0.83170
 C579 C 0.13783 0.32577 0.84395
 C580 C 0.14996 0.33184 0.85014
 C581 C 0.15617 0.32573 0.86223
 C582 C 0.16846 0.33168 0.86834
 C583 C 0.17441 0.34396 0.86223
 H584 H 0.15141 0.36695 0.81631
 H585 H 0.18386 0.36688 0.84864
 H586 H 0.13322 0.34876 0.81631
 H587 H 0.13326 0.31630 0.84864
 H588 H 0.15147 0.31627 0.86680
 H589 H 0.18388 0.34866 0.86680
 C590 C 0.14995 0.85047 0.33128
 C591 C 0.15615 0.86259 0.32520
 C592 C 0.16841 0.86871 0.33117
 C593 C 0.17437 0.86259 0.34344
 C594 C 0.16828 0.85047 0.34964
 C595 C 0.15604 0.84437 0.34354
 C596 C 0.13784 0.84426 0.32519
 C597 C 0.13172 0.83198 0.33115
 C598 C 0.13784 0.82602 0.34342
 C599 C 0.14994 0.83211 0.34963
 C600 C 0.15613 0.82603 0.36174
 C601 C 0.16840 0.83199 0.36787
 C602 C 0.17436 0.84427 0.36175
 H603 H 0.15145 0.86717 0.31574
 H604 H 0.18382 0.86717 0.34815
 H605 H 0.13326 0.84897 0.31573
 H606 H 0.13326 0.81656 0.34813
 H607 H 0.15143 0.81656 0.36632
 H608 H 0.18381 0.84898 0.36634
 O609 O 0.24847 1.01457 0.26795
 O610 O 0.26802 0.98685 0.24840
 O611 O 0.26806 1.01456 0.24844
 O612 O 0.24845 0.98686 0.26793
 O613 O 0.23187 0.98690 0.25132
 O614 O 0.25147 1.01461 0.23183
 O615 O 0.25143 0.98690 0.23179
 O616 O 0.23189 1.01461 0.25134
 Cu617 Cu 0.25991 1.00070 0.25985
 Cu618 Cu 0.24000 1.00076 0.23990
 C619 C 0.23688 1.01933 0.26294
 C620 C 0.26302 0.98213 0.23679
 C621 C 0.26308 1.01933 0.23685
 C622 C 0.23685 0.98213 0.26291
 O623 O 0.24840 0.51422 0.76811
 O624 O 0.26787 0.48645 0.74856
 O625 O 0.26791 0.51416 0.74853
 O626 O 0.24837 0.48651 0.76815
 O627 O 0.23173 0.48652 0.75159
 O628 O 0.25127 0.51417 0.73197
 O629 O 0.25123 0.48646 0.73201
 O630 O 0.23176 0.51423 0.75156
 Cu631 Cu 0.25981 0.50033 0.76000
 Cu632 Cu 0.23983 0.50035 0.74012
 C633 C 0.23679 0.51898 0.76313
 C634 C 0.26284 0.48170 0.73698
 C635 C 0.26289 0.51890 0.73694
 C636 C 0.23675 0.48178 0.76318
 O637 O 0.73205 0.01383 0.24846
 O638 O 0.75154 -0.01389 0.26805
 O639 O 0.75159 0.01382 0.26800
 O640 O 0.73201 -0.01387 0.24851
 O641 O 0.74862 -0.01393 0.23192
 O642 O 0.76820 0.01376 0.25141
 O643 O 0.76815 -0.01394 0.25147
 O644 O 0.74866 0.01377 0.23187
 Cu645 Cu 0.74013 -0.00002 0.25992
 Cu646 Cu 0.76008 -0.00009 0.24000
 C647 C 0.73706 0.01855 0.23686
 C648 C 0.76314 -0.01866 0.26307
 C649 C 0.76320 0.01854 0.26300
 C650 C 0.73700 -0.01864 0.23692
 O651 O 0.75170 0.48611 0.76805
 O652 O 0.73215 0.51388 0.74859
 O653 O 0.73215 0.48617 0.74853
 O654 O 0.75172 0.51382 0.76810
 O655 O 0.76831 0.51384 0.75149
 O656 O 0.74874 0.48619 0.73192
 O657 O 0.74874 0.51390 0.73198
 O658 O 0.76830 0.48613 0.75144
 Cu659 Cu 0.74027 0.49999 0.75999
 Cu660 Cu 0.76019 0.50002 0.74004
 C661 C 0.76330 0.48137 0.76304
 C662 C 0.73715 0.51864 0.73700
 C663 C 0.73713 0.48145 0.73692
 C664 C 0.76332 0.51857 0.76310
 O665 O 0.23189 0.51407 0.24842
 O666 O 0.25143 0.48638 0.26801
 O667 O 0.25144 0.51408 0.26796
 O668 O 0.23188 0.48636 0.24848
 O669 O 0.24849 0.48632 0.23189
 O670 O 0.26804 0.51404 0.25137
 O671 O 0.26803 0.48633 0.25142
 O672 O 0.24850 0.51402 0.23183
 Cu673 Cu 0.23999 0.50023 0.25989
 Cu674 Cu 0.25993 0.50017 0.23996
 C675 C 0.23690 0.51879 0.23682
 C676 C 0.26303 0.48161 0.26303
 C677 C 0.26304 0.51881 0.26296
 C678 C 0.23688 0.48159 0.23690
 O679 O 0.74837 1.01426 0.76814
 O680 O 0.76789 0.98652 0.74859
 O681 O 0.76790 1.01423 0.74857
 O682 O 0.74835 0.98655 0.76815
 O683 O 0.73173 0.98656 0.75158
 O684 O 0.75128 1.01424 0.73200
 O685 O 0.75127 0.98653 0.73202
 O686 O 0.73175 1.01427 0.75157
 Cu687 Cu 0.75980 1.00039 0.76003
 Cu688 Cu 0.73984 1.00040 0.74013
 C689 C 0.73677 1.01901 0.76315
 C690 C 0.76287 0.98178 0.73700
 C691 C 0.76289 1.01898 0.73698
 C692 C 0.73674 0.98181 0.76317
 O693 O 0.74866 0.51406 0.26776
 O694 O 0.76824 0.48639 0.24821
 O695 O 0.76823 0.51410 0.24824
 O696 O 0.74865 0.48636 0.26771
 O697 O 0.73207 0.48639 0.25110
 O698 O 0.75165 0.51412 0.23163
 O699 O 0.75166 0.48642 0.23160
 O700 O 0.73208 0.51410 0.25115
 Cu701 Cu 0.76011 0.50022 0.25965
 Cu702 Cu 0.74020 0.50026 0.23970
 C703 C 0.73707 0.51882 0.26276
 C704 C 0.76326 0.48166 0.23660
 C705 C 0.76324 0.51886 0.23665
 C706 C 0.73706 0.48163 0.26269
 O707 O 0.25154 -0.01398 0.76811
 O708 O 0.23195 0.01378 0.74866
 O709 O 0.23194 -0.01393 0.74863
 O710 O 0.25153 0.01373 0.76816
 O711 O 0.26810 0.01375 0.75153
 O712 O 0.24851 -0.01392 0.73200
 O713 O 0.24852 0.01379 0.73203
 O714 O 0.26810 -0.01396 0.75148
 Cu715 Cu 0.24007 -0.00010 0.76006
 Cu716 Cu 0.25997 -0.00008 0.74009
 C717 C 0.26313 -0.01872 0.76308
 C718 C 0.23693 0.01853 0.73706
 C719 C 0.23691 -0.01866 0.73701
 C720 C 0.26312 0.01848 0.76315
 O721 O 0.26815 0.24858 1.01393
 O722 O 0.24858 0.26812 0.98624
 O723 O 0.24858 0.26812 1.01393
 O724 O 0.26814 0.24857 0.98624
 O725 O 0.25155 0.23196 0.98625
 O726 O 0.23199 0.25151 1.01394
 O727 O 0.23199 0.25151 0.98625
 O728 O 0.25156 0.23197 1.01394
 Cu729 Cu 0.26003 0.26002 1.00008
 Cu730 Cu 0.24011 0.24007 1.00010
 C731 C 0.26316 0.23698 1.01868
 C732 C 0.23698 0.26312 0.98151
 C733 C 0.23698 0.26311 1.01867
 C734 C 0.26315 0.23696 0.98151
 O735 O 0.23170 0.75181 0.51359
 O736 O 0.25129 0.73231 0.48590
 O737 O 0.25127 0.73228 0.51358
 O738 O 0.23173 0.75186 0.48591
 O739 O 0.24831 0.76847 0.48594
 O740 O 0.26786 0.74889 0.51361
 O741 O 0.26787 0.74892 0.48592
 O742 O 0.24828 0.76843 0.51362
 Cu743 Cu 0.23983 0.74040 0.49974
 Cu744 Cu 0.25975 0.76035 0.49977
 C745 C 0.23668 0.76341 0.51835
 C746 C 0.26289 0.73732 0.48117
 C747 C 0.26287 0.73728 0.51833
 C748 C 0.23672 0.76347 0.48118
 O749 O 0.26821 0.75184 -0.01409
 O750 O 0.24866 0.73230 0.01361
 O751 O 0.24870 0.73227 -0.01408
 O752 O 0.26817 0.75188 0.01360
 O753 O 0.25154 0.76846 0.01356
 O754 O 0.23207 0.74886 -0.01412
 O755 O 0.23203 0.74888 0.01357
 O756 O 0.25159 0.76843 -0.01413
 Cu757 Cu 0.26011 0.74041 -0.00024
 Cu758 Cu 0.24014 0.76032 -0.00028
 C759 C 0.26320 0.76343 -0.01885
 C760 C 0.23704 0.73729 0.01833
 C761 C 0.23709 0.73725 -0.01884
 C762 C 0.26315 0.76348 0.01832
 O763 O 0.26782 0.25145 0.48615
 O764 O 0.24825 0.23190 0.51382
 O765 O 0.24827 0.23191 0.48613
 O766 O 0.26779 0.25145 0.51383
 O767 O 0.25118 0.26806 0.51382
 O768 O 0.23166 0.24852 0.48612
 O769 O 0.23164 0.24851 0.51381
 O770 O 0.25121 0.26806 0.48613
 Cu771 Cu 0.25970 0.24001 0.49998
 Cu772 Cu 0.23976 0.25996 0.49997
 C773 C 0.26282 0.26306 0.48140
 C774 C 0.23664 0.23690 0.51855
 C775 C 0.23667 0.23692 0.48138
 C776 C 0.26278 0.26306 0.51857
 O777 O 0.74844 0.76809 0.98614
 O778 O 0.76798 0.74851 1.01382
 O779 O 0.76801 0.74855 0.98614
 O780 O 0.74842 0.76806 1.01383
 O781 O 0.73183 0.75145 1.01380
 O782 O 0.75143 0.73194 0.98611
 O783 O 0.75139 0.73190 1.01380
 O784 O 0.73185 0.75148 0.98612
 Cu785 Cu 0.75988 0.75997 0.99999
 Cu786 Cu 0.73996 0.74002 0.99995
 C787 C 0.73685 0.76309 0.98139
 C788 C 0.76299 0.73690 1.01855
 C789 C 0.76303 0.73695 0.98138
 C790 C 0.73682 0.76305 1.01856
 O791 O 0.74850 0.26829 0.48576
 O792 O 0.76806 0.24878 0.51348
 O793 O 0.76807 0.24876 0.48579
 O794 O 0.74849 0.26833 0.51345
 O795 O 0.73191 0.25171 0.51347
 O796 O 0.75149 0.23215 0.48581
 O797 O 0.75147 0.23217 0.51349
 O798 O 0.73191 0.25168 0.48578
 Cu799 Cu 0.75995 0.26021 0.49962
 Cu800 Cu 0.74003 0.24026 0.49964
 C801 C 0.73690 0.26328 0.48102
 C802 C 0.76306 0.23718 0.51823
 C803 C 0.76309 0.23715 0.48106
 C804 C 0.73689 0.26333 0.51819
 O805 O 0.76831 0.25167 -0.01411
 O806 O 0.74879 0.23210 0.01358
 O807 O 0.74878 0.23211 -0.01410
 O808 O 0.76834 0.25164 0.01357
 O809 O 0.75173 0.26824 0.01360
 O810 O 0.73217 0.24871 -0.01408
 O811 O 0.73218 0.24870 0.01360
 O812 O 0.75170 0.26827 -0.01409
 Cu813 Cu 0.76023 0.24021 -0.00027
 Cu814 Cu 0.74028 0.26015 -0.00024
 C815 C 0.76330 0.26328 -0.01884
 C816 C 0.73719 0.23709 0.01834
 C817 C 0.73718 0.23711 -0.01883
 C818 C 0.76334 0.26324 0.01833
 O819 O 0.73175 0.74873 0.48616
 O820 O 0.75128 0.76830 0.51383
 O821 O 0.75127 0.76831 0.48615
 O822 O 0.73176 0.74873 0.51384
 O823 O 0.74839 0.73215 0.51384
 O824 O 0.76790 0.75172 0.48614
 O825 O 0.76791 0.75171 0.51382
 O826 O 0.74838 0.73215 0.48615
 Cu827 Cu 0.73985 0.76019 0.50000
 Cu828 Cu 0.75981 0.74027 0.49999
 C829 C 0.73677 0.73714 0.48141
 C830 C 0.76289 0.76331 0.51857
 C831 C 0.76288 0.76332 0.48140
 C832 C 0.73678 0.73714 0.51859
 O833 O 1.01429 0.26814 0.24840
 O834 O 0.98658 0.24857 0.26792
 O835 O 1.01429 0.24858 0.26793
 O836 O 0.98658 0.26812 0.24838
 O837 O 0.98661 0.25152 0.23179
 O838 O 1.01432 0.23198 0.25134
 O839 O 0.98661 0.23197 0.25133
 O840 O 1.01432 0.25154 0.23181
 Cu841 Cu 1.00043 0.26002 0.25983
 Cu842 Cu 1.00047 0.24008 0.23990
 C843 C 1.01905 0.26314 0.23681
 C844 C 0.98185 0.23696 0.26292
 C845 C 1.01905 0.23698 0.26294
 C846 C 0.98185 0.26312 0.23678
 O847 O 0.51387 0.23207 0.75130
 O848 O 0.48612 0.25159 0.73179
 O849 O 0.51382 0.25162 0.73175
 O850 O 0.48616 0.23205 0.75133
 O851 O 0.48616 0.24865 0.76792
 O852 O 0.51381 0.26823 0.74834
 O853 O 0.48611 0.26820 0.74837
 O854 O 0.51386 0.24868 0.76789
 Cu855 Cu 0.49999 0.24017 0.73988
 Cu856 Cu 0.49998 0.26011 0.75979
 C857 C 0.51861 0.23708 0.76289
 C858 C 0.48136 0.26320 0.73679
 C859 C 0.51855 0.26323 0.73674
 C860 C 0.48142 0.23704 0.76293
 O861 O 0.01367 0.24895 0.73209
 O862 O -0.01407 0.26853 0.75156
 O863 O 0.01364 0.26850 0.75162
 O864 O -0.01403 0.24898 0.73203
 O865 O -0.01408 0.23238 0.74863
 O866 O 0.01359 0.25190 0.76822
 O867 O -0.01411 0.25193 0.76816
 O868 O 0.01362 0.23235 0.74869
 Cu869 Cu -0.00019 0.26041 0.74016
 Cu870 Cu -0.00025 0.24047 0.76009
 C871 C 0.01839 0.23734 0.73710
 C872 C -0.01884 0.26354 0.76315
 C873 C 0.01835 0.26350 0.76323
 C874 C -0.01879 0.23738 0.73702
 O875 O 0.51373 0.25135 0.26768
 O876 O 0.48599 0.23179 0.24823
 O877 O 0.51370 0.23179 0.24815
 O878 O 0.48602 0.25134 0.26776
 O879 O 0.48597 0.26794 0.25116
 O880 O 0.51365 0.24840 0.23156
 O881 O 0.48594 0.24839 0.23163
 O882 O 0.51368 0.26795 0.25108
 Cu883 Cu 0.49987 0.23990 0.25962
 Cu884 Cu 0.49980 0.25984 0.23969
 C885 C 0.51845 0.26296 0.26267
 C886 C 0.48121 0.23679 0.23664
 C887 C 0.51841 0.23680 0.23655
 C888 C 0.48126 0.26294 0.26277
 O889 O 1.01401 0.76836 0.74829
 O890 O 0.98631 0.74881 0.76784
 O891 O 1.01402 0.74880 0.76782
 O892 O 0.98630 0.76836 0.74830
 O893 O 0.98630 0.75176 0.73171
 O894 O 1.01402 0.73220 0.75123
 O895 O 0.98631 0.73221 0.75125
 O896 O 1.01401 0.75175 0.73169
 Cu897 Cu 1.00016 0.76025 0.75973
 Cu898 Cu 1.00016 0.74031 0.73981
 C899 C 1.01875 0.76336 0.73669
 C900 C 0.98157 0.73721 0.76285
 C901 C 1.01876 0.73720 0.76283
 C902 C 0.98155 0.76336 0.73671
 O903 O 0.51390 0.73239 0.25118
 O904 O 0.48623 0.75197 0.23162
 O905 O 0.51393 0.75193 0.23164
 O906 O 0.48620 0.73241 0.25116
 O907 O 0.48619 0.74902 0.26775
 O908 O 0.51393 0.76854 0.24822
 O909 O 0.48622 0.76857 0.24821
 O910 O 0.51390 0.74899 0.26777
 Cu911 Cu 0.50007 0.74051 0.23973
 Cu912 Cu 0.50006 0.76045 0.25965
 C913 C 0.51864 0.73738 0.26278
 C914 C 0.48149 0.76357 0.23661
 C915 C 0.51868 0.76353 0.23663
 C916 C 0.48145 0.73742 0.26275
 O917 O 0.01369 0.74883 0.23175
 O918 O -0.01402 0.76836 0.25131
 O919 O 0.01368 0.76840 0.25127
 O920 O -0.01402 0.74879 0.23180
 O921 O -0.01396 0.73220 0.24841
 O922 O 0.01373 0.75181 0.26788
 O923 O -0.01397 0.75177 0.26792
 O924 O 0.01374 0.73224 0.24836
 Cu925 Cu -0.00017 0.76026 0.23986
 Cu926 Cu -0.00011 0.74034 0.25981
 C927 C 0.01846 0.73724 0.23675
 C928 C -0.01874 0.76337 0.26292
 C929 C 0.01845 0.76341 0.26286
 C930 C -0.01873 0.73718 0.23682
 O931 O 0.48590 0.73231 0.74849
 O932 O 0.51355 0.75185 0.76808
 O933 O 0.48585 0.75186 0.76802
 O934 O 0.51361 0.73230 0.74856
 O935 O 0.51365 0.74889 0.73196
 O936 O 0.48588 0.76846 0.75142
 O937 O 0.51359 0.76845 0.75148
 O938 O 0.48594 0.74890 0.73189
 Cu939 Cu 0.49972 0.74041 0.75996
 Cu940 Cu 0.49977 0.76035 0.74002
 C941 C 0.48119 0.73730 0.73688
 C942 C 0.51831 0.76345 0.76309
 C943 C 0.48111 0.76347 0.76300
 C944 C 0.51838 0.73729 0.73697
 C945 C 0.40330 0.31202 0.31200
 N946 N 0.39755 0.30646 0.32400
 N947 N 0.38643 0.31265 0.33019
 C948 C 0.38060 0.32465 0.32465
 N949 N 0.38642 0.33022 0.31267
 N950 N 0.39755 0.32403 0.30647
 C951 C 0.41536 0.30503 0.30499
 N952 N 0.42094 0.31046 0.29285
 N953 N 0.43170 0.30396 0.28633
 C954 C 0.43727 0.29179 0.29171
 N955 N 0.43172 0.28637 0.30388
 N956 N 0.42096 0.29287 0.31040
 C957 C 0.44892 0.28445 0.28436
 N958 N 0.45434 0.27215 0.28961
 N959 N 0.46471 0.26534 0.28278
 C960 C 0.47005 0.27060 0.27046
 N961 N 0.46467 0.28292 0.26523
 N962 N 0.45430 0.28973 0.27205
 C963 C 0.40289 0.81254 0.81185
 N964 N 0.39715 0.80699 0.82385
 N965 N 0.38600 0.81317 0.83001
 C966 C 0.38010 0.82514 0.82443
 N967 N 0.38596 0.83067 0.81243
 N968 N 0.39711 0.82451 0.80627
 C969 C 0.41500 0.80555 0.80489
 N970 N 0.42060 0.81097 0.79275
 N971 N 0.43139 0.80447 0.78628
 C972 C 0.43698 0.79232 0.79172
 N973 N 0.43140 0.78693 0.80388
 N974 N 0.42061 0.79343 0.81035
 C975 C 0.44867 0.78499 0.78442
 N976 N 0.45407 0.77270 0.78971
 N977 N 0.46448 0.76589 0.78294
 C978 C 0.46987 0.77113 0.77063
 N979 N 0.46449 0.78344 0.76536
 N980 N 0.45408 0.79025 0.77213
 C981 C -0.09704 0.31264 0.81199
 N982 N -0.10280 0.30709 0.82398
 N983 N -0.11396 0.31326 0.83013
 C984 C -0.11985 0.32523 0.82455
 N985 N -0.11398 0.33077 0.81255
 N986 N -0.10282 0.32461 0.80640
 C987 C -0.08494 0.30565 0.80503
 N988 N -0.07933 0.31107 0.79290
 N989 N -0.06853 0.30457 0.78643
 C990 C -0.06295 0.29242 0.79186
 N991 N -0.06853 0.28703 0.80402
 N992 N -0.07933 0.29353 0.81049
 C993 C -0.05127 0.28508 0.78456
 N994 N -0.04587 0.27279 0.78986
 N995 N -0.03547 0.26598 0.78309
 C996 C -0.03008 0.27121 0.77077
 N997 N -0.03544 0.28353 0.76550
 N998 N -0.04585 0.29034 0.77228
 C999 C -0.09680 0.81243 0.31201
 N1000 N -0.10255 0.80688 0.32401
 N1001 N -0.11369 0.81306 0.33018
 C1002 C -0.11954 0.82504 0.32462
 N1003 N -0.11371 0.83060 0.31263
 N1004 N -0.10257 0.82442 0.30645
 C1005 C -0.08472 0.80544 0.30502
 N1006 N -0.07914 0.81086 0.29288
 N1007 N -0.06837 0.80437 0.28638
 C1008 C -0.06278 0.79221 0.29179
 N1009 N -0.06833 0.78681 0.30395
 N1010 N -0.07911 0.79331 0.31045
 C1011 C -0.05112 0.78488 0.28445
 N1012 N -0.04570 0.77258 0.28972
 N1013 N -0.03531 0.76578 0.28291
 C1014 C -0.02996 0.77102 0.27059
 N1015 N -0.03535 0.78334 0.26534
 N1016 N -0.04574 0.79014 0.27215
 C1017 C 0.59659 0.68821 0.31192
 N1018 N 0.60235 0.67621 0.30637
 N1019 N 0.61347 0.67002 0.31256
 C1020 C 0.61929 0.67557 0.32455
 N1021 N 0.61346 0.68757 0.33011
 N1022 N 0.60233 0.69376 0.32392
 C1023 C 0.58453 0.69522 0.30492
 N1024 N 0.57893 0.70736 0.31034
 N1025 N 0.56817 0.71388 0.30383
 C1026 C 0.56262 0.70848 0.29167
 N1027 N 0.56819 0.69631 0.28628
 N1028 N 0.57894 0.68980 0.29278
 C1029 C 0.55097 0.71583 0.28432
 N1030 N 0.54558 0.71056 0.27203
 N1031 N 0.53521 0.71738 0.26521
 C1032 C 0.52984 0.72971 0.27045
 N1033 N 0.53520 0.73495 0.28277
 N1034 N 0.54557 0.72813 0.28958
 C1035 C 0.59674 0.18805 0.81190
 N1036 N 0.60249 0.19361 0.82389
 N1037 N 0.61363 0.18743 0.83006
 C1038 C 0.61947 0.17544 0.82450
 N1039 N 0.61364 0.16987 0.81252
 N1040 N 0.60250 0.17605 0.80634
 C1041 C 0.58465 0.19503 0.80492
 N1042 N 0.57905 0.18960 0.79279
 N1043 N 0.56827 0.19610 0.78630
 C1044 C 0.56270 0.20826 0.79170
 N1045 N 0.56827 0.21367 0.80385
 N1046 N 0.57905 0.20717 0.81034
 C1047 C 0.55102 0.21559 0.78437
 N1048 N 0.54562 0.22789 0.78964
 N1049 N 0.53522 0.23468 0.78285
 C1050 C 0.52985 0.22943 0.77054
 N1051 N 0.53523 0.21711 0.76529
 N1052 N 0.54562 0.21031 0.77209
 C1053 C 1.09685 0.68810 0.81183
 N1054 N 1.10260 0.69366 0.82382
 N1055 N 1.11374 0.68747 0.82999
 C1056 C 1.11958 0.67549 0.82442
 N1057 N 1.11376 0.66993 0.81244
 N1058 N 1.10261 0.67611 0.80627
 C1059 C 1.08477 0.69509 0.80485
 N1060 N 1.07917 0.68967 0.79272
 N1061 N 1.06839 0.69617 0.78623
 C1062 C 1.06282 0.70833 0.79163
 N1063 N 1.06839 0.71373 0.80379
 N1064 N 1.07916 0.70723 0.81028
 C1065 C 1.05115 0.71567 0.78431
 N1066 N 1.04575 0.72797 0.78958
 N1067 N 1.03536 0.73478 0.78279
 C1068 C 1.02999 0.72953 0.77048
 N1069 N 1.03536 0.71721 0.76523
 N1070 N 1.04575 0.71040 0.77202
 C1071 C 1.09718 0.18795 0.31195
 N1072 N 1.10291 0.19349 0.32395
 N1073 N 1.11406 0.18731 0.33011
 C1074 C 1.11996 0.17534 0.32454
 N1075 N 1.11412 0.16981 0.31254
 N1076 N 1.10297 0.17598 0.30637
 C1077 C 1.08509 0.19493 0.30497
 N1078 N 1.07951 0.18951 0.29283
 N1079 N 1.06872 0.19600 0.28634
 C1080 C 1.06313 0.20815 0.29176
 N1081 N 1.06868 0.21354 0.30392
 N1082 N 1.07946 0.20705 0.31041
 C1083 C 1.05145 0.21548 0.28443
 N1084 N 1.04603 0.22776 0.28971
 N1085 N 1.03563 0.23456 0.28291
 C1086 C 1.03028 0.22932 0.27059
 N1087 N 1.03567 0.21701 0.26534
 N1088 N 1.04606 0.21021 0.27214
 C1089 C 0.59652 0.31235 0.68761
 N1090 N 0.60226 0.30680 0.67561
 N1091 N 0.61339 0.31299 0.66943
 C1092 C 0.61923 0.32497 0.67499
 N1093 N 0.61340 0.33052 0.68698
 N1094 N 0.60227 0.32434 0.69317
 C1095 C 0.58445 0.30536 0.69460
 N1096 N 0.57886 0.31078 0.70674
 N1097 N 0.56810 0.30428 0.71325
 C1098 C 0.56253 0.29211 0.70785
 N1099 N 0.56809 0.28671 0.69569
 N1100 N 0.57885 0.29322 0.68918
 C1101 C 0.55088 0.28477 0.71519
 N1102 N 0.54549 0.27247 0.70994
 N1103 N 0.53512 0.26566 0.71675
 C1104 C 0.52976 0.27090 0.72907
 N1105 N 0.53511 0.28323 0.73431
 N1106 N 0.54549 0.29004 0.72749
 C1107 C 0.59688 0.81243 0.18765
 N1108 N 0.60265 0.82441 0.19321
 N1109 N 0.61381 0.83056 0.18704
 C1110 C 0.61968 0.82499 0.17506
 N1111 N 0.61379 0.81302 0.16951
 N1112 N 0.60263 0.80686 0.17567
 C1113 C 0.58478 0.80547 0.19462
 N1114 N 0.57916 0.79335 0.18919
 N1115 N 0.56837 0.78688 0.19568
 C1116 C 0.56279 0.79229 0.20783
 N1117 N 0.56838 0.80444 0.21324
 N1118 N 0.57917 0.81092 0.20675
 C1119 C 0.55111 0.78498 0.21515
 N1120 N 0.54570 0.79027 0.22744
 N1121 N 0.53530 0.78348 0.23423
 C1122 C 0.52992 0.77117 0.22898
 N1123 N 0.53529 0.76591 0.21667
 N1124 N 0.54569 0.77270 0.20988
 C1125 C 1.09712 0.31226 0.18784
 N1126 N 1.10287 0.32425 0.19340
 N1127 N 1.11401 0.33043 0.18722
 C1128 C 1.11988 0.32488 0.17524
 N1129 N 1.11402 0.31289 0.16969
 N1130 N 1.10289 0.30671 0.17585
 C1131 C 1.08504 0.30526 0.19481
 N1132 N 1.07945 0.29313 0.18938
 N1133 N 1.06868 0.28662 0.19586
 C1134 C 1.06310 0.29202 0.20802
 N1135 N 1.06865 0.30418 0.21343
 N1136 N 1.07943 0.31068 0.20694
 C1137 C 1.05143 0.28468 0.21534
 N1138 N 1.04601 0.28994 0.22762
 N1139 N 1.03562 0.28313 0.23441
 C1140 C 1.03027 0.27081 0.22916
 N1141 N 1.03565 0.26557 0.21685
 N1142 N 1.04604 0.27238 0.21006
 C1143 C 1.09685 0.81238 0.68767
 N1144 N 1.10260 0.80683 0.67567
 N1145 N 1.11375 0.81300 0.66951
 C1146 C 1.11963 0.82498 0.67507
 N1147 N 1.11377 0.83052 0.68706
 N1148 N 1.10262 0.82435 0.69324
 C1149 C 1.08476 0.80539 0.69464
 N1150 N 1.07917 0.81082 0.70678
 N1151 N 1.06839 0.80433 0.71327
 C1152 C 1.06281 0.79218 0.70786
 N1153 N 1.06838 0.78678 0.69570
 N1154 N 1.07916 0.79327 0.68921
 C1155 C 1.05114 0.78485 0.71518
 N1156 N 1.04573 0.77256 0.70991
 N1157 N 1.03534 0.76576 0.71671
 C1158 C 1.02997 0.77101 0.72903
 N1159 N 1.03535 0.78333 0.73428
 N1160 N 1.04574 0.79012 0.72748
 C1161 C 0.40326 0.68822 0.68770
 N1162 N 0.39751 0.67622 0.69325
 N1163 N 0.38639 0.67003 0.68706
 C1164 C 0.38057 0.67560 0.67508
 N1165 N 0.38639 0.68759 0.66952
 N1166 N 0.39752 0.69378 0.67571
 C1167 C 0.41532 0.69521 0.69470
 N1168 N 0.42092 0.70736 0.68929
 N1169 N 0.43168 0.71386 0.69580
 C1170 C 0.43723 0.70845 0.70797
 N1171 N 0.43166 0.69628 0.71336
 N1172 N 0.42090 0.68978 0.70685
 C1173 C 0.44887 0.71578 0.71532
 N1174 N 0.45425 0.71051 0.72762
 N1175 N 0.46462 0.71732 0.73444
 C1176 C 0.46999 0.72964 0.72920
 N1177 N 0.46465 0.73489 0.71688
 N1178 N 0.45428 0.72809 0.71006
 C1179 C 0.40298 0.18779 0.18786
 N1180 N 0.39722 0.19334 0.17586
 N1181 N 0.38606 0.18718 0.16972
 C1182 C 0.38017 0.17522 0.17531
 N1183 N 0.38603 0.16968 0.18730
 N1184 N 0.39719 0.17584 0.19345
 C1185 C 0.41508 0.19476 0.19481
 N1186 N 0.42069 0.18934 0.20694
 N1187 N 0.43149 0.19583 0.21340
 C1188 C 0.43708 0.20797 0.20796
 N1189 N 0.43150 0.21336 0.19580
 N1190 N 0.42070 0.20688 0.18934
 C1191 C 0.44877 0.21529 0.21525
 N1192 N 0.45417 0.22757 0.20995
 N1193 N 0.46458 0.23437 0.21671
 C1194 C 0.46997 0.22912 0.22902
 N1195 N 0.46460 0.21682 0.23430
 N1196 N 0.45419 0.21002 0.22753
 C1197 C -0.09674 0.68793 0.18793
 N1198 N -0.10249 0.67594 0.19352
 N1199 N -0.11362 0.66975 0.18735
 C1200 C -0.11945 0.67528 0.17536
 N1201 N -0.11362 0.68726 0.16977
 N1202 N -0.10249 0.69346 0.17593
 C1203 C -0.08467 0.69494 0.19490
 N1204 N -0.07909 0.70708 0.18945
 N1205 N -0.06832 0.71360 0.19592
 C1206 C -0.06275 0.70823 0.20809
 N1207 N -0.06830 0.69607 0.21352
 N1208 N -0.07907 0.68955 0.20705
 C1209 C -0.05109 0.71559 0.21539
 N1210 N -0.04567 0.71035 0.22769
 N1211 N -0.03529 0.71717 0.23447
 C1212 C -0.02995 0.72949 0.22919
 N1213 N -0.03533 0.73472 0.21687
 N1214 N -0.04572 0.72789 0.21010
 C1215 C -0.09672 0.18831 0.68783
 N1216 N -0.10248 0.17632 0.69338
 N1217 N -0.11360 0.17013 0.68719
 C1218 C -0.11941 0.17569 0.67519
 N1219 N -0.11358 0.18768 0.66964
 N1220 N -0.10246 0.19387 0.67583
 C1221 C -0.08467 0.19531 0.69484
 N1222 N -0.07906 0.20745 0.68942
 N1223 N -0.06831 0.21395 0.69594
 C1224 C -0.06277 0.20855 0.70811
 N1225 N -0.06834 0.19638 0.71350
 N1226 N -0.07909 0.18988 0.70698
 C1227 C -0.05112 0.21588 0.71546
 N1228 N -0.04575 0.21061 0.72776
 N1229 N -0.03538 0.21741 0.73458
 C1230 C -0.03000 0.22973 0.72935
 N1231 N -0.03534 0.23498 0.71702
 N1232 N -0.04571 0.22818 0.71020
 C1233 C 0.31205 0.40353 0.31213
 N1234 N 0.30648 0.39777 0.32412
 N1235 N 0.31265 0.38663 0.33029
 C1236 C 0.32464 0.38078 0.32473
 N1237 N 0.33021 0.38661 0.31275
 N1238 N 0.32404 0.39776 0.30657
 C1239 C 0.30507 0.41562 0.30514
 N1240 N 0.31050 0.42121 0.29301
 N1241 N 0.30401 0.43199 0.28651
 C1242 C 0.29185 0.43757 0.29191
 N1243 N 0.28644 0.43201 0.30406
 N1244 N 0.29293 0.42123 0.31056
 C1245 C 0.28453 0.44924 0.28457
 N1246 N 0.27223 0.45465 0.28983
 N1247 N 0.26543 0.46504 0.28302
 C1248 C 0.27069 0.47040 0.27070
 N1249 N 0.28301 0.46501 0.26546
 N1250 N 0.28980 0.45462 0.27227
 C1251 C 0.31229 -0.09691 0.81189
 N1252 N 0.30676 -0.10266 0.82389
 N1253 N 0.31294 -0.11381 0.83004
 C1254 C 0.32491 -0.11970 0.82445
 N1255 N 0.33043 -0.11384 0.81245
 N1256 N 0.32425 -0.10269 0.80629
 C1257 C 0.30529 -0.08481 0.80493
 N1258 N 0.31068 -0.07921 0.79279
 N1259 N 0.30418 -0.06842 0.78632
 C1260 C 0.29203 -0.06284 0.79177
 N1261 N 0.28666 -0.06841 0.80394
 N1262 N 0.29317 -0.07920 0.81040
 C1263 C 0.28469 -0.05115 0.78448
 N1264 N 0.27240 -0.04575 0.78979
 N1265 N 0.26559 -0.03534 0.78302
 C1266 C 0.27080 -0.02996 0.77070
 N1267 N 0.28311 -0.03533 0.76541
 N1268 N 0.28993 -0.04574 0.77218
 C1269 C 0.81233 0.40315 0.81193
 N1270 N 0.80678 0.39740 0.82392
 N1271 N 0.81296 0.38624 0.83008
 C1272 C 0.82494 0.38036 0.82451
 N1273 N 0.83048 0.38623 0.81252
 N1274 N 0.82431 0.39738 0.80636
 C1275 C 0.80535 0.41525 0.80496
 N1276 N 0.81077 0.42085 0.79283
 N1277 N 0.80428 0.43165 0.78635
 C1278 C 0.79213 0.43723 0.79177
 N1279 N 0.78673 0.43166 0.80393
 N1280 N 0.79322 0.42086 0.81041
 C1281 C 0.78480 0.44892 0.78447
 N1282 N 0.77251 0.45433 0.78976
 N1283 N 0.76572 0.46474 0.78298
 C1284 C 0.77096 0.47012 0.77067
 N1285 N 0.78327 0.46474 0.76540
 N1286 N 0.79007 0.45433 0.77218
 C1287 C 0.81207 -0.09677 0.31221
 N1288 N 0.80650 -0.10253 0.32420
 N1289 N 0.81267 -0.11367 0.33037
 C1290 C 0.82466 -0.11955 0.32483
 N1291 N 0.83023 -0.11369 0.31285
 N1292 N 0.82406 -0.10254 0.30667
 C1293 C 0.80510 -0.08469 0.30522
 N1294 N 0.81055 -0.07910 0.29309
 N1295 N 0.80407 -0.06832 0.28658
 C1296 C 0.79190 -0.06273 0.29197
 N1297 N 0.78648 -0.06829 0.30412
 N1298 N 0.79296 -0.07907 0.31063
 C1299 C 0.78459 -0.05106 0.28462
 N1300 N 0.77229 -0.04563 0.28988
 N1301 N 0.76551 -0.03523 0.28306
 C1302 C 0.77078 -0.02989 0.27074
 N1303 N 0.78310 -0.03528 0.26551
 N1304 N 0.78988 -0.04568 0.27233
 C1305 C 0.31196 0.59685 0.68772
 N1306 N 0.32396 0.60260 0.69325
 N1307 N 0.33014 0.61372 0.68706
 C1308 C 0.32457 0.61956 0.67508
 N1309 N 0.31257 0.61374 0.66954
 N1310 N 0.30639 0.60261 0.67573
 C1311 C 0.30497 0.58478 0.69472
 N1312 N 0.29281 0.57920 0.68932
 N1313 N 0.28631 0.56844 0.69584
 C1314 C 0.29173 0.56287 0.70799
 N1315 N 0.30391 0.56842 0.71336
 N1316 N 0.31041 0.57918 0.70685
 C1317 C 0.28440 0.55122 0.71535
 N1318 N 0.28969 0.54582 0.72763
 N1319 N 0.28289 0.53545 0.73446
 C1320 C 0.27055 0.53010 0.72925
 N1321 N 0.26528 0.53546 0.71694
 N1322 N 0.27209 0.54583 0.71011
 C1323 C 0.31230 1.09739 0.18796
 N1324 N 0.32428 1.10315 0.19354
 N1325 N 0.33047 1.11428 0.18737
 C1326 C 0.32494 1.12015 0.17537
 N1327 N 0.31297 1.11428 0.16980
 N1328 N 0.30677 1.10314 0.17596
 C1329 C 0.30529 1.08531 0.19493
 N1330 N 0.29317 1.07972 0.18947
 N1331 N 0.28665 1.06895 0.19594
 C1332 C 0.29202 1.06337 0.20811
 N1333 N 0.30417 1.06893 0.21354
 N1334 N 0.31069 1.07970 0.20707
 C1335 C 0.28466 1.05170 0.21542
 N1336 N 0.28990 1.04629 0.22771
 N1337 N 0.28308 1.03590 0.23449
 C1338 C 0.27076 1.03055 0.22922
 N1339 N 0.26554 1.03594 0.21690
 N1340 N 0.27237 1.04633 0.21012
 C1341 C 0.81225 0.59704 0.18772
 N1342 N 0.82423 0.60281 0.19329
 N1343 N 0.83039 0.61396 0.18712
 C1344 C 0.82484 0.61983 0.17513
 N1345 N 0.81286 0.61394 0.16957
 N1346 N 0.80670 0.60279 0.17574
 C1347 C 0.80528 0.58494 0.19470
 N1348 N 0.79316 0.57933 0.18925
 N1349 N 0.78668 0.56854 0.19573
 C1350 C 0.79207 0.56297 0.20789
 N1351 N 0.80422 0.56855 0.21331
 N1352 N 0.81070 0.57934 0.20683
 C1353 C 0.78475 0.55128 0.21520
 N1354 N 0.79001 0.54587 0.22750
 N1355 N 0.78321 0.53547 0.23428
 C1356 C 0.77090 0.53010 0.22901
 N1357 N 0.76567 0.53547 0.21670
 N1358 N 0.77247 0.54588 0.20992
 C1359 C 0.81197 1.09695 0.68781
 N1360 N 0.82397 1.10270 0.69336
 N1361 N 0.83015 1.11383 0.68717
 C1362 C 0.82459 1.11965 0.67518
 N1363 N 0.81260 1.11383 0.66963
 N1364 N 0.80641 1.10270 0.67582
 C1365 C 0.80497 1.08488 0.69482
 N1366 N 0.79283 1.07929 0.68941
 N1367 N 0.78633 1.06853 0.69592
 C1368 C 0.79173 1.06297 0.70808
 N1369 N 0.80390 1.06853 0.71346
 N1370 N 0.81041 1.07929 0.70695
 C1371 C 0.78440 1.05132 0.71543
 N1372 N 0.78968 1.04592 0.72772
 N1373 N 0.78288 1.03554 0.73453
 C1374 C 0.77055 1.03018 0.72931
 N1375 N 0.76529 1.03555 0.71699
 N1376 N 0.77209 1.04593 0.71018
 C1377 C 0.68795 0.59682 0.31191
 N1378 N 0.69351 0.60255 0.32391
 N1379 N 0.68731 0.61368 0.33010
 C1380 C 0.67533 0.61952 0.32455
 N1381 N 0.66978 0.61371 0.31255
 N1382 N 0.67596 0.60258 0.30636
 C1383 C 0.69495 0.58475 0.30491
 N1384 N 0.68953 0.57917 0.29277
 N1385 N 0.69603 0.56841 0.28625
 C1386 C 0.70819 0.56283 0.29165
 N1387 N 0.71359 0.56837 0.30382
 N1388 N 0.70709 0.57913 0.31033
 C1389 C 0.71553 0.55117 0.28431
 N1390 N 0.72782 0.54575 0.28957
 N1391 N 0.73463 0.53537 0.28276
 C1392 C 0.72940 0.53003 0.27043
 N1393 N 0.71708 0.53542 0.26519
 N1394 N 0.71027 0.54580 0.27200
 C1395 C 0.68783 1.09720 0.81217
 N1396 N 0.69340 1.10296 0.82414
 N1397 N 0.68724 1.11412 0.83030
 C1398 C 0.67524 1.12000 0.82475
 N1399 N 0.66968 1.11412 0.81278
 N1400 N 0.67583 1.10297 0.80662
 C1401 C 0.69479 1.08510 0.80519
 N1402 N 0.68935 1.07949 0.79307
 N1403 N 0.69583 1.06870 0.78659
 C1404 C 0.70799 1.06312 0.79198
 N1405 N 0.71341 1.06869 0.80412
 N1406 N 0.70693 1.07949 0.81061
 C1407 C 0.71530 1.05143 0.78465
 N1408 N 0.72760 1.04602 0.78991
 N1409 N 0.73439 1.03562 0.78311
 C1410 C 0.72912 1.03025 0.77081
 N1411 N 0.71680 1.03563 0.76558
 N1412 N 0.71001 1.04603 0.77238
 C1413 C 0.18793 0.59723 0.81211
 N1414 N 0.17594 0.60300 0.80656
 N1415 N 0.16979 0.61416 0.81272
 C1416 C 0.17535 0.62004 0.82469
 N1417 N 0.18734 0.61416 0.83024
 N1418 N 0.19351 0.60300 0.82408
 C1419 C 0.19489 0.58512 0.80514
 N1420 N 0.20703 0.57951 0.81056
 N1421 N 0.21350 0.56871 0.80408
 C1422 C 0.20807 0.56313 0.79194
 N1423 N 0.19591 0.56871 0.78655
 N1424 N 0.18944 0.57951 0.79303
 C1425 C 0.21537 0.55143 0.78462
 N1426 N 0.21007 0.54602 0.77235
 N1427 N 0.21684 0.53561 0.76556
 C1428 C 0.22917 0.53022 0.77079
 N1429 N 0.23445 0.53560 0.78308
 N1430 N 0.22767 0.54602 0.78987
 C1431 C 0.18778 1.09743 0.31195
 N1432 N 0.17581 1.10321 0.30637
 N1433 N 0.16963 1.11435 0.31254
 C1434 C 0.17515 1.12020 0.32454
 N1435 N 0.18712 1.11430 0.33012
 N1436 N 0.19331 1.10316 0.32395
 C1437 C 0.19477 1.08534 0.30497
 N1438 N 0.20689 1.07972 0.31042
 N1439 N 0.21340 1.06894 0.30393
 C1440 C 0.20802 1.06339 0.29176
 N1441 N 0.19587 1.06898 0.28634
 N1442 N 0.18937 1.07976 0.29283
 C1443 C 0.21535 1.05172 0.28444
 N1444 N 0.21010 1.04634 0.27214
 N1445 N 0.21691 1.03595 0.26534
 C1446 C 0.22921 1.03056 0.27060
 N1447 N 0.23445 1.03591 0.28293
 N1448 N 0.22764 1.04630 0.28972
 C1449 C 0.68796 0.40360 0.68771
 N1450 N 0.67596 0.39785 0.69326
 N1451 N 0.66976 0.38674 0.68705
 C1452 C 0.67531 0.38093 0.67505
 N1453 N 0.68730 0.38675 0.66950
 N1454 N 0.69351 0.39786 0.67570
 C1455 C 0.69497 0.41564 0.69472
 N1456 N 0.70711 0.42124 0.68930
 N1457 N 0.71362 0.43198 0.69582
 C1458 C 0.70823 0.43752 0.70800
 N1459 N 0.69606 0.43196 0.71339
 N1460 N 0.68955 0.42121 0.70687
 C1461 C 0.71558 0.44916 0.71535
 N1462 N 0.71032 0.45453 0.72766
 N1463 N 0.71714 0.46489 0.73448
 C1464 C 0.72946 0.47026 0.72924
 N1465 N 0.73470 0.46491 0.71691
 N1466 N 0.72788 0.45455 0.71009
 C1467 C 0.68781 -0.09663 0.18793
 N1468 N 0.69336 -0.10239 0.17593
 N1469 N 0.68716 -0.11351 0.16976
 C1470 C 0.67517 -0.11933 0.17533
 N1471 N 0.66962 -0.11349 0.18731
 N1472 N 0.67581 -0.10237 0.19349
 C1473 C 0.69482 -0.08456 0.19491
 N1474 N 0.68940 -0.07895 0.20704
 N1475 N 0.69592 -0.06819 0.21353
 C1476 C 0.70809 -0.06265 0.20813
 N1477 N 0.71348 -0.06823 0.19597
 N1478 N 0.70697 -0.07899 0.18948
 C1479 C 0.71544 -0.05099 0.21545
 N1480 N 0.72775 -0.04562 0.21017
 N1481 N 0.73457 -0.03524 0.21697
 C1482 C 0.72933 -0.02986 0.22927
 N1483 N 0.71700 -0.03520 0.23453
 N1484 N 0.71018 -0.04558 0.22774
 C1485 C 0.18781 0.40347 0.18801
 N1486 N 0.17583 0.39770 0.19359
 N1487 N 0.16966 0.38655 0.18743
 C1488 C 0.17522 0.38072 0.17544
 N1489 N 0.18719 0.38657 0.16986
 N1490 N 0.19336 0.39771 0.17601
 C1491 C 0.19480 0.41555 0.19497
 N1492 N 0.20692 0.42115 0.18953
 N1493 N 0.21342 0.43194 0.19600
 C1494 C 0.20803 0.43751 0.20816
 N1495 N 0.19587 0.43194 0.21358
 N1496 N 0.18938 0.42116 0.20711
 C1497 C 0.21536 0.44919 0.21546
 N1498 N 0.21010 0.45460 0.22775
 N1499 N 0.21690 0.46500 0.23453
 C1500 C 0.22922 0.47036 0.22926
 N1501 N 0.23446 0.46498 0.21695
 N1502 N 0.22765 0.45458 0.21018
 C1503 C 0.18769 -0.09658 0.68796
 N1504 N 0.17571 -0.10235 0.69354
 N1505 N 0.16952 -0.11347 0.68736
 C1506 C 0.17505 -0.11928 0.67535
 N1507 N 0.18702 -0.11343 0.66977
 N1508 N 0.19322 -0.10231 0.67595
 C1509 C 0.19470 -0.08452 0.69495
 N1510 N 0.20683 -0.07892 0.68950
 N1511 N 0.21335 -0.06817 0.69600
 C1512 C 0.20798 -0.06262 0.70819
 N1513 N 0.19583 -0.06820 0.71361
 N1514 N 0.18931 -0.07895 0.70711
 C1515 C 0.21533 -0.05098 0.71551
 N1516 N 0.21010 -0.04560 0.72783
 N1517 N 0.21692 -0.03523 0.73463
 C1518 C 0.22923 -0.02986 0.72936
 N1519 N 0.23445 -0.03521 0.71702
 N1520 N 0.22762 -0.04558 0.71022
 C1521 C 0.31196 0.31210 0.40340
 N1522 N 0.32395 0.30652 0.39765
 N1523 N 0.33014 0.31270 0.38652
 C1524 C 0.32459 0.32470 0.38069
 N1525 N 0.31261 0.33028 0.38653
 N1526 N 0.30641 0.32410 0.39765
 C1527 C 0.30496 0.30511 0.41547
 N1528 N 0.29283 0.31055 0.42107
 N1529 N 0.28632 0.30406 0.43183
 C1530 C 0.29171 0.29189 0.43740
 N1531 N 0.30387 0.28647 0.43183
 N1532 N 0.31038 0.29296 0.42107
 C1533 C 0.28437 0.28456 0.44905
 N1534 N 0.28963 0.27226 0.45445
 N1535 N 0.28282 0.26546 0.46483
 C1536 C 0.27049 0.27072 0.47019
 N1537 N 0.26525 0.28304 0.46482
 N1538 N 0.27207 0.28984 0.45444
 C1539 C 0.31221 0.81239 -0.09698
 N1540 N 0.30663 0.82438 -0.10275
 N1541 N 0.31279 0.83053 -0.11391
 C1542 C 0.32477 0.82496 -0.11974
 N1543 N 0.33035 0.81298 -0.11390
 N1544 N 0.32420 0.80682 -0.10274
 C1545 C 0.30524 0.80543 -0.08488
 N1546 N 0.31068 0.79330 -0.07927
 N1547 N 0.30419 0.78682 -0.06848
 C1548 C 0.29203 0.79223 -0.06291
 N1549 N 0.28661 0.80438 -0.06850
 N1550 N 0.29310 0.81086 -0.07929
 C1551 C 0.28471 0.78492 -0.05124
 N1552 N 0.27240 0.79019 -0.04585
 N1553 N 0.26560 0.78340 -0.03546
 C1554 C 0.27086 0.77109 -0.03007
 N1555 N 0.28319 0.76584 -0.03542
 N1556 N 0.28999 0.77263 -0.04582
 C1557 C 0.81220 0.31239 -0.09695
 N1558 N 0.82420 0.30683 -0.10271
 N1559 N 0.83035 0.31301 -0.11386
 C1560 C 0.82476 0.32499 -0.11969
 N1561 N 0.81278 0.33054 -0.11386
 N1562 N 0.80662 0.32437 -0.10271
 C1563 C 0.80524 0.30540 -0.08486
 N1564 N 0.79310 0.31082 -0.07925
 N1565 N 0.78663 0.30432 -0.06847
 C1566 C 0.79206 0.29216 -0.06290
 N1567 N 0.80422 0.28677 -0.06848
 N1568 N 0.81070 0.29327 -0.07926
 C1569 C 0.78475 0.28482 -0.05123
 N1570 N 0.79005 0.27252 -0.04584
 N1571 N 0.78326 0.26571 -0.03545
 C1572 C 0.77094 0.27095 -0.03006
 N1573 N 0.76567 0.28327 -0.03542
 N1574 N 0.77245 0.29008 -0.04581
 C1575 C 0.81184 0.81245 0.40334
 N1576 N 0.82385 0.80690 0.39760
 N1577 N 0.83002 0.81308 0.38646
 C1578 C 0.82443 0.82505 0.38062
 N1579 N 0.81243 0.83060 0.38644
 N1580 N 0.80626 0.82443 0.39757
 C1581 C 0.80487 0.80545 0.41542
 N1582 N 0.79271 0.81086 0.42101
 N1583 N 0.78623 0.80436 0.43179
 C1584 C 0.79166 0.79221 0.43736
 N1585 N 0.80384 0.78682 0.43180
 N1586 N 0.81032 0.79332 0.42102
 C1587 C 0.78434 0.78487 0.44903
 N1588 N 0.78964 0.77258 0.45442
 N1589 N 0.78285 0.76576 0.46481
 C1590 C 0.77052 0.77100 0.47018
 N1591 N 0.76525 0.78331 0.46481
 N1592 N 0.77204 0.79012 0.45443
 C1593 C 0.68782 0.31241 0.59621
 N1594 N 0.67583 0.30685 0.60197
 N1595 N 0.66966 0.31303 0.61311
 C1596 C 0.67522 0.32501 0.61894
 N1597 N 0.68721 0.33057 0.61311
 N1598 N 0.69339 0.32440 0.60197
 C1599 C 0.69480 0.30542 0.58413
 N1600 N 0.70694 0.31085 0.57853
 N1601 N 0.71343 0.30435 0.56776
 C1602 C 0.70803 0.29219 0.56220
 N1603 N 0.69587 0.28679 0.56777
 N1604 N 0.68937 0.29329 0.57854
 C1605 C 0.71536 0.28486 0.55054
 N1606 N 0.71010 0.27255 0.54515
 N1607 N 0.71690 0.26575 0.53477
 C1608 C 0.72922 0.27099 0.52940
 N1609 N 0.73446 0.28332 0.53476
 N1610 N 0.72766 0.29013 0.54514
 C1611 C 0.68771 0.81206 1.09660
 N1612 N 0.67572 0.80650 1.10236
 N1613 N 0.66954 0.81268 1.11349
 C1614 C 0.67510 0.82467 1.11932
 N1615 N 0.68708 0.83024 1.11348
 N1616 N 0.69326 0.82406 1.10234
 C1617 C 0.69470 0.80508 1.08452
 N1618 N 0.70683 0.81051 1.07892
 N1619 N 0.71333 0.80402 1.06815
 C1620 C 0.70794 0.79185 1.06259
 N1621 N 0.69578 0.78644 1.06816
 N1622 N 0.68928 0.79294 1.07893
 C1623 C 0.71527 0.78453 1.05092
 N1624 N 0.71002 0.77223 1.04552
 N1625 N 0.71683 0.76544 1.03514
 C1626 C 0.72915 0.77069 1.02978
 N1627 N 0.73438 0.78302 1.03514
 N1628 N 0.72757 0.78981 1.04553
 C1629 C 0.18787 0.31212 1.09672
 N1630 N 0.19341 0.32412 1.10247
 N1631 N 0.18722 0.33029 1.11360
 C1632 C 0.17525 0.32470 1.11945
 N1633 N 0.16971 0.31271 1.11362
 N1634 N 0.17589 0.30654 1.10248
 C1635 C 0.19486 0.30514 1.08464
 N1636 N 0.18945 0.29300 1.07905
 N1637 N 0.19595 0.28651 1.06827
 C1638 C 0.20810 0.29193 1.06270
 N1639 N 0.21349 0.30410 1.06826
 N1640 N 0.20699 0.31059 1.07903
 C1641 C 0.21544 0.28461 1.05104
 N1642 N 0.22773 0.28989 1.04564
 N1643 N 0.23454 0.28309 1.03525
 C1644 C 0.22931 0.27077 1.02989
 N1645 N 0.21700 0.26551 1.03526
 N1646 N 0.21019 0.27230 1.04564
 C1647 C 0.18757 0.81227 0.59648
 N1648 N 0.19312 0.82426 0.60225
 N1649 N 0.18694 0.83041 0.61340
 C1650 C 0.17497 0.82482 0.61924
 N1651 N 0.16942 0.81284 0.61340
 N1652 N 0.17559 0.80668 0.60225
 C1653 C 0.19455 0.80532 0.58439
 N1654 N 0.18914 0.79318 0.57878
 N1655 N 0.19564 0.78671 0.56799
 C1656 C 0.20779 0.79215 0.56242
 N1657 N 0.21318 0.80431 0.56801
 N1658 N 0.20668 0.81078 0.57879
 C1659 C 0.21513 0.78485 0.55075
 N1660 N 0.22742 0.79014 0.54536
 N1661 N 0.23424 0.78336 0.53496
 C1662 C 0.22901 0.77105 0.52958
 N1663 N 0.21669 0.76577 0.53493
 N1664 N 0.20988 0.77255 0.54533
 C1665 C 0.31195 0.68818 0.59634
 N1666 N 0.32394 0.69375 0.60209
 N1667 N 0.33012 0.68757 0.61322
 C1668 C 0.32457 0.67558 0.61905
 N1669 N 0.31258 0.67001 0.61322
 N1670 N 0.30640 0.67619 0.60209
 C1671 C 0.30496 0.69518 0.58427
 N1672 N 0.29283 0.68974 0.57867
 N1673 N 0.28633 0.69624 0.56790
 C1674 C 0.29172 0.70841 0.56234
 N1675 N 0.30388 0.71382 0.56791
 N1676 N 0.31038 0.70732 0.57867
 C1677 C 0.28439 0.71575 0.55068
 N1678 N 0.28965 0.72805 0.54529
 N1679 N 0.28284 0.73486 0.53491
 C1680 C 0.27053 0.72961 0.52954
 N1681 N 0.26529 0.71728 0.53490
 N1682 N 0.27210 0.71048 0.54528
 C1683 C 0.31222 0.18803 1.09678
 N1684 N 0.30666 0.17604 1.10255
 N1685 N 0.31283 0.16989 1.11371
 C1686 C 0.32480 0.17546 1.11954
 N1687 N 0.33037 0.18744 1.11369
 N1688 N 0.32420 0.19360 1.10254
 C1689 C 0.30524 0.19500 1.08469
 N1690 N 0.31067 0.20713 1.07908
 N1691 N 0.30417 0.21361 1.06830
 C1692 C 0.29202 0.20819 1.06273
 N1693 N 0.28662 0.19603 1.06831
 N1694 N 0.29311 0.18955 1.07909
 C1695 C 0.28469 0.21550 1.05106
 N1696 N 0.27240 0.21022 1.04566
 N1697 N 0.26559 0.21701 1.03527
 C1698 C 0.27083 0.22933 1.02990
 N1699 N 0.28314 0.23459 1.03525
 N1700 N 0.28995 0.22780 1.04565
 C1701 C 0.81199 0.68779 1.09660
 N1702 N 0.80642 0.67581 1.10236
 N1703 N 0.81259 0.66964 1.11351
 C1704 C 0.82458 0.67520 1.11933
 N1705 N 0.83015 0.68718 1.11349
 N1706 N 0.82398 0.69335 1.10235
 C1707 C 0.80501 0.69478 1.08452
 N1708 N 0.81045 0.70692 1.07892
 N1709 N 0.80396 0.71342 1.06815
 C1710 C 0.79180 0.70802 1.06258
 N1711 N 0.78639 0.69586 1.06814
 N1712 N 0.79288 0.68936 1.07892
 C1713 C 0.78448 0.71536 1.05091
 N1714 N 0.77219 0.71009 1.04550
 N1715 N 0.76539 0.71690 1.03512
 C1716 C 0.77064 0.72922 1.02976
 N1717 N 0.78296 0.73447 1.03514
 N1718 N 0.78975 0.72766 1.04552
 C1719 C 0.81208 0.18821 0.59636
 N1720 N 0.80651 0.17622 0.60212
 N1721 N 0.81268 0.17005 0.61326
 C1722 C 0.82466 0.17562 0.61910
 N1723 N 0.83022 0.18761 0.61327
 N1724 N 0.82406 0.19378 0.60212
 C1725 C 0.80510 0.19518 0.58427
 N1726 N 0.81053 0.20732 0.57867
 N1727 N 0.80404 0.21381 0.56788
 C1728 C 0.79189 0.20839 0.56231
 N1729 N 0.78649 0.19623 0.56788
 N1730 N 0.79297 0.18974 0.57866
 C1731 C 0.78456 0.21571 0.55063
 N1732 N 0.77228 0.21043 0.54523
 N1733 N 0.76548 0.21722 0.53483
 C1734 C 0.77072 0.22954 0.52946
 N1735 N 0.78303 0.23480 0.53483
 N1736 N 0.78983 0.22801 0.54523
 C1737 C 0.68782 0.68808 0.40335
 N1738 N 0.69340 0.67610 0.39758
 N1739 N 0.68724 0.66993 0.38644
 C1740 C 0.67525 0.67549 0.38061
 N1741 N 0.66966 0.68747 0.38645
 N1742 N 0.67582 0.69364 0.39759
 C1743 C 0.69479 0.69506 0.41543
 N1744 N 0.68934 0.70719 0.42103
 N1745 N 0.69582 0.71369 0.43181
 C1746 C 0.70799 0.70829 0.43738
 N1747 N 0.71341 0.69613 0.43180
 N1748 N 0.70693 0.68964 0.42103
 C1749 C 0.71530 0.71562 0.44904
 N1750 N 0.72760 0.71036 0.45444
 N1751 N 0.73439 0.71716 0.46483
 C1752 C 0.72912 0.72947 0.47020
 N1753 N 0.71680 0.73471 0.46483
 N1754 N 0.71001 0.72791 0.45445
 C1755 C 0.68813 0.18805 -0.09684
 N1756 N 0.69370 0.17606 -0.10259
 N1757 N 0.68752 0.16988 -0.11372
 C1758 C 0.67552 0.17544 -0.11954
 N1759 N 0.66995 0.18743 -0.11371
 N1760 N 0.67612 0.19361 -0.10258
 C1761 C 0.69511 0.19504 -0.08477
 N1762 N 0.68967 0.20718 -0.07917
 N1763 N 0.69617 0.21368 -0.06840
 C1764 C 0.70834 0.20828 -0.06284
 N1765 N 0.71375 0.19611 -0.06841
 N1766 N 0.70726 0.18962 -0.07918
 C1767 C 0.71567 0.21561 -0.05119
 N1768 N 0.72797 0.21034 -0.04580
 N1769 N 0.73477 0.21714 -0.03542
 C1770 C 0.72952 0.22945 -0.03005
 N1771 N 0.71719 0.23470 -0.03540
 N1772 N 0.71039 0.22790 -0.04578
 C1773 C 0.18819 0.68810 -0.09688
 N1774 N 0.17619 0.69365 -0.10263
 N1775 N 0.17002 0.68746 -0.11376
 C1776 C 0.17561 0.67549 -0.11960
 N1777 N 0.18761 0.66994 -0.11377
 N1778 N 0.19378 0.67612 -0.10264
 C1779 C 0.19516 0.69510 -0.08481
 N1780 N 0.20731 0.68969 -0.07921
 N1781 N 0.21379 0.69619 -0.06844
 C1782 C 0.20835 0.70835 -0.06287
 N1783 N 0.19618 0.71373 -0.06844
 N1784 N 0.18970 0.70723 -0.07921
 C1785 C 0.21566 0.71569 -0.05121
 N1786 N 0.21036 0.72799 -0.04582
 N1787 N 0.21713 0.73480 -0.03544
 C1788 C 0.22946 0.72957 -0.03006
 N1789 N 0.23474 0.71726 -0.03541
 N1790 N 0.22796 0.71044 -0.04580
 C1791 C 0.18778 0.18802 0.40318
 N1792 N 0.19336 0.17604 0.39740
 N1793 N 0.18721 0.16990 0.38624
 C1794 C 0.17524 0.17548 0.38039
 N1795 N 0.16966 0.18745 0.38624
 N1796 N 0.17580 0.19360 0.39740
 C1797 C 0.19474 0.19498 0.41528
 N1798 N 0.18929 0.20710 0.42089
 N1799 N 0.19576 0.21357 0.43169
 C1800 C 0.20791 0.20815 0.43727
 N1801 N 0.21333 0.19600 0.43169
 N1802 N 0.20686 0.18953 0.42090
 C1803 C 0.21521 0.21546 0.44896
 N1804 N 0.22750 0.21017 0.45437
 N1805 N 0.23429 0.21696 0.46477
 C1806 C 0.22903 0.22927 0.47015
 N1807 N 0.21671 0.23453 0.46477
 N1808 N 0.20993 0.22775 0.45437
 C1809 C 0.31177 0.40355 0.68790
 N1810 N 0.30619 0.39778 0.67593
 N1811 N 0.31236 0.38664 0.66975
 C1812 C 0.32437 0.38082 0.67528
 N1813 N 0.32995 0.38666 0.68725
 N1814 N 0.32378 0.39780 0.69343
 C1815 C 0.30479 0.41564 0.69489
 N1816 N 0.31025 0.42124 0.70700
 N1817 N 0.30377 0.43202 0.71350
 C1818 C 0.29159 0.43759 0.70813
 N1819 N 0.28616 0.43202 0.69599
 N1820 N 0.29264 0.42124 0.68949
 C1821 C 0.28428 0.44928 0.71546
 N1822 N 0.27197 0.45468 0.71022
 N1823 N 0.26519 0.46509 0.71703
 C1824 C 0.27047 0.47046 0.72932
 N1825 N 0.28280 0.46509 0.73454
 N1826 N 0.28958 0.45468 0.72774
 C1827 C 0.31204 0.90406 0.18766
 N1828 N 0.30647 0.89832 0.17567
 N1829 N 0.31265 0.88718 0.16948
 C1830 C 0.32465 0.88134 0.17503
 N1831 N 0.33021 0.88717 0.18701
 N1832 N 0.32404 0.89830 0.19320
 C1833 C 0.30505 0.91614 0.19466
 N1834 N 0.31049 0.92172 0.20679
 N1835 N 0.30400 0.93249 0.21330
 C1836 C 0.29184 0.93808 0.20791
 N1837 N 0.28643 0.93253 0.19575
 N1838 N 0.29291 0.92176 0.18924
 C1839 C 0.28451 0.94975 0.21525
 N1840 N 0.27222 0.95517 0.20999
 N1841 N 0.26543 0.96557 0.21680
 C1842 C 0.27068 0.97091 0.22912
 N1843 N 0.28299 0.96552 0.23436
 N1844 N 0.28979 0.95512 0.22755
 C1845 C 0.81242 0.40360 0.18760
 N1846 N 0.80687 0.39785 0.17561
 N1847 N 0.81307 0.38671 0.16944
 C1848 C 0.82504 0.38087 0.17502
 N1849 N 0.83059 0.38670 0.18700
 N1850 N 0.82440 0.39784 0.19317
 C1851 C 0.80542 0.41569 0.19458
 N1852 N 0.81083 0.42128 0.20672
 N1853 N 0.80432 0.43205 0.21320
 C1854 C 0.79216 0.43763 0.20779
 N1855 N 0.78678 0.43207 0.19562
 N1856 N 0.79329 0.42129 0.18914
 C1857 C 0.78482 0.44930 0.21511
 N1858 N 0.77252 0.45470 0.20983
 N1859 N 0.76571 0.46509 0.21662
 C1860 C 0.77094 0.47045 0.22895
 N1861 N 0.78325 0.46507 0.23420
 N1862 N 0.79007 0.45469 0.22741
 C1863 C 0.81193 0.90373 0.68789
 N1864 N 0.80636 0.89797 0.67591
 N1865 N 0.81256 0.88684 0.66972
 C1866 C 0.82456 0.88102 0.67526
 N1867 N 0.83013 0.88685 0.68724
 N1868 N 0.82394 0.89798 0.69343
 C1869 C 0.80494 0.91580 0.69489
 N1870 N 0.81037 0.92140 0.70702
 N1871 N 0.80387 0.93216 0.71352
 C1872 C 0.79170 0.93773 0.70814
 N1873 N 0.78629 0.93216 0.69599
 N1874 N 0.79279 0.92140 0.68948
 C1875 C 0.78437 0.94940 0.71548
 N1876 N 0.77206 0.95480 0.71023
 N1877 N 0.76526 0.96519 0.71703
 C1878 C 0.77052 0.97056 0.72934
 N1879 N 0.78285 0.96518 0.73457
 N1880 N 0.78965 0.95479 0.72776
 C1881 C 0.68801 0.59679 0.68811
 N1882 N 0.67602 0.60255 0.69368
 N1883 N 0.66983 0.61369 0.68751
 C1884 C 0.67537 0.61952 0.67551
 N1885 N 0.68735 0.61368 0.66994
 N1886 N 0.69355 0.60255 0.67610
 C1887 C 0.69501 0.58471 0.69508
 N1888 N 0.70714 0.57911 0.68963
 N1889 N 0.71365 0.56833 0.69611
 C1890 C 0.70827 0.56275 0.70827
 N1891 N 0.69611 0.56832 0.71369
 N1892 N 0.68960 0.57911 0.70722
 C1893 C 0.71561 0.55107 0.71557
 N1894 N 0.71036 0.54566 0.72787
 N1895 N 0.71717 0.53525 0.73464
 C1896 C 0.72948 0.52988 0.72937
 N1897 N 0.73471 0.53527 0.71706
 N1898 N 0.72790 0.54567 0.71028
 C1899 C 0.68805 0.09658 0.18765
 N1900 N 0.67604 0.10233 0.19318
 N1901 N 0.66986 0.11345 0.18698
 C1902 C 0.67544 0.11928 0.17501
 N1903 N 0.68744 0.11346 0.16947
 N1904 N 0.69363 0.10233 0.17567
 C1905 C 0.69504 0.08451 0.19466
 N1906 N 0.70720 0.07890 0.18926
 N1907 N 0.71369 0.06814 0.19578
 C1908 C 0.70827 0.06258 0.20793
 N1909 N 0.69609 0.06815 0.21331
 N1910 N 0.68959 0.07892 0.20679
 C1911 C 0.71559 0.05092 0.21529
 N1912 N 0.71030 0.04554 0.22758
 N1913 N 0.71709 0.03515 0.23440
 C1914 C 0.72942 0.02977 0.22918
 N1915 N 0.73468 0.03512 0.21686
 N1916 N 0.72789 0.04550 0.21004
 C1917 C 0.18787 0.59681 0.18763
 N1918 N 0.17586 0.60257 0.19318
 N1919 N 0.16969 0.61370 0.18698
 C1920 C 0.17526 0.61953 0.17500
 N1921 N 0.18726 0.61370 0.16946
 N1922 N 0.19344 0.60256 0.17565
 C1923 C 0.19485 0.58473 0.19464
 N1924 N 0.20700 0.57913 0.18923
 N1925 N 0.21349 0.56836 0.19574
 C1926 C 0.20808 0.56280 0.20790
 N1927 N 0.19590 0.56838 0.21328
 N1928 N 0.18941 0.57915 0.20677
 C1929 C 0.21540 0.55114 0.21525
 N1930 N 0.21012 0.54576 0.22755
 N1931 N 0.21692 0.53538 0.23437
 C1932 C 0.22924 0.53000 0.22914
 N1933 N 0.23450 0.53535 0.21682
 N1934 N 0.22770 0.54573 0.21000
 C1935 C 0.18778 0.09664 0.68811
 N1936 N 0.19332 0.10238 0.67610
 N1937 N 0.18712 0.11351 0.66992
 C1938 C 0.17515 0.11936 0.67550
 N1939 N 0.16961 0.11355 0.68750
 N1940 N 0.17580 0.10242 0.69369
 C1941 C 0.19478 0.08456 0.69509
 N1942 N 0.18938 0.07898 0.70724
 N1943 N 0.19589 0.06820 0.71373
 C1944 C 0.20804 0.06262 0.70830
 N1945 N 0.21342 0.06818 0.69613
 N1946 N 0.20691 0.07895 0.68964
 C1947 C 0.21538 0.05095 0.71562
 N1948 N 0.22767 0.04554 0.71032
 N1949 N 0.23448 0.03514 0.71710
 C1950 C 0.22925 0.02977 0.72943
 N1951 N 0.21695 0.03515 0.73470
 N1952 N 0.21013 0.04555 0.72792
 C1953 C 0.31210 0.59692 0.31188
 N1954 N 0.30654 0.60268 0.32387
 N1955 N 0.31272 0.61382 0.33003
 C1956 C 0.32470 0.61965 0.32446
 N1957 N 0.33026 0.61382 0.31248
 N1958 N 0.32409 0.60268 0.30631
 C1959 C 0.30512 0.58483 0.30491
 N1960 N 0.31054 0.57922 0.29278
 N1961 N 0.30405 0.56845 0.28630
 C1962 C 0.29189 0.56288 0.29171
 N1963 N 0.28649 0.56846 0.30387
 N1964 N 0.29298 0.57924 0.31035
 C1965 C 0.28456 0.55121 0.28440
 N1966 N 0.27226 0.54582 0.28968
 N1967 N 0.26546 0.53542 0.28290
 C1968 C 0.27070 0.53004 0.27059
 N1969 N 0.28302 0.53539 0.26534
 N1970 N 0.28983 0.54579 0.27212
 C1971 C 0.31223 0.09647 0.81220
 N1972 N 0.32422 0.10223 0.80663
 N1973 N 0.33039 0.11336 0.81282
 C1974 C 0.32484 0.11919 0.82481
 N1975 N 0.31286 0.11335 0.83038
 N1976 N 0.30668 0.10221 0.82420
 C1977 C 0.30524 0.08439 0.80522
 N1978 N 0.29311 0.07879 0.81065
 N1979 N 0.28661 0.06802 0.80416
 C1980 C 0.29200 0.06247 0.79199
 N1981 N 0.30416 0.06805 0.78657
 N1982 N 0.31066 0.07881 0.79307
 C1983 C 0.28466 0.05081 0.78465
 N1984 N 0.28992 0.04543 0.77235
 N1985 N 0.28311 0.03506 0.76554
 C1986 C 0.27080 0.02968 0.77080
 N1987 N 0.26556 0.03503 0.78313
 N1988 N 0.27238 0.04541 0.78994
 C1989 C 0.81240 0.59659 0.81212
 N1990 N 0.80684 0.60234 0.82412
 N1991 N 0.81302 0.61349 0.83028
 C1992 C 0.82499 0.61933 0.82471
 N1993 N 0.83055 0.61351 0.81272
 N1994 N 0.82438 0.60236 0.80655
 C1995 C 0.80542 0.58451 0.80515
 N1996 N 0.81084 0.57892 0.79301
 N1997 N 0.80434 0.56815 0.78652
 C1998 C 0.79219 0.56257 0.79193
 N1999 N 0.78679 0.56813 0.80410
 N2000 N 0.79329 0.57890 0.81059
 C2001 C 0.78486 0.55091 0.78461
 N2002 N 0.77257 0.54551 0.78988
 N2003 N 0.76576 0.53513 0.78308
 C2004 C 0.77099 0.52977 0.77076
 N2005 N 0.78331 0.53514 0.76550
 N2006 N 0.79012 0.54552 0.77230
 C2007 C 0.81234 0.09659 0.31193
 N2008 N 0.82434 0.10233 0.30636
 N2009 N 0.83052 0.11347 0.31253
 C2010 C 0.82496 0.11932 0.32451
 N2011 N 0.81297 0.11350 0.33008
 N2012 N 0.80678 0.10236 0.32391
 C2013 C 0.80534 0.08451 0.30496
 N2014 N 0.79320 0.07893 0.31039
 N2015 N 0.78669 0.06816 0.30391
 C2016 C 0.79209 0.06257 0.29176
 N2017 N 0.80426 0.06812 0.28635
 N2018 N 0.81077 0.07890 0.29283
 C2019 C 0.78475 0.05091 0.28445
 N2020 N 0.79002 0.04548 0.27217
 N2021 N 0.78320 0.03510 0.26538
 C2022 C 0.77087 0.02976 0.27064
 N2023 N 0.76563 0.03515 0.28294
 N2024 N 0.77244 0.04554 0.28973
 C2025 C 0.68788 0.40352 0.31156
 N2026 N 0.69341 0.39777 0.32356
 N2027 N 0.68722 0.38663 0.32973
 C2028 C 0.67525 0.38079 0.32414
 N2029 N 0.66972 0.38662 0.31215
 N2030 N 0.67590 0.39776 0.30597
 C2031 C 0.69489 0.41560 0.30459
 N2032 N 0.68949 0.42121 0.29245
 N2033 N 0.69600 0.43198 0.28598
 C2034 C 0.70815 0.43755 0.29141
 N2035 N 0.71352 0.43197 0.30358
 N2036 N 0.70701 0.42120 0.31005
 C2037 C 0.71550 0.44922 0.28411
 N2038 N 0.72778 0.45461 0.28941
 N2039 N 0.73460 0.46501 0.28264
 C2040 C 0.72938 0.47040 0.27032
 N2041 N 0.71707 0.46504 0.26504
 N2042 N 0.71026 0.45464 0.27181
 C2043 C 0.68768 0.90378 0.81225
 N2044 N 0.69325 0.89800 0.82423
 N2045 N 0.68707 0.88687 0.83040
 C2046 C 0.67507 0.88105 0.82485
 N2047 N 0.66950 0.88690 0.81289
 N2048 N 0.67568 0.89804 0.80671
 C2049 C 0.69467 0.91586 0.80527
 N2050 N 0.68923 0.92147 0.79314
 N2051 N 0.69573 0.93224 0.78665
 C2052 C 0.70790 0.93779 0.79203
 N2053 N 0.71332 0.93221 0.80418
 N2054 N 0.70682 0.92144 0.81068
 C2055 C 0.71523 0.94946 0.78470
 N2056 N 0.72754 0.95484 0.78995
 N2057 N 0.73434 0.96522 0.78314
 C2058 C 0.72908 0.97060 0.77084
 N2059 N 0.71675 0.96525 0.76561
 N2060 N 0.70995 0.95486 0.77242
 C2061 C 0.18772 0.40378 0.81237
 N2062 N 0.17571 0.39805 0.80684
 N2063 N 0.16954 0.38691 0.81302
 C2064 C 0.17512 0.38106 0.82498
 N2065 N 0.18713 0.38687 0.83052
 N2066 N 0.19331 0.39801 0.82434
 C2067 C 0.19471 0.41586 0.80537
 N2068 N 0.20686 0.42144 0.81076
 N2069 N 0.21336 0.43221 0.80426
 C2070 C 0.20793 0.43779 0.79211
 N2071 N 0.19574 0.43224 0.78674
 N2072 N 0.18925 0.42147 0.79325
 C2073 C 0.21525 0.44944 0.78476
 N2074 N 0.20996 0.45485 0.77248
 N2075 N 0.21675 0.46522 0.76566
 C2076 C 0.22909 0.47058 0.77087
 N2077 N 0.23437 0.46520 0.78317
 N2078 N 0.22757 0.45483 0.79000
 C2079 C 0.18774 0.90405 0.31187
 N2080 N 0.17575 0.89829 0.30630
 N2081 N 0.16958 0.88715 0.31247
 C2082 C 0.17513 0.88132 0.32446
 N2083 N 0.18710 0.88715 0.33003
 N2084 N 0.19329 0.89829 0.32386
 C2085 C 0.19473 0.91613 0.30489
 N2086 N 0.20686 0.92173 0.31033
 N2087 N 0.21336 0.93250 0.30385
 C2088 C 0.20797 0.93808 0.29168
 N2089 N 0.19582 0.93251 0.28627
 N2090 N 0.18931 0.92173 0.29275
 C2091 C 0.21531 0.94975 0.28437
 N2092 N 0.21005 0.95516 0.27208
 N2093 N 0.21687 0.96555 0.26529
 C2094 C 0.22918 0.97091 0.27055
 N2095 N 0.23441 0.96553 0.28287
 N2096 N 0.22760 0.95514 0.28965
 C2097 C 0.40319 0.31220 0.68782
 N2098 N 0.39743 0.32420 0.69338
 N2099 N 0.38628 0.33037 0.68721
 C2100 C 0.38045 0.32480 0.67523
 N2101 N 0.38628 0.31281 0.66967
 N2102 N 0.39743 0.30663 0.67584
 C2103 C 0.41529 0.30522 0.69479
 N2104 N 0.42089 0.29308 0.68937
 N2105 N 0.43168 0.28659 0.69585
 C2106 C 0.43725 0.29200 0.70800
 N2107 N 0.43168 0.30417 0.71340
 N2108 N 0.42089 0.31066 0.70691
 C2109 C 0.44894 0.28468 0.71531
 N2110 N 0.45434 0.28996 0.72760
 N2111 N 0.46474 0.28316 0.73439
 C2112 C 0.47012 0.27085 0.72914
 N2113 N 0.46475 0.26559 0.71683
 N2114 N 0.45435 0.27238 0.71005
 C2115 C 0.40345 0.81271 0.18756
 N2116 N 0.39769 0.82471 0.19312
 N2117 N 0.38656 0.83089 0.18695
 C2118 C 0.38072 0.82533 0.17497
 N2119 N 0.38656 0.81334 0.16941
 N2120 N 0.39770 0.80715 0.17558
 C2121 C 0.41553 0.80571 0.19454
 N2122 N 0.42113 0.79357 0.18912
 N2123 N 0.43190 0.78707 0.19561
 C2124 C 0.43747 0.79247 0.20777
 N2125 N 0.43190 0.80463 0.21317
 N2126 N 0.42113 0.81114 0.20667
 C2127 C 0.44913 0.78512 0.21510
 N2128 N 0.45453 0.79039 0.22739
 N2129 N 0.46491 0.78358 0.23419
 C2130 C 0.47028 0.77125 0.22895
 N2131 N 0.46491 0.76600 0.21663
 N2132 N 0.45453 0.77282 0.20983
 C2133 C 0.90378 0.31217 0.18769
 N2134 N 0.89802 0.32417 0.19324
 N2135 N 0.88689 0.33035 0.18705
 C2136 C 0.88107 0.32479 0.17507
 N2137 N 0.88690 0.31280 0.16952
 N2138 N 0.89803 0.30661 0.17571
 C2139 C 0.91586 0.30518 0.19469
 N2140 N 0.92147 0.29304 0.18927
 N2141 N 0.93224 0.28654 0.19577
 C2142 C 0.93780 0.29195 0.20793
 N2143 N 0.93222 0.30412 0.21332
 N2144 N 0.92145 0.31061 0.20682
 C2145 C 0.94947 0.28462 0.21526
 N2146 N 0.95485 0.28990 0.22756
 N2147 N 0.96524 0.28310 0.23436
 C2148 C 0.97063 0.27078 0.22912
 N2149 N 0.96527 0.26553 0.21681
 N2150 N 0.95488 0.27233 0.21000
 C2151 C 0.90341 0.81242 0.68775
 N2152 N 0.89765 0.82442 0.69331
 N2153 N 0.88650 0.83059 0.68715
 C2154 C 0.88066 0.82503 0.67517
 N2155 N 0.88650 0.81304 0.66961
 N2156 N 0.89765 0.80686 0.67577
 C2157 C 0.91551 0.80544 0.69472
 N2158 N 0.92111 0.79330 0.68929
 N2159 N 0.93190 0.78681 0.69577
 C2160 C 0.93747 0.79221 0.70792
 N2161 N 0.93190 0.80437 0.71333
 N2162 N 0.92111 0.81087 0.70684
 C2163 C 0.94915 0.78488 0.71524
 N2164 N 0.95456 0.79015 0.72752
 N2165 N 0.96495 0.78335 0.73431
 C2166 C 0.97033 0.77103 0.72906
 N2167 N 0.96495 0.76578 0.71675
 N2168 N 0.95455 0.77258 0.70996
 C2169 C 0.59654 0.31209 0.31154
 N2170 N 0.60229 0.32408 0.30597
 N2171 N 0.61342 0.33027 0.31214
 C2172 C 0.61925 0.32473 0.32413
 N2173 N 0.61343 0.31274 0.32971
 N2174 N 0.60230 0.30655 0.32354
 C2175 C 0.58447 0.30509 0.30457
 N2176 N 0.57888 0.29296 0.31002
 N2177 N 0.56811 0.28645 0.30354
 C2178 C 0.56253 0.29184 0.29139
 N2179 N 0.56808 0.30400 0.28596
 N2180 N 0.57886 0.31050 0.29244
 C2181 C 0.55086 0.28449 0.28408
 N2182 N 0.54543 0.28975 0.27180
 N2183 N 0.53504 0.28294 0.26503
 C2184 C 0.52968 0.27062 0.27029
 N2185 N 0.53508 0.26539 0.28260
 N2186 N 0.54547 0.27220 0.28937
 C2187 C 0.59631 0.81246 0.81222
 N2188 N 0.60207 0.82446 0.80668
 N2189 N 0.61320 0.83063 0.81286
 C2190 C 0.61903 0.82505 0.82484
 N2191 N 0.61320 0.81306 0.83039
 N2192 N 0.60206 0.80689 0.82421
 C2193 C 0.58423 0.80549 0.80523
 N2194 N 0.57863 0.79335 0.81065
 N2195 N 0.56786 0.78686 0.80414
 C2196 C 0.56230 0.79227 0.79199
 N2197 N 0.56788 0.80444 0.78659
 N2198 N 0.57864 0.81093 0.79310
 C2199 C 0.55064 0.78495 0.78464
 N2200 N 0.54526 0.79023 0.77235
 N2201 N 0.53489 0.78343 0.76553
 C2202 C 0.52951 0.77111 0.77077
 N2203 N 0.53486 0.76586 0.78309
 N2204 N 0.54523 0.77265 0.78990
 C2205 C 0.09637 0.31247 0.81237
 N2206 N 0.10213 0.32447 0.80683
 N2207 N 0.11326 0.33064 0.81301
 C2208 C 0.11909 0.32505 0.82498
 N2209 N 0.11326 0.31306 0.83053
 N2210 N 0.10213 0.30689 0.82435
 C2211 C 0.08429 0.30550 0.80538
 N2212 N 0.07869 0.29335 0.81079
 N2213 N 0.06792 0.28687 0.80428
 C2214 C 0.06236 0.29229 0.79213
 N2215 N 0.06794 0.30446 0.78674
 N2216 N 0.07871 0.31094 0.79325
 C2217 C 0.05070 0.28497 0.78478
 N2218 N 0.04532 0.29026 0.77248
 N2219 N 0.03494 0.28346 0.76567
 C2220 C 0.02956 0.27114 0.77090
 N2221 N 0.03491 0.26588 0.78322
 N2222 N 0.04529 0.27267 0.79004
 C2223 C 0.09644 0.81262 0.31182
 N2224 N 0.10219 0.82461 0.30625
 N2225 N 0.11331 0.83080 0.31244
 C2226 C 0.11913 0.82526 0.32443
 N2227 N 0.11331 0.81327 0.33000
 N2228 N 0.10218 0.80707 0.32382
 C2229 C 0.08437 0.80561 0.30484
 N2230 N 0.07878 0.79348 0.31028
 N2231 N 0.06802 0.78696 0.30379
 C2232 C 0.06246 0.79234 0.29163
 N2233 N 0.06801 0.80451 0.28621
 N2234 N 0.07877 0.81102 0.29270
 C2235 C 0.05080 0.78499 0.28431
 N2236 N 0.04539 0.79024 0.27201
 N2237 N 0.03501 0.78342 0.26523
 C2238 C 0.02966 0.77110 0.27050
 N2239 N 0.03504 0.76587 0.28282
 N2240 N 0.04542 0.77269 0.28960
 C2241 C 0.59655 0.68817 0.68810
 N2242 N 0.60230 0.69372 0.67610
 N2243 N 0.61344 0.68753 0.66993
 C2244 C 0.61928 0.67555 0.67551
 N2245 N 0.61346 0.67000 0.68750
 N2246 N 0.60232 0.67618 0.69367
 C2247 C 0.58446 0.69517 0.69507
 N2248 N 0.57886 0.68976 0.70720
 N2249 N 0.56807 0.69626 0.71368
 C2250 C 0.56250 0.70842 0.70825
 N2251 N 0.56807 0.71380 0.69609
 N2252 N 0.57886 0.70730 0.68962
 C2253 C 0.55081 0.71576 0.71556
 N2254 N 0.54542 0.72805 0.71026
 N2255 N 0.53501 0.73486 0.71704
 C2256 C 0.52962 0.72962 0.72935
 N2257 N 0.53499 0.71731 0.73462
 N2258 N 0.54539 0.71050 0.72784
 C2259 C 0.59654 0.18782 0.18747
 N2260 N 0.60231 0.17583 0.19303
 N2261 N 0.61347 0.16967 0.18686
 C2262 C 0.61931 0.17525 0.17489
 N2263 N 0.61347 0.18723 0.16933
 N2264 N 0.60231 0.19340 0.17549
 C2265 C 0.58444 0.19479 0.19445
 N2266 N 0.57883 0.20693 0.18903
 N2267 N 0.56804 0.21341 0.19552
 C2268 C 0.56247 0.20799 0.20767
 N2269 N 0.56806 0.19583 0.21307
 N2270 N 0.57885 0.18935 0.20658
 C2271 C 0.55080 0.21531 0.21500
 N2272 N 0.54541 0.21003 0.22730
 N2273 N 0.53502 0.21682 0.23411
 C2274 C 0.52963 0.22914 0.22887
 N2275 N 0.53498 0.23440 0.21655
 N2276 N 0.54538 0.22761 0.20974
 C2277 C 0.09650 0.68819 0.18761
 N2278 N 0.10225 0.69376 0.17562
 N2279 N 0.11339 0.68757 0.16944
 C2280 C 0.11922 0.67558 0.17499
 N2281 N 0.11340 0.67001 0.18697
 N2282 N 0.10226 0.67619 0.19316
 C2283 C 0.08443 0.69518 0.19461
 N2284 N 0.07884 0.68975 0.20675
 N2285 N 0.06807 0.69624 0.21326
 C2286 C 0.06249 0.70841 0.20786
 N2287 N 0.06805 0.71382 0.19570
 N2288 N 0.07882 0.70732 0.18919
 C2289 C 0.05083 0.71574 0.21521
 N2290 N 0.04541 0.72803 0.20994
 N2291 N 0.03502 0.73483 0.21676
 C2292 C 0.02968 0.72958 0.22908
 N2293 N 0.03507 0.71727 0.23432
 N2294 N 0.04545 0.71047 0.22751
 C2295 C 0.09643 0.18810 0.68812
 N2296 N 0.10217 0.19364 0.67612
 N2297 N 0.11330 0.18743 0.66994
 C2298 C 0.11913 0.17545 0.67551
 N2299 N 0.11331 0.16991 0.68751
 N2300 N 0.10218 0.17611 0.69369
 C2301 C 0.08436 0.19512 0.69511
 N2302 N 0.07876 0.18972 0.70725
 N2303 N 0.06800 0.19624 0.71374
 C2304 C 0.06244 0.20840 0.70833
 N2305 N 0.06801 0.21379 0.69616
 N2306 N 0.07877 0.20726 0.68967
 C2307 C 0.05078 0.21576 0.71564
 N2308 N 0.04539 0.22807 0.71036
 N2309 N 0.03500 0.23489 0.71715
 C2310 C 0.02962 0.22966 0.72946
 N2311 N 0.03497 0.21733 0.73472
 N2312 N 0.04536 0.21051 0.72794
 C2313 C 0.40339 0.68835 0.31179
 N2314 N 0.39763 0.69391 0.32378
 N2315 N 0.38650 0.68772 0.32996
 C2316 C 0.38068 0.67573 0.32441
 N2317 N 0.38651 0.67017 0.31243
 N2318 N 0.39764 0.67635 0.30624
 C2319 C 0.41546 0.69535 0.30480
 N2320 N 0.42106 0.68992 0.29267
 N2321 N 0.43183 0.69642 0.28617
 C2322 C 0.43739 0.70858 0.29157
 N2323 N 0.43182 0.71399 0.30373
 N2324 N 0.42105 0.70749 0.31022
 C2325 C 0.44906 0.71592 0.28424
 N2326 N 0.45445 0.72822 0.28951
 N2327 N 0.46484 0.73502 0.28271
 C2328 C 0.47022 0.72976 0.27040
 N2329 N 0.46486 0.71744 0.26516
 N2330 N 0.45446 0.71064 0.27196
 C2331 C 0.40351 0.18788 0.81211
 N2332 N 0.39777 0.17588 0.80656
 N2333 N 0.38665 0.16969 0.81276
 C2334 C 0.38082 0.17525 0.82474
 N2335 N 0.38664 0.18724 0.83029
 N2336 N 0.39776 0.19344 0.82410
 C2337 C 0.41557 0.19488 0.80510
 N2338 N 0.42116 0.20703 0.81051
 N2339 N 0.43191 0.21354 0.80400
 C2340 C 0.43747 0.20815 0.79183
 N2341 N 0.43191 0.19597 0.78645
 N2342 N 0.42116 0.18946 0.79296
 C2343 C 0.44911 0.21549 0.78449
 N2344 N 0.45450 0.21023 0.77219
 N2345 N 0.46487 0.21704 0.76537
 C2346 C 0.47023 0.22937 0.77060
 N2347 N 0.46486 0.23462 0.78292
 N2348 N 0.45450 0.22780 0.78974
 C2349 C 0.90360 0.68810 0.81199
 N2350 N 0.89784 0.69366 0.82398
 N2351 N 0.88672 0.68746 0.83017
 C2352 C 0.88091 0.67546 0.82463
 N2353 N 0.88674 0.66990 0.81265
 N2354 N 0.89786 0.67609 0.80645
 C2355 C 0.91566 0.69510 0.80499
 N2356 N 0.92126 0.68967 0.79285
 N2357 N 0.93201 0.69618 0.78634
 C2358 C 0.93757 0.70835 0.79173
 N2359 N 0.93200 0.71376 0.80389
 N2360 N 0.92124 0.70725 0.81040
 C2361 C 0.94922 0.71569 0.78439
 N2362 N 0.95461 0.72799 0.78964
 N2363 N 0.96499 0.73480 0.78283
 C2364 C 0.97036 0.72955 0.77052
 N2365 N 0.96500 0.71722 0.76528
 N2366 N 0.95462 0.71042 0.77209
 C2367 C 0.90375 0.18791 0.31190
 N2368 N 0.89799 0.17592 0.30634
 N2369 N 0.88685 0.16975 0.31252
 C2370 C 0.88101 0.17532 0.32450
 N2371 N 0.88684 0.18730 0.33006
 N2372 N 0.89798 0.19348 0.32389
 C2373 C 0.91583 0.19490 0.30492
 N2374 N 0.92143 0.20703 0.31035
 N2375 N 0.93221 0.21352 0.30387
 C2376 C 0.93779 0.20812 0.29171
 N2377 N 0.93222 0.19596 0.28631
 N2378 N 0.92144 0.18947 0.29280
 C2379 C 0.94946 0.21545 0.28440
 N2380 N 0.95488 0.21018 0.27211
 N2381 N 0.96527 0.21698 0.26532
 C2382 C 0.97063 0.22930 0.27057
 N2383 N 0.96525 0.23455 0.28288
 N2384 N 0.95486 0.22774 0.28967
 C2385 C 0.31176 0.31214 0.59660
 N2386 N 0.30619 0.32414 0.60235
 N2387 N 0.31237 0.33032 0.61347
 C2388 C 0.32436 0.32477 0.61930
 N2389 N 0.32994 0.31278 0.61347
 N2390 N 0.32376 0.30659 0.60235
 C2391 C 0.30478 0.30515 0.58453
 N2392 N 0.31022 0.29301 0.57894
 N2393 N 0.30374 0.28651 0.56817
 C2394 C 0.29157 0.29191 0.56260
 N2395 N 0.28615 0.30407 0.56816
 N2396 N 0.29264 0.31057 0.57893
 C2397 C 0.28425 0.28457 0.55094
 N2398 N 0.27195 0.28984 0.54554
 N2399 N 0.26516 0.28304 0.53515
 C2400 C 0.27042 0.27072 0.52979
 N2401 N 0.28274 0.26547 0.53516
 N2402 N 0.28953 0.27228 0.54555
 C2403 C 0.31207 0.81268 0.09632
 N2404 N 0.32408 0.80714 0.10206
 N2405 N 0.33025 0.81333 0.11319
 C2406 C 0.32466 0.82531 0.11902
 N2407 N 0.31266 0.83086 0.11320
 N2408 N 0.30648 0.82467 0.10207
 C2409 C 0.30509 0.80568 0.08425
 N2410 N 0.29294 0.81108 0.07865
 N2411 N 0.28646 0.80457 0.06789
 C2412 C 0.29190 0.79241 0.06233
 N2413 N 0.30407 0.78703 0.06790
 N2414 N 0.31055 0.79354 0.07866
 C2415 C 0.28459 0.78506 0.05068
 N2416 N 0.28989 0.77276 0.04529
 N2417 N 0.28311 0.76594 0.03491
 C2418 C 0.27078 0.77116 0.02954
 N2419 N 0.26550 0.78348 0.03489
 N2420 N 0.27228 0.79030 0.04527
 C2421 C 0.81245 0.31223 0.09634
 N2422 N 0.82444 0.30665 0.10209
 N2423 N 0.83062 0.31283 0.11322
 C2424 C 0.82506 0.32482 0.11905
 N2425 N 0.81308 0.33040 0.11322
 N2426 N 0.80689 0.32423 0.10209
 C2427 C 0.80545 0.30525 0.08427
 N2428 N 0.79332 0.31069 0.07868
 N2429 N 0.78681 0.30420 0.06791
 C2430 C 0.79221 0.29204 0.06234
 N2431 N 0.80437 0.28662 0.06790
 N2432 N 0.81088 0.29310 0.07867
 C2433 C 0.78487 0.28472 0.05068
 N2434 N 0.79014 0.27242 0.04527
 N2435 N 0.78333 0.26563 0.03489
 C2436 C 0.77100 0.27089 0.02954
 N2437 N 0.76576 0.28321 0.03492
 N2438 N 0.77257 0.29000 0.04530
 C2439 C 0.81195 0.81240 0.59655
 N2440 N 0.82396 0.80684 0.60228
 N2441 N 0.83014 0.81303 0.61341
 C2442 C 0.82457 0.82501 0.61925
 N2443 N 0.81257 0.83056 0.61344
 N2444 N 0.80638 0.82438 0.60231
 C2445 C 0.80496 0.80541 0.58448
 N2446 N 0.79281 0.81083 0.57890
 N2447 N 0.78631 0.80433 0.56814
 C2448 C 0.79173 0.79217 0.56257
 N2449 N 0.80390 0.78677 0.56812
 N2450 N 0.81040 0.79327 0.57888
 C2451 C 0.78440 0.78484 0.55091
 N2452 N 0.78968 0.77254 0.54551
 N2453 N 0.78288 0.76574 0.53513
 C2454 C 0.77055 0.77098 0.52978
 N2455 N 0.76529 0.78329 0.53515
 N2456 N 0.77209 0.79010 0.54553
 C2457 C 0.31204 0.68831 0.40315
 N2458 N 0.30649 0.67631 0.39740
 N2459 N 0.31268 0.67013 0.38627
 C2460 C 0.32466 0.67570 0.38044
 N2461 N 0.33021 0.68770 0.38626
 N2462 N 0.32402 0.69388 0.39739
 C2463 C 0.30504 0.69530 0.41522
 N2464 N 0.31045 0.70744 0.42081
 N2465 N 0.30394 0.71393 0.43158
 C2466 C 0.29179 0.70852 0.43714
 N2467 N 0.28640 0.69635 0.43158
 N2468 N 0.29290 0.68986 0.42081
 C2469 C 0.28444 0.71584 0.44880
 N2470 N 0.27215 0.71056 0.45420
 N2471 N 0.26533 0.71735 0.46458
 C2472 C 0.27056 0.72968 0.46995
 N2473 N 0.28288 0.73494 0.46459
 N2474 N 0.28970 0.72814 0.45420
 C2475 C 0.31223 0.18785 0.90351
 N2476 N 0.30667 0.17585 0.89777
 N2477 N 0.31285 0.16966 0.88664
 C2478 C 0.32484 0.17522 0.88080
 N2479 N 0.33039 0.18722 0.88661
 N2480 N 0.32422 0.19341 0.89774
 C2481 C 0.30524 0.19484 0.91558
 N2482 N 0.31066 0.20699 0.92116
 N2483 N 0.30416 0.21349 0.93192
 C2484 C 0.29200 0.20809 0.93750
 N2485 N 0.28660 0.19592 0.93195
 N2486 N 0.29310 0.18942 0.92118
 C2487 C 0.28467 0.21543 0.94915
 N2488 N 0.27238 0.21016 0.95456
 N2489 N 0.26557 0.21697 0.96494
 C2490 C 0.27081 0.22930 0.97029
 N2491 N 0.28313 0.23455 0.96492
 N2492 N 0.28993 0.22774 0.95454
 C2493 C 0.81225 0.68798 0.90337
 N2494 N 0.82423 0.69357 0.89762
 N2495 N 0.83043 0.68739 0.88649
 C2496 C 0.82490 0.67539 0.88067
 N2497 N 0.81292 0.66981 0.88650
 N2498 N 0.80672 0.67598 0.89763
 C2499 C 0.80524 0.69496 0.91544
 N2500 N 0.79311 0.68951 0.92103
 N2501 N 0.78659 0.69600 0.93180
 C2502 C 0.79196 0.70817 0.93736
 N2503 N 0.80412 0.71359 0.93181
 N2504 N 0.81064 0.70711 0.92104
 C2505 C 0.78461 0.71548 0.94902
 N2506 N 0.78985 0.72779 0.95443
 N2507 N 0.78303 0.73457 0.96481
 C2508 C 0.77071 0.72931 0.97016
 N2509 N 0.76549 0.71698 0.96479
 N2510 N 0.77231 0.71020 0.95441
 C2511 C 0.81228 0.18802 0.40314
 N2512 N 0.80673 0.17602 0.39740
 N2513 N 0.81293 0.16983 0.38628
 C2514 C 0.82492 0.17539 0.38046
 N2515 N 0.83047 0.18738 0.38627
 N2516 N 0.82428 0.19358 0.39739
 C2517 C 0.80527 0.19502 0.41520
 N2518 N 0.81068 0.20717 0.42078
 N2519 N 0.80417 0.21368 0.43154
 C2520 C 0.79200 0.20827 0.43710
 N2521 N 0.78662 0.19610 0.43155
 N2522 N 0.79313 0.18959 0.42079
 C2523 C 0.78465 0.21561 0.44874
 N2524 N 0.77236 0.21034 0.45414
 N2525 N 0.76554 0.21715 0.46451
 C2526 C 0.77077 0.22948 0.46986
 N2527 N 0.78309 0.23473 0.46450
 N2528 N 0.78991 0.22792 0.45413
 C2529 C 0.68782 0.31223 0.40293
 N2530 N 0.67584 0.30665 0.39717
 N2531 N 0.66966 0.31282 0.38603
 C2532 C 0.67522 0.32481 0.38019
 N2533 N 0.68719 0.33039 0.38602
 N2534 N 0.69337 0.32422 0.39717
 C2535 C 0.69481 0.30525 0.41501
 N2536 N 0.70693 0.31070 0.42061
 N2537 N 0.71343 0.30422 0.43138
 C2538 C 0.70804 0.29206 0.43696
 N2539 N 0.69589 0.28663 0.43139
 N2540 N 0.68939 0.29311 0.42062
 C2541 C 0.71538 0.28474 0.44863
 N2542 N 0.71012 0.27245 0.45404
 N2543 N 0.71693 0.26566 0.46444
 C2544 C 0.72924 0.27093 0.46980
 N2545 N 0.73447 0.28325 0.46442
 N2546 N 0.72767 0.29003 0.45403
 C2547 C 0.68773 0.81228 0.90346
 N2548 N 0.67574 0.80673 0.89771
 N2549 N 0.66955 0.81294 0.88660
 C2550 C 0.67510 0.82493 0.88079
 N2551 N 0.68709 0.83049 0.88661
 N2552 N 0.69329 0.82429 0.89773
 C2553 C 0.69474 0.80527 0.91552
 N2554 N 0.70687 0.81069 0.92111
 N2555 N 0.71338 0.80417 0.93187
 C2556 C 0.70798 0.79200 0.93742
 N2557 N 0.69582 0.78660 0.93185
 N2558 N 0.68932 0.79312 0.92110
 C2559 C 0.71532 0.78465 0.94906
 N2560 N 0.71006 0.77234 0.95444
 N2561 N 0.71687 0.76552 0.96481
 C2562 C 0.72919 0.77076 0.97018
 N2563 N 0.73443 0.78309 0.96484
 N2564 N 0.72762 0.78991 0.95446
 C2565 C 0.18783 0.31228 0.90358
 N2566 N 0.19338 0.32428 0.89784
 N2567 N 0.18718 0.33048 0.88673
 C2568 C 0.17519 0.32493 0.88091
 N2569 N 0.16964 0.31294 0.88673
 N2570 N 0.17583 0.30673 0.89784
 C2571 C 0.19483 0.30527 0.91564
 N2572 N 0.18942 0.29312 0.92122
 N2573 N 0.19593 0.28660 0.93197
 C2574 C 0.20809 0.29200 0.93753
 N2575 N 0.21349 0.30417 0.93198
 N2576 N 0.20698 0.31069 0.92123
 C2577 C 0.21544 0.28465 0.94917
 N2578 N 0.22774 0.28992 0.95457
 N2579 N 0.23455 0.28311 0.96494
 C2580 C 0.22931 0.27078 0.97030
 N2581 N 0.21699 0.26553 0.96494
 N2582 N 0.21018 0.27234 0.95457
 C2583 C 0.18770 0.81264 0.40318
 N2584 N 0.19327 0.82464 0.39743
 N2585 N 0.18709 0.83082 0.38630
 C2586 C 0.17511 0.82527 0.38046
 N2587 N 0.16955 0.81327 0.38628
 N2588 N 0.17572 0.80708 0.39741
 C2589 C 0.19469 0.80564 0.41525
 N2590 N 0.18925 0.79349 0.42083
 N2591 N 0.19574 0.78698 0.43160
 C2592 C 0.20790 0.79238 0.43717
 N2593 N 0.21331 0.80455 0.43162
 N2594 N 0.20682 0.81106 0.42086
 C2595 C 0.21522 0.78503 0.44883
 N2596 N 0.22751 0.79029 0.45424
 N2597 N 0.23431 0.78348 0.46462
 C2598 C 0.22906 0.77115 0.46997
 N2599 N 0.21675 0.76590 0.46459
 N2600 N 0.20996 0.77272 0.45421
 C2601 C 0.68784 0.68809 0.59670
 N2602 N 0.69342 0.67610 0.60247
 N2603 N 0.68725 0.66993 0.61361
 C2604 C 0.67526 0.67549 0.61945
 N2605 N 0.66968 0.68747 0.61361
 N2606 N 0.67584 0.69365 0.60246
 C2607 C 0.69481 0.69507 0.58461
 N2608 N 0.68936 0.70720 0.57900
 N2609 N 0.69583 0.71369 0.56822
 C2610 C 0.70800 0.70829 0.56265
 N2611 N 0.71343 0.69613 0.56823
 N2612 N 0.70695 0.68964 0.57901
 C2613 C 0.71531 0.71562 0.55098
 N2614 N 0.72762 0.71035 0.54557
 N2615 N 0.73440 0.71716 0.53518
 C2616 C 0.72913 0.72947 0.52981
 N2617 N 0.71681 0.73471 0.53518
 N2618 N 0.71002 0.72791 0.54557
 C2619 C 0.68810 0.18796 0.09631
 N2620 N 0.69367 0.17597 0.10207
 N2621 N 0.68747 0.16978 0.11319
 C2622 C 0.67546 0.17533 0.11900
 N2623 N 0.66990 0.18732 0.11316
 N2624 N 0.67609 0.19351 0.10205
 C2625 C 0.69510 0.19496 0.08425
 N2626 N 0.68967 0.20710 0.07865
 N2627 N 0.69617 0.21361 0.06789
 C2628 C 0.70835 0.20821 0.06234
 N2629 N 0.71376 0.19605 0.06791
 N2630 N 0.70725 0.18954 0.07867
 C2631 C 0.71568 0.21555 0.05069
 N2632 N 0.72799 0.21029 0.04529
 N2633 N 0.73479 0.21710 0.03491
 C2634 C 0.72953 0.22942 0.02955
 N2635 N 0.71721 0.23466 0.03491
 N2636 N 0.71041 0.22785 0.04529
 C2637 C 0.18792 0.68821 0.09631
 N2638 N 0.19349 0.67621 0.10207
 N2639 N 0.18729 0.67003 0.11319
 C2640 C 0.17529 0.67559 0.11901
 N2641 N 0.16973 0.68758 0.11318
 N2642 N 0.17592 0.69377 0.10205
 C2643 C 0.19492 0.69520 0.08425
 N2644 N 0.18949 0.70734 0.07864
 N2645 N 0.19599 0.71384 0.06788
 C2646 C 0.20817 0.70844 0.06233
 N2647 N 0.21358 0.69628 0.06791
 N2648 N 0.20708 0.68978 0.07867
 C2649 C 0.21551 0.71578 0.05068
 N2650 N 0.22782 0.71051 0.04530
 N2651 N 0.23463 0.71732 0.03492
 C2652 C 0.22938 0.72963 0.02954
 N2653 N 0.21704 0.73487 0.03489
 N2654 N 0.21023 0.72807 0.04527
 C2655 C 0.18763 0.18789 0.59665
 N2656 N 0.19321 0.17590 0.60241
 N2657 N 0.18704 0.16974 0.61356
 C2658 C 0.17506 0.17531 0.61940
 N2659 N 0.16949 0.18729 0.61356
 N2660 N 0.17565 0.19346 0.60241
 C2661 C 0.19461 0.19486 0.58456
 N2662 N 0.18917 0.20700 0.57895
 N2663 N 0.19565 0.21349 0.56817
 C2664 C 0.20781 0.20807 0.56260
 N2665 N 0.21323 0.19591 0.56817
 N2666 N 0.20674 0.18943 0.57895
 C2667 C 0.21514 0.21540 0.55093
 N2668 N 0.22743 0.21012 0.54553
 N2669 N 0.23423 0.21692 0.53514
 C2670 C 0.22898 0.22924 0.52977
 N2671 N 0.21666 0.23449 0.53513
 N2672 N 0.20986 0.22770 0.54552
   
