data_POSCAR
  _audit_creation_date              2014-09-24
  _audit_creation_method            'ToBaCCo'
  _symmetry_space_group_name_H-M    'P1'
  _symmetry_Int_Tables_number       1
  _symmetry_cell_setting            triclinic
  loop_
  _symmetry_equiv_pos_as_xyz
 x,y,z
_cell_length_a 14.7747
_cell_length_b 58.3238
_cell_length_c 39.7143
_cell_angle_alpha 89.878200
_cell_angle_beta 90.029300
_cell_angle_gamma 89.533000
loop_
  _atom_site_label
  _atom_site_type_symbol
  _atom_site_fract_x
  _atom_site_fract_y
  _atom_site_fract_z
B1 B -0.07259 -0.02068 0.01229
 B2 B 0.03965 -0.01936 0.01669
 B3 B -0.00571 -0.02464 -0.02080
 B4 B -0.10246 -0.00945 -0.02522
 B5 B -0.11595 0.00597 0.01121
 B6 B -0.02707 -0.00063 0.03738
 B7 B 0.04175 0.01913 -0.01895
 B8 B -0.07040 0.01798 -0.02344
 B9 B -0.02528 0.02330 0.01417
 B10 B 0.07136 0.00801 0.01856
 B11 B 0.08472 -0.00741 -0.01787
 B12 B -0.00409 -0.00085 -0.04402
 B13 B 0.53743 0.48668 0.53193
 B14 B 0.42704 0.48904 0.52346
 B15 B 0.48622 0.51214 0.53417
 B16 B 0.59099 0.50999 0.51752
 B17 B 0.59547 0.48468 0.49567
 B18 B 0.49275 0.47170 0.49986
 B19 B 0.46527 0.51216 0.46720
 B20 B 0.57558 0.50966 0.47571
 B21 B 0.51634 0.48653 0.46488
 B22 B 0.41156 0.48875 0.48159
 B23 B 0.40714 0.51402 0.50349
 B24 B 0.50987 0.52700 0.49936
 B25 B 0.56689 0.01912 0.51439
 B26 B 0.45559 0.01824 0.52061
 B27 B 0.49660 0.02260 0.48215
 B28 B 0.59246 0.00705 0.47724
 B29 B 0.60956 -0.00747 0.51438
 B30 B 0.52381 -0.00011 0.54141
 B31 B 0.44851 -0.02104 0.48751
 B32 B 0.56013 -0.02019 0.48135
 B33 B 0.51900 -0.02441 0.51969
 B34 B 0.42321 -0.00895 0.52465
 B35 B 0.40608 0.00559 0.48751
 B36 B 0.49189 -0.00183 0.46045
 B37 B -0.05298 0.51271 0.03143
 B38 B 0.05882 0.51038 0.02516
 B39 B -0.00071 0.48738 0.03591
 B40 B -0.10338 0.48885 0.01722
 B41 B -0.10581 0.51362 -0.00605
 B42 B -0.00440 0.52699 -0.00056
 B43 B 0.02957 0.48599 -0.03058
 B44 B -0.08211 0.48827 -0.02432
 B45 B -0.02228 0.51132 -0.03506
 B46 B 0.08003 0.50985 -0.01632
 B47 B 0.08237 0.48506 0.00683
 B48 B -0.01914 0.47170 0.00141
 B49 B 0.05339 0.48165 0.48312
 B50 B -0.05687 0.48318 0.47418
 B51 B -0.02309 0.47692 0.51317
 B52 B 0.07097 0.49189 0.52217
 B53 B 0.09450 0.50817 0.48725
 B54 B 0.01441 0.50236 0.45727
 B55 B -0.07199 0.52083 0.51127
 B56 B 0.03820 0.51936 0.52030
 B57 B 0.00432 0.52564 0.48139
 B58 B -0.08953 0.51065 0.47228
 B59 B -0.11311 0.49439 0.50719
 B60 B -0.03299 0.50020 0.53717
 B61 B 0.46650 -0.01278 -0.03362
 B62 B 0.57722 -0.01115 -0.02538
 B63 B 0.51976 0.01233 -0.03697
 B64 B 0.41500 0.01133 -0.02001
 B65 B 0.40911 -0.01355 0.00294
 B66 B 0.51066 -0.02751 -0.00092
 B67 B 0.54219 0.01311 0.02996
 B68 B 0.43133 0.01156 0.02187
 B69 B 0.48897 -0.01193 0.03345
 B70 B 0.59351 -0.01096 0.01640
 B71 B 0.59938 0.01392 -0.00649
 B72 B 0.49781 0.02787 -0.00260
 B73 B 0.43094 0.52116 -0.01265
 B74 B 0.54179 0.52014 -0.02039
 B75 B 0.50437 0.52603 0.01807
 B76 B 0.41051 0.51072 0.02595
 B77 B 0.39090 0.49462 -0.00933
 B78 B 0.47326 0.50085 -0.03826
 B79 B 0.55550 0.48214 0.01672
 B80 B 0.44448 0.48335 0.02425
 B81 B 0.48185 0.47740 -0.01430
 B82 B 0.57618 0.49270 -0.02207
 B83 B 0.59570 0.50885 0.01322
 B84 B 0.51333 0.50264 0.04216
 B85 B 0.03733 0.01238 0.47128
 B86 B -0.07357 0.01094 0.47914
 B87 B -0.01573 -0.01275 0.46873
 B88 B 0.08850 -0.01145 0.48600
 B89 B 0.09391 0.01381 0.50785
 B90 B -0.00759 0.02769 0.50315
 B91 B -0.03896 -0.01246 0.53577
 B92 B 0.07166 -0.01094 0.52775
 B93 B 0.01386 0.01271 0.53821
 B94 B -0.09056 0.01139 0.52101
 B95 B -0.09602 -0.01387 0.49912
 B96 B 0.00555 -0.02774 0.50384
 B97 B 0.77489 0.26765 0.27102
 B98 B 0.66224 0.26701 0.27067
 B99 B 0.71933 0.26959 0.23471
 B100 B 0.81567 0.25413 0.23695
 B101 B 0.81691 0.24118 0.27579
 B102 B 0.72079 0.24947 0.29688
 B103 B 0.66942 0.22608 0.24103
 B104 B 0.78216 0.22707 0.24140
 B105 B 0.72549 0.22412 0.27727
 B106 B 0.62849 0.23971 0.27521
 B107 B 0.62740 0.25267 0.23629
 B108 B 0.72344 0.24433 0.21528
 B109 B 0.78992 0.77433 0.77792
 B110 B 0.74292 0.77138 0.74008
 B111 B 0.85542 0.77273 0.74391
 B112 B 0.88732 0.75901 0.77949
 B113 B 0.78992 0.74891 0.79760
 B114 B 0.69978 0.75709 0.77298
 B115 B 0.80953 0.72910 0.73581
 B116 B 0.85596 0.73168 0.77372
 B117 B 0.74354 0.73069 0.76977
 B118 B 0.71218 0.74426 0.73434
 B119 B 0.80936 0.75440 0.71629
 B120 B 0.89953 0.74627 0.74083
 B121 B 0.28619 0.23214 0.72944
 B122 B 0.17352 0.23319 0.72871
 B123 B 0.22825 0.23017 0.76512
 B124 B 0.32476 0.24527 0.76411
 B125 B 0.32787 0.25855 0.72552
 B126 B 0.23313 0.25071 0.70343
 B127 B 0.17818 0.27383 0.75923
 B128 B 0.29093 0.27252 0.75990
 B129 B 0.23612 0.27586 0.72357
 B130 B 0.13946 0.26058 0.72446
 B131 B 0.13645 0.24736 0.76307
 B132 B 0.23117 0.25521 0.78512
 B133 B 0.23239 0.76969 0.22953
 B134 B 0.34469 0.76838 0.22665
 B135 B 0.29558 0.77224 0.26399
 B136 B 0.19904 0.75725 0.26552
 B137 B 0.18915 0.74336 0.22768
 B138 B 0.28039 0.75059 0.20333
 B139 B 0.34358 0.72812 0.25880
 B140 B 0.23133 0.72990 0.26177
 B141 B 0.27963 0.72574 0.22439
 B142 B 0.37689 0.74080 0.22273
 B143 B 0.38670 0.75466 0.26074
 B144 B 0.29553 0.74743 0.28500
 B145 B 0.29112 0.72884 0.76359
 B146 B 0.33997 0.73168 0.72624
 B147 B 0.22736 0.73071 0.72915
 B148 B 0.19395 0.74404 0.76442
 B149 B 0.29007 0.75397 0.78343
 B150 B 0.38159 0.74600 0.75960
 B151 B 0.27463 0.77439 0.72185
 B152 B 0.22552 0.77118 0.75928
 B153 B 0.33797 0.77249 0.75640
 B154 B 0.37197 0.75902 0.72100
 B155 B 0.27562 0.74910 0.70192
 B156 B 0.18407 0.75717 0.72585
 B157 B 0.16707 0.22634 0.26004
 B158 B 0.27951 0.22809 0.25937
 B159 B 0.22257 0.22440 0.22366
 B160 B 0.12437 0.23946 0.22551
 B161 B 0.12234 0.25271 0.26408
 B162 B 0.21933 0.24521 0.28517
 B163 B 0.26836 0.26845 0.22874
 B164 B 0.15556 0.26704 0.22931
 B165 B 0.21232 0.27028 0.26509
 B166 B 0.31029 0.25542 0.26313
 B167 B 0.31254 0.24210 0.22457
 B168 B 0.21553 0.24966 0.20338
 B169 B 0.85382 0.72601 0.24282
 B170 B 0.74080 0.72695 0.24162
 B171 B 0.79411 0.72347 0.27819
 B172 B 0.88963 0.73921 0.27811
 B173 B 0.89371 0.75285 0.23973
 B174 B 0.80063 0.74474 0.21694
 B175 B 0.74127 0.76704 0.27283
 B176 B 0.85378 0.76649 0.27418
 B177 B 0.80053 0.76973 0.23749
 B178 B 0.70548 0.75407 0.23766
 B179 B 0.70135 0.74044 0.27595
 B180 B 0.79428 0.74846 0.29875
 B181 B 0.70693 0.23009 0.73124
 B182 B 0.65825 0.23335 0.76863
 B183 B 0.77071 0.23152 0.76571
 B184 B 0.80463 0.24462 0.73028
 B185 B 0.70864 0.25528 0.71133
 B186 B 0.61700 0.24790 0.73530
 B187 B 0.72564 0.27551 0.77282
 B188 B 0.77431 0.27202 0.73529
 B189 B 0.66182 0.27408 0.73849
 B190 B 0.62760 0.26083 0.77388
 B191 B 0.72351 0.25025 0.79281
 B192 B 0.81538 0.25765 0.76877
 C193 C 0.06317 0.47151 0.93925
 C194 C 0.07738 0.45782 0.91700
 C195 C 0.08196 0.43952 0.89259
 C196 C 0.00762 0.42492 0.89027
 C197 C 0.00918 0.40599 0.86894
 C198 C 0.08656 0.40092 0.85021
 C199 C 0.16081 0.41583 0.85167
 C200 C 0.15871 0.43516 0.87275
 C201 C 0.09251 0.37868 0.83262
 C202 C 0.15230 0.36181 0.84469
 C203 C 0.15545 0.34022 0.82989
 C204 C 0.09815 0.33503 0.80299
 C205 C 0.03579 0.35149 0.79129
 C206 C 0.03300 0.37329 0.80620
 C207 C 0.11105 0.31336 0.78651
 C208 C 0.13313 0.29540 0.77395
 H209 H -0.05094 0.42778 0.90589
 H210 H -0.04815 0.39460 0.86822
 H211 H 0.22121 0.41205 0.83732
 H212 H 0.21760 0.44611 0.87415
 H213 H 0.19486 0.36505 0.86619
 H214 H 0.20366 0.32760 0.83925
 H215 H -0.00997 0.34760 0.77071
 H216 H -0.01493 0.38598 0.79712
 C217 C 0.43656 0.52662 0.43627
 C218 C 0.42195 0.54088 0.41476
 C219 C 0.40965 0.56018 0.39227
 C220 C 0.45154 0.56079 0.36063
 C221 C 0.45365 0.58129 0.34209
 C222 C 0.41308 0.60147 0.35481
 C223 C 0.36746 0.60027 0.38589
 C224 C 0.36651 0.57992 0.40448
 C225 C 0.42055 0.62384 0.33661
 C226 C 0.42661 0.64454 0.35469
 C227 C 0.42838 0.66562 0.33792
 C228 C 0.42649 0.66651 0.30274
 C229 C 0.42268 0.64604 0.28440
 C230 C 0.41975 0.62487 0.30118
 C231 C 0.41128 0.68830 0.28623
 C232 C 0.38915 0.70633 0.27354
 H233 H 0.48567 0.54570 0.35087
 H234 H 0.48941 0.58149 0.31836
 H235 H 0.33397 0.61523 0.39631
 H236 H 0.33477 0.57979 0.42909
 H237 H 0.42839 0.64456 0.38192
 H238 H 0.42765 0.68130 0.35245
 H239 H 0.41796 0.64646 0.25720
 H240 H 0.41283 0.60942 0.28641
 C241 C 0.93114 0.97352 0.56681
 C242 C 0.91596 0.95973 0.58881
 C243 C 0.90368 0.94109 0.61232
 C244 C 0.95756 0.93931 0.64128
 C245 C 0.96013 0.91887 0.65996
 C246 C 0.90771 0.89995 0.65009
 C247 C 0.85016 0.90246 0.62200
 C248 C 0.84801 0.92279 0.60337
 C249 C 0.91492 0.87744 0.66786
 C250 C 0.90971 0.85686 0.64942
 C251 C 0.91460 0.83564 0.66564
 C252 C 0.92627 0.83447 0.70055
 C253 C 0.93245 0.85472 0.71923
 C254 C 0.92720 0.87607 0.70304
 C255 C 0.91866 0.81263 0.71725
 C256 C 0.90065 0.79452 0.73010
 H257 H 0.99966 0.95349 0.64876
 H258 H 1.00597 0.91757 0.68120
 H259 H 0.80774 0.88848 0.61399
 H260 H 0.80531 0.92389 0.58119
 H261 H 0.90319 0.85714 0.62227
 H262 H 0.90852 0.82011 0.65092
 H263 H 0.94010 0.85400 0.74635
 H264 H 0.93159 0.89146 0.71814
 C265 C 0.57379 0.02754 0.06013
 C266 C 0.58727 0.04181 0.08144
 C267 C 0.59124 0.06096 0.10422
 C268 C 0.51672 0.07585 0.10575
 C269 C 0.51988 0.09565 0.12527
 C270 C 0.59844 0.10108 0.14308
 C271 C 0.67371 0.08624 0.14142
 C272 C 0.66938 0.06600 0.12248
 C273 C 0.60220 0.12282 0.16185
 C274 C 0.66608 0.13939 0.15296
 C275 C 0.66651 0.16055 0.16923
 C276 C 0.60350 0.16534 0.19463
 C277 C 0.54069 0.14875 0.20415
 C278 C 0.53965 0.12757 0.18761
 C279 C 0.61004 0.18675 0.21210
 C280 C 0.62709 0.20460 0.22568
 H281 H 0.45688 0.07247 0.09108
 H282 H 0.46237 0.10721 0.12553
 H283 H 0.73522 0.09035 0.15478
 H284 H 0.72662 0.05445 0.12162
 H285 H 0.71444 0.13607 0.13305
 H286 H 0.71650 0.17318 0.16217
 H287 H 0.49344 0.15210 0.22441
 H288 H 0.49095 0.11480 0.19512
 C289 C 0.86143 0.02401 0.45563
 C290 C 0.82147 0.03789 0.43863
 C291 C 0.78486 0.05695 0.41986
 C292 C 0.77672 0.07816 0.43592
 C293 C 0.76146 0.09809 0.41712
 C294 C 0.75412 0.09710 0.38185
 C295 C 0.76003 0.07561 0.36592
 C296 C 0.77460 0.05559 0.38489
 C297 C 0.74461 0.11872 0.36210
 C298 C 0.79493 0.12216 0.33247
 C299 C 0.79198 0.14333 0.31575
 C300 C 0.73662 0.16108 0.32788
 C301 C 0.68401 0.15755 0.35665
 C302 C 0.68808 0.13655 0.37370
 C303 C 0.73352 0.18295 0.31093
 C304 C 0.72984 0.20120 0.29664
 H305 H 0.78776 0.07953 0.46284
 H306 H 0.76038 0.11440 0.43003
 H307 H 0.75566 0.07431 0.33879
 H308 H 0.78362 0.03934 0.37214
 H309 H 0.83761 0.10869 0.32253
 H310 H 0.83337 0.14587 0.29354
 H311 H 0.64124 0.17119 0.36621
 H312 H 0.64595 0.13421 0.39576
 C313 C 0.36058 0.47650 0.54666
 C314 C 0.32098 0.46251 0.56332
 C315 C 0.28682 0.44273 0.58077
 C316 C 0.29901 0.42138 0.56544
 C317 C 0.28622 0.40122 0.58368
 C318 C 0.26129 0.40201 0.61779
 C319 C 0.24700 0.42356 0.63298
 C320 C 0.25928 0.44385 0.61446
 C321 C 0.25459 0.38026 0.63731
 C322 C 0.28782 0.37865 0.67048
 C323 C 0.28594 0.35772 0.68780
 C324 C 0.24772 0.33843 0.67262
 C325 C 0.21320 0.33995 0.63995
 C326 C 0.21826 0.36055 0.62218
 C327 C 0.24434 0.31690 0.69018
 C328 C 0.24076 0.29876 0.70457
 H329 H 0.32528 0.42023 0.53999
 H330 H 0.30146 0.38504 0.57158
 H331 H 0.22953 0.42480 0.65937
 H332 H 0.25397 0.46027 0.62696
 H333 H 0.31745 0.39332 0.68273
 H334 H 0.31457 0.35661 0.71290
 H335 H 0.18299 0.32515 0.62809
 H336 H 0.19189 0.36116 0.59675
 C337 C 0.64264 0.97564 0.95188
 C338 C 0.68121 0.96164 0.93487
 C339 C 0.71434 0.94259 0.91562
 C340 C 0.68839 0.94049 0.88195
 C341 C 0.70220 0.91986 0.86492
 C342 C 0.74216 0.90090 0.88134
 C343 C 0.76966 0.90339 0.91516
 C344 C 0.75651 0.92414 0.93207
 C345 C 0.75409 0.87865 0.86337
 C346 C 0.74883 0.85774 0.88099
 C347 C 0.75787 0.83687 0.86407
 C348 C 0.77254 0.83658 0.82933
 C349 C 0.77960 0.85716 0.81154
 C350 C 0.77107 0.87809 0.82844
 C351 C 0.77830 0.81501 0.81195
 C352 C 0.78246 0.79701 0.79735
 H353 H 0.65428 0.95455 0.86924
 H354 H 0.67933 0.91861 0.83916
 H355 H 0.80215 0.88941 0.92862
 H356 H 0.77603 0.92550 0.95834
 H357 H 0.73664 0.85733 0.90784
 H358 H 0.75285 0.82100 0.87810
 H359 H 0.79133 0.85712 0.78462
 H360 H 0.77944 0.89375 0.81418
 C361 C 0.12025 0.52342 0.04964
 C362 C 0.15021 0.53783 0.06810
 C363 C 0.16846 0.55781 0.08798
 C364 C 0.10889 0.57640 0.08474
 C365 C 0.12325 0.59655 0.10256
 C366 C 0.19869 0.59871 0.12390
 C367 C 0.25682 0.57950 0.12797
 C368 C 0.24219 0.55922 0.10989
 C369 C 0.21755 0.62107 0.14081
 C370 C 0.26384 0.62186 0.17181
 C371 C 0.28026 0.64281 0.18770
 C372 C 0.25046 0.66336 0.17311
 C373 C 0.20495 0.66289 0.14221
 C374 C 0.18979 0.64201 0.12598
 C375 C 0.26231 0.68479 0.19066
 C376 C 0.27054 0.70273 0.20545
 H377 H 0.05139 0.57539 0.06792
 H378 H 0.07526 0.61045 0.09924
 H379 H 0.31577 0.58029 0.14403
 H380 H 0.28857 0.54486 0.11260
 H381 H 0.28654 0.60634 0.18425
 H382 H 0.31438 0.64292 0.21178
 H383 H 0.17972 0.67860 0.13079
 H384 H 0.15687 0.64242 0.10166
 C385 C 0.47664 0.97427 0.06658
 C386 C 0.46823 0.96058 0.08938
 C387 C 0.45683 0.94207 0.11346
 C388 C 0.53125 0.93299 0.13121
 C389 C 0.52328 0.91215 0.14873
 C390 C 0.44220 0.89973 0.14798
 C391 C 0.36625 0.90981 0.13222
 C392 C 0.37347 0.93074 0.11511
 C393 C 0.43926 0.87562 0.16069
 C394 C 0.39472 0.85872 0.14176
 C395 C 0.38991 0.83609 0.15331
 C396 C 0.43026 0.82980 0.18391
 C397 C 0.47776 0.84625 0.20240
 C398 C 0.48347 0.86892 0.19068
 C399 C 0.41398 0.80729 0.19783
 C400 C 0.39139 0.78919 0.21001
 H401 H 0.59671 0.94133 0.13020
 H402 H 0.58200 0.90496 0.16121
 H403 H 0.30205 0.90111 0.13217
 H404 H 0.31497 0.93745 0.10169
 H405 H 0.36325 0.86308 0.11794
 H406 H 0.35259 0.82362 0.13875
 H407 H 0.50828 0.84166 0.22630
 H408 H 0.52011 0.88132 0.20557
 C409 C 0.52779 0.47221 0.43218
 C410 C 0.53383 0.45843 0.40942
 C411 C 0.54088 0.44008 0.38488
 C412 C 0.46288 0.43054 0.37036
 C413 C 0.46886 0.41001 0.35194
 C414 C 0.55244 0.39849 0.34855
 C415 C 0.63085 0.40918 0.36075
 C416 C 0.62527 0.42973 0.37878
 C417 C 0.55769 0.37466 0.33502
 C418 C 0.60835 0.35787 0.35241
 C419 C 0.61387 0.33539 0.34039
 C420 C 0.57089 0.32927 0.31036
 C421 C 0.51889 0.34575 0.29302
 C422 C 0.51205 0.36829 0.30538
 C423 C 0.58912 0.30683 0.29616
 C424 C 0.61321 0.28853 0.28480
 H425 H 0.39717 0.43846 0.37430
 H426 H 0.40807 0.40250 0.34174
 H427 H 0.69651 0.40130 0.35703
 H428 H 0.68684 0.43699 0.38905
 H429 H 0.64472 0.36217 0.37523
 H430 H 0.65459 0.32293 0.35400
 H431 H 0.48557 0.34138 0.26960
 H432 H 0.47365 0.38093 0.29127
 C433 C 0.97102 0.52510 0.93194
 C434 C 0.96816 0.53913 0.90955
 C435 C 0.96465 0.55808 0.88617
 C436 C 1.04438 0.56899 0.87618
 C437 C 1.04034 0.59011 0.85932
 C438 C 0.95677 0.60072 0.85282
 C439 C 0.87699 0.58920 0.86153
 C440 C 0.88111 0.56802 0.87805
 C441 C 0.95313 0.62453 0.83983
 C442 C 0.90515 0.64140 0.85778
 C443 C 0.90049 0.66393 0.84584
 C444 C 0.94373 0.66995 0.81573
 C445 C 0.99163 0.65321 0.79763
 C446 C 0.99752 0.63068 0.80989
 C447 C 0.92702 0.69236 0.80150
 C448 C 0.90332 0.71050 0.78953
 H449 H 1.10933 0.56168 0.88282
 H450 H 1.10199 0.59894 0.85303
 H451 H 0.81174 0.59692 0.85658
 H452 H 0.81934 0.55988 0.88600
 H453 H 0.87179 0.63709 0.88118
 H454 H 0.86035 0.67648 0.85954
 H455 H 1.02216 0.65744 0.77366
 H456 H 1.03472 0.61792 0.79566
 C457 C 0.02736 0.02717 0.57055
 C458 C 0.03698 0.04124 0.59268
 C459 C 0.04730 0.06000 0.61631
 C460 C -0.02919 0.07116 0.62948
 C461 C -0.02050 0.09188 0.64704
 C462 C 0.06471 0.10197 0.65115
 C463 C 0.14164 0.09000 0.63973
 C464 C 0.13295 0.06921 0.62244
 C465 C 0.07239 0.12575 0.66435
 C466 C 0.12209 0.14213 0.64627
 C467 C 0.12760 0.16476 0.65763
 C468 C 0.08526 0.17136 0.68768
 C469 C 0.03525 0.15518 0.70586
 C470 C 0.02819 0.13255 0.69414
 C471 C 0.10298 0.19382 0.70163
 C472 C 0.12603 0.21197 0.71346
 H473 H -0.09578 0.06433 0.62496
 H474 H -0.08028 0.10075 0.65580
 H475 H 0.20825 0.09708 0.64345
 H476 H 0.19273 0.06081 0.61259
 H477 H 0.15682 0.13738 0.62329
 H478 H 0.16754 0.17693 0.64347
 H479 H 0.00458 0.15987 0.72965
 H480 H -0.00894 0.12017 0.70890
 C481 C 0.10598 0.46143 0.46764
 C482 C 0.13194 0.44445 0.45330
 C483 C 0.15072 0.42377 0.43495
 C484 C 0.08242 0.40737 0.43230
 C485 C 0.09376 0.38843 0.41133
 C486 C 0.17423 0.38551 0.39303
 C487 C 0.24426 0.40143 0.39705
 C488 C 0.23239 0.42065 0.41764
 C489 C 0.18434 0.36626 0.36914
 C490 C 0.26186 0.35216 0.36969
 C491 C 0.27007 0.33380 0.34724
 C492 C 0.20067 0.32937 0.32415
 C493 C 0.12480 0.34378 0.32284
 C494 C 0.11674 0.36214 0.34514
 C495 C 0.20516 0.30957 0.30275
 C496 C 0.20793 0.29257 0.28558
 H497 H 0.01922 0.40952 0.44581
 H498 H 0.03975 0.37610 0.40946
 H499 H 0.30693 0.39928 0.38351
 H500 H 0.28550 0.43327 0.41948
 H501 H 0.31543 0.35521 0.38773
 H502 H 0.33034 0.32303 0.34800
 H503 H 0.07169 0.34068 0.30470
 H504 H 0.05794 0.37325 0.34361
 C505 C 0.37634 0.54088 0.97198
 C506 C 0.34701 0.55728 0.95723
 C507 C 0.32527 0.57710 0.93752
 C508 C 0.36158 0.59827 0.94663
 C509 C 0.35575 0.61685 0.92450
 C510 C 0.31481 0.61425 0.89274
 C511 C 0.27957 0.59283 0.88374
 C512 C 0.28458 0.57438 0.90607
 C513 C 0.31153 0.63371 0.86876
 C514 C 0.32859 0.63023 0.83425
 C515 C 0.32779 0.64880 0.81191
 C516 C 0.30884 0.67082 0.82388
 C517 C 0.29202 0.67442 0.85807
 C518 C 0.29304 0.65595 0.88040
 C519 C 0.30491 0.69000 0.80143
 C520 C 0.29960 0.70674 0.78395
 H521 H 0.39848 0.60015 0.97009
 H522 H 0.38648 0.63290 0.93165
 H523 H 0.24957 0.59016 0.85925
 H524 H 0.26123 0.55770 0.89817
 H525 H 0.34418 0.61333 0.82463
 H526 H 0.34242 0.64595 0.78549
 H527 H 0.27804 0.69149 0.86744
 H528 H 0.27869 0.65912 0.90672
 C529 C 0.61646 0.03957 0.52868
 C530 C 0.64184 0.05651 0.54266
 C531 C 0.66053 0.07670 0.56143
 C532 C 0.60264 0.09563 0.55807
 C533 C 0.61003 0.11410 0.58005
 C534 C 0.67604 0.11385 0.60565
 C535 C 0.73396 0.09472 0.60867
 C536 C 0.72632 0.07625 0.58661
 C537 C 0.68210 0.13308 0.62980
 C538 C 0.76620 0.14151 0.64046
 C539 C 0.77013 0.16027 0.66223
 C540 C 0.69032 0.17063 0.67384
 C541 C 0.60676 0.16207 0.66389
 C542 C 0.60291 0.14339 0.64216
 C543 C 0.69434 0.19068 0.69454
 C544 C 0.69904 0.20787 0.71109
 H545 H 0.54950 0.09568 0.53924
 H546 H 0.56323 0.12839 0.57724
 H547 H 0.78267 0.09373 0.62888
 H548 H 0.76958 0.06129 0.58976
 H549 H 0.82892 0.13403 0.63136
 H550 H 0.83543 0.16695 0.66950
 H551 H 0.54495 0.17009 0.67254
 H552 H 0.53838 0.13685 0.63483
 C553 C 0.88015 0.95873 0.02857
 C554 C 0.85656 0.94190 0.04372
 C555 C 0.83937 0.92192 0.06388
 C556 C 0.90394 0.90417 0.06489
 C557 C 0.89565 0.88630 0.08819
 C558 C 0.82244 0.88599 0.11075
 C559 C 0.75818 0.90376 0.10942
 C560 C 0.76594 0.92157 0.08602
 C561 C 0.81380 0.86752 0.13616
 C562 C 0.73372 0.85479 0.13871
 C563 C 0.72838 0.83644 0.16140
 C564 C 0.80268 0.83068 0.18173
 C565 C 0.88085 0.84407 0.18053
 C566 C 0.88614 0.86242 0.15793
 C567 C 0.80109 0.81015 0.20192
 C568 C 0.80119 0.79256 0.21794
 H569 H 0.96260 0.90456 0.04850
 H570 H 0.94740 0.87303 0.08895
 H571 H 0.70413 0.90421 0.12746
 H572 H 0.71667 0.93544 0.08602
 H573 H 0.67658 0.85865 0.12251
 H574 H 0.66709 0.82641 0.16252
 H575 H 0.93838 0.84006 0.19647
 H576 H 0.94691 0.87258 0.15713
 C577 C 0.88486 0.03712 0.95572
 C578 C 0.86388 0.05304 0.93803
 C579 C 0.85005 0.07247 0.91637
 C580 C 0.85184 0.09452 0.93000
 C581 C 0.85426 0.11363 0.90878
 C582 C 0.85517 0.11084 0.87357
 C583 C 0.84971 0.08862 0.86012
 C584 C 0.84727 0.06951 0.88139
 C585 C 0.85805 0.13117 0.85110
 C586 C 0.80510 0.13195 0.82168
 C587 C 0.80203 0.15176 0.80193
 C588 C 0.85209 0.17098 0.81119
 C589 C 0.90727 0.17017 0.83982
 C590 C 0.91101 0.15028 0.85950
 C591 C 0.83743 0.19222 0.79365
 C592 C 0.81606 0.20992 0.78017
 H593 H 0.85296 0.09692 0.95705
 H594 H 0.85540 0.13052 0.91993
 H595 H 0.85165 0.08592 0.83317
 H596 H 0.84712 0.05249 0.87053
 H597 H 0.76359 0.11756 0.81453
 H598 H 0.75751 0.15241 0.78021
 H599 H 0.94515 0.18508 0.84757
 H600 H 0.95430 0.14997 0.88152
 C601 C 0.07571 0.53791 0.54368
 C602 C 0.09068 0.55336 0.56284
 C603 C 0.09883 0.57234 0.58553
 C604 C 0.03839 0.57451 0.61250
 C605 C 0.04093 0.59385 0.63320
 C606 C 0.10543 0.61088 0.62739
 C607 C 0.16599 0.60866 0.60036
 C608 C 0.16244 0.58946 0.57944
 C609 C 0.11040 0.63097 0.64950
 C610 C 0.17555 0.63184 0.67514
 C611 C 0.18581 0.65181 0.69399
 C612 C 0.12914 0.67077 0.68800
 C613 C 0.06196 0.66972 0.66317
 C614 C 0.05403 0.64996 0.64359
 C615 C 0.15077 0.69212 0.70366
 C616 C 0.17838 0.70961 0.71568
 H617 H -0.01144 0.56139 0.61719
 H618 H -0.00763 0.59560 0.65352
 H619 H 0.21638 0.62169 0.59560
 H620 H 0.20908 0.58797 0.55853
 H621 H 0.21994 0.61737 0.68002
 H622 H 0.24005 0.65274 0.71239
 H623 H 0.01846 0.68441 0.65790
 H624 H 0.00698 0.64971 0.62284
 C625 C 0.60322 0.96004 0.46178
 C626 C 0.62262 0.94379 0.44471
 C627 C 0.63473 0.92446 0.42300
 C628 C 0.59973 0.92559 0.39029
 C629 C 0.60145 0.90624 0.36976
 C630 C 0.63756 0.88551 0.38193
 C631 C 0.67249 0.88441 0.41485
 C632 C 0.67067 0.90385 0.43537
 C633 C 0.63940 0.86512 0.36018
 C634 C 0.67885 0.86624 0.32805
 C635 C 0.68404 0.84662 0.30802
 C636 C 0.64961 0.82583 0.31989
 C637 C 0.60790 0.82479 0.35145
 C638 C 0.60251 0.84438 0.37151
 C639 C 0.66892 0.80509 0.30196
 C640 C 0.69364 0.78785 0.28816
 H641 H 0.56748 0.94117 0.38117
 H642 H 0.57250 0.90729 0.34472
 H643 H 0.70111 0.86856 0.42458
 H644 H 0.69482 0.90265 0.46107
 H645 H 0.70931 0.88198 0.31909
 H646 H 0.71894 0.84741 0.28402
 H647 H 0.58169 0.80871 0.36088
 H648 H 0.57025 0.84333 0.39595
 C649 C 0.40316 0.46486 0.04687
 C650 C 0.38052 0.44994 0.06598
 C651 C 0.36297 0.43181 0.08952
 C652 C 0.42767 0.42705 0.11442
 C653 C 0.41779 0.40800 0.13529
 C654 C 0.34406 0.39335 0.13106
 C655 C 0.27724 0.39857 0.10697
 C656 C 0.28655 0.41787 0.08626
 C657 C 0.34234 0.37155 0.14959
 C658 C 0.29572 0.36974 0.18018
 C659 C 0.29528 0.34887 0.19754
 C660 C 0.34155 0.32979 0.18447
 C661 C 0.38771 0.33156 0.15385
 C662 C 0.38863 0.35244 0.13656
 C663 C 0.33080 0.30788 0.20038
 C664 C 0.31141 0.28992 0.21329
 H665 H 0.48734 0.43764 0.11702
 H666 H 0.46878 0.40435 0.15415
 H667 H 0.21967 0.38740 0.10350
 H668 H 0.23608 0.42144 0.06710
 H669 H 0.25963 0.38434 0.19047
 H670 H 0.25640 0.34741 0.22059
 H671 H 0.42073 0.31669 0.14293
 H672 H 0.42388 0.35363 0.11272
 C673 C 0.51589 0.54966 0.03392
 C674 C 0.52627 0.56744 0.04858
 C675 C 0.53671 0.58747 0.06892
 C676 C 0.47404 0.59151 0.09445
 C677 C 0.48749 0.60907 0.11761
 C678 C 0.56438 0.62284 0.11539
 C679 C 0.62634 0.61915 0.08894
 C680 C 0.61238 0.60149 0.06576
 C681 C 0.58292 0.63997 0.14174
 C682 C 0.66992 0.64093 0.15557
 C683 C 0.69115 0.65758 0.17911
 C684 C 0.62576 0.67341 0.18944
 C685 C 0.53731 0.67208 0.17713
 C686 C 0.51546 0.65522 0.15343
 C687 C 0.65482 0.69212 0.20977
 C688 C 0.68830 0.70760 0.22508
 H689 H 0.41678 0.58033 0.09696
 H690 H 0.44002 0.61131 0.13804
 H691 H 0.68601 0.62971 0.08650
 H692 H 0.66124 0.59838 0.04596
 H693 H 0.72171 0.62888 0.14784
 H694 H 0.75947 0.65866 0.18843
 H695 H 0.48656 0.68446 0.18496
 H696 H 0.44722 0.65454 0.14352
 C697 C 0.00403 0.95231 0.96161
 C698 C 0.01232 0.93503 0.94566
 C699 C 0.02282 0.91525 0.92486
 C700 C -0.02611 0.91390 0.89481
 C701 C -0.01436 0.89511 0.87360
 C702 C 0.04850 0.87797 0.88205
 C703 C 0.09915 0.87962 0.91175
 C704 C 0.08563 0.89815 0.93337
 C705 C 0.06874 0.85969 0.85819
 C706 C 0.14699 0.86115 0.83854
 C707 C 0.16834 0.84366 0.81616
 C708 C 0.11264 0.82450 0.81360
 C709 C 0.03476 0.82283 0.83344
 C710 C 0.01250 0.84053 0.85569
 C711 C 0.14192 0.80583 0.79301
 C712 C 0.17379 0.79044 0.77682
 H713 H -0.07319 0.92745 0.88775
 H714 H -0.05105 0.89440 0.85000
 H715 H 0.15022 0.86680 0.91775
 H716 H 0.12554 0.89942 0.95621
 H717 H 0.19281 0.87554 0.84102
 H718 H 0.23018 0.84472 0.80165
 H719 H -0.00642 0.80761 0.83245
 H720 H -0.04656 0.83907 0.87166
 C721 C 0.48617 0.04561 0.46372
 C722 C 0.47804 0.06284 0.44725
 C723 C 0.46846 0.08224 0.42518
 C724 C 0.43478 0.10329 0.43679
 C725 C 0.42163 0.12144 0.41414
 C726 C 0.44203 0.11867 0.37976
 C727 C 0.47746 0.09760 0.36862
 C728 C 0.49043 0.07955 0.39120
 C729 C 0.42743 0.13766 0.35554
 C730 C 0.38955 0.13344 0.32365
 C731 C 0.37519 0.15144 0.30096
 C732 C 0.39878 0.17379 0.30993
 C733 C 0.43680 0.17812 0.34145
 C734 C 0.45135 0.16017 0.36412
 C735 C 0.36852 0.19270 0.28979
 C736 C 0.33509 0.20860 0.27501
 H737 H 0.41849 0.10563 0.46318
 H738 H 0.39401 0.13751 0.42329
 H739 H 0.49508 0.09512 0.34244
 H740 H 0.51727 0.06336 0.38213
 H741 H 0.36836 0.11635 0.31676
 H742 H 0.34201 0.14810 0.27713
 H743 H 0.45218 0.19551 0.34893
 H744 H 0.48119 0.16389 0.38837
 C745 C 0.96507 0.45345 0.52984
 C746 C 0.95834 0.43565 0.54489
 C747 C 0.94907 0.41509 0.56429
 C748 C 1.02211 0.40714 0.58372
 C749 C 1.01055 0.38847 0.60515
 C750 C 0.92698 0.37754 0.60715
 C751 C 0.85369 0.38544 0.58771
 C752 C 0.86488 0.40406 0.56598
 C753 C 0.91502 0.35911 0.63170
 C754 C 0.86768 0.36362 0.66145
 C755 C 0.85410 0.34621 0.68486
 C756 C 0.88832 0.32417 0.67880
 C757 C 0.93863 0.31974 0.64952
 C758 C 0.95187 0.33725 0.62596
 C759 C 0.85893 0.30584 0.70019
 C760 C 0.82660 0.29091 0.71716
 H761 H 1.08721 0.41565 0.58302
 H762 H 1.06489 0.38311 0.62148
 H763 H 0.78708 0.37771 0.59000
 H764 H 0.80642 0.41020 0.55165
 H765 H 0.84127 0.38060 0.66644
 H766 H 0.81333 0.34972 0.70698
 H767 H 0.96402 0.30266 0.64417
 H768 H 0.98982 0.33374 0.60315
 C769 C 0.91352 0.52767 0.06120
 C770 C 0.89897 0.54210 0.08241
 C771 C 0.89091 0.56134 0.10515
 C772 C 0.86076 0.58249 0.09244
 C773 C 0.86948 0.60245 0.11156
 C774 C 0.90873 0.60167 0.14385
 C775 C 0.93579 0.58023 0.15700
 C776 C 0.92704 0.56021 0.13778
 C777 C 0.92264 0.62322 0.16332
 C778 C 0.90931 0.62379 0.19841
 C779 C 0.91883 0.64433 0.21632
 C780 C 0.93960 0.66472 0.19932
 C781 C 0.95509 0.66417 0.16460
 C782 C 0.94742 0.64361 0.14679
 C783 C 0.92481 0.68654 0.21561
 C784 C 0.90148 0.70452 0.22808
 H785 H 0.83382 0.58373 0.06711
 H786 H 0.84569 0.61855 0.10098
 H787 H 0.96621 0.57902 0.18174
 H788 H 0.95173 0.54405 0.14789
 H789 H 0.88748 0.60861 0.21176
 H790 H 0.90421 0.64457 0.24303
 H791 H 0.96893 0.67988 0.15101
 H792 H 0.95934 0.64380 0.11992
 C793 C 0.56602 0.47336 0.56368
 C794 C 0.57808 0.46069 0.58728
 C795 C 0.58397 0.44356 0.61329
 C796 C 0.66575 0.43199 0.61923
 C797 C 0.66661 0.41218 0.63902
 C798 C 0.58631 0.40337 0.65256
 C799 C 0.50551 0.41574 0.64791
 C800 C 0.50433 0.43581 0.62860
 C801 C 0.58636 0.38047 0.66892
 C802 C 0.53482 0.37617 0.69806
 C803 C 0.53497 0.35429 0.71281
 C804 C 0.58532 0.33652 0.69807
 C805 C 0.63573 0.34067 0.66898
 C806 C 0.63690 0.36245 0.65464
 C807 C 0.59576 0.31452 0.71390
 C808 C 0.61656 0.29615 0.72545
 H809 H 0.72833 0.43763 0.60762
 H810 H 0.72974 0.40325 0.64291
 H811 H 0.44307 0.40926 0.65781
 H812 H 0.44077 0.44466 0.62433
 H813 H 0.49604 0.38983 0.70970
 H814 H 0.49761 0.35139 0.73587
 H815 H 0.67676 0.32716 0.65789
 H816 H 0.67722 0.36512 0.63225
 C817 C 0.07069 0.02623 0.44064
 C818 C 0.08882 0.03980 0.41870
 C819 C 0.09961 0.05796 0.39436
 C820 C 0.18258 0.06880 0.38938
 C821 C 0.18695 0.08870 0.36951
 C822 C 0.10843 0.09815 0.35469
 C823 C 0.02637 0.08677 0.35943
 C824 C 0.02209 0.06696 0.37911
 C825 C 0.11006 0.12075 0.33704
 C826 C 0.05372 0.12536 0.30902
 C827 C 0.05299 0.14709 0.29382
 C828 C 0.10802 0.16449 0.30652
 C829 C 0.16348 0.16010 0.33440
 C830 C 0.16490 0.13845 0.34941
 C831 C 0.11429 0.18634 0.28978
 C832 C 0.12868 0.20446 0.27622
 H833 H 0.24292 0.06241 0.40178
 H834 H 0.25115 0.09705 0.36636
 H835 H -0.03523 0.09390 0.34939
 H836 H -0.04243 0.05919 0.38393
 H837 H 0.01154 0.11209 0.29846
 H838 H 0.01009 0.15025 0.27210
 H839 H 0.20717 0.17333 0.34430
 H840 H 0.20799 0.13571 0.37112
 C841 C 0.43626 0.97248 0.93612
 C842 C 0.42146 0.95803 0.91505
 C843 C 0.40983 0.93872 0.89275
 C844 C 0.45476 0.93773 0.86173
 C845 C 0.45568 0.91740 0.84294
 C846 C 0.41117 0.89766 0.85481
 C847 C 0.36380 0.89916 0.88556
 C848 C 0.36361 0.91940 0.90434
 C849 C 0.41578 0.87552 0.83588
 C850 C 0.41579 0.85446 0.85334
 C851 C 0.41612 0.83366 0.83594
 C852 C 0.41899 0.83341 0.80078
 C853 C 0.42048 0.85412 0.78299
 C854 C 0.41899 0.87506 0.80037
 C855 C 0.40472 0.81198 0.78351
 C856 C 0.38318 0.79419 0.77058
 H857 H 0.49179 0.95243 0.85256
 H858 H 0.49310 0.91697 0.81955
 H859 H 0.32740 0.88459 0.89543
 H860 H 0.32948 0.91976 0.92848
 H861 H 0.41484 0.85392 0.88056
 H862 H 0.41070 0.81779 0.84996
 H863 H 0.41900 0.85417 0.75572
 H864 H 0.41721 0.89078 0.78588
 C865 C 0.13769 0.97639 0.55122
 C866 C 0.17896 0.96299 0.56860
 C867 C 0.21710 0.94451 0.58802
 C868 C 0.25991 0.92628 0.57140
 C869 C 0.27410 0.90548 0.58809
 C870 C 0.24776 0.90269 0.62193
 C871 C 0.20989 0.92167 0.63896
 C872 C 0.19488 0.94238 0.62210
 C873 C 0.25691 0.88009 0.63896
 C874 C 0.27449 0.87857 0.67377
 C875 C 0.27800 0.85736 0.68996
 C876 C 0.26567 0.83714 0.67154
 C877 C 0.25057 0.83837 0.63685
 C878 C 0.24608 0.85955 0.62066
 C879 C 0.26664 0.81542 0.68831
 C880 C 0.26842 0.79715 0.70262
 H881 H 0.27823 0.92775 0.54506
 H882 H 0.30592 0.89154 0.57445
 H883 H 0.18809 0.92020 0.66488
 H884 H 0.16154 0.95637 0.63518
 H885 H 0.28654 0.89387 0.68850
 H886 H 0.28914 0.85658 0.71690
 H887 H 0.24022 0.82282 0.62240
 H888 H 0.23215 0.85992 0.59394
 C889 C 0.64192 0.52205 0.45245
 C890 C 0.68031 0.53565 0.43485
 C891 C 0.71280 0.55451 0.41515
 C892 C 0.75783 0.57244 0.43121
 C893 C 0.76801 0.59348 0.41484
 C894 C 0.73724 0.59661 0.38153
 C895 C 0.69375 0.57823 0.36543
 C896 C 0.68113 0.55744 0.38222
 C897 C 0.74974 0.61889 0.36368
 C898 C 0.76569 0.61944 0.32870
 C899 C 0.77726 0.64031 0.31187
 C900 C 0.77539 0.66093 0.32976
 C901 C 0.76054 0.66062 0.36456
 C902 C 0.74747 0.63979 0.38137
 C903 C 0.78465 0.68247 0.31220
 C904 C 0.78997 0.70049 0.29739
 H905 H 0.78007 0.57061 0.45709
 H906 H 0.80101 0.60719 0.42825
 H907 H 0.66643 0.58017 0.34028
 H908 H 0.64303 0.54399 0.37004
 H909 H 0.77104 0.60376 0.31427
 H910 H 0.78704 0.64034 0.28483
 H911 H 0.75815 0.67647 0.37869
 H912 H 0.73490 0.64016 0.40816
 C913 C 0.36573 0.02477 0.04485
 C914 C 0.32531 0.03842 0.06201
 C915 C 0.28768 0.05690 0.08155
 C916 C 0.28858 0.05581 0.11674
 C917 C 0.26922 0.07541 0.13578
 C918 C 0.24980 0.09657 0.11991
 C919 C 0.24739 0.09727 0.08446
 C920 C 0.26608 0.07762 0.06550
 C921 C 0.23815 0.11805 0.13998
 C922 C 0.17920 0.13573 0.12924
 C923 C 0.17566 0.15669 0.14642
 C924 C 0.22939 0.16032 0.17493
 C925 C 0.28677 0.14265 0.18628
 C926 C 0.29061 0.12171 0.16906
 C927 C 0.22815 0.18244 0.19148
 C928 C 0.22643 0.20101 0.20511
 H929 H 0.30787 0.04003 0.12945
 H930 H 0.27107 0.07410 0.16294
 H931 H 0.23516 0.11324 0.07123
 H932 H 0.26815 0.07884 0.03827
 H933 H 0.13632 0.13347 0.10739
 H934 H 0.13284 0.17036 0.13699
 H935 H 0.33076 0.14521 0.20782
 H936 H 0.33703 0.10860 0.17783
 C937 C 0.85376 0.47509 0.95236
 C938 C 0.81357 0.46099 0.93616
 C939 C 0.77809 0.44152 0.91855
 C940 C 0.77341 0.42058 0.93572
 C941 C 0.76732 0.40004 0.91791
 C942 C 0.76283 0.39999 0.88247
 C943 C 0.76009 0.42137 0.86566
 C944 C 0.76923 0.44191 0.88352
 C945 C 0.76058 0.37787 0.86325
 C946 C 0.79395 0.37671 0.83001
 C947 C 0.78792 0.35638 0.81147
 C948 C 0.74843 0.33693 0.82584
 C949 C 0.71819 0.33755 0.85910
 C950 C 0.72653 0.35761 0.87794
 C951 C 0.74152 0.31599 0.80715
 C952 C 0.73434 0.29813 0.79217
 H953 H 0.78073 0.42002 0.96287
 H954 H 0.76992 0.38427 0.93218
 H955 H 0.75330 0.42229 0.83859
 H956 H 0.77490 0.45795 0.86985
 H957 H 0.82476 0.39143 0.81828
 H958 H 0.81329 0.35590 0.78588
 H959 H 0.69068 0.32227 0.87073
 H960 H 0.70413 0.35704 0.90381
 C961 C 0.53348 0.02687 0.93087
 C962 C 0.54212 0.04192 0.91013
 C963 C 0.55302 0.06229 0.88971
 C964 C 0.61943 0.07801 0.89887
 C965 C 0.62463 0.09935 0.88300
 C966 C 0.56258 0.10564 0.85768
 C967 C 0.49595 0.08966 0.84843
 C968 C 0.49094 0.06820 0.86440
 C969 C 0.56530 0.12900 0.84206
 C970 C 0.53888 0.13253 0.80830
 C971 C 0.54214 0.15440 0.79377
 C972 C 0.57205 0.17307 0.81272
 C973 C 0.59900 0.16979 0.84612
 C974 C 0.59505 0.14805 0.86079
 C975 C 0.58719 0.19492 0.79703
 C976 C 0.60983 0.21274 0.78435
 H977 H 0.66500 0.07407 0.91940
 H978 H 0.67657 0.11102 0.89106
 H979 H 0.44533 0.09408 0.82979
 H980 H 0.43662 0.05665 0.85785
 H981 H 0.51823 0.11829 0.79277
 H982 H 0.52358 0.15661 0.76755
 H983 H 0.62494 0.18402 0.86065
 H984 H 0.61584 0.14631 0.88681
 C985 C 0.47468 0.52638 0.56660
 C986 C 0.46834 0.54041 0.58882
 C987 C 0.46199 0.55934 0.61208
 C988 C 0.37755 0.56908 0.61944
 C989 C 0.37214 0.59023 0.63590
 C990 C 0.45083 0.60195 0.64510
 C991 C 0.53500 0.59163 0.63916
 C992 C 0.54062 0.57043 0.62275
 C993 C 0.44521 0.62545 0.65896
 C994 C 0.48696 0.63099 0.68966
 C995 C 0.47854 0.65318 0.70298
 C996 C 0.43025 0.67010 0.68519
 C997 C 0.39031 0.66471 0.65429
 C998 C 0.39768 0.64256 0.64125
 C999 C 0.41254 0.69236 0.69961
 C1000 C 0.38807 0.71050 0.71113
 H1001 H 0.31625 0.56080 0.61118
 H1002 H 0.30690 0.59778 0.64079
 H1003 H 0.59575 0.60066 0.64586
 H1004 H 0.60610 0.56311 0.61722
 H1005 H 0.52440 0.61802 0.70353
 H1006 H 0.50822 0.65696 0.72729
 H1007 H 0.35173 0.67755 0.64060
 H1008 H 0.36673 0.63876 0.61722
 C1009 C 0.01013 0.47336 0.06860
 C1010 C 0.01642 0.45853 0.08975
 C1011 C 0.01902 0.43806 0.11025
 C1012 C 0.07884 0.43522 0.13739
 C1013 C 0.08392 0.41401 0.15439
 C1014 C 0.02936 0.39547 0.14423
 C1015 C -0.03004 0.39884 0.11701
 C1016 C -0.03532 0.41984 0.10038
 C1017 C 0.03510 0.37243 0.16096
 C1018 C 0.02147 0.35226 0.14220
 C1019 C 0.03016 0.33064 0.15722
 C1020 C 0.05185 0.32868 0.19133
 C1021 C 0.06200 0.34858 0.21069
 C1022 C 0.05335 0.37033 0.19565
 C1023 C 0.07552 0.30639 0.20494
 C1024 C 0.10338 0.28820 0.21549
 H1025 H 0.12182 0.44919 0.14510
 H1026 H 0.13230 0.41203 0.17471
 H1027 H -0.07354 0.38536 0.10836
 H1028 H -0.08124 0.42169 0.07925
 H1029 H 0.00575 0.35294 0.11562
 H1030 H 0.02244 0.31545 0.14191
 H1031 H 0.07958 0.34736 0.23714
 H1032 H 0.06106 0.38541 0.21114
 C1033 C 0.97293 0.97266 0.43638
 C1034 C 0.96625 0.95830 0.41449
 C1035 C 0.95842 0.93908 0.39151
 C1036 C 1.03612 0.92798 0.37927
 C1037 C 1.02904 0.90689 0.36250
 C1038 C 0.94462 0.89652 0.35791
 C1039 C 0.86637 0.90830 0.36868
 C1040 C 0.87350 0.92938 0.38540
 C1041 C 0.93976 0.87295 0.34372
 C1042 C 0.89159 0.85580 0.36078
 C1043 C 0.88832 0.83346 0.34804
 C1044 C 0.93339 0.82786 0.31811
 C1045 C 0.98323 0.84468 0.30129
 C1046 C 0.98743 0.86700 0.31425
 C1047 C 0.91927 0.80566 0.30306
 C1048 C 0.89859 0.78765 0.29034
 H1049 H 1.10201 0.93527 0.38379
 H1050 H 1.08922 0.89794 0.35424
 H1051 H 0.80004 0.90106 0.36467
 H1052 H 0.81300 0.93774 0.39471
 H1053 H 0.85784 0.85967 0.38427
 H1054 H 0.84884 0.82065 0.36116
 H1055 H 1.01719 0.84064 0.27787
 H1056 H 1.02747 0.87966 0.30111
 C1057 C 0.87556 0.54100 0.52646
 C1058 C 0.85071 0.55794 0.54095
 C1059 C 0.83465 0.57831 0.56013
 C1060 C 0.77861 0.57752 0.58833
 C1061 C 0.77600 0.59596 0.61062
 C1062 C 0.82891 0.61550 0.60486
 C1063 C 0.88661 0.61595 0.57665
 C1064 C 0.88899 0.59746 0.55440
 C1065 C 0.82670 0.63495 0.62884
 C1066 C 0.83332 0.65759 0.61699
 C1067 C 0.83550 0.67587 0.63955
 C1068 C 0.82794 0.67179 0.67413
 C1069 C 0.82114 0.64940 0.68630
 C1070 C 0.82064 0.63103 0.66378
 C1071 C 0.82482 0.69081 0.69685
 C1072 C 0.81940 0.70726 0.71486
 H1073 H 0.74063 0.56219 0.59387
 H1074 H 0.73571 0.59455 0.63303
 H1075 H 0.93326 0.62998 0.57263
 H1076 H 0.93724 0.59754 0.53381
 H1077 H 0.83853 0.66120 0.59033
 H1078 H 0.84449 0.69313 0.63007
 H1079 H 0.81719 0.64608 0.71314
 H1080 H 0.81710 0.61382 0.67382
 C1081 C 0.60828 0.46219 0.03324
 C1082 C 0.63501 0.44567 0.04874
 C1083 C 0.65406 0.42541 0.06834
 C1084 C 0.72129 0.42529 0.09318
 C1085 C 0.73267 0.40602 0.11395
 C1086 C 0.67817 0.38664 0.10970
 C1087 C 0.60953 0.38707 0.08522
 C1088 C 0.59788 0.40635 0.06466
 C1089 C 0.68984 0.36654 0.13202
 C1090 C 0.62084 0.36097 0.15486
 C1091 C 0.63001 0.34208 0.17619
 C1092 C 0.70794 0.32834 0.17469
 C1093 C 0.77714 0.33365 0.15190
 C1094 C 0.76901 0.35289 0.13091
 C1095 C 0.71474 0.30847 0.19598
 C1096 C 0.71768 0.29163 0.21357
 H1097 H 0.76375 0.44016 0.09686
 H1098 H 0.78231 0.40638 0.13397
 H1099 H 0.56464 0.37263 0.08204
 H1100 H 0.54392 0.40660 0.04616
 H1101 H 0.56026 0.37140 0.15650
 H1102 H 0.57619 0.33810 0.19373
 H1103 H 0.83689 0.32282 0.15012
 H1104 H 0.82384 0.35669 0.11357
 C1105 C 0.39801 0.95847 0.47331
 C1106 C 0.37189 0.94174 0.45898
 C1107 C 0.35059 0.92214 0.43916
 C1108 C 0.41317 0.90404 0.43738
 C1109 C 0.40316 0.88694 0.41321
 C1110 C 0.33074 0.88799 0.39037
 C1111 C 0.26894 0.90629 0.39226
 C1112 C 0.27706 0.92302 0.41712
 C1113 C 0.31889 0.86992 0.36491
 C1114 C 0.23796 0.85745 0.36311
 C1115 C 0.23146 0.83875 0.34119
 C1116 C 0.30529 0.83259 0.32075
 C1117 C 0.38398 0.84575 0.32141
 C1118 C 0.39059 0.86433 0.34328
 C1119 C 0.30248 0.81227 0.30025
 C1120 C 0.30020 0.79495 0.28368
 H1121 H 0.47206 0.90370 0.45364
 H1122 H 0.45309 0.87324 0.41199
 H1123 H 0.21720 0.90811 0.37352
 H1124 H 0.22983 0.93734 0.41799
 H1125 H 0.18102 0.86170 0.37934
 H1126 H 0.16946 0.82889 0.34077
 H1127 H 0.44148 0.84129 0.30580
 H1128 H 0.45263 0.87408 0.34384
 C1129 C 0.09172 0.03881 0.96398
 C1130 C 0.11966 0.05440 0.94731
 C1131 C 0.14235 0.07287 0.92517
 C1132 C 0.21815 0.08643 0.93059
 C1133 C 0.23462 0.10512 0.90940
 C1134 C 0.17435 0.11074 0.88311
 C1135 C 0.09829 0.09687 0.87810
 C1136 C 0.08419 0.07778 0.89846
 C1137 C 0.18958 0.13116 0.86152
 C1138 C 0.16170 0.13133 0.82756
 C1139 C 0.17071 0.15107 0.80804
 C1140 C 0.20875 0.17070 0.82200
 C1141 C 0.23896 0.17062 0.85535
 C1142 C 0.22899 0.15102 0.87508
 C1143 C 0.21652 0.19098 0.80209
 C1144 C 0.22272 0.20808 0.78549
 H1145 H 0.26395 0.08261 0.95116
 H1146 H 0.29457 0.11515 0.91358
 H1147 H 0.04854 0.10094 0.85894
 H1148 H 0.02679 0.06694 0.89384
 H1149 H 0.13201 0.11635 0.81606
 H1150 H 0.14738 0.15108 0.78217
 H1151 H 0.26876 0.18581 0.86629
 H1152 H 0.24935 0.15174 0.90124
 C1153 C 0.08632 0.96168 0.03720
 C1154 C 0.10797 0.94588 0.05498
 C1155 C 0.12241 0.92667 0.07691
 C1156 C 0.16518 0.90684 0.06490
 C1157 C 0.17044 0.88727 0.08518
 C1158 C 0.13162 0.88742 0.11743
 C1159 C 0.08957 0.90740 0.12951
 C1160 C 0.08363 0.92686 0.10910
 C1161 C 0.13603 0.86684 0.13870
 C1162 C 0.09899 0.84608 0.12755
 C1163 C 0.10549 0.82649 0.14775
 C1164 C 0.14746 0.82772 0.17927
 C1165 C 0.18358 0.84841 0.19053
 C1166 C 0.17729 0.86796 0.17042
 C1167 C 0.16355 0.80734 0.19844
 C1168 C 0.18621 0.79045 0.21357
 H1169 H 0.19233 0.90637 0.03960
 H1170 H 0.20559 0.87215 0.07589
 H1171 H 0.05977 0.90771 0.15440
 H1172 H 0.04578 0.94169 0.11794
 H1173 H 0.06535 0.84501 0.10334
 H1174 H 0.08008 0.81032 0.13848
 H1175 H 0.21967 0.84922 0.21434
 H1176 H 0.20713 0.88378 0.17918
 C1177 C 0.90396 0.46464 0.45119
 C1178 C 0.88555 0.44896 0.43291
 C1179 C 0.87265 0.42939 0.41170
 C1180 C 0.91466 0.42845 0.38010
 C1181 C 0.90991 0.40845 0.36088
 C1182 C 0.86595 0.38908 0.37370
 C1183 C 0.82428 0.39007 0.40540
 C1184 C 0.82723 0.41023 0.42424
 C1185 C 0.86329 0.36783 0.35398
 C1186 C 0.82001 0.36763 0.32253
 C1187 C 0.81420 0.34730 0.30436
 C1188 C 0.85343 0.32720 0.31720
 C1189 C 0.89788 0.32731 0.34828
 C1190 C 0.90272 0.34758 0.36673
 C1191 C 0.83939 0.30611 0.30001
 C1192 C 0.81864 0.28867 0.28632
 H1193 H 0.95316 0.44287 0.37074
 H1194 H 0.94255 0.40785 0.33646
 H1195 H 0.78855 0.37536 0.41524
 H1196 H 0.79527 0.41074 0.44876
 H1197 H 0.78835 0.38302 0.31255
 H1198 H 0.77670 0.34706 0.28089
 H1199 H 0.92701 0.31165 0.35849
 H1200 H 0.93734 0.34746 0.39080
 C1201 C 0.41346 0.03772 0.54092
 C1202 C 0.39406 0.05372 0.55845
 C1203 C 0.38127 0.07308 0.57996
 C1204 C 0.32757 0.09158 0.56954
 C1205 C 0.32364 0.11143 0.58902
 C1206 C 0.37369 0.11297 0.61910
 C1207 C 0.42824 0.09429 0.62912
 C1208 C 0.43153 0.07444 0.60974
 C1209 C 0.36839 0.13388 0.64010
 C1210 C 0.37271 0.13231 0.67547
 C1211 C 0.37086 0.15208 0.69520
 C1212 C 0.36452 0.17358 0.67977
 C1213 C 0.36157 0.17538 0.64470
 C1214 C 0.36354 0.15567 0.62493
 C1215 C 0.35151 0.19379 0.69945
 C1216 C 0.33101 0.21100 0.71409
 H1217 H 0.29005 0.09078 0.54614
 H1218 H 0.28017 0.12538 0.58076
 H1219 H 0.46936 0.09514 0.65164
 H1220 H 0.47515 0.06039 0.61759
 H1221 H 0.37638 0.11581 0.68792
 H1222 H 0.37360 0.15059 0.72239
 H1223 H 0.35646 0.19204 0.63268
 H1224 H 0.36201 0.15754 0.59782
 C1225 C 0.57882 0.53938 0.95720
 C1226 C 0.59323 0.55537 0.93881
 C1227 C 0.59989 0.57463 0.91636
 C1228 C 0.66643 0.59128 0.92095
 C1229 C 0.66914 0.61030 0.89952
 C1230 C 0.60525 0.61283 0.87361
 C1231 C 0.53748 0.59643 0.86952
 C1232 C 0.53565 0.57726 0.89060
 C1233 C 0.61175 0.63229 0.85038
 C1234 C 0.55424 0.65136 0.85401
 C1235 C 0.56617 0.67077 0.83383
 C1236 C 0.63720 0.67122 0.81041
 C1237 C 0.69083 0.65165 0.80539
 C1238 C 0.67795 0.63221 0.82521
 C1239 C 0.66396 0.69227 0.79474
 C1240 C 0.69367 0.70960 0.78284
 H1241 H 0.71673 0.58950 0.94073
 H1242 H 0.72151 0.62300 0.90286
 H1243 H 0.48718 0.59832 0.84984
 H1244 H 0.48403 0.56448 0.88680
 H1245 H 0.50218 0.65142 0.87311
 H1246 H 0.52259 0.68562 0.83751
 H1247 H 0.74524 0.65175 0.78711
 H1248 H 0.72025 0.61725 0.82129
 C1249 C 0.46862 0.45419 0.96855
 C1250 C 0.45805 0.43703 0.95234
 C1251 C 0.44715 0.41736 0.93114
 C1252 C 0.52201 0.40368 0.92330
 C1253 C 0.51356 0.38562 0.90059
 C1254 C 0.43073 0.38110 0.88497
 C1255 C 0.35549 0.39483 0.89327
 C1256 C 0.36368 0.41290 0.91613
 C1257 C 0.42418 0.36260 0.85948
 C1258 C 0.37838 0.36651 0.82894
 C1259 C 0.36687 0.34873 0.80588
 C1260 C 0.40090 0.32681 0.81298
 C1261 C 0.45011 0.32294 0.84263
 C1262 C 0.46149 0.34072 0.86584
 C1263 C 0.37279 0.30785 0.79253
 C1264 C 0.34218 0.29214 0.77671
 H1265 H 0.58738 0.40735 0.93416
 H1266 H 0.57231 0.37567 0.89421
 H1267 H 0.29064 0.39158 0.88224
 H1268 H 0.30553 0.42361 0.92171
 H1269 H 0.34803 0.38307 0.82348
 H1270 H 0.32667 0.35176 0.78345
 H1271 H 0.47552 0.30594 0.84858
 H1272 H 0.49438 0.33704 0.88962
 C1273 C 0.96637 0.04643 0.03225
 C1274 C 0.96064 0.06340 0.04938
 C1275 C 0.95393 0.08237 0.07229
 C1276 C 0.97849 0.07908 0.10599
 C1277 C 0.96775 0.09678 0.12920
 C1278 C 0.93292 0.11818 0.11897
 C1279 C 0.90862 0.12142 0.08501
 C1280 C 0.91943 0.10364 0.06173
 C1281 C 0.92210 0.13690 0.14369
 C1282 C 0.94354 0.15959 0.13486
 C1283 C 0.93094 0.17730 0.15790
 C1284 C 0.89637 0.17269 0.18991
 C1285 C 0.87503 0.15018 0.19905
 C1286 C 0.88778 0.13241 0.17605
 C1287 C 0.86730 0.19134 0.21060
 C1288 C 0.83541 0.20722 0.22583
 H1289 H 1.00568 0.06271 0.11434
 H1290 H 0.98691 0.09382 0.15514
 H1291 H 0.87978 0.13760 0.07664
 H1292 H 0.90038 0.10640 0.03567
 H1293 H 0.96941 0.16360 0.11007
 H1294 H 0.94530 0.19477 0.15037
 H1295 H 0.84432 0.14659 0.22324
 H1296 H 0.86696 0.11527 0.18298
 C1297 C 0.52911 0.95278 0.53787
 C1298 C 0.53643 0.93530 0.55349
 C1299 C 0.54522 0.91507 0.57337
 C1300 C 0.61344 0.89906 0.56653
 C1301 C 0.62548 0.88027 0.58788
 C1302 C 0.56639 0.87699 0.61499
 C1303 C 0.49531 0.89247 0.62078
 C1304 C 0.48686 0.91191 0.60059
 C1305 C 0.58603 0.85910 0.63955
 C1306 C 0.53308 0.83931 0.64106
 C1307 C 0.55419 0.82215 0.66444
 C1308 C 0.62803 0.82492 0.68615
 C1309 C 0.67899 0.84499 0.68515
 C1310 C 0.65808 0.86207 0.66192
 C1311 C 0.65869 0.80631 0.70673
 C1312 C 0.69091 0.79078 0.72264
 H1313 H 0.65796 0.90147 0.54523
 H1314 H 0.68217 0.86864 0.58391
 H1315 H 0.45018 0.89014 0.64196
 H1316 H 0.43537 0.92463 0.60643
 H1317 H 0.47695 0.83707 0.62382
 H1318 H 0.51715 0.80626 0.66453
 H1319 H 0.73669 0.84713 0.70158
 H1320 H 0.69944 0.87738 0.66098
 C1321 C 0.01565 0.54926 0.46528
 C1322 C 0.02294 0.56710 0.45037
 C1323 C 0.03267 0.58758 0.43080
 C1324 C 0.09567 0.60417 0.44014
 C1325 C 0.10972 0.62320 0.41945
 C1326 C 0.05737 0.62621 0.39028
 C1327 C -0.00678 0.60979 0.38129
 C1328 C -0.01708 0.59021 0.40105
 C1329 C 0.07892 0.64459 0.36666
 C1330 C 0.02064 0.66348 0.36221
 C1331 C 0.04282 0.68059 0.33897
 C1332 C 0.12225 0.67847 0.31995
 C1333 C 0.17955 0.65957 0.32431
 C1334 C 0.15843 0.64275 0.34772
 C1335 C 0.15079 0.69635 0.29793
 C1336 C 0.18151 0.71118 0.28059
 H1337 H 0.13445 0.60216 0.46304
 H1338 H 0.16217 0.63535 0.42574
 H1339 H -0.04586 0.61166 0.35829
 H1340 H -0.06353 0.57702 0.39302
 H1341 H -0.04070 0.66507 0.37694
 H1342 H -0.00051 0.69553 0.33618
 H1343 H 0.24136 0.65800 0.30998
 H1344 H 0.20369 0.62823 0.35102
   
