data_POSCAR
  _audit_creation_date              2014-09-24
  _audit_creation_method            'ToBaCCo'
  _symmetry_space_group_name_H-M    'P1'
  _symmetry_Int_Tables_number       1
  _symmetry_cell_setting            triclinic
  loop_
  _symmetry_equiv_pos_as_xyz
 x,y,z
_cell_length_a 59.5836
_cell_length_b 59.5943
_cell_length_c 59.5486
_cell_angle_alpha 89.992900
_cell_angle_beta 89.983200
_cell_angle_gamma 89.999700
loop_
  _atom_site_label
  _atom_site_type_symbol
  _atom_site_fract_x
  _atom_site_fract_y
  _atom_site_fract_z
C1 C 0.35873 1.35946 0.33066
 N2 N 0.34004 1.36857 0.34009
 C3 C 0.33059 1.35943 0.35878
 N4 N 0.34014 1.34087 0.36802
 C5 C 0.35881 1.33152 0.35888
 N6 N 0.36797 1.34091 0.34022
 C7 C 0.35846 0.85918 0.83131
 N8 N 0.36763 0.84054 0.84071
 C9 C 0.35839 0.83108 0.85929
 N10 N 0.33972 0.84045 0.86845
 C11 C 0.33026 0.85910 0.85929
 N12 N 0.33979 0.86832 0.84069
 C13 C 0.85782 1.35862 0.82979
 N14 N 0.83913 1.36774 0.83922
 C15 C 0.82969 1.35862 0.85792
 N16 N 0.83923 1.34006 0.86716
 C17 C 0.85789 1.33069 0.85801
 N18 N 0.86705 1.34006 0.83935
 C19 C 0.85942 0.85930 0.33066
 N20 N 0.84079 0.86848 0.34016
 C21 C 0.83138 0.85930 0.35881
 N22 N 0.84078 0.84067 0.36799
 C23 C 0.85939 0.83125 0.35878
 N24 N 0.86857 0.84065 0.34013
 C25 C 0.64013 0.64022 0.33194
 N26 N 0.63099 0.65888 0.34133
 C27 C 0.64024 0.66833 0.35992
 N28 N 0.65888 0.65892 0.36909
 C29 C 0.66824 0.64026 0.35992
 N30 N 0.65877 0.63104 0.34133
 C31 C 0.64189 0.14105 0.83015
 N32 N 0.66058 0.13193 0.83959
 C33 C 0.67001 0.14106 0.85828
 N34 N 0.66045 0.15961 0.86753
 C35 C 0.64179 0.16897 0.85838
 N36 N 0.63265 0.15960 0.83971
 C37 C 1.13997 0.63999 0.83199
 N38 N 1.13081 0.65864 0.84138
 C39 C 1.14000 0.66806 0.86000
 N40 N 1.15862 0.65864 0.86921
 C41 C 1.16800 0.63998 0.86005
 N42 N 1.15858 0.63079 0.84142
 C43 C 1.14181 0.14084 0.33030
 N44 N 1.16050 0.13173 0.33974
 C45 C 1.16994 0.14089 0.35841
 N46 N 1.16039 0.15946 0.36763
 C47 C 1.14172 0.16881 0.35848
 N48 N 1.13257 0.15940 0.33984
 C49 C 0.64122 1.35970 0.66835
 N50 N 0.65993 1.36881 0.65900
 C51 C 0.66942 1.35962 0.64036
 N52 N 0.65989 1.34104 0.63114
 C53 C 0.64119 1.33170 0.64027
 N54 N 0.63199 1.34113 0.65888
 C55 C 0.64069 0.85917 1.16954
 N56 N 0.63153 0.84053 1.16007
 C57 C 0.64070 0.83113 1.14142
 N58 N 0.65932 0.84054 1.13221
 C59 C 0.66872 0.85917 1.14139
 N60 N 0.65931 0.86834 1.16004
 C61 C 1.14145 1.35921 1.16941
 N62 N 1.16013 1.36832 1.15996
 C63 C 1.16959 1.35917 1.14129
 N64 N 1.16006 1.34059 1.13208
 C65 C 1.14140 1.33123 1.14124
 N66 N 1.13223 1.34063 1.15988
 C67 C 1.14164 0.85907 0.66882
 N68 N 1.13249 0.84044 0.65940
 C69 C 1.14174 0.83100 0.64081
 N70 N 1.16040 0.84039 0.63167
 C71 C 1.16985 0.85904 0.64084
 N72 N 1.16031 0.86823 0.65945
 C73 C 0.35843 0.64093 0.66881
 N74 N 0.36760 0.65957 0.65941
 C75 C 0.35838 0.66904 0.64083
 N76 N 0.33972 0.65966 0.63166
 C77 C 0.33026 0.64100 0.64081
 N78 N 0.33978 0.63178 0.65941
 C79 C 0.35857 0.14053 1.16947
 N80 N 0.33988 0.13141 1.16005
 C81 C 0.33043 0.14054 1.14136
 N82 N 0.33997 0.15910 1.13211
 C83 C 0.35864 0.16846 1.14125
 N84 N 0.36780 0.15909 1.15990
 C85 C 0.85982 0.64008 1.16799
 N86 N 0.84117 0.63092 1.15861
 C87 C 0.83170 0.64015 1.14002
 N88 N 0.84109 0.65880 1.13085
 C89 C 0.85975 0.66819 1.14001
 N90 N 0.86898 0.65872 1.15860
 C91 C 0.85809 0.14112 0.67002
 N92 N 0.83940 0.13200 0.66059
 C93 C 0.82997 0.14113 0.64190
 N94 N 0.83954 0.15968 0.63264
 C95 C 0.85820 0.16904 0.64179
 N96 N 0.86734 0.15967 0.66046
 C97 C 1.35903 0.35823 0.66986
 N98 N 1.36819 0.33958 0.66038
 C99 C 1.35908 0.33015 0.64169
 N100 N 1.34049 0.33967 0.63247
 C101 C 1.33108 0.35829 0.64165
 N102 N 1.34045 0.36744 0.66033
 C103 C 1.35955 0.85867 1.16853
 N104 N 1.36864 0.83994 1.15921
 C105 C 1.35943 0.83042 1.14061
 N106 N 1.34083 0.83994 1.13140
 C107 C 1.33152 0.85866 1.14049
 N108 N 1.34098 0.86789 1.15906
 C109 C 0.85962 0.35958 1.16911
 N110 N 0.84098 0.36874 1.15964
 C111 C 0.83159 0.35958 1.14098
 N112 N 0.84103 0.34098 1.13176
 C113 C 0.85966 0.33159 1.14094
 N114 N 0.86882 0.34097 1.15960
 C115 C 0.85982 0.85976 0.66821
 N116 N 0.86898 0.84110 0.65881
 C117 C 0.85978 0.83168 0.64019
 N118 N 0.84116 0.84111 0.63099
 C119 C 0.83178 0.85976 0.64015
 N120 N 0.84120 0.86895 0.65878
 C121 C 0.64049 0.64060 0.66847
 N122 N 0.63134 0.65926 0.65909
 C123 C 0.64055 0.66869 0.64047
 N124 N 0.65918 0.65928 0.63126
 C125 C 0.66856 0.64062 0.64042
 N126 N 0.65912 0.63141 0.65904
 C127 C 0.64081 1.14155 1.16947
 N128 N 0.65942 1.13236 1.15997
 C129 C 0.66884 1.14153 1.14133
 N130 N 0.65946 1.16018 1.13216
 C131 C 0.64085 1.16968 1.14135
 N132 N 0.63168 1.16021 1.16000
 C133 C 0.14102 0.64186 1.16979
 N134 N 0.13192 0.66057 1.16038
 C135 C 0.14109 0.67005 1.14173
 N136 N 0.15966 0.66051 1.13248
 C137 C 0.16899 0.64181 1.14160
 N138 N 0.15957 0.63264 1.16023
 C139 C 0.14027 1.14110 0.66832
 N140 N 0.15887 1.13190 0.65887
 C141 C 0.16829 1.14111 0.64025
 N142 N 0.15892 1.15978 0.63111
 C143 C 0.14031 1.16927 0.64032
 N144 N 0.13112 1.15977 0.65895
 C145 C 1.35955 0.64079 0.33069
 N146 N 1.36869 0.65946 0.34013
 C147 C 1.35954 0.66885 0.35880
 N148 N 1.34097 0.65939 0.36806
 C149 C 1.33159 0.64074 0.35891
 N150 N 1.34097 0.63158 0.34025
 C151 C 1.35915 1.14162 0.83029
 N152 N 1.34056 1.13240 0.83981
 C153 C 1.33118 1.14153 0.85848
 N154 N 1.34056 1.16017 0.86767
 C155 C 1.35914 1.16970 0.85845
 N156 N 1.36829 1.16027 0.83976
 C157 C 0.85944 0.64057 0.83148
 N158 N 0.86860 0.65922 0.84088
 C159 C 0.85940 0.66864 0.85951
 N160 N 0.84078 0.65921 0.86871
 C161 C 0.83139 0.64057 0.85954
 N162 N 0.84082 0.63137 0.84092
 C163 C 0.85943 1.14148 0.33053
 N164 N 0.84081 1.13231 0.34004
 C165 C 0.83140 1.14149 0.35867
 N166 N 0.84079 1.16014 0.36783
 C167 C 0.85940 1.16963 0.35863
 N168 N 0.86857 1.16015 0.33998
 C169 C 0.64098 0.35838 0.33030
 N170 N 0.65959 0.36757 0.33979
 C171 C 0.66900 0.35840 0.35842
 N172 N 0.65962 0.33976 0.36760
 C173 C 0.64101 0.33026 0.35843
 N174 N 0.63184 0.33972 0.33977
 C175 C 0.64024 0.85970 0.83178
 N176 N 0.63106 0.84105 0.84117
 C177 C 0.64025 0.83160 0.85979
 N178 N 0.65888 0.84101 0.86900
 C179 C 0.66828 0.85966 0.85984
 N180 N 0.65886 0.86887 0.84122
 C181 C 0.14032 0.35874 0.83160
 N182 N 0.13117 0.34007 0.84097
 C183 C 0.14035 0.33057 0.85960
 N184 N 0.15896 0.34007 0.86880
 C185 C 0.16833 0.35874 0.85965
 N186 N 0.15891 0.36795 0.84104
 C187 C 0.14067 0.85944 0.33075
 N188 N 0.13153 0.84078 0.34022
 C189 C 0.14069 0.83140 0.35889
 N190 N 0.15927 0.84086 0.36811
 C191 C 0.16865 0.85950 0.35893
 N192 N 0.15926 0.86865 0.34027
 O193 O 0.97816 0.91923 0.88832
 O194 O 0.97810 0.89315 0.86205
 C195 C 0.97049 0.91141 0.87003
 C196 C 0.95220 0.92344 0.85824
 C197 C 0.94467 0.91617 0.83710
 H198 H 0.95265 0.90202 0.82890
 O199 O 1.02181 1.08115 0.88828
 O200 O 1.02190 1.10725 0.86202
 C201 C 1.02950 1.08898 0.87000
 C202 C 1.04782 1.07697 0.85823
 C203 C 1.05537 1.08426 0.83710
 H204 H 1.04740 1.09841 0.82890
 O205 O 0.88817 0.97844 0.91907
 O206 O 0.86192 0.97835 0.89297
 C207 C 0.86989 0.97076 0.91125
 C208 C 0.85813 0.95246 0.92330
 C209 C 0.83701 0.94490 0.91603
 H210 H 0.82881 0.95284 0.90186
 O211 O 1.11195 1.02197 0.91898
 O212 O 1.13817 1.02200 0.89284
 C213 C 1.13023 1.02963 0.91112
 C214 C 1.14201 1.04794 0.92311
 C215 C 1.16307 1.05557 0.91571
 H216 H 1.17122 1.04764 0.90149
 O217 O 0.91893 0.88851 0.97830
 O218 O 0.89283 0.86227 0.97830
 C219 C 0.91108 0.87024 0.97064
 C220 C 0.92307 0.85846 0.95230
 C221 C 0.91574 0.83737 0.94473
 H222 H 0.90157 0.82919 0.95270
 O223 O 1.08121 1.11178 0.97820
 O224 O 1.10728 1.13805 0.97814
 C225 C 1.08902 1.13007 0.97052
 C226 C 1.07699 1.14184 0.95221
 C227 C 1.08431 1.16294 0.94462
 H228 H 1.09851 1.17110 0.95255
 O229 O 0.91884 1.02221 0.88825
 O230 O 0.89274 1.02218 0.86199
 C231 C 0.91099 1.02985 0.86995
 C232 C 0.92295 1.04819 0.85817
 C233 C 0.91550 1.05588 0.83714
 H234 H 0.90127 1.04799 0.82902
 O235 O 1.08116 0.97824 0.88826
 O236 O 1.10724 0.97821 0.86196
 C237 C 1.08899 0.97058 0.86995
 C238 C 1.07698 0.95227 0.85818
 C239 C 1.08434 0.94465 0.83710
 H240 H 1.09854 0.95257 0.82893
 O241 O 1.02187 0.88841 0.91905
 O242 O 1.02186 0.86216 0.89294
 C243 C 1.02949 0.87011 0.91121
 C244 C 1.04776 0.85828 0.92324
 C245 C 1.05525 0.83714 0.91597
 H246 H 1.04727 0.82897 0.90180
 O247 O 0.97806 1.11196 0.91899
 O248 O 0.97810 1.13822 0.89289
 C249 C 0.97043 1.13026 0.91114
 C250 C 0.95209 1.14202 0.92313
 C251 C 0.94440 1.16304 0.91570
 H252 H 0.95229 1.17118 0.90146
 O253 O 0.88811 1.08128 0.97821
 O254 O 0.86190 1.10741 0.97826
 C255 C 0.86983 1.08916 0.97058
 C256 C 0.85805 1.07722 0.95221
 C257 C 0.83703 1.08466 0.94451
 H258 H 0.82890 1.09888 0.95241
 O259 O 1.11180 0.91893 0.97821
 O260 O 1.13804 0.89282 0.97813
 C261 C 1.13007 0.91108 0.97051
 C262 C 1.14183 0.92307 0.95216
 C263 C 1.16289 0.91569 0.94451
 H264 H 1.17104 0.90148 0.95242
 O265 O 0.97803 1.08130 0.88819
 O266 O 0.97806 1.10740 0.86193
 C267 C 0.97038 1.08917 0.86990
 C268 C 0.95201 1.07722 0.85813
 C269 C 0.94430 1.08466 0.83710
 H270 H 0.95219 1.09888 0.82895
 O271 O 1.02193 0.91912 0.88827
 O272 O 1.02193 0.89303 0.86200
 C273 C 1.02959 0.91127 0.86997
 C274 C 1.04792 0.92324 0.85819
 C275 C 1.05554 0.91587 0.83711
 H276 H 1.04761 0.90168 0.82894
 O277 O 1.11186 0.97820 0.91902
 O278 O 1.13809 0.97816 0.89288
 C279 C 1.13013 0.97052 0.91115
 C280 C 1.14187 0.95216 0.92312
 C281 C 1.16292 0.94451 0.91574
 H282 H 1.17110 0.95244 0.90154
 O283 O 0.88812 1.02221 0.91901
 O284 O 0.86187 1.02218 0.89291
 C285 C 0.86983 1.02985 0.91116
 C286 C 0.85806 1.04819 0.92313
 C287 C 0.83705 1.05588 0.91570
 H288 H 0.82892 1.04798 0.90146
 O289 O 0.91889 1.11196 0.97819
 O290 O 0.89284 1.13824 0.97825
 C291 C 0.91106 1.13025 0.97056
 C292 C 0.92303 1.14202 0.95220
 C293 C 0.91561 1.16304 0.94451
 H294 H 0.90138 1.17118 0.95242
 O295 O 1.08101 0.88826 0.97830
 O296 O 1.10709 0.86199 0.97823
 C297 C 1.08883 0.86997 0.97062
 C298 C 1.07678 0.85821 0.95232
 C299 C 1.08401 0.83707 0.94479
 H300 H 1.09815 0.82885 0.95277
 O301 O 1.08113 1.02200 0.88832
 O302 O 1.10719 1.02203 0.86202
 C303 C 1.08894 1.02966 0.87001
 C304 C 1.07691 1.04796 0.85823
 C305 C 1.08420 1.05552 0.83710
 H306 H 1.09838 1.04758 0.82891
 O307 O 0.91892 0.97844 0.88831
 O308 O 0.89282 0.97836 0.86205
 C309 C 0.91109 0.97076 0.87003
 C310 C 0.92313 0.95247 0.85824
 C311 C 0.91587 0.94493 0.83710
 H312 H 0.90171 0.95289 0.82890
 O313 O 1.02185 1.11188 0.91902
 O314 O 1.02194 1.13814 0.89292
 C315 C 1.02955 1.13015 0.91118
 C316 C 1.04789 1.14189 0.92319
 C317 C 1.05548 1.16298 0.91587
 H318 H 1.04752 1.17117 0.90170
 O319 O 0.97811 0.88847 0.91903
 O320 O 0.97803 0.86223 0.89292
 C321 C 0.97042 0.87020 0.91119
 C322 C 0.95210 0.85845 0.92321
 C323 C 0.94451 0.83735 0.91591
 H324 H 0.95246 0.82917 0.90172
 O325 O 1.11200 1.08112 0.97820
 O326 O 1.13824 1.10723 0.97814
 C327 C 1.13028 1.08897 0.97051
 C328 C 1.14204 1.07698 0.95217
 C329 C 1.16310 1.08434 0.94452
 H330 H 1.17126 1.09854 0.95244
 O331 O 0.88824 0.91928 0.97835
 O332 O 0.86198 0.89319 0.97835
 C333 C 0.86994 0.91144 0.97071
 C334 C 0.85815 0.92345 0.95240
 C335 C 0.83704 0.91615 0.94487
 H336 H 0.82886 0.90199 0.95286
 Cu337 Cu 1.00003 0.90642 0.90628
 Cu338 Cu 0.99997 0.87501 0.87484
 Cu339 Cu 0.99993 1.09396 0.90623
 Cu340 Cu 1.00001 1.12538 0.87481
 Cu341 Cu 0.90613 1.00033 0.90627
 Cu342 Cu 0.87471 1.00026 0.87485
 Cu343 Cu 1.09391 1.00011 0.90627
 Cu344 Cu 1.12531 1.00010 0.87479
 C345 C 0.94145 0.94175 0.86857
 H346 H 0.94696 0.94726 0.88500
 C347 C 0.92663 0.92691 0.82657
 C348 C 1.05856 1.05866 0.86855
 H349 H 1.05303 1.05312 0.88497
 C350 C 1.07344 1.07355 0.82657
 C351 C 0.86846 0.94176 0.94164
 H352 H 0.88487 0.94730 0.94715
 C353 C 0.82650 0.92686 0.92681
 C354 C 1.13175 1.05862 0.94149
 H355 H 1.11537 1.05304 0.94709
 C356 C 1.17358 1.07365 0.92641
 C357 C 0.94140 0.86876 0.94156
 H358 H 0.94696 0.88515 0.94711
 C359 C 0.92646 0.82684 0.92666
 C360 C 1.05863 1.13156 0.94152
 H361 H 1.05307 1.11517 0.94707
 C362 C 1.07357 1.17347 0.92657
 C363 C 0.94135 1.05884 0.86841
 H364 H 0.94700 1.05320 0.88475
 C365 C 0.92616 1.07400 0.82664
 C366 C 1.05862 0.94159 0.86848
 H367 H 1.05304 0.94717 0.88487
 C368 C 1.07363 0.92657 0.82660
 C369 C 1.05850 0.86857 0.94158
 H370 H 1.05302 0.88500 0.94709
 C371 C 1.07325 0.82657 0.92674
 C372 C 0.94143 1.13176 0.94153
 H373 H 0.94705 1.11542 0.94717
 C374 C 0.92628 1.17352 0.92638
 C375 C 0.86831 1.05883 0.94154
 H376 H 0.88465 1.05320 0.94718
 C377 C 0.82657 1.07399 0.92637
 C378 C 1.13157 0.94146 0.94149
 H379 H 1.11521 0.94706 0.94709
 C380 C 1.17340 0.92640 0.92642
 O381 O 1.02204 0.91907 1.11206
 O382 O 1.02202 0.89299 1.13834
 C383 C 1.02969 0.91123 1.13036
 C384 C 1.04802 0.92321 1.14213
 C385 C 1.05562 0.91587 1.16322
 H386 H 1.04767 0.90169 1.17140
 O387 O 0.97834 1.08114 1.11214
 O388 O 0.97832 1.10727 1.13836
 C389 C 0.97068 1.08901 1.13042
 C390 C 0.95234 1.07706 1.14221
 C391 C 0.94472 1.08446 1.16328
 H392 H 0.95267 1.09865 1.17143
 O393 O 0.88833 1.02212 1.08141
 O394 O 0.86209 1.02215 1.10753
 C395 C 0.87005 1.02978 1.08926
 C396 C 0.85826 1.04808 1.07724
 C397 C 0.83719 1.05570 1.08461
 H398 H 0.82904 1.04779 1.09883
 O399 O 1.11197 0.97819 1.08122
 O400 O 1.13825 0.97812 1.10730
 C401 C 1.13026 0.97051 1.08904
 C402 C 1.14200 0.95220 1.07700
 C403 C 1.16311 0.94460 1.08428
 H404 H 1.17132 0.95253 1.09845
 O405 O 1.08116 0.88820 1.02211
 O406 O 1.10726 0.86195 1.02210
 C407 C 1.08902 0.86992 1.02978
 C408 C 1.07708 0.85818 1.04817
 C409 C 1.08450 0.83717 1.05589
 H410 H 1.09872 0.82902 1.04798
 O411 O 0.91902 1.11184 1.02200
 O412 O 0.89297 1.13814 1.02211
 C413 C 0.91123 1.13013 1.02970
 C414 C 0.92329 1.14186 1.04801
 C415 C 0.91603 1.16298 1.05558
 H416 H 0.90187 1.17119 1.04764
 O417 O 0.91907 0.97833 1.11212
 O418 O 0.89299 0.97830 1.13841
 C419 C 0.91124 0.97066 1.13041
 C420 C 0.92323 0.95232 1.14217
 C421 C 0.91587 0.94470 1.16326
 H422 H 0.90169 0.95263 1.17144
 O423 O 1.08130 1.02197 1.11202
 O424 O 1.10742 1.02197 1.13825
 C425 C 1.08916 1.02962 1.13030
 C426 C 1.07720 1.04796 1.14208
 C427 C 1.08462 1.05562 1.16312
 H428 H 1.09884 1.04770 1.17126
 O429 O 0.97828 0.88839 1.08128
 O430 O 0.97820 0.86214 1.10738
 C431 C 0.97060 0.87012 1.08911
 C432 C 0.95229 0.85836 1.07707
 C433 C 0.94476 0.83722 1.08431
 H434 H 0.95274 0.82900 1.09845
 O435 O 1.02210 1.11183 1.08130
 O436 O 1.02213 1.13811 1.10737
 C437 C 1.02976 1.13012 1.08911
 C438 C 1.04806 1.14189 1.07707
 C439 C 1.05566 1.16298 1.08440
 H440 H 1.04773 1.17115 1.09860
 O441 O 0.88825 0.91922 1.02216
 O442 O 0.86200 0.89313 1.02221
 C443 C 0.86998 0.91138 1.02984
 C444 C 0.85822 0.92337 1.04819
 C445 C 0.83714 0.91603 1.05581
 H446 H 0.82896 0.90185 1.04786
 O447 O 1.11201 1.08113 1.02201
 O448 O 1.13825 1.10723 1.02201
 C449 C 1.13029 1.08898 1.02966
 C450 C 1.14207 1.07700 1.04801
 C451 C 1.16312 1.08438 1.05566
 H452 H 1.17128 1.09859 1.04774
 O453 O 1.02213 1.08112 1.11208
 O454 O 1.02217 1.10725 1.13831
 C455 C 1.02981 1.08899 1.13035
 C456 C 1.04816 1.07702 1.14211
 C457 C 1.05585 1.08442 1.16316
 H458 H 1.04795 1.09863 1.17132
 O459 O 0.97826 0.91908 1.11207
 O460 O 0.97819 0.89299 1.13833
 C461 C 0.97058 0.91125 1.13036
 C462 C 0.95226 0.92325 1.14214
 C463 C 0.94464 0.91590 1.16323
 H464 H 0.95256 0.90170 1.17139
 O465 O 1.11201 1.02196 1.08124
 O466 O 1.13828 1.02196 1.10732
 C467 C 1.13030 1.02961 1.08907
 C468 C 1.14206 1.04794 1.07707
 C469 C 1.16312 1.05558 1.08445
 H470 H 1.17127 1.04765 1.09866
 O471 O 0.88830 0.97836 1.08143
 O472 O 0.86206 0.97833 1.10755
 C473 C 0.87002 0.97070 1.08928
 C474 C 0.85824 0.95239 1.07727
 C475 C 0.83716 0.94479 1.08463
 H476 H 0.82899 0.95271 1.09883
 O477 O 1.08126 1.11183 1.02200
 O478 O 1.10733 1.13810 1.02200
 C479 C 1.08909 1.13012 1.02965
 C480 C 1.07709 1.14189 1.04798
 C481 C 1.08442 1.16298 1.05557
 H482 H 1.09860 1.17115 1.04761
 O483 O 0.91902 0.88853 1.02210
 O484 O 0.89293 0.86228 1.02214
 C485 C 0.91119 0.87023 1.02975
 C486 C 0.92323 0.85843 1.04803
 C487 C 0.91597 0.83729 1.05553
 H488 H 0.90181 0.82911 1.04754
 O489 O 1.08127 0.97820 1.11202
 O490 O 1.10739 0.97814 1.13826
 C491 C 1.08912 0.97053 1.13031
 C492 C 1.07711 0.95222 1.14210
 C493 C 1.08445 0.94461 1.16319
 H494 H 1.09865 0.95253 1.17135
 O495 O 0.91905 1.02210 1.11217
 O496 O 0.89297 1.02213 1.13846
 C497 C 0.91122 1.02976 1.13047
 C498 C 0.92323 1.04807 1.14224
 C499 C 0.91587 1.05573 1.16331
 H500 H 0.90165 1.04785 1.17148
 O501 O 0.97832 1.11176 1.08127
 O502 O 0.97831 1.13805 1.10734
 C503 C 0.97067 1.13005 1.08909
 C504 C 0.95236 1.14183 1.07706
 C505 C 0.94483 1.16295 1.08436
 H506 H 0.95280 1.17113 1.09853
 O507 O 1.02206 0.88829 1.08137
 O508 O 1.02204 0.86205 1.10750
 C509 C 1.02970 0.87001 1.08924
 C510 C 1.04804 0.85823 1.07727
 C511 C 1.05573 0.83721 1.08472
 H512 H 1.04783 0.82910 1.09897
 O513 O 1.11183 0.91899 1.02201
 O514 O 1.13808 0.89290 1.02199
 C515 C 1.13012 0.91115 1.02963
 C516 C 1.14193 0.92316 1.04793
 C517 C 1.16304 0.91583 1.05546
 H518 H 1.17119 0.90165 1.04749
 O519 O 0.88821 1.08120 1.02203
 O520 O 0.86200 1.10733 1.02214
 C521 C 0.86996 1.08906 1.02975
 C522 C 0.85822 1.07708 1.04811
 C523 C 0.83715 1.08442 1.05574
 H524 H 0.82896 1.09859 1.04779
 Cu525 Cu 1.00017 0.90632 1.09408
 Cu526 Cu 1.00010 0.87491 1.12552
 Cu527 Cu 1.00022 1.09384 1.09409
 Cu528 Cu 1.00023 1.12530 1.12547
 Cu529 Cu 0.90623 0.90650 1.00022
 Cu530 Cu 0.87480 0.87509 1.00025
 Cu531 Cu 1.09383 0.90620 1.00016
 Cu532 Cu 1.12524 0.87478 1.00010
 Cu533 Cu 0.90616 1.09395 1.00010
 Cu534 Cu 0.87480 1.12541 1.00021
 Cu535 Cu 1.09401 1.09385 1.00011
 Cu536 Cu 1.12540 1.12528 1.00006
 Cu537 Cu 0.90630 1.00023 1.09416
 Cu538 Cu 0.87490 1.00023 1.12562
 Cu539 Cu 1.09402 1.00008 1.09401
 Cu540 Cu 1.12547 1.00004 1.12541
 C541 C 1.05874 0.94154 1.13181
 H542 H 1.05317 0.94712 1.11542
 C543 C 1.07371 0.92655 1.17371
 C544 C 0.94162 1.05871 1.13194
 H545 H 0.94720 1.05310 1.11557
 C546 C 0.92661 1.07381 1.17380
 C547 C 0.86853 1.05875 1.05884
 H548 H 0.88491 1.05318 1.05325
 C549 C 0.82667 1.07375 1.07387
 C550 C 1.13166 0.94150 1.05867
 H551 H 1.11526 0.94706 1.05315
 C552 C 1.17359 0.92653 1.07352
 C553 C 1.05870 0.86846 1.05884
 H554 H 1.05306 0.88480 1.05319
 C555 C 1.07384 0.82672 1.07404
 C556 C 0.94161 1.13153 1.05873
 H557 H 0.94712 1.11511 1.05319
 C558 C 0.92679 1.17349 1.07363
 C559 C 0.94158 0.94162 1.13186
 H560 H 0.94715 0.94720 1.11547
 C561 C 0.92657 0.92661 1.17375
 C562 C 1.05882 1.05864 1.13183
 H563 H 1.05319 1.05303 1.11547
 C564 C 1.07396 1.07373 1.17363
 C565 C 0.94155 0.86872 1.05878
 H566 H 0.94706 0.88516 1.05329
 C567 C 0.92672 0.82672 1.07354
 C568 C 1.05875 1.13159 1.05871
 H569 H 1.05319 1.11520 1.05316
 C570 C 1.07372 1.17349 1.07365
 C571 C 0.86852 0.94170 1.05890
 H572 H 0.88491 0.94727 1.05332
 C573 C 0.82664 0.92673 1.07391
 C574 C 1.13179 1.05863 1.05870
 H575 H 1.11542 1.05303 1.05310
 C576 C 1.17361 1.07368 1.07377
 O577 O 0.97833 0.41870 0.38791
 O578 O 0.97831 0.39262 0.36164
 C579 C 0.97067 0.41087 0.36962
 C580 C 0.95235 0.42287 0.35785
 C581 C 0.94476 0.41556 0.33674
 H582 H 0.95271 0.40140 0.32855
 O583 O 1.02217 0.58090 0.38799
 O584 O 1.02217 0.60700 0.36172
 C585 C 1.02983 0.58876 0.36969
 C586 C 1.04816 0.57679 0.35790
 C587 C 1.05583 0.58424 0.33686
 H588 H 1.04792 0.59846 0.32874
 O589 O 0.88834 0.47780 0.41874
 O590 O 0.86212 0.47782 0.39262
 C591 C 0.87007 0.47016 0.41088
 C592 C 0.85828 0.45182 0.42285
 C593 C 0.83722 0.44420 0.41546
 H594 H 0.82907 0.45214 0.40126
 O595 O 1.11197 0.52166 0.41868
 O596 O 1.13825 0.52169 0.39260
 C597 C 1.13027 0.52931 0.41086
 C598 C 1.14204 0.54760 0.42290
 C599 C 1.16315 0.55516 0.41559
 H600 H 1.17133 0.54722 0.40140
 O601 O 0.91907 0.38789 0.47788
 O602 O 0.89298 0.36164 0.47784
 C603 C 0.91124 0.36962 0.47020
 C604 C 0.92324 0.35787 0.45185
 C605 C 0.91587 0.33682 0.44419
 H606 H 0.90167 0.32865 0.45210
 O607 O 1.08132 0.61158 0.47799
 O608 O 1.10742 0.63781 0.47794
 C609 C 1.08916 0.62986 0.47031
 C610 C 1.07716 0.64163 0.45199
 C611 C 1.08447 0.66273 0.44440
 H612 H 1.09865 0.67091 0.45234
 O613 O 0.91915 0.52158 0.38808
 O614 O 0.89308 0.52166 0.36180
 C615 C 0.91134 0.52926 0.36978
 C616 C 0.92338 0.54755 0.35800
 C617 C 0.91614 0.55507 0.33685
 H618 H 0.90199 0.54710 0.32865
 O619 O 1.08125 0.47793 0.38789
 O620 O 1.10736 0.47791 0.36164
 C621 C 1.08910 0.47027 0.36960
 C622 C 1.07712 0.45194 0.35782
 C623 C 1.08451 0.44432 0.33675
 H624 H 1.09870 0.45226 0.32859
 O625 O 1.02208 0.38799 0.41868
 O626 O 1.02214 0.36175 0.39257
 C627 C 1.02976 0.36971 0.41084
 C628 C 1.04807 0.35795 0.42285
 C629 C 1.05570 0.33688 0.41550
 H630 H 1.04778 0.32872 0.40130
 O631 O 0.97836 0.61161 0.41873
 O632 O 0.97832 0.63784 0.39261
 C633 C 0.97068 0.62988 0.41087
 C634 C 0.95236 0.64165 0.42287
 C635 C 0.94476 0.66273 0.41552
 H636 H 0.95271 0.67090 0.40133
 O637 O 0.88843 0.58084 0.47795
 O638 O 0.86216 0.60691 0.47792
 C639 C 0.87014 0.58865 0.47030
 C640 C 0.85835 0.57662 0.45201
 C641 C 0.83722 0.58388 0.44449
 H642 H 0.82903 0.59804 0.45246
 O643 O 1.11199 0.41874 0.47791
 O644 O 1.13823 0.39264 0.47789
 C645 C 1.13027 0.41089 0.47024
 C646 C 1.14204 0.42287 0.45188
 C647 C 1.16311 0.41551 0.44425
 H648 H 1.17128 0.40132 0.45218
 O649 O 0.97839 0.58080 0.38807
 O650 O 0.97835 0.60687 0.36179
 C651 C 0.97073 0.58862 0.36977
 C652 C 0.95244 0.57659 0.35799
 C653 C 0.94493 0.58384 0.33684
 H654 H 0.95291 0.59799 0.32863
 O655 O 1.02210 0.41869 0.38789
 O656 O 1.02215 0.39261 0.36163
 C657 C 1.02978 0.41086 0.36960
 C658 C 1.04810 0.42286 0.35782
 C659 C 1.05576 0.41550 0.33675
 H660 H 1.04786 0.40129 0.32858
 O661 O 1.11198 0.47789 0.41863
 O662 O 1.13825 0.47787 0.39253
 C663 C 1.13026 0.47023 0.41079
 C664 C 1.14203 0.45191 0.42280
 C665 C 1.16310 0.44428 0.41543
 H666 H 1.17126 0.45221 0.40122
 O667 O 0.88837 0.52157 0.41879
 O668 O 0.86214 0.52164 0.39267
 C669 C 0.87010 0.52925 0.41094
 C670 C 0.85833 0.54755 0.42297
 C671 C 0.83719 0.55508 0.41571
 H672 H 0.82898 0.54711 0.40156
 O673 O 0.91913 0.61160 0.47792
 O674 O 0.89302 0.63783 0.47788
 C675 C 0.91128 0.62987 0.47024
 C676 C 0.92328 0.64164 0.45192
 C677 C 0.91594 0.66272 0.44430
 H678 H 0.90175 0.67089 0.45224
 O679 O 1.08127 0.38801 0.47793
 O680 O 1.10734 0.36175 0.47791
 C681 C 1.08910 0.36973 0.47026
 C682 C 1.07711 0.35796 0.45193
 C683 C 1.08447 0.33689 0.44432
 H684 H 1.09866 0.32873 0.45226
 O685 O 1.08131 0.52170 0.38786
 O686 O 1.10743 0.52175 0.36162
 C687 C 1.08918 0.52939 0.36959
 C688 C 1.07721 0.54775 0.35784
 C689 C 1.08462 0.55546 0.33680
 H690 H 1.09884 0.54757 0.32863
 O691 O 0.91910 0.47782 0.38801
 O692 O 0.89303 0.47784 0.36173
 C693 C 0.91128 0.47020 0.36970
 C694 C 0.92328 0.45190 0.35790
 C695 C 0.91596 0.44434 0.33679
 H696 H 0.90177 0.45228 0.32862
 O697 O 1.02214 0.61157 0.41879
 O698 O 1.02214 0.63782 0.39268
 C699 C 1.02978 0.62986 0.41094
 C700 C 1.04809 0.64163 0.42294
 C701 C 1.05567 0.66273 0.41562
 H702 H 1.04771 0.67090 0.40144
 O703 O 0.97830 0.38796 0.41865
 O704 O 0.97829 0.36172 0.39253
 C705 C 0.97064 0.36968 0.41080
 C706 C 0.95231 0.35791 0.42278
 C707 C 0.94468 0.33686 0.41539
 H708 H 0.95261 0.32871 0.40118
 O709 O 1.11200 0.58080 0.47799
 O710 O 1.13827 0.60687 0.47794
 C711 C 1.13029 0.58863 0.47032
 C712 C 1.14205 0.57662 0.45199
 C713 C 1.16316 0.58392 0.44442
 H714 H 1.17135 0.59808 0.45238
 O715 O 0.88830 0.41858 0.47789
 O716 O 0.86205 0.39249 0.47785
 C717 C 0.87002 0.41074 0.47022
 C718 C 0.85826 0.42275 0.45189
 C719 C 0.83721 0.41539 0.44424
 H720 H 0.82904 0.40119 0.45216
 Cu721 Cu 1.00020 0.40595 0.40590
 Cu722 Cu 1.00023 0.37454 0.37446
 Cu723 Cu 1.00027 0.59361 0.40601
 Cu724 Cu 1.00024 0.62502 0.37456
 Cu725 Cu 0.90635 0.49969 0.40603
 Cu726 Cu 0.87496 0.49975 0.37457
 Cu727 Cu 1.09401 0.49980 0.40588
 Cu728 Cu 1.12545 0.49980 0.37446
 C729 C 0.94163 0.44119 0.36818
 H730 H 0.94719 0.44674 0.38459
 C731 C 0.92669 0.42629 0.32625
 C732 C 1.05883 0.55840 0.36814
 H733 H 1.05321 0.55276 0.38450
 C734 C 1.07393 0.57359 0.32634
 C735 C 0.86856 0.44112 0.44121
 H736 H 0.88493 0.44669 0.44681
 C737 C 0.82672 0.42611 0.42615
 C738 C 1.13174 0.55830 0.44126
 H739 H 1.11533 0.55276 0.44680
 C740 C 1.17368 0.57320 0.42634
 C741 C 0.94161 0.36817 0.44117
 H742 H 0.94720 0.38453 0.44678
 C743 C 0.92658 0.32635 0.42608
 C744 C 1.05881 0.63133 0.44129
 H745 H 1.05327 0.61493 0.44684
 C746 C 1.07373 0.67324 0.42634
 C747 C 0.94170 0.55828 0.36833
 H748 H 0.94719 0.55278 0.38477
 C749 C 0.92690 0.57309 0.32631
 C750 C 1.05877 0.44123 0.36811
 H751 H 1.05317 0.44682 0.38449
 C752 C 1.07384 0.42622 0.32625
 C753 C 1.05875 0.36824 0.44122
 H754 H 1.05317 0.38462 0.44680
 C755 C 1.07377 0.32639 0.42622
 C756 C 0.94164 0.63135 0.44122
 H757 H 0.94720 0.61497 0.44679
 C758 C 0.92667 0.67323 0.42623
 C759 C 0.86866 0.55830 0.44128
 H760 H 0.88509 0.55278 0.44678
 C761 C 0.82667 0.57312 0.42646
 C762 C 1.13174 0.44122 0.44118
 H763 H 1.11537 0.44680 0.44677
 C764 C 1.17360 0.42621 0.42614
 O765 O 1.02185 0.41874 0.61169
 O766 O 1.02191 0.39264 0.63795
 C767 C 1.02952 0.41090 0.62998
 C768 C 1.04784 0.42290 0.64175
 C769 C 1.05538 0.41560 0.66287
 H770 H 1.04740 0.40145 0.67106
 O771 O 0.97824 0.58085 0.61158
 O772 O 0.97819 0.60691 0.63787
 C773 C 0.97056 0.58867 0.62988
 C774 C 0.95225 0.57664 0.64165
 C775 C 0.94467 0.58395 0.66276
 H776 H 0.95261 0.59813 0.67094
 O777 O 0.88831 0.52158 0.58092
 O778 O 0.86204 0.52164 0.60701
 C779 C 0.87003 0.52926 0.58875
 C780 C 0.85829 0.54758 0.57674
 C781 C 0.83718 0.55516 0.58404
 H782 H 0.82897 0.54721 0.59820
 O783 O 1.11200 0.47786 0.58094
 O784 O 1.13820 0.47781 0.60709
 C785 C 1.13026 0.47019 0.58881
 C786 C 1.14204 0.45187 0.57682
 C787 C 1.16308 0.44422 0.58422
 H788 H 1.17122 0.45212 0.59844
 O789 O 1.08121 0.38806 0.52173
 O790 O 1.10728 0.36179 0.52177
 C791 C 1.08903 0.36977 0.52940
 C792 C 1.07700 0.35801 0.54772
 C793 C 1.08432 0.33691 0.55531
 H794 H 1.09850 0.32874 0.54737
 O795 O 0.91913 0.61162 0.52171
 O796 O 0.89302 0.63785 0.52173
 C797 C 0.91128 0.62990 0.52936
 C798 C 0.92329 0.64169 0.54766
 C799 C 0.91600 0.66281 0.55521
 H800 H 0.90184 0.67099 0.54725
 O801 O 0.91895 0.47778 0.61174
 O802 O 0.89282 0.47779 0.63797
 C803 C 0.91107 0.47013 0.63002
 C804 C 0.92300 0.45177 0.64180
 C805 C 0.91552 0.44406 0.66281
 H806 H 0.90128 0.45196 0.67093
 O807 O 1.08120 0.52161 0.61164
 O808 O 1.10724 0.52162 0.63796
 C809 C 1.08900 0.52925 0.62996
 C810 C 1.07695 0.54753 0.64174
 C811 C 1.08417 0.55503 0.66291
 H812 H 1.09831 0.54705 0.67113
 O813 O 0.97811 0.38794 0.58097
 O814 O 0.97813 0.36168 0.60707
 C815 C 0.97048 0.36964 0.58881
 C816 C 0.95217 0.35786 0.57682
 C817 C 0.94451 0.33682 0.58422
 H818 H 0.95241 0.32868 0.59846
 O819 O 1.02207 0.61162 0.58093
 O820 O 1.02209 0.63783 0.60708
 C821 C 1.02975 0.62989 0.58881
 C822 C 1.04810 0.64165 0.57684
 C823 C 1.05575 0.66270 0.58422
 H824 H 1.04782 0.67086 0.59842
 O825 O 0.88832 0.41860 0.52169
 O826 O 0.86206 0.39252 0.52172
 C827 C 0.87003 0.41077 0.52935
 C828 C 0.85825 0.42278 0.54768
 C829 C 0.83716 0.41546 0.55529
 H830 H 0.82899 0.40127 0.54735
 O831 O 1.11203 0.58085 0.52180
 O832 O 1.13829 0.60692 0.52181
 C833 C 1.13031 0.58868 0.52946
 C834 C 1.14207 0.57670 0.54781
 C835 C 1.16311 0.58409 0.55548
 H836 H 1.17126 0.59830 0.54756
 O837 O 1.02200 0.58082 0.61161
 O838 O 1.02201 0.60687 0.63792
 C839 C 1.02964 0.58862 0.62993
 C840 C 1.04790 0.57658 0.64173
 C841 C 1.05539 0.58381 0.66289
 H842 H 1.04740 0.59795 0.67110
 O843 O 0.97806 0.41861 0.61178
 O844 O 0.97807 0.39250 0.63803
 C845 C 0.97040 0.41074 0.63007
 C846 C 0.95203 0.42270 0.64183
 C847 C 0.94428 0.41525 0.66284
 H848 H 0.95214 0.40100 0.67098
 O849 O 1.11201 0.52163 0.58097
 O850 O 1.13821 0.52166 0.60712
 C851 C 1.13028 0.52930 0.58885
 C852 C 1.14205 0.54764 0.57688
 C853 C 1.16309 0.55531 0.58429
 H854 H 1.17123 0.54739 0.59851
 O855 O 0.88832 0.47780 0.58090
 O856 O 0.86204 0.47782 0.60698
 C857 C 0.87002 0.47016 0.58873
 C858 C 0.85825 0.45185 0.57673
 C859 C 0.83716 0.44426 0.58407
 H860 H 0.82898 0.45221 0.59825
 O861 O 1.08130 0.61157 0.52179
 O862 O 1.10741 0.63780 0.52179
 C863 C 1.08915 0.62985 0.52944
 C864 C 1.07717 0.64162 0.54778
 C865 C 1.08455 0.66267 0.55541
 H866 H 1.09876 0.67082 0.54748
 O867 O 0.91902 0.38785 0.52169
 O868 O 0.89293 0.36160 0.52172
 C869 C 0.91117 0.36957 0.52936
 C870 C 0.92315 0.35782 0.54772
 C871 C 0.91575 0.33678 0.55539
 H872 H 0.90155 0.32862 0.54748
 O873 O 1.08120 0.47785 0.61164
 O874 O 1.10724 0.47780 0.63795
 C875 C 1.08900 0.47019 0.62995
 C876 C 1.07695 0.45190 0.64173
 C877 C 1.08423 0.44432 0.66286
 H878 H 1.09841 0.45225 0.67105
 O879 O 0.91907 0.52156 0.61163
 O880 O 0.89296 0.52163 0.63789
 C881 C 0.91122 0.52924 0.62991
 C882 C 0.92322 0.54757 0.64168
 C883 C 0.91591 0.55514 0.66279
 H884 H 0.90174 0.54718 0.67099
 O885 O 0.97830 0.61163 0.58088
 O886 O 0.97825 0.63785 0.60701
 C887 C 0.97064 0.62991 0.58873
 C888 C 0.95235 0.64170 0.57672
 C889 C 0.94479 0.66281 0.58401
 H890 H 0.95276 0.67100 0.59817
 O891 O 1.02189 0.38800 0.58095
 O892 O 1.02196 0.36175 0.60706
 C893 C 1.02958 0.36973 0.58879
 C894 C 1.04792 0.35799 0.57677
 C895 C 1.05550 0.33689 0.58409
 H896 H 1.04754 0.32870 0.59827
 O897 O 1.11202 0.41871 0.52172
 O898 O 1.13825 0.39260 0.52176
 C899 C 1.13030 0.41086 0.52940
 C900 C 1.14206 0.42283 0.54774
 C901 C 1.16310 0.41544 0.55541
 H902 H 1.17126 0.40124 0.54749
 O903 O 0.88843 0.58086 0.52174
 O904 O 0.86216 0.60693 0.52176
 C905 C 0.87013 0.58868 0.52940
 C906 C 0.85834 0.57667 0.54770
 C907 C 0.83724 0.58398 0.55527
 H908 H 0.82907 0.59817 0.54732
 Cu909 Cu 0.99997 0.40594 0.59374
 Cu910 Cu 1.00003 0.37451 0.62516
 Cu911 Cu 1.00015 0.59363 0.59363
 Cu912 Cu 1.00013 0.62499 0.62511
 Cu913 Cu 0.90629 0.40584 0.49979
 Cu914 Cu 0.87488 0.37443 0.49978
 Cu915 Cu 1.09401 0.40600 0.49982
 Cu916 Cu 1.12541 0.37456 0.49983
 Cu917 Cu 0.90640 0.59362 0.49983
 Cu918 Cu 0.87496 0.62501 0.49982
 Cu919 Cu 1.09405 0.59359 0.49989
 Cu920 Cu 1.12548 0.62498 0.49986
 Cu921 Cu 0.90628 0.49967 0.59368
 Cu922 Cu 0.87483 0.49973 0.62510
 Cu923 Cu 1.09400 0.49974 0.59367
 Cu924 Cu 1.12535 0.49972 0.62516
 C925 C 1.05860 0.44121 0.63142
 H926 H 1.05307 0.44675 0.61500
 C927 C 1.07345 0.42630 0.67339
 C928 C 0.94155 0.55830 0.63135
 H929 H 0.94710 0.55275 0.61494
 C930 C 0.92662 0.57321 0.67330
 C931 C 0.86862 0.55831 0.55841
 H932 H 0.88503 0.55277 0.55288
 C933 C 0.82669 0.57324 0.57331
 C934 C 1.13178 0.44120 0.55843
 H935 H 1.11542 0.44680 0.55282
 C936 C 1.17358 0.42612 0.57352
 C937 C 1.05865 0.36830 0.55843
 H938 H 1.05310 0.38470 0.55288
 C939 C 1.07358 0.32639 0.57338
 C940 C 0.94162 0.63139 0.55839
 H941 H 0.94715 0.61497 0.55286
 C942 C 0.92675 0.67334 0.57326
 C943 C 0.94141 0.44111 0.63156
 H944 H 0.94709 0.44676 0.61523
 C945 C 0.92614 0.42592 0.67330
 C946 C 1.05866 0.55828 0.63139
 H947 H 1.05318 0.55279 0.61494
 C948 C 1.07340 0.57305 0.67345
 C949 C 0.94151 0.36811 0.55841
 H950 H 0.94711 0.38447 0.55279
 C951 C 0.92642 0.32632 0.57353
 C952 C 1.05879 0.63136 0.55847
 H953 H 1.05319 0.61499 0.55287
 C954 C 1.07385 0.67318 0.57351
 C955 C 0.86855 0.44112 0.55838
 H956 H 0.88495 0.44668 0.55282
 C957 C 0.82664 0.42619 0.57336
 C958 C 1.13179 0.55832 0.55849
 H959 H 1.11544 0.55272 0.55287
 C960 C 1.17359 0.57341 0.57360
 O961 O 0.47817 0.91931 0.38810
 O962 O 0.47814 0.89321 0.36185
 C963 C 0.47051 0.91147 0.36981
 C964 C 0.45220 0.92346 0.35803
 C965 C 0.44463 0.91611 0.33693
 H966 H 0.45258 0.90193 0.32877
 O967 O 0.52195 1.08139 0.38793
 O968 O 0.52198 1.10750 0.36167
 C969 C 0.52961 1.08924 0.36963
 C970 C 0.54793 1.07726 0.35785
 C971 C 0.55556 1.08464 0.33677
 H972 H 0.54763 1.09883 0.32861
 O973 O 0.38825 0.97852 0.41883
 O974 O 0.36200 0.97848 0.39273
 C975 C 0.36996 0.97086 0.41100
 C976 C 0.35817 0.95257 0.42303
 C977 C 0.33707 0.94501 0.41570
 H978 H 0.32891 0.95295 0.40151
 O979 O 0.61187 1.02224 0.41867
 O980 O 0.63813 1.02225 0.39256
 C981 C 0.63016 1.02988 0.41083
 C982 C 0.64195 1.04818 0.42285
 C983 C 0.66303 1.05579 0.41549
 H984 H 0.67119 1.04788 0.40127
 O985 O 0.41888 0.88858 0.47808
 O986 O 0.39277 0.86235 0.47803
 C987 C 0.41103 0.87031 0.47040
 C988 C 0.42304 0.85854 0.45207
 C989 C 0.41571 0.83746 0.44445
 H990 H 0.40152 0.82929 0.45239
 O991 O 0.58124 1.11205 0.47794
 O992 O 0.60732 1.13831 0.47790
 C993 C 0.58908 1.13033 0.47026
 C994 C 0.57710 1.14209 0.45190
 C995 C 0.58449 1.16313 0.44423
 H996 H 0.59870 1.17128 0.45214
 O997 O 0.41900 1.02225 0.38804
 O998 O 0.39291 1.02227 0.36178
 C999 C 0.41116 1.02991 0.36974
 C1000 C 0.42314 1.04823 0.35795
 C1001 C 0.41575 1.05584 0.33688
 H1002 H 0.40156 1.04790 0.32874
 O1003 O 0.58112 0.97848 0.38795
 O1004 O 0.60722 0.97842 0.36168
 C1005 C 0.58896 0.97079 0.36966
 C1006 C 0.57697 0.95245 0.35792
 C1007 C 0.58432 0.94480 0.33685
 H1008 H 0.59851 0.95271 0.32866
 O1009 O 0.52190 0.88856 0.41886
 O1010 O 0.52192 0.86229 0.39278
 C1011 C 0.52955 0.87026 0.41104
 C1012 C 0.54783 0.85849 0.42307
 C1013 C 0.55536 0.83735 0.41582
 H1014 H 0.54739 0.82915 0.40167
 O1015 O 0.47823 1.11213 0.41875
 O1016 O 0.47820 1.13840 0.39266
 C1017 C 0.47058 1.13043 0.41093
 C1018 C 0.45229 1.14221 0.42297
 C1019 C 0.44471 1.16331 0.41565
 H1020 H 0.45264 1.17148 0.40145
 O1021 O 0.38827 1.08150 0.47799
 O1022 O 0.36204 1.10761 0.47796
 C1023 C 0.37001 1.08936 0.47031
 C1024 C 0.35825 1.07739 0.45195
 C1025 C 0.33720 1.08478 0.44428
 H1026 H 0.32905 1.09899 0.45218
 O1027 O 0.61179 0.91934 0.47799
 O1028 O 0.63804 0.89324 0.47798
 C1029 C 0.63007 0.91149 0.47033
 C1030 C 0.64185 0.92347 0.45198
 C1031 C 0.66293 0.91612 0.44438
 H1032 H 0.67110 0.90194 0.45234
 O1033 O 0.47817 1.08144 0.38796
 O1034 O 0.47814 1.10754 0.36171
 C1035 C 0.47050 1.08929 0.36968
 C1036 C 0.45216 1.07730 0.35792
 C1037 C 0.44451 1.08466 0.33684
 H1038 H 0.45241 1.09886 0.32867
 O1039 O 0.52194 0.91927 0.38809
 O1040 O 0.52197 0.89316 0.36184
 C1041 C 0.52961 0.91141 0.36980
 C1042 C 0.54793 0.92339 0.35800
 C1043 C 0.55554 0.91601 0.33692
 H1044 H 0.54762 0.90180 0.32878
 O1045 O 0.61183 0.97848 0.41870
 O1046 O 0.63809 0.97842 0.39259
 C1047 C 0.63011 0.97080 0.41086
 C1048 C 0.64187 0.95249 0.42288
 C1049 C 0.66295 0.94487 0.41555
 H1050 H 0.67113 0.95280 0.40135
 O1051 O 0.38827 1.02229 0.41879
 O1052 O 0.36202 1.02231 0.39269
 C1053 C 0.37000 1.02996 0.41094
 C1054 C 0.35825 1.04831 0.42291
 C1055 C 0.33721 1.05596 0.41551
 H1056 H 0.32905 1.04804 0.40130
 O1057 O 0.41907 1.11216 0.47806
 O1058 O 0.39300 1.13843 0.47803
 C1059 C 0.41126 1.13045 0.47040
 C1060 C 0.42327 1.14222 0.45208
 C1061 C 0.41595 1.16332 0.44450
 H1062 H 0.40178 1.17150 0.45246
 O1063 O 0.58107 0.88861 0.47805
 O1064 O 0.60715 0.86235 0.47805
 C1065 C 0.58890 0.87031 0.47041
 C1066 C 0.57688 0.85851 0.45213
 C1067 C 0.58415 0.83738 0.44462
 H1068 H 0.59830 0.82919 0.45260
 O1069 O 0.58115 1.02225 0.38791
 O1070 O 0.60725 1.02226 0.36164
 C1071 C 0.58899 1.02990 0.36961
 C1072 C 0.57700 1.04823 0.35783
 C1073 C 0.58437 1.05587 0.33676
 H1074 H 0.59858 1.04796 0.32859
 O1075 O 0.41897 0.97848 0.38805
 O1076 O 0.39288 0.97844 0.36179
 C1077 C 0.41113 0.97081 0.36977
 C1078 C 0.42314 0.95249 0.35800
 C1079 C 0.41582 0.94488 0.33690
 H1080 H 0.40163 0.95280 0.32871
 O1081 O 0.52201 1.11208 0.41871
 O1082 O 0.52204 1.13834 0.39261
 C1083 C 0.52968 1.13035 0.41086
 C1084 C 0.54804 1.14209 0.42284
 C1085 C 0.55570 1.16314 0.41545
 H1086 H 0.54778 1.17129 0.40123
 O1087 O 0.47812 0.88859 0.41886
 O1088 O 0.47810 0.86233 0.39276
 C1089 C 0.47046 0.87031 0.41102
 C1090 C 0.45212 0.85855 0.42302
 C1091 C 0.44453 0.83747 0.41567
 H1092 H 0.45249 0.82930 0.40149
 O1093 O 0.61195 1.08130 0.47799
 O1094 O 0.63818 1.10740 0.47796
 C1095 C 0.63022 1.08915 0.47032
 C1096 C 0.64199 1.07717 0.45197
 C1097 C 0.66307 1.08451 0.44435
 H1098 H 0.67125 1.09868 0.45231
 O1099 O 0.38817 0.91934 0.47810
 O1100 O 0.36190 0.89327 0.47806
 C1101 C 0.36989 0.91152 0.47043
 C1102 C 0.35813 0.92354 0.45211
 C1103 C 0.33703 0.91623 0.44452
 H1104 H 0.32884 0.90206 0.45247
 Cu1105 Cu 0.50004 0.90655 0.40609
 Cu1106 Cu 0.50003 0.87512 0.37468
 Cu1107 Cu 0.50009 1.09414 0.40595
 Cu1108 Cu 0.50009 1.12558 0.37453
 Cu1109 Cu 0.40624 1.00038 0.40604
 Cu1110 Cu 0.37482 1.00037 0.37462
 Cu1111 Cu 0.59387 1.00037 0.40592
 Cu1112 Cu 0.62530 1.00033 0.37448
 C1113 C 0.44149 0.94181 0.36831
 H1114 H 0.44704 0.94738 0.38471
 C1115 C 0.42656 0.92681 0.32640
 C1116 C 0.55863 1.05890 0.36813
 H1117 H 0.55304 1.05330 0.38451
 C1118 C 0.57366 1.07396 0.32626
 C1119 C 0.36845 0.94186 0.44139
 H1120 H 0.38485 0.94740 0.44694
 C1121 C 0.32654 0.92696 0.42644
 C1122 C 0.63168 1.05885 0.44124
 H1123 H 0.61529 1.05328 0.44682
 C1124 C 0.67356 1.07383 0.42624
 C1125 C 0.44140 0.86884 0.44137
 H1126 H 0.44696 0.88523 0.44694
 C1127 C 0.42645 0.82696 0.42638
 C1128 C 0.55872 1.13181 0.44123
 H1129 H 0.55311 1.11546 0.44684
 C1130 C 0.57380 1.17362 0.42612
 C1131 C 0.44150 1.05893 0.36822
 H1132 H 0.44710 1.05335 0.38460
 C1133 C 0.42642 1.07394 0.32636
 C1134 C 0.55862 0.94177 0.36825
 H1135 H 0.55304 0.94737 0.38463
 C1136 C 0.57362 0.92669 0.32638
 C1137 C 0.55857 0.86882 0.44138
 H1138 H 0.55306 0.88525 0.44688
 C1139 C 0.57340 0.82683 0.42659
 C1140 C 0.44160 1.13192 0.44134
 H1141 H 0.44714 1.11552 0.44689
 C1142 C 0.42666 1.17382 0.42641
 C1143 C 0.36852 1.05900 0.44129
 H1144 H 0.38488 1.05339 0.44690
 C1145 C 0.32672 1.07408 0.42618
 C1146 C 0.63156 0.94181 0.44125
 H1147 H 0.61517 0.94738 0.44682
 C1148 C 0.67345 0.92681 0.42629
 O1149 O 0.52176 0.91932 0.61175
 O1150 O 0.52181 0.89324 0.63804
 C1151 C 0.52943 0.91150 0.63005
 C1152 C 0.54774 0.92352 0.64182
 C1153 C 0.55527 0.91623 0.66296
 H1154 H 0.54730 0.90207 0.67115
 O1155 O 0.47816 1.08137 0.61190
 O1156 O 0.47814 1.10749 0.63813
 C1157 C 0.47049 1.08923 0.63018
 C1158 C 0.45213 1.07728 0.64195
 C1159 C 0.44447 1.08469 0.66300
 H1160 H 0.45241 1.09888 0.67115
 O1161 O 0.38819 1.02225 0.58107
 O1162 O 0.36191 1.02230 0.60716
 C1163 C 0.36990 1.02991 0.58889
 C1164 C 0.35813 1.04820 0.57683
 C1165 C 0.33701 1.05575 0.58410
 H1166 H 0.32880 1.04781 0.59826
 O1167 O 0.61181 0.97856 0.58106
 O1168 O 0.63806 0.97847 0.60717
 C1169 C 0.63009 0.97088 0.58889
 C1170 C 0.64187 0.95259 0.57684
 C1171 C 0.66300 0.94505 0.58411
 H1172 H 0.67119 0.95300 0.59828
 O1173 O 0.58106 0.88866 0.52185
 O1174 O 0.60715 0.86241 0.52189
 C1175 C 0.58889 0.87038 0.52952
 C1176 C 0.57688 0.85860 0.54784
 C1177 C 0.58419 0.83750 0.55541
 H1178 H 0.59837 0.82933 0.54746
 O1179 O 0.41898 1.11216 0.52187
 O1180 O 0.39290 1.13841 0.52190
 C1181 C 0.41114 1.13043 0.52955
 C1182 C 0.42311 1.14217 0.54793
 C1183 C 0.41570 1.16320 0.55562
 H1184 H 0.40149 1.17136 0.54771
 O1185 O 0.41889 0.97851 0.61187
 O1186 O 0.39279 0.97850 0.63813
 C1187 C 0.41104 0.97086 0.63017
 C1188 C 0.42302 0.95253 0.64194
 C1189 C 0.41566 0.94491 0.66302
 H1190 H 0.40147 0.95285 0.67120
 O1191 O 0.58112 1.02231 0.61187
 O1192 O 0.60721 1.02227 0.63814
 C1193 C 0.58897 1.02994 0.63017
 C1194 C 0.57702 1.04828 0.64196
 C1195 C 0.58446 1.05594 0.66299
 H1196 H 0.59868 1.04803 0.67112
 O1197 O 0.47799 0.88852 0.58108
 O1198 O 0.47799 0.86228 0.60720
 C1199 C 0.47034 0.87024 0.58894
 C1200 C 0.45201 0.85847 0.57695
 C1201 C 0.44437 0.83741 0.58432
 H1202 H 0.45228 0.82924 0.59853
 O1203 O 0.52193 1.11204 0.58107
 O1204 O 0.52197 1.13833 0.60713
 C1205 C 0.52959 1.13033 0.58887
 C1206 C 0.54789 1.14210 0.57681
 C1207 C 0.55546 1.16321 0.58408
 H1208 H 0.54751 1.17141 0.59826
 O1209 O 0.38816 0.91930 0.52191
 O1210 O 0.36190 0.89323 0.52192
 C1211 C 0.36988 0.91146 0.52958
 C1212 C 0.35812 0.92344 0.54793
 C1213 C 0.33707 0.91604 0.55560
 H1214 H 0.32892 0.90183 0.54768
 O1215 O 0.61198 1.08140 0.52181
 O1216 O 0.63821 1.10751 0.52184
 C1217 C 0.63025 1.08927 0.52950
 C1218 C 0.64198 1.07732 0.54789
 C1219 C 0.66299 1.08474 0.55562
 H1220 H 0.67115 1.09896 0.54772
 O1221 O 0.52195 1.08144 0.61196
 O1222 O 0.52200 1.10757 0.63819
 C1223 C 0.52963 1.08931 0.63024
 C1224 C 0.54798 1.07734 0.64200
 C1225 C 0.55569 1.08475 0.66304
 H1226 H 0.54781 1.09898 0.67119
 O1227 O 0.47799 0.91927 0.61181
 O1228 O 0.47798 0.89319 0.63809
 C1229 C 0.47034 0.91144 0.63012
 C1230 C 0.45203 0.92344 0.64191
 C1231 C 0.44441 0.91609 0.66300
 H1232 H 0.45232 0.90188 0.67116
 O1233 O 0.61183 1.02232 0.58110
 O1234 O 0.63807 1.02229 0.60721
 C1235 C 0.63012 1.02996 0.58896
 C1236 C 0.64191 1.04829 0.57699
 C1237 C 0.66292 1.05597 0.58444
 H1238 H 0.67102 1.04808 0.59870
 O1239 O 0.38815 0.97848 0.58115
 O1240 O 0.36188 0.97847 0.60725
 C1241 C 0.36986 0.97082 0.58900
 C1242 C 0.35811 0.95248 0.57701
 C1243 C 0.33706 0.94481 0.58441
 H1244 H 0.32890 0.95271 0.59863
 O1245 O 0.58113 1.11201 0.52175
 O1246 O 0.60720 1.13828 0.52177
 C1247 C 0.58894 1.13030 0.52940
 C1248 C 0.57692 1.14208 0.54771
 C1249 C 0.58421 1.16319 0.55524
 H1250 H 0.59837 1.17137 0.54726
 O1251 O 0.41886 0.88854 0.52188
 O1252 O 0.39275 0.86231 0.52189
 C1253 C 0.41100 0.87026 0.52954
 C1254 C 0.42298 0.85848 0.54787
 C1255 C 0.41560 0.83743 0.55550
 H1256 H 0.40141 0.82927 0.54756
 O1257 O 0.58102 0.97854 0.61177
 O1258 O 0.60711 0.97844 0.63804
 C1259 C 0.58884 0.97085 0.63005
 C1260 C 0.57680 0.95255 0.64182
 C1261 C 0.58408 0.94499 0.66296
 H1262 H 0.59824 0.95294 0.67116
 O1263 O 0.41887 1.02228 0.61188
 O1264 O 0.39275 1.02234 0.63813
 C1265 C 0.41101 1.02997 0.63016
 C1266 C 0.42301 1.04829 0.64194
 C1267 C 0.41562 1.05597 0.66299
 H1268 H 0.40138 1.04809 0.67114
 O1269 O 0.47815 1.11210 0.58116
 O1270 O 0.47814 1.13837 0.60723
 C1271 C 0.47049 1.13039 0.58899
 C1272 C 0.45215 1.14214 0.57700
 C1273 C 0.44449 1.16317 0.58442
 H1274 H 0.45239 1.17131 0.59864
 O1275 O 0.52177 0.88858 0.58104
 O1276 O 0.52183 0.86233 0.60715
 C1277 C 0.52945 0.87030 0.58888
 C1278 C 0.54779 0.85855 0.57687
 C1279 C 0.55536 0.83745 0.58418
 H1280 H 0.54740 0.82926 0.59835
 O1281 O 0.61179 0.91938 0.52180
 O1282 O 0.63805 0.89330 0.52184
 C1283 C 0.63008 0.91155 0.52946
 C1284 C 0.64186 0.92357 0.54776
 C1285 C 0.66299 0.91629 0.55528
 H1286 H 0.67118 0.90214 0.54730
 O1287 O 0.38828 1.08141 0.52180
 O1288 O 0.36203 1.10750 0.52181
 C1289 C 0.36998 1.08924 0.52944
 C1290 C 0.35818 1.07722 0.54774
 C1291 C 0.33705 1.08451 0.55526
 H1292 H 0.32887 1.09867 0.54728
 Cu1293 Cu 0.49987 0.90653 0.59380
 Cu1294 Cu 0.49991 0.87513 0.62525
 Cu1295 Cu 0.50005 1.09411 0.59392
 Cu1296 Cu 0.50007 1.12557 0.62530
 Cu1297 Cu 0.40614 0.90655 0.49999
 Cu1298 Cu 0.37470 0.87516 0.49997
 Cu1299 Cu 0.59381 0.90661 0.49992
 Cu1300 Cu 0.62523 0.87520 0.49994
 Cu1301 Cu 0.40627 1.09419 0.49993
 Cu1302 Cu 0.37486 1.12562 0.49993
 Cu1303 Cu 0.59397 1.09407 0.49987
 Cu1304 Cu 0.62536 1.12551 0.49987
 Cu1305 Cu 0.40614 1.00038 0.59388
 Cu1306 Cu 0.37470 1.00041 0.62530
 Cu1307 Cu 0.59383 1.00044 0.59383
 Cu1308 Cu 0.62524 1.00035 0.62527
 C1309 C 0.55848 0.94183 0.63150
 H1310 H 0.55296 0.94736 0.61507
 C1311 C 0.57332 0.92696 0.67349
 C1312 C 0.44142 1.05893 0.63166
 H1313 H 0.44703 1.05331 0.61530
 C1314 C 0.42634 1.07405 0.67349
 C1315 C 0.36847 1.05891 0.55850
 H1316 H 0.38490 1.05338 0.55299
 C1317 C 0.32650 1.07379 0.57332
 C1318 C 0.63155 0.94188 0.55851
 H1319 H 0.61513 0.94740 0.55300
 C1320 C 0.67352 0.92702 0.57333
 C1321 C 0.55852 0.86888 0.55855
 H1322 H 0.55297 0.88528 0.55300
 C1323 C 0.57344 0.82696 0.57346
 C1324 C 0.44148 1.13189 0.55860
 H1325 H 0.44710 1.11554 0.55297
 C1326 C 0.42638 1.17367 0.57374
 C1327 C 0.44136 0.94182 0.63163
 H1328 H 0.44694 0.94739 0.61524
 C1329 C 0.42634 0.92681 0.67352
 C1330 C 0.55863 1.05895 0.63172
 H1331 H 0.55299 1.05333 0.61537
 C1332 C 0.57381 1.07406 0.67350
 C1333 C 0.44134 0.86876 0.55857
 H1334 H 0.44693 0.88513 0.55299
 C1335 C 0.42628 0.82692 0.57360
 C1336 C 0.55860 1.13177 0.55847
 H1337 H 0.55307 1.11536 0.55295
 C1338 C 0.57349 1.17373 0.57330
 C1339 C 0.36839 0.94181 0.55862
 H1340 H 0.38475 0.94742 0.55301
 C1341 C 0.32658 0.92671 0.57372
 C1342 C 0.63169 1.05894 0.55856
 H1343 H 0.61535 1.05332 0.55290
 C1344 C 0.67343 1.07408 0.57378
 O1345 O 0.47801 0.41854 0.88819
 O1346 O 0.47804 0.39246 0.86192
 C1347 C 0.47037 0.41069 0.86990
 C1348 C 0.45202 0.42265 0.85812
 C1349 C 0.44435 0.41523 0.83708
 H1350 H 0.45226 0.40102 0.82894
 O1351 O 0.52163 0.58080 0.88833
 O1352 O 0.52168 0.60687 0.86204
 C1353 C 0.52931 0.58862 0.87003
 C1354 C 0.54764 0.57663 0.85828
 C1355 C 0.55522 0.58393 0.83716
 H1356 H 0.54725 0.59809 0.82896
 O1357 O 0.38814 0.47769 0.91897
 O1358 O 0.36185 0.47767 0.89290
 C1359 C 0.36984 0.47004 0.91115
 C1360 C 0.35807 0.45175 0.92319
 C1361 C 0.33695 0.44418 0.91591
 H1362 H 0.32876 0.45213 0.90174
 O1363 O 0.61164 0.52161 0.91913
 O1364 O 0.63789 0.52170 0.89301
 C1365 C 0.62991 0.52930 0.91128
 C1366 C 0.64166 0.54762 0.92330
 C1367 C 0.66277 0.55520 0.91600
 H1368 H 0.67098 0.54724 0.90184
 O1369 O 0.41884 0.38778 0.97819
 O1370 O 0.39275 0.36154 0.97817
 C1371 C 0.41100 0.36951 0.97052
 C1372 C 0.42298 0.35776 0.95216
 C1373 C 0.41559 0.33672 0.94447
 H1374 H 0.40137 0.32857 0.95237
 O1375 O 0.58072 0.61160 0.97826
 O1376 O 0.60681 0.63785 0.97822
 C1377 C 0.58856 0.62989 0.97059
 C1378 C 0.57655 0.64166 0.95227
 C1379 C 0.58384 0.66277 0.94471
 H1380 H 0.59800 0.67096 0.95268
 O1381 O 0.41883 0.52147 0.88818
 O1382 O 0.39271 0.52150 0.86195
 C1383 C 0.41097 0.52914 0.86990
 C1384 C 0.42293 0.54749 0.85813
 C1385 C 0.41557 0.55510 0.83706
 H1386 H 0.40139 0.54715 0.82888
 O1387 O 0.58094 0.47786 0.88835
 O1388 O 0.60702 0.47791 0.86206
 C1389 C 0.58878 0.47024 0.87003
 C1390 C 0.57679 0.45195 0.85823
 C1391 C 0.58412 0.44442 0.83710
 H1392 H 0.59828 0.45241 0.82893
 O1393 O 0.52182 0.38787 0.91896
 O1394 O 0.52190 0.36164 0.89285
 C1395 C 0.52951 0.36961 0.91112
 C1396 C 0.54785 0.35786 0.92312
 C1397 C 0.55551 0.33681 0.91574
 H1398 H 0.54761 0.32865 0.90152
 O1399 O 0.47780 0.61154 0.91898
 O1400 O 0.47779 0.63778 0.89286
 C1401 C 0.47014 0.62982 0.91112
 C1402 C 0.45181 0.64158 0.92312
 C1403 C 0.44418 0.66265 0.91576
 H1404 H 0.45210 0.67081 0.90155
 O1405 O 0.38809 0.58070 0.97828
 O1406 O 0.36178 0.60673 0.97822
 C1407 C 0.36979 0.58848 0.97061
 C1408 C 0.35804 0.57643 0.95231
 C1409 C 0.33690 0.58366 0.94479
 H1410 H 0.32868 0.59780 0.95277
 O1411 O 0.61180 0.41859 0.97815
 O1412 O 0.63806 0.39251 0.97813
 C1413 C 0.63009 0.41075 0.97047
 C1414 C 0.64183 0.42272 0.95210
 C1415 C 0.66283 0.41529 0.94433
 H1416 H 0.67097 0.40104 0.95219
 O1417 O 0.47786 0.58080 0.88825
 O1418 O 0.47784 0.60687 0.86196
 C1419 C 0.47021 0.58862 0.86994
 C1420 C 0.45192 0.57660 0.85815
 C1421 C 0.44429 0.58395 0.83707
 H1422 H 0.45219 0.59817 0.82892
 O1423 O 0.52179 0.41863 0.88823
 O1424 O 0.52188 0.39255 0.86195
 C1425 C 0.52947 0.41081 0.86994
 C1426 C 0.54778 0.42286 0.85817
 C1427 C 0.55538 0.41559 0.83705
 H1428 H 0.54745 0.40142 0.82884
 O1429 O 0.61174 0.47782 0.91902
 O1430 O 0.63797 0.47786 0.89288
 C1431 C 0.63002 0.47018 0.91114
 C1432 C 0.64179 0.45182 0.92306
 C1433 C 0.66279 0.44412 0.91557
 H1434 H 0.67090 0.45203 0.90132
 O1435 O 0.38816 0.52146 0.91899
 O1436 O 0.36187 0.52149 0.89293
 C1437 C 0.36986 0.52911 0.91119
 C1438 C 0.35807 0.54739 0.92323
 C1439 C 0.33692 0.55489 0.91598
 H1440 H 0.32873 0.54692 0.90182
 O1441 O 0.41870 0.61155 0.97826
 O1442 O 0.39254 0.63773 0.97819
 C1443 C 0.41082 0.62980 0.97057
 C1444 C 0.42279 0.64157 0.95222
 C1445 C 0.41542 0.66264 0.94460
 H1446 H 0.40123 0.67079 0.95256
 O1447 O 0.58102 0.38792 0.97819
 O1448 O 0.60712 0.36168 0.97819
 C1449 C 0.58887 0.36964 0.97054
 C1450 C 0.57689 0.35787 0.95220
 C1451 C 0.58428 0.33683 0.94455
 H1452 H 0.59849 0.32868 0.95247
 O1453 O 0.58093 0.52162 0.88837
 O1454 O 0.60702 0.52172 0.86209
 C1455 C 0.58875 0.52931 0.87007
 C1456 C 0.57672 0.54761 0.85830
 C1457 C 0.58403 0.55518 0.83718
 H1458 H 0.59822 0.54725 0.82900
 O1459 O 0.41883 0.47769 0.88817
 O1460 O 0.39271 0.47766 0.86194
 C1461 C 0.41097 0.47002 0.86989
 C1462 C 0.42294 0.45168 0.85812
 C1463 C 0.41554 0.44399 0.83708
 H1464 H 0.40131 0.45188 0.82893
 O1465 O 0.52157 0.61157 0.91902
 O1466 O 0.52162 0.63781 0.89289
 C1467 C 0.52923 0.62985 0.91117
 C1468 C 0.54752 0.64164 0.92319
 C1469 C 0.55508 0.66276 0.91589
 H1470 H 0.54712 0.67094 0.90172
 O1471 O 0.47803 0.38784 0.91896
 O1472 O 0.47806 0.36160 0.89285
 C1473 C 0.47039 0.36956 0.91111
 C1474 C 0.45205 0.35778 0.92309
 C1475 C 0.44440 0.33675 0.91567
 H1476 H 0.45232 0.32862 0.90145
 O1477 O 0.61148 0.58091 0.97826
 O1478 O 0.63774 0.60699 0.97823
 C1479 C 0.62978 0.58873 0.97061
 C1480 C 0.64158 0.57671 0.95232
 C1481 C 0.66269 0.58402 0.94476
 H1482 H 0.67085 0.59821 0.95270
 O1483 O 0.38815 0.41855 0.97824
 O1484 O 0.36190 0.39246 0.97823
 C1485 C 0.36986 0.41071 0.97059
 C1486 C 0.35808 0.42272 0.95228
 C1487 C 0.33696 0.41542 0.94474
 H1488 H 0.32878 0.40126 0.95272
 Cu1489 Cu 0.49991 0.40583 0.90620
 Cu1490 Cu 0.49998 0.37443 0.87476
 Cu1491 Cu 0.49971 0.59357 0.90626
 Cu1492 Cu 0.49973 0.62496 0.87480
 Cu1493 Cu 0.40611 0.49957 0.90618
 Cu1494 Cu 0.37465 0.49958 0.87480
 Cu1495 Cu 0.59370 0.49972 0.90634
 Cu1496 Cu 0.62511 0.49981 0.87488
 C1497 C 0.44134 0.44103 0.86839
 H1498 H 0.44695 0.44665 0.88475
 C1499 C 0.42623 0.42589 0.82659
 C1500 C 0.55837 0.55831 0.86860
 H1501 H 0.55283 0.55277 0.88502
 C1502 C 0.57329 0.57322 0.82664
 C1503 C 0.36838 0.44104 0.94153
 H1504 H 0.38480 0.44657 0.94705
 C1505 C 0.32643 0.42614 0.92668
 C1506 C 0.63131 0.55836 0.94161
 H1507 H 0.61490 0.55281 0.94714
 C1508 C 0.67325 0.57328 0.92672
 C1509 C 0.44137 0.36804 0.94149
 H1510 H 0.44697 0.38439 0.94711
 C1511 C 0.42629 0.32626 0.92635
 C1512 C 0.55824 0.63134 0.94154
 H1513 H 0.55271 0.61493 0.94707
 C1514 C 0.57311 0.67329 0.92665
 C1515 C 0.44126 0.55821 0.86844
 H1516 H 0.44685 0.55263 0.88482
 C1517 C 0.42624 0.57322 0.82656
 C1518 C 0.55846 0.44119 0.86852
 H1519 H 0.55290 0.44670 0.88493
 C1520 C 0.57343 0.42637 0.82655
 C1521 C 0.55852 0.36814 0.94150
 H1522 H 0.55291 0.38450 0.94710
 C1523 C 0.57361 0.32633 0.92644
 C1524 C 0.44114 0.63129 0.94150
 H1525 H 0.44673 0.61492 0.94708
 C1526 C 0.42610 0.67314 0.92650
 C1527 C 0.36839 0.55814 0.94155
 H1528 H 0.38482 0.55265 0.94706
 C1529 C 0.32637 0.57291 0.92675
 C1530 C 0.63156 0.44114 0.94148
 H1531 H 0.61524 0.44678 0.94716
 C1532 C 0.67328 0.42597 0.92618
 O1533 O 0.52177 0.41859 1.11207
 O1534 O 0.52179 0.39249 1.13833
 C1535 C 0.52942 0.41074 1.13036
 C1536 C 0.54775 0.42273 1.14213
 C1537 C 0.55541 0.41533 1.16318
 H1538 H 0.54751 0.40111 1.17134
 O1539 O 0.47780 0.58085 1.11195
 O1540 O 0.47776 0.60691 1.13825
 C1541 C 0.47014 0.58866 1.13026
 C1542 C 0.45183 0.57665 1.14204
 C1543 C 0.44422 0.58399 1.16313
 H1544 H 0.45215 0.59818 1.17129
 O1545 O 0.38797 0.52156 1.08125
 O1546 O 0.36171 0.52155 1.10737
 C1547 C 0.36968 0.52921 1.08911
 C1548 C 0.35791 0.54754 1.07712
 C1549 C 0.33686 0.55520 1.08452
 H1550 H 0.32870 0.54729 1.09874
 O1551 O 0.61155 0.47783 1.08123
 O1552 O 0.63781 0.47786 1.10732
 C1553 C 0.62986 0.47021 1.08906
 C1554 C 0.64168 0.45194 1.07704
 C1555 C 0.66279 0.44441 1.08435
 H1556 H 0.67095 0.45238 1.09854
 O1557 O 0.58105 0.38792 1.02200
 O1558 O 0.60716 0.36169 1.02206
 C1559 C 0.58890 0.36965 1.02969
 C1560 C 0.57692 0.35790 1.04806
 C1561 C 0.58431 0.33685 1.05572
 H1562 H 0.59852 0.32870 1.04780
 O1563 O 0.41869 0.61157 1.02206
 O1564 O 0.39254 0.63777 1.02205
 C1565 C 0.41081 0.62984 1.02971
 C1566 C 0.42277 0.64163 1.04804
 C1567 C 0.41541 0.66271 1.05565
 H1568 H 0.40122 0.67086 1.04770
 O1569 O 0.41876 0.47781 1.11197
 O1570 O 0.39266 0.47774 1.13823
 C1571 C 0.41093 0.47013 1.13026
 C1572 C 0.42293 0.45181 1.14203
 C1573 C 0.41557 0.44421 1.16312
 H1574 H 0.40138 0.45215 1.17129
 O1575 O 0.58074 0.52155 1.11197
 O1576 O 0.60683 0.52163 1.13823
 C1577 C 0.58856 0.52923 1.13025
 C1578 C 0.57653 0.54752 1.14203
 C1579 C 0.58379 0.55505 1.16318
 H1580 H 0.59794 0.54708 1.17138
 O1581 O 0.47805 0.38785 1.08127
 O1582 O 0.47801 0.36159 1.10737
 C1583 C 0.47039 0.36956 1.08910
 C1584 C 0.45210 0.35777 1.07707
 C1585 C 0.44451 0.33668 1.08440
 H1586 H 0.45244 0.32851 1.09860
 O1587 O 0.52158 0.61163 1.08125
 O1588 O 0.52160 0.63784 1.10740
 C1589 C 0.52924 0.62990 1.08912
 C1590 C 0.54757 0.64168 1.07714
 C1591 C 0.55518 0.66275 1.08451
 H1592 H 0.54725 0.67090 1.09871
 O1593 O 0.38813 0.41850 1.02204
 O1594 O 0.36189 0.39240 1.02209
 C1595 C 0.36985 0.41066 1.02972
 C1596 C 0.35807 0.42265 1.04805
 C1597 C 0.33701 0.41529 1.05569
 H1598 H 0.32885 0.40108 1.04778
 O1599 O 0.61142 0.58087 1.02205
 O1600 O 0.63769 0.60694 1.02207
 C1601 C 0.62971 0.58869 1.02971
 C1602 C 0.64150 0.57666 1.04800
 C1603 C 0.66264 0.58393 1.05551
 H1604 H 0.67082 0.59809 1.04753
 O1605 O 0.52156 0.58082 1.11192
 O1606 O 0.52158 0.60687 1.13823
 C1607 C 0.52921 0.58862 1.13023
 C1608 C 0.54749 0.57658 1.14202
 C1609 C 0.55502 0.58385 1.16316
 H1610 H 0.54705 0.59800 1.17136
 O1611 O 0.47799 0.41860 1.11199
 O1612 O 0.47794 0.39251 1.13826
 C1613 C 0.47031 0.41076 1.13028
 C1614 C 0.45197 0.42275 1.14205
 C1615 C 0.44434 0.41541 1.16314
 H1616 H 0.45226 0.40122 1.17132
 O1617 O 0.61151 0.52160 1.08125
 O1618 O 0.63777 0.52168 1.10735
 C1619 C 0.62979 0.52929 1.08908
 C1620 C 0.64154 0.54760 1.07705
 C1621 C 0.66268 0.55514 1.08430
 H1622 H 0.67089 0.54716 1.09845
 O1623 O 0.38804 0.47778 1.08122
 O1624 O 0.36178 0.47772 1.10733
 C1625 C 0.36977 0.47009 1.08907
 C1626 C 0.35803 0.45174 1.07708
 C1627 C 0.33697 0.44411 1.08445
 H1628 H 0.32879 0.45205 1.09864
 O1629 O 0.58076 0.61166 1.02206
 O1630 O 0.60687 0.63790 1.02208
 C1631 C 0.58861 0.62994 1.02973
 C1632 C 0.57662 0.64170 1.04807
 C1633 C 0.58398 0.66277 1.05570
 H1634 H 0.59817 0.67093 1.04777
 O1635 O 0.41891 0.38781 1.02200
 O1636 O 0.39282 0.36156 1.02204
 C1637 C 0.41107 0.36953 1.02967
 C1638 C 0.42308 0.35776 1.04799
 C1639 C 0.41576 0.33667 1.05558
 H1640 H 0.40158 0.32849 1.04762
 O1641 O 0.58088 0.47778 1.11205
 O1642 O 0.60698 0.47780 1.13830
 C1643 C 0.58874 0.47013 1.13034
 C1644 C 0.57678 0.45178 1.14212
 C1645 C 0.58419 0.44412 1.16317
 H1646 H 0.59840 0.45203 1.17132
 O1647 O 0.41869 0.52158 1.11200
 O1648 O 0.39260 0.52157 1.13827
 C1649 C 0.41084 0.52923 1.13030
 C1650 C 0.42281 0.54757 1.14207
 C1651 C 0.41546 0.55518 1.16316
 H1652 H 0.40129 0.54723 1.17135
 O1653 O 0.47781 0.61162 1.08124
 O1654 O 0.47777 0.63783 1.10737
 C1655 C 0.47014 0.62988 1.08910
 C1656 C 0.45182 0.64165 1.07711
 C1657 C 0.44419 0.66272 1.08446
 H1658 H 0.45212 0.67089 1.09865
 O1659 O 0.52183 0.38792 1.08127
 O1660 O 0.52185 0.36166 1.10737
 C1661 C 0.52950 0.36964 1.08911
 C1662 C 0.54785 0.35790 1.07713
 C1663 C 0.55551 0.33685 1.08452
 H1664 H 0.54759 0.32870 1.09874
 O1665 O 0.61173 0.41869 1.02195
 O1666 O 0.63801 0.39263 1.02201
 C1667 C 0.63002 0.41088 1.02963
 C1668 C 0.64176 0.42291 1.04795
 C1669 C 0.66288 0.41564 1.05554
 H1670 H 0.67110 0.40150 1.04758
 O1671 O 0.38801 0.58079 1.02208
 O1672 O 0.36171 0.60683 1.02208
 C1673 C 0.36970 0.58860 1.02973
 C1674 C 0.35793 0.57661 1.04807
 C1675 C 0.33689 0.58399 1.05573
 H1676 H 0.32874 0.59821 1.04781
 Cu1677 Cu 0.49991 0.40585 1.09404
 Cu1678 Cu 0.49989 0.37443 1.12546
 Cu1679 Cu 0.49969 0.59362 1.09397
 Cu1680 Cu 0.49968 0.62499 1.12545
 Cu1681 Cu 0.40612 0.40577 1.00012
 Cu1682 Cu 0.37471 0.37436 1.00013
 Cu1683 Cu 0.59379 0.40589 1.00007
 Cu1684 Cu 0.62522 0.37450 1.00010
 Cu1685 Cu 0.40599 0.59354 1.00018
 Cu1686 Cu 0.37451 0.62489 1.00013
 Cu1687 Cu 0.59348 0.59365 1.00016
 Cu1688 Cu 0.62491 0.62505 1.00015
 Cu1689 Cu 0.40598 0.49969 1.09399
 Cu1690 Cu 0.37456 0.49964 1.12543
 Cu1691 Cu 0.59355 0.49968 1.09401
 Cu1692 Cu 0.62498 0.49975 1.12543
 C1693 C 0.55841 0.44111 1.13185
 H1694 H 0.55279 0.44672 1.11549
 C1695 C 0.57352 0.42601 1.17367
 C1696 C 0.44115 0.55828 1.13175
 H1697 H 0.44673 0.55272 1.11536
 C1698 C 0.42616 0.57327 1.17366
 C1699 C 0.36820 0.55823 1.05875
 H1700 H 0.38456 0.55262 1.05314
 C1701 C 0.32639 0.57331 1.07383
 C1702 C 0.63141 0.44121 1.05868
 H1703 H 0.61499 0.44672 1.05313
 C1704 C 0.67336 0.42639 1.07361
 C1705 C 0.55854 0.36817 1.05874
 H1706 H 0.55293 0.38453 1.05313
 C1707 C 0.57361 0.32637 1.07383
 C1708 C 0.44113 0.63136 1.05875
 H1709 H 0.44671 0.61498 1.05317
 C1710 C 0.42611 0.67322 1.07374
 C1711 C 0.44128 0.44111 1.13174
 H1712 H 0.44686 0.44668 1.11535
 C1713 C 0.42626 0.42613 1.17364
 C1714 C 0.55822 0.55826 1.13170
 H1715 H 0.55272 0.55275 1.11526
 C1716 C 0.57304 0.57309 1.17370
 C1717 C 0.44141 0.36806 1.05871
 H1718 H 0.44696 0.38446 1.05315
 C1719 C 0.42646 0.32616 1.07366
 C1720 C 0.55826 0.63141 1.05876
 H1721 H 0.55269 0.61504 1.05317
 C1722 C 0.57327 0.67326 1.07380
 C1723 C 0.36834 0.44104 1.05873
 H1724 H 0.38471 0.44663 1.05314
 C1725 C 0.32649 0.42601 1.07377
 C1726 C 0.63120 0.55834 1.05875
 H1727 H 0.61477 0.55283 1.05324
 C1728 C 0.67319 0.57318 1.07354
 C1729 C 1.13296 1.10338 1.28086
 C1730 C 1.11405 1.11321 1.27103
 C1731 C 1.10414 1.13197 1.28104
 C1732 C 1.11317 1.14102 1.30072
 C1733 C 1.13238 1.13143 1.31075
 C1734 C 1.14207 1.11236 1.30055
 C1735 C 1.10508 1.10433 1.25042
 C1736 C 1.09769 1.09708 1.23303
 C1737 C 1.08922 1.08878 1.21252
 C1738 C 1.08216 1.08185 1.19487
 H1739 H 1.14078 1.08885 1.27322
 H1740 H 1.08949 1.13972 1.27355
 H1741 H 1.10510 1.15563 1.30792
 H1742 H 1.15679 1.10438 1.30761
 C1743 C 1.13090 0.60211 0.78156
 C1744 C 1.11216 0.61208 0.77153
 C1745 C 1.10224 0.63090 0.78145
 C1746 C 1.11113 0.63987 0.80123
 C1747 C 1.13012 0.63011 0.81136
 C1748 C 1.13983 0.61104 0.80134
 C1749 C 1.10342 0.60329 0.75079
 C1750 C 1.09629 0.59609 0.73328
 C1751 C 1.08813 0.58786 0.71262
 C1752 C 1.08133 0.58101 0.69484
 H1753 H 1.13873 0.58754 0.77400
 H1754 H 1.08773 0.63877 0.77380
 H1755 H 1.10321 0.65454 0.80847
 H1756 H 1.15444 0.60308 0.80866
 C1757 C 0.60420 1.13226 0.78089
 C1758 C 0.61410 1.11351 0.77085
 C1759 C 0.63302 1.10367 0.78065
 C1760 C 0.64214 1.11262 0.80035
 C1761 C 0.63247 1.13168 0.81058
 C1762 C 0.61325 1.14128 0.80058
 C1763 C 0.60509 1.10464 0.75025
 C1764 C 0.59766 1.09740 0.73287
 C1765 C 0.58914 1.08912 0.71237
 C1766 C 0.58204 1.08219 0.69473
 H1767 H 0.58955 1.14002 0.77342
 H1768 H 0.64083 1.08914 0.77299
 H1769 H 0.65687 1.10463 0.80739
 H1770 H 0.60519 1.15588 0.80780
 C1771 C 0.63090 0.60229 1.28158
 C1772 C 0.61211 0.61223 1.27161
 C1773 C 0.60222 0.63106 1.28155
 C1774 C 0.61118 0.64005 1.30129
 C1775 C 0.63021 0.63031 1.31136
 C1776 C 0.63990 0.61123 1.30133
 C1777 C 0.60330 0.60341 1.25092
 C1778 C 0.59611 0.59620 1.23344
 C1779 C 0.58788 0.58796 1.21281
 C1780 C 0.58103 0.58108 1.19506
 H1781 H 0.63871 0.58771 1.27401
 H1782 H 0.58769 0.63890 1.27394
 H1783 H 0.60328 0.65472 1.30854
 H1784 H 0.65454 0.60329 1.30860
 C1785 C 0.86825 0.89686 1.28130
 C1786 C 0.88706 0.88697 1.27134
 C1787 C 0.89693 0.86814 1.28125
 C1788 C 0.88795 0.85907 1.30096
 C1789 C 0.86883 0.86872 1.31110
 C1790 C 0.85919 0.88787 1.30100
 C1791 C 0.89594 0.89588 1.25071
 C1792 C 0.90321 0.90318 1.23328
 C1793 C 0.91153 0.91153 1.21273
 C1794 C 0.91848 0.91850 1.19504
 H1795 H 0.86046 0.91146 1.27374
 H1796 H 0.91150 0.86034 1.27366
 H1797 H 0.89597 0.84439 1.30808
 H1798 H 0.84454 0.89590 1.30816
 C1799 C 0.86675 0.39606 0.78033
 C1800 C 0.88568 0.38623 0.77052
 C1801 C 0.89556 0.36746 0.78055
 C1802 C 0.88649 0.35841 0.80021
 C1803 C 0.86727 0.36801 0.81022
 C1804 C 0.85761 0.38708 0.80000
 C1805 C 0.89473 0.39514 0.74995
 C1806 C 0.90218 0.40242 0.73259
 C1807 C 0.91074 0.41076 0.71211
 C1808 C 0.91787 0.41774 0.69450
 H1809 H 0.85896 0.41060 0.77268
 H1810 H 0.91022 0.35970 0.77308
 H1811 H 0.89453 0.34379 0.80742
 H1812 H 0.84288 0.39507 0.80705
 C1813 C 0.36777 0.89717 0.78098
 C1814 C 0.38665 0.88731 0.77109
 C1815 C 0.39655 0.86850 0.78105
 C1816 C 0.38753 0.85946 0.80075
 C1817 C 0.36841 0.86912 0.81075
 C1818 C 0.35871 0.88817 0.80068
 C1819 C 0.39557 0.89620 0.75046
 C1820 C 0.40288 0.90347 0.73304
 C1821 C 0.41125 0.91178 0.71249
 C1822 C 0.41823 0.91872 0.69480
 H1823 H 0.35996 0.91173 0.77338
 H1824 H 0.41116 0.86072 0.77351
 H1825 H 0.39545 0.84481 0.80802
 H1826 H 0.34401 0.89605 0.80789
 C1827 C 0.36753 0.39681 1.28112
 C1828 C 0.38643 0.38696 1.27129
 C1829 C 0.39636 0.36823 1.28134
 C1830 C 0.38736 0.35923 1.30106
 C1831 C 0.36815 0.36883 1.31109
 C1832 C 0.35845 0.38787 1.30085
 C1833 C 0.39537 0.39578 1.25064
 C1834 C 0.40271 0.40297 1.23320
 C1835 C 0.41113 0.41120 1.21264
 C1836 C 0.41814 0.41808 1.19494
 H1837 H 0.35970 0.41132 1.27346
 H1838 H 0.41100 0.36046 1.27385
 H1839 H 0.39543 0.34464 1.30829
 H1840 H 0.34373 0.39587 1.30791
 C1841 C 0.89578 1.13231 0.71928
 C1842 C 0.88588 1.11355 0.72933
 C1843 C 0.86695 1.10372 0.71952
 C1844 C 0.85783 1.11269 0.69983
 C1845 C 0.86751 1.13174 0.68960
 C1846 C 0.88673 1.14134 0.69960
 C1847 C 0.89489 1.10467 0.74992
 C1848 C 0.90232 1.09741 0.76730
 C1849 C 0.91084 1.08911 0.78779
 C1850 C 0.91794 1.08215 0.80542
 H1851 H 0.91044 1.14006 0.72675
 H1852 H 0.85914 1.08920 0.72718
 H1853 H 0.84310 1.10470 0.69279
 H1854 H 0.89480 1.15594 0.69238
 C1855 C 0.86902 0.60218 0.21840
 C1856 C 0.88783 0.61210 0.22834
 C1857 C 0.89775 0.63090 0.21837
 C1858 C 0.88880 0.63988 0.19862
 C1859 C 0.86974 0.63017 0.18858
 C1860 C 0.86002 0.61112 0.19865
 C1861 C 0.89664 0.60331 0.24905
 C1862 C 0.90384 0.59613 0.26654
 C1863 C 0.91207 0.58791 0.28718
 C1864 C 0.91892 0.58107 0.30494
 H1865 H 0.86119 0.58764 0.22601
 H1866 H 0.91231 0.63873 0.22595
 H1867 H 0.89672 0.65453 0.19135
 H1868 H 0.84536 0.60320 0.19140
 C1869 C 0.39625 1.13181 0.21874
 C1870 C 0.38635 1.11307 0.22881
 C1871 C 0.36744 1.10320 0.21901
 C1872 C 0.35834 1.11212 0.19929
 C1873 C 0.36801 1.13117 0.18904
 C1874 C 0.38722 1.14079 0.19903
 C1875 C 0.39533 1.10426 0.24944
 C1876 C 0.40272 1.09708 0.26686
 C1877 C 0.41120 1.08887 0.28741
 C1878 C 0.41826 1.08200 0.30509
 H1879 H 0.41089 1.13959 0.22621
 H1880 H 0.35963 1.08869 0.22669
 H1881 H 0.34361 1.10412 0.19225
 H1882 H 0.39527 1.15539 0.19179
 C1883 C 0.36772 0.60291 0.71911
 C1884 C 0.38658 0.61277 0.72902
 C1885 C 0.39648 0.63160 0.71908
 C1886 C 0.38746 0.64066 0.69938
 C1887 C 0.36837 0.63099 0.68936
 C1888 C 0.35867 0.61192 0.69941
 C1889 C 0.39549 0.60387 0.74964
 C1890 C 0.40279 0.59659 0.76706
 C1891 C 0.41115 0.58826 0.78760
 C1892 C 0.41812 0.58131 0.80528
 H1893 H 0.35991 0.58834 0.72669
 H1894 H 0.41107 0.63939 0.72663
 H1895 H 0.39538 0.65532 0.69213
 H1896 H 0.34398 0.60403 0.69218
 C1897 C 1.10352 0.86832 0.71906
 C1898 C 1.11340 0.88713 0.72904
 C1899 C 1.13228 0.89701 0.71917
 C1900 C 1.14136 0.88803 0.69947
 C1901 C 1.13168 0.86898 0.68938
 C1902 C 1.11256 0.85930 0.69936
 C1903 C 1.10445 0.89599 0.74967
 C1904 C 1.09712 0.90324 0.76709
 C1905 C 1.08874 0.91154 0.78763
 C1906 C 1.08175 0.91847 0.80532
 H1907 H 1.08891 0.86052 0.72658
 H1908 H 1.14008 0.91156 0.72678
 H1909 H 1.15606 0.89593 0.69227
 H1910 H 1.10465 0.84465 0.69208
 C1911 C 1.13262 0.39666 0.21886
 C1912 C 1.11373 0.38681 0.22872
 C1913 C 1.10381 0.36805 0.21872
 C1914 C 1.11283 0.35901 0.19902
 C1915 C 1.13203 0.36861 0.18897
 C1916 C 1.14170 0.38769 0.19915
 C1917 C 1.10478 0.39568 0.24934
 C1918 C 1.09743 0.40293 0.26676
 C1919 C 1.08901 0.41121 0.28730
 C1920 C 1.08199 0.41813 0.30497
 H1921 H 1.14043 0.41119 0.22648
 H1922 H 1.08918 0.36028 0.22623
 H1923 H 1.10477 0.34439 0.19183
 H1924 H 1.15642 0.39568 0.19207
 C1925 C 0.63189 0.89676 0.21888
 C1926 C 0.61308 0.88689 0.22884
 C1927 C 0.60319 0.86805 0.21895
 C1928 C 0.61216 0.85897 0.19925
 C1929 C 0.63129 0.86860 0.18910
 C1930 C 0.64093 0.88775 0.19918
 C1931 C 0.60420 0.89582 0.24947
 C1932 C 0.59694 0.90315 0.26689
 C1933 C 0.58864 0.91155 0.28743
 C1934 C 0.58171 0.91855 0.30511
 H1935 H 0.63969 0.91135 0.22642
 H1936 H 0.58861 0.86027 0.22656
 H1937 H 0.60413 0.84429 0.19214
 H1938 H 0.65559 0.89577 0.19202
 C1939 C 0.63205 0.39739 0.71892
 C1940 C 0.61310 0.38756 0.72872
 C1941 C 0.60311 0.36888 0.71860
 C1942 C 0.61212 0.35994 0.69885
 C1943 C 0.63130 0.36956 0.68895
 C1944 C 0.64109 0.38849 0.69916
 C1945 C 0.60420 0.39631 0.74940
 C1946 C 0.59688 0.40345 0.76687
 C1947 C 0.58850 0.41159 0.78748
 C1948 C 0.58152 0.41840 0.80521
 H1949 H 0.63993 0.41185 0.72663
 H1950 H 0.58845 0.36112 0.72606
 H1951 H 0.60412 0.34539 0.69147
 H1952 H 0.65585 0.39634 0.69202
 C1953 C 1.28112 1.13178 1.10376
 C1954 C 1.27109 1.11303 1.11369
 C1955 C 1.28094 1.10317 1.13259
 C1956 C 1.30064 1.11211 1.14166
 C1957 C 1.31086 1.13117 1.13197
 C1958 C 1.30082 1.14079 1.11277
 C1959 C 1.25047 1.10418 1.10474
 C1960 C 1.23306 1.09696 1.09738
 C1961 C 1.21253 1.08869 1.08895
 C1962 C 1.19487 1.08178 1.08192
 H1963 H 1.27361 1.13955 1.08913
 H1964 H 1.27329 1.08865 1.14042
 H1965 H 1.30772 1.10411 1.15638
 H1966 H 1.30802 1.15539 1.10469
 C1967 C 1.28096 0.60340 0.63200
 C1968 C 1.27098 0.61330 0.61320
 C1969 C 1.28085 0.63217 0.60333
 C1970 C 1.30053 0.64125 0.61231
 C1971 C 1.31070 0.63159 0.63141
 C1972 C 1.30064 0.61241 0.64104
 C1973 C 1.25038 0.60435 0.60430
 C1974 C 1.23299 0.59700 0.59703
 C1975 C 1.21247 0.58858 0.58870
 C1976 C 1.19482 0.58156 0.58174
 H1977 H 1.27343 0.58878 0.63978
 H1978 H 1.27324 0.63998 0.58877
 H1979 H 1.30762 0.65595 0.60430
 H1980 H 1.30781 0.60436 0.65568
 C1981 C 0.78074 1.13234 0.60419
 C1982 C 0.77070 1.11359 0.61410
 C1983 C 0.78049 1.10375 0.63303
 C1984 C 0.80018 1.11271 0.64215
 C1985 C 0.81041 1.13176 0.63247
 C1986 C 0.80041 1.14136 0.61324
 C1987 C 0.75011 1.10471 0.60508
 C1988 C 0.73274 1.09747 0.59765
 C1989 C 0.71226 1.08917 0.58912
 C1990 C 0.69464 1.08222 0.58202
 H1991 H 0.77327 1.14010 0.58953
 H1992 H 0.77284 1.08922 0.64084
 H1993 H 0.80722 1.10471 0.65689
 H1994 H 0.80763 1.15597 0.60517
 C1995 C 0.78126 0.60231 1.13102
 C1996 C 0.77120 0.61229 1.11229
 C1997 C 0.78110 0.63113 1.10237
 C1998 C 0.80089 0.64009 1.11124
 C1999 C 0.81106 0.63030 1.13021
 C2000 C 0.80105 0.61122 1.13992
 C2001 C 0.75047 0.60350 1.10357
 C2002 C 0.73296 0.59629 1.09644
 C2003 C 0.71232 0.58804 1.08829
 C2004 C 0.69455 0.58117 1.08149
 H2005 H 0.77372 0.58773 1.13885
 H2006 H 0.77343 0.63901 1.08788
 H2007 H 0.80811 0.65477 1.10332
 H2008 H 0.80839 0.60324 1.15451
 C2009 C 1.28089 0.89663 0.86808
 C2010 C 1.27091 0.88671 0.88687
 C2011 C 1.28080 0.86786 0.89674
 C2012 C 1.30051 0.85881 0.88777
 C2013 C 1.31068 0.86849 0.86867
 C2014 C 1.30060 0.88765 0.85904
 C2015 C 1.25028 0.89562 0.89575
 C2016 C 1.23287 0.90292 0.90302
 C2017 C 1.21233 0.91129 0.91135
 C2018 C 1.19466 0.91827 0.91830
 H2019 H 1.27336 0.91123 0.86029
 H2020 H 1.27319 0.86004 0.91130
 H2021 H 1.30761 0.84412 0.89579
 H2022 H 1.30778 0.89571 0.84440
 C2023 C 1.28122 0.36816 0.39635
 C2024 C 1.27120 0.38690 0.38641
 C2025 C 1.28106 0.39676 0.36752
 C2026 C 1.30079 0.38784 0.35846
 C2027 C 1.31100 0.36879 0.36817
 C2028 C 1.30094 0.35917 0.38736
 C2029 C 1.25055 0.39574 0.39532
 C2030 C 1.23312 0.40296 0.40264
 C2031 C 1.21257 0.41122 0.41103
 C2032 C 1.19488 0.41813 0.41802
 H2033 H 1.27370 0.36039 0.41098
 H2034 H 1.27342 0.41128 0.35968
 H2035 H 1.30787 0.39584 0.34375
 H2036 H 1.30814 0.34456 0.39544
 C2037 C 0.78102 0.86852 0.39677
 C2038 C 0.77109 0.88735 0.38686
 C2039 C 0.78104 0.89725 0.36803
 C2040 C 0.80076 0.88827 0.35901
 C2041 C 0.81080 0.86921 0.36872
 C2042 C 0.80074 0.85950 0.38779
 C2043 C 0.75044 0.89621 0.39573
 C2044 C 0.73300 0.90347 0.40299
 C2045 C 0.71244 0.91179 0.41129
 C2046 C 0.69474 0.91872 0.41822
 H2047 H 0.77343 0.86070 0.41135
 H2048 H 0.77347 0.91181 0.36020
 H2049 H 0.80802 0.89619 0.34434
 H2050 H 0.80799 0.84484 0.39572
 C2051 C 0.78045 0.36747 0.89564
 C2052 C 0.77045 0.38625 0.88575
 C2053 C 0.78026 0.39608 0.86681
 C2054 C 0.79993 0.38709 0.85768
 C2055 C 0.81013 0.36801 0.86735
 C2056 C 0.80011 0.35842 0.88658
 C2057 C 0.74988 0.39517 0.89478
 C2058 C 0.73253 0.40246 0.90223
 C2059 C 0.71207 0.41081 0.91077
 C2060 C 0.69446 0.41780 0.91790
 H2061 H 0.77297 0.35973 0.91030
 H2062 H 0.77264 0.41062 0.85901
 H2063 H 0.80699 0.39507 0.84294
 H2064 H 0.80730 0.34380 0.89464
 C2065 C 0.71906 0.89712 1.13217
 C2066 C 0.72902 0.88723 1.11334
 C2067 C 0.71909 0.86839 1.10344
 C2068 C 0.69937 0.85937 1.11241
 C2069 C 0.68931 0.86908 1.13148
 C2070 C 0.69934 0.88814 1.14119
 C2071 C 0.74967 0.89610 1.10448
 C2072 C 0.76710 0.90338 1.09723
 C2073 C 0.78766 0.91170 1.08892
 C2074 C 0.80535 0.91864 1.08199
 H2075 H 0.72662 0.91170 1.13999
 H2076 H 0.72669 0.86058 1.08887
 H2077 H 0.69214 0.84471 1.10449
 H2078 H 0.69207 0.89606 1.15585
 C2079 C 0.71898 0.39692 0.63167
 C2080 C 0.72890 0.38701 0.61284
 C2081 C 0.71891 0.36825 0.60292
 C2082 C 0.69915 0.35928 0.61186
 C2083 C 0.68904 0.36895 0.63100
 C2084 C 0.69922 0.38802 0.64068
 C2085 C 0.74958 0.39582 0.60398
 C2086 C 0.76704 0.40302 0.59671
 C2087 C 0.78762 0.41126 0.58838
 C2088 C 0.80534 0.41815 0.58144
 H2089 H 0.72660 0.41146 0.63949
 H2090 H 0.72647 0.36043 0.58833
 H2091 H 0.69197 0.34466 0.60380
 H2092 H 0.69209 0.39607 0.65535
 C2093 C 0.21930 0.86792 0.60340
 C2094 C 0.22916 0.88678 0.61328
 C2095 C 0.21916 0.89665 0.63208
 C2096 C 0.19947 0.88763 0.64111
 C2097 C 0.18942 0.86847 0.63146
 C2098 C 0.19961 0.85882 0.61236
 C2099 C 0.24977 0.89574 0.60440
 C2100 C 0.26716 0.90310 0.59713
 C2101 C 0.28768 0.91153 0.58881
 C2102 C 0.30533 0.91855 0.58185
 H2103 H 0.22693 0.86013 0.58883
 H2104 H 0.22667 0.91126 0.63988
 H2105 H 0.19228 0.89566 0.65576
 H2106 H 0.19253 0.84414 0.60433
 C2107 C 0.21894 0.36790 1.10369
 C2108 C 0.22894 0.38667 1.11359
 C2109 C 0.21907 0.39655 1.13247
 C2110 C 0.19936 0.38761 1.14155
 C2111 C 0.18916 0.36854 1.13188
 C2112 C 0.19923 0.35890 1.11270
 C2113 C 0.24957 0.39551 1.10466
 C2114 C 0.26699 0.40274 1.09732
 C2115 C 0.28754 0.41100 1.08891
 C2116 C 0.30522 0.41792 1.08190
 H2117 H 0.22646 0.36011 1.08907
 H2118 H 0.22670 0.41109 1.14028
 H2119 H 0.19227 0.39563 1.15624
 H2120 H 0.19204 0.34428 1.10464
 C2121 C 0.71948 1.10367 0.86717
 C2122 C 0.72928 1.11351 0.88609
 C2123 C 0.71924 1.13227 0.89599
 C2124 C 0.69957 1.14129 0.88694
 C2125 C 0.68957 1.13168 0.86772
 C2126 C 0.69980 1.11263 0.85804
 C2127 C 0.74987 1.10464 0.89511
 C2128 C 0.76724 1.09740 0.90254
 C2129 C 0.78773 1.08910 0.91106
 C2130 C 0.80535 1.08215 0.91815
 H2131 H 0.72713 1.08914 0.85936
 H2132 H 0.72671 1.14003 0.91065
 H2133 H 0.69235 1.15590 0.89500
 H2134 H 0.69276 1.10463 0.84331
 C2135 C 0.71863 0.60234 0.36895
 C2136 C 0.72871 0.61232 0.38767
 C2137 C 0.71883 0.63117 0.39758
 C2138 C 0.69905 0.64015 0.38871
 C2139 C 0.68888 0.63038 0.36975
 C2140 C 0.69886 0.61128 0.36004
 C2141 C 0.74943 0.60350 0.39640
 C2142 C 0.76692 0.59627 0.40353
 C2143 C 0.78756 0.58800 0.41169
 C2144 C 0.80531 0.58112 0.41850
 H2145 H 0.72616 0.58775 0.36112
 H2146 H 0.72651 0.63904 0.41207
 H2147 H 0.69185 0.65484 0.39663
 H2148 H 0.69151 0.60331 0.34545
 C2149 C 0.21944 1.10355 0.36726
 C2150 C 0.22927 1.11342 0.38615
 C2151 C 0.21925 1.13219 0.39604
 C2152 C 0.19955 1.14118 0.38702
 C2153 C 0.18951 1.13154 0.36783
 C2154 C 0.19973 1.11247 0.35817
 C2155 C 0.24989 1.10459 0.39512
 C2156 C 0.26729 1.09737 0.40250
 C2157 C 0.28781 1.08910 0.41096
 C2158 C 0.30547 1.08218 0.41801
 H2159 H 0.22709 1.08901 0.35946
 H2160 H 0.22674 1.13998 0.41067
 H2161 H 0.19234 1.15580 0.39507
 H2162 H 0.19267 1.10445 0.34346
 C2163 C 0.21850 0.63086 0.89782
 C2164 C 0.22840 0.61202 0.88791
 C2165 C 0.21837 0.60207 0.86915
 C2166 C 0.19861 0.61101 0.86021
 C2167 C 0.18861 0.63009 0.86992
 C2168 C 0.19873 0.63984 0.88892
 C2169 C 0.24911 0.60321 0.89666
 C2170 C 0.26661 0.59599 0.90380
 C2171 C 0.28724 0.58774 0.91197
 C2172 C 0.30501 0.58088 0.91879
 H2173 H 0.22615 0.63872 0.91233
 H2174 H 0.22592 0.58749 0.86133
 H2175 H 0.19130 0.60305 0.84560
 H2176 H 0.19151 0.65452 0.89683
 C2177 C 1.13210 1.28095 1.10322
 C2178 C 1.11324 1.27105 1.11311
 C2179 C 1.10334 1.28100 1.13194
 C2180 C 1.11235 1.30068 1.14098
 C2181 C 1.13145 1.31069 1.13130
 C2182 C 1.14115 1.30064 1.11222
 C2183 C 1.10434 1.25043 1.10423
 C2184 C 1.09707 1.23301 1.09696
 C2185 C 1.08874 1.21246 1.08865
 C2186 C 1.08180 1.19477 1.08172
 H2187 H 1.13991 1.27337 1.08865
 H2188 H 1.08875 1.27345 1.13975
 H2189 H 1.10443 1.30794 1.15565
 H2190 H 1.15583 1.30786 1.10431
 C2191 C 1.13259 0.78053 0.60299
 C2192 C 1.11367 0.77070 0.61283
 C2193 C 1.10370 0.78074 0.63159
 C2194 C 1.11270 0.80045 0.64058
 C2195 C 1.13184 0.81040 0.63093
 C2196 C 1.14162 0.80025 0.61194
 C2197 C 1.10475 0.75006 0.60399
 C2198 C 1.09741 0.73265 0.59677
 C2199 C 1.08900 0.71211 0.58851
 C2200 C 1.08199 0.69444 0.58160
 H2201 H 1.14045 0.77288 0.58848
 H2202 H 1.08907 0.77324 0.63936
 H2203 H 1.10472 0.80778 0.65518
 H2204 H 1.15635 0.80743 0.60407
 C2205 C 0.63194 1.28129 0.60242
 C2206 C 0.61302 1.27146 0.61228
 C2207 C 0.60307 1.28152 0.63103
 C2208 C 0.61208 1.30123 0.64001
 C2209 C 0.63124 1.31115 0.63036
 C2210 C 0.64099 1.30100 0.61136
 C2211 C 0.60413 1.25080 0.60349
 C2212 C 0.59684 1.23336 0.59632
 C2213 C 0.58849 1.21277 0.58813
 C2214 C 0.58155 1.19505 0.58129
 H2215 H 0.63980 1.27362 0.58792
 H2216 H 0.58843 1.27403 0.63881
 H2217 H 0.60411 1.30856 0.65461
 H2218 H 0.65573 1.30816 0.60349
 C2219 C 0.63150 0.78078 1.10346
 C2220 C 0.61269 0.77082 1.11339
 C2221 C 0.60281 0.78074 1.13225
 C2222 C 0.61177 0.80046 1.14127
 C2223 C 0.63081 0.81053 1.13153
 C2224 C 0.64050 0.80050 1.11243
 C2225 C 0.60383 0.75018 1.10451
 C2226 C 0.59658 0.73276 1.09722
 C2227 C 0.58828 0.71221 1.08888
 C2228 C 0.58135 0.69453 1.08191
 H2229 H 0.63930 0.77323 1.08887
 H2230 H 0.58826 0.77314 1.14009
 H2231 H 0.60387 0.80769 1.15595
 H2232 H 0.65514 0.80778 1.10449
 C2233 C 0.86734 1.28056 0.89621
 C2234 C 0.88623 1.27067 0.88637
 C2235 C 0.89609 1.28058 0.86748
 C2236 C 0.88701 1.30020 0.85836
 C2237 C 0.86789 1.31019 0.86801
 C2238 C 0.85822 1.30018 0.88713
 C2239 C 0.89522 1.25013 0.89536
 C2240 C 0.90260 1.23279 0.90272
 C2241 C 0.91104 1.21233 0.91115
 C2242 C 0.91808 1.19472 0.91818
 H2243 H 0.85956 1.27301 0.91083
 H2244 H 0.91071 1.27305 0.85971
 H2245 H 0.89490 1.30742 0.84366
 H2246 H 0.84352 1.30739 0.89501
 C2247 C 0.89725 0.78083 0.36793
 C2248 C 0.88735 0.77090 0.38677
 C2249 C 0.86855 0.78087 0.39671
 C2250 C 0.85957 0.80060 0.38775
 C2251 C 0.86927 0.81064 0.36867
 C2252 C 0.88830 0.80056 0.35892
 C2253 C 0.89619 0.75023 0.39563
 C2254 C 0.90342 0.73280 0.40289
 C2255 C 0.91170 0.71222 0.41121
 C2256 C 0.91861 0.69452 0.41815
 H2257 H 0.91180 0.77323 0.36008
 H2258 H 0.86074 0.77330 0.41129
 H2259 H 0.84493 0.80787 0.39570
 H2260 H 0.89622 0.80781 0.34425
 C2261 C 0.39695 1.28136 0.36822
 C2262 C 0.38705 1.27139 0.38704
 C2263 C 0.36817 1.28126 0.39692
 C2264 C 0.35909 1.30094 0.38791
 C2265 C 0.36879 1.31101 0.36884
 C2266 C 0.38792 1.30104 0.35917
 C2267 C 0.39597 1.25077 0.39591
 C2268 C 0.40328 1.23336 0.40316
 C2269 C 0.41163 1.21281 0.41144
 C2270 C 0.41858 1.19512 0.41835
 H2271 H 0.41156 1.27384 0.36042
 H2272 H 0.36036 1.27366 0.41148
 H2273 H 0.34439 1.30813 0.39580
 H2274 H 0.39583 1.30831 0.34451
 C2275 C 0.39640 0.78079 0.86847
 C2276 C 0.38644 0.77074 0.88723
 C2277 C 0.36754 0.78059 0.89709
 C2278 C 0.35852 0.80033 0.88815
 C2279 C 0.36829 0.81048 0.86916
 C2280 C 0.38742 0.80051 0.85949
 C2281 C 0.39534 0.75009 0.89605
 C2282 C 0.40264 0.73266 0.90327
 C2283 C 0.41101 0.71211 0.91153
 C2284 C 0.41799 0.69442 0.91843
 H2285 H 0.41103 0.77328 0.86068
 H2286 H 0.35968 0.77294 0.91161
 H2287 H 0.34380 0.80751 0.89604
 H2288 H 0.39539 0.80784 0.84489
 C2289 C 1.13097 0.71860 0.89775
 C2290 C 1.11219 0.72856 0.88779
 C2291 C 1.10224 0.71857 0.86901
 C2292 C 1.11114 0.69878 0.86009
 C2293 C 1.13017 0.68871 0.86984
 C2294 C 1.13991 0.69880 0.88886
 C2295 C 1.10342 0.74929 0.89655
 C2296 C 1.09624 0.76680 0.90371
 C2297 C 1.08804 0.78744 0.91191
 C2298 C 1.08121 0.80521 0.91875
 H2299 H 1.13882 0.72621 0.91228
 H2300 H 1.08771 0.72617 0.86116
 H2301 H 1.10319 0.69150 0.84545
 H2302 H 1.15454 0.69153 0.89681
 C2303 C 1.10359 0.21898 0.36781
 C2304 C 1.11346 0.22893 0.38666
 C2305 C 1.13234 0.21905 0.39653
 C2306 C 1.14142 0.19938 0.38752
 C2307 C 1.13174 0.18933 0.36844
 C2308 C 1.11263 0.19931 0.35876
 C2309 C 1.10453 0.24953 0.39556
 C2310 C 1.09722 0.26693 0.40284
 C2311 C 1.08886 0.28746 0.41117
 C2312 C 1.08189 0.30512 0.41813
 H2313 H 1.08899 0.22651 0.36002
 H2314 H 1.14013 0.22663 0.41111
 H2315 H 1.15611 0.19217 0.39541
 H2316 H 1.10473 0.19206 0.34409
 C2317 C 0.63127 0.71890 0.39763
 C2318 C 0.61244 0.72884 0.38772
 C2319 C 0.60245 0.71881 0.36898
 C2320 C 0.61134 0.69902 0.36005
 C2321 C 0.63041 0.68898 0.36976
 C2322 C 0.64020 0.69911 0.38874
 C2323 C 0.60367 0.74956 0.39647
 C2324 C 0.59648 0.76707 0.40362
 C2325 C 0.58825 0.78771 0.41180
 C2326 C 0.58139 0.80547 0.41863
 H2327 H 0.63915 0.72655 0.41213
 H2328 H 0.58788 0.72638 0.36116
 H2329 H 0.60336 0.69170 0.34546
 H2330 H 0.65487 0.69187 0.39666
 C2331 C 0.63235 0.21913 0.89653
 C2332 C 0.61348 0.22902 0.88667
 C2333 C 0.60362 0.21911 0.86780
 C2334 C 0.61268 0.19947 0.85870
 C2335 C 0.63179 0.18947 0.86837
 C2336 C 0.64146 0.19949 0.88747
 C2337 C 0.60452 0.24959 0.89561
 C2338 C 0.59717 0.26696 0.90294
 C2339 C 0.58877 0.28746 0.91131
 C2340 C 0.58177 0.30510 0.91830
 H2341 H 0.64014 0.22669 0.91113
 H2342 H 0.58901 0.22664 0.86001
 H2343 H 0.60479 0.19223 0.84401
 H2344 H 0.65615 0.19228 0.89536
 C2345 C 0.89760 0.71862 1.13097
 C2346 C 0.88761 0.72869 1.11226
 C2347 C 0.86876 0.71880 1.10235
 C2348 C 0.85980 0.69900 1.11122
 C2349 C 0.86959 0.68883 1.13018
 C2350 C 0.88869 0.69883 1.13988
 C2351 C 0.89640 0.74942 1.10353
 C2352 C 0.90361 0.76693 1.09641
 C2353 C 0.91186 0.78758 1.08827
 C2354 C 0.91873 0.80535 1.08148
 H2355 H 0.91219 0.72615 1.13879
 H2356 H 0.86087 0.72648 1.08787
 H2357 H 0.84512 0.69179 1.10331
 H2358 H 0.89667 0.69148 1.15446
 C2359 C 0.89639 0.21916 0.63233
 C2360 C 0.88654 0.22906 0.61345
 C2361 C 0.86766 0.21917 0.60359
 C2362 C 0.85855 0.19954 0.61266
 C2363 C 0.86820 0.18953 0.63178
 C2364 C 0.88731 0.19953 0.64144
 C2365 C 0.89551 0.24962 0.60447
 C2366 C 0.90285 0.26698 0.59713
 C2367 C 0.91126 0.28746 0.58871
 C2368 C 0.91827 0.30509 0.58170
 H2369 H 0.91099 0.22670 0.64011
 H2370 H 0.85988 0.22672 0.58898
 H2371 H 0.84385 0.19233 0.60478
 H2372 H 0.89519 0.19231 0.65614
 C2373 C 0.39641 0.71932 0.63166
 C2374 C 0.38647 0.72937 0.61290
 C2375 C 0.36757 0.71953 0.60303
 C2376 C 0.35853 0.69980 0.61197
 C2377 C 0.36828 0.68964 0.63096
 C2378 C 0.38741 0.69960 0.64063
 C2379 C 0.39540 0.75001 0.60407
 C2380 C 0.40274 0.76743 0.59686
 C2381 C 0.41114 0.78798 0.58860
 C2382 C 0.41815 0.80565 0.58169
 H2383 H 0.41104 0.72681 0.63945
 H2384 H 0.35973 0.72719 0.58852
 H2385 H 0.34382 0.69263 0.60408
 H2386 H 0.39537 0.69226 0.65524
 C2387 C 0.36798 0.21872 1.10320
 C2388 C 0.38686 0.22860 1.11307
 C2389 C 0.39676 0.21864 1.13189
 C2390 C 0.38773 0.19897 1.14094
 C2391 C 0.36861 0.18898 1.13128
 C2392 C 0.35891 0.19905 1.11221
 C2393 C 0.39577 0.24922 1.10419
 C2394 C 0.40307 0.26664 1.09693
 C2395 C 0.41143 0.28719 1.08865
 C2396 C 0.41838 0.30488 1.08173
 H2397 H 0.36017 0.22632 1.08863
 H2398 H 0.41136 0.22617 1.13968
 H2399 H 0.39564 0.19170 1.15560
 H2400 H 0.34421 0.19184 1.10433
 C2401 C 1.10250 1.13191 0.71885
 C2402 C 1.11238 1.11302 0.72870
 C2403 C 1.13112 1.10307 0.71863
 C2404 C 1.14007 1.11206 0.69888
 C2405 C 1.13039 1.13118 0.68892
 C2406 C 1.11142 1.14094 0.69909
 C2407 C 1.10361 1.10415 0.74940
 C2408 C 1.09645 1.09687 0.76687
 C2409 C 1.08827 1.08853 0.78749
 C2410 C 1.08144 1.08160 0.80523
 H2411 H 1.08801 1.13977 0.72653
 H2412 H 1.13891 1.08846 0.72614
 H2413 H 1.15466 1.10410 0.69154
 H2414 H 1.10353 1.15565 0.69191
 C2415 C 1.13214 0.60407 0.21896
 C2416 C 1.11339 0.61396 0.22901
 C2417 C 1.10357 0.63290 0.21924
 C2418 C 1.11254 0.64205 0.19957
 C2419 C 1.13161 0.63239 0.18932
 C2420 C 1.14119 0.61315 0.19930
 C2421 C 1.10451 0.60492 0.24960
 C2422 C 1.09727 0.59747 0.26697
 C2423 C 1.08899 0.58893 0.28747
 C2424 C 1.08206 0.58182 0.30511
 H2425 H 1.13989 0.58940 0.22641
 H2426 H 1.08904 0.64070 0.22691
 H2427 H 1.10457 0.65680 0.19255
 H2428 H 1.15580 0.60510 0.19207
 C2429 C 0.63195 1.10392 0.21877
 C2430 C 0.61315 1.11381 0.22874
 C2431 C 0.60329 1.13267 0.21887
 C2432 C 0.61228 1.14176 0.19917
 C2433 C 0.63139 1.13211 0.18901
 C2434 C 0.64101 1.11294 0.19908
 C2435 C 0.60426 1.10486 0.24936
 C2436 C 0.59700 1.09752 0.26677
 C2437 C 0.58870 1.08911 0.28731
 C2438 C 0.58176 1.08210 0.30499
 H2439 H 0.63972 1.08931 0.22630
 H2440 H 0.58872 1.14047 0.22647
 H2441 H 0.60427 1.15646 0.19208
 H2442 H 0.65565 1.10490 0.19191
 C2443 C 0.63130 0.60264 0.71884
 C2444 C 0.61251 0.61257 0.72883
 C2445 C 0.60262 0.63141 0.71892
 C2446 C 0.61157 0.64042 0.69917
 C2447 C 0.63060 0.63069 0.68907
 C2448 C 0.64029 0.61161 0.69909
 C2449 C 0.60369 0.60372 0.74952
 C2450 C 0.59647 0.59647 0.76698
 C2451 C 0.58821 0.58818 0.78758
 C2452 C 0.58132 0.58126 0.80531
 H2453 H 0.63910 0.58806 0.72639
 H2454 H 0.58808 0.63925 0.72654
 H2455 H 0.60367 0.65510 0.69194
 H2456 H 0.65492 0.60367 0.69180
 C2457 C 0.86893 0.89767 0.71860
 C2458 C 0.88769 0.88772 0.72862
 C2459 C 0.89760 0.86888 0.71871
 C2460 C 0.88869 0.85989 0.69894
 C2461 C 0.86969 0.86964 0.68882
 C2462 C 0.85998 0.88872 0.69884
 C2463 C 0.89646 0.89654 0.74933
 C2464 C 0.90363 0.90376 0.76682
 C2465 C 0.91182 0.91202 0.78745
 C2466 C 0.91866 0.91891 0.80521
 H2467 H 0.86112 0.91224 0.72616
 H2468 H 0.91212 0.86103 0.72634
 H2469 H 0.89660 0.84522 0.69171
 H2470 H 0.84537 0.89667 0.69153
 C2471 C 0.86838 0.39698 0.21859
 C2472 C 0.88721 0.38709 0.22850
 C2473 C 0.89712 0.36831 0.21852
 C2474 C 0.88816 0.35931 0.19879
 C2475 C 0.86902 0.36895 0.18869
 C2476 C 0.85935 0.38805 0.19886
 C2477 C 0.89608 0.39591 0.24917
 C2478 C 0.90335 0.40313 0.26662
 C2479 C 0.91168 0.41137 0.28721
 C2480 C 0.91862 0.41826 0.30493
 H2481 H 0.86057 0.41153 0.22621
 H2482 H 0.91171 0.36051 0.22607
 H2483 H 0.89621 0.34467 0.19161
 H2484 H 0.84468 0.39608 0.19174
 C2485 C 0.39733 0.86795 0.21901
 C2486 C 0.38752 0.88693 0.22877
 C2487 C 0.36883 0.89690 0.21865
 C2488 C 0.35985 0.88785 0.19895
 C2489 C 0.36946 0.86864 0.18908
 C2490 C 0.38839 0.85886 0.19930
 C2491 C 0.39632 0.89588 0.24941
 C2492 C 0.40348 0.90325 0.26684
 C2493 C 0.41168 0.91168 0.28741
 C2494 C 0.41853 0.91869 0.30511
 H2495 H 0.41180 0.86008 0.22673
 H2496 H 0.36108 0.91158 0.22608
 H2497 H 0.34529 0.89583 0.19156
 H2498 H 0.39623 0.84408 0.19219
 C2499 C 0.36782 0.39580 0.71920
 C2500 C 0.38661 0.38592 0.72918
 C2501 C 0.39648 0.36705 0.71931
 C2502 C 0.38751 0.35797 0.69961
 C2503 C 0.36841 0.36763 0.68943
 C2504 C 0.35878 0.38680 0.69951
 C2505 C 0.39551 0.39487 0.74980
 C2506 C 0.40279 0.40223 0.76719
 C2507 C 0.41112 0.41067 0.78770
 C2508 C 0.41809 0.41770 0.80535
 H2509 H 0.36004 0.41042 0.72673
 H2510 H 0.41104 0.35925 0.72692
 H2511 H 0.39553 0.34328 0.69251
 H2512 H 0.34415 0.39484 0.69233
 C2513 C 1.13187 0.89695 1.28135
 C2514 C 1.11310 0.88702 1.27138
 C2515 C 1.10323 0.86817 1.28128
 C2516 C 1.11219 0.85914 1.30101
 C2517 C 1.13128 0.86882 1.31117
 C2518 C 1.14090 0.88798 1.30107
 C2519 C 1.10424 0.89590 1.25072
 C2520 C 1.09699 0.90318 1.23328
 C2521 C 1.08870 0.91152 1.21271
 C2522 C 1.08178 0.91847 1.19501
 H2523 H 1.13965 0.91155 1.27380
 H2524 H 1.08869 0.86035 1.27367
 H2525 H 1.10418 0.84445 1.30813
 H2526 H 1.15552 0.89605 1.30825
 C2527 C 1.10255 0.36793 0.78109
 C2528 C 1.11242 0.38681 0.77123
 C2529 C 1.13116 0.39676 0.78128
 C2530 C 1.14012 0.38778 0.80103
 C2531 C 1.13044 0.36866 0.81099
 C2532 C 1.11146 0.35890 0.80084
 C2533 C 1.10365 0.39569 0.75054
 C2534 C 1.09648 0.40297 0.73307
 C2535 C 1.08829 0.41130 0.71246
 C2536 C 1.08145 0.41824 0.69473
 H2537 H 1.08805 0.36007 0.77342
 H2538 H 1.13895 0.41138 0.77377
 H2539 H 1.15471 0.39574 0.80836
 H2540 H 1.10358 0.34419 0.80803
 C2541 C 0.60243 0.86888 0.78131
 C2542 C 0.61235 0.88771 0.77139
 C2543 C 0.63114 0.89763 0.78139
 C2544 C 0.64009 0.88867 0.80115
 C2545 C 0.63038 0.86960 0.81117
 C2546 C 0.61135 0.85988 0.80107
 C2547 C 0.60357 0.89655 0.75069
 C2548 C 0.59639 0.90378 0.73321
 C2549 C 0.58817 0.91205 0.71258
 C2550 C 0.58131 0.91894 0.69484
 H2551 H 0.58790 0.86105 0.77369
 H2552 H 0.63897 0.91220 0.77382
 H2553 H 0.65473 0.89660 0.80844
 H2554 H 0.60342 0.84522 0.80831
 C2555 C 0.63206 0.39600 1.28100
 C2556 C 0.61325 0.38612 1.27106
 C2557 C 0.60341 0.36725 1.28095
 C2558 C 0.61242 0.35816 1.30063
 C2559 C 0.63154 0.36781 1.31076
 C2560 C 0.64115 0.38698 1.30067
 C2561 C 0.60432 0.39507 1.25046
 C2562 C 0.59701 0.40241 1.23308
 C2563 C 0.58865 0.41083 1.21256
 C2564 C 0.58167 0.41785 1.19491
 H2565 H 0.63983 0.41062 1.27346
 H2566 H 0.58883 0.35945 1.27337
 H2567 H 0.60442 0.34346 1.30774
 H2568 H 0.65580 0.39502 1.30782
 C2569 C 0.89696 1.13258 1.28114
 C2570 C 0.88710 1.11372 1.27128
 C2571 C 0.86829 1.10384 1.28125
 C2572 C 0.85923 1.11287 1.30093
 C2573 C 0.86885 1.13204 1.31099
 C2574 C 0.88797 1.14168 1.30083
 C2575 C 0.89599 1.10476 1.25066
 C2576 C 0.90326 1.09741 1.23326
 C2577 C 0.91157 1.08899 1.21273
 C2578 C 0.91851 1.08197 1.19506
 H2579 H 0.91152 1.14037 1.27353
 H2580 H 0.86051 1.08923 1.27373
 H2581 H 0.84458 1.10484 1.30810
 H2582 H 0.89597 1.15638 1.30792
 C2583 C 0.86862 0.60263 0.78110
 C2584 C 0.88740 0.61257 0.77110
 C2585 C 0.89729 0.63141 0.78102
 C2586 C 0.88835 0.64041 0.80077
 C2587 C 0.86933 0.63068 0.81087
 C2588 C 0.85963 0.61159 0.80085
 C2589 C 0.89622 0.60372 0.75042
 C2590 C 0.90344 0.59647 0.73295
 C2591 C 0.91169 0.58817 0.71235
 C2592 C 0.91858 0.58126 0.69463
 H2593 H 0.86081 0.58805 0.77355
 H2594 H 0.91183 0.63925 0.77339
 H2595 H 0.89626 0.65509 0.80800
 H2596 H 0.84500 0.60365 0.80815
 C2597 C 0.36798 1.10406 0.78094
 C2598 C 0.38677 1.11396 0.77095
 C2599 C 0.39662 1.13283 0.78083
 C2600 C 0.38764 1.14190 0.80054
 C2601 C 0.36855 1.13223 0.81071
 C2602 C 0.35893 1.11306 0.80064
 C2603 C 0.39566 1.10502 0.75033
 C2604 C 0.40293 1.09767 0.73293
 C2605 C 0.41126 1.08925 0.71240
 C2606 C 0.41821 1.08222 0.69474
 H2607 H 0.36021 1.08944 0.77341
 H2608 H 0.41117 1.14064 0.77322
 H2609 H 0.39564 1.15659 0.80764
 H2610 H 0.34430 1.10500 0.80782
 C2611 C 0.39690 0.63195 1.28115
 C2612 C 0.38701 0.61307 1.27132
 C2613 C 0.36826 0.60317 1.28137
 C2614 C 0.35927 0.61218 1.30109
 C2615 C 0.36891 0.63137 1.31111
 C2616 C 0.38798 0.64103 1.30088
 C2617 C 0.39582 0.60413 1.25066
 C2618 C 0.40300 0.59678 1.23323
 C2619 C 0.41122 0.58837 1.21266
 C2620 C 0.41810 0.58137 1.19495
 H2621 H 0.41142 0.63975 1.27348
 H2622 H 0.36046 0.58855 1.27387
 H2623 H 0.34466 0.60413 1.30831
 H2624 H 0.39600 0.65573 1.30794
 C2625 C 1.10295 1.28111 0.86833
 C2626 C 1.11285 1.27117 0.88715
 C2627 C 1.13164 1.28113 0.89706
 C2628 C 1.14064 1.30086 0.88811
 C2629 C 1.13098 1.31099 0.86898
 C2630 C 1.11188 1.30084 0.85931
 C2631 C 1.10402 1.25051 0.89601
 C2632 C 1.09679 1.23306 0.90327
 C2633 C 1.08852 1.21248 0.91158
 C2634 C 1.08162 1.19477 0.91851
 H2635 H 1.08839 1.27351 0.86051
 H2636 H 1.13945 1.27356 0.91164
 H2637 H 1.15528 1.30802 0.89616
 H2638 H 1.10384 1.30798 0.84464
 C2639 C 1.10295 0.78089 0.36802
 C2640 C 1.11284 0.77100 0.38689
 C2641 C 1.13158 0.78104 0.39685
 C2642 C 1.14053 0.80079 0.38789
 C2643 C 1.13084 0.81078 0.36878
 C2644 C 1.11186 0.80064 0.35901
 C2645 C 1.10405 0.75032 0.39575
 C2646 C 1.09686 0.73286 0.40302
 C2647 C 1.08863 0.71227 0.41134
 C2648 C 1.08176 0.69456 0.41827
 H2649 H 1.08845 0.77324 0.36016
 H2650 H 1.13939 0.77350 0.41145
 H2651 H 1.15513 0.80811 0.39585
 H2652 H 1.10396 0.80785 0.34431
 C2653 C 0.63221 1.28096 0.39606
 C2654 C 0.61339 1.27100 0.38619
 C2655 C 0.60351 1.28088 0.36733
 C2656 C 0.61249 1.30056 0.35823
 C2657 C 0.63161 1.31071 0.36786
 C2658 C 0.64125 1.30064 0.38703
 C2659 C 0.60450 1.25041 0.39516
 C2660 C 0.59723 1.23302 0.40251
 C2661 C 0.58890 1.21251 0.41094
 C2662 C 0.58194 1.19486 0.41796
 H2663 H 0.64000 1.27343 0.41067
 H2664 H 0.58894 1.27329 0.35955
 H2665 H 0.60447 1.30766 0.34354
 H2666 H 0.65591 1.30780 0.39506
 C2667 C 0.63114 0.78109 0.89755
 C2668 C 0.61233 0.77116 0.88760
 C2669 C 0.60240 0.78116 0.86882
 C2670 C 0.61134 0.80093 0.85988
 C2671 C 0.63038 0.81097 0.86962
 C2672 C 0.64011 0.80086 0.88865
 C2673 C 0.60351 0.75045 0.89638
 C2674 C 0.59628 0.73298 0.90356
 C2675 C 0.58802 0.71236 0.91177
 C2676 C 0.58113 0.69462 0.91864
 H2677 H 0.63897 0.77346 0.91208
 H2678 H 0.58785 0.77360 0.86097
 H2679 H 0.60340 0.80824 0.84524
 H2680 H 0.65476 0.80810 0.89660
 C2681 C 0.86887 1.28125 1.10298
 C2682 C 0.88766 1.27128 1.11292
 C2683 C 0.89756 1.28121 1.13176
 C2684 C 0.88861 1.30094 1.14076
 C2685 C 0.86957 1.31101 1.13103
 C2686 C 0.85987 1.30098 1.11194
 C2687 C 0.89648 1.25061 1.10408
 C2688 C 0.90369 1.23315 1.09685
 C2689 C 0.91193 1.21255 1.08857
 C2690 C 0.91879 1.19482 1.08167
 H2691 H 0.86106 1.27368 1.08840
 H2692 H 0.91210 1.27361 1.13960
 H2693 H 0.89651 1.30818 1.15544
 H2694 H 0.84523 1.30825 1.10401
 C2695 C 0.86884 0.78119 0.60240
 C2696 C 0.88763 0.77122 0.61234
 C2697 C 0.89757 0.78120 0.63113
 C2698 C 0.88866 0.80098 0.64008
 C2699 C 0.86962 0.81105 0.63034
 C2700 C 0.85988 0.80096 0.61131
 C2701 C 0.89642 0.75051 0.60355
 C2702 C 0.90362 0.73303 0.59636
 C2703 C 0.91186 0.71241 0.58813
 C2704 C 0.91874 0.69467 0.58127
 H2705 H 0.86099 0.77358 0.58786
 H2706 H 0.91212 0.77361 0.63897
 H2707 H 0.89660 0.80826 0.65472
 H2708 H 0.84524 0.80823 0.60337
 C2709 C 0.39659 1.28078 0.63278
 C2710 C 0.38676 1.27096 0.61387
 C2711 C 0.36797 1.28094 0.60397
 C2712 C 0.35891 1.30060 0.61302
 C2713 C 0.36850 1.31062 0.63224
 C2714 C 0.38759 1.30044 0.64190
 C2715 C 0.39566 1.25038 0.60487
 C2716 C 0.40294 1.23301 0.59748
 C2717 C 0.41127 1.21252 0.58900
 C2718 C 0.41824 1.19489 0.58194
 H2719 H 0.41114 1.27317 0.64059
 H2720 H 0.36022 1.27345 0.58932
 H2721 H 0.34428 1.30778 0.60497
 H2722 H 0.39557 1.30751 0.65663
 C2723 C 0.36802 0.78088 1.10326
 C2724 C 0.38681 0.77091 1.11317
 C2725 C 0.39673 0.78086 1.13197
 C2726 C 0.38784 0.80062 1.14096
 C2727 C 0.36874 0.81078 1.13128
 C2728 C 0.35905 0.80064 1.11218
 C2729 C 0.39563 0.75023 1.10432
 C2730 C 0.40285 0.73278 1.09707
 C2731 C 0.41112 0.71221 1.08875
 C2732 C 0.41803 0.69451 1.08181
 H2733 H 0.36019 0.77329 1.08870
 H2734 H 0.41129 0.77326 1.13979
 H2735 H 0.39590 0.80777 1.15560
 H2736 H 0.34442 0.80780 1.10412
 C2737 C 0.86847 0.71908 0.89736
 C2738 C 0.88727 0.72906 0.88742
 C2739 C 0.89720 0.71911 0.86860
 C2740 C 0.88828 0.69935 0.85963
 C2741 C 0.86925 0.68927 0.86937
 C2742 C 0.85951 0.69932 0.88842
 C2743 C 0.89607 0.74975 0.89624
 C2744 C 0.90327 0.76721 0.90347
 C2745 C 0.91152 0.78781 0.91173
 C2746 C 0.91841 0.80553 0.91863
 H2747 H 0.86063 0.72667 0.91192
 H2748 H 0.91174 0.72671 0.86076
 H2749 H 0.89622 0.69209 0.84497
 H2750 H 0.84488 0.69205 0.89637
 C2751 C 0.86822 0.21896 0.39619
 C2752 C 0.88703 0.22891 0.38630
 C2753 C 0.89691 0.21900 0.36744
 C2754 C 0.88793 0.19931 0.35838
 C2755 C 0.86880 0.18918 0.36804
 C2756 C 0.85917 0.19928 0.38720
 C2757 C 0.89593 0.24952 0.39522
 C2758 C 0.90320 0.26691 0.40254
 C2759 C 0.91153 0.28744 0.41093
 C2760 C 0.91848 0.30510 0.41793
 H2761 H 0.86043 0.22652 0.41080
 H2762 H 0.91148 0.22658 0.35964
 H2763 H 0.89595 0.19219 0.34369
 H2764 H 0.84451 0.19213 0.39524
 C2765 C 0.36865 0.71920 0.39677
 C2766 C 0.38737 0.72926 0.38678
 C2767 C 0.39724 0.71940 0.36788
 C2768 C 0.38834 0.69965 0.35887
 C2769 C 0.36938 0.68948 0.36867
 C2770 C 0.35971 0.69944 0.38780
 C2771 C 0.39616 0.74993 0.39566
 C2772 C 0.40334 0.76738 0.40295
 C2773 C 0.41155 0.78796 0.41132
 C2774 C 0.41842 0.80566 0.41829
 H2775 H 0.36086 0.72670 0.41139
 H2776 H 0.41173 0.72707 0.35999
 H2777 H 0.39622 0.69246 0.34415
 H2778 H 0.34513 0.69210 0.39580
 C2779 C 0.36797 0.21892 0.89616
 C2780 C 0.38675 0.22892 0.88627
 C2781 C 0.39660 0.21910 0.86736
 C2782 C 0.38763 0.19943 0.85824
 C2783 C 0.36854 0.18924 0.86790
 C2784 C 0.35892 0.19926 0.88711
 C2785 C 0.39563 0.24951 0.89526
 C2786 C 0.40290 0.26689 0.90264
 C2787 C 0.41121 0.28739 0.91111
 C2788 C 0.41816 0.30503 0.91816
 H2789 H 0.36019 0.22641 0.91081
 H2790 H 0.41116 0.22672 0.85956
 H2791 H 0.39564 0.19237 0.84352
 H2792 H 0.34429 0.19207 0.89516
 C2793 C 1.10368 0.71952 1.13296
 C2794 C 1.11353 0.72940 1.11408
 C2795 C 1.13232 0.71942 1.10416
 C2796 C 1.14135 0.69972 1.11316
 C2797 C 1.13172 0.68964 1.13234
 C2798 C 1.11264 0.69982 1.14203
 C2799 C 1.10463 0.75000 1.10512
 C2800 C 1.09734 0.76738 1.09775
 C2801 C 1.08899 0.78787 1.08930
 C2802 C 1.08200 0.80550 1.08225
 H2803 H 1.08913 0.72713 1.14078
 H2804 H 1.14009 0.72694 1.08953
 H2805 H 1.15598 0.69254 1.10509
 H2806 H 1.10463 0.69272 1.15673
 C2807 C 1.10290 0.21874 0.63160
 C2808 C 1.11282 0.22867 0.61278
 C2809 C 1.13161 0.21872 0.60286
 C2810 C 1.14061 0.19898 0.61181
 C2811 C 1.13094 0.18886 0.63094
 C2812 C 1.11183 0.19900 0.64062
 C2813 C 1.10399 0.24934 0.60393
 C2814 C 1.09677 0.26679 0.59667
 C2815 C 1.08851 0.28737 0.58836
 C2816 C 1.08162 0.30508 0.58144
 H2817 H 1.08835 0.22633 0.63942
 H2818 H 1.13942 0.22629 0.58828
 H2819 H 1.15525 0.19183 0.60375
 H2820 H 1.10379 0.19186 0.65528
 C2821 C 0.63149 0.71920 0.60267
 C2822 C 0.61268 0.72914 0.61261
 C2823 C 0.60273 0.71916 0.63140
 C2824 C 0.61166 0.69939 0.64036
 C2825 C 0.63070 0.68933 0.63062
 C2826 C 0.64045 0.69943 0.61159
 C2827 C 0.60386 0.74984 0.60381
 C2828 C 0.59664 0.76731 0.59661
 C2829 C 0.58838 0.78791 0.58836
 C2830 C 0.58148 0.80564 0.58148
 H2831 H 0.63933 0.72681 0.58813
 H2832 H 0.58818 0.72674 0.63924
 H2833 H 0.60371 0.69210 0.65500
 H2834 H 0.65510 0.69217 0.60365
 C2835 C 0.60335 0.21905 1.13250
 C2836 C 0.61323 0.22895 1.11364
 C2837 C 0.63204 0.21900 1.10376
 C2838 C 0.64109 0.19932 1.11276
 C2839 C 0.63145 0.18923 1.13193
 C2840 C 0.61233 0.19937 1.14158
 C2841 C 0.60433 0.24956 1.10471
 C2842 C 0.59705 0.26695 1.09738
 C2843 C 0.58871 0.28747 1.08899
 C2844 C 0.58174 0.30512 1.08198
 H2845 H 0.58878 0.22664 1.14031
 H2846 H 0.63983 0.22655 1.08915
 H2847 H 0.65575 0.19217 1.10472
 H2848 H 0.60430 0.19225 1.15627
 C2849 C 1.28093 1.10347 0.86780
 C2850 C 1.27102 1.11332 0.88668
 C2851 C 1.28094 1.13215 0.89658
 C2852 C 1.30062 1.14122 0.88755
 C2853 C 1.31064 1.13157 0.86844
 C2854 C 1.30061 1.11250 0.85873
 C2855 C 1.25042 1.10439 0.89560
 C2856 C 1.23302 1.09709 0.90291
 C2857 C 1.21250 1.08873 0.91128
 C2858 C 1.19484 1.08176 0.91827
 H2859 H 1.27337 1.08890 0.85998
 H2860 H 1.27339 1.13993 0.91119
 H2861 H 1.30786 1.15589 0.89547
 H2862 H 1.30784 1.10462 0.84403
 C2863 C 1.28128 0.63146 0.39692
 C2864 C 1.27137 0.61261 0.38703
 C2865 C 1.28133 0.60271 0.36820
 C2866 C 1.30103 0.61171 0.35917
 C2867 C 1.31104 0.63080 0.36886
 C2868 C 1.30098 0.64050 0.38793
 C2869 C 1.25072 0.60374 0.39588
 C2870 C 1.23328 0.59648 0.40312
 C2871 C 1.21270 0.58817 0.41140
 C2872 C 1.19499 0.58125 0.41830
 H2873 H 1.27368 0.63928 0.41149
 H2874 H 1.27377 0.58813 0.36039
 H2875 H 1.30829 0.60379 0.34450
 H2876 H 1.30821 0.65518 0.39583
 C2877 C 0.78104 1.13225 0.39664
 C2878 C 0.77114 1.11340 0.38676
 C2879 C 0.78111 1.10349 0.36794
 C2880 C 0.80082 1.11248 0.35891
 C2881 C 0.81083 1.13157 0.36860
 C2882 C 0.80075 1.14129 0.38765
 C2883 C 0.75050 1.10451 0.39564
 C2884 C 0.73308 1.09722 0.40290
 C2885 C 0.71253 1.08888 0.41121
 C2886 C 0.69484 1.08193 0.41815
 H2887 H 0.77344 1.14008 0.41120
 H2888 H 0.77356 1.08890 0.36014
 H2889 H 0.80809 1.10455 0.34426
 H2890 H 0.80797 1.15597 0.39555
 C2891 C 0.78096 0.63142 0.89742
 C2892 C 0.77104 0.61258 0.88752
 C2893 C 0.78102 0.60265 0.86872
 C2894 C 0.80077 0.61160 0.85973
 C2895 C 0.81079 0.63068 0.86944
 C2896 C 0.80070 0.64041 0.88847
 C2897 C 0.75036 0.60375 0.89634
 C2898 C 0.73290 0.59651 0.90356
 C2899 C 0.71230 0.58823 0.91181
 C2900 C 0.69458 0.58132 0.91870
 H2901 H 0.77334 0.63926 0.91197
 H2902 H 0.77346 0.58808 0.86091
 H2903 H 0.80805 0.60366 0.84509
 H2904 H 0.80794 0.65508 0.89639
 C2905 C 1.28137 0.89682 1.13121
 C2906 C 1.27128 0.88684 1.11251
 C2907 C 1.28106 0.86789 1.10268
 C2908 C 1.30077 0.85882 1.11163
 C2909 C 1.31096 0.86861 1.13058
 C2910 C 1.30108 0.88780 1.14019
 C2911 C 1.25063 0.89576 1.10371
 C2912 C 1.23319 0.90308 1.09654
 C2913 C 1.21261 0.91146 1.08835
 C2914 C 1.19490 0.91844 1.08151
 H2915 H 1.27392 0.91149 1.13896
 H2916 H 1.27336 0.86001 1.08821
 H2917 H 1.30790 0.84406 1.10379
 H2918 H 1.30844 0.89579 1.15476
 C2919 C 1.28082 0.39632 0.63229
 C2920 C 1.27095 0.38646 0.61339
 C2921 C 1.28091 0.36764 0.60350
 C2922 C 1.30057 0.35858 0.61255
 C2923 C 1.31055 0.36824 0.63168
 C2924 C 1.30049 0.38730 0.64138
 C2925 C 1.25036 0.39537 0.60444
 C2926 C 1.23298 0.40267 0.59710
 C2927 C 1.21247 0.41102 0.58869
 C2928 C 1.19482 0.41799 0.58168
 H2929 H 1.27323 0.41088 0.64010
 H2930 H 1.27339 0.35986 0.58888
 H2931 H 1.30784 0.34392 0.60464
 H2932 H 1.30769 0.39518 0.65609
 C2933 C 0.78142 0.89770 0.63104
 C2934 C 0.77140 0.88775 0.61228
 C2935 C 0.78130 0.86890 0.60237
 C2936 C 0.80105 0.85991 0.61128
 C2937 C 0.81118 0.86965 0.63029
 C2938 C 0.80117 0.88874 0.63999
 C2939 C 0.75070 0.89658 0.60350
 C2940 C 0.73323 0.90382 0.59634
 C2941 C 0.71261 0.91210 0.58815
 C2942 C 0.69487 0.91900 0.58131
 H2943 H 0.77388 0.91228 0.63886
 H2944 H 0.77365 0.86105 0.58785
 H2945 H 0.80827 0.84523 0.60336
 H2946 H 0.80849 0.89669 0.65461
 C2947 C 0.78123 0.36869 1.10303
 C2948 C 0.77119 0.38744 1.11300
 C2949 C 0.78108 0.39733 1.13187
 C2950 C 0.80084 0.38842 1.14086
 C2951 C 0.81098 0.36943 1.13109
 C2952 C 0.80098 0.35975 1.11199
 C2953 C 0.75050 0.39621 1.10416
 C2954 C 0.73303 0.40338 1.09690
 C2955 C 0.71242 0.41157 1.08859
 C2956 C 0.69469 0.41841 1.08167
 H2957 H 0.77369 0.36089 1.08843
 H2958 H 0.77343 0.41183 1.13973
 H2959 H 0.80805 0.39632 1.15556
 H2960 H 0.80830 0.34515 1.10402
 C2961 C 0.71910 1.10349 1.13210
 C2962 C 0.72909 1.11339 1.11328
 C2963 C 0.71921 1.13225 1.10339
 C2964 C 0.69951 1.14131 1.11237
 C2965 C 0.68941 1.13160 1.13142
 C2966 C 0.69940 1.11250 1.14111
 C2967 C 0.74973 1.10448 1.10443
 C2968 C 0.76715 1.09717 1.09718
 C2969 C 0.78770 1.08881 1.08889
 C2970 C 0.80539 1.08184 1.08196
 H2971 H 0.72663 1.08889 1.13991
 H2972 H 0.72683 1.14007 1.08883
 H2973 H 0.69230 1.15599 1.10446
 H2974 H 0.69211 1.10458 1.15576
 C2975 C 0.71890 0.60267 0.63125
 C2976 C 0.72892 0.61262 0.61247
 C2977 C 0.71902 0.63147 0.60258
 C2978 C 0.69928 0.64047 0.61152
 C2979 C 0.68916 0.63073 0.63054
 C2980 C 0.69916 0.61163 0.64023
 C2981 C 0.74959 0.60377 0.60366
 C2982 C 0.76705 0.59651 0.59646
 C2983 C 0.78765 0.58821 0.58821
 C2984 C 0.80537 0.58129 0.58134
 H2985 H 0.72644 0.58808 0.63906
 H2986 H 0.72665 0.63932 0.58805
 H2987 H 0.69206 0.65516 0.60361
 H2988 H 0.69186 0.60368 0.65486
 C2989 C 0.21861 1.10314 0.63105
 C2990 C 0.22864 1.11310 0.61229
 C2991 C 0.21875 1.13197 0.60241
 C2992 C 0.19901 1.14097 0.61135
 C2993 C 0.18888 1.13121 0.63035
 C2994 C 0.19887 1.11210 0.64003
 C2995 C 0.24933 1.10426 0.60350
 C2996 C 0.26680 1.09702 0.59633
 C2997 C 0.28741 1.08873 0.58813
 C2998 C 0.30515 1.08182 0.58129
 H2999 H 0.22614 1.08854 0.63885
 H3000 H 0.22640 1.13983 0.58789
 H3001 H 0.19180 1.15567 0.60346
 H3002 H 0.19155 1.10413 0.65465
 C3003 C 0.21904 0.60353 1.13219
 C3004 C 0.22907 0.61343 1.11340
 C3005 C 0.21928 0.63238 1.10358
 C3006 C 0.19963 0.64152 1.11260
 C3007 C 0.18950 0.63181 1.13163
 C3008 C 0.19940 0.61263 1.14125
 C3009 C 0.24964 0.60442 1.10450
 C3010 C 0.26701 0.59702 1.09723
 C3011 C 0.28751 0.58854 1.08892
 C3012 C 0.30515 0.58148 1.08197
 H3013 H 0.22649 0.58887 1.13995
 H3014 H 0.22693 0.64020 1.08903
 H3015 H 0.19250 0.65627 1.10474
 H3016 H 0.19208 0.60470 1.15589
 C3017 C 0.71866 0.89755 0.86900
 C3018 C 0.72866 0.88759 0.88777
 C3019 C 0.71874 0.86874 0.89766
 C3020 C 0.69899 0.85977 0.88873
 C3021 C 0.68889 0.86953 0.86972
 C3022 C 0.69891 0.88861 0.86003
 C3023 C 0.74935 0.89641 0.89657
 C3024 C 0.76682 0.90364 0.90375
 C3025 C 0.78743 0.91192 0.91197
 C3026 C 0.80516 0.91882 0.91882
 H3027 H 0.72622 0.91213 0.86119
 H3028 H 0.72637 0.86088 0.91219
 H3029 H 0.69176 0.84509 0.89664
 H3030 H 0.69162 0.89658 0.84540
 C3031 C 0.71931 0.36768 0.39641
 C3032 C 0.72923 0.38653 0.38651
 C3033 C 0.71929 0.39641 0.36767
 C3034 C 0.69959 0.38741 0.35864
 C3035 C 0.68957 0.36833 0.36834
 C3036 C 0.69961 0.35864 0.38742
 C3037 C 0.74985 0.39543 0.39541
 C3038 C 0.76725 0.40272 0.40270
 C3039 C 0.78779 0.41105 0.41105
 C3040 C 0.80546 0.41801 0.41802
 H3041 H 0.72688 0.35988 0.41099
 H3042 H 0.72685 0.41099 0.35986
 H3043 H 0.69234 0.39532 0.34396
 H3044 H 0.69238 0.34397 0.39534
 C3045 C 0.21895 0.86879 0.39693
 C3046 C 0.22889 0.88761 0.38701
 C3047 C 0.21896 0.89749 0.36815
 C3048 C 0.19925 0.88850 0.35913
 C3049 C 0.18921 0.86944 0.36885
 C3050 C 0.19924 0.85976 0.38795
 C3051 C 0.24953 0.89647 0.39587
 C3052 C 0.26696 0.90372 0.40313
 C3053 C 0.28753 0.91201 0.41144
 C3054 C 0.30523 0.91891 0.41837
 H3055 H 0.22652 0.86099 0.41152
 H3056 H 0.22654 0.91205 0.36032
 H3057 H 0.19201 0.89639 0.34445
 H3058 H 0.19199 0.84510 0.39588
 C3059 C 0.21876 0.36791 0.89750
 C3060 C 0.22865 0.38678 0.88762
 C3061 C 0.21863 0.39673 0.86886
 C3062 C 0.19890 0.38776 0.85988
 C3063 C 0.18891 0.36865 0.86955
 C3064 C 0.19903 0.35890 0.88856
 C3065 C 0.24932 0.39563 0.89642
 C3066 C 0.26678 0.40288 0.90361
 C3067 C 0.28738 0.41119 0.91183
 C3068 C 0.30510 0.41810 0.91868
 H3069 H 0.22640 0.36005 0.91202
 H3070 H 0.22616 0.41133 0.86106
 H3071 H 0.19159 0.39572 0.84526
 H3072 H 0.19182 0.34420 0.89646
   
