data_POSCAR
  _audit_creation_date              2014-09-24
  _audit_creation_method            'ToBaCCo'
  _symmetry_space_group_name_H-M    'P1'
  _symmetry_Int_Tables_number       1
  _symmetry_cell_setting            triclinic
  loop_
  _symmetry_equiv_pos_as_xyz
 x,y,z
_cell_length_a 43.0553
_cell_length_b 43.0353
_cell_length_c 39.8069
_cell_angle_alpha 90.070000
_cell_angle_beta 89.910100
_cell_angle_gamma 90.052200
loop_
  _atom_site_label
  _atom_site_type_symbol
  _atom_site_fract_x
  _atom_site_fract_y
  _atom_site_fract_z
C1 C 0.40437 0.03487 0.28389
 H2 H 0.40986 0.04437 0.25945
 C3 C 0.42263 0.04275 0.31176
 H4 H 0.44252 0.05791 0.30877
 C5 C 0.37210 0.00301 0.31775
 H6 H 0.35220 -0.01211 0.32017
 C7 C 0.38932 0.01053 0.34607
 H8 H 0.38296 0.00048 0.37006
 N9 N 0.38052 0.01421 0.28718
 C10 C 0.36862 -0.02031 0.18526
 H11 H 0.34353 -0.01935 0.18419
 C12 C 0.38552 -0.02936 0.15704
 H13 H 0.37320 -0.03453 0.13404
 C14 C 0.41500 -0.01331 0.21637
 H15 H 0.42639 -0.00755 0.23970
 C16 C 0.43287 -0.02198 0.18853
 H17 H 0.45798 -0.02162 0.19013
 Zn18 Zn 0.35732 0.00063 0.24961
 N19 N 0.38350 -0.01171 0.21387
 C20 C 0.34133 0.05347 0.21164
 N21 N 0.33182 0.03411 0.23662
 C22 C 0.30710 0.04128 0.25644
 C23 C 0.29131 0.06923 0.25201
 C24 C 0.32673 0.08215 0.20703
 C25 C 0.35162 -0.05890 0.27320
 C26 C 0.33855 -0.08800 0.27875
 C27 C 0.28926 -0.06798 0.25961
 C28 C 0.30335 -0.03903 0.25457
 N29 N 0.33416 -0.03524 0.26099
 H30 H 0.36160 0.04766 0.19684
 H31 H 0.30071 0.02606 0.27691
 H32 H 0.27239 0.07504 0.26882
 H33 H 0.33573 0.09814 0.18843
 H34 H 0.37617 -0.05537 0.27754
 H35 H 0.35364 -0.10630 0.28744
 H36 H 0.26511 -0.07114 0.25277
 H37 H 0.29005 -0.02024 0.24383
 C38 C 0.41806 -0.02975 0.15835
 C39 C 0.41539 0.02984 0.34305
 C40 C 0.30716 -0.09325 0.27081
 C41 C 0.30209 0.09066 0.22818
 C42 C 0.09412 0.03300 0.71681
 H43 H 0.08746 0.04073 0.74166
 C44 C 0.07624 0.04156 0.68893
 H45 H 0.05535 0.05519 0.69233
 C46 C 0.12904 0.00513 0.68193
 H47 H 0.14975 -0.00880 0.67922
 C48 C 0.11234 0.01358 0.65356
 H49 H 0.11985 0.00532 0.62915
 N50 N 0.11904 0.01379 0.71291
 C51 C 0.13072 -0.02159 0.81453
 H52 H 0.15573 -0.01954 0.81609
 C53 C 0.11370 -0.03095 0.84254
 H54 H 0.12575 -0.03517 0.86592
 C55 C 0.08466 -0.01694 0.78242
 H56 H 0.07347 -0.01201 0.75878
 C57 C 0.06666 -0.02601 0.81000
 H58 H 0.04159 -0.02662 0.80791
 Zn59 Zn 0.14208 -0.00066 0.75012
 N60 N 0.11600 -0.01386 0.78556
 C61 C 0.15903 0.05174 0.78898
 N62 N 0.16773 0.03250 0.76351
 C63 C 0.19206 0.03952 0.74312
 C64 C 0.20831 0.06721 0.74737
 C65 C 0.17418 0.08019 0.79353
 C66 C 0.14918 -0.05930 0.72333
 C67 C 0.16302 -0.08801 0.71745
 C68 C 0.21077 -0.06802 0.74086
 C69 C 0.19601 -0.03951 0.74621
 N70 N 0.16559 -0.03590 0.73782
 H71 H 0.13902 0.04604 0.80423
 H72 H 0.19782 0.02433 0.72236
 H73 H 0.22697 0.07281 0.73016
 H74 H 0.16587 0.09618 0.81252
 H75 H 0.12488 -0.05595 0.71752
 H76 H 0.14905 -0.10650 0.70701
 H77 H 0.23446 -0.07127 0.74927
 H78 H 0.20835 -0.02101 0.75881
 C79 C 0.08123 -0.03269 0.84058
 C80 C 0.08505 0.03103 0.65705
 C81 C 0.19385 -0.09290 0.72734
 C82 C 0.19840 0.08857 0.77173
 C83 C 0.59480 0.53217 0.21680
 H84 H 0.58830 0.54007 0.24163
 C85 C 0.57682 0.54065 0.18896
 H86 H 0.55604 0.55443 0.19238
 C87 C 0.62941 0.50392 0.18191
 H88 H 0.65006 0.48989 0.17918
 C89 C 0.61262 0.51229 0.15358
 H90 H 0.61999 0.50387 0.12918
 N91 N 0.61962 0.51283 0.21288
 C92 C 0.63134 0.47808 0.31470
 H93 H 0.65633 0.48023 0.31635
 C94 C 0.61426 0.46881 0.34271
 H95 H 0.62623 0.46475 0.36617
 C96 C 0.58536 0.48236 0.28239
 H97 H 0.57423 0.48710 0.25866
 C98 C 0.56731 0.47335 0.30994
 H99 H 0.54226 0.47261 0.30775
 Zn100 Zn 0.64273 0.49859 0.25010
 N101 N 0.61668 0.48558 0.28563
 C102 C 0.65985 0.55115 0.28866
 N103 N 0.66839 0.53183 0.26321
 C104 C 0.69258 0.53879 0.24259
 C105 C 0.70881 0.56652 0.24657
 C106 C 0.67500 0.57964 0.29296
 C107 C 0.64977 0.43981 0.22374
 C108 C 0.66360 0.41108 0.21799
 C109 C 0.71142 0.43122 0.24110
 C110 C 0.69667 0.45976 0.24630
 N111 N 0.66622 0.46330 0.23800
 H112 H 0.63995 0.54550 0.30410
 H113 H 0.69821 0.52352 0.22186
 H114 H 0.72735 0.57207 0.22918
 H115 H 0.66682 0.59569 0.31196
 H116 H 0.62544 0.44310 0.21801
 H117 H 0.64960 0.39252 0.20774
 H118 H 0.73514 0.42803 0.24943
 H119 H 0.70904 0.47834 0.25872
 C120 C 0.58181 0.46690 0.34061
 C121 C 0.58545 0.52990 0.15711
 C122 C 0.69448 0.40627 0.22777
 C123 C 0.69906 0.58795 0.27092
 C124 C 0.90496 0.53472 0.78673
 H125 H 0.91082 0.54429 0.76241
 C126 C 0.92292 0.54244 0.81491
 H127 H 0.94288 0.55750 0.81202
 C128 C 0.87202 0.50307 0.81995
 H129 H 0.85194 0.48815 0.82204
 C130 C 0.88891 0.51032 0.84856
 H131 H 0.88203 0.50011 0.87231
 N132 N 0.88093 0.51423 0.78956
 C133 C 0.86880 0.47952 0.68766
 H134 H 0.84369 0.48025 0.68692
 C135 C 0.88544 0.47049 0.65926
 H136 H 0.87291 0.46509 0.63646
 C137 C 0.91546 0.48714 0.71810
 H138 H 0.92706 0.49319 0.74122
 C139 C 0.93308 0.47852 0.69005
 H140 H 0.95820 0.47916 0.69129
 Zn141 Zn 0.85785 0.50084 0.75176
 N142 N 0.88392 0.48840 0.71601
 C143 C 0.84172 0.55334 0.71321
 N144 N 0.83254 0.53436 0.73867
 C145 C 0.80798 0.54171 0.75862
 C146 C 0.79202 0.56950 0.75386
 C147 C 0.82694 0.58187 0.70823
 C148 C 0.85121 0.44133 0.77557
 C149 C 0.83752 0.41253 0.78123
 C150 C 0.78889 0.43316 0.76095
 C151 C 0.80351 0.46185 0.75592
 N152 N 0.83428 0.46521 0.76291
 H153 H 0.86183 0.54735 0.69824
 H154 H 0.80178 0.52671 0.77936
 H155 H 0.77319 0.57544 0.77073
 H156 H 0.83567 0.59760 0.68923
 H157 H 0.87575 0.44448 0.78027
 H158 H 0.85190 0.39381 0.79032
 H159 H 0.76484 0.43015 0.75368
 H160 H 0.79069 0.48075 0.74476
 C161 C 0.91798 0.47047 0.66013
 C162 C 0.91528 0.52949 0.84619
 C163 C 0.80623 0.40793 0.77290
 C164 C 0.80247 0.59059 0.72951
 C165 C 0.21427 0.43729 0.96803
 H166 H 0.23571 0.44513 0.95669
 C167 C 0.18659 0.45368 0.96212
 H168 H 0.18681 0.47455 0.94697
 C169 C 0.18723 0.40033 1.00108
 H170 H 0.18713 0.37917 1.01558
 C171 C 0.15941 0.41555 0.99556
 H172 H 0.13835 0.40635 1.00671
 N173 N 0.21421 0.41189 0.98853
 C174 C 0.30871 0.39695 1.02423
 H175 H 0.30660 0.37199 1.02653
 C176 C 0.33694 0.41128 1.03093
 H177 H 0.35647 0.39694 1.03792
 C178 C 0.28588 0.44531 1.01020
 H179 H 0.26590 0.45849 1.00230
 C180 C 0.31402 0.46064 1.01623
 H181 H 0.31583 0.48543 1.01198
 Zn182 Zn 0.25002 0.38888 1.00085
 N183 N 0.28422 0.41382 1.01298
 C184 C 0.28842 0.36554 0.94768
 N185 N 0.26094 0.36299 0.96449
 C186 C 0.23901 0.34215 0.95497
 C187 C 0.24407 0.32291 0.92746
 C188 C 0.29425 0.34695 0.91947
 C189 C 0.22988 0.38047 1.06643
 C190 C 0.22172 0.36471 1.09569
 C191 C 0.23486 0.31634 1.06828
 C192 C 0.24262 0.33304 1.03938
 N193 N 0.24001 0.36456 1.03901
 H194 H 0.30538 0.38263 0.95540
 H195 H 0.21733 0.34075 0.96867
 H196 H 0.22596 0.30678 0.92057
 H197 H 0.31558 0.34996 0.90537
 H198 H 0.22826 0.40554 1.06549
 H199 H 0.21454 0.37796 1.11743
 H200 H 0.23805 0.29138 1.06881
 H201 H 0.25141 0.32083 1.01765
 C202 C 0.34006 0.44337 1.02600
 C203 C 0.15897 0.44293 0.97667
 C204 C 0.22448 0.33228 1.09688
 C205 C 0.27160 0.32578 0.90873
 C206 C 0.78772 0.06367 0.96880
 H207 H 0.76678 0.05448 0.95763
 C208 C 0.81619 0.04840 0.96358
 H209 H 0.81678 0.02707 0.94917
 C210 C 0.81280 0.10292 1.00047
 H211 H 0.81185 0.12456 1.01414
 C212 C 0.84133 0.08878 0.99580
 H213 H 0.86176 0.09936 1.00688
 N214 N 0.78643 0.08972 0.98833
 C215 C 0.69103 0.10284 1.02361
 H216 H 0.69311 0.12776 1.02641
 C217 C 0.66276 0.08841 1.03010
 H218 H 0.64335 0.10270 1.03761
 C219 C 0.71391 0.05471 1.00871
 H220 H 0.73389 0.04163 1.00054
 C221 C 0.68570 0.03929 1.01448
 H222 H 0.68392 0.01456 1.00979
 Zn223 Zn 0.74966 0.11174 1.00020
 N224 N 0.71557 0.08618 1.01202
 C225 C 0.71143 0.13379 0.94639
 N226 N 0.73851 0.13744 0.96363
 C227 C 0.75985 0.15895 0.95420
 C228 C 0.75462 0.17762 0.92630
 C229 C 0.70545 0.15179 0.91780
 C230 C 0.76938 0.11999 1.06582
 C231 C 0.77814 0.13558 1.09501
 C232 C 0.76497 0.18414 1.06823
 C233 C 0.75663 0.16761 1.03934
 N234 N 0.75904 0.13608 1.03868
 H235 H 0.69493 0.11620 0.95401
 H236 H 0.78126 0.16123 0.96817
 H237 H 0.77230 0.19425 0.91948
 H238 H 0.68449 0.14786 0.90341
 H239 H 0.77095 0.09492 1.06462
 H240 H 0.78561 0.12220 1.11650
 H241 H 0.76205 0.20912 1.06898
 H242 H 0.74781 0.17997 1.01778
 C243 C 0.65954 0.05642 1.02440
 C244 C 0.84334 0.06076 0.97791
 C245 C 0.77579 0.16803 1.09646
 C246 C 0.72755 0.17358 0.90710
 C247 C 0.28540 0.56502 0.46675
 H248 H 0.26433 0.55668 0.45507
 C249 C 0.31353 0.54922 0.46132
 H250 H 0.31399 0.52831 0.44620
 C251 C 0.31111 0.60268 0.50011
 H252 H 0.31056 0.62391 0.51452
 C253 C 0.33935 0.58799 0.49515
 H254 H 0.36003 0.59765 0.50662
 N255 N 0.28456 0.59052 0.48716
 C256 C 0.18899 0.60386 0.52152
 H257 H 0.19084 0.62882 0.52422
 C258 C 0.16080 0.58920 0.52775
 H259 H 0.14109 0.60330 0.53482
 C260 C 0.21242 0.55588 0.50703
 H261 H 0.23259 0.54295 0.49912
 C262 C 0.18432 0.54022 0.51258
 H263 H 0.18281 0.51545 0.50803
 Zn264 Zn 0.24804 0.61288 0.49902
 N265 N 0.21380 0.58736 0.51033
 C266 C 0.21019 0.63573 0.44534
 N267 N 0.23733 0.63890 0.46259
 C268 C 0.25899 0.66013 0.45326
 C269 C 0.25404 0.67901 0.42545
 C270 C 0.20446 0.65398 0.41689
 C271 C 0.26717 0.62062 0.56497
 C272 C 0.27580 0.63603 0.59432
 C273 C 0.26352 0.68482 0.56753
 C274 C 0.25530 0.66847 0.53849
 N275 N 0.25735 0.63691 0.53774
 H276 H 0.19343 0.61836 0.45285
 H277 H 0.28043 0.66203 0.46725
 H278 H 0.27193 0.69544 0.41868
 H279 H 0.18342 0.65045 0.40251
 H280 H 0.26842 0.59554 0.56371
 H281 H 0.28287 0.62251 0.61587
 H282 H 0.26094 0.70984 0.56831
 H283 H 0.24687 0.68099 0.51686
 C284 C 0.15800 0.55711 0.52241
 C285 C 0.34069 0.56059 0.47632
 C286 C 0.27387 0.66850 0.59583
 C287 C 0.22689 0.67546 0.40628
 C288 C 0.71489 0.93700 0.46749
 H289 H 0.73649 0.94550 0.45710
 C290 C 0.68721 0.95340 0.46179
 H291 H 0.68755 0.97492 0.44773
 C292 C 0.68758 0.89846 0.49811
 H293 H 0.68750 0.87675 0.51166
 C294 C 0.65975 0.91377 0.49288
 H295 H 0.63859 0.90406 0.50327
 N296 N 0.71466 0.91079 0.48675
 C297 C 0.80954 0.89636 0.52092
 H298 H 0.80790 0.87128 0.52169
 C299 C 0.83770 0.91080 0.52759
 H300 H 0.85768 0.89646 0.53294
 C301 C 0.78554 0.94498 0.51065
 H302 H 0.76512 0.95819 0.50424
 C303 C 0.81359 0.96047 0.51682
 H304 H 0.81489 0.98548 0.51412
 Zn305 Zn 0.75054 0.88812 0.49924
 N306 N 0.78447 0.91335 0.51157
 C307 C 0.78753 0.86954 0.44354
 N308 N 0.76216 0.86272 0.46266
 C309 C 0.74336 0.83837 0.45507
 C310 C 0.75002 0.81940 0.42769
 C311 C 0.79432 0.85184 0.41496
 C312 C 0.72875 0.87943 0.56419
 C313 C 0.72068 0.86372 0.59352
 C314 C 0.73776 0.81583 0.56776
 C315 C 0.74548 0.83247 0.53882
 N316 N 0.74073 0.86371 0.53750
 H317 H 0.80180 0.88943 0.44966
 H318 H 0.72296 0.83386 0.47020
 H319 H 0.73473 0.80009 0.42217
 H320 H 0.81370 0.85827 0.39907
 H321 H 0.72557 0.90432 0.56261
 H322 H 0.71189 0.87686 0.61464
 H323 H 0.74256 0.79116 0.56900
 H324 H 0.75609 0.82047 0.51793
 C325 C 0.84013 0.94317 0.52481
 C326 C 0.65945 0.94192 0.47534
 C327 C 0.72550 0.83158 0.59560
 C328 C 0.77512 0.82671 0.40660
 C329 C 0.02409 0.29485 0.42252
 H330 H 0.04603 0.28298 0.41932
 C331 C 0.02230 0.32136 0.44287
 H332 H 0.04304 0.33021 0.45492
 C333 C -0.02956 0.29845 0.40994
 H334 H -0.04973 0.28947 0.39701
 C335 C -0.03241 0.32480 0.43023
 H336 H -0.05474 0.33615 0.43209
 N337 N -0.00159 0.28420 0.40623
 C338 C 0.00110 0.18422 0.39115
 H339 H 0.00055 0.18292 0.36401
 C340 C 0.00154 0.15701 0.41001
 H341 H 0.00214 0.13491 0.39698
 C342 C 0.00120 0.21467 0.44073
 H343 H 0.00111 0.23728 0.45258
 C344 C 0.00082 0.18784 0.46074
 H345 H 0.00081 0.19011 0.48782
 Zn346 Zn 0.00105 0.24833 0.37849
 N347 N 0.00156 0.21238 0.40656
 C348 C 0.05668 0.22514 0.34784
 N349 N 0.03789 0.25040 0.35129
 C350 C 0.04503 0.27767 0.33571
 C351 C 0.07192 0.28026 0.31598
 C352 C 0.08337 0.22657 0.32789
 C353 C -0.05874 0.22776 0.36020
 C354 C -0.08588 0.22602 0.34118
 C355 C -0.06357 0.26219 0.30162
 C356 C -0.03673 0.26332 0.32150
 N357 N -0.03477 0.24623 0.35023
 H358 H 0.05141 0.20381 0.36075
 H359 H 0.03014 0.29766 0.33913
 H360 H 0.07751 0.30231 0.30442
 H361 H 0.09817 0.20633 0.32574
 H362 H -0.05713 0.21483 0.38338
 H363 H -0.10494 0.21164 0.34981
 H364 H -0.06502 0.27623 0.27914
 H365 H -0.01764 0.27810 0.31409
 C366 C 0.00100 0.15847 0.44533
 C367 C -0.00621 0.33670 0.44676
 C368 C -0.08855 0.24346 0.31162
 C369 C 0.09147 0.25446 0.31205
 C370 C 0.02378 0.70466 0.08345
 H371 H 0.04573 0.71565 0.08927
 C372 C 0.02298 0.67862 0.06237
 H373 H 0.04444 0.66916 0.05251
 C374 C -0.03094 0.70302 0.08980
 H375 H -0.05190 0.71269 0.10054
 C376 C -0.03280 0.67715 0.06866
 H377 H -0.05522 0.66670 0.06395
 N378 N -0.00292 0.71601 0.09706
 C379 C -0.00330 0.81593 0.11178
 H380 H -0.00489 0.81762 0.13884
 C381 C -0.00307 0.84287 0.09238
 H382 H -0.00372 0.86523 0.10483
 C383 C -0.00026 0.78477 0.06278
 H384 H 0.00091 0.76202 0.05133
 C385 C -0.00061 0.81127 0.04230
 H386 H 0.00056 0.80883 0.01526
 Zn387 Zn -0.00159 0.75169 0.12510
 N388 N -0.00135 0.78756 0.09691
 C389 C 0.05251 0.77623 0.15741
 N390 N 0.03471 0.75038 0.15292
 C391 C 0.04246 0.72303 0.16793
 C392 C 0.06918 0.72086 0.18785
 C393 C 0.07905 0.77519 0.17751
 C394 C -0.06234 0.76993 0.14216
 C395 C -0.08959 0.77124 0.16108
 C396 C -0.06615 0.73731 0.20208
 C397 C -0.03922 0.73660 0.18223
 N398 N -0.03778 0.75277 0.15285
 H399 H 0.04656 0.79769 0.14512
 H400 H 0.02822 0.70266 0.16383
 H401 H 0.07540 0.69872 0.19875
 H402 H 0.09324 0.79583 0.18029
 H403 H -0.06101 0.78223 0.11855
 H404 H -0.10902 0.78467 0.15174
 H405 H -0.06687 0.72392 0.22505
 H406 H -0.01958 0.72292 0.19025
 C407 C -0.00198 0.84071 0.05720
 C408 C -0.00556 0.66452 0.05492
 C409 C -0.09188 0.75474 0.19146
 C410 C 0.08792 0.74717 0.19255
 C411 C 0.52358 0.20533 0.58172
 H412 H 0.54524 0.21761 0.58546
 C413 C 0.52266 0.17903 0.56102
 H414 H 0.54379 0.17073 0.54926
 C415 C 0.46975 0.20062 0.59318
 H416 H 0.44919 0.20915 0.60579
 C417 C 0.46776 0.17445 0.57248
 H418 H 0.44569 0.16266 0.56997
 N419 N 0.49740 0.21536 0.59757
 C420 C 0.49906 0.31561 0.61151
 H421 H 0.49842 0.31747 0.63860
 C422 C 0.49918 0.34246 0.59198
 H423 H 0.49952 0.36489 0.60432
 C424 C 0.49921 0.28421 0.56260
 H425 H 0.49916 0.26140 0.55121
 C426 C 0.49864 0.31065 0.54201
 H427 H 0.49852 0.30809 0.51496
 Zn428 Zn 0.49920 0.25133 0.62519
 N429 N 0.49962 0.28713 0.59673
 C430 C 0.55383 0.27512 0.65733
 N431 N 0.53565 0.24955 0.65273
 C432 C 0.54306 0.22202 0.66758
 C433 C 0.56969 0.21941 0.68756
 C434 C 0.58028 0.27365 0.67753
 C435 C 0.44013 0.27302 0.64532
 C436 C 0.41336 0.27478 0.66502
 C437 C 0.43451 0.23543 0.70154
 C438 C 0.46100 0.23434 0.68103
 N439 N 0.46336 0.25301 0.65349
 H440 H 0.54827 0.29670 0.64509
 H441 H 0.52862 0.20183 0.66329
 H442 H 0.57564 0.19715 0.69836
 H443 H 0.59472 0.29410 0.68045
 H444 H 0.44198 0.28722 0.62305
 H445 H 0.39480 0.29034 0.65773
 H446 H 0.43267 0.22007 0.72296
 H447 H 0.47950 0.21836 0.68700
 C448 C 0.49869 0.34017 0.55682
 C449 C 0.49449 0.16331 0.55625
 C450 C 0.41031 0.25578 0.69339
 C451 C 0.58871 0.24547 0.69250
 C452 C 0.52406 0.79573 0.91972
 H453 H 0.54594 0.78374 0.91652
 C454 C 0.52239 0.82218 0.94015
 H455 H 0.54317 0.83089 0.95225
 C456 C 0.47042 0.79958 0.90717
 H457 H 0.45020 0.79067 0.89427
 C458 C 0.46768 0.82588 0.92754
 H459 H 0.44540 0.83731 0.92948
 N460 N 0.49833 0.78521 0.90344
 C461 C 0.50068 0.68514 0.88963
 H462 H 0.50015 0.68343 0.86252
 C463 C 0.50090 0.65823 0.90900
 H464 H 0.50129 0.63584 0.89655
 C465 C 0.50080 0.71636 0.93870
 H466 H 0.50072 0.73913 0.95017
 C467 C 0.50029 0.68983 0.95915
 H468 H 0.50015 0.69226 0.98622
 Zn469 Zn 0.50082 0.74915 0.87604
 N470 N 0.50123 0.71354 0.90456
 C471 C 0.55655 0.72561 0.84590
 N472 N 0.53771 0.75089 0.84891
 C473 C 0.54496 0.77804 0.83315
 C474 C 0.57205 0.78052 0.81375
 C475 C 0.58346 0.72694 0.82629
 C476 C 0.44105 0.72842 0.85806
 C477 C 0.41382 0.72660 0.83921
 C478 C 0.43587 0.76270 0.79941
 C479 C 0.46283 0.76389 0.81911
 N480 N 0.46495 0.74688 0.84789
 H481 H 0.55115 0.70438 0.85894
 H482 H 0.53003 0.79804 0.83623
 H483 H 0.57774 0.80248 0.80206
 H484 H 0.59831 0.70670 0.82451
 H485 H 0.44277 0.71557 0.88128
 H486 H 0.39481 0.71224 0.84802
 H487 H 0.43429 0.77670 0.77692
 H488 H 0.48187 0.77868 0.81156
 C489 C 0.50044 0.66039 0.94416
 C490 C 0.49394 0.83759 0.94413
 C491 C 0.41096 0.74398 0.80964
 C492 C 0.59171 0.75473 0.81033
 C493 C -0.21541 0.65661 0.96677
 H494 H -0.20627 0.66231 0.99131
 C495 C -0.20725 0.67473 0.93885
 H496 H -0.19225 0.69474 0.94189
 C497 C -0.24654 0.62387 0.93268
 H498 H -0.26139 0.60378 0.93015
 C499 C -0.23886 0.64102 0.90437
 H500 H -0.24861 0.63445 0.88031
 N501 N -0.23577 0.63251 0.96334
 C502 C -0.26982 0.61927 1.06520
 H503 H -0.26832 0.59419 1.06593
 C504 C -0.27858 0.63566 1.09385
 H505 H -0.28279 0.62273 1.11668
 C506 C -0.26416 0.66610 1.03457
 H507 H -0.25884 0.67782 1.01130
 C508 C -0.27274 0.68353 1.06278
 H509 H -0.27273 0.70866 1.06131
 Zn510 Zn -0.24932 0.60895 1.00069
 N511 N -0.26194 0.63462 1.03667
 C512 C -0.19679 0.59225 1.03906
 N513 N -0.21585 0.58346 1.01353
 C514 C -0.20872 0.55901 0.99332
 C515 C -0.18113 0.54272 0.99793
 C516 C -0.16842 0.57713 1.04389
 C517 C -0.30858 0.60222 0.97608
 C518 C -0.33721 0.58836 0.96995
 C519 C -0.31655 0.53977 0.99038
 C520 C -0.28805 0.55456 0.99590
 N521 N -0.28478 0.58538 0.98902
 H522 H -0.20258 0.61229 1.05423
 H523 H -0.22376 0.55314 0.97252
 H524 H -0.17543 0.52394 0.98089
 H525 H -0.15259 0.58556 1.06293
 H526 H -0.30552 0.62681 0.97151
 H527 H -0.35591 0.60266 0.96067
 H528 H -0.31951 0.51568 0.99756
 H529 H -0.26926 0.54181 1.00735
 C530 C -0.27967 0.66832 1.09311
 C531 C -0.21966 0.66718 0.90742
 C532 C -0.34170 0.55700 0.97811
 C533 C -0.15994 0.55274 1.02237
 C534 C -0.21824 0.34171 0.53414
 H535 H -0.21030 0.33494 0.50940
 C536 C -0.21004 0.32492 0.56109
 H537 H -0.19582 0.30437 0.55806
 C538 C -0.24567 0.37880 0.56751
 H539 H -0.25928 0.39974 0.57002
 C540 C -0.23702 0.36135 0.59770
 H541 H -0.24578 0.36921 0.62180
 N542 N -0.23807 0.36849 0.53791
 C543 C -0.27227 0.38020 0.43572
 H544 H -0.27025 0.40522 0.43419
 C545 C -0.28127 0.36317 0.40757
 H546 H -0.28525 0.37522 0.38413
 C547 C -0.26797 0.33411 0.46788
 H548 H -0.26336 0.32292 0.49160
 C549 C -0.27669 0.31611 0.44018
 H550 H -0.27734 0.29103 0.44227
 Zn551 Zn -0.25213 0.39154 0.50048
 N552 N -0.26489 0.36548 0.46480
 C553 C -0.19966 0.40914 0.46187
 N554 N -0.21885 0.41727 0.48760
 C555 C -0.21180 0.44116 0.50859
 C556 C -0.18405 0.45741 0.50478
 C557 C -0.17122 0.42438 0.45765
 C558 C -0.31098 0.39876 0.52672
 C559 C -0.33972 0.41260 0.53228
 C560 C -0.31952 0.46035 0.50896
 C561 C -0.29098 0.44555 0.50396
 N562 N -0.28748 0.41511 0.51236
 H563 H -0.20539 0.38948 0.44610
 H564 H -0.22703 0.44654 0.52943
 H565 H -0.17845 0.47570 0.52245
 H566 H -0.15528 0.41652 0.43838
 H567 H -0.30766 0.37447 0.53269
 H568 H -0.35813 0.39852 0.54271
 H569 H -0.32255 0.48408 0.50052
 H570 H -0.27230 0.45789 0.49165
 C571 C -0.28301 0.33069 0.40951
 C572 C -0.22089 0.33472 0.59477
 C573 C -0.34464 0.44346 0.52217
 C574 C -0.16277 0.44806 0.48009
 C575 C 0.28245 -0.15695 0.03314
 H576 H 0.29025 -0.16387 0.00839
 C577 C 0.29042 -0.17385 0.06009
 H578 H 0.30431 -0.19462 0.05707
 C579 C 0.25562 -0.11943 0.06651
 H580 H 0.24223 -0.09833 0.06900
 C581 C 0.26404 -0.13697 0.09671
 H582 H 0.25542 -0.12897 0.12081
 N583 N 0.26301 -0.12988 0.03692
 C584 C 0.22883 -0.11839 -0.06526
 H585 H 0.23113 -0.09340 -0.06697
 C586 C 0.21965 -0.13549 -0.09329
 H587 H 0.21583 -0.12355 -0.11682
 C588 C 0.23253 -0.16432 -0.03274
 H589 H 0.23694 -0.17541 -0.00892
 C590 C 0.22361 -0.18239 -0.06031
 H591 H 0.22263 -0.20745 -0.05802
 Zn592 Zn 0.24883 -0.10687 -0.00048
 N593 N 0.23600 -0.13301 -0.03606
 C594 C 0.30133 -0.08958 -0.03908
 N595 N 0.28205 -0.08105 -0.01358
 C596 C 0.28905 -0.05683 0.00699
 C597 C 0.31682 -0.04064 0.00297
 C598 C 0.32979 -0.07441 -0.04348
 C599 C 0.19002 -0.10018 0.02588
 C600 C 0.16113 -0.08666 0.03149
 C601 C 0.18083 -0.03865 0.00829
 C602 C 0.20952 -0.05313 0.00321
 N603 N 0.21334 -0.08355 0.01153
 H604 H 0.29567 -0.10948 -0.05450
 H605 H 0.27379 -0.05115 0.02770
 H606 H 0.32243 -0.02212 0.02036
 H607 H 0.34577 -0.08259 -0.06254
 H608 H 0.19359 -0.12445 0.03177
 H609 H 0.14285 -0.10094 0.04188
 H610 H 0.17755 -0.01492 -0.00005
 H611 H 0.22805 -0.04058 -0.00910
 C612 C 0.21747 -0.16794 -0.09109
 C613 C 0.27972 -0.16387 0.09378
 C614 C 0.15589 -0.05582 0.02150
 C615 C 0.33820 -0.05038 -0.02145
 C616 C 0.28628 1.15442 0.46599
 H617 H 0.29596 1.15965 0.49041
 C618 C 0.29433 1.17271 0.43816
 H619 H 0.30981 1.19234 0.44114
 C620 C 0.25378 1.12281 0.43216
 H621 H 0.23839 1.10312 0.42968
 C622 C 0.26135 1.14010 0.40393
 H623 H 0.25101 1.13403 0.38000
 N624 N 0.26525 1.13089 0.46269
 C625 C 0.22978 1.11857 0.56413
 H626 H 0.23037 1.09345 0.56495
 C627 C 0.22055 1.13535 0.59236
 H628 H 0.21487 1.12291 0.61515
 C629 C 0.23788 1.16514 0.53359
 H630 H 0.24416 1.17664 0.51047
 C631 C 0.22906 1.18289 0.56144
 H632 H 0.22981 1.20801 0.56010
 Zn633 Zn 0.25141 1.10760 0.50009
 N634 N 0.23900 1.13360 0.53583
 C635 C 0.30335 1.09001 0.53897
 N636 N 0.28452 1.08175 0.51303
 C637 C 0.29175 1.05766 0.49239
 C638 C 0.31931 1.04129 0.49684
 C639 C 0.33169 1.07481 0.54368
 C640 C 0.19188 1.10179 0.47618
 C641 C 0.16304 1.08832 0.47022
 C642 C 0.18347 1.03921 0.48945
 C643 C 0.21217 1.05362 0.49482
 N644 N 0.21566 1.08450 0.48848
 H645 H 0.29746 1.10978 0.55451
 H646 H 0.27686 1.05218 0.47135
 H647 H 0.32511 1.02283 0.47944
 H648 H 0.34741 1.08287 0.56303
 H649 H 0.19514 1.12641 0.47201
 H650 H 0.14435 1.10295 0.46150
 H651 H 0.18034 1.01503 0.49621
 H652 H 0.23099 1.04050 0.50574
 C653 C 0.22069 1.16791 0.59134
 C654 C 0.28112 1.16583 0.40693
 C655 C 0.15834 1.05689 0.47786
 C656 C 0.34035 1.05088 0.52164
 C657 C 0.18511 0.46497 0.28177
 H658 H 0.19259 0.48633 0.29358
 C659 C 0.20152 0.43729 0.28772
 H660 H 0.22204 0.43744 0.30340
 C661 C 0.14905 0.43812 0.24745
 H662 H 0.12824 0.43810 0.23237
 C663 C 0.16424 0.41028 0.25306
 H664 H 0.15537 0.38927 0.24150
 N665 N 0.16013 0.46502 0.26071
 C666 C 0.14535 0.56000 0.22588
 H667 H 0.12042 0.55795 0.22331
 C668 C 0.15982 0.58823 0.21932
 H669 H 0.14560 0.60780 0.21217
 C670 C 0.19351 0.53701 0.24027
 H671 H 0.20658 0.51697 0.24824
 C672 C 0.20897 0.56513 0.23438
 H673 H 0.23373 0.56685 0.23878
 Zn674 Zn 0.13704 0.50093 0.24865
 N675 N 0.16205 0.53541 0.23719
 C676 C 0.11315 0.53880 0.30197
 N677 N 0.11080 0.51138 0.28500
 C678 C 0.09015 0.48924 0.29447
 C679 C 0.07099 0.49398 0.32216
 C680 C 0.09460 0.54435 0.33029
 C681 C 0.12968 0.48250 0.18243
 C682 C 0.11454 0.47495 0.15260
 C683 C 0.06550 0.48555 0.17987
 C684 C 0.08165 0.49287 0.20929
 N685 N 0.11320 0.49125 0.20998
 H686 H 0.13008 0.55595 0.29432
 H687 H 0.08891 0.46759 0.28069
 H688 H 0.05506 0.47569 0.32909
 H689 H 0.09746 0.56565 0.34447
 H690 H 0.15477 0.48164 0.18365
 H691 H 0.12854 0.46910 0.13096
 H692 H 0.04047 0.48799 0.17934
 H693 H 0.06895 0.50050 0.23120
 C694 C 0.19188 0.59125 0.22444
 C695 C 0.19120 0.40974 0.27263
 C696 C 0.08197 0.47667 0.15090
 C697 C 0.07368 0.52145 0.34103
 C698 C -0.18353 1.03448 0.28191
 H699 H -0.19175 1.01318 0.29321
 C700 C -0.19951 1.06244 0.28777
 H701 H -0.22046 1.06255 0.30284
 C702 C -0.14599 1.06092 0.24904
 H703 H -0.12474 1.06070 0.23465
 C704 C -0.16084 1.08899 0.25446
 H705 H -0.15129 1.10990 0.24334
 N706 N -0.15802 1.03411 0.26151
 C707 C -0.14422 0.93903 0.22592
 H708 H -0.11927 0.94089 0.22339
 C709 C -0.15886 0.91086 0.21946
 H710 H -0.14473 0.89121 0.21229
 C711 C -0.19227 0.96245 0.24013
 H712 H -0.20523 0.98262 0.24798
 C713 C -0.20790 0.93438 0.23436
 H714 H -0.23269 0.93287 0.23874
 Zn715 Zn -0.13544 0.99791 0.24915
 N716 N -0.16078 0.96379 0.23718
 C717 C -0.11323 0.95973 0.30290
 N718 N -0.10972 0.98685 0.28565
 C719 C -0.08853 1.00843 0.29522
 C720 C -0.07006 1.00346 0.32331
 C721 C -0.09544 0.95400 0.33168
 C722 C -0.12757 1.01785 0.18359
 C723 C -0.11222 1.02679 0.15432
 C724 C -0.06338 1.01463 0.18107
 C725 C -0.07972 1.00607 0.21001
 N726 N -0.11127 1.00787 0.21073
 H727 H -0.13060 0.94305 0.29518
 H728 H -0.08642 1.02989 0.28126
 H729 H -0.05369 1.02134 0.33025
 H730 H -0.09928 0.93303 0.34611
 H731 H -0.15265 1.01891 0.18483
 H732 H -0.12591 1.03384 0.13290
 H733 H -0.03835 1.01212 0.18040
 H734 H -0.06718 0.99751 0.23157
 C735 C -0.19094 0.90802 0.22477
 C736 C -0.18829 1.08988 0.27325
 C737 C -0.07969 1.02504 0.15272
 C738 C -0.07403 0.97639 0.34256
 C739 C 0.31471 0.53498 -0.21762
 H740 H 0.30632 0.51382 -0.20614
 C741 C 0.29889 0.56309 -0.21206
 H742 H 0.27793 0.56346 -0.19701
 C743 C 0.35244 0.56090 -0.25070
 H744 H 0.37370 0.56043 -0.26506
 C745 C 0.33774 0.58912 -0.24561
 H746 H 0.34741 0.60988 -0.25693
 N747 N 0.34025 0.53427 -0.23796
 C748 C 0.35459 0.43735 -0.27299
 H749 H 0.37951 0.43936 -0.27594
 C750 C 0.34050 0.41043 -0.27935
 H751 H 0.35448 0.39089 -0.28722
 C752 C 0.30690 0.46257 -0.25920
 H753 H 0.29395 0.48277 -0.25143
 C754 C 0.29030 0.43289 -0.26507
 H755 H 0.26564 0.43151 -0.25981
 Zn756 Zn 0.36263 0.49780 -0.24993
 N757 N 0.33709 0.46365 -0.26147
 C758 C 0.38500 0.45983 -0.19605
 N759 N 0.38841 0.48692 -0.21338
 C760 C 0.40967 0.50851 -0.20399
 C761 C 0.42834 0.50355 -0.17603
 C762 C 0.40301 0.45412 -0.16741
 C763 C 0.37069 0.51730 -0.31575
 C764 C 0.38622 0.52614 -0.34496
 C765 C 0.43486 0.51362 -0.31804
 C766 C 0.41838 0.50520 -0.28914
 N767 N 0.38684 0.50727 -0.28851
 H768 H 0.36759 0.44314 -0.20363
 H769 H 0.41175 0.52992 -0.21803
 H770 H 0.44482 0.52139 -0.16926
 H771 H 0.39928 0.43314 -0.15296
 H772 H 0.34561 0.51858 -0.31460
 H773 H 0.37281 0.53337 -0.36651
 H774 H 0.45987 0.51100 -0.31873
 H775 H 0.43080 0.49659 -0.26753
 C776 C 0.30649 0.40748 -0.27404
 C777 C 0.31029 0.59034 -0.22685
 C778 C 0.41869 0.52420 -0.34635
 C779 C 0.42452 0.47649 -0.15674
 C780 C 0.69172 -0.03529 -0.22049
 H781 H 0.70167 -0.01370 -0.21172
 C782 C 0.70662 -0.06224 -0.21482
 H783 H 0.72885 -0.06227 -0.20215
 C784 C 0.64852 -0.06107 -0.24569
 H785 H 0.62588 -0.06078 -0.25732
 C786 C 0.66397 -0.09089 -0.24030
 H787 H 0.65269 -0.11178 -0.24946
 N788 N 0.66235 -0.03518 -0.23793
 C789 C 0.64691 0.06059 -0.26902
 H790 H 0.62185 0.05881 -0.26813
 C791 C 0.66076 0.08921 -0.27478
 H792 H 0.64584 0.10924 -0.27754
 C793 C 0.69608 0.03649 -0.26355
 H794 H 0.70969 0.01584 -0.25928
 C795 C 0.71108 0.06493 -0.26931
 H796 H 0.73619 0.06607 -0.26834
 Zn797 Zn 0.63968 0.00076 -0.25035
 N798 N 0.66449 0.03521 -0.26235
 C799 C 0.62236 0.03619 -0.19322
 N800 N 0.61418 0.01207 -0.21357
 C801 C 0.58862 -0.00545 -0.20704
 C802 C 0.56973 0.00144 -0.17961
 C803 C 0.60472 0.04310 -0.16464
 C804 C 0.63043 -0.02274 -0.31481
 C805 C 0.61447 -0.03069 -0.34406
 C806 C 0.56751 -0.01025 -0.31925
 C807 C 0.58438 -0.00256 -0.29048
 N808 N 0.61528 -0.00904 -0.28870
 H809 H 0.64321 0.04935 -0.19841
 H810 H 0.58308 -0.02505 -0.22297
 H811 H 0.54953 -0.01288 -0.17476
 H812 H 0.61218 0.06146 -0.14788
 H813 H 0.65507 -0.02731 -0.31291
 H814 H 0.62716 -0.04088 -0.36478
 H815 H 0.54315 -0.00414 -0.32081
 H816 H 0.57291 0.00941 -0.27011
 C817 C 0.69330 0.09188 -0.27455
 C818 C 0.69228 -0.09176 -0.22619
 C819 C 0.58269 -0.02411 -0.34657
 C820 C 0.57828 0.02532 -0.15745
 C821 C 0.04600 0.27508 0.83022
 H822 H 0.03423 0.29704 0.83384
 C823 C 0.07238 0.27347 0.80968
 H824 H 0.08128 0.29435 0.79794
 C825 C 0.04934 0.22118 0.84180
 H826 H 0.04026 0.20085 0.85435
 C827 C 0.07556 0.21851 0.82130
 H828 H 0.08675 0.19613 0.81893
 N829 N 0.03527 0.24919 0.84609
 C830 C -0.06477 0.25112 0.86004
 H831 H -0.06651 0.25043 0.88715
 C832 C -0.09166 0.25116 0.84066
 H833 H -0.11404 0.25134 0.85310
 C834 C -0.03355 0.25159 0.81098
 H835 H -0.01078 0.25171 0.79952
 C836 C -0.06005 0.25091 0.79052
 H837 H -0.05760 0.25084 0.76345
 Zn838 Zn -0.00072 0.25150 0.87361
 N839 N -0.03637 0.25191 0.84513
 C840 C -0.02446 0.30660 0.90499
 N841 N 0.00102 0.28820 0.90105
 C842 C 0.02836 0.29566 0.91628
 C843 C 0.03084 0.32257 0.93599
 C844 C -0.02313 0.33330 0.92494
 C845 C -0.02137 0.19164 0.89172
 C846 C -0.02305 0.16442 0.91063
 C847 C 0.01345 0.18647 0.94997
 C848 C 0.01452 0.21341 0.93020
 N849 N -0.00278 0.21553 0.90164
 H850 H -0.04588 0.30101 0.89243
 H851 H 0.04848 0.28103 0.91256
 H852 H 0.05295 0.32847 0.94720
 H853 H -0.04354 0.34783 0.92742
 H854 H -0.03444 0.19337 0.86865
 H855 H -0.03753 0.14542 0.90203
 H856 H 0.02765 0.18488 0.97231
 H857 H 0.02940 0.23244 0.93755
 C858 C -0.08949 0.25077 0.80549
 C859 C 0.08749 0.24491 0.80515
 C860 C -0.00542 0.16157 0.94001
 C861 C 0.00486 0.34181 0.94031
 C862 C 0.45888 0.27256 0.17391
 H863 H 0.47387 0.29274 0.17356
 C864 C 0.43282 0.27199 0.19497
 H865 H 0.42746 0.29201 0.21041
 C866 C 0.44694 0.22224 0.15334
 H867 H 0.45240 0.20297 0.13694
 C868 C 0.42062 0.22080 0.17383
 H869 H 0.40566 0.20060 0.17260
 N870 N 0.46549 0.24785 0.15373
 C871 C 0.56576 0.24765 0.13870
 H872 H 0.56724 0.24696 0.11158
 C873 C 0.59286 0.24767 0.15785
 H874 H 0.61515 0.24770 0.14522
 C875 C 0.53502 0.24843 0.18809
 H876 H 0.51243 0.24848 0.19988
 C877 C 0.56167 0.24781 0.20827
 H878 H 0.55942 0.24786 0.23536
 Zn879 Zn 0.50141 0.24920 0.12592
 N880 N 0.53749 0.24883 0.15390
 C881 C 0.52543 0.30394 0.09432
 N882 N 0.49985 0.28574 0.09858
 C883 C 0.47248 0.29308 0.08341
 C884 C 0.47004 0.31974 0.06342
 C885 C 0.52414 0.33041 0.07410
 C886 C 0.51425 0.18691 0.11147
 C887 C 0.51585 0.15968 0.09252
 C888 C 0.49330 0.18702 0.04559
 C889 C 0.49248 0.21400 0.06537
 N890 N 0.50265 0.21338 0.09779
 H891 H 0.54689 0.29830 0.10678
 H892 H 0.45237 0.27840 0.08723
 H893 H 0.44791 0.32560 0.05226
 H894 H 0.54460 0.34487 0.07138
 H895 H 0.52218 0.18695 0.13724
 H896 H 0.52503 0.13875 0.10384
 H897 H 0.48476 0.18764 0.02004
 H898 H 0.48344 0.23526 0.05486
 C899 C 0.59098 0.24762 0.19306
 C900 C 0.41348 0.24578 0.19512
 C901 C 0.50502 0.15948 0.05931
 C902 C 0.49611 0.33882 0.05879
 C903 C -0.04951 0.77627 0.66409
 H904 H -0.04024 0.79832 0.65576
 C905 C -0.07442 0.77555 0.68431
 H906 H -0.08540 0.79707 0.69194
 C907 C -0.04494 0.72099 0.66402
 H908 H -0.03323 0.69994 0.65628
 C909 C -0.07254 0.71907 0.68606
 H910 H -0.08115 0.69634 0.69296
 N911 N -0.03494 0.74782 0.65344
 C912 C 0.06517 0.74856 0.63887
 H913 H 0.06695 0.74775 0.61177
 C914 C 0.09206 0.74880 0.65831
 H915 H 0.11445 0.74888 0.64591
 C916 C 0.03390 0.74958 0.68788
 H917 H 0.01112 0.75003 0.69931
 C918 C 0.06038 0.74913 0.70838
 H919 H 0.05789 0.74945 0.73545
 Zn920 Zn 0.00084 0.74923 0.62546
 N921 N 0.03674 0.74943 0.65373
 C922 C 0.02501 0.80415 0.59412
 N923 N -0.00052 0.78574 0.59784
 C924 C -0.02767 0.79300 0.58214
 C925 C -0.02996 0.81974 0.56226
 C926 C 0.02387 0.83069 0.57400
 C927 C 0.02214 0.69000 0.60517
 C928 C 0.02384 0.66322 0.58545
 C929 C -0.01587 0.68424 0.54935
 C930 C -0.01691 0.71073 0.56989
 N931 N 0.00200 0.71319 0.59722
 H932 H 0.04627 0.79870 0.60702
 H933 H -0.04788 0.77844 0.58577
 H934 H -0.05196 0.82556 0.55080
 H935 H 0.04427 0.84530 0.57177
 H936 H 0.03652 0.69188 0.62729
 H937 H 0.03953 0.64472 0.59257
 H938 H -0.03139 0.68236 0.52808
 H939 H -0.03299 0.72917 0.56405
 C940 C 0.08985 0.74881 0.69349
 C941 C -0.08713 0.74527 0.69566
 C942 C 0.00466 0.66011 0.55724
 C943 C -0.00396 0.83901 0.55824
 C944 C 0.54612 0.77415 0.32848
 H945 H 0.53424 0.79607 0.33186
 C946 C 0.57262 0.77254 0.30809
 H947 H 0.58144 0.79339 0.29621
 C948 C 0.54977 0.72038 0.34059
 H949 H 0.54080 0.70010 0.35334
 C950 C 0.57611 0.71771 0.32024
 H951 H 0.58748 0.69540 0.31816
 N952 N 0.53548 0.74833 0.34454
 C953 C 0.43537 0.75053 0.35902
 H954 H 0.43382 0.74965 0.38613
 C955 C 0.40834 0.75093 0.33985
 H956 H 0.38607 0.75115 0.35251
 C957 C 0.46626 0.75138 0.30973
 H958 H 0.48895 0.75154 0.29809
 C959 C 0.43961 0.75108 0.28948
 H960 H 0.44188 0.75131 0.26239
 Zn961 Zn 0.49950 0.75076 0.37219
 N962 N 0.46368 0.75134 0.34390
 C963 C 0.47602 0.80608 0.40337
 N964 N 0.50143 0.78755 0.39953
 C965 C 0.52879 0.79498 0.41472
 C966 C 0.53137 0.82196 0.43431
 C967 C 0.47745 0.83286 0.42319
 C968 C 0.47899 0.69082 0.39027
 C969 C 0.47720 0.66365 0.40928
 C970 C 0.51314 0.68597 0.44903
 C971 C 0.51432 0.71286 0.42916
 N972 N 0.49737 0.71481 0.40034
 H973 H 0.45458 0.80051 0.39084
 H974 H 0.54886 0.78025 0.41108
 H975 H 0.55349 0.82780 0.44553
 H976 H 0.45708 0.84745 0.42562
 H977 H 0.46616 0.69244 0.36704
 H978 H 0.46288 0.64456 0.40057
 H979 H 0.52707 0.68453 0.47157
 H980 H 0.52902 0.73199 0.43664
 C981 C 0.41025 0.75091 0.30466
 C982 C 0.58795 0.74406 0.30390
 C983 C 0.49449 0.66096 0.43893
 C984 C 0.50545 0.84131 0.43855
 B985 B -0.01827 0.01628 1.02675
 B986 B -0.03606 0.01139 0.98938
 B987 B -0.00618 0.03661 0.99279
 B988 B 0.02014 0.02157 1.01968
 B989 B 0.00620 -0.01344 1.03230
 B990 B -0.02885 -0.01958 1.01366
 B991 B 0.01500 -0.01662 0.96453
 B992 B 0.03284 -0.01168 1.00183
 B993 B 0.00308 -0.03690 0.99846
 B994 B -0.02335 -0.02183 0.97146
 B995 B -0.00940 0.01332 0.95876
 B996 B 0.02571 0.01923 0.97741
 B997 B 0.48122 0.51577 0.52613
 B998 B 0.46366 0.51077 0.48864
 B999 B 0.49345 0.53610 0.49221
 B1000 B 0.51965 0.52117 0.51931
 B1001 B 0.50575 0.48612 0.53189
 B1002 B 0.47084 0.47984 0.51302
 B1003 B 0.51496 0.48288 0.46419
 B1004 B 0.53257 0.48794 0.50160
 B1005 B 0.50291 0.46260 0.49806
 B1006 B 0.47660 0.47755 0.47086
 B1007 B 0.49050 0.51274 0.45821
 B1008 B 0.52549 0.51879 0.47708
 B1009 B 0.51978 0.98675 0.52649
 B1010 B 0.53701 0.99242 0.48888
 B1011 B 0.50776 0.96644 0.49243
 B1012 B 0.48148 0.98063 0.52007
 B1013 B 0.49471 1.01594 0.53296
 B1014 B 0.52938 1.02299 0.51377
 B1015 B 0.48491 1.01944 0.46528
 B1016 B 0.46774 1.01368 0.50290
 B1017 B 0.49681 1.03967 0.49934
 B1018 B 0.52327 1.02554 0.47165
 B1019 B 0.51002 0.99015 0.45872
 B1020 B 0.47537 0.98322 0.47798
 B1021 B 0.01934 0.48774 1.02699
 B1022 B 0.03628 0.49305 0.98915
 B1023 B 0.00702 0.46718 0.99326
 B1024 B -0.01901 0.48165 1.02104
 B1025 B -0.00559 0.51705 1.03346
 B1026 B 0.02894 0.52382 1.01383
 B1027 B -0.01598 0.51998 0.96586
 B1028 B -0.03282 0.51458 1.00368
 B1029 B -0.00368 0.54045 0.99955
 B1030 B 0.02246 0.52604 0.97174
 B1031 B 0.00902 0.49060 0.95927
 B1032 B -0.02546 0.48388 0.97900
 B1033 B 0.01562 0.51416 0.47121
 B1034 B 0.03365 0.50953 0.50826
 B1035 B 0.00403 0.53505 0.50492
 B1036 B -0.02266 0.51994 0.47851
 B1037 B -0.00931 0.48456 0.46617
 B1038 B 0.02573 0.47824 0.48465
 B1039 B -0.01761 0.48254 0.53421
 B1040 B -0.03568 0.48714 0.49694
 B1041 B -0.00633 0.46160 0.50039
 B1042 B 0.02060 0.47670 0.52689
 B1043 B 0.00732 0.51223 0.53919
 B1044 B -0.02788 0.51827 0.52085
 B1045 B 0.51706 0.01461 -0.02947
 B1046 B 0.53517 0.00936 0.00760
 B1047 B 0.50591 0.03525 0.00459
 B1048 B 0.47893 0.02076 -0.02200
 B1049 B 0.49182 -0.01465 -0.03480
 B1050 B 0.52696 -0.02148 -0.01667
 B1051 B 0.48361 -0.01739 0.03313
 B1052 B 0.46555 -0.01212 -0.00400
 B1053 B 0.49469 -0.03802 -0.00100
 B1054 B 0.52178 -0.02358 0.02565
 B1055 B 0.50886 0.01188 0.03852
 B1056 B 0.47377 0.01867 0.02031
 B1057 B 0.48213 0.48457 -0.02649
 B1058 B 0.46454 0.48967 0.01081
 B1059 B 0.49416 0.46422 0.00732
 B1060 B 0.52053 0.47903 -0.01973
 B1061 B 0.50687 0.51416 -0.03228
 B1062 B 0.47203 0.52062 -0.01332
 B1063 B 0.51593 0.51725 0.03547
 B1064 B 0.53360 0.51217 -0.00199
 B1065 B 0.50414 0.53762 0.00167
 B1066 B 0.47763 0.52275 0.02881
 B1067 B 0.49122 0.48747 0.04136
 B1068 B 0.52624 0.48133 0.02246
 B1069 B -0.01778 0.98486 0.47340
 B1070 B -0.03554 0.99005 0.51057
 B1071 B -0.00588 0.96460 0.50730
 B1072 B 0.02059 0.97933 0.48035
 B1073 B 0.00698 1.01441 0.46762
 B1074 B -0.02794 1.02096 0.48640
 B1075 B 0.01576 1.01769 0.53540
 B1076 B 0.03357 1.01252 0.49803
 B1077 B 0.00413 1.03796 0.50148
 B1078 B -0.02251 1.02319 0.52855
 B1079 B -0.00898 0.98792 0.54128
 B1080 B 0.02612 0.98175 0.52256
 B1081 B 0.76666 0.23030 0.22404
 B1082 B 0.76147 0.21267 0.26148
 B1083 B 0.78680 0.24247 0.25808
 B1084 B 0.77203 0.26872 0.23094
 B1085 B 0.73706 0.25484 0.21815
 B1086 B 0.73068 0.21988 0.23692
 B1087 B 0.73349 0.26396 0.28585
 B1088 B 0.73873 0.28161 0.24848
 B1089 B 0.71339 0.25195 0.25182
 B1090 B 0.72818 0.22559 0.27909
 B1091 B 0.76329 0.23947 0.29196
 B1092 B 0.76944 0.27449 0.27316
 B1093 B 0.73717 0.76966 0.72290
 B1094 B 0.74255 0.78722 0.76037
 B1095 B 0.71696 0.75760 0.75700
 B1096 B 0.73153 0.73132 0.72958
 B1097 B 0.76671 0.74489 0.71664
 B1098 B 0.77325 0.77979 0.73561
 B1099 B 0.77016 0.73552 0.78440
 B1100 B 0.76466 0.71805 0.74692
 B1101 B 0.79029 0.74752 0.75030
 B1102 B 0.77579 0.77396 0.77777
 B1103 B 0.74057 0.76035 0.79075
 B1104 B 0.73408 0.72551 0.77170
 B1105 B 0.26452 0.26713 0.77905
 B1106 B 0.25978 0.28483 0.74183
 B1107 B 0.28528 0.25521 0.74543
 B1108 B 0.27027 0.22876 0.77218
 B1109 B 0.23494 0.24224 0.78449
 B1110 B 0.22858 0.27712 0.76563
 B1111 B 0.23272 0.23330 0.71657
 B1112 B 0.23744 0.21557 0.75401
 B1113 B 0.21190 0.24491 0.75033
 B1114 B 0.22691 0.27160 0.72346
 B1115 B 0.26240 0.25820 0.71119
 B1116 B 0.26848 0.22316 0.72991
 B1117 B 0.23440 0.73332 0.27607
 B1118 B 0.23908 0.71569 0.23872
 B1119 B 0.21383 0.74548 0.24248
 B1120 B 0.22901 0.77177 0.26939
 B1121 B 0.26415 0.75791 0.28158
 B1122 B 0.27025 0.72302 0.26253
 B1123 B 0.26671 0.76703 0.21379
 B1124 B 0.26206 0.78469 0.25133
 B1125 B 0.28731 0.75507 0.24740
 B1126 B 0.27208 0.72865 0.22038
 B1127 B 0.23677 0.74245 0.20819
 B1128 B 0.23097 0.77750 0.22718
 B1129 B 0.26546 0.73084 0.72346
 B1130 B 0.26050 0.71335 0.76099
 B1131 B 0.28590 0.74307 0.75726
 B1132 B 0.27099 0.76928 0.73017
 B1133 B 0.23589 0.75546 0.71774
 B1134 B 0.22954 0.72058 0.73670
 B1135 B 0.23287 0.76480 0.78544
 B1136 B 0.23787 0.78232 0.74797
 B1137 B 0.21246 0.75276 0.75166
 B1138 B 0.22739 0.72642 0.77887
 B1139 B 0.26265 0.74024 0.79137
 B1140 B 0.26874 0.77518 0.77239
 B1141 B 0.23643 0.26963 0.22373
 B1142 B 0.24180 0.28697 0.26139
 B1143 B 0.21633 0.25732 0.25780
 B1144 B 0.23093 0.23125 0.23012
 B1145 B 0.26607 0.24504 0.21723
 B1146 B 0.27243 0.27985 0.23648
 B1147 B 0.26966 0.23520 0.28485
 B1148 B 0.26417 0.21798 0.24727
 B1149 B 0.28965 0.24759 0.25087
 B1150 B 0.27510 0.27371 0.27859
 B1151 B 0.23999 0.25987 0.29155
 B1152 B 0.23358 0.22515 0.27218
 B1153 B 0.76538 0.76623 0.27814
 B1154 B 0.76041 0.78425 0.24099
 B1155 B 0.78596 0.75470 0.24419
 B1156 B 0.77114 0.72800 0.27087
 B1157 B 0.73582 0.74133 0.28351
 B1158 B 0.72942 0.77647 0.26517
 B1159 B 0.73321 0.73287 0.21563
 B1160 B 0.73819 0.71491 0.25286
 B1161 B 0.71260 0.74432 0.24962
 B1162 B 0.72741 0.77116 0.22287
 B1163 B 0.76277 0.75780 0.21017
 B1164 B 0.76911 0.72268 0.22859
 B1165 B 0.73487 0.23129 0.77683
 B1166 B 0.73980 0.21376 0.73951
 B1167 B 0.71426 0.24332 0.74323
 B1168 B 0.72912 0.26969 0.77022
 B1169 B 0.76435 0.25615 0.78249
 B1170 B 0.77087 0.22137 0.76337
 B1171 B 0.76698 0.26540 0.71471
 B1172 B 0.76207 0.28297 0.75228
 B1173 B 0.78762 0.25362 0.74835
 B1174 B 0.77271 0.22706 0.72124
 B1175 B 0.73730 0.24052 0.70899
 B1176 B 0.73114 0.27550 0.72803
 C1177 C 0.48014 1.02139 0.39587
 C1178 C 0.44989 1.00378 0.38802
 C1179 C 0.43596 1.03349 0.37313
 C1180 C 0.46623 1.05127 0.38040
 C1181 C 0.42289 1.04286 0.40746
 C1182 C 0.43653 1.01289 0.42235
 C1183 C 0.46704 1.03030 0.43099
 C1184 C 0.45342 1.06040 0.41561
 H1185 H 0.50383 1.01264 0.39023
 H1186 H 0.44861 0.98020 0.37676
 H1187 H 0.47846 1.06712 0.36283
 H1188 H 0.39919 1.05216 0.41169
 H1189 H 0.42311 0.99610 0.43754
 H1190 H 0.45407 1.08447 0.42496
 C1191 C -0.06444 0.51227 0.92328
 C1192 C -0.07875 0.54151 0.90765
 C1193 C -0.06540 0.53262 0.87517
 C1194 C -0.05137 0.50422 0.88858
 C1195 C -0.03706 0.55100 0.88084
 C1196 C -0.04916 0.56028 0.91625
 C1197 C -0.03429 0.53065 0.93179
 C1198 C -0.02133 0.52210 0.89637
 H1199 H -0.07769 0.49499 0.93801
 H1200 H -0.10295 0.54998 0.91054
 H1201 H -0.05269 0.48109 0.87620
 H1202 H -0.02646 0.56696 0.86218
 H1203 H -0.04994 0.58454 0.92514
 H1204 H 0.00242 0.51403 0.88983
 C1205 C 0.06428 -0.01423 0.92178
 C1206 C 0.07440 -0.04555 0.90660
 C1207 C 0.06246 -0.03456 0.87229
 C1208 C 0.05220 -0.00347 0.88750
 C1209 C 0.03025 -0.04859 0.87955
 C1210 C 0.04188 -0.05941 0.91462
 C1211 C 0.03197 -0.02801 0.93013
 C1212 C 0.02005 -0.01735 0.89523
 H1213 H 0.07907 0.00094 0.93749
 H1214 H 0.09668 -0.05761 0.91159
 H1215 H 0.05638 0.01983 0.87640
 H1216 H 0.01633 -0.06281 0.86182
 H1217 H 0.03731 -0.08286 0.92481
 H1218 H -0.00240 -0.00578 0.88970
 C1219 C 0.52041 0.48221 0.39493
 C1220 C 0.55259 0.49611 0.38741
 C1221 C 0.56293 0.46503 0.37224
 C1222 C 0.53069 0.45099 0.37929
 C1223 C 0.57470 0.45401 0.40660
 C1224 C 0.56450 0.48532 0.42176
 C1225 C 0.53215 0.47152 0.42991
 C1226 C 0.54214 0.44015 0.41442
 H1227 H 0.49799 0.49378 0.38927
 H1228 H 0.55683 0.51941 0.37636
 H1229 H 0.51685 0.43678 0.36147
 H1230 H 0.59696 0.44195 0.41169
 H1231 H 0.57921 0.50048 0.43757
 H1232 H 0.53751 0.41666 0.42447
 C1233 C 0.56513 0.51338 0.07739
 C1234 C 0.57662 0.54411 0.09279
 C1235 C 0.56476 0.53309 0.12710
 C1236 C 0.55298 0.50262 0.11165
 C1237 C 0.53304 0.54847 0.12071
 C1238 C 0.54459 0.55926 0.08554
 C1239 C 0.53327 0.52840 0.06975
 C1240 C 0.52136 0.51784 0.10474
 H1241 H 0.57936 0.49796 0.06132
 H1242 H 0.59951 0.55514 0.08807
 H1243 H 0.55627 0.47901 0.12227
 H1244 H 0.51988 0.56298 0.13886
 H1245 H 0.54087 0.58302 0.07580
 H1246 H 0.49852 0.50707 0.11048
 C1247 C 0.02105 1.01864 0.60467
 C1248 C 0.05270 1.00353 0.61173
 C1249 C 0.06441 1.03411 0.62699
 C1250 C 0.03266 1.04940 0.62044
 C1251 C 0.07629 1.04494 0.59262
 C1252 C 0.06488 1.01409 0.57742
 C1253 C 0.03300 1.02901 0.56963
 C1254 C 0.04424 1.05999 0.58519
 H1255 H -0.00177 1.00786 0.61042
 H1256 H 0.05601 0.97998 0.62253
 H1257 H 0.01945 1.06400 0.63847
 H1258 H 0.09918 1.05595 0.58784
 H1259 H 0.07914 0.99863 0.56142
 H1260 H 0.04046 1.08361 0.57503
 C1261 C -0.04509 0.44160 0.58579
 C1262 C -0.03244 0.45275 0.62032
 C1263 C -0.06396 0.46798 0.62796
 C1264 C -0.07691 0.45668 0.59417
 C1265 C -0.05292 0.49840 0.61187
 C1266 C -0.02143 0.48328 0.60371
 C1267 C -0.03435 0.47227 0.56927
 C1268 C -0.06600 0.48732 0.57807
 H1269 H -0.04176 0.41754 0.57703
 H1270 H -0.01866 0.43846 0.63806
 H1271 H -0.09961 0.44519 0.58973
 H1272 H -0.05609 0.52204 0.62253
 H1273 H 0.00152 0.49416 0.60855
 H1274 H -0.08062 0.50271 0.56253
 C1275 C 0.43506 -0.01257 0.07669
 C1276 C 0.42375 -0.04322 0.09243
 C1277 C 0.43650 -0.03225 0.12643
 C1278 C 0.44795 -0.00183 0.11069
 C1279 C 0.46796 -0.04771 0.11898
 C1280 C 0.45551 -0.05852 0.08423
 C1281 C 0.46665 -0.02783 0.06805
 C1282 C 0.47938 -0.01716 0.10270
 H1283 H 0.42068 0.00311 0.06124
 H1284 H 0.40101 -0.05450 0.08768
 H1285 H 0.44490 0.02177 0.12149
 H1286 H 0.48147 -0.06223 0.13674
 H1287 H 0.45872 -0.08254 0.07529
 H1288 H 0.50238 -0.00650 0.10783
 C1289 C 0.41366 0.47268 0.05121
 C1290 C 0.38364 0.48900 0.03894
 C1291 C 0.37185 0.45767 0.02529
 C1292 C 0.40136 0.44129 0.03771
 C1293 C 0.38718 0.46416 -0.00884
 C1294 C 0.39955 0.49546 0.00468
 C1295 C 0.42921 0.47877 0.01691
 C1296 C 0.41675 0.44765 0.00346
 H1297 H 0.42468 0.47630 0.07610
 H1298 H 0.36972 0.50592 0.05366
 H1299 H 0.40288 0.41923 0.05197
 H1300 H 0.37576 0.46052 -0.03348
 H1301 H 0.39867 0.51799 -0.00877
 H1302 H 0.42932 0.43005 -0.01138
 C1303 C -0.10049 0.99553 0.50350
 C1304 C -0.11258 0.96399 0.49033
 C1305 C -0.12828 0.95792 0.52434
 C1306 C -0.11679 0.98949 0.53765
 C1307 C -0.09886 0.94185 0.53744
 C1308 C -0.08310 0.94780 0.50330
 C1309 C -0.07091 0.97915 0.51641
 C1310 C -0.08684 0.97347 0.55060
 H1311 H -0.10130 1.01786 0.48964
 H1312 H -0.12366 0.95994 0.46559
 H1313 H -0.13095 1.00655 0.55190
 H1314 H -0.09754 0.91998 0.55207
 H1315 H -0.07035 0.93005 0.48888
 H1316 H -0.07609 0.97744 0.57557
 C1317 C -0.08671 0.03271 0.94939
 C1318 C -0.11743 0.01660 0.96001
 C1319 C -0.12727 0.04533 0.97707
 C1320 C -0.09922 0.06227 0.96675
 C1321 C -0.11368 0.03572 1.00920
 C1322 C -0.10159 0.00560 0.99280
 C1323 C -0.07125 0.02281 0.98291
 C1324 C -0.08350 0.05273 0.99982
 H1325 H -0.07650 0.03151 0.92381
 H1326 H -0.13254 0.00234 0.94350
 H1327 H -0.09966 0.08585 0.95550
 H1328 H -0.12636 0.03708 1.03345
 H1329 H -0.10382 -0.01818 1.00329
 H1330 H -0.07130 0.06907 1.01666
 C1331 C 0.41351 0.53135 0.44805
 C1332 C 0.38313 0.51408 0.45785
 C1333 C 0.37125 0.54395 0.47486
 C1334 C 0.40101 0.56129 0.46480
 C1335 C 0.38602 0.53405 0.50825
 C1336 C 0.39847 0.50423 0.49140
 C1337 C 0.42844 0.52195 0.48184
 C1338 C 0.41578 0.55167 0.49842
 H1339 H 0.42479 0.52989 0.42301
 H1340 H 0.36946 0.49871 0.44105
 H1341 H 0.40164 0.58477 0.45338
 H1342 H 0.37399 0.53487 0.53287
 H1343 H 0.39730 0.48045 0.50206
 H1344 H 0.42823 0.56783 0.51523
 C1345 C 0.08129 0.55167 0.50001
 C1346 C 0.09663 0.55858 0.53413
 C1347 C 0.12632 0.54238 0.52177
 C1348 C 0.11103 0.53532 0.48778
 C1349 C 0.11481 0.51109 0.53581
 C1350 C 0.08463 0.52725 0.54801
 C1351 C 0.06909 0.52059 0.51384
 C1352 C 0.09893 0.50405 0.50169
 H1353 H 0.06861 0.56900 0.48502
 H1354 H 0.09483 0.58076 0.54820
 H1355 H 0.12244 0.53878 0.46308
 H1356 H 0.12888 0.49446 0.55067
 H1357 H 0.07370 0.52381 0.57300
 H1358 H 0.10004 0.48136 0.48850
 C1359 C 0.58399 0.04975 -0.00206
 C1360 C 0.59762 0.05953 0.03210
 C1361 C 0.62768 0.04200 0.02340
 C1362 C 0.61408 0.03204 -0.01058
 C1363 C 0.61495 0.01227 0.03992
 C1364 C 0.58443 0.02975 0.04841
 C1365 C 0.57060 0.02017 0.01414
 C1366 C 0.60077 0.00230 0.00581
 H1367 H 0.57241 0.06542 -0.02001
 H1368 H 0.59562 0.08268 0.04398
 H1369 H 0.62656 0.03298 -0.03498
 H1370 H 0.62792 -0.00306 0.05736
 H1371 H 0.57234 0.02853 0.07301
 H1372 H 0.60211 -0.02151 -0.00483
 C1373 C 0.58729 0.97292 0.44757
 C1374 C 0.61782 0.98966 0.45786
 C1375 C 0.62933 0.95929 0.47403
 C1376 C 0.59945 0.94252 0.46348
 C1377 C 0.61458 0.96866 0.50766
 C1378 C 0.60244 0.99895 0.49166
 C1379 C 0.57234 0.98171 0.48162
 C1380 C 0.58472 0.95153 0.49736
 H1381 H 0.57607 0.97502 0.42260
 H1382 H 0.63172 1.00523 0.44148
 H1383 H 0.59864 0.91930 0.45139
 H1384 H 0.62664 0.96720 0.53218
 H1385 H 0.60381 1.02251 0.50292
 H1386 H 0.57216 0.93506 0.51373
 C1387 C 0.08413 0.45244 0.99806
 C1388 C 0.09904 0.44307 0.96439
 C1389 C 0.12879 0.46016 0.97481
 C1390 C 0.11384 0.46991 1.00822
 C1391 C 0.11714 0.49023 0.95809
 C1392 C 0.08674 0.47318 0.94796
 C1393 C 0.07161 0.48233 0.98181
 C1394 C 0.10159 0.49988 0.99169
 H1395 H 0.07160 0.43604 1.01453
 H1396 H 0.09838 0.41966 0.95270
 H1397 H 0.12577 0.46886 1.03284
 H1398 H 0.13101 0.50567 0.94154
 H1399 H 0.07559 0.47488 0.92291
 H1400 H 0.10277 0.52360 1.00258
 C1401 C -0.02188 0.41493 0.45673
 C1402 C 0.00777 0.39611 0.44958
 C1403 C -0.00774 0.36739 0.46504
 C1404 C -0.03737 0.38610 0.47232
 C1405 C 0.00526 0.37590 0.49983
 C1406 C 0.02071 0.40504 0.48438
 C1407 C -0.00895 0.42442 0.49168
 C1408 C -0.02438 0.39530 0.50725
 H1409 H -0.03333 0.42979 0.43772
 H1410 H 0.02109 0.39665 0.42569
 H1411 H -0.06160 0.37847 0.46786
 H1412 H 0.01657 0.35960 0.51759
 H1413 H 0.04504 0.41224 0.48936
 H1414 H -0.03818 0.39272 0.53040
 C1415 C 0.47605 -0.10419 0.00512
 C1416 C 0.46304 -0.11300 -0.02992
 C1417 C 0.49253 -0.13185 -0.03735
 C1418 C 0.50556 -0.12375 -0.00246
 C1419 C 0.50827 -0.10312 -0.05251
 C1420 C 0.47875 -0.08414 -0.04520
 C1421 C 0.49171 -0.07506 -0.01015
 C1422 C 0.52124 -0.09460 -0.01760
 H1423 H 0.46223 -0.10684 0.02825
 H1424 H 0.43877 -0.12045 -0.03450
 H1425 H 0.51673 -0.14029 0.01514
 H1426 H 0.52163 -0.10249 -0.07637
 H1427 H 0.46745 -0.06901 -0.06405
 H1428 H 0.54562 -0.08763 -0.01251
 C1429 C 0.02160 -0.10390 0.99600
 C1430 C 0.02975 -0.11170 1.03298
 C1431 C -0.00063 -0.12994 1.03663
 C1432 C -0.00886 -0.12299 0.99977
 C1433 C -0.01776 -0.10054 1.04815
 C1434 C 0.01275 -0.08226 1.04480
 C1435 C 0.00455 -0.07407 1.00781
 C1436 C -0.02590 -0.09313 1.01133
 H1437 H 0.03779 -0.10737 0.97478
 H1438 H 0.05248 -0.12012 1.04228
 H1439 H -0.01798 -0.13998 0.98124
 H1440 H -0.03431 -0.09863 1.06946
 H1441 H 0.02213 -0.06703 1.06486
 H1442 H -0.04924 -0.08605 1.00232
 C1443 C 0.51291 0.41720 0.54432
 C1444 C 0.48250 0.39879 0.54787
 C1445 C 0.49965 0.36948 0.53616
 C1446 C 0.52993 0.38784 0.53232
 C1447 C 0.49116 0.37645 0.49938
 C1448 C 0.47409 0.40624 0.51112
 C1449 C 0.50446 0.42542 0.50741
 C1450 C 0.52152 0.39566 0.49542
 H1451 H 0.52234 0.43246 0.56433
 H1452 H 0.46611 0.40053 0.56935
 H1453 H 0.55270 0.37935 0.54142
 H1454 H 0.48198 0.35947 0.48088
 H1455 H 0.45067 0.41327 0.50231
 H1456 H 0.53762 0.39219 0.47412
 C1457 C 0.47889 1.08536 0.54331
 C1458 C 0.50812 1.10387 0.55308
 C1459 C 0.49382 1.13298 0.53724
 C1460 C 0.46461 1.11462 0.52735
 C1461 C 0.50904 1.12512 0.50330
 C1462 C 0.52325 1.09559 0.51910
 C1463 C 0.49399 1.07656 0.50917
 C1464 C 0.47984 1.10608 0.49324
 H1465 H 0.46642 1.07009 0.56117
 H1466 H 0.51984 1.10277 0.57786
 H1467 H 0.44017 1.12229 0.53021
 H1468 H 0.52158 1.14173 0.48682
 H1469 H 0.54782 1.08842 0.51573
 H1470 H 0.46811 1.10912 0.46893
 C1471 C -0.01905 0.60694 0.99179
 C1472 C -0.03551 0.61623 1.02504
 C1473 C -0.00636 0.63415 1.03605
 C1474 C 0.01008 0.62556 1.00298
 C1475 C 0.00671 0.60496 1.05295
 C1476 C -0.02244 0.58691 1.04210
 C1477 C -0.00618 0.57741 1.00886
 C1478 C 0.02303 0.59598 1.01987
 H1479 H -0.02934 0.60944 0.96663
 H1480 H -0.05994 0.62426 1.02664
 H1481 H 0.02360 0.64173 0.98690
 H1482 H 0.01740 0.60395 1.07829
 H1483 H -0.03571 0.57205 1.05967
 H1484 H 0.04759 0.58838 1.01781
 C1485 C 0.47575 0.59431 -0.01017
 C1486 C 0.49341 0.62380 0.00148
 C1487 C 0.50140 0.63098 -0.03541
 C1488 C 0.48366 0.60197 -0.04702
 C1489 C 0.53150 0.61225 -0.03245
 C1490 C 0.52358 0.60423 0.00456
 C1491 C 0.50593 0.57479 -0.00735
 C1492 C 0.51388 0.58321 -0.04436
 H1493 H 0.45241 0.58743 -0.00090
 H1494 H 0.48477 0.64074 0.02034
 H1495 H 0.46692 0.60063 -0.06816
 H1496 H 0.55424 0.62048 -0.04202
 H1497 H 0.53998 0.60728 0.02561
 H1498 H 0.52278 0.56800 -0.06471
 C1499 C 0.01323 1.08316 0.45494
 C1500 C -0.01621 1.10311 0.45332
 C1501 C 0.00203 1.13011 0.46424
 C1502 C 0.03100 1.11237 0.46591
 C1503 C -0.00503 1.12468 0.49995
 C1504 C -0.02374 1.09530 0.49016
 C1505 C 0.00614 1.07506 0.49240
 C1506 C 0.02466 1.10449 0.50325
 H1507 H 0.02128 1.06814 0.43400
 H1508 H -0.03340 1.10328 0.43253
 H1509 H 0.05317 1.12095 0.45508
 H1510 H -0.01289 1.14285 0.51785
 H1511 H -0.04720 1.08955 0.49997
 H1512 H 0.04159 1.10818 0.52372
 C1513 C 0.81111 0.70357 0.83390
 C1514 C 0.80285 0.71714 0.86905
 C1515 C 0.78431 0.68749 0.87715
 C1516 C 0.79285 0.67369 0.84290
 C1517 C 0.75483 0.70203 0.86246
 C1518 C 0.77316 0.73168 0.85380
 C1519 C 0.78119 0.71784 0.81878
 C1520 C 0.76310 0.68791 0.82824
 H1521 H 0.83496 0.70283 0.82389
 H1522 H 0.81927 0.72917 0.88616
 H1523 H 0.80151 0.64968 0.83920
 H1524 H 0.73139 0.70157 0.87412
 H1525 H 0.76514 0.75570 0.85911
 H1526 H 0.74586 0.67458 0.81357
 C1527 C 0.26271 0.18750 0.32849
 C1528 C 0.29253 0.17276 0.34235
 C1529 C 0.28487 0.18644 0.37688
 C1530 C 0.25532 0.20152 0.36299
 C1531 C 0.30370 0.21587 0.36860
 C1532 C 0.31106 0.20240 0.33317
 C1533 C 0.28107 0.21723 0.31886
 C1534 C 0.27392 0.23095 0.35414
 H1535 H 0.24506 0.17447 0.31407
 H1536 H 0.30079 0.14864 0.33843
 H1537 H 0.23211 0.20133 0.37518
 H1538 H 0.32063 0.22752 0.38542
 H1539 H 0.33465 0.20122 0.32246
 H1540 H 0.26635 0.25507 0.35974
 C1541 C 0.69058 0.29128 0.33540
 C1542 C 0.70116 0.27971 0.37058
 C1543 C 0.71529 0.31189 0.37779
 C1544 C 0.70454 0.32377 0.34337
 C1545 C 0.74641 0.30144 0.36280
 C1546 C 0.73242 0.26931 0.35512
 C1547 C 0.72200 0.28116 0.32010
 C1548 C 0.73588 0.31345 0.32839
 H1549 H 0.66716 0.28677 0.32513
 H1550 H 0.68680 0.26589 0.38828
 H1551 H 0.69265 0.34612 0.33819
 H1552 H 0.76965 0.30555 0.37401
 H1553 H 0.74384 0.24682 0.36082
 H1554 H 0.75115 0.32814 0.31266
 C1555 C 0.23573 0.81442 0.82776
 C1556 C 0.20452 0.82487 0.84295
 C1557 C 0.21550 0.81309 0.87733
 C1558 C 0.24647 0.80250 0.86213
 C1559 C 0.20122 0.78092 0.87038
 C1560 C 0.19042 0.79239 0.83525
 C1561 C 0.22170 0.78214 0.81973
 C1562 C 0.23234 0.77039 0.85471
 H1563 H 0.25093 0.82900 0.81184
 H1564 H 0.19265 0.84724 0.83780
 H1565 H 0.26981 0.80660 0.87312
 H1566 H 0.18695 0.76721 0.88827
 H1567 H 0.16693 0.78789 0.82517
 H1568 H 0.24376 0.74789 0.86040
 C1569 C 0.26292 0.81663 0.17230
 C1570 C 0.29364 0.82787 0.15662
 C1571 C 0.28206 0.81646 0.12236
 C1572 C 0.25160 0.80493 0.13804
 C1573 C 0.29711 0.78447 0.12818
 C1574 C 0.30842 0.79557 0.16335
 C1575 C 0.27761 0.78449 0.17943
 C1576 C 0.26650 0.77303 0.14446
 H1577 H 0.24781 0.83092 0.18860
 H1578 H 0.30504 0.85057 0.16147
 H1579 H 0.22792 0.80862 0.12780
 H1580 H 0.31125 0.77121 0.10978
 H1581 H 0.33223 0.79145 0.17269
 H1582 H 0.25538 0.75036 0.13867
 C1583 C 0.76257 0.31495 0.67327
 C1584 C 0.79314 0.32666 0.65763
 C1585 C 0.78175 0.31508 0.62335
 C1586 C 0.75146 0.30309 0.63900
 C1587 C 0.79729 0.28332 0.62918
 C1588 C 0.80840 0.29458 0.66437
 C1589 C 0.77773 0.28303 0.68040
 C1590 C 0.76684 0.27142 0.64541
 H1591 H 0.74726 0.32900 0.68962
 H1592 H 0.80416 0.34954 0.66252
 H1593 H 0.72773 0.30642 0.62873
 H1594 H 0.81165 0.27029 0.61079
 H1595 H 0.83223 0.29080 0.67384
 H1596 H 0.75608 0.24859 0.63959
 C1597 C 0.19173 0.20498 0.66553
 C1598 C 0.20254 0.21754 0.63083
 C1599 C 0.21810 0.18614 0.62336
 C1600 C 0.20713 0.17328 0.65731
 C1601 C 0.24845 0.19764 0.63916
 C1602 C 0.23301 0.22902 0.64715
 C1603 C 0.22234 0.21620 0.68177
 C1604 C 0.23770 0.18465 0.67313
 H1605 H 0.16767 0.20793 0.67437
 H1606 H 0.18801 0.23103 0.61307
 H1607 H 0.19587 0.15049 0.66197
 H1608 H 0.27206 0.19468 0.62838
 H1609 H 0.24359 0.25207 0.64205
 H1610 H 0.25331 0.17024 0.68863
 C1611 C 0.73759 0.68379 0.17267
 C1612 C 0.70731 0.67307 0.15585
 C1613 C 0.71869 0.68559 0.12381
 C1614 C 0.74816 0.69597 0.13837
 C1615 C 0.70381 0.71590 0.12938
 C1616 C 0.69202 0.70472 0.16421
 C1617 C 0.72266 0.71580 0.18090
 C1618 C 0.73389 0.72791 0.14603
 H1619 H 0.75317 0.66898 0.18775
 H1620 H 0.69556 0.65036 0.15950
 H1621 H 0.77128 0.69182 0.12676
 H1622 H 0.68984 0.72825 0.11015
 H1623 H 0.66765 0.70792 0.17199
 H1624 H 0.74494 0.75055 0.14002
 C1625 C 0.24455 0.65057 0.24494
 C1626 C 0.21333 0.63841 0.25889
 C1627 C 0.20639 0.62301 0.22491
 C1628 C 0.23764 0.63459 0.21083
 C1629 C 0.19009 0.65260 0.21257
 C1630 C 0.19689 0.66806 0.24668
 C1631 C 0.22793 0.68033 0.23281
 C1632 C 0.22139 0.66470 0.19864
 H1633 H 0.26720 0.64958 0.25811
 H1634 H 0.20987 0.62705 0.28359
 H1635 H 0.25433 0.62053 0.19595
 H1636 H 0.16790 0.65425 0.19857
 H1637 H 0.17950 0.68075 0.26167
 H1638 H 0.22483 0.67562 0.17366
 C1639 C 0.74442 0.14840 0.74747
 C1640 C 0.71235 0.13666 0.75927
 C1641 C 0.70723 0.12208 0.72640
 C1642 C 0.73797 0.13155 0.71379
 C1643 C 0.69194 0.14979 0.71263
 C1644 C 0.69702 0.16654 0.74631
 C1645 C 0.72889 0.17834 0.73378
 C1646 C 0.72353 0.16182 0.69968
 H1647 H 0.76639 0.14654 0.76184
 H1648 H 0.70718 0.12491 0.78345
 H1649 H 0.75409 0.11582 0.70017
 H1650 H 0.67039 0.14997 0.69736
 H1651 H 0.67878 0.17882 0.76044
 H1652 H 0.72785 0.17152 0.67428
 C1653 C 0.80243 0.16496 0.25171
 C1654 C 0.81201 0.15009 0.28528
 C1655 C 0.79485 0.12029 0.27501
 C1656 C 0.78496 0.13518 0.24169
 C1657 C 0.76489 0.13197 0.29200
 C1658 C 0.78199 0.16239 0.30201
 C1659 C 0.77263 0.17744 0.26827
 C1660 C 0.75507 0.14744 0.25851
 H1661 H 0.81860 0.17753 0.23500
 H1662 H 0.83544 0.15075 0.29679
 H1663 H 0.78589 0.12325 0.21701
 H1664 H 0.74954 0.11813 0.30869
 H1665 H 0.78042 0.17356 0.32709
 H1666 H 0.73133 0.14623 0.24777
 C1667 C 0.28103 0.66313 0.80156
 C1668 C 0.26377 0.63275 0.79173
 C1669 C 0.29363 0.62089 0.77470
 C1670 C 0.31095 0.65065 0.78478
 C1671 C 0.28371 0.63569 0.74133
 C1672 C 0.25392 0.64813 0.75820
 C1673 C 0.27162 0.67810 0.76779
 C1674 C 0.30133 0.66545 0.75117
 H1675 H 0.27959 0.67441 0.82659
 H1676 H 0.24841 0.61904 0.80853
 H1677 H 0.33443 0.65129 0.79618
 H1678 H 0.28454 0.62366 0.71671
 H1679 H 0.23014 0.64697 0.74754
 H1680 H 0.31750 0.67791 0.73437
 C1681 C 0.27722 0.33556 0.70153
 C1682 C 0.26124 0.36589 0.71366
 C1683 C 0.29268 0.37737 0.72729
 C1684 C 0.30871 0.34758 0.71496
 C1685 C 0.28591 0.36234 0.76149
 C1686 C 0.25450 0.35022 0.74800
 C1687 C 0.27084 0.32025 0.73590
 C1688 C 0.30206 0.33247 0.74929
 H1689 H 0.27354 0.32446 0.67667
 H1690 H 0.24451 0.37988 0.69887
 H1691 H 0.33069 0.34545 0.70060
 H1692 H 0.28964 0.37383 0.78611
 H1693 H 0.23194 0.35145 0.76144
 H1694 H 0.31946 0.31990 0.76427
 C1695 C 0.78101 0.83360 0.20033
 C1696 C 0.76415 0.86430 0.20946
 C1697 C 0.79428 0.87636 0.22568
 C1698 C 0.81122 0.84612 0.21635
 C1699 C 0.78453 0.86256 0.25965
 C1700 C 0.75439 0.84991 0.24355
 C1701 C 0.77166 0.81955 0.23456
 C1702 C 0.80164 0.83228 0.25049
 H1703 H 0.77918 0.82183 0.17559
 H1704 H 0.74884 0.87773 0.19243
 H1705 H 0.83424 0.84379 0.20420
 H1706 H 0.78595 0.87483 0.28414
 H1707 H 0.73071 0.85157 0.25444
 H1708 H 0.81742 0.82016 0.26793
 C1709 C 0.70084 0.83439 0.75190
 C1710 C 0.69218 0.84939 0.78579
 C1711 C 0.70840 0.87937 0.77446
 C1712 C 0.71737 0.86440 0.74083
 C1713 C 0.73917 0.86846 0.79019
 C1714 C 0.72301 0.83781 0.80122
 C1715 C 0.73143 0.82257 0.76721
 C1716 C 0.74808 0.85281 0.75640
 H1717 H 0.68431 0.82143 0.73598
 H1718 H 0.66918 0.84828 0.79835
 H1719 H 0.71535 0.87627 0.71626
 H1720 H 0.75488 0.88269 0.80608
 H1721 H 0.72562 0.82684 0.82627
 H1722 H 0.77145 0.85440 0.74474
 C1723 C 0.22158 0.33774 0.30215
 C1724 C 0.23851 0.36812 0.29164
 C1725 C 0.20841 0.37952 0.27481
 C1726 C 0.19142 0.34980 0.28560
 C1727 C 0.21818 0.36426 0.24158
 C1728 C 0.24818 0.35226 0.25822
 C1729 C 0.23075 0.32230 0.26846
 C1730 C 0.20082 0.33457 0.25211
 H1731 H 0.22336 0.32687 0.32734
 H1732 H 0.25393 0.38219 0.30801
 H1733 H 0.16803 0.34917 0.29729
 H1734 H 0.21719 0.37608 0.21690
 H1735 H 0.27186 0.35341 0.24722
 H1736 H 0.18438 0.32174 0.23597
 C1737 C 0.16548 0.22889 0.79410
 C1738 C 0.14692 0.25854 0.80204
 C1739 C 0.11800 0.24348 0.78655
 C1740 C 0.13644 0.21385 0.77849
 C1741 C 0.12631 0.25704 0.75195
 C1742 C 0.15566 0.27204 0.76742
 C1743 C 0.17478 0.24237 0.75933
 C1744 C 0.14545 0.22740 0.74374
 H1745 H 0.18040 0.21707 0.81277
 H1746 H 0.14773 0.27145 0.82619
 H1747 H 0.12871 0.18957 0.78250
 H1748 H 0.10995 0.26878 0.73459
 H1749 H 0.16293 0.29643 0.76286
 H1750 H 0.14258 0.21409 0.72032
 C1751 C 0.66609 0.72821 0.29334
 C1752 C 0.64740 0.75781 0.30117
 C1753 C 0.61859 0.74268 0.28549
 C1754 C 0.63716 0.71310 0.27753
 C1755 C 0.62706 0.75628 0.25094
 C1756 C 0.65629 0.77135 0.26662
 C1757 C 0.67552 0.74173 0.25864
 C1758 C 0.64633 0.72670 0.24284
 H1759 H 0.68100 0.71645 0.31207
 H1760 H 0.64803 0.77071 0.32532
 H1761 H 0.62941 0.68881 0.28149
 H1762 H 0.61077 0.76798 0.23347
 H1763 H 0.66356 0.79575 0.26211
 H1764 H 0.64386 0.71345 0.21931
 C1765 C 0.64669 0.27100 0.25386
 C1766 C 0.63899 0.27897 0.21681
 C1767 C 0.62044 0.24874 0.21344
 C1768 C 0.62730 0.24070 0.25037
 C1769 C 0.64962 0.23122 0.20203
 C1770 C 0.66824 0.26156 0.20514
 C1771 C 0.67631 0.25355 0.24221
 C1772 C 0.65696 0.22325 0.23894
 H1773 H 0.64333 0.28738 0.27492
 H1774 H 0.63083 0.30173 0.20730
 H1775 H 0.61025 0.23188 0.26900
 H1776 H 0.65124 0.21456 0.18079
 H1777 H 0.68361 0.27062 0.18502
 H1778 H 0.66383 0.19990 0.24814
 C1779 C 0.14584 0.77225 0.75408
 C1780 C 0.13802 0.77997 0.71700
 C1781 C 0.11922 0.74986 0.71403
 C1782 C 0.12620 0.74207 0.75100
 C1783 C 0.14823 0.73202 0.70266
 C1784 C 0.16707 0.76225 0.70533
 C1785 C 0.17529 0.75449 0.74243
 C1786 C 0.15570 0.72431 0.73959
 H1787 H 0.14269 0.78882 0.77502
 H1788 H 0.12997 0.80270 0.70730
 H1789 H 0.10916 0.73355 0.76980
 H1790 H 0.14965 0.71516 0.68159
 H1791 H 0.18236 0.77103 0.68500
 H1792 H 0.16246 0.70100 0.74898
 C1793 C 0.83683 0.72733 0.70839
 C1794 C 0.85440 0.75613 0.69559
 C1795 C 0.88383 0.74442 0.71314
 C1796 C 0.86643 0.71558 0.72607
 C1797 C 0.87512 0.76248 0.74515
 C1798 C 0.84527 0.77405 0.72767
 C1799 C 0.82722 0.74517 0.74064
 C1800 C 0.85702 0.73369 0.75828
 H1801 H 0.82208 0.71312 0.69164
 H1802 H 0.85304 0.76543 0.66963
 H1803 H 0.87449 0.69111 0.72599
 H1804 H 0.89110 0.77710 0.76030
 H1805 H 0.83732 0.79857 0.72822
 H1806 H 0.85997 0.72505 0.78409
 C1807 C 0.35656 0.23574 0.25956
 C1808 C 0.36666 0.21697 0.22804
 C1809 C 0.38327 0.24588 0.21420
 C1810 C 0.37387 0.26464 0.24550
 C1811 C 0.35363 0.25615 0.19610
 C1812 C 0.33682 0.22727 0.20978
 C1813 C 0.32656 0.24577 0.24131
 C1814 C 0.34384 0.27477 0.22743
 H1815 H 0.35947 0.22822 0.28581
 H1816 H 0.37601 0.19295 0.22842
 H1817 H 0.38929 0.28016 0.26027
 H1818 H 0.35226 0.26465 0.16982
 H1819 H 0.32253 0.21228 0.19338
 H1820 H 0.33527 0.29908 0.22701
 C1821 C 0.34355 0.72623 0.26020
 C1822 C 0.37332 0.74294 0.24782
 C1823 C 0.38073 0.75201 0.28437
 C1824 C 0.35141 0.73521 0.29670
 C1825 C 0.36257 0.78236 0.28025
 C1826 C 0.35430 0.77336 0.24359
 C1827 C 0.32456 0.75666 0.25624
 C1828 C 0.33321 0.76568 0.29289
 H1829 H 0.33629 0.70270 0.25187
 H1830 H 0.39004 0.73336 0.22927
 H1831 H 0.34969 0.71915 0.31842
 H1832 H 0.37115 0.80533 0.28881
 H1833 H 0.35755 0.78900 0.22189
 H1834 H 0.31820 0.77550 0.31291
 C1835 C 0.83330 0.26368 0.79413
 C1836 C 0.85225 0.23357 0.79679
 C1837 C 0.88110 0.25148 0.78505
 C1838 C 0.86218 0.28147 0.78208
 C1839 C 0.87387 0.24339 0.74819
 C1840 C 0.84453 0.22555 0.75998
 C1841 C 0.82482 0.25562 0.75717
 C1842 C 0.85410 0.27344 0.74512
 H1843 H 0.81813 0.27250 0.81456
 H1844 H 0.85105 0.21684 0.81796
 H1845 H 0.87033 0.30427 0.79157
 H1846 H 0.89081 0.23482 0.72929
 H1847 H 0.83778 0.20214 0.75079
 H1848 H 0.85691 0.28982 0.72398
 C1849 C 0.52318 0.98579 0.59564
 C1850 C 0.53585 0.95583 0.61191
 C1851 C 0.56610 0.97309 0.62038
 C1852 C 0.55347 1.00292 0.60447
 C1853 C 0.58037 0.96313 0.58671
 C1854 C 0.54978 0.94606 0.57744
 C1855 C 0.53727 0.97621 0.56116
 C1856 C 0.56779 0.99316 0.57074
 H1857 H 0.49951 0.99498 0.60050
 H1858 H 0.52270 0.94043 0.62918
 H1859 H 0.55487 1.02662 0.61544
 H1860 H 0.60383 0.95318 0.58286
 H1861 H 0.54918 0.92197 0.56804
 H1862 H 0.58189 1.00934 0.55546
 C1863 C 0.06771 0.49447 1.07076
 C1864 C 0.05405 0.50357 1.10498
 C1865 C 0.06615 0.47468 1.11933
 C1866 C 0.08021 0.46480 1.08743
 C1867 C 0.03721 0.45762 1.11269
 C1868 C 0.02345 0.48703 1.09634
 C1869 C 0.03704 0.47735 1.06150
 C1870 C 0.05000 0.44732 1.07797
 H1871 H 0.08193 0.51085 1.05584
 H1872 H 0.05622 0.52676 1.11707
 H1873 H 0.10368 0.45465 1.08427
 H1874 H 0.02547 0.44249 1.13139
 H1875 H -0.00006 0.49619 1.10214
 H1876 H 0.04979 0.42295 1.06935
 C1877 C -0.06605 0.00983 1.07115
 C1878 C -0.05183 -0.00114 1.10444
 C1879 C -0.06396 0.02841 1.12141
 C1880 C -0.07809 0.03962 1.08817
 C1881 C -0.03342 0.04543 1.11345
 C1882 C -0.02126 0.01572 1.09604
 C1883 C -0.03522 0.02649 1.06197
 C1884 C -0.04719 0.05639 1.07936
 H1885 H -0.08054 -0.00570 1.05553
 H1886 H -0.05360 -0.02512 1.11454
 H1887 H -0.10130 0.05019 1.08445
 H1888 H -0.01998 0.06013 1.13117
 H1889 H 0.00226 0.00602 1.10045
 H1890 H -0.04596 0.08071 1.07081
 C1891 C 0.43355 0.50894 0.57067
 C1892 C 0.44801 0.49852 0.60403
 C1893 C 0.43542 0.52801 0.62076
 C1894 C 0.42107 0.53866 0.58742
 C1895 C 0.46566 0.54544 0.61249
 C1896 C 0.47828 0.51580 0.59538
 C1897 C 0.46408 0.52602 0.56123
 C1898 C 0.45165 0.55587 0.57834
 H1899 H 0.41925 0.49313 0.55514
 H1900 H 0.44664 0.47463 0.61444
 H1901 H 0.39762 0.54875 0.58395
 H1902 H 0.47888 0.56050 0.63005
 H1903 H 0.50197 0.50652 0.59983
 H1904 H 0.45240 0.58012 0.56948
 C1905 C 0.44787 0.44599 -0.07750
 C1906 C 0.42205 0.46816 -0.09033
 C1907 C 0.44025 0.47359 -0.12302
 C1908 C 0.46566 0.45105 -0.11109
 C1909 C 0.45747 0.50113 -0.10705
 C1910 C 0.43914 0.49588 -0.07449
 C1911 C 0.46512 0.47400 -0.06149
 C1912 C 0.48300 0.47879 -0.09496
 H1913 H 0.44325 0.42279 -0.06665
 H1914 H 0.39669 0.46384 -0.08888
 H1915 H 0.47668 0.43258 -0.12651
 H1916 H 0.46244 0.52463 -0.11712
 H1917 H 0.42668 0.51471 -0.06107
 H1918 H 0.50832 0.48293 -0.09788
 C1919 C -0.05992 0.99639 0.42466
 C1920 C -0.04108 1.00091 0.39231
 C1921 C -0.05866 0.97355 0.37646
 C1922 C -0.07735 0.96883 0.40896
 C1923 C -0.03386 0.95063 0.38904
 C1924 C -0.01616 0.97820 0.40506
 C1925 C -0.03453 0.97415 0.43832
 C1926 C -0.05215 0.94631 0.42244
 H1927 H -0.07220 1.01560 0.43764
 H1928 H -0.03545 1.02418 0.38204
 H1929 H -0.10282 0.96508 0.41012
 H1930 H -0.02303 0.93178 0.37402
 H1931 H 0.00927 0.98181 0.40247
 H1932 H -0.05735 0.92332 0.43351
 C1933 C 0.01473 0.51886 0.40258
 C1934 C 0.03174 0.54665 0.38614
 C1935 C 0.05753 0.52434 0.37452
 C1936 C 0.04062 0.49674 0.39075
 C1937 C 0.07549 0.53042 0.40718
 C1938 C 0.04933 0.55237 0.41968
 C1939 C 0.03242 0.52432 0.43598
 C1940 C 0.05874 0.50264 0.42327
 H1941 H -0.01053 0.51433 0.39974
 H1942 H 0.02054 0.56477 0.37049
 H1943 H 0.03602 0.47310 0.38084
 H1944 H 0.10079 0.53511 0.40855
 H1945 H 0.05359 0.57578 0.43018
 H1946 H 0.07137 0.48412 0.43693
 C1947 C 0.56572 0.01072 -0.07337
 C1948 C 0.55239 -0.00208 -0.10626
 C1949 C 0.56198 0.02802 -0.12414
 C1950 C 0.57537 0.04101 -0.09121
 C1951 C 0.53023 0.04257 -0.11629
 C1952 C 0.52062 0.01237 -0.09824
 C1953 C 0.53374 0.02498 -0.06454
 C1954 C 0.54320 0.05540 -0.08255
 H1955 H 0.58107 -0.00358 -0.05746
 H1956 H 0.55604 -0.02624 -0.11525
 H1957 H 0.59805 0.05290 -0.08803
 H1958 H 0.51560 0.05571 -0.13428
 H1959 H 0.49801 0.00063 -0.10261
 H1960 H 0.53931 0.07953 -0.07408
 C1961 C 0.58170 0.53348 -0.04401
 C1962 C 0.59623 0.56236 -0.02707
 C1963 C 0.62602 0.54374 -0.02030
 C1964 C 0.61198 0.51491 -0.03746
 C1965 C 0.61320 0.53310 0.01379
 C1966 C 0.58339 0.55183 0.00716
 C1967 C 0.56874 0.52315 -0.00958
 C1968 C 0.59864 0.50426 -0.00318
 H1969 H 0.56874 0.53354 -0.06808
 H1970 H 0.59459 0.58615 -0.03737
 H1971 H 0.62400 0.49982 -0.05599
 H1972 H 0.62647 0.53286 0.03767
 H1973 H 0.57295 0.56747 0.02589
 H1974 H 0.59965 0.48015 0.00663
 C1975 C 0.08355 1.05197 0.50739
 C1976 C 0.11330 1.03305 0.51366
 C1977 C 0.12598 1.04392 0.47958
 C1978 C 0.09625 1.06275 0.47319
 C1979 C 0.11172 1.01529 0.46224
 C1980 C 0.09852 1.00443 0.49650
 C1981 C 0.06868 1.02351 0.49047
 C1982 C 0.08149 1.03408 0.45606
 H1983 H 0.07329 1.06754 0.52629
 H1984 H 0.12667 1.03258 0.53747
 H1985 H 0.09454 1.08669 0.46326
 H1986 H 0.12356 1.00031 0.44348
 H1987 H 0.09945 0.98025 0.50613
 H1988 H 0.06839 1.03442 0.43208
 C1989 C 0.08218 -0.05200 0.99270
 C1990 C 0.11213 -0.03358 0.98539
 C1991 C 0.12508 -0.04378 1.01956
 C1992 C 0.09520 -0.06216 1.02698
 C1993 C 0.11141 -0.01462 1.03637
 C1994 C 0.09793 -0.00440 1.00206
 C1995 C 0.06791 -0.02297 1.00913
 C1996 C 0.08102 -0.03291 1.04358
 H1997 H 0.07138 -0.06774 0.97429
 H1998 H 0.12514 -0.03382 0.96129
 H1999 H 0.09324 -0.08581 1.03762
 H2000 H 0.12364 0.00068 1.05451
 H2001 H 0.09908 0.01956 0.99183
 H2002 H 0.06822 -0.03251 1.06779
 C2003 C 0.58187 0.44759 0.49298
 C2004 C 0.61192 0.46585 0.48573
 C2005 C 0.62466 0.45577 0.52004
 C2006 C 0.59467 0.43757 0.52740
 C2007 C 0.61104 0.48508 0.53659
 C2008 C 0.59775 0.49518 0.50214
 C2009 C 0.56763 0.47675 0.50915
 C2010 C 0.58054 0.46696 0.54374
 H2011 H 0.57114 0.43184 0.47454
 H2012 H 0.62504 0.46544 0.46170
 H2013 H 0.59259 0.41403 0.53826
 H2014 H 0.62326 0.50042 0.55470
 H2015 H 0.59905 0.51909 0.49179
 H2016 H 0.56764 0.46756 0.56788
 C2017 C -0.09973 0.49677 0.49868
 C2018 C -0.11484 0.48764 0.46483
 C2019 C -0.12971 0.45929 0.48190
 C2020 C -0.11494 0.46832 0.51567
 C2021 C -0.10129 0.43920 0.47315
 C2022 C -0.08589 0.46772 0.45624
 C2023 C -0.07109 0.47665 0.49028
 C2024 C -0.08641 0.44829 0.50700
 H2025 H -0.09929 0.52074 0.50900
 H2026 H -0.12676 0.50379 0.44738
 H2027 H -0.12659 0.46865 0.54054
 H2028 H -0.10211 0.41546 0.46237
 H2029 H -0.07396 0.46771 0.43152
 H2030 H -0.07556 0.43176 0.52462
 C2031 C 0.40145 -0.00207 -0.00231
 C2032 C 0.38636 -0.01079 -0.03630
 C2033 C 0.37132 -0.03927 -0.01961
 C2034 C 0.38606 -0.03063 0.01430
 C2035 C 0.39968 -0.05937 -0.02852
 C2036 C 0.41525 -0.03075 -0.04504
 C2037 C 0.43003 -0.02224 -0.01087
 C2038 C 0.41452 -0.05070 0.00546
 H2039 H 0.40197 0.02180 0.00828
 H2040 H 0.37456 0.00559 -0.05359
 H2041 H 0.37429 -0.03049 0.03910
 H2042 H 0.39883 -0.08299 -0.03960
 H2043 H 0.42723 -0.03056 -0.06974
 H2044 H 0.42523 -0.06748 0.02290
 C2045 C 0.40376 1.00349 0.50125
 C2046 C 0.38849 1.01099 0.53550
 C2047 C 0.37352 1.03998 0.51993
 C2048 C 0.38846 1.03253 0.48575
 C2049 C 0.40182 1.05985 0.52972
 C2050 C 0.41734 1.03069 0.54511
 C2051 C 0.43228 1.02344 0.51065
 C2052 C 0.41682 1.05239 0.49544
 H2053 H 0.40424 0.97991 0.48992
 H2054 H 0.37661 0.99400 0.55209
 H2055 H 0.37657 1.03303 0.46109
 H2056 H 0.40105 1.08309 0.54175
 H2057 H 0.42920 1.02961 0.56981
 H2058 H 0.42769 1.06990 0.47889
 C2059 C -0.09695 0.50494 1.00185
 C2060 C -0.11222 0.51234 1.03613
 C2061 C -0.12685 0.54161 1.02079
 C2062 C -0.11191 0.53427 0.98659
 C2063 C -0.09838 0.56110 1.03084
 C2064 C -0.08319 0.53166 1.04600
 C2065 C -0.06824 0.52452 1.01152
 C2066 C -0.08337 0.55375 0.99653
 H2067 H -0.09672 0.48140 0.99045
 H2068 H -0.12431 0.49535 1.05253
 H2069 H -0.12386 0.53512 0.96199
 H2070 H -0.09880 0.58429 1.04303
 H2071 H -0.07136 0.53027 1.07071
 H2072 H -0.07226 0.57132 0.98023
 C2073 C 0.02289 0.58342 0.54493
 C2074 C 0.03386 0.61283 0.52621
 C2075 C 0.00451 0.62974 0.53837
 C2076 C -0.00648 0.60047 0.55686
 C2077 C -0.01305 0.61954 0.50653
 C2078 C 0.01632 0.60186 0.49421
 C2079 C 0.00560 0.57230 0.51301
 C2080 C -0.02388 0.58993 0.52507
 H2081 H 0.03739 0.56941 0.56214
 H2082 H 0.05777 0.62247 0.52665
 H2083 H -0.01602 0.59969 0.58277
 H2084 H -0.02801 0.63448 0.49064
 H2085 H 0.02526 0.60331 0.46819
 H2086 H -0.04818 0.58130 0.52472
 C2087 C 0.52062 0.08222 0.04822
 C2088 C 0.53545 0.11149 0.03274
 C2089 C 0.50540 0.12939 0.03994
 C2090 C 0.49049 0.10027 0.05521
 C2091 C 0.49278 0.12075 0.00501
 C2092 C 0.52287 0.10203 -0.00232
 C2093 C 0.50811 0.07249 0.01320
 C2094 C 0.47795 0.09121 0.02030
 H2095 H 0.53230 0.06752 0.06721
 H2096 H 0.55897 0.12084 0.03790
 H2097 H 0.47697 0.09933 0.07896
 H2098 H 0.48111 0.13668 -0.01286
 H2099 H 0.53643 0.10458 -0.02571
 H2100 H 0.45379 0.08354 0.01517
 C2101 C 0.02233 0.09142 0.97333
 C2102 C 0.00616 0.10169 0.94068
 C2103 C -0.00555 0.13106 0.95851
 C2104 C 0.01076 0.12117 0.99115
 C2105 C -0.03530 0.11415 0.96943
 C2106 C -0.02362 0.08461 0.95145
 C2107 C -0.00755 0.07381 0.98423
 C2108 C -0.01903 0.10355 1.00223
 H2109 H 0.04659 0.08281 0.97486
 H2110 H 0.01668 0.10076 0.91522
 H2111 H 0.02509 0.13624 1.00764
 H2112 H -0.05911 0.12388 0.96788
 H2113 H -0.03761 0.07056 0.93376
 H2114 H -0.02925 0.10605 1.02748
 C2115 C 0.47629 0.58399 0.45052
 C2116 C 0.46440 0.61358 0.46826
 C2117 C 0.49423 0.63050 0.45759
 C2118 C 0.50615 0.60108 0.44002
 C2119 C 0.51023 0.62074 0.49047
 C2120 C 0.48036 0.60309 0.50128
 C2121 C 0.49206 0.57331 0.48352
 C2122 C 0.52202 0.59095 0.47289
 H2123 H 0.46249 0.56988 0.43272
 H2124 H 0.44062 0.62333 0.46642
 H2125 H 0.51692 0.60007 0.41469
 H2126 H 0.52438 0.63588 0.50705
 H2127 H 0.46989 0.60560 0.52642
 H2128 H 0.54627 0.58239 0.47473
 C2129 C 0.47982 0.91193 0.47106
 C2130 C 0.49672 0.90189 0.43870
 C2131 C 0.50778 0.87222 0.45640
 C2132 C 0.49077 0.88198 0.48872
 C2133 C 0.53741 0.88884 0.46826
 C2134 C 0.52630 0.91871 0.45046
 C2135 C 0.50952 0.92929 0.48300
 C2136 C 0.52039 0.89928 0.50081
 H2137 H 0.45551 0.92048 0.47204
 H2138 H 0.48689 0.90328 0.41298
 H2139 H 0.47597 0.86669 0.50447
 H2140 H 0.56138 0.87946 0.46741
 H2141 H 0.54047 0.93291 0.43311
 H2142 H 0.52981 0.89642 0.52633
 C2143 C -0.02090 0.41256 0.97227
 C2144 C -0.00386 0.40229 0.94009
 C2145 C 0.00713 0.37275 0.95808
 C2146 C -0.01002 0.38274 0.99024
 C2147 C 0.03672 0.38946 0.96994
 C2148 C 0.02567 0.41918 0.95183
 C2149 C 0.00876 0.42999 0.98419
 C2150 C 0.01956 0.40014 1.00232
 H2151 H -0.04520 0.42112 0.97305
 H2152 H -0.01358 0.40349 0.91431
 H2153 H -0.02487 0.36755 1.00605
 H2154 H 0.06070 0.38009 0.96928
 H2155 H 0.03988 0.43325 0.93440
 H2156 H 0.02883 0.39764 1.02797
 C2157 C 0.48225 0.39747 -0.00314
 C2158 C 0.51164 0.38012 0.00947
 C2159 C 0.49383 0.36970 0.04104
 C2160 C 0.46440 0.38633 0.02866
 C2161 C 0.50426 0.39911 0.05975
 C2162 C 0.52198 0.40978 0.02820
 C2163 C 0.49252 0.42711 0.01582
 C2164 C 0.47491 0.41590 0.04751
 H2165 H 0.47365 0.39607 -0.02928
 H2166 H 0.52692 0.36516 -0.00615
 H2167 H 0.44039 0.37695 0.02865
 H2168 H 0.51339 0.40009 0.08580
 H2169 H 0.54623 0.41857 0.02818
 H2170 H 0.46023 0.42992 0.06461
 C2171 C -0.01746 0.89791 0.49654
 C2172 C 0.01187 0.88061 0.50938
 C2173 C -0.00619 0.86999 0.54071
 C2174 C -0.03557 0.88657 0.52809
 C2175 C 0.00395 0.89935 0.55968
 C2176 C 0.02193 0.91022 0.52838
 C2177 C -0.00748 0.92749 0.51576
 C2178 C -0.02533 0.91611 0.54721
 H2179 H -0.02582 0.89664 0.47030
 H2180 H 0.02734 0.86577 0.49385
 H2181 H -0.05956 0.87713 0.52781
 H2182 H 0.01285 0.90025 0.58583
 H2183 H 0.04615 0.91909 0.52866
 H2184 H -0.04021 0.93007 0.56417
 C2185 C 0.24236 0.31733 0.17912
 C2186 C 0.25183 0.30288 0.14534
 C2187 C 0.22185 0.31544 0.12975
 C2188 C 0.21218 0.32978 0.16346
 C2189 C 0.20471 0.28517 0.13851
 C2190 C 0.23483 0.27258 0.15452
 C2191 C 0.22555 0.28681 0.18903
 C2192 C 0.19525 0.29920 0.17302
 H2193 H 0.25863 0.33155 0.19416
 H2194 H 0.27538 0.30428 0.13403
 H2195 H 0.20201 0.35317 0.16724
 H2196 H 0.18918 0.27195 0.12145
 H2197 H 0.24401 0.24888 0.14973
 H2198 H 0.17124 0.29871 0.18263
 C2199 C 0.73547 0.77227 0.65374
 C2200 C 0.70544 0.78504 0.63770
 C2201 C 0.72285 0.81508 0.62868
 C2202 C 0.75273 0.80236 0.64433
 C2203 C 0.71336 0.82974 0.66231
 C2204 C 0.69616 0.79938 0.67213
 C2205 C 0.72636 0.78678 0.68816
 C2206 C 0.74344 0.81710 0.67801
 H2207 H 0.74442 0.74846 0.64912
 H2208 H 0.68976 0.77185 0.62077
 H2209 H 0.77629 0.80347 0.63301
 H2210 H 0.70352 0.85327 0.66591
 H2211 H 0.67217 0.79926 0.68182
 H2212 H 0.75983 0.83128 0.69292
 C2213 C 0.26556 0.72800 0.65422
 C2214 C 0.29515 0.71524 0.63715
 C2215 C 0.27756 0.68512 0.62879
 C2216 C 0.24812 0.69785 0.64547
 C2217 C 0.28804 0.67061 0.66211
 C2218 C 0.30541 0.70107 0.67129
 C2219 C 0.27563 0.71367 0.68836
 C2220 C 0.25837 0.68325 0.67884
 H2221 H 0.25645 0.75177 0.64981
 H2222 H 0.31033 0.72840 0.61966
 H2223 H 0.22427 0.69664 0.63499
 H2224 H 0.29797 0.64709 0.66554
 H2225 H 0.32966 0.70156 0.68011
 H2226 H 0.24248 0.66901 0.69435
 C2227 C 0.76696 0.22751 0.15478
 C2228 C 0.79670 0.21503 0.13777
 C2229 C 0.77941 0.18473 0.12938
 C2230 C 0.74983 0.19719 0.14601
 C2231 C 0.78998 0.17034 0.16272
 C2232 C 0.80704 0.20097 0.17193
 C2233 C 0.77710 0.21327 0.18895
 C2234 C 0.76016 0.18269 0.17938
 H2235 H 0.75762 0.25118 0.15033
 H2236 H 0.81177 0.22833 0.12030
 H2237 H 0.72600 0.19576 0.13550
 H2238 H 0.80015 0.14692 0.16621
 H2239 H 0.83126 0.20176 0.18083
 H2240 H 0.74433 0.16831 0.19480
 C2241 C 0.74730 0.18909 0.82524
 C2242 C 0.75139 0.20768 0.85781
 C2243 C 0.72439 0.18935 0.87342
 C2244 C 0.72009 0.17091 0.84068
 C2245 C 0.70100 0.21385 0.86110
 C2246 C 0.72821 0.23228 0.84530
 C2247 C 0.72456 0.21417 0.81184
 C2248 C 0.69709 0.19581 0.82747
 H2249 H 0.76682 0.17734 0.81224
 H2250 H 0.77452 0.21369 0.86817
 H2251 H 0.71691 0.14537 0.83910
 H2252 H 0.68192 0.22413 0.87622
 H2253 H 0.73132 0.25777 0.84812
 H2254 H 0.67421 0.19040 0.81626
 C2255 C 0.24590 0.69024 0.32398
 C2256 C 0.25144 0.70851 0.35653
 C2257 C 0.22394 0.69137 0.37268
 C2258 C 0.21822 0.67325 0.34001
 C2259 C 0.20144 0.71691 0.36097
 C2260 C 0.22914 0.73416 0.34464
 C2261 C 0.22405 0.71635 0.31119
 C2262 C 0.19609 0.69918 0.32740
 H2263 H 0.26459 0.67772 0.31040
 H2264 H 0.27499 0.71334 0.36649
 H2265 H 0.21380 0.64789 0.33861
 H2266 H 0.18313 0.72798 0.37655
 H2267 H 0.23340 0.75948 0.34754
 H2268 H 0.17279 0.69464 0.31682
 C2269 C 0.80594 0.79319 0.33132
 C2270 C 0.79057 0.82479 0.34039
 C2271 C 0.77803 0.81066 0.37316
 C2272 C 0.79360 0.77948 0.36493
 C2273 C 0.74824 0.80032 0.35517
 C2274 C 0.76062 0.81440 0.32244
 C2275 C 0.77582 0.78292 0.31321
 C2276 C 0.76370 0.76909 0.34681
 H2277 H 0.83021 0.79045 0.32285
 H2278 H 0.80175 0.84789 0.33766
 H2279 H 0.80720 0.76508 0.38272
 H2280 H 0.72389 0.80308 0.36389
 H2281 H 0.74605 0.82963 0.30666
 H2282 H 0.75273 0.74606 0.35097
 C2283 C 0.26975 0.26656 0.84753
 C2284 C 0.29735 0.28403 0.86374
 C2285 C 0.27473 0.30954 0.87534
 C2286 C 0.24733 0.29219 0.85933
 C2287 C 0.28043 0.32749 0.84260
 C2288 C 0.30268 0.30158 0.83009
 C2289 C 0.27481 0.28421 0.81402
 C2290 C 0.25284 0.31030 0.82672
 H2291 H 0.26559 0.24124 0.85051
 H2292 H 0.31568 0.27314 0.87936
 H2293 H 0.22377 0.28722 0.86927
 H2294 H 0.28474 0.35286 0.84107
 H2295 H 0.32597 0.30615 0.81946
 H2296 H 0.23412 0.32269 0.81314
 C2297 C 0.78326 0.33100 0.79442
 C2298 C 0.81197 0.34583 0.77743
 C2299 C 0.79315 0.37556 0.77099
 C2300 C 0.76449 0.36122 0.78819
 C2301 C 0.78245 0.36290 0.73685
 C2302 C 0.80138 0.33313 0.74316
 C2303 C 0.77288 0.31818 0.75995
 C2304 C 0.75378 0.34803 0.75388
 H2305 H 0.78349 0.31791 0.81841
 H2306 H 0.83579 0.34427 0.78760
 H2307 H 0.74941 0.37302 0.80688
 H2308 H 0.78202 0.37633 0.71307
 H2309 H 0.81699 0.32286 0.72428
 H2310 H 0.72963 0.34897 0.74422
 C2311 C 0.25541 0.85026 0.25188
 C2312 C 0.26690 0.86400 0.28557
 C2313 C 0.29494 0.87579 0.26868
 C2314 C 0.28490 0.86419 0.23574
 C2315 C 0.31277 0.84744 0.27602
 C2316 C 0.28396 0.83308 0.29311
 C2317 C 0.27344 0.81974 0.25875
 C2318 C 0.30264 0.83376 0.24208
 H2319 H 0.23141 0.85261 0.24206
 H2320 H 0.25296 0.87783 0.30369
 H2321 H 0.28565 0.87820 0.21234
 H2322 H 0.33641 0.84609 0.28672
 H2323 H 0.28380 0.82109 0.31777
 H2324 H 0.31854 0.82345 0.22349
 C2325 C 0.19820 0.83222 0.75688
 C2326 C 0.21704 0.86201 0.76354
 C2327 C 0.20670 0.87471 0.72931
 C2328 C 0.18792 0.84496 0.72253
 C2329 C 0.23552 0.86046 0.71241
 C2330 C 0.24588 0.84726 0.74679
 C2331 C 0.22688 0.81739 0.74034
 C2332 C 0.21681 0.83022 0.70581
 H2333 H 0.18250 0.82186 0.77561
 H2334 H 0.21716 0.87534 0.78743
 H2335 H 0.16414 0.84345 0.71220
 H2336 H 0.25078 0.87233 0.69394
 H2337 H 0.26991 0.84823 0.75678
 H2338 H 0.21681 0.81713 0.68178
 C2339 C 0.74649 0.34657 0.24764
 C2340 C 0.73643 0.35983 0.21318
 C2341 C 0.70738 0.37391 0.22980
 C2342 C 0.71743 0.36116 0.26410
 C2343 C 0.68879 0.34411 0.22270
 C2344 C 0.71790 0.32954 0.20627
 C2345 C 0.72768 0.31665 0.24087
 C2346 C 0.69877 0.33131 0.25713
 H2347 H 0.77043 0.34761 0.25791
 H2348 H 0.75181 0.37181 0.19493
 H2349 H 0.71726 0.37443 0.28803
 H2350 H 0.66513 0.34251 0.21205
 H2351 H 0.71821 0.31652 0.18219
 H2352 H 0.68293 0.32082 0.27564
 C2353 C 0.69904 0.66427 0.24384
 C2354 C 0.71880 0.63561 0.23494
 C2355 C 0.71024 0.62101 0.26896
 C2356 C 0.69044 0.64957 0.27794
 C2357 C 0.73894 0.63582 0.28539
 C2358 C 0.74758 0.65076 0.25130
 C2359 C 0.72773 0.67954 0.25991
 C2360 C 0.71930 0.66492 0.29420
 H2361 H 0.68233 0.67513 0.22642
 H2362 H 0.71862 0.62381 0.21015
 H2363 H 0.66690 0.64895 0.28923
 H2364 H 0.75529 0.62390 0.30259
 H2365 H 0.77141 0.65102 0.24061
 H2366 H 0.71978 0.67694 0.31886
 C2367 C 0.21860 0.16549 0.79532
 C2368 C 0.18975 0.15016 0.77902
 C2369 C 0.20958 0.12164 0.76995
 C2370 C 0.23826 0.13643 0.78641
 C2371 C 0.21812 0.13634 0.73597
 C2372 C 0.19833 0.16496 0.74496
 C2373 C 0.22700 0.18021 0.76108
 C2374 C 0.24688 0.15147 0.75237
 H2375 H 0.21908 0.17747 0.82002
 H2376 H 0.16620 0.14953 0.79030
 H2377 H 0.25463 0.12448 0.80357
 H2378 H 0.21803 0.12454 0.71119
 H2379 H 0.18157 0.17586 0.72763
 H2380 H 0.27070 0.15177 0.74167
 C2381 C 0.25511 0.15375 0.25014
 C2382 C 0.26146 0.13837 0.21569
 C2383 C 0.29124 0.12387 0.22997
 C2384 C 0.28494 0.13891 0.26436
 C2385 C 0.31031 0.15237 0.21908
 C2386 C 0.28036 0.16741 0.20495
 C2387 C 0.27427 0.18252 0.23960
 C2388 C 0.30400 0.16753 0.25359
 H2389 H 0.23196 0.15389 0.26240
 H2390 H 0.24400 0.12616 0.19999
 H2391 H 0.28654 0.12671 0.28876
 H2392 H 0.33316 0.15214 0.20616
 H2393 H 0.27822 0.17919 0.18027
 H2394 H 0.32206 0.17895 0.26899
 C2395 C 0.78120 0.66714 0.70522
 C2396 C 0.81088 0.65213 0.72002
 C2397 C 0.79156 0.62378 0.73085
 C2398 C 0.76205 0.63823 0.71590
 C2399 C 0.78479 0.63912 0.76498
 C2400 C 0.80410 0.66757 0.75427
 C2401 C 0.77465 0.68253 0.73961
 C2402 C 0.75523 0.65392 0.75008
 H2403 H 0.77940 0.67867 0.68038
 H2404 H 0.83388 0.65164 0.70743
 H2405 H 0.74480 0.62594 0.70001
 H2406 H 0.78598 0.62726 0.78962
 H2407 H 0.82191 0.67900 0.77001
 H2408 H 0.73189 0.65426 0.76193
 C2409 C 0.83338 0.77130 0.20165
 C2410 C 0.86322 0.78374 0.21815
 C2411 C 0.87909 0.75471 0.20927
 C2412 C 0.85157 0.74175 0.19272
 C2413 C 0.87138 0.74016 0.24168
 C2414 C 0.85309 0.76965 0.25224
 C2415 C 0.82314 0.75660 0.23563
 C2416 C 0.84149 0.72664 0.22601
 H2417 H 0.81947 0.78423 0.18295
 H2418 H 0.87382 0.80703 0.21455
 H2419 H 0.85192 0.73012 0.16779
 H2420 H 0.88787 0.72724 0.25787
 H2421 H 0.85648 0.78155 0.27653
 H2422 H 0.83399 0.70208 0.22882
 C2423 C 0.33363 0.27384 0.70533
 C2424 C 0.36294 0.28499 0.72406
 C2425 C 0.37993 0.25559 0.71216
 C2426 C 0.35076 0.24443 0.69366
 C2427 C 0.36970 0.23817 0.74408
 C2428 C 0.35195 0.26759 0.75615
 C2429 C 0.32248 0.25671 0.73734
 C2430 C 0.34017 0.22718 0.72554
 H2431 H 0.31960 0.28818 0.68797
 H2432 H 0.37254 0.30892 0.72347
 H2433 H 0.35008 0.23473 0.66781
 H2434 H 0.38462 0.22333 0.76012
 H2435 H 0.35328 0.27666 0.78212
 H2436 H 0.33156 0.20286 0.72603
 C2437 C 0.35278 0.73003 0.74771
 C2438 C 0.37046 0.75988 0.75851
 C2439 C 0.38040 0.74375 0.79124
 C2440 C 0.36345 0.71394 0.78060
 C2441 C 0.35111 0.75560 0.80908
 C2442 C 0.34078 0.77159 0.77635
 C2443 C 0.32311 0.74165 0.76573
 C2444 C 0.33397 0.72577 0.79859
 H2445 H 0.35521 0.71968 0.72252
 H2446 H 0.38549 0.77410 0.74187
 H2447 H 0.37320 0.69014 0.78228
 H2448 H 0.35025 0.76629 0.83446
 H2449 H 0.33222 0.79587 0.77467
 H2450 H 0.31995 0.71190 0.81644
 C2451 C 0.85377 0.22952 0.24916
 C2452 C 0.87134 0.25938 0.26014
 C2453 C 0.88103 0.24325 0.29295
 C2454 C 0.86419 0.21343 0.28213
 C2455 C 0.85158 0.25507 0.31052
 C2456 C 0.84150 0.27106 0.27770
 C2457 C 0.82395 0.24111 0.26690
 C2458 C 0.83457 0.22522 0.29986
 H2459 H 0.85639 0.21916 0.22399
 H2460 H 0.88648 0.27363 0.24364
 H2461 H 0.87399 0.18966 0.28388
 H2462 H 0.85052 0.26574 0.33590
 H2463 H 0.83292 0.29533 0.27595
 H2464 H 0.82042 0.21133 0.31757
 C2465 C 0.14908 0.26887 0.24927
 C2466 C 0.13218 0.23928 0.26211
 C2467 C 0.12227 0.25684 0.29403
 C2468 C 0.13849 0.28644 0.28143
 C2469 C 0.15207 0.24649 0.31192
 C2470 C 0.16227 0.22905 0.27996
 C2471 C 0.17922 0.25872 0.26727
 C2472 C 0.16849 0.27603 0.29942
 H2473 H 0.14608 0.27762 0.22349
 H2474 H 0.11704 0.22398 0.24676
 H2475 H 0.12888 0.31033 0.28174
 H2476 H 0.15361 0.23721 0.33787
 H2477 H 0.17112 0.20483 0.27955
 H2478 H 0.18251 0.29068 0.31645
 C2479 C 0.66887 0.77631 0.79834
 C2480 C 0.63896 0.78661 0.78008
 C2481 C 0.62269 0.75703 0.79267
 C2482 C 0.65239 0.74679 0.81084
 C2483 C 0.63284 0.73938 0.76091
 C2484 C 0.64977 0.76895 0.74807
 C2485 C 0.67981 0.75892 0.76633
 C2486 C 0.66283 0.72926 0.77903
 H2487 H 0.68285 0.79099 0.81540
 H2488 H 0.62935 0.81051 0.78021
 H2489 H 0.65376 0.73759 0.83684
 H2490 H 0.61782 0.72399 0.74551
 H2491 H 0.64689 0.77753 0.72221
 H2492 H 0.67171 0.70505 0.77877
 C2493 C 0.66569 0.22385 0.70352
 C2494 C 0.63616 0.21362 0.72266
 C2495 C 0.61962 0.24304 0.71009
 C2496 C 0.64897 0.25318 0.69109
 C2497 C 0.63027 0.26107 0.74143
 C2498 C 0.64755 0.23170 0.75423
 C2499 C 0.67712 0.24167 0.73497
 C2500 C 0.65986 0.27112 0.72240
 H2501 H 0.67962 0.20886 0.68662
 H2502 H 0.62670 0.18963 0.72291
 H2503 H 0.64985 0.26211 0.66495
 H2504 H 0.61547 0.27655 0.75698
 H2505 H 0.64639 0.22327 0.78047
 H2506 H 0.66869 0.29536 0.72212
 C2507 C 0.16511 0.72621 0.20295
 C2508 C 0.13577 0.71577 0.22226
 C2509 C 0.11898 0.74514 0.20993
 C2510 C 0.14817 0.75551 0.19076
 C2511 C 0.12975 0.76313 0.24125
 C2512 C 0.14724 0.73379 0.25380
 C2513 C 0.17665 0.74397 0.23439
 C2514 C 0.15920 0.77338 0.22207
 H2515 H 0.17893 0.71148 0.18572
 H2516 H 0.12642 0.69174 0.22257
 H2517 H 0.14884 0.76452 0.16465
 H2518 H 0.11497 0.77847 0.25698
 H2519 H 0.14610 0.72534 0.28001
 H2520 H 0.16803 0.79763 0.22183
   
