data_POSCAR
  _audit_creation_date              2014-09-24
  _audit_creation_method            'ToBaCCo'
  _symmetry_space_group_name_H-M    'P1'
  _symmetry_Int_Tables_number       1
  _symmetry_cell_setting            triclinic
  loop_
  _symmetry_equiv_pos_as_xyz
 x,y,z
_cell_length_a 53.9876
_cell_length_b 54.0680
_cell_length_c 57.1876
_cell_angle_alpha 87.418400
_cell_angle_beta 89.276800
_cell_angle_gamma 87.609300
loop_
  _atom_site_label
  _atom_site_type_symbol
  _atom_site_fract_x
  _atom_site_fract_y
  _atom_site_fract_z
C1 C 0.75946 0.60411 1.01080
 C2 C 0.74568 0.38338 0.52261
 C3 C 0.23920 -0.10733 -0.00484
 C4 C 0.25829 0.11118 0.48638
 C5 C 0.14155 0.50086 0.25260
 C6 C -0.12575 0.01202 0.25134
 C7 C 0.37097 0.51555 0.75742
 C8 C 0.61591 1.00259 0.75044
 C9 C 0.01267 0.23417 -0.11515
 C10 C 0.51661 0.25886 0.12191
 C11 C 0.99342 0.74677 0.60650
 C12 C 0.50110 0.75499 0.36645
 C13 C 0.41404 -0.02565 0.23168
 H14 H 0.42279 -0.00881 0.22592
 C15 C 0.42869 -0.04696 0.23738
 H16 H 0.44867 -0.04629 0.23603
 C17 C 0.37745 -0.04722 0.24020
 H18 H 0.35743 -0.04704 0.24142
 C19 C 0.39133 -0.06892 0.24592
 H20 H 0.38182 -0.08533 0.25184
 N21 N 0.38892 -0.02606 0.23365
 C22 C 0.38013 0.04062 0.19473
 H23 H 0.36549 0.03370 0.18448
 C24 C 0.39266 0.06119 0.18616
 H25 H 0.38756 0.06970 0.16930
 C26 C 0.40348 0.03896 0.22960
 H27 H 0.40736 0.03028 0.24665
 C28 C 0.41654 0.05957 0.22167
 H29 H 0.43079 0.06640 0.23255
 Zn30 Zn 0.36790 0.00229 0.22745
 N31 N 0.38595 0.02968 0.21595
 C32 C 0.33575 0.03182 0.25440
 N33 N 0.35173 0.01171 0.25538
 C34 C 0.35775 -0.00012 0.27615
 C35 C 0.34763 0.00830 0.29707
 C36 C 0.32501 0.04071 0.27488
 C37 C 0.35544 -0.01469 0.18450
 C38 C 0.34053 -0.02009 0.16586
 C39 C 0.30442 -0.00890 0.18909
 C40 C 0.32010 -0.00362 0.20735
 N41 N 0.34513 -0.00611 0.20453
 H42 H 0.33166 0.04119 0.23770
 H43 H 0.37106 -0.01560 0.27667
 H44 H 0.35336 -0.00090 0.31344
 H45 H 0.31219 0.05664 0.27364
 H46 H 0.37540 -0.01685 0.18289
 H47 H 0.34916 -0.02681 0.15004
 H48 H 0.28456 -0.00629 0.19135
 H49 H 0.31225 0.00273 0.22358
 C50 C 0.41128 0.07083 0.19956
 C51 C 0.41731 -0.06890 0.24484
 C52 C 0.31467 -0.01688 0.16787
 C53 C 0.33119 0.02914 0.29666
 C54 C 0.08304 1.01329 0.76123
 H55 H 0.08264 0.99474 0.76912
 C56 C 0.06911 1.03260 0.77111
 H57 H 0.05805 1.02875 0.78667
 C58 C 0.09956 1.04110 0.73246
 H59 H 0.11202 1.04453 0.71787
 C60 C 0.08595 1.06092 0.74175
 H61 H 0.08770 1.07933 0.73381
 N62 N 0.09815 1.01790 0.74247
 C63 C 0.11770 0.94675 0.71310
 H64 H 0.13765 0.94760 0.71393
 C65 C 0.10718 0.92699 0.70267
 H66 H 0.11921 0.91242 0.69586
 C67 C 0.07793 0.96504 0.72085
 H68 H 0.06671 0.98024 0.72749
 C69 C 0.06657 0.94556 0.71044
 H70 H 0.04657 0.94594 0.70916
 Zn71 Zn 0.12014 0.99205 0.73292
 N72 N 0.10308 0.96526 0.72188
 C73 C 0.13894 0.95790 0.76811
 N74 N 0.13942 0.98165 0.75927
 C75 C 0.15224 0.99897 0.77001
 C76 C 0.16539 0.99262 0.79044
 C77 C 0.15193 0.95072 0.78840
 C78 C 0.12858 1.00962 0.68729
 C79 C 0.14209 1.01670 0.66733
 C80 C 0.17976 1.01007 0.68954
 C81 C 0.16547 1.00315 0.70914
 N82 N 0.14035 1.00320 0.70768
 H83 H 0.12806 0.94456 0.75978
 H84 H 0.15196 1.01783 0.76281
 H85 H 0.17555 1.00662 0.79873
 H86 H 0.15096 0.93183 0.79539
 H87 H 0.10859 1.00912 0.68656
 H88 H 0.13228 1.02213 0.65140
 H89 H 0.19975 1.00958 0.69092
 H90 H 0.17450 0.99734 0.72534
 C91 C 0.08130 0.92638 0.70090
 C92 C 0.07093 1.05691 0.76168
 C93 C 0.16806 1.01692 0.66825
 C94 C 0.16529 0.96820 0.79991
 C95 C 0.60131 0.52037 0.28645
 H96 H 0.60018 0.50367 0.29750
 C97 C 0.58803 0.54197 0.29248
 H98 H 0.57676 0.54173 0.30827
 C99 C 0.61892 0.54140 0.25342
 H100 H 0.63151 0.54137 0.23860
 C101 C 0.60600 0.56334 0.25878
 H102 H 0.60844 0.57983 0.24768
 N103 N 0.61666 0.52057 0.26741
 C104 C 0.63380 0.44342 0.25213
 H105 H 0.65378 0.44368 0.25320
 C106 C 0.62264 0.42208 0.24553
 H107 H 0.63420 0.40599 0.24140
 C108 C 0.59469 0.46477 0.25495
 H109 H 0.58400 0.48163 0.25822
 C110 C 0.58272 0.44380 0.24820
 H111 H 0.56274 0.44457 0.24662
 Zn112 Zn 0.63782 0.49240 0.26260
 N113 N 0.61982 0.46418 0.25663
 C114 C 0.65201 0.46602 0.30398
 N115 N 0.65669 0.48645 0.29014
 C116 C 0.67262 0.50356 0.29697
 C117 C 0.68491 0.50017 0.31836
 C118 C 0.66347 0.46219 0.32560
 C119 C 0.64518 0.49932 0.21523
 C120 C 0.65745 0.50392 0.19403
 C121 C 0.69581 0.50559 0.21509
 C122 C 0.68277 0.50064 0.23598
 N123 N 0.65780 0.49817 0.23567
 H124 H 0.63869 0.45306 0.29871
 H125 H 0.67537 0.52009 0.28604
 H126 H 0.69735 0.51398 0.32379
 H127 H 0.65923 0.44604 0.33659
 H128 H 0.62540 0.49684 0.21547
 H129 H 0.64692 0.50462 0.17801
 H130 H 0.71552 0.50838 0.21573
 H131 H 0.69259 0.49908 0.25234
 C132 C 0.59680 0.42217 0.24320
 C133 C 0.59076 0.56399 0.27884
 C134 C 0.68304 0.50762 0.19375
 C135 C 0.68000 0.47944 0.33303
 C136 C 0.92096 0.47565 0.78688
 H137 H 0.92075 0.49403 0.79362
 C138 C 0.93633 0.45679 0.79695
 H139 H 0.94830 0.46095 0.81118
 C140 C 0.90488 0.44779 0.76066
 H141 H 0.89200 0.44414 0.74706
 C142 C 0.91992 0.42838 0.77024
 H143 H 0.91841 0.40997 0.76381
 N144 N 0.90549 0.47081 0.76922
 C145 C 0.88207 0.54210 0.73661
 H146 H 0.86226 0.53982 0.73738
 C147 C 0.89146 0.56341 0.72585
 H148 H 0.87866 0.57731 0.71812
 C149 C 0.92266 0.52604 0.74498
 H150 H 0.93472 0.51128 0.75225
 C151 C 0.93290 0.54718 0.73441
 H152 H 0.95283 0.54865 0.73398
 Zn153 Zn 0.88210 0.49603 0.75942
 N154 N 0.89763 0.52405 0.74605
 C155 C 0.86472 0.52821 0.79423
 N156 N 0.86374 0.50489 0.78640
 C157 C 0.85153 0.48698 0.79877
 C158 C 0.83952 0.49230 0.81986
 C159 C 0.85315 0.53426 0.81528
 C160 C 0.87246 0.47984 0.71523
 C161 C 0.85858 0.47208 0.69672
 C162 C 0.82198 0.47436 0.72143
 C163 C 0.83657 0.48226 0.73947
 N164 N 0.86138 0.48458 0.73613
 H165 H 0.87500 0.54203 0.78449
 H166 H 0.85155 0.46843 0.79243
 H167 H 0.83022 0.47775 0.82968
 H168 H 0.85418 0.55291 0.82125
 H169 H 0.89217 0.48212 0.71300
 H170 H 0.86784 0.46803 0.68035
 H171 H 0.80226 0.47264 0.72430
 H172 H 0.82801 0.48669 0.75601
 C173 C 0.91719 0.56627 0.72473
 C174 C 0.93560 0.43264 0.78894
 C175 C 0.83300 0.46920 0.69970
 C176 C 0.84051 0.51614 0.82846
 C177 C 0.27748 0.41186 -0.02242
 H178 H 0.28832 0.41212 -0.00672
 C179 C 0.28559 0.42450 -0.04277
 H180 H 0.30242 0.43467 -0.04237
 C181 C 0.24386 0.39642 -0.04271
 H182 H 0.22804 0.38494 -0.04300
 C183 C 0.25138 0.40864 -0.06344
 H184 H 0.24087 0.40679 -0.07923
 N185 N 0.25679 0.39831 -0.02261
 C186 C 0.21596 0.39810 0.04083
 H187 H 0.20409 0.38368 0.03592
 C188 C 0.20869 0.41276 0.05935
 H189 H 0.19119 0.40960 0.06822
 C190 C 0.25368 0.41872 0.03650
 H191 H 0.27144 0.42069 0.02797
 C192 C 0.24727 0.43359 0.05520
 H193 H 0.25998 0.44720 0.06054
 Zn194 Zn 0.24767 0.37982 0.00514
 N195 N 0.23806 0.40136 0.02961
 C196 C 0.28405 0.36097 0.03697
 N197 N 0.27575 0.35990 0.01471
 C198 C 0.28829 0.34619 -0.00133
 C199 C 0.31060 0.33347 0.00463
 C200 C 0.30631 0.34879 0.04358
 C201 C 0.19897 0.37139 -0.00809
 C202 C 0.17852 0.35776 -0.01322
 C203 C 0.20286 0.32016 -0.00402
 C204 C 0.22290 0.33456 0.00099
 N205 N 0.22068 0.35971 -0.00130
 H206 H 0.27369 0.37169 0.04955
 H207 H 0.28133 0.34576 -0.01896
 H208 H 0.32079 0.32326 -0.00849
 H209 H 0.31289 0.35024 0.06126
 H210 H 0.19762 0.39141 -0.00967
 H211 H 0.16165 0.36749 -0.01912
 H212 H 0.20493 0.30017 -0.00207
 H213 H 0.24021 0.32563 0.00667
 C214 C 0.22448 0.43070 0.06681
 C215 C 0.27257 0.42280 -0.06368
 C216 C 0.18030 0.33178 -0.01131
 C217 C 0.32011 0.33521 0.02720
 C218 C 0.77817 0.06163 1.01642
 H219 H 0.78767 0.05854 0.99997
 C220 C 0.78633 0.04887 1.03690
 H221 H 0.80190 0.03566 1.03599
 C222 C 0.74682 0.08318 1.03767
 H223 H 0.73196 0.09713 1.03814
 C224 C 0.75433 0.07085 1.05850
 H225 H 0.74505 0.07556 1.07470
 N226 N 0.75879 0.07848 1.01716
 C227 C 0.73097 0.09072 0.94609
 H228 H 0.72995 0.11076 0.94564
 C229 C 0.72401 0.07824 0.92659
 H230 H 0.71725 0.08887 0.91131
 C231 C 0.74082 0.05270 0.96679
 H232 H 0.74743 0.04287 0.98251
 C233 C 0.73393 0.03939 0.94760
 H234 H 0.73549 0.01935 0.94865
 Zn235 Zn 0.75030 0.09774 0.98964
 N236 N 0.73965 0.07792 0.96549
 C237 C 0.78875 0.10994 0.95773
 N238 N 0.77900 0.11444 0.97925
 C239 C 0.79001 0.12993 0.99368
 C240 C 0.81110 0.14241 0.98620
 C241 C 0.80974 0.12194 0.94960
 C242 C 0.70160 0.11066 1.00210
 C243 C 0.68147 0.12584 1.00881
 C244 C 0.70668 0.16141 1.00230
 C245 C 0.72640 0.14550 0.99571
 N246 N 0.72372 0.12056 0.99633
 H247 H 0.78042 0.09689 0.94680
 H248 H 0.78223 0.13279 1.01092
 H249 H 0.81922 0.15517 0.99767
 H250 H 0.81719 0.11797 0.93244
 H251 H 0.69984 0.09080 1.00205
 H252 H 0.66415 0.11750 1.01370
 H253 H 0.70943 0.18112 1.00257
 H254 H 0.74393 0.15311 0.99057
 C255 C 0.72579 0.05224 0.92701
 C256 C 0.77452 0.05363 1.05838
 C257 C 0.68399 0.15155 1.00945
 C258 C 0.82106 0.13868 0.96375
 C259 C 0.26657 0.56886 0.52412
 H260 H 0.26481 0.55808 0.50882
 C261 C 0.27364 0.55709 0.54544
 H262 H 0.27725 0.53722 0.54640
 C263 C 0.26406 0.60782 0.54162
 H264 H 0.26053 0.62766 0.53987
 C265 C 0.27089 0.59685 0.56321
 H266 H 0.27287 0.60846 0.57795
 N267 N 0.26236 0.59386 0.52257
 C268 C 0.22226 0.59079 0.46234
 H269 H 0.20833 0.60326 0.46948
 C270 C 0.21592 0.57604 0.44418
 H271 H 0.19713 0.57733 0.43768
 C272 C 0.26381 0.57492 0.46111
 H273 H 0.28252 0.57487 0.46769
 C274 C 0.25832 0.56003 0.44259
 H275 H 0.27281 0.54830 0.43510
 Zn276 Zn 0.25400 0.61151 0.49431
 N277 N 0.24582 0.58988 0.47060
 C278 C 0.28035 0.64238 0.46248
 N279 N 0.28149 0.62981 0.48360
 C280 C 0.30264 0.62863 0.49637
 C281 C 0.32372 0.64036 0.48800
 C282 C 0.30109 0.65434 0.45340
 C283 C 0.20679 0.62122 0.51204
 C284 C 0.18522 0.63483 0.51761
 C285 C 0.20390 0.67169 0.50127
 C286 C 0.22517 0.65728 0.49586
 N287 N 0.22607 0.63246 0.50107
 H288 H 0.26347 0.64264 0.45246
 H289 H 0.30343 0.61823 0.51291
 H290 H 0.34028 0.63926 0.49856
 H291 H 0.29999 0.66372 0.43629
 H292 H 0.20818 0.60151 0.51630
 H293 H 0.17016 0.62549 0.52645
 H294 H 0.20329 0.69137 0.49678
 H295 H 0.24085 0.66591 0.48746
 C296 C 0.23405 0.56048 0.43400
 C297 C 0.27603 0.57119 0.56529
 C298 C 0.18350 0.66039 0.51214
 C299 C 0.32326 0.65324 0.46614
 C300 C 0.76439 0.93472 0.47598
 H301 H 0.77198 0.93491 0.49338
 C302 C 0.77459 0.94923 0.45779
 H303 H 0.78963 0.96100 0.46158
 C304 C 0.73600 0.91856 0.44997
 H305 H 0.72153 0.90595 0.44682
 C306 C 0.74586 0.93255 0.43120
 H307 H 0.73873 0.93046 0.41383
 N308 N 0.74550 0.91972 0.47180
 C309 C 0.71654 0.89997 0.54158
 H310 H 0.71598 0.88015 0.53990
 C311 C 0.71010 0.91031 0.56281
 H312 H 0.70425 0.89837 0.57738
 C313 C 0.72496 0.93955 0.52453
 H314 H 0.73077 0.95086 0.50957
 C315 C 0.71840 0.95073 0.54545
 H316 H 0.71946 0.97061 0.54649
 Zn317 Zn 0.73551 0.89757 0.49642
 N318 N 0.72450 0.91450 0.52320
 C319 C 0.77358 0.87738 0.52596
 N320 N 0.76379 0.87697 0.50420
 C321 C 0.77516 0.86362 0.48721
 C322 C 0.79728 0.84996 0.49187
 C323 C 0.79549 0.86396 0.53138
 C324 C 0.68755 0.89161 0.48099
 C325 C 0.66711 0.87923 0.47355
 C326 C 0.69072 0.84048 0.47898
 C327 C 0.71081 0.85366 0.48620
 N328 N 0.70896 0.87880 0.48677
 H329 H 0.76482 0.88859 0.53909
 H330 H 0.76730 0.86403 0.46988
 H331 H 0.80635 0.83990 0.47800
 H332 H 0.80277 0.86447 0.54890
 H333 H 0.68647 0.91156 0.48199
 H334 H 0.65026 0.88979 0.46894
 H335 H 0.69263 0.82052 0.47818
 H336 H 0.72783 0.84378 0.49131
 C337 C 0.71137 0.93596 0.56506
 C338 C 0.76572 0.94787 0.43488
 C339 C 0.66859 0.85333 0.47230
 C340 C 0.80786 0.85026 0.51417
 C341 C -0.02506 0.28958 0.41055
 H342 H -0.00677 0.29702 0.41074
 C343 C -0.04449 0.30082 0.42306
 H344 H -0.04088 0.31668 0.43322
 C345 C -0.05191 0.25996 0.39686
 H346 H -0.05488 0.24439 0.38621
 C347 C -0.07187 0.27063 0.40909
 H348 H -0.09002 0.26308 0.40769
 N349 N -0.02901 0.26943 0.39793
 C350 C 0.04156 0.22930 0.38918
 H351 H 0.04063 0.22686 0.37055
 C352 C 0.06119 0.21835 0.40198
 H353 H 0.07548 0.20761 0.39303
 C354 C 0.02402 0.24638 0.42340
 H355 H 0.00930 0.25702 0.43171
 C356 C 0.04359 0.23596 0.43688
 H357 H 0.04382 0.23866 0.45552
 Zn358 Zn -0.00219 0.25609 0.38027
 N359 N 0.02352 0.24305 0.39995
 C360 C 0.03398 0.28802 0.36166
 N361 N 0.00982 0.28204 0.36046
 C362 C -0.00648 0.29570 0.34668
 C363 C 0.00131 0.31651 0.33361
 C364 C 0.04257 0.30849 0.34876
 C365 C -0.01928 0.20888 0.37548
 C366 C -0.02582 0.18782 0.36419
 C367 C -0.01804 0.20932 0.32704
 C368 C -0.01168 0.23006 0.33908
 N369 N -0.01252 0.22947 0.36288
 H370 H 0.04654 0.27736 0.37310
 H371 H -0.02567 0.29074 0.34629
 H372 H -0.01193 0.32735 0.32291
 H373 H 0.06173 0.31327 0.35044
 H374 H -0.01946 0.20883 0.39440
 H375 H -0.03153 0.17179 0.37462
 H376 H -0.01692 0.20997 0.30811
 H377 H -0.00573 0.24645 0.32943
 C378 C 0.06237 0.22161 0.42613
 C379 C -0.06832 0.29139 0.42237
 C380 C -0.02515 0.18776 0.33964
 C381 C 0.02612 0.32319 0.33469
 C382 C 1.01804 0.78513 0.09155
 H383 H 1.00016 0.79494 0.09160
 C384 C 1.03728 0.79403 0.07740
 H385 H 1.03408 0.81085 0.06667
 C386 C 1.04424 0.75204 0.10654
 H387 H 1.04705 0.73596 0.11823
 C388 C 1.06398 0.76030 0.09271
 H389 H 1.08168 0.75016 0.09361
 N390 N 1.02184 0.76452 0.10577
 C391 C 0.94954 0.73522 0.12230
 H392 H 0.95045 0.73453 0.14121
 C393 C 0.92922 0.72592 0.11132
 H394 H 0.91433 0.71845 0.12196
 C395 C 0.96810 0.74569 0.08559
 H396 H 0.98355 0.75292 0.07566
 C397 C 0.94809 0.73653 0.07386
 H398 H 0.94839 0.73677 0.05492
 Zn399 Zn 0.99592 0.75488 0.12629
 N400 N 0.96842 0.74489 0.10940
 C401 C 0.96300 0.79196 0.14369
 N402 N 0.98673 0.78250 0.14424
 C403 C 1.00463 0.79377 0.15591
 C404 C 0.99890 0.81546 0.16766
 C405 C 0.95643 0.81342 0.15534
 C406 C 1.00986 0.70552 0.13410
 C407 C 1.01736 0.68370 0.14638
 C408 C 1.01818 0.70649 0.18173
 C409 C 1.01041 0.72794 0.16875
 N410 N 1.00667 0.72707 0.14532
 H411 H 0.94917 0.78328 0.13376
 H412 H 1.02347 0.78614 0.15570
 H413 H 1.01335 0.82426 0.17680
 H414 H 0.93752 0.82087 0.15431
 H415 H 1.00663 0.70535 0.11548
 H416 H 1.02018 0.66684 0.13699
 H417 H 1.02115 0.70740 0.20036
 H418 H 1.00742 0.74520 0.17738
 C419 C 0.92841 0.72627 0.08677
 C420 C 1.06071 0.78172 0.07807
 C421 C 1.02167 0.68399 0.17050
 C422 C 0.97450 0.82555 0.16741
 C423 C 0.50798 0.28898 0.59646
 H424 H 0.49058 0.29957 0.59490
 C425 C 0.52948 0.29824 0.58617
 H426 H 0.52842 0.31607 0.57676
 C427 C 0.53063 0.25370 0.61211
 H428 H 0.53118 0.23668 0.62273
 C429 C 0.55254 0.26218 0.60200
 H430 H 0.56960 0.25118 0.60451
 N431 N 0.50896 0.26718 0.60927
 C432 C 0.43404 0.24086 0.61534
 H433 H 0.43267 0.23923 0.63423
 C434 C 0.41504 0.23269 0.60178
 H435 H 0.39888 0.22514 0.61041
 C436 C 0.45711 0.25237 0.58130
 H437 H 0.47382 0.25953 0.57348
 C438 C 0.43848 0.24432 0.56700
 H439 H 0.44104 0.24531 0.54818
 Zn440 Zn 0.47997 0.25775 0.62562
 N441 N 0.45457 0.25036 0.60501
 C442 C 0.44635 0.29464 0.64246
 N443 N 0.46967 0.28429 0.64435
 C444 C 0.48650 0.29336 0.65889
 C445 C 0.47997 0.31342 0.67260
 C446 C 0.43897 0.31449 0.65601
 C447 C 0.49200 0.20760 0.63277
 C448 C 0.49684 0.18517 0.64517
 C449 C 0.48959 0.20616 0.68121
 C450 C 0.48490 0.22824 0.66808
 N451 N 0.48656 0.22860 0.64432
 H452 H 0.43345 0.28770 0.63034
 H453 H 0.50505 0.28499 0.65978
 H454 H 0.49348 0.32032 0.68425
 H455 H 0.42035 0.32255 0.65426
 H456 H 0.49283 0.20839 0.61384
 H457 H 0.50190 0.16884 0.63562
 H458 H 0.48826 0.20618 0.70012
 H459 H 0.47992 0.24503 0.67688
 C460 C 0.41730 0.23394 0.57728
 C461 C 0.55224 0.28493 0.58911
 C462 C 0.49584 0.18427 0.66974
 C463 C 0.45586 0.32407 0.67134
 C464 C 0.47378 0.77412 0.92905
 H465 H 0.49143 0.78208 0.93216
 C466 C 0.45249 0.78273 0.94081
 H467 H 0.45405 0.79700 0.95333
 C468 C 0.45028 0.74636 0.90841
 H469 H 0.44928 0.73280 0.89519
 C470 C 0.42856 0.75451 0.91963
 H471 H 0.41115 0.74702 0.91482
 N472 N 0.47229 0.75631 0.91315
 C473 C 0.54758 0.72709 0.90127
 H474 H 0.54745 0.72849 0.88234
 C475 C 0.56850 0.71724 0.91287
 H476 H 0.58455 0.71136 0.90268
 C477 C 0.52676 0.73357 0.93735
 H478 H 0.51031 0.73969 0.94676
 C479 C 0.54739 0.72375 0.94973
 H480 H 0.54660 0.72232 0.96867
 Zn481 Zn 0.50063 0.74784 0.89497
 N482 N 0.52737 0.73522 0.91355
 C483 C 0.53241 0.78645 0.88237
 N484 N 0.51002 0.77702 0.87812
 C485 C 0.49365 0.78909 0.86324
 C486 C 0.49986 0.81127 0.85149
 C487 C 0.53933 0.80850 0.87105
 C488 C 0.48828 0.70024 0.88580
 C489 C 0.48228 0.68015 0.87286
 C490 C 0.48689 0.70575 0.83746
 C491 C 0.49291 0.72542 0.85114
 N492 N 0.49312 0.72239 0.87488
 H493 H 0.54481 0.77720 0.89490
 H494 H 0.47573 0.78150 0.86059
 H495 H 0.48678 0.82043 0.83943
 H496 H 0.55711 0.81580 0.87497
 H497 H 0.48878 0.69834 0.90470
 H498 H 0.47783 0.66290 0.88200
 H499 H 0.48670 0.70843 0.81859
 H500 H 0.49733 0.74303 0.84278
 C501 C 0.56861 0.71539 0.93743
 C502 C 0.42939 0.77317 0.93587
 C503 C 0.48136 0.68277 0.84835
 C504 C 0.52305 0.82118 0.85527
 C505 C 0.48566 -0.20023 0.35922
 C506 C 0.47995 -0.17916 0.34512
 C507 C 0.48279 -0.17954 0.32080
 C508 C 0.49247 -0.20125 0.31085
 C509 C 0.49851 -0.22240 0.32503
 C510 C 0.49433 -0.22260 0.34950
 C511 C 0.47579 -0.15677 0.30668
 C512 C 0.46778 -0.15681 0.28459
 C513 C 0.45710 -0.13412 0.27243
 C514 C 0.43757 -0.13623 0.25681
 C515 C 0.42515 -0.11504 0.24716
 C516 C 0.43227 -0.09131 0.25272
 C517 C 0.45283 -0.08922 0.26721
 C518 C 0.46516 -0.11039 0.27695
 H519 H 0.48307 -0.19922 0.37797
 H520 H 0.47295 -0.16254 0.35329
 H521 H 0.49595 -0.20179 0.29220
 H522 H 0.50692 -0.23820 0.31665
 H523 H 0.47480 -0.13959 0.31575
 H524 H 0.46629 -0.17423 0.27619
 H525 H 0.43124 -0.15430 0.25281
 H526 H 0.40965 -0.11721 0.23570
 H527 H 0.45877 -0.07119 0.27181
 H528 H 0.48069 -0.10812 0.28833
 C529 C 1.01076 0.26038 0.84539
 C530 C 1.00430 0.28232 0.83263
 C531 C 0.99353 0.30275 0.84377
 C532 C 0.98946 0.30085 0.86809
 C533 C 0.99582 0.27894 0.88082
 C534 C 1.00565 0.25786 0.86966
 C535 C 0.98567 0.32516 0.82939
 C536 C 0.98319 0.34784 0.83797
 C537 C 0.97270 0.36992 0.82460
 C538 C 0.96263 0.38971 0.83718
 C539 C 0.95114 0.41029 0.82558
 C540 C 0.94965 0.41169 0.80104
 C541 C 0.96056 0.39232 0.78835
 C542 C 0.97205 0.37168 0.79997
 H543 H 1.02009 0.24572 0.83604
 H544 H 1.00798 0.28344 0.81395
 H545 H 0.98077 0.31595 0.87737
 H546 H 0.99251 0.27817 0.89955
 H547 H 0.98137 0.32247 0.81129
 H548 H 0.98784 0.35033 0.85604
 H549 H 0.96299 0.38893 0.85614
 H550 H 0.94268 0.42472 0.83592
 H551 H 0.96017 0.39311 0.76940
 H552 H 0.98038 0.35730 0.78953
 C553 C 0.04219 1.19693 0.87464
 C554 C 0.04884 1.17704 0.86087
 C555 C 0.03357 1.17046 0.84276
 C556 C 0.01097 1.18382 0.83906
 C557 C 0.00433 1.20387 0.85282
 C558 C 0.02043 1.21171 0.87006
 C559 C 0.04263 1.15038 0.82765
 C560 C 0.02811 1.13721 0.81448
 C561 C 0.03858 1.11737 0.79977
 C562 C 0.02495 1.09630 0.79641
 C563 C 0.03517 1.07676 0.78368
 C564 C 0.05907 1.07816 0.77374
 C565 C 0.07224 1.09972 0.77636
 C566 C 0.06211 1.11912 0.78913
 H567 H 0.05427 1.20040 0.88894
 H568 H 0.06608 1.16666 0.86447
 H569 H -0.00134 1.17935 0.82524
 H570 H -0.01320 1.21382 0.84956
 H571 H 0.06233 1.14568 0.82814
 H572 H 0.00816 1.13984 0.81549
 H573 H 0.00666 1.09469 0.80418
 H574 H 0.02446 1.06050 0.78170
 H575 H 0.09075 1.10133 0.76909
 H576 H 0.07279 1.13545 0.79071
 C577 C 0.49290 0.72116 0.33771
 C578 C 0.49928 0.69916 0.32664
 C579 C 0.52184 0.68632 0.33148
 C580 C 0.53731 0.69519 0.34849
 C581 C 0.53093 0.71701 0.35961
 C582 C 0.50910 0.73115 0.35371
 C583 C 0.52854 0.66320 0.31944
 C584 C 0.55222 0.65634 0.31493
 C585 C 0.56035 0.63294 0.30407
 C586 C 0.58415 0.63141 0.29400
 C587 C 0.59364 0.60924 0.28527
 C588 C 0.57961 0.58790 0.28657
 C589 C 0.55562 0.58942 0.29640
 C590 C 0.54603 0.61174 0.30505
 H591 H 0.47529 0.73059 0.33365
 H592 H 0.48665 0.69228 0.31412
 H593 H 0.55413 0.68495 0.35373
 H594 H 0.54308 0.72221 0.37325
 H595 H 0.51367 0.65230 0.31350
 H596 H 0.56664 0.66878 0.31896
 H597 H 0.59568 0.64737 0.29324
 H598 H 0.61236 0.60860 0.27823
 H599 H 0.54437 0.57328 0.29760
 H600 H 0.52783 0.61202 0.31317
 C601 C 0.53739 0.29965 0.12708
 C602 C 0.54591 0.31843 0.14039
 C603 C 0.54565 0.31612 0.16488
 C604 C 0.53747 0.29402 0.17580
 C605 C 0.52894 0.27512 0.16242
 C606 C 0.52752 0.27812 0.13780
 C607 C 0.55313 0.33759 0.17804
 C608 C 0.55888 0.33662 0.20083
 C609 C 0.56681 0.35869 0.21276
 C610 C 0.58390 0.35556 0.23103
 C611 C 0.59308 0.37615 0.24147
 C612 C 0.58504 0.40028 0.23407
 C613 C 0.56693 0.40335 0.21666
 C614 C 0.55787 0.38278 0.20612
 H615 H 0.53752 0.30231 0.10819
 H616 H 0.55243 0.33506 0.13145
 H617 H 0.53707 0.29133 0.19463
 H618 H 0.52343 0.25834 0.17165
 H619 H 0.55479 0.35496 0.16807
 H620 H 0.55960 0.31908 0.21070
 H621 H 0.59077 0.33719 0.23671
 H622 H 0.60676 0.37323 0.25512
 H623 H 0.56041 0.42170 0.21056
 H624 H 0.54401 0.38583 0.19267
 C625 C -0.00056 0.76842 0.64584
 C626 C 0.00665 0.78873 0.65805
 C627 C 0.01564 0.80977 0.64609
 C628 C 0.01615 0.81058 0.62149
 C629 C 0.00916 0.79029 0.60931
 C630 C 0.00155 0.76839 0.62118
 C631 C 0.02386 0.83060 0.65971
 C632 C 0.04007 0.84696 0.65117
 C633 C 0.04971 0.86734 0.66449
 C634 C 0.07114 0.87862 0.65595
 C635 C 0.08120 0.89781 0.66771
 C636 C 0.07004 0.90629 0.68834
 C637 C 0.04827 0.89541 0.69672
 C638 C 0.03814 0.87614 0.68491
 H639 H -0.00814 0.75311 0.65594
 H640 H 0.00526 0.78796 0.67699
 H641 H 0.02160 0.82693 0.61146
 H642 H 0.00983 0.79157 0.59036
 H643 H 0.01751 0.83136 0.67768
 H644 H 0.04795 0.84464 0.63388
 H645 H 0.08026 0.87248 0.64013
 H646 H 0.09766 0.90618 0.66048
 H647 H 0.03925 0.90158 0.71256
 H648 H 0.02121 0.86849 0.69175
 C649 C 1.00573 0.71206 0.63668
 C650 C 1.00103 0.69070 0.65046
 C651 C 0.97800 0.67981 0.64958
 C652 C 0.96028 0.68980 0.63367
 C653 C 0.96503 0.71094 0.61974
 C654 C 0.98742 0.72330 0.62176
 C655 C 0.97300 0.65765 0.66477
 C656 C 0.95029 0.65361 0.67349
 C657 C 0.94392 0.63142 0.68805
 C658 C 0.92301 0.63298 0.70277
 C659 C 0.91490 0.61204 0.71528
 C660 C 0.92731 0.58887 0.71307
 C661 C 0.94864 0.58737 0.69874
 C662 C 0.95688 0.60844 0.68632
 H663 H 1.02366 0.72014 0.63789
 H664 H 1.01528 0.68290 0.66211
 H665 H 0.94286 0.68097 0.63160
 H666 H 0.95108 0.71712 0.60717
 H667 H 0.98848 0.64519 0.66966
 H668 H 0.93560 0.66760 0.67034
 H669 H 0.91270 0.65046 0.70440
 H670 H 0.89870 0.61395 0.72651
 H671 H 0.95840 0.56975 0.69638
 H672 H 0.97272 0.60641 0.67469
 C673 C 0.48522 0.24138 0.15183
 C674 C 0.47307 0.22187 0.16333
 C675 C 0.47970 0.19720 0.15875
 C676 C 0.49919 0.19245 0.14288
 C677 C 0.51115 0.21184 0.13127
 C678 C 0.50494 0.23685 0.13589
 C679 C 0.46598 0.17684 0.17056
 C680 C 0.46398 0.15476 0.16105
 C681 C 0.45034 0.13380 0.17179
 C682 C 0.44462 0.11447 0.15748
 C683 C 0.43213 0.09406 0.16656
 C684 C 0.42510 0.09240 0.19028
 C685 C 0.43113 0.11152 0.20480
 C686 C 0.44367 0.13203 0.19568
 H687 H 0.47910 0.26020 0.15528
 H688 H 0.45806 0.22608 0.17544
 H689 H 0.50532 0.17372 0.13919
 H690 H 0.52484 0.20676 0.11824
 H691 H 0.45633 0.18077 0.18674
 H692 H 0.47180 0.15201 0.14380
 H693 H 0.44980 0.11516 0.13910
 H694 H 0.42819 0.07943 0.15501
 H695 H 0.42588 0.11077 0.22315
 H696 H 0.44828 0.14617 0.20748
 C697 C 0.33762 0.52333 -0.21092
 C698 C 0.32504 0.51674 -0.19013
 C699 C 0.33176 0.49477 -0.17741
 C700 C 0.35226 0.48038 -0.18501
 C701 C 0.36487 0.48699 -0.20559
 C702 C 0.35694 0.50785 -0.21977
 C703 C 0.31786 0.48741 -0.15589
 C704 C 0.31479 0.46350 -0.14970
 C705 C 0.30226 0.45467 -0.12791
 C706 C 0.29289 0.43084 -0.12704
 C707 C 0.28272 0.42081 -0.10635
 C708 C 0.28197 0.43429 -0.08592
 C709 C 0.29117 0.45826 -0.08675
 C710 C 0.30117 0.46842 -0.10757
 H711 H 0.33201 0.54041 -0.22037
 H712 H 0.30983 0.52863 -0.18416
 H713 H 0.35895 0.46416 -0.17480
 H714 H 0.38110 0.47572 -0.21004
 H715 H 0.30929 0.50186 -0.14563
 H716 H 0.32135 0.44944 -0.16148
 H717 H 0.29376 0.41977 -0.14238
 H718 H 0.27615 0.40214 -0.10616
 H719 H 0.29078 0.46906 -0.07125
 H720 H 0.30876 0.48662 -0.10744
 C721 C 0.83045 1.01247 0.27148
 C722 C 0.81542 1.00786 0.29125
 C723 C 0.82581 0.99891 0.31252
 C724 C 0.85163 0.99469 0.31364
 C725 C 0.86656 0.99925 0.29404
 C726 C 0.85630 1.00734 0.27229
 C727 C 0.80939 0.99279 0.33282
 C728 C 0.81724 0.99236 0.35504
 C729 C 0.80300 0.98243 0.37547
 C730 C 0.81629 0.97363 0.39527
 C731 C 0.80416 0.96280 0.41458
 C732 C 0.77827 0.96085 0.41477
 C733 C 0.76481 0.97041 0.39522
 C734 C 0.77703 0.98107 0.37574
 H735 H 0.82166 1.02030 0.25583
 H736 H 0.79558 1.01147 0.28997
 H737 H 0.86047 0.98716 0.32941
 H738 H 0.88639 0.99580 0.29564
 H739 H 0.79074 0.98767 0.32909
 H740 H 0.83577 0.99804 0.35852
 H741 H 0.83630 0.97445 0.39555
 H742 H 0.81524 0.95528 0.42906
 H743 H 0.74481 0.96967 0.39496
 H744 H 0.76605 0.98832 0.36110
 C745 C 0.86908 0.03677 1.21178
 C746 C 0.85908 0.04012 1.18947
 C747 C 0.84127 0.02436 1.18176
 C748 C 0.83382 0.00476 1.19690
 C749 C 0.84387 0.00137 1.21935
 C750 C 0.86117 0.01776 1.22759
 C751 C 0.83219 0.02857 1.15745
 C752 C 0.81148 0.01936 1.14922
 C753 C 0.80251 0.02586 1.12519
 C754 C 0.77694 0.02697 1.12098
 C755 C 0.76782 0.03518 1.09906
 C756 C 0.78414 0.04222 1.08080
 C757 C 0.80979 0.03978 1.08467
 C758 C 0.81890 0.03160 1.10656
 H759 H 0.88372 0.04876 1.21608
 H760 H 0.86570 0.05497 1.17799
 H761 H 0.82088 -0.00846 1.19133
 H762 H 0.83842 -0.01442 1.23026
 H763 H 0.84250 0.04118 1.14620
 H764 H 0.79965 0.00858 1.16077
 H765 H 0.76395 0.02227 1.13490
 H766 H 0.74796 0.03639 1.09650
 H767 H 0.82288 0.04507 1.07103
 H768 H 0.83877 0.03007 1.10888
 C769 C 0.32857 0.51654 0.73594
 C770 C 0.31450 0.52145 0.71573
 C771 C 0.32538 0.53159 0.69529
 C772 C 0.35045 0.53745 0.69559
 C773 C 0.36442 0.53278 0.71573
 C774 C 0.35375 0.52265 0.73651
 C775 C 0.31023 0.53648 0.67405
 C776 C 0.31998 0.53514 0.65242
 C777 C 0.30631 0.54223 0.63067
 C778 C 0.31593 0.53403 0.60931
 C779 C 0.30540 0.54255 0.58810
 C780 C 0.28513 0.55970 0.58779
 C781 C 0.27495 0.56729 0.60918
 C782 C 0.28543 0.55870 0.63041
 H783 H 0.31971 0.50723 0.75071
 H784 H 0.29522 0.51664 0.71585
 H785 H 0.35934 0.54583 0.68030
 H786 H 0.38386 0.53700 0.71511
 H787 H 0.29060 0.54063 0.67644
 H788 H 0.33907 0.52851 0.65041
 H789 H 0.33211 0.52149 0.60900
 H790 H 0.31384 0.53660 0.57191
 H791 H 0.25922 0.58038 0.60947
 H792 H 0.27775 0.56590 0.64640
 C793 C 0.17398 0.52586 0.27236
 C794 C 0.18940 0.53056 0.29094
 C795 C 0.19144 0.51388 0.31037
 C796 C 0.17935 0.49139 0.30990
 C797 C 0.16388 0.48671 0.29134
 C798 C 0.15951 0.50466 0.27295
 C799 C 0.20571 0.52087 0.33090
 C800 C 0.20082 0.51224 0.35278
 C801 C 0.21135 0.52258 0.37389
 C802 C 0.19743 0.52142 0.39476
 C803 C 0.20529 0.53298 0.41453
 C804 C 0.22746 0.54568 0.41396
 C805 C 0.24221 0.54562 0.39355
 C806 C 0.23422 0.53420 0.37364
 H807 H 0.17254 0.53933 0.25779
 H808 H 0.19916 0.54768 0.29045
 H809 H 0.18181 0.47728 0.32378
 H810 H 0.15553 0.46889 0.29157
 H811 H 0.21851 0.53564 0.32816
 H812 H 0.18633 0.49918 0.35569
 H813 H 0.17991 0.51233 0.39553
 H814 H 0.19376 0.53244 0.43017
 H815 H 0.25942 0.55524 0.39269
 H816 H 0.24583 0.53478 0.35808
 C817 C 0.62988 0.03024 0.78346
 C818 C 0.64556 0.03518 0.80163
 C819 C 0.66464 0.01828 0.80847
 C820 C 0.66788 -0.00391 0.79675
 C821 C 0.65251 -0.00862 0.77798
 C822 C 0.63365 0.00876 0.77038
 C823 C 0.68083 0.02497 0.82760
 C824 C 0.68922 0.00891 0.84449
 C825 C 0.70158 0.01780 0.86535
 C826 C 0.69630 0.00719 0.88762
 C827 C 0.70489 0.01775 0.90778
 C828 C 0.71909 0.03899 0.90593
 C829 C 0.72581 0.04845 0.88355
 C830 C 0.71721 0.03797 0.86350
 H831 H 0.61455 0.04336 0.78025
 H832 H 0.64235 0.05213 0.81083
 H833 H 0.68249 -0.01734 0.80179
 H834 H 0.65536 -0.02588 0.76924
 H835 H 0.68344 0.04458 0.82929
 H836 H 0.68432 -0.01031 0.84442
 H837 H 0.68446 -0.00849 0.88945
 H838 H 0.69947 0.01001 0.92477
 H839 H 0.73737 0.06432 0.88155
 H840 H 0.72234 0.04602 0.84654
 C841 C 0.61478 0.99065 0.70800
 C842 C 0.62530 0.98653 0.68611
 C843 C 0.65079 0.98848 0.68236
 C844 C 0.66556 0.99541 0.70086
 C845 C 0.65494 0.99994 0.72284
 C846 C 0.62936 0.99697 0.72702
 C847 C 0.66094 0.98363 0.65877
 C848 C 0.68388 0.97414 0.65497
 C849 C 0.69210 0.96594 0.63164
 C850 C 0.70830 0.94508 0.63035
 C851 C 0.71478 0.93556 0.60870
 C852 C 0.70553 0.94699 0.58785
 C853 C 0.69025 0.96857 0.58905
 C854 C 0.68354 0.97795 0.61074
 H855 H 0.59497 0.98886 0.71020
 H856 H 0.61345 0.98153 0.67207
 H857 H 0.68519 0.99799 0.69822
 H858 H 0.66685 1.00629 0.73615
 H859 H 0.64812 0.98561 0.64432
 H860 H 0.69595 0.96969 0.66968
 H861 H 0.71533 0.93567 0.64618
 H862 H 0.72696 0.91916 0.60824
 H863 H 0.68294 0.97779 0.57325
 H864 H 0.67157 0.99449 0.61111
 C865 C 0.17426 0.47411 0.23153
 C866 C 0.18865 0.46807 0.21197
 C867 C 0.18877 0.48403 0.19200
 C868 C 0.17615 0.50723 0.19280
 C869 C 0.16188 0.51334 0.21241
 C870 C 0.15908 0.49604 0.23145
 C871 C 0.20144 0.47562 0.17048
 C872 C 0.19301 0.48226 0.14904
 C873 C 0.20230 0.47053 0.12755
 C874 C 0.18584 0.46852 0.10902
 C875 C 0.19320 0.45600 0.08910
 C876 C 0.21736 0.44560 0.08714
 C877 C 0.23424 0.44858 0.10520
 C878 C 0.22678 0.46088 0.12528
 H879 H 0.17398 0.46100 0.24641
 H880 H 0.19891 0.45042 0.21211
 H881 H 0.17719 0.52066 0.17823
 H882 H 0.15301 0.53162 0.21235
 H883 H 0.21600 0.46132 0.17247
 H884 H 0.17677 0.49464 0.14732
 H885 H 0.16696 0.47601 0.11025
 H886 H 0.17993 0.45425 0.07528
 H887 H 0.25299 0.44073 0.10410
 H888 H 0.24014 0.46270 0.13898
 C889 C -0.23673 0.34974 0.49609
 C890 C -0.21717 0.33704 0.48496
 C891 C -0.19256 0.34288 0.48885
 C892 C -0.18787 0.36137 0.50450
 C893 C -0.20738 0.37405 0.51563
 C894 C -0.23228 0.36805 0.51222
 C895 C -0.17226 0.32940 0.47641
 C896 C -0.15036 0.33934 0.47135
 C897 C -0.12986 0.32641 0.45871
 C898 C -0.11177 0.34068 0.44740
 C899 C -0.09186 0.32935 0.43561
 C900 C -0.08944 0.30340 0.43503
 C901 C -0.10741 0.28906 0.44656
 C902 C -0.12738 0.30041 0.45834
 H903 H -0.25553 0.34536 0.49199
 H904 H -0.22132 0.32298 0.47285
 H905 H -0.16914 0.36619 0.50826
 H906 H -0.20264 0.38899 0.52645
 H907 H -0.17613 0.31137 0.47018
 H908 H -0.14755 0.35832 0.47559
 H909 H -0.11316 0.36072 0.44753
 H910 H -0.07852 0.34094 0.42667
 H911 H -0.10579 0.26903 0.44683
 H912 H -0.14044 0.28872 0.46750
 C913 C 0.28403 0.87813 1.00739
 C914 C 0.30607 0.86445 1.00348
 C915 C 0.30818 0.84829 0.98506
 C916 C 0.28744 0.84544 0.97096
 C917 C 0.26542 0.85926 0.97477
 C918 C 0.26369 0.87698 0.99219
 C919 C 0.33266 0.83613 0.98018
 C920 C 0.33565 0.81500 0.96891
 C921 C 0.36037 0.80442 0.96231
 C922 C 0.36344 0.77882 0.95963
 C923 C 0.38610 0.76852 0.95187
 C924 C 0.40607 0.78369 0.94625
 C925 C 0.40302 0.80931 0.94918
 C926 C 0.38045 0.81958 0.95710
 H927 H 0.28326 0.88946 1.02247
 H928 H 0.32160 0.86654 1.01494
 H929 H 0.28836 0.83325 0.95647
 H930 H 0.24985 0.85683 0.96346
 H931 H 0.34882 0.84492 0.98644
 H932 H 0.31960 0.80478 0.96467
 H933 H 0.34821 0.76679 0.96341
 H934 H 0.38789 0.74867 0.95006
 H935 H 0.41776 0.82163 0.94447
 H936 H 0.37852 0.83949 0.95820
 C937 C 1.22360 0.86033 0.02518
 C938 C 1.20624 0.84379 0.03394
 C939 C 1.18512 0.83935 0.02106
 C940 C 1.18272 0.85025 -0.00161
 C941 C 1.20018 0.86671 -0.01045
 C942 C 1.22013 0.87338 0.00343
 C943 C 1.16601 0.82355 0.03198
 C944 C 1.14184 0.82641 0.02682
 C945 C 1.12195 0.81323 0.03974
 C946 C 1.09849 0.81270 0.02949
 C947 C 1.07870 0.80208 0.04169
 C948 C 1.08192 0.79183 0.06451
 C949 C 1.10543 0.79215 0.07472
 C950 C 1.12520 0.80280 0.06257
 H951 H 1.23942 0.86374 0.03585
 H952 H 1.20894 0.83504 0.05118
 H953 H 1.16750 0.84598 -0.01266
 H954 H 1.19784 0.87396 -0.02822
 H955 H 1.17205 0.81042 0.04577
 H956 H 1.13601 0.83967 0.01304
 H957 H 1.09541 0.82076 0.01202
 H958 H 1.06085 0.80194 0.03328
 H959 H 1.10836 0.78492 0.09248
 H960 H 1.14261 0.80354 0.07156
 C961 C 0.72847 0.34159 0.53917
 C962 C 0.70883 0.32799 0.54843
 C963 C 0.68575 0.33974 0.55299
 C964 C 0.68319 0.36560 0.54991
 C965 C 0.70277 0.37918 0.54091
 C966 C 0.72530 0.36732 0.53397
 C967 C 0.66469 0.32493 0.56133
 C968 C 0.64129 0.33123 0.55519
 C969 C 0.61944 0.31755 0.56347
 C970 C 0.59768 0.31992 0.55025
 C971 C 0.57607 0.30880 0.55823
 C972 C 0.57565 0.29531 0.57980
 C973 C 0.59755 0.29273 0.59294
 C974 C 0.61922 0.30372 0.58488
 H975 H 0.74600 0.33179 0.53620
 H976 H 0.71151 0.30816 0.55160
 H977 H 0.66604 0.37541 0.55448
 H978 H 0.70006 0.39909 0.53852
 H979 H 0.66875 0.30796 0.57159
 H980 H 0.63791 0.34684 0.54293
 H981 H 0.59736 0.33057 0.53374
 H982 H 0.55964 0.31089 0.54754
 H983 H 0.59774 0.28294 0.60987
 H984 H 0.63541 0.30211 0.59588
 C985 C 0.30127 0.11475 0.50310
 C986 C 0.32085 0.12784 0.51115
 C987 C 0.31983 0.15379 0.51022
 C988 C 0.29905 0.16642 0.50000
 C989 C 0.27938 0.15324 0.49176
 C990 C 0.27962 0.12712 0.49419
 C991 C 0.34027 0.16633 0.52136
 C992 C 0.34261 0.19092 0.52173
 C993 C 0.36198 0.20174 0.53580
 C994 C 0.37184 0.22447 0.52851
 C995 C 0.38999 0.23498 0.54180
 C996 C 0.39825 0.22309 0.56282
 C997 C 0.38812 0.20050 0.57018
 C998 C 0.37012 0.19004 0.55696
 H999 H 0.30264 0.09469 0.50446
 H1000 H 0.33670 0.11753 0.51862
 H1001 H 0.29758 0.18641 0.49852
 H1002 H 0.26418 0.16373 0.48351
 H1003 H 0.35405 0.15434 0.53029
 H1004 H 0.33048 0.20353 0.51159
 H1005 H 0.36561 0.23401 0.51245
 H1006 H 0.39729 0.25255 0.53583
 H1007 H 0.39423 0.19076 0.58618
 H1008 H 0.36233 0.17296 0.56361
 C1009 C 0.77793 0.62562 0.04590
 C1010 C 0.79490 0.64116 0.05520
 C1011 C 0.81133 0.65427 0.04062
 C1012 C 0.80934 0.65261 0.01623
 C1013 C 0.79222 0.63712 0.00693
 C1014 C 0.77743 0.62193 0.02162
 C1015 C 0.83068 0.66826 0.05190
 C1016 C 0.84726 0.68234 0.04049
 C1017 C 0.86775 0.69360 0.05272
 C1018 C 0.87776 0.71545 0.04323
 C1019 C 0.89741 0.72619 0.05424
 C1020 C 0.90757 0.71511 0.07487
 C1021 C 0.89786 0.69296 0.08406
 C1022 C 0.87827 0.68228 0.07310
 H1023 H 0.76528 0.61657 0.05796
 H1024 H 0.79537 0.64268 0.07402
 H1025 H 0.82114 0.66270 0.00414
 H1026 H 0.79114 0.63627 -0.01191
 H1027 H 0.83150 0.66641 0.07081
 H1028 H 0.84592 0.68615 0.02184
 H1029 H 0.87019 0.72435 0.02738
 H1030 H 0.90444 0.74330 0.04677
 H1031 H 0.90576 0.68356 0.09952
 H1032 H 0.87184 0.66485 0.08038
 C1033 C 0.73674 0.62752 0.97610
 C1034 C 0.71683 0.64218 0.96723
 C1035 C 0.69871 0.65228 0.98223
 C1036 C 0.70195 0.64880 1.00655
 C1037 C 0.72197 0.63421 1.01540
 C1038 C 0.73871 0.62175 1.00034
 C1039 C 0.67641 0.66499 0.97151
 C1040 C 0.65752 0.67561 0.98342
 C1041 C 0.63460 0.68543 0.97171
 C1042 C 0.62090 0.70530 0.98117
 C1043 C 0.59926 0.71491 0.97029
 C1044 C 0.59080 0.70462 0.94986
 C1045 C 0.60407 0.68415 0.94092
 C1046 C 0.62566 0.67463 0.95172
 H1047 H 0.75038 0.62063 0.96374
 H1048 H 0.71535 0.64523 0.94844
 H1049 H 0.68895 0.65665 1.01895
 H1050 H 0.72377 0.63169 1.03420
 H1051 H 0.67531 0.66496 0.95261
 H1052 H 0.65862 0.67764 1.00207
 H1053 H 0.62721 0.71367 0.99677
 H1054 H 0.58948 0.73074 0.97755
 H1055 H 0.59764 0.67533 0.92562
 H1056 H 0.63508 0.65857 0.94455
 C1057 C 0.22265 0.12202 0.45725
 C1058 C 0.20042 0.13442 0.45117
 C1059 C 0.18878 0.15121 0.46612
 C1060 C 0.20005 0.15539 0.48756
 C1061 C 0.22255 0.14301 0.49364
 C1062 C 0.23474 0.12654 0.47833
 C1063 C 0.16470 0.16289 0.45846
 C1064 C 0.15019 0.17848 0.47073
 C1065 C 0.12623 0.18860 0.46124
 C1066 C 0.11792 0.21281 0.46607
 C1067 C 0.09656 0.22340 0.45536
 C1068 C 0.08319 0.20985 0.43973
 C1069 C 0.09068 0.18516 0.43608
 C1070 C 0.11182 0.17457 0.44684
 H1071 H 0.22963 0.10826 0.44546
 H1072 H 0.19195 0.13032 0.43479
 H1073 H 0.19160 0.16785 0.49987
 H1074 H 0.23042 0.14610 0.51053
 H1075 H 0.15864 0.15830 0.44126
 H1076 H 0.15615 0.18492 0.48728
 H1077 H 0.12850 0.22384 0.47739
 H1078 H 0.09108 0.24247 0.45851
 H1079 H 0.08029 0.17411 0.42461
 H1080 H 0.11698 0.15545 0.44363
 C1081 C 0.60949 0.04733 0.73550
 C1082 C 0.59514 0.06843 0.72910
 C1083 C 0.56926 0.06809 0.72971
 C1084 C 0.55792 0.04597 0.73677
 C1085 C 0.57237 0.02471 0.74339
 C1086 C 0.59851 0.02525 0.74364
 C1087 C 0.55520 0.09135 0.72301
 C1088 C 0.53199 0.09249 0.71488
 C1089 C 0.52036 0.11611 0.70547
 C1090 C 0.50429 0.11575 0.68643
 C1091 C 0.49554 0.13790 0.67530
 C1092 C 0.50253 0.16085 0.68317
 C1093 C 0.51731 0.16118 0.70319
 C1094 C 0.52604 0.13906 0.71429
 H1095 H 0.62948 0.04833 0.73459
 H1096 H 0.60439 0.08512 0.72347
 H1097 H 0.53795 0.04503 0.73745
 H1098 H 0.56283 0.00798 0.74794
 H1099 H 0.56539 0.10819 0.72295
 H1100 H 0.52237 0.07562 0.71261
 H1101 H 0.49935 0.09830 0.67954
 H1102 H 0.48371 0.13706 0.66023
 H1103 H 0.52300 0.17853 0.70971
 H1104 H 0.53766 0.14000 0.72948
 C1105 C 1.11976 0.54268 0.26382
 C1106 C 1.10433 0.56344 0.25822
 C1107 C 1.09130 0.56538 0.23712
 C1108 C 1.09309 0.54535 0.22221
 C1109 C 1.10842 0.52454 0.22788
 C1110 C 1.12341 0.52351 0.24797
 C1111 C 1.07759 0.58912 0.23075
 C1112 C 1.06105 0.59190 0.21339
 C1113 C 1.04983 0.61617 0.20483
 C1114 C 1.02964 0.61614 0.18959
 C1115 C 1.01999 0.63823 0.17907
 C1116 C 1.03032 0.66094 0.18352
 C1117 C 1.04999 0.66118 0.19933
 C1118 C 1.05977 0.63905 0.20977
 H1119 H 1.12878 0.54194 0.28060
 H1120 H 1.10282 0.57826 0.27037
 H1121 H 1.08352 0.54581 0.20572
 H1122 H 1.10952 0.50958 0.21589
 H1123 H 1.08172 0.60488 0.24078
 H1124 H 1.05540 0.57577 0.20467
 H1125 H 1.02161 0.59887 0.18539
 H1126 H 1.00463 0.63751 0.16715
 H1127 H 1.05853 0.67839 0.20282
 H1128 H 1.07571 0.64005 0.22088
 C1129 C 0.88416 0.96474 0.25511
 C1130 C 0.89763 0.94352 0.24873
 C1131 C 0.91774 0.94503 0.23312
 C1132 C 0.92455 0.96857 0.22441
 C1133 C 0.91112 0.98995 0.23095
 C1134 C 0.89089 0.98859 0.24681
 C1135 C 0.92984 0.92137 0.22582
 C1136 C 0.94489 0.91899 0.20714
 C1137 C 0.95316 0.89443 0.19862
 C1138 C 0.97556 0.89204 0.18603
 C1139 C 0.98295 0.86945 0.17651
 C1140 C 0.96783 0.84893 0.17905
 C1141 C 0.94551 0.85129 0.19178
 C1142 C 0.93821 0.87375 0.20140
 H1143 H 0.86783 0.96200 0.26586
 H1144 H 0.89161 0.92565 0.25540
 H1145 H 0.93997 0.97073 0.21237
 H1146 H 0.91627 1.00770 0.22326
 H1147 H 0.92489 0.90478 0.23582
 H1148 H 0.95097 0.93518 0.19726
 H1149 H 0.98724 0.90776 0.18338
 H1150 H 1.00009 0.86826 0.16650
 H1151 H 0.93351 0.83578 0.19406
 H1152 H 0.92042 0.87501 0.21028
 C1153 C 0.41197 0.49529 0.74093
 C1154 C 0.42502 0.47489 0.73177
 C1155 C 0.41341 0.45243 0.72933
 C1156 C 0.38818 0.45108 0.73524
 C1157 C 0.37521 0.47129 0.74432
 C1158 C 0.38697 0.49356 0.74819
 C1159 C 0.42729 0.43124 0.71906
 C1160 C 0.42129 0.40770 0.72389
 C1161 C 0.43163 0.38622 0.71131
 C1162 C 0.41718 0.36532 0.71042
 C1163 C 0.42523 0.34506 0.69768
 C1164 C 0.44814 0.34510 0.68583
 C1165 C 0.46314 0.36557 0.68743
 C1166 C 0.45494 0.38603 0.70000
 H1167 H 0.42146 0.51243 0.74171
 H1168 H 0.44422 0.47670 0.72647
 H1169 H 0.37808 0.43466 0.73230
 H1170 H 0.35570 0.46958 0.74840
 H1171 H 0.44210 0.43536 0.70677
 H1172 H 0.40674 0.40394 0.73661
 H1173 H 0.39926 0.36490 0.71914
 H1174 H 0.41349 0.32935 0.69702
 H1175 H 0.48092 0.36598 0.67846
 H1176 H 0.46688 0.40153 0.70082
 C1177 C 0.37847 0.56244 0.75854
 C1178 C 0.39104 0.58224 0.76680
 C1179 C 0.41139 0.57814 0.78162
 C1180 C 0.41873 0.55359 0.78834
 C1181 C 0.40609 0.53372 0.78008
 C1182 C 0.38617 0.53766 0.76441
 C1183 C 0.42299 0.60001 0.79093
 C1184 C 0.44564 0.59953 0.80038
 C1185 C 0.45589 0.62136 0.81107
 C1186 C 0.47325 0.61742 0.82903
 C1187 C 0.48204 0.63738 0.84072
 C1188 C 0.47384 0.66179 0.83451
 C1189 C 0.45740 0.66584 0.81575
 C1190 C 0.44856 0.64587 0.80409
 H1191 H 0.36217 0.56685 0.74813
 H1192 H 0.38450 0.60095 0.76190
 H1193 H 0.43356 0.54955 0.80062
 H1194 H 0.41167 0.51511 0.78622
 H1195 H 0.41196 0.61720 0.79018
 H1196 H 0.45672 0.58239 0.80148
 H1197 H 0.47950 0.59878 0.83450
 H1198 H 0.49510 0.63370 0.85479
 H1199 H 0.45075 0.68442 0.81054
 H1200 H 0.43594 0.64976 0.78973
 C1201 C -0.12449 0.05744 0.26079
 C1202 C -0.11299 0.07814 0.26842
 C1203 C -0.08811 0.07660 0.27516
 C1204 C -0.07487 0.05368 0.27392
 C1205 C -0.08643 0.03282 0.26622
 C1206 C -0.11135 0.03448 0.25889
 C1207 C -0.07716 0.09937 0.28337
 C1208 C -0.05642 0.09964 0.29602
 C1209 C -0.04745 0.12256 0.30589
 C1210 C -0.03273 0.12041 0.32597
 C1211 C -0.02512 0.14152 0.33666
 C1212 C -0.03196 0.16535 0.32741
 C1213 C -0.04585 0.16751 0.30675
 C1214 C -0.05342 0.14639 0.29603
 H1215 H -0.14390 0.05933 0.25617
 H1216 H -0.12377 0.09543 0.26936
 H1217 H -0.05560 0.05164 0.27882
 H1218 H -0.07581 0.01543 0.26655
 H1219 H -0.08786 0.11653 0.28014
 H1220 H -0.04668 0.08239 0.30107
 H1221 H -0.02753 0.10232 0.33373
 H1222 H -0.01392 0.13918 0.35223
 H1223 H -0.05140 0.18556 0.29915
 H1224 H -0.06393 0.14889 0.28007
 C1225 C 0.12070 0.46028 0.24208
 C1226 C 0.10604 0.44025 0.24815
 C1227 C 0.09354 0.43884 0.26975
 C1228 C 0.09511 0.45856 0.28481
 C1229 C 0.10981 0.47860 0.27874
 C1230 C 0.12422 0.47909 0.25795
 C1231 C 0.08080 0.41577 0.27654
 C1232 C 0.06338 0.41412 0.29341
 C1233 C 0.05321 0.39023 0.30189
 C1234 C 0.02979 0.39024 0.31283
 C1235 C 0.02055 0.36831 0.32273
 C1236 C 0.03475 0.34595 0.32219
 C1237 C 0.05802 0.34585 0.31093
 C1238 C 0.06719 0.36772 0.30092
 H1239 H 0.12925 0.46071 0.22490
 H1240 H 0.10467 0.42563 0.23595
 H1241 H 0.08585 0.45825 0.30169
 H1242 H 0.11086 0.49334 0.29085
 H1243 H 0.08621 0.39942 0.26715
 H1244 H 0.05609 0.43074 0.30134
 H1245 H 0.01877 0.40736 0.31404
 H1246 H 0.00269 0.36900 0.33158
 H1247 H 0.06933 0.32888 0.31020
 H1248 H 0.08561 0.36701 0.29327
 C1249 C 0.60697 0.95578 0.75194
 C1250 C 0.59613 0.93510 0.76244
 C1251 C 0.58047 0.93729 0.78198
 C1252 C 0.57585 0.96087 0.79093
 C1253 C 0.58669 0.98171 0.78034
 C1254 C 0.60206 0.97974 0.76027
 C1255 C 0.57120 0.91417 0.79326
 C1256 C 0.55278 0.91312 0.80918
 C1257 C 0.54528 0.88932 0.82055
 C1258 C 0.52086 0.88704 0.82884
 C1259 C 0.51344 0.86484 0.83982
 C1260 C 0.53043 0.84457 0.84298
 C1261 C 0.55491 0.84696 0.83484
 C1262 C 0.56230 0.86907 0.82392
 H1263 H 0.61994 0.95243 0.73779
 H1264 H 0.60057 0.91709 0.75552
 H1265 H 0.56465 0.96330 0.80652
 H1266 H 0.58343 0.99948 0.78808
 H1267 H 0.57987 0.89699 0.78761
 H1268 H 0.54229 0.92980 0.81352
 H1269 H 0.50748 0.90246 0.82674
 H1270 H 0.49455 0.86370 0.84624
 H1271 H 0.56842 0.83167 0.83688
 H1272 H 0.58151 0.87031 0.81856
 C1273 C 0.72407 0.57955 0.03082
 C1274 C 0.71535 0.56405 0.04899
 C1275 C 0.73165 0.55297 0.06563
 C1276 C 0.75726 0.55570 0.06232
 C1277 C 0.76599 0.57115 0.04403
 C1278 C 0.74938 0.58504 0.02918
 C1279 C 0.72083 0.53998 0.08649
 C1280 C 0.73285 0.53519 0.10670
 C1281 C 0.71972 0.52733 0.12850
 C1282 C 0.73218 0.51223 0.14555
 C1283 C 0.72033 0.50558 0.16670
 C1284 C 0.69592 0.51431 0.17134
 C1285 C 0.68374 0.52988 0.15439
 C1286 C 0.69545 0.53627 0.13325
 H1287 H 0.71072 0.58746 0.01838
 H1288 H 0.69560 0.56141 0.05048
 H1289 H 0.77064 0.54635 0.07389
 H1290 H 0.78578 0.57328 0.04218
 H1291 H 0.70131 0.53619 0.08581
 H1292 H 0.75247 0.53807 0.10792
 H1293 H 0.75103 0.50544 0.14241
 H1294 H 0.73020 0.49346 0.17931
 H1295 H 0.66528 0.53764 0.15764
 H1296 H 0.68569 0.54887 0.12096
 C1297 C 0.23127 1.07644 0.50313
 C1298 C 0.22060 1.06283 0.52179
 C1299 C 0.22692 1.06688 0.54497
 C1300 C 0.24382 1.08520 0.54911
 C1301 C 0.25445 1.09875 0.53057
 C1302 C 0.24899 1.09427 0.50704
 C1303 C 0.21398 1.05353 0.56448
 C1304 C 0.22329 1.05058 0.58616
 C1305 C 0.20935 1.04057 0.60675
 C1306 C 0.21666 1.04687 0.62911
 C1307 C 0.20348 1.03899 0.64906
 C1308 C 0.18274 1.02441 0.64712
 C1309 C 0.17585 1.01743 0.62478
 C1310 C 0.18901 1.02538 0.60480
 H1311 H 0.22536 1.07334 0.48552
 H1312 H 0.20703 1.04936 0.51810
 H1313 H 0.24806 1.09011 0.56670
 H1314 H 0.26606 1.11356 0.53513
 H1315 H 0.19590 1.04681 0.56083
 H1316 H 0.24157 1.05702 0.58949
 H1317 H 0.23232 1.05846 0.63114
 H1318 H 0.20916 1.04487 0.66596
 H1319 H 0.16034 1.00567 0.62275
 H1320 H 0.18326 1.01938 0.58800
 C1321 C 0.20823 0.92020 0.97121
 C1322 C 0.20009 0.93251 0.95053
 C1323 C 0.21512 0.93268 0.93037
 C1324 C 0.23921 0.92191 0.93184
 C1325 C 0.24735 0.90960 0.95250
 C1326 C 0.23140 0.90709 0.97219
 C1327 C 0.20513 0.94413 0.90821
 C1328 C 0.21276 0.93678 0.88710
 C1329 C 0.20119 0.94594 0.86481
 C1330 C 0.20306 0.93080 0.84552
 C1331 C 0.19170 0.93817 0.82439
 C1332 C 0.17842 0.96102 0.82199
 C1333 C 0.17720 0.97658 0.84105
 C1334 C 0.18848 0.96915 0.86226
 H1335 H 0.19600 0.92012 0.98638
 H1336 H 0.18173 0.94139 0.95013
 H1337 H 0.25196 0.92313 0.91713
 H1338 H 0.26628 0.90233 0.95283
 H1339 H 0.18955 0.95728 0.90951
 H1340 H 0.22670 0.92188 0.88605
 H1341 H 0.21298 0.91297 0.84692
 H1342 H 0.19330 0.92596 0.80989
 H1343 H 0.16706 0.99428 0.83972
 H1344 H 0.18726 0.98167 0.87649
 C1345 C 0.71405 0.39252 0.48942
 C1346 C 0.70597 0.40560 0.46926
 C1347 C 0.71939 0.42513 0.45942
 C1348 C 0.74139 0.43134 0.47028
 C1349 C 0.74951 0.41818 0.49065
 C1350 C 0.73549 0.39911 0.50121
 C1351 C 0.70946 0.43792 0.43782
 C1352 C 0.72195 0.45325 0.42330
 C1353 C 0.71111 0.46317 0.40087
 C1354 C 0.72676 0.46807 0.38153
 C1355 C 0.71675 0.47451 0.35948
 C1356 C 0.69096 0.47604 0.35653
 C1357 C 0.67537 0.47271 0.37610
 C1358 C 0.68530 0.46669 0.39809
 H1359 H 0.70357 0.37674 0.49519
 H1360 H 0.68928 0.39996 0.46100
 H1361 H 0.75240 0.44622 0.46325
 H1362 H 0.76687 0.42290 0.49824
 H1363 H 0.69108 0.43295 0.43291
 H1364 H 0.74109 0.45690 0.42667
 H1365 H 0.74669 0.46587 0.38327
 H1366 H 0.72907 0.47717 0.34457
 H1367 H 0.65541 0.47438 0.37424
 H1368 H 0.67264 0.46438 0.41277
 C1369 C 0.74811 0.42442 0.54471
 C1370 C 0.75581 0.43719 0.56393
 C1371 C 0.76850 0.42465 0.58245
 C1372 C 0.77343 0.39902 0.58140
 C1373 C 0.76595 0.38633 0.56222
 C1374 C 0.75391 0.39883 0.54306
 C1375 C 0.77751 0.43875 0.60205
 C1376 C 0.78065 0.42855 0.62370
 C1377 C 0.79239 0.44111 0.64295
 C1378 C 0.78807 0.43253 0.66611
 C1379 C 0.80065 0.44220 0.68463
 C1380 C 0.81812 0.46043 0.68031
 C1381 C 0.82214 0.46937 0.65717
 C1382 C 0.80944 0.45983 0.63867
 H1383 H 0.73735 0.43472 0.53148
 H1384 H 0.75156 0.45692 0.56448
 H1385 H 0.78360 0.38874 0.59510
 H1386 H 0.77001 0.36655 0.56206
 H1387 H 0.78138 0.45804 0.59847
 H1388 H 0.77435 0.41006 0.62767
 H1389 H 0.77523 0.41796 0.66986
 H1390 H 0.79738 0.43476 0.70225
 H1391 H 0.83538 0.48355 0.65335
 H1392 H 0.81378 0.46650 0.62104
 C1393 C 0.26044 -0.06948 0.00946
 C1394 C 0.26552 -0.05290 0.02662
 C1395 C 0.25174 -0.05280 0.04754
 C1396 C 0.23100 -0.06759 0.04981
 C1397 C 0.22584 -0.08411 0.03260
 C1398 C 0.24182 -0.08689 0.01303
 C1399 C 0.26043 -0.03827 0.06695
 C1400 C 0.25762 -0.04577 0.08951
 C1401 C 0.27084 -0.03537 0.10920
 C1402 C 0.26318 -0.04166 0.13220
 C1403 C 0.27689 -0.03498 0.15135
 C1404 C 0.29873 -0.02202 0.14786
 C1405 C 0.30596 -0.01498 0.12492
 C1406 C 0.29228 -0.02163 0.10580
 H1407 H 0.27217 -0.06988 -0.00604
 H1408 H 0.28112 -0.04105 0.02407
 H1409 H 0.21891 -0.06671 0.06501
 H1410 H 0.20953 -0.09487 0.03507
 H1411 H 0.27164 -0.02267 0.06226
 H1412 H 0.24648 -0.06156 0.09385
 H1413 H 0.24688 -0.05241 0.13536
 H1414 H 0.27095 -0.04082 0.16882
 H1415 H 0.32255 -0.00469 0.12172
 H1416 H 0.29933 -0.01679 0.08851
 C1417 C 0.27424 0.07093 0.46610
 C1418 C 0.28358 0.05934 0.44621
 C1419 C 0.28939 0.07333 0.42575
 C1420 C 0.28734 0.09928 0.42613
 C1421 C 0.27787 0.11080 0.44578
 C1422 C 0.26996 0.09690 0.46579
 C1423 C 0.29798 0.06054 0.40451
 C1424 C 0.29533 0.07094 0.38287
 C1425 C 0.30451 0.05940 0.36126
 C1426 C 0.30993 0.07500 0.34178
 C1427 C 0.31852 0.06518 0.32089
 C1428 C 0.32151 0.03942 0.31884
 C1429 C 0.31570 0.02373 0.33828
 C1430 C 0.30731 0.03360 0.35930
 H1431 H 0.27049 0.05937 0.48152
 H1432 H 0.28595 0.03933 0.44670
 H1433 H 0.29311 0.11092 0.41135
 H1434 H 0.27603 0.13085 0.44519
 H1435 H 0.30638 0.04209 0.40689
 H1436 H 0.28656 0.08923 0.38059
 H1437 H 0.30786 0.09494 0.34282
 H1438 H 0.32323 0.07786 0.30649
 H1439 H 0.31733 0.00380 0.33716
 H1440 H 0.30258 0.02098 0.37374
 C1441 C 0.79806 0.58437 0.98994
 C1442 C 0.80861 0.57083 0.97183
 C1443 C 0.79364 0.55957 0.95588
 C1444 C 0.76784 0.56036 0.95967
 C1445 C 0.75730 0.57395 0.97775
 C1446 C 0.77208 0.58775 0.99216
 C1447 C 0.80575 0.54791 0.93542
 C1448 C 0.79378 0.54276 0.91589
 C1449 C 0.80674 0.53468 0.89438
 C1450 C 0.79405 0.52077 0.87858
 C1451 C 0.80515 0.51430 0.85735
 C1452 C 0.82901 0.52204 0.85134
 C1453 C 0.84173 0.53591 0.86716
 C1454 C 0.83075 0.54220 0.88843
 H1455 H 0.81047 0.59225 1.00199
 H1456 H 0.82862 0.56965 0.96998
 H1457 H 0.75558 0.55073 0.94876
 H1458 H 0.73734 0.57449 0.97996
 H1459 H 0.82569 0.54491 0.93600
 H1460 H 0.77384 0.54512 0.91503
 H1461 H 0.77543 0.51506 0.88261
 H1462 H 0.79484 0.50379 0.84537
 H1463 H 0.86021 0.54199 0.86303
 H1464 H 0.84082 0.55361 0.89977
 C1465 C 0.00979 0.71985 0.57344
 C1466 C 0.02892 0.70960 0.55974
 C1467 C 0.05339 0.71677 0.56212
 C1468 C 0.05840 0.73409 0.57881
 C1469 C 0.03938 0.74424 0.59255
 C1470 C 0.01447 0.73785 0.58980
 C1471 C 0.07357 0.70415 0.54874
 C1472 C 0.09545 0.71434 0.54397
 C1473 C 0.11731 0.70092 0.53376
 C1474 C 0.14074 0.71093 0.53594
 C1475 C 0.16219 0.69815 0.52835
 C1476 C 0.16068 0.67505 0.51833
 C1477 C 0.13719 0.66548 0.51521
 C1478 C 0.11573 0.67828 0.52273
 H1479 H -0.00878 0.71343 0.57156
 H1480 H 0.02464 0.69573 0.54748
 H1481 H 0.07719 0.73903 0.58223
 H1482 H 0.04475 0.75626 0.60602
 H1483 H 0.07023 0.68565 0.54349
 H1484 H 0.09812 0.73313 0.54890
 H1485 H 0.14255 0.72839 0.54422
 H1486 H 0.18002 0.70595 0.53109
 H1487 H 0.13543 0.64798 0.50701
 H1488 H 0.09811 0.67021 0.51986
 C1489 C 0.55962 0.23819 1.11907
 C1490 C 0.57969 0.22776 1.10698
 C1491 C 0.58049 0.22887 1.08247
 C1492 C 0.56119 0.24198 1.07029
 C1493 C 0.54100 0.25264 1.08249
 C1494 C 0.53920 0.24973 1.10713
 C1495 C 0.60101 0.21470 1.07090
 C1496 C 0.60587 0.21510 1.04782
 C1497 C 0.62556 0.19860 1.03781
 C1498 C 0.63875 0.20649 1.01771
 C1499 C 0.65770 0.19128 1.00835
 C1500 C 0.66350 0.16768 1.01871
 C1501 C 0.64983 0.15961 1.03846
 C1502 C 0.63104 0.17479 1.04784
 H1503 H 0.55945 0.23626 1.13801
 H1504 H 0.59439 0.21814 1.11692
 H1505 H 0.56119 0.24366 1.05140
 H1506 H 0.52690 0.26284 1.07240
 H1507 H 0.61279 0.20297 1.08233
 H1508 H 0.59594 0.22801 1.03598
 H1509 H 0.63464 0.22460 1.00946
 H1510 H 0.66770 0.19789 0.99293
 H1511 H 0.65391 0.14163 1.04697
 H1512 H 0.62071 0.16770 1.06284
 C1513 C 0.99402 0.20529 0.91658
 C1514 C 0.97397 0.19475 0.92851
 C1515 C 0.94956 0.20302 0.92351
 C1516 C 0.94571 0.22267 0.90686
 C1517 C 0.96565 0.23304 0.89481
 C1518 C 0.99037 0.22496 0.89971
 C1519 C 0.92861 0.19054 0.93556
 C1520 C 0.90596 0.19014 0.92613
 C1521 C 0.88466 0.17704 0.93678
 C1522 C 0.86428 0.17341 0.92251
 C1523 C 0.84369 0.16119 0.93135
 C1524 C 0.84286 0.15227 0.95479
 C1525 C 0.86301 0.15627 0.96930
 C1526 C 0.88371 0.16856 0.96043
 H1527 H 1.01254 0.19777 0.92025
 H1528 H 0.97752 0.17959 0.94121
 H1529 H 0.92727 0.23008 0.90281
 H1530 H 0.96126 0.24687 0.88113
 H1531 H 0.93258 0.18020 0.95179
 H1532 H 0.90295 0.19878 0.90892
 H1533 H 0.86430 0.17997 0.90433
 H1534 H 0.82827 0.15889 0.91982
 H1535 H 0.86294 0.14958 0.98743
 H1536 H 0.89869 0.17147 0.97223
 C1537 C 0.45394 0.75599 0.37629
 C1538 C 0.43366 0.74740 0.38909
 C1539 C 0.43681 0.72910 0.40697
 C1540 C 0.46091 0.71989 0.41231
 C1541 C 0.48137 0.72880 0.39972
 C1542 C 0.47842 0.74738 0.38167
 C1543 C 0.41440 0.72007 0.41928
 C1544 C 0.41245 0.69665 0.42767
 C1545 C 0.38925 0.68659 0.43787
 C1546 C 0.39073 0.66365 0.45038
 C1547 C 0.36940 0.65292 0.45962
 C1548 C 0.34595 0.66485 0.45650
 C1549 C 0.34438 0.68776 0.44390
 C1550 C 0.36571 0.69848 0.43462
 H1551 H 0.44995 0.76883 0.36169
 H1552 H 0.41524 0.75451 0.38441
 H1553 H 0.46405 0.70593 0.42622
 H1554 H 0.49966 0.72101 0.40393
 H1555 H 0.39865 0.73302 0.42001
 H1556 H 0.42840 0.68391 0.42657
 H1557 H 0.40849 0.65388 0.45293
 H1558 H 0.37126 0.63502 0.46883
 H1559 H 0.32663 0.69749 0.44129
 H1560 H 0.36337 0.71579 0.42457
 C1561 C 0.54468 0.77076 0.36863
 C1562 C 0.56386 0.78180 0.37977
 C1563 C 0.56184 0.78716 0.40344
 C1564 C 0.54006 0.78120 0.41583
 C1565 C 0.52063 0.77024 0.40459
 C1566 C 0.52270 0.76450 0.38075
 C1567 C 0.58204 0.80067 0.41378
 C1568 C 0.58692 0.80041 0.43672
 C1569 C 0.60748 0.81435 0.44594
 C1570 C 0.62030 0.80495 0.46583
 C1571 C 0.64020 0.81751 0.47443
 C1572 C 0.64735 0.83997 0.46351
 C1573 C 0.63409 0.84966 0.44396
 C1574 C 0.61437 0.83704 0.43529
 H1575 H 0.54678 0.76743 0.35016
 H1576 H 0.58027 0.78652 0.36970
 H1577 H 0.53748 0.78596 0.43390
 H1578 H 0.50376 0.76734 0.41450
 H1579 H 0.59411 0.81051 0.40165
 H1580 H 0.57666 0.78870 0.44889
 H1581 H 0.61516 0.78766 0.47449
 H1582 H 0.64987 0.80979 0.48972
 H1583 H 0.63920 0.86687 0.43513
 H1584 H 0.60443 0.84523 0.42035
 C1585 C 0.05666 0.24873 -0.11197
 C1586 C 0.07666 0.25702 -0.09981
 C1587 C 0.07500 0.26012 -0.07567
 C1588 C 0.05275 0.25458 -0.06385
 C1589 C 0.03263 0.24614 -0.07606
 C1590 C 0.03445 0.24236 -0.10032
 C1591 C 0.09696 0.26919 -0.06385
 C1592 C 0.09607 0.28044 -0.04341
 C1593 C 0.11801 0.29185 -0.03367
 C1594 C 0.11434 0.31242 -0.01975
 C1595 C 0.13456 0.32498 -0.01193
 C1596 C 0.15894 0.31708 -0.01770
 C1597 C 0.16264 0.29571 -0.03061
 C1598 C 0.14242 0.28316 -0.03844
 H1599 H 0.05857 0.24704 -0.13071
 H1600 H 0.09345 0.26136 -0.10944
 H1601 H 0.05074 0.25661 -0.04519
 H1602 H 0.01564 0.24310 -0.06637
 H1603 H 0.11432 0.26824 -0.07352
 H1604 H 0.07844 0.28358 -0.03462
 H1605 H 0.09575 0.31927 -0.01552
 H1606 H 0.13110 0.34107 -0.00158
 H1607 H 0.18117 0.28912 -0.03533
 H1608 H 0.14602 0.26681 -0.04838
 C1609 C 0.48304 0.29360 0.11294
 C1610 C 0.46153 0.30256 0.10179
 C1611 C 0.45035 0.28898 0.08488
 C1612 C 0.46141 0.26599 0.07914
 C1613 C 0.48312 0.25691 0.09039
 C1614 C 0.49478 0.27073 0.10724
 C1615 C 0.42650 0.29921 0.07517
 C1616 C 0.41529 0.29154 0.05613
 C1617 C 0.39145 0.30327 0.04768
 C1618 C 0.37504 0.28939 0.03524
 C1619 C 0.35193 0.29975 0.02817
 C1620 C 0.34487 0.32419 0.03348
 C1621 C 0.36168 0.33836 0.04505
 C1622 C 0.38476 0.32816 0.05185
 H1623 H 0.48947 0.30445 0.12687
 H1624 H 0.45318 0.32009 0.10697
 H1625 H 0.45300 0.25452 0.06671
 H1626 H 0.49056 0.23866 0.08637
 H1627 H 0.41766 0.31411 0.08465
 H1628 H 0.42315 0.27606 0.04682
 H1629 H 0.37987 0.27032 0.03146
 H1630 H 0.33934 0.28850 0.01910
 H1631 H 0.35701 0.35749 0.04871
 H1632 H 0.39732 0.33998 0.06023
 C1633 C 0.94948 0.76564 0.60714
 C1634 C 0.92887 0.77784 0.59689
 C1635 C 0.92814 0.78286 0.57271
 C1636 C 0.94863 0.77560 0.55887
 C1637 C 0.96954 0.76360 0.56918
 C1638 C 0.97019 0.75792 0.59356
 C1639 C 0.90651 0.79737 0.56303
 C1640 C 0.89845 0.79605 0.54107
 C1641 C 0.87620 0.81068 0.53284
 C1642 C 0.85973 0.80041 0.51755
 C1643 C 0.83767 0.81335 0.51107
 C1644 C 0.83190 0.83695 0.51957
 C1645 C 0.84912 0.84768 0.53387
 C1646 C 0.87097 0.83472 0.54045
 H1647 H 0.94947 0.76244 0.62597
 H1648 H 0.91348 0.78362 0.60800
 H1649 H 0.94902 0.78012 0.54024
 H1650 H 0.98535 0.75975 0.55798
 H1651 H 0.89599 0.80878 0.57506
 H1652 H 0.90712 0.78285 0.52951
 H1653 H 0.86352 0.78201 0.51128
 H1654 H 0.82481 0.80458 0.50002
 H1655 H 0.84566 0.86615 0.54007
 H1656 H 0.88377 0.84353 0.55153
   
