data_POSCAR
  _audit_creation_date              2014-09-24
  _audit_creation_method            'ToBaCCo'
  _symmetry_space_group_name_H-M    'P1'
  _symmetry_Int_Tables_number       1
  _symmetry_cell_setting            triclinic
  loop_
  _symmetry_equiv_pos_as_xyz
 x,y,z
_cell_length_a 68.1425
_cell_length_b 68.1083
_cell_length_c 67.9674
_cell_angle_alpha 89.951200
_cell_angle_beta 89.995100
_cell_angle_gamma 89.973200
loop_
  _atom_site_label
  _atom_site_type_symbol
  _atom_site_fract_x
  _atom_site_fract_y
  _atom_site_fract_z
N1 N 0.35899 1.34626 0.30510
 N2 N 0.34533 1.35986 0.30528
 C3 C 0.34851 1.37239 0.29025
 C4 C 0.36515 1.36633 0.28003
 C5 C 0.37130 1.34961 0.29001
 H6 H 0.33943 1.38502 0.28717
 H7 H 0.38388 1.34053 0.28675
 Cu8 Cu 0.32501 1.36002 0.32545
 Cu9 Cu 0.36019 1.32540 0.32468
 Cu10 Cu 0.32422 1.32536 0.36072
 N11 N 0.30486 1.35981 0.34580
 N12 N 0.30467 1.34620 0.35950
 C13 C 0.28958 1.34953 0.37180
 C14 C 0.27962 1.36623 0.36560
 C15 C 0.28985 1.37231 0.34895
 H16 H 0.28630 1.34045 0.38441
 H17 H 0.28677 1.38493 0.33982
 N18 N 0.34526 1.30552 0.35946
 N19 N 0.35894 1.30555 0.34574
 C20 C 0.37131 1.29047 0.34902
 C21 C 0.36519 1.28041 0.36566
 C22 C 0.34858 1.29043 0.37184
 H23 H 0.38395 1.28720 0.34002
 H24 H 0.33963 1.28710 0.38452
 H25 H 0.33054 1.32508 0.33102
 H26 H 0.34636 1.34082 0.34690
 N27 N 0.35961 0.84638 0.80594
 N28 N 0.34507 0.85901 0.80512
 C29 C 0.34811 0.87136 0.78994
 C30 C 0.36551 0.86618 0.78068
 C31 C 0.37235 0.85021 0.79132
 H32 H 0.33836 0.88324 0.78598
 H33 H 0.38561 0.84192 0.78870
 Cu34 Cu 0.32371 0.85847 0.82413
 Cu35 Cu 0.36082 0.82567 0.82557
 Cu36 Cu 0.32160 0.82211 0.85776
 N37 N 0.30485 0.85880 0.84566
 N38 N 0.30408 0.84461 0.85872
 C39 C 0.28948 0.84830 0.87151
 C40 C 0.28054 0.86585 0.86628
 C41 C 0.29079 0.87208 0.84976
 H42 H 0.28562 0.83874 0.88361
 H43 H 0.28819 0.88523 0.84125
 N44 N 0.34413 0.80401 0.85836
 N45 N 0.35922 0.80560 0.84633
 C46 C 0.37231 0.79141 0.85059
 C47 C 0.36518 0.78031 0.86613
 C48 C 0.34725 0.78882 0.87066
 H49 H 0.38605 0.78937 0.84294
 H50 H 0.33717 0.78434 0.88208
 H51 H 0.33109 0.82346 0.82855
 H52 H 0.34374 0.83951 0.84687
 N53 N 0.85956 1.34608 0.80494
 N54 N 0.84603 1.35981 0.80525
 C55 C 0.84918 1.37230 0.79019
 C56 C 0.86566 1.36610 0.77982
 C57 C 0.87176 1.34932 0.78973
 H58 H 0.84018 1.38500 0.78718
 H59 H 0.88423 1.34012 0.78637
 Cu60 Cu 0.82590 1.36014 0.82560
 Cu61 Cu 0.86073 1.32520 0.82450
 Cu62 Cu 0.82469 1.32514 0.86049
 N63 N 0.80553 1.35975 0.84571
 N64 N 0.80517 1.34599 0.85926
 C65 C 0.78995 1.34922 0.87143
 C66 C 0.78013 1.36597 0.86527
 C67 C 0.79049 1.37222 0.84883
 H68 H 0.78646 1.34007 0.88394
 H69 H 0.78745 1.38498 0.83988
 N70 N 0.84572 1.30530 0.85924
 N71 N 0.85943 1.30533 0.84554
 C72 C 0.87180 1.29026 0.84886
 C73 C 0.86564 1.28020 0.86548
 C74 C 0.84901 1.29021 0.87162
 H75 H 0.88446 1.28700 0.83989
 H76 H 0.84003 1.28690 0.88428
 H77 H 0.83105 1.32511 0.83077
 H78 H 0.84703 1.34051 0.84688
 N79 N 0.85968 0.84612 0.30509
 N80 N 0.84587 0.85956 0.30510
 C81 C 0.84911 0.87215 0.29015
 C82 C 0.86592 0.86629 0.28011
 C83 C 0.87214 0.84962 0.29015
 H84 H 0.83990 0.88466 0.28696
 H85 H 0.88485 0.84067 0.28703
 Cu86 Cu 0.82512 0.85946 0.32482
 Cu87 Cu 0.86081 0.82526 0.32463
 Cu88 Cu 0.82489 0.82526 0.36066
 N89 N 0.80541 0.85952 0.34559
 N90 N 0.80540 0.84611 0.35949
 C91 C 0.79046 0.84962 0.37193
 C92 C 0.78046 0.86620 0.36558
 C93 C 0.79044 0.87206 0.34877
 H94 H 0.78727 0.84078 0.38473
 H95 H 0.78714 0.88455 0.33954
 N96 N 0.84587 0.80538 0.35938
 N97 N 0.85953 0.80538 0.34564
 C98 C 0.87184 0.79025 0.34888
 C99 C 0.86569 0.78018 0.36550
 C100 C 0.84913 0.79025 0.37172
 H101 H 0.88446 0.78695 0.33985
 H102 H 0.84016 0.78694 0.38439
 H103 H 0.83114 0.82467 0.33093
 H104 H 0.84676 0.84094 0.34656
 N105 N 0.64069 0.65440 0.30536
 N106 N 0.65461 0.64107 0.30528
 C107 C 0.65142 0.62853 0.29030
 C108 C 0.63456 0.63431 0.28041
 C109 C 0.62820 0.65084 0.29046
 H110 H 0.66064 0.61607 0.28696
 H111 H 0.61535 0.65960 0.28736
 Cu112 Cu 0.67539 0.64116 0.32495
 Cu113 Cu 0.63948 0.67516 0.32495
 Cu114 Cu 0.67543 0.67515 0.36094
 N115 N 0.69505 0.64106 0.34574
 N116 N 0.69499 0.65437 0.35970
 C117 C 0.70990 0.65080 0.37217
 C118 C 0.71993 0.63428 0.36576
 C119 C 0.71002 0.62852 0.34889
 H120 H 0.71304 0.65955 0.38504
 H121 H 0.71335 0.61608 0.33963
 N122 N 0.65439 0.69495 0.35972
 N123 N 0.64071 0.69495 0.34601
 C124 C 0.62835 0.71002 0.34929
 C125 C 0.63448 0.72006 0.36592
 C126 C 0.65109 0.71003 0.37209
 H127 H 0.61572 0.71331 0.34028
 H128 H 0.66007 0.71333 0.38475
 H129 H 0.66915 0.67589 0.33122
 H130 H 0.65366 0.65941 0.34679
 N131 N 0.64032 0.15408 0.80488
 N132 N 0.65414 0.14064 0.80490
 C133 C 0.65091 0.12807 0.78995
 C134 C 0.63411 0.13394 0.77991
 C135 C 0.62787 0.15058 0.78994
 H136 H 0.66012 0.11555 0.78678
 H137 H 0.61514 0.15951 0.78683
 Cu138 Cu 0.67489 0.14072 0.82462
 Cu139 Cu 0.63919 0.17492 0.82442
 Cu140 Cu 0.67513 0.17488 0.86042
 N141 N 0.69462 0.14064 0.84537
 N142 N 0.69463 0.15404 0.85925
 C143 C 0.70957 0.15052 0.87170
 C144 C 0.71957 0.13396 0.86537
 C145 C 0.70959 0.12810 0.84856
 H146 H 0.71276 0.15936 0.88449
 H147 H 0.71289 0.11560 0.83936
 N148 N 0.65417 0.19476 0.85915
 N149 N 0.64048 0.19479 0.84544
 C150 C 0.62817 0.20991 0.84871
 C151 C 0.63435 0.21995 0.86532
 C152 C 0.65093 0.20987 0.87150
 H153 H 0.61554 0.21324 0.83971
 H154 H 0.65992 0.21315 0.88416
 H155 H 0.66885 0.17551 0.83068
 H156 H 0.65325 0.15921 0.84634
 N157 N 1.14066 0.65422 0.80526
 N158 N 1.15414 0.64043 0.80567
 C159 C 1.15100 0.62792 0.79066
 C160 C 1.13461 0.63417 0.78026
 C161 C 1.12850 0.65096 0.79003
 H162 H 1.15990 0.61515 0.78765
 H163 H 1.11604 0.66012 0.78650
 Cu164 Cu 1.17422 0.64005 0.82604
 Cu165 Cu 1.13951 0.67512 0.82474
 Cu166 Cu 1.17550 0.67515 0.86078
 N167 N 1.19458 0.64047 0.84614
 N168 N 1.19497 0.65426 0.85963
 C169 C 1.21020 0.65102 0.87180
 C170 C 1.21998 0.63424 0.86568
 C171 C 1.20959 0.62798 0.84928
 H172 H 1.21373 0.66019 0.88427
 H173 H 1.21260 0.61521 0.84037
 N174 N 1.15452 0.69503 0.85944
 N175 N 1.14083 0.69501 0.84573
 C176 C 1.12848 0.71010 0.84899
 C177 C 1.13462 0.72015 0.86561
 C178 C 1.15123 0.71012 0.87179
 H179 H 1.11582 0.71336 0.84001
 H180 H 1.16019 0.71341 0.88447
 H181 H 1.16919 0.67512 0.83104
 H182 H 1.15312 0.65982 0.84720
 N183 N 1.14066 0.15417 0.30522
 N184 N 1.15417 0.14042 0.30559
 C185 C 1.15104 0.12792 0.29057
 C186 C 1.13463 0.13416 0.28019
 C187 C 1.12850 0.15092 0.28999
 H188 H 1.15995 0.11516 0.28755
 H189 H 1.11602 0.16006 0.28648
 Cu190 Cu 1.17424 0.14004 0.32597
 Cu191 Cu 1.13947 0.17504 0.32474
 Cu192 Cu 1.17544 0.17505 0.36079
 N193 N 1.19458 0.14043 0.34607
 N194 N 1.19494 0.15419 0.35960
 C195 C 1.21016 0.15094 0.37178
 C196 C 1.21996 0.13419 0.36563
 C197 C 1.20960 0.12795 0.34920
 H198 H 1.21367 0.16008 0.38427
 H199 H 1.21262 0.11520 0.34027
 N200 N 1.15443 0.19489 0.35948
 N201 N 1.14075 0.19488 0.34576
 C202 C 1.12837 0.20994 0.34905
 C203 C 1.13450 0.21997 0.36569
 C204 C 1.15111 0.20995 0.37186
 H205 H 1.11572 0.21321 0.34006
 H206 H 1.16007 0.21323 0.38454
 H207 H 1.16914 0.17508 0.33105
 H208 H 1.15310 0.15970 0.34716
 N209 N 0.64069 1.34577 0.69468
 N210 N 0.65420 1.35951 0.69430
 C211 C 0.65107 1.37201 0.70933
 C212 C 0.63465 1.36580 0.71970
 C213 C 0.62852 1.34904 0.70990
 H214 H 0.65998 1.38476 0.71235
 H215 H 0.61604 1.33991 0.71341
 Cu216 Cu 0.67429 1.35986 0.67394
 Cu217 Cu 0.63951 1.32491 0.67515
 Cu218 Cu 0.67549 1.32486 0.63910
 N219 N 0.69463 1.35946 0.65383
 N220 N 0.69500 1.34571 0.64029
 C221 C 0.71022 1.34895 0.62812
 C222 C 0.72002 1.36570 0.63429
 C223 C 0.70965 1.37193 0.65071
 H224 H 0.71374 1.33981 0.61563
 H225 H 0.71268 1.38468 0.65965
 N226 N 0.65447 1.30504 0.64040
 N227 N 0.64079 1.30506 0.65413
 C228 C 0.62841 1.29001 0.65084
 C229 C 0.63454 1.27998 0.63420
 C230 C 0.65115 1.28998 0.62803
 H231 H 0.61576 1.28676 0.65983
 H232 H 0.66010 1.28669 0.61534
 H233 H 0.66918 1.32482 0.66883
 H234 H 0.65315 1.34022 0.65273
 N235 N 0.64061 0.84571 1.19467
 N236 N 0.65414 0.85944 1.19432
 C237 C 0.65100 0.87193 1.20935
 C238 C 0.63456 0.86572 1.21970
 C239 C 0.62843 0.84898 1.20988
 H240 H 0.65992 0.88467 1.21238
 H241 H 0.61592 0.83987 1.21336
 Cu242 Cu 0.67423 0.85980 1.17396
 Cu243 Cu 0.63942 0.82488 1.17512
 Cu244 Cu 0.67540 0.82486 1.13907
 N245 N 0.69457 0.85941 1.15386
 N246 N 0.69492 0.84570 1.14029
 C247 C 0.71014 0.84896 1.12812
 C248 C 0.71995 0.86568 1.13431
 C249 C 0.70959 0.87188 1.15076
 H250 H 0.71364 0.83985 1.11559
 H251 H 0.71262 0.88461 1.15973
 N252 N 0.65437 0.80505 1.14035
 N253 N 0.64070 0.80505 1.15408
 C254 C 0.62832 0.79001 1.15079
 C255 C 0.63444 0.77998 1.13414
 C256 C 0.65106 0.78998 1.12797
 H257 H 0.61568 0.78675 1.15979
 H258 H 0.66001 0.78670 1.11528
 H259 H 0.66910 0.82478 1.16880
 H260 H 0.65308 0.84022 1.15272
 N261 N 1.14078 1.34556 1.19464
 N262 N 1.15470 1.35888 1.19471
 C263 C 1.15151 1.37142 1.20968
 C264 C 1.13465 1.36566 1.21958
 C265 C 1.12829 1.34913 1.20953
 H266 H 1.16073 1.38387 1.21302
 H267 H 1.11544 1.34038 1.21265
 Cu268 Cu 1.17548 1.35878 1.17504
 Cu269 Cu 1.13957 1.32480 1.17505
 Cu270 Cu 1.17549 1.32480 1.13903
 N271 N 1.19511 1.35888 1.15422
 N272 N 1.19504 1.34557 1.14025
 C273 C 1.20993 1.34915 1.12776
 C274 C 1.21995 1.36566 1.13417
 C275 C 1.21006 1.37141 1.15106
 H276 H 1.21306 1.34041 1.11489
 H277 H 1.21338 1.38385 1.16032
 N278 N 1.15447 1.30500 1.14027
 N279 N 1.14080 1.30501 1.15400
 C280 C 1.12844 1.28994 1.15073
 C281 C 1.13457 1.27991 1.13409
 C282 C 1.15117 1.28993 1.12790
 H283 H 1.11582 1.28666 1.15974
 H284 H 1.16014 1.28663 1.11523
 H285 H 1.16924 1.32406 1.16876
 H286 H 1.15373 1.34055 1.15321
 N287 N 1.14059 0.84563 0.69459
 N288 N 1.15409 0.85938 0.69422
 C289 C 1.15094 0.87188 0.70924
 C290 C 1.13453 0.86566 0.71961
 C291 C 1.12841 0.84889 0.70981
 H292 H 1.15985 0.88463 0.71226
 H293 H 1.11593 0.83976 0.71331
 Cu294 Cu 1.17418 0.85974 0.67386
 Cu295 Cu 1.13943 0.82477 0.67507
 Cu296 Cu 1.17541 0.82475 0.63901
 N297 N 1.19452 0.85936 0.65375
 N298 N 1.19490 0.84562 0.64021
 C299 C 1.21012 0.84888 0.62804
 C300 C 1.21991 0.86563 0.63421
 C301 C 1.20953 0.87185 0.65064
 H302 H 1.21364 0.83976 0.61554
 H303 H 1.21254 0.88459 0.65959
 N304 N 1.15441 0.80491 0.64032
 N305 N 1.14073 0.80492 0.65404
 C306 C 1.12837 0.78985 0.65076
 C307 C 1.13451 0.77982 0.63412
 C308 C 1.15111 0.78984 0.62794
 H309 H 1.11572 0.78659 0.65975
 H310 H 1.16007 0.78655 0.61526
 H311 H 1.16910 0.82471 0.66874
 H312 H 1.15306 0.84009 0.65264
 N313 N 0.35936 0.65409 0.69443
 N314 N 0.34538 0.64081 0.69457
 C315 C 0.34835 0.62847 0.70977
 C316 C 0.36515 0.63430 0.71973
 C317 C 0.37167 0.65067 0.70950
 H318 H 0.33908 0.61607 0.71317
 H319 H 0.38447 0.65948 0.71265
 Cu320 Cu 0.32524 0.64076 0.67427
 Cu321 Cu 0.36070 0.67487 0.67476
 Cu322 Cu 0.32169 0.67791 0.64206
 N323 N 0.30499 0.64103 0.65408
 N324 N 0.30379 0.65558 0.64142
 C325 C 0.28873 0.65224 0.62907
 C326 C 0.27997 0.63457 0.63417
 C327 C 0.29075 0.62791 0.65017
 H328 H 0.28452 0.66204 0.61730
 H329 H 0.28853 0.61446 0.65829
 N330 N 0.34411 0.69623 0.64161
 N331 N 0.35906 0.69488 0.65387
 C332 C 0.37210 0.70909 0.64964
 C333 C 0.36512 0.71999 0.63390
 C334 C 0.34731 0.71133 0.62920
 H335 H 0.38574 0.71125 0.65743
 H336 H 0.33739 0.71561 0.61757
 H337 H 0.33099 0.67604 0.67122
 H338 H 0.34464 0.66130 0.65254
 N339 N 0.35915 0.15434 1.19464
 N340 N 0.34523 0.14102 1.19473
 C341 C 0.34842 0.12847 1.20972
 C342 C 0.36529 0.13423 1.21960
 C343 C 0.37164 0.15076 1.20954
 H344 H 0.33921 0.11601 1.21307
 H345 H 0.38449 0.15950 1.21264
 Cu346 Cu 0.32446 0.14115 1.17505
 Cu347 Cu 0.36038 0.17511 1.17504
 Cu348 Cu 0.32448 0.17516 1.13901
 N349 N 0.30483 0.14108 1.15423
 N350 N 0.30492 0.15440 1.14025
 C351 C 0.29004 0.15083 1.12775
 C352 C 0.28000 0.13432 1.13417
 C353 C 0.28988 0.12855 1.15107
 H354 H 0.28692 0.15959 1.11487
 H355 H 0.28654 0.11611 1.16034
 N356 N 0.34551 0.19494 1.14024
 N357 N 0.35917 0.19491 1.15398
 C358 C 0.37154 0.20997 1.15071
 C359 C 0.36544 0.22002 1.13406
 C360 C 0.34884 0.21003 1.12786
 H361 H 0.38416 0.21323 1.15974
 H362 H 0.33989 0.21335 1.11518
 H363 H 0.33071 0.17587 1.16873
 H364 H 0.34621 0.15938 1.15321
 N365 N 0.85922 0.65421 1.19469
 N366 N 0.84556 0.64061 1.19451
 C367 C 0.84875 0.62808 1.20952
 C368 C 0.86535 0.63413 1.21968
 C369 C 0.87154 0.65082 1.20978
 H370 H 0.83975 0.61541 1.21267
 H371 H 0.88416 0.65980 1.21311
 Cu372 Cu 0.82525 0.64045 1.17437
 Cu373 Cu 0.86042 0.67504 1.17511
 Cu374 Cu 0.82446 0.67507 1.13906
 N375 N 0.80513 0.64066 1.15404
 N376 N 0.80492 0.65425 1.14031
 C377 C 0.78982 0.65087 1.12803
 C378 C 0.77995 0.63421 1.13431
 C379 C 0.79014 0.62815 1.15092
 H380 H 0.78645 0.65985 1.11536
 H381 H 0.78701 0.61551 1.16000
 N382 N 0.84549 0.69488 1.14031
 N383 N 0.85916 0.69486 1.15404
 C384 C 0.87153 0.70991 1.15075
 C385 C 0.86541 0.71996 1.13410
 C386 C 0.84881 0.70996 1.12792
 H387 H 0.88416 0.71318 1.15976
 H388 H 0.83986 0.71327 1.11524
 H389 H 0.83077 0.67538 1.16876
 H390 H 0.84660 0.65960 1.15289
 N391 N 0.85951 0.15374 0.69402
 N392 N 0.84497 0.14112 0.69486
 C393 C 0.84802 0.12878 0.71005
 C394 C 0.86541 0.13396 0.71930
 C395 C 0.87225 0.14991 0.70864
 H396 H 0.83828 0.11691 0.71402
 H397 H 0.88551 0.15820 0.71124
 Cu398 Cu 0.82361 0.14165 0.67583
 Cu399 Cu 0.86072 0.17442 0.67437
 Cu400 Cu 0.82151 0.17800 0.64217
 N401 N 0.80474 0.14134 0.65432
 N402 N 0.80398 0.15552 0.64124
 C403 C 0.78937 0.15184 0.62845
 C404 C 0.78043 0.13430 0.63371
 C405 C 0.79067 0.12808 0.65023
 H406 H 0.78552 0.16138 0.61635
 H407 H 0.78807 0.11494 0.65875
 N408 N 0.84406 0.19606 0.64155
 N409 N 0.85914 0.19447 0.65359
 C410 C 0.87223 0.20864 0.64933
 C411 C 0.86512 0.21973 0.63378
 C412 C 0.84719 0.21125 0.62924
 H413 H 0.88597 0.21066 0.65699
 H414 H 0.83712 0.21574 0.61781
 H415 H 0.83098 0.17666 0.67138
 H416 H 0.84364 0.16058 0.65307
 N417 N 1.34603 0.35902 0.69453
 N418 N 1.35940 0.34512 0.69460
 C419 C 1.37192 0.34833 0.70960
 C420 C 1.36610 0.36517 0.71950
 C421 C 1.34956 0.37150 0.70944
 H422 H 1.38440 0.33912 0.71295
 H423 H 1.34076 0.38431 0.71256
 Cu424 Cu 1.35930 0.32434 0.67490
 Cu425 Cu 1.32525 0.36021 0.67497
 Cu426 Cu 1.32520 0.32423 0.63901
 N427 N 1.35937 0.30464 0.65413
 N428 N 1.34598 0.30466 0.64023
 C429 C 1.34949 0.28974 0.62777
 C430 C 1.36609 0.27968 0.63408
 C431 C 1.37190 0.28967 0.65095
 H432 H 1.34059 0.28665 0.61499
 H433 H 1.38437 0.28645 0.66021
 N434 N 1.30538 0.34527 0.64024
 N435 N 1.30541 0.35897 0.65394
 C436 C 1.29034 0.37133 0.65067
 C437 C 1.28026 0.36518 0.63406
 C438 C 1.29028 0.34856 0.62790
 H439 H 1.28707 0.38397 0.65967
 H440 H 1.28695 0.33957 0.61525
 H441 H 1.32455 0.33052 0.66873
 H442 H 1.34093 0.34605 0.65309
 N443 N 1.34625 0.85920 1.19487
 N444 N 1.35997 0.84566 1.19458
 C445 C 1.37244 0.84881 1.20963
 C446 C 1.36624 0.86531 1.21999
 C447 C 1.34947 0.87141 1.21007
 H448 H 1.38513 0.83981 1.21265
 H449 H 1.34028 0.88388 1.21343
 Cu450 Cu 1.36031 0.82554 1.17421
 Cu451 Cu 1.32540 0.86038 1.17531
 Cu452 Cu 1.32543 0.82440 1.13927
 N453 N 1.35999 0.80519 1.15407
 N454 N 1.34629 0.80487 1.14049
 C455 C 1.34954 0.78967 1.12830
 C456 C 1.36629 0.77977 1.13446
 C457 C 1.37246 0.79015 1.15097
 H458 H 1.34036 0.78629 1.11580
 H459 H 1.38514 0.78715 1.16002
 N460 N 1.30557 0.84543 1.14053
 N461 N 1.30556 0.85911 1.15425
 C462 C 1.29048 0.87146 1.15096
 C463 C 1.28044 0.86532 1.13433
 C464 C 1.29048 0.84872 1.12816
 H465 H 1.28718 0.88410 1.15995
 H466 H 1.28719 0.83976 1.11549
 H467 H 1.32530 0.83071 1.16899
 H468 H 1.34074 0.84673 1.15293
 N469 N 0.84599 0.35954 1.19511
 N470 N 0.85957 0.34585 1.19492
 C471 C 0.87208 0.34899 1.20993
 C472 C 0.86607 0.36563 1.22016
 C473 C 0.84936 0.37184 1.21020
 H474 H 0.88468 0.33987 1.21301
 H475 H 0.84032 0.38444 1.21347
 Cu476 Cu 0.85973 0.32553 1.17478
 Cu477 Cu 0.82516 0.36076 1.17552
 Cu478 Cu 0.82512 0.32477 1.13951
 N479 N 0.85952 0.30538 1.15445
 N480 N 0.84593 0.30519 1.14075
 C481 C 0.84928 0.29009 1.12846
 C482 C 0.86594 0.28018 1.13471
 C483 C 0.87201 0.29036 1.15131
 H484 H 0.84029 0.28674 1.11582
 H485 H 0.88465 0.28721 1.16037
 N486 N 0.80532 0.34582 1.14075
 N487 N 0.80533 0.35952 1.15445
 C488 C 0.79025 0.37188 1.15115
 C489 C 0.78021 0.36573 1.13453
 C490 C 0.79024 0.34912 1.12837
 H491 H 0.78697 0.38452 1.16014
 H492 H 0.78693 0.34013 1.11572
 H493 H 0.82480 0.33111 1.16921
 H494 H 0.84058 0.34693 1.15331
 N495 N 0.84561 0.85931 0.69469
 N496 N 0.85891 0.84535 0.69479
 C497 C 0.87144 0.84853 0.70978
 C498 C 0.86569 0.86540 0.71966
 C499 C 0.84918 0.87179 0.70959
 H500 H 0.88389 0.83929 0.71313
 H501 H 0.84042 0.88464 0.71269
 Cu502 Cu 0.85879 0.82457 0.67512
 Cu503 Cu 0.82486 0.86055 0.67508
 Cu504 Cu 0.82481 0.82461 0.63910
 N505 N 0.85886 0.80491 0.65432
 N506 N 0.84555 0.80500 0.64035
 C507 C 0.84910 0.79010 0.62787
 C508 C 0.86560 0.78002 0.63429
 C509 C 0.87137 0.78992 0.65117
 H510 H 0.84034 0.78698 0.61501
 H511 H 0.88381 0.78657 0.66042
 N512 N 0.80504 0.84568 0.64030
 N513 N 0.80506 0.85937 0.65401
 C514 C 0.79001 0.87175 0.65072
 C515 C 0.77996 0.86563 0.63409
 C516 C 0.78997 0.84901 0.62793
 H517 H 0.78673 0.88439 0.65973
 H518 H 0.78665 0.84003 0.61527
 H519 H 0.82409 0.83087 0.66882
 H520 H 0.84058 0.84636 0.65327
 N521 N 0.65437 0.64051 0.69457
 N522 N 0.64067 0.65408 0.69424
 C523 C 0.62816 0.65094 0.70926
 C524 C 0.63430 0.63445 0.71958
 C525 C 0.65104 0.62828 0.70976
 H526 H 0.61545 0.65991 0.71232
 H527 H 0.66011 0.61573 0.71321
 Cu528 Cu 0.64036 0.67421 0.67388
 Cu529 Cu 0.67523 0.63932 0.67503
 Cu530 Cu 0.67526 0.67535 0.63896
 N531 N 0.64071 0.69455 0.65374
 N532 N 0.65441 0.69489 0.64015
 C533 C 0.65111 0.71007 0.62793
 C534 C 0.63437 0.71988 0.63411
 C535 C 0.62821 0.70956 0.65061
 H536 H 0.66018 0.71353 0.61536
 H537 H 0.61551 0.71262 0.65960
 N538 N 0.69510 0.65431 0.64026
 N539 N 0.69508 0.64061 0.65398
 C540 C 0.71017 0.62826 0.65072
 C541 C 0.72022 0.63442 0.63410
 C542 C 0.71020 0.65103 0.62791
 H543 H 0.71345 0.61562 0.65973
 H544 H 0.71352 0.66001 0.61524
 H545 H 0.67536 0.66898 0.66867
 H546 H 0.65986 0.65302 0.65264
 N547 N 0.65419 1.14031 1.19510
 N548 N 0.64049 1.15387 1.19475
 C549 C 0.62798 1.15075 1.20977
 C550 C 0.63412 1.13425 1.22017
 C551 C 0.65090 1.12811 1.21031
 H552 H 0.61530 1.15979 1.21274
 H553 H 0.66006 1.11561 1.21371
 Cu554 Cu 0.64020 1.17401 1.17441
 Cu555 Cu 0.67509 1.13914 1.17557
 Cu556 Cu 0.67516 1.17522 1.13954
 N557 N 0.64057 1.19438 1.15429
 N558 N 0.65430 1.19474 1.14073
 C559 C 0.65104 1.20997 1.12854
 C560 C 0.63430 1.21978 1.13471
 C561 C 0.62809 1.20941 1.15116
 H562 H 0.66016 1.21347 1.11603
 H563 H 0.61535 1.21243 1.16011
 N564 N 0.69499 1.15418 1.14083
 N565 N 0.69496 1.14046 1.15453
 C566 C 0.71004 1.12810 1.15124
 C567 C 0.72010 1.13428 1.13462
 C568 C 0.71008 1.15091 1.12847
 H569 H 0.71331 1.11543 1.16022
 H570 H 0.71339 1.15991 1.11581
 H571 H 0.67522 1.16883 1.16926
 H572 H 0.65980 1.15285 1.15317
 N573 N 0.15396 0.64073 1.19489
 N574 N 0.14056 0.65459 1.19492
 C575 C 0.12802 0.65136 1.20990
 C576 C 0.13386 0.63450 1.21990
 C577 C 0.15047 0.62824 1.20983
 H578 H 0.11555 0.66059 1.21313
 H579 H 0.15938 0.61549 1.21291
 Cu580 Cu 0.14065 0.67537 1.17518
 Cu581 Cu 0.17475 0.63957 1.17531
 Cu582 Cu 0.17476 0.67556 1.13930
 N583 N 0.14057 0.69511 1.15440
 N584 N 0.15396 0.69512 1.14051
 C585 C 0.15046 0.71007 1.12805
 C586 C 0.13386 0.72012 1.13437
 C587 C 0.12804 0.71009 1.15123
 H588 H 0.15936 0.71319 1.11528
 H589 H 0.11557 0.71329 1.16050
 N590 N 0.19459 0.65453 1.14055
 N591 N 0.19458 0.64083 1.15427
 C592 C 0.20967 0.62848 1.15100
 C593 C 0.21972 0.63463 1.13438
 C594 C 0.20969 0.65124 1.12819
 H595 H 0.21295 0.61584 1.16002
 H596 H 0.21300 0.66023 1.11552
 H597 H 0.17541 0.66926 1.16902
 H598 H 0.15907 0.65371 1.15341
 N599 N 0.15383 1.14068 0.69488
 N600 N 0.14012 1.15423 0.69457
 C601 C 0.12765 1.15109 0.70963
 C602 C 0.13383 1.13458 0.72000
 C603 C 0.15059 1.12845 0.71008
 H604 H 0.11496 1.16009 0.71263
 H605 H 0.15975 1.11595 0.71344
 Cu606 Cu 0.13977 1.17438 0.67417
 Cu607 Cu 0.17466 1.13951 0.67530
 Cu608 Cu 0.17467 1.17554 0.63924
 N609 N 0.14012 1.19476 0.65402
 N610 N 0.15382 1.19508 0.64043
 C611 C 0.15058 1.21028 0.62821
 C612 C 0.13383 1.22018 0.63436
 C613 C 0.12766 1.20980 0.65089
 H614 H 0.15974 1.21365 0.61568
 H615 H 0.11497 1.21279 0.65992
 N616 N 0.19452 1.15450 0.64051
 N617 N 0.19451 1.14080 0.65424
 C618 C 0.20962 1.12847 0.65097
 C619 C 0.21966 1.13463 0.63433
 C620 C 0.20962 1.15124 0.62816
 H621 H 0.21293 1.11583 0.65998
 H622 H 0.21295 1.16025 0.61551
 H623 H 0.17477 1.16917 0.66895
 H624 H 0.15930 1.15319 0.65291
 N625 N 1.34597 0.64109 0.30570
 N626 N 1.35976 0.65456 0.30608
 C627 C 1.37225 0.65140 0.29105
 C628 C 1.36598 0.63501 0.28067
 C629 C 1.34921 0.62893 0.29047
 H630 H 1.38503 0.66027 0.28803
 H631 H 1.34005 0.61648 0.28696
 Cu632 Cu 1.36014 0.67462 0.32649
 Cu633 Cu 1.32510 0.63993 0.32520
 Cu634 Cu 1.32511 0.67584 0.36131
 N635 N 1.35976 0.69494 0.34662
 N636 N 1.34601 0.69532 0.36015
 C637 C 1.34924 0.71053 0.37233
 C638 C 1.36604 0.72037 0.36620
 C639 C 1.37225 0.70994 0.34974
 H640 H 1.34003 0.71397 0.38478
 H641 H 1.38495 0.71290 0.34071
 N642 N 1.30523 0.65486 0.35997
 N643 N 1.30524 0.64121 0.34621
 C644 C 1.29016 0.62886 0.34944
 C645 C 1.28011 0.63495 0.36608
 C646 C 1.29013 0.65153 0.37232
 H647 H 1.28690 0.61624 0.34042
 H648 H 1.28683 0.66045 0.38502
 H649 H 1.32510 0.66961 0.33158
 H650 H 1.34041 0.65349 0.34767
 N651 N 1.34575 1.14079 0.80529
 N652 N 1.35951 1.15428 0.80565
 C653 C 1.37200 1.15113 0.79062
 C654 C 1.36577 1.13473 0.78026
 C655 C 1.34900 1.12861 0.79007
 H656 H 1.38477 1.16003 0.78760
 H657 H 1.33986 1.11614 0.78658
 Cu658 Cu 1.35987 1.17436 0.82602
 Cu659 Cu 1.32489 1.13961 0.82481
 Cu660 Cu 1.32486 1.17557 0.86087
 N661 N 1.35948 1.19469 0.84613
 N662 N 1.34573 1.19506 0.85967
 C663 C 1.34897 1.21028 0.87184
 C664 C 1.36572 1.22007 0.86567
 C665 C 1.37195 1.20971 0.84925
 H666 H 1.33983 1.21379 0.88434
 H667 H 1.38470 1.21273 0.84030
 N668 N 1.30503 1.15456 0.85957
 N669 N 1.30504 1.14089 0.84584
 C670 C 1.28999 1.12852 0.84912
 C671 C 1.27995 1.13464 0.86576
 C672 C 1.28995 1.15124 0.87195
 H673 H 1.28673 1.11588 0.84013
 H674 H 1.28666 1.16019 0.88463
 H675 H 1.32485 1.16929 0.83114
 H676 H 1.34020 1.15322 0.84724
 N677 N 0.84573 0.64060 0.80532
 N678 N 0.85906 0.65452 0.80524
 C679 C 0.87161 0.65132 0.79026
 C680 C 0.86583 0.63446 0.78037
 C681 C 0.84930 0.62811 0.79043
 H682 H 0.88406 0.66053 0.78691
 H683 H 0.84054 0.61528 0.78732
 Cu684 Cu 0.85896 0.67531 0.82491
 Cu685 Cu 0.82496 0.63942 0.82491
 Cu686 Cu 0.82493 0.67537 0.86089
 N687 N 0.85904 0.69497 0.84569
 N688 N 0.84571 0.69492 0.85965
 C689 C 0.84926 0.70982 0.87212
 C690 C 0.86578 0.71985 0.86572
 C691 C 0.87156 0.70994 0.84886
 H692 H 0.84049 0.71296 0.88498
 H693 H 0.88402 0.71326 0.83960
 N694 N 0.80513 0.65435 0.85967
 N695 N 0.80514 0.64066 0.84596
 C696 C 0.79007 0.62832 0.84924
 C697 C 0.78002 0.63447 0.86587
 C698 C 0.79004 0.65107 0.87203
 H699 H 0.78679 0.61568 0.84024
 H700 H 0.78673 0.66005 0.88469
 H701 H 0.82424 0.66910 0.83116
 H702 H 0.84067 0.65357 0.84675
 N703 N 0.84578 1.14047 0.30541
 N704 N 0.85913 1.15437 0.30536
 C705 C 0.87169 1.15116 0.29040
 C706 C 0.86591 1.13432 0.28049
 C707 C 0.84936 1.12798 0.29052
 H708 H 0.88415 1.16038 0.28708
 H709 H 0.84057 1.11516 0.28739
 Cu710 Cu 0.85901 1.17516 0.32500
 Cu711 Cu 0.82498 1.13931 0.32494
 Cu712 Cu 0.82495 1.17523 0.36094
 N713 N 0.85910 1.19478 0.34582
 N714 N 0.84576 1.19473 0.35976
 C715 C 0.84932 1.20962 0.37224
 C716 C 0.86585 1.21964 0.36586
 C717 C 0.87164 1.20972 0.34899
 H718 H 0.84053 1.21277 0.38509
 H719 H 0.88408 1.21304 0.33973
 N720 N 0.80512 1.15425 0.35967
 N721 N 0.80513 1.14058 0.34595
 C722 C 0.79003 1.12825 0.34919
 C723 C 0.77996 1.13441 0.36580
 C724 C 0.79000 1.15098 0.37200
 H725 H 0.78676 1.11562 0.34018
 H726 H 0.78670 1.15995 0.38467
 H727 H 0.82431 1.16902 0.33119
 H728 H 0.84068 1.15343 0.34681
 N729 N 0.65410 0.35913 0.30513
 N730 N 0.64045 0.34553 0.30539
 C731 C 0.62797 0.34866 0.29034
 C732 C 0.63408 0.36522 0.28001
 C733 C 0.65080 0.37137 0.28995
 H734 H 0.61534 0.33959 0.28730
 H735 H 0.65993 0.38389 0.28660
 Cu736 Cu 0.64018 0.32538 0.32575
 Cu737 Cu 0.67491 0.36034 0.32474
 Cu738 Cu 0.67489 0.32433 0.36085
 N739 N 0.64043 0.30505 0.34593
 N740 N 0.65406 0.30477 0.35959
 C741 C 0.65075 0.28959 0.37183
 C742 C 0.63403 0.27968 0.36560
 C743 C 0.62796 0.29002 0.34901
 H744 H 0.65986 0.28622 0.38438
 H745 H 0.61535 0.28701 0.33988
 N746 N 0.69471 0.34540 0.35959
 N747 N 0.69470 0.35908 0.34584
 C748 C 0.70976 0.37144 0.34912
 C749 C 0.71980 0.36532 0.36578
 C750 C 0.70978 0.34871 0.37197
 H751 H 0.71305 0.38407 0.34010
 H752 H 0.71308 0.33975 0.38465
 H753 H 0.67512 0.33066 0.33113
 H754 H 0.65955 0.34662 0.34710
 N755 N 0.65433 0.85958 0.80537
 N756 N 0.64102 0.84564 0.80531
 C757 C 0.62847 0.84884 0.79032
 C758 C 0.63422 0.86571 0.78041
 C759 C 0.65074 0.87207 0.79046
 H760 H 0.61603 0.83961 0.78699
 H761 H 0.65949 0.88492 0.78734
 Cu762 Cu 0.64114 0.82485 0.82499
 Cu763 Cu 0.67509 0.86078 0.82496
 Cu764 Cu 0.67515 0.82480 0.86098
 N765 N 0.64108 0.80517 0.84579
 N766 N 0.65440 0.80522 0.85975
 C767 C 0.65085 0.79031 0.87224
 C768 C 0.63434 0.78027 0.86584
 C769 C 0.62856 0.79019 0.84896
 H770 H 0.65961 0.78716 0.88511
 H771 H 0.61612 0.78687 0.83970
 N772 N 0.69493 0.84584 0.85974
 N773 N 0.69490 0.85954 0.84602
 C774 C 0.70997 0.87190 0.84929
 C775 C 0.72002 0.86574 0.86591
 C776 C 0.71001 0.84913 0.87210
 H777 H 0.71324 0.88454 0.84027
 H778 H 0.71333 0.84014 0.88476
 H779 H 0.67585 0.83109 0.83125
 H780 H 0.65939 0.84659 0.84681
 N781 N 0.15426 0.35906 0.80558
 N782 N 0.14092 0.34516 0.80554
 C783 C 0.12838 0.34835 0.79054
 C784 C 0.13417 0.36520 0.78061
 C785 C 0.15070 0.37154 0.79065
 H786 H 0.11592 0.33915 0.78722
 H787 H 0.15948 0.38437 0.78750
 Cu788 Cu 0.14102 0.32439 0.82526
 Cu789 Cu 0.17503 0.36025 0.82516
 Cu790 Cu 0.17508 0.32427 0.86119
 N791 N 0.14095 0.30469 0.84607
 N792 N 0.15431 0.30471 0.85999
 C793 C 0.15077 0.28978 0.87247
 C794 C 0.13418 0.27974 0.86613
 C795 C 0.12841 0.28975 0.84924
 H796 H 0.15964 0.28668 0.88526
 H797 H 0.11596 0.28655 0.83996
 N798 N 0.19489 0.34531 0.85993
 N799 N 0.19486 0.35901 0.84620
 C800 C 0.20992 0.37137 0.84946
 C801 C 0.21999 0.36522 0.86608
 C802 C 0.20998 0.34861 0.87228
 H803 H 0.21318 0.38400 0.84043
 H804 H 0.21332 0.33962 0.88494
 H805 H 0.17575 0.33056 0.83146
 H806 H 0.15935 0.34609 0.84705
 N807 N 0.15387 0.85918 0.30593
 N808 N 0.14070 0.84511 0.30570
 C809 C 0.12839 0.84811 0.29048
 C810 C 0.13415 0.86500 0.28060
 C811 C 0.15043 0.87157 0.29091
 H812 H 0.11608 0.83876 0.28698
 H813 H 0.15915 0.88445 0.28785
 Cu814 Cu 0.14054 0.82477 0.32585
 Cu815 Cu 0.17454 0.86051 0.32564
 Cu816 Cu 0.17750 0.82161 0.35843
 N817 N 0.14087 0.80467 0.34624
 N818 N 0.15527 0.80364 0.35904
 C819 C 0.15191 0.78863 0.37147
 C820 C 0.13434 0.77964 0.36628
 C821 C 0.12781 0.79036 0.35012
 H822 H 0.16166 0.78468 0.38336
 H823 H 0.11453 0.78804 0.34176
 N824 N 0.19580 0.84403 0.35886
 N825 N 0.19447 0.85895 0.34656
 C826 C 0.20872 0.87198 0.35071
 C827 C 0.21961 0.86501 0.36645
 C828 C 0.21091 0.84722 0.37123
 H829 H 0.21092 0.88558 0.34284
 H830 H 0.21521 0.83730 0.38287
 H831 H 0.17573 0.83075 0.32917
 H832 H 0.16075 0.84438 0.34772
 O833 O 1.07105 1.01893 1.09787
 O834 O 1.09388 1.01897 1.12086
 C835 C 1.07797 1.02571 1.11383
 C836 C 1.06774 1.04203 1.12395
 C837 C 1.07516 1.04967 1.14164
 H838 H 1.08804 1.04320 1.14841
 O839 O 0.92916 0.98076 1.09807
 O840 O 0.90631 0.98078 1.12105
 C841 C 0.92222 0.97400 1.11405
 C842 C 0.93242 0.95768 1.12423
 C843 C 0.92501 0.95006 1.14195
 H844 H 0.91214 0.95656 1.14871
 O845 O 1.01920 1.09782 1.07094
 O846 O 1.01924 1.12072 1.09386
 C847 C 1.02596 1.11376 1.07788
 C848 C 1.04221 1.12392 1.06759
 C849 C 1.04982 1.14162 1.07497
 H850 H 1.04336 1.14837 1.08788
 O851 O 0.98096 0.90210 1.07112
 O852 O 0.98090 0.87916 1.09404
 C853 C 0.97419 0.88616 1.07806
 C854 C 0.95794 0.87603 1.06775
 C855 C 0.95033 0.85831 1.07512
 H856 H 0.95677 0.85152 1.08802
 O857 O 1.09780 1.07097 1.01913
 O858 O 1.12074 1.09379 1.01917
 C859 C 1.11374 1.07786 1.02592
 C860 C 1.12387 1.06757 1.04224
 C861 C 1.14156 1.07492 1.04988
 H862 H 1.14832 1.08782 1.04343
 O863 O 0.90229 0.92903 1.01926
 O864 O 0.87938 0.90618 1.01930
 C865 C 0.88637 0.92210 1.02606
 C866 C 0.87625 0.93234 1.04240
 C867 C 0.85858 0.92495 1.05008
 H868 H 0.85183 0.91206 1.04364
 O869 O 0.98096 1.07088 1.09793
 O870 O 0.98099 1.09370 1.12093
 C871 C 0.97424 1.07778 1.11393
 C872 C 0.95800 1.06752 1.12413
 C873 C 0.95044 1.07488 1.14189
 H874 H 0.95691 1.08774 1.14866
 O875 O 1.01921 0.92897 1.09809
 O876 O 1.01921 0.90611 1.12109
 C877 C 1.02596 0.92203 1.11407
 C878 C 1.04227 0.93224 1.12421
 C879 C 1.04990 0.92481 1.14192
 H880 H 1.04341 0.91195 1.14870
 O881 O 1.09804 0.98057 1.07108
 O882 O 1.12094 0.98059 1.09400
 C883 C 1.11398 0.97384 1.07804
 C884 C 1.12415 0.95755 1.06780
 C885 C 1.14183 0.94991 1.07520
 H886 H 1.14860 0.95637 1.08810
 O887 O 0.90232 1.01917 1.07112
 O888 O 0.87941 1.01920 1.09403
 C889 C 0.88639 1.02594 1.07806
 C890 C 0.87623 1.04223 1.06778
 C891 C 0.85854 1.04985 1.07519
 H892 H 0.85180 1.04339 1.08811
 O893 O 0.92901 1.09789 1.01919
 O894 O 0.90617 1.12084 1.01922
 C895 C 0.92208 1.11383 1.02599
 C896 C 0.93233 1.12393 1.04234
 C897 C 0.92495 1.14160 1.05004
 H898 H 0.91206 1.14837 1.04361
 O899 O 1.07112 0.90200 1.01946
 O900 O 1.09396 0.87905 1.01942
 C901 C 1.07806 0.88605 1.02624
 C902 C 1.06786 0.87592 1.04262
 C903 C 1.07527 0.85826 1.05034
 H904 H 1.08817 0.85150 1.04390
 O905 O 0.92921 1.01912 1.09804
 O906 O 0.90636 1.01917 1.12102
 C907 C 0.92229 1.02589 1.11401
 C908 C 0.93256 1.04215 1.12417
 C909 C 0.92524 1.04976 1.14193
 H910 H 0.91237 1.04332 1.14873
 O911 O 1.07110 0.98057 1.09796
 O912 O 1.09394 0.98058 1.12095
 C913 C 1.07802 0.97383 1.11396
 C914 C 1.06776 0.95756 1.12415
 C915 C 1.07517 0.94987 1.14186
 H916 H 1.08809 0.95626 1.14860
 O917 O 1.01930 0.90201 1.07128
 O918 O 1.01928 0.87908 1.09421
 C919 C 1.02607 0.88607 1.07826
 C920 C 1.04241 0.87594 1.06806
 C921 C 1.05006 0.85827 1.07552
 H922 H 1.04358 0.85152 1.08843
 O923 O 0.98086 1.09777 1.07100
 O924 O 0.98088 1.12066 1.09392
 C925 C 0.97410 1.11369 1.07797
 C926 C 0.95778 1.12385 1.06776
 C927 C 0.95016 1.14152 1.07521
 H928 H 0.95665 1.14825 1.08811
 O929 O 0.90223 1.07095 1.01915
 O930 O 0.87930 1.09382 1.01917
 C931 C 0.88629 1.07787 1.02593
 C932 C 0.87617 1.06762 1.04227
 C933 C 0.85849 1.07500 1.04992
 H934 H 0.85172 1.08788 1.04344
 O935 O 1.09800 0.92885 1.01934
 O936 O 1.12091 0.90597 1.01930
 C937 C 1.11396 0.92190 1.02607
 C938 C 1.12413 0.93213 1.04236
 C939 C 1.14182 0.92474 1.04999
 H940 H 1.14857 0.91185 1.04352
 O941 O 0.98087 0.92887 1.09815
 O942 O 0.98082 0.90601 1.12114
 C943 C 0.97408 0.92194 1.11412
 C944 C 0.95778 0.93220 1.12427
 C945 C 0.95011 0.92482 1.14199
 H946 H 0.95652 0.91191 1.14878
 O947 O 1.01930 1.07087 1.09782
 O948 O 1.01935 1.09370 1.12081
 C949 C 1.02609 1.07778 1.11379
 C950 C 1.04239 1.06752 1.12392
 C951 C 1.05007 1.07491 1.14162
 H952 H 1.04366 1.08782 1.14838
 O953 O 0.90233 0.98081 1.07113
 O954 O 0.87941 0.98081 1.09404
 C955 C 0.88640 0.97405 1.07809
 C956 C 0.87627 0.95776 1.06785
 C957 C 0.85860 0.95013 1.07528
 H958 H 0.85184 0.95660 1.08818
 O959 O 1.09790 1.01893 1.07094
 O960 O 1.12081 1.01899 1.09386
 C961 C 1.11382 1.02573 1.07789
 C962 C 1.12392 1.04205 1.06764
 C963 C 1.14161 1.04965 1.07503
 H964 H 1.14839 1.04314 1.08790
 O965 O 0.92922 0.90220 1.01919
 O966 O 0.90637 0.87928 1.01923
 C967 C 0.92230 0.88625 1.02597
 C968 C 0.93256 0.87608 1.04226
 C969 C 0.92520 0.85836 1.04987
 H970 H 0.91234 0.85161 1.04338
 O971 O 1.07093 1.09786 1.01905
 O972 O 1.09380 1.12076 1.01909
 C973 C 1.07786 1.11379 1.02582
 C974 C 1.06760 1.12394 1.04211
 C975 C 1.07497 1.14163 1.04974
 H976 H 1.08784 1.14839 1.04326
 Cu977 Cu 1.08224 0.99974 1.08216
 Cu978 Cu 1.10969 0.99979 1.10972
 Cu979 Cu 0.91805 0.99997 1.08229
 Cu980 Cu 0.89058 0.99999 1.10984
 Cu981 Cu 1.00008 1.08204 1.08212
 Cu982 Cu 1.00012 1.10949 1.10969
 Cu983 Cu 1.00008 0.91778 1.08237
 Cu984 Cu 1.00004 0.89029 1.10992
 C985 C 1.05122 1.05094 1.11531
 H986 H 1.04560 1.04534 1.10150
 C987 C 1.06639 1.06604 1.15041
 C988 C 0.94895 0.94876 1.11561
 H989 H 0.95456 0.95435 1.10179
 C990 C 0.93379 0.93371 1.15078
 C991 C 1.05108 1.11531 1.05102
 H992 H 1.04551 1.10150 1.04543
 C993 C 1.06613 1.15041 1.06609
 C994 C 0.94907 0.88469 1.05119
 H995 H 0.95464 0.89852 1.04562
 C996 C 0.93403 0.84955 1.06622
 C997 C 1.11527 1.05100 1.05111
 H998 H 1.10146 1.04544 1.04551
 C999 C 1.15037 1.06601 1.06621
 C1000 C 0.88487 0.94888 1.05127
 H1001 H 0.89865 0.95447 1.04564
 C1002 C 0.84982 0.93380 1.06645
 C1003 C 0.94908 1.05102 1.11550
 H1004 H 0.95463 1.04545 1.10165
 C1005 C 0.93413 1.06605 1.15072
 C1006 C 1.05118 0.94875 1.11555
 H1007 H 1.04558 0.95437 1.10173
 C1008 C 1.06628 0.93356 1.15068
 C1009 C 1.11553 0.94868 1.05124
 H1010 H 1.10173 0.95427 1.04565
 C1011 C 1.15061 0.93357 1.06635
 C1012 C 0.88482 1.05109 1.05118
 H1013 H 0.89862 1.04551 1.04558
 C1014 C 0.84974 1.06617 1.06631
 C1015 C 0.94888 1.11528 1.05119
 H1016 H 0.95447 1.10149 1.04555
 C1017 C 0.93382 1.15033 1.06641
 C1018 C 1.05130 0.88454 1.05147
 H1019 H 1.04568 0.89831 1.04582
 C1020 C 1.06642 0.84948 1.06672
 O1021 O 1.07094 0.98094 0.90196
 O1022 O 1.09382 0.98089 0.87901
 C1023 C 1.07788 0.97417 0.88600
 C1024 C 1.06765 0.95788 0.87586
 C1025 C 1.07507 0.95024 0.85816
 H1026 H 1.08794 0.95671 0.85138
 O1027 O 0.92922 1.01924 0.90204
 O1028 O 0.90639 1.01926 0.87904
 C1029 C 0.92230 1.02600 0.88605
 C1030 C 0.93254 1.04229 0.87588
 C1031 C 0.92513 1.04991 0.85815
 H1032 H 0.91227 1.04343 0.85139
 O1033 O 0.98097 1.09794 0.92888
 O1034 O 0.98090 1.12087 0.90595
 C1035 C 0.97418 1.11388 0.92193
 C1036 C 0.95790 1.12401 0.93221
 C1037 C 0.95029 1.14173 0.92483
 H1038 H 0.95675 1.14851 0.91194
 O1039 O 1.01924 0.90222 0.92903
 O1040 O 1.01928 0.87930 0.90612
 C1041 C 1.02600 0.88627 0.92210
 C1042 C 1.04224 0.87610 0.93240
 C1043 C 1.04985 0.85840 0.92500
 H1044 H 1.04341 0.85166 0.91208
 O1045 O 1.09784 0.92892 0.98090
 O1046 O 1.12076 0.90605 0.98083
 C1047 C 1.11376 0.92199 0.97409
 C1048 C 1.12389 0.93227 0.95776
 C1049 C 1.14168 0.92501 0.95023
 H1050 H 1.14849 0.91219 0.95678
 O1051 O 0.90216 1.07109 0.98070
 O1052 O 0.87924 1.09396 0.98068
 C1053 C 0.88624 1.07804 0.97391
 C1054 C 0.87612 1.06781 0.95755
 C1055 C 0.85843 1.07518 0.94988
 H1056 H 0.85164 1.08805 0.95633
 O1057 O 1.01934 1.07111 0.90191
 O1058 O 1.01930 1.09398 0.87892
 C1059 C 1.02609 1.07807 0.88594
 C1060 C 1.04243 1.06788 0.87580
 C1061 C 1.05014 1.07537 0.85815
 H1062 H 1.04370 1.08828 0.85141
 O1063 O 0.98092 0.92912 0.90204
 O1064 O 0.98094 0.90626 0.87908
 C1065 C 0.97417 0.92218 0.88607
 C1066 C 0.95787 0.93241 0.87590
 C1067 C 0.95024 0.92499 0.85820
 H1068 H 0.95672 0.91210 0.85145
 O1069 O 1.09789 1.01917 0.92891
 O1070 O 1.12083 1.01916 0.90602
 C1071 C 1.11385 1.02590 0.92198
 C1072 C 1.12399 1.04215 0.93226
 C1073 C 1.14170 1.04975 0.92489
 H1074 H 1.14848 1.04329 0.91200
 O1075 O 0.90227 0.98092 0.92896
 O1076 O 0.87937 0.98092 0.90603
 C1077 C 0.88634 0.97418 0.92201
 C1078 C 0.87619 0.95791 0.93229
 C1079 C 0.85849 0.95031 0.92491
 H1080 H 0.85173 0.95677 0.91201
 O1081 O 1.07106 1.09794 0.98062
 O1082 O 1.09394 1.12083 0.98062
 C1083 C 1.07802 1.11388 0.97384
 C1084 C 1.06780 1.12404 0.95750
 C1085 C 1.07520 1.14173 0.94982
 H1086 H 1.08808 1.14847 0.95628
 O1087 O 0.92910 0.90218 0.98077
 O1088 O 0.90625 0.87926 0.98077
 C1089 C 0.92217 0.88624 0.97400
 C1090 C 0.93241 0.87611 0.95767
 C1091 C 0.92505 0.85841 0.95002
 H1092 H 0.91217 0.85165 0.95648
 O1093 O 0.92911 0.98087 0.90198
 O1094 O 0.90627 0.98087 0.87899
 C1095 C 0.92219 0.97411 0.88601
 C1096 C 0.93243 0.95780 0.87587
 C1097 C 0.92504 0.95012 0.85816
 H1098 H 0.91215 0.95655 0.85139
 O1099 O 1.07109 1.01931 0.90191
 O1100 O 1.09396 1.01930 0.87896
 C1101 C 1.07805 1.02610 0.88595
 C1102 C 1.06787 1.04247 0.87580
 C1103 C 1.07534 1.05022 0.85815
 H1104 H 1.08826 1.04381 0.85141
 O1105 O 0.98090 0.90220 0.92895
 O1106 O 0.98092 0.87928 0.90605
 C1107 C 0.97416 0.88626 0.92200
 C1108 C 0.95786 0.87611 0.93225
 C1109 C 0.95026 0.85842 0.92484
 H1110 H 0.95675 0.85166 0.91196
 O1111 O 1.01932 1.09801 0.92880
 O1112 O 1.01927 1.12095 0.90588
 C1113 C 1.02605 1.11396 0.92183
 C1114 C 1.04236 1.12409 0.93206
 C1115 C 1.04999 1.14177 0.92464
 H1116 H 1.04352 1.14855 0.91174
 O1117 O 0.90229 0.92913 0.98083
 O1118 O 0.87936 0.90628 0.98083
 C1119 C 0.88634 0.92221 0.97408
 C1120 C 0.87619 0.93249 0.95778
 C1121 C 0.85849 0.92513 0.95016
 H1122 H 0.85173 0.91225 0.95664
 O1123 O 1.09784 1.07095 0.98071
 O1124 O 1.12078 1.09377 0.98072
 C1125 C 1.11379 1.07785 0.97397
 C1126 C 1.12396 1.06757 0.95769
 C1127 C 1.14167 1.07493 0.95009
 H1128 H 1.14843 1.08780 0.95656
 O1129 O 1.01926 0.92909 0.90203
 O1130 O 1.01930 0.90623 0.87907
 C1131 C 1.02603 0.92216 0.88606
 C1132 C 1.04230 0.93242 0.87589
 C1133 C 1.04997 0.92502 0.85819
 H1134 H 1.04357 0.91211 0.85144
 O1135 O 0.98098 1.07108 0.90193
 O1136 O 0.98091 1.09394 0.87894
 C1137 C 0.97419 1.07801 0.88596
 C1138 C 0.95790 1.06775 0.87583
 C1139 C 0.95024 1.07513 0.85810
 H1140 H 0.95665 1.08802 0.85131
 O1141 O 0.90224 1.01928 0.92887
 O1142 O 0.87935 1.01930 0.90594
 C1143 C 0.88632 1.02605 0.92189
 C1144 C 0.87617 1.04237 0.93212
 C1145 C 0.85848 1.04997 0.92470
 H1146 H 0.85173 1.04348 0.91181
 O1147 O 1.09782 0.98081 0.92889
 O1148 O 1.12077 0.98077 0.90601
 C1149 C 1.11375 0.97402 0.92197
 C1150 C 1.12389 0.95772 0.93227
 C1151 C 1.14168 0.95020 0.92500
 H1152 H 1.14850 0.95674 0.91216
 O1153 O 1.07097 0.90205 0.98101
 O1154 O 1.09381 0.87910 0.98093
 C1155 C 1.07787 0.88611 0.97422
 C1156 C 1.06761 0.87601 0.95790
 C1157 C 1.07497 0.85831 0.95027
 H1158 H 1.08782 0.85151 0.95675
 O1159 O 0.92913 1.09786 0.98075
 O1160 O 0.90629 1.12081 0.98074
 C1161 C 0.92222 1.11382 0.97399
 C1162 C 0.93248 1.12399 0.95768
 C1163 C 0.92512 1.14170 0.95005
 H1164 H 0.91224 1.14846 0.95653
 Cu1165 Cu 1.08214 1.00006 0.91771
 Cu1166 Cu 1.10964 1.00002 0.89020
 Cu1167 Cu 0.91800 1.00007 0.91776
 Cu1168 Cu 0.89055 1.00009 0.89019
 Cu1169 Cu 1.08211 1.08215 0.99987
 Cu1170 Cu 1.10962 1.10959 0.99991
 Cu1171 Cu 1.08219 0.91774 1.00019
 Cu1172 Cu 1.10965 0.89024 1.00011
 Cu1173 Cu 0.91792 1.08216 0.99995
 Cu1174 Cu 0.89045 1.10965 0.99995
 Cu1175 Cu 0.91801 0.91792 1.00001
 Cu1176 Cu 0.89054 0.89045 1.00004
 Cu1177 Cu 1.00016 1.08225 0.91767
 Cu1178 Cu 1.00008 1.10973 0.89011
 Cu1179 Cu 1.00008 0.91795 0.91781
 Cu1180 Cu 1.00012 0.89047 0.89028
 C1181 C 1.05113 0.94899 0.88450
 H1182 H 1.04552 0.95459 0.89831
 C1183 C 1.06629 0.93388 0.84939
 C1184 C 0.94906 1.05120 0.88450
 H1185 H 0.95466 1.04562 0.89833
 C1186 C 0.93392 1.06625 0.84933
 C1187 C 0.94901 1.11536 0.94877
 H1188 H 0.95459 1.10154 0.95435
 C1189 C 0.93396 1.15051 0.93370
 C1190 C 1.05111 0.88468 0.94899
 H1191 H 1.04554 0.89849 0.95458
 C1192 C 1.06614 0.84957 0.93389
 C1193 C 1.11521 0.94876 0.94879
 H1194 H 1.10134 0.95426 0.95429
 C1195 C 1.15052 0.93393 0.93393
 C1196 C 0.88477 1.05127 0.94868
 H1197 H 0.89856 1.04568 0.95431
 C1198 C 0.84966 1.06630 0.93353
 C1199 C 1.05128 1.05129 0.88440
 H1200 H 1.04561 1.04561 0.89816
 C1201 C 1.06651 1.06660 0.84937
 C1202 C 0.94898 0.94895 0.88451
 H1203 H 0.95457 0.95456 0.89832
 C1204 C 0.93390 0.93378 0.84939
 C1205 C 1.11534 1.05105 0.94880
 H1206 H 1.10152 1.04550 0.95437
 C1207 C 1.15047 1.06607 0.93376
 C1208 C 0.88481 0.94902 0.94886
 H1209 H 0.89862 0.95458 0.95444
 C1210 C 0.84971 0.93399 0.93380
 C1211 C 1.05125 1.11545 0.94863
 H1212 H 1.04565 1.10166 0.95425
 C1213 C 1.06634 1.15054 0.93346
 C1214 C 0.94895 0.88473 0.94879
 H1215 H 0.95452 0.89853 0.95439
 C1216 C 0.93393 0.84963 0.93368
 O1217 O 0.98093 0.42897 0.40178
 O1218 O 0.98100 0.40610 0.37883
 C1219 C 0.97421 0.42201 0.38581
 C1220 C 0.95788 0.43219 0.37563
 C1221 C 0.95023 0.42473 0.35796
 H1222 H 0.95671 0.41185 0.35121
 O1223 O 1.01948 0.57096 0.40182
 O1224 O 1.01942 0.59381 0.37880
 C1225 C 1.02621 0.57790 0.38583
 C1226 C 1.04253 0.56770 0.37567
 C1227 C 1.05017 0.57514 0.35797
 H1228 H 1.04369 0.58802 0.35120
 O1229 O 0.90222 0.48058 0.42874
 O1230 O 0.87933 0.48067 0.40581
 C1231 C 0.88627 0.47388 0.42178
 C1232 C 0.87609 0.45760 0.43204
 C1233 C 0.85840 0.44999 0.42463
 H1234 H 0.85167 0.45644 0.41171
 O1235 O 1.09804 0.51910 0.42886
 O1236 O 1.12097 0.51911 0.40596
 C1237 C 1.11399 0.52584 0.42193
 C1238 C 1.12412 0.54211 0.43221
 C1239 C 1.14182 0.54974 0.42484
 H1240 H 1.14860 0.54330 0.41194
 O1241 O 0.92910 0.40210 0.48060
 O1242 O 0.90626 0.37917 0.48059
 C1243 C 0.92218 0.38617 0.47382
 C1244 C 0.93244 0.37603 0.45751
 C1245 C 0.92512 0.35831 0.44989
 H1246 H 0.91225 0.35153 0.45635
 O1247 O 1.07114 0.59780 0.48059
 O1248 O 1.09399 0.62072 0.48062
 C1249 C 1.07808 0.61375 0.47383
 C1250 C 1.06785 0.62392 0.45749
 C1251 C 1.07518 0.64167 0.44990
 H1252 H 1.08802 0.64844 0.45642
 O1253 O 0.92931 0.51890 0.40196
 O1254 O 0.90648 0.51902 0.37896
 C1255 C 0.92241 0.52571 0.38599
 C1256 C 0.93268 0.54200 0.37584
 C1257 C 0.92529 0.54961 0.35811
 H1258 H 0.91243 0.54314 0.35134
 O1259 O 1.07107 0.48087 0.40193
 O1260 O 1.09393 0.48083 0.37896
 C1261 C 1.07799 0.47411 0.38596
 C1262 C 1.06774 0.45784 0.37580
 C1263 C 1.07512 0.45025 0.35806
 H1264 H 1.08799 0.45673 0.35129
 O1265 O 1.01925 0.40215 0.42884
 O1266 O 1.01933 0.37922 0.40596
 C1267 C 1.02602 0.38620 0.42193
 C1268 C 1.04225 0.37603 0.43226
 C1269 C 1.04982 0.35829 0.42492
 H1270 H 1.04337 0.35152 0.41203
 O1271 O 0.98110 0.59781 0.42874
 O1272 O 0.98102 0.62072 0.40579
 C1273 C 0.97430 0.61374 0.42177
 C1274 C 0.95800 0.62387 0.43202
 C1275 C 0.95034 0.64155 0.42460
 H1276 H 0.95678 0.64831 0.41169
 O1277 O 0.90242 0.57088 0.48058
 O1278 O 0.87947 0.59373 0.48054
 C1279 C 0.88647 0.57780 0.47379
 C1280 C 0.87633 0.56753 0.45749
 C1281 C 0.85862 0.57489 0.44987
 H1282 H 0.85185 0.58777 0.45633
 O1283 O 1.09798 0.42881 0.48068
 O1284 O 1.12088 0.40592 0.48064
 C1285 C 1.11389 0.42185 0.47387
 C1286 C 1.12401 0.43209 0.45749
 C1287 C 1.14166 0.42466 0.44978
 H1288 H 1.14840 0.41175 0.45621
 O1289 O 0.98113 0.57084 0.40191
 O1290 O 0.98104 0.59367 0.37889
 C1291 C 0.97433 0.57774 0.38593
 C1292 C 0.95805 0.56745 0.37580
 C1293 C 0.95040 0.57482 0.35807
 H1294 H 0.95682 0.58771 0.35127
 O1295 O 1.01928 0.42905 0.40189
 O1296 O 1.01938 0.40619 0.37894
 C1297 C 1.02608 0.42213 0.38594
 C1298 C 1.04237 0.43240 0.37579
 C1299 C 1.05000 0.42505 0.35805
 H1300 H 1.04357 0.41217 0.35127
 O1301 O 1.09800 0.48074 0.42879
 O1302 O 1.12092 0.48071 0.40589
 C1303 C 1.11392 0.47394 0.42184
 C1304 C 1.12402 0.45758 0.43206
 C1305 C 1.14166 0.44991 0.42461
 H1306 H 1.14841 0.45640 0.41170
 O1307 O 0.90233 0.51894 0.42878
 O1308 O 0.87944 0.51905 0.40585
 C1309 C 0.88642 0.52576 0.42182
 C1310 C 0.87631 0.54207 0.43208
 C1311 C 0.85860 0.54967 0.42471
 H1312 H 0.85181 0.54318 0.41184
 O1313 O 0.92929 0.59775 0.48060
 O1314 O 0.90641 0.62067 0.48056
 C1315 C 0.92235 0.61369 0.47381
 C1316 C 0.93259 0.62384 0.45749
 C1317 C 0.92517 0.64152 0.44982
 H1318 H 0.91229 0.64827 0.45629
 O1319 O 1.07099 0.40205 0.48082
 O1320 O 1.09382 0.37909 0.48079
 C1321 C 1.07788 0.38610 0.47406
 C1322 C 1.06761 0.37597 0.45777
 C1323 C 1.07494 0.35823 0.45019
 H1324 H 1.08778 0.35144 0.45669
 O1325 O 1.07127 0.51923 0.40182
 O1326 O 1.09413 0.51922 0.37886
 C1327 C 1.07821 0.52600 0.38585
 C1328 C 1.06800 0.54233 0.37568
 C1329 C 1.07541 0.55002 0.35798
 H1330 H 1.08831 0.54360 0.35122
 O1331 O 0.92908 0.48055 0.40178
 O1332 O 0.90626 0.48063 0.37878
 C1333 C 0.92216 0.47383 0.38579
 C1334 C 0.93240 0.45754 0.37562
 C1335 C 0.92498 0.44983 0.35795
 H1336 H 0.91205 0.45622 0.35120
 O1337 O 1.01944 0.59785 0.42872
 O1338 O 1.01940 0.62077 0.40578
 C1339 C 1.02617 0.61380 0.42175
 C1340 C 1.04245 0.62396 0.43201
 C1341 C 1.05003 0.64170 0.42466
 H1342 H 1.04355 0.64850 0.41178
 O1343 O 0.98091 0.40214 0.42876
 O1344 O 0.98097 0.37920 0.40588
 C1345 C 0.97418 0.38619 0.42182
 C1346 C 0.95789 0.37604 0.43207
 C1347 C 0.95033 0.35832 0.42470
 H1348 H 0.95682 0.35156 0.41182
 O1349 O 1.09794 0.57084 0.48069
 O1350 O 1.12087 0.59369 0.48071
 C1351 C 1.11389 0.57776 0.47395
 C1352 C 1.12407 0.56751 0.45767
 C1353 C 1.14176 0.57489 0.45007
 H1354 H 1.14850 0.58777 0.45655
 O1355 O 0.90215 0.42890 0.48063
 O1356 O 0.87924 0.40604 0.48065
 C1357 C 0.88621 0.42197 0.47387
 C1358 C 0.87606 0.43220 0.45754
 C1359 C 0.85838 0.42483 0.44990
 H1360 H 0.85160 0.41197 0.45640
 Cu1361 Cu 1.00009 0.41787 0.41761
 Cu1362 Cu 1.00019 0.39038 0.39010
 Cu1363 Cu 1.00029 0.58208 0.41759
 Cu1364 Cu 1.00021 0.60954 0.39001
 Cu1365 Cu 0.91802 0.49972 0.41761
 Cu1366 Cu 0.89058 0.49986 0.39004
 Cu1367 Cu 1.08230 0.50000 0.41765
 Cu1368 Cu 1.10979 0.49996 0.39011
 C1369 C 0.94899 0.44873 0.38424
 H1370 H 0.95460 0.45437 0.39802
 C1371 C 0.93385 0.43349 0.34917
 C1372 C 1.05143 0.55116 0.38430
 H1373 H 1.04583 0.54553 0.39811
 C1374 C 1.06654 0.56636 0.34918
 C1375 C 0.88469 0.44873 0.44862
 H1376 H 0.89848 0.45430 0.45423
 C1377 C 0.84961 0.43367 0.43351
 C1378 C 1.11547 0.55098 0.44877
 H1379 H 1.10166 0.54540 0.45434
 C1380 C 1.15057 0.56606 0.43372
 C1381 C 0.94897 0.38467 0.44861
 H1382 H 0.95452 0.39849 0.45419
 C1383 C 0.93401 0.34952 0.43356
 C1384 C 1.05135 0.61530 0.44856
 H1385 H 1.04581 0.60146 0.45412
 C1386 C 1.06633 0.65050 0.43356
 C1387 C 0.94920 0.55090 0.38448
 H1388 H 0.95478 0.54533 0.39832
 C1389 C 0.93409 0.56595 0.34929
 C1390 C 1.05122 0.44894 0.38444
 H1391 H 1.04564 0.45450 0.39828
 C1392 C 1.06631 0.43393 0.34925
 C1393 C 1.05112 0.38464 0.44883
 H1394 H 1.04559 0.39848 0.45437
 C1395 C 1.06610 0.34946 0.43384
 C1396 C 0.94913 0.61524 0.44860
 H1397 H 0.95474 0.60144 0.45422
 C1398 C 0.93400 0.65031 0.43345
 C1399 C 0.88496 0.55098 0.44861
 H1400 H 0.89877 0.54542 0.45419
 C1401 C 0.84981 0.56601 0.43354
 C1402 C 1.11541 0.44867 0.44864
 H1403 H 1.10164 0.45430 0.45428
 C1404 C 1.15043 0.43353 0.43340
 O1405 O 1.01916 0.42880 0.59789
 O1406 O 1.01916 0.40593 0.62088
 C1407 C 1.02591 0.42186 0.61387
 C1408 C 1.04220 0.43209 0.62403
 C1409 C 1.04980 0.42468 0.64177
 H1410 H 1.04331 0.41182 0.64854
 O1411 O 0.98096 0.57080 0.59790
 O1412 O 0.98096 0.59364 0.62088
 C1413 C 0.97422 0.57772 0.61389
 C1414 C 0.95794 0.56748 0.62407
 C1415 C 0.95033 0.57488 0.64179
 H1416 H 0.95679 0.58776 0.64855
 O1417 O 0.90242 0.51906 0.57099
 O1418 O 0.87947 0.51909 0.59387
 C1419 C 0.88647 0.52583 0.57791
 C1420 C 0.87634 0.54211 0.56761
 C1421 C 0.85863 0.54973 0.57497
 H1422 H 0.85186 0.54327 0.58788
 O1423 O 1.09795 0.48059 0.57100
 O1424 O 1.12084 0.48054 0.59393
 C1425 C 1.11388 0.47382 0.57795
 C1426 C 1.12405 0.45756 0.56768
 C1427 C 1.14174 0.44993 0.57507
 H1428 H 1.14849 0.45637 0.58798
 O1429 O 1.07117 0.40197 0.51926
 O1430 O 1.09401 0.37903 0.51926
 C1431 C 1.07811 0.38603 0.52606
 C1432 C 1.06789 0.37590 0.54243
 C1433 C 1.07534 0.35826 0.55018
 H1434 H 1.08827 0.35154 0.54378
 O1435 O 0.92920 0.59778 0.51905
 O1436 O 0.90633 0.62069 0.51904
 C1437 C 0.92225 0.61371 0.52582
 C1438 C 0.93245 0.62383 0.54218
 C1439 C 0.92504 0.64150 0.54985
 H1440 H 0.91217 0.64827 0.54338
 O1441 O 0.92922 0.48066 0.59797
 O1442 O 0.90634 0.48067 0.62092
 C1443 C 0.92226 0.47389 0.61393
 C1444 C 0.93242 0.45753 0.62407
 C1445 C 0.92495 0.44985 0.64174
 H1446 H 0.91208 0.45634 0.64850
 O1447 O 1.07101 0.51891 0.59789
 O1448 O 1.09384 0.51889 0.62089
 C1449 C 1.07793 0.52566 0.61387
 C1450 C 1.06771 0.54198 0.62400
 C1451 C 1.07515 0.54964 0.64169
 H1452 H 1.08803 0.54316 0.64845
 O1453 O 0.98088 0.40187 0.57094
 O1454 O 0.98085 0.37892 0.59385
 C1455 C 0.97412 0.38592 0.57787
 C1456 C 0.95786 0.37578 0.56757
 C1457 C 0.95027 0.35803 0.57488
 H1458 H 0.95673 0.35122 0.58777
 O1459 O 1.01923 0.59771 0.57092
 O1460 O 1.01926 0.62063 0.59382
 C1461 C 1.02598 0.61366 0.57785
 C1462 C 1.04223 0.62382 0.56755
 C1463 C 1.04982 0.64153 0.57492
 H1464 H 1.04335 0.64830 0.58782
 O1465 O 0.90229 0.42895 0.51907
 O1466 O 0.87938 0.40609 0.51914
 C1467 C 0.88637 0.42202 0.52589
 C1468 C 0.87627 0.43226 0.54224
 C1469 C 0.85860 0.42488 0.54992
 H1470 H 0.85183 0.41201 0.54348
 O1471 O 1.09790 0.57087 0.51913
 O1472 O 1.12082 0.59371 0.51917
 C1473 C 1.11382 0.57778 0.52593
 C1474 C 1.12395 0.56750 0.54226
 C1475 C 1.14167 0.57482 0.54987
 H1476 H 1.14845 0.58769 0.54338
 O1477 O 1.01929 0.57081 0.59787
 O1478 O 1.01933 0.59366 0.62083
 C1479 C 1.02607 0.57773 0.61383
 C1480 C 1.04237 0.56747 0.62398
 C1481 C 1.05006 0.57489 0.64166
 H1482 H 1.04366 0.58781 0.64841
 O1483 O 0.98081 0.42869 0.59795
 O1484 O 0.98077 0.40581 0.62092
 C1485 C 0.97403 0.42175 0.61392
 C1486 C 0.95773 0.43199 0.62407
 C1487 C 0.95000 0.42455 0.64174
 H1488 H 0.95637 0.41161 0.64848
 O1489 O 1.09790 0.51895 0.57100
 O1490 O 1.12080 0.51893 0.59392
 C1491 C 1.11382 0.52571 0.57796
 C1492 C 1.12395 0.54203 0.56771
 C1493 C 1.14168 0.54960 0.57507
 H1494 H 1.14846 0.54309 0.58795
 O1495 O 0.90241 0.48071 0.57101
 O1496 O 0.87946 0.48072 0.59389
 C1497 C 0.88646 0.47396 0.57794
 C1498 C 0.87632 0.45768 0.56769
 C1499 C 0.85865 0.45006 0.57512
 H1500 H 0.85191 0.45652 0.58804
 O1501 O 1.07100 0.59774 0.51903
 O1502 O 1.09386 0.62065 0.51909
 C1503 C 1.07791 0.61367 0.52581
 C1504 C 1.06763 0.62382 0.54209
 C1505 C 1.07498 0.64154 0.54969
 H1506 H 1.08784 0.64831 0.54321
 O1507 O 0.92911 0.40202 0.51903
 O1508 O 0.90628 0.37909 0.51906
 C1509 C 0.92221 0.38607 0.52580
 C1510 C 0.93247 0.37587 0.54208
 C1511 C 0.92515 0.35812 0.54963
 H1512 H 0.91231 0.35136 0.54310
 O1513 O 1.07102 0.48054 0.59789
 O1514 O 1.09384 0.48049 0.62090
 C1515 C 1.07793 0.47375 0.61388
 C1516 C 1.06766 0.45745 0.62403
 C1517 C 1.07502 0.44979 0.64177
 H1518 H 1.08790 0.45621 0.64855
 O1519 O 0.92923 0.51903 0.59799
 O1520 O 0.90635 0.51907 0.62094
 C1521 C 0.92229 0.52580 0.61395
 C1522 C 0.93253 0.54209 0.62411
 C1523 C 0.92515 0.54974 0.64183
 H1524 H 0.91227 0.54330 0.64862
 O1525 O 0.98090 0.59770 0.57097
 O1526 O 0.98089 0.62061 0.59388
 C1527 C 0.97414 0.61364 0.57792
 C1528 C 0.95784 0.62379 0.56767
 C1529 C 0.95019 0.64146 0.57509
 H1530 H 0.95664 0.64820 0.58801
 O1531 O 1.01923 0.40186 0.57104
 O1532 O 1.01924 0.37893 0.59396
 C1533 C 1.02602 0.38594 0.57802
 C1534 C 1.04239 0.37585 0.56782
 C1535 C 1.05008 0.35821 0.57532
 H1536 H 1.04362 0.35146 0.58822
 O1537 O 1.09798 0.42891 0.51913
 O1538 O 1.12089 0.40603 0.51913
 C1539 C 1.11392 0.42196 0.52588
 C1540 C 1.12407 0.43220 0.54218
 C1541 C 1.14176 0.42480 0.54982
 H1542 H 1.14852 0.41193 0.54333
 O1543 O 0.90242 0.57083 0.51901
 O1544 O 0.87947 0.59368 0.51900
 C1545 C 0.88647 0.57775 0.52577
 C1546 C 0.87633 0.56750 0.54209
 C1547 C 0.85863 0.57488 0.54970
 H1548 H 0.85186 0.58774 0.54319
 Cu1549 Cu 1.00001 0.41759 0.58216
 Cu1550 Cu 1.00000 0.39010 0.60971
 Cu1551 Cu 1.00010 0.58196 0.58212
 Cu1552 Cu 1.00011 0.60943 0.60966
 Cu1553 Cu 0.91795 0.41779 0.49983
 Cu1554 Cu 0.89049 0.39030 0.49987
 Cu1555 Cu 1.08225 0.41773 0.49997
 Cu1556 Cu 1.10970 0.39021 0.49995
 Cu1557 Cu 0.91813 0.58203 0.49981
 Cu1558 Cu 0.89062 0.60949 0.49978
 Cu1559 Cu 1.08220 0.58203 0.49986
 Cu1560 Cu 1.10968 0.60949 0.49990
 Cu1561 Cu 0.91812 0.49987 0.58220
 Cu1562 Cu 0.89061 0.49989 0.60971
 Cu1563 Cu 1.08218 0.49974 0.58215
 Cu1564 Cu 1.10962 0.49971 0.60972
 C1565 C 1.05112 0.44861 0.61538
 H1566 H 1.04555 0.45421 0.60155
 C1567 C 1.06614 0.43347 0.65058
 C1568 C 0.94906 0.55095 0.61546
 H1569 H 0.95464 0.54535 0.60163
 C1570 C 0.93400 0.56607 0.65061
 C1571 C 0.88497 0.55099 0.55103
 H1572 H 0.89878 0.54541 0.54546
 C1573 C 0.84985 0.56605 0.56607
 C1574 C 1.11544 0.44872 0.55110
 H1575 H 1.10164 0.45430 0.54551
 C1576 C 1.15053 0.43362 0.56619
 C1577 C 1.05128 0.38446 0.55124
 H1578 H 1.04562 0.39821 0.54556
 C1579 C 1.06648 0.34947 0.56655
 C1580 C 0.94898 0.61520 0.55108
 H1581 H 0.95459 0.60141 0.54546
 C1582 C 0.93386 0.65026 0.56624
 C1583 C 0.94895 0.44862 0.61546
 H1584 H 0.95461 0.45425 0.60167
 C1585 C 0.93367 0.43343 0.65052
 C1586 C 1.05118 0.55089 0.61537
 H1587 H 1.04556 0.54528 0.60158
 C1588 C 1.06639 0.56602 0.65045
 C1589 C 0.94897 0.38448 0.55103
 H1590 H 0.95452 0.39833 0.54550
 C1591 C 0.93398 0.34926 0.56595
 C1592 C 1.05112 0.61519 0.55100
 H1593 H 1.04557 0.60137 0.54543
 C1594 C 1.06612 0.65032 0.56604
 C1595 C 0.88491 0.44880 0.55111
 H1596 H 0.89869 0.45438 0.54548
 C1597 C 0.84986 0.43373 0.56630
 C1598 C 1.11531 0.55097 0.55117
 H1599 H 1.10149 0.54543 0.54559
 C1600 C 1.15047 0.56593 0.56621
 O1601 O 0.57093 1.01945 0.59799
 O1602 O 0.59380 1.01938 0.62095
 C1603 C 0.57788 1.02617 0.61396
 C1604 C 0.56769 1.04248 0.62414
 C1605 C 0.57511 1.05010 0.64185
 H1606 H 0.58799 1.04362 0.64860
 O1607 O 0.42892 0.98104 0.59783
 O1608 O 0.40609 0.98102 0.62083
 C1609 C 0.42200 0.97427 0.61382
 C1610 C 0.43223 0.95796 0.62397
 C1611 C 0.42484 0.95035 0.64171
 H1612 H 0.41198 0.95684 0.64849
 O1613 O 0.51912 1.09801 0.57096
 O1614 O 0.51913 1.12093 0.59386
 C1615 C 0.52585 1.11396 0.57788
 C1616 C 0.54209 1.12413 0.56757
 C1617 C 0.54969 1.14183 0.57494
 H1618 H 0.54326 1.14859 0.58786
 O1619 O 0.48072 0.90223 0.57098
 O1620 O 0.48074 0.87931 0.59392
 C1621 C 0.47400 0.88627 0.57793
 C1622 C 0.45777 0.87607 0.56764
 C1623 C 0.45023 0.85831 0.57497
 H1624 H 0.45669 0.85152 0.58786
 O1625 O 0.59772 1.07128 0.51909
 O1626 O 0.62065 1.09411 0.51906
 C1627 C 0.61367 1.07819 0.52585
 C1628 C 0.62382 1.06792 0.54217
 C1629 C 0.64160 1.07519 0.54970
 H1630 H 0.64840 1.08801 0.54316
 O1631 O 0.40215 0.92904 0.51911
 O1632 O 0.37925 0.90618 0.51923
 C1633 C 0.38624 0.92212 0.52594
 C1634 C 0.37612 0.93239 0.54227
 C1635 C 0.35847 0.92500 0.54998
 H1636 H 0.35173 0.91208 0.54357
 O1637 O 0.48088 1.07103 0.59789
 O1638 O 0.48083 1.09388 0.62087
 C1639 C 0.47410 1.07795 0.61386
 C1640 C 0.45779 1.06772 0.62399
 C1641 C 0.45015 1.07512 0.64169
 H1642 H 0.45664 1.08798 0.64848
 O1643 O 0.51900 0.92925 0.59784
 O1644 O 0.51903 0.90641 0.62086
 C1645 C 0.52576 0.92234 0.61383
 C1646 C 0.54204 0.93258 0.62398
 C1647 C 0.54964 0.92518 0.64172
 H1648 H 0.54316 0.91231 0.64850
 O1649 O 0.59774 0.98110 0.57098
 O1650 O 0.62066 0.98101 0.59388
 C1651 C 0.61367 0.97430 0.57791
 C1652 C 0.62381 0.95803 0.56762
 C1653 C 0.64150 0.95039 0.57500
 H1654 H 0.64827 0.95683 0.58790
 O1655 O 0.40195 1.01939 0.57094
 O1656 O 0.37905 1.01938 0.59387
 C1657 C 0.38602 1.02614 0.57790
 C1658 C 0.37586 1.04244 0.56765
 C1659 C 0.35817 1.05006 0.57504
 H1660 H 0.35139 1.04358 0.58792
 O1661 O 0.42899 1.09804 0.51926
 O1662 O 0.40610 1.12095 0.51922
 C1663 C 0.42202 1.11397 0.52603
 C1664 C 0.43222 1.12411 0.54238
 C1665 C 0.42481 1.14177 0.55007
 H1666 H 0.41191 1.14852 0.54361
 O1667 O 0.57093 0.90241 0.51913
 O1668 O 0.59379 0.87948 0.51918
 C1669 C 0.57786 0.88647 0.52593
 C1670 C 0.56761 0.87633 0.54226
 C1671 C 0.57501 0.85865 0.54994
 H1672 H 0.58791 0.85190 0.54350
 O1673 O 0.42894 1.01939 0.59778
 O1674 O 0.40610 1.01940 0.62077
 C1675 C 0.42203 1.02614 0.61376
 C1676 C 0.43230 1.04240 0.62394
 C1677 C 0.42490 1.05006 0.64164
 H1678 H 0.41198 1.04366 0.64839
 O1679 O 0.57083 0.98108 0.59788
 O1680 O 0.59369 0.98097 0.62085
 C1681 C 0.57775 0.97426 0.61384
 C1682 C 0.56749 0.95796 0.62399
 C1683 C 0.57484 0.95030 0.64173
 H1684 H 0.58771 0.95674 0.64852
 O1685 O 0.51906 0.90235 0.57096
 O1686 O 0.51911 0.87943 0.59391
 C1687 C 0.52585 0.88642 0.57793
 C1688 C 0.54216 0.87630 0.56769
 C1689 C 0.54981 0.85863 0.57512
 H1690 H 0.54334 0.85186 0.58803
 O1691 O 0.48079 1.09805 0.57110
 O1692 O 0.48076 1.12096 0.59400
 C1693 C 0.47400 1.11397 0.57805
 C1694 C 0.45767 1.12410 0.56782
 C1695 C 0.45001 1.14176 0.57525
 H1696 H 0.45648 1.14852 0.58815
 O1697 O 0.40205 1.07124 0.51919
 O1698 O 0.37909 1.09407 0.51912
 C1699 C 0.38607 1.07815 0.52591
 C1700 C 0.37589 1.06789 0.54220
 C1701 C 0.35820 1.07528 0.54983
 H1702 H 0.35145 1.08816 0.54334
 O1703 O 0.59774 0.92934 0.51904
 O1704 O 0.62066 0.90647 0.51909
 C1705 C 0.61368 0.92241 0.52582
 C1706 C 0.62381 0.93265 0.54213
 C1707 C 0.64150 0.92526 0.54976
 H1708 H 0.64826 0.91238 0.54328
 O1709 O 0.48066 0.92917 0.59786
 O1710 O 0.48066 0.90633 0.62087
 C1711 C 0.47390 0.92225 0.61384
 C1712 C 0.45760 0.93250 0.62399
 C1713 C 0.44995 0.92512 0.64172
 H1714 H 0.45639 0.91222 0.64851
 O1715 O 0.51923 1.07124 0.59804
 O1716 O 0.51922 1.09409 0.62101
 C1717 C 0.52599 1.07817 0.61401
 C1718 C 0.54231 1.06794 0.62416
 C1719 C 0.54999 1.07533 0.64187
 H1720 H 0.54356 1.08822 0.64864
 O1721 O 0.40210 0.98103 0.57087
 O1722 O 0.37921 0.98099 0.59380
 C1723 C 0.38619 0.97424 0.57784
 C1724 C 0.37609 0.95790 0.56763
 C1725 C 0.35843 0.95026 0.57509
 H1726 H 0.35167 0.95675 0.58797
 O1727 O 0.59774 1.01946 0.57101
 O1728 O 0.62068 1.01941 0.59389
 C1729 C 0.61369 1.02620 0.57794
 C1730 C 0.62384 1.04248 0.56765
 C1731 C 0.64162 1.04999 0.57493
 H1732 H 0.64844 1.04346 0.58778
 O1733 O 0.42902 0.90215 0.51904
 O1734 O 0.40619 0.87921 0.51913
 C1735 C 0.42213 0.88620 0.52584
 C1736 C 0.43241 0.87605 0.54213
 C1737 C 0.42513 0.85829 0.54968
 H1738 H 0.41231 0.85148 0.54315
 O1739 O 0.57076 1.09808 0.51898
 O1740 O 0.59361 1.12099 0.51898
 C1741 C 0.57768 1.11402 0.52574
 C1742 C 0.56744 1.12416 0.54204
 C1743 C 0.57480 1.14186 0.54965
 H1744 H 0.58766 1.14864 0.54315
 Cu1745 Cu 0.58202 1.00028 0.58217
 Cu1746 Cu 0.60950 1.00018 0.60970
 Cu1747 Cu 0.41776 1.00023 0.58205
 Cu1748 Cu 0.39032 1.00020 0.60962
 Cu1749 Cu 0.50002 1.08229 0.58220
 Cu1750 Cu 0.49998 1.10976 0.60974
 Cu1751 Cu 0.49984 0.91804 0.58211
 Cu1752 Cu 0.49989 0.89057 0.60970
 C1753 C 0.55115 1.05139 0.61553
 H1754 H 0.54551 1.04578 0.60173
 C1755 C 0.56632 1.06645 0.65066
 C1756 C 0.44875 0.94905 0.61534
 H1757 H 0.45434 0.95464 0.60150
 C1758 C 0.43364 0.93400 0.65052
 C1759 C 0.55094 1.11552 0.55099
 H1760 H 0.54537 1.10171 0.54541
 C1761 C 0.56598 1.15063 0.56603
 C1762 C 0.44888 0.88472 0.55108
 H1763 H 0.45439 0.89858 0.54554
 C1764 C 0.43398 0.84947 0.56602
 C1765 C 0.61517 1.05143 0.55114
 H1766 H 0.60131 1.04593 0.54562
 C1767 C 0.65045 1.06627 0.56600
 C1768 C 0.38471 0.94898 0.55109
 H1769 H 0.39849 0.95457 0.54545
 C1770 C 0.34969 0.93388 0.56631
 C1771 C 0.44888 1.05122 0.61533
 H1772 H 0.45448 1.04562 0.60151
 C1773 C 0.43378 1.06635 0.65045
 C1774 C 0.55095 0.94911 0.61533
 H1775 H 0.54539 0.95470 0.60149
 C1776 C 0.56597 0.93398 0.65053
 C1777 C 0.61518 0.94917 0.55105
 H1778 H 0.60138 0.95476 0.54546
 C1779 C 0.65028 0.93407 0.56613
 C1780 C 0.38450 1.05135 0.55110
 H1781 H 0.39832 1.04578 0.54553
 C1782 C 0.34941 1.06643 0.56619
 C1783 C 0.44879 1.11550 0.55125
 H1784 H 0.45441 1.10172 0.54563
 C1785 C 0.43365 1.15054 0.56643
 C1786 C 0.55105 0.88493 0.55112
 H1787 H 0.54546 0.89874 0.54551
 C1788 C 0.56616 0.84986 0.56631
 O1789 O 0.57068 0.98099 0.40192
 O1790 O 0.59350 0.98100 0.37892
 C1791 C 0.57759 0.97425 0.38594
 C1792 C 0.56737 0.95795 0.37580
 C1793 C 0.57481 0.95032 0.35810
 H1794 H 0.58768 0.95680 0.35134
 O1795 O 0.42908 1.01892 0.40197
 O1796 O 0.40621 1.01906 0.37901
 C1797 C 0.42215 1.02575 0.38602
 C1798 C 0.43239 1.04207 0.37588
 C1799 C 0.42502 1.04966 0.35813
 H1800 H 0.41220 1.04313 0.35132
 O1801 O 0.48072 1.09810 0.42886
 O1802 O 0.48062 1.12098 0.40588
 C1803 C 0.47393 1.11402 0.42188
 C1804 C 0.45767 1.12418 0.43217
 C1805 C 0.45002 1.14188 0.42476
 H1806 H 0.45645 1.14863 0.41183
 O1807 O 0.51897 0.90221 0.42885
 O1808 O 0.51909 0.87927 0.40597
 C1809 C 0.52578 0.88628 0.42194
 C1810 C 0.54208 0.87618 0.43224
 C1811 C 0.54972 0.85847 0.42490
 H1812 H 0.54326 0.85167 0.41202
 O1813 O 0.59781 0.92919 0.48060
 O1814 O 0.62073 0.90632 0.48061
 C1815 C 0.61374 0.92224 0.47382
 C1816 C 0.62385 0.93247 0.45745
 C1817 C 0.64154 0.92510 0.44978
 H1818 H 0.64833 0.91223 0.45626
 O1819 O 0.40232 1.07108 0.48077
 O1820 O 0.37937 1.09391 0.48065
 C1821 C 0.38640 1.07798 0.47394
 C1822 C 0.37630 1.06769 0.45762
 C1823 C 0.35861 1.07506 0.44995
 H1824 H 0.35185 1.08796 0.45638
 O1825 O 0.51904 1.07119 0.40190
 O1826 O 0.51895 1.09401 0.37887
 C1827 C 0.52575 1.07810 0.38590
 C1828 C 0.54205 1.06790 0.37574
 C1829 C 0.54974 1.07538 0.35807
 H1830 H 0.54329 1.08829 0.35133
 O1831 O 0.48061 0.92896 0.40178
 O1832 O 0.48070 0.90608 0.37884
 C1833 C 0.47388 0.92199 0.38582
 C1834 C 0.45754 0.93215 0.37566
 C1835 C 0.44984 0.92466 0.35802
 H1836 H 0.45630 0.91176 0.35128
 O1837 O 0.59759 1.01930 0.42882
 O1838 O 0.62048 1.01934 0.40588
 C1839 C 0.61351 1.02606 0.42186
 C1840 C 0.62367 1.04233 0.43213
 C1841 C 0.64136 1.04993 0.42473
 H1842 H 0.64812 1.04346 0.41183
 O1843 O 0.40199 0.98063 0.42878
 O1844 O 0.37905 0.98074 0.40591
 C1845 C 0.38602 0.97395 0.42186
 C1846 C 0.37584 0.95769 0.43215
 C1847 C 0.35810 0.95010 0.42484
 H1848 H 0.35131 0.95656 0.41194
 O1849 O 0.57090 1.09814 0.48054
 O1850 O 0.59376 1.12105 0.48049
 C1851 C 0.57784 1.11406 0.47372
 C1852 C 0.56762 1.12418 0.45735
 C1853 C 0.57507 1.14179 0.44956
 H1854 H 0.58798 1.14853 0.45596
 O1855 O 0.42889 0.90212 0.48061
 O1856 O 0.40604 0.87920 0.48066
 C1857 C 0.42194 0.88619 0.47385
 C1858 C 0.43215 0.87605 0.45750
 C1859 C 0.42473 0.85841 0.44980
 H1860 H 0.41183 0.85167 0.45624
 O1861 O 0.42884 0.98055 0.40180
 O1862 O 0.40596 0.98065 0.37886
 C1863 C 0.42187 0.97384 0.38583
 C1864 C 0.43206 0.95751 0.37566
 C1865 C 0.42459 0.94976 0.35802
 H1866 H 0.41165 0.95616 0.35128
 O1867 O 0.57078 1.01936 0.40182
 O1868 O 0.59361 1.01940 0.37882
 C1869 C 0.57770 1.02615 0.38584
 C1870 C 0.56748 1.04249 0.37571
 C1871 C 0.57492 1.05022 0.35804
 H1872 H 0.58783 1.04381 0.35128
 O1873 O 0.48063 0.90214 0.42878
 O1874 O 0.48071 0.87919 0.40590
 C1875 C 0.47391 0.88618 0.42183
 C1876 C 0.45760 0.87605 0.43206
 C1877 C 0.44993 0.85840 0.42461
 H1878 H 0.45640 0.85166 0.41170
 O1879 O 0.51907 1.09809 0.42878
 O1880 O 0.51900 1.12097 0.40580
 C1881 C 0.52581 1.11402 0.42176
 C1882 C 0.54215 1.12416 0.43193
 C1883 C 0.54984 1.14178 0.42439
 H1884 H 0.54338 1.14850 0.41146
 O1885 O 0.40202 0.92900 0.48069
 O1886 O 0.37910 0.90615 0.48077
 C1887 C 0.38606 0.92208 0.47398
 C1888 C 0.37587 0.93233 0.45769
 C1889 C 0.35814 0.92499 0.45015
 H1890 H 0.35137 0.91214 0.45669
 O1891 O 0.59762 1.07111 0.48066
 O1892 O 0.62056 1.09395 0.48060
 C1893 C 0.61356 1.07801 0.47388
 C1894 C 0.62369 1.06774 0.45758
 C1895 C 0.64139 1.07509 0.44994
 H1896 H 0.64816 1.08795 0.45641
 O1897 O 0.51895 0.92911 0.40189
 O1898 O 0.51908 0.90623 0.37895
 C1899 C 0.52576 0.92219 0.38594
 C1900 C 0.54204 0.93247 0.37579
 C1901 C 0.54973 0.92508 0.35810
 H1902 H 0.54334 0.91217 0.35134
 O1903 O 0.48070 1.07107 0.40205
 O1904 O 0.48059 1.09389 0.37901
 C1905 C 0.47390 1.07795 0.38606
 C1906 C 0.45766 1.06762 0.37592
 C1907 C 0.45002 1.07496 0.35816
 H1908 H 0.45642 1.08787 0.35138
 O1909 O 0.40224 1.01899 0.42891
 O1910 O 0.37930 1.01914 0.40602
 C1911 C 0.38633 1.02584 0.42198
 C1912 C 0.37626 1.04218 0.43224
 C1913 C 0.35858 1.04981 0.42483
 H1914 H 0.35179 1.04332 0.41196
 O1915 O 0.59769 0.98095 0.42870
 O1916 O 0.62058 0.98097 0.40576
 C1917 C 0.61363 0.97420 0.42173
 C1918 C 0.62379 0.95790 0.43197
 C1919 C 0.64148 0.95029 0.42455
 H1920 H 0.64822 0.95677 0.41164
 O1921 O 0.57085 0.90241 0.48070
 O1922 O 0.59370 0.87948 0.48072
 C1923 C 0.57776 0.88646 0.47396
 C1924 C 0.56751 0.87627 0.45769
 C1925 C 0.57490 0.85856 0.45010
 H1926 H 0.58778 0.85182 0.45659
 O1927 O 0.42901 1.09812 0.48082
 O1928 O 0.40613 1.12103 0.48074
 C1929 C 0.42207 1.11406 0.47401
 C1930 C 0.43231 1.12420 0.45768
 C1931 C 0.42491 1.14190 0.45003
 H1932 H 0.41205 1.14866 0.45652
 Cu1933 Cu 0.58189 1.00015 0.41761
 Cu1934 Cu 0.60933 1.00018 0.39004
 Cu1935 Cu 0.41783 0.99974 0.41766
 Cu1936 Cu 0.39033 0.99992 0.39015
 Cu1937 Cu 0.58196 1.08237 0.49983
 Cu1938 Cu 0.60944 1.10982 0.49978
 Cu1939 Cu 0.58205 0.91814 0.49986
 Cu1940 Cu 0.60952 0.89064 0.49990
 Cu1941 Cu 0.41789 1.08234 0.50003
 Cu1942 Cu 0.39037 1.10979 0.49992
 Cu1943 Cu 0.41781 0.91787 0.49985
 Cu1944 Cu 0.39035 0.89038 0.49996
 Cu1945 Cu 0.49989 1.08233 0.41770
 Cu1946 Cu 0.49977 1.10976 0.39008
 Cu1947 Cu 0.49978 0.91790 0.41762
 Cu1948 Cu 0.49992 0.89039 0.39011
 C1949 C 0.55085 0.94904 0.38442
 H1950 H 0.54523 0.95463 0.39824
 C1951 C 0.56605 0.93396 0.34932
 C1952 C 0.44884 1.05104 0.38456
 H1953 H 0.45442 1.04549 0.39842
 C1954 C 0.43377 1.06603 0.34934
 C1955 C 0.44882 1.11557 0.44877
 H1956 H 0.45441 1.10177 0.45437
 C1957 C 0.43371 1.15067 0.43364
 C1958 C 0.55096 0.88486 0.44877
 H1959 H 0.54537 0.89868 0.45432
 C1960 C 0.56605 0.84973 0.43378
 C1961 C 0.61521 0.94900 0.44855
 H1962 H 0.60141 0.95458 0.45417
 C1963 C 0.65030 0.93396 0.43340
 C1964 C 0.38491 1.05111 0.44877
 H1965 H 0.39871 1.04553 0.45437
 C1966 C 0.34982 1.06618 0.43363
 C1967 C 0.55091 1.05131 0.38434
 H1968 H 0.54528 1.04565 0.39812
 C1969 C 0.56610 1.06660 0.34929
 C1970 C 0.44866 0.94871 0.38425
 H1971 H 0.45432 0.95438 0.39801
 C1972 C 0.43343 0.93340 0.34925
 C1973 C 0.61505 1.05121 0.44869
 H1974 H 0.60125 1.04565 0.45429
 C1975 C 0.65016 1.06623 0.43360
 C1976 C 0.38449 0.94882 0.44871
 H1977 H 0.39832 0.95436 0.45425
 C1978 C 0.34930 0.93382 0.43380
 C1979 C 0.55103 1.11559 0.44854
 H1980 H 0.54541 1.10184 0.45423
 C1981 C 0.56623 1.15053 0.43314
 C1982 C 0.44872 0.88465 0.44864
 H1983 H 0.45434 0.89841 0.45428
 C1984 C 0.43357 0.84964 0.43342
 O1985 O 0.48092 0.42907 0.90204
 O1986 O 0.48094 0.40622 0.87907
 C1987 C 0.47417 0.42214 0.88607
 C1988 C 0.45785 0.43234 0.87592
 C1989 C 0.45022 0.42493 0.85821
 H1990 H 0.45672 0.41207 0.85145
 O1991 O 0.51902 0.57110 0.90222
 O1992 O 0.51901 0.59396 0.87923
 C1993 C 0.52577 0.57803 0.88624
 C1994 C 0.54207 0.56780 0.87608
 C1995 C 0.54970 0.57524 0.85838
 H1996 H 0.54323 0.58813 0.85161
 O1997 O 0.40216 0.48076 0.92900
 O1998 O 0.37923 0.48080 0.90610
 C1999 C 0.38621 0.47404 0.92206
 C2000 C 0.37605 0.45777 0.93234
 C2001 C 0.35838 0.45011 0.92494
 H2002 H 0.35163 0.45655 0.91201
 O2003 O 0.59782 0.51922 0.92908
 O2004 O 0.62073 0.51928 0.90615
 C2005 C 0.61376 0.52598 0.92213
 C2006 C 0.62390 0.54224 0.93241
 C2007 C 0.64159 0.54987 0.92503
 H2008 H 0.64835 0.54342 0.91212
 O2009 O 0.42912 0.40229 0.98086
 O2010 O 0.40630 0.37934 0.98090
 C2011 C 0.42220 0.38634 0.97411
 C2012 C 0.43243 0.37621 0.95777
 C2013 C 0.42501 0.35856 0.95008
 H2014 H 0.41211 0.35182 0.95652
 O2015 O 0.57089 0.59781 0.98088
 O2016 O 0.59374 0.62073 0.98087
 C2017 C 0.57782 0.61375 0.97410
 C2018 C 0.56757 0.62392 0.95778
 C2019 C 0.57495 0.64161 0.95012
 H2020 H 0.58784 0.64836 0.95656
 O2021 O 0.42913 0.51907 0.90212
 O2022 O 0.40627 0.51914 0.87916
 C2023 C 0.42219 0.52587 0.88616
 C2024 C 0.43238 0.54221 0.87603
 C2025 C 0.42494 0.54986 0.85834
 H2026 H 0.41210 0.54336 0.85156
 O2027 O 0.57091 0.48096 0.90211
 O2028 O 0.59375 0.48101 0.87912
 C2029 C 0.57784 0.47424 0.88612
 C2030 C 0.56764 0.45794 0.87596
 C2031 C 0.57508 0.45032 0.85826
 H2032 H 0.58795 0.45680 0.85150
 O2033 O 0.51929 0.40218 0.92899
 O2034 O 0.51931 0.37926 0.90609
 C2035 C 0.52605 0.38624 0.92205
 C2036 C 0.54232 0.37607 0.93233
 C2037 C 0.54999 0.35841 0.92489
 H2038 H 0.54357 0.35169 0.91196
 O2039 O 0.48068 0.59801 0.92913
 O2040 O 0.48064 0.62095 0.90622
 C2041 C 0.47392 0.61396 0.92220
 C2042 C 0.45767 0.62413 0.93251
 C2043 C 0.45008 0.64188 0.92518
 H2044 H 0.45653 0.64868 0.91228
 O2045 O 0.40225 0.57104 0.98104
 O2046 O 0.37929 0.59387 0.98095
 C2047 C 0.38633 0.57795 0.97421
 C2048 C 0.37625 0.56770 0.95785
 C2049 C 0.35859 0.57509 0.95014
 H2050 H 0.35182 0.58799 0.95658
 O2051 O 0.59781 0.42898 0.98087
 O2052 O 0.62073 0.40610 0.98087
 C2053 C 0.61374 0.42203 0.97408
 C2054 C 0.62385 0.43226 0.95771
 C2055 C 0.64149 0.42484 0.94998
 H2056 H 0.64824 0.41192 0.95641
 O2057 O 0.48068 0.57109 0.90221
 O2058 O 0.48063 0.59396 0.87922
 C2059 C 0.47391 0.57802 0.88623
 C2060 C 0.45765 0.56775 0.87607
 C2061 C 0.44995 0.57516 0.85837
 H2062 H 0.45633 0.58810 0.85162
 O2063 O 0.51926 0.42911 0.90207
 O2064 O 0.51931 0.40626 0.87910
 C2065 C 0.52603 0.42220 0.88610
 C2066 C 0.54231 0.43246 0.87595
 C2067 C 0.55000 0.42507 0.85825
 H2068 H 0.54360 0.41217 0.85149
 O2069 O 0.59777 0.48086 0.92905
 O2070 O 0.62067 0.48090 0.90612
 C2071 C 0.61369 0.47410 0.92207
 C2072 C 0.62382 0.45775 0.93228
 C2073 C 0.64146 0.45009 0.92481
 H2074 H 0.64819 0.45657 0.91189
 O2075 O 0.40232 0.51912 0.92910
 O2076 O 0.37940 0.51920 0.90620
 C2077 C 0.38640 0.52593 0.92216
 C2078 C 0.37629 0.54225 0.93241
 C2079 C 0.35863 0.54990 0.92497
 H2080 H 0.35188 0.54343 0.91206
 O2081 O 0.42902 0.59800 0.98113
 O2082 O 0.40613 0.62090 0.98107
 C2083 C 0.42208 0.61394 0.97435
 C2084 C 0.43233 0.62412 0.95804
 C2085 C 0.42499 0.64187 0.95048
 H2086 H 0.41216 0.64865 0.95702
 O2087 O 0.57096 0.40209 0.98093
 O2088 O 0.59381 0.37914 0.98096
 C2089 C 0.57789 0.38614 0.97418
 C2090 C 0.56768 0.37601 0.95784
 C2091 C 0.57510 0.35835 0.95016
 H2092 H 0.58798 0.35159 0.95664
 O2093 O 0.57088 0.51932 0.90221
 O2094 O 0.59372 0.51939 0.87922
 C2095 C 0.57779 0.52612 0.88624
 C2096 C 0.56753 0.54243 0.87608
 C2097 C 0.57492 0.55011 0.85838
 H2098 H 0.58782 0.54370 0.85161
 O2099 O 0.42905 0.48071 0.90208
 O2100 O 0.40619 0.48075 0.87911
 C2101 C 0.42212 0.47398 0.88610
 C2102 C 0.43236 0.45768 0.87593
 C2103 C 0.42496 0.45002 0.85822
 H2104 H 0.41206 0.45643 0.85146
 O2105 O 0.51901 0.59796 0.92912
 O2106 O 0.51901 0.62090 0.90620
 C2107 C 0.52577 0.61389 0.92216
 C2108 C 0.54209 0.62400 0.93238
 C2109 C 0.54971 0.64169 0.92497
 H2110 H 0.54322 0.64848 0.91209
 O2111 O 0.48095 0.40224 0.92903
 O2112 O 0.48094 0.37932 0.90613
 C2113 C 0.47419 0.38631 0.92209
 C2114 C 0.45788 0.37619 0.93233
 C2115 C 0.45022 0.35855 0.92489
 H2116 H 0.45668 0.35180 0.91198
 O2117 O 0.59777 0.57092 0.98094
 O2118 O 0.62069 0.59377 0.98096
 C2119 C 0.61371 0.57785 0.97419
 C2120 C 0.62388 0.56761 0.95789
 C2121 C 0.64157 0.57500 0.95027
 H2122 H 0.64832 0.58786 0.95676
 O2123 O 0.40219 0.42911 0.98090
 O2124 O 0.37930 0.40623 0.98096
 C2125 C 0.38625 0.42216 0.97417
 C2126 C 0.37608 0.43238 0.95785
 C2127 C 0.35841 0.42497 0.95022
 H2128 H 0.35167 0.41209 0.95671
 Cu2129 Cu 0.50011 0.41794 0.91783
 Cu2130 Cu 0.50013 0.39047 0.89029
 Cu2131 Cu 0.49984 0.58225 0.91797
 Cu2132 Cu 0.49981 0.60974 0.89041
 Cu2133 Cu 0.41796 0.49989 0.91787
 Cu2134 Cu 0.39047 0.49998 0.89034
 Cu2135 Cu 0.58206 0.50009 0.91791
 Cu2136 Cu 0.60951 0.50015 0.89034
 C2137 C 0.44893 0.44886 0.88455
 H2138 H 0.45452 0.45446 0.89836
 C2139 C 0.43385 0.43370 0.84942
 C2140 C 0.55096 0.55126 0.88471
 H2141 H 0.54539 0.54566 0.89855
 C2142 C 0.56606 0.56645 0.84959
 C2143 C 0.38467 0.44892 0.94893
 H2144 H 0.39845 0.45452 0.95453
 C2145 C 0.34962 0.43378 0.93383
 C2146 C 0.61527 0.55110 0.94898
 H2147 H 0.60146 0.54551 0.95456
 C2148 C 0.65036 0.56618 0.93391
 C2149 C 0.44900 0.38480 0.94891
 H2150 H 0.45461 0.39858 0.95453
 C2151 C 0.43386 0.34979 0.93371
 C2152 C 0.55101 0.61534 0.94892
 H2153 H 0.54542 0.60154 0.95453
 C2154 C 0.56607 0.65044 0.93378
 C2155 C 0.44887 0.55114 0.88468
 H2156 H 0.45449 0.54552 0.89849
 C2157 C 0.43366 0.56627 0.84958
 C2158 C 0.55112 0.44903 0.88458
 H2159 H 0.54549 0.45462 0.89839
 C2160 C 0.56632 0.43395 0.84947
 C2161 C 0.55115 0.38464 0.94894
 H2162 H 0.54554 0.39843 0.95455
 C2163 C 0.56631 0.34961 0.93376
 C2164 C 0.44881 0.61547 0.94907
 H2165 H 0.45436 0.60162 0.95461
 C2166 C 0.43381 0.65069 0.93413
 C2167 C 0.38489 0.55114 0.94898
 H2168 H 0.39867 0.54554 0.95461
 C2169 C 0.34984 0.56625 0.93377
 C2170 C 0.61524 0.44885 0.94887
 H2171 H 0.60148 0.45447 0.95453
 C2172 C 0.65023 0.43370 0.93359
 O2173 O 0.51912 0.42909 1.09850
 O2174 O 0.51910 0.40615 1.12142
 C2175 C 0.52587 0.42209 1.11446
 C2176 C 0.54220 0.43224 1.12462
 C2177 C 0.54991 0.42472 1.14225
 H2178 H 0.54345 0.41182 1.14900
 O2179 O 0.48078 0.57098 1.09820
 O2180 O 0.48083 0.59381 1.12118
 C2181 C 0.47406 0.57790 1.11419
 C2182 C 0.45778 0.56769 1.12437
 C2183 C 0.45014 0.57513 1.14205
 H2184 H 0.45660 0.58802 1.14879
 O2185 O 0.40212 0.51930 1.07141
 O2186 O 0.37918 0.51928 1.09429
 C2187 C 0.38617 0.52604 1.07833
 C2188 C 0.37601 0.54232 1.06805
 C2189 C 0.35832 0.54995 1.07545
 H2190 H 0.35156 0.54350 1.08837
 O2191 O 0.59770 0.48063 1.07131
 O2192 O 0.62065 0.48064 1.09419
 C2193 C 0.61366 0.47389 1.07823
 C2194 C 0.62383 0.45764 1.06794
 C2195 C 0.64153 0.45003 1.07532
 H2196 H 0.64828 0.45648 1.08823
 O2197 O 0.57092 0.40219 1.01938
 O2198 O 0.59377 0.37925 1.01945
 C2199 C 0.57785 0.38626 1.02622
 C2200 C 0.56763 0.37618 1.04261
 C2201 C 0.57503 0.35851 1.05032
 H2202 H 0.58790 0.35173 1.04386
 O2203 O 0.42890 0.59799 1.01957
 O2204 O 0.40600 0.62088 1.01955
 C2205 C 0.42192 0.61391 1.02635
 C2206 C 0.43212 0.62403 1.04271
 C2207 C 0.42468 0.64167 1.05045
 H2208 H 0.41177 0.64841 1.04403
 O2209 O 0.42901 0.48091 1.09835
 O2210 O 0.40613 0.48088 1.12129
 C2211 C 0.42206 0.47413 1.11431
 C2212 C 0.43225 0.45779 1.12448
 C2213 C 0.42477 0.45011 1.14214
 H2214 H 0.41187 0.45658 1.14887
 O2215 O 0.57079 0.51896 1.09820
 O2216 O 0.59366 0.51901 1.12115
 C2217 C 0.57773 0.52575 1.11415
 C2218 C 0.56752 0.54208 1.12428
 C2219 C 0.57493 0.54969 1.14199
 H2220 H 0.58778 0.54318 1.14877
 O2221 O 0.48086 0.40232 1.07140
 O2222 O 0.48081 0.37932 1.09425
 C2223 C 0.47412 0.38635 1.07828
 C2224 C 0.45790 0.37620 1.06793
 C2225 C 0.45032 0.35846 1.07526
 H2226 H 0.45676 0.35167 1.08817
 O2227 O 0.51903 0.59788 1.07118
 O2228 O 0.51912 0.62078 1.09409
 C2229 C 0.52581 0.61381 1.07811
 C2230 C 0.54205 0.62395 1.06779
 C2231 C 0.54965 0.64168 1.07513
 H2232 H 0.54318 0.64847 1.08801
 O2233 O 0.40231 0.42917 1.01934
 O2234 O 0.37942 0.40628 1.01942
 C2235 C 0.38639 0.42223 1.02615
 C2236 C 0.37625 0.43248 1.04247
 C2237 C 0.35854 0.42513 1.05008
 H2238 H 0.35177 0.41227 1.04359
 O2239 O 0.59767 0.57088 1.01937
 O2240 O 0.62059 0.59373 1.01942
 C2241 C 0.61360 0.57780 1.02617
 C2242 C 0.62372 0.56752 1.04250
 C2243 C 0.64142 0.57487 1.05014
 H2244 H 0.64818 0.58775 1.04367
 O2245 O 0.51912 0.57098 1.09814
 O2246 O 0.51920 0.59382 1.12112
 C2247 C 0.52591 0.57788 1.11410
 C2248 C 0.54219 0.56760 1.12425
 C2249 C 0.54986 0.57496 1.14197
 H2250 H 0.54345 0.58787 1.14873
 O2251 O 0.48077 0.42909 1.09845
 O2252 O 0.48070 0.40616 1.12137
 C2253 C 0.47396 0.42211 1.11439
 C2254 C 0.45762 0.43232 1.12452
 C2255 C 0.44988 0.42487 1.14219
 H2256 H 0.45627 0.41195 1.14895
 O2257 O 0.59768 0.51898 1.07131
 O2258 O 0.62063 0.51901 1.09419
 C2259 C 0.61361 0.52575 1.07823
 C2260 C 0.62373 0.54206 1.06795
 C2261 C 0.64143 0.54965 1.07534
 H2262 H 0.64820 0.54316 1.08822
 O2263 O 0.40227 0.48095 1.07130
 O2264 O 0.37932 0.48090 1.09418
 C2265 C 0.38633 0.47417 1.07822
 C2266 C 0.37622 0.45789 1.06793
 C2267 C 0.35851 0.45030 1.07529
 H2268 H 0.35172 0.45677 1.08816
 O2269 O 0.57082 0.59780 1.01930
 O2270 O 0.59367 0.62072 1.01933
 C2271 C 0.57773 0.61374 1.02606
 C2272 C 0.56746 0.62391 1.04233
 C2273 C 0.57480 0.64164 1.04990
 H2274 H 0.58767 0.64840 1.04340
 O2275 O 0.42921 0.40231 1.01929
 O2276 O 0.40639 0.37935 1.01936
 C2277 C 0.42232 0.38636 1.02608
 C2278 C 0.43258 0.37621 1.04239
 C2279 C 0.42525 0.35846 1.04996
 H2280 H 0.41243 0.35167 1.04343
 O2281 O 0.57095 0.48060 1.09839
 O2282 O 0.59384 0.48060 1.12133
 C2283 C 0.57791 0.47385 1.11437
 C2284 C 0.56769 0.45755 1.12457
 C2285 C 0.57518 0.44978 1.14221
 H2286 H 0.58813 0.45614 1.14892
 O2287 O 0.42903 0.51927 1.09831
 O2288 O 0.40616 0.51929 1.12126
 C2289 C 0.42209 0.52603 1.11427
 C2290 C 0.43233 0.54233 1.12441
 C2291 C 0.42492 0.55003 1.14210
 H2292 H 0.41201 0.54363 1.14887
 O2293 O 0.48069 0.59793 1.07133
 O2294 O 0.48074 0.62083 1.09425
 C2295 C 0.47394 0.61386 1.07831
 C2296 C 0.45759 0.62400 1.06812
 C2297 C 0.44992 0.64164 1.07561
 H2298 H 0.45639 0.64837 1.08851
 O2299 O 0.51919 0.40234 1.07146
 O2300 O 0.51917 0.37934 1.09432
 C2301 C 0.52594 0.38638 1.07838
 C2302 C 0.54225 0.37625 1.06812
 C2303 C 0.54989 0.35857 1.07557
 H2304 H 0.54344 0.35184 1.08850
 O2305 O 0.59784 0.42900 1.01931
 O2306 O 0.62076 0.40613 1.01935
 C2307 C 0.61377 0.42207 1.02609
 C2308 C 0.62389 0.43230 1.04242
 C2309 C 0.64160 0.42493 1.05005
 H2310 H 0.64839 0.41209 1.04355
 O2311 O 0.40210 0.57106 1.01949
 O2312 O 0.37913 0.59388 1.01943
 C2313 C 0.38613 0.57796 1.02622
 C2314 C 0.37598 0.56771 1.04254
 C2315 C 0.35829 0.57510 1.05017
 H2316 H 0.35153 0.58797 1.04368
 Cu2317 Cu 0.49998 0.41802 1.08267
 Cu2318 Cu 0.49994 0.39044 1.11014
 Cu2319 Cu 0.49990 0.58215 1.08241
 Cu2320 Cu 0.49998 0.60961 1.10997
 Cu2321 Cu 0.41799 0.41802 1.00009
 Cu2322 Cu 0.39056 0.39050 1.00017
 Cu2323 Cu 0.58210 0.41785 1.00012
 Cu2324 Cu 0.60956 0.39035 1.00016
 Cu2325 Cu 0.41786 0.58224 1.00032
 Cu2326 Cu 0.39033 0.60967 1.00024
 Cu2327 Cu 0.58200 0.58206 1.00012
 Cu2328 Cu 0.60948 0.60953 1.00015
 Cu2329 Cu 0.41790 0.50012 1.08255
 Cu2330 Cu 0.39040 0.50008 1.11006
 Cu2331 Cu 0.58198 0.49978 1.08252
 Cu2332 Cu 0.60949 0.49982 1.11002
 C2333 C 0.55107 0.44879 1.11601
 H2334 H 0.54543 0.45447 1.10223
 C2335 C 0.56634 0.43342 1.15099
 C2336 C 0.44889 0.55115 1.11577
 H2337 H 0.45449 0.54552 1.10197
 C2338 C 0.43378 0.56637 1.15086
 C2339 C 0.38461 0.55118 1.05146
 H2340 H 0.39841 0.54560 1.04587
 C2341 C 0.34952 0.56627 1.06656
 C2342 C 0.61523 0.44879 1.05136
 H2343 H 0.60141 0.45436 1.04577
 C2344 C 0.65035 0.43375 1.06643
 C2345 C 0.55111 0.38483 1.05151
 H2346 H 0.54550 0.39862 1.04587
 C2347 C 0.56621 0.34977 1.06673
 C2348 C 0.44871 0.61543 1.05155
 H2349 H 0.45434 0.60167 1.04588
 C2350 C 0.43353 0.65041 1.06683
 C2351 C 0.44881 0.44892 1.11589
 H2352 H 0.45447 0.45456 1.10211
 C2353 C 0.43352 0.43372 1.15094
 C2354 C 0.55102 0.55102 1.11563
 H2355 H 0.54541 0.54544 1.10181
 C2356 C 0.56615 0.56606 1.15077
 C2357 C 0.44905 0.38486 1.05136
 H2358 H 0.45458 0.39871 1.04582
 C2359 C 0.43407 0.34966 1.06632
 C2360 C 0.55094 0.61530 1.05125
 H2361 H 0.54540 0.60146 1.04571
 C2362 C 0.56595 0.65045 1.06623
 C2363 C 0.38488 0.44899 1.05139
 H2364 H 0.39870 0.45455 1.04583
 C2365 C 0.34973 0.43399 1.06641
 C2366 C 0.61509 0.55098 1.05140
 H2367 H 0.60129 0.54542 1.04581
 C2368 C 0.65021 0.56599 1.06649
 C2369 C 1.12466 1.09875 1.23813
 C2370 C 1.10765 1.10682 1.22991
 C2371 C 1.09952 1.12385 1.23800
 C2372 C 1.10830 1.13277 1.25428
 C2373 C 1.12540 1.12477 1.26275
 C2374 C 1.13348 1.10764 1.25442
 C2375 C 1.09858 1.09772 1.21312
 C2376 C 1.09099 1.09023 1.19899
 C2377 C 1.08220 1.08162 1.18230
 C2378 C 1.07486 1.07442 1.16789
 H2379 H 1.13111 1.08559 1.23195
 H2380 H 1.08637 1.13025 1.23172
 H2381 H 1.10158 1.14589 1.26014
 H2382 H 1.14661 1.10101 1.26040
 C2383 C 1.09968 0.62404 0.73786
 C2384 C 1.10763 0.60684 0.72996
 C2385 C 1.12446 0.59860 0.73837
 C2386 C 1.13329 0.60748 0.75467
 C2387 C 1.12538 0.62478 0.76281
 C2388 C 1.10846 0.63296 0.75414
 C2389 C 1.09857 0.59774 0.71316
 C2390 C 1.09099 0.59024 0.69902
 C2391 C 1.08221 0.58162 0.68233
 C2392 C 1.07487 0.57441 0.66792
 H2393 H 1.08667 0.63058 0.73143
 H2394 H 1.13078 0.58530 0.73234
 H2395 H 1.14626 0.60071 0.76081
 H2396 H 1.10189 0.64622 0.75986
 C2397 C 0.59928 1.12395 0.73861
 C2398 C 0.60742 1.10696 0.73048
 C2399 C 0.62443 1.09892 0.73868
 C2400 C 0.63328 1.10779 0.75497
 C2401 C 0.62525 1.12495 0.76341
 C2402 C 0.60806 1.13287 0.75490
 C2403 C 0.59839 1.09792 0.71361
 C2404 C 0.59084 1.09049 0.69940
 C2405 C 0.58209 1.08195 0.68265
 C2406 C 0.57477 1.07479 0.66818
 H2407 H 0.58613 1.13035 0.73233
 H2408 H 0.63090 1.08579 0.73245
 H2409 H 0.64640 1.10104 0.76082
 H2410 H 0.60121 1.14597 0.76065
 C2411 C 0.62431 0.59865 1.23864
 C2412 C 0.60733 0.60674 1.23039
 C2413 C 0.59927 0.62384 1.23840
 C2414 C 0.60811 0.63281 1.25462
 C2415 C 0.62520 0.62480 1.26311
 C2416 C 0.63319 0.60758 1.25487
 C2417 C 0.59826 0.59764 1.21360
 C2418 C 0.59068 0.59016 1.19944
 C2419 C 0.58191 0.58157 1.18273
 C2420 C 0.57460 0.57440 1.16828
 H2421 H 0.63070 0.58543 1.23251
 H2422 H 0.58615 0.63027 1.23210
 H2423 H 0.60148 0.64602 1.26040
 H2424 H 0.64628 0.60092 1.26088
 C2425 C 0.90075 0.87627 1.23880
 C2426 C 0.89262 0.89326 1.23065
 C2427 C 0.87561 0.90132 1.23884
 C2428 C 0.86675 0.89244 1.25514
 C2429 C 0.87478 0.87527 1.26360
 C2430 C 0.89196 0.86735 1.25510
 C2431 C 0.90167 0.90230 1.21378
 C2432 C 0.90923 0.90972 1.19956
 C2433 C 0.91800 0.91824 1.18279
 C2434 C 0.92533 0.92537 1.16831
 H2435 H 0.91390 0.86987 1.23253
 H2436 H 0.86917 0.91447 1.23260
 H2437 H 0.85364 0.89920 1.26098
 H2438 H 0.89880 0.85423 1.26086
 C2439 C 0.90016 0.37568 0.73815
 C2440 C 0.89221 0.39283 0.73015
 C2441 C 0.87537 0.40107 0.73850
 C2442 C 0.86654 0.39226 0.75485
 C2443 C 0.87442 0.37496 0.76319
 C2444 C 0.89140 0.36681 0.75448
 C2445 C 0.90130 0.40187 0.71330
 C2446 C 0.90892 0.40931 0.69914
 C2447 C 0.91777 0.41787 0.68242
 C2448 C 0.92516 0.42504 0.66799
 H2449 H 0.91318 0.36914 0.73176
 H2450 H 0.86905 0.41434 0.73238
 H2451 H 0.85356 0.39916 0.76083
 H2452 H 0.89811 0.35359 0.76014
 C2453 C 0.37560 0.90165 0.73863
 C2454 C 0.39256 0.89352 0.73038
 C2455 C 0.40066 0.87647 0.73849
 C2456 C 0.39187 0.86758 0.75480
 C2457 C 0.37481 0.87562 0.76329
 C2458 C 0.36678 0.89279 0.75496
 C2459 C 0.40160 0.90255 0.71351
 C2460 C 0.40916 0.90999 0.69931
 C2461 C 0.41792 0.91852 0.68255
 C2462 C 0.42522 0.92567 0.66807
 H2463 H 0.36919 0.91484 0.73245
 H2464 H 0.41376 0.87001 0.73218
 H2465 H 0.39849 0.85437 0.76062
 H2466 H 0.35372 0.89949 0.76101
 C2467 C 0.37493 0.40129 1.23873
 C2468 C 0.39190 0.39316 1.23052
 C2469 C 0.39993 0.37611 1.23864
 C2470 C 0.39111 0.36721 1.25493
 C2471 C 0.37399 0.37524 1.26348
 C2472 C 0.36604 0.39245 1.25504
 C2473 C 0.40103 0.40221 1.21370
 C2474 C 0.40869 0.40964 1.19955
 C2475 C 0.41758 0.41818 1.18285
 C2476 C 0.42499 0.42534 1.16842
 H2477 H 0.36854 0.41449 1.23253
 H2478 H 0.41306 0.36966 1.23236
 H2479 H 0.39789 0.35406 1.26066
 H2480 H 0.35296 0.39925 1.26089
 C2481 C 0.87562 1.09853 0.76135
 C2482 C 0.89258 1.10667 0.76957
 C2483 C 0.90062 1.12373 0.76145
 C2484 C 0.89180 1.13261 0.74515
 C2485 C 0.87474 1.12454 0.73669
 C2486 C 0.86675 1.10738 0.74504
 C2487 C 0.90167 1.09765 0.78641
 C2488 C 0.90928 1.09023 0.80060
 C2489 C 0.91810 1.08172 0.81734
 C2490 C 0.92546 1.07459 0.83180
 H2491 H 0.86923 1.08533 0.76755
 H2492 H 0.91372 1.13020 0.76773
 H2493 H 0.89839 1.14582 0.73932
 H2494 H 0.85370 1.10066 0.73901
 C2495 C 0.87564 0.59856 0.26158
 C2496 C 0.89264 0.60665 0.26976
 C2497 C 0.90068 0.62373 0.26169
 C2498 C 0.89180 0.63269 0.24547
 C2499 C 0.87470 0.62468 0.23704
 C2500 C 0.86672 0.60749 0.24534
 C2501 C 0.90178 0.59754 0.28653
 C2502 C 0.90942 0.59006 0.30066
 C2503 C 0.91827 0.58148 0.31735
 C2504 C 0.92563 0.57431 0.33178
 H2505 H 0.86926 0.58535 0.26775
 H2506 H 0.91382 0.63015 0.26794
 H2507 H 0.89844 0.64587 0.23963
 H2508 H 0.85361 0.60084 0.23938
 C2509 C 0.40059 1.12374 0.26161
 C2510 C 0.39256 1.10664 0.26963
 C2511 C 0.37559 1.09853 0.26140
 C2512 C 0.36669 1.10748 0.24516
 C2513 C 0.37465 1.12470 0.23691
 C2514 C 0.39173 1.13272 0.24538
 C2515 C 0.40165 1.09753 0.28643
 C2516 C 0.40925 1.09006 0.30059
 C2517 C 0.41803 1.08150 0.31732
 C2518 C 0.42535 1.07435 0.33179
 H2519 H 0.41370 1.13018 0.26790
 H2520 H 0.36922 1.08530 0.26753
 H2521 H 0.35361 1.10081 0.23915
 H2522 H 0.39834 1.14594 0.23960
 C2523 C 0.40043 0.62386 0.76177
 C2524 C 0.39214 0.60702 0.77010
 C2525 C 0.37497 0.59912 0.76210
 C2526 C 0.36612 0.60799 0.74579
 C2527 C 0.37437 0.62492 0.73721
 C2528 C 0.39163 0.63276 0.74547
 C2529 C 0.40124 0.59795 0.78691
 C2530 C 0.40889 0.59047 0.80104
 C2531 C 0.41775 0.58187 0.81771
 C2532 C 0.42515 0.57467 0.83211
 H2533 H 0.41371 0.63013 0.76786
 H2534 H 0.36840 0.58610 0.76847
 H2535 H 0.35287 0.60149 0.73997
 H2536 H 0.39846 0.64575 0.73943
 C2537 C 1.12454 0.90107 0.76167
 C2538 C 1.10752 0.89302 0.76988
 C2539 C 1.09939 0.87601 0.76179
 C2540 C 1.10818 0.86708 0.74551
 C2541 C 1.12529 0.87506 0.73704
 C2542 C 1.13337 0.89217 0.74538
 C2543 C 1.09845 0.90214 0.78667
 C2544 C 1.09087 0.90964 0.80080
 C2545 C 1.08209 0.91828 0.81749
 C2546 C 1.07475 0.92549 0.83191
 H2547 H 1.13099 0.91422 0.76786
 H2548 H 1.08624 0.86963 0.76806
 H2549 H 1.10146 0.85397 0.73963
 H2550 H 1.14651 0.89878 0.73941
 C2551 C 1.12440 0.40134 0.26134
 C2552 C 1.10743 0.39325 0.26960
 C2553 C 1.09938 0.37616 0.26160
 C2554 C 1.10822 0.36718 0.24538
 C2555 C 1.12530 0.37518 0.23688
 C2556 C 1.13328 0.39239 0.24511
 C2557 C 1.09837 0.40236 0.28639
 C2558 C 1.09080 0.40985 0.30055
 C2559 C 1.08204 0.41843 0.31727
 C2560 C 1.07473 0.42559 0.33173
 H2561 H 1.13079 0.41456 0.26745
 H2562 H 1.08626 0.36974 0.26791
 H2563 H 1.10159 0.35397 0.23961
 H2564 H 1.14637 0.39905 0.23908
 C2565 C 0.59936 0.87608 0.26183
 C2566 C 0.60745 0.89313 0.26989
 C2567 C 0.62446 0.90119 0.26169
 C2568 C 0.63333 0.89227 0.24543
 C2569 C 0.62529 0.87513 0.23712
 C2570 C 0.60819 0.86714 0.24558
 C2571 C 0.59835 0.90225 0.28666
 C2572 C 0.59073 0.90976 0.30078
 C2573 C 0.58191 0.91837 0.31744
 C2574 C 0.57454 0.92557 0.33185
 H2575 H 0.58621 0.86969 0.26810
 H2576 H 0.63088 0.91436 0.26786
 H2577 H 0.64645 0.89890 0.23945
 H2578 H 0.60149 0.85400 0.23973
 C2579 C 0.62466 0.40120 0.76176
 C2580 C 0.60764 0.39316 0.76997
 C2581 C 0.59951 0.37615 0.76187
 C2582 C 0.60830 0.36722 0.74560
 C2583 C 0.62541 0.37520 0.73714
 C2584 C 0.63349 0.39231 0.74548
 C2585 C 0.59857 0.40226 0.78676
 C2586 C 0.59097 0.40976 0.80090
 C2587 C 0.58217 0.41838 0.81758
 C2588 C 0.57481 0.42558 0.83200
 H2589 H 0.63111 0.41436 0.76795
 H2590 H 0.58635 0.36976 0.76813
 H2591 H 0.60158 0.35411 0.73972
 H2592 H 0.64663 0.39892 0.73951
 C2593 C 1.23826 1.09868 1.12409
 C2594 C 1.22997 1.10676 1.10708
 C2595 C 1.23796 1.12384 1.09895
 C2596 C 1.25418 1.13281 1.10774
 C2597 C 1.26269 1.12481 1.12486
 C2598 C 1.25449 1.10761 1.13292
 C2599 C 1.21318 1.09765 1.09807
 C2600 C 1.19903 1.09015 1.09056
 C2601 C 1.18232 1.08153 1.08187
 C2602 C 1.16787 1.07435 1.07461
 H2603 H 1.23216 1.08547 1.13054
 H2604 H 1.23163 1.13027 1.08581
 H2605 H 1.25994 1.14601 1.10106
 H2606 H 1.26053 1.10096 1.14603
 C2607 C 1.23837 0.59884 0.62386
 C2608 C 1.23025 0.60680 0.60672
 C2609 C 1.23839 0.62377 0.59848
 C2610 C 1.25456 0.63278 0.60736
 C2611 C 1.26284 0.62494 0.62466
 C2612 C 1.25452 0.60782 0.63278
 C2613 C 1.21344 0.59769 0.59772
 C2614 C 1.19925 0.59015 0.59028
 C2615 C 1.18250 0.58148 0.58172
 C2616 C 1.16802 0.57426 0.57455
 H2617 H 1.23215 0.58573 0.63039
 H2618 H 1.23223 0.63007 0.58522
 H2619 H 1.26050 0.64585 0.60058
 H2620 H 1.26034 0.60134 0.64609
 C2621 C 0.73875 1.12367 0.59807
 C2622 C 0.73078 1.10652 0.60610
 C2623 C 0.73910 1.09834 0.62303
 C2624 C 0.75528 1.10728 0.63195
 C2625 C 0.76340 1.12460 0.62407
 C2626 C 0.75493 1.13264 0.60695
 C2627 C 0.71387 1.09752 0.59716
 C2628 C 0.69959 1.09010 0.58979
 C2629 C 0.68270 1.08158 0.58131
 C2630 C 0.66812 1.07449 0.57423
 H2631 H 0.73240 1.13016 0.58497
 H2632 H 0.73303 1.08508 0.62942
 H2633 H 0.76127 1.10060 0.64508
 H2634 H 0.76069 1.14588 0.60035
 C2635 C 0.73806 0.59870 1.12437
 C2636 C 0.72979 0.60677 1.10736
 C2637 C 0.73781 0.62381 1.09918
 C2638 C 0.75406 0.63276 1.10794
 C2639 C 0.76257 0.62477 1.12506
 C2640 C 0.75432 0.60762 1.13317
 C2641 C 0.71300 0.59766 1.09835
 C2642 C 0.69885 0.59015 1.09084
 C2643 C 0.68214 0.58152 1.08215
 C2644 C 0.66771 0.57433 1.07489
 H2645 H 0.73194 0.58552 1.13086
 H2646 H 0.73149 0.63022 1.08602
 H2647 H 0.75986 0.64591 1.10120
 H2648 H 0.76034 0.60098 1.14630
 C2649 C 1.23922 0.90185 0.87695
 C2650 C 1.23088 0.89366 0.89387
 C2651 C 1.23885 0.87651 0.90190
 C2652 C 1.25504 0.86752 0.89303
 C2653 C 1.26352 0.87556 0.87592
 C2654 C 1.25541 0.89290 0.86804
 C2655 C 1.21397 0.90268 0.90281
 C2656 C 1.19969 0.91010 0.91018
 C2657 C 1.18279 0.91862 0.91865
 C2658 C 1.16819 0.92571 0.92572
 H2659 H 1.23315 0.91512 0.87057
 H2660 H 1.23250 0.87002 0.91500
 H2661 H 1.26079 0.85427 0.89962
 H2662 H 1.26140 0.89958 0.85492
 C2663 C 1.23816 0.37596 0.40029
 C2664 C 1.23007 0.39299 0.39217
 C2665 C 1.23832 0.40111 0.37519
 C2666 C 1.25464 0.39230 0.36637
 C2667 C 1.26305 0.37512 0.37440
 C2668 C 1.25447 0.36709 0.39153
 C2669 C 1.21323 0.40202 0.40123
 C2670 C 1.19906 0.40945 0.40880
 C2671 C 1.18234 0.41800 0.41759
 C2672 C 1.16791 0.42516 0.42493
 H2673 H 1.23186 0.36951 0.41343
 H2674 H 1.23214 0.41429 0.36874
 H2675 H 1.26052 0.39910 0.35327
 H2676 H 1.26018 0.35395 0.39837
 C2677 C 0.73804 0.87630 0.40051
 C2678 C 0.73018 0.89353 0.39255
 C2679 C 0.73867 0.90184 0.37577
 C2680 C 0.75499 0.89298 0.36698
 C2681 C 0.76307 0.87563 0.37486
 C2682 C 0.75435 0.86741 0.39176
 C2683 C 0.71329 0.90255 0.40153
 C2684 C 0.69908 0.90998 0.40903
 C2685 C 0.68230 0.91851 0.41772
 C2686 C 0.66783 0.92565 0.42499
 H2687 H 0.73155 0.86971 0.41349
 H2688 H 0.73267 0.91516 0.36945
 H2689 H 0.76120 0.89982 0.35404
 H2690 H 0.76000 0.85410 0.39831
 C2691 C 0.73791 0.37614 0.90039
 C2692 C 0.72978 0.39315 0.89224
 C2693 C 0.73799 0.40126 0.87521
 C2694 C 0.75431 0.39243 0.86639
 C2695 C 0.76267 0.37532 0.87450
 C2696 C 0.75421 0.36728 0.89162
 C2697 C 0.71296 0.40219 0.90130
 C2698 C 0.69880 0.40963 0.90891
 C2699 C 0.68211 0.41818 0.91773
 C2700 C 0.66769 0.42534 0.92509
 H2701 H 0.73164 0.36971 0.91356
 H2702 H 0.73179 0.41442 0.86874
 H2703 H 0.76028 0.39909 0.85325
 H2704 H 0.76010 0.35417 0.89836
 C2705 C 0.76221 0.87600 1.09927
 C2706 C 0.77025 0.89301 1.10745
 C2707 C 0.76199 0.90107 1.12446
 C2708 C 0.74569 0.89218 1.13324
 C2709 C 0.73740 0.87507 1.12512
 C2710 C 0.74592 0.86708 1.10801
 C2711 C 0.78707 0.90211 1.09844
 C2712 C 0.80122 0.90961 1.09092
 C2713 C 0.81792 0.91823 1.08220
 C2714 C 0.83235 0.92543 1.07490
 H2715 H 0.76852 0.86961 1.08611
 H2716 H 0.76814 0.91422 1.13095
 H2717 H 0.73967 0.89880 1.14637
 H2718 H 0.74008 0.85397 1.10125
 C2719 C 0.76224 0.37597 0.59920
 C2720 C 0.77033 0.39297 0.60738
 C2721 C 0.76210 0.40102 0.62441
 C2722 C 0.74580 0.39215 0.63321
 C2723 C 0.73747 0.37506 0.62508
 C2724 C 0.74595 0.36708 0.60795
 C2725 C 0.78714 0.40205 0.59836
 C2726 C 0.80128 0.40954 0.59081
 C2727 C 0.81798 0.41816 0.58208
 C2728 C 0.83239 0.42536 0.57477
 H2729 H 0.76852 0.36958 0.58603
 H2730 H 0.76828 0.41416 0.63091
 H2731 H 0.73982 0.39878 0.64635
 H2732 H 0.74007 0.35398 0.60119
 C2733 C 0.26214 0.87599 0.59916
 C2734 C 0.27020 0.89299 0.60736
 C2735 C 0.26195 0.90102 0.62439
 C2736 C 0.24565 0.89213 0.63317
 C2737 C 0.23735 0.87503 0.62502
 C2738 C 0.24585 0.86706 0.60789
 C2739 C 0.28700 0.90211 0.59835
 C2740 C 0.30114 0.90963 0.59082
 C2741 C 0.31782 0.91828 0.58209
 C2742 C 0.33223 0.92550 0.57478
 H2743 H 0.26844 0.86962 0.58599
 H2744 H 0.26811 0.91416 0.63089
 H2745 H 0.23966 0.89873 0.64631
 H2746 H 0.24000 0.85396 0.60112
 C2747 C 0.26202 0.37619 1.09898
 C2748 C 0.27000 0.39326 1.10712
 C2749 C 0.26170 0.40132 1.12411
 C2750 C 0.24546 0.39238 1.13293
 C2751 C 0.23726 0.37519 1.12486
 C2752 C 0.24579 0.36721 1.10776
 C2753 C 0.28682 0.40237 1.09814
 C2754 C 0.30099 0.40987 1.09065
 C2755 C 0.31773 0.41848 1.08200
 C2756 C 0.33220 0.42566 1.07478
 H2757 H 0.26837 0.36979 1.08585
 H2758 H 0.26779 0.41452 1.13057
 H2759 H 0.23941 0.39902 1.14603
 H2760 H 0.24004 0.35402 1.10107
 C2761 C 0.76193 1.12386 0.90038
 C2762 C 0.76982 1.10664 0.89246
 C2763 C 0.76136 1.09834 0.87566
 C2764 C 0.74505 1.10719 0.86683
 C2765 C 0.73695 1.12453 0.87468
 C2766 C 0.74564 1.13274 0.89159
 C2767 C 0.78669 1.09763 0.90148
 C2768 C 0.80090 1.09023 0.90903
 C2769 C 0.81766 1.08172 0.91778
 C2770 C 0.83213 1.07460 0.92510
 H2771 H 0.76839 1.13045 0.91335
 H2772 H 0.76738 1.08502 0.86936
 H2773 H 0.73887 1.10036 0.85389
 H2774 H 0.73997 1.14605 0.89812
 C2775 C 0.76205 0.62377 0.40092
 C2776 C 0.77004 0.60670 0.39278
 C2777 C 0.76174 0.59863 0.37580
 C2778 C 0.74547 0.60757 0.36699
 C2779 C 0.73726 0.62476 0.37505
 C2780 C 0.74580 0.63274 0.39215
 C2781 C 0.78687 0.59760 0.40176
 C2782 C 0.80106 0.59011 0.40925
 C2783 C 0.81781 0.58151 0.41792
 C2784 C 0.83228 0.57434 0.42516
 H2785 H 0.76839 0.63018 0.41404
 H2786 H 0.76784 0.58543 0.36934
 H2787 H 0.73942 0.60092 0.35389
 H2788 H 0.74003 0.64593 0.39884
 C2789 C 0.26214 1.12388 0.40075
 C2790 C 0.27026 1.10690 0.39255
 C2791 C 0.26205 1.09886 0.37551
 C2792 C 0.24576 1.10773 0.36670
 C2793 C 0.23740 1.12481 0.37485
 C2794 C 0.24585 1.13278 0.39199
 C2795 C 0.28706 1.09781 0.40159
 C2796 C 0.30121 1.09032 0.40914
 C2797 C 0.31791 1.08172 0.41788
 C2798 C 0.33234 1.07453 0.42519
 H2799 H 0.26841 1.13026 0.41393
 H2800 H 0.26826 1.08572 0.36901
 H2801 H 0.23980 1.10112 0.35355
 H2802 H 0.23996 1.14587 0.39875
 C2803 C 0.26191 0.59876 0.87575
 C2804 C 0.27031 0.60699 0.89261
 C2805 C 0.26238 0.62415 0.90061
 C2806 C 0.24608 0.63304 0.89185
 C2807 C 0.23743 0.62488 0.87489
 C2808 C 0.24561 0.60762 0.86694
 C2809 C 0.28712 0.59791 0.90165
 C2810 C 0.30127 0.59042 0.90921
 C2811 C 0.31796 0.58182 0.91797
 C2812 C 0.33238 0.57462 0.92530
 H2813 H 0.26797 0.58549 0.86939
 H2814 H 0.26879 0.63068 0.91364
 H2815 H 0.24034 0.64627 0.89846
 H2816 H 0.23949 0.60085 0.85394
 C2817 C 1.09920 1.23798 1.12396
 C2818 C 1.10725 1.22982 1.10690
 C2819 C 1.12426 1.23791 1.09876
 C2820 C 1.13319 1.25414 1.10759
 C2821 C 1.12520 1.26254 1.12476
 C2822 C 1.10808 1.25420 1.13283
 C2823 C 1.09812 1.21307 1.09785
 C2824 C 1.09054 1.19895 1.09035
 C2825 C 1.08181 1.18229 1.08171
 C2826 C 1.07453 1.16788 1.07448
 H2827 H 1.08604 1.23179 1.13043
 H2828 H 1.13065 1.23167 1.08557
 H2829 H 1.14631 1.26002 1.10089
 H2830 H 1.10144 1.26012 1.14599
 C2831 C 1.09908 0.73794 0.62391
 C2832 C 1.10714 0.72979 0.60685
 C2833 C 1.12417 0.73788 0.59873
 C2834 C 1.13311 0.75409 0.60759
 C2835 C 1.12512 0.76248 0.62476
 C2836 C 1.10798 0.75415 0.63281
 C2837 C 1.09803 0.71304 0.59778
 C2838 C 1.09046 0.69892 0.59027
 C2839 C 1.08175 0.68224 0.58163
 C2840 C 1.07450 0.66782 0.57441
 H2841 H 1.08591 0.73176 0.63035
 H2842 H 1.13057 0.73165 0.58554
 H2843 H 1.14625 0.75996 0.60090
 H2844 H 1.10133 0.76006 0.64597
 C2845 C 0.62414 1.23808 0.59877
 C2846 C 0.60710 1.23002 0.60689
 C2847 C 0.59905 1.23816 0.62395
 C2848 C 0.60797 1.25435 0.63287
 C2849 C 0.62512 1.26266 0.62482
 C2850 C 0.63310 1.25427 0.60765
 C2851 C 0.59796 1.21329 0.59780
 C2852 C 0.59038 1.19919 0.59029
 C2853 C 0.58165 1.18252 0.58163
 C2854 C 0.57438 1.16811 0.57441
 H2855 H 0.63053 1.23185 0.58558
 H2856 H 0.58588 1.23199 0.63039
 H2857 H 0.60133 1.26026 0.64603
 H2858 H 0.64625 1.26013 0.60096
 C2859 C 0.62407 0.73803 1.09877
 C2860 C 0.60704 0.72995 1.10690
 C2861 C 0.59899 0.73812 1.12396
 C2862 C 0.60790 0.75432 1.13285
 C2863 C 0.62504 0.76264 1.12478
 C2864 C 0.63302 0.75424 1.10762
 C2865 C 0.59791 0.71320 1.09785
 C2866 C 0.59033 0.69907 1.09037
 C2867 C 0.58160 0.68239 1.08176
 C2868 C 0.57433 0.66795 1.07457
 H2869 H 0.63046 0.73178 1.08558
 H2870 H 0.58582 0.73194 1.13041
 H2871 H 0.60125 0.76025 1.14600
 H2872 H 0.64616 0.76010 1.10092
 C2873 C 0.90102 1.23823 0.87574
 C2874 C 0.89295 1.23008 0.89280
 C2875 C 0.87593 1.23820 0.90092
 C2876 C 0.86701 1.25444 0.89204
 C2877 C 0.87501 1.26282 0.87486
 C2878 C 0.89214 1.25447 0.86682
 C2879 C 0.90205 1.21330 0.90190
 C2880 C 0.90961 1.19916 0.90942
 C2881 C 0.91831 1.18245 0.91808
 C2882 C 0.92557 1.16801 0.92531
 H2883 H 0.91418 1.23203 0.86930
 H2884 H 0.86952 1.23197 0.91411
 H2885 H 0.85388 1.26033 0.89872
 H2886 H 0.89880 1.26038 0.85366
 C2887 C 0.90099 0.73809 0.37558
 C2888 C 0.89291 0.72989 0.39262
 C2889 C 0.87590 0.73801 0.40077
 C2890 C 0.86701 0.75430 0.39195
 C2891 C 0.87503 0.76274 0.37481
 C2892 C 0.89213 0.75437 0.36673
 C2893 C 0.90201 0.71309 0.40167
 C2894 C 0.90958 0.69894 0.40917
 C2895 C 0.91830 0.68224 0.41782
 C2896 C 0.92558 0.66780 0.42505
 H2897 H 0.91414 0.73189 0.36912
 H2898 H 0.86949 0.73175 0.41394
 H2899 H 0.85389 0.76018 0.39865
 H2900 H 0.89879 0.76031 0.35358
 C2901 C 0.37553 1.23833 0.40099
 C2902 C 0.39255 1.23023 0.39284
 C2903 C 0.40060 1.23843 0.37579
 C2904 C 0.39170 1.25468 0.36692
 C2905 C 0.37458 1.26302 0.37500
 C2906 C 0.36660 1.25459 0.39216
 C2907 C 0.40168 1.21344 0.40189
 C2908 C 0.40926 1.19930 0.40938
 C2909 C 0.41801 1.18260 0.41802
 C2910 C 0.42530 1.16817 0.42525
 H2911 H 0.36914 1.23207 0.41418
 H2912 H 0.41376 1.23225 0.36932
 H2913 H 0.39834 1.26063 0.35376
 H2914 H 0.35346 1.26046 0.39886
 C2915 C 0.40093 0.73882 0.87688
 C2916 C 0.39270 0.73052 0.89380
 C2917 C 0.37551 0.73847 0.90173
 C2918 C 0.36655 0.75466 0.89278
 C2919 C 0.37468 0.76314 0.87573
 C2920 C 0.39202 0.75500 0.86791
 C2921 C 0.40181 0.71371 0.90285
 C2922 C 0.40939 0.69953 0.91026
 C2923 C 0.41815 0.68277 0.91875
 C2924 C 0.42544 0.66827 0.92585
 H2925 H 0.41421 0.73275 0.87058
 H2926 H 0.36899 0.73214 0.91482
 H2927 H 0.35331 0.76048 0.89933
 H2928 H 0.39871 0.76094 0.85478
 C2929 C 1.12429 0.76210 0.90100
 C2930 C 1.10725 0.77019 0.89290
 C2931 C 1.09918 0.76204 0.87585
 C2932 C 1.10808 0.74584 0.86694
 C2933 C 1.12523 0.73750 0.87497
 C2934 C 1.13323 0.74589 0.89213
 C2935 C 1.09811 0.78693 0.90200
 C2936 C 1.09054 0.80103 0.90953
 C2937 C 1.08181 0.81769 0.91822
 C2938 C 1.07454 0.83210 0.92547
 H2939 H 1.13069 0.76833 0.91419
 H2940 H 1.08600 0.76822 0.86942
 H2941 H 1.10143 0.73992 0.85378
 H2942 H 1.14638 0.74003 0.89881
 C2943 C 1.09903 0.26183 0.37595
 C2944 C 1.10709 0.26997 0.39301
 C2945 C 1.12414 0.26188 0.40111
 C2946 C 1.13309 0.24568 0.39223
 C2947 C 1.12510 0.23730 0.37507
 C2948 C 1.10794 0.24563 0.36704
 C2949 C 1.09797 0.28671 0.40209
 C2950 C 1.09041 0.30083 0.40960
 C2951 C 1.08171 0.31752 0.41825
 C2952 C 1.07446 0.33195 0.42548
 H2953 H 1.08585 0.26801 0.36953
 H2954 H 1.13054 0.26811 0.41430
 H2955 H 1.14624 0.23982 0.39891
 H2956 H 1.10129 0.23972 0.35388
 C2957 C 0.59911 0.76203 0.37605
 C2958 C 0.60718 0.77020 0.39310
 C2959 C 0.62420 0.76209 0.40123
 C2960 C 0.63311 0.74584 0.39240
 C2961 C 0.62511 0.73744 0.37525
 C2962 C 0.60799 0.74579 0.36718
 C2963 C 0.59806 0.78698 0.40214
 C2964 C 0.59049 0.80111 0.40963
 C2965 C 0.58176 0.81780 0.41824
 C2966 C 0.57447 0.83223 0.42544
 H2967 H 0.58595 0.76823 0.36960
 H2968 H 0.63060 0.76833 0.41441
 H2969 H 0.64624 0.73996 0.39910
 H2970 H 0.60133 0.73987 0.35403
 C2971 C 0.59911 0.26203 0.87557
 C2972 C 0.60724 0.27017 0.89260
 C2973 C 0.62427 0.26202 0.90067
 C2974 C 0.63313 0.24576 0.89180
 C2975 C 0.62505 0.23737 0.87467
 C2976 C 0.60793 0.24577 0.86666
 C2977 C 0.59818 0.28695 0.90172
 C2978 C 0.59066 0.30107 0.90929
 C2979 C 0.58199 0.31775 0.91802
 C2980 C 0.57474 0.33216 0.92531
 H2981 H 0.58594 0.26825 0.86916
 H2982 H 0.63073 0.26823 0.91383
 H2983 H 0.64627 0.23985 0.89845
 H2984 H 0.60122 0.23986 0.85353
 C2985 C 0.90086 0.76186 1.12396
 C2986 C 0.89283 0.77004 1.10690
 C2987 C 0.87581 0.76198 1.09874
 C2988 C 0.86685 0.74575 1.10758
 C2989 C 0.87482 0.73732 1.12476
 C2990 C 0.89194 0.74563 1.13284
 C2991 C 0.90197 0.78681 1.09785
 C2992 C 0.90957 0.80094 1.09038
 C2993 C 0.91833 0.81763 1.08178
 C2994 C 0.92562 0.83206 1.07458
 H2995 H 0.91401 0.76802 1.13043
 H2996 H 0.86944 0.76824 1.08555
 H2997 H 0.85373 0.73990 1.10087
 H2998 H 0.89857 0.73969 1.14600
 C2999 C 0.90092 0.26116 0.62307
 C3000 C 0.89273 0.26948 0.60615
 C3001 C 0.87553 0.26157 0.59820
 C3002 C 0.86655 0.24539 0.60713
 C3003 C 0.87465 0.23689 0.62420
 C3004 C 0.89198 0.24500 0.63204
 C3005 C 0.90186 0.28627 0.59713
 C3006 C 0.90948 0.30045 0.58974
 C3007 C 0.91828 0.31720 0.58129
 C3008 C 0.92560 0.33169 0.57422
 H3009 H 0.91420 0.26721 0.62940
 H3010 H 0.86904 0.26792 0.58510
 H3011 H 0.85331 0.23960 0.60057
 H3012 H 0.89865 0.23904 0.64517
 C3013 C 0.40099 0.76133 0.62308
 C3014 C 0.39279 0.76964 0.60616
 C3015 C 0.37557 0.76175 0.59823
 C3016 C 0.36657 0.74561 0.60720
 C3017 C 0.37467 0.73711 0.62427
 C3018 C 0.39202 0.74521 0.63208
 C3019 C 0.40194 0.78642 0.59712
 C3020 C 0.40957 0.80059 0.58975
 C3021 C 0.41836 0.81736 0.58131
 C3022 C 0.42565 0.83187 0.57427
 H3023 H 0.41428 0.76736 0.62939
 H3024 H 0.36908 0.76810 0.58514
 H3025 H 0.35330 0.73984 0.60067
 H3026 H 0.39870 0.73927 0.64522
 C3027 C 0.40088 0.26193 1.12397
 C3028 C 0.39287 0.27011 1.10690
 C3029 C 0.37586 0.26205 1.09872
 C3030 C 0.36690 0.24582 1.10755
 C3031 C 0.37485 0.23739 1.12473
 C3032 C 0.39196 0.24570 1.13283
 C3033 C 0.40203 0.28688 1.09787
 C3034 C 0.40963 0.30101 1.09041
 C3035 C 0.41840 0.31770 1.08182
 C3036 C 0.42569 0.33214 1.07465
 H3037 H 0.41403 0.26809 1.13046
 H3038 H 0.36951 0.26832 1.08552
 H3039 H 0.35378 0.23996 1.10082
 H3040 H 0.39858 0.23976 1.14601
 C3041 C 1.09888 1.12490 0.76132
 C3042 C 1.10709 1.10804 0.76969
 C3043 C 1.12421 1.10005 0.76169
 C3044 C 1.13308 1.10880 0.74535
 C3045 C 1.12496 1.12581 0.73663
 C3046 C 1.10770 1.13373 0.74496
 C3047 C 1.09803 1.09896 0.78654
 C3048 C 1.09059 1.09134 0.80071
 C3049 C 1.08204 1.08249 0.81743
 C3050 C 1.07489 1.07510 0.83187
 H3051 H 1.08565 1.13127 0.76743
 H3052 H 1.13073 1.08702 0.76810
 H3053 H 1.14628 1.10207 0.73970
 H3054 H 1.10083 1.14673 0.73899
 C3055 C 1.09896 0.62481 0.26126
 C3056 C 1.10695 0.60771 0.26936
 C3057 C 1.12386 0.59953 0.26112
 C3058 C 1.13276 0.60835 0.24483
 C3059 C 1.12489 0.62562 0.23642
 C3060 C 1.10781 0.63370 0.24496
 C3061 C 1.09793 0.59862 0.28622
 C3062 C 1.09052 0.59101 0.30042
 C3063 C 1.08201 0.58219 0.31718
 C3064 C 1.07488 0.57483 0.33165
 H3065 H 1.08587 0.63130 0.26756
 H3066 H 1.13021 0.58631 0.26730
 H3067 H 1.14581 0.60148 0.23901
 H3068 H 1.10111 0.64689 0.23921
 C3069 C 0.62430 1.09979 0.26185
 C3070 C 0.60716 1.10782 0.26978
 C3071 C 0.59902 1.12469 0.26137
 C3072 C 0.60791 1.13348 0.24504
 C3073 C 0.62519 1.12552 0.23678
 C3074 C 0.63324 1.10852 0.24554
 C3075 C 0.59802 1.09878 0.28659
 C3076 C 0.59047 1.09122 0.30074
 C3077 C 0.58179 1.08245 0.31742
 C3078 C 0.57453 1.07510 0.33183
 H3079 H 0.63076 1.08674 0.26829
 H3080 H 0.58576 1.13107 0.26743
 H3081 H 0.60107 1.14649 0.23904
 H3082 H 0.64646 1.10176 0.23994
 C3083 C 0.62408 0.59955 0.76205
 C3084 C 0.60687 0.60751 0.76990
 C3085 C 0.59866 0.62433 0.76143
 C3086 C 0.60757 0.63313 0.74512
 C3087 C 0.62488 0.62521 0.73703
 C3088 C 0.63304 0.60830 0.74575
 C3089 C 0.59772 0.59847 0.78670
 C3090 C 0.59020 0.59092 0.80086
 C3091 C 0.58159 0.58219 0.81759
 C3092 C 0.57441 0.57489 0.83206
 H3093 H 0.63060 0.58654 0.76853
 H3094 H 0.58534 0.63066 0.76741
 H3095 H 0.60081 0.64610 0.73894
 H3096 H 0.64632 0.60172 0.74009
 C3097 C 0.87632 0.90083 0.76152
 C3098 C 0.89323 0.89258 0.76975
 C3099 C 0.90115 0.87543 0.76169
 C3100 C 0.89222 0.86657 0.74544
 C3101 C 0.87519 0.87474 0.73699
 C3102 C 0.86736 0.89201 0.74528
 C3103 C 0.90232 0.90165 0.78656
 C3104 C 0.90980 0.90923 0.80072
 C3105 C 0.91837 0.91800 0.81744
 C3106 C 0.92554 0.92533 0.83189
 H3107 H 0.87003 0.91409 0.76767
 H3108 H 0.91422 0.86889 0.76797
 H3109 H 0.89874 0.85333 0.73958
 H3110 H 0.85431 0.89880 0.73933
 C3111 C 0.90107 0.37523 0.26140
 C3112 C 0.89301 0.39222 0.26963
 C3113 C 0.87599 0.40034 0.26155
 C3114 C 0.86705 0.39157 0.24528
 C3115 C 0.87500 0.37443 0.23671
 C3116 C 0.89219 0.36640 0.24511
 C3117 C 0.90212 0.40128 0.28644
 C3118 C 0.90962 0.40886 0.30058
 C3119 C 0.91824 0.41765 0.31728
 C3120 C 0.92545 0.42500 0.33170
 H3121 H 0.91424 0.36879 0.26758
 H3122 H 0.86959 0.41348 0.26784
 H3123 H 0.85392 0.39840 0.23956
 H3124 H 0.89894 0.35329 0.23925
 C3125 C 0.40114 0.87504 0.26132
 C3126 C 0.39289 0.89189 0.26965
 C3127 C 0.37577 0.89984 0.26163
 C3128 C 0.36693 0.89107 0.24530
 C3129 C 0.37508 0.87408 0.23662
 C3130 C 0.39235 0.86619 0.24498
 C3131 C 0.40191 0.90099 0.28650
 C3132 C 0.40933 0.90862 0.30067
 C3133 C 0.41787 0.91748 0.31737
 C3134 C 0.42503 0.92488 0.33179
 H3135 H 0.41439 0.86871 0.26746
 H3136 H 0.36922 0.91288 0.26799
 H3137 H 0.35372 0.89778 0.23962
 H3138 H 0.39926 0.85320 0.23902
 C3139 C 0.40162 0.37544 0.76143
 C3140 C 0.39347 0.39241 0.76966
 C3141 C 0.37640 0.40045 0.76157
 C3142 C 0.36750 0.39160 0.74531
 C3143 C 0.37556 0.37453 0.73685
 C3144 C 0.39275 0.36656 0.74515
 C3145 C 0.40250 0.40150 0.78650
 C3146 C 0.40991 0.40910 0.80068
 C3147 C 0.41841 0.41791 0.81743
 C3148 C 0.42553 0.42525 0.83190
 H3149 H 0.41483 0.36906 0.76760
 H3150 H 0.36993 0.41356 0.76785
 H3151 H 0.35431 0.39823 0.73949
 H3152 H 0.39945 0.35347 0.73916
 C3153 C 1.12392 0.90018 1.23838
 C3154 C 1.10691 0.89208 1.23025
 C3155 C 1.09883 0.87506 1.23845
 C3156 C 1.10769 0.86620 1.25476
 C3157 C 1.12480 0.87425 1.26313
 C3158 C 1.13281 0.89136 1.25468
 C3159 C 1.09785 0.90120 1.21344
 C3160 C 1.09039 0.90884 1.19930
 C3161 C 1.08182 0.91769 1.18260
 C3162 C 1.07465 0.92507 1.16817
 H3163 H 1.13034 0.91333 1.23212
 H3164 H 1.08568 0.86864 1.23224
 H3165 H 1.10103 0.85309 1.26075
 H3166 H 1.14594 0.89803 1.26055
 C3167 C 1.09858 0.37540 0.73871
 C3168 C 1.10667 0.39237 0.73043
 C3169 C 1.12374 0.40044 0.73847
 C3170 C 1.13268 0.39162 0.75474
 C3171 C 1.12468 0.37454 0.76325
 C3172 C 1.10749 0.36654 0.75499
 C3173 C 1.09760 0.40142 0.71358
 C3174 C 1.09015 0.40898 0.69938
 C3175 C 1.08160 0.41773 0.68261
 C3176 C 1.07446 0.42504 0.66813
 H3177 H 1.08538 0.36900 0.73257
 H3178 H 1.13017 0.41356 0.73215
 H3179 H 1.14587 0.39826 0.76054
 H3180 H 1.10083 0.35345 0.76102
 C3181 C 0.62371 0.90097 0.73832
 C3182 C 0.60664 0.89289 0.73030
 C3183 C 0.59856 0.87591 0.73858
 C3184 C 0.60751 0.86705 0.75485
 C3185 C 0.62470 0.87505 0.76308
 C3186 C 0.63269 0.89214 0.75457
 C3187 C 0.59754 0.90195 0.71348
 C3188 C 0.59005 0.90951 0.69930
 C3189 C 0.58147 0.91825 0.68255
 C3190 C 0.57430 0.92555 0.66807
 H3191 H 0.63013 0.91409 0.73200
 H3192 H 0.58536 0.86951 0.73246
 H3193 H 0.60086 0.85395 0.76088
 H3194 H 0.64588 0.89879 0.76035
 C3195 C 0.59913 0.37488 1.23870
 C3196 C 0.60723 0.39183 1.23042
 C3197 C 0.62430 0.39987 1.23846
 C3198 C 0.63322 0.39108 1.25476
 C3199 C 0.62520 0.37400 1.26340
 C3200 C 0.60800 0.36602 1.25501
 C3201 C 0.59812 0.40096 1.21364
 C3202 C 0.59061 0.40860 1.19951
 C3203 C 0.58200 0.41746 1.18283
 C3204 C 0.57478 0.42487 1.16842
 H3205 H 0.58592 0.36850 1.23256
 H3206 H 0.63072 0.41300 1.23214
 H3207 H 0.64637 0.39787 1.26045
 H3208 H 0.60120 0.35296 1.26092
 C3209 C 0.90174 1.12392 1.23887
 C3210 C 0.89351 1.10711 1.23044
 C3211 C 0.87625 1.09922 1.23827
 C3212 C 0.86727 1.10805 1.25449
 C3213 C 0.87542 1.12497 1.26316
 C3214 C 0.89279 1.13280 1.25511
 C3215 C 0.90261 1.09807 1.21363
 C3216 C 0.91007 1.09052 1.19945
 C3217 C 0.91864 1.08179 1.18271
 C3218 C 0.92579 1.07448 1.16825
 H3219 H 0.91508 1.13019 1.23288
 H3220 H 0.86972 1.08624 1.23181
 H3221 H 0.85395 1.10154 1.26014
 H3222 H 0.89959 1.14573 1.26130
 C3223 C 0.90147 0.62420 0.73855
 C3224 C 0.89337 0.60724 0.73030
 C3225 C 0.87628 0.59919 0.73833
 C3226 C 0.86732 0.60803 0.75457
 C3227 C 0.87533 0.62511 0.76305
 C3228 C 0.89254 0.63308 0.75479
 C3229 C 0.90245 0.59816 0.71349
 C3230 C 0.90992 0.59058 0.69932
 C3231 C 0.91849 0.58182 0.68259
 C3232 C 0.92566 0.57450 0.66813
 H3233 H 0.91468 0.63059 0.73241
 H3234 H 0.86984 0.58608 0.73203
 H3235 H 0.85412 0.60140 0.76036
 H3236 H 0.89921 0.64617 0.76081
 C3237 C 0.37605 1.09955 0.73811
 C3238 C 0.39307 1.10766 0.72999
 C3239 C 0.40113 1.12468 0.73817
 C3240 C 0.39226 1.13353 0.75446
 C3241 C 0.37515 1.12547 0.76282
 C3242 C 0.36715 1.10836 0.75439
 C3243 C 0.40215 1.09857 0.71319
 C3244 C 0.40962 1.09097 0.69905
 C3245 C 0.41821 1.08216 0.68236
 C3246 C 0.42540 1.07482 0.66794
 H3247 H 0.36966 1.08640 0.73186
 H3248 H 0.41429 1.13112 0.73195
 H3249 H 0.39888 1.14666 0.76041
 H3250 H 0.35404 1.10165 0.76029
 C3251 C 0.37601 0.60001 1.23831
 C3252 C 0.39321 0.60790 1.23037
 C3253 C 0.40149 0.62473 1.23874
 C3254 C 0.39264 0.63360 1.25503
 C3255 C 0.37534 0.62575 1.26322
 C3256 C 0.36713 0.60883 1.25459
 C3257 C 0.40226 0.59878 1.21357
 C3258 C 0.40970 0.59113 1.19943
 C3259 C 0.41825 0.58227 1.18275
 C3260 C 0.42541 0.57487 1.16833
 H3261 H 0.36945 0.58700 1.23192
 H3262 H 0.41479 0.63100 1.23267
 H3263 H 0.39944 0.64657 1.26114
 H3264 H 0.35387 0.60230 1.26033
 C3265 C 1.12400 1.23849 0.90098
 C3266 C 1.10712 1.23032 0.89268
 C3267 C 1.09921 1.23848 0.87555
 C3268 C 1.10812 1.25477 0.86674
 C3269 C 1.12517 1.26324 0.87494
 C3270 C 1.13296 1.25477 0.89225
 C3271 C 1.09802 1.21347 0.90165
 C3272 C 1.09052 1.19927 0.90914
 C3273 C 1.08190 1.18252 0.91780
 C3274 C 1.07470 1.16806 0.92505
 H3275 H 1.13028 1.23225 0.91423
 H3276 H 1.08615 1.23224 0.86896
 H3277 H 1.10148 1.26057 0.85352
 H3278 H 1.14598 1.26055 0.89921
 C3279 C 1.12470 0.73792 0.40074
 C3280 C 1.10707 0.73057 0.39327
 C3281 C 1.09843 0.73951 0.37691
 C3282 C 1.10736 0.75573 0.36801
 C3283 C 1.12522 0.76333 0.37532
 C3284 C 1.13371 0.75412 0.39189
 C3285 C 1.09798 0.71370 0.40223
 C3286 C 1.09047 0.69947 0.40963
 C3287 C 1.08183 0.68264 0.41814
 C3288 C 1.07464 0.66811 0.42527
 H3289 H 1.13154 0.73109 0.41341
 H3290 H 1.08479 0.73391 0.37096
 H3291 H 1.10016 0.76210 0.35537
 H3292 H 1.14733 0.75927 0.39819
 C3293 C 0.62419 1.23806 0.40012
 C3294 C 0.60716 1.23005 0.39196
 C3295 C 0.59910 1.23839 0.37499
 C3296 C 0.60797 1.25472 0.36622
 C3297 C 0.62514 1.26306 0.37430
 C3298 C 0.63312 1.25437 0.39141
 C3299 C 0.59803 1.21324 0.40098
 C3300 C 0.59051 1.19909 0.40853
 C3301 C 0.58186 1.18239 0.41728
 C3302 C 0.57464 1.16797 0.42462
 H3303 H 0.63058 1.23169 0.41326
 H3304 H 0.58592 1.23229 0.36852
 H3305 H 0.60120 1.26067 0.35314
 H3306 H 0.64625 1.26004 0.39828
 C3307 C 0.62388 0.73814 0.90104
 C3308 C 0.60682 0.73015 0.89290
 C3309 C 0.59874 0.73846 0.87591
 C3310 C 0.60766 0.75473 0.86709
 C3311 C 0.62484 0.76294 0.87515
 C3312 C 0.63283 0.75440 0.89225
 C3313 C 0.59772 0.71332 0.90191
 C3314 C 0.59022 0.69915 0.90942
 C3315 C 0.58160 0.68241 0.91811
 C3316 C 0.57442 0.66795 0.92537
 H3317 H 0.63029 0.73179 0.91417
 H3318 H 0.58554 0.73237 0.86946
 H3319 H 0.60101 0.76078 0.85398
 H3320 H 0.64602 0.76015 0.89893
 C3321 C 0.90135 1.23818 1.12465
 C3322 C 0.89325 1.22995 1.10764
 C3323 C 0.87621 1.23804 1.09951
 C3324 C 0.86732 1.25431 1.10831
 C3325 C 0.87534 1.26278 1.12543
 C3326 C 0.89249 1.25446 1.13349
 C3327 C 0.90231 1.21313 1.09858
 C3328 C 0.90976 1.19897 1.09100
 C3329 C 0.91832 1.18226 1.08222
 C3330 C 0.92548 1.16782 1.07489
 H3331 H 0.91452 1.23201 1.13110
 H3332 H 0.86979 1.23176 1.08637
 H3333 H 0.85418 1.26016 1.10161
 H3334 H 0.89914 1.26045 1.14660
 C3335 C 0.90102 0.73799 0.62437
 C3336 C 0.89310 0.72990 0.60721
 C3337 C 0.87621 0.73811 0.59892
 C3338 C 0.86726 0.75436 0.60770
 C3339 C 0.87509 0.76269 0.62498
 C3340 C 0.89210 0.75426 0.63320
 C3341 C 0.90220 0.71308 0.59819
 C3342 C 0.90969 0.69892 0.59066
 C3343 C 0.91830 0.68219 0.58195
 C3344 C 0.92549 0.66775 0.57466
 H3345 H 0.91408 0.73173 0.63094
 H3346 H 0.86992 0.73194 0.58565
 H3347 H 0.85422 0.76030 0.60088
 H3348 H 0.89862 0.76013 0.64644
 C3349 C 0.40101 1.23838 0.62458
 C3350 C 0.39305 1.23026 0.60747
 C3351 C 0.37616 1.23847 0.59921
 C3352 C 0.36723 1.25474 0.60797
 C3353 C 0.37507 1.26318 0.62525
 C3354 C 0.39214 1.25467 0.63341
 C3355 C 0.40211 1.21342 0.59845
 C3356 C 0.40956 1.19923 0.59091
 C3357 C 0.41813 1.18250 0.58217
 C3358 C 0.42529 1.16804 0.57487
 H3359 H 0.41409 1.23212 0.63113
 H3360 H 0.36983 1.23226 0.58598
 H3361 H 0.35419 1.26055 0.60105
 H3362 H 0.39882 1.26044 0.64661
 C3363 C 0.37589 0.73809 1.10002
 C3364 C 0.39298 0.73008 1.10805
 C3365 C 0.40120 0.73846 1.12492
 C3366 C 0.39240 0.75482 1.13370
 C3367 C 0.37515 0.76315 1.12574
 C3368 C 0.36703 0.75443 1.10874
 C3369 C 0.40201 0.71322 1.09903
 C3370 C 0.40944 0.69904 1.09146
 C3371 C 0.41799 0.68231 1.08268
 C3372 C 0.42516 0.66788 1.07533
 H3373 H 0.36936 0.73169 1.08698
 H3374 H 0.41443 0.73235 1.13130
 H3375 H 0.39929 0.76080 1.14670
 H3376 H 0.35384 0.76008 1.10197
 C3377 C 0.87623 0.76194 0.90090
 C3378 C 0.89330 0.76994 0.89278
 C3379 C 0.90139 0.76164 0.87580
 C3380 C 0.89247 0.74539 0.86698
 C3381 C 0.87528 0.73717 0.87503
 C3382 C 0.86728 0.74570 0.89212
 C3383 C 0.90239 0.78675 0.90179
 C3384 C 0.90986 0.80092 0.90930
 C3385 C 0.91844 0.81766 0.91800
 C3386 C 0.92560 0.83212 0.92527
 H3387 H 0.86980 0.76827 0.91403
 H3388 H 0.91459 0.76774 0.86935
 H3389 H 0.89913 0.73934 0.85388
 H3390 H 0.85409 0.73994 0.89880
 C3391 C 0.87614 0.26196 0.40082
 C3392 C 0.89339 0.26975 0.39286
 C3393 C 0.90164 0.26124 0.37607
 C3394 C 0.89271 0.24498 0.36727
 C3395 C 0.87534 0.23698 0.37514
 C3396 C 0.86718 0.24571 0.39206
 C3397 C 0.90247 0.28659 0.40182
 C3398 C 0.90994 0.30079 0.40928
 C3399 C 0.91852 0.31755 0.41792
 C3400 C 0.92569 0.33201 0.42516
 H3401 H 0.86959 0.26848 0.41379
 H3402 H 0.91498 0.26719 0.36975
 H3403 H 0.89953 0.23874 0.35434
 H3404 H 0.85386 0.24010 0.39861
 C3405 C 0.37562 0.76215 0.40050
 C3406 C 0.39279 0.77003 0.39250
 C3407 C 0.40104 0.76154 0.37571
 C3408 C 0.39222 0.74520 0.36696
 C3409 C 0.37491 0.73699 0.37489
 C3410 C 0.36674 0.74581 0.39182
 C3411 C 0.40186 0.78687 0.40147
 C3412 C 0.40935 0.80104 0.40898
 C3413 C 0.41797 0.81775 0.41768
 C3414 C 0.42518 0.83218 0.42497
 H3415 H 0.36907 0.76864 0.41348
 H3416 H 0.41433 0.76756 0.36935
 H3417 H 0.39915 0.73913 0.35402
 H3418 H 0.35350 0.74025 0.39855
 C3419 C 0.40106 0.26213 0.87554
 C3420 C 0.39301 0.27035 0.89258
 C3421 C 0.37601 0.26227 0.90076
 C3422 C 0.36710 0.24599 0.89200
 C3423 C 0.37509 0.23751 0.87488
 C3424 C 0.39219 0.24584 0.86675
 C3425 C 0.40211 0.28715 0.90161
 C3426 C 0.40961 0.30128 0.90917
 C3427 C 0.41824 0.31795 0.91792
 C3428 C 0.42546 0.33235 0.92524
 H3429 H 0.41421 0.26830 0.86905
 H3430 H 0.36962 0.26856 0.91393
 H3431 H 0.35400 0.24013 0.89876
 H3432 H 0.39881 0.23986 0.85360
 C3433 C 1.12383 0.76144 1.09954
 C3434 C 1.10694 0.76965 1.10780
 C3435 C 1.09897 0.76149 1.12490
 C3436 C 1.10782 0.74516 1.13372
 C3437 C 1.12489 0.73665 1.12555
 C3438 C 1.13273 0.74513 1.10828
 C3439 C 1.09790 0.78653 1.09878
 C3440 C 1.09047 0.80074 1.09124
 C3441 C 1.08192 0.81750 1.08250
 C3442 C 1.07477 0.83197 1.07519
 H3443 H 1.13016 0.76767 1.08631
 H3444 H 1.08590 0.76775 1.13146
 H3445 H 1.10114 0.73936 1.14691
 H3446 H 1.14577 0.73933 1.10135
 C3447 C 1.09889 0.26145 0.62477
 C3448 C 1.10708 0.26983 0.60789
 C3449 C 1.12419 0.26186 0.59985
 C3450 C 1.13306 0.24552 0.60858
 C3451 C 1.12496 0.23679 0.62561
 C3452 C 1.10771 0.24511 0.63357
 C3453 C 1.09802 0.28667 0.59883
 C3454 C 1.09056 0.30084 0.59123
 C3455 C 1.08200 0.31755 0.58241
 C3456 C 1.07485 0.33198 0.57504
 H3457 H 1.08566 0.26755 0.63117
 H3458 H 1.13070 0.26827 0.58680
 H3459 H 1.14626 0.23989 0.60182
 H3460 H 1.10085 0.23913 0.64659
 C3461 C 0.59877 0.76172 0.62407
 C3462 C 0.60699 0.77021 0.60724
 C3463 C 0.62419 0.76237 0.59924
 C3464 C 0.63313 0.74607 0.60798
 C3465 C 0.62497 0.73733 0.62490
 C3466 C 0.60767 0.74541 0.63285
 C3467 C 0.59785 0.78701 0.59823
 C3468 C 0.59033 0.80117 0.59070
 C3469 C 0.58171 0.81789 0.58200
 C3470 C 0.57452 0.83235 0.57473
 H3471 H 0.58546 0.76769 0.63042
 H3472 H 0.63071 0.76886 0.58623
 H3473 H 0.64640 0.74041 0.60137
 H3474 H 0.60090 0.73921 0.64582
 C3475 C 0.62400 0.26205 1.09962
 C3476 C 0.60700 0.27014 1.10781
 C3477 C 0.59894 0.26188 1.12484
 C3478 C 0.60781 0.24556 1.13363
 C3479 C 0.62491 0.23723 1.12550
 C3480 C 0.63290 0.24574 1.10837
 C3481 C 0.59791 0.28697 1.09879
 C3482 C 0.59041 0.30114 1.09124
 C3483 C 0.58179 0.31785 1.08250
 C3484 C 0.57459 0.33228 1.07519
 H3485 H 0.63039 0.26835 1.08646
 H3486 H 0.58580 0.26806 1.13134
 H3487 H 0.60119 0.23956 1.14678
 H3488 H 0.64600 0.23988 1.10161
 C3489 C 1.23800 1.12423 0.90115
 C3490 C 1.22993 1.10720 0.89301
 C3491 C 1.23809 1.09917 0.87594
 C3492 C 1.25430 1.10809 0.86705
 C3493 C 1.26261 1.12522 0.87512
 C3494 C 1.25421 1.13319 0.89230
 C3495 C 1.21319 1.09806 0.90207
 C3496 C 1.19907 1.09047 0.90956
 C3497 C 1.18239 1.08173 0.91818
 C3498 C 1.16796 1.07446 0.92539
 H3499 H 1.23176 1.13060 0.91435
 H3500 H 1.23193 1.08601 0.86948
 H3501 H 1.26022 1.10147 0.85388
 H3502 H 1.26007 1.14632 0.89900
 C3503 C 1.23807 0.62448 0.40136
 C3504 C 1.23002 0.60746 0.39317
 C3505 C 1.23823 0.59947 0.37611
 C3506 C 1.25445 0.60841 0.36727
 C3507 C 1.26274 0.62553 0.37539
 C3508 C 1.25430 0.63346 0.39255
 C3509 C 1.21326 0.59827 0.40218
 C3510 C 1.19914 0.59063 0.40962
 C3511 C 1.18247 0.58183 0.41819
 C3512 C 1.16805 0.57450 0.42536
 H3513 H 1.23179 0.63083 0.41455
 H3514 H 1.23208 0.58631 0.36962
 H3515 H 1.26040 0.60180 0.35411
 H3516 H 1.26014 0.64659 0.39929
 C3517 C 0.73791 1.09913 0.37582
 C3518 C 0.72973 1.10719 0.39287
 C3519 C 0.73783 1.12420 0.40102
 C3520 C 0.75410 1.13309 0.39222
 C3521 C 0.76254 1.12508 0.37508
 C3522 C 0.75417 1.10798 0.36698
 C3523 C 0.71295 1.09808 0.40191
 C3524 C 0.69882 1.09052 0.40940
 C3525 C 0.68212 1.08182 0.41802
 C3526 C 0.66767 1.07458 0.42523
 H3527 H 0.73171 1.08599 0.36935
 H3528 H 0.73157 1.13060 0.41419
 H3529 H 0.75998 1.14621 0.39892
 H3530 H 0.76010 1.10134 0.35383
 C3531 C 0.73797 0.62423 0.90120
 C3532 C 0.72986 0.60722 0.89307
 C3533 C 0.73802 0.59914 0.87603
 C3534 C 0.75427 0.60800 0.86715
 C3535 C 0.76263 0.62512 0.87521
 C3536 C 0.75422 0.63313 0.89236
 C3537 C 0.71308 0.59812 0.90214
 C3538 C 0.69895 0.59057 0.90965
 C3539 C 0.68227 0.58185 0.91830
 C3540 C 0.66784 0.57458 0.92553
 H3541 H 0.73173 0.63064 0.91438
 H3542 H 0.73183 0.58599 0.86958
 H3543 H 0.76019 0.60134 0.85400
 H3544 H 0.76010 0.64626 0.89905
 C3545 C 1.23836 0.87556 1.09901
 C3546 C 1.23023 0.89258 1.10713
 C3547 C 1.23840 0.90066 1.12417
 C3548 C 1.25467 0.89180 1.13304
 C3549 C 1.26304 0.87468 1.12498
 C3550 C 1.25463 0.86667 1.10784
 C3551 C 1.21343 0.90167 1.09808
 C3552 C 1.19927 0.90921 1.09059
 C3553 C 1.18256 0.91792 1.08195
 C3554 C 1.16811 0.92518 1.07473
 H3555 H 1.23213 0.86915 1.08583
 H3556 H 1.23220 0.91381 1.13062
 H3557 H 1.26059 0.89846 1.14618
 H3558 H 1.26053 0.85354 1.10115
 C3559 C 1.23817 0.37546 0.59879
 C3560 C 1.23006 0.39248 0.60693
 C3561 C 1.23825 0.40053 0.62397
 C3562 C 1.25451 0.39166 0.63282
 C3563 C 1.26286 0.37454 0.62475
 C3564 C 1.25443 0.36654 0.60761
 C3565 C 1.21327 0.40159 0.59790
 C3566 C 1.19913 0.40917 0.59042
 C3567 C 1.18244 0.41791 0.58179
 C3568 C 1.16801 0.42520 0.57458
 H3569 H 1.23192 0.36906 0.58561
 H3570 H 1.23206 0.41369 0.63043
 H3571 H 1.26044 0.39831 0.64597
 H3572 H 1.26032 0.35342 0.60090
 C3573 C 0.73792 0.87595 0.59877
 C3574 C 0.72982 0.89297 0.60691
 C3575 C 0.73799 0.90103 0.62395
 C3576 C 0.75424 0.89214 0.63282
 C3577 C 0.76259 0.87501 0.62475
 C3578 C 0.75417 0.86702 0.60760
 C3579 C 0.71303 0.90209 0.59786
 C3580 C 0.69889 0.90966 0.59037
 C3581 C 0.68220 0.91838 0.58173
 C3582 C 0.66777 0.92566 0.57451
 H3583 H 0.73168 0.86955 0.58559
 H3584 H 0.73180 0.91419 0.63041
 H3585 H 0.76016 0.89879 0.64597
 H3586 H 0.76005 0.85389 0.60090
 C3587 C 0.73816 0.37593 1.09918
 C3588 C 0.73001 0.39294 1.10729
 C3589 C 0.73817 0.40104 1.12432
 C3590 C 0.75444 0.39221 1.13321
 C3591 C 0.76282 0.37508 1.12517
 C3592 C 0.75442 0.36705 1.10803
 C3593 C 0.71320 0.40199 1.09823
 C3594 C 0.69903 0.40950 1.09071
 C3595 C 0.68231 0.41815 1.08205
 C3596 C 0.66786 0.42538 1.07481
 H3597 H 0.73193 0.36950 1.08601
 H3598 H 0.73195 0.41420 1.13076
 H3599 H 0.76035 0.39888 1.14635
 H3600 H 0.76033 0.35392 1.10135
 C3601 C 0.76209 1.09894 1.12439
 C3602 C 0.77023 1.10704 1.10733
 C3603 C 0.76210 1.12408 1.09923
 C3604 C 0.74586 1.13297 1.10810
 C3605 C 0.73748 1.12493 1.12526
 C3606 C 0.74585 1.10779 1.13330
 C3607 C 0.78701 1.09797 1.09824
 C3608 C 0.80114 1.09045 1.09070
 C3609 C 0.81783 1.08179 1.08200
 C3610 C 0.83226 1.07455 1.07473
 H3611 H 0.76830 1.08577 1.13082
 H3612 H 0.76831 1.13051 1.08604
 H3613 H 0.73996 1.14611 1.10141
 H3614 H 0.73994 1.10111 1.14645
 C3615 C 0.76217 0.59903 0.62394
 C3616 C 0.77034 0.60711 0.60689
 C3617 C 0.76222 0.62413 0.59874
 C3618 C 0.74598 0.63305 0.60758
 C3619 C 0.73759 0.62504 0.62475
 C3620 C 0.74593 0.60790 0.63281
 C3621 C 0.78713 0.59802 0.59784
 C3622 C 0.80127 0.59047 0.59035
 C3623 C 0.81795 0.58175 0.58170
 C3624 C 0.83237 0.57447 0.57446
 H3625 H 0.76836 0.58586 0.63040
 H3626 H 0.76845 0.63054 0.58555
 H3627 H 0.74009 0.64618 0.60087
 H3628 H 0.74000 0.60123 0.64596
 C3629 C 0.26166 1.09928 0.62413
 C3630 C 0.26985 1.10740 0.60711
 C3631 C 0.26169 1.12441 0.59897
 C3632 C 0.24542 1.13329 0.60780
 C3633 C 0.23704 1.12527 0.62497
 C3634 C 0.24540 1.10812 0.63301
 C3635 C 0.28668 1.09835 0.59807
 C3636 C 0.30084 1.09083 0.59056
 C3637 C 0.31753 1.08214 0.58189
 C3638 C 0.33195 1.07486 0.57462
 H3639 H 0.26786 1.08610 0.63057
 H3640 H 0.26791 1.13084 0.58578
 H3641 H 0.23951 1.14641 0.60110
 H3642 H 0.23946 1.10142 0.64614
 C3643 C 0.26183 0.62439 1.09910
 C3644 C 0.26994 0.60737 1.10726
 C3645 C 0.26176 0.59929 1.12431
 C3646 C 0.24549 0.60815 1.13315
 C3647 C 0.23713 0.62528 1.12506
 C3648 C 0.24555 0.63329 1.10791
 C3649 C 0.28675 0.59826 1.09823
 C3650 C 0.30089 0.59069 1.09076
 C3651 C 0.31760 0.58196 1.08215
 C3652 C 0.33203 0.57468 1.07494
 H3653 H 0.26808 0.63080 1.08592
 H3654 H 0.26795 0.58613 1.13078
 H3655 H 0.23955 0.60149 1.14630
 H3656 H 0.23966 0.64641 1.10119
 C3657 C 0.76208 0.87598 0.90121
 C3658 C 0.77018 0.89300 0.89305
 C3659 C 0.76201 0.90108 0.87601
 C3660 C 0.74576 0.89222 0.86715
 C3661 C 0.73741 0.87509 0.87523
 C3662 C 0.74583 0.86708 0.89239
 C3663 C 0.78697 0.90209 0.90209
 C3664 C 0.80110 0.90964 0.90958
 C3665 C 0.81779 0.91835 0.91821
 C3666 C 0.83222 0.92560 0.92542
 H3667 H 0.76833 0.86956 0.91439
 H3668 H 0.76820 0.91424 0.86954
 H3669 H 0.73982 0.89888 0.85400
 H3670 H 0.73995 0.85395 0.89910
 C3671 C 0.76188 0.37560 0.40106
 C3672 C 0.76999 0.39261 0.39288
 C3673 C 0.76179 0.40068 0.37584
 C3674 C 0.74553 0.39182 0.36701
 C3675 C 0.73718 0.37469 0.37510
 C3676 C 0.74561 0.36670 0.39226
 C3677 C 0.78681 0.40170 0.40189
 C3678 C 0.80097 0.40927 0.40934
 C3679 C 0.81768 0.41799 0.41793
 C3680 C 0.83211 0.42527 0.42513
 H3681 H 0.76814 0.36920 0.41424
 H3682 H 0.76797 0.41384 0.36936
 H3683 H 0.73958 0.39848 0.35386
 H3684 H 0.73973 0.35358 0.39899
 C3685 C 0.26154 0.87537 0.40188
 C3686 C 0.26944 0.89257 0.39390
 C3687 C 0.26107 0.90079 0.37701
 C3688 C 0.24489 0.89187 0.36812
 C3689 C 0.23679 0.87452 0.37599
 C3690 C 0.24534 0.86640 0.39302
 C3691 C 0.28627 0.90170 0.40284
 C3692 C 0.30046 0.90932 0.41016
 C3693 C 0.31724 0.91812 0.41854
 C3694 C 0.33174 0.92544 0.42556
 H3695 H 0.26793 0.86885 0.41495
 H3696 H 0.26710 0.91408 0.37066
 H3697 H 0.23889 0.89858 0.35502
 H3698 H 0.23957 0.85314 0.39960
 C3699 C 0.26197 0.40059 0.87610
 C3700 C 0.27016 0.39255 0.89316
 C3701 C 0.26207 0.37553 0.90134
 C3702 C 0.24582 0.36661 0.89254
 C3703 C 0.23738 0.37459 0.87538
 C3704 C 0.24572 0.39171 0.86726
 C3705 C 0.28694 0.40168 0.90218
 C3706 C 0.30107 0.40927 0.90964
 C3707 C 0.31775 0.41803 0.91824
 C3708 C 0.33216 0.42534 0.92545
 H3709 H 0.26815 0.41375 0.86961
 H3710 H 0.26833 0.36914 0.91453
 H3711 H 0.23995 0.35349 0.89928
 H3712 H 0.23978 0.39835 0.85411
   
