data_POSCAR
  _audit_creation_date              2014-09-24
  _audit_creation_method            'ToBaCCo'
  _symmetry_space_group_name_H-M    'P1'
  _symmetry_Int_Tables_number       1
  _symmetry_cell_setting            triclinic
  loop_
  _symmetry_equiv_pos_as_xyz
 x,y,z
_cell_length_a 52.6463
_cell_length_b 52.6687
_cell_length_c 52.7057
_cell_angle_alpha 89.694600
_cell_angle_beta 90.149800
_cell_angle_gamma 90.945100
loop_
  _atom_site_label
  _atom_site_type_symbol
  _atom_site_fract_x
  _atom_site_fract_y
  _atom_site_fract_z
C1 C 0.11148 0.02308 0.20256
 H2 H 0.12617 0.03683 0.20695
 C3 C 0.09791 0.02584 0.18000
 H4 H 0.10275 0.04129 0.16716
 C5 C 0.08723 -0.01360 0.21345
 H6 H 0.08268 -0.02867 0.22669
 C7 C 0.07302 -0.01141 0.19106
 H8 H 0.05802 -0.02513 0.18702
 N9 N 0.10638 0.00332 0.21867
 C10 C 0.12011 -0.00520 0.30022
 H11 H 0.14039 -0.00805 0.29949
 C12 C 0.10756 -0.00619 0.32346
 H13 H 0.11821 -0.00971 0.34070
 C14 C 0.08153 0.00314 0.27860
 H15 H 0.07156 0.00690 0.26106
 C16 C 0.06818 0.00229 0.30154
 H17 H 0.04789 0.00535 0.30165
 Zn18 Zn 0.12703 0.00034 0.24864
 N19 N 0.10707 -0.00047 0.27843
 C20 C 0.14330 0.04821 0.26634
 N21 N 0.14923 0.02924 0.25007
 C22 C 0.16831 0.03225 0.23282
 C23 C 0.18145 0.05546 0.23073
 C24 C 0.15589 0.07168 0.26484
 C25 C 0.13199 -0.05256 0.24843
 C26 C 0.14385 -0.07573 0.25232
 C27 C 0.18376 -0.05321 0.25723
 C28 C 0.17107 -0.03041 0.25316
 N29 N 0.14556 -0.03042 0.24906
 H30 H 0.12779 0.04570 0.27956
 H31 H 0.17227 0.01714 0.21966
 H32 H 0.19580 0.05808 0.21622
 H33 H 0.15028 0.08700 0.27715
 H34 H 0.11172 -0.05233 0.24566
 H35 H 0.13242 -0.09291 0.25047
 H36 H 0.20381 -0.05208 0.26176
 H37 H 0.18153 -0.01268 0.25461
 C38 C 0.08138 -0.00214 0.32429
 C39 C 0.07834 0.00855 0.17407
 C40 C 0.17007 -0.07656 0.25793
 C41 C 0.17466 0.07562 0.24639
 C42 C 0.40571 0.02575 0.78160
 H43 H 0.40170 0.04240 0.77031
 C44 C 0.41745 0.02853 0.80522
 H45 H 0.42261 0.04729 0.81202
 C46 C 0.40311 -0.01894 0.78708
 H47 H 0.39726 -0.03736 0.78002
 C48 C 0.41490 -0.01702 0.81080
 H49 H 0.41806 -0.03397 0.82201
 N50 N 0.39819 0.00237 0.77332
 C51 C 0.38531 0.00688 0.69186
 H52 H 0.36514 0.01048 0.69184
 C53 C 0.39816 0.00462 0.66895
 H54 H 0.38788 0.00681 0.65126
 C55 C 0.42296 -0.00167 0.71498
 H56 H 0.43230 -0.00470 0.73301
 C57 C 0.43667 -0.00377 0.69239
 H58 H 0.45674 -0.00793 0.69306
 Zn59 Zn 0.37748 0.00101 0.74390
 N60 N 0.39763 0.00302 0.71424
 C61 C 0.36410 0.05107 0.73291
 N62 N 0.35599 0.02960 0.74512
 C63 C 0.33518 0.02973 0.76042
 C64 C 0.32181 0.05217 0.76404
 C65 C 0.35142 0.07385 0.73610
 C66 C 0.35946 -0.04471 0.72172
 C67 C 0.34830 -0.06886 0.72116
 C68 C 0.33563 -0.06357 0.76475
 C69 C 0.34658 -0.03916 0.76433
 N70 N 0.35869 -0.03037 0.74314
 H71 H 0.38114 0.05084 0.72153
 H72 H 0.32935 0.01265 0.77038
 H73 H 0.30553 0.05224 0.77656
 H74 H 0.35837 0.09090 0.72666
 H75 H 0.36925 -0.03789 0.70507
 H76 H 0.34917 -0.07996 0.70395
 H77 H 0.32680 -0.07068 0.78197
 H78 H 0.34645 -0.02772 0.78130
 C79 C 0.42396 -0.00146 0.66906
 C80 C 0.42150 0.00701 0.82030
 C81 C 0.33705 -0.07891 0.74312
 C82 C 0.33033 0.07461 0.75218
 C83 C 0.89688 0.52809 0.29006
 H84 H 0.88370 0.54288 0.28545
 C85 C 0.91141 0.53036 0.31209
 H86 H 0.90945 0.54725 0.32350
 C87 C 0.91532 0.48859 0.28079
 H88 H 0.91628 0.47193 0.26896
 C89 C 0.93003 0.48993 0.30289
 H90 H 0.94156 0.47382 0.30790
 N91 N 0.89873 0.50731 0.27498
 C92 C 0.87878 0.50984 0.19435
 H93 H 0.85985 0.51715 0.19650
 C94 C 0.88884 0.50697 0.17010
 H95 H 0.87779 0.51257 0.15369
 C96 C 0.91637 0.49403 0.21302
 H97 H 0.92706 0.48894 0.22970
 C98 C 0.92701 0.49046 0.18906
 H99 H 0.94588 0.48273 0.18753
 Zn100 Zn 0.87562 0.50474 0.24694
 N101 N 0.89250 0.50329 0.21523
 C102 C 0.86553 0.55565 0.23746
 N103 N 0.85523 0.53388 0.24726
 C104 C 0.83258 0.53377 0.25964
 C105 C 0.81962 0.55645 0.26307
 C106 C 0.85320 0.57863 0.24037
 C107 C 0.83658 0.47163 0.23132
 C108 C 0.82377 0.44831 0.22908
 C109 C 0.84864 0.43237 0.26407
 C110 C 0.86040 0.45620 0.26615
 N111 N 0.85502 0.47493 0.24919
 H112 H 0.88380 0.55525 0.22816
 H113 H 0.82509 0.51626 0.26767
 H114 H 0.80190 0.55639 0.27347
 H115 H 0.86175 0.59592 0.23282
 H116 H 0.83229 0.48690 0.21830
 H117 H 0.80927 0.44589 0.21465
 H118 H 0.85402 0.41730 0.27696
 H119 H 0.87445 0.45925 0.28075
 C120 C 0.91298 0.49655 0.16725
 C121 C 0.92830 0.51109 0.31907
 C122 C 0.83071 0.42797 0.24478
 C123 C 0.83034 0.57924 0.25389
 C124 C 0.61481 0.51735 0.70581
 H125 H 0.63099 0.52931 0.71033
 C126 C 0.60241 0.52091 0.68267
 H127 H 0.60943 0.53528 0.66956
 C128 C 0.58652 0.48361 0.71663
 H129 H 0.58038 0.46907 0.72993
 C130 C 0.57336 0.48673 0.69374
 H131 H 0.55726 0.47441 0.68943
 N132 N 0.60698 0.49874 0.72221
 C133 C 0.61623 0.48781 0.80432
 H134 H 0.63644 0.48464 0.80483
 C135 C 0.60238 0.48706 0.82684
 H136 H 0.61197 0.48332 0.84464
 C137 C 0.57918 0.49741 0.78070
 H138 H 0.57032 0.50195 0.76278
 C139 C 0.56457 0.49681 0.80285
 H140 H 0.54445 0.50068 0.80188
 Zn141 Zn 0.62595 0.49432 0.75290
 N142 N 0.60457 0.49296 0.78185
 C143 C 0.63987 0.54278 0.76995
 N144 N 0.64824 0.52272 0.75634
 C145 C 0.67023 0.52425 0.74284
 C146 C 0.68443 0.54693 0.74221
 C147 C 0.65350 0.56571 0.76991
 C148 C 0.63473 0.44296 0.74019
 C149 C 0.64637 0.41942 0.74242
 C150 C 0.67851 0.43880 0.76912
 C151 C 0.66623 0.46201 0.76640
 N152 N 0.64456 0.46364 0.75234
 H153 H 0.62205 0.54133 0.78003
 H154 H 0.67612 0.50822 0.73167
 H155 H 0.70147 0.54828 0.73078
 H156 H 0.64633 0.58174 0.78033
 H157 H 0.61749 0.44445 0.72925
 H158 H 0.63815 0.40303 0.73294
 H159 H 0.69544 0.43761 0.78075
 H160 H 0.67360 0.47859 0.77614
 C161 C 0.57633 0.49188 0.82624
 C162 C 0.58130 0.50563 0.67648
 C163 C 0.66819 0.41710 0.75749
 C164 C 0.67587 0.56801 0.75570
 C165 C 0.28077 0.08330 0.99136
 H166 H 0.26268 0.07474 0.98635
 C167 C 0.30303 0.06954 0.98830
 H168 H 0.30201 0.05036 0.98102
 C169 C 0.30457 0.11885 1.00619
 H170 H 0.30515 0.13822 1.01287
 C171 C 0.32713 0.10568 1.00386
 H172 H 0.34494 0.11487 1.00904
 N173 N 0.28192 0.10750 1.00029
 C174 C 0.20966 0.10690 1.02776
 H175 H 0.21745 0.11671 1.04403
 C176 C 0.18588 0.09504 1.02963
 H177 H 0.17551 0.09572 1.04733
 C178 C 0.21333 0.09414 0.98487
 H179 H 0.22398 0.09427 0.96734
 C180 C 0.18936 0.08236 0.98581
 H181 H 0.18163 0.07330 0.96901
 Zn182 Zn 0.25240 0.12750 1.00285
 N183 N 0.22256 0.10690 1.00541
 C184 C 0.22895 0.15010 0.95987
 N185 N 0.25095 0.14822 0.97335
 C186 C 0.27300 0.15894 0.96466
 C187 C 0.27394 0.17036 0.94076
 C188 C 0.22904 0.16140 0.93585
 C189 C 0.26925 0.14093 1.05192
 C190 C 0.27030 0.15541 1.07392
 C191 C 0.23911 0.18330 1.05569
 C192 C 0.23922 0.16859 1.03370
 N193 N 0.25442 0.14807 1.03210
 H194 H 0.21144 0.14222 0.96738
 H195 H 0.29016 0.15776 0.97577
 H196 H 0.29179 0.17794 0.93358
 H197 H 0.21167 0.16195 0.92481
 H198 H 0.27984 0.12357 1.05097
 H199 H 0.28166 0.14860 1.08964
 H200 H 0.22722 0.19987 1.05604
 H201 H 0.22702 0.17341 1.01791
 C202 C 0.17506 0.08356 1.00817
 C203 C 0.32647 0.08069 0.99503
 C204 C 0.25549 0.17739 1.07611
 C205 C 0.25195 0.17082 0.92583
 C206 C 0.71626 0.41751 0.98502
 H207 H 0.73409 0.42632 0.97944
 C208 C 0.69378 0.43122 0.98339
 H209 H 0.69432 0.45071 0.97673
 C210 C 0.69343 0.38117 0.99982
 H211 H 0.69346 0.36150 1.00583
 C212 C 0.67065 0.39421 0.99874
 H213 H 0.65313 0.38468 1.00429
 N214 N 0.71565 0.39294 0.99314
 C215 C 0.78173 0.40730 1.01258
 H216 H 0.76957 0.40670 1.02908
 C217 C 0.80520 0.41993 1.01381
 H218 H 0.81110 0.42916 1.03122
 C219 C 0.78955 0.39500 0.97012
 H220 H 0.78347 0.38504 0.95323
 C221 C 0.81317 0.40750 0.97050
 H222 H 0.82531 0.40704 0.95396
 Zn223 Zn 0.74548 0.37330 0.99379
 N224 N 0.77470 0.39455 0.99123
 C225 C 0.76463 0.33635 0.95982
 N226 N 0.74395 0.35015 0.96608
 C227 C 0.72251 0.34926 0.95156
 C228 C 0.72133 0.33429 0.92985
 C229 C 0.76441 0.32145 0.93794
 C230 C 0.73460 0.36611 1.04535
 C231 C 0.73752 0.35654 1.06984
 C232 C 0.76802 0.32700 1.05384
 C233 C 0.76437 0.33713 1.02951
 N234 N 0.74784 0.35634 1.02569
 H235 H 0.78178 0.33787 0.97105
 H236 H 0.70639 0.36064 0.95627
 H237 H 0.70424 0.33410 0.91835
 H238 H 0.78136 0.31144 0.93257
 H239 H 0.72248 0.38219 1.04233
 H240 H 0.72736 0.36578 1.08495
 H241 H 0.78036 0.31087 1.05589
 H242 H 0.77496 0.32971 1.01378
 C243 C 0.82139 0.41947 0.99280
 C244 C 0.67072 0.41956 0.99061
 C245 C 0.75492 0.33697 1.07484
 C246 C 0.74250 0.32030 0.92272
 C247 C 0.22034 0.91759 0.49707
 H248 H 0.23827 0.92612 0.49142
 C249 C 0.19810 0.93169 0.49546
 H250 H 0.19895 0.95113 0.48868
 C251 C 0.19697 0.88164 0.51193
 H252 H 0.19666 0.86195 0.51791
 C253 C 0.17439 0.89504 0.51075
 H254 H 0.15668 0.88574 0.51610
 N255 N 0.21934 0.89296 0.50501
 C256 C 0.29274 0.89517 0.52501
 H257 H 0.28576 0.88720 0.54262
 C258 C 0.31670 0.90676 0.52444
 H259 H 0.32806 0.90766 0.54159
 C260 C 0.28707 0.90304 0.48101
 H261 H 0.27559 0.90095 0.46408
 C262 C 0.31108 0.91476 0.47959
 H263 H 0.31809 0.92184 0.46155
 Zn264 Zn 0.24873 0.87263 0.50459
 N265 N 0.27868 0.89303 0.50340
 C266 C 0.26946 0.84222 0.46613
 N267 N 0.24746 0.85168 0.47537
 C268 C 0.22505 0.84812 0.46282
 C269 C 0.22419 0.83473 0.44006
 C270 C 0.26950 0.82900 0.44321
 C271 C 0.23928 0.86159 0.55602
 C272 C 0.24274 0.84921 0.57920
 C273 C 0.26901 0.81867 0.55809
 C274 C 0.26504 0.83165 0.53524
 N275 N 0.25036 0.85269 0.53461
 H276 H 0.28713 0.84566 0.47615
 H277 H 0.20780 0.85601 0.47011
 H278 H 0.20626 0.83227 0.43018
 H279 H 0.28727 0.82231 0.43563
 H280 H 0.22844 0.87883 0.55530
 H281 H 0.23401 0.85660 0.59615
 H282 H 0.28075 0.80198 0.55846
 H283 H 0.27412 0.82525 0.51812
 C284 C 0.32633 0.91602 0.50140
 C285 C 0.17482 0.92033 0.50240
 C286 C 0.25803 0.82772 0.58041
 C287 C 0.24661 0.82506 0.42997
 C288 C 0.78011 0.58201 0.48739
 H289 H 0.76208 0.57342 0.48226
 C290 C 0.80243 0.56820 0.48465
 H291 H 0.80154 0.54893 0.47759
 C292 C 0.80369 0.61734 0.50308
 H293 H 0.80406 0.63641 0.51056
 C294 C 0.82634 0.60431 0.50058
 H295 H 0.84411 0.61337 0.50611
 N296 N 0.78118 0.60622 0.49631
 C297 C 0.70715 0.60875 0.52239
 H298 H 0.71389 0.61964 0.53837
 C299 C 0.68326 0.59709 0.52378
 H300 H 0.67213 0.59879 0.54093
 C301 C 0.71287 0.59351 0.48060
 H302 H 0.72432 0.59263 0.46363
 C303 C 0.68878 0.58186 0.48106
 H304 H 0.68184 0.57177 0.46452
 Zn305 Zn 0.75210 0.62679 0.49921
 N306 N 0.72135 0.60715 0.50090
 C307 C 0.73010 0.65074 0.45619
 N308 N 0.75139 0.64906 0.47079
 C309 C 0.77329 0.66148 0.46416
 C310 C 0.77492 0.67466 0.44118
 C311 C 0.73090 0.66376 0.43305
 C312 C 0.76199 0.63238 0.55068
 C313 C 0.76073 0.64376 0.57442
 C314 C 0.74616 0.68217 0.55410
 C315 C 0.74760 0.66999 0.53066
 N316 N 0.75500 0.64541 0.52951
 H317 H 0.71268 0.64135 0.46203
 H318 H 0.78985 0.66034 0.47616
 H319 H 0.79276 0.68350 0.43550
 H320 H 0.71420 0.66409 0.42102
 H321 H 0.76748 0.61274 0.54918
 H322 H 0.76561 0.63297 0.59124
 H323 H 0.73977 0.70158 0.55503
 H324 H 0.74189 0.67979 0.51354
 C325 C 0.67347 0.58424 0.50265
 C326 C 0.82580 0.57951 0.49127
 C327 C 0.75212 0.66869 0.57630
 C328 C 0.75375 0.67516 0.42511
 C329 C 0.02241 0.22067 0.08811
 H330 H 0.03753 0.23478 0.08693
 C331 C 0.02430 0.19785 0.07487
 H332 H 0.04074 0.19443 0.06314
 C333 C -0.01724 0.20742 0.10542
 H334 H -0.03301 0.21083 0.11792
 C335 C -0.01619 0.18450 0.09241
 H336 H -0.03141 0.17057 0.09454
 N337 N 0.00180 0.22503 0.10292
 C338 C 0.00136 0.30648 0.11529
 H339 H 0.00338 0.30627 0.13573
 C340 C -0.00220 0.32935 0.10259
 H341 H -0.00158 0.34675 0.11344
 C342 C -0.00093 0.28379 0.07665
 H343 H -0.00111 0.26584 0.06680
 C344 C -0.00489 0.30634 0.06313
 H345 H -0.00805 0.30530 0.04285
 Zn346 Zn 0.00156 0.25481 0.12264
 N347 N 0.00169 0.28431 0.10231
 C348 C 0.04986 0.27137 0.13990
 N349 N 0.03080 0.25395 0.14346
 C350 C 0.03363 0.23383 0.15948
 C351 C 0.05650 0.23052 0.17252
 C352 C 0.07295 0.26881 0.15259
 C353 C -0.05021 0.25842 0.12693
 C354 C -0.07390 0.26064 0.13828
 C355 C -0.05340 0.25913 0.17936
 C356 C -0.02995 0.25679 0.16717
 N357 N -0.02890 0.25626 0.14138
 H358 H 0.04764 0.28668 0.12642
 H359 H 0.01842 0.21991 0.16142
 H360 H 0.05890 0.21416 0.18478
 H361 H 0.08824 0.28242 0.14919
 H362 H -0.04871 0.25840 0.10646
 H363 H -0.09077 0.26214 0.12659
 H364 H -0.05427 0.25944 0.19989
 H365 H -0.01269 0.25562 0.17824
 C366 C -0.00661 0.32956 0.07623
 C367 C 0.00473 0.17964 0.07695
 C368 C -0.07559 0.26104 0.16473
 C369 C 0.07645 0.24803 0.16878
 C370 C -0.00644 0.80311 0.38085
 H371 H -0.01354 0.80315 0.36157
 C372 C -0.00591 0.82556 0.39465
 H373 H -0.01260 0.84293 0.38602
 C374 C 0.01060 0.78042 0.41578
 H375 H 0.01689 0.76278 0.42398
 C376 C 0.01157 0.80257 0.43029
 H377 H 0.01852 0.80193 0.44964
 N378 N 0.00176 0.78112 0.39149
 C379 C -0.02197 0.70668 0.39011
 H380 H -0.03825 0.71189 0.37893
 C381 C -0.02288 0.68401 0.40384
 H382 H -0.03996 0.67226 0.40335
 C383 C 0.02024 0.71489 0.40389
 H384 H 0.03715 0.72684 0.40344
 C385 C 0.02031 0.69206 0.41751
 H386 H 0.03732 0.68645 0.42752
 Zn387 Zn 0.00006 0.75203 0.37063
 N388 N -0.00071 0.72177 0.39050
 C389 C 0.04210 0.73050 0.34590
 N390 N 0.02895 0.75226 0.34927
 C391 C 0.03788 0.77491 0.34012
 C392 C 0.06163 0.77654 0.32848
 C393 C 0.06592 0.73128 0.33431
 C394 C -0.05173 0.75804 0.36528
 C395 C -0.07553 0.75555 0.35398
 C396 C -0.05497 0.74579 0.31437
 C397 C -0.03144 0.74814 0.32663
 N398 N -0.03039 0.75341 0.35181
 H399 H 0.03455 0.71264 0.35301
 H400 H 0.02715 0.79195 0.34284
 H401 H 0.06906 0.79480 0.32217
 H402 H 0.07670 0.71404 0.33256
 H403 H -0.05025 0.76270 0.38520
 H404 H -0.09211 0.75971 0.36526
 H405 H -0.05514 0.74015 0.29465
 H406 H -0.01412 0.74465 0.31633
 C407 C -0.00162 0.67653 0.41781
 C408 C 0.00303 0.82532 0.41967
 C409 C -0.07774 0.74805 0.32839
 C410 C 0.07615 0.75465 0.32624
 C411 C 0.49266 0.30223 0.87813
 H412 H 0.48619 0.30224 0.85864
 C413 C 0.49408 0.32495 0.89146
 H414 H 0.48851 0.34248 0.88232
 C415 C 0.50716 0.27934 0.91411
 H416 H 0.51212 0.26149 0.92283
 C417 C 0.50893 0.30176 0.92817
 H418 H 0.51499 0.30114 0.94781
 N419 N 0.49912 0.28001 0.88954
 C420 C 0.47308 0.20705 0.89152
 H421 H 0.45630 0.21358 0.88182
 C422 C 0.47190 0.18426 0.90511
 H423 H 0.45420 0.17352 0.90592
 C424 C 0.51660 0.21269 0.90207
 H425 H 0.53405 0.22372 0.90045
 C426 C 0.51637 0.18975 0.91550
 H427 H 0.53373 0.18312 0.92417
 Zn428 Zn 0.49661 0.25034 0.86950
 N429 N 0.49521 0.22074 0.89018
 C430 C 0.53655 0.22648 0.84359
 N431 N 0.52556 0.24919 0.84826
 C432 C 0.53688 0.27143 0.84084
 C433 C 0.56082 0.27148 0.82960
 C434 C 0.56057 0.22568 0.83243
 C435 C 0.44573 0.26182 0.86171
 C436 C 0.42190 0.26009 0.85028
 C437 C 0.44069 0.23718 0.81560
 C438 C 0.46431 0.23949 0.82766
 N439 N 0.46628 0.25144 0.85042
 H440 H 0.52716 0.20902 0.84945
 H441 H 0.52792 0.28927 0.84454
 H442 H 0.57003 0.28933 0.82453
 H443 H 0.56962 0.20759 0.82964
 H444 H 0.44767 0.27063 0.88012
 H445 H 0.40559 0.26806 0.85966
 H446 H 0.43907 0.22708 0.79781
 H447 H 0.48088 0.23098 0.81936
 C448 C 0.49373 0.17537 0.91728
 C449 C 0.50218 0.32475 0.91674
 C450 C 0.41913 0.24705 0.82733
 C451 C 0.57321 0.24846 0.82616
 C452 C 0.52562 0.71192 0.59438
 H453 H 0.54275 0.72328 0.59660
 C454 C 0.52656 0.68882 0.58163
 H455 H 0.54440 0.68245 0.57392
 C456 C 0.48154 0.70597 0.60208
 H457 H 0.46407 0.71275 0.61012
 C458 C 0.48162 0.68279 0.58932
 H459 H 0.46417 0.67176 0.58749
 N460 N 0.50341 0.71988 0.60456
 C461 C 0.51227 0.80134 0.61454
 H462 H 0.51691 0.80171 0.63454
 C463 C 0.51086 0.82400 0.60090
 H464 H 0.51464 0.84190 0.61033
 C465 C 0.50043 0.77765 0.57807
 H466 H 0.49580 0.75952 0.56952
 C467 C 0.49886 0.79996 0.56365
 H468 H 0.49317 0.79905 0.54392
 Zn469 Zn 0.50456 0.74978 0.62427
 N470 N 0.50659 0.77884 0.60313
 C471 C 0.55596 0.75878 0.63424
 N472 N 0.53440 0.74853 0.64452
 C473 C 0.53500 0.73586 0.66710
 C474 C 0.55798 0.73296 0.68009
 C475 C 0.57922 0.75639 0.64660
 C476 C 0.46003 0.77318 0.64221
 C477 C 0.43747 0.77507 0.65586
 C478 C 0.44465 0.73325 0.67316
 C479 C 0.46717 0.73219 0.65928
 N480 N 0.47456 0.75207 0.64428
 H481 H 0.55523 0.76821 0.61601
 H482 H 0.51786 0.72759 0.67490
 H483 H 0.55835 0.72273 0.69795
 H484 H 0.59626 0.76438 0.63806
 H485 H 0.46561 0.78855 0.62973
 H486 H 0.42614 0.79197 0.65404
 H487 H 0.43877 0.71716 0.68474
 H488 H 0.47836 0.71517 0.65990
 C489 C 0.50361 0.82339 0.57535
 C490 C 0.50436 0.67406 0.57901
 C491 C 0.42971 0.75503 0.67169
 C492 C 0.58039 0.74306 0.66957
 C493 C 0.89264 0.97804 0.70055
 H494 H 0.88096 0.96162 0.70497
 C495 C 0.90326 0.98001 0.67759
 H496 H 0.89902 0.96543 0.66374
 C497 C 0.91230 1.01648 0.71464
 H498 H 0.91515 1.03108 0.72870
 C499 C 0.92528 1.01889 0.68990
 H500 H 0.93883 1.03436 0.68725
 N501 N 0.89633 0.99781 0.71896
 C502 C 0.88743 1.01853 0.79821
 H503 H 0.86974 1.02853 0.79647
 C504 C 0.90065 1.01982 0.81985
 H505 H 0.89328 1.03077 0.83545
 C506 C 0.91649 0.98966 0.77979
 H507 H 0.92207 0.97749 0.76438
 C508 C 0.93158 0.99030 0.80346
 H509 H 0.94864 0.97912 0.80451
 Zn510 Zn 0.87539 0.99957 0.74839
 N511 N 0.89610 1.00316 0.77763
 C512 C 0.85738 0.95644 0.77494
 N513 N 0.85516 0.96929 0.75256
 C514 C 0.84027 0.95992 0.73350
 C515 C 0.82887 0.93580 0.73573
 C516 C 0.84587 0.93260 0.77816
 C517 C 0.86719 1.05179 0.74796
 C518 C 0.85446 1.07439 0.74364
 C519 C 0.81698 1.04996 0.73228
 C520 C 0.83037 1.02769 0.73722
 N521 N 0.85516 1.02898 0.74458
 H522 H 0.86862 0.96431 0.79023
 H523 H 0.83820 0.97061 0.71606
 H524 H 0.81811 0.92804 0.71996
 H525 H 0.84823 0.92246 0.79593
 H526 H 0.88677 1.05247 0.75413
 H527 H 0.86429 1.09233 0.74677
 H528 H 0.79738 1.04871 0.72607
 H529 H 0.82106 1.00945 0.73467
 C530 C 0.92449 1.00527 0.82281
 C531 C 0.91981 1.00235 0.67112
 C532 C 0.82926 1.07366 0.73503
 C533 C 0.83245 0.92150 0.75798
 C534 C 0.41031 0.48385 0.21780
 H535 H 0.40973 0.46751 0.23032
 C536 C 0.42400 0.48286 0.19516
 H537 H 0.43383 0.46566 0.19027
 C538 C 0.39695 0.52552 0.20801
 H539 H 0.38617 0.54206 0.21282
 C540 C 0.41075 0.52550 0.18547
 H541 H 0.41049 0.54203 0.17316
 N542 N 0.39652 0.50471 0.22345
 C543 C 0.38052 0.50578 0.30499
 H544 H 0.36095 0.51157 0.30452
 C545 C 0.39246 0.50215 0.32833
 H546 H 0.38184 0.50473 0.34568
 C547 C 0.41844 0.49630 0.28315
 H548 H 0.42854 0.49405 0.26552
 C549 C 0.43122 0.49270 0.30618
 H550 H 0.45115 0.48793 0.30615
 Zn551 Zn 0.37451 0.50472 0.25212
 N552 N 0.39336 0.50228 0.28294
 C553 C 0.33513 0.47212 0.27028
 N554 N 0.35151 0.47632 0.25069
 C555 C 0.35326 0.45925 0.23149
 C556 C 0.34052 0.43585 0.23302
 C557 C 0.32183 0.44904 0.27243
 C558 C 0.36565 0.55568 0.26479
 C559 C 0.35500 0.57959 0.26165
 C560 C 0.32546 0.56151 0.23127
 C561 C 0.33663 0.53788 0.23505
 N562 N 0.35646 0.53548 0.25144
 H563 H 0.33294 0.48627 0.28474
 H564 H 0.36513 0.46325 0.21530
 H565 H 0.34309 0.42197 0.21822
 H566 H 0.30955 0.44557 0.28856
 H567 H 0.38184 0.55345 0.27721
 H568 H 0.36260 0.59561 0.27220
 H569 H 0.30998 0.56335 0.21785
 H570 H 0.33008 0.52161 0.22428
 C571 C 0.41797 0.49506 0.32910
 C572 C 0.42423 0.50388 0.17868
 C573 C 0.33505 0.58277 0.24429
 C574 C 0.32551 0.43017 0.25424
 C575 C 0.58629 0.98514 0.28056
 H576 H 0.58219 0.96969 0.26766
 C577 C 0.57280 0.98733 0.30194
 H578 H 0.55761 0.97375 0.30577
 C579 C 0.61152 1.02187 0.29000
 H580 H 0.62686 1.03505 0.28585
 C581 C 0.59731 1.02493 0.31378
 H582 H 0.60358 1.03967 0.32672
 N583 N 0.60625 1.00320 0.27463
 C584 C 0.61912 0.99819 0.19239
 H585 H 0.63958 0.99960 0.19221
 C586 C 0.60594 0.99658 0.16947
 H587 H 0.61634 0.99658 0.15176
 C588 C 0.58053 0.99765 0.21544
 H589 H 0.57064 0.99853 0.23331
 C590 C 0.56656 0.99595 0.19288
 H591 H 0.54600 0.99533 0.19350
 Zn592 Zn 0.62662 1.00040 0.24474
 N593 N 0.60639 0.99848 0.21483
 C594 C 0.66596 0.96810 0.22907
 N595 N 0.64690 0.97081 0.24622
 C596 C 0.64045 0.95157 0.26245
 C597 C 0.65220 0.92808 0.26069
 C598 C 0.67828 0.94493 0.22673
 C599 C 0.63466 1.05134 0.23456
 C600 C 0.64615 1.07521 0.23689
 C601 C 0.68343 1.05523 0.25412
 C602 C 0.67111 1.03161 0.25157
 N603 N 0.64694 1.03024 0.24245
 H604 H 0.67125 0.98374 0.21673
 H605 H 0.62554 0.95400 0.27615
 H606 H 0.64631 0.91262 0.27310
 H607 H 0.69283 0.94272 0.21247
 H608 H 0.61541 1.04970 0.22747
 H609 H 0.63589 1.09173 0.23048
 H610 H 0.70222 1.05599 0.26253
 H611 H 0.68032 1.01457 0.25813
 C612 C 0.57939 0.99558 0.16960
 C613 C 0.57821 1.00866 0.31978
 C614 C 0.67040 1.07764 0.24800
 C615 C 0.67078 0.92444 0.24215
 C616 C 0.08901 0.48192 0.78397
 H617 H 0.08534 0.46570 0.77192
 C618 C 0.07572 0.48441 0.80680
 H619 H 0.06167 0.47014 0.81218
 C620 C 0.11213 0.51998 0.79213
 H621 H 0.12649 0.53378 0.78667
 C622 C 0.09964 0.52296 0.81518
 H623 H 0.10465 0.53888 0.82723
 N624 N 0.10654 0.49984 0.77687
 C625 C 0.11464 0.50266 0.69432
 H626 H 0.13497 0.50594 0.69366
 C627 C 0.10069 0.50171 0.67182
 H628 H 0.11023 0.50462 0.65382
 C629 C 0.07750 0.49428 0.71852
 H630 H 0.06856 0.49121 0.73671
 C631 C 0.06278 0.49317 0.69639
 H632 H 0.04254 0.48935 0.69762
 Zn633 Zn 0.12487 0.49715 0.74586
 N634 N 0.10303 0.49857 0.71706
 C635 C 0.13932 0.45081 0.72413
 N636 N 0.14223 0.46565 0.74506
 C637 C 0.15575 0.45745 0.76551
 C638 C 0.16656 0.43329 0.76548
 C639 C 0.14998 0.42682 0.72322
 C640 C 0.13737 0.54740 0.73521
 C641 C 0.15117 0.57015 0.73643
 C642 C 0.18583 0.54754 0.75578
 C643 C 0.17141 0.52503 0.75397
 N644 N 0.14755 0.52544 0.74396
 H645 H 0.12828 0.45716 0.70817
 H646 H 0.15752 0.46936 0.78210
 H647 H 0.17678 0.42666 0.78203
 H648 H 0.14726 0.41521 0.70649
 H649 H 0.11809 0.54740 0.72810
 H650 H 0.14264 0.58753 0.72974
 H651 H 0.20451 0.54724 0.76444
 H652 H 0.17888 0.50751 0.76140
 C653 C 0.07451 0.49679 0.67275
 C654 C 0.08078 0.50537 0.82252
 C655 C 0.17560 0.57042 0.74699
 C656 C 0.16320 0.41756 0.74428
 C657 C 0.79028 0.90291 0.01986
 H658 H 0.78349 0.89474 0.03748
 C659 C 0.81301 0.91696 0.01958
 H660 H 0.82379 0.91939 0.03695
 C661 C 0.78498 0.90948 -0.02437
 H662 H 0.77413 0.90628 -0.04150
 C663 C 0.80764 0.92355 -0.02552
 H664 H 0.81416 0.93120 -0.04352
 N665 N 0.77705 0.89901 -0.00203
 C666 C 0.69663 0.88214 -0.01186
 H667 H 0.69765 0.86226 -0.01676
 C668 C 0.67312 0.89386 -0.01079
 H669 H 0.65600 0.88304 -0.01513
 C670 C 0.71765 0.92017 0.00097
 H671 H 0.73506 0.93008 0.00606
 C672 C 0.69448 0.93269 0.00216
 H673 H 0.69406 0.95241 0.00782
 Zn674 Zn 0.74850 0.87667 -0.00280
 N675 N 0.71820 0.89521 -0.00549
 C676 C 0.72490 0.85634 0.04117
 N677 N 0.74687 0.85688 0.02755
 C678 C 0.76777 0.84445 0.03594
 C679 C 0.76706 0.83098 0.05885
 C680 C 0.72322 0.84269 0.06385
 C681 C 0.74252 0.86550 -0.05408
 C682 C 0.74438 0.85172 -0.07646
 C683 C 0.76487 0.81824 -0.05296
 C684 C 0.76254 0.83267 -0.03090
 N685 N 0.75141 0.85583 -0.03184
 H686 H 0.70859 0.86666 0.03469
 H687 H 0.78522 0.84559 0.02517
 H688 H 0.78404 0.82178 0.06565
 H689 H 0.70557 0.84240 0.07437
 H690 H 0.73393 0.88401 -0.05443
 H691 H 0.73695 0.85949 -0.09399
 H692 H 0.77345 0.79970 -0.05207
 H693 H 0.76958 0.82533 -0.01312
 C694 C 0.67187 0.91921 -0.00307
 C695 C 0.82198 0.92716 -0.00339
 C696 C 0.75550 0.82778 -0.07594
 C697 C 0.74443 0.82970 0.07288
 C698 C 0.28381 0.40720 0.52186
 H699 H 0.27143 0.40811 0.53817
 C700 C 0.30801 0.41862 0.52280
 H701 H 0.31417 0.42851 0.53975
 C702 C 0.29177 0.39198 0.48044
 H703 H 0.28586 0.38116 0.46409
 C704 C 0.31583 0.40331 0.48047
 H705 H 0.32803 0.40131 0.46410
 N706 N 0.27643 0.39360 0.50111
 C707 C 0.19439 0.38277 0.49515
 H708 H 0.19450 0.36365 0.48781
 C709 C 0.17145 0.39527 0.49748
 H710 H 0.15394 0.38561 0.49214
 C711 C 0.21708 0.41870 0.51071
 H712 H 0.23491 0.42769 0.51593
 C713 C 0.19445 0.43210 0.51303
 H714 H 0.19495 0.45150 0.51975
 Zn715 Zn 0.24580 0.37382 0.50107
 N716 N 0.21656 0.39430 0.50229
 C717 C 0.22280 0.33922 0.53537
 N718 N 0.24500 0.35156 0.52961
 C719 C 0.26579 0.34943 0.54485
 C720 C 0.26436 0.33534 0.56734
 C721 C 0.22051 0.32507 0.55774
 C722 C 0.23825 0.36777 0.44914
 C723 C 0.24064 0.35630 0.42553
 C724 C 0.25580 0.31852 0.44654
 C725 C 0.25321 0.33078 0.46985
 N726 N 0.24481 0.35506 0.47064
 H727 H 0.20660 0.34074 0.52297
 H728 H 0.28343 0.35888 0.53981
 H729 H 0.28085 0.33416 0.57960
 H730 H 0.20260 0.31580 0.56240
 H731 H 0.23203 0.38720 0.45032
 H732 H 0.23585 0.36680 0.40850
 H733 H 0.26275 0.29930 0.44596
 H734 H 0.25866 0.32125 0.48721
 C735 C 0.17126 0.42005 0.50693
 C736 C 0.32449 0.41599 0.50215
 C737 C 0.25000 0.33160 0.42405
 C738 C 0.24141 0.32325 0.57403
 C739 C 0.19948 0.61194 0.02188
 H740 H 0.20333 0.62454 0.03754
 C741 C 0.17504 0.60171 0.01898
 H742 H 0.16073 0.60666 0.03275
 C743 C 0.21269 0.59254 -0.01611
 H744 H 0.22704 0.58989 -0.03038
 C745 C 0.18854 0.58166 -0.01960
 H746 H 0.18536 0.56927 -0.03567
 N747 N 0.21780 0.60731 0.00445
 C748 C 0.29675 0.61082 0.02531
 H749 H 0.29482 0.62756 0.03679
 C750 C 0.31894 0.59687 0.02735
 H751 H 0.33355 0.60272 0.04070
 C752 C 0.28111 0.58364 -0.00702
 H753 H 0.26671 0.57880 -0.02079
 C754 C 0.30316 0.56921 -0.00567
 H755 H 0.30548 0.55333 -0.01839
 Zn756 Zn 0.24934 0.62555 0.00617
 N757 N 0.27817 0.60398 0.00849
 C758 C 0.25393 0.67227 0.03338
 N759 N 0.24997 0.64672 0.03520
 C760 C 0.24874 0.63482 0.05815
 C761 C 0.25210 0.64855 0.08045
 C762 C 0.25746 0.68678 0.05532
 C763 C 0.27194 0.64401 -0.03919
 C764 C 0.27201 0.65666 -0.06254
 C765 C 0.22979 0.67160 -0.05360
 C766 C 0.23057 0.65880 -0.03037
 N767 N 0.25133 0.64519 -0.02376
 H768 H 0.25515 0.68128 0.01494
 H769 H 0.24590 0.61444 0.05903
 H770 H 0.25136 0.63878 0.09858
 H771 H 0.26109 0.70703 0.05376
 H772 H 0.28813 0.63290 -0.03361
 H773 H 0.28832 0.65536 -0.07492
 H774 H 0.21303 0.68206 -0.05892
 H775 H 0.21435 0.65913 -0.01782
 C776 C 0.32227 0.57574 0.01184
 C777 C 0.16889 0.58680 -0.00237
 C778 C 0.25068 0.67051 -0.06992
 C779 C 0.25715 0.67472 0.07912
 C780 C 0.71429 0.09181 0.51164
 H781 H 0.72535 0.09089 0.52893
 C782 C 0.69018 0.08027 0.51063
 H783 H 0.68283 0.07021 0.52709
 C784 C 0.70961 0.10711 0.46954
 H785 H 0.71686 0.11796 0.45365
 C786 C 0.68568 0.09557 0.46760
 H787 H 0.67493 0.09732 0.45014
 N788 N 0.72325 0.10546 0.49146
 C789 C 0.80532 0.11622 0.49040
 H790 H 0.80556 0.13557 0.48343
 C791 C 0.82807 0.10336 0.49293
 H792 H 0.84579 0.11284 0.48792
 C793 C 0.78201 0.08029 0.50538
 H794 H 0.76401 0.07146 0.51027
 C795 C 0.80446 0.06663 0.50816
 H796 H 0.80370 0.04721 0.51500
 Zn797 Zn 0.75373 0.12519 0.49428
 N798 N 0.78291 0.10473 0.49684
 C799 C 0.77447 0.15649 0.53252
 N800 N 0.75243 0.14603 0.52350
 C801 C 0.73007 0.14905 0.53595
 C802 C 0.72951 0.16217 0.55888
 C803 C 0.77478 0.16966 0.55543
 C804 C 0.76528 0.13411 0.44340
 C805 C 0.76577 0.14738 0.42047
 C806 C 0.74891 0.18385 0.44201
 C807 C 0.74883 0.16989 0.46463
 N808 N 0.75682 0.14546 0.46483
 H809 H 0.79200 0.15413 0.52233
 H810 H 0.71268 0.14102 0.52830
 H811 H 0.71173 0.16400 0.56895
 H812 H 0.79251 0.17741 0.56273
 H813 H 0.77103 0.11450 0.44405
 H814 H 0.77216 0.13807 0.40342
 H815 H 0.74221 0.20318 0.44183
 H816 H 0.74180 0.17828 0.48187
 C817 C 0.82780 0.07841 0.50218
 C818 C 0.67536 0.08277 0.48861
 C819 C 0.75748 0.17250 0.41968
 C820 C 0.75213 0.17241 0.56888
 C821 C 0.98142 0.71514 0.90535
 H822 H 0.96377 0.72429 0.90063
 C823 C 0.98107 0.69271 0.91738
 H824 H 0.96293 0.68372 0.92167
 C825 C 1.02666 0.71602 0.90297
 H826 H 1.04428 0.72476 0.89671
 C827 C 1.02723 0.69142 0.91640
 H828 H 1.04553 0.68322 0.92049
 N829 N 1.00513 0.72671 0.89780
 C830 C 1.01085 0.80937 0.88287
 H831 H 1.01622 0.80906 0.86307
 C832 C 1.00707 0.83147 0.89438
 H833 H 1.01013 0.84902 0.88393
 C834 C 1.00178 0.78552 0.92050
 H835 H 0.99846 0.76762 0.93016
 C836 C 0.99823 0.80960 0.93426
 H837 H 0.99266 0.80872 0.95402
 Zn838 Zn 1.00541 0.75588 0.87674
 N839 N 1.00670 0.78587 0.89630
 C840 C 0.96131 0.77769 0.85518
 N841 N 0.97516 0.75610 0.85683
 C842 C 0.96674 0.73409 0.84602
 C843 C 0.94354 0.73326 0.83307
 C844 C 0.93834 0.77783 0.84196
 C845 C 1.05602 0.76703 0.86425
 C846 C 1.07890 0.76458 0.85132
 C847 C 1.05769 0.73652 0.82163
 C848 C 1.03515 0.73943 0.83521
 N849 N 1.03471 0.75456 0.85606
 H850 H 0.96767 0.79487 0.86438
 H851 H 0.97763 0.71695 0.84819
 H852 H 0.93666 0.71544 0.82522
 H853 H 0.92760 0.79519 0.84077
 H854 H 1.05545 0.77828 0.88132
 H855 H 1.09580 0.77439 0.85815
 H856 H 1.05798 0.72434 0.80514
 H857 H 1.01816 0.72926 0.82935
 C858 C 0.99905 0.83183 0.92140
 C859 C 1.00535 0.67990 0.92369
 C860 C 1.07983 0.74917 0.82981
 C861 C 0.92927 0.75546 0.83064
 C862 C 0.48325 0.21358 0.40583
 H863 H 0.46779 0.22648 0.40893
 C864 C 0.48347 0.19005 0.41824
 H865 H 0.46827 0.18484 0.43116
 C866 C 0.52190 0.20429 0.38509
 H867 H 0.53680 0.20971 0.37202
 C868 C 0.52280 0.18062 0.39699
 H869 H 0.53848 0.16812 0.39326
 N870 N 0.50250 0.22038 0.38988
 C871 C 0.50722 0.30290 0.38436
 H872 H 0.50966 0.30417 0.36401
 C873 C 0.50541 0.32495 0.39860
 H874 H 0.50673 0.34330 0.38928
 C875 C 0.50122 0.27736 0.42117
 H876 H 0.49921 0.25876 0.42974
 C877 C 0.49948 0.29907 0.43624
 H878 H 0.49621 0.29720 0.45644
 Zn879 Zn 0.50218 0.25217 0.37284
 N880 N 0.50432 0.27974 0.39562
 C881 C 0.45522 0.27408 0.36101
 N882 N 0.47112 0.25502 0.35451
 C883 C 0.46421 0.23766 0.33663
 C884 C 0.44095 0.23973 0.32389
 C885 C 0.43191 0.27677 0.34888
 C886 C 0.55332 0.26004 0.36429
 C887 C 0.57660 0.25817 0.35203
 C888 C 0.55433 0.24509 0.31401
 C889 C 0.53133 0.24747 0.32697
 N890 N 0.53132 0.25424 0.35187
 H891 H 0.46019 0.28706 0.37603
 H892 H 0.47656 0.22202 0.33252
 H893 H 0.43558 0.22584 0.30969
 H894 H 0.41942 0.29188 0.35449
 H895 H 0.55284 0.26512 0.38414
 H896 H 0.59399 0.26236 0.36233
 H897 H 0.55428 0.23886 0.29446
 H898 H 0.51370 0.24294 0.31741
 C899 C 0.50086 0.32309 0.42468
 C900 C 0.50359 0.17347 0.41396
 C901 C 0.57729 0.24969 0.32690
 C902 C 0.42473 0.25972 0.32983
 C903 C 0.98519 0.28239 0.57924
 H904 H 0.97145 0.26782 0.57405
 C905 C 0.98544 0.30565 0.56639
 H906 H 0.97224 0.30842 0.55086
 C907 C 1.01968 0.29591 0.60491
 H908 H 1.03310 0.29223 0.61989
 C909 C 1.02050 0.31948 0.59270
 H910 H 1.03424 0.33358 0.59910
 N911 N 1.00136 0.27840 0.59896
 C912 C 0.98444 0.19819 0.61303
 H913 H 0.97957 0.19926 0.63285
 C914 C 0.98178 0.17510 0.60053
 H915 H 0.97481 0.15850 0.61075
 C916 C 1.00042 0.21808 0.57573
 H917 H 1.00803 0.23482 0.56633
 C918 C 0.99834 0.19515 0.56253
 H919 H 1.00428 0.19423 0.54290
 Zn920 Zn 0.99668 0.24914 0.62000
 N921 N 0.99350 0.21913 0.60057
 C922 C 0.96439 0.23847 0.66129
 N923 N 0.96637 0.25180 0.63916
 C924 C 0.94600 0.26390 0.62912
 C925 C 0.92226 0.26174 0.64065
 C926 C 0.94089 0.23555 0.67328
 C927 C 1.04126 0.22674 0.63827
 C928 C 1.06337 0.22507 0.65274
 C929 C 1.05136 0.26306 0.67491
 C930 C 1.02911 0.26361 0.66044
 N931 N 1.02482 0.24596 0.64211
 H932 H 0.98082 0.22898 0.66893
 H933 H 0.94778 0.27451 0.61167
 H934 H 0.90608 0.27101 0.63217
 H935 H 0.93931 0.22403 0.69030
 H936 H 1.03770 0.21311 0.62338
 H937 H 1.07670 0.21023 0.64851
 H938 H 1.05472 0.27763 0.68902
 H939 H 1.01567 0.27866 0.66313
 C940 C 0.98877 0.17347 0.57504
 C941 C 1.00219 0.32527 0.57414
 C942 C 1.06881 0.24344 0.67134
 C943 C 0.91937 0.24656 0.66239
 C944 C 0.48129 0.78108 0.08269
 H945 H 0.46678 0.76657 0.08001
 C946 C 0.48029 0.80373 0.06881
 H947 H 0.46535 0.80631 0.05491
 C948 C 0.51816 0.79579 0.10435
 H949 H 0.53272 0.79290 0.11848
 C950 C 0.51737 0.81895 0.09153
 H951 H 0.53139 0.83359 0.09584
 N952 N 0.50017 0.77747 0.09994
 C953 C 0.50608 0.69632 0.11549
 H954 H 0.51030 0.69778 0.13554
 C955 C 0.50427 0.67254 0.10419
 H956 H 0.50731 0.65560 0.11546
 C957 C 0.49628 0.71660 0.07646
 H958 H 0.49323 0.73377 0.06571
 C959 C 0.49419 0.69310 0.06438
 H960 H 0.48947 0.69222 0.04438
 Zn961 Zn 0.50052 0.74804 0.12070
 N962 N 0.50135 0.71769 0.10177
 C963 C 0.45583 0.72628 0.14203
 N964 N 0.47081 0.74759 0.14094
 C965 C 0.46412 0.76920 0.15307
 C966 C 0.44169 0.76982 0.16716
 C967 C 0.43352 0.72596 0.15621
 C968 C 0.55217 0.74388 0.12867
 C969 C 0.57525 0.74502 0.14161
 C970 C 0.55279 0.75796 0.17923
 C971 C 0.53000 0.75617 0.16565
 N972 N 0.53017 0.74929 0.14081
 H973 H 0.46090 0.70949 0.13175
 H974 H 0.47602 0.78606 0.15142
 H975 H 0.43629 0.78727 0.17632
 H976 H 0.42186 0.70883 0.15699
 H977 H 0.55172 0.73874 0.10883
 H978 H 0.59262 0.74044 0.13179
 H979 H 0.55262 0.76374 0.19892
 H980 H 0.51230 0.76061 0.17483
 C981 C 0.49763 0.67083 0.07854
 C982 C 0.49802 0.82329 0.07384
 C983 C 0.57568 0.75196 0.16722
 C984 C 0.42632 0.74785 0.16910
 O985 O -0.01866 0.93307 0.98760
 O986 O -0.00820 0.93409 1.03160
 O987 O -0.07325 0.99330 0.98278
 O988 O -0.07362 1.03521 0.99175
 O989 O -0.01205 0.98946 0.92657
 O990 O 0.03187 0.99848 0.92816
 O991 O -0.00433 1.06283 1.04547
 O992 O -0.04613 1.04373 1.04845
 O993 O 0.04558 1.00173 1.05652
 O994 O 0.05014 0.95975 1.03592
 O995 O 0.05638 1.05287 0.99611
 O996 O 0.04092 1.06047 0.95754
 O997 O 0.01535 1.07700 1.00960
 O998 O 0.00426 1.07068 0.95997
 O999 O 0.06993 1.01791 1.01727
 O1000 O 0.06973 0.97297 1.00602
 O1001 O 0.01087 1.02263 1.07023
 O1002 O -0.03203 1.01224 1.07145
 O1003 O 0.00145 0.94727 0.95194
 O1004 O 0.04313 0.96629 0.94838
 O1005 O -0.04619 1.01159 0.93998
 O1006 O -0.05418 1.04857 0.95927
 O1007 O -0.05983 0.95786 1.00334
 O1008 O -0.04017 0.95331 1.04377
 Zr1009 Zr -0.02120 0.96555 1.01045
 O1010 O 0.00192 0.98771 1.03464
 Zr1011 Zr -0.04057 1.01661 0.97928
 O1012 O -0.01830 1.04107 1.00221
 Zr1013 Zr 0.01013 0.98563 0.95951
 O1014 O 0.03459 1.00878 0.98141
 Zr1015 Zr -0.01285 1.02436 1.03808
 O1016 O -0.03779 1.00120 1.01618
 Zr1017 Zr 0.03783 0.99357 1.01819
 O1018 O 0.01567 0.96870 0.99529
 Zr1019 Zr 0.01838 1.04446 0.98688
 O1020 O -0.00466 1.02236 0.96235
 O1021 O -0.02633 0.98046 0.97411
 O1022 O 0.02356 1.02995 1.02342
 C1023 C -0.00922 0.92977 0.96545
 C1024 C -0.07714 0.97152 0.99326
 C1025 C -0.03275 1.00137 0.92256
 C1026 C 0.00598 1.08037 1.03174
 C1027 C 0.03287 1.01301 1.07378
 C1028 C 0.07339 1.04031 1.00803
 H1029 H 0.00318 0.97901 1.05124
 H1030 H 0.05125 1.01040 0.97289
 H1031 H -0.03746 0.96991 0.96307
 H1032 H -0.02676 1.05758 1.00339
 H1033 H -0.06080 1.03311 1.04290
 H1034 H -0.06834 1.04866 1.00377
 H1035 H 0.07501 0.97985 0.98932
 H1036 H 0.04756 0.95478 0.96258
 H1037 H -0.02862 0.99401 1.07398
 H1038 H -0.05192 0.96699 1.04846
 H1039 H 0.04827 1.04618 0.94812
 H1040 H 0.02686 1.01624 0.92488
 H1041 H 0.00925 0.93076 1.02567
 H1042 H 0.03835 0.95576 1.05003
 H1043 H -0.04266 1.06299 0.96321
 H1044 H -0.00370 1.08467 0.96936
 O1045 O 0.48699 0.47843 0.43162
 O1046 O 0.53074 0.48973 0.43072
 O1047 O 0.48674 0.42401 0.49490
 O1048 O 0.49766 0.42476 0.53571
 O1049 O 0.42880 0.48002 0.48881
 O1050 O 0.42746 0.52422 0.49873
 O1051 O 0.55008 0.49759 0.55825
 O1052 O 0.55456 0.45628 0.54003
 O1053 O 0.55542 0.54759 0.49473
 O1054 O 0.53493 0.55172 0.45532
 O1055 O 0.49548 0.55651 0.54674
 O1056 O 0.45606 0.53324 0.55578
 O1057 O 0.51545 0.51846 0.57238
 O1058 O 0.47077 0.50451 0.57488
 O1059 O 0.51545 0.56958 0.51103
 O1060 O 0.50078 0.56454 0.46447
 O1061 O 0.57173 0.51490 0.51747
 O1062 O 0.57542 0.47227 0.50750
 O1063 O 0.45151 0.49736 0.44639
 O1064 O 0.44469 0.53765 0.46589
 O1065 O 0.44488 0.44771 0.51220
 O1066 O 0.46765 0.44681 0.55225
 O1067 O 0.50421 0.43792 0.45774
 O1068 O 0.54451 0.45889 0.45108
 Zr1069 Zr 0.51119 0.47692 0.46347
 O1070 O 0.53530 0.50214 0.48334
 Zr1071 Zr 0.48358 0.45713 0.51673
 O1072 O 0.50670 0.48138 0.53893
 Zr1073 Zr 0.45972 0.50558 0.48459
 O1074 O 0.48157 0.53201 0.50552
 Zr1075 Zr 0.54133 0.48866 0.52042
 O1076 O 0.51954 0.46173 0.49954
 Zr1077 Zr 0.51730 0.53696 0.48841
 O1078 O 0.49434 0.51278 0.46567
 Zr1079 Zr 0.48973 0.51716 0.54165
 O1080 O 0.46513 0.49188 0.52176
 O1081 O 0.47600 0.47026 0.48023
 O1082 O 0.52511 0.52425 0.52515
 C1083 C 0.46461 0.48735 0.42860
 C1084 C 0.49516 0.42045 0.47237
 C1085 C 0.42658 0.45865 0.50056
 C1086 C 0.53769 0.50921 0.57550
 C1087 C 0.57360 0.53677 0.50667
 C1088 C 0.50557 0.57399 0.53269
 H1089 H 0.55141 0.50437 0.47395
 H1090 H 0.47215 0.54806 0.50642
 H1091 H 0.46511 0.45857 0.47018
 H1092 H 0.50939 0.47339 0.55572
 H1093 H 0.54949 0.44122 0.52990
 H1094 H 0.51137 0.43067 0.54721
 H1095 H 0.48613 0.57163 0.47358
 H1096 H 0.45744 0.54320 0.45317
 H1097 H 0.57595 0.47414 0.48885
 H1098 H 0.54986 0.44748 0.46502
 H1099 H 0.44944 0.54477 0.54254
 H1100 H 0.42483 0.51793 0.51628
 H1101 H 0.52465 0.50707 0.42713
 H1102 H 0.54638 0.53858 0.44880
 H1103 H 0.45486 0.45973 0.55633
 H1104 H 0.47927 0.48902 0.58099
 O1105 O 0.44606 -0.05232 0.48784
 O1106 O 0.46678 -0.05634 0.44857
 O1107 O 0.50851 -0.06096 0.54064
 O1108 O 0.54618 -0.04230 0.54704
 O1109 O 0.45543 -0.00117 0.55204
 O1110 O 0.44735 0.03822 0.53196
 O1111 O 0.57262 0.01412 0.47596
 O1112 O 0.57520 -0.02859 0.48888
 O1113 O 0.51375 0.01814 0.42358
 O1114 O 0.47024 0.00552 0.42181
 O1115 O 0.51694 0.06979 0.48365
 O1116 O 0.50504 0.06539 0.53082
 O1117 O 0.55754 0.04752 0.49816
 O1118 O 0.53905 0.05186 0.53895
 O1119 O 0.49504 0.05635 0.44919
 O1120 O 0.45403 0.03146 0.44342
 O1121 O 0.54897 -0.00285 0.43652
 O1122 O 0.55558 -0.04381 0.45530
 O1123 O 0.43100 -0.01952 0.51087
 O1124 O 0.42953 0.02494 0.49962
 O1125 O 0.49141 -0.01998 0.56605
 O1126 O 0.53531 -0.00621 0.56423
 O1127 O 0.48793 -0.07538 0.50533
 O1128 O 0.50002 -0.07313 0.46112
 Zr1129 Zr 0.48455 -0.04295 0.48204
 O1130 O 0.50611 -0.01888 0.45816
 Zr1131 Zr 0.51448 -0.02202 0.53354
 O1132 O 0.53794 0.00238 0.51173
 Zr1133 Zr 0.46204 0.00618 0.51337
 O1134 O 0.48317 0.03241 0.49129
 Zr1135 Zr 0.54180 -0.01171 0.47477
 O1136 O 0.52118 -0.03806 0.49761
 Zr1137 Zr 0.48944 0.01702 0.45527
 O1138 O 0.46589 -0.00827 0.47646
 Zr1139 Zr 0.51978 0.03727 0.50673
 O1140 O 0.49743 0.01369 0.53078
 O1141 O 0.47857 -0.02900 0.51835
 O1142 O 0.52564 0.02400 0.47005
 C1143 C 0.42828 -0.04111 0.49979
 C1144 C 0.49805 -0.07860 0.52730
 C1145 C 0.46925 -0.01085 0.56962
 C1146 C 0.57512 0.03621 0.48596
 C1147 C 0.53582 0.00884 0.41973
 C1148 C 0.50594 0.07395 0.46236
 H1149 H 0.50755 -0.02696 0.44137
 H1150 H 0.47379 0.04850 0.49047
 H1151 H 0.46809 -0.04045 0.52914
 H1152 H 0.55470 0.00440 0.52005
 H1153 H 0.56977 -0.04376 0.49878
 H1154 H 0.56150 -0.03461 0.53911
 H1155 H 0.44970 0.04552 0.45493
 H1156 H 0.42570 0.01777 0.48268
 H1157 H 0.54255 -0.04936 0.44289
 H1158 H 0.51697 -0.07647 0.46850
 H1159 H 0.48930 0.07165 0.52283
 H1160 H 0.46086 0.04455 0.54350
 H1161 H 0.45579 -0.04250 0.44247
 H1162 H 0.47597 -0.01174 0.41763
 H1163 H 0.52747 0.01024 0.56825
 H1164 H 0.55172 0.03923 0.54430
 O1165 O -0.05957 0.45228 0.98745
 O1166 O -0.03740 0.44869 0.94808
 O1167 O -0.00065 0.44473 1.04247
 O1168 O 0.03651 0.46318 1.05121
 O1169 O -0.05474 0.50369 1.04922
 O1170 O -0.05960 0.54429 1.02913
 O1171 O 0.06809 0.51798 0.98061
 O1172 O 0.06925 0.47531 0.99455
 O1173 O 0.01207 0.52032 0.92428
 O1174 O -0.03132 0.50980 0.92080
 O1175 O 0.01139 0.57476 0.98519
 O1176 O 0.00120 0.57473 1.02725
 O1177 O 0.05209 0.55169 1.00172
 O1178 O 0.02788 0.55357 1.04388
 O1179 O -0.00582 0.56044 0.94820
 O1180 O -0.04765 0.53707 0.94096
 O1181 O 0.04691 0.50094 0.94026
 O1182 O 0.05171 0.46001 0.95978
 O1183 O -0.07614 0.48699 1.00645
 O1184 O -0.07591 0.53134 0.99557
 O1185 O -0.01945 0.48533 1.06568
 O1186 O 0.02516 0.49964 1.06670
 O1187 O -0.01872 0.42976 1.00608
 O1188 O -0.00488 0.43129 0.96249
 Zr1189 Zr -0.02094 0.46192 0.98227
 O1190 O 0.00239 0.48537 0.95942
 Zr1191 Zr 0.00605 0.48347 1.03510
 O1192 O 0.03122 0.50718 1.01443
 Zr1193 Zr -0.04482 0.51180 1.01138
 O1194 O -0.02189 0.53722 0.99039
 Zr1195 Zr 0.03711 0.49247 0.97801
 O1196 O 0.01476 0.46672 0.99994
 Zr1197 Zr -0.01352 0.52144 0.95493
 O1198 O -0.03878 0.49676 0.97498
 Zr1199 Zr 0.01367 0.54215 1.00801
 O1200 O -0.01062 0.51933 1.03096
 O1201 O -0.02889 0.47657 1.01781
 O1202 O 0.02177 0.52835 0.97189
 C1203 C -0.07809 0.46467 0.99690
 C1204 C -0.01041 0.42691 1.02885
 C1205 C -0.04208 0.49386 1.06755
 C1206 C 0.07021 0.53996 0.99086
 C1207 C 0.03458 0.51150 0.92211
 C1208 C 0.00307 0.57814 0.96257
 H1209 H 0.00469 0.47696 0.94288
 H1210 H -0.03100 0.55336 0.98881
 H1211 H -0.04007 0.46520 1.02799
 H1212 H 0.04744 0.50908 1.02379
 H1213 H 0.06298 0.46025 1.00412
 H1214 H 0.05238 0.47015 1.04374
 H1215 H -0.05177 0.55184 0.95161
 H1216 H -0.07834 0.52472 0.97817
 H1217 H 0.03943 0.45449 0.94663
 H1218 H 0.01178 0.42805 0.97052
 H1219 H -0.01746 0.57504 1.02530
 H1220 H -0.04749 0.54915 1.04274
 H1221 H -0.04937 0.46187 0.94238
 H1222 H -0.02723 0.49173 0.91828
 H1223 H 0.01590 0.51512 1.07142
 H1224 H 0.04413 0.54485 1.04685
 O1225 O 0.00746 0.55910 0.45105
 O1226 O 0.04814 0.53914 0.44969
 O1227 O -0.04409 0.49732 0.43579
 O1228 O -0.05191 0.45876 0.45196
 O1229 O -0.05835 0.54773 0.49799
 O1230 O -0.04043 0.55128 0.54033
 O1231 O 0.01397 0.42895 0.50962
 O1232 O 0.00382 0.42938 0.46634
 O1233 O 0.06891 0.48809 0.51890
 O1234 O 0.07055 0.53275 0.50932
 O1235 O 0.00537 0.48317 0.56919
 O1236 O -0.04163 0.49546 0.56233
 O1237 O -0.00996 0.44241 0.54265
 O1238 O -0.04794 0.46079 0.54909
 O1239 O 0.04219 0.50311 0.55759
 O1240 O 0.04930 0.54579 0.53718
 O1241 O 0.05516 0.45306 0.49758
 O1242 O 0.03908 0.44881 0.45482
 O1243 O -0.01399 0.57300 0.48554
 O1244 O -0.01026 0.57198 0.52956
 O1245 O -0.07179 0.51287 0.47614
 O1246 O -0.07205 0.46818 0.48612
 O1247 O -0.00709 0.51713 0.42441
 O1248 O 0.03653 0.50911 0.42827
 Zr1249 Zr 0.01341 0.52048 0.45868
 O1250 O 0.03560 0.49710 0.48206
 Zr1251 Zr -0.03963 0.48965 0.47468
 O1252 O -0.01976 0.46506 0.49902
 Zr1253 Zr -0.02046 0.54004 0.50756
 O1254 O 0.00054 0.51772 0.53311
 Zr1255 Zr 0.01785 0.46134 0.48645
 O1256 O -0.00286 0.48368 0.46027
 Zr1257 Zr 0.03719 0.51193 0.51895
 O1258 O 0.01724 0.53703 0.49481
 Zr1259 Zr -0.01595 0.48119 0.53528
 O1260 O -0.03876 0.50438 0.51172
 O1261 O -0.02368 0.52588 0.47091
 O1262 O 0.02128 0.47556 0.52330
 C1263 C -0.00259 0.57669 0.46426
 C1264 C -0.02906 0.50741 0.41928
 C1265 C -0.07551 0.53435 0.48677
 C1266 C 0.00181 0.42517 0.53040
 C1267 C 0.07227 0.46598 0.50948
 C1268 C 0.02743 0.49268 0.57407
 H1269 H 0.05270 0.49585 0.47456
 H1270 H 0.00090 0.52635 0.54966
 H1271 H -0.03351 0.53700 0.45942
 H1272 H -0.02885 0.44850 0.49967
 H1273 H -0.00448 0.43587 0.45076
 H1274 H -0.04490 0.44310 0.45945
 H1275 H 0.03853 0.54821 0.55231
 H1276 H 0.00841 0.57154 0.53130
 H1277 H 0.05373 0.46052 0.45225
 H1278 H 0.03478 0.49043 0.42753
 H1279 H -0.03278 0.50923 0.57169
 H1280 H -0.05405 0.53843 0.54327
 H1281 H 0.05195 0.55095 0.46381
 H1282 H 0.07610 0.52699 0.49242
 H1283 H -0.07796 0.47539 0.50230
 H1284 H -0.05827 0.45620 0.53409
 O1285 O 0.51134 0.92677 0.00653
 O1286 O 0.50165 0.92898 -0.03773
 O1287 O 0.57003 0.98600 0.01180
 O1288 O 0.57281 1.02739 0.00256
 O1289 O 0.51018 0.98131 0.06728
 O1290 O 0.46575 0.99599 0.06542
 O1291 O 0.50436 1.05761 -0.05065
 O1292 O 0.54528 1.03749 -0.05357
 O1293 O 0.45079 0.99871 -0.06162
 O1294 O 0.44579 0.95569 -0.04404
 O1295 O 0.44220 1.04659 -0.00110
 O1296 O 0.46410 1.04945 0.04253
 O1297 O 0.48412 1.07128 -0.01534
 O1298 O 0.49094 1.07164 0.02777
 O1299 O 0.42684 1.01121 -0.02084
 O1300 O 0.42624 0.96816 -0.01077
 O1301 O 0.48693 1.01847 -0.07550
 O1302 O 0.52842 1.00740 -0.07751
 O1303 O 0.48936 0.94067 0.04070
 O1304 O 0.45446 0.96173 0.05181
 O1305 O 0.54567 1.00234 0.05356
 O1306 O 0.55148 1.04336 0.03332
 O1307 O 0.55448 0.95103 -0.00851
 O1308 O 0.53512 0.94687 -0.04892
 Zr1309 Zr 0.51631 0.95955 -0.01604
 O1310 O 0.49448 0.98241 -0.04027
 Zr1311 Zr 0.53857 1.00981 0.01499
 O1312 O 0.51710 1.03486 -0.00749
 Zr1313 Zr 0.48635 0.98002 0.03512
 O1314 O 0.46266 1.00297 0.01284
 Zr1315 Zr 0.51079 1.01893 -0.04346
 O1316 O 0.53470 0.99493 -0.02192
 Zr1317 Zr 0.45878 0.98824 -0.02392
 O1318 O 0.47968 0.96325 -0.00062
 Zr1319 Zr 0.48039 1.03861 0.00760
 O1320 O 0.50324 1.01639 0.03212
 O1321 O 0.52225 0.97390 0.02028
 O1322 O 0.47444 1.02466 -0.02891
 C1323 C 0.49930 0.92303 0.02742
 C1324 C 0.57251 0.96389 0.00202
 C1325 C 0.53207 0.99175 0.07090
 C1326 C 0.49426 1.07502 -0.03723
 C1327 C 0.46420 1.00988 -0.07881
 C1328 C 0.42419 1.03327 -0.01113
 H1329 H 0.49305 0.97422 -0.05703
 H1330 H 0.44610 1.00415 0.02144
 H1331 H 0.53245 0.96244 0.03107
 H1332 H 0.52622 1.05140 -0.00853
 H1333 H 0.55924 1.02593 -0.04894
 H1334 H 0.56829 1.04083 -0.00975
 H1335 H 0.43232 0.95392 -0.00015
 H1336 H 0.44000 0.96415 0.04009
 H1337 H 0.52684 0.98872 -0.07842
 H1338 H 0.54764 0.96031 -0.05363
 H1339 H 0.44776 1.04009 0.04450
 H1340 H 0.47524 1.01137 0.07097
 H1341 H 0.48389 0.92614 -0.03213
 H1342 H 0.45740 0.95268 -0.05839
 H1343 H 0.53940 1.04692 0.04715
 H1344 H 0.50953 1.07095 0.03002
 O1345 O 0.48860 0.50971 0.07336
 O1346 O 0.53289 0.50361 0.07043
 O1347 O 0.47869 0.56706 0.01451
 O1348 O 0.48768 0.56817 -0.02985
 O1349 O 0.42564 0.50547 0.02132
 O1350 O 0.42761 0.46037 0.00840
 O1351 O 0.54090 0.50438 -0.05888
 O1352 O 0.54509 0.54664 -0.03435
 O1353 O 0.55525 0.45140 -0.00001
 O1354 O 0.53696 0.44459 0.04302
 O1355 O 0.49038 0.43949 -0.04661
 O1356 O 0.45242 0.45757 -0.05390
 O1357 O 0.50686 0.48041 -0.07136
 O1358 O 0.45943 0.49269 -0.06701
 O1359 O 0.51498 0.42601 -0.01384
 O1360 O 0.50658 0.42471 0.03134
 O1361 O 0.56805 0.48817 -0.01923
 O1362 O 0.56911 0.53005 -0.01076
 O1363 O 0.45292 0.48849 0.06052
 O1364 O 0.44727 0.44914 0.04035
 O1365 O 0.43731 0.53999 -0.00183
 O1366 O 0.45655 0.54841 -0.04190
 O1367 O 0.50178 0.55321 0.04824
 O1368 O 0.54342 0.53478 0.05087
 Zr1369 Zr 0.50976 0.51521 0.03989
 O1370 O 0.53342 0.49385 0.01643
 Zr1371 Zr 0.47616 0.53528 -0.00945
 O1372 O 0.49858 0.51494 -0.03516
 Zr1373 Zr 0.45846 0.48298 0.02142
 O1374 O 0.47987 0.46035 -0.00303
 Zr1375 Zr 0.53511 0.51027 -0.01992
 O1376 O 0.51369 0.53344 0.00450
 Zr1377 Zr 0.51733 0.45758 0.01043
 O1378 O 0.49509 0.47792 0.03667
 Zr1379 Zr 0.48381 0.47790 -0.03874
 O1380 O 0.45945 0.49914 -0.01522
 O1381 O 0.47284 0.51951 0.02667
 O1382 O 0.52104 0.47343 -0.02587
 C1383 C 0.46707 0.49869 0.07769
 C1384 C 0.48995 0.57047 0.03590
 C1385 C 0.42059 0.52656 0.01023
 C1386 C 0.52790 0.49228 -0.07568
 C1387 C 0.57213 0.46583 -0.01043
 C1388 C 0.50278 0.42237 -0.03464
 H1389 H 0.55038 0.49305 0.02441
 H1390 H 0.47126 0.44361 -0.00426
 H1391 H 0.46218 0.52956 0.03823
 H1392 H 0.49890 0.52415 -0.05153
 H1393 H 0.53397 0.55000 -0.04908
 H1394 H 0.50492 0.57283 -0.02373
 H1395 H 0.48956 0.41918 0.02535
 H1396 H 0.46226 0.44344 0.05007
 H1397 H 0.56995 0.53071 0.00794
 H1398 H 0.54633 0.54856 0.03831
 H1399 H 0.44224 0.45163 -0.03927
 H1400 H 0.42107 0.46877 -0.00708
 H1401 H 0.53227 0.48486 0.07031
 H1402 H 0.55227 0.45548 0.04540
 H1403 H 0.44539 0.53424 -0.04760
 H1404 H 0.46894 0.50606 -0.07644
 O1405 O 0.05909 -0.04664 0.50433
 O1406 O 0.03896 -0.05170 0.54411
 O1407 O -0.00492 -0.05939 0.45347
 O1408 O -0.03995 -0.04074 0.44171
 O1409 O 0.04826 0.00600 0.44121
 O1410 O 0.05428 0.04520 0.46191
 O1411 O -0.07054 0.00952 0.51574
 O1412 O -0.07086 -0.03298 0.50255
 O1413 O -0.01252 0.01701 0.56935
 O1414 O 0.03266 0.00707 0.57035
 O1415 O -0.01859 0.06947 0.50989
 O1416 O -0.00611 0.07002 0.46506
 O1417 O -0.05689 0.04422 0.49347
 O1418 O -0.03556 0.04973 0.45177
 O1419 O 0.00314 0.05680 0.54494
 O1420 O 0.04554 0.03721 0.55107
 O1421 O -0.04673 -0.00588 0.55531
 O1422 O -0.05073 -0.04756 0.53587
 O1423 O 0.07355 -0.01073 0.48452
 O1424 O 0.07234 0.03349 0.49301
 O1425 O 0.01473 -0.01791 0.42723
 O1426 O -0.03030 -0.00456 0.42818
 O1427 O 0.01811 -0.07241 0.48760
 O1428 O 0.00670 -0.07163 0.53140
 Zr1429 Zr 0.02043 -0.03989 0.51053
 O1430 O -0.00281 -0.01837 0.53437
 Zr1431 Zr -0.00961 -0.02031 0.45882
 O1432 O -0.03471 0.00147 0.48048
 Zr1433 Zr 0.04097 0.01167 0.47999
 O1434 O 0.01816 0.03545 0.50212
 Zr1435 Zr -0.03849 -0.01373 0.51720
 O1436 O -0.01616 -0.03763 0.49444
 Zr1437 Zr 0.01205 0.01870 0.53789
 O1438 O 0.03722 -0.00383 0.51668
 Zr1439 Zr -0.01836 0.03769 0.48604
 O1440 O 0.00563 0.01669 0.46210
 O1441 O 0.02642 -0.02486 0.47435
 O1442 O -0.02416 0.02303 0.52246
 C1443 C 0.07683 -0.03263 0.49479
 C1444 C 0.00619 -0.07649 0.46671
 C1445 C 0.03570 -0.00565 0.42376
 C1446 C -0.07401 0.03133 0.50541
 C1447 C -0.03438 0.00630 0.57252
 C1448 C -0.00896 0.07335 0.53192
 H1449 H -0.00413 -0.02696 0.55103
 H1450 H 0.02652 0.05233 0.50346
 H1451 H 0.03746 -0.03560 0.46381
 H1452 H -0.05137 0.00215 0.47182
 H1453 H -0.06457 -0.04718 0.49219
 H1454 H -0.05518 -0.03787 0.45218
 H1455 H 0.04879 0.05223 0.54012
 H1456 H 0.07364 0.03015 0.51142
 H1457 H -0.03848 -0.05142 0.54954
 H1458 H -0.01049 -0.07566 0.52473
 H1459 H 0.00935 0.07702 0.47334
 H1460 H 0.03946 0.05244 0.45308
 H1461 H 0.04960 -0.03713 0.54980
 H1462 H 0.02586 -0.00973 0.57571
 H1463 H -0.02121 0.01120 0.42289
 H1464 H -0.04962 0.03769 0.44783
 O1465 O 0.73752 0.18039 0.26163
 O1466 O 0.78159 0.18179 0.24608
 O1467 O 0.73801 0.23913 0.31765
 O1468 O 0.74451 0.28022 0.31978
 O1469 O 0.67859 0.23609 0.25806
 O1470 O 0.67848 0.24697 0.21443
 O1471 O 0.79848 0.31007 0.25018
 O1472 O 0.80375 0.29032 0.28953
 O1473 O 0.80669 0.25039 0.19683
 O1474 O 0.78480 0.20893 0.19071
 O1475 O 0.74659 0.30200 0.19017
 O1476 O 0.70506 0.30607 0.21136
 O1477 O 0.76333 0.32431 0.22968
 O1478 O 0.71829 0.32335 0.24259
 O1479 O 0.76703 0.26785 0.17441
 O1480 O 0.75461 0.22289 0.17272
 O1481 O 0.82147 0.27206 0.23114
 O1482 O 0.82300 0.25689 0.27579
 O1483 O 0.70243 0.19467 0.24110
 O1484 O 0.69742 0.21556 0.20076
 O1485 O 0.69440 0.25379 0.29422
 O1486 O 0.71457 0.29617 0.29711
 O1487 O 0.75973 0.20556 0.30222
 O1488 O 0.79483 0.19603 0.27927
 Zr1489 Zr 0.76223 0.21228 0.26290
 O1490 O 0.78620 0.23528 0.24019
 Zr1491 Zr 0.73265 0.26247 0.28573
 O1492 O 0.75544 0.28759 0.26409
 Zr1493 Zr 0.71045 0.23337 0.23433
 O1494 O 0.73205 0.25737 0.21027
 Zr1495 Zr 0.79076 0.27133 0.25658
 O1496 O 0.76923 0.24738 0.28091
 Zr1497 Zr 0.76836 0.24226 0.20519
 O1498 O 0.74561 0.21664 0.22683
 Zr1499 Zr 0.73884 0.29242 0.22810
 O1500 O 0.71449 0.26947 0.25085
 O1501 O 0.72646 0.22683 0.26993
 O1502 O 0.77479 0.27805 0.22099
 C1503 C 0.71520 0.17716 0.25210
 C1504 C 0.75001 0.21828 0.32043
 C1505 C 0.67620 0.24441 0.28075
 C1506 C 0.78551 0.32751 0.23937
 C1507 C 0.82424 0.26240 0.20903
 C1508 C 0.75781 0.29018 0.17227
 H1509 H 0.80263 0.22675 0.23804
 H1510 H 0.72300 0.25945 0.19397
 H1511 H 0.71615 0.21572 0.28125
 H1512 H 0.75749 0.30382 0.27327
 H1513 H 0.79675 0.28078 0.30425
 H1514 H 0.75792 0.29282 0.31532
 H1515 H 0.73787 0.22995 0.16828
 H1516 H 0.71116 0.20428 0.19516
 H1517 H 0.83051 0.24340 0.26535
 H1518 H 0.80666 0.21035 0.28278
 H1519 H 0.70054 0.29483 0.19702
 H1520 H 0.67601 0.26462 0.22017
 H1521 H 0.77247 0.17762 0.23014
 H1522 H 0.79863 0.20398 0.20237
 H1523 H 0.70101 0.29958 0.28455
 H1524 H 0.72654 0.32874 0.25861
 O1525 O 0.75741 0.69822 0.69428
 O1526 O 0.79939 0.69481 0.71485
 O1527 O 0.70730 0.68620 0.75758
 O1528 O 0.69846 0.70466 0.79366
 O1529 O 0.69645 0.75021 0.70431
 O1530 O 0.71705 0.78981 0.69876
 O1531 O 0.77039 0.75710 0.82353
 O1532 O 0.75821 0.71456 0.82379
 O1533 O 0.82557 0.76163 0.76348
 O1534 O 0.82673 0.75591 0.72077
 O1535 O 0.76645 0.81623 0.77060
 O1536 O 0.71977 0.81420 0.75612
 O1537 O 0.74773 0.79090 0.80962
 O1538 O 0.70974 0.79883 0.78921
 O1539 O 0.80137 0.80287 0.74970
 O1540 O 0.80426 0.78177 0.70550
 O1541 O 0.81085 0.74302 0.79970
 O1542 O 0.79126 0.70033 0.80381
 O1543 O 0.73749 0.73348 0.67982
 O1544 O 0.74950 0.77781 0.68081
 O1545 O 0.68240 0.72660 0.73789
 O1546 O 0.68281 0.74043 0.78251
 O1547 O 0.74300 0.67253 0.73808
 O1548 O 0.78622 0.67348 0.74318
 Zr1549 Zr 0.76531 0.70574 0.73270
 O1550 O 0.78942 0.72807 0.75568
 Zr1551 Zr 0.71395 0.72524 0.76261
 O1552 O 0.73594 0.74814 0.78711
 Zr1553 Zr 0.73510 0.75669 0.71200
 O1554 O 0.75770 0.78135 0.73437
 Zr1555 Zr 0.77268 0.73365 0.79138
 O1556 O 0.74969 0.70873 0.76933
 Zr1557 Zr 0.79319 0.76485 0.74039
 O1558 O 0.77167 0.74143 0.71551
 Zr1559 Zr 0.74189 0.78422 0.77073
 O1560 O 0.71742 0.76211 0.74731
 O1561 O 0.72930 0.72023 0.72676
 O1562 O 0.77830 0.77020 0.77664
 C1563 C 0.74708 0.71147 0.67665
 C1564 C 0.72121 0.66866 0.74851
 C1565 C 0.67908 0.73806 0.71659
 C1566 C 0.75906 0.77822 0.82704
 C1567 C 0.82872 0.75258 0.78592
 C1568 C 0.78883 0.81983 0.76147
 H1569 H 0.80601 0.71963 0.75686
 H1570 H 0.75923 0.79807 0.72586
 H1571 H 0.71851 0.70894 0.71613
 H1572 H 0.72709 0.74900 0.80355
 H1573 H 0.74743 0.70032 0.81755
 H1574 H 0.70733 0.71057 0.80915
 H1575 H 0.79564 0.79825 0.70389
 H1576 H 0.76636 0.77084 0.67680
 H1577 H 0.80678 0.69815 0.79357
 H1578 H 0.78868 0.67466 0.76172
 H1579 H 0.72983 0.82314 0.74288
 H1580 H 0.70636 0.79581 0.71286
 H1581 H 0.80212 0.70637 0.70020
 H1582 H 0.82591 0.73742 0.71784
 H1583 H 0.67736 0.75575 0.77311
 H1584 H 0.70062 0.78421 0.79694
 O1585 O 0.29380 0.18979 0.74617
 O1586 O 0.29797 0.20984 0.70478
 O1587 O 0.30076 0.25241 0.79629
 O1588 O 0.28185 0.28967 0.80181
 O1589 O 0.24147 0.19701 0.80670
 O1590 O 0.20126 0.18950 0.78686
 O1591 O 0.22759 0.31450 0.73021
 O1592 O 0.27051 0.31762 0.74360
 O1593 O 0.22700 0.25416 0.67687
 O1594 O 0.23618 0.21285 0.67570
 O1595 O 0.17143 0.25702 0.73619
 O1596 O 0.17166 0.24646 0.78091
 O1597 O 0.19401 0.29863 0.75244
 O1598 O 0.18951 0.27710 0.79395
 O1599 O 0.18607 0.23552 0.70204
 O1600 O 0.21194 0.19442 0.69839
 O1601 O 0.24501 0.29115 0.69072
 O1602 O 0.28522 0.29924 0.70957
 O1603 O 0.25888 0.17320 0.76599
 O1604 O 0.21457 0.17109 0.75481
 O1605 O 0.26007 0.23372 0.82063
 O1606 O 0.24550 0.27724 0.81869
 O1607 O 0.31608 0.23255 0.76138
 O1608 O 0.31509 0.24329 0.71718
 Zr1609 Zr 0.28416 0.22760 0.73779
 O1610 O 0.26090 0.24856 0.71328
 Zr1611 Zr 0.26197 0.25720 0.78829
 O1612 O 0.23811 0.27989 0.76579
 Zr1613 Zr 0.23395 0.20392 0.76813
 O1614 O 0.20863 0.22430 0.74517
 Zr1615 Zr 0.25316 0.28417 0.72916
 O1616 O 0.27896 0.26422 0.75267
 Zr1617 Zr 0.22509 0.23090 0.70948
 O1618 O 0.24957 0.20793 0.73151
 Zr1619 Zr 0.20326 0.26069 0.76017
 O1620 O 0.22617 0.23908 0.78502
 O1621 O 0.26910 0.22148 0.77369
 O1622 O 0.21749 0.26699 0.72366
 C1623 C 0.28136 0.17146 0.75685
 C1624 C 0.31874 0.24243 0.78345
 C1625 C 0.25145 0.21102 0.82405
 C1626 C 0.20560 0.31665 0.74048
 C1627 C 0.23578 0.27680 0.67327
 C1628 C 0.16831 0.24596 0.71475
 H1629 H 0.26955 0.24997 0.69672
 H1630 H 0.19259 0.21444 0.74400
 H1631 H 0.28041 0.21144 0.78475
 H1632 H 0.23605 0.29652 0.77408
 H1633 H 0.28560 0.31231 0.75343
 H1634 H 0.27417 0.30472 0.79375
 H1635 H 0.19675 0.19018 0.70863
 H1636 H 0.22201 0.16699 0.73812
 H1637 H 0.29166 0.28594 0.69822
 H1638 H 0.31783 0.26077 0.72358
 H1639 H 0.16760 0.22922 0.77458
 H1640 H 0.19526 0.20323 0.79800
 H1641 H 0.28636 0.19533 0.70112
 H1642 H 0.25474 0.21065 0.67700
 H1643 H 0.22950 0.26818 0.82319
 H1644 H 0.20059 0.29188 0.79804
 O1645 O 0.19538 0.74672 0.29853
 O1646 O 0.21547 0.70544 0.30036
 O1647 O 0.25722 0.79836 0.31148
 O1648 O 0.29428 0.80829 0.29403
 O1649 O 0.20425 0.80993 0.24952
 O1650 O 0.20077 0.79196 0.20789
 O1651 O 0.32512 0.74058 0.24012
 O1652 O 0.32401 0.75055 0.28442
 O1653 O 0.26706 0.68418 0.23178
 O1654 O 0.22198 0.68201 0.24221
 O1655 O 0.27111 0.74600 0.18021
 O1656 O 0.25960 0.79047 0.18203
 O1657 O 0.31060 0.76148 0.20526
 O1658 O 0.28944 0.80331 0.20203
 O1659 O 0.25163 0.70924 0.19300
 O1660 O 0.20912 0.70192 0.21257
 O1661 O 0.30232 0.69917 0.25207
 O1662 O 0.30596 0.71539 0.29525
 O1663 O 0.18072 0.76723 0.26345
 O1664 O 0.18201 0.75829 0.21902
 O1665 O 0.23897 0.82452 0.27114
 O1666 O 0.28363 0.82551 0.25813
 O1667 O 0.23810 0.76135 0.32417
 O1668 O 0.24536 0.71788 0.32188
 Zr1669 Zr 0.23388 0.74013 0.29062
 O1670 O 0.25753 0.71774 0.26805
 Zr1671 Zr 0.26358 0.79335 0.27249
 O1672 O 0.28868 0.77319 0.24928
 Zr1673 Zr 0.21308 0.77225 0.24061
 O1674 O 0.23588 0.75139 0.21575
 Zr1675 Zr 0.29290 0.73607 0.26321
 O1676 O 0.27029 0.75715 0.28835
 Zr1677 Zr 0.24240 0.71522 0.23123
 O1678 O 0.21699 0.73507 0.25474
 Zr1679 Zr 0.27218 0.76842 0.21317
 O1680 O 0.24826 0.79113 0.23564
 O1681 O 0.22786 0.77664 0.27702
 O1682 O 0.27842 0.73171 0.22658
 C1683 C 0.17770 0.75716 0.28548
 C1684 C 0.24780 0.78347 0.32854
 C1685 C 0.21682 0.82735 0.26130
 C1686 C 0.32829 0.75098 0.21824
 C1687 C 0.28972 0.68170 0.24042
 C1688 C 0.26239 0.72347 0.17624
 H1689 H 0.25922 0.70082 0.27598
 H1690 H 0.22738 0.75041 0.19904
 H1691 H 0.21701 0.78657 0.28849
 H1692 H 0.30520 0.78234 0.24856
 H1693 H 0.31691 0.76000 0.29890
 H1694 H 0.30996 0.80042 0.28771
 H1695 H 0.20520 0.71399 0.19873
 H1696 H 0.17907 0.74047 0.22446
 H1697 H 0.29543 0.69978 0.29720
 H1698 H 0.26412 0.71802 0.32143
 H1699 H 0.24285 0.78357 0.17669
 H1700 H 0.21433 0.80453 0.20368
 H1701 H 0.20319 0.70163 0.28659
 H1702 H 0.22857 0.67653 0.25892
 H1703 H 0.27534 0.83034 0.24196
 H1704 H 0.30355 0.80701 0.21396
 O1705 O 0.18283 0.73135 0.76287
 O1706 O 0.18368 0.73633 0.71993
 O1707 O 0.24408 0.67353 0.76741
 O1708 O 0.28582 0.67308 0.76491
 O1709 O 0.23905 0.73541 0.82550
 O1710 O 0.24691 0.77866 0.82466
 O1711 O 0.31386 0.74219 0.70777
 O1712 O 0.29500 0.70171 0.70363
 O1713 O 0.25279 0.79299 0.69594
 O1714 O 0.21029 0.79782 0.71740
 O1715 O 0.30389 0.80303 0.75627
 O1716 O 0.30806 0.78429 0.79884
 O1717 O 0.32758 0.76268 0.74314
 O1718 O 0.32480 0.75307 0.78957
 O1719 O 0.26918 0.81727 0.73520
 O1720 O 0.22478 0.81807 0.74581
 O1721 O 0.27499 0.75882 0.68272
 O1722 O 0.26224 0.71452 0.68201
 O1723 O 0.19678 0.75000 0.79928
 O1724 O 0.21697 0.79128 0.80306
 O1725 O 0.25670 0.69888 0.81164
 O1726 O 0.29963 0.69653 0.79322
 O1727 O 0.20800 0.68786 0.74882
 O1728 O 0.20575 0.70822 0.70700
 Zr1729 Zr 0.21603 0.72642 0.74130
 O1730 O 0.23858 0.74975 0.71750
 Zr1731 Zr 0.26611 0.70659 0.77353
 O1732 O 0.29108 0.72850 0.75071
 Zr1733 Zr 0.23546 0.75761 0.79249
 O1734 O 0.25931 0.78192 0.77105
 Zr1735 Zr 0.27516 0.73446 0.71459
 O1736 O 0.25167 0.70956 0.73630
 Zr1737 Zr 0.24456 0.78545 0.73420
 O1738 O 0.21917 0.76327 0.75646
 Zr1739 Zr 0.29486 0.76519 0.76595
 O1740 O 0.27206 0.74237 0.79037
 O1741 O 0.22991 0.72120 0.77793
 O1742 O 0.28085 0.77078 0.72933
 C1743 C 0.17916 0.74102 0.78488
 C1744 C 0.22199 0.67007 0.75752
 C1745 C 0.24787 0.71311 0.82912
 C1746 C 0.33138 0.75286 0.72124
 C1747 C 0.26462 0.78044 0.67903
 C1748 C 0.29161 0.82030 0.74442
 H1749 H 0.23002 0.75130 0.70087
 H1750 H 0.26092 0.79854 0.77956
 H1751 H 0.21857 0.71028 0.78845
 H1752 H 0.30754 0.71978 0.74965
 H1753 H 0.28526 0.68686 0.71025
 H1754 H 0.29629 0.67681 0.74977
 H1755 H 0.23094 0.82274 0.76293
 H1756 H 0.20536 0.79564 0.78893
 H1757 H 0.24576 0.72157 0.67671
 H1758 H 0.21903 0.69561 0.70352
 H1759 H 0.29677 0.79875 0.80203
 H1760 H 0.26559 0.77723 0.82566
 H1761 H 0.18466 0.75496 0.71781
 H1762 H 0.20773 0.78843 0.70136
 H1763 H 0.30159 0.70832 0.80770
 H1764 H 0.32788 0.73517 0.78527
 O1765 O 0.26025 0.20840 0.19161
 O1766 O 0.29581 0.19910 0.21403
 O1767 O 0.20413 0.19363 0.25276
 O1768 O 0.19617 0.21044 0.29049
 O1769 O 0.19380 0.25459 0.20024
 O1770 O 0.21226 0.29637 0.19647
 O1771 O 0.26608 0.26600 0.32109
 O1772 O 0.25376 0.22286 0.32162
 O1773 O 0.32085 0.27293 0.26355
 O1774 O 0.31973 0.26164 0.21604
 O1775 O 0.25957 0.32493 0.26700
 O1776 O 0.21519 0.32290 0.25515
 O1777 O 0.24412 0.29992 0.30645
 O1778 O 0.20211 0.30281 0.28473
 O1779 O 0.29594 0.31240 0.24785
 O1780 O 0.30420 0.29452 0.20749
 O1781 O 0.30635 0.25208 0.29852
 O1782 O 0.28835 0.20981 0.30274
 O1783 O 0.23701 0.24149 0.17701
 O1784 O 0.24576 0.28564 0.17833
 O1785 O 0.17899 0.23423 0.23556
 O1786 O 0.17914 0.24643 0.28006
 O1787 O 0.23955 0.18124 0.23186
 O1788 O 0.28391 0.18402 0.24737
 Zr1789 Zr 0.26308 0.21404 0.23106
 O1790 O 0.28642 0.23719 0.25420
 Zr1791 Zr 0.21063 0.23236 0.25987
 O1792 O 0.23164 0.25581 0.28485
 Zr1793 Zr 0.23178 0.26395 0.20931
 O1794 O 0.25331 0.28911 0.23194
 Zr1795 Zr 0.26861 0.24209 0.28945
 O1796 O 0.24646 0.21655 0.26723
 Zr1797 Zr 0.28934 0.27397 0.23890
 O1798 O 0.26877 0.24997 0.21394
 Zr1799 Zr 0.23678 0.29182 0.26808
 O1800 O 0.21338 0.26913 0.24423
 O1801 O 0.22685 0.22761 0.22424
 O1802 O 0.27343 0.27870 0.27473
 C1803 C 0.24978 0.22124 0.17369
 C1804 C 0.21748 0.17693 0.24147
 C1805 C 0.17612 0.24364 0.21325
 C1806 C 0.25572 0.28768 0.32401
 C1807 C 0.32388 0.26373 0.28594
 C1808 C 0.28197 0.32911 0.25830
 H1809 H 0.30329 0.22937 0.25577
 H1810 H 0.25446 0.30579 0.22330
 H1811 H 0.21687 0.21646 0.21273
 H1812 H 0.22279 0.25667 0.30133
 H1813 H 0.24448 0.20764 0.31532
 H1814 H 0.20429 0.21696 0.30615
 H1815 H 0.29089 0.30610 0.20135
 H1816 H 0.26383 0.28116 0.17637
 H1817 H 0.30133 0.20546 0.29004
 H1818 H 0.27480 0.17864 0.26296
 H1819 H 0.22173 0.32792 0.23825
 H1820 H 0.19991 0.30061 0.20986
 H1821 H 0.30813 0.21338 0.21270
 H1822 H 0.32972 0.24937 0.22607
 H1823 H 0.17450 0.26271 0.27197
 H1824 H 0.19851 0.29118 0.29911
 O1825 O 0.79715 0.69485 0.24707
 O1826 O 0.80272 0.71402 0.20575
 O1827 O 0.80663 0.75765 0.29659
 O1828 O 0.78923 0.79538 0.30245
 O1829 O 0.74540 0.70450 0.30709
 O1830 O 0.70469 0.69854 0.28737
 O1831 O 0.73739 0.82217 0.22897
 O1832 O 0.77980 0.82369 0.24261
 O1833 O 0.73363 0.76139 0.17683
 O1834 O 0.74072 0.71793 0.17733
 O1835 O 0.67753 0.76596 0.23711
 O1836 O 0.67672 0.75973 0.27991
 O1837 O 0.70207 0.80773 0.24953
 O1838 O 0.69903 0.78748 0.29424
 O1839 O 0.69217 0.74684 0.20157
 O1840 O 0.71322 0.70364 0.19900
 O1841 O 0.75355 0.79753 0.19028
 O1842 O 0.79468 0.80324 0.20983
 O1843 O 0.76132 0.67987 0.26648
 O1844 O 0.71691 0.67994 0.25512
 O1845 O 0.76503 0.74067 0.32101
 O1846 O 0.75213 0.78538 0.31816
 O1847 O 0.82108 0.73643 0.26212
 O1848 O 0.82069 0.74728 0.21759
 Zr1849 Zr 0.78919 0.73288 0.23825
 O1850 O 0.76706 0.75447 0.21322
 Zr1851 Zr 0.76809 0.76393 0.28846
 O1852 O 0.74575 0.78765 0.26538
 Zr1853 Zr 0.73786 0.71174 0.26859
 O1854 O 0.71363 0.73322 0.24552
 Zr1855 Zr 0.76127 0.79059 0.22880
 O1856 O 0.78572 0.76979 0.25291
 Zr1857 Zr 0.73037 0.73864 0.20975
 O1858 O 0.75374 0.71476 0.23202
 Zr1859 Zr 0.71007 0.77008 0.25994
 O1860 O 0.73153 0.74738 0.28516
 O1861 O 0.77369 0.72780 0.27413
 O1862 O 0.72479 0.77521 0.22348
 C1863 C 0.78382 0.67715 0.25767
 C1864 C 0.82412 0.74647 0.28409
 C1865 C 0.75580 0.71819 0.32445
 C1866 C 0.71494 0.82508 0.23785
 C1867 C 0.74349 0.78358 0.17294
 C1868 C 0.67445 0.75648 0.21494
 H1869 H 0.77575 0.75516 0.19662
 H1870 H 0.69707 0.72422 0.24454
 H1871 H 0.78451 0.71736 0.28530
 H1872 H 0.74442 0.80455 0.27330
 H1873 H 0.79426 0.81798 0.25314
 H1874 H 0.78320 0.81063 0.29339
 H1875 H 0.69751 0.70120 0.20905
 H1876 H 0.72383 0.67590 0.23820
 H1877 H 0.79943 0.79016 0.19739
 H1878 H 0.82454 0.76443 0.22434
 H1879 H 0.67623 0.74098 0.28063
 H1880 H 0.70033 0.71157 0.30005
 H1881 H 0.79057 0.69997 0.20207
 H1882 H 0.75931 0.71595 0.17839
 H1883 H 0.73627 0.77651 0.32343
 H1884 H 0.70794 0.80412 0.29541
 O1885 O 0.70007 0.30121 0.74807
 O1886 O 0.69324 0.28422 0.70628
 O1887 O 0.69192 0.23631 0.79551
 O1888 O 0.70918 0.19808 0.79917
 O1889 O 0.75486 0.28802 0.80609
 O1890 O 0.79430 0.29474 0.78467
 O1891 O 0.75791 0.17398 0.72480
 O1892 O 0.71573 0.17275 0.73879
 O1893 O 0.76040 0.23731 0.67351
 O1894 O 0.75275 0.28023 0.67517
 O1895 O 0.81812 0.22894 0.73032
 O1896 O 0.81919 0.23695 0.77663
 O1897 O 0.79475 0.18799 0.74298
 O1898 O 0.80198 0.20426 0.78616
 O1899 O 0.80229 0.25068 0.69662
 O1900 O 0.78104 0.29441 0.69680
 O1901 O 0.74209 0.20014 0.68679
 O1902 O 0.70073 0.19433 0.70653
 O1903 O 0.73664 0.31503 0.76698
 O1904 O 0.78041 0.31550 0.75419
 O1905 O 0.73498 0.25166 0.81934
 O1906 O 0.74617 0.20707 0.81453
 O1907 O 0.67624 0.25860 0.76199
 O1908 O 0.67502 0.25064 0.71739
 Zr1909 Zr 0.70741 0.26355 0.73765
 O1910 O 0.72824 0.24274 0.71120
 Zr1911 Zr 0.73008 0.23015 0.78598
 O1912 O 0.75160 0.20747 0.76151
 Zr1913 Zr 0.76007 0.28292 0.76691
 O1914 O 0.78327 0.26255 0.74194
 Zr1915 Zr 0.73457 0.20599 0.72546
 O1916 O 0.71114 0.22597 0.75089
 Zr1917 Zr 0.76472 0.25875 0.70684
 O1918 O 0.74266 0.28173 0.73087
 Zr1919 Zr 0.78715 0.22508 0.75514
 O1920 O 0.76663 0.24645 0.78193
 O1921 O 0.72427 0.26696 0.77320
 O1922 O 0.77073 0.22165 0.71925
 C1923 C 0.71387 0.31835 0.75890
 C1924 C 0.67394 0.24759 0.78364
 C1925 C 0.74522 0.27361 0.82345
 C1926 C 0.78090 0.17088 0.73220
 C1927 C 0.75138 0.21487 0.66957
 C1928 C 0.82022 0.23921 0.70830
 H1929 H 0.71892 0.24264 0.69490
 H1930 H 0.79984 0.27149 0.74034
 H1931 H 0.71403 0.27691 0.78521
 H1932 H 0.75320 0.19029 0.76892
 H1933 H 0.70136 0.17832 0.74939
 H1934 H 0.71475 0.18331 0.78924
 H1935 H 0.79765 0.29605 0.70550
 H1936 H 0.77319 0.32009 0.73745
 H1937 H 0.69619 0.20754 0.69401
 H1938 H 0.67201 0.23275 0.72258
 H1939 H 0.82516 0.25347 0.76969
 H1940 H 0.80003 0.28021 0.79508
 H1941 H 0.70587 0.29784 0.70247
 H1942 H 0.73400 0.28029 0.67573
 H1943 H 0.76431 0.21208 0.81553
 H1944 H 0.79088 0.18918 0.78899
 C1945 C 0.05214 1.03295 1.14155
 C1946 C 0.06472 1.01058 1.14943
 C1947 C 0.06622 0.99016 1.13267
 C1948 C 0.05602 0.99164 1.10835
 C1949 C 0.04396 1.01364 1.09975
 C1950 C 0.04223 1.03477 1.11634
 C1951 C 0.04903 1.05352 1.15828
 C1952 C 0.03773 1.07586 1.15006
 C1953 C 0.02933 1.07817 1.12514
 C1954 C 0.03154 1.05793 1.10840
 H1955 H 0.05512 1.05250 1.17786
 H1956 H 0.03566 1.09153 1.16306
 H1957 H 0.02097 1.09574 1.11875
 H1958 H 0.02515 1.06089 1.08919
 H1959 H 0.07585 0.97299 1.13831
 H1960 H 0.05748 0.97525 1.09613
 C1961 C 0.55928 0.53125 0.64167
 C1962 C 0.56898 0.50802 0.65118
 C1963 C 0.56847 0.48655 0.63563
 C1964 C 0.55878 0.48769 0.61111
 C1965 C 0.54924 0.51033 0.60113
 C1966 C 0.54986 0.53255 0.61625
 C1967 C 0.55847 0.55319 0.65691
 C1968 C 0.54999 0.57614 0.64698
 C1969 C 0.54207 0.57770 0.62182
 C1970 C 0.54193 0.55616 0.60654
 H1971 H 0.56422 0.55282 0.67662
 H1972 H 0.54972 0.59286 0.65882
 H1973 H 0.53596 0.59569 0.61414
 H1974 H 0.53598 0.55833 0.58702
 H1975 H 0.57596 0.46873 0.64246
 H1976 H 0.55842 0.47050 0.59988
 C1977 C 0.44859 -0.02842 0.63770
 C1978 C 0.43724 -0.00516 0.64460
 C1979 C 0.43698 0.01492 0.62715
 C1980 C 0.44751 0.01241 0.60321
 C1981 C 0.45903 -0.01017 0.59579
 C1982 C 0.45997 -0.03085 0.61324
 C1983 C 0.44808 -0.04967 0.65419
 C1984 C 0.45926 -0.07239 0.64725
 C1985 C 0.47082 -0.07458 0.62370
 C1986 C 0.47099 -0.05419 0.60673
 H1987 H 0.43880 -0.04913 0.67244
 H1988 H 0.45879 -0.08846 0.66014
 H1989 H 0.47934 -0.09234 0.61836
 H1990 H 0.47956 -0.05723 0.58848
 H1991 H 0.42829 0.03274 0.63205
 H1992 H 0.44675 0.02848 0.59031
 C1993 C -0.08852 0.47991 1.12179
 C1994 C -0.07591 0.49339 1.14161
 C1995 C -0.05228 0.50503 1.13682
 C1996 C -0.04149 0.50438 1.11282
 C1997 C -0.05417 0.49250 1.09267
 C1998 C -0.07776 0.47989 1.09697
 C1999 C -0.11116 0.46583 1.12620
 C2000 C -0.12329 0.45275 1.10653
 C2001 C -0.11306 0.45319 1.08221
 C2002 C -0.09045 0.46649 1.07740
 H2003 H -0.11944 0.46434 1.14491
 H2004 H -0.14062 0.44204 1.11023
 H2005 H -0.12248 0.44285 1.06707
 H2006 H -0.08278 0.46561 1.05843
 H2007 H -0.04232 0.51527 1.15170
 H2008 H -0.02336 0.51394 1.10975
 C2009 C -0.03364 0.50301 0.34659
 C2010 C -0.05884 0.51196 0.34282
 C2011 C -0.07231 0.52046 0.36416
 C2012 C -0.06223 0.51880 0.38849
 C2013 C -0.03827 0.50859 0.39273
 C2014 C -0.02386 0.50024 0.37175
 C2015 C -0.01731 0.49804 0.32598
 C2016 C 0.00664 0.48784 0.32997
 C2017 C 0.01499 0.48267 0.35447
 C2018 C -0.00002 0.48884 0.37519
 H2019 H -0.02264 0.50242 0.30665
 H2020 H 0.01872 0.48380 0.31395
 H2021 H 0.03336 0.47421 0.35745
 H2022 H 0.00709 0.48435 0.39384
 H2023 H -0.09156 0.52721 0.36239
 H2024 H -0.07349 0.52531 0.40430
 C2025 C 0.41748 1.01992 -0.13358
 C2026 C 0.43184 1.00963 -0.15371
 C2027 C 0.45653 1.00134 -0.14906
 C2028 C 0.46701 1.00264 -0.12483
 C2029 C 0.45304 1.01205 -0.10444
 C2030 C 0.42829 1.02142 -0.10878
 C2031 C 0.39245 1.02841 -0.13744
 C2032 C 0.37875 1.03890 -0.11756
 C2033 C 0.38962 1.04114 -0.09357
 C2034 C 0.41416 1.03256 -0.08913
 H2035 H 0.38324 1.02702 -0.15575
 H2036 H 0.35963 1.04544 -0.12084
 H2037 H 0.37899 1.04956 -0.07831
 H2038 H 0.42201 1.03509 -0.07032
 H2039 H 0.46768 0.99353 -0.16432
 H2040 H 0.48595 0.99542 -0.12178
 C2041 C 0.55224 0.51570 -0.14000
 C2042 C 0.56190 0.49274 -0.14970
 C2043 C 0.55891 0.47022 -0.13563
 C2044 C 0.54695 0.47018 -0.11205
 C2045 C 0.53774 0.49269 -0.10185
 C2046 C 0.53968 0.51556 -0.11610
 C2047 C 0.55528 0.53895 -0.15324
 C2048 C 0.54525 0.56127 -0.14365
 C2049 C 0.53211 0.56092 -0.12079
 C2050 C 0.52930 0.53834 -0.10710
 H2051 H 0.56546 0.54019 -0.17100
 H2052 H 0.54759 0.57891 -0.15408
 H2053 H 0.52410 0.57824 -0.11358
 H2054 H 0.51867 0.53883 -0.08963
 H2055 H 0.56631 0.45258 -0.14280
 H2056 H 0.54555 0.45260 -0.10134
 C2057 C 0.05769 0.02006 0.35948
 C2058 C 0.06818 -0.00221 0.34907
 C2059 C 0.06708 -0.02497 0.36300
 C2060 C 0.05598 -0.02595 0.38698
 C2061 C 0.04582 -0.00417 0.39775
 C2062 C 0.04606 0.01895 0.38384
 C2063 C 0.05891 0.04356 0.34645
 C2064 C 0.04805 0.06516 0.35675
 C2065 C 0.03587 0.06383 0.38013
 C2066 C 0.03484 0.04100 0.39361
 H2067 H 0.06829 0.04554 0.32831
 H2068 H 0.04901 0.08300 0.34649
 H2069 H 0.02724 0.08060 0.38790
 H2070 H 0.02497 0.04073 0.41158
 H2071 H 0.07512 -0.04209 0.35529
 H2072 H 0.05576 -0.04373 0.39743
 C2073 C 0.12765 1.08923 1.01452
 C2074 C 0.14860 1.07356 1.00892
 C2075 C 0.14442 1.04767 1.00436
 C2076 C 0.12001 1.03715 1.00506
 C2077 C 0.09897 1.05213 1.01047
 C2078 C 0.10278 1.07825 1.01616
 C2079 C 0.13077 1.11568 1.01811
 C2080 C 0.11024 1.13060 1.02478
 C2081 C 0.08628 1.11959 1.02800
 C2082 C 0.08250 1.09369 1.02382
 H2083 H 0.14898 1.12514 1.01564
 H2084 H 0.11299 1.15080 1.02767
 H2085 H 0.07051 1.13120 1.03365
 H2086 H 0.06369 1.08592 1.02709
 H2087 H 0.16024 1.03551 1.00009
 H2088 H 0.11748 1.01718 1.00069
 C2089 C 0.62575 0.58844 0.50850
 C2090 C 0.64729 0.57341 0.50331
 C2091 C 0.64411 0.54720 0.50005
 C2092 C 0.62019 0.53570 0.50188
 C2093 C 0.59864 0.54998 0.50723
 C2094 C 0.60141 0.57652 0.51138
 C2095 C 0.62780 0.61514 0.51065
 C2096 C 0.60680 0.62950 0.51714
 C2097 C 0.58343 0.61766 0.52165
 C2098 C 0.58068 0.59145 0.51886
 H2099 H 0.64553 0.62520 0.50719
 H2100 H 0.60873 0.64990 0.51895
 H2101 H 0.56734 0.62884 0.52727
 H2102 H 0.56235 0.58308 0.52315
 H2103 H 0.66036 0.53548 0.49620
 H2104 H 0.61845 0.51544 0.49867
 C2105 C 0.64200 0.45486 0.00532
 C2106 C 0.64653 0.43353 -0.01026
 C2107 C 0.62701 0.42408 -0.02590
 C2108 C 0.60321 0.43522 -0.02625
 C2109 C 0.59829 0.45632 -0.01116
 C2110 C 0.61772 0.46643 0.00474
 C2111 C 0.66068 0.46429 0.02230
 C2112 C 0.65576 0.48495 0.03785
 C2113 C 0.63214 0.49636 0.03714
 C2114 C 0.61322 0.48713 0.02095
 H2115 H 0.67908 0.45568 0.02406
 H2116 H 0.67028 0.49199 0.05071
 H2117 H 0.62835 0.51225 0.04943
 H2118 H 0.59503 0.49619 0.02152
 H2119 H 0.63014 0.40762 -0.03767
 H2120 H 0.58838 0.42711 -0.03815
 C2121 C 0.14537 -0.04419 0.51533
 C2122 C 0.15072 -0.06566 0.50023
 C2123 C 0.13215 -0.07508 0.48347
 C2124 C 0.10854 -0.06372 0.48150
 C2125 C 0.10281 -0.04252 0.49613
 C2126 C 0.12118 -0.03255 0.51326
 C2127 C 0.16309 -0.03464 0.53319
 C2128 C 0.15728 -0.01392 0.54834
 C2129 C 0.13367 -0.00259 0.54634
 C2130 C 0.11567 -0.01188 0.52915
 H2131 H 0.18143 -0.04321 0.53588
 H2132 H 0.17108 -0.00678 0.56192
 H2133 H 0.12916 0.01330 0.55836
 H2134 H 0.09735 -0.00297 0.52870
 H2135 H 0.13592 -0.09160 0.47198
 H2136 H 0.09447 -0.07173 0.46865
 C2137 C 0.37379 -0.09063 0.50362
 C2138 C 0.35284 -0.07438 0.50010
 C2139 C 0.35707 -0.04835 0.49661
 C2140 C 0.38161 -0.03810 0.49692
 C2141 C 0.40279 -0.05356 0.50053
 C2142 C 0.39896 -0.08019 0.50414
 C2143 C 0.37018 -0.11713 0.50658
 C2144 C 0.39073 -0.13291 0.51093
 C2145 C 0.41520 -0.12271 0.51229
 C2146 C 0.41935 -0.09670 0.50891
 H2147 H 0.35150 -0.12593 0.50553
 H2148 H 0.38764 -0.15314 0.51337
 H2149 H 0.43108 -0.13500 0.51601
 H2150 H 0.43867 -0.08992 0.51055
 H2151 H 0.34118 -0.03579 0.49396
 H2152 H 0.38409 -0.01783 0.49403
 C2153 C -0.13314 0.41776 1.00842
 C2154 C -0.15257 0.43020 0.99468
 C2155 C -0.14724 0.45337 0.98258
 C2156 C -0.12305 0.46439 0.98390
 C2157 C -0.10342 0.45235 0.99701
 C2158 C -0.10836 0.42897 1.00966
 C2159 C -0.13779 0.39433 1.02085
 C2160 C -0.11864 0.38252 1.03463
 C2161 C -0.09456 0.39369 1.03624
 C2162 C -0.08937 0.41670 1.02394
 H2163 H -0.15620 0.38492 1.02002
 H2164 H -0.12250 0.36461 1.04415
 H2165 H -0.07983 0.38443 1.04703
 H2166 H -0.07049 0.42481 1.02593
 H2167 H -0.16198 0.46304 0.97211
 H2168 H -0.11950 0.48233 0.97427
 C2169 C -0.14333 0.54703 0.50774
 C2170 C -0.15022 0.56547 0.48944
 C2171 C -0.13297 0.57252 0.47034
 C2172 C -0.10899 0.56176 0.46926
 C2173 C -0.10161 0.54381 0.48735
 C2174 C -0.11875 0.53621 0.50677
 C2175 C -0.16002 0.53969 0.52750
 C2176 C -0.15269 0.52199 0.54575
 C2177 C -0.12863 0.51149 0.54487
 C2178 C -0.11172 0.51856 0.52569
 H2179 H -0.17877 0.54760 0.52910
 H2180 H -0.16570 0.51652 0.56077
 H2181 H -0.12297 0.49792 0.55922
 H2182 H -0.09307 0.51026 0.52597
 H2183 H -0.13798 0.58685 0.45646
 H2184 H -0.09589 0.56784 0.45452
 C2185 C 0.35509 1.04414 0.00710
 C2186 C 0.35047 1.06659 -0.00705
 C2187 C 0.36977 1.07701 -0.02238
 C2188 C 0.39344 1.06576 -0.02378
 C2189 C 0.39839 1.04352 -0.01022
 C2190 C 0.37917 1.03234 0.00525
 C2191 C 0.33674 1.03371 0.02389
 C2192 C 0.34167 1.01177 0.03782
 C2193 C 0.36501 1.00002 0.03570
 C2194 C 0.38368 1.01024 0.01979
 H2195 H 0.31858 1.04249 0.02675
 H2196 H 0.32738 1.00396 0.05050
 H2197 H 0.36881 0.98308 0.04670
 H2198 H 0.40167 1.00075 0.01927
 H2199 H 0.36656 1.09428 -0.03310
 H2200 H 0.40808 1.07453 -0.03548
 C2201 C -0.01109 1.14953 1.04306
 C2202 C 0.00590 1.15538 1.06314
 C2203 C 0.02319 1.13718 1.07144
 C2204 C 0.02322 1.11303 1.06080
 C2205 C 0.00601 1.10648 1.04156
 C2206 C -0.01113 1.12484 1.03224
 C2207 C -0.02803 1.16778 1.03346
 C2208 C -0.04491 1.16169 1.01392
 C2209 C -0.04526 1.13742 1.00361
 C2210 C -0.02860 1.11913 1.01263
 H2211 H -0.02825 1.18692 1.04080
 H2212 H -0.05779 1.17585 1.00675
 H2213 H -0.05847 1.13276 0.98850
 H2214 H -0.02959 1.10060 1.00408
 H2215 H 0.03634 1.14153 1.08673
 H2216 H 0.03676 1.09935 1.06766
 C2217 C 0.50943 0.64761 0.53930
 C2218 C 0.50495 0.64941 0.56569
 C2219 C 0.50075 0.62739 0.57993
 C2220 C 0.50124 0.60364 0.56868
 C2221 C 0.50574 0.60073 0.54254
 C2222 C 0.50957 0.62324 0.52735
 C2223 C 0.51304 0.66980 0.52444
 C2224 C 0.51695 0.66835 0.49844
 C2225 C 0.51676 0.64492 0.48660
 C2226 C 0.51284 0.62272 0.50065
 H2227 H 0.51260 0.68855 0.53267
 H2228 H 0.51975 0.68553 0.48736
 H2229 H 0.51934 0.64393 0.46626
 H2230 H 0.51202 0.60577 0.48964
 H2231 H 0.49729 0.62858 0.60015
 H2232 H 0.49806 0.58727 0.58085
 C2233 C 0.00415 0.64910 0.45733
 C2234 C -0.00193 0.65170 0.43121
 C2235 C -0.00784 0.62997 0.41700
 C2236 C -0.00779 0.60597 0.42808
 C2237 C -0.00151 0.60277 0.45371
 C2238 C 0.00536 0.62439 0.46839
 C2239 C 0.00887 0.67051 0.47279
 C2240 C 0.01639 0.66760 0.49800
 C2241 C 0.01945 0.64344 0.50823
 C2242 C 0.01411 0.62203 0.49361
 H2243 H 0.00669 0.68963 0.46566
 H2244 H 0.02019 0.68417 0.50955
 H2245 H 0.02595 0.64128 0.52761
 H2246 H 0.01751 0.60372 0.50204
 H2247 H -0.01243 0.63159 0.39701
 H2248 H -0.01287 0.58970 0.41651
 C2249 C 0.50163 1.14734 -0.04406
 C2250 C 0.49320 1.15042 -0.06946
 C2251 C 0.48520 1.12900 -0.08323
 C2252 C 0.48573 1.10482 -0.07246
 C2253 C 0.49458 1.10117 -0.04766
 C2254 C 0.50334 1.12246 -0.03348
 C2255 C 0.50830 1.16844 -0.02885
 C2256 C 0.51816 1.16505 -0.00452
 C2257 C 0.52169 1.14070 0.00504
 C2258 C 0.51449 1.11959 -0.00928
 H2259 H 0.50584 1.18770 -0.03549
 H2260 H 0.52340 1.18139 0.00683
 H2261 H 0.53000 1.13814 0.02367
 H2262 H 0.51831 1.10110 -0.00147
 H2263 H 0.47877 1.13099 -0.10267
 H2264 H 0.47915 1.08877 -0.08361
 C2265 C 0.47857 0.35869 -0.06007
 C2266 C 0.50172 0.34847 -0.06855
 C2267 C 0.52460 0.36171 -0.06427
 C2268 C 0.52473 0.38543 -0.05263
 C2269 C 0.50196 0.39647 -0.04507
 C2270 C 0.47870 0.38279 -0.04802
 C2271 C 0.45528 0.34531 -0.06311
 C2272 C 0.43266 0.35539 -0.05429
 C2273 C 0.43282 0.37875 -0.04209
 C2274 C 0.45556 0.39228 -0.03882
 H2275 H 0.45437 0.32688 -0.07206
 H2276 H 0.41497 0.34491 -0.05670
 H2277 H 0.41526 0.38634 -0.03496
 H2278 H 0.45486 0.40995 -0.02864
 H2279 H 0.54239 0.35394 -0.07066
 H2280 H 0.54263 0.39559 -0.05018
 C2281 C -0.02011 -0.13932 0.44146
 C2282 C 0.00288 -0.15104 0.43459
 C2283 C 0.02617 -0.13925 0.44052
 C2284 C 0.02698 -0.11538 0.45180
 C2285 C 0.00451 -0.10274 0.45735
 C2286 C -0.01929 -0.11500 0.45305
 C2287 C -0.04390 -0.15142 0.43735
 C2288 C -0.06635 -0.13978 0.44451
 C2289 C -0.06555 -0.11609 0.45607
 C2290 C -0.04231 -0.10381 0.46047
 H2291 H -0.04536 -0.17007 0.42892
 H2292 H -0.08444 -0.14930 0.44130
 H2293 H -0.08302 -0.10728 0.46187
 H2294 H -0.04256 -0.08575 0.47010
 H2295 H 0.04384 -0.14819 0.43549
 H2296 H 0.04526 -0.10630 0.45534
 C2297 C 0.47884 -0.13683 0.56653
 C2298 C 0.49984 -0.15253 0.56152
 C2299 C 0.51855 -0.14437 0.54438
 C2300 C 0.51727 -0.12052 0.53294
 C2301 C 0.49725 -0.10428 0.53833
 C2302 C 0.47760 -0.11243 0.55493
 C2303 C 0.45901 -0.14490 0.58285
 C2304 C 0.43853 -0.12919 0.58767
 C2305 C 0.43744 -0.10524 0.57647
 C2306 C 0.45681 -0.09682 0.56036
 H2307 H 0.45908 -0.16343 0.59182
 H2308 H 0.42344 -0.13562 0.60018
 H2309 H 0.42156 -0.09307 0.58036
 H2310 H 0.45529 -0.07805 0.55215
 H2311 H 0.53467 -0.15625 0.54046
 H2312 H 0.53236 -0.11442 0.52024
 C2313 C -0.02677 0.37216 1.07411
 C2314 C -0.01166 0.35267 1.06334
 C2315 C -0.00003 0.35741 1.03972
 C2316 C -0.00065 0.38135 1.02846
 C2317 C -0.01262 0.40148 1.04045
 C2318 C -0.02638 0.39695 1.06313
 C2319 C -0.04360 0.36718 1.09452
 C2320 C -0.05753 0.38655 1.10539
 C2321 C -0.05569 0.41110 1.09576
 C2322 C -0.04064 0.41629 1.07459
 H2323 H -0.04665 0.34819 1.10191
 H2324 H -0.07003 0.38243 1.12121
 H2325 H -0.06652 0.42602 1.10437
 H2326 H -0.04089 0.43535 1.06696
 H2327 H 0.01130 0.34311 1.03062
 H2328 H 0.00949 0.38454 1.01083
 C2329 C 0.78150 0.31875 0.10911
 C2330 C 0.75782 0.32744 0.09891
 C2331 C 0.73615 0.32554 0.11461
 C2332 C 0.73690 0.31365 0.13810
 C2333 C 0.75922 0.30309 0.14733
 C2334 C 0.78197 0.30603 0.13321
 C2335 C 0.80511 0.32490 0.09754
 C2336 C 0.82796 0.31670 0.10791
 C2337 C 0.82811 0.30307 0.13054
 C2338 C 0.80546 0.29812 0.14333
 H2339 H 0.80640 0.33703 0.08100
 H2340 H 0.84573 0.32149 0.09862
 H2341 H 0.84596 0.29713 0.13872
 H2342 H 0.80677 0.28895 0.16163
 H2343 H 0.71765 0.33151 0.10809
 H2344 H 0.71944 0.31193 0.14888
 C2345 C 0.28551 0.81393 0.61780
 C2346 C 0.26173 0.81454 0.60501
 C2347 C 0.24025 0.80355 0.61650
 C2348 C 0.24187 0.79215 0.64027
 C2349 C 0.26501 0.79135 0.65331
 C2350 C 0.28711 0.80223 0.64223
 C2351 C 0.30754 0.82543 0.60734
 C2352 C 0.33058 0.82514 0.62050
 C2353 C 0.33207 0.81376 0.64437
 C2354 C 0.31054 0.80253 0.65528
 H2355 H 0.30714 0.83490 0.58910
 H2356 H 0.34733 0.83399 0.61223
 H2357 H 0.34995 0.81381 0.65457
 H2358 H 0.31231 0.79432 0.67406
 H2359 H 0.22196 0.80404 0.60704
 H2360 H 0.22479 0.78408 0.64872
 C2361 C 0.72541 0.68737 0.61153
 C2362 C 0.74931 0.68029 0.60160
 C2363 C 0.77116 0.68302 0.61656
 C2364 C 0.76985 0.69296 0.64086
 C2365 C 0.74667 0.70069 0.65094
 C2366 C 0.72410 0.69781 0.63641
 C2367 C 0.70267 0.68351 0.59770
 C2368 C 0.67931 0.69020 0.60790
 C2369 C 0.67806 0.70051 0.63210
 C2370 C 0.70014 0.70412 0.64637
 H2371 H 0.70262 0.67501 0.57907
 H2372 H 0.66205 0.68714 0.59705
 H2373 H 0.65984 0.70547 0.63997
 H2374 H 0.69815 0.71150 0.66533
 H2375 H 0.78946 0.67738 0.60931
 H2376 H 0.78720 0.69494 0.65182
 C2377 C 0.27858 0.19601 0.11228
 C2378 C 0.25588 0.19131 0.09789
 C2379 C 0.23282 0.20057 0.10751
 C2380 C 0.23139 0.21056 0.13183
 C2381 C 0.25287 0.21226 0.14737
 C2382 C 0.27694 0.20640 0.13717
 C2383 C 0.30304 0.19323 0.10152
 C2384 C 0.32499 0.19858 0.11544
 C2385 C 0.32325 0.20788 0.13995
 C2386 C 0.29956 0.21225 0.15057
 H2387 H 0.30553 0.18787 0.08194
 H2388 H 0.34346 0.19616 0.10688
 H2389 H 0.34036 0.21259 0.15048
 H2390 H 0.29926 0.22131 0.16887
 H2391 H 0.21507 0.19797 0.09732
 H2392 H 0.21308 0.21615 0.13897
 C2393 C 0.26558 0.16707 0.87995
 C2394 C 0.25304 0.18039 0.89949
 C2395 C 0.24119 0.20334 0.89397
 C2396 C 0.24145 0.21323 0.86947
 C2397 C 0.25325 0.20026 0.84975
 C2398 C 0.26582 0.17720 0.85485
 C2399 C 0.27768 0.14378 0.88473
 C2400 C 0.29042 0.13125 0.86541
 C2401 C 0.29126 0.14153 0.84105
 C2402 C 0.27909 0.16425 0.83571
 H2403 H 0.27743 0.13504 0.90334
 H2404 H 0.29975 0.11351 0.86940
 H2405 H 0.30138 0.13184 0.82620
 H2406 H 0.28054 0.17170 0.81661
 H2407 H 0.23164 0.21366 0.90880
 H2408 H 0.23187 0.23092 0.86573
 C2409 C 0.76817 0.67262 0.37952
 C2410 C 0.75597 0.68587 0.39929
 C2411 C 0.74530 0.70954 0.39436
 C2412 C 0.74621 0.72010 0.37010
 C2413 C 0.75747 0.70709 0.35007
 C2414 C 0.76904 0.68338 0.35470
 C2415 C 0.77934 0.64877 0.38383
 C2416 C 0.79163 0.63617 0.36430
 C2417 C 0.79301 0.64696 0.34019
 C2418 C 0.78188 0.67033 0.33534
 H2419 H 0.77872 0.63967 0.40227
 H2420 H 0.80021 0.61796 0.36791
 H2421 H 0.80276 0.63716 0.32518
 H2422 H 0.78378 0.67819 0.31645
 H2423 H 0.73601 0.71979 0.40939
 H2424 H 0.73737 0.73826 0.36676
 C2425 C 0.25642 0.78815 0.40068
 C2426 C 0.24632 0.81260 0.40476
 C2427 C 0.23669 0.82630 0.38408
 C2428 C 0.23734 0.81649 0.35963
 C2429 C 0.24782 0.79273 0.35498
 C2430 C 0.25793 0.77851 0.37550
 C2431 C 0.26492 0.77296 0.42107
 C2432 C 0.27606 0.74957 0.41665
 C2433 C 0.27903 0.74092 0.39196
 C2434 C 0.27017 0.75523 0.37155
 H2435 H 0.26290 0.77888 0.44056
 H2436 H 0.28265 0.73821 0.43245
 H2437 H 0.28821 0.72301 0.38860
 H2438 H 0.27344 0.74810 0.35272
 H2439 H 0.22893 0.84501 0.38683
 H2440 H 0.22958 0.82759 0.34416
 C2441 C 0.74867 0.28056 0.89613
 C2442 C 0.74239 0.30654 0.89820
 C2443 C 0.73685 0.32043 0.87619
 C2444 C 0.73789 0.30927 0.85240
 C2445 C 0.74480 0.28387 0.84961
 C2446 C 0.75071 0.26934 0.87162
 C2447 C 0.75283 0.26540 0.91788
 C2448 C 0.76035 0.24027 0.91560
 C2449 C 0.76397 0.22984 0.89173
 C2450 C 0.75932 0.24419 0.86996
 H2451 H 0.75016 0.27271 0.93680
 H2452 H 0.76366 0.22894 0.93244
 H2453 H 0.77038 0.21050 0.89006
 H2454 H 0.76308 0.23552 0.85197
 H2455 H 0.73201 0.34030 0.87739
 H2456 H 0.73321 0.32069 0.83592
 C2457 C 0.81860 0.38908 0.21812
 C2458 C 0.81908 0.40227 0.24166
 C2459 C 0.80862 0.39049 0.26323
 C2460 C 0.79790 0.36626 0.26198
 C2461 C 0.79659 0.35327 0.23897
 C2462 C 0.80648 0.36470 0.21667
 C2463 C 0.83063 0.39903 0.19619
 C2464 C 0.82935 0.38608 0.17320
 C2465 C 0.81646 0.36287 0.17159
 C2466 C 0.80528 0.35208 0.19312
 H2467 H 0.84147 0.41661 0.19658
 H2468 H 0.83852 0.39405 0.15653
 H2469 H 0.81548 0.35302 0.15366
 H2470 H 0.79602 0.33369 0.19123
 H2471 H 0.80881 0.40016 0.28134
 H2472 H 0.79033 0.35762 0.27913
 C2473 C 0.34147 0.87343 0.73642
 C2474 C 0.32668 0.89468 0.74327
 C2475 C 0.30098 0.89098 0.74927
 C2476 C 0.28981 0.86686 0.74871
 C2477 C 0.30390 0.84563 0.74195
 C2478 C 0.32974 0.84889 0.73485
 C2479 C 0.36778 0.87587 0.73145
 C2480 C 0.38168 0.85510 0.72337
 C2481 C 0.36979 0.83156 0.72015
 C2482 C 0.34409 0.82840 0.72581
 H2483 H 0.37792 0.89369 0.73392
 H2484 H 0.40176 0.85736 0.71939
 H2485 H 0.38055 0.81562 0.71338
 H2486 H 0.33555 0.80990 0.72259
 H2487 H 0.28940 0.90698 0.75438
 H2488 H 0.27005 0.86468 0.75414
 C2489 C 0.16955 0.87984 0.27559
 C2490 C 0.18181 0.90087 0.26284
 C2491 C 0.20685 0.89737 0.25404
 C2492 C 0.21802 0.87362 0.25452
 C2493 C 0.20486 0.85234 0.26380
 C2494 C 0.18079 0.85534 0.27519
 C2495 C 0.14773 0.88300 0.29089
 C2496 C 0.13581 0.86236 0.30279
 C2497 C 0.14581 0.83823 0.30070
 C2498 C 0.16831 0.83472 0.28745
 H2499 H 0.14010 0.90154 0.29457
 H2500 H 0.11893 0.86518 0.31406
 H2501 H 0.13653 0.82232 0.31012
 H2502 H 0.17618 0.81590 0.28763
 H2503 H 0.21734 0.91241 0.24444
 H2504 H 0.23672 0.87160 0.24628
 C2505 C 0.66700 0.37120 0.77272
 C2506 C 0.68003 0.39196 0.76102
 C2507 C 0.70460 0.38857 0.75164
 C2508 C 0.71574 0.36476 0.75220
 C2509 C 0.70261 0.34362 0.76211
 C2510 C 0.67840 0.34684 0.77329
 C2511 C 0.64309 0.37423 0.78432
 C2512 C 0.63064 0.35373 0.79599
 C2513 C 0.64181 0.32997 0.79663
 C2514 C 0.66550 0.32649 0.78555
 H2515 H 0.63399 0.39248 0.78483
 H2516 H 0.61234 0.35635 0.80483
 H2517 H 0.63217 0.31421 0.80597
 H2518 H 0.67377 0.30789 0.78713
 H2519 H 0.71488 0.40433 0.74294
 H2520 H 0.73435 0.36260 0.74382
 C2521 C 0.71385 0.59747 0.76361
 C2522 C 0.68913 0.59298 0.75373
 C2523 C 0.67588 0.61308 0.74268
 C2524 C 0.68673 0.63729 0.74103
 C2525 C 0.71122 0.64227 0.75030
 C2526 C 0.72487 0.62239 0.76218
 C2527 C 0.72747 0.57799 0.77581
 C2528 C 0.75134 0.58290 0.78638
 C2529 C 0.76183 0.60730 0.78551
 C2530 C 0.74869 0.62693 0.77379
 H2531 H 0.71973 0.55893 0.77761
 H2532 H 0.76155 0.56779 0.79567
 H2533 H 0.78013 0.61112 0.79424
 H2534 H 0.75707 0.64571 0.77454
 H2535 H 0.65685 0.60998 0.73529
 H2536 H 0.67582 0.65233 0.73248
 C2537 C 0.17090 0.12130 0.23196
 C2538 C 0.18555 0.10137 0.24230
 C2539 C 0.21074 0.10619 0.24959
 C2540 C 0.22111 0.13068 0.24815
 C2541 C 0.20656 0.15101 0.23946
 C2542 C 0.18151 0.14631 0.23042
 C2543 C 0.14600 0.11682 0.22277
 C2544 C 0.13193 0.13650 0.21229
 C2545 C 0.14240 0.16087 0.21052
 C2546 C 0.16697 0.16579 0.21934
 H2547 H 0.13730 0.09807 0.22329
 H2548 H 0.11290 0.13276 0.20527
 H2549 H 0.13149 0.17600 0.20209
 H2550 H 0.17455 0.18482 0.21693
 H2551 H 0.22219 0.09102 0.25722
 H2552 H 0.24035 0.13396 0.25486
 C2553 C 0.33007 0.11968 0.76893
 C2554 C 0.31761 0.09903 0.75665
 C2555 C 0.29301 0.10206 0.74710
 C2556 C 0.28124 0.12551 0.74819
 C2557 C 0.29379 0.14663 0.75872
 C2558 C 0.31807 0.14371 0.76995
 C2559 C 0.35405 0.11685 0.78058
 C2560 C 0.36593 0.13723 0.79286
 C2561 C 0.35418 0.16067 0.79392
 C2562 C 0.33045 0.16396 0.78268
 H2563 H 0.36363 0.09883 0.78064
 H2564 H 0.38428 0.13476 0.80178
 H2565 H 0.36344 0.17633 0.80366
 H2566 H 0.32177 0.18231 0.78449
 H2567 H 0.28322 0.08636 0.73789
 H2568 H 0.26254 0.12745 0.73982
 C2569 C 0.83037 0.62399 0.27148
 C2570 C 0.81794 0.60382 0.25838
 C2571 C 0.79379 0.60756 0.24799
 C2572 C 0.78257 0.63129 0.24890
 C2573 C 0.79532 0.65197 0.25997
 C2574 C 0.81909 0.64836 0.27205
 C2575 C 0.85356 0.62033 0.28443
 C2576 C 0.86552 0.64032 0.29726
 C2577 C 0.85461 0.66420 0.29760
 C2578 C 0.83159 0.66826 0.28523
 H2579 H 0.86242 0.60196 0.28515
 H2580 H 0.88325 0.63721 0.30716
 H2581 H 0.86393 0.67956 0.30773
 H2582 H 0.82349 0.68693 0.28659
 H2583 H 0.78396 0.59223 0.23821
 H2584 H 0.76425 0.63379 0.23989
 C2585 C 0.88989 0.28590 0.18644
 C2586 C 0.89921 0.26283 0.17676
 C2587 C 0.88364 0.24109 0.17685
 C2588 C 0.85929 0.24166 0.18693
 C2589 C 0.84969 0.26400 0.19724
 C2590 C 0.86483 0.28658 0.19665
 C2591 C 0.90473 0.30845 0.18564
 C2592 C 0.89506 0.33123 0.19450
 C2593 C 0.87050 0.33202 0.20413
 C2594 C 0.85543 0.31001 0.20512
 H2595 H 0.92380 0.30870 0.17802
 H2596 H 0.90661 0.34841 0.19371
 H2597 H 0.86304 0.34982 0.21074
 H2598 H 0.83630 0.31171 0.21213
 H2599 H 0.89046 0.22345 0.16909
 H2600 H 0.84799 0.22427 0.18710
 C2601 C 0.40429 0.75382 0.71255
 C2602 C 0.40546 0.75633 0.68582
 C2603 C 0.38296 0.75857 0.67190
 C2604 C 0.35945 0.75754 0.68387
 C2605 C 0.35746 0.75408 0.71022
 C2606 C 0.38019 0.75171 0.72481
 C2607 C 0.42669 0.75328 0.72736
 C2608 C 0.42553 0.74921 0.75345
 C2609 C 0.40219 0.74528 0.76519
 C2610 C 0.37980 0.74630 0.75106
 H2611 H 0.44525 0.75608 0.71896
 H2612 H 0.44285 0.74869 0.76455
 H2613 H 0.40140 0.74135 0.78535
 H2614 H 0.36247 0.74207 0.76092
 H2615 H 0.38357 0.76055 0.65143
 H2616 H 0.34257 0.75918 0.67224
 C2617 C 0.37376 0.23013 0.82909
 C2618 C 0.39354 0.24338 0.81610
 C2619 C 0.38867 0.25432 0.79236
 C2620 C 0.36436 0.25340 0.78192
 C2621 C 0.34419 0.24177 0.79505
 C2622 C 0.34880 0.22952 0.81859
 C2623 C 0.37838 0.21692 0.85200
 C2624 C 0.35880 0.20385 0.86448
 C2625 C 0.33439 0.20346 0.85435
 C2626 C 0.32936 0.21599 0.83156
 H2627 H 0.39718 0.21617 0.86026
 H2628 H 0.36265 0.19382 0.88201
 H2629 H 0.31934 0.19316 0.86409
 H2630 H 0.31027 0.21456 0.82407
 H2631 H 0.40368 0.26424 0.78213
 H2632 H 0.36110 0.26246 0.76372
 C2633 C 0.87787 0.73278 0.33101
 C2634 C 0.89894 0.74399 0.31754
 C2635 C 0.89482 0.75198 0.29229
 C2636 C 0.87055 0.75230 0.28185
 C2637 C 0.84940 0.74443 0.29597
 C2638 C 0.85293 0.73368 0.32038
 C2639 C 0.88134 0.71830 0.35349
 C2640 C 0.86076 0.70738 0.36631
 C2641 C 0.83635 0.70970 0.35669
 C2642 C 0.83242 0.72231 0.33377
 H2643 H 0.90003 0.71441 0.36094
 H2644 H 0.86385 0.69663 0.38358
 H2645 H 0.82049 0.70097 0.36663
 H2646 H 0.81331 0.72217 0.32631
 H2647 H 0.91001 0.76027 0.28099
 H2648 H 0.86812 0.75979 0.26282
 C2649 C 0.12252 0.76733 0.33113
 C2650 C 0.10245 0.75633 0.31665
 C2651 C 0.10743 0.74659 0.29258
 C2652 C 0.13189 0.74750 0.28266
 C2653 C 0.15213 0.75787 0.29667
 C2654 C 0.14757 0.76830 0.32096
 C2655 C 0.11829 0.77724 0.35558
 C2656 C 0.13808 0.78855 0.36931
 C2657 C 0.16239 0.79019 0.35906
 C2658 C 0.16719 0.78021 0.33514
 H2659 H 0.09971 0.77635 0.36429
 H2660 H 0.13452 0.79618 0.38797
 H2661 H 0.17762 0.79924 0.36970
 H2662 H 0.18627 0.78230 0.32782
 H2663 H 0.09221 0.73820 0.28139
 H2664 H 0.13516 0.73959 0.26403
 C2665 C 0.62025 0.25882 0.83066
 C2666 C 0.59957 0.24831 0.81663
 C2667 C 0.60387 0.23791 0.79269
 C2668 C 0.62813 0.23802 0.78233
 C2669 C 0.64884 0.24824 0.79573
 C2670 C 0.64508 0.25903 0.81998
 C2671 C 0.61685 0.26898 0.85514
 C2672 C 0.63722 0.27992 0.86833
 C2673 C 0.66131 0.28089 0.85752
 C2674 C 0.66530 0.27057 0.83360
 H2675 H 0.59851 0.26850 0.86435
 H2676 H 0.63429 0.28776 0.88702
 H2677 H 0.67701 0.28962 0.86775
 H2678 H 0.68427 0.27200 0.82586
 H2679 H 0.58821 0.22991 0.78181
 H2680 H 0.63082 0.22986 0.76371
 C2681 C 0.61738 0.71632 0.68442
 C2682 C 0.60513 0.74005 0.68245
 C2683 C 0.61731 0.76198 0.69160
 C2684 C 0.64118 0.76077 0.70280
 C2685 C 0.65352 0.73759 0.70533
 C2686 C 0.64180 0.71508 0.69608
 C2687 C 0.60635 0.69395 0.67426
 C2688 C 0.61900 0.67092 0.67574
 C2689 C 0.64283 0.66975 0.68717
 C2690 C 0.65423 0.69157 0.69723
 H2691 H 0.58810 0.69411 0.66480
 H2692 H 0.61037 0.65394 0.66778
 H2693 H 0.65265 0.65187 0.68802
 H2694 H 0.67300 0.68998 0.70542
 H2695 H 0.60829 0.78026 0.68987
 H2696 H 0.65016 0.77814 0.70955
 C2697 C 0.12052 0.22975 0.16843
 C2698 C 0.10154 0.24409 0.18050
 C2699 C 0.10697 0.25631 0.20341
 C2700 C 0.13112 0.25519 0.21410
 C2701 C 0.15054 0.24208 0.20201
 C2702 C 0.14527 0.22870 0.17931
 C2703 C 0.11545 0.21649 0.14572
 C2704 C 0.13422 0.20211 0.13431
 C2705 C 0.15829 0.20073 0.14517
 C2706 C 0.16390 0.21394 0.16742
 H2707 H 0.09694 0.21695 0.13676
 H2708 H 0.13002 0.19187 0.11700
 H2709 H 0.17267 0.18932 0.13633
 H2710 H 0.18274 0.21219 0.17541
 H2711 H 0.09253 0.26727 0.21278
 H2712 H 0.13492 0.26532 0.23158
 C2713 C -0.05735 1.02884 0.85979
 C2714 C -0.06189 1.00593 0.84605
 C2715 C -0.05347 0.98294 0.85669
 C2716 C -0.04351 0.98200 0.88116
 C2717 C -0.04154 1.00385 0.89597
 C2718 C -0.04713 1.02771 0.88488
 C2719 C -0.06072 1.05299 0.84844
 C2720 C -0.05547 1.07523 0.86180
 C2721 C -0.04587 1.07405 0.88634
 C2722 C -0.04132 1.05061 0.89766
 H2723 H -0.06651 1.05502 0.82887
 H2724 H -0.05825 1.09350 0.85280
 H2725 H -0.04123 1.09138 0.89641
 H2726 H -0.03226 1.05068 0.91605
 H2727 H -0.05613 0.96514 0.84675
 H2728 H -0.03800 0.96388 0.88893
 C2729 C 0.44208 0.46828 0.36153
 C2730 C 0.43076 0.49145 0.35399
 C2731 C 0.43065 0.51180 0.37094
 C2732 C 0.44154 0.50975 0.39486
 C2733 C 0.45330 0.48736 0.40277
 C2734 C 0.45372 0.46629 0.38601
 C2735 C 0.44130 0.44675 0.34567
 C2736 C 0.45231 0.42406 0.35330
 C2737 C 0.46398 0.42222 0.37691
 C2738 C 0.46454 0.44297 0.39323
 H2739 H 0.43191 0.44706 0.32741
 H2740 H 0.45159 0.40774 0.34090
 H2741 H 0.47234 0.40448 0.38280
 H2742 H 0.47317 0.44025 0.41159
 H2743 H 0.42201 0.52958 0.36555
 H2744 H 0.44108 0.52608 0.40726
 C2745 C 0.55851 0.03365 0.35498
 C2746 C 0.56545 0.01020 0.34343
 C2747 C 0.56103 -0.01249 0.35705
 C2748 C 0.55186 -0.01228 0.38175
 C2749 C 0.54635 0.01051 0.39384
 C2750 C 0.54977 0.03376 0.38062
 C2751 C 0.55859 0.05684 0.34129
 C2752 C 0.55304 0.07964 0.35321
 C2753 C 0.54676 0.07988 0.37881
 C2754 C 0.54484 0.05717 0.39242
 H2755 H 0.56246 0.05758 0.32116
 H2756 H 0.55364 0.09725 0.34252
 H2757 H 0.54293 0.09770 0.38804
 H2758 H 0.53955 0.05816 0.41220
 H2759 H 0.56606 -0.03068 0.34919
 H2760 H 0.54909 -0.03022 0.39161
 C2761 C 0.05505 0.53062 0.85449
 C2762 C 0.06770 0.50812 0.84732
 C2763 C 0.06940 0.48810 0.86478
 C2764 C 0.05906 0.48998 0.88894
 C2765 C 0.04669 0.51200 0.89669
 C2766 C 0.04511 0.53284 0.87957
 C2767 C 0.05175 0.55089 0.83720
 C2768 C 0.04043 0.57334 0.84481
 C2769 C 0.03209 0.57604 0.86965
 C2770 C 0.03435 0.55605 0.88690
 H2771 H 0.05767 0.54957 0.81763
 H2772 H 0.03826 0.58879 0.83139
 H2773 H 0.02370 0.59367 0.87555
 H2774 H 0.02792 0.55917 0.90602
 H2775 H 0.07910 0.47086 0.85974
 H2776 H 0.06044 0.47380 0.90163
 C2777 C 0.04221 0.51415 0.64165
 C2778 C 0.05977 0.49530 0.64885
 C2779 C 0.06471 0.47529 0.63223
 C2780 C 0.05310 0.47404 0.60847
 C2781 C 0.03626 0.49278 0.60063
 C2782 C 0.03023 0.51277 0.61741
 C2783 C 0.03691 0.53482 0.65765
 C2784 C 0.01977 0.55334 0.65020
 C2785 C 0.00777 0.55178 0.62670
 C2786 C 0.01297 0.53180 0.61038
 H2787 H 0.04601 0.53698 0.67595
 H2788 H 0.01582 0.56902 0.66270
 H2789 H -0.00554 0.56621 0.62102
 H2790 H 0.00330 0.53139 0.59234
 H2791 H 0.07812 0.46079 0.63753
 H2792 H 0.05776 0.45864 0.59586
 C2793 C 0.55073 1.01561 0.13658
 C2794 C 0.56533 0.99488 0.14524
 C2795 C 0.56782 0.97346 0.12980
 C2796 C 0.55628 0.97234 0.10599
 C2797 C 0.54202 0.99265 0.09697
 C2798 C 0.53881 1.01436 0.11233
 C2799 C 0.54832 1.03789 0.15114
 C2800 C 0.53390 1.05809 0.14231
 C2801 C 0.52181 1.05664 0.11884
 C2802 C 0.52425 1.03507 0.10389
 H2803 H 0.55763 1.04004 0.16932
 H2804 H 0.53213 1.07499 0.15373
 H2805 H 0.51061 1.07237 0.11211
 H2806 H 0.51465 1.03478 0.08573
 H2807 H 0.57910 0.95760 0.13613
 H2808 H 0.55891 0.95573 0.09430
 C2809 C 0.46263 0.49632 0.15047
 C2810 C 0.43674 0.50265 0.15351
 C2811 C 0.42177 0.50699 0.13194
 C2812 C 0.43189 0.50519 0.10768
 C2813 C 0.45729 0.49865 0.10406
 C2814 C 0.47270 0.49331 0.12558
 C2815 C 0.47886 0.49313 0.17160
 C2816 C 0.50385 0.48545 0.16838
 C2817 C 0.51308 0.48066 0.14420
 C2818 C 0.49768 0.48441 0.12300
 H2819 H 0.47250 0.49667 0.19072
 H2820 H 0.51601 0.48290 0.18476
 H2821 H 0.53229 0.47405 0.14185
 H2822 H 0.50532 0.47967 0.10473
 H2823 H 0.40192 0.51173 0.13389
 H2824 H 0.41978 0.50924 0.09155
 C2825 C -0.06659 0.02890 0.63337
 C2826 C -0.06966 0.00505 0.64639
 C2827 C -0.06183 -0.01707 0.63393
 C2828 C -0.05052 -0.01603 0.61018
 C2829 C -0.04595 0.00713 0.59794
 C2830 C -0.05377 0.02991 0.60946
 C2831 C -0.07780 0.05144 0.64225
 C2832 C -0.07424 0.07449 0.62953
 C2833 C -0.06019 0.07562 0.60726
 C2834 C -0.05038 0.05353 0.59701
 H2835 H -0.09018 0.05151 0.65854
 H2836 H -0.08274 0.09154 0.63681
 H2837 H -0.05754 0.09359 0.59752
 H2838 H -0.04067 0.05509 0.57901
 H2839 H -0.06344 -0.03553 0.64297
 H2840 H -0.04475 -0.03360 0.60143
 C2841 C -0.14772 0.96320 1.00849
 C2842 C -0.15296 0.94024 0.99544
 C2843 C -0.13360 0.92863 0.98173
 C2844 C -0.10915 0.93908 0.98116
 C2845 C -0.10342 0.96157 0.99411
 C2846 C -0.12264 0.97376 1.00812
 C2847 C -0.16689 0.97595 1.02182
 C2848 C -0.16127 0.99812 1.03520
 C2849 C -0.13656 1.00794 1.03562
 C2850 C -0.11737 0.99592 1.02230
 H2851 H -0.18634 0.96900 1.02194
 H2852 H -0.17612 1.00765 1.04541
 H2853 H -0.13225 1.02497 1.04631
 H2854 H -0.09841 1.00400 1.02344
 H2855 H -0.13736 0.91102 0.97176
 H2856 H -0.09454 0.92953 0.97055
 C2857 C 0.37201 0.40901 0.50113
 C2858 C 0.35108 0.42550 0.50328
 C2859 C 0.35541 0.45169 0.50478
 C2860 C 0.37996 0.46182 0.50367
 C2861 C 0.40109 0.44614 0.50100
 C2862 C 0.39718 0.41935 0.49941
 C2863 C 0.36840 0.38235 0.50071
 C2864 C 0.38883 0.36629 0.49728
 C2865 C 0.41321 0.37634 0.49437
 C2866 C 0.41743 0.40250 0.49547
 H2867 H 0.34981 0.37365 0.50311
 H2868 H 0.38571 0.34593 0.49672
 H2869 H 0.42899 0.36380 0.49127
 H2870 H 0.43668 0.40907 0.49273
 H2871 H 0.33958 0.46446 0.50637
 H2872 H 0.38246 0.48223 0.50503
 C2873 C 0.34769 0.53544 0.01842
 C2874 C 0.34648 0.56172 0.01281
 C2875 C 0.36882 0.57528 0.00744
 C2876 C 0.39209 0.56333 0.00701
 C2877 C 0.39427 0.53712 0.01173
 C2878 C 0.37154 0.52273 0.01726
 C2879 C 0.32557 0.52159 0.02542
 C2880 C 0.32638 0.49559 0.02998
 C2881 C 0.34911 0.48287 0.02755
 C2882 C 0.37135 0.49612 0.02119
 H2883 H 0.30746 0.53071 0.02761
 H2884 H 0.30924 0.48522 0.03520
 H2885 H 0.34953 0.46254 0.03064
 H2886 H 0.38786 0.48477 0.01914
 H2887 H 0.36822 0.59542 0.00322
 H2888 H 0.40865 0.57504 0.00275
 C2889 C -0.13756 0.05740 0.52832
 C2890 C -0.14795 0.06477 0.50458
 C2891 C -0.13412 0.06082 0.48236
 C2892 C -0.11036 0.04981 0.48323
 C2893 C -0.09964 0.04219 0.50631
 C2894 C -0.11320 0.04591 0.52921
 C2895 C -0.15037 0.06210 0.55128
 C2896 C -0.13966 0.05529 0.57451
 C2897 C -0.11597 0.04401 0.57537
 C2898 C -0.10268 0.03955 0.55303
 H2899 H -0.16859 0.07127 0.55156
 H2900 H -0.14972 0.05896 0.59196
 H2901 H -0.10777 0.03889 0.59349
 H2902 H -0.08404 0.03147 0.55472
 H2903 H -0.14172 0.06660 0.46414
 H2904 H -0.10019 0.04718 0.46560
 C2905 C 0.62769 0.08725 0.48205
 C2906 C 0.64914 0.07209 0.48749
 C2907 C 0.64580 0.04590 0.49109
 C2908 C 0.62178 0.03459 0.48961
 C2909 C 0.60027 0.04905 0.48431
 C2910 C 0.60321 0.07551 0.47959
 C2911 C 0.62990 0.11392 0.47939
 C2912 C 0.60890 0.12839 0.47285
 C2913 C 0.58537 0.11669 0.46881
 C2914 C 0.58248 0.09053 0.47206
 H2915 H 0.64774 0.12388 0.48251
 H2916 H 0.61095 0.14877 0.47068
 H2917 H 0.56925 0.12795 0.46321
 H2918 H 0.56400 0.08224 0.46814
 H2919 H 0.66198 0.03408 0.49513
 H2920 H 0.61990 0.01438 0.49325
 C2921 C 0.13109 0.57507 0.97041
 C2922 C 0.14392 0.57660 0.99440
 C2923 C 0.13118 0.56718 1.01607
 C2924 C 0.10741 0.55554 1.01435
 C2925 C 0.09540 0.55244 0.99094
 C2926 C 0.10701 0.56221 0.96871
 C2927 C 0.14038 0.58775 0.94848
 C2928 C 0.12762 0.58587 0.92531
 C2929 C 0.10497 0.57203 0.92351
 C2930 C 0.09451 0.56056 0.94501
 H2931 H 0.15702 0.59999 0.94906
 H2932 H 0.13518 0.59553 0.90873
 H2933 H 0.09509 0.57076 0.90550
 H2934 H 0.07634 0.55086 0.94299
 H2935 H 0.14010 0.56774 1.03460
 H2936 H 0.09848 0.54834 1.03151
 C2937 C 0.13703 0.44209 0.53265
 C2938 C 0.14670 0.43325 0.50922
 C2939 C 0.13191 0.43541 0.48724
 C2940 C 0.10796 0.44596 0.48803
 C2941 C 0.09793 0.45505 0.51076
 C2942 C 0.11250 0.45331 0.53339
 C2943 C 0.15071 0.43919 0.55554
 C2944 C 0.14088 0.44776 0.57842
 C2945 C 0.11714 0.45894 0.57909
 C2946 C 0.10291 0.46149 0.55691
 H2947 H 0.16894 0.43007 0.55609
 H2948 H 0.15165 0.44551 0.59579
 H2949 H 0.10960 0.46539 0.59697
 H2950 H 0.08429 0.46959 0.55850
 H2951 H 0.13894 0.42864 0.46924
 H2952 H 0.09718 0.44722 0.47054
 C2953 C 0.63747 0.93960 0.02345
 C2954 C 0.64682 0.93124 -0.00030
 C2955 C 0.63148 0.93312 -0.02192
 C2956 C 0.60744 0.94353 -0.02057
 C2957 C 0.59794 0.95251 0.00243
 C2958 C 0.61281 0.95037 0.02482
 C2959 C 0.65168 0.93666 0.04601
 C2960 C 0.64206 0.94451 0.06926
 C2961 C 0.61803 0.95500 0.07060
 C2962 C 0.60339 0.95774 0.04871
 H2963 H 0.67014 0.92799 0.04604
 H2964 H 0.65320 0.94217 0.08638
 H2965 H 0.61059 0.96078 0.08876
 H2966 H 0.58454 0.96521 0.05086
 H2967 H 0.63825 0.92651 -0.04009
 H2968 H 0.59624 0.94490 -0.03779
 C2969 C -0.02167 0.87400 0.92082
 C2970 C -0.00682 0.85510 0.93313
 C2971 C 0.00329 0.86040 0.95731
 C2972 C 0.00150 0.88449 0.96782
 C2973 C -0.01062 0.90402 0.95472
 C2974 C -0.02325 0.89870 0.93159
 C2975 C -0.03656 0.86840 0.89909
 C2976 C -0.05137 0.88691 0.88759
 C2977 C -0.05219 0.91120 0.89770
 C2978 C -0.03839 0.91711 0.91955
 H2979 H -0.03772 0.84948 0.89128
 H2980 H -0.06265 0.88225 0.87100
 H2981 H -0.06409 0.92532 0.88890
 H2982 H -0.04032 0.93594 0.92733
 H2983 H 0.01431 0.84641 0.96745
 H2984 H 0.01072 0.88825 0.98586
 C2985 C 0.47498 0.36157 0.43527
 C2986 C 0.49670 0.34646 0.43930
 C2987 C 0.51595 0.35496 0.45568
 C2988 C 0.51464 0.37873 0.46701
 C2989 C 0.49406 0.39455 0.46223
 C2990 C 0.47376 0.38593 0.44668
 C2991 C 0.45448 0.35298 0.42005
 C2992 C 0.43338 0.36818 0.41606
 C2993 C 0.43233 0.39214 0.42699
 C2994 C 0.45234 0.40105 0.44206
 H2995 H 0.45447 0.33441 0.41136
 H2996 H 0.41778 0.36136 0.40439
 H2997 H 0.41597 0.40391 0.42374
 H2998 H 0.45083 0.41979 0.45011
 H2999 H 0.53261 0.34355 0.45886
 H3000 H 0.53022 0.38520 0.47893
 C3001 C -0.02265 0.36256 0.55902
 C3002 C 0.00084 0.35011 0.56371
 C3003 C 0.02365 0.36306 0.55748
 C3004 C 0.02358 0.38705 0.54627
 C3005 C 0.00077 0.39905 0.54071
 C3006 C -0.02258 0.38646 0.54618
 C3007 C -0.04617 0.35286 0.56821
 C3008 C -0.06897 0.36447 0.56199
 C3009 C -0.06892 0.38619 0.54691
 C3010 C -0.04598 0.39720 0.53916
 H3011 H -0.04729 0.33664 0.58079
 H3012 H -0.08678 0.35652 0.56884
 H3013 H -0.08669 0.39485 0.54164
 H3014 H -0.04676 0.41403 0.52745
 H3015 H 0.04187 0.35428 0.56056
 H3016 H 0.04157 0.39643 0.54203
 C3017 C 0.47426 0.86324 0.06116
 C3018 C 0.49654 0.84839 0.06100
 C3019 C 0.51834 0.85779 0.04863
 C3020 C 0.51866 0.88165 0.03716
 C3021 C 0.49701 0.89670 0.03718
 C3022 C 0.47415 0.88691 0.04795
 C3023 C 0.45219 0.85549 0.07454
 C3024 C 0.42997 0.86944 0.07294
 C3025 C 0.42923 0.89128 0.05805
 C3026 C 0.45104 0.89996 0.04559
 H3027 H 0.45185 0.83880 0.08654
 H3028 H 0.41314 0.86308 0.08305
 H3029 H 0.41173 0.90166 0.05627
 H3030 H 0.44946 0.91660 0.03369
 H3031 H 0.53548 0.84669 0.04825
 H3032 H 0.53620 0.88868 0.02878
 C3033 C 0.46996 0.63562 0.06008
 C3034 C 0.49421 0.64562 0.06685
 C3035 C 0.51574 0.63075 0.06401
 C3036 C 0.51373 0.60640 0.05417
 C3037 C 0.49013 0.59612 0.04690
 C3038 C 0.46786 0.61054 0.05013
 C3039 C 0.44766 0.64967 0.06374
 C3040 C 0.42388 0.63926 0.05776
 C3041 C 0.42180 0.61466 0.04839
 C3042 C 0.44350 0.60031 0.04472
 H3043 H 0.44835 0.66864 0.07150
 H3044 H 0.40694 0.65023 0.06071
 H3045 H 0.40324 0.60657 0.04421
 H3046 H 0.44091 0.58103 0.03815
 H3047 H 0.53430 0.63810 0.06945
 H3048 H 0.53089 0.59555 0.05194
 C3049 C -0.03534 0.13570 0.55669
 C3050 C -0.01215 0.14856 0.56238
 C3051 C 0.01093 0.13660 0.55800
 C3052 C 0.01142 0.11207 0.54846
 C3053 C -0.01115 0.09892 0.54267
 C3054 C -0.03484 0.11062 0.54671
 C3055 C -0.05899 0.14723 0.56069
 C3056 C -0.08164 0.13418 0.55540
 C3057 C -0.08118 0.10952 0.54605
 C3058 C -0.05806 0.09775 0.54176
 H3059 H -0.06016 0.16640 0.56785
 H3060 H -0.09966 0.14322 0.55863
 H3061 H -0.09884 0.09945 0.54220
 H3062 H -0.05859 0.07843 0.53494
 H3063 H 0.02873 0.14616 0.56255
 H3064 H 0.02963 0.10332 0.54537
 C3065 C 0.51003 0.14736 0.45386
 C3066 C 0.50493 0.14888 0.42755
 C3067 C 0.50093 0.12668 0.41373
 C3068 C 0.50143 0.10304 0.42555
 C3069 C 0.50582 0.10051 0.45180
 C3070 C 0.50977 0.12319 0.46642
 C3071 C 0.51551 0.16958 0.46790
 C3072 C 0.51963 0.16841 0.49394
 C3073 C 0.51801 0.14526 0.50653
 C3074 C 0.51296 0.12300 0.49312
 H3075 H 0.51675 0.18807 0.45890
 H3076 H 0.52374 0.18560 0.50445
 H3077 H 0.52060 0.14452 0.52690
 H3078 H 0.51115 0.10620 0.50446
 H3079 H 0.49728 0.12765 0.39351
 H3080 H 0.49838 0.08648 0.41378
 C3081 C -0.01169 0.64866 0.95544
 C3082 C 0.00530 0.65558 0.93542
 C3083 C 0.02171 0.63694 0.92600
 C3084 C 0.02051 0.61197 0.93476
 C3085 C 0.00279 0.60453 0.95308
 C3086 C -0.01355 0.62282 0.96357
 C3087 C -0.02561 0.66701 0.96885
 C3088 C -0.04282 0.65982 0.98772
 C3089 C -0.04615 0.63435 0.99408
 C3090 C -0.03157 0.61601 0.98232
 H3091 H -0.02292 0.68712 0.96542
 H3092 H -0.05355 0.67411 0.99752
 H3093 H -0.05972 0.62882 1.00856
 H3094 H -0.03451 0.59654 0.98814
 H3095 H 0.03495 0.64131 0.91083
 H3096 H 0.03362 0.59836 0.92718
 C3097 C 0.26641 0.70361 0.89850
 C3098 C 0.24992 0.68305 0.90493
 C3099 C 0.23294 0.67338 0.88673
 C3100 C 0.23243 0.68339 0.86221
 C3101 C 0.24873 0.70347 0.85533
 C3102 C 0.26601 0.71372 0.87340
 C3103 C 0.28322 0.71443 0.91652
 C3104 C 0.29978 0.73424 0.90972
 C3105 C 0.29993 0.74361 0.88498
 C3106 C 0.28327 0.73350 0.86693
 H3107 H 0.28364 0.70780 0.93597
 H3108 H 0.31263 0.74229 0.92370
 H3109 H 0.31301 0.75882 0.87976
 H3110 H 0.28420 0.74118 0.84788
 H3111 H 0.22029 0.65762 0.89144
 H3112 H 0.21926 0.67536 0.84847
 C3113 C 0.77938 0.19228 0.38148
 C3114 C 0.75694 0.18636 0.39523
 C3115 C 0.73327 0.19276 0.38507
 C3116 C 0.73145 0.20370 0.36104
 C3117 C 0.75320 0.20840 0.34646
 C3118 C 0.77750 0.20362 0.35698
 C3119 C 0.80367 0.18775 0.39183
 C3120 C 0.82559 0.19432 0.37837
 C3121 C 0.82378 0.20582 0.35462
 C3122 C 0.80002 0.21062 0.34404
 H3123 H 0.80596 0.17953 0.41053
 H3124 H 0.84409 0.19082 0.38658
 H3125 H 0.84086 0.21130 0.34446
 H3126 H 0.79951 0.22043 0.32601
 H3127 H 0.71600 0.18855 0.39553
 H3128 H 0.71288 0.20795 0.35349
 C3129 C 0.27710 0.31261 0.38908
 C3130 C 0.25311 0.31966 0.39887
 C3131 C 0.23137 0.31665 0.38380
 C3132 C 0.23283 0.30655 0.35958
 C3133 C 0.25609 0.29898 0.34958
 C3134 C 0.27860 0.30218 0.36418
 C3135 C 0.29973 0.31645 0.40310
 C3136 C 0.32318 0.30988 0.39301
 C3137 C 0.32464 0.29980 0.36872
 C3138 C 0.30266 0.29618 0.35429
 H3139 H 0.29962 0.32478 0.42179
 H3140 H 0.34036 0.31290 0.40400
 H3141 H 0.34294 0.29508 0.36085
 H3142 H 0.30485 0.28914 0.33523
 H3143 H 0.21299 0.32217 0.39093
 H3144 H 0.21549 0.30428 0.34863
 C3145 C 0.73337 0.80213 0.89003
 C3146 C 0.75597 0.81243 0.90068
 C3147 C 0.77915 0.80936 0.88814
 C3148 C 0.78004 0.79735 0.86462
 C3149 C 0.75775 0.78821 0.85308
 C3150 C 0.73426 0.78986 0.86608
 C3151 C 0.70988 0.80361 0.90281
 C3152 C 0.68778 0.79328 0.89218
 C3153 C 0.68866 0.78111 0.86885
 C3154 C 0.71163 0.77926 0.85595
 H3155 H 0.70842 0.81247 0.92121
 H3156 H 0.66992 0.79453 0.90220
 H3157 H 0.67150 0.77288 0.86080
 H3158 H 0.71150 0.76911 0.83826
 H3159 H 0.79654 0.81708 0.89622
 H3160 H 0.79809 0.79601 0.85492
 C3161 C 0.75070 0.79056 0.10071
 C3162 C 0.74327 0.81617 0.09767
 C3163 C 0.73558 0.82984 0.11900
 C3164 C 0.73556 0.81883 0.14305
 C3165 C 0.74359 0.79387 0.14673
 C3166 C 0.75195 0.77971 0.12552
 C3167 C 0.75685 0.77540 0.07962
 C3168 C 0.76587 0.75089 0.08300
 C3169 C 0.76908 0.74108 0.10732
 C3170 C 0.76233 0.75533 0.12840
 H3171 H 0.75462 0.78224 0.06038
 H3172 H 0.77074 0.73958 0.06668
 H3173 H 0.77679 0.72231 0.10989
 H3174 H 0.76591 0.74729 0.14686
 H3175 H 0.72988 0.84944 0.11707
 H3176 H 0.72935 0.83000 0.15902
 C3177 C 0.25299 0.28706 0.60346
 C3178 C 0.23914 0.30934 0.59838
 C3179 C 0.22377 0.31952 0.61732
 C3180 C 0.22254 0.30845 0.64136
 C3181 C 0.23647 0.28675 0.64707
 C3182 C 0.25198 0.27589 0.62811
 C3183 C 0.26790 0.27568 0.58455
 C3184 C 0.28219 0.25428 0.59004
 C3185 C 0.28199 0.24393 0.61437
 C3186 C 0.26715 0.25460 0.63327
 H3187 H 0.26858 0.28313 0.56539
 H3188 H 0.29360 0.24581 0.57538
 H3189 H 0.29341 0.22753 0.61863
 H3190 H 0.26792 0.24616 0.65191
 H3191 H 0.21313 0.33659 0.61362
 H3192 H 0.21083 0.31705 0.65574
 C3193 C 0.73903 0.20772 0.59839
 C3194 C 0.75226 0.18498 0.59390
 C3195 C 0.76509 0.17312 0.61392
 C3196 C 0.76457 0.18312 0.63830
 C3197 C 0.75138 0.20537 0.64333
 C3198 C 0.73825 0.21780 0.62339
 C3199 C 0.72660 0.22071 0.57854
 C3200 C 0.71296 0.24261 0.58338
 C3201 C 0.71138 0.25193 0.60797
 C3202 C 0.72379 0.23967 0.62784
 H3203 H 0.72738 0.21414 0.55915
 H3204 H 0.70344 0.25232 0.56800
 H3205 H 0.70046 0.26874 0.61167
 H3206 H 0.72166 0.24731 0.64665
 H3207 H 0.77525 0.15571 0.61070
 H3208 H 0.77463 0.17344 0.65339
 C3209 C 0.28162 0.68306 0.11993
 C3210 C 0.26178 0.68921 0.10276
 C3211 C 0.24471 0.70827 0.10910
 C3212 C 0.24600 0.72008 0.13266
 C3213 C 0.26434 0.71310 0.15052
 C3214 C 0.28271 0.69492 0.14414
 C3215 C 0.30051 0.66550 0.11351
 C3216 C 0.31962 0.65939 0.13076
 C3217 C 0.32038 0.67066 0.15458
 C3218 C 0.30216 0.68831 0.16131
 H3219 H 0.30089 0.65663 0.09505
 H3220 H 0.33397 0.64589 0.12557
 H3221 H 0.33531 0.66582 0.16778
 H3222 H 0.30357 0.69692 0.17988
 H3223 H 0.22955 0.71325 0.09613
 H3224 H 0.23188 0.73401 0.13743
 C3225 C 0.21289 0.60057 0.73792
 C3226 C 0.18943 0.59499 0.75008
 C3227 C 0.17783 0.61378 0.76459
 C3228 C 0.18889 0.63781 0.76713
 C3229 C 0.21205 0.64379 0.75546
 C3230 C 0.22433 0.62517 0.74067
 C3231 C 0.22475 0.58264 0.72224
 C3232 C 0.24750 0.58860 0.70994
 C3233 C 0.25866 0.61256 0.71262
 C3234 C 0.24716 0.63079 0.72762
 H3235 H 0.21647 0.56402 0.71903
 H3236 H 0.25638 0.57463 0.69803
 H3237 H 0.27618 0.61716 0.70277
 H3238 H 0.25617 0.64934 0.72851
 H3239 H 0.15983 0.60984 0.77385
 H3240 H 0.17921 0.65194 0.77822
 C3241 C 0.66722 0.12253 0.26265
 C3242 C 0.68135 0.10197 0.25257
 C3243 C 0.70696 0.10637 0.24613
 C3244 C 0.71767 0.13071 0.24680
 C3245 C 0.70332 0.15156 0.25408
 C3246 C 0.67815 0.14752 0.26296
 C3247 C 0.64321 0.11856 0.27422
 C3248 C 0.62961 0.13875 0.28398
 C3249 C 0.63985 0.16320 0.28326
 C3250 C 0.66401 0.16757 0.27328
 H3251 H 0.63500 0.09977 0.27665
 H3252 H 0.61120 0.13532 0.29255
 H3253 H 0.62929 0.17875 0.29110
 H3254 H 0.67165 0.18665 0.27449
 H3255 H 0.71846 0.09120 0.23882
 H3256 H 0.73710 0.13344 0.24050
 C3257 C 0.82582 0.11753 0.71464
 C3258 C 0.81564 0.09776 0.73025
 C3259 C 0.79290 0.10175 0.74331
 C3260 C 0.78120 0.12527 0.74256
 C3261 C 0.79206 0.14562 0.72903
 C3262 C 0.81418 0.14178 0.71441
 C3263 C 0.84711 0.11365 0.69896
 C3264 C 0.85720 0.13340 0.68419
 C3265 C 0.84618 0.15723 0.68447
 C3266 C 0.82476 0.16144 0.69927
 H3267 H 0.85590 0.09529 0.69766
 H3268 H 0.87359 0.13015 0.67235
 H3269 H 0.85413 0.17241 0.67292
 H3270 H 0.81638 0.18004 0.69848
 H3271 H 0.78473 0.08687 0.75517
 H3272 H 0.76421 0.12797 0.75372
 C3273 C 0.33863 0.62941 0.23148
 C3274 C 0.32400 0.60819 0.24016
 C3275 C 0.29830 0.61129 0.24590
 C3276 C 0.28734 0.63512 0.24470
 C3277 C 0.30173 0.65667 0.23782
 C3278 C 0.32742 0.65386 0.23035
 C3279 C 0.36399 0.62676 0.22337
 C3280 C 0.37808 0.64772 0.21471
 C3281 C 0.36716 0.67158 0.21364
 C3282 C 0.34204 0.67467 0.22116
 H3283 H 0.37304 0.60847 0.22322
 H3284 H 0.39748 0.64538 0.20852
 H3285 H 0.37806 0.68771 0.20654
 H3286 H 0.33410 0.69333 0.21897
 H3287 H 0.28684 0.59523 0.25229
 H3288 H 0.26766 0.63690 0.25031
 C3289 C 0.31974 0.38823 0.27804
 C3290 C 0.31394 0.40448 0.25725
 C3291 C 0.29741 0.39580 0.23819
 C3292 C 0.28677 0.37147 0.23927
 C3293 C 0.29215 0.35519 0.25954
 C3294 C 0.30820 0.36359 0.27945
 C3295 C 0.33738 0.39549 0.29703
 C3296 C 0.34262 0.37930 0.31736
 C3297 C 0.33046 0.35570 0.31924
 C3298 C 0.31335 0.34783 0.30052
 H3299 H 0.34752 0.41349 0.29624
 H3300 H 0.35621 0.38510 0.33174
 H3301 H 0.33459 0.34329 0.33509
 H3302 H 0.30448 0.32923 0.30246
 H3303 H 0.29294 0.40791 0.22215
 H3304 H 0.27454 0.36512 0.22392
 C3305 C 0.83803 0.87406 0.76606
 C3306 C 0.82235 0.89502 0.76007
 C3307 C 0.79626 0.89083 0.75632
 C3308 C 0.78561 0.86649 0.75800
 C3309 C 0.80064 0.84548 0.76368
 C3310 C 0.82691 0.84931 0.76884
 C3311 C 0.86464 0.87696 0.76884
 C3312 C 0.87956 0.85650 0.77606
 C3313 C 0.86841 0.83279 0.78056
 C3314 C 0.84237 0.82914 0.77700
 H3315 H 0.87426 0.89490 0.76528
 H3316 H 0.89987 0.85912 0.77838
 H3317 H 0.88000 0.81709 0.78666
 H3318 H 0.83450 0.81052 0.78117
 H3319 H 0.78402 0.90657 0.75183
 H3320 H 0.76553 0.86397 0.75405
 C3321 C 0.66686 0.87820 0.22926
 C3322 C 0.68166 0.89900 0.23839
 C3323 C 0.70727 0.89552 0.24441
 C3324 C 0.71799 0.87157 0.24297
 C3325 C 0.70342 0.85039 0.23544
 C3326 C 0.67787 0.85372 0.22762
 C3327 C 0.64147 0.88132 0.22127
 C3328 C 0.62726 0.86082 0.21194
 C3329 C 0.63809 0.83699 0.21005
 C3330 C 0.66318 0.83342 0.21762
 H3331 H 0.63247 0.89963 0.22182
 H3332 H 0.60783 0.86351 0.20586
 H3333 H 0.62706 0.82125 0.20246
 H3334 H 0.67104 0.81479 0.21501
 H3335 H 0.71884 0.91134 0.25108
 H3336 H 0.73758 0.86938 0.24881
 C3337 C 0.15632 0.36985 0.74095
 C3338 C 0.17280 0.39122 0.74402
 C3339 C 0.19905 0.38768 0.74506
 C3340 C 0.20919 0.36351 0.74304
 C3341 C 0.19346 0.34198 0.73980
 C3342 C 0.16670 0.34517 0.73808
 C3343 C 0.12964 0.37247 0.74088
 C3344 C 0.11360 0.35162 0.73661
 C3345 C 0.12373 0.32782 0.73236
 C3346 C 0.14994 0.32457 0.73305
 H3347 H 0.12089 0.39057 0.74426
 H3348 H 0.09322 0.35398 0.73639
 H3349 H 0.11121 0.31177 0.72856
 H3350 H 0.15678 0.30586 0.72915
 H3351 H 0.21185 0.40385 0.74725
 H3352 H 0.22960 0.36159 0.74451
 C3353 C 0.10908 0.75773 0.79251
 C3354 C 0.10417 0.74613 0.81635
 C3355 C 0.12345 0.73282 0.82869
 C3356 C 0.14743 0.73088 0.81788
 C3357 C 0.15288 0.74224 0.79441
 C3358 C 0.13373 0.75603 0.78157
 C3359 C 0.09031 0.77186 0.77980
 C3360 C 0.09571 0.78410 0.75688
 C3361 C 0.11989 0.78288 0.74643
 C3362 C 0.13881 0.76920 0.75868
 H3363 H 0.07143 0.77380 0.78752
 H3364 H 0.08114 0.79488 0.74735
 H3365 H 0.12410 0.79280 0.72886
 H3366 H 0.15749 0.76950 0.75030
 H3367 H 0.11996 0.72410 0.84705
 H3368 H 0.16199 0.72064 0.82806
 C3369 C 0.62054 0.22902 0.32490
 C3370 C 0.60207 0.24546 0.31442
 C3371 C 0.60771 0.25908 0.29220
 C3372 C 0.63163 0.25779 0.28111
 C3373 C 0.65073 0.24320 0.29218
 C3374 C 0.64524 0.22830 0.31398
 C3375 C 0.61481 0.21280 0.34562
 C3376 C 0.63315 0.19680 0.35569
 C3377 C 0.65743 0.19652 0.34536
 C3378 C 0.66352 0.21209 0.32470
 H3379 H 0.59603 0.21190 0.35387
 H3380 H 0.62843 0.18440 0.37150
 H3381 H 0.67150 0.18392 0.35318
 H3382 H 0.68242 0.21084 0.31686
 H3383 H 0.59371 0.27143 0.28378
 H3384 H 0.63557 0.26899 0.26423
 C3385 C 0.60513 0.73768 0.20266
 C3386 C 0.60020 0.75306 0.18107
 C3387 C 0.61947 0.76911 0.17151
 C3388 C 0.64334 0.77018 0.18289
 C3389 C 0.64853 0.75556 0.20443
 C3390 C 0.62941 0.73919 0.21461
 C3391 C 0.58686 0.72008 0.21206
 C3392 C 0.59209 0.70497 0.23317
 C3393 C 0.61564 0.70676 0.24508
 C3394 C 0.63422 0.72351 0.23585
 H3395 H 0.56855 0.71745 0.20307
 H3396 H 0.57786 0.69164 0.24018
 H3397 H 0.61966 0.69486 0.26136
 H3398 H 0.65238 0.72378 0.24534
 H3399 H 0.61603 0.78079 0.15491
 H3400 H 0.65790 0.78254 0.17483
 C3401 C 0.10248 0.22088 0.69548
 C3402 C 0.09220 0.24331 0.68454
 C3403 C 0.10667 0.26600 0.68543
 C3404 C 0.13137 0.26635 0.69487
 C3405 C 0.14225 0.24432 0.70453
 C3406 C 0.12774 0.22143 0.70535
 C3407 C 0.08767 0.19840 0.69850
 C3408 C 0.09790 0.17671 0.70948
 C3409 C 0.12280 0.17705 0.71829
 C3410 C 0.13752 0.19921 0.71654
 H3411 H 0.06785 0.19750 0.69310
 H3412 H 0.08632 0.15965 0.71149
 H3413 H 0.13060 0.16022 0.72700
 H3414 H 0.15639 0.19885 0.72446
 H3415 H 0.09947 0.28338 0.67724
 H3416 H 0.14232 0.28388 0.69395
 C3417 C 0.87327 0.23151 0.65960
 C3418 C 0.89389 0.24221 0.67360
 C3419 C 0.89014 0.24950 0.69879
 C3420 C 0.86624 0.24757 0.70984
 C3421 C 0.84527 0.23858 0.69597
 C3422 C 0.84867 0.22998 0.67078
 C3423 C 0.87668 0.22167 0.63497
 C3424 C 0.85626 0.21122 0.62148
 C3425 C 0.83219 0.21005 0.63228
 C3426 C 0.82836 0.21915 0.65674
 H3427 H 0.89515 0.22151 0.62607
 H3428 H 0.85919 0.20377 0.60263
 H3429 H 0.81648 0.20172 0.62177
 H3430 H 0.80953 0.21701 0.66466
 H3431 H 0.90575 0.25742 0.70979
 H3432 H 0.86392 0.25401 0.72918
 C3433 C 0.40049 0.75548 0.20906
 C3434 C 0.40201 0.74809 0.18327
 C3435 C 0.37969 0.74157 0.17010
 C3436 C 0.35610 0.74271 0.18179
 C3437 C 0.35396 0.75066 0.20699
 C3438 C 0.37623 0.75767 0.22073
 C3439 C 0.42255 0.76056 0.22360
 C3440 C 0.42074 0.76920 0.24847
 C3441 C 0.39705 0.77304 0.25927
 C3442 C 0.37498 0.76747 0.24558
 H3443 H 0.44136 0.75775 0.21603
 H3444 H 0.43782 0.77320 0.25932
 H3445 H 0.39575 0.78033 0.27838
 H3446 H 0.35708 0.77139 0.25452
 H3447 H 0.38051 0.73581 0.15042
 H3448 H 0.33932 0.73725 0.17105
 C3449 C 0.39225 0.28406 0.30383
 C3450 C 0.39954 0.26202 0.31748
 C3451 C 0.38195 0.24218 0.32100
 C3452 C 0.35747 0.24366 0.31128
 C3453 C 0.34964 0.26503 0.29749
 C3454 C 0.36700 0.28579 0.29407
 C3455 C 0.40963 0.30434 0.29949
 C3456 C 0.40207 0.32627 0.28684
 C3457 C 0.37723 0.32843 0.27819
 C3458 C 0.35985 0.30847 0.28172
 H3459 H 0.42919 0.30344 0.30570
 H3460 H 0.41554 0.34173 0.28386
 H3461 H 0.37137 0.34566 0.26867
 H3462 H 0.34076 0.31140 0.27506
 H3463 H 0.38716 0.22541 0.33167
 H3464 H 0.34464 0.22761 0.31420
 C3465 C 0.90075 0.74564 0.79270
 C3466 C 0.90420 0.75506 0.81766
 C3467 C 0.88305 0.76343 0.83123
 C3468 C 0.85879 0.76241 0.82069
 C3469 C 0.85480 0.75265 0.79635
 C3470 C 0.87576 0.74337 0.78244
 C3471 C 0.92159 0.73855 0.77760
 C3472 C 0.91777 0.72764 0.75383
 C3473 C 0.89325 0.72353 0.74469
 C3474 C 0.87242 0.73120 0.75882
 H3475 H 0.94097 0.74146 0.78389
 H3476 H 0.93391 0.72203 0.74259
 H3477 H 0.89035 0.71443 0.72653
 H3478 H 0.85378 0.72693 0.75133
 H3479 H 0.88530 0.77063 0.85034
 H3480 H 0.84296 0.76936 0.83163
   
