data_POSCAR
  _audit_creation_date              2014-09-24
  _audit_creation_method            'ToBaCCo'
  _symmetry_space_group_name_H-M    'P1'
  _symmetry_Int_Tables_number       1
  _symmetry_cell_setting            triclinic
  loop_
  _symmetry_equiv_pos_as_xyz
 x,y,z
_cell_length_a 35.3156
_cell_length_b 35.5437
_cell_length_c 31.7680
_cell_angle_alpha 90.871400
_cell_angle_beta 90.755900
_cell_angle_gamma 90.073400
loop_
  _atom_site_label
  _atom_site_type_symbol
  _atom_site_fract_x
  _atom_site_fract_y
  _atom_site_fract_z
C1 C 0.41744 0.03525 0.28947
 H2 H 0.43022 0.03143 0.25903
 C3 C 0.44011 0.04536 0.32420
 H4 H 0.47047 0.04756 0.32059
 C5 C 0.36263 0.03595 0.33174
 H6 H 0.33242 0.03171 0.33445
 C7 C 0.38420 0.04608 0.36719
 H8 H 0.37075 0.04873 0.39752
 N9 N 0.37978 0.02867 0.29442
 C10 C 0.36298 0.00011 0.16474
 H11 H 0.33680 0.01545 0.16066
 C12 C 0.38309 -0.01192 0.12970
 H13 H 0.37312 -0.00420 0.09865
 C14 C 0.40836 -0.02779 0.21019
 H15 H 0.41745 -0.03455 0.24182
 C16 C 0.43022 -0.03905 0.17596
 H17 H 0.45709 -0.05298 0.18109
 Zn18 Zn 0.34844 0.00946 0.25038
 N19 N 0.37661 -0.00677 0.20400
 C20 C 0.33189 0.07979 0.21973
 N21 N 0.31535 0.04893 0.23628
 C22 C 0.27836 0.04910 0.24781
 C23 C 0.25679 0.08186 0.24393
 C24 C 0.31143 0.11300 0.21535
 C25 C 0.33277 -0.05207 0.30230
 C26 C 0.31436 -0.08522 0.31294
 C27 C 0.27493 -0.07967 0.25048
 C28 C 0.29442 -0.04689 0.24071
 N29 N 0.32200 -0.03331 0.26715
 H30 H 0.36157 0.07904 0.21177
 H31 H 0.26619 0.02464 0.26225
 H32 H 0.22791 0.08246 0.25496
 H33 H 0.32556 0.13770 0.20363
 H34 H 0.35582 -0.04155 0.32188
 H35 H 0.32232 -0.09958 0.34157
 H36 H 0.25187 -0.08949 0.23031
 H37 H 0.28733 -0.03191 0.21229
 C38 C 0.41778 -0.03059 0.13530
 C39 C 0.42349 0.04922 0.36390
 C40 C 0.28500 -0.09888 0.28699
 C41 C 0.27365 0.11445 0.22859
 C42 C 0.12939 0.03548 0.70191
 H43 H 0.15208 0.05566 0.70552
 C44 C 0.10517 0.03752 0.66680
 H45 H 0.10979 0.05878 0.64336
 C46 C 0.09605 -0.01739 0.72703
 H47 H 0.09319 -0.03921 0.75017
 C48 C 0.07104 -0.01609 0.69276
 H49 H 0.04887 -0.03703 0.68936
 N50 N 0.12537 0.00732 0.73022
 C51 C 0.13448 -0.03548 0.84855
 H52 H 0.14731 -0.06114 0.83698
 C53 C 0.11363 -0.03603 0.88583
 H54 H 0.11003 -0.06199 0.90273
 C55 C 0.12004 0.02903 0.83892
 H56 H 0.12127 0.05384 0.81966
 C57 C 0.10065 0.03010 0.87652
 H58 H 0.08656 0.05581 0.88621
 Zn59 Zn 0.16170 -0.00097 0.77377
 N60 N 0.13700 -0.00319 0.82593
 C61 C 0.20254 0.06263 0.80497
 N62 N 0.19852 0.03676 0.77329
 C63 C 0.21936 0.03859 0.73770
 C64 C 0.24142 0.07017 0.73031
 C65 C 0.22383 0.09492 0.79865
 C66 C 0.17843 -0.06886 0.73149
 C67 C 0.19615 -0.10361 0.72797
 C68 C 0.23320 -0.08829 0.79063
 C69 C 0.21469 -0.05394 0.79306
 N70 N 0.18708 -0.04563 0.76456
 H71 H 0.18760 0.05952 0.83409
 H72 H 0.21630 0.01695 0.71358
 H73 H 0.25516 0.07325 0.70027
 H74 H 0.22432 0.11698 0.82253
 H75 H 0.15712 -0.06099 0.70860
 H76 H 0.18789 -0.12284 0.70272
 H77 H 0.25374 -0.09586 0.81466
 H78 H 0.22113 -0.03439 0.81860
 C79 C 0.09655 -0.00268 0.89969
 C80 C 0.07623 0.01079 0.66167
 C81 C 0.22306 -0.11373 0.75862
 C82 C 0.24163 0.09957 0.75986
 C83 C 0.62635 0.53752 0.19990
 H84 H 0.64753 0.55865 0.20699
 C85 C 0.60314 0.54129 0.16414
 H86 H 0.60722 0.56458 0.14310
 C87 C 0.59501 0.48089 0.21763
 H88 H 0.59211 0.45738 0.23858
 C89 C 0.57102 0.48399 0.18310
 H90 H 0.54991 0.46243 0.17673
 N91 N 0.62234 0.50711 0.22518
 C92 C 0.62082 0.46860 0.35121
 H93 H 0.64575 0.45125 0.35361
 C94 C 0.59559 0.47020 0.38465
 H95 H 0.60121 0.45418 0.41277
 C96 C 0.58396 0.51305 0.31353
 H97 H 0.58053 0.53119 0.28678
 C98 C 0.55775 0.51465 0.34545
 H99 H 0.53389 0.53366 0.34317
 Zn100 Zn 0.65051 0.49798 0.27478
 N101 N 0.61491 0.49058 0.31700
 C102 C 0.67149 0.55859 0.32699
 N103 N 0.67925 0.54003 0.29026
 C104 C 0.70431 0.55374 0.26236
 C105 C 0.71926 0.58959 0.26863
 C106 C 0.68653 0.59425 0.33492
 C107 C 0.67740 0.43497 0.23067
 C108 C 0.69382 0.39957 0.22702
 C109 C 0.72087 0.40811 0.29682
 C110 C 0.70377 0.44342 0.29922
 N111 N 0.68101 0.45521 0.26719
 H112 H 0.65209 0.54674 0.34921
 H113 H 0.71046 0.53793 0.23390
 H114 H 0.73769 0.60142 0.24536
 H115 H 0.67884 0.60990 0.36303
 H116 H 0.66042 0.44538 0.20491
 H117 H 0.68904 0.38290 0.19863
 H118 H 0.73714 0.39775 0.32335
 H119 H 0.70711 0.46064 0.32739
 C120 C 0.56417 0.49412 0.38175
 C121 C 0.57534 0.51396 0.15585
 C122 C 0.71463 0.38541 0.26109
 C123 C 0.70891 0.61055 0.30438
 C124 C 0.92006 0.54287 0.78188
 H125 H 0.91956 0.55676 0.75181
 C126 C 0.94322 0.55674 0.81454
 H127 H 0.96073 0.58129 0.80959
 C128 C 0.89719 0.49451 0.82548
 H129 H 0.87855 0.47082 0.82995
 C130 C 0.91968 0.50770 0.85914
 H131 H 0.91842 0.49392 0.88927
 N132 N 0.89814 0.51189 0.78758
 C133 C 0.87795 0.47257 0.65795
 H134 H 0.84737 0.47059 0.65756
 C135 C 0.89817 0.46467 0.62128
 H136 H 0.88299 0.45781 0.59233
 C137 C 0.93485 0.48600 0.69564
 H138 H 0.94917 0.49390 0.72467
 C139 C 0.95606 0.47862 0.65970
 H140 H 0.98648 0.48250 0.66076
 Zn141 Zn 0.86671 0.49594 0.74166
 N142 N 0.89639 0.48427 0.69375
 C143 C 0.84135 0.55916 0.69634
 N144 N 0.83390 0.53745 0.73025
 C145 C 0.81002 0.54975 0.76080
 C146 C 0.79416 0.58588 0.75896
 C147 C 0.82634 0.59550 0.69348
 C148 C 0.86855 0.42239 0.76202
 C149 C 0.85722 0.38513 0.76540
 C150 C 0.79242 0.40458 0.75412
 C151 C 0.80506 0.44200 0.75113
 N152 N 0.84274 0.44991 0.75450
 H153 H 0.86142 0.54965 0.67313
 H154 H 0.80547 0.53262 0.78814
 H155 H 0.77701 0.59596 0.78477
 H156 H 0.83447 0.61332 0.66776
 H157 H 0.89838 0.42931 0.76351
 H158 H 0.87834 0.36341 0.76954
 H159 H 0.76270 0.39809 0.74938
 H160 H 0.78517 0.46420 0.74400
 C161 C 0.93769 0.46874 0.62187
 C162 C 0.94314 0.53892 0.85347
 C163 C 0.81908 0.37575 0.76058
 C164 C 0.80341 0.60966 0.72558
 C165 C 0.20150 0.40545 0.92821
 H166 H 0.20874 0.37843 0.91451
 C167 C 0.16683 0.42173 0.91777
 H168 H 0.14781 0.40754 0.89571
 C169 C 0.21465 0.45414 0.97822
 H170 H 0.23237 0.46541 1.00340
 C171 C 0.18021 0.47131 0.96877
 H172 H 0.17200 0.49616 0.98652
 N173 N 0.22421 0.42139 0.95855
 C174 C 0.32921 0.39623 1.02525
 H175 H 0.32133 0.36800 1.03398
 C176 C 0.36479 0.41027 1.03656
 H177 H 0.38452 0.39288 1.05391
 C178 C 0.31424 0.45220 0.98883
 H179 H 0.29505 0.46764 0.96873
 C180 C 0.34966 0.46740 0.99958
 H181 H 0.35746 0.49469 0.98774
 Zn182 Zn 0.26188 0.39070 0.98205
 N183 N 0.30504 0.41698 1.00137
 C184 C 0.28637 0.37493 0.90167
 N185 N 0.27950 0.35797 0.93902
 C186 C 0.28531 0.32050 0.94380
 C187 C 0.29428 0.29803 0.90890
 C188 C 0.29486 0.35347 0.86587
 C189 C 0.23714 0.39204 1.06344
 C190 C 0.22356 0.37964 1.10179
 C191 C 0.21038 0.31916 1.06935
 C192 C 0.22403 0.33289 1.03118
 N193 N 0.23886 0.36825 1.02956
 H194 H 0.28291 0.40505 0.89911
 H195 H 0.28200 0.30785 0.97421
 H196 H 0.29607 0.26780 0.91215
 H197 H 0.29696 0.36697 0.83567
 H198 H 0.24811 0.42034 1.06123
 H199 H 0.22535 0.39799 1.12929
 H200 H 0.20168 0.29003 1.07125
 H201 H 0.22362 0.31496 1.00343
 C202 C 0.37556 0.44580 1.02300
 C203 C 0.15528 0.45405 0.93940
 C204 C 0.21144 0.34249 1.10551
 C205 C 0.29734 0.31433 0.86921
 C206 C 0.81626 0.08371 0.98395
 H207 H 0.81485 0.11226 0.99571
 C208 C 0.85134 0.06844 0.97454
 H209 H 0.87661 0.08564 0.97780
 C210 C 0.78537 0.02635 0.96574
 H211 H 0.75964 0.01013 0.96222
 C212 C 0.82023 0.00968 0.95647
 H213 H 0.82126 -0.01929 0.94543
 N214 N 0.78401 0.06317 0.97805
 C215 C 0.67063 0.06803 1.02183
 H216 H 0.67855 0.08767 1.04671
 C217 C 0.63469 0.05159 1.02191
 H218 H 0.61540 0.05839 1.04711
 C219 C 0.68488 0.03725 0.95725
 H220 H 0.70387 0.03301 0.93118
 C221 C 0.64929 0.02005 0.95626
 H222 H 0.64116 0.00214 0.92976
 Zn223 Zn 0.73924 0.09117 0.98660
 N224 N 0.69464 0.06128 0.98937
 C225 C 0.70901 0.12037 0.90892
 N226 N 0.73482 0.12529 0.94099
 C227 C 0.76156 0.15274 0.93936
 C228 C 0.76371 0.17577 0.90468
 C229 C 0.71081 0.14249 0.87277
 C230 C 0.75800 0.09518 1.07163
 C231 C 0.76628 0.11175 1.11079
 C232 C 0.75414 0.17260 1.08066
 C233 C 0.74504 0.15487 1.04241
 N234 N 0.74731 0.11679 1.03854
 H235 H 0.68789 0.09852 0.91041
 H236 H 0.78182 0.15661 0.96467
 H237 H 0.78570 0.19700 0.90348
 H238 H 0.69133 0.13749 0.84667
 H239 H 0.75964 0.06495 1.06761
 H240 H 0.77297 0.09426 1.13747
 H241 H 0.75079 0.20279 1.08377
 H242 H 0.73548 0.17153 1.01621
 C243 C 0.62355 0.02790 0.98829
 C244 C 0.85334 0.03129 0.96029
 C245 C 0.76449 0.15083 1.11545
 C246 C 0.73894 0.17017 0.87071
 C247 C 0.30353 0.59404 0.44805
 H248 H 0.29418 0.61897 0.43192
 C249 C 0.34109 0.58235 0.44403
 H250 H 0.36009 0.59778 0.42410
 C251 C 0.29220 0.54695 0.49848
 H252 H 0.27367 0.53482 0.52148
 C253 C 0.32960 0.53455 0.49560
 H254 H 0.33929 0.51225 0.51591
 N255 N 0.28039 0.57708 0.47602
 C256 C 0.16890 0.59376 0.53035
 H257 H 0.17677 0.61917 0.54746
 C258 C 0.13196 0.58042 0.53260
 H259 H 0.11158 0.59505 0.55207
 C260 C 0.18486 0.54573 0.48104
 H261 H 0.20530 0.53344 0.45983
 C262 C 0.14778 0.53180 0.48179
 H263 H 0.13994 0.50816 0.46161
 Zn264 Zn 0.23877 0.60452 0.49676
 N265 N 0.19445 0.57642 0.50491
 C266 C 0.21662 0.62890 0.41774
 N267 N 0.22348 0.64147 0.45785
 C268 C 0.21688 0.67787 0.46920
 C269 C 0.20648 0.70392 0.43871
 C270 C 0.20624 0.65403 0.38627
 C271 C 0.24903 0.60117 0.58322
 C272 C 0.25758 0.61353 0.62401
 C273 C 0.28355 0.67044 0.59559
 C274 C 0.27459 0.65687 0.55503
 N275 N 0.25550 0.62378 0.54989
 H276 H 0.22073 0.59948 0.40989
 H277 H 0.22021 0.68691 0.50163
 H278 H 0.20395 0.73339 0.44736
 H279 H 0.20368 0.64414 0.35397
 H280 H 0.23559 0.57409 0.57827
 H281 H 0.24930 0.59666 0.65039
 H282 H 0.29566 0.69828 0.59959
 H283 H 0.28156 0.67340 0.52791
 C284 C 0.12085 0.54989 0.50737
 C285 C 0.35488 0.55361 0.46948
 C286 C 0.27345 0.64910 0.63062
 C287 C 0.20235 0.69227 0.39661
 C288 C 0.70172 0.90289 0.46136
 H289 H 0.70994 0.87561 0.44912
 C290 C 0.66820 0.91932 0.44700
 H291 H 0.65061 0.90472 0.42383
 C292 C 0.71210 0.95336 0.50993
 H293 H 0.72856 0.96552 0.53570
 C294 C 0.67919 0.97102 0.49606
 H295 H 0.67047 0.99691 0.51144
 N296 N 0.72226 0.91965 0.49301
 C297 C 0.83345 0.90050 0.54490
 H298 H 0.82746 0.87239 0.55561
 C299 C 0.86886 0.91604 0.55201
 H300 H 0.89034 0.89998 0.56814
 C301 C 0.81250 0.95556 0.51014
 H302 H 0.79037 0.97041 0.49347
 C303 C 0.84842 0.97172 0.51524
 H304 H 0.85416 0.99903 0.50210
 Zn305 Zn 0.76131 0.89298 0.51926
 N306 N 0.80604 0.92045 0.52489
 C307 C 0.79061 0.86136 0.44877
 N308 N 0.77435 0.85128 0.48544
 C309 C 0.76753 0.81457 0.49429
 C310 C 0.77284 0.78687 0.46327
 C311 C 0.79726 0.83459 0.41750
 C312 C 0.76465 0.89742 0.60628
 C313 C 0.76440 0.88212 0.64610
 C314 C 0.71954 0.83544 0.62063
 C315 C 0.72145 0.85120 0.58065
 N316 N 0.74614 0.87977 0.57378
 H317 H 0.79629 0.89071 0.44290
 H318 H 0.75600 0.80684 0.52419
 H319 H 0.76384 0.75824 0.46876
 H320 H 0.80735 0.84374 0.38728
 H321 H 0.78219 0.92170 0.60081
 H322 H 0.78331 0.89345 0.67014
 H323 H 0.70236 0.81063 0.62517
 H324 H 0.70552 0.83884 0.55462
 C325 C 0.87687 0.95140 0.53629
 C326 C 0.65623 0.95319 0.46519
 C327 C 0.74304 0.84992 0.65308
 C328 C 0.78619 0.79721 0.42384
 C329 C -0.04183 0.29992 0.40065
 H330 H -0.06696 0.28994 0.38433
 C331 C -0.04233 0.33569 0.42015
 H332 H -0.06774 0.35263 0.41850
 C333 C 0.02254 0.29184 0.41993
 H334 H 0.04827 0.27559 0.41856
 C335 C 0.02327 0.32740 0.43947
 H336 H 0.04952 0.33800 0.45312
 N337 N -0.00954 0.27875 0.40042
 C338 C -0.01838 0.16046 0.41086
 H339 H -0.04489 0.15917 0.39367
 C340 C -0.00924 0.13134 0.43866
 H341 H -0.02917 0.10861 0.44316
 C342 C 0.04008 0.19068 0.42577
 H343 H 0.05972 0.21328 0.42020
 C344 C 0.05037 0.16213 0.45364
 H345 H 0.07748 0.16359 0.46997
 Zn346 Zn -0.00710 0.23160 0.36888
 N347 N 0.00575 0.19008 0.40565
 C348 C 0.04446 0.20302 0.30966
 N349 N 0.03112 0.23550 0.32704
 C350 C 0.04630 0.26942 0.31687
 C351 C 0.07755 0.27128 0.29014
 C352 C 0.07574 0.20362 0.28313
 C353 C -0.08521 0.21781 0.36735
 C354 C -0.12160 0.21463 0.35030
 C355 C -0.09584 0.22086 0.28074
 C356 C -0.05951 0.22349 0.29918
 N357 N -0.05500 0.22262 0.34190
 H358 H 0.03200 0.17642 0.31816
 H359 H 0.03513 0.29500 0.33071
 H360 H 0.09079 0.29820 0.28449
 H361 H 0.08770 0.17737 0.27185
 H362 H -0.08110 0.21783 0.40116
 H363 H -0.14554 0.21219 0.37105
 H364 H -0.09940 0.22326 0.24700
 H365 H -0.03518 0.22769 0.27948
 C366 C 0.02536 0.13234 0.46069
 C367 C -0.00917 0.34995 0.43929
 C368 C -0.12730 0.21695 0.30682
 C369 C 0.09321 0.23786 0.27397
 C370 C -0.00911 0.70148 0.05700
 H371 H -0.00926 0.72662 0.03825
 C372 C -0.00569 0.66602 0.03731
 H373 H -0.00316 0.66405 0.00343
 C374 C -0.01122 0.67312 0.12396
 H375 H -0.01295 0.67607 0.15783
 C376 C -0.00782 0.63740 0.10567
 H377 H -0.00694 0.61285 0.12543
 N378 N -0.01157 0.70437 0.09970
 C379 C -0.04400 0.80030 0.06698
 H380 H -0.06793 0.78128 0.06759
 C381 C -0.04628 0.83337 0.04371
 H382 H -0.07203 0.83974 0.02637
 C383 C 0.01771 0.81669 0.09098
 H384 H 0.04245 0.81044 0.10996
 C385 C 0.01651 0.85016 0.06826
 H386 H 0.04006 0.86956 0.07062
 Zn387 Zn -0.01421 0.75180 0.12885
 N388 N -0.01268 0.79298 0.09083
 C389 C 0.03211 0.78699 0.19267
 N390 N 0.02853 0.75595 0.16721
 C391 C 0.05625 0.72926 0.16653
 C392 C 0.08902 0.73347 0.19144
 C393 C 0.06468 0.79255 0.21759
 C394 C -0.08476 0.72423 0.16066
 C395 C -0.11616 0.72470 0.18714
 C396 C -0.10070 0.78872 0.20689
 C397 C -0.06955 0.78702 0.18017
 N398 N -0.06098 0.75448 0.15924
 H399 H 0.01064 0.80851 0.19222
 H400 H 0.05401 0.70534 0.14535
 H401 H 0.11126 0.71263 0.18918
 H402 H 0.06790 0.81819 0.23614
 H403 H -0.07887 0.69907 0.14254
 H404 H -0.13322 0.69956 0.19024
 H405 H -0.10558 0.81396 0.22558
 H406 H -0.05165 0.81143 0.17715
 C407 C -0.01617 0.85907 0.04491
 C408 C -0.00476 0.63357 0.06206
 C409 C -0.12356 0.75689 0.21150
 C410 C 0.09371 0.76585 0.21680
 C411 C 0.54839 0.22168 0.54398
 H412 H 0.57221 0.24016 0.55032
 C413 C 0.55260 0.19084 0.51653
 H414 H 0.57970 0.18564 0.50201
 C415 C 0.48579 0.20280 0.55937
 H416 H 0.46043 0.20626 0.57764
 C417 C 0.48858 0.17207 0.53162
 H418 H 0.46529 0.15229 0.52910
 N419 N 0.51602 0.22599 0.56638
 C420 C 0.51775 0.33635 0.62825
 H421 H 0.50840 0.32760 0.65872
 C422 C 0.51887 0.37450 0.61971
 H423 H 0.51136 0.39478 0.64398
 C424 C 0.53381 0.32095 0.55787
 H425 H 0.53834 0.29993 0.53355
 C426 C 0.53467 0.35926 0.54775
 H427 H 0.53988 0.36752 0.51569
 Zn428 Zn 0.51544 0.25995 0.61365
 N429 N 0.52502 0.31030 0.59763
 C430 C 0.55835 0.26582 0.68992
 N431 N 0.55282 0.24468 0.65426
 C432 C 0.57621 0.21523 0.64521
 C433 C 0.60904 0.20935 0.66929
 C434 C 0.59066 0.26080 0.71491
 C435 C 0.43893 0.27530 0.61171
 C436 C 0.40196 0.27865 0.62598
 C437 C 0.42254 0.25456 0.69319
 C438 C 0.45926 0.25118 0.67744
 N439 N 0.46655 0.26120 0.63716
 H440 H 0.53888 0.28794 0.69808
 H441 H 0.57082 0.19750 0.61795
 H442 H 0.62896 0.18790 0.65955
 H443 H 0.59636 0.27989 0.74113
 H444 H 0.44569 0.28353 0.58003
 H445 H 0.37987 0.28861 0.60498
 H446 H 0.41667 0.24545 0.72481
 H447 H 0.48171 0.24030 0.69721
 C448 C 0.52645 0.38624 0.57909
 C449 C 0.52304 0.16486 0.51148
 C450 C 0.39348 0.26815 0.66694
 C451 C 0.61730 0.23371 0.70333
 C452 C 0.52784 0.79794 0.94082
 H453 H 0.55336 0.78122 0.94283
 C454 C 0.52410 0.83021 0.96611
 H455 H 0.54722 0.83892 0.98677
 C456 C 0.46767 0.80865 0.90942
 H457 H 0.44608 0.80073 0.88654
 C458 C 0.46259 0.84088 0.93454
 H459 H 0.43747 0.85788 0.93014
 N460 N 0.50035 0.78846 0.91217
 C461 C 0.55217 0.68163 0.89593
 H462 H 0.56602 0.68678 0.86657
 C463 C 0.56147 0.64927 0.91817
 H464 H 0.58145 0.62937 0.90500
 C465 C 0.50768 0.69925 0.94763
 H466 H 0.48664 0.71882 0.95905
 C467 C 0.51623 0.66709 0.97095
 H468 H 0.50057 0.66137 0.99922
 Zn469 Zn 0.50818 0.74632 0.87549
 N470 N 0.52446 0.70514 0.90986
 C471 C 0.55432 0.73220 0.80368
 N472 N 0.54788 0.75729 0.83561
 C473 C 0.57269 0.78617 0.84337
 C474 C 0.60696 0.78838 0.82146
 C475 C 0.58817 0.73337 0.78117
 C476 C 0.43244 0.72207 0.87490
 C477 C 0.39524 0.71696 0.86043
 C478 C 0.41473 0.73471 0.79110
 C479 C 0.45194 0.73968 0.80702
 N480 N 0.46000 0.73396 0.84860
 H481 H 0.53463 0.70929 0.79800
 H482 H 0.56737 0.80612 0.86855
 H483 H 0.62756 0.80970 0.83045
 H484 H 0.59419 0.71131 0.75835
 H485 H 0.43884 0.71822 0.90783
 H486 H 0.37347 0.70920 0.88238
 H487 H 0.40837 0.74104 0.75855
 H488 H 0.47384 0.74974 0.78653
 C489 C 0.54257 0.64106 0.95529
 C490 C 0.49158 0.85244 0.96248
 C491 C 0.38577 0.72386 0.81842
 C492 C 0.61562 0.76073 0.79107
 C493 C -0.19831 0.63302 0.95690
 H494 H -0.17282 0.61836 0.96612
 C495 C -0.19877 0.65380 0.91984
 H496 H -0.17386 0.65492 0.90041
 C497 C -0.26191 0.65028 0.97078
 H498 H -0.28640 0.64877 0.99080
 C499 C -0.26349 0.67126 0.93439
 H500 H -0.28927 0.68606 0.92613
 N501 N -0.22980 0.63140 0.98124
 C502 C -0.24102 0.62219 1.11700
 H503 H -0.23443 0.59306 1.12260
 C504 C -0.25311 0.64500 1.15027
 H505 H -0.25700 0.63316 1.18108
 C506 C -0.24375 0.67370 1.07058
 H507 H -0.23985 0.68511 1.03970
 C508 C -0.25582 0.69748 1.10296
 H509 H -0.26193 0.72674 1.09663
 Zn510 Zn -0.23154 0.60296 1.03099
 N511 N -0.23865 0.63630 1.07751
 C512 C -0.17840 0.55092 1.00647
 N513 N -0.18592 0.57741 1.03644
 C514 C -0.15912 0.58946 1.06468
 C515 C -0.12215 0.57615 1.06178
 C516 C -0.14173 0.53738 1.00204
 C517 C -0.28429 0.54920 1.06097
 C518 C -0.31932 0.53093 1.06068
 C519 C -0.32844 0.54887 0.98830
 C520 C -0.29317 0.56651 0.98987
 N521 N -0.27293 0.56850 1.02664
 H522 H -0.20032 0.54243 0.98418
 H523 H -0.16574 0.61112 1.08763
 H524 H -0.10032 0.58702 1.08294
 H525 H -0.13553 0.51768 0.97674
 H526 H -0.26717 0.54924 1.08926
 H527 H -0.32930 0.51772 1.08898
 H528 H -0.34520 0.54957 0.95954
 H529 H -0.28287 0.57991 0.96201
 C530 C -0.26186 0.68258 1.14267
 C531 C -0.23191 0.67295 0.90862
 C532 C -0.34239 0.53226 1.02470
 C533 C -0.11308 0.55110 1.02918
 C534 C -0.27563 0.32255 0.55084
 H535 H -0.28883 0.30752 0.52470
 C536 C -0.25952 0.30346 0.58222
 H537 H -0.25946 0.27298 0.58153
 C538 C -0.26251 0.38190 0.58430
 H539 H -0.26006 0.41219 0.58299
 C540 C -0.24469 0.36194 0.61986
 H541 H -0.23106 0.37796 0.64512
 N542 N -0.27361 0.36299 0.55086
 C543 C -0.30947 0.35734 0.42462
 H544 H -0.33025 0.37960 0.42644
 C545 C -0.31021 0.33191 0.39045
 H546 H -0.33127 0.33481 0.36565
 C547 C -0.25436 0.32809 0.45242
 H548 H -0.23206 0.32742 0.47603
 C549 C -0.25456 0.30193 0.41967
 H550 H -0.23214 0.28123 0.41770
 Zn551 Zn -0.27469 0.38934 0.49937
 N552 N -0.28154 0.35499 0.45448
 C553 C -0.21761 0.43823 0.46404
 N554 N -0.22556 0.41127 0.49276
 C555 C -0.19731 0.39543 0.51607
 C556 C -0.16020 0.40792 0.51308
 C557 C -0.18040 0.45175 0.46010
 C558 C -0.34976 0.40964 0.50833
 C559 C -0.38047 0.43327 0.51621
 C560 C -0.33919 0.48676 0.50790
 C561 C -0.30910 0.46215 0.50062
 N562 N -0.31480 0.42433 0.50159
 H563 H -0.23996 0.44911 0.44408
 H564 H -0.20308 0.37220 0.53643
 H565 H -0.13820 0.39526 0.53224
 H566 H -0.17435 0.47357 0.43776
 H567 H -0.35334 0.37944 0.50960
 H568 H -0.40745 0.42115 0.52405
 H569 H -0.33407 0.51682 0.50926
 H570 H -0.28099 0.47334 0.49651
 C571 C -0.28213 0.30409 0.38805
 C572 C -0.24103 0.32447 0.61724
 C573 C -0.37501 0.47221 0.51674
 C574 C -0.15147 0.43642 0.48530
 C575 C 0.26504 -0.14947 0.06796
 H576 H 0.28299 -0.15402 0.04101
 C577 C 0.27624 -0.16120 0.10602
 H578 H 0.30315 -0.17541 0.10984
 C579 C 0.20761 -0.12372 0.09482
 H580 H 0.18208 -0.10739 0.09110
 C581 C 0.21879 -0.13637 0.13735
 H582 H 0.20095 -0.12973 0.16394
 N583 N 0.22975 -0.12969 0.06283
 C584 C 0.20453 -0.13008 -0.07343
 H585 H 0.20003 -0.10034 -0.07828
 C586 C 0.20290 -0.15523 -0.10774
 H587 H 0.19784 -0.14463 -0.13909
 C588 C 0.21903 -0.17976 -0.02698
 H589 H 0.22556 -0.18921 0.00444
 C590 C 0.21800 -0.20575 -0.06040
 H591 H 0.22462 -0.23499 -0.05475
 Zn592 Zn 0.22002 -0.10643 0.00996
 N593 N 0.21362 -0.14254 -0.03423
 C594 C 0.28633 -0.08257 -0.03314
 N595 N 0.26305 -0.07571 -0.00002
 C596 C 0.27254 -0.05001 0.03049
 C597 C 0.30684 -0.03058 0.02891
 C598 C 0.32122 -0.06396 -0.03567
 C599 C 0.14228 -0.09729 0.01841
 C600 C 0.10857 -0.07836 0.02678
 C601 C 0.14216 -0.01937 0.02198
 C602 C 0.17531 -0.03941 0.01348
 N603 N 0.17501 -0.07772 0.01343
 H604 H 0.27882 -0.10379 -0.05650
 H605 H 0.25412 -0.04580 0.05708
 H606 H 0.31461 -0.01112 0.05411
 H607 H 0.34016 -0.07082 -0.06117
 H608 H 0.14279 -0.12773 0.01773
 H609 H 0.08298 -0.09413 0.03228
 H610 H 0.14282 0.01108 0.02386
 H611 H 0.20140 -0.02434 0.00849
 C612 C 0.21071 -0.19345 -0.10132
 C613 C 0.25210 -0.15370 0.14284
 C614 C 0.10878 -0.03913 0.02982
 C615 C 0.33195 -0.03813 -0.00380
 C616 C 0.27268 1.16809 0.43053
 H617 H 0.26853 1.18278 0.46011
 C618 C 0.27683 1.18857 0.39367
 H619 H 0.27437 1.21892 0.39493
 C620 C 0.27968 1.11074 0.39239
 H621 H 0.28033 1.08030 0.39218
 C622 C 0.28367 1.13005 0.35485
 H623 H 0.28659 1.11451 0.32550
 N624 N 0.27233 1.12983 0.42881
 C625 C 0.26028 1.11674 0.56224
 H626 H 0.27978 1.09342 0.56442
 C627 C 0.24897 1.13551 0.59880
 H628 H 0.26138 1.12766 0.62875
 C629 C 0.22082 1.15563 0.52060
 H630 H 0.20921 1.16262 0.49003
 C631 C 0.20974 1.17604 0.55632
 H632 H 0.19115 1.20005 0.55308
 Zn633 Zn 0.26174 1.09982 0.47584
 N634 N 0.24715 1.12787 0.52397
 C635 C 0.33591 1.09396 0.49898
 N636 N 0.30563 1.07268 0.48703
 C637 C 0.30867 1.03507 0.47918
 C638 C 0.34399 1.01761 0.48208
 C639 C 0.37148 1.07775 0.50234
 C640 C 0.19825 1.07190 0.43025
 C641 C 0.16268 1.05487 0.42915
 C642 C 0.17637 1.02816 0.49730
 C643 C 0.21171 1.04524 0.49691
 N644 N 0.22125 1.06769 0.46450
 H645 H 0.33247 1.12388 0.50434
 H646 H 0.28418 1.01905 0.46873
 H647 H 0.34682 0.98804 0.47409
 H648 H 0.39549 1.09544 0.51063
 H649 H 0.20600 1.09081 0.40550
 H650 H 0.14326 1.06026 0.40328
 H651 H 0.16809 1.01236 0.52456
 H652 H 0.23045 1.04308 0.52397
 C653 C 0.22435 1.16635 0.59581
 C654 C 0.28088 1.16923 0.35509
 C655 C 0.15097 1.03446 0.46388
 C656 C 0.37585 1.03929 0.49272
 C657 C 0.20726 0.47168 0.23501
 H658 H 0.22341 0.49614 0.22626
 C659 C 0.22524 0.43671 0.23791
 H660 H 0.25530 0.43444 0.23211
 C661 C 0.14798 0.44365 0.24936
 H662 H 0.11770 0.44607 0.25230
 C663 C 0.16477 0.40834 0.25258
 H664 H 0.14717 0.38409 0.25854
 N665 N 0.16913 0.47441 0.24016
 C666 C 0.17069 0.58913 0.19865
 H667 H 0.15129 0.58524 0.17232
 C668 C 0.18990 0.62339 0.20416
 H669 H 0.18501 0.64581 0.18205
 C670 C 0.19817 0.56597 0.26161
 H671 H 0.20026 0.54395 0.28466
 C672 C 0.21801 0.59958 0.26812
 H673 H 0.23532 0.60343 0.29625
 Zn674 Zn 0.14227 0.51879 0.22552
 N675 N 0.17442 0.56165 0.22781
 C676 C 0.10584 0.54790 0.29897
 N677 N 0.10153 0.52560 0.26392
 C678 C 0.06950 0.50486 0.25751
 C679 C 0.04139 0.50431 0.28791
 C680 C 0.07832 0.54807 0.33034
 C681 C 0.14173 0.48441 0.14585
 C682 C 0.12547 0.47059 0.10847
 C683 C 0.07159 0.51108 0.12029
 C684 C 0.08898 0.52430 0.15751
 N685 N 0.12293 0.50996 0.17016
 H686 H 0.13142 0.56415 0.30375
 H687 H 0.06661 0.48705 0.22976
 H688 H 0.01717 0.48586 0.28360
 H689 H 0.08325 0.56402 0.35920
 H690 H 0.16873 0.47348 0.15628
 H691 H 0.14012 0.44929 0.09013
 H692 H 0.04389 0.52150 0.11123
 H693 H 0.07455 0.54456 0.17731
 C694 C 0.21315 0.62904 0.23993
 C695 C 0.20376 0.40453 0.24586
 C696 C 0.08966 0.48325 0.09619
 C697 C 0.04618 0.52512 0.32526
 C698 C -0.15314 1.06454 0.29597
 H699 H -0.13023 1.05698 0.31706
 C700 C -0.17187 1.09870 0.30182
 H701 H -0.16331 1.11763 0.32725
 C702 C -0.19056 1.05085 0.23500
 H703 H -0.19687 1.03238 0.20843
 C704 C -0.21025 1.08442 0.23997
 H705 H -0.23179 1.09178 0.21701
 N706 N -0.16255 1.04172 0.26268
 C707 C -0.14855 0.92249 0.24855
 H708 H -0.11848 0.92161 0.24251
 C709 C -0.16879 0.88931 0.25261
 H710 H -0.15414 0.86274 0.24919
 C711 C -0.20390 0.95853 0.26123
 H712 H -0.21719 0.98560 0.26566
 C713 C -0.22539 0.92585 0.26523
 H714 H -0.25530 0.92768 0.27203
 Zn715 Zn -0.13480 0.99829 0.25037
 N716 N -0.16629 0.95613 0.25272
 C717 C -0.11013 0.98028 0.32969
 N718 N -0.09697 0.99187 0.29198
 C719 C -0.05963 0.99939 0.28634
 C720 C -0.03423 0.99721 0.32041
 C721 C -0.08575 0.97725 0.36422
 C722 C -0.12731 0.97922 0.16419
 C723 C -0.11944 0.98654 0.12216
 C724 C -0.08778 1.04388 0.14452
 C725 C -0.09616 1.03547 0.18625
 N726 N -0.11596 1.00376 0.19523
 H727 H -0.14001 0.97458 0.33324
 H728 H -0.04983 1.00841 0.25603
 H729 H -0.00487 1.00506 0.31651
 H730 H -0.09709 0.96952 0.39439
 H731 H -0.14396 0.95479 0.17164
 H732 H -0.12930 0.96734 0.09756
 H733 H -0.07284 1.06960 0.13741
 H734 H -0.08840 1.05504 0.21132
 C735 C -0.20768 0.89093 0.26121
 C736 C -0.20030 1.10901 0.27330
 C737 C -0.10015 1.01947 0.11223
 C738 C -0.04747 0.98666 0.35992
 C739 C 0.27346 0.53348 -0.25522
 H740 H 0.27113 0.51282 -0.28048
 C741 C 0.25240 0.56654 -0.25713
 H742 H 0.23334 0.57121 -0.28346
 C743 C 0.30353 0.55446 -0.19186
 H744 H 0.32386 0.55000 -0.16680
 C745 C 0.28400 0.58829 -0.19331
 H746 H 0.28956 0.60980 -0.16951
 N747 N 0.30003 0.52924 -0.22426
 C748 C 0.34751 0.41629 -0.24933
 H749 H 0.37740 0.42243 -0.24731
 C750 C 0.33599 0.38206 -0.26128
 H751 H 0.35642 0.36057 -0.26958
 C752 C 0.28411 0.43768 -0.23855
 H753 H 0.26415 0.45952 -0.23050
 C754 C 0.27010 0.40041 -0.25232
 H755 H 0.23991 0.39568 -0.25605
 Zn756 Zn 0.33877 0.49387 -0.23160
 N757 N 0.32021 0.44503 -0.23969
 C758 C 0.37688 0.46483 -0.15999
 N759 N 0.37180 0.49484 -0.18554
 C760 C 0.39419 0.52587 -0.18262
 C761 C 0.42346 0.52752 -0.15331
 C762 C 0.40595 0.46545 -0.12983
 C763 C 0.35748 0.53185 -0.30879
 C764 C 0.38264 0.54162 -0.34063
 C765 C 0.43047 0.50379 -0.30659
 C766 C 0.40452 0.49408 -0.27638
 N767 N 0.36864 0.50775 -0.27796
 H768 H 0.35872 0.44042 -0.16327
 H769 H 0.38968 0.54898 -0.20388
 H770 H 0.44099 0.55249 -0.15066
 H771 H 0.40960 0.44200 -0.10881
 H772 H 0.32916 0.54314 -0.30929
 H773 H 0.37323 0.55918 -0.36627
 H774 H 0.45864 0.49178 -0.30563
 H775 H 0.41331 0.47583 -0.25122
 C776 C 0.29513 0.37444 -0.26480
 C777 C 0.25999 0.59523 -0.22775
 C778 C 0.41950 0.52712 -0.33933
 C779 C 0.42954 0.49716 -0.12692
 C780 C 0.66280 -0.07555 -0.20811
 H781 H 0.63823 -0.06947 -0.18934
 C782 C 0.67973 -0.10919 -0.20474
 H783 H 0.66902 -0.12971 -0.18302
 C784 C 0.70655 -0.05494 -0.25945
 H785 H 0.71644 -0.03437 -0.28151
 C786 C 0.72742 -0.09067 -0.25452
 H787 H 0.75472 -0.09379 -0.26899
 N788 N 0.67701 -0.04772 -0.23657
 C789 C 0.66143 0.07610 -0.24955
 H790 H 0.63090 0.07632 -0.25043
 C791 C 0.68104 0.10928 -0.25777
 H792 H 0.66546 0.13443 -0.26599
 C793 C 0.71889 0.04271 -0.24070
 H794 H 0.73362 0.01669 -0.23472
 C795 C 0.73965 0.07538 -0.24888
 H796 H 0.77026 0.07399 -0.25017
 Zn797 Zn 0.64975 -0.00139 -0.24352
 N798 N 0.68037 0.04322 -0.24315
 C799 C 0.61515 0.03026 -0.17035
 N800 N 0.61298 0.00356 -0.20153
 C801 C 0.58233 -0.01931 -0.20611
 C802 C 0.55239 -0.01622 -0.17844
 C803 C 0.58569 0.03407 -0.14156
 C804 C 0.63305 -0.02541 -0.32865
 C805 C 0.61201 -0.02466 -0.36633
 C806 C 0.56979 0.02031 -0.33386
 C807 C 0.59154 0.01898 -0.29729
 N808 N 0.62276 -0.00327 -0.29530
 H809 H 0.63983 0.04818 -0.16746
 H810 H 0.58126 -0.04002 -0.23140
 H811 H 0.52863 -0.03542 -0.18143
 H812 H 0.58820 0.05412 -0.11567
 H813 H 0.65781 -0.04308 -0.32645
 H814 H 0.62095 -0.04127 -0.39326
 H815 H 0.54549 0.03883 -0.33541
 H816 H 0.58338 0.03588 -0.27039
 C817 C 0.72051 0.10866 -0.25906
 C818 C 0.71434 -0.11719 -0.22890
 C819 C 0.58018 -0.00120 -0.36880
 C820 C 0.55406 0.01035 -0.14573
 C821 C 0.06143 0.23535 0.79482
 H822 H 0.03743 0.24316 0.77545
 C823 C 0.09662 0.22933 0.77588
 H824 H 0.09944 0.23275 0.74226
 C825 C 0.08821 0.22479 0.86233
 H826 H 0.08539 0.22413 0.89603
 C827 C 0.12363 0.21846 0.84473
 H828 H 0.14784 0.21324 0.86509
 N829 N 0.05788 0.23336 0.83748
 C830 C -0.03321 0.21807 0.79595
 H831 H -0.01414 0.19432 0.79761
 C832 C -0.06492 0.21629 0.76938
 H833 H -0.07049 0.19101 0.75087
 C834 C -0.05116 0.27862 0.82075
 H835 H -0.04615 0.30256 0.84142
 C836 C -0.08336 0.27791 0.79469
 H837 H -0.10322 0.30102 0.79615
 Zn838 Zn 0.01086 0.24501 0.86420
 N839 N -0.02776 0.24824 0.82222
 C840 C -0.01260 0.30219 0.92076
 N841 N 0.01513 0.29236 0.89342
 C842 C 0.04376 0.31673 0.88473
 C843 C 0.04445 0.35303 0.90279
 C844 C -0.01295 0.33807 0.93944
 C845 C 0.01894 0.20131 0.93840
 C846 C 0.01351 0.17010 0.96401
 C847 C -0.03867 0.15059 0.91917
 C848 C -0.03221 0.18216 0.89428
 N849 N -0.00256 0.20588 0.90297
 H850 H -0.03517 0.28251 0.92699
 H851 H 0.06539 0.30851 0.86265
 H852 H 0.06672 0.37246 0.89465
 H853 H -0.03581 0.34595 0.96017
 H854 H 0.04110 0.22127 0.94625
 H855 H 0.03246 0.16552 0.99051
 H856 H -0.06074 0.13077 0.91014
 H857 H -0.05020 0.18661 0.86716
 C858 C -0.09103 0.24576 0.76981
 C859 C 0.12824 0.22126 0.80128
 C860 C -0.01471 0.14372 0.95372
 C861 C 0.01537 0.36410 0.93003
 C862 C 0.43023 0.23185 0.17010
 H863 H 0.44417 0.20478 0.16903
 C864 C 0.39682 0.23630 0.19293
 H865 H 0.38470 0.21240 0.20864
 C866 C 0.42797 0.29552 0.14928
 H867 H 0.44039 0.31882 0.13301
 C868 C 0.39469 0.30117 0.17164
 H869 H 0.38086 0.32833 0.17101
 N870 N 0.44406 0.26079 0.14716
 C871 C 0.54456 0.21028 0.15301
 H872 H 0.53206 0.18639 0.13662
 C873 C 0.57762 0.20550 0.17674
 H874 H 0.59108 0.17816 0.17752
 C875 C 0.54306 0.27506 0.17167
 H876 H 0.52948 0.30222 0.16914
 C877 C 0.57660 0.27161 0.19536
 H878 H 0.58912 0.29620 0.21052
 Zn879 Zn 0.48682 0.25199 0.11228
 N880 N 0.52883 0.24498 0.14944
 C881 C 0.53171 0.30778 0.07506
 N882 N 0.49587 0.29398 0.07704
 C883 C 0.46673 0.31084 0.05600
 C884 C 0.47231 0.34544 0.03635
 C885 C 0.53862 0.34176 0.05525
 C886 C 0.44474 0.19179 0.07454
 C887 C 0.43990 0.15767 0.05280
 C888 C 0.50564 0.15950 0.03319
 C889 C 0.50922 0.19393 0.05513
 N890 N 0.47939 0.20849 0.07681
 H891 H 0.55486 0.29318 0.09017
 H892 H 0.43863 0.29874 0.05689
 H893 H 0.44843 0.36010 0.02260
 H894 H 0.56687 0.35368 0.05616
 H895 H 0.42098 0.20431 0.09052
 H896 H 0.41266 0.14364 0.05311
 H897 H 0.53014 0.14700 0.01840
 H898 H 0.53637 0.20805 0.05672
 C899 C 0.59459 0.23652 0.19696
 C900 C 0.37823 0.27116 0.19266
 C901 C 0.47071 0.14066 0.03295
 C902 C 0.50856 0.36165 0.03728
 C903 C -0.05772 0.77264 0.68109
 H904 H -0.03964 0.79719 0.68352
 C905 C -0.08634 0.76847 0.70834
 H906 H -0.09093 0.78949 0.73276
 C907 C -0.07321 0.71547 0.64471
 H908 H -0.06814 0.69450 0.62050
 C909 C -0.10495 0.70969 0.67418
 H910 H -0.12157 0.68407 0.67168
 N911 N -0.05055 0.74443 0.64897
 C912 C 0.07167 0.74201 0.62219
 H913 H 0.06869 0.73384 0.58946
 C914 C 0.10761 0.74247 0.64077
 H915 H 0.13197 0.73513 0.62198
 C916 C 0.04386 0.75920 0.68703
 H917 H 0.01892 0.76527 0.70519
 C918 C 0.07986 0.75999 0.70709
 H919 H 0.08230 0.76657 0.74040
 Zn920 Zn -0.00641 0.74721 0.61249
 N921 N 0.04043 0.75048 0.64503
 C922 C 0.01976 0.79476 0.54760
 N923 N -0.00851 0.79047 0.57596
 C924 C -0.03492 0.81804 0.58124
 C925 C -0.03194 0.85216 0.55961
 C926 C 0.02385 0.82843 0.52571
 C927 C 0.00603 0.67034 0.60296
 C928 C 0.00940 0.63493 0.58382
 C929 C -0.00486 0.66250 0.51659
 C930 C -0.00795 0.69786 0.53717
 N931 N -0.00297 0.70100 0.57982
 H932 H 0.04030 0.77268 0.54310
 H933 H -0.05712 0.81457 0.60395
 H934 H -0.05119 0.87482 0.56676
 H935 H 0.04794 0.83216 0.50544
 H936 H 0.01010 0.67338 0.63665
 H937 H 0.01544 0.61069 0.60303
 H938 H -0.01017 0.66003 0.48303
 H939 H -0.01500 0.72251 0.51915
 C940 C 0.11218 0.75146 0.68347
 C941 C -0.11107 0.73474 0.70534
 C942 C 0.00367 0.63052 0.54039
 C943 C -0.00167 0.85793 0.53217
 C944 C 0.54893 0.76930 0.32312
 H945 H 0.53178 0.79256 0.31242
 C946 C 0.58439 0.76248 0.30496
 H947 H 0.59443 0.78075 0.28054
 C948 C 0.55822 0.71904 0.37026
 H949 H 0.54857 0.70283 0.39656
 C950 C 0.59372 0.71143 0.35317
 H951 H 0.61121 0.68950 0.36652
 N952 N 0.53693 0.74816 0.35585
 C953 C 0.44693 0.75372 0.31300
 H954 H 0.46862 0.73402 0.30347
 C955 C 0.41313 0.75584 0.28964
 H956 H 0.40885 0.73757 0.26241
 C957 C 0.42452 0.79925 0.36174
 H958 H 0.42831 0.81549 0.39039
 C959 C 0.39041 0.80243 0.33912
 H960 H 0.36847 0.82088 0.35092
 Zn961 Zn 0.49245 0.76135 0.38689
 N962 N 0.45146 0.77411 0.34936
 C963 C 0.47830 0.81403 0.45304
 N964 N 0.50399 0.80314 0.42372
 C965 C 0.53609 0.82364 0.41777
 C966 C 0.54154 0.85811 0.43895
 C967 C 0.48254 0.84838 0.47463
 C968 C 0.46209 0.68937 0.39463
 C969 C 0.45365 0.65513 0.41312
 C970 C 0.47444 0.68077 0.48023
 C971 C 0.48229 0.71499 0.46042
 N972 N 0.47689 0.71832 0.41802
 H973 H 0.45326 0.79714 0.45779
 H974 H 0.55649 0.81449 0.39478
 H975 H 0.56581 0.87532 0.43154
 H976 H 0.46042 0.85812 0.49540
 H977 H 0.45850 0.69211 0.36106
 H978 H 0.44413 0.63169 0.39351
 H979 H 0.48139 0.67753 0.51326
 H980 H 0.49463 0.73802 0.47849
 C981 C 0.38396 0.77940 0.30348
 C982 C 0.60755 0.73371 0.32087
 C983 C 0.46079 0.65014 0.45598
 C984 C 0.51367 0.87141 0.46651
 B985 B -0.05459 0.01815 1.01760
 B986 B -0.05348 0.00446 0.96696
 B987 B -0.02905 0.04231 0.98355
 B988 B -0.01171 0.03470 1.03262
 B989 B -0.02572 -0.00992 1.04583
 B990 B -0.05270 -0.02824 1.00480
 B991 B 0.01884 -0.01517 0.97601
 B992 B 0.01788 -0.00208 1.02677
 B993 B -0.00658 -0.03987 1.01024
 B994 B -0.02403 -0.03219 0.96150
 B995 B -0.01029 0.01242 0.94842
 B996 B 0.01649 0.03094 0.98949
 B997 B 0.46721 0.53582 0.55768
 B998 B 0.45113 0.52390 0.50998
 B999 B 0.47869 0.56181 0.51653
 B1000 B 0.51138 0.55325 0.55429
 B1001 B 0.50391 0.50802 0.57049
 B1002 B 0.46559 0.49007 0.54286
 B1003 B 0.52102 0.50516 0.48741
 B1004 B 0.53724 0.51738 0.53516
 B1005 B 0.50965 0.47953 0.52833
 B1006 B 0.47663 0.48792 0.49068
 B1007 B 0.48446 0.53301 0.47424
 B1008 B 0.52289 0.55099 0.50191
 B1009 B 0.54414 1.00218 0.52011
 B1010 B 0.56591 1.00755 0.47470
 B1011 B 0.53168 0.97544 0.47887
 B1012 B 0.49805 0.99230 0.51138
 B1013 B 0.51248 1.03675 0.52649
 B1014 B 0.55531 1.04574 0.50389
 B1015 B 0.50295 1.03564 0.44118
 B1016 B 0.48145 1.03031 0.48701
 B1017 B 0.51534 1.06229 0.48252
 B1018 B 0.54914 1.04569 0.45005
 B1019 B 0.53478 1.00113 0.43468
 B1020 B 0.49179 0.99213 0.45748
 B1021 B 0.03875 0.48163 1.00502
 B1022 B 0.06236 0.49942 0.96510
 B1023 B 0.02797 0.46803 0.95596
 B1024 B -0.00698 0.47534 0.99079
 B1025 B 0.00695 0.51289 1.02205
 B1026 B 0.05069 0.52774 1.00577
 B1027 B 0.00092 0.53647 0.94055
 B1028 B -0.02261 0.51859 0.98061
 B1029 B 0.01165 0.54983 0.98961
 B1030 B 0.04663 0.54276 0.95486
 B1031 B 0.03294 0.50502 0.92343
 B1032 B -0.01108 0.49039 0.93968
 B1033 B 0.00251 0.51644 0.43192
 B1034 B 0.02685 0.50721 0.47566
 B1035 B -0.00707 0.54000 0.47640
 B1036 B -0.04295 0.52591 0.44384
 B1037 B -0.03019 0.48254 0.42354
 B1038 B 0.01391 0.47158 0.44331
 B1039 B -0.03443 0.47702 0.50917
 B1040 B -0.05898 0.48591 0.46517
 B1041 B -0.02490 0.45332 0.46470
 B1042 B 0.01096 0.46740 0.49702
 B1043 B -0.00179 0.51058 0.51722
 B1044 B -0.04601 0.52169 0.49749
 B1045 B 0.49942 0.01486 -0.04643
 B1046 B 0.51905 0.00963 0.00100
 B1047 B 0.48451 0.04085 -0.00599
 B1048 B 0.45266 0.02357 -0.04175
 B1049 B 0.46871 -0.02046 -0.05608
 B1050 B 0.51068 -0.02850 -0.02956
 B1051 B 0.45526 -0.02055 0.02807
 B1052 B 0.43548 -0.01541 -0.01926
 B1053 B 0.47021 -0.04648 -0.01231
 B1054 B 0.50193 -0.02918 0.02348
 B1055 B 0.48577 0.01479 0.03784
 B1056 B 0.44382 0.02277 0.01135
 B1057 B 0.48933 0.49088 -0.03057
 B1058 B 0.46787 0.49782 0.01485
 B1059 B 0.50025 0.46396 0.00983
 B1060 B 0.53486 0.47860 -0.02221
 B1061 B 0.52287 0.52342 -0.03653
 B1062 B 0.48069 0.53514 -0.01323
 B1063 B 0.53220 0.52304 0.04901
 B1064 B 0.55378 0.51616 0.00316
 B1065 B 0.52141 0.54994 0.00810
 B1066 B 0.48674 0.53521 0.04031
 B1067 B 0.49844 0.49003 0.05443
 B1068 B 0.54109 0.47883 0.03152
 B1069 B -0.00982 0.99171 0.47102
 B1070 B -0.03096 0.99901 0.51663
 B1071 B -0.00142 0.96257 0.51089
 B1072 B 0.03438 0.97544 0.47947
 B1073 B 0.02639 1.02193 0.46681
 B1074 B -0.01509 1.03618 0.48991
 B1075 B 0.03480 1.01749 0.55230
 B1076 B 0.05597 1.01041 0.50649
 B1077 B 0.02676 1.04675 0.51260
 B1078 B -0.00935 1.03392 0.54371
 B1079 B -0.00142 0.98760 0.55624
 B1080 B 0.04021 0.97345 0.53328
 B1081 B 0.75660 0.22080 0.20293
 B1082 B 0.74816 0.19780 0.24712
 B1083 B 0.78130 0.23120 0.24656
 B1084 B 0.76696 0.26607 0.21454
 B1085 B 0.72295 0.25316 0.19549
 B1086 B 0.71184 0.20996 0.21560
 B1087 B 0.71880 0.25975 0.28091
 B1088 B 0.72752 0.28269 0.23689
 B1089 B 0.69439 0.24936 0.23725
 B1090 B 0.70850 0.21439 0.26934
 B1091 B 0.75243 0.22734 0.28851
 B1092 B 0.76393 0.27043 0.26830
 B1093 B 0.74890 0.77462 0.73398
 B1094 B 0.75981 0.79244 0.78169
 B1095 B 0.72175 0.76444 0.77492
 B1096 B 0.73174 0.73038 0.73857
 B1097 B 0.77772 0.73790 0.72303
 B1098 B 0.79492 0.77715 0.74982
 B1099 B 0.77796 0.72394 0.80735
 B1100 B 0.76769 0.70595 0.76015
 B1101 B 0.80541 0.73383 0.76652
 B1102 B 0.79552 0.76743 0.80263
 B1103 B 0.74960 0.76035 0.81790
 B1104 B 0.73252 0.72124 0.79130
 B1105 B 0.27713 0.27295 0.76247
 B1106 B 0.26696 0.28298 0.71207
 B1107 B 0.30221 0.25355 0.72385
 B1108 B 0.29024 0.22740 0.76548
 B1109 B 0.24564 0.24170 0.77936
 B1110 B 0.23151 0.27710 0.74630
 B1111 B 0.24190 0.21334 0.69928
 B1112 B 0.25199 0.20336 0.74905
 B1113 B 0.21671 0.23277 0.73787
 B1114 B 0.22863 0.25862 0.69605
 B1115 B 0.27333 0.24439 0.68217
 B1116 B 0.28752 0.20939 0.71518
 B1117 B 0.21763 0.74344 0.29669
 B1118 B 0.23147 0.73345 0.24798
 B1119 B 0.19530 0.76249 0.25555
 B1120 B 0.20325 0.78835 0.29960
 B1121 B 0.24703 0.77504 0.31867
 B1122 B 0.26419 0.74007 0.28641
 B1123 B 0.25666 0.80396 0.24059
 B1124 B 0.24212 0.81347 0.28964
 B1125 B 0.27867 0.78457 0.28146
 B1126 B 0.27058 0.75838 0.23722
 B1127 B 0.22707 0.77210 0.21798
 B1128 B 0.20980 0.80729 0.25057
 B1129 B 0.26711 0.71907 0.71885
 B1130 B 0.25765 0.70002 0.76519
 B1131 B 0.29067 0.73343 0.76198
 B1132 B 0.27672 0.76518 0.72599
 B1133 B 0.23348 0.75020 0.70687
 B1134 B 0.22180 0.70904 0.73135
 B1135 B 0.22697 0.76424 0.79122
 B1136 B 0.23648 0.78307 0.74501
 B1137 B 0.20350 0.74980 0.74787
 B1138 B 0.21727 0.71820 0.78431
 B1139 B 0.26086 0.73299 0.80333
 B1140 B 0.27231 0.77413 0.77899
 B1141 B 0.21536 0.27676 0.19574
 B1142 B 0.21950 0.29947 0.24187
 B1143 B 0.19118 0.26203 0.23735
 B1144 B 0.21080 0.23016 0.20407
 B1145 B 0.25317 0.24924 0.18884
 B1146 B 0.25819 0.29284 0.21233
 B1147 B 0.25594 0.24087 0.27400
 B1148 B 0.25169 0.21823 0.22788
 B1149 B 0.27988 0.25550 0.23277
 B1150 B 0.26037 0.28743 0.26592
 B1151 B 0.21807 0.26837 0.28119
 B1152 B 0.21325 0.22464 0.25783
 B1153 B 0.77049 0.76406 0.31358
 B1154 B 0.76755 0.78889 0.27006
 B1155 B 0.79405 0.75054 0.27122
 B1156 B 0.77312 0.71812 0.30109
 B1157 B 0.73167 0.73787 0.31867
 B1158 B 0.72878 0.78290 0.29949
 B1159 B 0.72826 0.73416 0.23287
 B1160 B 0.73197 0.70899 0.27625
 B1161 B 0.70526 0.74767 0.27584
 B1162 B 0.72624 0.78014 0.24554
 B1163 B 0.76772 0.76013 0.22764
 B1164 B 0.77078 0.71520 0.24692
 B1165 B 0.74517 0.21393 0.76461
 B1166 B 0.75835 0.19710 0.71746
 B1167 B 0.72216 0.22696 0.72113
 B1168 B 0.73120 0.25925 0.75986
 B1169 B 0.77523 0.24857 0.77999
 B1170 B 0.79152 0.20894 0.75380
 B1171 B 0.78306 0.26526 0.69732
 B1172 B 0.76987 0.28211 0.74377
 B1173 B 0.80592 0.25186 0.74046
 B1174 B 0.79697 0.22023 0.70183
 B1175 B 0.75320 0.23113 0.68138
 B1176 B 0.73650 0.27018 0.70776
 N1177 N 0.44575 1.04720 0.40160
 N1178 N 0.48172 1.04914 0.40241
 N1179 N -0.03679 0.55168 0.88334
 N1180 N -0.01739 0.56503 0.91194
 N1181 N 0.06932 -0.00094 0.93213
 N1182 N 0.05378 -0.02776 0.95174
 N1183 N 0.54044 0.50189 0.41641
 N1184 N 0.54717 0.49101 0.45359
 N1185 N 0.55365 0.51240 0.11797
 N1186 N 0.55437 0.53565 0.08797
 N1187 N 0.05418 1.00735 0.62377
 N1188 N 0.05763 1.02813 0.59170
 N1189 N -0.04155 0.47185 0.58378
 N1190 N -0.05393 0.46142 0.54761
 N1191 N 0.44361 -0.03257 0.10127
 N1192 N 0.43133 -0.03444 0.06356
 N1193 N 0.41436 0.45669 0.02774
 N1194 N 0.42601 0.48886 0.01681
 N1195 N -0.08469 0.96316 0.53740
 N1196 N -0.07304 0.99228 0.51900
 N1197 N -0.11557 0.01834 0.94841
 N1198 N -0.08566 0.00631 0.93523
 N1199 N 0.39502 0.54834 0.47321
 N1200 N 0.40899 0.52721 0.50134
 N1201 N 0.08167 0.53977 0.50603
 N1202 N 0.06848 0.51714 0.47822
 N1203 N 0.58561 0.01404 -0.01603
 N1204 N 0.55935 0.02313 0.00924
 N1205 N 0.61826 0.96547 0.45789
 N1206 N 0.60709 0.99663 0.47323
 N1207 N 0.11637 0.46480 0.93684
 N1208 N 0.10380 0.49021 0.96136
 N1209 N -0.00565 0.38858 0.45299
 N1210 N -0.03324 0.41149 0.45690
 N1211 N 0.49254 -0.11011 -0.02029
 N1212 N 0.46380 -0.08849 -0.01898
 N1213 N -0.02167 -0.10456 1.02667
 N1214 N 0.00393 -0.07929 1.02486
 N1215 N 0.51980 0.42491 0.57008
 N1216 N 0.52319 0.43943 0.53400
 N1217 N 0.53131 1.12805 0.49502
 N1218 N 0.50552 1.10369 0.48758
 N1219 N 0.00114 0.59666 1.04455
 N1220 N 0.00339 0.58968 1.00525
 N1221 N 0.54352 0.60304 -0.03049
 N1222 N 0.52961 0.59185 0.00397
 N1223 N 0.03343 1.10815 0.48806
 N1224 N 0.04264 1.08642 0.51594
 N1225 N 0.76464 0.69464 0.87159
 N1226 N 0.78978 0.69918 0.84378
 N1227 N 0.27405 0.18759 0.31605
 N1228 N 0.27330 0.22319 0.31286
 N1229 N 0.72361 0.28147 0.35142
 N1230 N 0.70275 0.28085 0.31851
 N1231 N 0.21839 0.78141 0.86422
 N1232 N 0.20978 0.78830 0.82606
 N1233 N 0.26477 0.83912 0.18080
 N1234 N 0.27749 0.83345 0.21606
 N1235 N 0.78154 0.30688 0.64318
 N1236 N 0.80304 0.29033 0.66683
 N1237 N 0.22209 0.19283 0.62994
 N1238 N 0.22886 0.18351 0.66781
 N1239 N 0.72175 0.70190 0.17011
 N1240 N 0.70456 0.72044 0.19605
 N1241 N 0.22690 0.66559 0.25212
 N1242 N 0.22282 0.69459 0.22948
 N1243 N 0.73779 0.13442 0.72254
 N1244 N 0.75479 0.15702 0.70127
 N1245 N 0.78493 0.14629 0.27529
 N1246 N 0.75959 0.15704 0.24945
 N1247 N 0.24813 0.63251 0.76329
 N1248 N 0.26869 0.66022 0.77496
 N1249 N 0.28378 0.34542 0.71318
 N1250 N 0.27370 0.31950 0.69037
 N1251 N 0.77079 0.85730 0.26579
 N1252 N 0.78777 0.82593 0.26735
 N1253 N 0.73680 0.85534 0.78251
 N1254 N 0.76020 0.83327 0.79615
 N1255 N 0.22123 0.36821 0.24341
 N1256 N 0.20205 0.33815 0.24735
 N1257 N 0.16607 0.22237 0.78580
 N1258 N 0.17534 0.22410 0.74722
 N1259 N 0.64684 0.73043 0.31026
 N1260 N 0.66215 0.74710 0.27955
 N1261 N 0.63240 0.23211 0.21269
 N1262 N 0.65256 0.25794 0.22999
 N1263 N 0.14993 0.74914 0.70075
 N1264 N 0.16134 0.75702 0.73820
 N1265 N 0.86524 0.72675 0.73573
 N1266 N 0.84519 0.71746 0.76506
 N1267 N 0.34017 0.27540 0.20679
 N1268 N 0.32242 0.25089 0.22770
 N1269 N 0.34680 0.77486 0.28523
 N1270 N 0.31863 0.79502 0.29602
 N1271 N 0.87233 0.23916 0.75153
 N1272 N 0.84610 0.26365 0.75186
 N1273 N 0.55998 1.00508 0.59293
 N1274 N 0.56539 0.98764 0.55832
 N1275 N 0.07326 0.46860 1.06470
 N1276 N 0.05742 0.45391 1.03427
 N1277 N -0.09470 0.02784 1.07284
 N1278 N -0.08982 0.03549 1.03600
 N1279 N 0.44464 0.52897 0.62628
 N1280 N 0.43984 0.54681 0.59225
 N1281 N 0.45651 0.50214 -0.09397
 N1282 N 0.46587 0.47714 -0.06772
 N1283 N -0.02324 0.99098 0.39609
 N1284 N -0.03312 0.98046 0.43248
 N1285 N 0.02214 0.51660 0.35975
 N1286 N 0.02332 0.53368 0.39527
 N1287 N 0.52684 0.00704 -0.11343
 N1288 N 0.52362 0.02917 -0.08187
 N1289 N 0.61920 0.51993 0.02713
 N1290 N 0.59501 0.52670 -0.00179
 N1291 N 0.11192 1.02533 0.46739
 N1292 N 0.09787 1.01698 0.50265
 N1293 N 0.07876 -0.02125 1.04303
 N1294 N 0.05130 -0.00458 1.05678
 N1295 N 0.59932 0.49461 0.53254
 N1296 N 0.57803 0.51668 0.54995
 N1297 N -0.11301 0.44886 0.48441
 N1298 N -0.10056 0.47480 0.46118
 N1299 N 0.36932 -0.02239 -0.00100
 N1300 N 0.39530 -0.02975 -0.02730
 N1301 N 0.41270 1.02313 0.48950
 N1302 N 0.44164 1.04424 0.49273
 N1303 N -0.07440 0.54193 1.02243
 N1304 N -0.06358 0.52835 0.98740
 N1305 N 0.00191 0.59269 0.52378
 N1306 N 0.00007 0.58212 0.48517
 N1307 N 0.46652 0.10240 0.01877
 N1308 N 0.49173 0.08299 0.00001
 N1309 N -0.01366 0.10785 0.97387
 N1310 N -0.03820 0.08182 0.96811
 N1311 N 0.46273 0.61226 0.47050
 N1312 N 0.46649 0.60234 0.50871
 N1313 N 0.51211 0.91022 0.47935
 N1314 N 0.53918 0.93340 0.47436
 N1315 N 0.01203 0.40189 0.94627
 N1316 N 0.03582 0.42812 0.93969
 N1317 N 0.51514 0.39999 0.02648
 N1318 N 0.48998 0.42243 0.01260
 N1319 N 0.00820 0.89504 0.51827
 N1320 N -0.01547 0.92190 0.51423
 N1321 N 0.21151 0.32711 0.14683
 N1322 N 0.19964 0.29439 0.15578
 N1323 N 0.75091 0.82927 0.69027
 N1324 N 0.73476 0.79829 0.69800
 N1325 N 0.26939 0.66617 0.67127
 N1326 N 0.28390 0.69774 0.68183
 N1327 N 0.76413 0.16713 0.15672
 N1328 N 0.77120 0.20182 0.16341
 N1329 N 0.74589 0.19168 0.83420
 N1330 N 0.72905 0.18903 0.79861
 N1331 N 0.20400 0.72035 0.36504
 N1332 N 0.20216 0.71355 0.32557
 N1333 N 0.77851 0.77314 0.38846
 N1334 N 0.78946 0.78162 0.35186
 N1335 N 0.29414 0.29013 0.83307
 N1336 N 0.29160 0.30131 0.79520
 N1337 N 0.80973 0.33664 0.75675
 N1338 N 0.77618 0.32380 0.75358
 N1339 N 0.26502 0.87450 0.29925
 N1340 N 0.24482 0.85028 0.31365
 N1341 N 0.23671 0.84889 0.76126
 N1342 N 0.22461 0.82286 0.73686
 N1343 N 0.72668 0.34718 0.26164
 N1344 N 0.71631 0.32351 0.23335
 N1345 N 0.71951 0.64898 0.30827
 N1346 N 0.71581 0.66990 0.27646
 N1347 N 0.25387 0.13563 0.74690
 N1348 N 0.24294 0.16521 0.76599
 N1349 N 0.25371 0.14945 0.23119
 N1350 N 0.26993 0.18008 0.22175
 N1351 N 0.79465 0.64921 0.72670
 N1352 N 0.77281 0.66358 0.75417
 N1353 N 0.85469 0.75507 0.24238
 N1354 N 0.83669 0.75333 0.27482
 N1355 N 0.35460 0.26644 0.67859
 N1356 N 0.34363 0.26222 0.71621
 N1357 N 0.34622 0.72478 0.80681
 N1358 N 0.33317 0.72686 0.76927
 N1359 N 0.83446 0.22006 0.29189
 N1360 N 0.82341 0.22322 0.25373
 N1361 N 0.13054 0.23689 0.25669
 N1362 N 0.14851 0.26553 0.24368
 N1363 N 0.65371 0.75476 0.77669
 N1364 N 0.68108 0.77795 0.78208
 N1365 N 0.65480 0.23714 0.72043
 N1366 N 0.68188 0.21561 0.70971
 N1367 N 0.12934 0.77469 0.23689
 N1368 N 0.15578 0.75061 0.24092
   
