data_POSCAR
  _audit_creation_date              2014-09-24
  _audit_creation_method            'ToBaCCo'
  _symmetry_space_group_name_H-M    'P1'
  _symmetry_Int_Tables_number       1
  _symmetry_cell_setting            triclinic
  loop_
  _symmetry_equiv_pos_as_xyz
 x,y,z
_cell_length_a 56.4362
_cell_length_b 56.1771
_cell_length_c 61.1598
_cell_angle_alpha 89.853800
_cell_angle_beta 89.807700
_cell_angle_gamma 90.456800
loop_
  _atom_site_label
  _atom_site_type_symbol
  _atom_site_fract_x
  _atom_site_fract_y
  _atom_site_fract_z
N1 N 0.36596 0.30565 0.32837
 N2 N 0.36781 0.32499 0.31638
 C3 C 0.38806 0.32406 0.30471
 C4 C 0.39954 0.30292 0.30961
 C5 C 0.38451 0.29148 0.32429
 H6 H 0.39391 0.33764 0.29331
 H7 H 0.38660 0.27391 0.33122
 Cu8 Cu 0.34288 0.34879 0.31615
 Cu9 Cu 0.34086 0.30125 0.34978
 Cu10 Cu 0.29430 0.34070 0.34803
 N11 N 0.31444 0.36781 0.31258
 N12 N 0.29623 0.36555 0.32587
 C13 C 0.27997 0.38201 0.32077
 C14 C 0.28788 0.39477 0.30269
 C15 C 0.31004 0.38539 0.29817
 H16 H 0.26382 0.38480 0.32992
 H17 H 0.32218 0.39112 0.28545
 N18 N 0.29579 0.31420 0.36916
 N19 N 0.31402 0.29973 0.37025
 C20 C 0.31075 0.28457 0.38706
 C21 C 0.28891 0.28896 0.39654
 C22 C 0.28010 0.30815 0.38491
 H23 H 0.32369 0.27177 0.39243
 H24 H 0.26358 0.31720 0.38793
 H25 H 0.31602 0.31847 0.33044
 H26 H 0.33019 0.33643 0.35270
 N27 N 0.36622 0.80316 -0.16827
 N28 N 0.36862 0.82250 -0.18012
 C29 C 0.38885 0.82122 -0.19171
 C30 C 0.40004 0.79984 -0.18680
 C31 C 0.38459 0.78868 -0.17218
 H32 H 0.39492 0.83501 -0.20279
 H33 H 0.38573 0.77085 -0.16565
 Cu34 Cu 0.34433 0.84676 -0.18045
 Cu35 Cu 0.34026 0.79884 -0.14770
 Cu36 Cu 0.29553 0.84072 -0.14922
 N37 N 0.31563 0.86439 -0.18657
 N38 N 0.29673 0.86244 -0.17412
 C39 C 0.28045 0.87818 -0.18088
 C40 C 0.28930 0.89041 -0.19905
 C41 C 0.31189 0.88109 -0.20192
 H42 H 0.26422 0.88158 -0.17205
 H43 H 0.32488 0.88616 -0.21412
 N44 N 0.29502 0.81308 -0.12918
 N45 N 0.31263 0.79784 -0.12807
 C46 C 0.30853 0.78259 -0.11151
 C47 C 0.28671 0.78759 -0.10226
 C48 C 0.27881 0.80730 -0.11378
 H49 H 0.32109 0.76950 -0.10595
 H50 H 0.26271 0.81709 -0.11079
 H51 H 0.31606 0.81763 -0.16649
 H52 H 0.33126 0.83396 -0.14393
 N53 N 0.86415 0.30393 -0.16975
 N54 N 0.86677 0.32295 -0.18204
 C55 C 0.88677 0.32086 -0.19393
 C56 C 0.89728 0.29931 -0.18876
 C57 C 0.88200 0.28885 -0.17373
 H58 H 0.89305 0.33388 -0.20569
 H59 H 0.88340 0.27131 -0.16657
 Cu60 Cu 0.84297 0.34778 -0.18235
 Cu61 Cu 0.83840 0.30056 -0.14891
 Cu62 Cu 0.79165 0.33935 -0.15424
 N63 N 0.81499 0.36671 -0.18800
 N64 N 0.79522 0.36377 -0.17691
 C65 C 0.77943 0.38007 -0.18360
 C66 C 0.78955 0.39371 -0.20033
 C67 C 0.81234 0.38469 -0.20232
 H68 H 0.76246 0.38267 -0.17579
 H69 H 0.82604 0.39054 -0.21354
 N70 N 0.79209 0.31340 -0.13226
 N71 N 0.81081 0.29986 -0.12944
 C72 C 0.80720 0.28561 -0.11209
 C73 C 0.78456 0.28922 -0.10406
 C74 C 0.77564 0.30737 -0.11710
 H75 H 0.82052 0.27401 -0.10538
 H76 H 0.75862 0.31586 -0.11539
 H77 H 0.81495 0.31763 -0.17015
 H78 H 0.82682 0.33593 -0.14696
 N79 N 0.86053 0.79702 0.32575
 N80 N 0.86681 0.81718 0.31637
 C81 C 0.88735 0.81420 0.30563
 C82 C 0.89443 0.79083 0.30825
 C83 C 0.87666 0.78029 0.32080
 H84 H 0.89627 0.82790 0.29619
 H85 H 0.87519 0.76179 0.32558
 Cu86 Cu 0.84659 0.84482 0.31707
 Cu87 Cu 0.83190 0.79444 0.34367
 Cu88 Cu 0.80463 0.84814 0.35535
 N89 N 0.82086 0.86738 0.31455
 N90 N 0.80440 0.86883 0.32968
 C91 C 0.78901 0.88595 0.32411
 C92 C 0.79585 0.89551 0.30401
 C93 C 0.81653 0.88346 0.29878
 H94 H 0.77459 0.89163 0.33450
 H95 H 0.82738 0.88577 0.28430
 N96 N 0.79963 0.81929 0.37294
 N97 N 0.80906 0.79855 0.36800
 C98 C 0.80187 0.78232 0.38293
 C99 C 0.78696 0.79336 0.39776
 C100 C 0.78631 0.81689 0.39108
 H101 H 0.80743 0.76394 0.38328
 H102 H 0.77715 0.83132 0.39905
 H103 H 0.81269 0.82355 0.33281
 H104 H 0.83672 0.82887 0.35315
 N105 N 0.63598 0.70793 0.31512
 N106 N 0.63364 0.68957 0.30207
 C107 C 0.61318 0.69129 0.29110
 C108 C 0.60198 0.71205 0.29740
 C109 C 0.61739 0.72250 0.31231
 H110 H 0.60697 0.67835 0.27933
 H111 H 0.61545 0.73942 0.32048
 Cu112 Cu 0.65806 0.66575 0.29968
 Cu113 Cu 0.66199 0.70957 0.33607
 Cu114 Cu 0.68312 0.65275 0.34751
 N115 N 0.67673 0.63746 0.30325
 N116 N 0.68538 0.63147 0.32237
 C117 C 0.69507 0.60971 0.32079
 C118 C 0.69233 0.60173 0.29946
 C119 C 0.68119 0.62022 0.28871
 H120 H 0.70339 0.60039 0.33418
 H121 H 0.67656 0.62115 0.27159
 N122 N 0.68687 0.68006 0.36758
 N123 N 0.67949 0.70174 0.36286
 C124 C 0.68442 0.71628 0.37971
 C125 C 0.69523 0.70307 0.39587
 C126 C 0.69688 0.68031 0.38754
 H127 H 0.67998 0.73497 0.38037
 H128 H 0.70445 0.66501 0.39561
 H129 H 0.68518 0.68157 0.32726
 H130 H 0.65523 0.67447 0.33855
 N131 N 0.63450 0.20576 -0.18528
 N132 N 0.63641 0.19034 -0.20129
 C133 C 0.62027 0.19550 -0.21674
 C134 C 0.60767 0.21529 -0.21008
 C135 C 0.61702 0.22109 -0.18989
 H136 H 0.61721 0.18517 -0.23136
 H137 H 0.61063 0.23458 -0.17881
 Cu138 Cu 0.65837 0.16386 -0.19934
 Cu139 Cu 0.65277 0.20334 -0.15851
 Cu140 Cu 0.68990 0.15476 -0.15351
 N141 N 0.68048 0.13758 -0.19688
 N142 N 0.69296 0.13431 -0.17904
 C143 C 0.70730 0.11553 -0.18188
 C144 C 0.70381 0.10650 -0.20275
 C145 C 0.68622 0.12074 -0.21155
 H146 H 0.71861 0.10837 -0.16929
 H147 H 0.67870 0.11934 -0.22773
 N148 N 0.68463 0.17787 -0.12980
 N149 N 0.67230 0.19748 -0.13255
 C150 C 0.67427 0.21102 -0.11453
 C151 C 0.68764 0.19896 -0.09919
 C152 C 0.69414 0.17811 -0.10964
 H153 H 0.66703 0.22868 -0.11299
 H154 H 0.70543 0.16434 -0.10319
 H155 H 0.68109 0.18454 -0.17131
 H156 H 0.65597 0.16666 -0.15967
 N157 N 0.13862 0.70663 -0.18803
 N158 N 0.14002 0.69039 -0.20339
 C159 C 0.12077 0.69170 -0.21621
 C160 C 0.10613 0.70927 -0.20807
 C161 C 0.11831 0.71876 -0.19046
 H162 H 0.11749 0.68036 -0.23017
 H163 H 0.11243 0.73284 -0.17974
 Cu164 Cu 0.16583 0.66772 -0.20421
 Cu165 Cu 0.16270 0.70917 -0.16528
 Cu166 Cu 0.18641 0.65374 -0.15447
 N167 N 0.18661 0.64082 -0.19987
 N168 N 0.19472 0.63530 -0.18038
 C169 C 0.20743 0.61518 -0.18184
 C170 C 0.20744 0.60790 -0.20346
 C171 C 0.19383 0.62443 -0.21438
 H172 H 0.21537 0.60608 -0.16812
 H173 H 0.18903 0.62415 -0.23149
 N174 N 0.18511 0.67967 -0.13267
 N175 N 0.17815 0.70139 -0.13757
 C176 C 0.18160 0.71565 -0.12023
 C177 C 0.19025 0.70207 -0.10309
 C178 C 0.19257 0.67939 -0.11179
 H179 H 0.17829 0.73457 -0.12033
 H180 H 0.19958 0.66388 -0.10364
 H181 H 0.18852 0.68328 -0.17331
 H182 H 0.15803 0.67355 -0.16532
 N183 N 0.14111 0.21136 0.30870
 N184 N 0.14341 0.19563 0.29297
 C185 C 0.12439 0.19661 0.27985
 C186 C 0.10895 0.21335 0.28821
 C187 C 0.12041 0.22277 0.30623
 H188 H 0.12164 0.18536 0.26574
 H189 H 0.11366 0.23607 0.31734
 Cu190 Cu 0.16938 0.17311 0.29279
 Cu191 Cu 0.16399 0.21328 0.33251
 Cu192 Cu 0.18327 0.15633 0.34382
 N193 N 0.18850 0.14526 0.29820
 N194 N 0.19280 0.13796 0.31822
 C195 C 0.20402 0.11693 0.31733
 C196 C 0.20773 0.11115 0.29554
 C197 C 0.19732 0.12948 0.28389
 H198 H 0.20855 0.10641 0.33152
 H199 H 0.19569 0.13091 0.26632
 N200 N 0.18259 0.18223 0.36580
 N201 N 0.17729 0.20440 0.36078
 C202 C 0.18147 0.21847 0.37808
 C203 C 0.18897 0.20439 0.39532
 C204 C 0.18975 0.18153 0.38676
 H205 H 0.17972 0.23762 0.37781
 H206 H 0.19585 0.16565 0.39497
 H207 H 0.18930 0.18606 0.32599
 H208 H 0.15767 0.17787 0.33108
 N209 N 0.64712 0.29098 0.67963
 N210 N 0.64762 0.30734 0.69496
 C211 C 0.62713 0.30676 0.70617
 C212 C 0.61266 0.28950 0.69707
 C213 C 0.62610 0.27942 0.68055
 H214 H 0.62285 0.31847 0.71961
 H215 H 0.62067 0.26539 0.66952
 Cu216 Cu 0.67394 0.32945 0.69792
 Cu217 Cu 0.67352 0.28776 0.65900
 Cu218 Cu 0.69973 0.34296 0.65010
 N219 N 0.69536 0.35636 0.69515
 N220 N 0.70546 0.36174 0.67636
 C221 C 0.71810 0.38199 0.67864
 C222 C 0.71592 0.38948 0.70009
 C223 C 0.70115 0.37296 0.71004
 H224 H 0.72746 0.39103 0.66554
 H225 H 0.69453 0.37342 0.72665
 N226 N 0.70128 0.31651 0.62893
 N227 N 0.69323 0.29487 0.63318
 C228 C 0.69989 0.28018 0.61697
 C229 C 0.71287 0.29319 0.60170
 C230 C 0.71272 0.31630 0.60961
 H231 H 0.69563 0.26139 0.61639
 H232 H 0.72045 0.33192 0.60198
 H233 H 0.69918 0.31325 0.66920
 H234 H 0.66995 0.32323 0.65856
 N235 N 0.63874 0.79704 1.18037
 N236 N 0.64378 0.80890 1.19825
 C237 C 0.62522 0.80752 1.21207
 C238 C 0.60715 0.79481 1.20198
 C239 C 0.61665 0.78808 1.18200
 H240 H 0.62506 0.81512 1.22830
 H241 H 0.60813 0.77746 1.16952
 Cu242 Cu 0.67319 0.82681 1.20097
 Cu243 Cu 0.66194 0.79315 1.15711
 Cu244 Cu 0.70225 0.83968 1.15396
 N245 N 0.69531 0.85329 1.19883
 N246 N 0.70591 0.85880 1.18030
 C247 C 0.71881 0.87879 1.18311
 C248 C 0.71628 0.88609 1.20458
 C249 C 0.70101 0.86964 1.21402
 H250 H 0.72875 0.88778 1.17034
 H251 H 0.69402 0.86996 1.23051
 N252 N 0.69617 0.81758 1.12950
 N253 N 0.68188 0.79899 1.13129
 C254 C 0.68354 0.78573 1.11307
 C255 C 0.69918 0.79682 1.09873
 C256 C 0.70700 0.81686 1.10986
 H257 H 0.67470 0.76877 1.11082
 H258 H 0.72028 0.82950 1.10434
 H259 H 0.69316 0.80866 1.16945
 H260 H 0.66828 0.82861 1.16157
 N261 N 0.14723 0.28861 1.17976
 N262 N 0.14958 0.30196 1.19725
 C263 C 0.12973 0.30044 1.20938
 C264 C 0.11378 0.28579 1.19870
 C265 C 0.12566 0.27810 1.18017
 H266 H 0.12681 0.31001 1.22447
 H267 H 0.11881 0.26649 1.16756
 Cu268 Cu 0.17683 0.32259 1.20145
 Cu269 Cu 0.17238 0.28707 1.15774
 Cu270 Cu 0.20847 0.33738 1.15687
 N271 N 0.19616 0.35116 1.20057
 N272 N 0.20776 0.35742 1.18276
 C273 C 0.21742 0.37915 1.18569
 C274 C 0.21112 0.38701 1.20626
 C275 C 0.19791 0.36870 1.21541
 H276 H 0.22735 0.38899 1.17345
 H277 H 0.18919 0.36868 1.23119
 N278 N 0.20697 0.31444 1.13263
 N279 N 0.19415 0.29469 1.13332
 C280 C 0.19868 0.28181 1.11525
 C281 C 0.21538 0.29394 1.10276
 C282 C 0.21974 0.31479 1.11403
 H283 H 0.19074 0.26470 1.11160
 H284 H 0.23165 0.32902 1.10914
 H285 H 0.20082 0.30542 1.17196
 H286 H 0.17505 0.32282 1.16186
 N287 N 0.14431 0.78946 0.68122
 N288 N 0.14603 0.80415 0.69785
 C289 C 0.12625 0.80266 0.71004
 C290 C 0.11091 0.78665 0.70028
 C291 C 0.12316 0.77814 0.68225
 H292 H 0.12299 0.81305 0.72460
 H293 H 0.11683 0.76535 0.67038
 Cu294 Cu 0.17257 0.82592 0.70113
 Cu295 Cu 0.16968 0.78755 0.65940
 Cu296 Cu 0.19897 0.84173 0.65406
 N297 N 0.19231 0.85415 0.69910
 N298 N 0.20238 0.86053 0.68056
 C299 C 0.21305 0.88184 0.68314
 C300 C 0.20911 0.88925 0.70435
 C301 C 0.19612 0.87117 0.71413
 H302 H 0.22209 0.89166 0.67033
 H303 H 0.18909 0.87093 0.73061
 N304 N 0.20048 0.81642 0.63183
 N305 N 0.19013 0.79540 0.63416
 C306 C 0.19627 0.78148 0.61719
 C307 C 0.21152 0.79430 0.60372
 C308 C 0.21336 0.81650 0.61330
 H309 H 0.19044 0.76326 0.61498
 H310 H 0.22368 0.83149 0.60738
 H311 H 0.19671 0.81042 0.67130
 H312 H 0.16805 0.82305 0.66164
 N313 N 0.36332 0.70796 0.68649
 N314 N 0.35931 0.69440 0.70365
 C315 C 0.37511 0.70005 0.71934
 C316 C 0.38987 0.71812 0.71158
 C317 C 0.38205 0.72221 0.69045
 H318 H 0.37632 0.69119 0.73500
 H319 H 0.38999 0.73396 0.67843
 Cu320 Cu 0.33575 0.66879 0.70248
 Cu321 Cu 0.34411 0.70635 0.66018
 Cu322 Cu 0.30219 0.66123 0.65749
 N323 N 0.31202 0.64342 0.70062
 N324 N 0.29942 0.64042 0.68278
 C325 C 0.28533 0.62119 0.68520
 C326 C 0.28897 0.61173 0.70577
 C327 C 0.30630 0.62605 0.71502
 H328 H 0.27371 0.61419 0.67271
 H329 H 0.31436 0.62368 0.73089
 N330 N 0.30749 0.68420 0.63363
 N331 N 0.32292 0.70189 0.63499
 C332 C 0.32149 0.71527 0.61678
 C333 C 0.30489 0.70514 0.60296
 C334 C 0.29613 0.68566 0.61434
 H335 H 0.33148 0.73149 0.61391
 H336 H 0.28233 0.67359 0.60896
 H337 H 0.31449 0.69064 0.67433
 H338 H 0.33724 0.67025 0.66262
 N339 N 0.36311 0.20929 1.18411
 N340 N 0.35886 0.19703 1.20203
 C341 C 0.37503 0.20310 1.21724
 C342 C 0.39030 0.22013 1.20836
 C343 C 0.38243 0.22301 1.18707
 H344 H 0.37585 0.19543 1.23345
 H345 H 0.39040 0.23392 1.17441
 Cu346 Cu 0.33375 0.17305 1.20284
 Cu347 Cu 0.34230 0.20820 1.15887
 Cu348 Cu 0.29376 0.17013 1.16236
 N349 N 0.31333 0.14519 1.19893
 N350 N 0.29660 0.14512 1.18407
 C351 C 0.28371 0.12502 1.18592
 C352 C 0.29356 0.11093 1.20210
 C353 C 0.31214 0.12462 1.21028
 H354 H 0.26818 0.12116 1.17621
 H355 H 0.32384 0.12003 1.22359
 N356 N 0.30049 0.19005 1.13657
 N357 N 0.31880 0.20472 1.13538
 C358 C 0.31867 0.21564 1.11580
 C359 C 0.30006 0.20660 1.10360
 C360 C 0.28864 0.19071 1.11749
 H361 H 0.33113 0.22934 1.11084
 H362 H 0.27312 0.18005 1.11384
 H363 H 0.31307 0.19842 1.17624
 H364 H 0.32995 0.17363 1.16339
 N365 N 0.86829 0.69571 1.17784
 N366 N 0.86301 0.68635 1.19695
 C367 C 0.87863 0.69411 1.21191
 C368 C 0.89485 0.70911 1.20169
 C369 C 0.88798 0.70924 1.17986
 H370 H 0.87843 0.68892 1.22895
 H371 H 0.89675 0.71818 1.16637
 Cu372 Cu 0.83758 0.66318 1.19991
 Cu373 Cu 0.84796 0.69010 1.15242
 Cu374 Cu 0.79101 0.67152 1.16742
 N375 N 0.81033 0.64212 1.20112
 N376 N 0.79130 0.64598 1.18937
 C377 C 0.77476 0.62938 1.19453
 C378 C 0.78410 0.61428 1.21031
 C379 C 0.80696 0.62267 1.21352
 H380 H 0.75746 0.62813 1.18705
 H381 H 0.82046 0.61490 1.22374
 N382 N 0.79810 0.68882 1.13993
 N383 N 0.81993 0.69402 1.13357
 C384 C 0.81921 0.70441 1.11376
 C385 C 0.79574 0.70677 1.10758
 C386 C 0.78288 0.69621 1.12443
 H387 H 0.83472 0.71004 1.10464
 H388 H 0.76384 0.69411 1.12535
 H389 H 0.82124 0.69204 1.17445
 H390 H 0.82499 0.66216 1.16175
 N391 N 0.86153 0.20169 0.68441
 N392 N 0.85402 0.19530 0.70394
 C393 C 0.86945 0.20319 0.71905
 C394 C 0.88773 0.21524 0.70846
 C395 C 0.88231 0.21339 0.68640
 H396 H 0.86779 0.19992 0.73643
 H397 H 0.89289 0.21961 0.67272
 Cu398 Cu 0.82613 0.17521 0.70746
 Cu399 Cu 0.84365 0.19423 0.65796
 Cu400 Cu 0.78679 0.17286 0.66682
 N401 N 0.80339 0.14911 0.70528
 N402 N 0.78809 0.14792 0.68915
 C403 C 0.77627 0.12702 0.69035
 C404 C 0.78496 0.11428 0.70797
 C405 C 0.80171 0.12916 0.71740
 H406 H 0.76312 0.12108 0.67871
 H407 H 0.81245 0.12548 0.73162
 N408 N 0.79598 0.18963 0.63994
 N409 N 0.81814 0.19579 0.63578
 C410 C 0.81926 0.20564 0.61572
 C411 C 0.79652 0.20667 0.60718
 C412 C 0.78230 0.19591 0.62294
 H413 H 0.83548 0.21176 0.60804
 H414 H 0.76336 0.19292 0.62216
 H415 H 0.81353 0.19805 0.67577
 H416 H 0.82182 0.16702 0.66836
 N417 N 0.29445 0.36402 0.66883
 N418 N 0.31198 0.36452 0.68290
 C419 C 0.30761 0.38122 0.69810
 C420 C 0.28622 0.39201 0.69330
 C421 C 0.27864 0.38085 0.67428
 H422 H 0.31946 0.38563 0.71137
 H423 H 0.26325 0.38518 0.66461
 Cu424 Cu 0.34008 0.34519 0.67885
 Cu425 Cu 0.29405 0.34186 0.64426
 Cu426 Cu 0.33475 0.29606 0.64808
 N427 N 0.36327 0.31988 0.68001
 N428 N 0.35992 0.29990 0.66934
 C429 C 0.37770 0.28491 0.67383
 C430 C 0.39369 0.29642 0.68739
 C431 C 0.38366 0.31849 0.69127
 H432 H 0.37887 0.26695 0.66764
 H433 H 0.39070 0.33249 0.70154
 N434 N 0.30839 0.29584 0.62721
 N435 N 0.29269 0.31304 0.62576
 C436 C 0.27764 0.30791 0.60932
 C437 C 0.28431 0.28652 0.59987
 C438 C 0.30420 0.27978 0.61141
 H439 H 0.26329 0.31925 0.60416
 H440 H 0.31560 0.26494 0.60777
 H441 H 0.31064 0.31802 0.66397
 H442 H 0.32940 0.33155 0.64199
 N443 N 0.28953 0.86078 0.17618
 N444 N 0.30518 0.85855 0.19190
 C445 C 0.30365 0.87717 0.20552
 C446 C 0.28665 0.89248 0.19765
 C447 C 0.27762 0.88127 0.17921
 H448 H 0.31457 0.87969 0.21984
 H449 H 0.26394 0.88789 0.16850
 Cu450 Cu 0.32803 0.83321 0.19221
 Cu451 Cu 0.28686 0.83702 0.15276
 Cu452 Cu 0.33198 0.79522 0.15050
 N453 N 0.35587 0.81397 0.18791
 N454 N 0.35642 0.79754 0.17274
 C455 C 0.37652 0.78503 0.17476
 C456 C 0.38993 0.79490 0.19149
 C457 C 0.37598 0.81314 0.19956
 H458 H 0.38063 0.76953 0.16508
 H459 H 0.37993 0.82478 0.21315
 N460 N 0.30574 0.79608 0.12950
 N461 N 0.28802 0.81125 0.13059
 C462 C 0.27281 0.80647 0.11415
 C463 C 0.28142 0.78736 0.10221
 C464 C 0.30262 0.78180 0.11216
 H465 H 0.25679 0.81628 0.11091
 H466 H 0.31524 0.76868 0.10678
 H467 H 0.30352 0.80910 0.16794
 H468 H 0.32276 0.83089 0.15293
 N469 N 0.79399 0.36331 0.17270
 N470 N 0.81251 0.36634 0.18538
 C471 C 0.80883 0.38516 0.19845
 C472 C 0.78679 0.39454 0.19380
 C473 C 0.77809 0.38044 0.17698
 H474 H 0.82119 0.39154 0.21062
 H475 H 0.76160 0.38254 0.16826
 Cu476 Cu 0.83960 0.34531 0.18381
 Cu477 Cu 0.79116 0.33616 0.15297
 Cu478 Cu 0.84452 0.30937 0.14062
 N479 N 0.86590 0.32340 0.18091
 N480 N 0.86650 0.30794 0.16489
 C481 C 0.88513 0.29351 0.16758
 C482 C 0.89772 0.30094 0.18582
 C483 C 0.88467 0.31985 0.19398
 H484 H 0.88867 0.27838 0.15723
 H485 H 0.88841 0.33011 0.20850
 N486 N 0.81611 0.30550 0.12268
 N487 N 0.79527 0.31413 0.12815
 C488 C 0.77907 0.30647 0.11357
 C489 C 0.79034 0.29225 0.09824
 C490 C 0.81393 0.29268 0.10431
 H491 H 0.76051 0.31108 0.11395
 H492 H 0.82860 0.28445 0.09589
 H493 H 0.81881 0.31430 0.16337
 H494 H 0.82578 0.34104 0.14626
 N495 N 0.79552 0.86487 0.67162
 N496 N 0.81359 0.86597 0.68508
 C497 C 0.80947 0.88284 0.70018
 C498 C 0.78764 0.89298 0.69597
 C499 C 0.77952 0.88134 0.67743
 H500 H 0.82172 0.88780 0.71297
 H501 H 0.76359 0.88516 0.66833
 Cu502 Cu 0.84177 0.84685 0.68065
 Cu503 Cu 0.79476 0.84285 0.64705
 Cu504 Cu 0.83716 0.79869 0.64849
 N505 N 0.86494 0.82146 0.68161
 N506 N 0.86201 0.80196 0.67012
 C507 C 0.87950 0.78670 0.67478
 C508 C 0.89486 0.79751 0.68937
 C509 C 0.88477 0.81947 0.69363
 H510 H 0.88077 0.76894 0.66815
 H511 H 0.89130 0.83293 0.70475
 N512 N 0.81083 0.79871 0.62762
 N513 N 0.79402 0.81487 0.62754
 C514 C 0.77847 0.80955 0.61156
 C515 C 0.78599 0.78912 0.60092
 C516 C 0.80693 0.78327 0.61127
 H517 H 0.76310 0.82006 0.60760
 H518 H 0.81910 0.76940 0.60664
 H519 H 0.81287 0.81910 0.66575
 H520 H 0.83038 0.83422 0.64372
 N521 N 0.69498 0.63768 0.67888
 N522 N 0.68800 0.64410 0.69852
 C523 C 0.69440 0.62742 0.71311
 C524 C 0.70588 0.60952 0.70195
 C525 C 0.70611 0.61661 0.68028
 H526 H 0.69004 0.62770 0.73034
 H527 H 0.71285 0.60669 0.66650
 Cu528 Cu 0.66874 0.67204 0.70299
 Cu529 Cu 0.68681 0.65609 0.65287
 Cu530 Cu 0.66497 0.71244 0.66308
 N531 N 0.64328 0.69507 0.70242
 N532 N 0.64152 0.71089 0.68665
 C533 C 0.62126 0.72310 0.68932
 C534 C 0.60953 0.71406 0.70750
 C535 C 0.62436 0.69671 0.71571
 H536 H 0.61504 0.73681 0.67834
 H537 H 0.62131 0.68561 0.72994
 N538 N 0.67974 0.70371 0.63520
 N539 N 0.68599 0.68171 0.63061
 C540 C 0.69333 0.68089 0.60966
 C541 C 0.69171 0.70352 0.60060
 C542 C 0.68358 0.71760 0.61760
 H543 H 0.69986 0.66506 0.60173
 H544 H 0.68100 0.73665 0.61747
 H545 H 0.69057 0.68615 0.67083
 H546 H 0.65955 0.67701 0.66429
 N547 N 0.69430 0.13422 0.18022
 N548 N 0.68597 0.14016 0.19954
 C549 C 0.69118 0.12302 0.21408
 C550 C 0.70308 0.10514 0.20320
 C551 C 0.70502 0.11296 0.18179
 H552 H 0.68627 0.12329 0.23119
 H553 H 0.71319 0.10366 0.16829
 Cu554 Cu 0.66730 0.16860 0.20349
 Cu555 Cu 0.68943 0.15411 0.15446
 Cu556 Cu 0.66878 0.21087 0.16495
 N557 N 0.64268 0.19244 0.20156
 N558 N 0.64302 0.20906 0.18639
 C559 C 0.62310 0.22202 0.18803
 C560 C 0.60940 0.21263 0.20485
 C561 C 0.62268 0.19425 0.21339
 H562 H 0.61854 0.23662 0.17730
 H563 H 0.61794 0.18270 0.22692
 N564 N 0.68645 0.20288 0.13828
 N565 N 0.69234 0.18082 0.13348
 C566 C 0.70231 0.18054 0.11349
 C567 C 0.70373 0.20369 0.10562
 C568 C 0.69308 0.21732 0.12173
 H569 H 0.70796 0.16454 0.10527
 H570 H 0.69014 0.23631 0.12138
 H571 H 0.69255 0.18330 0.17384
 H572 H 0.66202 0.17573 0.16439
 N573 N 0.19154 0.63866 0.18063
 N574 N 0.18538 0.64530 0.20045
 C575 C 0.19070 0.62795 0.21474
 C576 C 0.20057 0.60938 0.20322
 C577 C 0.20105 0.61676 0.18164
 H578 H 0.18687 0.62841 0.23207
 H579 H 0.20699 0.60663 0.16766
 Cu580 Cu 0.16892 0.67483 0.20560
 Cu581 Cu 0.18453 0.65820 0.15502
 Cu582 Cu 0.16952 0.71649 0.16662
 N583 N 0.14652 0.70084 0.20595
 N584 N 0.14677 0.71738 0.19072
 C585 C 0.12816 0.73186 0.19376
 C586 C 0.11567 0.72401 0.21197
 C587 C 0.12780 0.70420 0.21921
 H588 H 0.12318 0.74598 0.18267
 H589 H 0.12270 0.69241 0.23245
 N590 N 0.18180 0.70660 0.13812
 N591 N 0.18537 0.68411 0.13304
 C592 C 0.19095 0.68279 0.11166
 C593 C 0.19086 0.70559 0.10284
 C594 C 0.18561 0.72025 0.12037
 H595 H 0.19505 0.66646 0.10319
 H596 H 0.18471 0.73946 0.12038
 H597 H 0.19179 0.68706 0.17341
 H598 H 0.15986 0.68177 0.16718
 N599 N 0.20158 0.13752 0.68205
 N600 N 0.18768 0.14012 0.69915
 C601 C 0.19332 0.12364 0.71428
 C602 C 0.21183 0.11010 0.70627
 C603 C 0.21633 0.11925 0.68563
 H604 H 0.18418 0.12108 0.72968
 H605 H 0.22865 0.11238 0.67368
 Cu606 Cu 0.16216 0.16327 0.69895
 Cu607 Cu 0.19869 0.15696 0.65586
 Cu608 Cu 0.15324 0.19798 0.65485
 N609 N 0.13684 0.18660 0.69819
 N610 N 0.13342 0.19993 0.68079
 C611 C 0.11454 0.21391 0.68417
 C612 C 0.10578 0.20933 0.70488
 C613 C 0.12013 0.19167 0.71323
 H614 H 0.10734 0.22612 0.67227
 H615 H 0.11828 0.18306 0.72898
 N616 N 0.17523 0.19345 0.63024
 N617 N 0.19290 0.17821 0.63086
 C618 C 0.20503 0.17960 0.61192
 C619 C 0.19414 0.19606 0.59854
 C620 C 0.17555 0.20477 0.61080
 H621 H 0.22078 0.16956 0.60815
 H622 H 0.16320 0.21835 0.60584
 H623 H 0.18306 0.18591 0.67074
 H624 H 0.16274 0.16281 0.65909
 N625 N 0.29020 0.64153 0.31809
 N626 N 0.30102 0.64673 0.29959
 C627 C 0.29495 0.63036 0.28449
 C628 C 0.27925 0.61431 0.29402
 C629 C 0.27696 0.62178 0.31542
 H630 H 0.30180 0.62986 0.26796
 H631 H 0.26698 0.61302 0.32829
 Cu632 Cu 0.32307 0.67353 0.29713
 Cu633 Cu 0.29419 0.66015 0.34450
 Cu634 Cu 0.33926 0.70152 0.34345
 N635 N 0.35118 0.69392 0.29842
 N636 N 0.35815 0.70326 0.31699
 C637 C 0.37864 0.71507 0.31386
 C638 C 0.38452 0.71412 0.29190
 C639 C 0.36684 0.70007 0.28263
 H640 H 0.38865 0.72353 0.32676
 H641 H 0.36557 0.69462 0.26573
 N642 N 0.31813 0.69734 0.36866
 N643 N 0.30119 0.68108 0.36940
 C644 C 0.29003 0.68244 0.38887
 C645 C 0.30062 0.70038 0.40097
 C646 C 0.31799 0.70975 0.38739
 H647 H 0.27516 0.67142 0.39383
 H648 H 0.32933 0.72489 0.39074
 H649 H 0.30665 0.69097 0.33019
 H650 H 0.32873 0.66679 0.33583
 N651 N 0.29992 0.13942 0.81787
 N652 N 0.31116 0.14452 0.79956
 C653 C 0.30820 0.12641 0.78543
 C654 C 0.29457 0.10903 0.79559
 C655 C 0.28934 0.11799 0.81600
 H656 H 0.31574 0.12573 0.76916
 H657 H 0.27923 0.10919 0.82876
 Cu658 Cu 0.32987 0.17354 0.79619
 Cu659 Cu 0.30104 0.15996 0.84332
 Cu660 Cu 0.34225 0.20542 0.84128
 N661 N 0.35593 0.19642 0.79687
 N662 N 0.36160 0.20751 0.81500
 C663 C 0.38151 0.22031 0.81168
 C664 C 0.38833 0.21795 0.79000
 C665 C 0.37176 0.20230 0.78119
 H666 H 0.39070 0.23001 0.82436
 H667 H 0.37156 0.19526 0.76475
 N668 N 0.32079 0.20047 0.86626
 N669 N 0.30524 0.18286 0.86726
 C670 C 0.29381 0.18374 0.88661
 C671 C 0.30278 0.20273 0.89840
 C672 C 0.31944 0.21324 0.88476
 H673 H 0.28011 0.17141 0.89186
 H674 H 0.32972 0.22915 0.88805
 H675 H 0.31121 0.19132 0.82805
 H676 H 0.33522 0.16969 0.83526
 N677 N 0.79632 0.63884 0.82133
 N678 N 0.80654 0.64507 0.80281
 C679 C 0.80066 0.62913 0.78729
 C680 C 0.78567 0.61224 0.79652
 C681 C 0.78358 0.61881 0.81822
 H682 H 0.80708 0.62956 0.77060
 H683 H 0.77399 0.60932 0.83091
 Cu684 Cu 0.82734 0.67283 0.80079
 Cu685 Cu 0.80035 0.65694 0.84814
 Cu686 Cu 0.84357 0.70057 0.84728
 N687 N 0.85463 0.69424 0.80182
 N688 N 0.86161 0.70386 0.82028
 C689 C 0.88171 0.71630 0.81675
 C690 C 0.88731 0.71522 0.79469
 C691 C 0.86984 0.70069 0.78580
 H692 H 0.89180 0.72501 0.82947
 H693 H 0.86852 0.69491 0.76899
 N694 N 0.82324 0.69453 0.87292
 N695 N 0.80710 0.67744 0.87347
 C696 C 0.79581 0.67806 0.89290
 C697 C 0.80533 0.69641 0.90523
 C698 C 0.82240 0.70670 0.89183
 H699 H 0.78124 0.66648 0.89754
 H700 H 0.83275 0.72254 0.89524
 H701 H 0.81136 0.68903 0.83461
 H702 H 0.83464 0.66585 0.83927
 N703 N 0.79903 0.13932 0.31692
 N704 N 0.80885 0.14628 0.29842
 C705 C 0.80496 0.12956 0.28308
 C706 C 0.79243 0.11096 0.29264
 C707 C 0.78862 0.11794 0.31399
 H708 H 0.81143 0.13052 0.26643
 H709 H 0.77974 0.10775 0.32666
 Cu710 Cu 0.82801 0.17515 0.29648
 Cu711 Cu 0.80171 0.15765 0.34374
 Cu712 Cu 0.84408 0.20204 0.34332
 N713 N 0.85514 0.19667 0.29775
 N714 N 0.86230 0.20569 0.31641
 C715 C 0.88270 0.21771 0.31314
 C716 C 0.88833 0.21702 0.29105
 C717 C 0.87050 0.20315 0.28186
 H718 H 0.89301 0.22574 0.32607
 H719 H 0.86911 0.19765 0.26498
 N720 N 0.82354 0.19562 0.36876
 N721 N 0.80748 0.17844 0.36905
 C722 C 0.79617 0.17862 0.38847
 C723 C 0.80566 0.19673 0.40110
 C724 C 0.82266 0.20740 0.38787
 H725 H 0.78184 0.16671 0.39304
 H726 H 0.83312 0.22306 0.39166
 H727 H 0.81186 0.19021 0.33058
 H728 H 0.83561 0.16731 0.33467
 N729 N 0.71233 0.35426 0.31713
 N730 N 0.69921 0.34976 0.29989
 C731 C 0.70188 0.36754 0.28528
 C732 C 0.71786 0.38386 0.29368
 C733 C 0.72396 0.37501 0.31401
 H734 H 0.69263 0.36873 0.26986
 H735 H 0.73552 0.38338 0.32583
 Cu736 Cu 0.67912 0.32170 0.29848
 Cu737 Cu 0.71302 0.33295 0.34231
 Cu738 Cu 0.67183 0.28691 0.34294
 N739 N 0.65248 0.29995 0.30121
 N740 N 0.64936 0.28661 0.31868
 C741 C 0.62861 0.27475 0.31686
 C742 C 0.61840 0.28076 0.29702
 C743 C 0.63398 0.29698 0.28766
 H744 H 0.62103 0.26342 0.32942
 H745 H 0.63163 0.30651 0.27244
 N746 N 0.69611 0.29106 0.36588
 N747 N 0.71103 0.30927 0.36608
 C748 C 0.72472 0.30777 0.38400
 C749 C 0.71873 0.28722 0.39533
 C750 C 0.70022 0.27728 0.38352
 H751 H 0.73799 0.32080 0.38858
 H752 H 0.69052 0.26117 0.38752
 H753 H 0.70106 0.30193 0.32746
 H754 H 0.67796 0.32272 0.33808
 N755 N 0.71122 0.85729 0.82057
 N756 N 0.70007 0.85223 0.80231
 C757 C 0.70429 0.86955 0.78756
 C758 C 0.71912 0.88626 0.79701
 C759 C 0.72305 0.87803 0.81803
 H760 H 0.69637 0.87048 0.77151
 H761 H 0.73285 0.88701 0.83079
 Cu762 Cu 0.67878 0.82517 0.80025
 Cu763 Cu 0.70758 0.83767 0.84675
 Cu764 Cu 0.67474 0.78559 0.84107
 N765 N 0.65132 0.80455 0.80350
 N766 N 0.64924 0.78932 0.81976
 C767 C 0.62780 0.77862 0.81865
 C768 C 0.61573 0.78809 0.80097
 C769 C 0.63146 0.80406 0.79148
 H770 H 0.62123 0.76547 0.83016
 H771 H 0.62850 0.81492 0.77713
 N772 N 0.69593 0.79148 0.86607
 N773 N 0.70777 0.81166 0.86856
 C774 C 0.72034 0.81053 0.88719
 C775 C 0.71664 0.78842 0.89670
 C776 C 0.70073 0.77696 0.88302
 H777 H 0.73137 0.82479 0.89342
 H778 H 0.69326 0.75933 0.88524
 H779 H 0.70276 0.80717 0.82897
 H780 H 0.67528 0.82129 0.83978
 N781 N 0.20444 0.35815 0.81734
 N782 N 0.19155 0.35271 0.80018
 C783 C 0.19305 0.37050 0.78547
 C784 C 0.20754 0.38810 0.79400
 C785 C 0.21473 0.37957 0.81409
 H786 H 0.18402 0.37082 0.76990
 H787 H 0.22617 0.38855 0.82564
 Cu788 Cu 0.17309 0.32354 0.79907
 Cu789 Cu 0.20654 0.33713 0.84262
 Cu790 Cu 0.16812 0.28875 0.84380
 N791 N 0.14761 0.30051 0.80222
 N792 N 0.14542 0.28710 0.81977
 C793 C 0.12524 0.27424 0.81828
 C794 C 0.11440 0.27972 0.79861
 C795 C 0.12901 0.29662 0.78898
 H796 H 0.11841 0.26261 0.83097
 H797 H 0.12589 0.30602 0.77381
 N798 N 0.19225 0.29454 0.86655
 N799 N 0.20609 0.31359 0.86653
 C800 C 0.22000 0.31306 0.88434
 C801 C 0.21531 0.29230 0.89583
 C802 C 0.19731 0.28119 0.88424
 H803 H 0.23259 0.32683 0.88871
 H804 H 0.18863 0.26455 0.88841
 H805 H 0.19634 0.30532 0.82803
 H806 H 0.17210 0.32477 0.83865
 N807 N 0.20213 0.86267 0.32184
 N808 N 0.18983 0.85718 0.30433
 C809 C 0.19198 0.87482 0.28953
 C810 C 0.20612 0.89253 0.29838
 C811 C 0.21257 0.88407 0.31876
 H812 H 0.18373 0.87485 0.27359
 H813 H 0.22387 0.89293 0.33050
 Cu814 Cu 0.17096 0.82832 0.30291
 Cu815 Cu 0.20421 0.84119 0.34686
 Cu816 Cu 0.16930 0.79005 0.34496
 N817 N 0.14496 0.80590 0.30660
 N818 N 0.14404 0.79107 0.32323
 C819 C 0.12403 0.77791 0.32185
 C820 C 0.11191 0.78484 0.30323
 C821 C 0.12561 0.80282 0.29412
 H822 H 0.11851 0.76462 0.33368
 H823 H 0.12169 0.81298 0.27955
 N824 N 0.19141 0.79695 0.36911
 N825 N 0.20402 0.81682 0.37017
 C826 C 0.21740 0.81629 0.38835
 C827 C 0.21352 0.79484 0.39898
 C828 C 0.19658 0.78322 0.38653
 H829 H 0.22933 0.83036 0.39341
 H830 H 0.18891 0.76587 0.38979
 H831 H 0.19656 0.81015 0.33063
 H832 H 0.17083 0.82624 0.34257
 C833 C 0.25607 1.02304 0.23945
 C834 C 0.24114 1.02291 0.25805
 C835 C 0.23316 1.00119 0.26678
 C836 C 0.23999 0.97946 0.25751
 C837 C 0.25581 0.97946 0.23957
 C838 C 0.26348 1.00126 0.23069
 H839 H 0.27539 1.00126 0.21674
 H840 H 0.22143 1.00120 0.28086
 C841 C 0.25383 0.52126 0.73822
 C842 C 0.23993 0.52032 0.75746
 C843 C 0.23213 0.49829 0.76547
 C844 C 0.23767 0.47707 0.75460
 C845 C 0.25188 0.47790 0.73544
 C846 C 0.25997 0.50007 0.72762
 H847 H 0.27082 0.50086 0.71296
 H848 H 0.22151 0.49763 0.78027
 C849 C 0.76057 -0.02210 0.25973
 C850 C 0.74547 -0.02364 0.24138
 C851 C 0.73644 -0.00278 0.23212
 C852 C 0.74302 0.01962 0.24023
 C853 C 0.75969 0.02119 0.25732
 C854 C 0.76797 0.00029 0.26718
 H855 H 0.78011 0.00150 0.28084
 H856 H 0.72423 -0.00397 0.21851
 C857 C 0.75694 0.47960 0.75876
 C858 C 0.74413 0.47894 0.73889
 C859 C 0.73628 0.50022 0.72951
 C860 C 0.74129 0.52220 0.73928
 C861 C 0.75531 0.52298 0.75836
 C862 C 0.76300 0.50169 0.76792
 H863 H 0.77329 0.50230 0.78284
 H864 H 0.72593 0.49966 0.71461
 C865 C 0.24888 0.47992 0.26294
 C866 C 0.23435 0.47844 0.24410
 C867 C 0.22686 0.49941 0.23383
 C868 C 0.23295 0.52178 0.24221
 C869 C 0.24776 0.52328 0.26071
 C870 C 0.25572 0.50240 0.27079
 H871 H 0.26699 0.50367 0.28507
 H872 H 0.21588 0.49832 0.21934
 C873 C 0.75255 1.02206 0.73914
 C874 C 0.73886 1.02101 0.75849
 C875 C 0.73295 0.99886 0.76764
 C876 C 0.74040 0.97769 0.75775
 C877 C 0.75244 0.97866 0.73740
 C878 C 0.75852 1.00088 0.72843
 H879 H 0.76856 1.00172 0.71330
 H880 H 0.72317 0.99812 0.78292
 C881 C 0.74960 0.52241 0.24055
 C882 C 0.73500 0.51945 0.25918
 C883 C 0.73026 0.49660 0.26724
 C884 C 0.73892 0.47648 0.25649
 C885 C 0.75119 0.47926 0.23635
 C886 C 0.75701 0.50228 0.22896
 H887 H 0.76755 0.50454 0.21423
 H888 H 0.71971 0.49446 0.28197
 C889 C 0.25572 -0.02321 0.76196
 C890 C 0.24085 -0.02259 0.74338
 C891 C 0.23536 -0.00064 0.73375
 C892 C 0.24447 0.02068 0.74217
 C893 C 0.25961 0.02005 0.76053
 C894 C 0.26489 -0.00186 0.77032
 H895 H 0.27636 -0.00229 0.78450
 H896 H 0.22399 -0.00017 0.71950
 C897 C 0.25170 0.26181 1.01943
 C898 C 0.26785 0.24264 1.01985
 C899 C 0.27536 0.23262 1.00004
 C900 C 0.26818 0.24201 0.97988
 C901 C 0.25193 0.26109 0.97949
 C902 C 0.24357 0.27049 0.99928
 H903 H 0.23109 0.28506 0.99899
 H904 H 0.28739 0.21767 1.00031
 C905 C 0.25076 0.76176 0.52157
 C906 C 0.26787 0.74351 0.52188
 C907 C 0.27549 0.73362 0.50208
 C908 C 0.26775 0.74255 0.48192
 C909 C 0.25103 0.76124 0.48160
 C910 C 0.24233 0.77024 0.50145
 H911 H 0.22933 0.78434 0.50125
 H912 H 0.28802 0.71909 0.50238
 C913 C 0.24852 0.75081 -0.02068
 C914 C 0.22916 0.73467 -0.02078
 C915 C 0.21933 0.72688 -0.00097
 C916 C 0.22828 0.73508 0.01894
 C917 C 0.24762 0.75122 0.01916
 C918 C 0.25747 0.75908 -0.00069
 H919 H 0.27226 0.77150 -0.00058
 H920 H 0.20426 0.71479 -0.00107
 C921 C 0.25067 0.25040 0.47736
 C922 C 0.23068 0.23516 0.47697
 C923 C 0.22105 0.22670 0.49658
 C924 C 0.23121 0.23270 0.51671
 C925 C 0.25088 0.24857 0.51724
 C926 C 0.26030 0.25732 0.49748
 H927 H 0.27537 0.26941 0.49776
 H928 H 0.20561 0.21509 0.49617
 C929 C 0.74280 0.75636 1.02139
 C930 C 0.76064 0.73904 1.02367
 C931 C 0.77101 0.72915 1.00499
 C932 C 0.76505 0.73721 0.98398
 C933 C 0.74779 0.75525 0.98171
 C934 C 0.73667 0.76433 1.00041
 H935 H 0.72328 0.77794 0.99866
 H936 H 0.78426 0.71543 1.00685
 C937 C 0.74899 0.25618 0.51983
 C938 C 0.76535 0.23737 0.52139
 C939 C 0.77409 0.22684 0.50234
 C940 C 0.76794 0.23562 0.48163
 C941 C 0.75166 0.25468 0.48004
 C942 C 0.74205 0.26444 0.49921
 H943 H 0.72956 0.27895 0.49809
 H944 H 0.78647 0.21225 0.50367
 C945 C 0.74759 0.25394 -0.02145
 C946 C 0.72918 0.23677 -0.01993
 C947 C 0.72178 0.22857 0.00067
 C948 C 0.73235 0.23724 0.01973
 C949 C 0.75029 0.25485 0.01825
 C950 C 0.75773 0.26308 -0.00231
 H951 H 0.77183 0.27625 -0.00343
 H952 H 0.70789 0.21517 0.00184
 C953 C 0.75046 0.75369 0.47879
 C954 C 0.73215 0.73635 0.47852
 C955 C 0.72370 0.72685 0.49829
 C956 C 0.73261 0.73482 0.51830
 C957 C 0.75132 0.75170 0.51862
 C958 C 0.76010 0.76094 0.49883
 H959 H 0.77415 0.77421 0.49905
 H960 H 0.70942 0.71381 0.49812
 C961 C 1.02012 0.24369 0.25090
 C962 C 1.02144 0.25828 0.23212
 C963 C 1.00053 0.26561 0.22200
 C964 C 0.97819 0.25898 0.23027
 C965 C 0.97691 0.24553 0.24987
 C966 C 0.99787 0.23791 0.25985
 H967 H 0.99687 0.22737 0.27471
 H968 H 1.00169 0.27676 0.20753
 C969 C 0.52034 0.24834 0.75136
 C970 C 0.52097 0.26133 0.73151
 C971 C 0.49967 0.26681 0.72102
 C972 C 0.47774 0.26037 0.73018
 C973 C 0.47713 0.24787 0.75025
 C974 C 0.49842 0.24163 0.76045
 H975 H 0.49791 0.23177 0.77571
 H976 H 0.50015 0.27664 0.70573
 C977 C -0.02168 0.25852 0.76673
 C978 C -0.02337 0.24578 0.74686
 C979 C -0.00265 0.23835 0.73624
 C980 C 0.01971 0.24341 0.74504
 C981 C 0.02143 0.25577 0.76508
 C982 C 0.00080 0.26372 0.77536
 H983 H 0.00224 0.27375 0.79043
 H984 H -0.00395 0.22868 0.72097
 C985 C 0.48186 0.26557 0.26422
 C986 C 0.47965 0.25284 0.24439
 C987 C 0.50004 0.24484 0.23363
 C988 C 0.52259 0.24832 0.24271
 C989 C 0.52484 0.26117 0.26246
 C990 C 0.50455 0.27018 0.27265
 H991 H 0.50637 0.28016 0.28771
 H992 H 0.49827 0.23506 0.21845
 C993 C 1.01852 0.74308 0.75425
 C994 C 1.01972 0.75769 0.73544
 C995 C 0.99869 0.76493 0.72539
 C996 C 0.97647 0.75862 0.73404
 C997 C 0.97531 0.74529 0.75363
 C998 C 0.99630 0.73757 0.76347
 H999 H 0.99535 0.72697 0.77829
 H1000 H 0.99964 0.77577 0.71071
 C1001 C 0.51644 0.74647 0.25604
 C1002 C 0.51759 0.76116 0.23731
 C1003 C 0.49672 0.76766 0.22666
 C1004 C 0.47454 0.75970 0.23421
 C1005 C 0.47333 0.74541 0.25328
 C1006 C 0.49428 0.73861 0.26373
 H1007 H 0.49329 0.72747 0.27822
 H1008 H 0.49775 0.77924 0.21247
 C1009 C -0.02138 0.75635 0.26465
 C1010 C -0.02045 0.74604 0.24359
 C1011 C 0.00157 0.74220 0.23359
 C1012 C 0.02270 0.74835 0.24424
 C1013 C 0.02182 0.75800 0.26558
 C1014 C -0.00018 0.76248 0.27527
 H1015 H -0.00081 0.77052 0.29136
 H1016 H 0.00227 0.73421 0.21748
 C1017 C 0.48092 0.76270 0.76816
 C1018 C 0.47925 0.74941 0.74867
 C1019 C 0.50001 0.74170 0.73833
 C1020 C 0.52244 0.74708 0.74704
 C1021 C 0.52406 0.76128 0.76603
 C1022 C 0.50326 0.76853 0.77656
 H1023 H 0.50448 0.77902 0.79139
 H1024 H 0.49872 0.73118 0.72353
 C1025 C 0.44666 0.29162 0.26706
 C1026 C 0.42713 0.30071 0.27805
 C1027 C 0.42179 0.29373 0.29956
 C1028 C 0.43729 0.27761 0.31030
 C1029 C 0.45600 0.26683 0.29835
 C1030 C 0.46085 0.27416 0.27659
 C1031 C 0.46950 0.24920 0.30877
 N1032 N 0.46585 0.24425 0.33021
 N1033 N 0.44966 0.25575 0.34190
 C1034 C 0.43547 0.27239 0.33277
 H1035 H 0.45077 0.29849 0.25099
 H1036 H 0.41605 0.31327 0.26946
 H1037 H 0.48300 0.23939 0.30013
 H1038 H 0.42358 0.28186 0.34341
 C1039 C 0.44793 0.79095 0.77235
 C1040 C 0.42881 0.80042 0.78361
 C1041 C 0.42124 0.79093 0.80383
 C1042 C 0.43497 0.77224 0.81329
 C1043 C 0.45327 0.76145 0.80082
 C1044 C 0.45972 0.77098 0.78022
 C1045 C 0.46529 0.74189 0.80978
 N1046 N 0.46077 0.73496 0.83061
 N1047 N 0.44529 0.74647 0.84308
 C1048 C 0.43261 0.76505 0.83530
 H1049 H 0.45365 0.79950 0.75737
 H1050 H 0.41964 0.81497 0.77584
 H1051 H 0.47850 0.73230 0.80053
 H1052 H 0.42186 0.77467 0.84681
 C1053 C -0.05753 0.28378 0.76815
 C1054 C -0.07660 0.29393 0.77903
 C1055 C -0.08120 0.28880 0.80111
 C1056 C -0.06571 0.27319 0.81244
 C1057 C -0.04737 0.26147 0.80082
 C1058 C -0.04293 0.26728 0.77860
 C1059 C -0.03381 0.24441 0.81198
 N1060 N -0.03711 0.24086 0.83370
 N1061 N -0.05300 0.25322 0.84498
 C1062 C -0.06721 0.26937 0.83518
 H1063 H -0.05400 0.28912 0.75145
 H1064 H -0.08790 0.30590 0.76998
 H1065 H -0.02060 0.23390 0.80367
 H1066 H -0.07896 0.27949 0.84544
 C1067 C -0.05859 0.77922 0.26591
 C1068 C -0.07862 0.78756 0.27657
 C1069 C -0.08460 0.77975 0.29771
 C1070 C -0.07007 0.76246 0.30801
 C1071 C -0.05030 0.75305 0.29654
 C1072 C -0.04417 0.76209 0.27559
 C1073 C -0.03697 0.73506 0.30660
 N1074 N -0.04226 0.72800 0.32726
 N1075 N -0.05989 0.73777 0.33851
 C1076 C -0.07381 0.75485 0.32971
 H1077 H -0.05392 0.78685 0.25021
 H1078 H -0.08932 0.80069 0.26827
 H1079 H -0.02240 0.72656 0.29824
 H1080 H -0.08721 0.76255 0.34002
 C1081 C 0.55356 0.72355 0.25664
 C1082 C 0.57407 0.71551 0.26657
 C1083 C 0.57936 0.72126 0.28835
 C1084 C 0.56301 0.73537 0.30036
 C1085 C 0.54296 0.74504 0.28959
 C1086 C 0.53816 0.73879 0.26761
 C1087 C 0.52813 0.76047 0.30132
 N1088 N 0.53215 0.76452 0.32283
 N1089 N 0.54992 0.75413 0.33334
 C1090 C 0.56530 0.73956 0.32294
 H1091 H 0.54967 0.71772 0.24019
 H1092 H 0.58590 0.70462 0.25695
 H1093 H 0.51335 0.76926 0.29365
 H1094 H 0.57858 0.73089 0.33266
 C1095 C 0.54807 0.21685 0.76253
 C1096 C 0.56947 0.20902 0.77105
 C1097 C 0.58603 0.22514 0.77974
 C1098 C 0.58081 0.24985 0.77954
 C1099 C 0.55857 0.25767 0.77164
 C1100 C 0.54241 0.24104 0.76255
 C1101 C 0.55322 0.28201 0.77303
 N1102 N 0.56972 0.29765 0.78046
 N1103 N 0.59110 0.29052 0.78671
 C1104 C 0.59724 0.26723 0.78643
 H1105 H 0.53591 0.20393 0.75558
 H1106 H 0.57296 0.19009 0.77110
 H1107 H 0.53611 0.28873 0.76822
 H1108 H 0.61504 0.26269 0.79121
 C1109 C 1.05677 0.74926 0.77346
 C1110 C 1.07774 0.74104 0.78261
 C1111 C 1.08262 0.71662 0.78359
 C1112 C 1.06535 0.70011 0.77592
 C1113 C 1.04454 0.70855 0.76560
 C1114 C 1.04021 0.73336 0.76454
 C1115 C 1.02877 0.69177 0.75652
 N1116 N 1.03277 0.66818 0.75905
 N1117 N 1.05147 0.66024 0.76998
 C1118 C 1.06777 0.67534 0.77861
 H1119 H 1.05361 0.76825 0.77296
 H1120 H 1.09051 0.75396 0.78858
 H1121 H 1.01329 0.69711 0.74745
 H1122 H 1.08208 0.66775 0.78789
 C1123 C 1.05770 0.25117 0.27064
 C1124 C 1.07908 0.24381 0.27955
 C1125 C 1.08508 0.21966 0.28011
 C1126 C 1.06850 0.20246 0.27240
 C1127 C 1.04721 0.21008 0.26239
 C1128 C 1.04185 0.23467 0.26156
 C1129 C 1.03204 0.19274 0.25334
 N1130 N 1.03712 0.16933 0.25555
 N1131 N 1.05634 0.16210 0.26614
 C1132 C 1.07209 0.17781 0.27475
 H1133 H 1.05372 0.27001 0.27033
 H1134 H 1.09130 0.25720 0.28561
 H1135 H 1.01616 0.19750 0.24457
 H1136 H 1.08688 0.17076 0.28374
 C1137 C 0.56009 0.25247 0.71474
 C1138 C 0.58204 0.25926 0.70619
 C1139 C 0.58808 0.28336 0.70372
 C1140 C 0.57104 0.30095 0.70897
 C1141 C 0.54910 0.29407 0.71854
 C1142 C 0.54367 0.26956 0.72149
 C1143 C 0.53343 0.31209 0.72515
 N1144 N 0.53880 0.33524 0.72109
 N1145 N 0.55875 0.34161 0.71094
 C1146 C 0.57496 0.32530 0.70464
 H1147 H 0.55606 0.23368 0.71654
 H1148 H 0.59468 0.24557 0.70205
 H1149 H 0.51702 0.30811 0.73357
 H1150 H 0.59047 0.33159 0.69594
 C1151 C 0.55263 0.75757 0.21328
 C1152 C 0.57411 0.76575 0.20485
 C1153 C 0.58347 0.78801 0.21091
 C1154 C 0.57013 0.80259 0.22538
 C1155 C 0.54897 0.79348 0.23500
 C1156 C 0.54034 0.77078 0.22888
 C1157 C 0.53671 0.80770 0.25009
 N1158 N 0.54450 0.83008 0.25438
 N1159 N 0.56357 0.83917 0.24446
 C1160 C 0.57647 0.82634 0.22999
 H1161 H 0.54571 0.74057 0.20781
 H1162 H 0.58358 0.75435 0.19364
 H1163 H 0.52086 0.80135 0.25830
 H1164 H 0.59096 0.83523 0.22177
 C1165 C 1.05972 0.24949 0.21373
 C1166 C 1.08178 0.25622 0.20534
 C1167 C 1.08917 0.28009 0.20559
 C1168 C 1.07345 0.29769 0.21363
 C1169 C 1.05139 0.29072 0.22290
 C1170 C 1.04450 0.26641 0.22285
 C1171 C 1.03699 0.30841 0.23219
 N1172 N 1.04366 0.33160 0.23098
 N1173 N 1.06372 0.33829 0.22118
 C1174 C 1.07875 0.32220 0.21237
 H1175 H 1.05460 0.23086 0.21347
 H1176 H 1.09344 0.24256 0.19915
 H1177 H 1.02053 0.30408 0.24041
 H1178 H 1.09440 0.32885 0.20413
 C1179 C 1.05820 0.74925 0.71719
 C1180 C 1.07993 0.75632 0.70828
 C1181 C 1.08656 0.78042 0.70760
 C1182 C 1.07041 0.79781 0.71528
 C1183 C 1.04884 0.79051 0.72528
 C1184 C 1.04265 0.76602 0.72604
 C1185 C 1.03417 0.80810 0.73439
 N1186 N 1.04000 0.83143 0.73219
 N1187 N 1.05949 0.83836 0.72157
 C1188 C 1.07478 0.82242 0.71294
 H1189 H 1.05361 0.73049 0.71746
 H1190 H 1.09191 0.74280 0.70236
 H1191 H 1.01815 0.80359 0.74326
 H1192 H 1.08988 0.82923 0.70397
 C1193 C 0.44610 0.72067 0.74495
 C1194 C 0.42439 0.71336 0.73635
 C1195 C 0.41149 0.72817 0.72224
 C1196 C 0.42063 0.75133 0.71750
 C1197 C 0.44355 0.75794 0.72494
 C1198 C 0.45602 0.74269 0.73919
 C1199 C 0.45321 0.77983 0.71797
 N1200 N 0.43992 0.79500 0.70601
 N1201 N 0.41770 0.78968 0.70052
 C1202 C 0.40754 0.76852 0.70602
 H1203 H 0.45551 0.70882 0.75583
 H1204 H 0.41799 0.69567 0.74039
 H1205 H 0.47104 0.78519 0.72232
 H1206 H 0.38916 0.76574 0.70188
 C1207 C 0.44574 0.22487 0.24259
 C1208 C 0.42415 0.21713 0.23409
 C1209 C 0.41189 0.23079 0.21859
 C1210 C 0.42155 0.25333 0.21232
 C1211 C 0.44446 0.26015 0.21963
 C1212 C 0.45625 0.24607 0.23532
 C1213 C 0.45468 0.28119 0.21126
 N1214 N 0.44191 0.29553 0.19800
 N1215 N 0.41968 0.29017 0.19258
 C1216 C 0.40899 0.26976 0.19946
 H1217 H 0.45470 0.21386 0.25451
 H1218 H 0.41735 0.19997 0.23934
 H1219 H 0.47247 0.28667 0.21562
 H1220 H 0.39060 0.26708 0.19537
 C1221 C -0.05229 0.71620 0.23879
 C1222 C -0.07258 0.70742 0.22867
 C1223 C -0.08389 0.72026 0.21199
 C1224 C -0.07444 0.74287 0.20580
 C1225 C -0.05300 0.75117 0.21539
 C1226 C -0.04219 0.73785 0.23224
 C1227 C -0.04338 0.77300 0.20820
 N1228 N -0.05511 0.78620 0.19323
 N1229 N -0.07582 0.77908 0.18507
 C1230 C -0.08597 0.75805 0.19097
 H1231 H -0.04416 0.70583 0.25167
 H1232 H -0.07929 0.69018 0.23382
 H1233 H -0.02687 0.77988 0.21465
 H1234 H -0.10322 0.75390 0.18446
 C1235 C -0.05933 0.22038 0.74575
 C1236 C -0.08074 0.21317 0.73654
 C1237 C -0.09036 0.22524 0.71853
 C1238 C -0.07832 0.24574 0.71029
 C1239 C -0.05593 0.25234 0.71905
 C1240 C -0.04655 0.23958 0.73698
 C1241 C -0.04387 0.27200 0.70991
 N1242 N -0.05411 0.28485 0.69376
 N1243 N -0.07558 0.27941 0.68625
 C1244 C -0.08809 0.26049 0.69406
 H1245 H -0.05235 0.21053 0.75953
 H1246 H -0.08955 0.19760 0.74328
 H1247 H -0.02662 0.27756 0.71573
 H1248 H -0.10577 0.25769 0.68790
 C1249 C 0.28217 0.45449 0.27477
 C1250 C 0.29145 0.43377 0.28376
 C1251 C 0.27657 0.41564 0.29195
 C1252 C 0.25159 0.41872 0.29071
 C1253 C 0.24232 0.44072 0.28330
 C1254 C 0.25770 0.45825 0.27430
 C1255 C 0.21781 0.44444 0.28510
 N1256 N 0.20330 0.42637 0.29147
 N1257 N 0.21174 0.40495 0.29634
 C1258 C 0.23532 0.40046 0.29602
 H1259 H 0.29424 0.46772 0.26804
 H1260 H 0.31052 0.43208 0.28445
 H1261 H 0.21010 0.46151 0.28137
 H1262 H 0.24092 0.38250 0.29932
 C1263 C 0.28682 -0.05235 0.77055
 C1264 C 0.29486 -0.07371 0.77919
 C1265 C 0.27934 -0.08988 0.78975
 C1266 C 0.25461 -0.08453 0.78984
 C1267 C 0.24682 -0.06191 0.78239
 C1268 C 0.26303 -0.04600 0.77225
 C1269 C 0.22285 -0.05604 0.78515
 N1270 N 0.20719 -0.07270 0.79238
 N1271 N 0.21399 -0.09475 0.79708
 C1272 C 0.23703 -0.10130 0.79581
 H1273 H 0.29942 -0.04047 0.76262
 H1274 H 0.31371 -0.07682 0.77831
 H1275 H 0.21641 -0.03844 0.78137
 H1276 H 0.24111 -0.11978 0.79859
 C1277 C 0.78831 0.45215 0.77102
 C1278 C 0.79613 0.43088 0.78008
 C1279 C 0.78012 0.41376 0.78858
 C1280 C 0.75533 0.41830 0.78651
 C1281 C 0.74759 0.44077 0.77864
 C1282 C 0.76421 0.45739 0.77013
 C1283 C 0.72323 0.44579 0.77923
 N1284 N 0.70747 0.42849 0.78481
 N1285 N 0.71449 0.40660 0.78984
 C1286 C 0.73776 0.40084 0.79057
 H1287 H 0.80127 0.46467 0.76455
 H1288 H 0.81508 0.42846 0.78106
 H1289 H 0.71657 0.46317 0.77492
 H1290 H 0.74210 0.38244 0.79337
 C1291 C 0.79228 -0.05029 0.26949
 C1292 C 0.80058 -0.07084 0.27950
 C1293 C 0.78554 -0.08549 0.29225
 C1294 C 0.76097 -0.07968 0.29340
 C1295 C 0.75282 -0.05817 0.28383
 C1296 C 0.76858 -0.04369 0.27150
 C1297 C 0.72893 -0.05193 0.28670
 N1298 N 0.71372 -0.06726 0.29669
 N1299 N 0.72082 -0.08837 0.30394
 C1300 C 0.74375 -0.09521 0.30240
 H1301 H 0.80451 -0.03935 0.26008
 H1302 H 0.81931 -0.07452 0.27800
 H1303 H 0.72213 -0.03515 0.28083
 H1304 H 0.74794 -0.11309 0.30742
 C1305 C 0.28583 0.55070 0.73119
 C1306 C 0.29406 0.57289 0.72420
 C1307 C 0.27866 0.58937 0.71466
 C1308 C 0.25427 0.58339 0.71255
 C1309 C 0.24610 0.56051 0.71906
 C1310 C 0.26195 0.54432 0.72891
 C1311 C 0.22218 0.55453 0.71548
 N1312 N 0.20720 0.57096 0.70718
 N1313 N 0.21457 0.59287 0.70214
 C1314 C 0.23751 0.59968 0.70461
 H1315 H 0.29814 0.53845 0.73867
 H1316 H 0.31274 0.57705 0.72590
 H1317 H 0.21526 0.53700 0.71930
 H1318 H 0.24224 0.61785 0.70068
 C1319 C 0.27855 1.06125 0.24158
 C1320 C 0.28783 1.08209 0.23251
 C1321 C 0.28489 1.08737 0.21025
 C1322 C 0.27276 1.07057 0.19685
 C1323 C 0.26143 1.05048 0.20658
 C1324 C 0.26478 1.04554 0.22911
 C1325 C 0.24723 1.03579 0.19328
 N1326 N 0.24641 1.03962 0.17142
 N1327 N 0.25879 1.05712 0.16200
 C1328 C 0.27210 1.07252 0.17390
 H1329 H 0.28226 1.05739 0.25854
 H1330 H 0.29728 1.09423 0.24314
 H1331 H 0.23685 1.02126 0.20002
 H1332 H 0.28259 1.08557 0.16515
 C1333 C 0.75034 0.55597 0.21389
 C1334 C 0.75811 0.57842 0.20693
 C1335 C 0.77337 0.59227 0.21992
 C1336 C 0.77998 0.58345 0.24083
 C1337 C 0.77388 0.55983 0.24689
 C1338 C 0.75824 0.54634 0.23367
 C1339 C 0.78385 0.55038 0.26606
 N1340 N 0.79667 0.56459 0.27951
 N1341 N 0.80036 0.58750 0.27494
 C1342 C 0.79228 0.59745 0.25620
 H1343 H 0.73842 0.54582 0.20357
 H1344 H 0.75263 0.58468 0.19099
 H1345 H 0.78127 0.53193 0.27064
 H1346 H 0.79514 0.61630 0.25378
 C1347 C 0.74597 1.06166 0.72211
 C1348 C 0.75387 1.08378 0.71461
 C1349 C 0.77802 1.08982 0.71483
 C1350 C 0.79466 1.07261 0.72200
 C1351 C 0.78648 1.05052 0.73058
 C1352 C 0.76191 1.04505 0.73053
 C1353 C 0.80328 1.03456 0.73901
 N1354 N 0.82671 1.03981 0.73761
 N1355 N 0.83447 1.05988 0.72836
 C1356 C 0.81931 1.07633 0.72038
 H1357 H 0.72720 1.05757 0.72159
 H1358 H 0.74089 1.09646 0.70892
 H1359 H 0.79810 1.01795 0.74666
 H1360 H 0.82682 1.09180 0.71240
 C1361 C 0.73246 0.54979 0.28849
 C1362 C 0.72206 0.56953 0.29817
 C1363 C 0.70101 0.57910 0.28989
 C1364 C 0.68958 0.56738 0.27215
 C1365 C 0.70113 0.54834 0.26140
 C1366 C 0.72292 0.53984 0.26950
 C1367 C 0.69005 0.53785 0.24319
 N1368 N 0.66830 0.54520 0.23691
 N1369 N 0.65684 0.56213 0.24773
 C1370 C 0.66658 0.57326 0.26522
 H1371 H 0.74839 0.54257 0.29564
 H1372 H 0.73088 0.57763 0.31200
 H1373 H 0.69830 0.52363 0.23409
 H1374 H 0.65583 0.58591 0.27391
 C1375 C 0.70817 1.05120 0.76469
 C1376 C 0.70009 1.07254 0.77329
 C1377 C 0.71417 1.08624 0.78755
 C1378 C 0.73778 1.07855 0.79188
 C1379 C 0.74578 1.05653 0.78324
 C1380 C 0.73081 1.04295 0.76953
 C1381 C 0.76886 1.04901 0.78813
 N1382 N 0.78351 1.06327 0.79984
 N1383 N 0.77664 1.08456 0.80681
 C1384 C 0.75449 1.09278 0.80304
 H1385 H 0.69668 1.04107 0.75395
 H1386 H 0.68214 1.07771 0.76941
 H1387 H 0.77547 1.03205 0.78254
 H1388 H 0.75068 1.11072 0.80805
 C1389 C 0.20889 0.54929 0.76708
 C1390 C 0.20126 0.57069 0.77596
 C1391 C 0.21691 0.58551 0.78747
 C1392 C 0.24084 0.57852 0.79002
 C1393 C 0.24858 0.55666 0.78095
 C1394 C 0.23253 0.54227 0.76899
 C1395 C 0.27222 0.54988 0.78422
 N1396 N 0.28727 0.56449 0.79516
 N1397 N 0.28023 0.58533 0.80310
 C1398 C 0.25759 0.59287 0.80087
 H1399 H 0.19635 0.53835 0.75814
 H1400 H 0.18289 0.57567 0.77394
 H1401 H 0.27885 0.53312 0.77817
 H1402 H 0.25303 0.61007 0.80743
 C1403 C 0.21504 1.05801 0.25863
 C1404 C 0.20727 1.07933 0.26758
 C1405 C 0.21787 1.08892 0.28639
 C1406 C 0.23722 1.07672 0.29603
 C1407 C 0.24426 1.05435 0.28753
 C1408 C 0.23329 1.04526 0.26849
 C1409 C 0.26274 1.04213 0.29795
 N1410 N 0.27413 1.05221 0.31509
 N1411 N 0.26837 1.07371 0.32240
 C1412 C 0.25053 1.08637 0.31336
 H1413 H 0.20658 1.05123 0.24401
 H1414 H 0.19255 1.08822 0.25982
 H1415 H 0.26853 1.02486 0.29236
 H1416 H 0.24751 1.10408 0.31946
 C1417 C 0.71423 0.44905 0.72768
 C1418 C 0.70755 0.42722 0.71887
 C1419 C 0.72441 0.41213 0.70954
 C1420 C 0.74858 0.41919 0.70919
 C1421 C 0.75536 0.44147 0.71819
 C1422 C 0.73804 0.45620 0.72792
 C1423 C 0.77933 0.44835 0.71696
 N1424 N 0.79548 0.43344 0.70808
 N1425 N 0.78924 0.41221 0.70025
 C1426 C 0.76638 0.40456 0.70053
 H1427 H 0.70075 0.46028 0.73482
 H1428 H 0.68899 0.42216 0.71915
 H1429 H 0.78537 0.46545 0.72295
 H1430 H 0.76244 0.38707 0.69412
 C1431 C 0.71575 -0.05522 0.23401
 C1432 C 0.70897 -0.07727 0.22568
 C1433 C 0.72519 -0.09154 0.21441
 C1434 C 0.74897 -0.08356 0.21198
 C1435 C 0.75575 -0.06091 0.22015
 C1436 C 0.73904 -0.04689 0.23156
 C1437 C 0.77910 -0.05291 0.21645
 N1438 N 0.79486 -0.06724 0.20626
 N1439 N 0.78880 -0.08893 0.19944
 C1440 C 0.76647 -0.09760 0.20200
 H1441 H 0.70276 -0.04460 0.24256
 H1442 H 0.69071 -0.08300 0.22765
 H1443 H 0.78499 -0.03544 0.22158
 H1444 H 0.76278 -0.11548 0.19647
 C1445 C 0.24502 0.44047 0.22616
 C1446 C 0.23938 0.41855 0.21688
 C1447 C 0.21582 0.41076 0.21557
 C1448 C 0.19742 0.42569 0.22319
 C1449 C 0.20318 0.44785 0.23294
 C1450 C 0.22724 0.45523 0.23444
 C1451 C 0.18456 0.46176 0.24121
 N1452 N 0.16178 0.45439 0.23894
 N1453 N 0.15633 0.43405 0.22899
 C1454 C 0.17331 0.41951 0.22098
 H1455 H 0.26344 0.44597 0.22694
 H1456 H 0.25359 0.40742 0.21091
 H1457 H 0.18786 0.47825 0.24967
 H1458 H 0.16770 0.40347 0.21274
 C1459 C 0.24772 -0.06044 0.72380
 C1460 C 0.24004 -0.08158 0.71425
 C1461 C 0.21595 -0.08766 0.71396
 C1462 C 0.19913 -0.07173 0.72286
 C1463 C 0.20695 -0.05021 0.73263
 C1464 C 0.23152 -0.04471 0.73324
 C1465 C 0.18985 -0.03502 0.74174
 N1466 N 0.16653 -0.04080 0.74055
 N1467 N 0.15914 -0.06069 0.73086
 C1468 C 0.17459 -0.07630 0.72193
 H1469 H 0.26650 -0.05631 0.72388
 H1470 H 0.25305 -0.09350 0.70732
 H1471 H 0.19475 -0.01867 0.74990
 H1472 H 0.16745 -0.09192 0.71399
 C1473 C 0.25674 0.28290 0.45052
 C1474 C 0.26541 0.29190 0.43079
 C1475 C 0.27848 0.27756 0.41641
 C1476 C 0.28234 0.25332 0.42212
 C1477 C 0.27506 0.24481 0.44295
 C1478 C 0.26147 0.25949 0.45684
 C1479 C 0.28150 0.22166 0.44920
 N1480 N 0.29249 0.20724 0.43469
 N1481 N 0.29752 0.21450 0.41446
 C1482 C 0.29264 0.23691 0.40762
 H1483 H 0.24633 0.29431 0.46101
 H1484 H 0.26212 0.31040 0.42694
 H1485 H 0.27757 0.21480 0.46537
 H1486 H 0.29629 0.24134 0.39077
 C1487 C 0.25399 0.78255 -0.04841
 C1488 C 0.26256 0.79109 -0.06836
 C1489 C 0.27594 0.77655 -0.08233
 C1490 C 0.28017 0.75257 -0.07594
 C1491 C 0.27328 0.74471 -0.05479
 C1492 C 0.25928 0.75951 -0.04138
 C1493 C 0.28052 0.72208 -0.04777
 N1494 N 0.29165 0.70732 -0.06190
 N1495 N 0.29609 0.71381 -0.08246
 C1496 C 0.29053 0.73577 -0.09002
 H1497 H 0.24327 0.79406 -0.03828
 H1498 H 0.25894 0.80940 -0.07267
 H1499 H 0.27701 0.71584 -0.03131
 H1500 H 0.29366 0.73954 -0.10710
 C1501 C 0.74897 0.28335 -0.05174
 C1502 C 0.75747 0.29155 -0.07187
 C1503 C 0.77360 0.27810 -0.08421
 C1504 C 0.78040 0.25535 -0.07612
 C1505 C 0.77365 0.24831 -0.05471
 C1506 C 0.75711 0.26198 -0.04286
 C1507 C 0.78358 0.22752 -0.04588
 N1508 N 0.79710 0.21332 -0.05863
 N1509 N 0.80141 0.21863 -0.07950
 C1510 C 0.79329 0.23896 -0.08874
 H1511 H 0.73635 0.29403 -0.04277
 H1512 H 0.75175 0.30884 -0.07752
 H1513 H 0.78016 0.22212 -0.02916
 H1514 H 0.79644 0.24167 -0.10597
 C1515 C 0.78166 0.75882 0.45053
 C1516 C 0.79007 0.76775 0.43066
 C1517 C 0.77618 0.78293 0.41782
 C1518 C 0.75301 0.78877 0.42512
 C1519 C 0.74494 0.78053 0.44581
 C1520 C 0.75918 0.76498 0.45829
 C1521 C 0.72272 0.78817 0.45337
 N1522 N 0.70882 0.80169 0.44036
 N1523 N 0.71574 0.80818 0.42037
 C1524 C 0.73725 0.80211 0.41227
 H1525 H 0.79271 0.74689 0.45989
 H1526 H 0.80778 0.76302 0.42544
 H1527 H 0.71631 0.78352 0.46951
 H1528 H 0.74153 0.80740 0.39574
 C1529 C 0.71982 0.25710 0.55007
 C1530 C 0.71163 0.26562 0.57006
 C1531 C 0.72338 0.28430 0.58089
 C1532 C 0.74412 0.29436 0.57110
 C1533 C 0.75108 0.28702 0.54985
 C1534 C 0.73942 0.26761 0.53977
 C1535 C 0.77002 0.29901 0.53956
 N1536 N 0.78258 0.31568 0.55064
 N1537 N 0.77744 0.32107 0.57129
 C1538 C 0.75887 0.31082 0.58195
 H1539 H 0.71082 0.24211 0.54256
 H1540 H 0.69589 0.25748 0.57707
 H1541 H 0.77516 0.29500 0.52293
 H1542 H 0.75646 0.31511 0.59897
 C1543 C 0.74323 0.78166 1.05455
 C1544 C 0.73267 0.79150 1.07296
 C1545 C 0.70862 0.78744 1.07771
 C1546 C 0.69484 0.77376 1.06281
 C1547 C 0.70602 0.76262 1.04471
 C1548 C 0.73046 0.76662 1.04065
 C1549 C 0.69223 0.74788 1.03112
 N1550 N 0.66860 0.74568 1.03466
 N1551 N 0.65786 0.75723 1.05082
 C1552 C 0.67009 0.77130 1.06488
 H1553 H 0.76162 0.78580 1.05122
 H1554 H 0.74363 0.80207 1.08378
 H1555 H 0.69997 0.73817 1.01766
 H1556 H 0.66017 0.78088 1.07708
 C1557 C 0.21910 0.26938 1.04560
 C1558 C 0.21063 0.27626 1.06603
 C1559 C 0.22581 0.28646 1.08158
 C1560 C 0.25016 0.28984 1.07623
 C1561 C 0.25839 0.28402 1.05499
 C1562 C 0.24294 0.27277 1.03997
 C1563 C 0.28208 0.28928 1.04954
 N1564 N 0.29698 0.29805 1.06492
 N1565 N 0.28973 0.30195 1.08531
 C1566 C 0.26694 0.29801 1.09154
 H1567 H 0.20707 0.26075 1.03429
 H1568 H 0.19202 0.27352 1.06973
 H1569 H 0.28888 0.28638 1.03322
 H1570 H 0.26245 0.30080 1.10848
 C1571 C 0.21793 0.76640 0.54809
 C1572 C 0.20880 0.77350 0.56821
 C1573 C 0.22280 0.78623 0.58312
 C1574 C 0.24674 0.79164 0.57757
 C1575 C 0.25563 0.78533 0.55667
 C1576 C 0.24129 0.77199 0.54215
 C1577 C 0.27877 0.79247 0.55098
 N1578 N 0.29265 0.80364 0.56586
 N1579 N 0.28487 0.80821 0.58598
 C1580 C 0.26251 0.80250 0.59238
 H1581 H 0.20679 0.75612 0.53717
 H1582 H 0.19053 0.76914 0.57210
 H1583 H 0.28591 0.78926 0.53485
 H1584 H 0.25756 0.80608 0.60910
 C1585 C 0.26332 0.72271 0.55762
 C1586 C 0.27236 0.71314 0.57688
 C1587 C 0.29670 0.71425 0.58148
 C1588 C 0.31227 0.72488 0.56592
 C1589 C 0.30284 0.73595 0.54702
 C1590 C 0.27821 0.73436 0.54261
 C1591 C 0.31848 0.74849 0.53316
 N1592 N 0.34212 0.74815 0.53693
 N1593 N 0.35115 0.73617 0.55370
 C1594 C 0.33709 0.72442 0.56822
 H1595 H 0.24451 0.72108 0.55444
 H1596 H 0.26011 0.70502 0.58841
 H1597 H 0.31210 0.75884 0.51959
 H1598 H 0.34557 0.71446 0.58106
 C1599 C 0.26105 0.22324 1.05604
 C1600 C 0.26881 0.21435 1.07605
 C1601 C 0.29304 0.21353 1.08105
 C1602 C 0.30974 0.22093 1.06494
 C1603 C 0.30174 0.23196 1.04547
 C1604 C 0.27714 0.23270 1.04077
 C1605 C 0.31877 0.24228 1.03148
 N1606 N 0.34217 0.23932 1.03541
 N1607 N 0.34967 0.22685 1.05253
 C1608 C 0.33429 0.21742 1.06732
 H1609 H 0.24223 0.22323 1.05266
 H1610 H 0.25566 0.20855 1.08788
 H1611 H 0.31369 0.25297 1.01769
 H1612 H 0.34144 0.20684 1.08044
 C1613 C 0.75821 0.71370 1.05691
 C1614 C 0.76657 0.70620 1.07722
 C1615 C 0.78641 0.71713 1.08690
 C1616 C 0.79734 0.73680 1.07604
 C1617 C 0.78972 0.74336 1.05479
 C1618 C 0.76978 0.73192 1.04540
 C1619 C 0.80201 0.76170 1.04374
 N1620 N 0.81971 0.77369 1.05394
 N1621 N 0.82586 0.76860 1.07440
 C1622 C 0.81516 0.75080 1.08585
 H1623 H 0.74288 0.70489 1.04991
 H1624 H 0.75774 0.69134 1.08519
 H1625 H 0.79735 0.76700 1.02731
 H1626 H 0.82026 0.74837 1.10268
 C1627 C 0.76266 0.21140 0.55413
 C1628 C 0.76994 0.20446 0.57493
 C1629 C 0.78889 0.21602 0.58549
 C1630 C 0.80038 0.23541 0.57466
 C1631 C 0.79419 0.24104 0.55279
 C1632 C 0.77464 0.22952 0.54286
 C1633 C 0.80757 0.25847 0.54164
 N1634 N 0.82452 0.27099 0.55237
 N1635 N 0.82892 0.26720 0.57345
 C1636 C 0.81729 0.25007 0.58500
 H1637 H 0.74763 0.20249 0.54671
 H1638 H 0.76072 0.18974 0.58274
 H1639 H 0.80442 0.26254 0.52462
 H1640 H 0.82092 0.24872 0.60225
 C1641 C 0.73584 0.71538 0.44313
 C1642 C 0.72687 0.70718 0.42334
 C1643 C 0.70330 0.71140 0.41750
 C1644 C 0.68823 0.72358 0.43226
 C1645 C 0.69742 0.73209 0.45237
 C1646 C 0.72149 0.72799 0.45772
 C1647 C 0.68215 0.74464 0.46639
 N1648 N 0.65915 0.74775 0.46085
 N1649 N 0.65035 0.73913 0.44229
 C1650 C 0.66404 0.72710 0.42787
 H1651 H 0.75418 0.71190 0.44710
 H1652 H 0.73855 0.69776 0.41230
 H1653 H 0.68822 0.75210 0.48165
 H1654 H 0.65572 0.72016 0.41333
 C1655 C 0.72827 0.20899 -0.05125
 C1656 C 0.71827 0.19996 -0.07024
 C1657 C 0.69604 0.20768 -0.07753
 C1658 C 0.68326 0.22411 -0.06438
 C1659 C 0.69439 0.23465 -0.04594
 C1660 C 0.71723 0.22717 -0.03959
 C1661 C 0.68202 0.25203 -0.03409
 N1662 N 0.65942 0.25737 -0.03955
 N1663 N 0.64840 0.24641 -0.05594
 C1664 C 0.65942 0.22984 -0.06836
 H1665 H 0.74489 0.20177 -0.04572
 H1666 H 0.72832 0.18703 -0.07942
 H1667 H 0.68998 0.26118 -0.02038
 H1668 H 0.64908 0.22076 -0.08061
 C1669 C 0.22622 0.70603 -0.05134
 C1670 C 0.21688 0.69833 -0.07113
 C1671 C 0.19789 0.71022 -0.08101
 C1672 C 0.18750 0.72975 -0.06978
 C1673 C 0.19826 0.73860 -0.05043
 C1674 C 0.21794 0.72672 -0.04139
 C1675 C 0.18852 0.75876 -0.04034
 N1676 N 0.16852 0.76857 -0.04843
 N1677 N 0.15756 0.75945 -0.06577
 C1678 C 0.16619 0.74029 -0.07655
 H1679 H 0.24033 0.69593 -0.04394
 H1680 H 0.22495 0.68309 -0.07887
 H1681 H 0.19642 0.76659 -0.02593
 H1682 H 0.15574 0.73306 -0.08971
 C1683 C 0.22622 0.20695 0.44630
 C1684 C 0.21606 0.19954 0.42678
 C1685 C 0.19749 0.21229 0.41717
 C1686 C 0.18844 0.23253 0.42832
 C1687 C 0.19997 0.24093 0.44744
 C1688 C 0.21911 0.22806 0.45629
 C1689 C 0.19150 0.26168 0.45752
 N1690 N 0.17199 0.27257 0.44957
 N1691 N 0.16033 0.26398 0.43239
 C1692 C 0.16771 0.24426 0.42167
 H1693 H 0.24000 0.19623 0.45353
 H1694 H 0.22314 0.18382 0.41902
 H1695 H 0.20004 0.26916 0.47177
 H1696 H 0.15676 0.23759 0.40860
 C1697 C 0.28355 0.45079 0.72302
 C1698 C 0.29169 0.43000 0.71332
 C1699 C 0.27591 0.41315 0.70447
 C1700 C 0.25115 0.41762 0.70578
 C1701 C 0.24304 0.43963 0.71433
 C1702 C 0.25934 0.45591 0.72377
 C1703 C 0.21874 0.44465 0.71308
 N1704 N 0.20334 0.42784 0.70581
 N1705 N 0.21070 0.40646 0.69954
 C1706 C 0.23400 0.40072 0.69940
 H1707 H 0.29631 0.46304 0.73007
 H1708 H 0.31064 0.42726 0.71257
 H1709 H 0.21188 0.46178 0.71785
 H1710 H 0.23869 0.38285 0.69481
 C1711 C 0.24817 0.94167 0.21953
 C1712 C 0.25569 0.92117 0.20879
 C1713 C 0.27984 0.91574 0.20722
 C1714 C 0.29678 0.93184 0.21617
 C1715 C 0.28902 0.95192 0.22816
 C1716 C 0.26451 0.95708 0.22948
 C1717 C 0.30619 0.96628 0.23850
 N1718 N 0.32954 0.96183 0.23556
 N1719 N 0.33687 0.94401 0.22301
 C1720 C 0.32135 0.92902 0.21311
 H1721 H 0.22940 0.94554 0.22009
 H1722 H 0.24248 0.90926 0.20196
 H1723 H 0.30131 0.98098 0.24891
 H1724 H 0.32847 0.91545 0.20256
 C1725 C 0.78316 0.45518 0.21981
 C1726 C 0.79159 0.43455 0.21007
 C1727 C 0.77614 0.41600 0.20400
 C1728 C 0.75140 0.41879 0.20760
 C1729 C 0.74277 0.44062 0.21601
 C1730 C 0.75890 0.45832 0.22334
 C1731 C 0.71814 0.44398 0.21699
 N1732 N 0.70320 0.42579 0.21205
 N1733 N 0.71130 0.40458 0.20608
 C1734 C 0.73482 0.40039 0.20388
 H1735 H 0.79577 0.46859 0.22513
 H1736 H 0.81050 0.43308 0.20742
 H1737 H 0.71066 0.46081 0.22190
 H1738 H 0.74015 0.38257 0.19982
 C1739 C 0.78447 0.95293 0.72336
 C1740 C 0.79287 0.93209 0.71397
 C1741 C 0.77727 0.91407 0.70702
 C1742 C 0.75250 0.91730 0.70993
 C1743 C 0.74395 0.93915 0.71840
 C1744 C 0.76014 0.95670 0.72590
 C1745 C 0.71935 0.94276 0.71899
 N1746 N 0.70432 0.92488 0.71335
 N1747 N 0.71229 0.90375 0.70699
 C1748 C 0.73580 0.89930 0.70521
 H1749 H 0.79712 0.96620 0.72891
 H1750 H 0.81183 0.93022 0.71190
 H1751 H 0.71193 0.95957 0.72403
 H1752 H 0.74108 0.88161 0.70057
 C1753 C 0.74658 0.56033 0.71923
 C1754 C 0.73798 0.58124 0.70999
 C1755 C 0.71380 0.58655 0.71095
 C1756 C 0.69784 0.57013 0.72084
 C1757 C 0.70658 0.54883 0.73020
 C1758 C 0.73121 0.54408 0.72951
 C1759 C 0.69029 0.53303 0.74013
 N1760 N 0.66686 0.53815 0.74025
 N1761 N 0.65860 0.55793 0.73111
 C1762 C 0.67324 0.57404 0.72137
 H1763 H 0.76541 0.55680 0.71840
 H1764 H 0.75033 0.59360 0.70237
 H1765 H 0.69590 0.51670 0.74785
 H1766 H 0.66542 0.58957 0.71396
 C1767 C 0.74545 0.05612 0.21742
 C1768 C 0.73563 0.07652 0.20829
 C1769 C 0.71198 0.08256 0.21243
 C1770 C 0.69772 0.06725 0.22559
 C1771 C 0.70785 0.04669 0.23514
 C1772 C 0.73186 0.04113 0.23090
 C1773 C 0.69355 0.03232 0.24879
 N1774 N 0.67043 0.03776 0.25188
 N1775 N 0.66066 0.05654 0.24225
 C1776 C 0.67344 0.07137 0.22916
 H1777 H 0.76382 0.05201 0.21404
 H1778 H 0.74674 0.08795 0.19822
 H1779 H 0.70049 0.01683 0.25703
 H1780 H 0.66432 0.08595 0.22144
 C1781 C 0.23905 0.55814 0.21974
 C1782 C 0.23116 0.57911 0.21006
 C1783 C 0.20747 0.58600 0.21206
 C1784 C 0.19117 0.57100 0.22329
 C1785 C 0.19920 0.54970 0.23317
 C1786 C 0.22343 0.54343 0.23154
 C1787 C 0.18267 0.53553 0.24465
 N1788 N 0.15961 0.54203 0.24564
 N1789 N 0.15196 0.56173 0.23591
 C1790 C 0.16689 0.57639 0.22474
 H1791 H 0.25757 0.55345 0.21823
 H1792 H 0.24377 0.59037 0.20144
 H1793 H 0.18786 0.51949 0.25302
 H1794 H 0.15956 0.59193 0.21693
 C1795 C 0.21363 0.05052 0.73456
 C1796 C 0.20598 0.07236 0.72659
 C1797 C 0.22172 0.08808 0.71600
 C1798 C 0.24591 0.08160 0.71384
 C1799 C 0.25339 0.05884 0.72106
 C1800 C 0.23720 0.04350 0.73199
 C1801 C 0.27693 0.05213 0.71703
 N1802 N 0.29239 0.06790 0.70794
 N1803 N 0.28580 0.08982 0.70247
 C1804 C 0.26317 0.09724 0.70518
 H1805 H 0.20105 0.03898 0.74293
 H1806 H 0.18744 0.07680 0.72841
 H1807 H 0.28315 0.03452 0.72106
 H1808 H 0.25910 0.11540 0.70093
 C1809 C 0.27763 0.55531 0.26505
 C1810 C 0.28490 0.57766 0.27235
 C1811 C 0.26957 0.59204 0.28455
 C1812 C 0.24610 0.58390 0.28881
 C1813 C 0.23908 0.56079 0.28208
 C1814 C 0.25491 0.54662 0.26985
 C1815 C 0.21632 0.55255 0.28786
 N1816 N 0.20112 0.56714 0.29843
 N1817 N 0.20722 0.58932 0.30371
 C1818 C 0.22911 0.59823 0.29921
 H1819 H 0.28984 0.54467 0.25557
 H1820 H 0.30286 0.58350 0.26889
 H1821 H 0.21053 0.53465 0.28409
 H1822 H 0.23280 0.61653 0.30345
 C1823 C 0.25437 0.05856 0.77942
 C1824 C 0.26282 0.07999 0.78776
 C1825 C 0.28700 0.08572 0.78684
 C1826 C 0.30314 0.06907 0.77795
 C1827 C 0.29449 0.04727 0.76932
 C1828 C 0.26983 0.04217 0.76992
 C1829 C 0.31088 0.03138 0.76012
 N1830 N 0.33434 0.03675 0.76021
 N1831 N 0.34252 0.05688 0.76890
 C1832 C 0.32778 0.07316 0.77783
 H1833 H 0.23553 0.05478 0.78021
 H1834 H 0.25031 0.09241 0.79472
 H1835 H 0.30533 0.01479 0.75276
 H1836 H 0.33557 0.08892 0.78497
 C1837 C 0.78486 0.55482 0.76493
 C1838 C 0.79193 0.57665 0.77357
 C1839 C 0.77632 0.59025 0.78620
 C1840 C 0.75276 0.58187 0.78957
 C1841 C 0.74581 0.55935 0.78121
 C1842 C 0.76198 0.54591 0.76865
 C1843 C 0.72278 0.55096 0.78573
 N1844 N 0.70738 0.56481 0.79690
 N1845 N 0.71353 0.58641 0.80391
 C1846 C 0.73561 0.59544 0.80058
 H1847 H 0.79735 0.54475 0.75522
 H1848 H 0.80995 0.58272 0.77076
 H1849 H 0.71691 0.53352 0.78051
 H1850 H 0.73933 0.61326 0.80624
 C1851 C 0.75356 0.05895 0.27731
 C1852 C 0.76163 0.08045 0.28591
 C1853 C 0.78513 0.08804 0.28274
 C1854 C 0.80092 0.07339 0.27076
 C1855 C 0.79251 0.05175 0.26161
 C1856 C 0.76874 0.04443 0.26522
 C1857 C 0.80828 0.03798 0.24915
 N1858 N 0.83118 0.04499 0.24686
 N1859 N 0.83936 0.06477 0.25620
 C1860 C 0.82511 0.07911 0.26816
 H1861 H 0.73538 0.05348 0.28025
 H1862 H 0.74937 0.09130 0.29512
 H1863 H 0.80264 0.02172 0.24123
 H1864 H 0.83304 0.09452 0.27575
 C1865 C 0.71132 0.44455 0.26860
 C1866 C 0.70635 0.42201 0.27696
 C1867 C 0.72459 0.40713 0.28407
 C1868 C 0.74844 0.41512 0.28245
 C1869 C 0.75346 0.43823 0.27413
 C1870 C 0.73472 0.45276 0.26665
 C1871 C 0.77717 0.44613 0.27380
 N1872 N 0.79469 0.43135 0.28028
 N1873 N 0.79007 0.40930 0.28719
 C1874 C 0.76760 0.40066 0.28846
 H1875 H 0.69678 0.45556 0.26318
 H1876 H 0.68802 0.41625 0.27818
 H1877 H 0.78195 0.46390 0.26849
 H1878 H 0.76503 0.38254 0.29394
 C1879 C 0.71259 0.94642 0.77082
 C1880 C 0.70762 0.92410 0.77969
 C1881 C 0.72579 0.90970 0.78776
 C1882 C 0.74952 0.91811 0.78696
 C1883 C 0.75457 0.94089 0.77792
 C1884 C 0.73595 0.95479 0.76925
 C1885 C 0.77818 0.94909 0.77798
 N1886 N 0.79559 0.93494 0.78577
 N1887 N 0.79097 0.91325 0.79358
 C1888 C 0.76858 0.90433 0.79440
 H1889 H 0.69815 0.95700 0.76453
 H1890 H 0.68936 0.91804 0.78035
 H1891 H 0.78294 0.96660 0.77194
 H1892 H 0.76599 0.88652 0.80073
 C1893 C 0.24545 0.43806 0.77207
 C1894 C 0.23814 0.41683 0.78185
 C1895 C 0.21403 0.41116 0.78390
 C1896 C 0.19686 0.42750 0.77631
 C1897 C 0.20431 0.44905 0.76620
 C1898 C 0.22886 0.45430 0.76410
 C1899 C 0.18682 0.46461 0.75834
 N1900 N 0.16356 0.45920 0.76111
 N1901 N 0.15658 0.43933 0.77122
 C1902 C 0.17238 0.42337 0.77897
 H1903 H 0.26424 0.44196 0.77085
 H1904 H 0.25145 0.40460 0.78771
 H1905 H 0.19136 0.48095 0.74990
 H1906 H 0.16556 0.40783 0.78738
 C1907 C 0.24599 0.94207 0.27831
 C1908 C 0.23767 0.92144 0.28854
 C1909 C 0.21356 0.91524 0.28798
 C1910 C 0.19743 0.93051 0.27714
 C1911 C 0.20603 0.95119 0.26628
 C1912 C 0.23047 0.95708 0.26715
 C1913 C 0.18980 0.96538 0.25479
 N1914 N 0.16640 0.95977 0.25513
 N1915 N 0.15816 0.94098 0.26615
 C1916 C 0.17280 0.92626 0.27724
 H1917 H 0.26470 0.94644 0.27919
 H1918 H 0.25024 0.91006 0.29678
 H1919 H 0.19546 0.98084 0.24553
 H1920 H 0.16491 0.91171 0.28630
 C1921 C 0.44165 0.28515 0.72871
 C1922 C 0.42174 0.29400 0.71827
 C1923 C 0.41588 0.28688 0.69699
 C1924 C 0.43102 0.27065 0.68596
 C1925 C 0.45035 0.26035 0.69730
 C1926 C 0.45583 0.26795 0.71877
 C1927 C 0.46391 0.24299 0.68658
 N1928 N 0.45946 0.23762 0.66539
 N1929 N 0.44246 0.24850 0.65424
 C1930 C 0.42829 0.26495 0.66369
 H1931 H 0.44618 0.29213 0.74460
 H1932 H 0.41082 0.30659 0.72702
 H1933 H 0.47807 0.23372 0.69479
 H1934 H 0.41565 0.27386 0.65342
 C1935 C 0.43693 0.78214 0.23342
 C1936 C 0.41682 0.79061 0.22313
 C1937 C 0.41273 0.78638 0.20084
 C1938 C 0.43006 0.77361 0.18873
 C1939 C 0.44942 0.76302 0.19984
 C1940 C 0.45298 0.76762 0.22239
 C1941 C 0.46486 0.74843 0.18785
 N1942 N 0.46233 0.74638 0.16592
 N1943 N 0.44546 0.75797 0.15521
 C1944 C 0.42945 0.77168 0.16580
 H1945 H 0.43996 0.78719 0.25019
 H1946 H 0.40437 0.80057 0.23291
 H1947 H 0.47900 0.73875 0.19567
 H1948 H 0.41709 0.78157 0.15602
 C1949 C 0.94102 0.28238 0.22941
 C1950 C 0.92205 0.29265 0.21860
 C1951 C 0.91907 0.28999 0.19595
 C1952 C 0.93608 0.27647 0.18413
 C1953 C 0.95382 0.26382 0.19567
 C1954 C 0.95681 0.26749 0.21844
 C1955 C 0.96848 0.24827 0.18385
 N1956 N 0.96711 0.24742 0.16175
 N1957 N 0.95214 0.26111 0.15074
 C1958 C 0.93684 0.27579 0.16112
 H1959 H 0.94353 0.28660 0.24644
 H1960 H 0.90977 0.30300 0.22822
 H1961 H 0.98112 0.23691 0.19195
 H1962 H 0.92624 0.28740 0.15117
 C1963 C 0.94038 0.78353 0.73239
 C1964 C 0.92114 0.79318 0.72144
 C1965 C 0.91640 0.78727 0.69961
 C1966 C 0.93190 0.77138 0.68859
 C1967 C 0.95044 0.76024 0.70034
 C1968 C 0.95496 0.76676 0.72231
 C1969 C 0.96423 0.74311 0.68952
 N1970 N 0.96083 0.73884 0.66797
 N1971 N 0.94464 0.75058 0.65652
 C1972 C 0.93027 0.76683 0.66600
 H1973 H 0.94410 0.78960 0.74877
 H1974 H 0.90988 0.80544 0.73020
 H1975 H 0.97773 0.73314 0.69797
 H1976 H 0.91833 0.77646 0.65557
 C1977 C 0.55788 0.28819 0.27226
 C1978 C 0.58058 0.29271 0.28012
 C1979 C 0.59447 0.27437 0.28881
 C1980 C 0.58504 0.25085 0.28950
 C1981 C 0.56160 0.24644 0.28208
 C1982 C 0.54825 0.26519 0.27287
 C1983 C 0.55227 0.22326 0.28403
 N1984 N 0.56601 0.20545 0.29172
 N1985 N 0.58838 0.20930 0.29766
 C1986 C 0.59839 0.23132 0.29674
 H1987 H 0.54787 0.30270 0.26526
 H1988 H 0.58733 0.31080 0.27945
 H1989 H 0.53419 0.21917 0.27950
 H1990 H 0.61675 0.23314 0.30135
 C1991 C 0.56256 0.75187 0.78361
 C1992 C 0.58438 0.75843 0.79247
 C1993 C 0.59135 0.78241 0.79351
 C1994 C 0.57546 0.80021 0.78617
 C1995 C 0.55375 0.79346 0.77626
 C1996 C 0.54721 0.76907 0.77519
 C1997 C 0.53930 0.81146 0.76757
 N1998 N 0.54547 0.83465 0.77005
 N1999 N 0.56511 0.84105 0.78056
 C2000 C 0.58020 0.82469 0.78881
 H2001 H 0.55769 0.73319 0.78309
 H2002 H 0.59616 0.74459 0.79811
 H2003 H 0.52316 0.80737 0.75883
 H2004 H 0.59544 0.83109 0.79771
 C2005 C 0.05289 0.28443 0.77548
 C2006 C 0.07549 0.29001 0.78301
 C2007 C 0.09062 0.27224 0.79085
 C2008 C 0.08255 0.24824 0.79116
 C2009 C 0.05927 0.24268 0.78393
 C2010 C 0.04471 0.26087 0.77538
 C2011 C 0.05130 0.21897 0.78547
 N2012 N 0.06616 0.20180 0.79262
 N2013 N 0.08836 0.20680 0.79842
 C2014 C 0.09709 0.22935 0.79785
 H2015 H 0.04188 0.29856 0.76916
 H2016 H 0.08120 0.30847 0.78274
 H2017 H 0.03344 0.21392 0.78098
 H2018 H 0.11536 0.23214 0.80237
 C2019 C 0.04985 0.78753 0.28110
 C2020 C 0.07188 0.79389 0.28953
 C2021 C 0.08848 0.77654 0.29529
 C2022 C 0.08241 0.75211 0.29286
 C2023 C 0.05970 0.74569 0.28476
 C2024 C 0.04379 0.76360 0.27794
 C2025 C 0.05370 0.72141 0.28349
 N2026 N 0.06990 0.70469 0.28878
 N2027 N 0.09162 0.71066 0.29533
 C2028 C 0.09846 0.73374 0.29746
 H2029 H 0.03779 0.80143 0.27612
 H2030 H 0.07611 0.81263 0.29134
 H2031 H 0.03632 0.71559 0.27821
 H2032 H 0.11644 0.73736 0.30244
 C2033 C 0.56028 0.75365 0.72701
 C2034 C 0.58113 0.74564 0.71735
 C2035 C 0.58608 0.72126 0.71616
 C2036 C 0.56900 0.70458 0.72407
 C2037 C 0.54830 0.71279 0.73481
 C2038 C 0.54392 0.73756 0.73614
 C2039 C 0.53272 0.69582 0.74406
 N2040 N 0.53681 0.67228 0.74134
 N2041 N 0.55543 0.66456 0.73007
 C2042 C 0.57154 0.67985 0.72125
 H2043 H 0.55708 0.77262 0.72774
 H2044 H 0.59378 0.75866 0.71122
 H2045 H 0.51733 0.70097 0.75341
 H2046 H 0.58582 0.67244 0.71174
 C2047 C 0.56132 0.25379 0.22391
 C2048 C 0.58214 0.24519 0.21468
 C2049 C 0.58579 0.22069 0.21239
 C2050 C 0.56737 0.20458 0.21848
 C2051 C 0.54655 0.21328 0.22869
 C2052 C 0.54364 0.23815 0.23152
 C2053 C 0.52949 0.19665 0.23604
 N2054 N 0.53245 0.17313 0.23214
 N2055 N 0.55131 0.16509 0.22143
 C2056 C 0.56876 0.17997 0.21437
 H2057 H 0.55921 0.27284 0.22564
 H2058 H 0.59583 0.25781 0.20989
 H2059 H 0.51384 0.20201 0.24491
 H2060 H 0.58325 0.17239 0.20525
 C2061 C 0.05220 0.71974 0.23060
 C2062 C 0.07494 0.71394 0.22375
 C2063 C 0.09191 0.73172 0.21935
 C2064 C 0.08550 0.75598 0.22155
 C2065 C 0.06206 0.76183 0.22791
 C2066 C 0.04569 0.74350 0.23335
 C2067 C 0.05578 0.78596 0.22880
 N2068 N 0.07232 0.80308 0.22486
 N2069 N 0.09464 0.79765 0.22000
 C2070 C 0.10182 0.77474 0.21831
 H2071 H 0.03984 0.70551 0.23461
 H2072 H 0.07932 0.69531 0.22195
 H2073 H 0.03790 0.79134 0.23272
 H2074 H 0.12027 0.77153 0.21476
 C2075 C 0.04638 0.21134 0.73279
 C2076 C 0.06759 0.20328 0.72394
 C2077 C 0.08416 0.21927 0.71494
 C2078 C 0.07920 0.24401 0.71500
 C2079 C 0.05735 0.25211 0.72360
 C2080 C 0.04121 0.23565 0.73312
 C2081 C 0.05236 0.27656 0.72244
 N2082 N 0.06877 0.29196 0.71429
 N2083 N 0.08975 0.28452 0.70715
 C2084 C 0.09556 0.26114 0.70730
 H2085 H 0.03413 0.19855 0.73995
 H2086 H 0.07101 0.18433 0.72394
 H2087 H 0.03560 0.28356 0.72801
 H2088 H 0.11303 0.25632 0.70169
 C2089 C 0.43816 0.71871 0.25494
 C2090 C 0.41654 0.71150 0.26400
 C2091 C 0.40610 0.72427 0.28120
 C2092 C 0.41749 0.74543 0.28868
 C2093 C 0.44033 0.75158 0.28065
 C2094 C 0.45040 0.73838 0.26333
 C2095 C 0.45206 0.77145 0.28969
 N2096 N 0.44086 0.78518 0.30461
 N2097 N 0.41876 0.78043 0.31100
 C2098 C 0.40662 0.76127 0.30337
 H2099 H 0.44568 0.70855 0.24162
 H2100 H 0.40822 0.69546 0.25780
 H2101 H 0.46973 0.77658 0.28457
 H2102 H 0.38837 0.75918 0.30835
 C2103 C 0.44279 0.22051 0.75394
 C2104 C 0.42124 0.21360 0.76324
 C2105 C 0.41018 0.22759 0.77928
 C2106 C 0.42106 0.24953 0.78541
 C2107 C 0.44385 0.25556 0.77711
 C2108 C 0.45442 0.24117 0.76089
 C2109 C 0.45509 0.27631 0.78486
 N2110 N 0.44348 0.29094 0.79876
 N2111 N 0.42143 0.28622 0.80533
 C2112 C 0.40976 0.26622 0.79896
 H2113 H 0.45070 0.20942 0.74146
 H2114 H 0.41342 0.19688 0.75810
 H2115 H 0.47276 0.28132 0.77958
 H2116 H 0.39154 0.26410 0.80401
 C2117 C 0.94028 0.71872 0.75685
 C2118 C 0.91897 0.71171 0.76658
 C2119 C 0.90875 0.72510 0.78350
 C2120 C 0.92008 0.74668 0.78999
 C2121 C 0.94254 0.75290 0.78104
 C2122 C 0.95241 0.73897 0.76412
 C2123 C 0.95422 0.77330 0.78901
 N2124 N 0.94335 0.78740 0.80386
 N2125 N 0.92163 0.78247 0.81119
 C2126 C 0.90956 0.76279 0.80462
 H2127 H 0.94768 0.70795 0.74388
 H2128 H 0.91075 0.69529 0.76116
 H2129 H 0.97165 0.77846 0.78321
 H2130 H 0.89162 0.76046 0.81043
 C2131 C 0.94102 0.22000 0.25274
 C2132 C 0.91962 0.21337 0.26254
 C2133 C 0.91011 0.22644 0.28003
 C2134 C 0.92236 0.24728 0.28712
 C2135 C 0.94495 0.25295 0.27816
 C2136 C 0.95401 0.23945 0.26053
 C2137 C 0.95746 0.27263 0.28661
 N2138 N 0.94730 0.28656 0.30201
 N2139 N 0.92549 0.28220 0.30940
 C2140 C 0.91260 0.26326 0.30233
 H2141 H 0.94779 0.20954 0.23926
 H2142 H 0.91072 0.19751 0.25664
 H2143 H 0.97497 0.27741 0.28074
 H2144 H 0.89463 0.26148 0.30817
 C2145 C 0.25925 0.28154 0.54292
 C2146 C 0.26636 0.29052 0.56307
 C2147 C 0.27489 0.27542 0.57954
 C2148 C 0.27590 0.25052 0.57539
 C2149 C 0.27045 0.24174 0.55424
 C2150 C 0.26105 0.25724 0.53822
 C2151 C 0.27442 0.21755 0.54985
 N2152 N 0.28099 0.20270 0.56619
 N2153 N 0.28405 0.21050 0.58652
 C2154 C 0.28157 0.23381 0.59171
 H2155 H 0.25209 0.29367 0.53088
 H2156 H 0.26541 0.30954 0.56565
 H2157 H 0.27213 0.21033 0.53362
 H2158 H 0.28350 0.23884 0.60863
 C2159 C 0.25283 0.78334 0.04654
 C2160 C 0.26011 0.79171 0.06691
 C2161 C 0.27169 0.77673 0.08180
 C2162 C 0.27543 0.75253 0.07594
 C2163 C 0.26984 0.74473 0.05453
 C2164 C 0.25760 0.75997 0.04011
 C2165 C 0.27652 0.72167 0.04828
 N2166 N 0.28589 0.70662 0.06323
 N2167 N 0.28911 0.71318 0.08391
 C2168 C 0.28400 0.73549 0.09081
 H2169 H 0.24338 0.79518 0.03567
 H2170 H 0.25694 0.81018 0.07091
 H2171 H 0.27398 0.71536 0.03175
 H2172 H 0.28614 0.73938 0.10796
 C2173 C 0.75206 0.28419 0.04827
 C2174 C 0.76121 0.29267 0.06793
 C2175 C 0.77988 0.28095 0.07848
 C2176 C 0.78902 0.25978 0.06900
 C2177 C 0.78103 0.25246 0.04810
 C2178 C 0.76188 0.26428 0.03813
 C2179 C 0.79229 0.23317 0.03796
 N2180 N 0.80884 0.22061 0.04897
 N2181 N 0.81484 0.22612 0.06937
 C2182 C 0.80535 0.24508 0.07983
 H2183 H 0.73727 0.29329 0.04083
 H2184 H 0.75377 0.30873 0.07475
 H2185 H 0.78785 0.22781 0.02149
 H2186 H 0.81021 0.24795 0.09666
 C2187 C 0.75640 0.78398 0.54577
 C2188 C 0.76402 0.79271 0.56589
 C2189 C 0.77588 0.77801 0.58085
 C2190 C 0.77950 0.75371 0.57529
 C2191 C 0.77380 0.74562 0.55400
 C2192 C 0.76121 0.76056 0.53956
 C2193 C 0.78084 0.72264 0.54785
 N2194 N 0.79037 0.70781 0.56289
 N2195 N 0.79347 0.71454 0.58354
 C2196 C 0.78814 0.73685 0.59030
 H2197 H 0.74677 0.79564 0.53488
 H2198 H 0.76089 0.81125 0.56956
 H2199 H 0.77840 0.71623 0.53134
 H2200 H 0.79013 0.74088 0.60743
 C2201 C 0.26123 0.72099 0.44695
 C2202 C 0.26917 0.71038 0.42774
 C2203 C 0.29342 0.70936 0.42279
 C2204 C 0.31001 0.71854 0.43806
 C2205 C 0.30184 0.73084 0.45679
 C2206 C 0.27720 0.73171 0.46147
 C2207 C 0.31874 0.74218 0.47012
 N2208 N 0.34218 0.73941 0.46613
 N2209 N 0.34987 0.72617 0.44960
 C2210 C 0.33463 0.71554 0.43552
 H2211 H 0.24239 0.72109 0.45038
 H2212 H 0.25616 0.70334 0.41645
 H2213 H 0.31355 0.75346 0.48346
 H2214 H 0.34196 0.70448 0.42282
 C2215 C 0.26254 0.22044 0.94478
 C2216 C 0.27094 0.21063 0.92537
 C2217 C 0.29520 0.21099 0.92033
 C2218 C 0.31139 0.22063 0.93571
 C2219 C 0.30269 0.23199 0.95474
 C2220 C 0.27805 0.23157 0.95946
 C2221 C 0.31904 0.24384 0.96825
 N2222 N 0.34258 0.24245 0.96411
 N2223 N 0.35087 0.23010 0.94724
 C2224 C 0.33613 0.21906 0.93298
 H2225 H 0.24371 0.21969 0.94822
 H2226 H 0.25827 0.20316 0.91397
 H2227 H 0.31329 0.25456 0.98179
 H2228 H 0.34396 0.20881 0.91997
 C2229 C 0.76230 0.71480 0.94917
 C2230 C 0.77199 0.70484 0.93040
 C2231 C 0.79652 0.70533 0.92662
 C2232 C 0.81161 0.71540 0.94275
 C2233 C 0.80162 0.72661 0.96140
 C2234 C 0.77668 0.72622 0.96461
 C2235 C 0.81704 0.73814 0.97609
 N2236 N 0.84080 0.73702 0.97308
 N2237 N 0.85020 0.72522 0.95636
 C2238 C 0.83647 0.71428 0.94121
 H2239 H 0.74328 0.71394 0.95151
 H2240 H 0.76005 0.69716 0.91847
 H2241 H 0.81052 0.74811 0.98989
 H2242 H 0.84521 0.70443 0.92843
 C2243 C 0.76385 0.21417 0.44635
 C2244 C 0.77295 0.20468 0.42710
 C2245 C 0.79740 0.20476 0.42293
 C2246 C 0.81304 0.21371 0.43915
 C2247 C 0.80371 0.22445 0.45830
 C2248 C 0.77882 0.22464 0.46188
 C2249 C 0.81972 0.23503 0.47306
 N2250 N 0.84338 0.23340 0.46961
 N2251 N 0.85214 0.22198 0.45239
 C2252 C 0.83783 0.21199 0.43714
 H2253 H 0.74486 0.21383 0.44894
 H2254 H 0.76064 0.19778 0.41509
 H2255 H 0.81375 0.24472 0.48724
 H2256 H 0.84605 0.20241 0.42390
 C2257 C 0.72045 0.26171 0.45242
 C2258 C 0.71273 0.26887 0.43184
 C2259 C 0.72857 0.27865 0.41646
 C2260 C 0.75291 0.28096 0.42213
 C2261 C 0.76039 0.27509 0.44361
 C2262 C 0.74418 0.26452 0.45855
 C2263 C 0.78402 0.27989 0.44943
 N2264 N 0.79961 0.28791 0.43416
 N2265 N 0.79308 0.29160 0.41354
 C2266 C 0.77037 0.28826 0.40698
 H2267 H 0.70780 0.25369 0.46365
 H2268 H 0.69410 0.26689 0.42799
 H2269 H 0.79023 0.27719 0.46594
 H2270 H 0.76643 0.29082 0.38989
 C2271 C 0.71770 0.76031 0.95270
 C2272 C 0.71044 0.76770 0.93204
 C2273 C 0.72612 0.77959 0.91783
 C2274 C 0.74989 0.78361 0.92460
 C2275 C 0.75693 0.77700 0.94603
 C2276 C 0.74083 0.76471 0.95994
 C2277 C 0.77997 0.78298 0.95288
 N2278 N 0.79544 0.79323 0.93864
 N2279 N 0.78935 0.79803 0.91810
 C2280 C 0.76720 0.79349 0.91057
 H2281 H 0.70518 0.75091 0.96314
 H2282 H 0.69225 0.76438 0.92726
 H2283 H 0.78582 0.77957 0.96939
 H2284 H 0.76360 0.79722 0.89360
 C2285 C 0.21947 0.26741 0.95301
 C2286 C 0.21092 0.27415 0.93259
 C2287 C 0.22596 0.28445 0.91681
 C2288 C 0.25033 0.28784 0.92192
 C2289 C 0.25860 0.28234 0.94321
 C2290 C 0.24325 0.27116 0.95851
 C2291 C 0.28219 0.28804 0.94848
 N2292 N 0.29705 0.29665 0.93286
 N2293 N 0.28982 0.30006 0.91240
 C2294 C 0.26707 0.29581 0.90637
 H2295 H 0.20750 0.25885 0.96453
 H2296 H 0.19229 0.27136 0.92914
 H2297 H 0.28891 0.28564 0.96485
 H2298 H 0.26259 0.29820 0.88938
 C2299 C 0.21838 0.76801 0.45535
 C2300 C 0.20958 0.77546 0.43522
 C2301 C 0.22441 0.78639 0.41966
 C2302 C 0.24884 0.78958 0.42457
 C2303 C 0.25748 0.78305 0.44551
 C2304 C 0.24226 0.77147 0.46070
 C2305 C 0.28124 0.78827 0.45054
 N2306 N 0.29582 0.79760 0.43505
 N2307 N 0.28817 0.80220 0.41492
 C2308 C 0.26528 0.79840 0.40912
 H2309 H 0.20651 0.75916 0.46677
 H2310 H 0.19092 0.77278 0.43185
 H2311 H 0.28835 0.78496 0.46665
 H2312 H 0.26040 0.80187 0.39238
 C2313 C 0.72767 0.70562 0.54845
 C2314 C 0.71792 0.69830 0.56830
 C2315 C 0.69960 0.71114 0.57832
 C2316 C 0.69017 0.73117 0.56709
 C2317 C 0.70143 0.73961 0.54773
 C2318 C 0.72058 0.72687 0.53864
 C2319 C 0.69267 0.76027 0.53764
 N2320 N 0.67311 0.77096 0.54576
 N2321 N 0.66166 0.76226 0.56312
 C2322 C 0.66933 0.74265 0.57388
 H2323 H 0.74139 0.69495 0.54103
 H2324 H 0.72523 0.68265 0.57602
 H2325 H 0.70095 0.76778 0.52318
 H2326 H 0.65848 0.73582 0.58704
 C2327 C 0.70777 0.23928 0.05323
 C2328 C 0.70140 0.23151 0.07409
 C2329 C 0.71269 0.21203 0.08393
 C2330 C 0.73124 0.20052 0.07230
 C2331 C 0.73619 0.20720 0.05036
 C2332 C 0.72496 0.22726 0.04115
 C2333 C 0.75271 0.19382 0.03843
 N2334 N 0.76508 0.17639 0.04849
 N2335 N 0.76199 0.17150 0.06961
 C2336 C 0.74573 0.18311 0.08190
 H2337 H 0.69913 0.25473 0.04636
 H2338 H 0.68730 0.24076 0.08249
 H2339 H 0.75619 0.19736 0.02133
 H2340 H 0.74494 0.17908 0.09913
 C2341 C 0.22286 0.70562 0.04867
 C2342 C 0.21400 0.69870 0.06897
 C2343 C 0.19739 0.71270 0.08013
 C2344 C 0.18850 0.73343 0.06961
 C2345 C 0.19881 0.74124 0.04961
 C2346 C 0.21643 0.72738 0.03941
 C2347 C 0.19069 0.76248 0.04013
 N2348 N 0.17259 0.77444 0.04955
 N2349 N 0.16199 0.76646 0.06765
 C2350 C 0.16914 0.74630 0.07784
 H2351 H 0.23561 0.69435 0.04054
 H2352 H 0.22080 0.68256 0.07622
 H2353 H 0.19830 0.76947 0.02515
 H2354 H 0.15899 0.74018 0.09176
 C2355 C 0.21102 0.23747 0.55254
 C2356 C 0.20196 0.22858 0.57214
 C2357 C 0.20186 0.20408 0.57654
 C2358 C 0.21012 0.18812 0.56030
 C2359 C 0.22024 0.19723 0.54071
 C2360 C 0.22073 0.22219 0.53690
 C2361 C 0.22997 0.18097 0.52572
 N2362 N 0.22821 0.15725 0.52953
 N2363 N 0.21745 0.14867 0.54731
 C2364 C 0.20826 0.16324 0.56273
 H2365 H 0.21092 0.25651 0.54974
 H2366 H 0.19555 0.24106 0.58421
 H2367 H 0.23908 0.18679 0.51107
 H2368 H 0.19922 0.15515 0.57647
   
