data_POSCAR
  _audit_creation_date              2014-09-24
  _audit_creation_method            'ToBaCCo'
  _symmetry_space_group_name_H-M    'P1'
  _symmetry_Int_Tables_number       1
  _symmetry_cell_setting            triclinic
  loop_
  _symmetry_equiv_pos_as_xyz
 x,y,z
_cell_length_a 65.6455
_cell_length_b 73.6644
_cell_length_c 78.0814
_cell_angle_alpha 89.048900
_cell_angle_beta 89.145700
_cell_angle_gamma 88.825500
loop_
  _atom_site_label
  _atom_site_type_symbol
  _atom_site_fract_x
  _atom_site_fract_y
  _atom_site_fract_z
N1 N 0.18044 0.22114 0.21811
 N2 N 0.18807 0.20748 0.22713
 C3 C 0.17715 0.20566 0.24180
 C4 C 0.16189 0.21891 0.24182
 C5 C 0.16441 0.22843 0.22663
 H6 H 0.18001 0.19546 0.25162
 H7 H 0.15526 0.23989 0.22217
 Cu8 Cu 0.21136 0.19342 0.21860
 Cu9 Cu 0.19188 0.22870 0.19613
 Cu10 Cu 0.23370 0.20421 0.18074
 N11 N 0.23464 0.17961 0.20976
 N12 N 0.24342 0.18394 0.19504
 C13 C 0.25896 0.17215 0.19198
 C14 C 0.25988 0.15977 0.20544
 C15 C 0.24425 0.16491 0.21652
 H16 H 0.26875 0.17242 0.18072
 H17 H 0.24011 0.15844 0.22856
 N18 N 0.22147 0.22518 0.16826
 N19 N 0.20548 0.23439 0.17420
 C20 C 0.20066 0.24780 0.16299
 C21 C 0.21416 0.24702 0.14935
 C22 C 0.22721 0.23252 0.15304
 H23 H 0.18823 0.25751 0.16458
 H24 H 0.23992 0.22773 0.14528
 H25 H 0.20398 0.20350 0.18944
 H26 H 0.22131 0.21913 0.20054
 N27 N 0.67375 0.73482 0.72592
 N28 N 0.67930 0.72115 0.73593
 C29 C 0.66793 0.72157 0.75043
 C30 C 0.65457 0.73631 0.74935
 C31 C 0.65866 0.74439 0.73365
 H32 H 0.66916 0.71182 0.76087
 H33 H 0.65112 0.75630 0.72824
 Cu34 Cu 0.70059 0.70404 0.72887
 Cu35 Cu 0.68642 0.73908 0.70363
 Cu36 Cu 0.72421 0.70855 0.69036
 N37 N 0.72130 0.68674 0.72116
 N38 N 0.73073 0.68851 0.70625
 C39 C 0.74426 0.67460 0.70442
 C40 C 0.74306 0.66360 0.71896
 C41 C 0.72838 0.67169 0.72922
 H42 H 0.75401 0.67255 0.69330
 H43 H 0.72326 0.66686 0.74168
 N44 N 0.71524 0.72980 0.67628
 N45 N 0.70085 0.74130 0.68153
 C46 C 0.69798 0.75423 0.66943
 C47 C 0.71105 0.75081 0.65590
 C48 C 0.72187 0.73520 0.66057
 H49 H 0.68709 0.76541 0.67030
 H50 H 0.73362 0.72833 0.65313
 H51 H 0.69470 0.71214 0.69894
 H52 H 0.71439 0.72646 0.70874
 N53 N 0.32379 0.76922 0.72670
 N54 N 0.32151 0.78558 0.73298
 C55 C 0.33298 0.78686 0.74702
 C56 C 0.34301 0.77036 0.74963
 C57 C 0.33685 0.75950 0.73651
 H58 H 0.33392 0.79891 0.75465
 H59 H 0.34160 0.74558 0.73426
 Cu60 Cu 0.30387 0.80365 0.72222
 Cu61 Cu 0.30990 0.76210 0.70612
 Cu62 Cu 0.27256 0.79172 0.69057
 N63 N 0.28028 0.81834 0.71607
 N64 N 0.26782 0.81378 0.70390
 C65 C 0.25252 0.82628 0.70298
 C66 C 0.25572 0.83923 0.71533
 C67 C 0.27344 0.83375 0.72331
 H68 H 0.24002 0.82583 0.69414
 H69 H 0.28067 0.84038 0.73381
 N70 N 0.28014 0.76855 0.67931
 N71 N 0.29432 0.75735 0.68545
 C72 C 0.29661 0.74312 0.67502
 C73 C 0.28332 0.74535 0.66166
 C74 C 0.27301 0.76162 0.66470
 H75 H 0.30745 0.73202 0.67677
 H76 H 0.26152 0.76806 0.65676
 H77 H 0.30305 0.78764 0.69526
 H78 H 0.28451 0.77867 0.71164
 N79 N 0.83165 0.27336 0.23659
 N80 N 0.82676 0.28921 0.24314
 C81 C 0.83865 0.29220 0.25660
 C82 C 0.85160 0.27744 0.25877
 C83 C 0.84684 0.26561 0.24582
 H84 H 0.83789 0.30416 0.26444
 H85 H 0.85374 0.25244 0.24333
 Cu86 Cu 0.80498 0.30447 0.23403
 Cu87 Cu 0.81724 0.26421 0.21689
 Cu88 Cu 0.78175 0.29359 0.19771
 N89 N 0.78369 0.31979 0.22431
 N90 N 0.77440 0.31559 0.21016
 C91 C 0.76042 0.32872 0.20645
 C92 C 0.76125 0.34179 0.21897
 C93 C 0.77615 0.33571 0.22999
 H94 H 0.75063 0.32882 0.19543
 H95 H 0.78110 0.34251 0.24133
 N96 N 0.79128 0.27062 0.18733
 N97 N 0.80467 0.25943 0.19462
 C98 C 0.80833 0.24530 0.18418
 C99 C 0.79663 0.24765 0.16973
 C100 C 0.78601 0.26385 0.17214
 H101 H 0.81895 0.23420 0.18677
 H102 H 0.77547 0.27038 0.16339
 H103 H 0.81126 0.28984 0.20682
 H104 H 0.78995 0.27917 0.21921
 N105 N 0.81841 0.72615 0.27372
 N106 N 0.81416 0.71226 0.26411
 C107 C 0.82639 0.71253 0.25007
 C108 C 0.83892 0.72737 0.25102
 C109 C 0.83343 0.73567 0.26616
 H110 H 0.82626 0.70262 0.24002
 H111 H 0.84000 0.74773 0.27132
 Cu112 Cu 0.79325 0.69508 0.27111
 Cu113 Cu 0.80438 0.73096 0.29541
 Cu114 Cu 0.76682 0.70100 0.30777
 N115 N 0.77165 0.67855 0.27812
 N116 N 0.76167 0.68103 0.29265
 C117 C 0.74792 0.66793 0.29486
 C118 C 0.74919 0.65662 0.28103
 C119 C 0.76442 0.66368 0.27054
 H120 H 0.73765 0.66668 0.30576
 H121 H 0.76987 0.65836 0.25846
 N122 N 0.77405 0.72195 0.32147
 N123 N 0.78839 0.73343 0.31689
 C124 C 0.78948 0.74630 0.32894
 C125 C 0.77508 0.74263 0.34159
 C126 C 0.76564 0.72718 0.33644
 H127 H 0.79982 0.75754 0.32846
 H128 H 0.75341 0.72034 0.34317
 H129 H 0.79714 0.70444 0.30071
 H130 H 0.77784 0.71864 0.28896
 N131 N 0.31999 0.22130 -0.22127
 N132 N 0.31691 0.20623 -0.22958
 C133 C 0.32868 0.20610 -0.24388
 C134 C 0.33975 0.22195 -0.24444
 C135 C 0.33380 0.23124 -0.22994
 H136 H 0.32927 0.19523 -0.25302
 H137 H 0.33941 0.24415 -0.22584
 Cu138 Cu 0.29789 0.18819 -0.22085
 Cu139 Cu 0.30690 0.22666 -0.19936
 Cu140 Cu 0.27767 0.19259 -0.18131
 N141 N 0.27672 0.17205 -0.21219
 N142 N 0.26905 0.17398 -0.19667
 C143 C 0.25515 0.16117 -0.19359
 C144 C 0.25390 0.15063 -0.20793
 C145 C 0.26781 0.15786 -0.21958
 H146 H 0.24651 0.15963 -0.18176
 H147 H 0.27119 0.15317 -0.23238
 N148 N 0.28191 0.21583 -0.17017
 N149 N 0.29262 0.22906 -0.17713
 C150 C 0.29199 0.24335 -0.16653
 C151 C 0.28017 0.23879 -0.15234
 C152 C 0.27401 0.22133 -0.15510
 H153 H 0.29939 0.25611 -0.16903
 H154 H 0.26424 0.21332 -0.14680
 H155 H 0.30571 0.20008 -0.19259
 H156 H 0.28188 0.21020 -0.20190
 N157 N 0.67683 0.27395 -0.22578
 N158 N 0.68176 0.28878 -0.23435
 C159 C 0.67072 0.28988 -0.24881
 C160 C 0.65830 0.27488 -0.24917
 C161 C 0.66266 0.26510 -0.23442
 H162 H 0.67161 0.30077 -0.25823
 H163 H 0.65574 0.25257 -0.23018
 Cu164 Cu 0.70205 0.30513 -0.22552
 Cu165 Cu 0.68827 0.26737 -0.20366
 Cu166 Cu 0.72461 0.29564 -0.18781
 N167 N 0.72340 0.32039 -0.21672
 N168 N 0.73194 0.31653 -0.20194
 C169 C 0.74598 0.32900 -0.19873
 C170 C 0.74637 0.34134 -0.21217
 C171 C 0.73184 0.33553 -0.22344
 H172 H 0.75533 0.32910 -0.18745
 H173 H 0.72774 0.34182 -0.23555
 N174 N 0.71524 0.27385 -0.17537
 N175 N 0.70149 0.26297 -0.18148
 C176 C 0.69822 0.24940 -0.17006
 C177 C 0.71046 0.25188 -0.15612
 C178 C 0.72109 0.26750 -0.15989
 H179 H 0.68760 0.23855 -0.17163
 H180 H 0.73218 0.27381 -0.15195
 H181 H 0.69523 0.29340 -0.19661
 H182 H 0.71566 0.28010 -0.20804
 N183 N 0.17916 0.76826 0.27821
 N184 N 0.18479 0.78297 0.26979
 C185 C 0.17365 0.78475 0.25543
 C186 C 0.16044 0.77032 0.25498
 C187 C 0.16438 0.76020 0.26958
 H188 H 0.17508 0.79562 0.24604
 H189 H 0.15695 0.74785 0.27362
 Cu190 Cu 0.20627 0.79809 0.27856
 Cu191 Cu 0.19103 0.76051 0.29981
 Cu192 Cu 0.22963 0.78644 0.31551
 N193 N 0.22874 0.81208 0.28726
 N194 N 0.23763 0.80743 0.30172
 C195 C 0.25255 0.81913 0.30479
 C196 C 0.25316 0.83178 0.29157
 C197 C 0.23781 0.82694 0.28061
 H198 H 0.26238 0.81844 0.31579
 H199 H 0.23359 0.83364 0.26872
 N200 N 0.21941 0.76467 0.32760
 N201 N 0.20476 0.75475 0.32149
 C202 C 0.20123 0.74079 0.33240
 C203 C 0.21422 0.74197 0.34602
 C204 C 0.22559 0.75726 0.34261
 H205 H 0.19000 0.73047 0.33066
 H206 H 0.23747 0.76258 0.35042
 H207 H 0.19991 0.78595 0.30741
 H208 H 0.21912 0.77208 0.29516
 N209 N 0.47986 0.42470 0.47119
 N210 N 0.46495 0.43107 0.48095
 C211 C 0.46269 0.41986 0.49470
 C212 C 0.47703 0.40585 0.49332
 C213 C 0.48759 0.40940 0.47832
 H214 H 0.45166 0.42183 0.50496
 H215 H 0.50007 0.40138 0.47303
 Cu216 Cu 0.45053 0.45365 0.47462
 Cu217 Cu 0.48850 0.43641 0.44993
 Cu218 Cu 0.46334 0.47621 0.43821
 N219 N 0.43653 0.47626 0.46779
 N220 N 0.44178 0.48484 0.45353
 C221 C 0.43008 0.49990 0.45170
 C222 C 0.41679 0.50093 0.46547
 C223 C 0.42122 0.48570 0.47552
 H224 H 0.43114 0.50951 0.44111
 H225 H 0.41390 0.48182 0.48748
 N226 N 0.48558 0.46535 0.42436
 N227 N 0.49516 0.45012 0.42884
 C228 C 0.50938 0.44609 0.41681
 C229 C 0.50873 0.45940 0.40419
 C230 C 0.49347 0.47142 0.40935
 H231 H 0.51948 0.43432 0.41711
 H232 H 0.48841 0.48362 0.40266
 H233 H 0.47969 0.46246 0.45683
 H234 H 0.46080 0.44914 0.44481
 N235 N -0.02873 -0.07225 0.97815
 N236 N -0.03992 -0.06313 0.98929
 C237 C -0.04366 -0.07373 1.00310
 C238 C -0.03415 -0.09035 1.00062
 C239 C -0.02476 -0.08902 0.98464
 H240 H -0.05262 -0.06966 1.01418
 H241 H -0.01595 -0.09946 0.97814
 Cu242 Cu -0.04855 -0.03828 0.98493
 Cu243 Cu -0.02080 -0.06147 0.95602
 Cu244 Cu -0.04288 -0.01940 0.94582
 N245 N -0.06396 -0.01680 0.97821
 N246 N -0.06190 -0.00926 0.96292
 C247 C -0.07465 0.00531 0.96181
 C248 C -0.08520 0.00678 0.97728
 C249 C -0.07803 -0.00745 0.98731
 H250 H -0.07621 0.01403 0.95061
 H251 H -0.08287 -0.01082 1.00026
 N252 N -0.02318 -0.03213 0.93050
 N253 N -0.01488 -0.04814 0.93439
 C254 C -0.00196 -0.05307 0.92166
 C255 C -0.00205 -0.03956 0.90921
 C256 C -0.01568 -0.02646 0.91520
 H257 H 0.00711 -0.06549 0.92149
 H258 H -0.01971 -0.01370 0.90897
 H259 H -0.02364 -0.03414 0.96182
 H260 H -0.04713 -0.04560 0.95476
 N261 N 1.01905 0.58151 0.97138
 N262 N 1.03334 0.57526 0.98165
 C263 C 1.03572 0.58711 0.99440
 C264 C 1.02217 0.60152 0.99191
 C265 C 1.01186 0.59753 0.97721
 H266 H 1.04647 0.58537 1.00467
 H267 H 0.99994 0.60567 0.97128
 Cu268 Cu 1.04735 0.55227 0.97724
 Cu269 Cu 1.01072 0.56835 0.95130
 Cu270 Cu 1.03518 0.52702 0.94348
 N271 N 1.06091 0.52908 0.97287
 N272 N 1.05613 0.51922 0.95968
 C273 C 1.06792 0.50402 0.95962
 C274 C 1.08075 0.50447 0.97353
 C275 C 1.07588 0.52051 0.98162
 H276 H 1.06726 0.49356 0.95012
 H277 H 1.08290 0.52555 0.99300
 N278 N 1.01357 0.53737 0.92864
 N279 N 1.00438 0.55313 0.93166
 C280 C 0.99058 0.55659 0.91938
 C281 C 0.99106 0.54238 0.90811
 C282 C 1.00580 0.53038 0.91432
 H283 H 0.98083 0.56857 0.91862
 H284 H 1.01056 0.51759 0.90881
 H285 H 1.01856 0.54262 0.96052
 H286 H 1.03812 0.55445 0.94712
 N287 N 0.52056 0.08075 0.47369
 N288 N 0.53513 0.07513 0.48399
 C289 C 0.53695 0.08725 0.49662
 C290 C 0.52273 0.10114 0.49400
 C291 C 0.51264 0.09656 0.47937
 H292 H 0.54771 0.08601 0.50694
 H293 H 0.50036 0.10419 0.47336
 Cu294 Cu 0.55007 0.05243 0.47985
 Cu295 Cu 0.51273 0.06713 0.45376
 Cu296 Cu 0.53825 0.02629 0.44652
 N297 N 0.56400 0.02924 0.47580
 N298 N 0.55925 0.01909 0.46281
 C299 C 0.57107 0.00394 0.46297
 C300 C 0.58394 0.00464 0.47682
 C301 C 0.57905 0.02086 0.48466
 H302 H 0.57038 -0.00670 0.45364
 H303 H 0.58602 0.02611 0.49596
 N304 N 0.51653 0.03593 0.43148
 N305 N 0.50689 0.05153 0.43427
 C306 C 0.49306 0.05446 0.42192
 C307 C 0.49400 0.04007 0.41084
 C308 C 0.50905 0.02853 0.41725
 H309 H 0.48296 0.06620 0.42097
 H310 H 0.51418 0.01573 0.41196
 H311 H 0.52140 0.04183 0.46349
 H312 H 0.54052 0.05388 0.44975
 N313 N -0.03747 0.07355 0.53137
 N314 N -0.05426 0.07008 0.52316
 C315 C -0.05633 0.08180 0.50992
 C316 C -0.04003 0.09327 0.50977
 C317 C -0.02827 0.08774 0.52359
 H318 H -0.06854 0.08171 0.50077
 H319 H -0.01391 0.09323 0.52740
 Cu320 Cu -0.07139 0.04998 0.52948
 Cu321 Cu -0.02856 0.05857 0.55090
 Cu322 Cu -0.05466 0.01849 0.55751
 N323 N -0.08346 0.02628 0.53102
 N324 N -0.07681 0.01387 0.54196
 C325 C -0.08777 -0.00124 0.54036
 C326 C -0.10197 0.00196 0.52766
 C327 C -0.09878 0.01952 0.52200
 H328 H -0.08550 -0.01357 0.54785
 H329 H -0.10701 0.02683 0.51206
 N330 N -0.03197 0.02573 0.57192
 N331 N -0.02224 0.04114 0.56974
 C332 C -0.00830 0.04242 0.58217
 C333 C -0.00940 0.02703 0.59255
 C334 C -0.02445 0.01678 0.58565
 H335 H 0.00178 0.05370 0.58359
 H336 H -0.02977 0.00389 0.59057
 H337 H -0.04029 0.03590 0.54012
 H338 H -0.05587 0.04681 0.55753
 N339 N 0.47161 0.57357 0.01446
 N340 N 0.46184 0.56429 0.00306
 C341 C 0.45972 0.57444 -0.01131
 C342 C 0.46866 0.59095 -0.00876
 C343 C 0.47611 0.58996 0.00773
 H344 H 0.45192 0.57027 -0.02265
 H345 H 0.48393 0.60039 0.01446
 Cu346 Cu 0.45197 0.54025 0.00829
 Cu347 Cu 0.47727 0.56377 0.03722
 Cu348 Cu 0.45317 0.52391 0.04884
 N349 N 0.43505 0.52041 0.01582
 N350 N 0.43531 0.51402 0.03165
 C351 C 0.42149 0.50080 0.03331
 C352 C 0.41213 0.49896 0.01765
 C353 C 0.42111 0.51158 0.00691
 H354 H 0.41828 0.49337 0.04507
 H355 H 0.41743 0.51439 -0.00635
 N356 N 0.47197 0.53638 0.06408
 N357 N 0.48104 0.55160 0.05958
 C358 C 0.49330 0.55652 0.07226
 C359 C 0.49196 0.54384 0.08535
 C360 C 0.47828 0.53121 0.07982
 H361 H 0.50292 0.56827 0.07189
 H362 H 0.47361 0.51900 0.08654
 H363 H 0.47426 0.53615 0.03275
 H364 H 0.45039 0.54943 0.03792
 N365 N 0.53701 -0.06652 0.02428
 N366 N 0.55478 -0.06214 0.01762
 C367 C 0.55863 -0.07222 0.00370
 C368 C 0.54244 -0.08355 0.00154
 C369 C 0.52894 -0.07962 0.01483
 H370 H 0.57219 -0.07136 -0.00428
 H371 H 0.51440 -0.08579 0.01749
 Cu372 Cu 0.57121 -0.04362 0.02752
 Cu373 Cu 0.52607 -0.05500 0.04484
 Cu374 Cu 0.55161 -0.01744 0.05889
 N375 N 0.58271 -0.02044 0.03279
 N376 N 0.57509 -0.01008 0.04495
 C377 C 0.58583 0.00531 0.04541
 C378 C 0.60089 0.00443 0.03279
 C379 C 0.59845 -0.01207 0.02508
 H380 H 0.58276 0.01632 0.05413
 H381 H 0.60732 -0.01748 0.01448
 N382 N 0.52749 -0.02734 0.07096
 N383 N 0.51765 -0.04151 0.06542
 C384 C 0.50225 -0.04524 0.07641
 C385 C 0.50244 -0.03292 0.08951
 C386 C 0.51862 -0.02172 0.08567
 H387 H 0.49189 -0.05635 0.07524
 H388 H 0.52371 -0.01047 0.09311
 H389 H 0.53953 -0.03056 0.03841
 H390 H 0.55281 -0.04515 0.05482
 N391 N 1.01710 0.42386 0.51883
 N392 N 1.03395 0.42742 0.51024
 C393 C 1.03521 0.41674 0.49640
 C394 C 1.01817 0.40597 0.49641
 C395 C 1.00701 0.41088 0.51076
 H396 H 1.04767 0.41670 0.48719
 H397 H 0.99286 0.40506 0.51521
 Cu398 Cu 1.05289 0.44533 0.51812
 Cu399 Cu 1.01023 0.43521 0.54048
 Cu400 Cu 1.04048 0.47037 0.55279
 N401 N 1.06730 0.46727 0.52351
 N402 N 1.06236 0.47704 0.53695
 C403 C 1.07458 0.49146 0.53743
 C404 C 1.08789 0.49067 0.52352
 C405 C 1.08286 0.47514 0.51500
 H406 H 1.07380 0.50171 0.54718
 H407 H 1.08994 0.47006 0.50338
 N408 N 1.01753 0.46147 0.56692
 N409 N 1.00581 0.44822 0.56202
 C410 C 0.99155 0.44517 0.57422
 C411 C 0.99445 0.45698 0.58743
 C412 C 1.01104 0.46717 0.58242
 H413 H 0.97998 0.43496 0.57370
 H414 H 1.01790 0.47789 0.58950
 H415 H 1.02427 0.45922 0.53337
 H416 H 1.03923 0.44304 0.54732
 C417 C 0.41444 0.00229 0.23104
 H418 H 0.41449 0.01384 0.23942
 C419 C 0.42804 0.00141 0.21716
 H420 H 0.43856 0.01237 0.21491
 C421 C 0.40054 -0.02595 0.22379
 H422 H 0.38998 -0.03670 0.22655
 C423 C 0.41390 -0.02738 0.20974
 H424 H 0.41348 -0.03941 0.20202
 N425 N 0.40076 -0.01108 0.23387
 C426 C 0.34986 0.01634 0.25974
 H427 H 0.34837 0.00804 0.27124
 C428 C 0.33671 0.03124 0.25712
 H429 H 0.32515 0.03439 0.26672
 C430 C 0.36660 0.02215 0.23320
 H431 H 0.37797 0.01836 0.22372
 C432 C 0.35375 0.03713 0.23003
 H433 H 0.35557 0.04448 0.21804
 Zn434 Zn 0.38215 -0.00802 0.25241
 N435 N 0.36470 0.01230 0.24800
 C436 C 0.39529 0.01136 0.28127
 N437 N 0.39760 -0.00427 0.27237
 C438 C 0.41157 -0.01720 0.27707
 C439 C 0.42353 -0.01489 0.29151
 C440 C 0.40690 0.01426 0.29578
 C441 C 0.35234 -0.03215 0.24240
 C442 C 0.33911 -0.04671 0.24391
 C443 C 0.35277 -0.05356 0.27188
 C444 C 0.36570 -0.03882 0.26982
 N445 N 0.36540 -0.02857 0.25519
 H446 H 0.38458 0.02175 0.27708
 H447 H 0.41340 -0.02936 0.26958
 H448 H 0.43446 -0.02547 0.29502
 H449 H 0.40442 0.02691 0.30233
 H450 H 0.35214 -0.02358 0.23101
 H451 H 0.32887 -0.04926 0.23349
 H452 H 0.35359 -0.06121 0.28376
 H453 H 0.37581 -0.03551 0.28004
 C454 C 0.33871 0.04201 0.24222
 C455 C 0.42761 -0.01336 0.20609
 C456 C 0.33912 -0.05775 0.25878
 C457 C 0.42130 0.00097 0.30121
 C458 C 0.08530 -0.00280 0.72550
 H459 H 0.08210 -0.01520 0.73257
 C460 C 0.07322 0.00245 0.71163
 H461 H 0.06055 -0.00592 0.70843
 C462 C 0.10543 0.02331 0.72168
 H463 H 0.11784 0.03154 0.72572
 C464 C 0.09375 0.02908 0.70775
 H465 H 0.09746 0.04163 0.70108
 N466 N 0.10138 0.00737 0.72996
 C467 C 0.14489 -0.03107 0.75285
 H468 H 0.14734 -0.02481 0.76506
 C469 C 0.15567 -0.04695 0.74855
 H470 H 0.16600 -0.05292 0.75780
 C471 C 0.12809 -0.03080 0.72621
 H472 H 0.11765 -0.02432 0.71736
 C473 C 0.13852 -0.04666 0.72140
 H474 H 0.13580 -0.05232 0.70894
 Zn475 Zn 0.11796 -0.00136 0.74809
 N476 N 0.13131 -0.02340 0.74176
 C477 C 0.10018 -0.02114 0.77610
 N478 N 0.10092 -0.00483 0.76772
 C479 C 0.08913 0.00948 0.77290
 C480 C 0.07639 0.00789 0.78731
 C481 C 0.08768 -0.02336 0.79062
 C482 C 0.15259 0.01888 0.74007
 C483 C 0.16747 0.03187 0.74232
 C484 C 0.15352 0.03741 0.77059
 C485 C 0.13891 0.02432 0.76776
 N486 N 0.13842 0.01565 0.75255
 H487 H 0.10927 -0.03251 0.77157
 H488 H 0.08975 0.02224 0.76585
 H489 H 0.06730 0.01959 0.79123
 H490 H 0.08770 -0.03656 0.79682
 H491 H 0.15207 0.01157 0.72818
 H492 H 0.17832 0.03444 0.73201
 H493 H 0.15302 0.04404 0.78281
 H494 H 0.12786 0.02124 0.77771
 C495 C 0.15266 -0.05486 0.73252
 C496 C 0.07773 0.01841 0.70229
 C497 C 0.16799 0.04162 0.75763
 C498 C 0.07558 -0.00863 0.79657
 C499 C 0.58413 0.49380 0.21950
 H500 H 0.58396 0.48146 0.22721
 C501 C 0.56943 0.49683 0.20701
 H502 H 0.55799 0.48669 0.20511
 C503 C 0.59930 0.52196 0.21271
 H504 H 0.61079 0.53184 0.21515
 C505 C 0.58484 0.52559 0.20009
 H506 H 0.58556 0.53835 0.19313
 N507 N 0.59892 0.50611 0.22186
 C508 C 0.64883 0.47373 0.24325
 H509 H 0.65141 0.48096 0.25494
 C510 C 0.66081 0.45846 0.23928
 H511 H 0.67223 0.45390 0.24829
 C512 C 0.63028 0.47087 0.21768
 H513 H 0.61860 0.47589 0.20914
 C514 C 0.64190 0.45554 0.21319
 H515 H 0.63889 0.44878 0.20130
 Zn516 Zn 0.61838 0.50044 0.23881
 N517 N 0.63377 0.47950 0.23259
 C518 C 0.60547 0.48062 0.26868
 N519 N 0.60374 0.49646 0.25958
 C520 C 0.59084 0.51000 0.26477
 C521 C 0.57940 0.50811 0.27987
 C522 C 0.59435 0.47813 0.28392
 C523 C 0.64905 0.52435 0.22776
 C524 C 0.66312 0.53821 0.22927
 C525 C 0.65221 0.54178 0.25872
 C526 C 0.63837 0.52790 0.25660
 N527 N 0.63685 0.51964 0.24126
 H528 H 0.61541 0.46982 0.26414
 H529 H 0.58952 0.52236 0.25715
 H530 H 0.56934 0.51919 0.28375
 H531 H 0.59626 0.46533 0.29067
 H532 H 0.64782 0.51732 0.21577
 H533 H 0.67257 0.54178 0.21828
 H534 H 0.65265 0.54783 0.27118
 H535 H 0.62897 0.52366 0.26734
 C536 C 0.65747 0.44921 0.22397
 C537 C 0.56981 0.51274 0.19691
 C538 C 0.66490 0.54725 0.24489
 C539 C 0.58108 0.49208 0.28981
 C540 C 0.91322 0.50579 0.72745
 H541 H 0.91411 0.51802 0.73486
 C542 C 0.92726 0.50255 0.71420
 H543 H 0.93895 0.51239 0.71143
 C544 C 0.89677 0.47819 0.72202
 H545 H 0.88505 0.46860 0.72526
 C546 C 0.91052 0.47438 0.70868
 H547 H 0.90918 0.46174 0.70200
 N548 N 0.89803 0.49391 0.73080
 C549 C 0.84931 0.52778 0.75257
 H550 H 0.84648 0.52081 0.76465
 C551 C 0.83786 0.54335 0.74823
 H552 H 0.82659 0.54826 0.75733
 C553 C 0.86781 0.52967 0.72637
 H554 H 0.87922 0.52417 0.71770
 C555 C 0.85672 0.54523 0.72149
 H556 H 0.85993 0.55164 0.70919
 Zn557 Zn 0.87889 0.50000 0.74823
 N558 N 0.86412 0.52140 0.74177
 C559 C 0.89267 0.51945 0.77704
 N560 N 0.89376 0.50351 0.76852
 C561 C 0.90625 0.48968 0.77386
 C562 C 0.91792 0.49141 0.78852
 C563 C 0.90406 0.52179 0.79179
 C564 C 0.84733 0.47743 0.73835
 C565 C 0.83323 0.46353 0.74000
 C566 C 0.84467 0.45794 0.76890
 C567 C 0.85853 0.47195 0.76666
 N568 N 0.85985 0.48117 0.75148
 H569 H 0.88308 0.53048 0.77236
 H570 H 0.90710 0.47724 0.76669
 H571 H 0.92767 0.48011 0.79253
 H572 H 0.90264 0.53471 0.79805
 H573 H 0.84845 0.48517 0.72648
 H574 H 0.82360 0.46070 0.72925
 H575 H 0.84434 0.45104 0.78119
 H576 H 0.86821 0.47542 0.77712
 C577 C 0.84147 0.55227 0.73242
 C578 C 0.92573 0.48690 0.70435
 C579 C 0.83180 0.45336 0.75536
 C580 C 0.91695 0.50759 0.79784
 C581 C 0.21649 0.38957 0.00267
 H582 H 0.22422 0.38963 0.01481
 C583 C 0.19926 0.40070 0.00012
 H584 H 0.19370 0.40893 0.01060
 C585 C 0.21449 0.37849 -0.02555
 H586 H 0.22066 0.37011 -0.03566
 C587 C 0.19723 0.38936 -0.02863
 H588 H 0.19017 0.38906 -0.04107
 N589 N 0.22369 0.37871 -0.01006
 C590 C 0.25983 0.33549 0.01441
 H591 H 0.27362 0.33646 0.00671
 C592 C 0.25848 0.32235 0.02741
 H593 H 0.27134 0.31323 0.02971
 C594 C 0.22631 0.34622 0.02066
 H595 H 0.21370 0.35537 0.01779
 C596 C 0.22430 0.33326 0.03381
 H597 H 0.20997 0.33260 0.04077
 Zn598 Zn 0.24781 0.36475 -0.00624
 N599 N 0.24403 0.34730 0.01149
 C600 C 0.27784 0.37905 0.01517
 N601 N 0.26849 0.38087 -0.00020
 C602 C 0.27313 0.39465 -0.01127
 C603 C 0.28823 0.40693 -0.00733
 C604 C 0.29297 0.39104 0.01967
 C605 C 0.24245 0.33853 -0.03075
 C606 C 0.24671 0.32806 -0.04513
 C607 C 0.27746 0.34502 -0.04985
 C608 C 0.27260 0.35512 -0.03529
 N609 N 0.25521 0.35183 -0.02620
 H610 H 0.27354 0.36837 0.02406
 H611 H 0.26510 0.39604 -0.02323
 H612 H 0.29136 0.41759 -0.01658
 H613 H 0.30027 0.38919 0.03196
 H614 H 0.22881 0.33611 -0.02317
 H615 H 0.23586 0.31788 -0.04827
 H616 H 0.29137 0.34794 -0.05693
 H617 H 0.28280 0.36549 -0.03129
 C618 C 0.24069 0.32129 0.03750
 C619 C 0.18952 0.40081 -0.01581
 C620 C 0.26453 0.33119 -0.05499
 C621 C 0.29858 0.40515 0.00835
 C622 C 0.72627 0.12325 0.00027
 H623 H 0.73465 0.12262 -0.01175
 C624 C 0.71016 0.11151 0.00346
 H625 H 0.70608 0.10220 -0.00641
 C626 C 0.72146 0.13650 0.02751
 H627 H 0.72608 0.14604 0.03698
 C628 C 0.70524 0.12505 0.03122
 H629 H 0.69742 0.12601 0.04350
 N630 N 0.73156 0.13546 0.01220
 C631 C 0.76297 0.17904 -0.01518
 H632 H 0.77671 0.17960 -0.00774
 C633 C 0.76017 0.19092 -0.02911
 H634 H 0.77186 0.20061 -0.03235
 C635 C 0.73108 0.16567 -0.01999
 H636 H 0.71965 0.15599 -0.01626
 C637 C 0.72767 0.17728 -0.03403
 H638 H 0.71346 0.17640 -0.04076
 Zn639 Zn 0.75425 0.15030 0.00740
 N640 N 0.74871 0.16649 -0.01112
 C641 C 0.78616 0.13643 -0.01387
 N642 N 0.77661 0.13472 0.00163
 C643 C 0.78190 0.12115 0.01280
 C644 C 0.79752 0.10873 0.00866
 C645 C 0.80185 0.12435 -0.01855
 C646 C 0.74593 0.17765 0.03078
 C647 C 0.74841 0.18823 0.04521
 C648 C 0.77979 0.17171 0.05104
 C649 C 0.77673 0.16149 0.03639
 N650 N 0.75982 0.16440 0.02679
 H651 H 0.78144 0.14696 -0.02281
 H652 H 0.77377 0.11985 0.02490
 H653 H 0.80106 0.09819 0.01796
 H654 H 0.80912 0.12601 -0.03101
 H655 H 0.73272 0.17979 0.02282
 H656 H 0.73694 0.19854 0.04819
 H657 H 0.79339 0.16889 0.05829
 H658 H 0.78781 0.15115 0.03280
 C659 C 0.74255 0.18989 -0.03894
 C660 C 0.69956 0.11220 0.01924
 C661 C 0.76535 0.18525 0.05578
 C662 C 0.80778 0.11017 -0.00732
 C663 C 0.22051 0.60579 0.49858
 H664 H 0.23049 0.60471 0.48748
 C665 C 0.20404 0.59419 0.50052
 H666 H 0.20138 0.58455 0.49057
 C667 C 0.21210 0.61999 0.52483
 H668 H 0.21549 0.62982 0.53443
 C669 C 0.19549 0.60865 0.52730
 H670 H 0.18612 0.61002 0.53876
 N671 N 0.22419 0.61840 0.51062
 C672 C 0.26094 0.65941 0.48451
 H673 H 0.27375 0.65972 0.49305
 C674 C 0.26017 0.67111 0.47028
 H675 H 0.27253 0.68038 0.46787
 C676 C 0.22909 0.64717 0.47750
 H677 H 0.21678 0.63812 0.48058
 C678 C 0.22769 0.65866 0.46313
 H679 H 0.21414 0.65823 0.45547
 Zn680 Zn 0.24768 0.63266 0.50765
 N681 N 0.24566 0.64759 0.48773
 C682 C 0.28231 0.61632 0.49148
 N683 N 0.27027 0.61630 0.50579
 C684 C 0.27316 0.60376 0.51853
 C685 C 0.28876 0.59063 0.51721
 C686 C 0.29810 0.60348 0.48961
 C687 C 0.23599 0.66163 0.52842
 C688 C 0.23715 0.67384 0.54183
 C689 C 0.26824 0.65863 0.55080
 C690 C 0.26648 0.64674 0.53716
 N691 N 0.25041 0.64830 0.52644
 H692 H 0.27947 0.62606 0.48127
 H693 H 0.26312 0.60381 0.52964
 H694 H 0.29065 0.58074 0.52752
 H695 H 0.30703 0.60406 0.47792
 H696 H 0.22351 0.66272 0.51954
 H697 H 0.22536 0.68426 0.54315
 H698 H 0.28132 0.65683 0.55890
 H699 H 0.27805 0.63634 0.53513
 C700 C 0.24350 0.67074 0.45927
 C701 C 0.19140 0.59540 0.51519
 C702 C 0.25334 0.67246 0.55339
 C703 C 0.30152 0.59022 0.50258
 C704 C 0.71524 0.88478 0.50470
 H705 H 0.72340 0.88459 0.51664
 C706 C 0.69851 0.89659 0.50249
 H707 H 0.69373 0.90508 0.51302
 C708 C 0.71178 0.87373 0.47660
 H709 H 0.71721 0.86510 0.46639
 C710 C 0.69497 0.88528 0.47386
 H711 H 0.68750 0.88525 0.46158
 N712 N 0.72153 0.87365 0.49185
 C713 C 0.75717 0.82934 0.51543
 H714 H 0.77077 0.82986 0.50744
 C715 C 0.75578 0.81642 0.52865
 H716 H 0.76841 0.80701 0.53083
 C717 C 0.72424 0.84107 0.52228
 H718 H 0.71188 0.85055 0.51962
 C719 C 0.72220 0.82836 0.53565
 H720 H 0.70808 0.82821 0.54295
 Zn721 Zn 0.74547 0.85923 0.49512
 N722 N 0.74172 0.84159 0.51274
 C723 C 0.77692 0.87257 0.51578
 N724 N 0.76640 0.87511 0.50104
 C725 C 0.77004 0.88951 0.49042
 C726 C 0.78506 0.90190 0.49426
 C727 C 0.79211 0.88456 0.52011
 C728 C 0.73986 0.83366 0.46973
 C729 C 0.74424 0.82378 0.45498
 C730 C 0.77507 0.84082 0.45112
 C731 C 0.77009 0.85033 0.46598
 N732 N 0.75260 0.84675 0.47483
 H733 H 0.77350 0.86131 0.52430
 H734 H 0.76122 0.89135 0.47890
 H735 H 0.78746 0.91301 0.48533
 H736 H 0.80032 0.88218 0.53190
 H737 H 0.72617 0.83095 0.47715
 H738 H 0.73348 0.81368 0.45144
 H739 H 0.78905 0.84399 0.44425
 H740 H 0.78027 0.86051 0.47041
 C741 C 0.73834 0.81606 0.53921
 C742 C 0.68830 0.89709 0.48677
 C743 C 0.76213 0.82730 0.44533
 C744 C 0.79644 0.89952 0.50935
 C745 C 0.02528 0.22242 0.41544
 H746 H 0.03880 0.23055 0.41456
 C747 C 0.02325 0.20946 0.42859
 H748 H 0.03535 0.20758 0.43777
 C749 C -0.00709 0.21524 0.40470
 H750 H -0.01908 0.21783 0.39561
 C751 C -0.00979 0.20221 0.41766
 H752 H -0.02403 0.19512 0.41829
 N753 N 0.01036 0.22484 0.40368
 C754 C 0.04025 0.24904 0.35913
 H755 H 0.03060 0.26101 0.35754
 C756 C 0.05592 0.24551 0.34736
 H757 H 0.05847 0.25522 0.33707
 C758 C 0.04849 0.22213 0.37482
 H759 H 0.04524 0.21287 0.38533
 C760 C 0.06433 0.21802 0.36328
 H761 H 0.07334 0.20567 0.36511
 Zn762 Zn 0.01385 0.24280 0.38641
 N763 N 0.03683 0.23742 0.37251
 C764 C 0.03407 0.27506 0.39517
 N765 N 0.01686 0.26530 0.39734
 C766 C 0.00155 0.27099 0.40798
 C767 C 0.00295 0.28733 0.41665
 C768 C 0.03616 0.29147 0.40359
 C769 C -0.01187 0.22879 0.36195
 C770 C -0.02715 0.22902 0.34970
 C771 C -0.03556 0.25996 0.35730
 C772 C -0.02010 0.25911 0.36940
 N773 N -0.00867 0.24368 0.37152
 H774 H 0.04634 0.27009 0.38703
 H775 H -0.01181 0.26276 0.40972
 H776 H -0.00964 0.29120 0.42493
 H777 H 0.05004 0.29900 0.40162
 H778 H -0.00227 0.21681 0.36365
 H779 H -0.02925 0.21701 0.34214
 H780 H -0.04399 0.27262 0.35602
 H781 H -0.01696 0.27098 0.37677
 C782 C 0.06796 0.22960 0.34918
 C783 C 0.00567 0.19898 0.42970
 C784 C -0.03923 0.24477 0.34706
 C785 C 0.02050 0.29794 0.41450
 C786 C -0.00243 0.72670 0.09327
 H787 H -0.01619 0.73491 0.09191
 C788 C 0.00111 0.71192 0.08262
 H789 H -0.01035 0.70876 0.07340
 C790 C 0.02873 0.72089 0.10747
 H791 H 0.03955 0.72456 0.11704
 C792 C 0.03291 0.70597 0.09705
 H793 H 0.04691 0.69817 0.09879
 N794 N 0.01119 0.73081 0.10548
 C795 C -0.02557 0.76052 0.14321
 H796 H -0.01771 0.77327 0.14354
 C797 C -0.04246 0.75762 0.15398
 H798 H -0.04760 0.76846 0.16224
 C799 C -0.02824 0.73109 0.13181
 H800 H -0.02247 0.72060 0.12345
 C801 C -0.04516 0.72763 0.14230
 H802 H -0.05235 0.71456 0.14172
 Zn803 Zn 0.00487 0.75150 0.11875
 N804 N -0.01887 0.74736 0.13235
 C805 C -0.01675 0.78105 0.10258
 N806 N 0.00084 0.77101 0.10300
 C807 C 0.01607 0.77384 0.09135
 C808 C 0.01408 0.78737 0.07875
 C809 C -0.01938 0.79483 0.09022
 C810 C 0.03070 0.74421 0.14633
 C811 C 0.04605 0.74737 0.15805
 C812 C 0.05215 0.77612 0.14375
 C813 C 0.03666 0.77238 0.13232
 N814 N 0.02641 0.75656 0.13372
 H815 H -0.02889 0.77828 0.11168
 H816 H 0.02977 0.76544 0.09181
 H817 H 0.02649 0.78931 0.06963
 H818 H -0.03367 0.80235 0.09032
 H819 H 0.02208 0.73186 0.14730
 H820 H 0.04882 0.73709 0.16777
 H821 H 0.06008 0.78883 0.14234
 H822 H 0.03276 0.78223 0.12245
 C823 C -0.05238 0.74088 0.15370
 C824 C 0.01911 0.70141 0.08434
 C825 C 0.05713 0.76359 0.15689
 C826 C -0.00377 0.79820 0.07800
 C827 C 0.49206 0.22763 0.59381
 H828 H 0.47750 0.23474 0.59319
 C829 C 0.49626 0.21309 0.58295
 H830 H 0.48455 0.20906 0.57429
 C831 C 0.52454 0.22418 0.60640
 H832 H 0.53561 0.22862 0.61543
 C833 C 0.52938 0.20958 0.59577
 H834 H 0.54413 0.20283 0.59686
 N835 N 0.50602 0.23273 0.60539
 C836 C 0.47033 0.25842 0.64632
 H837 H 0.47757 0.27146 0.64681
 C838 C 0.45447 0.25433 0.65779
 H839 H 0.44954 0.26459 0.66675
 C840 C 0.46817 0.22951 0.63373
 H841 H 0.47374 0.21973 0.62454
 C842 C 0.45231 0.22484 0.64496
 H843 H 0.44570 0.21153 0.64416
 Zn844 Zn 0.49890 0.25241 0.61985
 N845 N 0.47674 0.24613 0.63450
 C846 C 0.47359 0.28146 0.60705
 N847 N 0.49191 0.27263 0.60561
 C848 C 0.50592 0.27776 0.59360
 C849 C 0.50202 0.29260 0.58270
 C850 C 0.46904 0.29643 0.59644
 C851 C 0.52697 0.24540 0.64586
 C852 C 0.54289 0.24880 0.65696
 C853 C 0.54615 0.27847 0.64370
 C854 C 0.53014 0.27448 0.63288
 N855 N 0.52104 0.25808 0.63402
 H856 H 0.46244 0.27696 0.61640
 H857 H 0.52027 0.27035 0.59259
 H858 H 0.51382 0.29619 0.57358
 H859 H 0.45439 0.30331 0.59794
 H860 H 0.51925 0.23257 0.64667
 H861 H 0.54701 0.23821 0.66604
 H862 H 0.55316 0.29164 0.64250
 H863 H 0.52494 0.28458 0.62368
 C864 C 0.44531 0.23724 0.65727
 C865 C 0.51520 0.20386 0.58384
 C866 C 0.55283 0.26562 0.65601
 C867 C 0.48331 0.30231 0.58404
 C868 C 0.50818 0.73931 0.91555
 H869 H 0.52084 0.74844 0.91609
 C870 C 0.50669 0.72492 0.92729
 H871 H 0.51833 0.72297 0.93688
 C872 C 0.47752 0.73090 0.90243
 H873 H 0.46598 0.73349 0.89293
 C874 C 0.47547 0.71628 0.91389
 H875 H 0.46220 0.70790 0.91308
 N876 N 0.49388 0.74185 0.90327
 C877 C 0.52520 0.77013 0.86160
 H878 H 0.51577 0.78229 0.86038
 C879 C 0.54164 0.76730 0.85034
 H880 H 0.54490 0.77766 0.84079
 C881 C 0.53219 0.74206 0.87578
 H882 H 0.52823 0.73206 0.88547
 C883 C 0.54875 0.73867 0.86481
 H884 H 0.55753 0.72615 0.86630
 Zn885 Zn 0.49744 0.76164 0.88795
 N886 N 0.52085 0.75761 0.87404
 C887 C 0.51697 0.79286 0.90027
 N888 N 0.50009 0.78251 0.90136
 C889 C 0.48490 0.78619 0.91287
 C890 C 0.48623 0.80090 0.92377
 C891 C 0.51898 0.80772 0.91094
 C892 C 0.47179 0.75085 0.86196
 C893 C 0.45604 0.75240 0.85018
 C894 C 0.44738 0.78192 0.86155
 C895 C 0.46329 0.77977 0.87310
 N896 N 0.47503 0.76437 0.87317
 H897 H 0.52907 0.78948 0.89129
 H898 H 0.47179 0.77754 0.91364
 H899 H 0.47392 0.80349 0.93287
 H900 H 0.53270 0.81546 0.90961
 H901 H 0.48160 0.73887 0.86212
 H902 H 0.45418 0.74132 0.84152
 H903 H 0.43832 0.79439 0.86170
 H904 H 0.46639 0.79056 0.88183
 C905 C 0.55352 0.75124 0.85175
 C906 C 0.49038 0.71302 0.92637
 C907 C 0.44353 0.76820 0.84979
 C908 C 0.50347 0.81192 0.92305
 C909 C 0.14603 0.22262 0.25482
 C910 C 0.14532 0.21372 0.27069
 C911 C 0.12940 0.21814 0.28347
 N912 N 0.13001 0.21051 0.29941
 N913 N 0.11571 0.21463 0.31109
 C914 C 0.10028 0.22650 0.30722
 N915 N 0.09965 0.23405 0.29129
 N916 N 0.11394 0.22997 0.27964
 C917 C 0.08435 0.23138 0.31980
 C918 C 0.08421 0.22473 0.33663
 H919 H 0.15684 0.20358 0.27398
 H920 H 0.07218 0.24029 0.31536
 H921 H 0.13474 0.23307 0.25181
 H922 H 0.09586 0.21495 0.34053
 C923 C 0.63889 0.74234 0.76176
 C924 C 0.63623 0.73393 0.77773
 C925 C 0.62012 0.73979 0.78981
 N926 N 0.61827 0.73135 0.80531
 N927 N 0.60358 0.73635 0.81630
 C928 C 0.59018 0.74998 0.81219
 N929 N 0.59206 0.75843 0.79669
 N930 N 0.60676 0.75344 0.78571
 C931 C 0.57361 0.75545 0.82401
 C932 C 0.57080 0.74701 0.83998
 H933 H 0.64612 0.72269 0.78153
 H934 H 0.56306 0.76588 0.81958
 H935 H 0.62913 0.75374 0.75811
 H936 H 0.58115 0.73603 0.84367
 C937 C 0.35753 0.76513 0.76309
 C938 C 0.36268 0.77690 0.77604
 C939 C 0.37783 0.77193 0.78905
 N940 N 0.38246 0.78402 0.80124
 N941 N 0.39645 0.77989 0.81293
 C942 C 0.40632 0.76350 0.81286
 N943 N 0.40164 0.75139 0.80070
 N944 N 0.38765 0.75552 0.78900
 C945 C 0.42217 0.75890 0.82543
 C946 C 0.42772 0.77111 0.83800
 H947 H 0.35562 0.79028 0.77663
 H948 H 0.42955 0.74574 0.82429
 H949 H 0.36443 0.75166 0.76266
 H950 H 0.41936 0.78394 0.83855
 C951 C -0.13420 0.27574 0.27179
 C952 C -0.12144 0.26062 0.27448
 C953 C -0.10718 0.26009 0.28892
 N954 N -0.09494 0.24532 0.29183
 N955 N -0.08209 0.24492 0.30492
 C956 C -0.08105 0.25929 0.31556
 N957 N -0.09327 0.27402 0.31262
 N958 N -0.10607 0.27441 0.29958
 C959 C -0.06688 0.25947 0.32997
 C960 C -0.05393 0.24477 0.33407
 H961 H -0.12203 0.24903 0.26616
 H962 H -0.06693 0.27177 0.33727
 H963 H -0.13339 0.28702 0.28047
 H964 H -0.05517 0.23262 0.32656
 C965 C -0.14492 0.73339 0.23904
 C966 C -0.14008 0.72440 0.22390
 C967 C -0.12347 0.73032 0.21232
 N968 N -0.11928 0.72104 0.19778
 N969 N -0.10414 0.72606 0.18729
 C970 C -0.09261 0.74057 0.19095
 N971 N -0.09683 0.74987 0.20548
 N972 N -0.11198 0.74485 0.21596
 C973 C -0.07555 0.74610 0.17967
 C974 C -0.07017 0.73660 0.16488
 H975 H -0.14852 0.71258 0.22043
 H976 H -0.06671 0.75749 0.18358
 H977 H -0.13649 0.74527 0.24240
 H978 H -0.07886 0.72478 0.16177
 C979 C 0.35433 0.22772 0.74359
 C980 C 0.36019 0.21776 0.72921
 C981 C 0.37628 0.22403 0.71728
 N982 N 0.38130 0.21419 0.70324
 N983 N 0.39600 0.21962 0.69248
 C984 C 0.40625 0.23509 0.69539
 N985 N 0.40121 0.24492 0.70941
 N986 N 0.38651 0.23951 0.72015
 C987 C 0.42269 0.24125 0.68378
 C988 C 0.42851 0.23177 0.66910
 H989 H 0.35306 0.20500 0.72660
 H990 H 0.43050 0.25337 0.68729
 H991 H 0.36152 0.24056 0.74580
 H992 H 0.42075 0.21934 0.66635
 C993 C 0.64392 0.27005 0.73883
 C994 C 0.63897 0.28054 0.72437
 C995 C 0.62304 0.27487 0.71256
 N996 N 0.61713 0.28595 0.69940
 N997 N 0.60247 0.28100 0.68889
 C998 C 0.59323 0.26476 0.69114
 N999 N 0.59923 0.25368 0.70423
 N1000 N 0.61382 0.25864 0.71474
 C1001 C 0.57682 0.25902 0.67989
 C1002 C 0.56891 0.27020 0.66681
 H1003 H 0.64643 0.29329 0.72181
 H1004 H 0.57085 0.24570 0.68249
 H1005 H 0.63596 0.25750 0.74121
 H1006 H 0.57554 0.28347 0.66501
 C1007 C 0.14516 0.76586 0.24220
 C1008 C 0.14063 0.77674 0.22793
 C1009 C 0.12478 0.77160 0.21583
 N1010 N 0.11983 0.78272 0.20242
 N1011 N 0.10536 0.77816 0.19156
 C1012 C 0.09534 0.76230 0.19372
 N1013 N 0.10034 0.75119 0.20709
 N1014 N 0.11476 0.75575 0.21793
 C1015 C 0.07919 0.75693 0.18204
 C1016 C 0.07274 0.76792 0.16827
 H1017 H 0.14857 0.78931 0.22570
 H1018 H 0.07235 0.74399 0.18477
 H1019 H 0.13691 0.75343 0.24438
 H1020 H 0.08027 0.78077 0.16630
 C1021 C 0.27442 0.14437 0.20714
 C1022 C 0.27299 0.13160 0.22046
 C1023 C 0.28726 0.11605 0.22216
 N1024 N 0.28429 0.10350 0.23482
 N1025 N 0.29702 0.08929 0.23657
 C1026 C 0.31322 0.08712 0.22572
 N1027 N 0.31621 0.09970 0.21308
 N1028 N 0.30346 0.11389 0.21131
 C1029 C 0.32744 0.07153 0.22746
 C1030 C 0.32465 0.05785 0.23984
 H1031 H 0.26084 0.13278 0.22992
 H1032 H 0.34048 0.07115 0.21885
 H1033 H 0.28631 0.14293 0.19747
 H1034 H 0.31176 0.05904 0.24861
 C1035 C 0.75423 0.64670 0.72334
 C1036 C 0.77031 0.63958 0.71354
 C1037 C 0.78118 0.62277 0.71893
 N1038 N 0.79791 0.61680 0.71010
 N1039 N 0.80789 0.60171 0.71506
 C1040 C 0.80148 0.59202 0.72903
 N1041 N 0.78473 0.59796 0.73780
 N1042 N 0.77479 0.61304 0.73286
 C1043 C 0.81226 0.57537 0.73485
 C1044 C 0.83008 0.56891 0.72687
 H1045 H 0.77529 0.64657 0.70197
 H1046 H 0.80566 0.56810 0.74563
 H1047 H 0.74973 0.63978 0.73509
 H1048 H 0.83582 0.57623 0.71572
 C1049 C 0.75981 0.35706 0.78661
 C1050 C 0.76052 0.36898 0.77256
 C1051 C 0.77458 0.38435 0.77204
 N1052 N 0.77568 0.39542 0.75799
 N1053 N 0.78849 0.40925 0.75744
 C1054 C 0.80066 0.41251 0.77094
 N1055 N 0.79951 0.40147 0.78497
 N1056 N 0.78674 0.38766 0.78551
 C1057 C 0.81511 0.42756 0.77068
 C1058 C 0.81773 0.43914 0.75646
 H1059 H 0.75081 0.36693 0.76171
 H1060 H 0.82398 0.42900 0.78208
 H1061 H 0.76976 0.35916 0.79731
 H1062 H 0.80843 0.43681 0.74538
 C1063 C 0.26678 -0.15395 0.29022
 C1064 C 0.26718 -0.14148 0.27656
 C1065 C 0.28196 -0.12666 0.27580
 N1066 N 0.28235 -0.11500 0.26216
 N1067 N 0.29566 -0.10156 0.26138
 C1068 C 0.30907 -0.09929 0.27423
 N1069 N 0.30865 -0.11095 0.28785
 N1070 N 0.29537 -0.12437 0.28862
 C1071 C 0.32389 -0.08453 0.27374
 C1072 C 0.32544 -0.07226 0.25991
 H1073 H 0.25659 -0.14253 0.26615
 H1074 H 0.33367 -0.08368 0.28466
 H1075 H 0.27764 -0.15266 0.30042
 H1076 H 0.31534 -0.07411 0.24924
 C1077 C 0.24415 -0.14541 0.71971
 C1078 C 0.22594 -0.14013 0.71192
 C1079 C 0.21445 -0.12383 0.71760
 N1080 N 0.19652 -0.11896 0.71020
 N1081 N 0.18609 -0.10426 0.71537
 C1082 C 0.19323 -0.09390 0.72814
 N1083 N 0.21112 -0.09878 0.73551
 N1084 N 0.22152 -0.11345 0.73035
 C1085 C 0.18209 -0.07760 0.73411
 C1086 C 0.16375 -0.07155 0.72699
 H1087 H 0.21988 -0.14802 0.70166
 H1088 H 0.18902 -0.06998 0.74412
 H1089 H 0.24980 -0.13725 0.72998
 H1090 H 0.15772 -0.07887 0.71633
 C1091 C 0.74960 0.35887 0.22090
 C1092 C 0.73289 0.36390 0.21100
 C1093 C 0.72156 0.38098 0.21431
 N1094 N 0.70359 0.38468 0.20647
 N1095 N 0.69307 0.39993 0.20987
 C1096 C 0.70021 0.41203 0.22119
 N1097 N 0.71824 0.40839 0.22887
 N1098 N 0.72869 0.39316 0.22551
 C1099 C 0.68874 0.42869 0.22557
 C1100 C 0.66951 0.43284 0.21906
 H1101 H 0.72760 0.35497 0.20121
 H1102 H 0.69582 0.43784 0.23425
 H1103 H 0.75410 0.36761 0.23114
 H1104 H 0.66319 0.42397 0.20966
 C1105 C 0.73655 0.64059 0.27895
 C1106 C 0.73652 0.62999 0.26433
 C1107 C 0.72277 0.61446 0.26326
 N1108 N 0.72134 0.60504 0.24853
 N1109 N 0.70860 0.59121 0.24757
 C1110 C 0.69687 0.58631 0.26132
 N1111 N 0.69841 0.59568 0.27601
 N1112 N 0.71108 0.60947 0.27696
 C1113 C 0.68242 0.57133 0.26074
 C1114 C 0.67913 0.56129 0.24600
 H1115 H 0.74628 0.63332 0.25347
 H1116 H 0.67413 0.56862 0.27249
 H1117 H 0.72635 0.63728 0.28953
 H1118 H 0.68806 0.56465 0.23464
 C1119 C 0.24030 0.13516 0.79047
 C1120 C 0.23944 0.12447 0.77595
 C1121 C 0.22536 0.10917 0.77525
 N1122 N 0.22449 0.09893 0.76100
 N1123 N 0.21165 0.08516 0.76032
 C1124 C 0.19923 0.08114 0.77389
 N1125 N 0.20014 0.09137 0.78812
 N1126 N 0.21295 0.10510 0.78879
 C1127 C 0.18461 0.06627 0.77343
 C1128 C 0.18261 0.05524 0.75916
 H1129 H 0.24915 0.12734 0.76495
 H1130 H 0.17513 0.06451 0.78472
 H1131 H 0.23051 0.13211 0.80139
 H1132 H 0.19284 0.05761 0.74836
 C1133 C 0.21403 0.25950 0.13446
 C1134 C 0.22778 0.25806 0.12077
 C1135 C 0.22719 0.27102 0.10622
 N1136 N 0.24064 0.26922 0.09296
 N1137 N 0.24032 0.28100 0.07982
 C1138 C 0.22653 0.29502 0.07947
 N1139 N 0.21308 0.29679 0.09271
 N1140 N 0.21340 0.28502 0.10582
 C1141 C 0.22612 0.30837 0.06525
 C1142 C 0.23988 0.30749 0.05149
 H1143 H 0.23925 0.24730 0.12068
 H1144 H 0.21513 0.31945 0.06613
 H1145 H 0.20255 0.27027 0.13437
 H1146 H 0.25137 0.29672 0.05142
 C1147 C 0.71223 0.76210 0.64022
 C1148 C 0.72505 0.75836 0.62628
 C1149 C 0.72507 0.77040 0.61098
 N1150 N 0.73740 0.76668 0.59731
 N1151 N 0.73742 0.77763 0.58352
 C1152 C 0.72509 0.79269 0.58293
 N1153 N 0.71279 0.79635 0.59657
 N1154 N 0.71277 0.78543 0.61031
 C1155 C 0.72491 0.80519 0.56804
 C1156 C 0.73757 0.80281 0.55370
 H1157 H 0.73509 0.74652 0.62653
 H1158 H 0.71497 0.81704 0.56888
 H1159 H 0.70224 0.77398 0.63972
 H1160 H 0.74827 0.79142 0.55358
 C1161 C 0.76989 0.75262 0.35725
 C1162 C 0.78023 0.76784 0.36251
 C1163 C 0.77418 0.77729 0.37833
 N1164 N 0.78506 0.79148 0.38383
 N1165 N 0.77962 0.80003 0.39816
 C1166 C 0.76308 0.79471 0.40748
 N1167 N 0.75220 0.78056 0.40195
 N1168 N 0.75765 0.77201 0.38766
 C1169 C 0.75664 0.80389 0.42332
 C1170 C 0.76764 0.81800 0.43027
 H1171 H 0.79301 0.77285 0.35504
 H1172 H 0.74296 0.79897 0.42947
 H1173 H 0.75734 0.74758 0.36500
 H1174 H 0.78151 0.82197 0.42361
 C1175 C 0.27447 0.24975 -0.13740
 C1176 C 0.28273 0.26663 -0.13424
 C1177 C 0.27662 0.27704 -0.11902
 N1178 N 0.28641 0.29248 -0.11516
 N1179 N 0.28102 0.30188 -0.10131
 C1180 C 0.26560 0.29619 -0.09085
 N1181 N 0.25578 0.28083 -0.09477
 N1182 N 0.26120 0.27142 -0.10857
 C1183 C 0.25929 0.30626 -0.07549
 C1184 C 0.26993 0.32117 -0.06965
 H1185 H 0.29415 0.27218 -0.14287
 H1186 H 0.24619 0.30116 -0.06859
 H1187 H 0.26356 0.24405 -0.12838
 H1188 H 0.28351 0.32505 -0.07677
 C1189 C 0.71138 0.24016 -0.14068
 C1190 C 0.72364 0.24396 -0.12681
 C1191 C 0.72440 0.23222 -0.11140
 N1192 N 0.73655 0.23656 -0.09824
 N1193 N 0.73749 0.22603 -0.08423
 C1194 C 0.72629 0.21075 -0.08286
 N1195 N 0.71411 0.20643 -0.09601
 N1196 N 0.71317 0.21697 -0.11002
 C1197 C 0.72734 0.19881 -0.06759
 C1198 C 0.74023 0.20221 -0.05400
 H1199 H 0.73298 0.25589 -0.12716
 H1200 H 0.71826 0.18673 -0.06751
 H1201 H 0.70198 0.22825 -0.14024
 H1202 H 0.74999 0.21388 -0.05488
 C1203 C 0.21517 0.72922 0.36071
 C1204 C 0.22836 0.73125 0.37434
 C1205 C 0.22884 0.71828 0.38890
 N1206 N 0.24162 0.72086 0.40210
 N1207 N 0.24213 0.70923 0.41536
 C1208 C 0.22989 0.69457 0.41588
 N1209 N 0.21713 0.69200 0.40268
 N1210 N 0.21661 0.70362 0.38944
 C1211 C 0.23014 0.68158 0.43042
 C1212 C 0.24294 0.68348 0.44437
 H1213 H 0.23853 0.74262 0.37445
 H1214 H 0.22016 0.67014 0.42980
 H1215 H 0.20496 0.71785 0.36075
 H1216 H 0.25353 0.69458 0.44417
 C1217 C 0.28195 0.73280 0.64729
 C1218 C 0.26844 0.73510 0.63380
 C1219 C 0.26834 0.72206 0.61966
 N1220 N 0.25444 0.72381 0.60701
 N1221 N 0.25435 0.71200 0.59424
 C1222 C 0.26819 0.69802 0.59366
 N1223 N 0.28210 0.69634 0.60627
 N1224 N 0.28217 0.70811 0.61902
 C1225 C 0.26849 0.68474 0.57977
 C1226 C 0.25390 0.68493 0.56688
 H1227 H 0.25781 0.74653 0.63358
 H1228 H 0.28046 0.67449 0.58023
 H1229 H 0.29230 0.72115 0.64743
 H1230 H 0.24199 0.69533 0.56747
 C1231 C 0.79631 0.23551 0.15491
 C1232 C 0.78325 0.23858 0.14118
 C1233 C 0.78311 0.22680 0.12613
 N1234 N 0.76936 0.23012 0.11362
 N1235 N 0.76898 0.21969 0.09986
 C1236 C 0.78238 0.20554 0.09807
 N1237 N 0.79621 0.20225 0.11056
 N1238 N 0.79657 0.21267 0.12434
 C1239 C 0.78204 0.19382 0.08294
 C1240 C 0.76700 0.19593 0.07048
 H1241 H 0.77258 0.24997 0.14140
 H1242 H 0.79358 0.18320 0.08213
 H1243 H 0.80659 0.22383 0.15487
 H1244 H 0.75543 0.20642 0.07250
 C1245 C 0.48136 0.39034 0.50489
 C1246 C 0.46969 0.38601 0.51939
 C1247 C 0.47503 0.37006 0.53023
 N1248 N 0.46273 0.36496 0.54351
 N1249 N 0.46753 0.35046 0.55322
 C1250 C 0.48485 0.34057 0.55000
 N1251 N 0.49715 0.34574 0.53678
 N1252 N 0.49233 0.36017 0.52708
 C1253 C 0.49067 0.32453 0.56046
 C1254 C 0.47828 0.31756 0.57364
 H1255 H 0.45636 0.39418 0.52269
 H1256 H 0.50512 0.31815 0.55720
 H1257 H 0.49435 0.38174 0.50153
 H1258 H 0.46370 0.32435 0.57592
 C1259 C -0.03460 0.89429 0.01288
 C1260 C -0.02208 0.87888 0.01138
 C1261 C -0.02221 0.86437 0.02459
 N1262 N -0.00769 0.85100 0.02439
 N1263 N -0.00738 0.83811 0.03658
 C1264 C -0.02163 0.83809 0.04939
 N1265 N -0.03626 0.85136 0.04948
 N1266 N -0.03652 0.86427 0.03735
 C1267 C -0.02141 0.82416 0.06314
 C1268 C -0.00520 0.81169 0.06504
 H1269 H -0.01137 0.87777 0.00075
 H1270 H -0.03408 0.82444 0.07211
 H1271 H -0.04463 0.89562 0.02395
 H1272 H 0.00741 0.81271 0.05596
 C1273 C 0.01884 0.61779 0.00236
 C1274 C 0.02926 0.62063 0.01748
 C1275 C 0.02554 0.63689 0.02785
 N1276 N 0.03541 0.63877 0.04285
 N1277 N 0.03204 0.65338 0.05243
 C1278 C 0.01868 0.66665 0.04732
 N1279 N 0.00887 0.66478 0.03230
 N1280 N 0.01223 0.65018 0.02275
 C1281 C 0.01448 0.68279 0.05773
 C1282 C 0.02373 0.68550 0.07345
 H1283 H 0.04034 0.61063 0.02199
 H1284 H 0.00387 0.69282 0.05261
 H1285 H 0.00766 0.62777 -0.00201
 H1286 H 0.03524 0.67580 0.07779
 C1287 C 0.51848 0.11743 0.50425
 C1288 C 0.52908 0.12139 0.51903
 C1289 C 0.52425 0.13770 0.52912
 N1290 N 0.53478 0.14101 0.54353
 N1291 N 0.53044 0.15565 0.55281
 C1292 C 0.51541 0.16755 0.54802
 N1293 N 0.50490 0.16424 0.53361
 N1294 N 0.50923 0.14961 0.52433
 C1295 C 0.51016 0.18371 0.55817
 C1296 C 0.52051 0.18801 0.57303
 H1297 H 0.54115 0.11231 0.52342
 H1298 H 0.49793 0.19244 0.55356
 H1299 H 0.50642 0.12659 0.49994
 H1300 H 0.53345 0.17956 0.57677
 C1301 C -0.03634 0.10737 0.49664
 C1302 C -0.02006 0.11920 0.49685
 C1303 C -0.01720 0.13272 0.48295
 N1304 N -0.00261 0.14545 0.48396
 N1305 N -0.00014 0.15773 0.47139
 C1306 C -0.01212 0.15765 0.45734
 N1307 N -0.02660 0.14489 0.45632
 N1308 N -0.02910 0.13268 0.46887
 C1309 C -0.00993 0.17104 0.44331
 C1310 C 0.00378 0.18524 0.44369
 H1311 H -0.00945 0.11868 0.50733
 H1312 H -0.01947 0.16937 0.43231
 H1313 H -0.04713 0.10839 0.48630
 H1314 H 0.01397 0.18603 0.45443
 C1315 C 0.46914 0.60624 0.97893
 C1316 C 0.47818 0.62264 0.98260
 C1317 C 0.47817 0.63799 0.97037
 N1318 N 0.48764 0.65352 0.97436
 N1319 N 0.48779 0.66756 0.96340
 C1320 C 0.47843 0.66660 0.94805
 N1321 N 0.46890 0.65109 0.94409
 N1322 N 0.46877 0.63704 0.95504
 C1323 C 0.47857 0.68191 0.93576
 C1324 C 0.48929 0.69767 0.93877
 H1325 H 0.48548 0.62438 0.99478
 H1326 H 0.47064 0.68033 0.92386
 H1327 H 0.46199 0.60451 0.96667
 H1328 H 0.49822 0.69841 0.95029
 C1329 C 0.54075 0.90307 0.98790
 C1330 C 0.52416 0.89171 0.98662
 C1331 C 0.52320 0.87799 0.97321
 N1332 N 0.50692 0.86698 0.97253
 N1333 N 0.50601 0.85434 0.96058
 C1334 C 0.52135 0.85225 0.94885
 N1335 N 0.53760 0.86328 0.94952
 N1336 N 0.53851 0.87592 0.96146
 C1337 C 0.52084 0.83815 0.93575
 C1338 C 0.50454 0.82631 0.93462
 H1339 H 0.51165 0.89268 0.99576
 H1340 H 0.53387 0.83721 0.92721
 H1341 H 0.55320 0.90205 0.97868
 H1342 H 0.49188 0.82821 0.94353
 C1343 C 0.01293 0.39146 0.48464
 C1344 C 0.02617 0.38525 0.47180
 C1345 C 0.02137 0.36940 0.46147
 N1346 N 0.03531 0.36271 0.45010
 N1347 N 0.03142 0.34795 0.44117
 C1348 C 0.01342 0.33934 0.44329
 N1349 N -0.00056 0.34612 0.45456
 N1350 N 0.00334 0.36086 0.46350
 C1351 C 0.00903 0.32266 0.43403
 C1352 C 0.02326 0.31446 0.42293
 H1353 H 0.04077 0.39155 0.46977
 H1354 H -0.00568 0.31682 0.43652
 H1355 H -0.00152 0.38490 0.48676
 H1356 H 0.03757 0.32129 0.42077
 C1357 C 0.40152 0.51558 0.46803
 C1358 C 0.38831 0.51659 0.48215
 C1359 C 0.37331 0.53169 0.48378
 N1360 N 0.36050 0.53257 0.49757
 N1361 N 0.34687 0.54617 0.49900
 C1362 C 0.34557 0.55938 0.48667
 N1363 N 0.35838 0.55848 0.47292
 N1364 N 0.37198 0.54492 0.47150
 C1365 C 0.33051 0.57445 0.48769
 C1366 C 0.31674 0.57646 0.50143
 H1367 H 0.38891 0.50621 0.49211
 H1368 H 0.33059 0.58398 0.47705
 H1369 H 0.40078 0.52610 0.45819
 H1370 H 0.31780 0.56661 0.51187
 C1371 C 0.89906 0.02005 -0.01727
 C1372 C 0.89199 0.03441 -0.02755
 C1373 C 0.87612 0.04719 -0.02123
 N1374 N 0.86949 0.06123 -0.03130
 N1375 N 0.85511 0.07279 -0.02563
 C1376 C 0.84684 0.07073 -0.00966
 N1377 N 0.85348 0.05670 0.00038
 N1378 N 0.86783 0.04517 -0.00528
 C1379 C 0.83083 0.08319 -0.00309
 C1380 C 0.82339 0.09803 -0.01270
 H1381 H 0.89813 0.03634 -0.04037
 H1382 H 0.82500 0.08025 0.00962
 H1383 H 0.89281 0.01831 -0.00444
 H1384 H 0.83010 0.10026 -0.02532
 C1385 C 0.61638 0.01776 0.02787
 C1386 C 0.61828 0.03438 0.03588
 C1387 C 0.63418 0.04721 0.03056
 N1388 N 0.63579 0.06330 0.03860
 N1389 N 0.65025 0.07491 0.03392
 C1390 C 0.66363 0.07084 0.02103
 N1391 N 0.66199 0.05477 0.01300
 N1392 N 0.64755 0.04318 0.01767
 C1393 C 0.67989 0.08329 0.01577
 C1394 C 0.68263 0.09990 0.02368
 H1395 H 0.60801 0.03807 0.04628
 H1396 H 0.69032 0.07881 0.00579
 H1397 H 0.62670 0.01422 0.01744
 H1398 H 0.67259 0.10362 0.03425
 C1399 C 0.10410 0.50330 0.51852
 C1400 C 0.10731 0.51934 0.52723
 C1401 C 0.12377 0.53178 0.52243
 N1402 N 0.12587 0.54740 0.53114
 N1403 N 0.14085 0.55871 0.52713
 C1404 C 0.15430 0.55482 0.51426
 N1405 N 0.15217 0.53921 0.50553
 N1406 N 0.13718 0.52790 0.50953
 C1407 C 0.17118 0.56698 0.50988
 C1408 C 0.17397 0.58324 0.51842
 H1409 H 0.09749 0.52299 0.53794
 H1410 H 0.18188 0.56257 0.50008
 H1411 H 0.11371 0.49985 0.50761
 H1412 H 0.16333 0.58689 0.52860
 C1413 C 0.09668 0.49133 -0.02110
 C1414 C 0.10117 0.47540 -0.02989
 C1415 C 0.11778 0.46289 -0.02456
 N1416 N 0.12197 0.44768 -0.03364
 N1417 N 0.13718 0.43643 -0.02912
 C1418 C 0.14878 0.43997 -0.01534
 N1419 N 0.14454 0.45514 -0.00624
 N1420 N 0.12934 0.46639 -0.01075
 C1421 C 0.16597 0.42794 -0.01037
 C1422 C 0.17146 0.41251 -0.01963
 H1423 H 0.09257 0.47209 -0.04109
 H1424 H 0.17488 0.43192 0.00042
 H1425 H 0.10534 0.49453 -0.00988
 H1426 H 0.16276 0.40937 -0.03086
 C1427 C 0.59978 0.99139 0.48228
 C1428 C 0.60355 0.97515 0.47376
 C1429 C 0.61973 0.96214 0.47894
 N1430 N 0.62279 0.94663 0.47004
 N1431 N 0.63755 0.93483 0.47437
 C1432 C 0.64983 0.93808 0.48778
 N1433 N 0.64674 0.95356 0.49672
 N1434 N 0.63196 0.96537 0.49240
 C1435 C 0.66652 0.92536 0.49249
 C1436 C 0.67081 0.90961 0.48327
 H1437 H 0.59452 0.97182 0.46281
 H1438 H 0.67603 0.92901 0.50303
 H1439 H 0.60876 0.99463 0.49331
 H1440 H 0.66158 0.90681 0.47227
 C1441 C 0.88255 0.98975 0.52124
 C1442 C 0.87917 0.97265 0.52849
 C1443 C 0.86323 0.96080 0.52227
 N1444 N 0.85943 0.94488 0.53056
 N1445 N 0.84489 0.93409 0.52519
 C1446 C 0.83362 0.93881 0.51129
 N1447 N 0.83749 0.95470 0.50295
 N1448 N 0.85200 0.96551 0.50835
 C1449 C 0.81741 0.92712 0.50525
 C1450 C 0.81185 0.91132 0.51420
 H1451 H 0.88810 0.96789 0.53926
 H1452 H 0.80973 0.93151 0.49374
 H1453 H 0.87329 0.99459 0.51068
 H1454 H 0.81992 0.90803 0.52590
 C1455 C 0.39557 0.48703 0.01285
 C1456 C 0.38674 0.47448 0.02408
 C1457 C 0.36987 0.46314 0.01867
 N1458 N 0.36199 0.45047 0.02956
 N1459 N 0.34674 0.44014 0.02471
 C1460 C 0.33879 0.44214 0.00879
 N1461 N 0.34663 0.45484 -0.00205
 N1462 N 0.36188 0.46513 0.00279
 C1463 C 0.32208 0.43082 0.00306
 C1464 C 0.31419 0.41676 0.01324
 H1465 H 0.39227 0.47288 0.03701
 H1466 H 0.31650 0.43365 -0.00966
 H1467 H 0.39007 0.48836 -0.00013
 H1468 H 0.32085 0.41443 0.02573
 C1469 C 0.52168 0.46000 0.38864
 C1470 C 0.52052 0.47418 0.37663
 C1471 C 0.53344 0.47457 0.36108
 N1472 N 0.53207 0.48891 0.35000
 N1473 N 0.54361 0.48945 0.33583
 C1474 C 0.55695 0.47565 0.33220
 N1475 N 0.55830 0.46130 0.34327
 N1476 N 0.54677 0.46077 0.35745
 C1477 C 0.56977 0.47598 0.31656
 C1478 C 0.56937 0.49075 0.30503
 H1479 H 0.50989 0.48539 0.37863
 H1480 H 0.57967 0.46433 0.31448
 H1481 H 0.53248 0.44890 0.38667
 H1482 H 0.55935 0.50214 0.30816
 C1483 C 0.01036 -0.03956 0.89331
 C1484 C 0.01063 -0.02494 0.88174
 C1485 C 0.02359 -0.02505 0.86615
 N1486 N 0.02404 -0.01018 0.85565
 N1487 N 0.03584 -0.01003 0.84160
 C1488 C 0.04763 -0.02476 0.83751
 N1489 N 0.04712 -0.03963 0.84799
 N1490 N 0.03534 -0.03978 0.86204
 C1491 C 0.06094 -0.02484 0.82212
 C1492 C 0.06282 -0.00962 0.81125
 H1493 H 0.00136 -0.01293 0.88422
 H1494 H 0.06954 -0.03722 0.81979
 H1495 H 0.01986 -0.05145 0.89084
 H1496 H 0.05396 0.00244 0.81454
 C1497 C 0.00214 0.02202 0.60797
 C1498 C 0.01510 0.03379 0.61608
 C1499 C 0.02553 0.02831 0.63198
 N1500 N 0.03676 0.04042 0.64050
 N1501 N 0.04608 0.03554 0.65497
 C1502 C 0.04451 0.01837 0.66143
 N1503 N 0.03333 0.00629 0.65289
 N1504 N 0.02400 0.01116 0.63847
 C1505 C 0.05481 0.01256 0.67726
 C1506 C 0.06622 0.02433 0.68692
 H1507 H 0.01723 0.04739 0.61100
 H1508 H 0.05375 -0.00160 0.68097
 H1509 H -0.00031 0.00862 0.61344
 H1510 H 0.06781 0.03824 0.68247
 C1511 C 0.50391 0.54388 0.10112
 C1512 C 0.50243 0.53052 0.11389
 C1513 C 0.51580 0.53034 0.12886
 N1514 N 0.51390 0.51725 0.14118
 N1515 N 0.52633 0.51668 0.15453
 C1516 C 0.54113 0.52916 0.15602
 N1517 N 0.54297 0.54227 0.14374
 N1518 N 0.53053 0.54286 0.13042
 C1519 C 0.55553 0.52838 0.17028
 C1520 C 0.55447 0.51517 0.18326
 H1521 H 0.49159 0.51976 0.11277
 H1522 H 0.56764 0.53809 0.16993
 H1523 H 0.51462 0.55473 0.10248
 H1524 H 0.54231 0.50546 0.18293
 C1525 C 0.48848 -0.03278 0.10444
 C1526 C 0.49071 -0.02122 0.11821
 C1527 C 0.47705 -0.02191 0.13333
 N1528 N 0.48056 -0.01129 0.14696
 N1529 N 0.46843 -0.01192 0.16078
 C1530 C 0.45230 -0.02320 0.16148
 N1531 N 0.44876 -0.03378 0.14783
 N1532 N 0.46091 -0.03317 0.13402
 C1533 C 0.43865 -0.02403 0.17659
 C1534 C 0.44168 -0.01361 0.19107
 H1535 H 0.50304 -0.01169 0.11815
 H1536 H 0.42562 -0.03272 0.17594
 H1537 H 0.47633 -0.04252 0.10473
 H1538 H 0.45434 -0.00439 0.19103
 C1539 C 0.98207 0.45789 0.60325
 C1540 C 0.98646 0.46930 0.61671
 C1541 C 0.97358 0.46999 0.63229
 N1542 N 0.97849 0.48098 0.64531
 N1543 N 0.96677 0.48187 0.65938
 C1544 C 0.94972 0.47178 0.66092
 N1545 N 0.94486 0.46077 0.64791
 N1546 N 0.95657 0.45988 0.63387
 C1547 C 0.93624 0.47288 0.67609
 C1548 C 0.94008 0.48427 0.68974
 H1549 H 0.99959 0.47793 0.61587
 H1550 H 0.92249 0.46507 0.67597
 H1551 H 0.96908 0.44908 0.60432
 H1552 H 0.95351 0.49257 0.68912
 C1553 C 0.97831 0.54112 0.89283
 C1554 C 0.97903 0.52633 0.88192
 C1555 C 0.96606 0.52566 0.86669
 N1556 N 0.96682 0.51090 0.85651
 N1557 N 0.95516 0.51019 0.84271
 C1558 C 0.94232 0.52424 0.83857
 N1559 N 0.94158 0.53899 0.84875
 N1560 N 0.95322 0.53969 0.86254
 C1561 C 0.92932 0.52382 0.82336
 C1562 C 0.92896 0.50882 0.81259
 H1563 H 0.98927 0.51495 0.88454
 H1564 H 0.91986 0.53572 0.82098
 H1565 H 0.96788 0.55236 0.89017
 H1566 H 0.93862 0.49722 0.81593
 C1567 C 0.48132 0.03814 0.39561
 C1568 C 0.48276 0.02321 0.38486
 C1569 C 0.46978 0.02177 0.36972
 N1570 N 0.47148 0.00701 0.35956
 N1571 N 0.45979 0.00560 0.34584
 C1572 C 0.44597 0.01891 0.34177
 N1573 N 0.44430 0.03365 0.35192
 N1574 N 0.45596 0.03506 0.36562
 C1575 C 0.43283 0.01772 0.32671
 C1576 C 0.43356 0.00284 0.31575
 H1577 H 0.49358 0.01230 0.38757
 H1578 H 0.42241 0.02901 0.32458
 H1579 H 0.47041 0.04897 0.39282
 H1580 H 0.44430 -0.00808 0.31874
   
