data_POSCAR
  _audit_creation_date              2014-09-24
  _audit_creation_method            'ToBaCCo'
  _symmetry_space_group_name_H-M    'P1'
  _symmetry_Int_Tables_number       1
  _symmetry_cell_setting            triclinic
  loop_
  _symmetry_equiv_pos_as_xyz
 x,y,z
_cell_length_a 69.5870
_cell_length_b 69.7937
_cell_length_c 68.7248
_cell_angle_alpha 89.963400
_cell_angle_beta 90.084000
_cell_angle_gamma 89.983800
loop_
  _atom_site_label
  _atom_site_type_symbol
  _atom_site_fract_x
  _atom_site_fract_y
  _atom_site_fract_z
O1 O 0.32349 0.35084 0.01988
 O2 O 0.35099 0.32519 -0.01769
 O3 O 0.32398 0.35105 -0.01793
 O4 O 0.35058 0.32502 0.02013
 O5 O 0.32862 0.30211 0.01975
 O6 O 0.30197 0.32820 -0.01837
 O7 O 0.32902 0.30231 -0.01812
 O8 O 0.30150 0.32797 0.01948
 Cu9 Cu 0.33948 0.34033 0.00115
 Cu10 Cu 0.31306 0.31284 0.00065
 C11 C 0.30780 0.34379 0.02595
 C12 C 0.34469 0.30940 -0.02420
 C13 C 0.30845 0.34408 -0.02453
 C14 C 0.34415 0.30913 0.02630
 O15 O 0.65151 0.67741 -0.02042
 O16 O 0.67763 0.65108 0.01778
 O17 O 0.65084 0.67719 0.01738
 O18 O 0.67820 0.65119 -0.02004
 O19 O 0.70048 0.67377 -0.01958
 O20 O 0.67307 0.69983 0.01791
 O21 O 0.69989 0.67368 0.01829
 O22 O 0.67375 0.70004 -0.01994
 Cu23 Cu 0.66231 0.66194 -0.00138
 Cu24 Cu 0.68905 0.68911 -0.00079
 C25 C 0.65816 0.69321 -0.02656
 C26 C 0.69321 0.65790 0.02443
 C27 C 0.65728 0.69293 0.02390
 C28 C 0.69400 0.65803 -0.02607
 O29 O 0.67839 0.34895 0.98087
 O30 O 0.65193 0.32242 1.01859
 O31 O 0.67816 0.34907 1.01868
 O32 O 0.65210 0.32235 0.98077
 O33 O 0.67473 0.30010 0.98097
 O34 O 0.70084 0.32687 1.01893
 O35 O 0.67458 0.30018 1.01883
 O36 O 0.70106 0.32674 0.98108
 Cu37 Cu 0.66286 0.33793 0.99970
 Cu38 Cu 0.69009 0.31123 0.99997
 C39 C 0.69424 0.34238 0.97468
 C40 C 0.65874 0.30678 1.02502
 C41 C 0.69394 0.34254 1.02515
 C42 C 0.65896 0.30668 0.97453
 O43 O 0.34885 0.67756 1.01967
 O44 O 0.32346 0.64994 0.98199
 O45 O 0.34941 0.67686 0.98186
 O46 O 0.32287 0.65066 1.01978
 O47 O 0.29995 0.67261 1.01897
 O48 O 0.32652 0.69884 0.98100
 O49 O 0.30053 0.67188 0.98113
 O50 O 0.32598 0.69956 1.01887
 Cu51 Cu 0.33845 0.66155 1.00091
 Cu52 Cu 0.31093 0.68795 0.99991
 C53 C 0.34176 0.69326 1.02557
 C54 C 0.30767 0.65619 0.97526
 C55 C 0.34249 0.69231 0.97508
 C56 C 0.30688 0.65714 1.02570
 O57 O 0.01807 0.32095 0.34779
 O58 O -0.02011 0.34767 0.32249
 O59 O -0.01926 0.32034 0.34830
 O60 O 0.01720 0.34837 0.32199
 O61 O 0.01728 0.32685 0.29839
 O62 O -0.01925 0.29876 0.32475
 O63 O -0.02009 0.32614 0.29889
 O64 O 0.01815 0.29938 0.32423
 Cu65 Cu -0.00102 0.33650 0.33752
 Cu66 Cu -0.00096 0.31060 0.30918
 C67 C 0.02448 0.30561 0.34035
 C68 C -0.02650 0.34147 0.30639
 C69 C -0.02537 0.30479 0.34101
 C70 C 0.02331 0.34242 0.30570
 O71 O 0.02011 0.67994 0.65228
 O72 O -0.01696 0.65224 0.67803
 O73 O -0.01723 0.67939 0.65197
 O74 O 0.02036 0.65277 0.67832
 O75 O 0.01991 0.67449 0.70173
 O76 O -0.01774 0.70115 0.67533
 O77 O -0.01747 0.67396 0.70145
 O78 O 0.01966 0.70172 0.67563
 Cu79 Cu 0.00162 0.66390 0.66279
 Cu80 Cu 0.00105 0.69004 0.69089
 C81 C 0.02609 0.69554 0.65955
 C82 C -0.02340 0.65836 0.69412
 C83 C -0.02379 0.69479 0.65915
 C84 C 0.02641 0.65907 0.69452
 O85 O 1.01855 0.65161 0.32277
 O86 O 0.98086 0.67782 0.34921
 O87 O 0.98118 0.65110 0.32276
 O88 O 1.01820 0.67832 0.34926
 O89 O 1.01790 0.70047 0.32624
 O90 O 0.98084 0.67321 0.29970
 O91 O 0.98052 0.69997 0.32619
 O92 O 1.01825 0.67372 0.29972
 Cu93 Cu 0.99973 0.66247 0.33832
 Cu94 Cu 0.99935 0.68908 0.31063
 C95 C 1.02472 0.65820 0.30675
 C96 C 0.97438 0.69336 0.34221
 C97 C 0.97480 0.65752 0.30674
 C98 C 1.02424 0.69403 0.34229
 O99 O 0.98057 0.32174 0.65107
 O100 O 1.01827 0.34818 0.67736
 O101 O 1.01790 0.32145 0.65087
 O102 O 0.98091 0.34853 0.67748
 O103 O 0.98083 0.32643 0.70056
 O104 O 1.01786 0.29932 0.67391
 O105 O 1.01823 0.32608 0.70044
 O106 O 0.98049 0.29962 0.67412
 Cu107 Cu 0.99942 0.33721 0.66188
 Cu108 Cu 0.99935 0.31063 0.68959
 C109 C 0.97423 0.30618 0.65810
 C110 C 1.02455 0.34164 0.69338
 C111 C 1.02406 0.30577 0.65783
 C112 C 0.97467 0.34210 0.69354
 O113 O 0.34952 0.01922 0.32367
 O114 O 0.32196 -0.01826 0.34895
 O115 O 0.34945 -0.01803 0.32324
 O116 O 0.32209 0.01896 0.34946
 O117 O 0.30044 0.01934 0.32587
 O118 O 0.32786 -0.01770 0.29959
 O119 O 0.30033 -0.01793 0.32535
 O120 O 0.32791 0.01960 0.30004
 Cu121 Cu 0.33793 0.00044 0.33871
 Cu122 Cu 0.31196 0.00087 0.31032
 C123 C 0.34341 0.02568 0.30755
 C124 C 0.30645 -0.02436 0.34147
 C125 C 0.34333 -0.02406 0.30696
 C126 C 0.30661 0.02533 0.34215
 O127 O 0.65197 0.01879 0.67786
 O128 O 0.67908 -0.01862 0.65204
 O129 O 0.65179 -0.01837 0.67798
 O130 O 0.67925 0.01863 0.65189
 O131 O 0.70106 0.01862 0.67532
 O132 O 0.67354 -0.01845 0.70147
 O133 O 0.70088 -0.01869 0.67549
 O134 O 0.67373 0.01878 0.70135
 Cu135 Cu 0.66334 0.00012 0.66256
 Cu136 Cu 0.68952 0.00007 0.69077
 C137 C 0.65818 0.02498 0.69404
 C138 C 0.69458 -0.02493 0.65936
 C139 C 0.65793 -0.02456 0.69419
 C140 C 0.69482 0.02482 0.65914
 O141 O 0.34716 0.98213 0.67898
 O142 O 0.32052 1.02000 0.65319
 O143 O 0.34716 1.01938 0.67987
 O144 O 0.32060 0.98283 0.65218
 O145 O 0.29819 0.98220 0.67495
 O146 O 0.32482 1.01882 0.70271
 O147 O 0.29813 1.01943 0.67599
 O148 O 0.32479 0.98150 0.70180
 Cu149 Cu 0.33613 1.00114 0.66377
 Cu150 Cu 0.30923 1.00042 0.69118
 C151 C 0.34052 0.97547 0.69478
 C152 C 0.30478 1.02603 0.66016
 C153 C 0.34052 1.02525 0.69597
 C154 C 0.30485 0.97644 0.65881
 O155 O 0.65329 0.98064 0.32093
 O156 O 0.68031 1.01762 0.34759
 O157 O 0.65357 1.01788 0.32098
 O158 O 0.67994 0.98040 0.34762
 O159 O 0.70226 0.98019 0.32475
 O160 O 0.67583 1.01773 0.29805
 O161 O 0.70261 1.01745 0.32470
 O162 O 0.67558 0.98044 0.29802
 Cu163 Cu 0.66453 0.99916 0.33658
 Cu164 Cu 0.69132 0.99894 0.30906
 C165 C 0.65983 0.97435 0.30495
 C166 C 0.69607 1.02371 0.34070
 C167 C 0.66019 1.02408 0.30498
 C168 C 0.69558 0.97403 0.34075
 O169 O 0.84827 0.82085 0.48242
 O170 O 0.82212 0.84756 0.52021
 O171 O 0.84854 0.82106 0.52022
 O172 O 0.82194 0.84742 0.48239
 O173 O 0.79935 0.82514 0.48258
 O174 O 0.82599 0.79873 0.52047
 O175 O 0.79953 0.82527 0.52045
 O176 O 0.82571 0.79854 0.48262
 Cu177 Cu 0.83749 0.83647 0.50129
 Cu178 Cu 0.81036 0.80967 0.50156
 C179 C 0.84146 0.80515 0.47621
 C180 C 0.80637 0.84097 0.52664
 C181 C 0.84182 0.80540 0.52666
 C182 C 0.80613 0.84079 0.47615
 O183 O 0.14974 0.17648 0.48085
 O184 O 0.17627 0.15081 0.51922
 O185 O 0.14931 0.17676 0.51866
 O186 O 0.17660 0.15046 0.48141
 O187 O 0.19874 0.17319 0.48144
 O188 O 0.17138 0.19955 0.51875
 O189 O 0.19839 0.17356 0.51930
 O190 O 0.17184 0.19925 0.48088
 Cu191 Cu 0.16075 0.16134 0.50003
 Cu192 Cu 0.18732 0.18869 0.50010
 C193 C 0.15627 0.19223 0.47444
 C194 C 0.19185 0.15780 0.52567
 C195 C 0.15568 0.19262 0.52493
 C196 C 0.19231 0.15733 0.47519
 O197 O 0.15099 0.82334 0.51816
 O198 O 0.17696 0.84912 0.47957
 O199 O 0.15054 0.82267 0.48034
 O200 O 0.17737 0.84987 0.51733
 O201 O 0.19996 0.82757 0.51758
 O202 O 0.17306 0.80031 0.48052
 O203 O 0.19953 0.82681 0.47976
 O204 O 0.17354 0.80100 0.51840
 Cu205 Cu 0.16168 0.83849 0.49884
 Cu206 Cu 0.18879 0.81165 0.49909
 C207 C 0.15784 0.80778 0.52474
 C208 C 0.19268 0.84239 0.47323
 C209 C 0.15722 0.80688 0.47423
 C210 C 0.19324 0.84339 0.52361
 O211 O 0.84931 0.17708 0.51845
 O212 O 0.82393 0.14948 0.48075
 O213 O 0.84989 0.17641 0.48066
 O214 O 0.82336 0.15018 0.51856
 O215 O 0.80043 0.17212 0.51777
 O216 O 0.82700 0.19839 0.47982
 O217 O 0.80100 0.17142 0.47991
 O218 O 0.82643 0.19907 0.51767
 Cu219 Cu 0.83893 0.16107 0.49968
 Cu220 Cu 0.81140 0.18747 0.49871
 C221 C 0.84221 0.19277 0.52436
 C222 C 0.80815 0.15574 0.47403
 C223 C 0.84298 0.19187 0.47391
 C224 C 0.80739 0.15667 0.52451
 O225 O 0.48017 0.84668 0.82054
 O226 O 0.51803 0.82022 0.84663
 O227 O 0.51747 0.84720 0.82039
 O228 O 0.48068 0.81978 0.84687
 O229 O 0.48079 0.79780 0.82371
 O230 O 0.51765 0.82530 0.79715
 O231 O 0.51820 0.79826 0.82345
 O232 O 0.48029 0.82475 0.79732
 Cu233 Cu 0.49907 0.83567 0.83595
 Cu234 Cu 0.49925 0.80930 0.80807
 C235 C 0.47392 0.84025 0.80447
 C236 C 0.52445 0.80474 0.83949
 C237 C 0.52368 0.84096 0.80425
 C238 C 0.47458 0.80413 0.83982
 O239 O 0.51946 0.17900 0.15207
 O240 O 0.48230 0.15248 0.17901
 O241 O 0.48213 0.17941 0.15270
 O242 O 0.51964 0.15197 0.17825
 O243 O 0.52039 0.17384 0.20151
 O244 O 0.48281 0.20135 0.17590
 O245 O 0.48300 0.17438 0.20225
 O246 O 0.52019 0.20092 0.17529
 Cu247 Cu 0.50080 0.16351 0.16317
 Cu248 Cu 0.50167 0.18983 0.19109
 C249 C 0.52604 0.19448 0.15909
 C250 C 0.47643 0.15890 0.19521
 C251 C 0.47620 0.19505 0.15992
 C252 C 0.52630 0.15821 0.19421
 O253 O 0.48174 0.17991 0.84842
 O254 O 0.51832 0.15231 0.82187
 O255 O 0.51907 0.17936 0.84802
 O256 O 0.48102 0.15284 0.82234
 O257 O 0.48100 0.17464 0.79898
 O258 O 0.51912 0.20122 0.82471
 O259 O 0.51837 0.17412 0.79851
 O260 O 0.48173 0.20177 0.82511
 Cu261 Cu 0.50004 0.16391 0.83752
 Cu262 Cu 0.50007 0.19015 0.80947
 C263 C 0.47562 0.19553 0.84130
 C264 C 0.52444 0.15848 0.80566
 C265 C 0.52546 0.19481 0.84077
 C266 C 0.47465 0.15920 0.80629
 O267 O 0.48114 0.82201 0.15139
 O268 O 0.51910 0.84832 0.17743
 O269 O 0.51848 0.82162 0.15092
 O270 O 0.48176 0.84871 0.17789
 O271 O 0.48182 0.82656 0.20092
 O272 O 0.51859 0.79944 0.17392
 O273 O 0.51920 0.82617 0.20047
 O274 O 0.48120 0.79983 0.17439
 Cu275 Cu 0.50011 0.83740 0.16209
 Cu276 Cu 0.50021 0.81076 0.18975
 C277 C 0.47481 0.80645 0.15844
 C278 C 0.52550 0.84174 0.19339
 C279 C 0.52468 0.80592 0.15782
 C280 C 0.47565 0.84226 0.19400
 O281 O 0.82193 0.48220 0.84822
 O282 O 0.84863 0.51931 0.82149
 O283 O 0.82201 0.51947 0.84817
 O284 O 0.84851 0.48212 0.82155
 O285 O 0.82615 0.48214 0.79866
 O286 O 0.79961 0.51954 0.82531
 O287 O 0.82627 0.51938 0.79859
 O288 O 0.79953 0.48222 0.82536
 Cu289 Cu 0.83751 0.50078 0.83718
 Cu290 Cu 0.81062 0.50084 0.80968
 C291 C 0.80621 0.47597 0.84133
 C292 C 0.84204 0.52551 0.80546
 C293 C 0.80630 0.52576 0.84129
 C294 C 0.84186 0.47589 0.80557
 O295 O 0.17677 0.48212 0.15091
 O296 O 0.15083 0.51993 0.17734
 O297 O 0.17758 0.51935 0.15086
 O298 O 0.15006 0.48272 0.17749
 O299 O 0.17230 0.48226 0.20050
 O300 O 0.19985 0.51893 0.17384
 O301 O 0.17307 0.51952 0.20037
 O302 O 0.19906 0.48165 0.17387
 Cu303 Cu 0.16157 0.50106 0.16183
 Cu304 Cu 0.18832 0.50054 0.18947
 C305 C 0.19233 0.47557 0.15786
 C306 C 0.15751 0.52605 0.19335
 C307 C 0.19338 0.52529 0.15782
 C308 C 0.15647 0.47640 0.19354
 O309 O 0.84647 0.48130 0.17914
 O310 O 0.82003 0.51885 0.15267
 O311 O 0.84674 0.51853 0.17931
 O312 O 0.81985 0.48161 0.15245
 O313 O 0.79751 0.48159 0.17530
 O314 O 0.82445 0.51857 0.20221
 O315 O 0.79769 0.51888 0.17553
 O316 O 0.82417 0.48129 0.20203
 Cu317 Cu 0.83552 0.50008 0.16358
 Cu318 Cu 0.80870 0.50009 0.19108
 C319 C 0.83983 0.47500 0.19509
 C320 C 0.80436 0.52515 0.15958
 C321 C 0.84020 0.52472 0.19533
 C322 C 0.80412 0.47540 0.15929
 O323 O 0.15168 0.48035 0.82243
 O324 O 0.17910 0.51734 0.84865
 O325 O 0.15192 0.51762 0.82250
 O326 O 0.17880 0.48014 0.84864
 O327 O 0.20072 0.47998 0.82537
 O328 O 0.17379 0.51753 0.79919
 O329 O 0.20101 0.51724 0.82537
 O330 O 0.17357 0.48021 0.79913
 Cu331 Cu 0.16316 0.49888 0.83789
 Cu332 Cu 0.18948 0.49873 0.80990
 C333 C 0.15797 0.47407 0.80634
 C334 C 0.19473 0.52346 0.84150
 C335 C 0.15828 0.52386 0.80642
 C336 C 0.19434 0.47380 0.84149
 C337 C 0.29681 0.35410 0.04013
 C338 C 0.28746 0.36306 0.05174
 C339 C 0.27617 0.37409 0.06522
 C340 C 0.25620 0.37502 0.06303
 C341 C 0.24527 0.38652 0.07546
 C342 C 0.25420 0.39727 0.09024
 C343 C 0.27426 0.39597 0.09253
 C344 C 0.28516 0.38447 0.08008
 C345 C 0.24273 0.41027 0.10277
 C346 C 0.24674 0.41196 0.12278
 C347 C 0.23628 0.42471 0.13436
 C348 C 0.22170 0.43591 0.12611
 C349 C 0.21751 0.43420 0.10627
 C350 C 0.22792 0.42148 0.09467
 C351 C 0.21135 0.44954 0.13777
 C352 C 0.20267 0.46127 0.14716
 H353 H 0.24909 0.36704 0.05158
 H354 H 0.22984 0.38701 0.07349
 H355 H 0.28158 0.40425 0.10361
 H356 H 0.30063 0.38391 0.08184
 H357 H 0.25790 0.40338 0.12947
 H358 H 0.23964 0.42591 0.14971
 H359 H 0.20632 0.44288 0.09971
 H360 H 0.22468 0.42073 0.07928
 C361 C 0.70361 0.64735 0.03893
 C362 C 0.71242 0.63821 0.05086
 C363 C 0.72301 0.62697 0.06478
 C364 C 0.74239 0.62274 0.06144
 C365 C 0.75252 0.61112 0.07447
 C366 C 0.74337 0.60353 0.09102
 C367 C 0.72395 0.60807 0.09437
 C368 C 0.71385 0.61971 0.08132
 C369 C 0.75391 0.59047 0.10436
 C370 C 0.74487 0.57401 0.11186
 C371 C 0.75502 0.56124 0.12371
 C372 C 0.77431 0.56475 0.12826
 C373 C 0.78336 0.58120 0.12110
 C374 C 0.77324 0.59399 0.10923
 C375 C 0.78495 0.55109 0.13968
 C376 C 0.79384 0.53939 0.14894
 H377 H 0.74960 0.62821 0.04862
 H378 H 0.76737 0.60768 0.07133
 H379 H 0.71658 0.60263 0.10710
 H380 H 0.69885 0.62289 0.08404
 H381 H 0.73010 0.57075 0.10815
 H382 H 0.74791 0.54849 0.12908
 H383 H 0.79829 0.58405 0.12453
 H384 H 0.78052 0.60665 0.10388
 C385 C 0.70480 0.35306 0.96043
 C386 C 0.71377 0.36233 0.94876
 C387 C 0.72457 0.37374 0.93519
 C388 C 0.74310 0.37987 0.94004
 C389 C 0.75338 0.39161 0.92728
 C390 C 0.74522 0.39739 0.90947
 C391 C 0.72665 0.39097 0.90462
 C392 C 0.71639 0.37922 0.91742
 C393 C 0.75587 0.41049 0.89629
 C394 C 0.74628 0.42560 0.88679
 C395 C 0.75645 0.43842 0.87505
 C396 C 0.77629 0.43632 0.87262
 C397 C 0.78593 0.42120 0.88179
 C398 C 0.77580 0.40835 0.89353
 C399 C 0.78685 0.45005 0.86124
 C400 C 0.79569 0.46177 0.85199
 H401 H 0.74952 0.37579 0.95380
 H402 H 0.76752 0.39653 0.93156
 H403 H 0.72008 0.39499 0.89093
 H404 H 0.70205 0.37456 0.91353
 H405 H 0.73102 0.42779 0.88883
 H406 H 0.74887 0.45014 0.86810
 H407 H 0.80129 0.41944 0.88000
 H408 H 0.78354 0.39673 0.90045
 C409 C 0.29757 0.64506 0.96101
 C410 C 0.28909 0.63534 0.94932
 C411 C 0.27898 0.62332 0.93574
 C412 C 0.26746 0.63141 0.92119
 C413 C 0.25735 0.61960 0.90830
 C414 C 0.25867 0.59953 0.90983
 C415 C 0.27038 0.59156 0.92445
 C416 C 0.28045 0.60338 0.93730
 C417 C 0.24763 0.58689 0.89651
 C418 C 0.25594 0.57000 0.88916
 C419 C 0.24528 0.55766 0.87732
 C420 C 0.22620 0.56204 0.87264
 C421 C 0.21789 0.57894 0.87962
 C422 C 0.22853 0.59132 0.89146
 C423 C 0.21500 0.54880 0.86127
 C424 C 0.20569 0.53740 0.85207
 H425 H 0.26624 0.64683 0.91984
 H426 H 0.24862 0.62615 0.89707
 H427 H 0.27147 0.57618 0.92620
 H428 H 0.28926 0.59697 0.94858
 H429 H 0.27069 0.56633 0.89256
 H430 H 0.25186 0.54462 0.87198
 H431 H 0.20309 0.58242 0.87616
 H432 H 0.22166 0.60409 0.89708
 C433 C 0.03889 0.29492 0.35061
 C434 C 0.05069 0.28590 0.35962
 C435 C 0.06440 0.27510 0.37084
 C436 C 0.07572 0.28430 0.38484
 C437 C 0.08825 0.27368 0.39655
 C438 C 0.08958 0.25367 0.39442
 C439 C 0.07838 0.24459 0.38007
 C440 C 0.06586 0.25525 0.36838
 C441 C 0.10211 0.24227 0.40757
 C442 C 0.09566 0.22471 0.41520
 C443 C 0.10708 0.21434 0.42822
 C444 C 0.12510 0.22135 0.43377
 C445 C 0.13177 0.23869 0.42609
 C446 C 0.12036 0.24909 0.41306
 C447 C 0.13644 0.21103 0.44781
 C448 C 0.14565 0.20242 0.45984
 H449 H 0.07461 0.29964 0.38695
 H450 H 0.09648 0.28105 0.40763
 H451 H 0.07927 0.22925 0.37792
 H452 H 0.05715 0.24798 0.35759
 H453 H 0.08157 0.21921 0.41149
 H454 H 0.10174 0.20098 0.43416
 H455 H 0.14571 0.24424 0.43029
 H456 H 0.12582 0.26245 0.40727
 C457 C 0.04015 0.70652 0.64916
 C458 C 0.05172 0.71571 0.64005
 C459 C 0.06524 0.72662 0.62875
 C460 C 0.06064 0.74523 0.62279
 C461 C 0.07332 0.75554 0.61101
 C462 C 0.09079 0.74732 0.60498
 C463 C 0.09541 0.72868 0.61127
 C464 C 0.08270 0.71840 0.62307
 C465 C 0.10382 0.75792 0.59169
 C466 C 0.11291 0.74840 0.57618
 C467 C 0.12449 0.75852 0.56313
 C468 C 0.12717 0.77825 0.56541
 C469 C 0.11841 0.78782 0.58093
 C470 C 0.10681 0.77773 0.59400
 C471 C 0.13834 0.78876 0.55140
 C472 C 0.14740 0.79749 0.53938
 H473 H 0.04710 0.75168 0.62700
 H474 H 0.06922 0.76974 0.60619
 H475 H 0.10885 0.72205 0.60707
 H476 H 0.08641 0.70399 0.62759
 H477 H 0.11068 0.73322 0.57383
 H478 H 0.13111 0.75099 0.55109
 H479 H 0.12040 0.80310 0.58283
 H480 H 0.10020 0.78542 0.60593
 C481 C 0.96007 0.70378 0.35282
 C482 C 0.94829 0.71258 0.36204
 C483 C 0.93455 0.72313 0.37341
 C484 C 0.93686 0.74286 0.37611
 C485 C 0.92406 0.75300 0.38790
 C486 C 0.90877 0.74350 0.39719
 C487 C 0.90641 0.72370 0.39415
 C488 C 0.91923 0.71359 0.38234
 C489 C 0.89574 0.75410 0.41046
 C490 C 0.88987 0.74585 0.42817
 C491 C 0.87826 0.75610 0.44106
 C492 C 0.87233 0.77472 0.43644
 C493 C 0.87788 0.78298 0.41876
 C494 C 0.88950 0.77275 0.40584
 C495 C 0.86109 0.78551 0.45014
 C496 C 0.85196 0.79451 0.46190
 H497 H 0.94874 0.75036 0.36935
 H498 H 0.92642 0.76817 0.39016
 H499 H 0.89465 0.71603 0.40090
 H500 H 0.91731 0.69831 0.38034
 H501 H 0.89465 0.73164 0.43228
 H502 H 0.87413 0.74961 0.45476
 H503 H 0.87336 0.79738 0.41504
 H504 H 0.89359 0.77940 0.39222
 C505 C 0.95994 0.29564 0.64754
 C506 C 0.94819 0.28673 0.63836
 C507 C 0.93449 0.27605 0.62703
 C508 C 0.93701 0.25634 0.62431
 C509 C 0.92424 0.24607 0.61256
 C510 C 0.90880 0.25542 0.60333
 C511 C 0.90624 0.27519 0.60638
 C512 C 0.91902 0.28543 0.61815
 C513 C 0.89581 0.24469 0.59009
 C514 C 0.88976 0.25288 0.57239
 C515 C 0.87821 0.24251 0.55952
 C516 C 0.87251 0.22383 0.56415
 C517 C 0.87823 0.21563 0.58182
 C518 C 0.88980 0.22598 0.59472
 C519 C 0.86140 0.21288 0.55043
 C520 C 0.85244 0.20370 0.53867
 H521 H 0.94900 0.24896 0.63104
 H522 H 0.92676 0.23093 0.61029
 H523 H 0.89435 0.28274 0.59967
 H524 H 0.91694 0.30068 0.62016
 H525 H 0.89437 0.26713 0.56827
 H526 H 0.87395 0.24895 0.54583
 H527 H 0.87390 0.20117 0.58554
 H528 H 0.89403 0.21937 0.60832
 C529 C 0.35444 0.03993 0.29750
 C530 C 0.36400 0.05166 0.28903
 C531 C 0.37575 0.06536 0.27888
 C532 C 0.36857 0.07498 0.26255
 C533 C 0.38027 0.08777 0.25231
 C534 C 0.39933 0.09109 0.25831
 C535 C 0.40633 0.08148 0.27487
 C536 C 0.39462 0.06870 0.28506
 C537 C 0.41203 0.10414 0.24710
 C538 C 0.42486 0.11649 0.25676
 C539 C 0.43738 0.12818 0.24617
 C540 C 0.43724 0.12769 0.22582
 C541 C 0.42436 0.11564 0.21607
 C542 C 0.41182 0.10396 0.22662
 C543 C 0.45076 0.13904 0.21497
 C544 C 0.46234 0.14826 0.20592
 H545 H 0.35397 0.07250 0.25764
 H546 H 0.37440 0.09512 0.23976
 H547 H 0.42101 0.08351 0.27969
 H548 H 0.40036 0.06125 0.29763
 H549 H 0.42520 0.11714 0.27250
 H550 H 0.44729 0.13745 0.25387
 H551 H 0.42420 0.11508 0.20032
 H552 H 0.40230 0.09442 0.21877
 C553 C 0.64708 0.03888 0.70448
 C554 C 0.63731 0.05012 0.71337
 C555 C 0.62514 0.06302 0.72407
 C556 C 0.62797 0.08285 0.72299
 C557 C 0.61579 0.09527 0.73314
 C558 C 0.60061 0.08798 0.74444
 C559 C 0.59801 0.06802 0.74553
 C560 C 0.61019 0.05565 0.73540
 C561 C 0.58739 0.10108 0.75495
 C562 C 0.56754 0.09728 0.75544
 C563 C 0.55509 0.10936 0.76558
 C564 C 0.56227 0.12541 0.77536
 C565 C 0.58197 0.12942 0.77487
 C566 C 0.59447 0.11734 0.76470
 C567 C 0.54935 0.13753 0.78608
 C568 C 0.53816 0.14731 0.79505
 H569 H 0.63947 0.08870 0.71420
 H570 H 0.61803 0.11057 0.73186
 H571 H 0.58664 0.06196 0.75433
 H572 H 0.60790 0.04032 0.73637
 H573 H 0.56162 0.08504 0.74784
 H574 H 0.53986 0.10616 0.76583
 H575 H 0.58768 0.14178 0.78245
 H576 H 0.60970 0.12052 0.76476
 C577 C 0.35118 0.96104 0.70500
 C578 C 0.36043 0.94914 0.71362
 C579 C 0.37184 0.93522 0.72390
 C580 C 0.37409 0.93662 0.74408
 C581 C 0.38587 0.92363 0.75399
 C582 C 0.39560 0.90908 0.74381
 C583 C 0.39305 0.90766 0.72354
 C584 C 0.38125 0.92066 0.71367
 C585 C 0.40879 0.89583 0.75421
 C586 C 0.42656 0.89073 0.74595
 C587 C 0.43931 0.87884 0.75604
 C588 C 0.43448 0.87186 0.77448
 C589 C 0.41675 0.87666 0.78275
 C590 C 0.40397 0.88857 0.77269
 C591 C 0.44802 0.86032 0.78514
 C592 C 0.45967 0.85097 0.79401
 H593 H 0.36696 0.94791 0.75213
 H594 H 0.38775 0.92527 0.76954
 H595 H 0.40015 0.89648 0.71533
 H596 H 0.37960 0.91945 0.69804
 H597 H 0.43081 0.89631 0.73190
 H598 H 0.45304 0.87531 0.74956
 H599 H 0.41287 0.87134 0.79702
 H600 H 0.39032 0.89206 0.77933
 C601 C 0.64904 0.96030 0.29436
 C602 C 0.63970 0.94874 0.28540
 C603 C 0.62823 0.93524 0.27464
 C604 C 0.62204 0.93975 0.25580
 C605 C 0.61028 0.92703 0.24557
 C606 C 0.60453 0.90960 0.25406
 C607 C 0.61101 0.90510 0.27292
 C608 C 0.62278 0.91785 0.28314
 C609 C 0.59141 0.89646 0.24345
 C610 C 0.57626 0.88726 0.25328
 C611 C 0.56340 0.87554 0.24314
 C612 C 0.56551 0.87283 0.22309
 C613 C 0.58068 0.88169 0.21323
 C614 C 0.59356 0.89342 0.22333
 C615 C 0.55172 0.86150 0.21255
 C616 C 0.53989 0.85231 0.20377
 H617 H 0.62610 0.95322 0.24912
 H618 H 0.60532 0.93104 0.23119
 H619 H 0.60701 0.89170 0.27976
 H620 H 0.62751 0.91421 0.29771
 H621 H 0.57406 0.88951 0.26870
 H622 H 0.55165 0.86883 0.25090
 H623 H 0.58245 0.87968 0.19770
 H624 H 0.60521 0.90011 0.21541
 C625 C 0.35565 0.29923 0.96149
 C626 C 0.36511 0.29064 0.94969
 C627 C 0.37670 0.28035 0.93587
 C628 C 0.39577 0.28586 0.93271
 C629 C 0.40729 0.27554 0.91978
 C630 C 0.39988 0.25954 0.90984
 C631 C 0.38062 0.25421 0.91300
 C632 C 0.36912 0.26456 0.92594
 C633 C 0.41234 0.24823 0.89661
 C634 C 0.41151 0.22808 0.89662
 C635 C 0.42381 0.21741 0.88476
 C636 C 0.43705 0.22671 0.87271
 C637 C 0.43780 0.24674 0.87239
 C638 C 0.42553 0.25745 0.88424
 C639 C 0.45034 0.21570 0.86124
 C640 C 0.46174 0.20648 0.85195
 H641 H 0.40181 0.29800 0.94040
 H642 H 0.42212 0.27984 0.91789
 H643 H 0.37445 0.24210 0.90540
 H644 H 0.35437 0.26019 0.92828
 H645 H 0.40171 0.22056 0.90616
 H646 H 0.42319 0.20190 0.88520
 H647 H 0.44800 0.25409 0.86311
 H648 H 0.42634 0.27293 0.88372
 C649 C 0.64763 0.70372 0.95901
 C650 C 0.63846 0.71261 0.94716
 C651 C 0.62715 0.72326 0.93334
 C652 C 0.61987 0.71423 0.91672
 C653 C 0.60813 0.72437 0.90378
 C654 C 0.60351 0.74369 0.90732
 C655 C 0.61112 0.75270 0.92394
 C656 C 0.62284 0.74254 0.93686
 C657 C 0.59033 0.75424 0.89410
 C658 C 0.59379 0.77356 0.88937
 C659 C 0.58089 0.78369 0.87761
 C660 C 0.56440 0.77465 0.87041
 C661 C 0.56097 0.75538 0.87480
 C662 C 0.57384 0.74522 0.88655
 C663 C 0.55063 0.78531 0.85911
 C664 C 0.53882 0.79421 0.84998
 H665 H 0.62312 0.69932 0.91386
 H666 H 0.60268 0.71710 0.89099
 H667 H 0.60761 0.76746 0.92722
 H668 H 0.62831 0.74963 0.94975
 H669 H 0.60646 0.78082 0.89476
 H670 H 0.58369 0.79861 0.87428
 H671 H 0.54819 0.74828 0.86939
 H672 H 0.57063 0.73046 0.89014
 C673 C 0.35202 0.70421 0.03984
 C674 C 0.36101 0.71341 0.05157
 C675 C 0.37219 0.72436 0.06524
 C676 C 0.37766 0.74312 0.06069
 C677 C 0.38931 0.75349 0.07349
 C678 C 0.39568 0.74520 0.09102
 C679 C 0.38989 0.72641 0.09558
 C680 C 0.37822 0.71606 0.08276
 C681 C 0.40881 0.75590 0.10415
 C682 C 0.42444 0.74656 0.11307
 C683 C 0.43732 0.75680 0.12472
 C684 C 0.43474 0.77646 0.12766
 C685 C 0.41909 0.78584 0.11909
 C686 C 0.40620 0.77563 0.10741
 C687 C 0.44855 0.78711 0.13888
 C688 C 0.46040 0.79598 0.14798
 H689 H 0.37317 0.74964 0.04711
 H690 H 0.39375 0.76781 0.06942
 H691 H 0.39437 0.71971 0.10906
 H692 H 0.37407 0.70154 0.08641
 H693 H 0.42701 0.73146 0.11062
 H694 H 0.44944 0.74942 0.13121
 H695 H 0.41696 0.80106 0.12127
 H696 H 0.39418 0.78317 0.10094
 C697 C 0.64814 0.29623 0.03933
 C698 C 0.63894 0.28732 0.05111
 C699 C 0.62762 0.27664 0.06485
 C700 C 0.61949 0.28586 0.08093
 C701 C 0.60778 0.27565 0.09379
 C702 C 0.60404 0.25607 0.09072
 C703 C 0.61251 0.24688 0.07465
 C704 C 0.62420 0.25711 0.06181
 C705 C 0.59091 0.24539 0.10385
 C706 C 0.59501 0.22639 0.10932
 C707 C 0.58225 0.21614 0.12108
 C708 C 0.56525 0.22475 0.12753
 C709 C 0.56114 0.24370 0.12235
 C710 C 0.57388 0.25397 0.11060
 C711 C 0.55172 0.21399 0.13898
 C712 C 0.54013 0.20504 0.14831
 H713 H 0.62205 0.30097 0.08342
 H714 H 0.60166 0.28307 0.10616
 H715 H 0.60970 0.23190 0.07173
 H716 H 0.63035 0.24986 0.04935
 H717 H 0.60811 0.21947 0.10454
 H718 H 0.58557 0.20147 0.12502
 H719 H 0.54797 0.25047 0.12718
 H720 H 0.57018 0.26847 0.10642
 C721 C 0.29411 0.04029 0.64971
 C722 C 0.28506 0.05196 0.64057
 C723 C 0.27418 0.06552 0.62925
 C724 C 0.25527 0.06126 0.62383
 C725 C 0.24493 0.07394 0.61206
 C726 C 0.25340 0.09108 0.60552
 C727 C 0.27234 0.09536 0.61127
 C728 C 0.28265 0.08264 0.62305
 C729 C 0.24269 0.10410 0.59228
 C730 C 0.25201 0.11273 0.57636
 C731 C 0.24175 0.12427 0.56336
 C732 C 0.22208 0.12738 0.56609
 C733 C 0.21273 0.11909 0.58202
 C734 C 0.22296 0.10754 0.59505
 C735 C 0.21137 0.13848 0.55215
 C736 C 0.20243 0.14747 0.54020
 H737 H 0.24861 0.04799 0.62846
 H738 H 0.23049 0.07010 0.60767
 H739 H 0.27917 0.10854 0.60666
 H740 H 0.29729 0.08608 0.62716
 H741 H 0.26712 0.11016 0.57368
 H742 H 0.24911 0.13053 0.55101
 H743 H 0.19749 0.12141 0.58427
 H744 H 0.21543 0.10129 0.60728
 C745 C 0.70627 0.03693 0.35084
 C746 C 0.71542 0.04842 0.36010
 C747 C 0.72641 0.06181 0.37149
 C748 C 0.71711 0.07634 0.38186
 C749 C 0.72772 0.08881 0.39362
 C750 C 0.74780 0.08685 0.39519
 C751 C 0.75703 0.07234 0.38449
 C752 C 0.74639 0.05991 0.37273
 C753 C 0.75897 0.09951 0.40837
 C754 C 0.77382 0.09192 0.41997
 C755 C 0.78397 0.10368 0.43282
 C756 C 0.77947 0.12316 0.43425
 C757 C 0.76485 0.13091 0.42265
 C758 C 0.75465 0.11916 0.40979
 C759 C 0.78959 0.13503 0.44796
 C760 C 0.79806 0.14467 0.45972
 H761 H 0.70164 0.07787 0.38108
 H762 H 0.72017 0.09966 0.40187
 H763 H 0.77248 0.07063 0.38520
 H764 H 0.75373 0.04871 0.36476
 H765 H 0.77730 0.07681 0.41943
 H766 H 0.79520 0.09752 0.44180
 H767 H 0.76126 0.14598 0.42364
 H768 H 0.74346 0.12546 0.40089
 C769 C 0.70531 0.96082 0.64901
 C770 C 0.71433 0.94908 0.63997
 C771 C 0.72509 0.93536 0.62879
 C772 C 0.71637 0.91839 0.62250
 C773 C 0.72656 0.90549 0.61087
 C774 C 0.74563 0.90942 0.60536
 C775 C 0.75435 0.92640 0.61199
 C776 C 0.74413 0.93928 0.62361
 C777 C 0.75620 0.89619 0.59227
 C778 C 0.77583 0.89235 0.59531
 C779 C 0.78594 0.88054 0.58247
 C780 C 0.77657 0.87241 0.56645
 C781 C 0.75700 0.87594 0.56344
 C782 C 0.74686 0.88774 0.57626
 C783 C 0.78714 0.86098 0.55273
 C784 C 0.79596 0.85169 0.54096
 H785 H 0.70164 0.91522 0.62643
 H786 H 0.71954 0.89243 0.60619
 H787 H 0.76890 0.92997 0.60778
 H788 H 0.75098 0.95242 0.62831
 H789 H 0.78336 0.89846 0.60763
 H790 H 0.80109 0.87789 0.58494
 H791 H 0.74963 0.86980 0.55102
 H792 H 0.73184 0.89063 0.57336
 C793 C 0.29550 0.96142 0.35165
 C794 C 0.28625 0.94973 0.36052
 C795 C 0.27519 0.93608 0.37150
 C796 C 0.28319 0.91838 0.37662
 C797 C 0.27274 0.90549 0.38806
 C798 C 0.25414 0.91018 0.39453
 C799 C 0.24614 0.92791 0.38907
 C800 C 0.25662 0.94076 0.37765
 C801 C 0.24335 0.89694 0.40743
 C802 C 0.22343 0.89433 0.40504
 C803 C 0.21316 0.88255 0.41780
 C804 C 0.22266 0.87323 0.43307
 C805 C 0.24250 0.87551 0.43539
 C806 C 0.25280 0.88726 0.42265
 C807 C 0.21196 0.86195 0.44683
 C808 C 0.20310 0.85283 0.45871
 H809 H 0.29756 0.91461 0.37194
 H810 H 0.27920 0.89187 0.39183
 H811 H 0.23199 0.93206 0.39404
 H812 H 0.25033 0.95448 0.37385
 H813 H 0.21580 0.90140 0.39333
 H814 H 0.19780 0.88089 0.41587
 H815 H 0.24997 0.86845 0.44723
 H816 H 0.26806 0.88918 0.42505
 C817 C 0.03886 0.35225 0.70385
 C818 C 0.05062 0.36146 0.71271
 C819 C 0.06434 0.37278 0.72335
 C820 C 0.06727 0.36949 0.74322
 C821 C 0.07992 0.38108 0.75377
 C822 C 0.08981 0.39615 0.74456
 C823 C 0.08695 0.39917 0.72451
 C824 C 0.07429 0.38756 0.71400
 C825 C 0.10260 0.40903 0.75589
 C826 C 0.12007 0.41554 0.74799
 C827 C 0.13171 0.42824 0.75841
 C828 C 0.12606 0.43459 0.77685
 C829 C 0.10883 0.42803 0.78492
 C830 C 0.09717 0.41533 0.77454
 C831 C 0.13763 0.44826 0.78727
 C832 C 0.14706 0.45994 0.79598
 H833 H 0.05964 0.35808 0.75061
 H834 H 0.08200 0.37825 0.76912
 H835 H 0.09414 0.41080 0.71705
 H836 H 0.07204 0.39030 0.69864
 H837 H 0.12474 0.41077 0.73377
 H838 H 0.14504 0.43322 0.75203
 H839 H 0.10428 0.43293 0.79915
 H840 H 0.08370 0.41080 0.78091
 C841 C 0.03907 0.64770 0.29628
 C842 C 0.05090 0.63859 0.28743
 C843 C 0.06471 0.62738 0.27682
 C844 C 0.07418 0.61215 0.28597
 C845 C 0.08692 0.60066 0.27545
 C846 C 0.09032 0.60424 0.25559
 C847 C 0.08092 0.61977 0.24660
 C848 C 0.06820 0.63125 0.25716
 C849 C 0.10311 0.59146 0.24420
 C850 C 0.09796 0.58580 0.22524
 C851 C 0.10956 0.57312 0.21480
 C852 C 0.12646 0.56594 0.22311
 C853 C 0.13185 0.57167 0.24185
 C854 C 0.12026 0.58435 0.25234
 C855 C 0.13786 0.55219 0.21264
 C856 C 0.14704 0.54040 0.20384
 H857 H 0.07150 0.60897 0.30116
 H858 H 0.09371 0.58866 0.28271
 H859 H 0.08342 0.62303 0.23141
 H860 H 0.06094 0.64301 0.24994
 H861 H 0.08472 0.59079 0.21868
 H862 H 0.10520 0.56868 0.20034
 H863 H 0.14491 0.56620 0.24842
 H864 H 0.12472 0.58862 0.26680
 C865 C 0.95900 0.35222 0.29634
 C866 C 0.94707 0.36159 0.28788
 C867 C 0.93317 0.37318 0.27778
 C868 C 0.92539 0.36698 0.26008
 C869 C 0.91252 0.37867 0.24988
 C870 C 0.90729 0.39674 0.25726
 C871 C 0.91502 0.40272 0.27519
 C872 C 0.92787 0.39102 0.28535
 C873 C 0.89430 0.40956 0.24608
 C874 C 0.88028 0.42059 0.25566
 C875 C 0.86866 0.43331 0.24521
 C876 C 0.87088 0.43516 0.22506
 C877 C 0.88459 0.42406 0.21535
 C878 C 0.89622 0.41133 0.22577
 C879 C 0.85958 0.44893 0.21445
 C880 C 0.85041 0.46071 0.20559
 H881 H 0.92939 0.35319 0.25409
 H882 H 0.90665 0.37358 0.23623
 H883 H 0.91150 0.41665 0.28112
 H884 H 0.93389 0.39600 0.29899
 H885 H 0.87829 0.41938 0.27124
 H886 H 0.85808 0.44183 0.25286
 H887 H 0.88650 0.42545 0.19977
 H888 H 0.90705 0.40324 0.21801
 C889 C 0.96260 0.64717 0.70437
 C890 C 0.95115 0.63736 0.71295
 C891 C 0.93787 0.62518 0.72315
 C892 C 0.94255 0.60595 0.72639
 C893 C 0.92979 0.59398 0.73630
 C894 C 0.91212 0.60110 0.74312
 C895 C 0.90754 0.62048 0.73983
 C896 C 0.92034 0.63243 0.72988
 C897 C 0.89865 0.58833 0.75371
 C898 C 0.88878 0.59489 0.77028
 C899 C 0.87665 0.58258 0.78063
 C900 C 0.87420 0.56361 0.77451
 C901 C 0.88375 0.55705 0.75790
 C902 C 0.89588 0.56931 0.74756
 C903 C 0.86241 0.55063 0.78554
 C904 C 0.85290 0.53937 0.79470
 H905 H 0.95611 0.60020 0.72131
 H906 H 0.93387 0.57922 0.73887
 H907 H 0.89397 0.62632 0.74472
 H908 H 0.91656 0.64730 0.72741
 H909 H 0.89078 0.60939 0.77550
 H910 H 0.86939 0.58778 0.79352
 H911 H 0.88194 0.54240 0.75303
 H912 H 0.90305 0.56392 0.73470
 C913 C 0.70427 0.64812 0.96051
 C914 C 0.71340 0.63900 0.94883
 C915 C 0.72430 0.62773 0.93521
 C916 C 0.71597 0.62183 0.91766
 C917 C 0.72627 0.61014 0.90486
 C918 C 0.74507 0.60418 0.90946
 C919 C 0.75339 0.61041 0.92703
 C920 C 0.74306 0.62208 0.93981
 C921 C 0.75576 0.59110 0.89630
 C922 C 0.77559 0.59358 0.89314
 C923 C 0.78577 0.58078 0.88137
 C924 C 0.77629 0.56534 0.87261
 C925 C 0.75654 0.56288 0.87546
 C926 C 0.74633 0.57567 0.88721
 C927 C 0.78691 0.55166 0.86121
 C928 C 0.79578 0.53997 0.85196
 H929 H 0.70145 0.62612 0.91396
 H930 H 0.71955 0.60578 0.89135
 H931 H 0.76771 0.60586 0.93113
 H932 H 0.74961 0.62648 0.95340
 H933 H 0.78321 0.60544 0.89973
 H934 H 0.80106 0.58282 0.87926
 H935 H 0.74907 0.55093 0.86883
 H936 H 0.73115 0.57320 0.88956
 C937 C 0.29847 0.35396 0.96176
 C938 C 0.28962 0.36305 0.94981
 C939 C 0.27908 0.37428 0.93583
 C940 C 0.26108 0.36812 0.92922
 C941 C 0.25053 0.37945 0.91624
 C942 C 0.25787 0.39711 0.90971
 C943 C 0.27608 0.40305 0.91628
 C944 C 0.28659 0.39171 0.92926
 C945 C 0.24639 0.40957 0.89655
 C946 C 0.25531 0.41980 0.88138
 C947 C 0.24462 0.43219 0.86958
 C948 C 0.22490 0.43451 0.87275
 C949 C 0.21584 0.42420 0.88760
 C950 C 0.22650 0.41180 0.89942
 C951 C 0.21409 0.44802 0.86130
 C952 C 0.20506 0.45964 0.85205
 H953 H 0.25513 0.35465 0.93421
 H954 H 0.23666 0.37439 0.91127
 H955 H 0.28201 0.41669 0.91177
 H956 H 0.30046 0.39666 0.93436
 H957 H 0.27055 0.41821 0.87865
 H958 H 0.25178 0.44010 0.85813
 H959 H 0.20060 0.42597 0.89026
 H960 H 0.21925 0.40435 0.91112
 C961 C 0.29686 0.64713 0.03925
 C962 C 0.28791 0.63795 0.05101
 C963 C 0.27715 0.62662 0.06471
 C964 C 0.28654 0.61755 0.08021
 C965 C 0.27622 0.60581 0.09295
 C966 C 0.25636 0.60297 0.09034
 C967 C 0.24702 0.61237 0.07487
 C968 C 0.25736 0.62410 0.06214
 C969 C 0.24551 0.58984 0.10333
 C970 C 0.22678 0.59445 0.10947
 C971 C 0.21634 0.58172 0.12108
 C972 C 0.22446 0.56422 0.12672
 C973 C 0.24315 0.55960 0.12088
 C974 C 0.25362 0.57231 0.10928
 C975 C 0.21346 0.55076 0.13800
 C976 C 0.20427 0.53925 0.14719
 H977 H 0.30185 0.61941 0.08233
 H978 H 0.28377 0.59897 0.10487
 H979 H 0.23181 0.61028 0.07230
 H980 H 0.24998 0.63096 0.05012
 H981 H 0.22023 0.60793 0.10533
 H982 H 0.20188 0.58545 0.12553
 H983 H 0.24954 0.54606 0.12508
 H984 H 0.26788 0.56821 0.10458
 C985 C 0.70376 0.35270 0.03875
 C986 C 0.71252 0.36199 0.05059
 C987 C 0.72302 0.37343 0.06441
 C988 C 0.71373 0.38095 0.08076
 C989 C 0.72376 0.39274 0.09373
 C990 C 0.74322 0.39717 0.09048
 C991 C 0.75248 0.38934 0.07412
 C992 C 0.74243 0.37757 0.06117
 C993 C 0.75371 0.41031 0.10377
 C994 C 0.77298 0.40671 0.10886
 C995 C 0.78305 0.41952 0.12074
 C996 C 0.77401 0.43606 0.12770
 C997 C 0.75479 0.43964 0.12292
 C998 C 0.74469 0.42686 0.11106
 C999 C 0.78461 0.44968 0.13921
 C1000 C 0.79351 0.46131 0.14854
 H1001 H 0.69871 0.37783 0.08341
 H1002 H 0.71630 0.39835 0.10631
 H1003 H 0.76736 0.39269 0.07105
 H1004 H 0.74973 0.37192 0.04850
 H1005 H 0.78025 0.39398 0.10369
 H1006 H 0.79793 0.41660 0.12436
 H1007 H 0.74768 0.45246 0.12815
 H1008 H 0.72997 0.43017 0.10720
 C1009 C 0.96267 0.70477 0.64916
 C1010 C 0.95084 0.71364 0.63999
 C1011 C 0.93701 0.72421 0.62868
 C1012 C 0.92071 0.71500 0.62125
 C1013 C 0.90771 0.72507 0.60956
 C1014 C 0.91085 0.74452 0.60513
 C1015 C 0.92715 0.75370 0.61289
 C1016 C 0.94014 0.74359 0.62457
 C1017 C 0.89751 0.75504 0.59203
 C1018 C 0.89255 0.77423 0.59584
 C1019 C 0.88060 0.78432 0.58305
 C1020 C 0.87346 0.77539 0.56631
 C1021 C 0.87813 0.75625 0.56251
 C1022 C 0.89005 0.74613 0.57528
 C1023 C 0.86191 0.78601 0.55266
 C1024 C 0.85255 0.79488 0.54094
 H1025 H 0.91815 0.70000 0.62435
 H1026 H 0.89518 0.71767 0.60400
 H1027 H 0.93012 0.76856 0.60954
 H1028 H 0.95276 0.75084 0.63016
 H1029 H 0.89787 0.78141 0.60872
 H1030 H 0.87708 0.79913 0.58613
 H1031 H 0.87278 0.74923 0.54954
 H1032 H 0.89382 0.73148 0.57179
 C1033 C 0.96148 0.29432 0.35098
 C1034 C 0.94999 0.28506 0.36014
 C1035 C 0.93655 0.27405 0.37146
 C1036 C 0.91880 0.28194 0.37668
 C1037 C 0.90611 0.27155 0.38840
 C1038 C 0.91103 0.25312 0.39507
 C1039 C 0.92882 0.24523 0.38954
 C1040 C 0.94149 0.25565 0.37783
 C1041 C 0.89794 0.24236 0.40818
 C1042 C 0.89545 0.22246 0.40602
 C1043 C 0.88370 0.21225 0.41886
 C1044 C 0.87428 0.22178 0.43400
 C1045 C 0.87647 0.24160 0.43614
 C1046 C 0.88820 0.25183 0.42331
 C1047 C 0.86289 0.21117 0.44776
 C1048 C 0.85364 0.20232 0.45955
 H1049 H 0.91484 0.29617 0.37182
 H1050 H 0.89243 0.27791 0.39221
 H1051 H 0.93315 0.23120 0.39466
 H1052 H 0.95524 0.24945 0.37398
 H1053 H 0.90256 0.21480 0.39438
 H1054 H 0.88210 0.19691 0.41707
 H1055 H 0.86933 0.24911 0.44788
 H1056 H 0.89003 0.26708 0.42554
 C1057 C 0.03729 0.29556 0.64770
 C1058 C 0.04879 0.28646 0.63841
 C1059 C 0.06221 0.27554 0.62697
 C1060 C 0.07530 0.28492 0.61481
 C1061 C 0.08775 0.27432 0.60304
 C1062 C 0.08723 0.25416 0.60323
 C1063 C 0.07418 0.24487 0.61570
 C1064 C 0.06175 0.25550 0.62747
 C1065 C 0.09987 0.24290 0.59011
 C1066 C 0.09272 0.22665 0.58039
 C1067 C 0.10441 0.21635 0.56760
 C1068 C 0.12340 0.22209 0.56436
 C1069 C 0.13072 0.23814 0.57408
 C1070 C 0.11904 0.24848 0.58687
 C1071 C 0.13517 0.21174 0.55073
 C1072 C 0.14471 0.20303 0.53908
 H1073 H 0.07570 0.30043 0.61423
 H1074 H 0.09744 0.28190 0.59342
 H1075 H 0.07360 0.22938 0.61637
 H1076 H 0.05167 0.24809 0.63682
 H1077 H 0.07796 0.22214 0.58233
 H1078 H 0.09857 0.20400 0.56009
 H1079 H 0.14540 0.24271 0.57169
 H1080 H 0.12503 0.26079 0.59431
 C1081 C 0.03753 0.70425 0.35235
 C1082 C 0.04911 0.71336 0.36157
 C1083 C 0.06265 0.72425 0.37291
 C1084 C 0.08035 0.71623 0.37817
 C1085 C 0.09317 0.72657 0.38982
 C1086 C 0.08844 0.74509 0.39636
 C1087 C 0.07069 0.75309 0.39080
 C1088 C 0.05789 0.74272 0.37918
 C1089 C 0.10171 0.75585 0.40931
 C1090 C 0.10432 0.77571 0.40695
 C1091 C 0.11620 0.78595 0.41966
 C1092 C 0.12564 0.77648 0.43488
 C1093 C 0.12333 0.75670 0.43720
 C1094 C 0.11147 0.74643 0.42451
 C1095 C 0.13715 0.78716 0.44850
 C1096 C 0.14648 0.79615 0.46013
 H1097 H 0.08418 0.70195 0.37340
 H1098 H 0.10681 0.72012 0.39365
 H1099 H 0.06650 0.76718 0.39582
 H1100 H 0.04419 0.74903 0.37528
 H1101 H 0.09719 0.78333 0.39525
 H1102 H 0.11788 0.80126 0.41772
 H1103 H 0.13049 0.74924 0.44900
 H1104 H 0.10957 0.73121 0.42688
 C1105 C 0.64674 0.96161 0.70465
 C1106 C 0.63690 0.95035 0.71346
 C1107 C 0.62467 0.93733 0.72396
 C1108 C 0.62866 0.91767 0.72424
 C1109 C 0.61645 0.90508 0.73415
 C1110 C 0.60006 0.91203 0.74385
 C1111 C 0.59629 0.93183 0.74357
 C1112 C 0.60851 0.94437 0.73369
 C1113 C 0.58685 0.89872 0.75411
 C1114 C 0.56684 0.90137 0.75297
 C1115 C 0.55437 0.88913 0.76292
 C1116 C 0.56169 0.87407 0.77414
 C1117 C 0.58157 0.87119 0.77526
 C1118 C 0.59409 0.88342 0.76529
 C1119 C 0.54871 0.86190 0.78476
 C1120 C 0.53748 0.85210 0.79366
 H1121 H 0.64111 0.91206 0.71670
 H1122 H 0.61963 0.88990 0.73393
 H1123 H 0.58397 0.93766 0.75115
 H1124 H 0.60531 0.95957 0.73361
 H1125 H 0.56081 0.91283 0.74426
 H1126 H 0.53900 0.89147 0.76192
 H1127 H 0.58739 0.85961 0.78396
 H1128 H 0.60942 0.88113 0.76661
 C1129 C 0.35430 0.96185 0.29661
 C1130 C 0.36385 0.95024 0.28795
 C1131 C 0.37561 0.93664 0.27767
 C1132 C 0.39450 0.93327 0.28380
 C1133 C 0.40620 0.92051 0.27357
 C1134 C 0.39916 0.91093 0.25701
 C1135 C 0.38010 0.91431 0.25104
 C1136 C 0.36841 0.92708 0.26132
 C1137 C 0.41182 0.89782 0.24582
 C1138 C 0.41156 0.89792 0.22534
 C1139 C 0.42401 0.88611 0.21481
 C1140 C 0.43686 0.87403 0.22459
 C1141 C 0.43706 0.87364 0.24495
 C1142 C 0.42463 0.88544 0.25550
 C1143 C 0.45025 0.86250 0.21375
 C1144 C 0.46171 0.85311 0.20471
 H1145 H 0.40025 0.94067 0.29638
 H1146 H 0.42088 0.91845 0.27837
 H1147 H 0.37420 0.90699 0.23849
 H1148 H 0.35381 0.92957 0.25645
 H1149 H 0.40206 0.90746 0.21746
 H1150 H 0.42380 0.88660 0.19906
 H1151 H 0.44694 0.86433 0.25266
 H1152 H 0.42501 0.88485 0.27124
 C1153 C 0.64957 0.03831 0.29441
 C1154 C 0.64031 0.05001 0.28553
 C1155 C 0.62887 0.06370 0.27494
 C1156 C 0.61603 0.07561 0.28487
 C1157 C 0.60425 0.08828 0.27455
 C1158 C 0.60514 0.08918 0.25411
 C1159 C 0.61829 0.07732 0.24428
 C1160 C 0.63006 0.06466 0.25464
 C1161 C 0.59202 0.10203 0.24309
 C1162 C 0.58323 0.09567 0.22581
 C1163 C 0.57038 0.10748 0.21576
 C1164 C 0.56614 0.12580 0.22281
 C1165 C 0.57495 0.13235 0.23987
 C1166 C 0.58781 0.12055 0.24996
 C1167 C 0.55237 0.13762 0.21276
 C1168 C 0.54059 0.14721 0.20431
 H1169 H 0.61491 0.07490 0.30058
 H1170 H 0.59410 0.09703 0.28252
 H1171 H 0.61949 0.07784 0.22858
 H1172 H 0.63995 0.05550 0.24680
 H1173 H 0.58594 0.08139 0.22029
 H1174 H 0.56357 0.10223 0.20262
 H1175 H 0.57179 0.14652 0.24545
 H1176 H 0.59452 0.12594 0.26309
 C1177 C 0.35113 0.03925 0.70683
 C1178 C 0.36037 0.05084 0.71587
 C1179 C 0.37178 0.06446 0.72654
 C1180 C 0.37811 0.06010 0.74537
 C1181 C 0.38988 0.07294 0.75545
 C1182 C 0.39552 0.09034 0.74681
 C1183 C 0.38889 0.09469 0.72796
 C1184 C 0.37711 0.08183 0.71790
 C1185 C 0.40869 0.10361 0.75721
 C1186 C 0.42369 0.11283 0.74718
 C1187 C 0.43655 0.12472 0.75709
 C1188 C 0.43459 0.12761 0.77714
 C1189 C 0.41959 0.11870 0.78722
 C1190 C 0.40671 0.10678 0.77734
 C1191 C 0.44840 0.13914 0.78745
 C1192 C 0.46023 0.14849 0.79606
 H1193 H 0.37416 0.04665 0.75215
 H1194 H 0.39495 0.06905 0.76982
 H1195 H 0.39279 0.10806 0.72101
 H1196 H 0.37229 0.08535 0.70334
 H1197 H 0.42577 0.11046 0.73176
 H1198 H 0.44818 0.13145 0.74916
 H1199 H 0.41794 0.12083 0.80274
 H1200 H 0.39518 0.10007 0.78542
 C1201 C 0.64629 0.70324 0.03811
 C1202 C 0.63673 0.71187 0.04981
 C1203 C 0.62493 0.72215 0.06348
 C1204 C 0.63215 0.73828 0.07312
 C1205 C 0.62043 0.74856 0.08593
 C1206 C 0.60133 0.74282 0.08925
 C1207 C 0.59428 0.72648 0.07961
 C1208 C 0.60601 0.71624 0.06681
 C1209 C 0.58863 0.75402 0.10238
 C1210 C 0.57570 0.74467 0.11493
 C1211 C 0.56324 0.75523 0.12672
 C1212 C 0.56353 0.77527 0.12615
 C1213 C 0.57649 0.78472 0.11391
 C1214 C 0.58898 0.77418 0.10211
 C1215 C 0.55011 0.78612 0.13765
 C1216 C 0.53863 0.79518 0.14702
 H1217 H 0.64679 0.74297 0.07066
 H1218 H 0.62634 0.76094 0.09330
 H1219 H 0.57957 0.72185 0.08163
 H1220 H 0.60025 0.70383 0.05935
 H1221 H 0.57526 0.72917 0.11566
 H1222 H 0.55327 0.74777 0.13615
 H1223 H 0.57677 0.80023 0.11328
 H1224 H 0.59857 0.78181 0.09243
 C1225 C 0.35487 0.29880 0.04075
 C1226 C 0.36420 0.29012 0.05263
 C1227 C 0.37574 0.27978 0.06651
 C1228 C 0.36868 0.26308 0.07523
 C1229 C 0.38021 0.25269 0.08817
 C1230 C 0.39898 0.25889 0.09255
 C1231 C 0.40584 0.27581 0.08385
 C1232 C 0.39430 0.28616 0.07092
 C1233 C 0.41156 0.24752 0.10569
 C1234 C 0.42378 0.25670 0.11909
 C1235 C 0.43627 0.24602 0.13079
 C1236 C 0.43671 0.22603 0.12927
 C1237 C 0.42441 0.21674 0.11621
 C1238 C 0.41189 0.22739 0.10451
 C1239 C 0.45032 0.21511 0.14053
 C1240 C 0.46199 0.20595 0.14959
 H1241 H 0.35433 0.25802 0.07193
 H1242 H 0.37444 0.23985 0.09480
 H1243 H 0.42031 0.28080 0.08668
 H1244 H 0.39995 0.29901 0.06417
 H1245 H 0.42368 0.27215 0.12052
 H1246 H 0.44573 0.25336 0.14085
 H1247 H 0.42471 0.20128 0.11484
 H1248 H 0.40286 0.21991 0.09416
 C1249 C 0.64847 0.29607 0.96014
 C1250 C 0.63934 0.28713 0.94830
 C1251 C 0.62806 0.27645 0.93449
 C1252 C 0.62370 0.25720 0.93808
 C1253 C 0.61201 0.24702 0.92516
 C1254 C 0.60448 0.25599 0.90846
 C1255 C 0.60916 0.27528 0.90484
 C1256 C 0.62087 0.28543 0.91778
 C1257 C 0.59133 0.24541 0.89523
 C1258 C 0.57491 0.25445 0.88753
 C1259 C 0.56206 0.24428 0.87578
 C1260 C 0.56544 0.22497 0.87153
 C1261 C 0.58187 0.21591 0.87889
 C1262 C 0.59474 0.22605 0.89065
 C1263 C 0.55168 0.21430 0.86025
 C1264 C 0.53986 0.20538 0.85115
 H1265 H 0.62910 0.25014 0.95103
 H1266 H 0.60846 0.23228 0.92851
 H1267 H 0.60378 0.28251 0.89200
 H1268 H 0.62416 0.30033 0.91486
 H1269 H 0.57173 0.26924 0.89100
 H1270 H 0.54933 0.25140 0.87026
 H1271 H 0.58462 0.20096 0.87569
 H1272 H 0.60736 0.21876 0.89617
 C1273 C 0.35312 0.70270 0.96065
 C1274 C 0.36234 0.71146 0.94877
 C1275 C 0.37369 0.72194 0.93487
 C1276 C 0.37633 0.74169 0.93710
 C1277 C 0.38800 0.75178 0.92410
 C1278 C 0.39723 0.74222 0.90870
 C1279 C 0.39430 0.72239 0.90646
 C1280 C 0.38261 0.71233 0.91947
 C1281 C 0.41026 0.75281 0.89539
 C1282 C 0.42776 0.74460 0.88941
 C1283 C 0.44038 0.75483 0.87749
 C1284 C 0.43569 0.77338 0.87134
 C1285 C 0.41823 0.78159 0.87701
 C1286 C 0.40558 0.77138 0.88895
 C1287 C 0.44912 0.78419 0.85981
 C1288 C 0.46061 0.79328 0.85048
 H1289 H 0.36957 0.74926 0.94903
 H1290 H 0.39017 0.76697 0.92639
 H1291 H 0.40102 0.71467 0.89462
 H1292 H 0.38066 0.69704 0.91761
 H1293 H 0.43191 0.73045 0.89433
 H1294 H 0.45391 0.74838 0.87328
 H1295 H 0.41445 0.79594 0.87234
 H1296 H 0.39213 0.77800 0.89311
 C1297 C 0.70606 0.95981 0.35148
 C1298 C 0.71486 0.94812 0.36084
 C1299 C 0.72537 0.93446 0.37241
 C1300 C 0.74482 0.93756 0.37653
 C1301 C 0.75486 0.92478 0.38848
 C1302 C 0.74554 0.90873 0.39651
 C1303 C 0.72603 0.90562 0.39208
 C1304 C 0.71603 0.91841 0.38012
 C1305 C 0.75599 0.89562 0.40988
 C1306 C 0.74698 0.88856 0.42675
 C1307 C 0.75704 0.87683 0.43974
 C1308 C 0.77620 0.87197 0.43607
 C1309 C 0.78523 0.87874 0.41923
 C1310 C 0.77521 0.89048 0.40621
 C1311 C 0.78676 0.86060 0.44992
 C1312 C 0.79560 0.85138 0.46176
 H1313 H 0.75216 0.95000 0.37073
 H1314 H 0.76977 0.92772 0.39182
 H1315 H 0.71853 0.89327 0.39785
 H1316 H 0.70097 0.91588 0.37702
 H1317 H 0.73231 0.89247 0.43014
 H1318 H 0.74994 0.87177 0.45279
 H1319 H 0.80007 0.87507 0.41624
 H1320 H 0.78247 0.89550 0.39325
 C1321 C 0.29422 0.96276 0.64755
 C1322 C 0.28528 0.95162 0.63765
 C1323 C 0.27463 0.93874 0.62533
 C1324 C 0.26503 0.94590 0.60897
 C1325 C 0.25501 0.93349 0.59666
 C1326 C 0.25445 0.91370 0.60054
 C1327 C 0.26402 0.90664 0.61712
 C1328 C 0.27407 0.91910 0.62942
 C1329 C 0.24404 0.90054 0.58722
 C1330 C 0.23282 0.88542 0.59461
 C1331 C 0.22271 0.87333 0.58198
 C1332 C 0.22373 0.87617 0.56184
 C1333 C 0.23499 0.89104 0.55437
 C1334 C 0.24509 0.90314 0.56694
 C1335 C 0.21298 0.86413 0.54877
 C1336 C 0.20397 0.85444 0.53747
 H1337 H 0.26533 0.96109 0.60569
 H1338 H 0.24755 0.93941 0.58419
 H1339 H 0.26402 0.89146 0.62038
 H1340 H 0.28150 0.91340 0.64202
 H1341 H 0.23157 0.88317 0.61014
 H1342 H 0.21398 0.86190 0.58793
 H1343 H 0.23592 0.89335 0.53880
 H1344 H 0.25382 0.91445 0.56079
 C1345 C 0.29573 0.03935 0.35270
 C1346 C 0.28656 0.05087 0.36189
 C1347 C 0.27560 0.06431 0.37323
 C1348 C 0.28397 0.08148 0.37947
 C1349 C 0.27357 0.09414 0.39119
 C1350 C 0.25463 0.08978 0.39683
 C1351 C 0.24627 0.07260 0.39027
 C1352 C 0.25670 0.05996 0.37857
 C1353 C 0.24379 0.10282 0.40992
 C1354 C 0.22405 0.10616 0.40696
 C1355 C 0.21373 0.11783 0.41976
 C1356 C 0.22297 0.12631 0.43567
 C1357 C 0.24264 0.12326 0.43861
 C1358 C 0.25300 0.11162 0.42582
 C1359 C 0.21217 0.13761 0.44934
 C1360 C 0.20311 0.14679 0.46102
 H1361 H 0.29860 0.08499 0.37543
 H1362 H 0.28032 0.10736 0.39580
 H1363 H 0.23183 0.06869 0.39457
 H1364 H 0.25011 0.04666 0.37391
 H1365 H 0.21661 0.09979 0.39472
 H1366 H 0.19851 0.12009 0.41735
 H1367 H 0.24992 0.12968 0.45093
 H1368 H 0.26810 0.10912 0.42866
 C1369 C 0.70570 0.03887 0.64863
 C1370 C 0.71482 0.05041 0.63943
 C1371 C 0.72569 0.06388 0.62802
 C1372 C 0.71733 0.08115 0.62205
 C1373 C 0.72759 0.09381 0.61018
 C1374 C 0.74638 0.08933 0.60413
 C1375 C 0.75474 0.07204 0.61043
 C1376 C 0.74445 0.05941 0.62228
 C1377 C 0.75702 0.10233 0.59084
 C1378 C 0.77684 0.10551 0.59338
 C1379 C 0.78698 0.11714 0.58037
 C1380 C 0.77745 0.12575 0.56469
 C1381 C 0.75771 0.12287 0.56218
 C1382 C 0.74754 0.11126 0.57517
 C1383 C 0.78803 0.13701 0.55080
 C1384 C 0.79688 0.14615 0.53893
 H1385 H 0.70281 0.08476 0.62640
 H1386 H 0.72085 0.10711 0.60577
 H1387 H 0.76906 0.06804 0.60580
 H1388 H 0.75102 0.04602 0.62672
 H1389 H 0.78450 0.09903 0.60543
 H1390 H 0.80226 0.11927 0.58245
 H1391 H 0.75021 0.12938 0.55003
 H1392 H 0.73237 0.10888 0.57265
 C1393 C 0.96064 0.64669 0.29628
 C1394 C 0.94893 0.63733 0.28751
 C1395 C 0.93518 0.62586 0.27704
 C1396 C 0.93724 0.62310 0.25698
 C1397 C 0.92434 0.61137 0.24691
 C1398 C 0.90921 0.60220 0.25679
 C1399 C 0.90714 0.60524 0.27692
 C1400 C 0.92006 0.61699 0.28696
 C1401 C 0.89599 0.58911 0.24622
 C1402 C 0.89015 0.57172 0.25473
 C1403 C 0.87827 0.55907 0.24453
 C1404 C 0.87201 0.56363 0.22573
 C1405 C 0.87755 0.58099 0.21721
 C1406 C 0.88945 0.59366 0.22738
 C1407 C 0.86043 0.55020 0.21499
 C1408 C 0.85102 0.53871 0.20601
 H1409 H 0.94895 0.62982 0.24917
 H1410 H 0.92648 0.60911 0.23148
 H1411 H 0.89551 0.59858 0.28489
 H1412 H 0.91833 0.61904 0.30249
 H1413 H 0.89515 0.56767 0.26908
 H1414 H 0.87415 0.54562 0.25122
 H1415 H 0.87279 0.58466 0.20266
 H1416 H 0.89350 0.60704 0.22054
 C1417 C 0.96058 0.35292 0.70407
 C1418 C 0.94897 0.36228 0.71295
 C1419 C 0.93539 0.37379 0.72356
 C1420 C 0.93811 0.37712 0.74345
 C1421 C 0.92539 0.38893 0.75363
 C1422 C 0.90977 0.39760 0.74403
 C1423 C 0.90702 0.39397 0.72408
 C1424 C 0.91976 0.38214 0.71392
 C1425 C 0.89673 0.41079 0.75468
 C1426 C 0.89031 0.42786 0.74588
 C1427 C 0.87862 0.44063 0.75612
 C1428 C 0.87315 0.43654 0.77526
 C1429 C 0.87927 0.41951 0.78408
 C1430 C 0.89098 0.40671 0.77386
 C1431 C 0.86177 0.45011 0.78601
 C1432 C 0.85252 0.46174 0.79497
 H1433 H 0.95022 0.37081 0.75103
 H1434 H 0.92805 0.39165 0.76891
 H1435 H 0.89500 0.40024 0.71633
 H1436 H 0.91751 0.37965 0.69853
 H1437 H 0.89470 0.43155 0.73124
 H1438 H 0.87405 0.45382 0.74919
 H1439 H 0.87512 0.41619 0.79889
 H1440 H 0.89549 0.39359 0.78095
 C1441 C 0.04060 0.64831 0.70503
 C1442 C 0.05224 0.63893 0.71390
 C1443 C 0.06578 0.62736 0.72454
 C1444 C 0.07729 0.61407 0.71472
 C1445 C 0.08976 0.60214 0.72514
 C1446 C 0.09084 0.60332 0.74555
 C1447 C 0.07941 0.61692 0.75526
 C1448 C 0.06696 0.62884 0.74481
 C1449 C 0.10341 0.59003 0.75670
 C1450 C 0.09691 0.58176 0.77417
 C1451 C 0.10845 0.56877 0.78436
 C1452 C 0.12663 0.56388 0.77727
 C1453 C 0.13332 0.57215 0.76000
 C1454 C 0.12179 0.58514 0.74977
 C1455 C 0.13817 0.55002 0.78750
 C1456 C 0.14752 0.53819 0.79611
 H1457 H 0.07642 0.61273 0.69904
 H1458 H 0.09817 0.59166 0.71726
 H1459 H 0.08010 0.61835 0.77094
 H1460 H 0.05812 0.63908 0.75257
 H1461 H 0.08273 0.58499 0.77974
 H1462 H 0.10309 0.56238 0.79766
 H1463 H 0.14739 0.56847 0.75439
 H1464 H 0.12729 0.59143 0.73649
 C1465 C 0.03700 0.35378 0.29520
 C1466 C 0.04817 0.36372 0.28639
 C1467 C 0.06112 0.37604 0.27590
 C1468 C 0.07958 0.36972 0.27097
 C1469 C 0.09210 0.38185 0.26086
 C1470 C 0.08630 0.40048 0.25562
 C1471 C 0.06770 0.40664 0.26060
 C1472 C 0.05522 0.39450 0.27067
 C1473 C 0.09954 0.41348 0.24498
 C1474 C 0.10041 0.43307 0.24975
 C1475 C 0.11245 0.44544 0.23943
 C1476 C 0.12380 0.43845 0.22422
 C1477 C 0.12320 0.41896 0.21948
 C1478 C 0.11117 0.40653 0.22980
 C1479 C 0.13570 0.45143 0.21329
 C1480 C 0.14536 0.46265 0.20422
 H1481 H 0.08431 0.35547 0.27498
 H1482 H 0.10639 0.37677 0.25741
 H1483 H 0.06270 0.42078 0.25651
 H1484 H 0.04094 0.39952 0.27435
 H1485 H 0.09186 0.43880 0.26154
 H1486 H 0.11283 0.46050 0.24326
 H1487 H 0.13187 0.41340 0.20768
 H1488 H 0.11066 0.39158 0.22565
   
