data_POSCAR
  _audit_creation_date              2014-09-24
  _audit_creation_method            'ToBaCCo'
  _symmetry_space_group_name_H-M    'P1'
  _symmetry_Int_Tables_number       1
  _symmetry_cell_setting            triclinic
  loop_
  _symmetry_equiv_pos_as_xyz
 x,y,z
_cell_length_a 45.1954
_cell_length_b 47.4334
_cell_length_c 45.1732
_cell_angle_alpha 89.988300
_cell_angle_beta 89.965100
_cell_angle_gamma 89.984700
loop_
  _atom_site_label
  _atom_site_type_symbol
  _atom_site_fract_x
  _atom_site_fract_y
  _atom_site_fract_z
C1 C 0.34836 1.36812 0.32227
 C2 C 0.37524 1.37379 0.30785
 C3 C 0.40085 1.35783 0.31403
 C4 C 0.39895 1.33580 0.33490
 C5 C 0.37219 1.32977 0.34923
 C6 C 0.34686 1.34610 0.34313
 C7 C 0.32297 1.38416 0.31608
 C8 C 0.29601 1.37883 0.33088
 C9 C 0.29495 1.35681 0.35184
 C10 C 0.32003 1.34033 0.35786
 C11 C 0.31866 1.31808 0.37833
 C12 C 0.34380 1.30144 0.38416
 C13 C 0.37043 1.30748 0.36950
 H14 H 0.37614 1.39077 0.29179
 H15 H 0.41801 1.32292 0.34000
 H16 H 0.32468 1.40100 0.30004
 H17 H 0.27449 1.35225 0.36344
 H18 H 0.29788 1.31353 0.38925
 H19 H 0.38992 1.29486 0.37402
 C20 C 0.34861 0.86853 0.82323
 C21 C 0.37547 0.87439 0.80887
 C22 C 0.40089 0.85816 0.81461
 C23 C 0.39908 0.83568 0.83483
 C24 C 0.37240 0.82955 0.84929
 C25 C 0.34711 0.84613 0.84366
 C26 C 0.32326 0.88474 0.81743
 C27 C 0.29630 0.87919 0.83215
 C28 C 0.29527 0.85687 0.85275
 C29 C 0.32033 0.84024 0.85841
 C30 C 0.31898 0.81774 0.87855
 C31 C 0.34408 0.80096 0.88406
 C32 C 0.37064 0.80699 0.86926
 H33 H 0.37657 0.89165 0.79317
 H34 H 0.41822 0.82267 0.83929
 H35 H 0.32499 0.90185 0.80169
 H36 H 0.27482 0.85216 0.86432
 H37 H 0.29823 0.81315 0.88952
 H38 H 0.39010 0.79424 0.87348
 C39 C 0.84838 1.36672 0.82093
 C40 C 0.87527 1.37280 0.80668
 C41 C 0.90110 1.35720 0.81304
 C42 C 0.89946 1.33525 0.83403
 C43 C 0.87274 1.32883 0.84822
 C44 C 0.84715 1.34468 0.84184
 C45 C 0.82269 1.38230 0.81459
 C46 C 0.79582 1.37619 0.82907
 C47 C 0.79494 1.35427 0.84997
 C48 C 0.82031 1.33841 0.85635
 C49 C 0.81921 1.31630 0.87694
 C50 C 0.84464 1.30024 0.88316
 C51 C 0.87126 1.30663 0.86865
 H52 H 0.87597 1.38973 0.79057
 H53 H 0.91870 1.32269 0.83933
 H54 H 0.82384 1.39935 0.79871
 H55 H 0.77436 1.34940 0.86122
 H56 H 0.79842 1.31140 0.88768
 H57 H 0.89096 1.29440 0.87343
 C58 C 0.84783 0.86639 0.32051
 C59 C 0.87482 0.87266 0.30658
 C60 C 0.90073 0.85735 0.31333
 C61 C 0.89906 0.83545 0.33437
 C62 C 0.87224 0.82884 0.34827
 C63 C 0.84657 0.84443 0.34151
 C64 C 0.82209 0.88172 0.31377
 C65 C 0.79513 0.87551 0.32798
 C66 C 0.79418 0.85368 0.34901
 C67 C 0.81962 0.83802 0.35575
 C68 C 0.81851 0.81599 0.37647
 C69 C 0.84402 0.80016 0.38304
 C70 C 0.87073 0.80672 0.36879
 H71 H 0.87554 0.88955 0.29040
 H72 H 0.91838 0.82311 0.33996
 H73 H 0.82328 0.89873 0.29783
 H74 H 0.77352 0.84874 0.36006
 H75 H 0.79766 0.81096 0.38703
 H76 H 0.89050 0.79469 0.37385
 C77 C 0.67767 0.63059 0.34727
 C78 C 0.68342 0.61429 0.32196
 C79 C 0.66866 0.61977 0.29500
 C80 C 0.64811 0.64211 0.29392
 C81 C 0.64252 0.65884 0.31892
 C82 C 0.65728 0.65301 0.34571
 C83 C 0.69201 0.62480 0.37416
 C84 C 0.68629 0.64112 0.39954
 C85 C 0.66612 0.66363 0.39764
 C86 C 0.65169 0.66969 0.37095
 C87 C 0.63178 0.69227 0.36914
 C88 C 0.61699 0.69825 0.34257
 C89 C 0.62243 0.68137 0.31752
 H90 H 0.69912 0.59716 0.32371
 H91 H 0.63652 0.64676 0.27347
 H92 H 0.70768 0.60752 0.37532
 H93 H 0.66168 0.67671 0.41674
 H94 H 0.62760 0.70509 0.38857
 H95 H 0.61145 0.68591 0.29676
 C96 C 0.67935 0.13193 0.84714
 C97 C 0.68570 0.11642 0.82140
 C98 C 0.67122 0.12256 0.79455
 C99 C 0.65030 0.14446 0.79374
 C100 C 0.64391 0.16025 0.81916
 C101 C 0.65842 0.15395 0.84599
 C102 C 0.69361 0.12583 0.87401
 C103 C 0.68724 0.14136 0.89990
 C104 C 0.66622 0.16328 0.89832
 C105 C 0.65202 0.16974 0.87163
 C106 C 0.63157 0.19191 0.87021
 C107 C 0.61707 0.19834 0.84360
 C108 C 0.62330 0.18234 0.81813
 H109 H 0.70160 0.09938 0.82250
 H110 H 0.63905 0.14937 0.77318
 H111 H 0.70975 0.10891 0.87466
 H112 H 0.66091 0.17579 0.91761
 H113 H 0.62677 0.20411 0.88994
 H114 H 0.61256 0.18727 0.79735
 C115 C 1.17988 0.63198 0.84677
 C116 C 1.18654 0.61664 0.82099
 C117 C 1.17229 0.62287 0.79405
 C118 C 1.15130 0.64473 0.79317
 C119 C 1.14463 0.66039 0.81864
 C120 C 1.15891 0.65396 0.84555
 C121 C 1.19385 0.62569 0.87374
 C122 C 1.18716 0.64101 0.89968
 C123 C 1.16615 0.66294 0.89804
 C124 C 1.15222 0.66956 0.87124
 C125 C 1.13172 0.69171 0.86979
 C126 C 1.11742 0.69826 0.84310
 C127 C 1.12394 0.68243 0.81758
 H128 H 1.20246 0.59961 0.82213
 H129 H 1.14022 0.64969 0.77253
 H130 H 1.21000 0.60879 0.87442
 H131 H 1.16061 0.67529 0.91738
 H132 H 1.12670 0.70375 0.88957
 H133 H 1.11335 0.68746 0.79674
 C134 C 1.17809 0.13057 0.34757
 C135 C 1.18401 0.11440 0.32219
 C136 C 1.16900 0.11965 0.29531
 C137 C 1.14809 0.14169 0.29435
 C138 C 1.14230 0.15827 0.31941
 C139 C 1.15724 0.15261 0.34614
 C140 C 1.19273 0.12502 0.37438
 C141 C 1.18677 0.14112 0.39997
 C142 C 1.16592 0.16316 0.39811
 C143 C 1.15138 0.16907 0.37145
 C144 C 1.13110 0.19137 0.36975
 C145 C 1.11622 0.19727 0.34322
 C146 C 1.12184 0.18052 0.31811
 H147 H 1.20005 0.09755 0.32383
 H148 H 1.13633 0.14619 0.27397
 H149 H 1.20877 0.10803 0.37524
 H150 H 1.16097 0.17615 0.41714
 H151 H 1.12675 0.20408 0.38922
 H152 H 1.11076 0.18498 0.29740
 C153 C 0.65320 1.36826 0.67686
 C154 C 0.62625 1.37422 0.69099
 C155 C 0.60076 1.35822 0.68489
 C156 C 0.60260 1.33586 0.66455
 C157 C 0.62937 1.32962 0.65032
 C158 C 0.65473 1.34600 0.65628
 C159 C 0.67859 1.38424 0.68303
 C160 C 0.70562 1.37867 0.66846
 C161 C 0.70669 1.35650 0.64767
 C162 C 0.68159 1.34004 0.64170
 C163 C 0.68295 1.31763 0.62143
 C164 C 0.65778 1.30102 0.61565
 C165 C 0.63114 1.30717 0.63025
 H166 H 0.62513 1.39138 0.70681
 H167 H 0.58340 1.32302 0.65982
 H168 H 0.67683 1.40126 0.69887
 H169 H 0.72720 1.35179 0.63621
 H170 H 0.70374 1.31297 0.61058
 H171 H 0.61162 1.29458 0.62581
 C172 C 0.65322 0.86646 1.17880
 C173 C 0.62627 0.87287 1.19276
 C174 C 0.60029 0.85765 1.18608
 C175 C 0.60185 0.83569 1.16509
 C176 C 0.62864 0.82895 1.15116
 C177 C 0.65437 0.84446 1.15784
 C178 C 0.67902 0.88171 1.18545
 C179 C 0.70593 0.87537 1.17120
 C180 C 0.70677 0.85351 1.15022
 C181 C 0.68127 0.83793 1.14357
 C182 C 0.68228 0.81587 1.12290
 C183 C 0.65671 0.80012 1.11640
 C184 C 0.63004 0.80678 1.13068
 H185 H 0.62565 0.88979 1.20889
 H186 H 0.58248 0.82341 1.15957
 H187 H 0.67793 0.89876 1.20135
 H188 H 0.72740 0.84848 1.13915
 H189 H 0.70310 0.81077 1.11233
 H190 H 0.61024 0.79480 1.12567
 C191 C 1.15280 1.36863 1.17619
 C192 C 1.12587 1.37461 1.19035
 C193 C 1.10043 1.35847 1.18447
 C194 C 1.10228 1.33597 1.16429
 C195 C 1.12903 1.32972 1.15003
 C196 C 1.15435 1.34621 1.15580
 C197 C 1.17815 1.38474 1.18215
 C198 C 1.20518 1.37908 1.16761
 C199 C 1.20628 1.35675 1.14704
 C200 C 1.18121 1.34020 1.14124
 C201 C 1.18260 1.31765 1.12115
 C202 C 1.15747 1.30094 1.11554
 C203 C 1.13083 1.30712 1.13014
 H204 H 1.12473 1.39188 1.20603
 H205 H 1.08311 1.32303 1.15974
 H206 H 1.17637 1.40186 1.19785
 H207 H 1.22679 1.35197 1.13561
 H208 H 1.20340 1.31295 1.11033
 H209 H 1.11135 1.29443 1.12584
 C210 C 1.15362 0.86826 0.67626
 C211 C 1.12668 0.87411 0.69048
 C212 C 1.10132 0.85781 0.68470
 C213 C 1.10329 0.83527 0.66457
 C214 C 1.13004 0.82915 0.65026
 C215 C 1.15526 0.84580 0.65592
 C216 C 1.17889 0.88454 0.68209
 C217 C 1.20592 0.87901 0.66749
 C218 C 1.20710 0.85661 0.64699
 C219 C 1.18212 0.83991 0.64131
 C220 C 1.18360 0.81732 0.62127
 C221 C 1.15855 0.80047 0.61575
 C222 C 1.13192 0.80653 0.63042
 H223 H 1.12546 0.89142 0.70611
 H224 H 1.08420 0.82221 0.66010
 H225 H 1.17705 0.90170 0.69774
 H226 H 1.22761 0.85192 0.63551
 H227 H 1.20439 0.81273 0.61039
 H228 H 1.11250 0.79374 0.62619
 C229 C 0.32304 0.63163 0.65235
 C230 C 0.31641 0.61626 0.67810
 C231 C 0.33043 0.62269 0.70510
 C232 C 0.35123 0.64470 0.70604
 C233 C 0.35786 0.66039 0.68057
 C234 C 0.34373 0.65384 0.65362
 C235 C 0.30929 0.62516 0.62533
 C236 C 0.31586 0.64062 0.59955
 C237 C 0.33638 0.66285 0.60113
 C238 C 0.35026 0.66957 0.62794
 C239 C 0.37054 0.69188 0.62944
 C240 C 0.38479 0.69847 0.65614
 C241 C 0.37835 0.68259 0.68167
 H242 H 0.30069 0.59909 0.67691
 H243 H 0.36216 0.64978 0.72672
 H244 H 0.29337 0.60809 0.62442
 H245 H 0.34152 0.67523 0.58169
 H246 H 0.37546 0.70398 0.60967
 H247 H 0.38886 0.68768 0.70252
 C248 C 0.32432 0.12951 1.15202
 C249 C 0.31835 0.11341 1.17741
 C250 C 0.33290 0.11906 1.20443
 C251 C 0.35349 0.14137 1.20548
 C252 C 0.35931 0.15790 1.18037
 C253 C 0.34474 0.15191 1.15353
 C254 C 0.31014 0.12355 1.12511
 C255 C 0.31603 0.13968 1.09964
 C256 C 0.33623 0.16215 1.10144
 C257 C 0.35052 0.16839 1.12818
 C258 C 0.37044 0.19095 1.12993
 C259 C 0.38506 0.19711 1.15655
 C260 C 0.37942 0.18041 1.18171
 H261 H 0.30263 0.09631 1.17568
 H262 H 0.36494 0.14614 1.22597
 H263 H 0.29444 0.10631 1.12402
 H264 H 0.34078 0.17509 1.08225
 H265 H 0.37476 0.20363 1.11043
 H266 H 0.39026 0.18509 1.20250
 C267 C 0.82322 0.63094 1.15241
 C268 C 0.81704 0.61531 1.17811
 C269 C 0.83115 0.62179 1.20505
 C270 C 0.85159 0.64409 1.20599
 C271 C 0.85780 0.66000 1.18059
 C272 C 0.84359 0.65343 1.15369
 C273 C 0.80933 0.62451 1.12546
 C274 C 0.81545 0.64026 1.09976
 C275 C 0.83569 0.66273 1.10135
 C276 C 0.84970 0.66942 1.12809
 C277 C 0.86968 0.69197 1.12961
 C278 C 0.88401 0.69856 1.15628
 C279 C 0.87794 0.68245 1.18173
 H280 H 0.80156 0.59794 1.17690
 H281 H 0.86257 0.64922 1.22663
 H282 H 0.79364 0.60725 1.12453
 H283 H 0.84046 0.67534 1.08198
 H284 H 0.87431 0.70426 1.10991
 H285 H 0.88849 0.68754 1.20256
 C286 C 0.82286 0.13126 0.65173
 C287 C 0.81681 0.11519 0.67716
 C288 C 0.83193 0.12033 0.70399
 C289 C 0.85307 0.14216 0.70486
 C290 C 0.85895 0.15866 0.67977
 C291 C 0.84391 0.15311 0.65308
 C292 C 0.80816 0.12577 0.62494
 C293 C 0.81424 0.14178 0.59931
 C294 C 0.83525 0.16367 0.60111
 C295 C 0.84987 0.16950 0.62775
 C296 C 0.87035 0.19162 0.62938
 C297 C 0.88532 0.19742 0.65588
 C298 C 0.87961 0.18073 0.68101
 H299 H 0.80063 0.09847 0.67559
 H300 H 0.86492 0.14658 0.72521
 H301 H 0.79199 0.10891 0.62413
 H302 H 0.84029 0.17659 0.58205
 H303 H 0.87477 0.20429 0.60988
 H304 H 0.89077 0.18512 0.70170
 C305 C 1.35956 0.33937 0.68067
 C306 C 1.35409 0.35637 0.70552
 C307 C 1.33339 0.37859 0.70434
 C308 C 1.31859 0.38385 0.67738
 C309 C 1.32422 0.36730 0.65225
 C310 C 1.34453 0.34481 0.65397
 C311 C 1.37972 0.31689 0.68222
 C312 C 1.38470 0.29926 0.65751
 C313 C 1.36940 0.30493 0.63102
 C314 C 1.34974 0.32771 0.62898
 C315 C 1.33516 0.33358 0.60228
 C316 C 1.31526 0.35631 0.60019
 C317 C 1.30979 0.37291 0.62540
 H318 H 1.36579 0.35196 0.72595
 H319 H 1.30287 0.40095 0.67550
 H320 H 1.39088 0.31301 0.70299
 H321 H 1.37300 0.29180 0.61170
 H322 H 1.33931 0.32024 0.58331
 H323 H 1.29428 0.39030 0.62413
 C324 C 1.35809 0.83786 1.18105
 C325 C 1.35220 0.85430 1.20619
 C326 C 1.33173 0.87658 1.20504
 C327 C 1.31751 0.88270 1.17809
 C328 C 1.32337 0.86660 1.15269
 C329 C 1.34352 0.84394 1.15423
 C330 C 1.37817 0.81535 1.18243
 C331 C 1.38355 0.79824 1.15742
 C332 C 1.36862 0.80442 1.13083
 C333 C 1.34903 0.82729 1.12897
 C334 C 1.33480 0.83370 1.10221
 C335 C 1.31498 0.85653 1.10035
 C336 C 1.30932 0.87276 1.12579
 H337 H 1.36336 0.84950 1.22683
 H338 H 1.30210 0.90012 1.17667
 H339 H 1.38894 0.81103 1.20331
 H340 H 1.37250 0.79164 1.11130
 H341 H 1.33910 0.82067 1.08304
 H342 H 1.29390 0.89023 1.12469
 C343 C 0.85829 0.33806 1.18134
 C344 C 0.85235 0.35447 1.20649
 C345 C 0.83180 0.37670 1.20535
 C346 C 0.81757 0.38279 1.17840
 C347 C 0.82350 0.36671 1.15299
 C348 C 0.84372 0.34411 1.15452
 C349 C 0.87846 0.31561 1.18271
 C350 C 0.88391 0.29853 1.15769
 C351 C 0.86896 0.30467 1.13110
 C352 C 0.84930 0.32750 1.12925
 C353 C 0.83506 0.33389 1.10249
 C354 C 0.81518 0.35667 1.10063
 C355 C 0.80945 0.37285 1.12607
 H356 H 0.86351 0.34970 1.22714
 H357 H 0.80211 0.40017 1.17697
 H358 H 0.88924 0.31131 1.20359
 H359 H 0.87290 0.29193 1.11156
 H360 H 0.83943 0.32088 1.08331
 H361 H 0.79398 0.39029 1.12497
 C362 C 0.85864 0.83878 0.67967
 C363 C 0.85197 0.85432 0.70520
 C364 C 0.83098 0.87616 0.70442
 C365 C 0.81680 0.88259 0.67750
 C366 C 0.82346 0.86736 0.65167
 C367 C 0.84435 0.84529 0.65279
 C368 C 0.87933 0.81675 0.68063
 C369 C 0.88580 0.80098 0.65506
 C370 C 0.87139 0.80751 0.62841
 C371 C 0.85091 0.82968 0.62704
 C372 C 0.83685 0.83638 0.60031
 C373 C 0.81614 0.85849 0.59888
 C374 C 0.80956 0.87382 0.62474
 H375 H 0.86302 0.84925 0.72583
 H376 H 0.80092 0.89965 0.67642
 H377 H 0.88995 0.81168 0.70144
 H378 H 0.87634 0.79547 0.60862
 H379 H 0.84201 0.82410 0.58080
 H380 H 0.79350 0.89078 0.62395
 C381 C 0.62917 0.67013 0.65048
 C382 C 0.60241 0.66344 0.66450
 C383 C 0.60091 0.64130 0.68517
 C384 C 0.62672 0.62592 0.69175
 C385 C 0.65368 0.63236 0.67788
 C386 C 0.65487 0.65447 0.65703
 C387 C 0.63059 0.69233 0.63003
 C388 C 0.65726 0.69886 0.61564
 C389 C 0.68279 0.68304 0.62211
 C390 C 0.68177 0.66097 0.64276
 C391 C 0.70726 0.64536 0.64941
 C392 C 0.70640 0.62346 0.67036
 C393 C 0.67946 0.61706 0.68452
 H394 H 0.58294 0.67576 0.65934
 H395 H 0.62587 0.60892 0.70778
 H396 H 0.61082 0.70439 0.62508
 H397 H 0.70361 0.68809 0.61150
 H398 H 0.72790 0.65040 0.63838
 H399 H 0.67832 0.59997 0.70036
 C400 C 0.62995 1.17208 1.15140
 C401 C 0.60318 1.16577 1.16564
 C402 C 0.60130 1.14316 1.18573
 C403 C 0.62677 1.12708 1.19169
 C404 C 0.65370 1.13315 1.17763
 C405 C 0.65522 1.15556 1.15717
 C406 C 0.63180 1.19473 1.13152
 C407 C 0.65840 1.20078 1.11655
 C408 C 0.68341 1.18378 1.12215
 C409 C 0.68204 1.16151 1.14254
 C410 C 0.70720 1.14522 1.14866
 C411 C 0.70608 1.12321 1.16945
 C412 C 0.67915 1.11719 1.18376
 H413 H 0.58399 1.17869 1.16108
 H414 H 0.62566 1.10978 1.20735
 H415 H 0.61226 1.20742 1.12745
 H416 H 0.70430 1.18802 1.11134
 H417 H 0.72783 1.14993 1.13744
 H418 H 0.67778 1.09995 1.19942
 C419 C 0.12960 0.67163 1.15201
 C420 C 0.10285 0.66538 1.16631
 C421 C 0.10100 0.64308 1.18691
 C422 C 0.12667 0.62720 1.19301
 C423 C 0.15353 0.63313 1.17870
 C424 C 0.15493 0.65528 1.15793
 C425 C 0.13135 0.69413 1.13191
 C426 C 0.15791 0.70016 1.11687
 C427 C 0.18296 0.68323 1.12254
 C428 C 0.18168 0.66113 1.14314
 C429 C 0.20688 0.64491 1.14930
 C430 C 0.20587 0.62308 1.17031
 C431 C 0.17903 0.61725 1.18488
 H432 H 0.08374 0.67824 1.16135
 H433 H 0.12586 0.61009 1.20891
 H434 H 0.11177 0.70674 1.12775
 H435 H 0.20381 0.68742 1.11164
 H436 H 0.22744 0.64951 1.13791
 H437 H 0.17776 0.60018 1.20074
 C438 C 0.12872 1.16938 0.65054
 C439 C 0.10196 1.16274 0.66457
 C440 C 0.10043 1.14086 0.68567
 C441 C 0.12640 1.12560 0.69232
 C442 C 0.15331 1.13190 0.67825
 C443 C 0.15444 1.15383 0.65721
 C444 C 0.13011 1.19149 0.62998
 C445 C 0.15677 1.19803 0.61560
 C446 C 0.18231 1.18225 0.62210
 C447 C 0.18131 1.16026 0.64285
 C448 C 0.20680 1.14468 0.64950
 C449 C 0.20600 1.12287 0.67055
 C450 C 0.17911 1.11661 0.68489
 H451 H 0.08260 1.17505 0.65906
 H452 H 0.12578 1.10874 0.70852
 H453 H 0.11032 1.20350 0.62497
 H454 H 0.20312 1.18729 0.61146
 H455 H 0.22741 1.14966 0.63836
 H456 H 0.17803 1.09963 0.70086
 C457 C 1.37153 0.67197 0.34722
 C458 C 1.39830 0.66553 0.33302
 C459 C 1.40008 0.64321 0.31245
 C460 C 1.37433 0.62750 0.30626
 C461 C 1.34746 0.63361 0.32046
 C462 C 1.34612 0.65577 0.34121
 C463 C 1.36985 0.69448 0.36731
 C464 C 1.34327 0.70067 0.38226
 C465 C 1.31813 0.68389 0.37650
 C466 C 1.31935 0.66178 0.35590
 C467 C 1.29408 0.64569 0.34966
 C468 C 1.29504 0.62385 0.32867
 C469 C 1.32190 0.61787 0.31419
 H470 H 1.41748 0.67827 0.33804
 H471 H 1.37509 0.61038 0.29038
 H472 H 1.38949 0.70697 0.37154
 H473 H 1.29727 0.68820 0.38732
 H474 H 1.27350 0.65039 0.36097
 H475 H 1.32314 0.60078 0.29836
 C476 C 1.37135 1.17130 0.84813
 C477 C 1.39809 1.16494 0.83384
 C478 C 1.39991 1.14232 0.81376
 C479 C 1.37442 1.12628 0.80785
 C480 C 1.34752 1.13239 0.82195
 C481 C 1.34605 1.15481 0.84241
 C482 C 1.36956 1.19395 0.86801
 C483 C 1.34299 1.20003 0.88304
 C484 C 1.31795 1.18306 0.87747
 C485 C 1.31926 1.16080 0.85708
 C486 C 1.29408 1.14453 0.85100
 C487 C 1.29514 1.12251 0.83022
 C488 C 1.32205 1.11647 0.81587
 H489 H 1.41730 1.17783 0.83835
 H490 H 1.37548 1.10898 0.79220
 H491 H 1.38912 1.20662 0.87205
 H492 H 1.29709 1.18732 0.88832
 H493 H 1.27347 1.14926 0.86226
 H494 H 1.32339 1.09923 0.80022
 C495 C 0.87254 0.66974 0.84897
 C496 C 0.89930 0.66309 0.83494
 C497 C 0.90086 0.64091 0.81434
 C498 C 0.87509 0.62543 0.80784
 C499 C 0.84812 0.63183 0.82174
 C500 C 0.84689 0.65400 0.84251
 C501 C 0.87107 0.69199 0.86934
 C502 C 0.84440 0.69850 0.88373
 C503 C 0.81891 0.68261 0.87735
 C504 C 0.81998 0.66048 0.85679
 C505 C 0.79454 0.64479 0.85023
 C506 C 0.79544 0.62284 0.82936
 C507 C 0.82238 0.61646 0.81519
 H508 H 0.91873 0.67548 0.84003
 H509 H 0.87598 0.60840 0.79187
 H510 H 0.89081 0.70412 0.87422
 H511 H 0.79808 0.68764 0.88796
 H512 H 0.77389 0.64983 0.86127
 H513 H 0.82354 0.59932 0.79940
 C514 C 0.87283 1.16993 0.34882
 C515 C 0.89958 1.16332 0.33478
 C516 C 0.90113 1.14150 0.31365
 C517 C 0.87516 1.12625 0.30696
 C518 C 0.84824 1.13253 0.32103
 C519 C 0.84711 1.15441 0.34212
 C520 C 0.87143 1.19199 0.36942
 C521 C 0.84477 1.19853 0.38378
 C522 C 0.81923 1.18279 0.37726
 C523 C 0.82023 1.16084 0.35648
 C524 C 0.79473 1.14530 0.34979
 C525 C 0.79553 1.12356 0.32869
 C526 C 0.82243 1.11729 0.31435
 H527 H 0.91893 1.17561 0.34033
 H528 H 0.87578 1.10942 0.29072
 H529 H 0.89122 1.20399 0.37445
 H530 H 0.79841 1.18783 0.38789
 H531 H 0.77413 1.15029 0.36093
 H532 H 0.82349 1.10034 0.29834
 C533 C 0.64153 0.34098 0.31989
 C534 C 0.64734 0.35748 0.29476
 C535 C 0.66814 0.37962 0.29570
 C536 C 0.68290 0.38513 0.32263
 C537 C 0.67693 0.36907 0.34806
 C538 C 0.65631 0.34684 0.34665
 C539 C 0.62121 0.31864 0.31863
 C540 C 0.61558 0.30197 0.34380
 C541 C 0.63041 0.30797 0.37034
 C542 C 0.65053 0.33038 0.37201
 C543 C 0.66500 0.33649 0.39868
 C544 C 0.68539 0.35882 0.40041
 C545 C 0.69130 0.37491 0.37491
 H546 H 0.63574 0.35280 0.27433
 H547 H 0.69877 0.40212 0.32428
 H548 H 0.61022 0.31406 0.29790
 H549 H 0.62609 0.29530 0.38985
 H550 H 0.66042 0.32358 0.41788
 H551 H 0.70714 0.39204 0.37594
 C552 C 0.64396 0.83800 0.81835
 C553 C 0.65054 0.85367 0.79285
 C554 C 0.67128 0.87573 0.79375
 C555 C 0.68529 0.88223 0.82073
 C556 C 0.67871 0.86689 0.84650
 C557 C 0.65808 0.84462 0.84528
 C558 C 0.62351 0.81576 0.81730
 C559 C 0.61710 0.79992 0.84286
 C560 C 0.63135 0.80658 0.86956
 C561 C 0.65159 0.82893 0.87100
 C562 C 0.66546 0.83575 0.89780
 C563 C 0.68592 0.85805 0.89932
 C564 C 0.69244 0.87346 0.87349
 H565 H 0.63962 0.84854 0.77217
 H566 H 0.70096 0.89945 0.82189
 H567 H 0.61301 0.81062 0.79646
 H568 H 0.62644 0.79451 0.88935
 H569 H 0.66037 0.82340 0.91727
 H570 H 0.70830 0.89058 0.87436
 C571 C 0.14316 0.33776 0.81848
 C572 C 0.14917 0.35418 0.79336
 C573 C 0.16976 0.37636 0.79455
 C574 C 0.18397 0.38238 0.82153
 C575 C 0.17798 0.36627 0.84691
 C576 C 0.15771 0.34372 0.84532
 C577 C 0.12296 0.31535 0.81704
 C578 C 0.11746 0.29824 0.84202
 C579 C 0.13238 0.30430 0.86864
 C580 C 0.15208 0.32707 0.87055
 C581 C 0.16631 0.33337 0.89734
 C582 C 0.18624 0.35609 0.89926
 C583 C 0.19202 0.37232 0.87385
 H584 H 0.13802 0.34946 0.77270
 H585 H 0.19947 0.39971 0.82299
 H586 H 0.11220 0.31111 0.79614
 H587 H 0.12841 0.29152 0.88816
 H588 H 0.16189 0.32034 0.91649
 H589 H 0.20753 0.38972 0.87500
 C590 C 0.14167 0.83981 0.31923
 C591 C 0.14704 0.85680 0.29434
 C592 C 0.16764 0.87910 0.29547
 C593 C 0.18243 0.88444 0.32241
 C594 C 0.17689 0.86790 0.34756
 C595 C 0.15668 0.84534 0.34590
 C596 C 0.12161 0.81726 0.31772
 C597 C 0.11672 0.79964 0.34245
 C598 C 0.13202 0.80539 0.36893
 C599 C 0.15158 0.82825 0.37093
 C600 C 0.16617 0.83421 0.39760
 C601 C 0.18597 0.85701 0.39961
 C602 C 0.19133 0.87359 0.37437
 H603 H 0.13535 0.85233 0.27392
 H604 H 0.19807 0.90160 0.32425
 H605 H 0.11047 0.81333 0.29695
 H606 H 0.12848 0.79226 0.38827
 H607 H 0.16212 0.82087 0.41660
 H608 H 0.20677 0.89104 0.37559
 O609 O 0.92787 0.89758 0.86779
 O610 O 0.91747 0.86512 0.83442
 C611 C 0.91134 0.88817 0.84731
 C612 C 0.88462 0.90420 0.83875
 C613 C 0.86980 0.89851 0.81210
 H614 H 0.87829 0.88232 0.79746
 O615 O 0.98354 1.10088 0.85095
 O616 O 0.97348 1.13391 0.81808
 C617 C 0.98653 1.11112 0.82514
 C618 C 1.00654 1.09726 0.80357
 C619 C 1.01312 1.11065 0.77664
 H620 H 1.00239 1.13039 0.77122
 O621 O 0.82873 0.97198 0.94164
 O622 O 0.78552 0.97189 0.91901
 C623 C 0.80287 0.96199 0.93858
 C624 C 0.79334 0.93776 0.95701
 C625 C 0.76673 0.92376 0.95059
 H626 H 0.75256 0.93146 0.93302
 O627 O 1.10925 1.02616 0.85359
 O628 O 1.13233 1.02602 0.81052
 C629 C 1.12954 1.03542 0.83670
 C630 C 1.14983 1.05747 0.84771
 C631 C 1.17660 1.06329 0.83310
 H632 H 1.18247 1.05114 0.81372
 O633 O 0.89007 0.85950 1.00584
 O634 O 0.85736 0.82657 1.01667
 C635 C 0.87698 0.83660 0.99948
 C636 C 0.88369 0.82209 0.97125
 C637 C 0.86900 0.79701 0.96391
 H638 H 0.85418 0.78752 0.97987
 O639 O 1.09330 1.13968 0.93903
 O640 O 1.12646 1.17207 0.92790
 C641 C 1.10036 1.16234 0.92578
 C642 C 1.07820 1.17694 0.90701
 C643 C 1.08556 1.20186 0.89179
 H644 H 1.10726 1.21117 0.89463
 O645 O 0.85462 1.02677 0.89024
 O646 O 0.81152 1.02667 0.86730
 C647 C 0.83773 1.03598 0.86993
 C648 C 0.84883 1.05783 0.84938
 C649 C 0.83463 1.06312 0.82227
 H650 H 0.81534 1.05084 0.81650
 O651 O 1.05824 0.97118 0.82771
 O652 O 1.08115 0.97085 0.78461
 C653 C 1.06150 0.96103 0.80192
 C654 C 1.04321 0.93670 0.79250
 C655 C 1.04971 0.92261 0.76595
 H656 H 1.06722 0.93034 0.75171
 O657 O 0.99466 0.85866 0.88969
 O658 O 0.98376 0.82560 0.85715
 C659 C 1.00100 0.83572 0.87665
 C660 C 1.02931 0.82130 0.88323
 C661 C 1.03682 0.79635 0.86835
 H662 H 1.02093 0.78684 0.85350
 O663 O 0.93978 1.13951 0.90644
 O664 O 0.92882 1.17212 0.87344
 C665 C 0.92661 1.16223 0.89950
 C666 C 0.90795 1.17676 0.92185
 C667 C 0.89291 1.20189 0.91486
 H668 H 0.89563 1.21131 0.89317
 O669 O 0.85256 1.10111 1.01700
 O670 O 0.81971 1.13411 1.02717
 C671 C 0.82677 1.11140 1.01401
 C672 C 0.80523 1.09773 0.99386
 C673 C 0.77839 1.11128 0.98728
 H674 H 0.77302 1.13097 0.99812
 O675 O 1.13243 0.89727 0.92734
 O676 O 1.16599 0.86495 0.91701
 C677 C 1.15304 0.88798 0.91088
 C678 C 1.16173 0.90418 0.88432
 C679 C 1.18898 0.89938 0.87023
 H680 H 1.20395 0.88368 0.87913
 O681 O 0.92821 1.10100 0.86713
 O682 O 0.91796 1.13338 0.83361
 C683 C 0.91177 1.11036 0.84654
 C684 C 0.88513 1.09425 0.83791
 C685 C 0.87077 1.09934 0.81086
 H686 H 0.87952 1.11519 0.79596
 O687 O 0.98312 0.89733 0.85127
 O688 O 0.97287 0.86426 0.81853
 C689 C 0.98603 0.88700 0.82549
 C690 C 1.00606 0.90075 0.80386
 C691 C 1.01256 0.88732 0.77691
 H692 H 1.00175 0.86764 0.77147
 O693 O 1.10936 0.97156 0.85358
 O694 O 1.13252 0.97170 0.81056
 C695 C 1.12976 0.96238 0.83677
 C696 C 1.15031 0.94059 0.84798
 C697 C 1.17763 0.93561 0.83406
 H698 H 1.18351 0.94799 0.81485
 O699 O 0.82895 1.02735 0.94146
 O700 O 0.78577 1.02768 0.91878
 C701 C 0.80317 1.03753 0.93831
 C702 C 0.79384 1.06190 0.95659
 C703 C 0.76738 1.07612 0.95003
 H704 H 0.75318 1.06848 0.93246
 O705 O 0.89106 1.13965 1.00542
 O706 O 0.85835 1.17261 1.01617
 C707 C 0.87794 1.16251 0.99899
 C708 C 0.88452 1.17689 0.97066
 C709 C 0.86971 1.20188 0.96323
 H710 H 0.85497 1.21145 0.97921
 O711 O 1.09330 0.85856 0.93879
 O712 O 1.12633 0.82601 0.92776
 C713 C 1.10028 0.83588 0.92555
 C714 C 1.07801 0.82137 0.90682
 C715 C 1.08507 0.79629 0.89173
 H716 H 1.10674 0.78688 0.89450
 O717 O 1.05838 1.02659 0.82748
 O718 O 1.08122 1.02670 0.78434
 C719 C 1.06165 1.03667 0.80166
 C720 C 1.04351 1.06111 0.79220
 C721 C 1.05012 1.07522 0.76565
 H722 H 1.06763 1.06744 0.75143
 O723 O 0.85442 0.97214 0.89045
 O724 O 0.81128 0.97231 0.86760
 C725 C 0.83743 0.96285 0.87028
 C726 C 0.84832 0.94069 0.85002
 C727 C 0.83363 0.93476 0.82332
 H728 H 0.81426 0.94692 0.81747
 O729 O 0.99503 1.13976 0.88912
 O730 O 0.98433 1.17279 0.85647
 C731 C 1.00148 1.16267 0.87606
 C732 C 1.02981 1.17701 0.88277
 C733 C 1.03773 1.20168 0.86755
 H734 H 1.02227 1.21106 0.85213
 O735 O 0.93941 0.85904 0.90707
 O736 O 0.92831 0.82638 0.87419
 C737 C 0.92615 0.83634 0.90022
 C738 C 0.90744 0.82193 0.92259
 C739 C 0.89252 0.79673 0.91569
 H740 H 0.89541 0.78718 0.89410
 O741 O 1.13210 1.10070 0.92735
 O742 O 1.16570 1.13293 0.91690
 C743 C 1.15263 1.10996 0.91079
 C744 C 1.16113 1.09389 0.88407
 C745 C 1.18783 1.09948 0.86931
 H746 H 1.20250 1.11560 0.87784
 O747 O 0.85179 0.89830 1.01742
 O748 O 0.81888 0.86536 1.02760
 C749 C 0.82598 0.88809 1.01447
 C750 C 0.80446 0.90192 0.99439
 C751 C 0.77744 0.88864 0.98799
 H752 H 0.77185 0.86904 0.99894
 Cu753 Cu 0.96216 0.88140 0.88234
 Cu754 Cu 0.94942 0.84199 0.84286
 Cu755 Cu 0.96251 1.11705 0.88181
 Cu756 Cu 0.94998 1.15640 0.84217
 Cu757 Cu 0.84594 0.99956 0.91832
 Cu758 Cu 0.79395 0.99966 0.89124
 Cu759 Cu 1.08139 0.99886 0.84483
 Cu760 Cu 1.10874 0.99878 0.79293
 C761 C 0.87383 0.92544 0.85740
 H762 H 0.88510 0.92981 0.87806
 C763 C 0.84443 0.91386 0.80399
 C764 C 1.02156 1.07225 0.81099
 H765 H 1.01698 1.06205 0.83195
 C766 C 1.03518 1.10002 0.75783
 C767 C 0.81205 0.92673 0.97906
 H768 H 0.83307 0.93684 0.98349
 C769 C 0.75875 0.89917 0.96581
 C770 C 1.14242 1.07273 0.87324
 H771 H 1.12171 1.06844 0.88447
 C772 C 1.19597 1.08410 0.84396
 C773 C 0.90303 0.83429 0.95055
 H774 H 0.91401 0.85394 0.95589
 C775 C 0.87300 0.78433 0.93613
 C776 C 1.05012 1.16489 0.90259
 H777 H 1.04440 1.14549 0.91387
 C778 C 1.06561 1.21408 0.87172
 C779 C 0.87412 1.07335 0.85685
 H780 H 0.88503 1.06943 0.87781
 C781 C 0.84573 1.08359 0.80256
 C782 C 1.02121 0.92567 0.81128
 H783 H 1.01671 0.93588 0.83225
 C784 C 1.03466 0.89788 0.75812
 C785 C 1.04995 0.83355 0.90258
 H786 H 1.04447 0.85310 0.91368
 C787 C 1.06471 0.78384 0.87219
 C788 C 0.90376 1.16459 0.94993
 H789 H 0.91481 1.14500 0.95537
 C790 C 0.87348 1.21438 0.93533
 C791 C 0.81261 1.07281 0.97866
 H792 H 0.83350 1.06250 0.98321
 C793 C 0.75963 1.10086 0.96509
 C794 C 1.14270 0.92494 0.87316
 H795 H 1.12160 0.92864 0.88388
 C796 C 1.19742 0.91531 0.84534
 O797 O 1.07294 0.89770 1.13168
 O798 O 1.08315 0.86537 1.16527
 C799 C 1.08934 0.88836 1.15230
 C800 C 1.11589 0.90450 1.16100
 C801 C 1.12991 0.89966 1.18825
 H802 H 1.12099 0.88393 1.20319
 O803 O 1.01797 1.10138 1.14835
 O804 O 1.02818 1.13432 1.18125
 C805 C 1.01504 1.11159 1.17418
 C806 C 0.99500 1.09779 1.19577
 C807 C 0.98848 1.11123 1.22269
 H808 H 0.99924 1.13096 1.22805
 O809 O 0.89189 1.02672 1.14630
 O810 O 0.86895 1.02674 1.18945
 C811 C 0.87167 1.03604 1.16322
 C812 C 0.85136 1.05806 1.15214
 C813 C 0.82461 1.06395 1.16675
 H814 H 0.81877 1.05189 1.18620
 O815 O 1.17243 0.97129 1.05778
 O816 O 1.21556 0.97100 1.08054
 C817 C 1.19820 0.96108 1.06100
 C818 C 1.20755 0.93663 1.04278
 C819 C 1.23408 0.92247 1.04924
 H820 H 1.24834 0.93016 1.06674
 O821 O 1.11050 0.85833 0.99410
 O822 O 1.14317 0.82534 0.98333
 C823 C 1.12360 0.83545 1.00053
 C824 C 1.11697 0.82114 1.02890
 C825 C 1.13213 0.79643 1.03678
 H826 H 1.14742 0.78697 1.02123
 O827 O 0.90808 1.13981 1.06075
 O828 O 0.87497 1.17233 1.07167
 C829 C 0.90105 1.16255 1.07388
 C830 C 0.92322 1.17720 1.09260
 C831 C 0.91583 1.20211 1.10782
 H832 H 0.89409 1.21137 1.10506
 O833 O 0.94288 0.97175 1.17219
 O834 O 0.92022 0.97163 1.21543
 C835 C 0.93973 0.96168 1.19803
 C836 C 0.95794 0.93728 1.20739
 C837 C 0.95138 0.92312 1.23390
 H838 H 0.93389 0.93086 1.24817
 O839 O 1.14669 1.02655 1.10876
 O840 O 1.18975 1.02633 1.13176
 C841 C 1.16358 1.03574 1.12908
 C842 C 1.15250 1.05764 1.14961
 C843 C 1.16656 1.06273 1.17684
 H844 H 1.18577 1.05034 1.18267
 O845 O 1.00604 0.85915 1.10983
 O846 O 1.01675 0.82614 1.14251
 C847 C 0.99959 0.83628 1.12294
 C848 C 0.97127 0.82198 1.11635
 C849 C 0.96378 0.79701 1.13117
 H850 H 0.97972 0.78741 1.14591
 O851 O 1.06186 1.14006 1.09294
 O852 O 1.07292 1.17256 1.12600
 C853 C 1.07513 1.16271 1.09993
 C854 C 1.09394 1.17715 1.07764
 C855 C 1.10917 1.20217 1.08466
 H856 H 1.10645 1.21164 1.10632
 O857 O 0.86825 0.89831 1.07278
 O858 O 0.83474 0.86596 1.08308
 C859 C 0.84776 0.88891 1.08932
 C860 C 0.83938 0.90477 1.11622
 C861 C 0.81291 0.89890 1.13128
 H862 H 0.79823 0.88275 1.12279
 O863 O 1.14888 1.10086 0.98255
 O864 O 1.18184 1.13370 0.97218
 C865 C 1.17476 1.11099 0.98533
 C866 C 1.19638 1.09707 1.00521
 C867 C 1.22348 1.11029 1.01147
 H868 H 1.22899 1.12994 1.00060
 O869 O 1.07323 1.10117 1.13188
 O870 O 1.08360 1.13342 1.16548
 C871 C 1.08971 1.11041 1.15248
 C872 C 1.11628 1.09417 1.16109
 C873 C 1.13052 1.09906 1.18824
 H874 H 1.12174 1.11485 1.20319
 O875 O 1.01775 0.89762 1.14836
 O876 O 1.02786 0.86458 1.18120
 C877 C 1.01481 0.88736 1.17418
 C878 C 0.99488 0.90119 1.19584
 C879 C 0.98835 0.88772 1.22275
 H880 H 0.99906 0.86795 1.22808
 O881 O 1.17245 1.02671 1.05755
 O882 O 1.21560 1.02689 1.08028
 C883 C 1.19828 1.03676 1.06067
 C884 C 1.20775 1.06103 1.04229
 C885 C 1.23443 1.07494 1.04857
 H886 H 1.24873 1.06712 1.06598
 O887 O 0.89162 0.97213 1.14673
 O888 O 0.86874 0.97238 1.18990
 C889 C 0.87137 0.96295 1.16373
 C890 C 0.85097 0.94091 1.15281
 C891 C 0.82442 0.93480 1.16773
 H892 H 0.81875 0.94672 1.18733
 O893 O 1.11074 1.13975 0.99427
 O894 O 1.14354 1.17255 0.98330
 C895 C 1.12398 1.16258 1.00059
 C896 C 1.11753 1.17704 1.02891
 C897 C 1.13256 1.20190 1.03636
 H898 H 1.14745 1.21132 1.02042
 O899 O 0.90722 0.85954 1.06112
 O900 O 0.87416 0.82700 1.07212
 C901 C 0.90023 0.83682 1.07429
 C902 C 0.92252 0.82221 1.09292
 C903 C 0.91545 0.79711 1.10796
 H904 H 0.89376 0.78774 1.10526
 O905 O 1.14651 0.97195 1.10884
 O906 O 1.18957 0.97204 1.13187
 C907 C 1.16336 0.96275 1.12918
 C908 C 1.15218 0.94094 1.14969
 C909 C 1.16604 0.93592 1.17701
 H910 H 1.18521 0.94832 1.18294
 O911 O 0.94289 1.02715 1.17217
 O912 O 0.92023 1.02747 1.21541
 C913 C 0.93975 1.03733 1.19797
 C914 C 0.95798 1.06174 1.20728
 C915 C 0.95145 1.07590 1.23380
 H916 H 0.93396 1.06818 1.24808
 O917 O 1.00652 1.14022 1.11010
 O918 O 1.01729 1.17316 1.14282
 C919 C 1.00009 1.16308 1.12324
 C920 C 0.97171 1.17741 1.11663
 C921 C 0.96377 1.20205 1.13188
 H922 H 0.97926 1.21146 1.14724
 O923 O 1.06131 0.85885 1.09271
 O924 O 1.07224 0.82632 1.12582
 C925 C 1.07442 0.83610 1.09972
 C926 C 1.09305 0.82141 1.07749
 C927 C 1.10820 0.79645 1.08482
 H928 H 1.10546 0.78719 1.10658
 O929 O 1.14875 0.89714 0.98265
 O930 O 1.18160 0.86414 0.97246
 C931 C 1.17455 0.88688 0.98560
 C932 C 1.19612 0.90066 1.00564
 C933 C 1.22307 0.88724 1.01205
 H934 H 1.22851 0.86757 1.00119
 O935 O 0.86915 1.10090 1.07234
 O936 O 0.83562 1.13326 1.08258
 C937 C 0.84860 1.11027 1.08881
 C938 C 0.84005 1.09432 1.11560
 C939 C 0.81335 1.09999 1.13035
 H940 H 0.79868 1.11608 1.12174
 Cu941 Cu 1.03865 0.88159 1.11724
 Cu942 Cu 1.05118 0.84224 1.15692
 Cu943 Cu 1.03901 1.11749 1.11740
 Cu944 Cu 1.05168 1.15671 1.15711
 Cu945 Cu 0.88272 0.88217 1.03840
 Cu946 Cu 0.84303 0.84291 1.05103
 Cu947 Cu 1.11784 0.88106 0.96160
 Cu948 Cu 1.15749 0.84176 0.94895
 Cu949 Cu 0.88361 1.11710 1.03801
 Cu950 Cu 0.84393 1.15641 1.05058
 Cu951 Cu 1.11784 1.11702 0.96172
 Cu952 Cu 1.15762 1.15614 0.94888
 Cu953 Cu 0.91971 0.99941 1.15510
 Cu954 Cu 0.89261 0.99958 1.20713
 Cu955 Cu 1.15529 0.99914 1.08083
 Cu956 Cu 1.20720 0.99907 1.10803
 C957 C 1.12706 0.92528 1.14202
 H958 H 1.11637 0.92902 1.12090
 C959 C 1.15475 0.91558 1.19674
 C960 C 0.97991 1.07280 1.18841
 H961 H 0.98443 1.06257 1.16746
 C962 C 0.96642 1.10068 1.24153
 C963 C 0.85875 1.07321 1.12654
 H964 H 0.87946 1.06886 1.11533
 C965 C 0.80523 1.08472 1.15578
 C966 C 1.18872 0.92559 1.02083
 H967 H 1.16776 0.93581 1.01636
 C968 C 1.24189 0.89774 1.03412
 C969 C 1.09734 0.83337 1.04933
 H970 H 1.08611 0.85281 1.04365
 C971 C 1.12809 0.78410 1.06473
 C972 C 0.95136 1.16524 1.09691
 H973 H 0.95709 1.14585 1.08561
 C974 C 0.93583 1.21440 1.12781
 C975 C 0.97985 0.92622 1.18852
 H976 H 0.98439 0.93647 1.16758
 C977 C 0.96631 0.89830 1.24161
 C978 C 1.12731 1.07330 1.14209
 H979 H 1.11647 1.06952 1.12107
 C980 C 1.15543 1.08314 1.19660
 C981 C 0.95060 0.83432 1.09710
 H982 H 0.95609 0.85390 1.08604
 C983 C 0.93587 0.78459 1.12741
 C984 C 1.09812 1.16494 1.04959
 H985 H 1.08690 1.14544 1.04414
 C986 C 1.12879 1.21448 1.06423
 C987 C 0.85810 0.92592 1.12703
 H988 H 0.87864 0.93041 1.11558
 C989 C 0.80502 0.91397 1.15691
 C990 C 1.18888 1.07219 1.02044
 H991 H 1.16781 1.06214 1.01612
 C992 C 1.24233 1.09961 1.03343
 O993 O 0.92831 0.39794 0.36860
 O994 O 0.91771 0.36571 0.33505
 C995 C 0.91170 0.38870 0.34812
 C996 C 0.88506 0.40485 0.33967
 C997 C 0.87046 0.39949 0.31285
 H998 H 0.87907 0.38346 0.29808
 O999 O 0.98386 0.60157 0.35155
 O1000 O 0.97342 0.63453 0.31872
 C1001 C 0.98666 0.61183 0.32572
 C1002 C 1.00668 0.59815 0.30403
 C1003 C 1.01336 0.61188 0.27731
 H1004 H 1.00268 0.63171 0.27218
 O1005 O 0.82896 0.47193 0.44306
 O1006 O 0.78580 0.47177 0.42035
 C1007 C 0.80315 0.46183 0.43989
 C1008 C 0.79373 0.43742 0.45811
 C1009 C 0.76712 0.42344 0.45167
 H1010 H 0.75284 0.43130 0.43425
 O1011 O 1.10965 0.52682 0.35301
 O1012 O 1.13243 0.52669 0.30979
 C1013 C 1.12982 0.53609 0.33598
 C1014 C 1.15014 0.55818 0.34687
 C1015 C 1.17675 0.56419 0.33203
 H1016 H 1.18251 0.55214 0.31255
 O1017 O 0.89092 0.35897 0.50629
 O1018 O 0.85827 0.32598 0.51709
 C1019 C 0.87785 0.33608 0.49989
 C1020 C 0.88450 0.32170 0.47159
 C1021 C 0.86977 0.29667 0.46418
 H1022 H 0.85503 0.28710 0.48015
 O1023 O 1.09400 0.64014 0.43866
 O1024 O 1.12711 0.67260 0.42759
 C1025 C 1.10099 0.66288 0.42551
 C1026 C 1.07872 0.67755 0.40692
 C1027 C 1.08594 0.70253 0.39172
 H1028 H 1.10766 0.71185 0.39442
 O1029 O 0.85483 0.52698 0.39196
 O1030 O 0.81173 0.52686 0.36902
 C1031 C 0.83793 0.53621 0.37168
 C1032 C 0.84896 0.55812 0.35118
 C1033 C 0.83439 0.56369 0.32433
 H1034 H 0.81502 0.55148 0.31863
 O1035 O 1.05831 0.47194 0.32756
 O1036 O 1.08087 0.47163 0.28428
 C1037 C 1.06134 0.46180 0.30175
 C1038 C 1.04297 0.43747 0.29246
 C1039 C 1.04922 0.42347 0.26579
 H1040 H 1.06658 0.43125 0.25140
 O1041 O 0.99511 0.35872 0.38972
 O1042 O 0.98397 0.32589 0.35701
 C1043 C 1.00133 0.33586 0.37648
 C1044 C 1.02964 0.32138 0.38281
 C1045 C 1.03694 0.29637 0.36795
 H1046 H 1.02088 0.28685 0.35329
 O1047 O 0.94016 0.64018 0.40723
 O1048 O 0.92897 0.67268 0.37420
 C1049 C 0.92686 0.66283 0.40028
 C1050 C 0.90812 0.67732 0.42257
 C1051 C 0.89291 0.70233 0.41547
 H1052 H 0.89562 0.71171 0.39377
 O1053 O 0.85269 0.60146 0.51779
 O1054 O 0.82001 0.63459 0.52810
 C1055 C 0.82692 0.61181 0.51496
 C1056 C 0.80525 0.59806 0.49500
 C1057 C 0.77840 0.61159 0.48839
 H1058 H 0.77305 0.63137 0.49907
 O1059 O 1.13273 0.39768 0.42635
 O1060 O 1.16623 0.36535 0.41591
 C1061 C 1.15327 0.38838 0.40982
 C1062 C 1.16186 0.40456 0.38321
 C1063 C 1.18896 0.39957 0.36892
 H1064 H 1.20385 0.38375 0.37770
 O1065 O 0.92864 0.60129 0.36834
 O1066 O 0.91808 0.63358 0.33483
 C1067 C 0.91203 0.61057 0.34786
 C1068 C 0.88531 0.59445 0.33947
 C1069 C 0.87057 0.59979 0.31269
 H1070 H 0.87912 0.61577 0.29783
 O1071 O 0.98343 0.39770 0.35168
 O1072 O 0.97294 0.36484 0.31878
 C1073 C 0.98615 0.38754 0.32580
 C1074 C 1.00599 0.40142 0.30408
 C1075 C 1.01223 0.38811 0.27701
 H1076 H 1.00139 0.36842 0.27159
 O1077 O 1.10969 0.47221 0.35289
 O1078 O 1.13253 0.47234 0.30970
 C1079 C 1.12994 0.46299 0.33592
 C1080 C 1.15045 0.44107 0.34696
 C1081 C 1.17764 0.43589 0.33283
 H1082 H 1.18350 0.44824 0.31359
 O1083 O 0.82891 0.52737 0.44304
 O1084 O 0.78574 0.52762 0.42033
 C1085 C 0.80312 0.53752 0.43987
 C1086 C 0.79376 0.56195 0.45806
 C1087 C 0.76731 0.57615 0.45144
 H1088 H 0.75308 0.56840 0.43395
 O1089 O 0.89105 0.64007 0.50599
 O1090 O 0.85857 0.67317 0.51697
 C1091 C 0.87801 0.66301 0.49966
 C1092 C 0.88452 0.67739 0.47130
 C1093 C 0.86951 0.70225 0.46375
 H1094 H 0.85460 0.71173 0.47964
 O1095 O 1.09395 0.35865 0.43781
 O1096 O 1.12693 0.32609 0.42664
 C1097 C 1.10088 0.33594 0.42456
 C1098 C 1.07850 0.32141 0.40599
 C1099 C 1.08539 0.29625 0.39094
 H1100 H 1.10704 0.28677 0.39359
 O1101 O 1.05862 0.52738 0.32727
 O1102 O 1.08114 0.52755 0.28397
 C1103 C 1.06174 0.53755 0.30146
 C1104 C 1.04364 0.56212 0.29225
 C1105 C 1.05036 0.57657 0.26593
 H1106 H 1.06792 0.56898 0.25166
 O1107 O 0.85464 0.47239 0.39185
 O1108 O 0.81154 0.47257 0.36892
 C1109 C 0.83772 0.46319 0.37157
 C1110 C 0.84874 0.44125 0.35112
 C1111 C 0.83427 0.43567 0.32421
 H1112 H 0.81495 0.44789 0.31837
 O1113 O 0.99542 0.64041 0.38977
 O1114 O 0.98445 0.67334 0.35709
 C1115 C 1.00175 0.66329 0.37660
 C1116 C 1.03011 0.67767 0.38310
 C1117 C 1.03789 0.70239 0.36789
 H1118 H 1.02227 0.71180 0.35264
 O1119 O 0.93996 0.35901 0.40742
 O1120 O 0.92864 0.32659 0.37436
 C1121 C 0.92664 0.33637 0.40047
 C1122 C 0.90803 0.32182 0.42283
 C1123 C 0.89306 0.29667 0.41585
 H1124 H 0.89583 0.28723 0.39418
 O1125 O 1.13270 0.60115 0.42669
 O1126 O 1.16626 0.63343 0.41629
 C1127 C 1.15317 0.61050 0.41010
 C1128 C 1.16155 0.59456 0.38325
 C1129 C 1.18808 0.60033 0.36828
 H1130 H 1.20273 0.61651 0.37674
 O1131 O 0.85248 0.39756 0.51794
 O1132 O 0.81962 0.36456 0.52808
 C1133 C 0.82667 0.38734 0.51500
 C1134 C 0.80509 0.40125 0.49506
 C1135 C 0.77807 0.38796 0.48863
 H1136 H 0.77258 0.36826 0.49941
 Cu1137 Cu 0.96263 0.38157 0.38277
 Cu1138 Cu 0.94960 0.34243 0.34307
 Cu1139 Cu 0.96293 0.61764 0.38262
 Cu1140 Cu 0.95003 0.65687 0.34298
 Cu1141 Cu 0.84608 0.49966 0.41989
 Cu1142 Cu 0.79412 0.49972 0.39274
 Cu1143 Cu 1.08169 0.49957 0.34444
 Cu1144 Cu 1.10864 0.49951 0.29234
 C1145 C 0.87418 0.42588 0.35851
 H1146 H 0.88530 0.42999 0.37931
 C1147 C 0.84523 0.41499 0.30470
 C1148 C 1.02165 0.57304 0.31115
 H1149 H 1.01699 0.56259 0.33195
 C1150 C 1.03548 0.60151 0.25843
 C1151 C 0.81256 0.42621 0.47996
 H1152 H 0.83358 0.43633 0.48442
 C1153 C 0.75925 0.39868 0.46666
 C1154 C 1.14288 0.57334 0.37251
 H1155 H 1.12229 0.56891 0.38390
 C1156 C 1.19609 0.58508 0.34280
 C1157 C 0.90376 0.33401 0.45089
 H1158 H 0.91476 0.35363 0.45630
 C1159 C 0.87363 0.28416 0.43630
 C1160 C 1.05060 0.66552 0.40270
 H1161 H 1.04499 0.64609 0.41397
 C1162 C 1.06579 0.71482 0.37186
 C1163 C 0.87446 0.57345 0.35841
 H1164 H 0.88565 0.56934 0.37918
 C1165 C 0.84526 0.58431 0.30470
 C1166 C 1.02120 0.42634 0.31145
 H1167 H 1.01690 0.43646 0.33251
 C1168 C 1.03413 0.39874 0.25804
 C1169 C 1.05046 0.33362 0.40194
 H1170 H 1.04511 0.35321 0.41303
 C1171 C 1.06481 0.28378 0.37161
 C1172 C 0.90393 0.66519 0.45067
 H1173 H 0.91513 0.64569 0.45618
 C1174 C 0.87329 0.71473 0.43583
 C1175 C 0.81256 0.57301 0.48000
 H1176 H 0.83346 0.56271 0.48459
 C1177 C 0.75960 0.60101 0.46632
 C1178 C 1.14292 0.42546 0.37220
 H1179 H 1.12193 0.42930 0.38309
 C1180 C 1.19733 0.41543 0.34397
 O1181 O 1.07358 0.39772 0.63106
 O1182 O 1.08406 0.36541 0.66459
 C1183 C 1.09013 0.38842 0.65158
 C1184 C 1.11679 0.40449 0.66009
 C1185 C 1.13131 0.39913 0.68696
 H1186 H 1.12260 0.38317 0.70176
 O1187 O 1.01908 0.60079 0.64812
 O1188 O 1.02931 0.63368 0.68107
 C1189 C 1.01613 0.61098 0.67397
 C1190 C 0.99603 0.59720 0.69552
 C1191 C 0.98958 0.61057 0.72252
 H1192 H 1.00045 0.63022 0.72801
 O1193 O 0.89201 0.52676 0.64642
 O1194 O 0.86935 0.52670 0.68971
 C1195 C 0.87193 0.53611 0.66351
 C1196 C 0.85169 0.55831 0.65269
 C1197 C 0.82505 0.56434 0.66748
 H1198 H 0.81921 0.55222 0.68690
 O1199 O 1.17345 0.47119 0.55683
 O1200 O 1.21667 0.47080 0.57943
 C1201 C 1.19920 0.46093 0.55996
 C1202 C 1.20843 0.43643 0.54176
 C1203 C 1.23478 0.42204 0.54841
 H1204 H 1.24900 0.42964 0.56598
 O1205 O 1.11089 0.35876 0.49314
 O1206 O 1.14349 0.32574 0.48224
 C1207 C 1.12395 0.33585 0.49949
 C1208 C 1.11732 0.32144 0.52781
 C1209 C 1.13197 0.29635 0.53519
 H1210 H 1.14666 0.28674 0.51919
 O1211 O 0.90864 0.63981 0.56116
 O1212 O 0.87583 0.67253 0.57231
 C1213 C 0.90186 0.66257 0.57435
 C1214 C 0.92434 0.67708 0.59280
 C1215 C 0.91759 0.70244 0.60750
 H1216 H 0.89601 0.71202 0.60465
 O1217 O 0.94309 0.47151 0.67167
 O1218 O 0.92059 0.47127 0.71499
 C1219 C 0.94002 0.46134 0.69748
 C1220 C 0.95821 0.43687 0.70671
 C1221 C 0.95157 0.42258 0.73312
 H1222 H 0.93404 0.43024 0.74738
 O1223 O 1.14814 0.52641 0.60805
 O1224 O 1.19131 0.52614 0.63083
 C1225 C 1.16516 0.53561 0.62826
 C1226 C 1.15427 0.55765 0.64872
 C1227 C 1.16911 0.56362 0.67535
 H1228 H 1.18864 0.55162 0.68102
 O1229 O 1.00684 0.35860 0.60960
 O1230 O 1.01789 0.32567 0.64225
 C1231 C 1.00057 0.33570 0.62277
 C1232 C 0.97227 0.32127 0.61637
 C1233 C 0.96496 0.29622 0.63116
 H1234 H 0.98103 0.28663 0.64576
 O1235 O 1.06298 0.63956 0.59274
 O1236 O 1.07405 0.67200 0.62587
 C1237 C 1.07625 0.66221 0.59978
 C1238 C 1.09501 0.67675 0.57753
 C1239 C 1.11029 0.70171 0.58466
 H1240 H 1.10765 0.71106 0.60638
 O1241 O 0.86900 0.39764 0.57317
 O1242 O 0.83545 0.36532 0.58347
 C1243 C 0.84842 0.38832 0.58963
 C1244 C 0.83977 0.40446 0.61623
 C1245 C 0.81270 0.39939 0.63055
 H1246 H 0.79786 0.38352 0.62180
 O1247 O 1.14966 0.60106 0.48184
 O1248 O 1.18259 0.63395 0.47155
 C1249 C 1.17553 0.61118 0.48463
 C1250 C 1.19719 0.59721 0.50446
 C1251 C 1.22421 0.61050 0.51087
 H1252 H 1.22968 0.63023 0.50012
 O1253 O 1.07440 0.60053 0.63151
 O1254 O 1.08475 0.63279 0.66510
 C1255 C 1.09094 0.60984 0.65202
 C1256 C 1.11777 0.59387 0.66038
 C1257 C 1.13273 0.59960 0.68692
 H1258 H 1.12423 0.61571 0.70164
 O1259 O 1.01831 0.39748 0.64772
 O1260 O 1.02867 0.36452 0.68057
 C1261 C 1.01543 0.38721 0.67354
 C1262 C 0.99530 0.40089 0.69515
 C1263 C 0.98865 0.38728 0.72196
 H1264 H 0.99939 0.36752 0.72724
 O1265 O 1.17338 0.52664 0.55660
 O1266 O 1.21662 0.52671 0.57917
 C1267 C 1.19923 0.53666 0.55967
 C1268 C 1.20862 0.56103 0.54139
 C1269 C 1.23522 0.57503 0.54782
 H1270 H 1.24950 0.56721 0.56525
 O1271 O 0.89178 0.47213 0.64633
 O1272 O 0.86902 0.47234 0.68956
 C1273 C 0.87155 0.46296 0.66335
 C1274 C 0.85105 0.44104 0.65239
 C1275 C 0.82391 0.43579 0.66656
 H1276 H 0.81803 0.44816 0.68578
 O1277 O 1.11152 0.63984 0.49387
 O1278 O 1.14428 0.67271 0.48299
 C1279 C 1.12479 0.66263 0.50028
 C1280 C 1.11845 0.67692 0.52872
 C1281 C 1.13355 0.70171 0.53630
 H1282 H 1.14840 0.71121 0.52038
 O1283 O 0.90793 0.35879 0.56158
 O1284 O 0.87492 0.32624 0.57263
 C1285 C 0.90099 0.33606 0.57475
 C1286 C 0.92337 0.32145 0.59326
 C1287 C 0.91648 0.29626 0.60824
 H1288 H 0.89481 0.28683 0.60560
 O1289 O 1.14754 0.47184 0.60789
 O1290 O 1.19067 0.47183 0.63078
 C1291 C 1.16443 0.46258 0.62816
 C1292 C 1.15329 0.44072 0.64863
 C1293 C 1.16767 0.43514 0.67559
 H1294 H 1.18703 0.44730 0.68142
 O1295 O 0.94336 0.52691 0.67168
 O1296 O 0.92093 0.52711 0.71504
 C1297 C 0.94041 0.53698 0.69754
 C1298 C 0.95879 0.56129 0.70688
 C1299 C 0.95235 0.57537 0.73345
 H1300 H 0.93483 0.56768 0.74771
 O1301 O 1.00765 0.63959 0.60978
 O1302 O 1.01851 0.67247 0.64253
 C1303 C 1.00132 0.66248 0.62290
 C1304 C 0.97311 0.67703 0.61622
 C1305 C 0.96592 0.70228 0.63071
 H1306 H 0.98198 0.71186 0.64531
 O1307 O 1.06203 0.35889 0.59206
 O1308 O 1.07325 0.32640 0.62510
 C1309 C 1.07530 0.33621 0.59900
 C1310 C 1.09387 0.32163 0.57662
 C1311 C 1.10875 0.29640 0.58357
 H1312 H 1.10596 0.28696 0.60523
 O1313 O 1.14948 0.39721 0.48159
 O1314 O 1.18226 0.36417 0.47128
 C1315 C 1.17526 0.38688 0.48449
 C1316 C 1.19686 0.40051 0.50462
 C1317 C 1.22362 0.38684 0.51125
 H1318 H 1.22890 0.36708 0.50047
 O1319 O 0.86938 0.60132 0.57300
 O1320 O 0.83609 0.63384 0.58347
 C1321 C 0.84897 0.61078 0.58960
 C1322 C 0.84044 0.59481 0.61638
 C1323 C 0.81387 0.60060 0.63130
 H1324 H 0.79927 0.61683 0.62283
 Cu1325 Cu 1.03929 0.38141 0.61671
 Cu1326 Cu 1.05218 0.34218 0.65637
 Cu1327 Cu 1.04013 0.61688 0.61714
 Cu1328 Cu 1.05282 0.65604 0.65690
 Cu1329 Cu 0.88348 0.38149 0.53888
 Cu1330 Cu 0.84383 0.34218 0.55149
 Cu1331 Cu 1.11837 0.38133 0.46060
 Cu1332 Cu 1.15796 0.34200 0.44782
 Cu1333 Cu 0.88381 0.61740 0.53859
 Cu1334 Cu 0.84441 0.65688 0.55142
 Cu1335 Cu 1.11856 0.61732 0.46116
 Cu1336 Cu 1.15830 0.65650 0.44842
 Cu1337 Cu 0.91991 0.49932 0.65475
 Cu1338 Cu 0.89309 0.49935 0.70692
 Cu1339 Cu 1.15638 0.49905 0.57996
 Cu1340 Cu 1.20841 0.49884 0.60694
 C1341 C 1.12780 0.42545 0.64123
 H1342 H 1.11675 0.42956 0.62038
 C1343 C 1.15658 0.41455 0.69513
 C1344 C 0.98078 0.57232 0.68805
 H1345 H 0.98522 0.56213 0.66706
 C1346 C 0.96745 0.60005 0.74129
 C1347 C 0.85904 0.57353 0.62713
 H1348 H 0.87966 0.56909 0.61578
 C1349 C 0.80576 0.58530 0.65671
 C1350 C 1.18962 0.42553 0.51972
 H1351 H 1.16879 0.43594 0.51511
 C1352 C 1.24240 0.39719 0.53343
 C1353 C 1.09815 0.33381 0.54856
 H1354 H 1.08721 0.35347 0.54317
 C1355 C 1.12810 0.28382 0.56308
 C1356 C 0.95228 0.66470 0.59715
 H1357 H 0.95751 0.64494 0.58634
 C1358 C 0.93815 0.71500 0.62675
 C1359 C 0.98022 0.42591 0.68787
 H1360 H 0.98482 0.43627 0.66700
 C1361 C 0.96650 0.39774 0.74078
 C1362 C 1.12857 0.57275 0.64158
 H1363 H 1.11719 0.56837 0.62099
 C1364 C 1.15828 0.58442 0.69482
 C1365 C 0.95144 0.33360 0.59731
 H1366 H 0.95680 0.35323 0.58628
 C1367 C 0.93707 0.28369 0.62750
 C1368 C 1.09909 0.66470 0.54938
 H1369 H 1.08782 0.64526 0.54383
 C1370 C 1.12987 0.71412 0.56426
 C1371 C 0.85863 0.42541 0.62719
 H1372 H 0.87960 0.42929 0.61629
 C1373 C 0.80429 0.41524 0.65549
 C1374 C 1.18976 0.57223 0.51955
 H1375 H 1.16873 0.56211 0.51513
 C1376 C 1.24304 0.59980 0.53284
 O1377 O 0.64715 1.02716 0.60804
 O1378 O 0.69030 1.02704 0.63089
 C1379 C 0.66409 1.03639 0.62829
 C1380 C 0.65310 1.05835 0.64875
 C1381 C 0.66776 1.06407 0.67552
 H1382 H 0.68714 1.05188 0.68124
 O1383 O 0.44343 0.97189 0.67155
 O1384 O 0.42078 0.97150 0.71479
 C1385 C 0.44033 0.96169 0.69735
 C1386 C 0.45864 0.93731 0.70665
 C1387 C 0.45220 0.92315 0.73319
 H1388 H 0.43472 0.93087 0.74749
 O1389 O 0.56191 1.14042 0.59233
 O1390 O 0.57298 1.17290 0.62541
 C1391 C 0.57516 1.16309 0.59931
 C1392 C 0.59391 1.17762 0.57701
 C1393 C 0.60919 1.20258 0.58414
 H1394 H 0.60654 1.21193 0.60586
 O1395 O 0.50705 0.85908 0.60936
 O1396 O 0.51806 0.82610 0.64197
 C1397 C 0.50077 0.83616 0.62246
 C1398 C 0.47250 0.82168 0.61595
 C1399 C 0.46509 0.79672 0.63086
 H1400 H 0.48102 0.78725 0.64571
 O1401 O 0.64901 1.10184 0.48174
 O1402 O 0.68176 1.13490 0.47149
 C1403 C 0.67478 1.11216 0.48467
 C1404 C 0.69636 1.09850 0.50482
 C1405 C 0.72305 1.11219 0.51161
 H1406 H 0.72828 1.13200 0.50093
 O1407 O 0.36938 0.89761 0.57209
 O1408 O 0.33593 0.86526 0.58259
 C1409 C 0.34887 0.88831 0.58865
 C1410 C 0.34024 0.90452 0.61524
 C1411 C 0.31306 0.89962 0.62941
 H1412 H 0.29815 0.88385 0.62059
 O1413 O 0.51823 1.10163 0.64788
 O1414 O 0.52848 1.13455 0.68079
 C1415 C 0.51533 1.11182 0.67372
 C1416 C 0.49529 1.09801 0.69532
 C1417 C 0.48869 1.11150 0.72220
 H1418 H 0.49943 1.13124 0.72758
 O1419 O 0.57384 0.89811 0.63095
 O1420 O 0.58433 0.86571 0.66437
 C1421 C 0.59043 0.88873 0.65140
 C1422 C 0.61719 0.90472 0.65986
 C1423 C 0.63210 0.89893 0.68642
 H1424 H 0.62361 0.88273 0.70106
 O1425 O 0.67298 0.97232 0.55668
 O1426 O 0.71621 0.97218 0.57926
 C1427 C 0.69884 0.96228 0.55973
 C1428 C 0.70829 0.93798 0.54138
 C1429 C 0.73493 0.92398 0.54776
 H1430 H 0.74917 0.93174 0.56524
 O1431 O 0.39203 1.02684 0.64613
 O1432 O 0.36922 1.02657 0.68933
 C1433 C 0.37181 1.03602 0.66316
 C1434 C 0.35140 1.05808 0.65232
 C1435 C 0.32476 1.06397 0.66716
 H1436 H 0.31903 1.05184 0.68659
 O1437 O 0.40777 1.14016 0.56099
 O1438 O 0.37467 1.17261 0.57217
 C1439 C 0.40078 1.16284 0.57423
 C1440 C 0.42305 1.17745 0.59288
 C1441 C 0.41577 1.20236 0.60818
 H1442 H 0.39403 1.21164 0.60554
 O1443 O 0.61130 0.85956 0.49301
 O1444 O 0.64405 0.82667 0.48217
 C1445 C 0.62444 0.83669 0.49939
 C1446 C 0.61781 0.82222 0.52768
 C1447 C 0.63252 0.79715 0.53506
 H1448 H 0.64730 0.78761 0.51910
 O1449 O 0.44328 1.02735 0.67160
 O1450 O 0.42065 1.02742 0.71486
 C1451 C 0.44011 1.03745 0.69743
 C1452 C 0.45824 1.06195 0.70678
 C1453 C 0.45159 1.07619 0.73324
 H1454 H 0.43405 1.06849 0.74747
 O1455 O 0.64746 0.97253 0.60798
 O1456 O 0.69062 0.97268 0.63079
 C1457 C 0.66446 0.96325 0.62816
 C1458 C 0.65357 0.94111 0.64848
 C1459 C 0.66835 0.93507 0.67512
 H1460 H 0.68780 0.94713 0.68091
 O1461 O 0.56226 0.85941 0.59187
 O1462 O 0.57343 0.82683 0.62483
 C1463 C 0.57553 0.83672 0.59876
 C1464 C 0.59418 0.82223 0.57639
 C1465 C 0.60909 0.79702 0.58334
 H1466 H 0.60624 0.78753 0.60497
 O1467 O 0.50661 1.14054 0.60978
 O1468 O 0.51744 1.17345 0.64250
 C1469 C 0.50017 1.16337 0.62300
 C1470 C 0.47172 1.17765 0.61659
 C1471 C 0.46387 1.20229 0.63190
 H1472 H 0.47948 1.21171 0.64714
 O1473 O 0.36880 1.10131 0.57268
 O1474 O 0.33525 1.13358 0.58317
 C1475 C 0.34830 1.11060 0.58928
 C1476 C 0.33989 1.09454 0.61604
 C1477 C 0.31331 1.10019 0.63101
 H1478 H 0.29861 1.11635 0.62259
 O1479 O 0.64961 0.89829 0.48134
 O1480 O 0.68256 0.86540 0.47108
 C1481 C 0.67546 0.88812 0.48422
 C1482 C 0.69702 0.90200 0.50421
 C1483 C 0.72408 0.88873 0.51056
 H1484 H 0.72963 0.86909 0.49968
 O1485 O 0.51859 0.89787 0.64764
 O1486 O 0.52896 0.86486 0.68044
 C1487 C 0.51576 0.88758 0.67346
 C1488 C 0.49574 0.90132 0.69512
 C1489 C 0.48929 0.88786 0.72206
 H1490 H 0.50011 0.86815 0.72745
 O1491 O 0.57351 1.10157 0.63133
 O1492 O 0.58390 1.13385 0.66489
 C1493 C 0.59004 1.11086 0.65187
 C1494 C 0.61677 1.09476 0.66033
 C1495 C 0.63159 1.10024 0.68704
 H1496 H 0.62309 1.11631 0.70182
 O1497 O 0.39233 0.97221 0.64573
 O1498 O 0.36937 0.97224 0.68886
 C1499 C 0.37205 0.96293 0.66262
 C1500 C 0.35157 0.94105 0.65149
 C1501 C 0.32431 0.93595 0.66549
 H1502 H 0.31841 0.94833 0.68469
 O1503 O 0.67288 1.02775 0.55688
 O1504 O 0.71609 1.02804 0.57949
 C1505 C 0.69865 1.03796 0.56002
 C1506 C 0.70789 1.06248 0.54188
 C1507 C 0.73421 1.07685 0.54864
 H1508 H 0.74841 1.06919 0.56621
 O1509 O 0.40833 0.85881 0.56048
 O1510 O 0.37541 0.82621 0.57167
 C1511 C 0.40145 0.83611 0.57376
 C1512 C 0.42379 0.82164 0.59242
 C1513 C 0.41681 0.79655 0.60753
 H1514 H 0.39517 0.78710 0.60480
 O1515 O 0.61074 1.14054 0.49341
 O1516 O 0.64329 1.17358 0.48249
 C1517 C 0.62383 1.16344 0.49979
 C1518 C 0.61739 1.17775 0.52821
 C1519 C 0.63246 1.20256 0.53579
 H1520 H 0.64734 1.21205 0.51988
 Cu1521 Cu 0.65587 0.99993 0.58002
 Cu1522 Cu 0.70788 0.99999 0.60702
 Cu1523 Cu 0.42016 0.99959 0.65451
 Cu1524 Cu 0.39311 0.99937 0.70655
 Cu1525 Cu 0.53918 1.11783 0.61691
 Cu1526 Cu 0.55189 1.15702 0.65662
 Cu1527 Cu 0.53953 0.88187 0.61656
 Cu1528 Cu 0.55239 0.84255 0.65613
 C1529 C 0.62758 1.07366 0.64150
 H1530 H 0.61633 1.06945 0.62079
 C1531 C 0.65695 1.08480 0.69504
 C1532 C 0.48057 0.92628 0.68777
 H1533 H 0.48503 0.93653 0.66681
 C1534 C 0.46724 0.89839 0.74093
 C1535 C 0.59801 1.16554 0.54887
 H1536 H 0.58676 1.14609 0.54333
 C1537 C 0.62878 1.21498 0.56375
 C1538 C 0.45182 0.83387 0.59661
 H1539 H 0.45723 0.85343 0.58548
 C1540 C 0.43723 0.78415 0.62706
 C1541 C 0.68912 1.07342 0.51982
 H1542 H 0.66833 1.06300 0.51512
 C1543 C 0.74182 1.10176 0.53380
 C1544 C 0.35919 0.92538 0.62630
 H1545 H 0.38023 0.92917 0.61550
 C1546 C 0.30461 0.91555 0.65429
 C1547 C 0.48023 1.07301 0.68796
 H1548 H 0.48483 1.06273 0.66705
 C1549 C 0.46656 1.10099 0.74098
 C1550 C 0.62796 0.92596 0.64119
 H1551 H 0.61662 0.93039 0.62058
 C1552 C 0.65754 0.91416 0.69447
 C1553 C 0.68949 0.92687 0.51945
 H1554 H 0.66845 0.93697 0.51505
 C1555 C 0.74285 0.89933 0.53262
 C1556 C 0.35863 1.07334 0.62674
 H1557 H 0.37925 1.06901 0.61536
 C1558 C 0.30534 1.08484 0.65644
 C1559 C 0.45123 1.16548 0.59701
 H1560 H 0.45689 1.14610 0.58566
 C1561 C 0.43592 1.21464 0.62803
 C1562 C 0.59852 0.83449 0.54839
 H1563 H 0.58754 0.85414 0.54300
 C1564 C 0.62856 0.78453 0.56290
 O1565 O 0.55847 0.97250 0.32714
 O1566 O 0.58092 0.97241 0.28379
 C1567 C 0.56151 0.96243 0.30129
 C1568 C 0.54332 0.93799 0.29200
 C1569 C 0.54986 0.92380 0.26550
 H1570 H 0.56734 0.93151 0.25120
 O1571 O 0.35417 1.02683 0.39149
 O1572 O 0.31115 1.02658 0.36840
 C1573 C 0.33732 1.03597 0.37111
 C1574 C 0.34845 1.05778 0.35053
 C1575 C 0.33451 1.06274 0.32322
 H1576 H 0.31535 1.05032 0.31735
 O1577 O 0.43900 1.14044 0.40699
 O1578 O 0.42774 1.17288 0.37391
 C1579 C 0.42565 1.16307 0.40000
 C1580 C 0.40693 1.17758 0.42232
 C1581 C 0.39179 1.20266 0.41533
 H1582 H 0.39449 1.21210 0.39365
 O1583 O 0.49550 0.85929 0.38931
 O1584 O 0.48460 0.82649 0.35649
 C1585 C 0.50187 0.83649 0.37604
 C1586 C 0.53021 0.82210 0.38241
 C1587 C 0.53768 0.79721 0.36743
 H1588 H 0.52172 0.78771 0.35264
 O1589 O 0.63287 0.89850 0.42609
 O1590 O 0.66643 0.86620 0.41571
 C1591 C 0.65336 0.88916 0.40952
 C1592 C 0.66174 0.90511 0.38266
 C1593 C 0.68819 0.89923 0.36759
 H1594 H 0.70281 0.88301 0.37602
 O1595 O 0.35214 1.10146 0.51740
 O1596 O 0.31926 1.13438 0.52775
 C1597 C 0.32632 1.11169 0.51453
 C1598 C 0.30474 1.09796 0.49444
 C1599 C 0.27801 1.11160 0.48764
 H1600 H 0.27276 1.13143 0.49828
 O1601 O 0.48291 1.10186 0.35144
 O1602 O 0.47251 1.13480 0.31859
 C1603 C 0.48577 1.11213 0.32562
 C1604 C 0.50589 1.09848 0.30398
 C1605 C 0.51241 1.11210 0.27714
 H1606 H 0.50158 1.13182 0.27184
 O1607 O 0.42852 0.89821 0.36817
 O1608 O 0.41813 0.86601 0.33452
 C1609 C 0.41197 0.88894 0.34765
 C1610 C 0.38522 0.90495 0.33925
 C1611 C 0.37061 0.89954 0.31245
 H1612 H 0.37930 0.88359 0.29764
 O1613 O 0.60962 1.02749 0.35273
 O1614 O 0.63234 1.02749 0.30947
 C1615 C 0.62976 1.03681 0.33570
 C1616 C 0.65009 1.05888 0.34662
 C1617 C 0.67674 1.06485 0.33183
 H1618 H 0.68250 1.05276 0.31238
 O1619 O 0.32832 0.97172 0.44253
 O1620 O 0.28518 0.97146 0.41979
 C1621 C 0.30256 0.96152 0.43931
 C1622 C 0.29329 0.93699 0.45746
 C1623 C 0.26682 0.92274 0.45095
 H1624 H 0.25249 0.93048 0.43352
 O1625 O 0.59334 1.14046 0.43814
 O1626 O 0.62625 1.17309 0.42704
 C1627 C 0.60020 1.16320 0.42495
 C1628 C 0.57777 1.17777 0.40643
 C1629 C 0.58464 1.20298 0.39147
 H1630 H 0.60628 1.21245 0.39415
 O1631 O 0.39096 0.85864 0.50524
 O1632 O 0.35839 0.82562 0.51614
 C1633 C 0.37788 0.83574 0.49886
 C1634 C 0.38449 0.82143 0.47047
 C1635 C 0.36927 0.79677 0.46255
 H1636 H 0.35392 0.78735 0.47806
 O1637 O 0.35436 0.97227 0.39155
 O1638 O 0.31130 0.97231 0.36854
 C1639 C 0.33752 0.96302 0.37124
 C1640 C 0.34867 0.94114 0.35079
 C1641 C 0.33421 0.93550 0.32390
 H1642 H 0.31480 0.94762 0.31810
 O1643 O 0.55836 1.02793 0.32731
 O1644 O 0.58082 1.02830 0.28397
 C1645 C 0.56137 1.03815 0.30151
 C1646 C 0.54308 1.06260 0.29233
 C1647 C 0.54961 1.07695 0.26592
 H1648 H 0.56716 1.06936 0.25163
 O1649 O 0.44031 0.85909 0.40679
 O1650 O 0.42924 0.82673 0.37358
 C1651 C 0.42715 0.83640 0.39972
 C1652 C 0.40850 0.82168 0.42192
 C1653 C 0.39330 0.79676 0.41455
 H1654 H 0.39606 0.78753 0.39279
 O1655 O 0.49433 1.14052 0.38985
 O1656 O 0.48331 1.17344 0.35718
 C1657 C 0.50061 1.16342 0.37671
 C1658 C 0.52891 1.17787 0.38319
 C1659 C 0.53620 1.20294 0.36844
 H1660 H 0.52015 1.21251 0.35381
 O1661 O 0.35257 0.89731 0.51693
 O1662 O 0.31983 0.86427 0.52730
 C1663 C 0.32676 0.88703 0.51416
 C1664 C 0.30503 0.90083 0.49430
 C1665 C 0.27816 0.88731 0.48785
 H1666 H 0.27290 0.86752 0.49857
 O1667 O 0.63252 1.10179 0.42640
 O1668 O 0.66591 1.13423 0.41601
 C1669 C 0.65299 1.11120 0.40984
 C1670 C 0.66150 1.09524 0.38303
 C1671 C 0.68809 1.10096 0.36811
 H1672 H 0.70276 1.11711 0.37659
 O1673 O 0.48369 0.89816 0.35119
 O1674 O 0.47337 0.86531 0.31823
 C1675 C 0.48650 0.88803 0.32530
 C1676 C 0.50640 0.90189 0.30363
 C1677 C 0.51291 0.88842 0.27672
 H1678 H 0.50219 0.86866 0.27141
 O1679 O 0.42770 1.10136 0.36821
 O1680 O 0.41718 1.13359 0.33461
 C1681 C 0.41117 1.11056 0.34764
 C1682 C 0.38466 1.09428 0.33904
 C1683 C 0.37056 1.09905 0.31181
 H1684 H 0.37939 1.11477 0.29682
 O1685 O 0.32836 1.02720 0.44263
 O1686 O 0.28526 1.02743 0.41981
 C1687 C 0.30259 1.03736 0.43937
 C1688 C 0.29324 1.06186 0.45748
 C1689 C 0.26688 1.07618 0.45071
 H1690 H 0.25269 1.06847 0.43316
 O1691 O 0.60976 0.97286 0.35251
 O1692 O 0.63246 0.97310 0.30924
 C1693 C 0.62991 0.96363 0.33542
 C1694 C 0.65027 0.94149 0.34624
 C1695 C 0.67682 0.93535 0.33130
 H1696 H 0.68254 0.94734 0.31176
 O1697 O 0.59424 0.85943 0.43769
 O1698 O 0.62733 0.82694 0.42663
 C1699 C 0.60125 0.83673 0.42447
 C1700 C 0.57898 0.82218 0.40581
 C1701 C 0.58603 0.79713 0.39063
 H1702 H 0.60771 0.78772 0.39329
 O1703 O 0.39026 1.14033 0.50578
 O1704 O 0.35755 1.17322 0.51679
 C1705 C 0.37707 1.16319 0.49947
 C1706 C 0.38350 1.17762 0.47113
 C1707 C 0.36855 1.20255 0.46370
 H1708 H 0.35376 1.21204 0.47968
 Cu1709 Cu 0.58169 1.00018 0.34418
 Cu1710 Cu 0.60853 1.00035 0.29203
 Cu1711 Cu 0.34552 0.99952 0.41948
 Cu1712 Cu 0.29362 0.99945 0.39223
 Cu1713 Cu 0.61801 1.11791 0.46079
 Cu1714 Cu 0.65753 1.15728 0.44806
 Cu1715 Cu 0.61861 0.88218 0.46043
 Cu1716 Cu 0.65835 0.84298 0.44773
 Cu1717 Cu 0.38315 1.11757 0.53832
 Cu1718 Cu 0.34344 1.15676 0.55118
 Cu1719 Cu 0.38370 0.88133 0.53777
 Cu1720 Cu 0.34418 0.84198 0.55063
 Cu1721 Cu 0.46188 1.11782 0.38254
 Cu1722 Cu 0.44898 1.15701 0.34285
 Cu1723 Cu 0.46290 0.88192 0.38229
 Cu1724 Cu 0.45015 0.84282 0.34245
 C1725 C 0.52144 0.92691 0.31092
 H1726 H 0.51693 0.93717 0.33186
 C1727 C 0.53493 0.89897 0.25783
 C1728 C 0.37358 1.07349 0.35810
 H1729 H 0.38434 1.06981 0.37918
 C1730 C 0.34572 1.08307 0.30341
 C1731 C 0.40279 1.16541 0.45040
 H1732 H 0.41395 1.14587 0.45584
 C1733 C 0.37229 1.21509 0.43580
 C1734 C 0.55090 0.83431 0.40171
 H1735 H 0.54542 0.85382 0.41289
 C1736 C 0.56559 0.78471 0.37113
 C1737 C 0.64308 0.92638 0.37195
 H1738 H 0.62256 0.93088 0.38342
 C1739 C 0.69614 0.91440 0.34204
 C1740 C 0.31200 1.07287 0.47950
 H1741 H 0.33283 1.06249 0.48421
 C1742 C 0.25924 1.10110 0.46550
 C1743 C 0.52108 1.07350 0.31123
 H1744 H 0.51655 1.06313 0.33211
 C1745 C 0.53456 1.10174 0.25830
 C1746 C 0.37422 0.92590 0.35814
 H1747 H 0.38533 0.93006 0.37893
 C1748 C 0.34527 0.91491 0.30435
 C1749 C 0.64281 1.07405 0.37224
 H1750 H 0.62218 1.06966 0.38358
 C1751 C 0.69612 1.08569 0.34263
 C1752 C 0.31223 0.92590 0.47929
 H1753 H 0.33314 0.93620 0.48379
 C1754 C 0.25922 0.89786 0.46590
 C1755 C 0.54973 1.16556 0.40230
 H1756 H 0.54440 1.14591 0.41330
 C1757 C 0.56407 1.21552 0.37217
 C1758 C 0.40419 0.83362 0.45009
 H1759 H 0.41546 0.85301 0.45580
 C1760 C 0.37335 0.78445 0.43459
 O1761 O 0.64646 0.52647 1.10860
 O1762 O 0.68949 0.52644 1.13165
 C1763 C 0.66328 0.53575 1.12892
 C1764 C 0.65211 0.55762 1.14940
 C1765 C 0.66615 0.56276 1.17662
 H1766 H 0.68539 0.55044 1.18245
 O1767 O 0.44284 0.47160 1.17232
 O1768 O 0.42001 0.47132 1.21546
 C1769 C 0.43963 0.46146 1.19813
 C1770 C 0.45788 0.43708 1.20750
 C1771 C 0.45134 0.42289 1.23401
 H1772 H 0.43385 0.43062 1.24829
 O1773 O 0.56122 0.63968 1.09253
 O1774 O 0.57224 0.67227 1.12552
 C1775 C 0.57444 0.66238 1.09946
 C1776 C 0.59316 0.67689 1.07715
 C1777 C 0.60817 0.70202 1.08418
 H1778 H 0.60534 0.71146 1.10583
 O1779 O 0.50617 0.35859 1.11029
 O1780 O 0.51720 0.32562 1.14291
 C1781 C 0.49991 0.33566 1.12340
 C1782 C 0.47165 0.32117 1.11687
 C1783 C 0.46425 0.29621 1.13178
 H1784 H 0.48019 0.28676 1.14663
 O1785 O 0.64877 0.60085 0.98219
 O1786 O 0.68160 0.63386 0.97203
 C1787 C 0.67457 0.61109 0.98512
 C1788 C 0.69615 0.59722 1.00511
 C1789 C 0.72321 0.61048 1.01146
 H1790 H 0.72875 0.63012 1.00059
 O1791 O 0.36887 0.39722 1.07258
 O1792 O 0.33531 0.36494 1.08304
 C1793 C 0.34830 0.38797 1.08911
 C1794 C 0.33968 0.40420 1.11568
 C1795 C 0.31249 0.39934 1.12983
 H1796 H 0.29756 0.38359 1.12099
 O1797 O 0.51743 0.60113 1.14817
 O1798 O 0.52766 0.63418 1.18094
 C1799 C 0.51450 0.61144 1.17396
 C1800 C 0.49442 0.59778 1.19562
 C1801 C 0.48772 0.61151 1.22232
 H1802 H 0.49843 0.63132 1.22748
 O1803 O 0.57293 0.39759 1.13198
 O1804 O 0.58338 0.36529 1.16553
 C1805 C 0.58944 0.38832 1.15256
 C1806 C 0.61598 0.40452 1.16119
 C1807 C 0.63014 0.39969 1.18839
 H1808 H 0.62130 0.38396 1.20337
 O1809 O 0.67263 0.47132 1.05774
 O1810 O 0.71572 0.47120 1.08057
 C1811 C 0.69845 0.46124 1.06099
 C1812 C 0.70795 0.43686 1.04274
 C1813 C 0.73443 0.42266 1.04934
 H1814 H 0.74857 0.43028 1.06697
 O1815 O 0.39162 0.52640 1.14637
 O1816 O 0.36860 0.52628 1.18946
 C1817 C 0.37132 0.53563 1.16326
 C1818 C 0.35094 0.55761 1.15222
 C1819 C 0.32426 0.56355 1.16696
 H1820 H 0.31851 0.55151 1.18646
 O1821 O 0.40732 0.63937 1.06060
 O1822 O 0.37417 0.67182 1.07165
 C1823 C 0.40028 0.66208 1.07377
 C1824 C 0.42249 0.67675 1.09242
 C1825 C 0.41514 0.70167 1.10764
 H1826 H 0.39338 0.71092 1.10493
 O1827 O 0.61098 0.35906 0.99400
 O1828 O 0.64362 0.32605 0.98322
 C1829 C 0.62407 0.33618 1.00044
 C1830 C 0.61745 0.32186 1.02882
 C1831 C 0.63269 0.29719 1.03668
 H1832 H 0.64805 0.28781 1.02114
 O1833 O 0.44260 0.52705 1.17228
 O1834 O 0.41980 0.52726 1.21544
 C1835 C 0.43931 0.53724 1.19806
 C1836 C 0.45738 0.56181 1.20732
 C1837 C 0.45061 0.57629 1.23362
 H1838 H 0.43300 0.56872 1.24785
 O1839 O 0.64650 0.47186 1.10873
 O1840 O 0.68952 0.47215 1.13183
 C1841 C 0.66335 0.46276 1.12912
 C1842 C 0.65223 0.44096 1.14969
 C1843 C 0.66623 0.43595 1.17696
 H1844 H 0.68542 0.44834 1.18279
 O1845 O 0.56134 0.35906 1.09266
 O1846 O 0.57255 0.32658 1.12572
 C1847 C 0.57463 0.33641 1.09962
 C1848 C 0.59339 0.32190 1.07736
 C1849 C 0.60863 0.29699 1.08464
 H1850 H 0.60586 0.28765 1.10636
 O1851 O 0.50590 0.63983 1.10980
 O1852 O 0.51668 0.67285 1.14241
 C1853 C 0.49946 0.66271 1.12289
 C1854 C 0.47106 0.67700 1.11631
 C1855 C 0.46314 0.70165 1.13155
 H1856 H 0.47867 0.71109 1.14686
 O1857 O 0.36841 0.60050 1.07234
 O1858 O 0.33483 0.63279 1.08271
 C1859 C 0.34789 0.60983 1.08889
 C1860 C 0.33946 0.59387 1.11571
 C1861 C 0.31285 0.59956 1.13060
 H1862 H 0.29815 0.61568 1.12207
 O1863 O 0.64941 0.39764 0.98235
 O1864 O 0.68222 0.36462 0.97212
 C1865 C 0.67519 0.38735 0.98528
 C1866 C 0.69674 0.40105 1.00539
 C1867 C 0.72362 0.38757 1.01193
 H1868 H 0.72908 0.36792 1.00104
 O1869 O 0.51767 0.39751 1.14843
 O1870 O 0.52798 0.36451 1.18125
 C1871 C 0.51481 0.38725 1.17425
 C1872 C 0.49484 0.40102 1.19591
 C1873 C 0.48831 0.38750 1.22279
 H1874 H 0.49903 0.36773 1.22808
 O1875 O 0.57270 0.60092 1.13164
 O1876 O 0.58306 0.63329 1.16513
 C1877 C 0.58919 0.61024 1.15220
 C1878 C 0.61579 0.59407 1.16084
 C1879 C 0.63001 0.59901 1.18799
 H1880 H 0.62119 0.61479 1.20292
 O1881 O 0.39185 0.47180 1.14629
 O1882 O 0.36872 0.47196 1.18933
 C1883 C 0.37150 0.46258 1.16313
 C1884 C 0.35104 0.44070 1.15197
 C1885 C 0.32376 0.43562 1.16594
 H1886 H 0.31785 0.44800 1.18514
 O1887 O 0.67226 0.52674 1.05742
 O1888 O 0.71537 0.52707 1.08023
 C1889 C 0.69804 0.53689 1.06060
 C1890 C 0.70746 0.56119 1.04224
 C1891 C 0.73410 0.57515 1.04860
 H1892 H 0.74838 0.56735 1.06604
 O1893 O 0.40766 0.35819 1.06120
 O1894 O 0.37464 0.32568 1.07234
 C1895 C 0.40069 0.33553 1.07450
 C1896 C 0.42298 0.32106 1.09326
 C1897 C 0.41600 0.29596 1.10839
 H1898 H 0.39438 0.28647 1.10563
 O1899 O 0.61045 0.63961 0.99377
 O1900 O 0.64307 0.67261 0.98296
 C1901 C 0.62350 0.66251 1.00016
 C1902 C 0.61684 0.67694 1.02846
 C1903 C 0.63162 0.70193 1.03592
 H1904 H 0.64646 0.71146 1.02001
 Cu1905 Cu 0.65523 0.49907 1.08071
 Cu1906 Cu 0.70710 0.49924 1.10800
 Cu1907 Cu 0.41965 0.49921 1.15509
 Cu1908 Cu 0.39236 0.49917 1.20701
 Cu1909 Cu 0.53844 0.61715 1.11714
 Cu1910 Cu 0.55110 0.65649 1.15671
 Cu1911 Cu 0.53863 0.38143 1.11744
 Cu1912 Cu 0.55147 0.34215 1.15707
 C1913 C 0.62687 0.57321 1.14186
 H1914 H 0.61605 0.56938 1.12084
 C1915 C 0.65496 0.58315 1.19636
 C1916 C 0.47980 0.42604 1.18863
 H1917 H 0.48433 0.43631 1.16769
 C1918 C 0.46628 0.39805 1.24168
 C1919 C 0.59749 0.66468 1.04912
 H1920 H 0.58645 0.64509 1.04367
 C1921 C 0.62771 0.71448 1.06379
 C1922 C 0.45098 0.33332 1.09750
 H1923 H 0.45640 0.35287 1.08636
 C1924 C 0.43642 0.28360 1.12796
 C1925 C 0.68864 0.57233 1.02034
 H1926 H 0.66760 0.56224 1.01595
 C1927 C 0.74201 0.59981 1.03348
 C1928 C 0.35865 0.42504 1.12677
 H1929 H 0.37971 0.42881 1.11598
 C1930 C 0.30404 0.41525 1.15472
 C1931 C 0.47943 0.57270 1.18848
 H1932 H 0.48413 0.56225 1.16768
 C1933 C 0.46554 0.60118 1.24117
 C1934 C 0.62706 0.42531 1.14215
 H1935 H 0.61628 0.42903 1.12108
 C1936 C 0.65503 0.41561 1.19676
 C1937 C 0.68928 0.42594 1.02062
 H1938 H 0.66836 0.43620 1.01604
 C1939 C 0.74231 0.39798 1.03417
 C1940 C 0.35820 0.57273 1.12656
 H1941 H 0.37885 0.56837 1.11524
 C1942 C 0.30485 0.58433 1.15609
 C1943 C 0.45066 0.66480 1.09666
 H1944 H 0.45637 0.64540 1.08537
 C1945 C 0.43519 0.71397 1.12756
 C1946 C 0.59771 0.33398 1.04924
 H1947 H 0.58641 0.35338 1.04358
 C1948 C 0.62862 0.28478 1.06458
 O1949 O 0.55827 0.47164 0.82787
 O1950 O 0.58080 0.47142 0.78456
 C1951 C 0.56131 0.46154 0.80203
 C1952 C 0.54297 0.43722 0.79268
 C1953 C 0.54929 0.42324 0.76603
 H1954 H 0.56670 0.43103 0.75169
 O1955 O 0.35387 0.52613 0.89107
 O1956 O 0.31078 0.52593 0.86813
 C1957 C 0.33693 0.53539 0.87083
 C1958 C 0.34787 0.55753 0.85052
 C1959 C 0.33315 0.56352 0.82383
 H1960 H 0.31372 0.55144 0.81801
 O1961 O 0.43902 0.63968 0.90682
 O1962 O 0.42797 0.67220 0.87374
 C1963 C 0.42578 0.66237 0.89982
 C1964 C 0.40704 0.67687 0.92210
 C1965 C 0.39200 0.70202 0.91512
 H1966 H 0.39484 0.71152 0.89349
 O1967 O 0.49486 0.35890 0.89005
 O1968 O 0.48415 0.32591 0.85737
 C1969 C 0.50130 0.33603 0.87694
 C1970 C 0.52962 0.32168 0.88352
 C1971 C 0.53703 0.29667 0.86875
 H1972 H 0.52105 0.28709 0.85404
 O1973 O 0.63283 0.39784 0.92706
 O1974 O 0.66628 0.36544 0.91669
 C1975 C 0.65332 0.38845 0.91051
 C1976 C 0.66178 0.40445 0.88370
 C1977 C 0.68845 0.39890 0.86884
 H1978 H 0.70321 0.38283 0.87736
 O1979 O 0.35177 0.60055 1.01705
 O1980 O 0.31885 0.63347 1.02731
 C1981 C 0.32593 0.61074 1.01416
 C1982 C 0.30434 0.59693 0.99415
 C1983 C 0.27753 0.61047 0.98747
 H1984 H 0.27220 0.63026 0.99814
 O1985 O 0.48280 0.60095 0.85134
 O1986 O 0.47253 0.63388 0.81842
 C1987 C 0.48570 0.61117 0.82550
 C1988 C 0.50578 0.59738 0.80392
 C1989 C 0.51224 0.61078 0.77694
 H1990 H 0.50137 0.63044 0.77145
 O1991 O 0.42789 0.39743 0.86819
 O1992 O 0.41775 0.36511 0.83459
 C1993 C 0.41151 0.38809 0.84756
 C1994 C 0.38494 0.40419 0.83883
 C1995 C 0.37095 0.39932 0.81157
 H1996 H 0.37992 0.38361 0.79665
 O1997 O 0.60952 0.52663 0.85327
 O1998 O 0.63229 0.52650 0.81004
 C1999 C 0.62970 0.53589 0.83624
 C2000 C 0.65004 0.55796 0.84713
 C2001 C 0.67671 0.56391 0.83238
 H2002 H 0.68249 0.55183 0.81292
 O2003 O 0.32832 0.47089 0.94213
 O2004 O 0.28518 0.47051 0.91937
 C2005 C 0.30257 0.46065 0.93893
 C2006 C 0.29329 0.43620 0.95718
 C2007 C 0.26682 0.42196 0.95067
 H2008 H 0.25257 0.42961 0.93314
 O2009 O 0.59321 0.63947 0.93848
 O2010 O 0.62619 0.67206 0.92747
 C2011 C 0.60014 0.66219 0.92529
 C2012 C 0.57783 0.67673 0.90661
 C2013 C 0.58488 0.70181 0.89152
 H2014 H 0.60656 0.71121 0.89425
 O2015 O 0.39056 0.35809 1.00586
 O2016 O 0.35787 0.32516 1.01672
 C2017 C 0.37743 0.33523 0.99947
 C2018 C 0.38400 0.32092 0.97107
 C2019 C 0.36881 0.29625 0.96318
 H2020 H 0.35351 0.28680 0.97873
 O2021 O 0.35411 0.47154 0.89098
 O2022 O 0.31107 0.47160 0.86792
 C2023 C 0.33729 0.46234 0.87062
 C2024 C 0.34853 0.44056 0.85010
 C2025 C 0.33470 0.43551 0.82277
 H2026 H 0.31550 0.44786 0.81682
 O2027 O 0.55827 0.52703 0.82781
 O2028 O 0.58082 0.52722 0.78451
 C2029 C 0.56133 0.53712 0.80196
 C2030 C 0.54301 0.56147 0.79259
 C2031 C 0.54949 0.57558 0.76603
 H2032 H 0.56703 0.56789 0.75179
 O2033 O 0.43960 0.35866 0.90724
 O2034 O 0.42870 0.32615 0.87413
 C2035 C 0.42651 0.33591 0.90023
 C2036 C 0.40789 0.32121 0.92246
 C2037 C 0.39272 0.29628 0.91513
 H2038 H 0.39545 0.28704 0.89336
 O2039 O 0.49437 0.63961 0.88974
 O2040 O 0.48353 0.67252 0.85700
 C2041 C 0.50076 0.66247 0.87657
 C2042 C 0.52910 0.67686 0.88310
 C2043 C 0.53660 0.70181 0.86821
 H2044 H 0.52069 0.71134 0.85338
 O2045 O 0.35219 0.39680 1.01734
 O2046 O 0.31934 0.36385 1.02767
 C2047 C 0.32638 0.38655 1.01445
 C2048 C 0.30478 0.40027 0.99437
 C2049 C 0.27790 0.38676 0.98789
 H2050 H 0.27253 0.36707 0.99875
 O2051 O 0.63239 0.60085 0.92686
 O2052 O 0.66584 0.63325 0.91656
 C2053 C 0.65290 0.61025 0.91035
 C2054 C 0.66143 0.59430 0.88355
 C2055 C 0.68804 0.60002 0.86867
 H2056 H 0.70270 0.61616 0.87718
 O2057 O 0.48313 0.39750 0.85165
 O2058 O 0.47307 0.36448 0.81878
 C2059 C 0.48608 0.38728 0.82581
 C2060 C 0.50597 0.40117 0.80417
 C2061 C 0.51228 0.38788 0.77710
 H2062 H 0.50146 0.36820 0.77163
 O2063 O 0.42756 0.60061 0.86812
 O2064 O 0.41718 0.63293 0.83457
 C2065 C 0.41102 0.60994 0.84760
 C2066 C 0.38426 0.59393 0.83914
 C2067 C 0.36940 0.59967 0.81254
 H2068 H 0.37791 0.61584 0.79788
 O2069 O 0.32811 0.52633 0.94219
 O2070 O 0.28494 0.52644 0.91949
 C2071 C 0.30228 0.53640 0.93902
 C2072 C 0.29289 0.56083 0.95719
 C2073 C 0.26647 0.57507 0.95048
 H2074 H 0.25228 0.56737 0.93293
 O2075 O 0.60954 0.47202 0.85335
 O2076 O 0.63231 0.47214 0.81012
 C2077 C 0.62974 0.46277 0.83634
 C2078 C 0.65019 0.44078 0.84728
 C2079 C 0.67693 0.43499 0.83257
 H2080 H 0.68264 0.44712 0.81312
 O2081 O 0.59380 0.35910 0.93870
 O2082 O 0.62676 0.32648 0.92769
 C2083 C 0.60071 0.33637 0.92553
 C2084 C 0.57838 0.32182 0.90693
 C2085 C 0.58537 0.29668 0.89191
 H2086 H 0.60704 0.28725 0.89462
 O2087 O 0.38992 0.63943 1.00539
 O2088 O 0.35717 0.67232 1.01628
 C2089 C 0.37676 0.66231 0.99905
 C2090 C 0.38335 0.67679 0.97078
 C2091 C 0.36853 0.70179 0.96337
 H2092 H 0.35370 0.71127 0.97933
 Cu2093 Cu 0.58154 0.49933 0.84484
 Cu2094 Cu 0.60847 0.49930 0.79273
 Cu2095 Cu 0.34534 0.49872 0.91899
 Cu2096 Cu 0.29341 0.49859 0.89182
 Cu2097 Cu 0.61781 0.61694 0.96121
 Cu2098 Cu 0.65741 0.65628 0.94859
 Cu2099 Cu 0.61837 0.38167 0.96140
 Cu2100 Cu 0.65794 0.34230 0.94874
 Cu2101 Cu 0.38275 0.61672 1.03795
 Cu2102 Cu 0.34300 0.65591 1.05068
 Cu2103 Cu 0.38322 0.38080 1.03835
 Cu2104 Cu 0.34357 0.34157 1.05115
 Cu2105 Cu 0.46183 0.61698 0.88240
 Cu2106 Cu 0.44912 0.65621 0.84269
 Cu2107 Cu 0.46222 0.38138 0.88269
 Cu2108 Cu 0.44975 0.34206 0.84299
 C2109 C 0.52114 0.42609 0.81161
 H2110 H 0.51679 0.43620 0.83266
 C2111 C 0.53424 0.39853 0.75822
 C2112 C 0.37345 0.57271 0.85783
 H2113 H 0.38476 0.56831 0.87847
 C2114 C 0.34398 0.58440 0.80447
 C2115 C 0.40271 0.66461 0.95011
 H2116 H 0.41378 0.64502 0.95553
 C2117 C 0.37244 0.71443 0.93554
 C2118 C 0.55032 0.33400 0.90274
 H2119 H 0.54489 0.35360 0.91377
 C2120 C 0.56491 0.28418 0.87251
 C2121 C 0.64296 0.42554 0.87287
 H2122 H 0.62228 0.42980 0.88416
 C2123 C 0.69644 0.41425 0.84340
 C2124 C 0.31167 0.57188 0.97917
 H2125 H 0.33255 0.56158 0.98381
 C2126 C 0.25876 0.59994 0.96535
 C2127 C 0.52101 0.57249 0.81139
 H2128 H 0.51653 0.56229 0.83237
 C2129 C 0.53438 0.60026 0.75818
 C2130 C 0.37370 0.42495 0.85780
 H2131 H 0.38436 0.42870 0.87891
 C2132 C 0.34607 0.41518 0.80305
 C2133 C 0.64274 0.57313 0.87274
 H2134 H 0.62210 0.56876 0.88405
 C2135 C 0.69609 0.58475 0.84321
 C2136 C 0.31212 0.42522 0.97918
 H2137 H 0.33303 0.43551 0.98368
 C2138 C 0.25910 0.39720 0.96577
 C2139 C 0.54976 0.66459 0.90241
 H2140 H 0.54429 0.64503 0.91352
 C2141 C 0.56450 0.71429 0.87201
 C2142 C 0.40363 0.33315 0.95064
 H2143 H 0.41489 0.35256 0.95633
 C2144 C 0.37284 0.28394 0.93521
 C2145 C 1.17410 1.10331 1.26969
 C2146 C 1.19498 1.08214 1.26660
 C2147 C 1.19144 1.07196 1.23860
 C2148 C 1.16863 1.08750 1.22640
 O2149 O 1.15828 1.10650 1.24521
 H2150 H 1.21101 1.07467 1.28253
 H2151 H 1.20390 1.05492 1.22874
 C2152 C 1.17836 0.60652 0.76672
 C2153 C 1.20233 0.58902 0.76197
 C2154 C 1.19854 0.57838 0.73414
 C2155 C 1.17249 0.59013 0.72386
 O2156 O 1.16044 0.60724 0.74360
 H2157 H 1.22058 0.58461 0.77674
 H2158 H 1.21320 0.56385 0.72296
 C2159 C 0.67704 1.10618 0.76720
 C2160 C 0.70071 1.08832 0.76245
 C2161 C 0.69687 1.07792 0.73455
 C2162 C 0.67107 1.09014 0.72421
 O2163 O 0.65923 1.10732 0.74400
 H2164 H 0.71882 1.08354 0.77726
 H2165 H 0.71133 1.06322 0.72336
 C2166 C 0.67365 0.60335 1.26942
 C2167 C 0.69436 0.58201 1.26642
 C2168 C 0.69080 0.57182 1.23844
 C2169 C 0.66815 0.58751 1.22616
 O2170 O 0.65792 0.60663 1.24490
 H2171 H 0.71031 0.57446 1.28239
 H2172 H 0.70313 0.55466 1.22865
 C2173 C 0.92736 0.86370 1.29851
 C2174 C 0.95446 0.85058 1.30281
 C2175 C 0.97316 0.86237 1.28264
 C2176 C 0.95634 0.88188 1.26753
 O2177 O 0.92876 0.88285 1.27723
 H2178 H 0.96029 0.83413 1.31830
 H2179 H 0.99619 0.85706 1.27921
 C2180 C 0.92764 0.36333 0.79792
 C2181 C 0.95465 0.34997 0.80195
 C2182 C 0.97328 0.36161 0.78164
 C2183 C 0.95652 0.38128 0.76669
 O2184 O 0.92903 0.38248 0.77665
 H2185 H 0.96048 0.33347 0.81738
 H2186 H 0.99624 0.35613 0.77804
 C2187 C 0.42877 0.86452 0.79858
 C2188 C 0.45579 0.85144 0.80295
 C2189 C 0.47434 0.86282 0.78236
 C2190 C 0.45741 0.88210 0.76701
 O2191 O 0.42991 0.88323 0.77691
 H2192 H 0.46152 0.83533 0.81886
 H2193 H 0.49736 0.85749 0.77888
 C2194 C 0.42739 0.36374 1.29885
 C2195 C 0.45428 0.35012 1.30272
 C2196 C 0.47294 0.36171 1.28240
 C2197 C 0.45632 0.38161 1.26762
 O2198 O 0.42889 0.38299 1.27768
 H2199 H 0.45998 0.33350 1.31805
 H2200 H 0.49583 0.35604 1.27869
 C2201 C 0.82676 1.10408 0.72965
 C2202 C 0.80555 1.08324 0.73291
 C2203 C 0.80915 1.07300 0.76089
 C2204 C 0.83233 1.08816 0.77289
 O2205 O 0.84282 1.10702 0.75399
 H2206 H 0.78924 1.07606 0.71713
 H2207 H 0.79647 1.05618 0.77086
 C2208 C 0.82540 0.60536 0.23239
 C2209 C 0.80196 0.58720 0.23698
 C2210 C 0.80575 0.57687 0.26492
 C2211 C 0.83127 0.58945 0.27544
 O2212 O 0.84301 0.60677 0.25571
 H2213 H 0.78405 0.58215 0.22203
 H2214 H 0.79143 0.56197 0.27600
 C2215 C 0.32765 1.10282 0.23009
 C2216 C 0.30691 1.08151 0.23306
 C2217 C 0.31022 1.07149 0.26115
 C2218 C 0.33275 1.08725 0.27350
 O2219 O 0.34315 1.10625 0.25471
 H2220 H 0.29112 1.07385 0.21701
 H2221 H 0.29782 1.05439 0.27097
 C2222 C 0.32426 0.60639 0.73244
 C2223 C 0.30027 0.58890 0.73711
 C2224 C 0.30392 0.57832 0.76498
 C2225 C 0.32992 0.59008 0.77536
 O2226 O 0.34207 0.60716 0.75564
 H2227 H 0.28209 0.58448 0.72226
 H2228 H 0.28921 0.56382 0.77613
 C2229 C 1.07337 0.86414 0.70059
 C2230 C 1.04638 0.85104 0.69609
 C2231 C 1.02774 0.86238 0.71662
 C2232 C 1.04458 0.88165 0.73206
 O2233 O 1.07212 0.88281 0.72227
 H2234 H 1.04074 0.83495 0.68014
 H2235 H 1.00471 0.85702 0.72001
 C2236 C 1.07251 0.36493 0.20036
 C2237 C 1.04546 0.35192 0.19593
 C2238 C 1.02691 0.36333 0.21651
 C2239 C 1.04387 0.38254 0.23189
 O2240 O 1.07138 0.38360 0.22205
 H2241 H 1.03973 0.33582 0.18001
 H2242 H 1.00389 0.35804 0.21998
 C2243 C 0.57371 0.86416 0.20092
 C2244 C 0.54654 0.85119 0.19664
 C2245 C 0.52792 0.86309 0.21680
 C2246 C 0.54483 0.88252 0.23189
 O2247 O 0.57241 0.88334 0.22218
 H2248 H 0.54062 0.83476 0.18118
 H2249 H 0.50486 0.85790 0.22025
 C2250 C 0.57280 0.36469 0.70068
 C2251 C 0.54575 0.35174 0.69612
 C2252 C 0.52713 0.36316 0.71662
 C2253 C 0.54406 0.38233 0.73210
 O2254 O 0.57161 0.38336 0.72237
 H2255 H 0.54005 0.33566 0.68017
 H2256 H 0.50408 0.35790 0.71999
 C2257 C 1.30012 1.13324 1.07174
 C2258 C 1.30464 1.14616 1.04464
 C2259 C 1.28403 1.13482 1.02612
 C2260 C 1.26854 1.11571 1.04314
 O2261 O 1.27835 1.11466 1.07067
 H2262 H 1.32065 1.16217 1.03886
 H2263 H 1.28062 1.14007 1.00306
 C2264 C 1.30033 0.63379 0.57152
 C2265 C 1.30518 0.64644 0.54433
 C2266 C 1.28480 0.63491 0.52568
 C2267 C 1.26911 0.61597 0.54273
 O2268 O 1.27858 0.61520 0.57039
 H2269 H 1.32121 0.66242 0.53854
 H2270 H 1.28164 0.63995 0.50254
 C2271 C 0.79890 1.13603 0.57282
 C2272 C 0.80271 1.14975 0.54597
 C2273 C 0.78238 1.13824 0.52730
 C2274 C 0.76763 1.11828 0.54388
 O2275 O 0.77773 1.11679 0.57130
 H2276 H 0.81803 1.16637 0.54026
 H2277 H 0.77867 1.14398 0.50442
 C2278 C 0.79972 0.63352 1.07182
 C2279 C 0.80447 0.64616 1.04461
 C2280 C 0.78391 0.63475 1.02609
 C2281 C 0.76821 0.61589 1.04322
 O2282 O 0.77785 0.61505 1.07082
 H2283 H 0.82059 0.66203 1.03873
 H2284 H 0.78065 0.63980 1.00296
 C2285 C 1.27068 0.89550 0.82706
 C2286 C 1.26771 0.91687 0.80636
 C2287 C 1.23966 0.92692 0.80978
 C2288 C 1.22732 0.91113 0.83233
 O2289 O 1.24609 0.89208 0.84264
 H2290 H 1.28374 0.92454 0.79053
 H2291 H 1.22987 0.94406 0.79743
 C2292 C 1.27040 0.39510 0.32556
 C2293 C 1.26740 0.41617 0.30452
 C2294 C 1.23939 0.42637 0.30792
 C2295 C 1.22712 0.41096 0.33079
 O2296 O 1.24587 0.39200 0.34130
 H2297 H 1.28338 0.42355 0.28850
 H2298 H 1.22957 0.44335 0.29534
 C2299 C 0.76786 0.89190 0.32186
 C2300 C 0.76315 0.90931 0.29779
 C2301 C 0.73538 0.92008 0.30160
 C2302 C 0.72510 0.90850 0.32775
 O2303 O 0.74478 0.89136 0.33985
 H2304 H 0.77791 0.91357 0.27948
 H2305 H 0.72423 0.93459 0.28690
 C2306 C 0.76852 0.39265 0.82326
 C2307 C 0.76384 0.41054 0.79958
 C2308 C 0.73598 0.42104 0.80345
 C2309 C 0.72559 0.40883 0.82925
 O2310 O 0.74531 0.39158 0.84109
 H2311 H 0.77868 0.41529 0.78147
 H2312 H 0.72486 0.43578 0.78900
 C2313 C 0.73328 0.89166 1.17725
 C2314 C 0.73813 0.90898 1.20134
 C2315 C 0.76591 0.91966 1.19748
 C2316 C 0.77607 0.90811 1.17126
 O2317 O 0.75630 0.89108 1.15918
 H2318 H 0.72344 0.91324 1.21972
 H2319 H 0.77715 0.93407 1.21220
 C2320 C 0.73125 0.39488 0.67384
 C2321 C 0.73425 0.41588 0.69494
 C2322 C 0.76226 0.42606 0.69160
 C2323 C 0.77453 0.41071 0.66868
 O2324 O 0.75578 0.39178 0.65811
 H2325 H 0.71828 0.42321 0.71101
 H2326 H 0.77208 0.44298 0.70423
 C2327 C 0.23146 0.89542 0.67260
 C2328 C 0.23429 0.91686 0.69323
 C2329 C 0.26229 0.92702 0.68982
 C2330 C 0.27474 0.91124 0.66733
 O2331 O 0.25609 0.89208 0.65706
 H2332 H 0.21820 0.92450 0.70902
 H2333 H 0.27198 0.94425 0.70211
 C2334 C 0.23080 0.39534 1.17286
 C2335 C 0.23372 0.41664 1.19364
 C2336 C 0.26178 0.42670 1.19031
 C2337 C 0.27416 0.41099 1.16773
 O2338 O 0.25542 0.39197 1.15732
 H2339 H 0.21766 0.42425 1.20947
 H2340 H 0.27154 0.44380 1.20273
 C2341 C 0.70237 1.13521 0.92641
 C2342 C 0.69832 1.14849 0.95347
 C2343 C 0.71867 1.13685 0.97204
 C2344 C 0.73366 1.11726 0.95521
 O2345 O 0.72370 1.11610 0.92772
 H2346 H 0.68284 1.16492 0.95937
 H2347 H 0.72226 1.14228 0.99502
 C2348 C 0.70222 0.63483 0.42749
 C2349 C 0.69776 0.64800 0.45446
 C2350 C 0.71824 0.63667 0.47312
 C2351 C 0.73363 0.61731 0.45631
 O2352 O 0.72385 0.61610 0.42877
 H2353 H 0.68184 0.66414 0.46009
 H2354 H 0.72162 0.64206 0.49614
 C2355 C 0.20209 1.13533 0.42647
 C2356 C 0.19830 1.14908 0.45331
 C2357 C 0.21864 1.13756 0.47198
 C2358 C 0.23337 1.11758 0.45542
 O2359 O 0.22326 1.11608 0.42801
 H2360 H 0.18298 1.16571 0.45900
 H2361 H 0.22236 1.14332 0.49485
 C2362 C 0.20199 0.63462 0.92630
 C2363 C 0.19766 0.64772 0.95342
 C2364 C 0.21778 0.63591 0.97212
 C2365 C 0.23290 0.61639 0.95531
 O2366 O 0.22324 0.61545 0.92770
 H2367 H 0.18218 0.66417 0.95927
 H2368 H 0.22116 0.64118 0.99517
 C2369 C 1.15850 1.27691 1.09465
 C2370 C 1.18012 1.27248 1.07354
 C2371 C 1.17195 1.24853 1.05912
 C2372 C 1.14589 1.23998 1.07240
 O2373 O 1.13779 1.25717 1.09398
 H2374 H 1.19939 1.28524 1.06883
 H2375 H 1.18391 1.23845 1.04128
 C2376 C 1.15964 0.77644 0.59486
 C2377 C 1.18128 0.77202 0.57378
 C2378 C 1.17310 0.74809 0.55930
 C2379 C 1.14701 0.73956 0.57253
 O2380 O 1.13890 0.75671 0.59413
 H2381 H 1.20056 0.78477 0.56911
 H2382 H 1.18507 0.73803 0.54146
 C2383 C 0.65874 1.27712 0.59459
 C2384 C 0.68034 1.27276 0.57344
 C2385 C 0.67206 1.24893 0.55884
 C2386 C 0.64597 1.24038 0.57207
 O2387 O 0.63795 1.25745 0.59378
 H2388 H 0.69965 1.28548 0.56883
 H2389 H 0.68398 1.23892 0.54092
 C2390 C 0.65743 0.77657 1.09493
 C2391 C 0.67887 0.77254 1.07356
 C2392 C 0.67061 0.74883 1.05874
 C2393 C 0.64467 0.74002 1.07209
 O2394 O 0.63672 0.75684 1.09405
 H2395 H 0.69810 0.78539 1.06898
 H2396 H 0.68248 0.73905 1.04067
 C2397 C 0.84384 1.27660 0.90451
 C2398 C 0.82242 1.27256 0.92589
 C2399 C 0.83063 1.24876 0.94058
 C2400 C 0.85652 1.23993 0.92714
 O2401 O 0.86448 1.25681 0.90524
 H2402 H 0.80324 1.28546 0.93057
 H2403 H 0.81878 1.23894 0.95864
 C2404 C 0.84327 0.77660 0.40451
 C2405 C 0.82176 0.77249 0.42580
 C2406 C 0.83012 0.74883 0.44068
 C2407 C 0.85616 0.74014 0.42744
 O2408 O 0.86408 0.75697 0.40549
 H2409 H 0.80245 0.78526 0.43028
 H2410 H 0.81826 0.73901 0.45874
 C2411 C 0.34277 1.27757 0.40527
 C2412 C 0.32125 1.27338 0.42652
 C2413 C 0.32938 1.24944 0.44104
 C2414 C 0.35531 1.24068 0.42765
 O2415 O 0.36338 1.25772 0.40593
 H2416 H 0.30208 1.28627 0.43124
 H2417 H 0.31746 1.23951 0.45900
 C2418 C 0.34306 0.77701 0.90508
 C2419 C 0.32154 0.77281 0.92634
 C2420 C 0.32962 0.74884 0.94080
 C2421 C 0.35553 0.74006 0.92740
 O2422 O 0.36363 0.75712 0.90570
 H2423 H 0.30240 0.78571 0.93112
 H2424 H 0.31766 0.73890 0.95873
 C2425 C 1.09594 0.72182 0.84237
 C2426 C 1.07460 0.72583 0.82092
 C2427 C 1.05975 0.74953 0.82922
 C2428 C 1.07305 0.75833 0.85517
 O2429 O 1.09502 0.74153 0.86310
 H2430 H 1.07007 0.71299 0.80168
 H2431 H 1.04167 0.75930 0.81736
 C2432 C 1.09510 0.22112 0.34224
 C2433 C 1.07369 0.22519 0.32088
 C2434 C 1.05924 0.24917 0.32897
 C2435 C 1.07282 0.25809 0.35473
 O2436 O 1.09459 0.24109 0.36273
 H2437 H 1.06882 0.21220 0.30183
 H2438 H 1.04120 0.25903 0.31713
 C2439 C 0.59605 0.72224 0.34152
 C2440 C 0.57486 0.72654 0.31998
 C2441 C 0.56041 0.75050 0.32812
 C2442 C 0.57376 0.75917 0.35409
 O2443 O 0.59540 0.74206 0.36216
 H2444 H 0.57010 0.71370 0.30078
 H2445 H 0.54251 0.76050 0.31619
 C2446 C 0.59571 0.22195 0.84284
 C2447 C 0.57432 0.22598 0.82145
 C2448 C 0.55964 0.24979 0.82968
 C2449 C 0.57309 0.25862 0.85555
 O2450 O 0.59498 0.24175 0.86348
 H2451 H 0.56963 0.21309 0.80228
 H2452 H 0.54158 0.25960 0.81784
 C2453 C 0.90512 0.72236 1.15712
 C2454 C 0.92634 0.72658 1.17866
 C2455 C 0.94093 0.75042 1.17044
 C2456 C 0.92763 0.75909 1.14443
 O2457 O 0.90589 0.74209 1.13640
 H2458 H 0.93099 0.71377 1.19790
 H2459 H 0.95886 0.76036 1.18236
 C2460 C 0.90661 0.22111 0.65680
 C2461 C 0.92814 0.22498 0.67808
 C2462 C 0.94269 0.24891 0.66999
 C2463 C 0.92904 0.25798 0.64432
 O2464 O 0.90714 0.24113 0.63638
 H2465 H 0.93302 0.21191 0.69708
 H2466 H 0.96083 0.25863 0.68179
 C2467 C 0.40617 0.72209 0.65690
 C2468 C 0.42749 0.72614 0.67835
 C2469 C 0.44229 0.74986 0.67005
 C2470 C 0.42896 0.75864 0.64410
 O2471 O 0.40704 0.74180 0.63617
 H2472 H 0.43207 0.71330 0.69760
 H2473 H 0.46034 0.75967 0.68190
 C2474 C 0.40600 0.22109 1.15756
 C2475 C 0.42716 0.22540 1.17912
 C2476 C 0.44160 0.24936 1.17097
 C2477 C 0.42828 0.25802 1.14498
 O2478 O 0.40666 0.24090 1.13689
 H2479 H 0.43189 0.21257 1.19834
 H2480 H 0.45947 0.25937 1.18292
 C2481 C 1.07388 1.13447 0.70062
 C2482 C 1.04671 1.14748 0.69634
 C2483 C 1.02813 1.13572 0.71662
 C2484 C 1.04506 1.11633 0.73179
 O2485 O 1.07261 1.11541 0.72200
 H2486 H 1.04077 1.16383 0.68078
 H2487 H 1.00509 1.14096 0.72008
 C2488 C 1.07444 0.63677 0.20189
 C2489 C 1.04745 0.65017 0.19799
 C2490 C 1.02876 0.63816 0.21802
 C2491 C 1.04548 0.61825 0.23269
 O2492 O 1.07300 0.61726 0.22281
 H2493 H 1.04168 0.66690 0.18282
 H2494 H 1.00579 0.64358 0.22164
 C2495 C 0.57331 1.13646 0.20140
 C2496 C 0.54624 1.14940 0.19690
 C2497 C 0.52757 1.13764 0.21715
 C2498 C 0.54449 1.11830 0.23244
 O2499 O 0.57209 1.11749 0.22282
 H2500 H 0.54056 1.16566 0.18114
 H2501 H 0.50448 1.14279 0.22047
 C2502 C 0.57293 0.63445 0.70081
 C2503 C 0.54572 0.64705 0.69604
 C2504 C 0.52714 0.63545 0.71645
 C2505 C 0.54423 0.61653 0.73210
 O2506 O 0.57186 0.61582 0.72256
 H2507 H 0.53990 0.66304 0.68002
 H2508 H 0.50399 0.64043 0.71965
 C2509 C 0.82476 0.89228 0.73185
 C2510 C 0.80069 0.90963 0.73666
 C2511 C 0.80431 0.92003 0.76459
 C2512 C 0.83038 0.90830 0.77486
 O2513 O 0.84260 0.89142 0.75502
 H2514 H 0.78246 0.91407 0.72186
 H2515 H 0.78952 0.93438 0.77586
 C2516 C 0.82592 0.39343 0.23245
 C2517 C 0.80247 0.41168 0.23671
 C2518 C 0.80606 0.42225 0.26457
 C2519 C 0.83147 0.40970 0.27538
 O2520 O 0.84335 0.39220 0.25591
 H2521 H 0.78464 0.41662 0.22161
 H2522 H 0.79169 0.43725 0.27543
 C2523 C 0.32589 0.89332 0.23214
 C2524 C 0.30243 0.91156 0.23641
 C2525 C 0.30605 0.92213 0.26427
 C2526 C 0.33148 0.90960 0.27505
 O2527 O 0.34334 0.89210 0.25558
 H2528 H 0.28459 0.91649 0.22133
 H2529 H 0.29169 0.93714 0.27512
 C2530 C 0.32817 0.39505 0.72983
 C2531 C 0.30730 0.41627 0.73268
 C2532 C 0.31055 0.42645 0.76071
 C2533 C 0.33319 0.41087 0.77314
 O2534 O 0.34370 0.39183 0.75447
 H2535 H 0.29141 0.42374 0.71661
 H2536 H 0.29802 0.44351 0.77044
 C2537 C 1.17277 0.89555 1.26996
 C2538 C 1.19354 0.91686 1.26708
 C2539 C 1.19023 0.92700 1.23905
 C2540 C 1.16766 0.91132 1.22664
 O2541 O 1.15724 0.89226 1.24534
 H2542 H 1.20939 0.92440 1.28313
 H2543 H 1.20266 0.94411 1.22930
 C2544 C 1.17570 0.39308 0.76746
 C2545 C 1.19918 0.41129 0.76323
 C2546 C 1.19567 0.42182 0.73534
 C2547 C 1.17027 0.40930 0.72449
 O2548 O 1.15834 0.39184 0.74396
 H2549 H 1.21697 0.41622 0.77837
 H2550 H 1.21008 0.43680 0.72450
 C2551 C 0.67740 0.89204 0.76641
 C2552 C 0.70139 0.90953 0.76171
 C2553 C 0.69769 0.92016 0.73387
 C2554 C 0.67166 0.90841 0.72353
 O2555 O 0.65955 0.89131 0.74324
 H2556 H 0.71960 0.91393 0.77653
 H2557 H 0.71238 0.93468 0.72272
 C2558 C 0.67336 0.39579 1.27000
 C2559 C 0.69430 0.41692 1.26688
 C2560 C 0.69090 0.42693 1.23880
 C2561 C 0.66812 0.41137 1.22661
 O2562 O 0.65767 0.39248 1.24548
 H2563 H 0.71028 0.42443 1.28282
 H2564 H 0.70343 0.44390 1.22888
 C2565 C 0.92769 1.13516 1.29868
 C2566 C 0.95482 1.14822 1.30293
 C2567 C 0.97342 1.13648 1.28265
 C2568 C 0.95653 1.11705 1.26753
 O2569 O 0.92898 1.11609 1.27733
 H2570 H 0.96073 1.16460 1.31845
 H2571 H 0.99645 1.14176 1.27916
 C2572 C 0.92884 0.63413 0.79869
 C2573 C 0.95602 0.64679 0.80344
 C2574 C 0.97463 0.63525 0.78300
 C2575 C 0.95758 0.61630 0.76737
 O2576 O 0.92995 0.61552 0.77693
 H2577 H 0.96181 0.66278 0.81946
 H2578 H 0.99775 0.64029 0.77979
 C2579 C 0.42787 1.13554 0.79806
 C2580 C 0.45501 1.14830 0.80268
 C2581 C 0.47364 1.13657 0.78238
 C2582 C 0.45664 1.11742 0.76694
 O2583 O 0.42902 1.11669 0.77652
 H2584 H 0.46075 1.16443 0.81856
 H2585 H 0.49676 1.14161 0.77913
 C2586 C 0.42665 0.63669 1.29758
 C2587 C 0.45373 0.64988 1.30158
 C2588 C 0.47239 0.63772 1.28163
 C2589 C 0.45558 0.61795 1.26689
 O2590 O 0.42802 0.61716 1.27667
 H2591 H 0.45956 0.66657 1.31678
 H2592 H 0.49542 0.64297 1.27809
 C2593 C 1.09766 1.27532 0.84092
 C2594 C 1.07904 1.26874 0.81756
 C2595 C 1.06404 1.24525 0.82620
 C2596 C 1.07457 1.23894 0.85408
 O2597 O 1.09490 1.25708 0.86301
 H2598 H 1.07622 1.27959 0.79671
 H2599 H 1.04786 1.23379 0.81331
 C2600 C 1.09714 0.77654 0.34128
 C2601 C 1.07833 0.77004 0.31805
 C2602 C 1.06363 0.74634 0.32660
 C2603 C 1.07451 0.73983 0.35430
 O2604 O 1.09478 0.75805 0.36320
 H2605 H 1.07519 0.78106 0.29735
 H2606 H 1.04739 0.73489 0.31378
 C2607 C 0.59445 1.27814 0.34285
 C2608 C 0.57302 1.27413 0.32149
 C2609 C 0.55853 1.25018 0.32958
 C2610 C 0.57211 1.24122 0.35533
 O2611 O 0.59391 1.25816 0.36333
 H2612 H 0.56815 1.28715 0.30245
 H2613 H 0.54048 1.24036 0.31773
 C2614 C 0.59570 0.77631 0.84214
 C2615 C 0.57437 0.77226 0.82070
 C2616 C 0.55954 0.74857 0.82901
 C2617 C 0.57284 0.73979 0.85497
 O2618 O 0.59479 0.75661 0.86290
 H2619 H 0.56981 0.78509 0.80144
 H2620 H 0.54148 0.73878 0.81716
 C2621 C 0.90373 1.27559 1.15873
 C2622 C 0.92240 1.26899 1.18205
 C2623 C 0.93741 1.24552 1.17335
 C2624 C 0.92684 1.23923 1.14548
 O2625 O 0.90647 1.25738 1.13661
 H2626 H 0.92525 1.27981 1.20290
 H2627 H 0.95363 1.23405 1.18619
 C2628 C 0.90737 0.77752 0.65580
 C2629 C 0.92902 0.77387 0.67701
 C2630 C 0.94377 0.75006 0.66894
 C2631 C 0.93011 0.74083 0.64334
 O2632 O 0.90803 0.75749 0.63541
 H2633 H 0.93379 0.78703 0.69597
 H2634 H 0.96200 0.74049 0.68075
 C2635 C 0.40438 1.27623 0.65869
 C2636 C 0.42322 1.26977 0.68191
 C2637 C 0.43801 1.24612 0.67333
 C2638 C 0.42714 1.23960 0.64563
 O2639 O 0.40680 1.25776 0.63676
 H2640 H 0.42632 1.28080 0.70261
 H2641 H 0.45432 1.23471 0.68613
 C2642 C 0.40327 0.77524 1.15847
 C2643 C 0.42192 0.76858 1.18179
 C2644 C 0.43684 0.74507 1.17310
 C2645 C 0.42626 0.73881 1.14523
 O2646 O 0.40595 0.75702 1.13635
 H2647 H 0.42481 0.77940 1.20265
 H2648 H 0.45304 0.73355 1.18594
 C2649 C 0.84359 0.72205 0.90519
 C2650 C 0.82221 0.72595 0.92664
 C2651 C 0.83036 0.74972 0.94140
 C2652 C 0.85618 0.75868 0.92795
 O2653 O 0.86417 0.74190 0.90598
 H2654 H 0.80308 0.71298 0.93130
 H2655 H 0.81848 0.75943 0.95952
 C2656 C 0.84404 0.22202 0.40530
 C2657 C 0.82266 0.22594 0.42674
 C2658 C 0.83087 0.24968 0.44153
 C2659 C 0.85672 0.25858 0.42809
 O2660 O 0.86466 0.24182 0.40610
 H2661 H 0.80349 0.21302 0.43137
 H2662 H 0.81903 0.25941 0.45965
 C2663 C 0.34234 0.72343 0.40230
 C2664 C 0.31906 0.72998 0.42105
 C2665 C 0.32781 0.75334 0.43619
 C2666 C 0.35567 0.75963 0.42560
 O2667 O 0.36450 0.74156 0.40512
 H2668 H 0.29818 0.71919 0.42386
 H2669 H 0.31500 0.76477 0.45248
 C2670 C 0.34199 0.22282 0.90303
 C2671 C 0.31872 0.22930 0.92183
 C2672 C 0.32741 0.25270 0.93693
 C2673 C 0.35522 0.25908 0.92626
 O2674 O 0.36407 0.24104 0.90577
 H2675 H 0.29790 0.21843 0.92471
 H2676 H 0.31460 0.26409 0.95326
 C2677 C 1.15891 0.72293 1.09685
 C2678 C 1.18218 0.72939 1.07805
 C2679 C 1.17350 0.75283 1.06297
 C2680 C 1.14569 0.75922 1.07364
 O2681 O 1.13684 0.74117 1.09412
 H2682 H 1.20301 0.71852 1.07518
 H2683 H 1.18632 0.76422 1.04667
 C2684 C 1.15751 0.22153 0.59407
 C2685 C 1.17885 0.22537 0.57257
 C2686 C 1.17068 0.24913 0.55778
 C2687 C 1.14490 0.25815 0.57128
 O2688 O 1.13695 0.24142 0.59330
 H2689 H 1.19795 0.21237 0.56790
 H2690 H 1.18253 0.25881 0.53962
 C2691 C 0.65800 0.72233 0.59406
 C2692 C 0.67934 0.72613 0.57254
 C2693 C 0.67116 0.74984 0.55768
 C2694 C 0.64537 0.75888 0.57115
 O2695 O 0.63743 0.74220 0.59323
 H2696 H 0.69844 0.71312 0.56791
 H2697 H 0.68299 0.75948 0.53949
 C2698 C 0.65946 0.22361 1.09663
 C2699 C 0.68278 0.23014 1.07791
 C2700 C 0.67410 0.25360 1.06286
 C2701 C 0.64626 0.25993 1.07348
 O2702 O 0.63738 0.24183 1.09388
 H2703 H 0.70362 0.21929 1.07506
 H2704 H 0.68695 0.26504 1.04660
 C2705 C 1.26800 1.10593 0.82427
 C2706 C 1.26347 1.08820 0.80044
 C2707 C 1.23564 1.07761 0.80412
 C2708 C 1.22513 1.08961 0.82997
 O2709 O 1.24474 1.10683 0.84201
 H2710 H 1.27836 1.08367 0.78231
 H2711 H 1.22459 1.06297 0.78951
 C2712 C 1.26786 0.60732 0.32270
 C2713 C 1.26319 0.58979 0.29873
 C2714 C 1.23542 0.57908 0.30254
 C2715 C 1.22510 0.59082 0.32859
 O2716 O 1.24475 0.60799 0.34064
 H2717 H 1.27796 0.58545 0.28044
 H2718 H 1.22429 0.56453 0.28788
 C2719 C 0.76814 1.10738 0.32259
 C2720 C 0.76329 1.09001 0.29855
 C2721 C 0.73540 1.07956 0.30231
 C2722 C 0.72518 1.09128 0.32843
 O2723 O 0.74502 1.10821 0.34054
 H2724 H 0.77803 1.08557 0.28027
 H2725 H 0.72412 1.06517 0.28759
 C2726 C 0.76810 0.60656 0.82329
 C2727 C 0.76335 0.58909 0.79930
 C2728 C 0.73549 0.57857 0.80303
 C2729 C 0.72518 0.59036 0.82906
 O2730 O 0.74493 0.60739 0.84117
 H2731 H 0.77816 0.58463 0.78106
 H2732 H 0.72430 0.56410 0.78833
 C2733 C 1.29922 0.86331 1.07245
 C2734 C 1.30376 0.85057 1.04528
 C2735 C 1.28336 0.86227 1.02675
 C2736 C 1.26795 0.88139 1.04385
 O2737 O 1.27764 0.88212 1.07143
 H2738 H 1.31966 0.83447 1.03945
 H2739 H 1.28002 0.85723 1.00364
 C2740 C 1.29936 0.36268 0.57226
 C2741 C 1.30367 0.34945 0.54530
 C2742 C 1.28337 0.36107 0.52662
 C2743 C 1.26822 0.38062 0.54342
 O2744 O 1.27799 0.38169 0.57096
 H2745 H 1.31940 0.33313 0.53970
 H2746 H 1.27995 0.35572 0.50359
 C2747 C 0.80044 0.86534 0.57095
 C2748 C 0.80523 0.85281 0.54369
 C2749 C 0.78473 0.86436 0.52517
 C2750 C 0.76903 0.88318 0.54235
 O2751 O 0.77861 0.88388 0.56998
 H2752 H 0.82130 0.83691 0.53778
 H2753 H 0.78150 0.85941 0.50202
 C2754 C 0.79947 0.36345 1.07269
 C2755 C 0.80409 0.35073 1.04552
 C2756 C 0.78377 0.36246 1.02694
 C2757 C 0.76831 0.38157 1.04400
 O2758 O 0.77790 0.38227 1.07162
 H2759 H 0.82001 0.33464 1.03972
 H2760 H 0.78051 0.35745 1.00380
 C2761 C 0.73322 1.10662 1.17544
 C2762 C 0.73775 1.08896 1.19933
 C2763 C 0.76559 1.07835 1.19567
 C2764 C 0.77608 1.09028 1.16977
 O2765 O 0.75646 1.10747 1.15769
 H2766 H 0.72286 1.08448 1.21748
 H2767 H 0.77664 1.06374 1.21033
 C2768 C 0.73376 0.60724 0.67654
 C2769 C 0.73850 0.58983 0.70060
 C2770 C 0.76637 0.57929 0.69692
 C2771 C 0.77668 0.59099 0.67084
 O2772 O 0.75693 0.60799 0.65866
 H2773 H 0.72369 0.58544 0.71884
 H2774 H 0.77756 0.56486 0.71168
 C2775 C 0.23336 1.10661 0.67659
 C2776 C 0.23817 1.08908 0.70053
 C2777 C 0.26603 1.07857 0.69671
 C2778 C 0.27628 1.09041 0.67067
 O2779 O 0.25648 1.10746 0.65865
 H2780 H 0.22340 1.08458 0.71878
 H2781 H 0.27727 1.06406 0.71135
 C2782 C 0.23302 0.60647 1.17620
 C2783 C 0.23768 0.58887 1.20011
 C2784 C 0.26546 0.57817 1.19629
 C2785 C 0.27580 0.58999 1.17027
 O2786 O 0.25614 0.60719 1.15827
 H2787 H 0.22291 0.58447 1.21838
 H2788 H 0.27659 0.56358 1.21092
 C2789 C 0.70142 0.86501 0.92731
 C2790 C 0.69650 0.85257 0.95460
 C2791 C 0.71687 0.86420 0.97318
 C2792 C 0.73264 0.88298 0.95601
 O2793 O 0.72322 0.88357 0.92833
 H2794 H 0.68041 0.83668 0.96047
 H2795 H 0.71998 0.85932 0.99637
 C2796 C 0.70142 0.36516 0.42827
 C2797 C 0.69691 0.35219 0.45535
 C2798 C 0.71756 0.36347 0.47387
 C2799 C 0.73306 0.38259 0.45688
 O2800 O 0.72322 0.38371 0.42936
 H2801 H 0.68088 0.33620 0.46113
 H2802 H 0.72097 0.35817 0.49692
 C2803 C 0.20195 0.86347 0.42747
 C2804 C 0.19769 0.85036 0.45450
 C2805 C 0.21810 0.86198 0.47305
 C2806 C 0.23325 0.88142 0.45611
 O2807 O 0.22338 0.88242 0.42860
 H2808 H 0.18195 0.83409 0.46022
 H2809 H 0.22161 0.85669 0.49608
 C2810 C 0.20196 0.36274 0.92721
 C2811 C 0.19747 0.34983 0.95431
 C2812 C 0.21781 0.36150 0.97292
 C2813 C 0.23314 0.38077 0.95593
 O2814 O 0.22346 0.38162 0.92835
 H2815 H 0.18165 0.33364 0.96004
 H2816 H 0.22116 0.35634 0.99601
   
