data_POSCAR
  _audit_creation_date              2014-09-24
  _audit_creation_method            'ToBaCCo'
  _symmetry_space_group_name_H-M    'P1'
  _symmetry_Int_Tables_number       1
  _symmetry_cell_setting            triclinic
  loop_
  _symmetry_equiv_pos_as_xyz
 x,y,z
_cell_length_a 62.8276
_cell_length_b 63.1009
_cell_length_c 61.9507
_cell_angle_alpha 89.905900
_cell_angle_beta 89.623000
_cell_angle_gamma 90.344400
loop_
  _atom_site_label
  _atom_site_type_symbol
  _atom_site_fract_x
  _atom_site_fract_y
  _atom_site_fract_z
C1 C 0.33666 1.33432 0.31432
 N2 N 0.34323 1.31544 0.32227
 C3 C 0.33296 1.30586 0.33886
 N4 N 0.31548 1.31511 0.34741
 C5 C 0.30851 1.33411 0.33995
 N6 N 0.31940 1.34387 0.32351
 C7 C 0.36724 0.86556 0.84237
 N8 N 0.37693 0.84827 0.85073
 C9 C 0.36730 0.83646 0.86629
 N10 N 0.34772 0.84211 0.87355
 C11 C 0.33786 0.85963 0.86573
 N12 N 0.34773 0.87125 0.84999
 C13 C 0.85137 1.35248 0.83056
 N14 N 0.83428 1.36052 0.84131
 C15 C 0.82416 1.34913 0.85692
 N16 N 0.83141 1.32957 0.86199
 C17 C 0.84866 1.32138 0.85181
 N18 N 0.85856 1.33283 0.83600
 C19 C 0.84442 0.84317 0.31882
 N20 N 0.82612 0.85207 0.32657
 C21 C 0.81467 0.84213 0.34244
 N22 N 0.82183 0.82364 0.35079
 C23 C 0.84019 0.81493 0.34369
 N24 N 0.85128 0.82467 0.32764
 C25 C 0.63706 0.64072 0.34136
 N26 N 0.65276 0.62980 0.35152
 C27 C 0.66037 0.63655 0.37089
 N28 N 0.65206 0.65418 0.38015
 C29 C 0.63655 0.66528 0.37016
 N30 N 0.62931 0.65855 0.35077
 C31 C 0.64852 0.15091 0.82923
 N32 N 0.64039 0.16834 0.83918
 C33 C 0.64721 0.17435 0.85898
 N34 N 0.66263 0.16299 0.86875
 C35 C 0.67159 0.14594 0.85897
 N36 N 0.66432 0.13986 0.83918
 C37 C 1.15141 0.64520 0.82556
 N38 N 1.16797 0.63542 0.83525
 C39 C 1.17532 0.64216 0.85456
 N40 N 1.16600 0.65902 0.86427
 C41 C 1.14930 0.66902 0.85488
 N42 N 1.14201 0.66202 0.83545
 C43 C 1.14799 0.14990 0.32744
 N44 N 1.16741 0.14306 0.33446
 C45 C 1.17723 0.15295 0.35136
 N46 N 1.16740 0.16957 0.36102
 C47 C 1.14814 0.17633 0.35445
 N48 N 1.13856 0.16649 0.33770
 C49 C 0.65641 1.34489 0.68753
 N50 N 0.67573 1.35122 0.68016
 C51 C 0.68353 1.34435 0.66099
 N52 N 0.67182 1.33032 0.64927
 C53 C 0.65250 1.32343 0.65670
 N54 N 0.64474 1.33106 0.67569
 C55 C 0.64098 0.85639 1.16762
 N56 N 0.65985 0.86515 1.16139
 C57 C 0.67041 0.85799 1.14372
 N58 N 0.66224 0.84143 1.13244
 C59 C 0.64352 0.83227 1.13858
 N60 N 0.63288 0.83998 1.15603
 C61 C 1.16136 1.33488 1.18780
 N62 N 1.18034 1.34275 1.18082
 C63 C 1.18922 1.33650 1.16197
 N64 N 1.17930 1.32127 1.15034
 C65 C 1.16066 1.31247 1.15725
 N66 N 1.15134 1.31971 1.17580
 C67 C 1.14007 0.86039 0.65764
 N68 N 1.15661 0.87012 0.64733
 C69 C 1.16559 0.86151 0.62942
 N70 N 1.15791 0.84280 0.62199
 C71 C 1.14165 0.83259 0.63222
 N72 N 1.13267 0.84146 0.65010
 C73 C 0.34698 0.65163 0.67842
 N74 N 0.35787 0.66680 0.66734
 C75 C 0.34998 0.67487 0.64866
 N76 N 0.33119 0.66725 0.64084
 C77 C 0.32020 0.65189 0.65177
 N78 N 0.32819 0.64447 0.67061
 C79 C 0.36083 0.13769 1.16264
 N80 N 0.36705 0.15682 1.15442
 C81 C 0.35630 0.16559 1.13756
 N82 N 0.33918 0.15522 1.12919
 C83 C 0.33264 0.13634 1.13752
 N84 N 0.34364 0.12783 1.15406
 C85 C 0.85196 0.64900 1.17006
 N86 N 0.85921 0.66860 1.16420
 C87 C 0.84867 0.68000 1.14902
 N88 N 0.83088 0.67177 1.13996
 C89 C 0.82363 0.65227 1.14553
 N90 N 0.83426 0.64092 1.16057
 C91 C 0.86046 0.13849 0.66317
 N92 N 0.86700 0.15758 0.65518
 C93 C 0.85598 0.16709 0.63892
 N94 N 0.83810 0.15752 0.63104
 C95 C 0.83119 0.13871 0.63935
 N96 N 0.84262 0.12947 0.65515
 C97 C 1.35176 0.35771 0.67357
 N98 N 1.33562 0.36617 0.66207
 C99 C 1.32883 0.35714 0.64347
 N100 N 1.33825 0.33900 0.63631
 C101 C 1.35445 0.33009 0.64776
 N102 N 1.36106 0.33970 0.66626
 C103 C 1.35641 0.85488 1.16869
 N104 N 1.36294 0.83637 1.15980
 C105 C 1.35432 0.82903 1.14119
 N106 N 1.33855 0.84033 1.13171
 C107 C 1.33156 0.85874 1.14060
 N108 N 1.34070 0.86604 1.15899
 C109 C 0.86105 0.35586 1.16353
 N110 N 0.84133 0.36157 1.15670
 C111 C 0.83168 0.35096 1.14027
 N112 N 0.84174 0.33420 1.13098
 C113 C 0.86148 0.32845 1.13755
 N114 N 0.87099 0.33945 1.15362
 C115 C 0.85076 0.85340 0.66922
 N116 N 0.85853 0.83517 0.66058
 C117 C 0.84943 0.82671 0.64258
 N118 N 0.83266 0.83672 0.63329
 C119 C 0.82525 0.85519 0.64155
 N120 N 0.83429 0.86327 0.65951
 C121 C 0.63572 0.64120 0.66244
 N122 N 0.65306 0.63116 0.65436
 C123 C 0.66320 0.63860 0.63644
 N124 N 0.65591 0.65641 0.62660
 C125 C 0.63850 0.66659 0.63453
 N126 N 0.62854 0.65889 0.65245
 C127 C 0.63882 1.14109 1.16199
 N128 N 0.62878 1.15774 1.15294
 C129 C 0.63649 1.16785 1.13529
 N130 N 0.65473 1.16064 1.12600
 C131 C 0.66536 1.14395 1.13483
 N132 N 0.65749 1.13440 1.15308
 C133 C 0.14007 0.64768 1.16447
 N134 N 0.15945 0.63975 1.15915
 C135 C 0.17056 0.64733 1.14195
 N136 N 0.16238 0.66350 1.13017
 C137 C 0.14307 0.67187 1.13533
 N138 N 0.13194 0.66362 1.15233
 C139 C 0.14781 1.15390 0.66823
 N140 N 0.13957 1.17138 0.65852
 C141 C 0.15098 1.18211 0.64323
 N142 N 0.17062 1.17505 0.63774
 C143 C 0.17888 1.15751 0.64693
 N144 N 0.16744 1.14694 0.66220
 C145 C 1.36367 0.63802 0.34155
 N146 N 1.37318 0.65484 0.35125
 C147 C 1.36286 0.66627 0.36654
 N148 N 1.34278 0.66055 0.37247
 C149 C 1.33315 0.64344 0.36337
 N150 N 1.34358 0.63239 0.34776
 C151 C 1.36850 1.13673 0.84164
 N152 N 1.37810 1.15331 0.85162
 C153 C 1.36775 1.16502 0.86667
 N154 N 1.34749 1.15949 0.87230
 C155 C 1.33782 1.14238 0.86316
 N156 N 1.34830 1.13129 0.84757
 C157 C 0.86619 0.63759 0.83924
 N158 N 0.87583 0.65317 0.85067
 C159 C 0.86597 0.66216 0.86789
 N160 N 0.84621 0.65525 0.87386
 C161 C 0.83645 0.63944 0.86264
 N162 N 0.84645 0.63089 0.84523
 C163 C 0.85911 1.13848 0.33265
 N164 N 0.86816 1.15697 0.33929
 C165 C 0.85943 1.16853 0.35552
 N166 N 0.84120 1.16144 0.36503
 C167 C 0.83202 1.14289 0.35890
 N168 N 0.84111 1.13141 0.34277
 C169 C 0.63502 0.36283 0.34121
 N170 N 0.65284 0.37288 0.34817
 C171 C 0.66252 0.36667 0.36667
 N172 N 0.65436 0.35003 0.37808
 C173 C 0.63680 0.33948 0.37099
 N174 N 0.62725 0.34611 0.35259
 C175 C 0.63741 0.86642 0.83850
 N176 N 0.65525 0.87407 0.84811
 C177 C 0.66326 0.86442 0.86589
 N178 N 0.65333 0.84694 0.87398
 C179 C 0.63552 0.83908 0.86452
 N180 N 0.62766 0.84888 0.84675
 C181 C 0.14724 0.35563 0.82941
 N182 N 0.16227 0.36747 0.83975
 C183 C 0.16980 0.36127 0.85932
 N184 N 0.16208 0.34328 0.86857
 C185 C 0.14736 0.33110 0.85844
 N186 N 0.14019 0.33733 0.83880
 C187 C 0.14584 0.85825 0.33153
 N188 N 0.16368 0.86577 0.34126
 C189 C 0.16987 0.85836 0.36077
 N190 N 0.15823 0.84287 0.37052
 C191 C 0.14060 0.83475 0.36094
 N192 N 0.13436 0.84259 0.34148
 O193 O 0.98017 0.92106 0.89161
 O194 O 0.97937 0.89614 0.86671
 C195 C 0.97281 0.91371 0.87409
 C196 C 0.95627 0.92550 0.86226
 C197 C 0.94952 0.91839 0.84198
 H198 H 0.95663 0.90436 0.83502
 O199 O 1.02498 1.07497 0.88940
 O200 O 1.02549 1.09949 0.86399
 C201 C 1.03248 1.08225 0.87177
 C202 C 1.04976 1.07073 0.86050
 C203 C 1.05866 1.07868 0.84119
 H204 H 1.05272 1.09330 0.83442
 O205 O 0.89633 0.97940 0.91856
 O206 O 0.87199 0.97901 0.89308
 C207 C 0.87912 0.97207 0.91089
 C208 C 0.86758 0.95492 0.92250
 C209 C 0.84796 0.94748 0.91488
 H210 H 0.84074 0.95525 0.90119
 O211 O 1.10757 1.01738 0.91788
 O212 O 1.13246 1.01694 0.89263
 C213 C 1.12495 1.02454 0.91007
 C214 C 1.13629 1.04212 0.92117
 C215 C 1.15635 1.04905 0.91376
 H216 H 1.16353 1.04139 0.89990
 O217 O 0.92298 0.89560 0.97796
 O218 O 0.89782 0.87108 0.97889
 C219 C 0.91531 0.87814 0.97132
 C220 C 0.92643 0.86617 0.95417
 C221 C 0.91862 0.84638 0.94762
 H222 H 0.90515 0.83937 0.95605
 O223 O 1.08065 1.10478 0.97392
 O224 O 1.10614 1.12896 0.97368
 C225 C 1.08869 1.12180 0.96639
 C226 C 1.07773 1.13291 0.94863
 C227 C 1.08582 1.15198 0.93994
 H228 H 1.10021 1.15884 0.94652
 O229 O 0.92591 1.02036 0.88847
 O230 O 0.90163 1.02031 0.86293
 C231 C 0.91880 1.02759 0.87079
 C232 C 0.93050 1.04501 0.85972
 C233 C 0.92322 1.05362 0.84012
 H234 H 0.90895 1.04729 0.83276
 O235 O 1.07833 0.97539 0.88900
 O236 O 1.10314 0.97482 0.86368
 C237 C 1.08581 0.96769 0.87160
 C238 C 1.07445 0.94985 0.86096
 C239 C 1.08198 0.94118 0.84142
 H240 H 1.09604 0.94785 0.83375
 O241 O 1.02092 0.89100 0.92079
 O242 O 1.01996 0.86606 0.89591
 C243 C 1.02773 0.87362 0.91315
 C244 C 1.04550 0.86260 0.92389
 C245 C 1.05359 0.84368 0.91536
 H246 H 1.04570 0.83634 0.90177
 O247 O 0.98313 1.10390 0.91868
 O248 O 0.98353 1.12840 0.89325
 C249 C 0.97595 1.12100 0.91081
 C250 C 0.95826 1.13214 0.92183
 C251 C 0.95098 1.15159 0.91379
 H252 H 0.95862 1.15854 0.89972
 O253 O 0.89494 1.07595 0.97452
 O254 O 0.87106 1.10139 0.97400
 C255 C 0.87812 1.08393 0.96674
 C256 C 0.86724 1.07293 0.94865
 C257 C 0.84800 1.08050 0.94006
 H258 H 0.84079 1.09452 0.94693
 O259 O 1.10664 0.92085 0.97566
 O260 O 1.13118 0.89603 0.97642
 C261 C 1.12409 0.91330 0.96877
 C262 C 1.13575 0.92462 0.95129
 C263 C 1.15640 0.91862 0.94491
 H264 H 1.16438 0.90614 0.95367
 O265 O 0.98352 1.07481 0.88929
 O266 O 0.98414 1.09932 0.86386
 C267 C 0.97664 1.08217 0.87158
 C268 C 0.95918 1.07127 0.86016
 C269 C 0.95209 1.07922 0.84040
 H270 H 0.96065 1.09224 0.83285
 O271 O 1.02158 0.91998 0.89127
 O272 O 1.02073 0.89507 0.86634
 C273 C 1.02856 0.91220 0.87372
 C274 C 1.04636 0.92284 0.86211
 C275 C 1.05395 0.91460 0.84254
 H276 H 1.04593 0.90112 0.83538
 O277 O 1.10723 0.97593 0.91865
 O278 O 1.13216 0.97554 0.89343
 C279 C 1.12455 0.96860 0.91114
 C280 C 1.13572 0.95161 0.92297
 C281 C 1.15608 0.94512 0.91650
 H282 H 1.16348 0.95261 0.90260
 O283 O 0.89640 1.02065 0.91789
 O284 O 0.87200 1.02032 0.89246
 C285 C 0.87920 1.02772 0.91005
 C286 C 0.86784 1.04517 0.92114
 C287 C 0.84841 1.05258 0.91318
 H288 H 0.84109 1.04442 0.89976
 O289 O 0.92482 1.10457 0.97457
 O290 O 0.90105 1.13012 0.97421
 C291 C 0.91815 1.12204 0.96700
 C292 C 0.93006 1.13272 0.94924
 C293 C 0.92311 1.15227 0.94099
 H294 H 0.90959 1.16006 0.94835
 O295 O 1.07762 0.89140 0.97549
 O296 O 1.10199 0.86641 0.97614
 C297 C 1.08499 0.87398 0.96841
 C298 C 1.07385 0.86283 0.95065
 C299 C 1.08197 0.84399 0.94169
 H300 H 1.09644 0.83724 0.94809
 O301 O 1.07834 1.01690 0.88865
 O302 O 1.10314 1.01641 0.86331
 C303 C 1.08601 1.02397 0.87103
 C304 C 1.07550 1.04185 0.85994
 C305 C 1.08386 1.04976 0.84046
 H306 H 1.09697 1.04161 0.83274
 O307 O 0.92579 0.97893 0.88914
 O308 O 0.90162 0.97875 0.86349
 C309 C 0.91864 0.97149 0.87155
 C310 C 0.92992 0.95379 0.86079
 C311 C 0.92345 0.94647 0.84041
 H312 H 0.91078 0.95451 0.83198
 O313 O 1.02474 1.10454 0.91849
 O314 O 1.02498 1.12904 0.89306
 C315 C 1.03207 1.12175 0.91068
 C316 C 1.04963 1.13294 0.92169
 C317 C 1.05751 1.15221 0.91355
 H318 H 1.04947 1.15968 0.90017
 O319 O 0.97933 0.89194 0.92128
 O320 O 0.97834 0.86691 0.89650
 C321 C 0.97144 0.87480 0.91404
 C322 C 0.95371 0.86440 0.92597
 C323 C 0.94552 0.84461 0.91946
 H324 H 0.95249 0.83652 0.90574
 O325 O 1.10845 1.07467 0.97392
 O326 O 1.13409 1.09869 0.97370
 C327 C 1.12604 1.08159 0.96643
 C328 C 1.13693 1.06988 0.94876
 C329 C 1.15714 1.07633 0.94127
 H330 H 1.16525 1.08931 0.94923
 O331 O 0.89423 0.92476 0.97664
 O332 O 0.86901 0.90030 0.97721
 C333 C 0.87698 0.91718 0.96925
 C334 C 0.86649 0.92792 0.95087
 C335 C 0.84699 0.92042 0.94271
 H336 H 0.83940 0.90673 0.95008
 Cu337 Cu 1.00052 0.90843 0.90880
 Cu338 Cu 0.99945 0.87853 0.87888
 Cu339 Cu 1.00412 1.08711 0.90656
 Cu340 Cu 1.00456 1.11654 0.87600
 Cu341 Cu 0.91359 0.99988 0.90601
 Cu342 Cu 0.88437 0.99955 0.87542
 Cu343 Cu 1.09036 0.99640 0.90604
 Cu344 Cu 1.12018 0.99588 0.87570
 C345 C 0.94653 0.94333 0.87146
 H346 H 0.95145 0.94867 0.88728
 C347 C 0.93320 0.92875 0.83087
 C348 C 1.05826 1.05226 0.86967
 H349 H 1.05188 1.04635 0.88483
 C350 C 1.07583 1.06835 0.83111
 C351 C 0.87659 0.94522 0.94066
 H352 H 0.89182 0.95081 0.94653
 C353 C 0.83760 0.93011 0.92466
 C354 C 1.12677 1.05260 0.93874
 H355 H 1.11115 1.04759 0.94431
 C356 C 1.16704 1.06605 0.92375
 C357 C 0.94412 0.87494 0.94344
 H358 H 0.95002 0.89037 0.94830
 C359 C 0.92787 0.83554 0.93019
 C360 C 1.05960 1.12363 0.93943
 H361 H 1.05361 1.10867 0.94564
 C362 C 1.07579 1.16177 0.92230
 C363 C 0.94853 1.05398 0.86957
 H364 H 0.95392 1.04792 0.88494
 C365 C 0.93392 1.07090 0.83042
 C366 C 1.05656 0.94059 0.87107
 H367 H 1.05089 0.94687 0.88631
 C368 C 1.07185 0.92346 0.83213
 C369 C 1.05555 0.87186 0.94168
 H370 H 1.04948 0.88658 0.94816
 C371 C 1.07199 0.83434 0.92389
 C372 C 0.94780 1.12290 0.93967
 H373 H 0.95310 1.10772 0.94572
 C374 C 0.93345 1.16179 0.92322
 C375 C 0.87694 1.05523 0.93905
 H376 H 0.89200 1.04961 0.94515
 C377 C 0.83840 1.07040 0.92225
 C378 C 1.12576 0.94135 0.94041
 H379 H 1.10985 0.94605 0.94517
 C380 C 1.16682 0.92888 0.92752
 O381 O 1.02123 0.92586 1.10671
 O382 O 1.02035 0.90114 1.13190
 C383 C 1.02820 0.91817 1.12424
 C384 C 1.04594 0.92886 1.13554
 C385 C 1.05299 0.92142 1.15558
 H386 H 1.04520 0.90774 1.16273
 O387 O 0.98333 1.07532 1.10447
 O388 O 0.98355 1.10043 1.12917
 C389 C 0.97619 1.08303 1.12197
 C390 C 0.95843 1.07230 1.13354
 C391 C 0.95160 1.07977 1.15371
 H392 H 0.96077 1.09206 1.16158
 O393 O 0.89399 1.02369 1.07527
 O394 O 0.86925 1.02406 1.10067
 C395 C 0.87678 1.03111 1.08297
 C396 C 0.86572 1.04847 1.07151
 C397 C 0.84661 1.05673 1.07968
 H398 H 0.83932 1.04940 1.09373
 O399 O 1.10709 0.97708 1.07546
 O400 O 1.13241 0.97705 1.09992
 C401 C 1.12428 0.96952 1.08282
 C402 C 1.13465 0.95155 1.07156
 C403 C 1.15384 0.94303 1.07928
 H404 H 1.16117 0.94972 1.09352
 O405 O 1.07550 0.89336 1.01757
 O406 O 1.09953 0.86804 1.01839
 C407 C 1.08229 0.87611 1.02540
 C408 C 1.07036 0.86574 1.04329
 C409 C 1.07584 0.84530 1.05016
 H410 H 1.08784 0.83664 1.04126
 O411 O 0.92548 1.10333 1.01675
 O412 O 0.90171 1.12889 1.01649
 C413 C 0.91860 1.12075 1.02412
 C414 C 0.92975 1.13140 1.04223
 C415 C 0.92161 1.15035 1.05051
 H416 H 0.90805 1.15764 1.04282
 O417 O 0.92254 0.98177 1.10452
 O418 O 0.89775 0.98216 1.12987
 C419 C 0.91490 0.97463 1.12215
 C420 C 0.92585 0.95723 1.13366
 C421 C 0.91758 0.94941 1.15324
 H422 H 0.90305 0.95614 1.15962
 O423 O 1.07990 1.02039 1.10412
 O424 O 1.10528 1.02054 1.12853
 C425 C 1.08805 1.02804 1.12115
 C426 C 1.07775 1.04625 1.13210
 C427 C 1.08643 1.05462 1.15108
 H428 H 1.09982 1.04671 1.15840
 O429 O 0.97905 0.89803 1.07688
 O430 O 0.97840 0.87327 1.10205
 C431 C 0.97142 0.88088 1.08449
 C432 C 0.95395 0.86980 1.07315
 C433 C 0.94682 0.84999 1.08057
 H434 H 0.95443 0.84272 1.09435
 O435 O 1.02423 1.10447 1.07340
 O436 O 1.02402 1.12981 1.09786
 C437 C 1.03132 1.12201 1.08043
 C438 C 1.04871 1.13315 1.06868
 C439 C 1.05620 1.15281 1.07605
 H440 H 1.04883 1.15993 1.09010
 O441 O 0.89370 0.92627 1.01883
 O442 O 0.86847 0.90183 1.01940
 C443 C 0.87615 0.91919 1.02625
 C444 C 0.86476 0.93098 1.04336
 C445 C 0.84439 0.92450 1.05008
 H446 H 0.83693 0.91098 1.04240
 O447 O 1.10801 1.07461 1.01606
 O448 O 1.13359 1.09868 1.01588
 C449 C 1.12556 1.08159 1.02326
 C450 C 1.13679 1.06982 1.04040
 C451 C 1.15727 1.07615 1.04654
 H452 H 1.16438 1.08993 1.03891
 O453 O 1.02512 1.07683 1.10436
 O454 O 1.02534 1.10210 1.12887
 C455 C 1.03282 1.08489 1.12146
 C456 C 1.05100 1.07429 1.13232
 C457 C 1.06030 1.08278 1.15113
 H458 H 1.05399 1.09722 1.15801
 O459 O 0.97948 0.92676 1.10670
 O460 O 0.97866 0.90206 1.13191
 C461 C 0.97173 0.91936 1.12418
 C462 C 0.95389 0.93056 1.13504
 C463 C 0.94570 0.92336 1.15498
 H464 H 0.95358 0.91048 1.16319
 O465 O 1.10836 1.01838 1.07375
 O466 O 1.13394 1.01846 1.09796
 C467 C 1.12616 1.02531 1.08039
 C468 C 1.13748 1.04200 1.06786
 C469 C 1.15836 1.04808 1.07320
 H470 H 1.16668 1.03938 1.08558
 O471 O 0.89338 0.98246 1.07520
 O472 O 0.86842 0.98274 1.10040
 C473 C 0.87587 0.97550 1.08277
 C474 C 0.86448 0.95844 1.07110
 C475 C 0.84399 0.95182 1.07755
 H476 H 0.83597 0.95989 1.09067
 O477 O 1.08011 1.10473 1.01598
 O478 O 1.10551 1.12899 1.01593
 C479 C 1.08792 1.12188 1.02329
 C480 C 1.07658 1.13319 1.04092
 C481 C 1.08382 1.15298 1.04852
 H482 H 1.09737 1.16058 1.04078
 O483 O 0.92252 0.89706 1.01997
 O484 O 0.89740 0.87249 1.02087
 C485 C 0.91481 0.88008 1.02792
 C486 C 0.92611 0.86935 1.04576
 C487 C 0.91913 0.84951 1.05354
 H488 H 0.90571 0.84164 1.04607
 O489 O 1.07883 0.97913 1.10603
 O490 O 1.10398 0.97909 1.13068
 C491 C 1.08627 0.97220 1.12369
 C492 C 1.07435 0.95543 1.13556
 C493 C 1.08097 0.94809 1.15591
 H494 H 1.09434 0.95569 1.16371
 O495 O 0.92349 1.02310 1.10445
 O496 O 0.89889 1.02361 1.12997
 C497 C 0.91640 1.03043 1.12214
 C498 C 0.92863 1.04723 1.13340
 C499 C 0.92155 1.05549 1.15326
 H500 H 0.90689 1.04956 1.16033
 O501 O 0.98251 1.10403 1.07446
 O502 O 0.98231 1.12921 1.09909
 C503 C 0.97490 1.12122 1.08183
 C504 C 0.95692 1.13170 1.07053
 C505 C 0.94821 1.15065 1.07864
 H506 H 0.95483 1.15786 1.09298
 O507 O 1.02055 0.89705 1.07683
 O508 O 1.01978 0.87226 1.10196
 C509 C 1.02722 0.87954 1.08429
 C510 C 1.04389 0.86763 1.07238
 C511 C 1.05006 0.84738 1.07936
 H512 H 1.04271 0.84065 1.09367
 O513 O 1.10587 0.92120 1.01773
 O514 O 1.13007 0.89604 1.01853
 C515 C 1.12282 0.91350 1.02553
 C516 C 1.13394 0.92452 1.04334
 C517 C 1.15326 0.91658 1.05101
 H518 H 1.16056 0.90325 1.04290
 O519 O 0.89361 1.07723 1.01692
 O520 O 0.86971 1.10265 1.01652
 C521 C 0.87662 1.08543 1.02435
 C522 C 0.86545 1.07513 1.04284
 C523 C 0.84645 1.08349 1.05151
 H524 H 0.83948 1.09740 1.04423
 Cu525 Cu 1.00020 0.91447 1.08933
 Cu526 Cu 0.99924 0.88474 1.11950
 Cu527 Cu 1.00382 1.08762 1.08677
 Cu528 Cu 1.00377 1.11790 1.11619
 Cu529 Cu 0.91085 0.91341 0.99829
 Cu530 Cu 0.88062 0.88399 0.99921
 Cu531 Cu 1.08898 0.90917 0.99643
 Cu532 Cu 1.11810 0.87910 0.99749
 Cu533 Cu 0.91196 1.08766 0.99564
 Cu534 Cu 0.88355 1.11833 0.99526
 Cu535 Cu 1.09172 1.08734 0.99498
 Cu536 Cu 1.12243 1.11623 0.99484
 Cu537 Cu 0.91082 1.00276 1.08733
 Cu538 Cu 0.88111 1.00319 1.11780
 Cu539 Cu 1.09101 0.99869 1.08743
 Cu540 Cu 1.12145 0.99883 1.11672
 C541 C 1.05661 0.94593 1.12577
 H542 H 1.05147 0.95139 1.11008
 C543 C 1.07031 0.93102 1.16615
 C544 C 0.94709 1.05577 1.12371
 H545 H 0.95226 1.05001 1.10808
 C546 C 0.93294 1.07185 1.16359
 C547 C 0.87481 1.05759 1.05295
 H548 H 0.88966 1.05136 1.04671
 C549 C 0.83690 1.07441 1.07005
 C550 C 1.12486 0.94217 1.05355
 H551 H 1.10986 0.94828 1.04778
 C552 C 1.16321 0.92543 1.06915
 C553 C 1.05413 0.87665 1.05429
 H554 H 1.04984 0.89245 1.04910
 C555 C 1.06593 0.83596 1.06830
 C556 C 0.94754 1.12221 1.05224
 H557 H 0.95377 1.10741 1.04612
 C558 C 0.93040 1.15992 1.06884
 C559 C 0.94404 0.94774 1.12473
 H560 H 0.95016 0.95334 1.10935
 C561 C 0.92739 0.93260 1.16424
 C562 C 1.05991 1.05603 1.12301
 H563 H 1.05323 1.04966 1.10830
 C564 C 1.07817 1.07307 1.16065
 C565 C 0.94366 0.87928 1.05559
 H566 H 0.94898 0.89469 1.04994
 C567 C 0.92952 0.83970 1.07090
 C568 C 1.05884 1.12359 1.05099
 H569 H 1.05333 1.10823 1.04549
 C570 C 1.07367 1.16295 1.06611
 C571 C 0.87459 0.94809 1.05381
 H572 H 0.89047 0.95291 1.04890
 C573 C 0.83377 0.93487 1.06703
 C574 C 1.12699 1.05270 1.05111
 H575 H 1.11092 1.04812 1.04683
 C576 C 1.16843 1.06526 1.06266
 O577 O 0.97337 0.42351 0.39084
 O578 O 0.97270 0.39882 0.36570
 C579 C 0.96563 0.41601 0.37355
 C580 C 0.94794 0.42731 0.36291
 C581 C 0.93949 0.42024 0.34317
 H582 H 0.94611 0.40633 0.33552
 O583 O 1.01738 0.57667 0.38946
 O584 O 1.01669 0.60126 0.36414
 C585 C 1.02422 0.58416 0.37165
 C586 C 1.04150 0.57309 0.35997
 C587 C 1.05024 0.58152 0.34079
 H588 H 1.04406 0.59616 0.33429
 O589 O 0.89179 0.47914 0.42522
 O590 O 0.86576 0.47861 0.40152
 C591 C 0.87423 0.47155 0.41868
 C592 C 0.86386 0.45403 0.43088
 C593 C 0.84309 0.44748 0.42582
 H594 H 0.83430 0.45602 0.41365
 O595 O 1.10154 0.52076 0.41646
 O596 O 1.12596 0.52079 0.39073
 C597 C 1.11871 0.52812 0.40841
 C598 C 1.13020 0.54557 0.41953
 C599 C 1.15030 0.55233 0.41214
 H600 H 1.15740 0.54467 0.39824
 O601 O 0.92351 0.39219 0.48141
 O602 O 0.89865 0.36738 0.48246
 C603 C 0.91569 0.37492 0.47440
 C604 C 0.92584 0.36408 0.45594
 C605 C 0.91770 0.34473 0.44843
 H606 H 0.90521 0.33683 0.45755
 O607 O 1.07536 0.60729 0.47375
 O608 O 1.10009 0.63222 0.47274
 C609 C 1.08267 0.62455 0.46595
 C610 C 1.07096 0.63537 0.44845
 C611 C 1.07798 0.65500 0.44008
 H612 H 1.09196 0.66258 0.44676
 O613 O 0.91874 0.52089 0.39379
 O614 O 0.89285 0.52078 0.36992
 C615 C 0.91045 0.52818 0.37669
 C616 C 0.92127 0.54583 0.36508
 C617 C 0.91245 0.55482 0.34633
 H618 H 0.89776 0.54852 0.33982
 O619 O 1.07221 0.47875 0.38780
 O620 O 1.09648 0.47875 0.36193
 C621 C 1.07936 0.47139 0.37011
 C622 C 1.06794 0.45366 0.35941
 C623 C 1.07596 0.44447 0.34034
 H624 H 1.09009 0.45108 0.33274
 O625 O 1.01567 0.39565 0.41974
 O626 O 1.01513 0.37074 0.39481
 C627 C 1.02284 0.37847 0.41205
 C628 C 1.04083 0.36775 0.42277
 C629 C 1.04855 0.34860 0.41449
 H630 H 1.04028 0.34105 0.40126
 O631 O 0.97675 0.60514 0.42069
 O632 O 0.97592 0.62972 0.39535
 C633 C 0.96923 0.62227 0.41323
 C634 C 0.95217 0.63340 0.42515
 C635 C 0.94456 0.65286 0.41758
 H636 H 0.95152 0.65985 0.40317
 O637 O 0.89166 0.57742 0.48029
 O638 O 0.86704 0.60218 0.48068
 C639 C 0.87424 0.58485 0.47331
 C640 C 0.86266 0.57330 0.45613
 C641 C 0.84291 0.58050 0.44843
 H642 H 0.83576 0.59453 0.45536
 O643 O 1.10392 0.42484 0.47425
 O644 O 1.12808 0.39965 0.47341
 C645 C 1.12084 0.41708 0.46633
 C646 C 1.13159 0.42810 0.44812
 C647 C 1.15070 0.42039 0.43935
 H648 H 1.15845 0.40709 0.44700
 O649 O 0.97582 0.57584 0.39159
 O650 O 0.97514 0.60039 0.36623
 C651 C 0.96797 0.58325 0.37434
 C652 C 0.94972 0.57245 0.36402
 C653 C 0.94085 0.58098 0.34529
 H654 H 0.94835 0.59459 0.33764
 O655 O 1.01496 0.42385 0.38957
 O656 O 1.01433 0.39903 0.36456
 C657 C 1.02193 0.41623 0.37195
 C658 C 1.03965 0.42690 0.36036
 C659 C 1.04791 0.41798 0.34140
 H660 H 1.04075 0.40367 0.33501
 O661 O 1.10189 0.47932 0.41669
 O662 O 1.12618 0.47941 0.39084
 C663 C 1.11905 0.47221 0.40863
 C664 C 1.13050 0.45497 0.41974
 C665 C 1.14939 0.44681 0.41096
 H666 H 1.15570 0.45348 0.39610
 O667 O 0.89070 0.52058 0.42462
 O668 O 0.86477 0.51996 0.40081
 C669 C 0.87299 0.52748 0.41784
 C670 C 0.86214 0.54494 0.42932
 C671 C 0.84238 0.55216 0.42208
 H672 H 0.83452 0.54395 0.40899
 O673 O 0.92168 0.60577 0.47926
 O674 O 0.89721 0.63067 0.47975
 C675 C 0.91427 0.62301 0.47196
 C676 C 0.92529 0.63387 0.45383
 C677 C 0.91794 0.65343 0.44603
 H678 H 0.90471 0.66116 0.45402
 O679 O 1.07431 0.39609 0.47460
 O680 O 1.09839 0.37082 0.47390
 C681 C 1.08124 0.37876 0.46688
 C682 C 1.06955 0.36798 0.44923
 C683 C 1.07733 0.34901 0.44029
 H684 H 1.09184 0.34220 0.44649
 O685 O 1.07175 0.52008 0.38776
 O686 O 1.09608 0.52012 0.36194
 C687 C 1.07893 0.52728 0.36999
 C688 C 1.06785 0.54484 0.35907
 C689 C 1.07589 0.55304 0.33963
 H690 H 1.08906 0.54513 0.33175
 O691 O 0.91877 0.47961 0.39340
 O692 O 0.89287 0.47942 0.36954
 C693 C 0.91055 0.47242 0.37619
 C694 C 0.92127 0.45524 0.36417
 C695 C 0.91336 0.44835 0.34425
 H696 H 0.90024 0.45676 0.33701
 O697 O 1.01818 0.60569 0.41903
 O698 O 1.01723 0.63028 0.39372
 C699 C 1.02502 0.62302 0.41106
 C700 C 1.04262 0.63453 0.42170
 C701 C 1.04965 0.65419 0.41370
 H702 H 1.04131 0.66147 0.40039
 O703 O 0.97433 0.39414 0.42018
 O704 O 0.97369 0.36935 0.39513
 C705 C 0.96703 0.37673 0.41296
 C706 C 0.95040 0.36523 0.42534
 C707 C 0.94163 0.34614 0.41764
 H708 H 0.94718 0.33976 0.40242
 O709 O 1.10338 0.57734 0.47319
 O710 O 1.12831 0.60207 0.47213
 C711 C 1.12054 0.58470 0.46519
 C712 C 1.13121 0.57312 0.44732
 C713 C 1.15145 0.57942 0.43984
 H714 H 1.15972 0.59223 0.44790
 O715 O 0.89518 0.42181 0.48166
 O716 O 0.87021 0.39709 0.48263
 C717 C 0.87761 0.41438 0.47496
 C718 C 0.86568 0.42592 0.45807
 C719 C 0.84504 0.41941 0.45248
 H720 H 0.83799 0.40575 0.46043
 Cu721 Cu 0.99450 0.41183 0.40755
 Cu722 Cu 0.99392 0.38201 0.37751
 Cu723 Cu 0.99718 0.58833 0.40771
 Cu724 Cu 0.99614 0.61785 0.37727
 Cu725 Cu 0.90760 0.50009 0.41163
 Cu726 Cu 0.87643 0.49961 0.38310
 Cu727 Cu 1.08441 0.49968 0.40477
 Cu728 Cu 1.11361 0.49981 0.37376
 C729 C 0.93873 0.44485 0.37318
 H730 H 0.94478 0.45008 0.38863
 C731 C 0.92216 0.43073 0.33364
 C732 C 1.05041 0.55473 0.36893
 H733 H 1.04425 0.54852 0.38406
 C734 C 1.06763 0.57166 0.33059
 C735 C 0.87494 0.44331 0.44723
 H736 H 0.89099 0.44822 0.45121
 C737 C 0.83351 0.43016 0.43651
 C738 C 1.12084 0.55601 0.43721
 H739 H 1.10518 0.55112 0.44278
 C740 C 1.16118 0.56911 0.42226
 C741 C 0.94243 0.37400 0.44453
 H742 H 0.94867 0.38901 0.45022
 C743 C 0.92518 0.33574 0.42908
 C744 C 1.05319 0.62540 0.43922
 H745 H 1.04794 0.61012 0.44529
 C746 C 1.06741 0.66452 0.42261
 C747 C 0.93999 0.55473 0.37368
 H748 H 0.94664 0.54829 0.38836
 C749 C 0.92209 0.57260 0.33653
 C750 C 1.04962 0.44486 0.36914
 H751 H 1.04353 0.45155 0.38402
 C752 C 1.06608 0.42650 0.33128
 C753 C 1.05126 0.37721 0.44034
 H754 H 1.04548 0.39209 0.44671
 C755 C 1.06697 0.33925 0.42283
 C756 C 0.94258 0.62411 0.44341
 H757 H 0.94816 0.60890 0.44910
 C758 C 0.92749 0.66302 0.42788
 C759 C 0.87204 0.55543 0.44650
 H760 H 0.88743 0.55003 0.45196
 C761 C 0.83274 0.57005 0.43125
 C762 C 1.12183 0.44562 0.43839
 H763 H 1.10697 0.45153 0.44491
 C764 C 1.15968 0.42953 0.42060
 O765 O 1.02238 0.42659 0.60822
 O766 O 1.02335 0.40214 0.63365
 C767 C 1.03044 0.41927 0.62547
 C768 C 1.04873 0.43040 0.63557
 C769 C 1.05685 0.42374 0.65560
 H770 H 1.04878 0.41117 0.66439
 O771 O 0.97990 0.57564 0.60612
 O772 O 0.98068 0.60019 0.63139
 C773 C 0.97302 0.58306 0.62388
 C774 C 0.95540 0.57203 0.63544
 C775 C 0.94737 0.57993 0.65510
 H776 H 0.95450 0.59388 0.66229
 O777 O 0.89239 0.52070 0.57934
 O778 O 0.86776 0.52077 0.60485
 C779 C 0.87528 0.52814 0.58727
 C780 C 0.86452 0.54596 0.57615
 C781 C 0.84536 0.55445 0.58426
 H782 H 0.83802 0.54765 0.59856
 O783 O 1.10910 0.47998 0.57255
 O784 O 1.13465 0.48036 0.59675
 C785 C 1.12645 0.47263 0.57975
 C786 C 1.13654 0.45439 0.56852
 C787 C 1.15540 0.44513 0.57625
 H788 H 1.16315 0.45175 0.59029
 O789 O 1.07451 0.39653 0.51687
 O790 O 1.09837 0.37105 0.51617
 C791 C 1.08150 0.37908 0.52405
 C792 C 1.07029 0.36845 0.54222
 C793 C 1.07648 0.34819 0.54909
 H794 H 1.08869 0.33978 0.54020
 O795 O 0.92205 0.60629 0.52141
 O796 O 0.89766 0.63126 0.52200
 C797 C 0.91497 0.62359 0.52897
 C798 C 0.92673 0.63442 0.54652
 C799 C 0.92012 0.65423 0.55439
 H800 H 0.90700 0.66223 0.54667
 O801 O 0.92149 0.47919 0.60844
 O802 O 0.89697 0.47899 0.63406
 C803 C 0.91423 0.47189 0.62619
 C804 C 0.92592 0.45475 0.63740
 C805 C 0.91794 0.44550 0.65656
 H806 H 0.90304 0.45102 0.66334
 O807 O 1.08035 0.52155 0.60212
 O808 O 1.10571 0.52238 0.62654
 C809 C 1.08804 0.52910 0.61941
 C810 C 1.07635 0.54608 0.63103
 C811 C 1.08333 0.55346 0.65125
 H812 H 1.09701 0.54625 0.65878
 O813 O 0.97977 0.39680 0.58072
 O814 O 0.98096 0.37221 0.60601
 C815 C 0.97306 0.37936 0.58867
 C816 C 0.95576 0.36747 0.57771
 C817 C 0.94902 0.34751 0.58536
 H818 H 0.95653 0.34083 0.59948
 O819 O 1.02052 0.60480 0.57470
 O820 O 1.02137 0.62938 0.59996
 C821 C 1.02797 0.62209 0.58202
 C822 C 1.04469 0.63370 0.56975
 C823 C 1.05113 0.65400 0.57628
 H824 H 1.04369 0.66114 0.59029
 O825 O 0.89509 0.42189 0.52358
 O826 O 0.87037 0.39694 0.52443
 C827 C 0.87777 0.41444 0.53119
 C828 C 0.86622 0.42595 0.54834
 C829 C 0.84664 0.41820 0.55598
 H830 H 0.83998 0.40390 0.54904
 O831 O 1.10521 0.57835 0.51529
 O832 O 1.12986 0.60336 0.51434
 C833 C 1.12265 0.58608 0.52208
 C834 C 1.13447 0.57516 0.53945
 C835 C 1.15374 0.58366 0.54698
 H836 H 1.15990 0.59815 0.53987
 O837 O 1.02170 0.57551 0.60404
 O838 O 1.02238 0.60000 0.62937
 C839 C 1.02957 0.58296 0.62130
 C840 C 1.04760 0.57210 0.63189
 C841 C 1.05486 0.57921 0.65198
 H842 H 1.04697 0.59239 0.65976
 O843 O 0.98050 0.42727 0.60881
 O844 O 0.98148 0.40263 0.63405
 C845 C 0.97362 0.41959 0.62648
 C846 C 0.95553 0.42978 0.63775
 C847 C 0.94769 0.42123 0.65712
 H848 H 0.95626 0.40842 0.66474
 O849 O 1.10886 0.52162 0.57164
 O850 O 1.13444 0.52229 0.59582
 C851 C 1.12625 0.52934 0.57854
 C852 C 1.13650 0.54728 0.56682
 C853 C 1.15598 0.55586 0.57388
 H854 H 1.16424 0.54836 0.58710
 O855 O 0.89285 0.47925 0.57854
 O856 O 0.86817 0.47910 0.60401
 C857 C 0.87565 0.47185 0.58641
 C858 C 0.86487 0.45409 0.57529
 C859 C 0.84519 0.44612 0.58273
 H860 H 0.83715 0.45379 0.59609
 O861 O 1.07532 0.60650 0.51588
 O862 O 1.09980 0.63168 0.51502
 C863 C 1.08270 0.62391 0.52293
 C864 C 1.07144 0.63480 0.54087
 C865 C 1.07756 0.65523 0.54758
 H866 H 1.09012 0.66356 0.53895
 O867 O 0.92457 0.39325 0.52372
 O868 O 0.89987 0.36829 0.52469
 C869 C 0.91720 0.37613 0.53166
 C870 C 0.92865 0.36569 0.54962
 C871 C 0.92232 0.34562 0.55730
 H872 H 0.90964 0.33719 0.54918
 O873 O 1.08066 0.48038 0.60294
 O874 O 1.10608 0.48108 0.62731
 C875 C 1.08854 0.47361 0.62047
 C876 C 1.07735 0.45671 0.63283
 C877 C 1.08540 0.44961 0.65264
 H878 H 1.09994 0.45659 0.65875
 O879 O 0.92299 0.52029 0.60700
 O880 O 0.89859 0.52037 0.63276
 C881 C 0.91590 0.52750 0.62471
 C882 C 0.92754 0.54480 0.63569
 C883 C 0.91997 0.55272 0.65536
 H884 H 0.90634 0.54524 0.66308
 O885 O 0.97902 0.60488 0.57669
 O886 O 0.98000 0.62945 0.60195
 C887 C 0.97213 0.62211 0.58465
 C888 C 0.95454 0.63351 0.57390
 C889 C 0.94749 0.65314 0.58178
 H890 H 0.95509 0.65997 0.59580
 O891 O 1.02103 0.39874 0.57750
 O892 O 1.02211 0.37410 0.60275
 C893 C 1.02844 0.38148 0.58469
 C894 C 1.04469 0.36991 0.57206
 C895 C 1.05132 0.34982 0.57883
 H896 H 1.04452 0.34295 0.59337
 O897 O 1.10515 0.42424 0.51634
 O898 O 1.12910 0.39885 0.51556
 C899 C 1.12235 0.41623 0.52324
 C900 C 1.13430 0.42684 0.54082
 C901 C 1.15319 0.41800 0.54863
 H902 H 1.15963 0.40403 0.54089
 O903 O 0.89330 0.57673 0.52227
 O904 O 0.86875 0.60156 0.52277
 C905 C 0.87620 0.58427 0.53002
 C906 C 0.86514 0.57323 0.54803
 C907 C 0.84595 0.58121 0.55613
 H908 H 0.83870 0.59468 0.54827
 Cu909 Cu 1.00081 0.41489 0.59139
 Cu910 Cu 1.00216 0.38542 0.62174
 Cu911 Cu 1.00017 0.58770 0.58791
 Cu912 Cu 1.00126 0.61715 0.61825
 Cu913 Cu 0.91219 0.40968 0.50253
 Cu914 Cu 0.88234 0.37988 0.50364
 Cu915 Cu 1.08707 0.41294 0.49558
 Cu916 Cu 1.11587 0.38254 0.49472
 Cu917 Cu 0.90964 0.58910 0.50071
 Cu918 Cu 0.88021 0.61893 0.50137
 Cu919 Cu 1.08734 0.58993 0.49461
 Cu920 Cu 1.11701 0.61980 0.49348
 Cu921 Cu 0.90979 0.49980 0.59072
 Cu922 Cu 0.88038 0.49984 0.62147
 Cu923 Cu 1.09231 0.50082 0.58481
 Cu924 Cu 1.12286 0.50164 0.61395
 C925 C 1.05896 0.44708 0.62452
 H926 H 1.05291 0.45221 0.60904
 C927 C 1.07523 0.43327 0.66434
 C928 C 0.94542 0.55437 0.62596
 H929 H 0.95116 0.54847 0.61060
 C930 C 0.92952 0.57043 0.66505
 C931 C 0.87420 0.55546 0.55797
 H932 H 0.88916 0.54938 0.55189
 C933 C 0.83606 0.57222 0.57438
 C934 C 1.12626 0.44514 0.55071
 H935 H 1.11154 0.45185 0.54488
 C936 C 1.16379 0.42680 0.56645
 C937 C 1.05415 0.37907 0.55364
 H938 H 1.04939 0.39477 0.54859
 C939 C 1.06712 0.33877 0.56746
 C940 C 0.94412 0.62436 0.55622
 H941 H 0.94922 0.60904 0.55035
 C942 C 0.93036 0.66376 0.57210
 C943 C 0.94474 0.44674 0.62819
 H944 H 0.95067 0.45329 0.61312
 C945 C 0.92867 0.42855 0.66647
 C946 C 1.05832 0.55540 0.62161
 H947 H 1.05294 0.55004 0.60595
 C948 C 1.07258 0.56998 0.66190
 C949 C 0.94553 0.37632 0.55979
 H950 H 0.95042 0.39184 0.55404
 C951 C 0.93239 0.33631 0.57521
 C952 C 1.05480 0.62431 0.55194
 H953 H 1.05008 0.60850 0.54704
 C954 C 1.06739 0.66502 0.56524
 C955 C 0.87511 0.44403 0.55789
 H956 H 0.89042 0.44983 0.55224
 C957 C 0.83595 0.42813 0.57310
 C958 C 1.12605 0.55690 0.54939
 H959 H 1.11094 0.55056 0.54397
 C960 C 1.16470 0.57418 0.56415
 O961 O 0.47775 0.92627 0.39190
 O962 O 0.47724 0.90195 0.36638
 C963 C 0.47066 0.91941 0.37407
 C964 C 0.45419 0.93162 0.36255
 C965 C 0.44702 0.92519 0.34214
 H966 H 0.45443 0.91180 0.33425
 O967 O 0.52564 1.07879 0.39248
 O968 O 0.52695 1.10370 0.36751
 C969 C 0.53366 1.08632 0.37521
 C970 C 0.55117 1.07475 0.36436
 C971 C 0.56009 1.08191 0.34472
 H972 H 0.55403 1.09616 0.33726
 O973 O 0.39569 0.98560 0.42117
 O974 O 0.37109 0.98601 0.39594
 C975 C 0.37827 0.97867 0.41357
 C976 C 0.36659 0.96141 0.42488
 C977 C 0.34718 0.95395 0.41669
 H978 H 0.34017 0.96181 0.40293
 O979 O 0.60610 1.01995 0.42441
 O980 O 0.63153 1.01933 0.39970
 C981 C 0.62380 1.02674 0.41711
 C982 C 0.63529 1.04377 0.42868
 C983 C 0.65576 1.05003 0.42197
 H984 H 0.66319 1.04212 0.40839
 O985 O 0.42046 0.89858 0.47843
 O986 O 0.39435 0.87504 0.47827
 C987 C 0.41210 0.88177 0.47098
 C988 C 0.42278 0.87032 0.45320
 C989 C 0.41468 0.85089 0.44594
 H990 H 0.40122 0.84371 0.45424
 O991 O 0.57905 1.10752 0.47974
 O992 O 0.60494 1.13128 0.47965
 C993 C 0.58741 1.12441 0.47228
 C994 C 0.57666 1.13577 0.45461
 C995 C 0.58417 1.15552 0.44707
 H996 H 0.59815 1.16256 0.45430
 O997 O 0.42579 1.02605 0.39083
 O998 O 0.40120 1.02673 0.36560
 C999 C 0.41869 1.03347 0.37322
 C1000 C 0.43082 1.05042 0.36191
 C1001 C 0.42392 1.05884 0.34210
 H1002 H 0.40957 1.05268 0.33477
 O1003 O 0.57616 0.97953 0.39434
 O1004 O 0.60159 0.97895 0.36963
 C1005 C 0.58385 0.97216 0.37691
 C1006 C 0.57255 0.95496 0.36540
 C1007 C 0.58073 0.94718 0.34590
 H1008 H 0.59428 0.95509 0.33852
 O1009 O 0.51695 0.89543 0.42208
 O1010 O 0.51644 0.87085 0.39681
 C1011 C 0.52362 0.87799 0.41452
 C1012 C 0.54046 0.86632 0.42606
 C1013 C 0.54746 0.84663 0.41847
 H1014 H 0.53947 0.83931 0.40493
 O1015 O 0.48342 1.10702 0.42162
 O1016 O 0.48425 1.13190 0.39658
 C1017 C 0.47641 1.12425 0.41392
 C1018 C 0.45861 1.13522 0.42490
 C1019 C 0.44997 1.15359 0.41577
 H1020 H 0.45657 1.15980 0.40084
 O1021 O 0.39583 1.08181 0.47867
 O1022 O 0.37145 1.10679 0.47856
 C1023 C 0.37873 1.08954 0.47112
 C1024 C 0.36776 1.07861 0.45304
 C1025 C 0.34794 1.08566 0.44525
 H1026 H 0.33996 1.09863 0.45329
 O1027 O 0.60289 0.92130 0.47918
 O1028 O 0.62718 0.89622 0.47930
 C1029 C 0.62021 0.91363 0.47197
 C1030 C 0.63196 0.92495 0.45458
 C1031 C 0.65161 0.91743 0.44672
 H1032 H 0.65871 0.90352 0.45389
 O1033 O 0.48417 1.07885 0.39146
 O1034 O 0.48546 1.10368 0.36637
 C1035 C 0.47763 1.08654 0.37376
 C1036 C 0.46010 1.07599 0.36213
 C1037 C 0.45334 1.08386 0.34218
 H1038 H 0.46223 1.09661 0.33455
 O1039 O 0.51911 0.92436 0.39269
 O1040 O 0.51882 0.89996 0.36725
 C1041 C 0.52666 0.91678 0.37530
 C1042 C 0.54501 0.92749 0.36472
 C1043 C 0.55394 0.91942 0.34556
 H1044 H 0.54726 0.90522 0.33846
 O1045 O 0.60528 0.97854 0.42382
 O1046 O 0.63067 0.97815 0.39906
 C1047 C 0.62256 0.97098 0.41642
 C1048 C 0.63307 0.95327 0.42768
 C1049 C 0.65270 0.94569 0.42020
 H1050 H 0.66040 0.95330 0.40651
 O1051 O 0.39688 1.02695 0.42088
 O1052 O 0.37223 1.02731 0.39572
 C1053 C 0.37978 1.03443 0.41325
 C1054 C 0.36865 1.05177 0.42466
 C1055 C 0.34915 1.05920 0.41696
 H1056 H 0.34250 1.05215 0.40256
 O1057 O 0.42702 1.10884 0.47923
 O1058 O 0.40273 1.13391 0.47865
 C1059 C 0.41996 1.12599 0.47146
 C1060 C 0.43132 1.13630 0.45322
 C1061 C 0.42320 1.15486 0.44403
 H1062 H 0.40952 1.16245 0.45133
 O1063 O 0.57218 0.89363 0.47891
 O1064 O 0.59636 0.86844 0.47899
 C1065 C 0.57933 0.87630 0.47153
 C1066 C 0.56794 0.86556 0.45375
 C1067 C 0.57500 0.84599 0.44570
 H1068 H 0.58877 0.83853 0.45279
 O1069 O 0.57831 1.02086 0.39380
 O1070 O 0.60375 1.02008 0.36910
 C1071 C 0.58660 1.02787 0.37641
 C1072 C 0.57668 1.04575 0.36493
 C1073 C 0.58509 1.05281 0.34517
 H1074 H 0.59796 1.04409 0.33768
 O1075 O 0.42483 0.98473 0.39146
 O1076 O 0.40031 0.98541 0.36615
 C1077 C 0.41728 0.97771 0.37388
 C1078 C 0.42804 0.96010 0.36256
 C1079 C 0.42089 0.95329 0.34230
 H1080 H 0.40758 0.96122 0.33484
 O1081 O 0.52477 1.10748 0.42239
 O1082 O 0.52561 1.13251 0.39750
 C1083 C 0.53216 1.12491 0.41522
 C1084 C 0.54908 1.13607 0.42715
 C1085 C 0.55614 1.15610 0.42040
 H1086 H 0.54774 1.16402 0.40753
 O1087 O 0.47564 0.89674 0.42096
 O1088 O 0.47493 0.87219 0.39567
 C1089 C 0.46775 0.87983 0.41322
 C1090 C 0.44981 0.86933 0.42470
 C1091 C 0.44139 0.84990 0.41752
 H1092 H 0.44823 0.84223 0.40349
 O1093 O 0.60663 1.07713 0.48020
 O1094 O 0.63263 1.10078 0.48021
 C1095 C 0.62450 1.08372 0.47306
 C1096 C 0.63568 1.07163 0.45598
 C1097 C 0.65630 1.07751 0.44922
 H1098 H 0.66444 1.09040 0.45728
 O1099 O 0.39295 0.92889 0.47822
 O1100 O 0.36679 0.90543 0.47802
 C1101 C 0.37540 0.92223 0.47062
 C1102 C 0.36522 0.93375 0.45257
 C1103 C 0.34598 0.92631 0.44384
 H1104 H 0.33844 0.91230 0.45060
 Cu1105 Cu 0.49735 0.91315 0.40943
 Cu1106 Cu 0.49677 0.88378 0.37895
 Cu1107 Cu 0.50448 1.09047 0.40946
 Cu1108 Cu 0.50569 1.12048 0.37948
 Cu1109 Cu 0.41330 1.00583 0.40859
 Cu1110 Cu 0.38370 1.00640 0.37835
 Cu1111 Cu 0.58890 0.99977 0.41159
 Cu1112 Cu 0.61943 0.99904 0.38189
 C1113 C 0.44479 0.94927 0.37248
 H1114 H 0.45008 0.95420 0.38831
 C1115 C 0.43030 0.93589 0.33189
 C1116 C 0.55959 1.05663 0.37425
 H1117 H 0.55317 1.05124 0.38959
 C1118 C 0.57713 1.07097 0.33497
 C1119 C 0.37537 0.95138 0.44301
 H1120 H 0.39047 0.95690 0.44928
 C1121 C 0.33687 0.93625 0.42583
 C1122 C 0.62544 1.05456 0.44579
 H1123 H 0.60948 1.05005 0.45077
 C1124 C 0.66649 1.06681 0.43217
 C1125 C 0.44046 0.87931 0.44264
 H1126 H 0.44661 0.89445 0.44806
 C1127 C 0.42375 0.84060 0.42807
 C1128 C 0.55914 1.12622 0.44451
 H1129 H 0.55371 1.11070 0.44974
 C1130 C 0.57396 1.16586 0.42987
 C1131 C 0.44899 1.05908 0.37169
 H1132 H 0.45411 1.05311 0.38720
 C1133 C 0.43512 1.07566 0.33211
 C1134 C 0.55447 0.94525 0.37452
 H1135 H 0.54813 0.95118 0.38963
 C1136 C 0.57190 0.92914 0.33603
 C1137 C 0.55058 0.87551 0.44389
 H1138 H 0.54537 0.89082 0.44968
 C1139 C 0.56485 0.83640 0.42802
 C1140 C 0.44922 1.12670 0.44370
 H1141 H 0.45543 1.11220 0.45052
 C1142 C 0.43220 1.16343 0.42512
 C1143 C 0.37776 1.06146 0.44277
 H1144 H 0.39302 1.05598 0.44851
 C1145 C 0.33839 1.07590 0.42720
 C1146 C 0.62296 0.94299 0.44504
 H1147 H 0.60767 0.94867 0.45069
 C1148 C 0.66213 0.92783 0.42955
 O1149 O 0.51675 0.92386 0.60670
 O1150 O 0.51589 0.89933 0.63209
 C1151 C 0.52367 0.91642 0.62435
 C1152 C 0.54126 0.92744 0.63573
 C1153 C 0.54858 0.91965 0.65553
 H1154 H 0.54044 0.90633 0.66300
 O1155 O 0.48058 1.08142 0.60870
 O1156 O 0.48071 1.10579 0.63416
 C1157 C 0.47330 1.08866 0.62636
 C1158 C 0.45577 1.07707 0.63747
 C1159 C 0.44783 1.08372 0.65766
 H1160 H 0.45470 1.09749 0.66543
 O1161 O 0.39609 1.02559 0.57807
 O1162 O 0.37093 1.02593 0.60307
 C1163 C 0.37879 1.03299 0.58555
 C1164 C 0.36782 1.05019 0.57398
 C1165 C 0.34802 1.05741 0.58132
 H1166 H 0.34067 1.05014 0.59538
 O1167 O 0.60281 0.97869 0.57845
 O1168 O 0.62763 0.97782 0.60344
 C1169 C 0.61974 0.97073 0.58603
 C1170 C 0.62998 0.95266 0.57477
 C1171 C 0.64880 0.94363 0.58281
 H1172 H 0.65618 0.95015 0.59711
 O1173 O 0.57232 0.89287 0.52109
 O1174 O 0.59648 0.86766 0.52123
 C1175 C 0.57935 0.87552 0.52860
 C1176 C 0.56776 0.86475 0.54647
 C1177 C 0.57507 0.84542 0.55489
 H1178 H 0.58917 0.83823 0.54802
 O1179 O 0.42546 1.10975 0.52153
 O1180 O 0.40131 1.13494 0.52102
 C1181 C 0.41822 1.12713 0.52881
 C1182 C 0.42926 1.13823 0.54677
 C1183 C 0.42185 1.15790 0.55407
 H1184 H 0.40800 1.16471 0.54650
 O1185 O 0.42336 0.98320 0.60760
 O1186 O 0.39811 0.98374 0.63250
 C1187 C 0.41526 0.97607 0.62502
 C1188 C 0.42550 0.95830 0.63644
 C1189 C 0.41780 0.95162 0.65663
 H1190 H 0.40505 0.96031 0.66436
 O1191 O 0.57535 1.02169 0.60760
 O1192 O 0.60019 1.02088 0.63253
 C1193 C 0.58331 1.02893 0.62491
 C1194 C 0.57316 1.04718 0.63609
 C1195 C 0.58152 1.05473 0.65560
 H1196 H 0.59540 1.04711 0.66225
 O1197 O 0.47426 0.89543 0.57798
 O1198 O 0.47312 0.87079 0.60323
 C1199 C 0.46618 0.87850 0.58569
 C1200 C 0.44819 0.86819 0.57426
 C1201 C 0.43892 0.84921 0.58193
 H1202 H 0.44520 0.84176 0.59628
 O1203 O 0.52262 1.10999 0.57921
 O1204 O 0.52327 1.13460 0.60440
 C1205 C 0.53046 1.12696 0.58685
 C1206 C 0.54856 1.13732 0.57541
 C1207 C 0.55800 1.15599 0.58342
 H1208 H 0.55170 1.16321 0.59794
 O1209 O 0.39244 0.92861 0.52045
 O1210 O 0.36618 0.90526 0.52026
 C1211 C 0.37467 0.92200 0.52776
 C1212 C 0.36406 0.93372 0.54544
 C1213 C 0.34390 0.92742 0.55315
 H1214 H 0.33624 0.91370 0.54611
 O1215 O 0.60543 1.07704 0.52215
 O1216 O 0.63148 1.10064 0.52209
 C1217 C 0.62308 1.08369 0.52940
 C1218 C 0.63403 1.07167 0.54649
 C1219 C 0.65453 1.07767 0.55276
 H1220 H 0.66183 1.09145 0.54530
 O1221 O 0.52202 1.08054 0.60828
 O1222 O 0.52255 1.10485 0.63377
 C1223 C 0.52950 1.08757 0.62589
 C1224 C 0.54686 1.07573 0.63684
 C1225 C 0.55521 1.08269 0.65669
 H1226 H 0.54807 1.09616 0.66466
 O1227 O 0.47538 0.92427 0.60764
 O1228 O 0.47439 0.89979 0.63307
 C1229 C 0.46787 0.91722 0.62536
 C1230 C 0.45107 0.92934 0.63670
 C1231 C 0.44305 0.92273 0.65691
 H1232 H 0.44944 0.90872 0.66457
 O1233 O 0.60483 1.01999 0.57815
 O1234 O 0.62985 1.01918 0.60293
 C1235 C 0.62256 1.02656 0.58538
 C1236 C 0.63428 1.04347 0.57352
 C1237 C 0.65519 1.04934 0.57918
 H1238 H 0.66334 1.04053 0.59161
 O1239 O 0.39503 0.98447 0.57731
 O1240 O 0.36980 0.98504 0.60225
 C1241 C 0.37722 0.97792 0.58459
 C1242 C 0.36523 0.96142 0.57280
 C1243 C 0.34470 0.95558 0.57962
 H1244 H 0.33717 0.96450 0.59243
 O1245 O 0.57805 1.10753 0.52183
 O1246 O 0.60402 1.13119 0.52177
 C1247 C 0.58630 1.12446 0.52913
 C1248 C 0.57565 1.13604 0.54692
 C1249 C 0.58454 1.15487 0.55486
 H1250 H 0.59835 1.16167 0.54684
 O1251 O 0.41987 0.89816 0.52054
 O1252 O 0.39368 0.87473 0.52033
 C1253 C 0.41130 0.88129 0.52783
 C1254 C 0.42153 0.86960 0.54572
 C1255 C 0.41273 0.85051 0.55336
 H1256 H 0.39918 0.84367 0.54514
 O1257 O 0.57364 0.97995 0.60806
 O1258 O 0.59835 0.97909 0.63314
 C1259 C 0.58088 0.97225 0.62547
 C1260 C 0.56922 0.95466 0.63640
 C1261 C 0.57657 0.94625 0.65603
 H1262 H 0.59063 0.95299 0.66343
 O1263 O 0.42523 1.02465 0.60753
 O1264 O 0.40000 1.02492 0.63246
 C1265 C 0.41763 1.03183 0.62508
 C1266 C 0.42894 1.04888 0.63676
 C1267 C 0.42160 1.05540 0.65704
 H1268 H 0.40861 1.04680 0.66468
 O1269 O 0.48102 1.11048 0.57909
 O1270 O 0.48125 1.13519 0.60418
 C1271 C 0.47389 1.12778 0.58661
 C1272 C 0.45646 1.13887 0.57496
 C1273 C 0.44899 1.15887 0.58174
 H1274 H 0.45677 1.16681 0.59503
 O1275 O 0.51582 0.89420 0.57776
 O1276 O 0.51488 0.86951 0.60298
 C1277 C 0.52248 0.87678 0.58538
 C1278 C 0.53977 0.86530 0.57405
 C1279 C 0.54701 0.84577 0.58192
 H1280 H 0.53885 0.83844 0.59548
 O1281 O 0.60090 0.92251 0.52116
 O1282 O 0.62517 0.89740 0.52137
 C1283 C 0.61789 0.91476 0.52869
 C1284 C 0.62898 0.92555 0.54661
 C1285 C 0.64784 0.91702 0.55469
 H1286 H 0.65483 0.90336 0.54688
 O1287 O 0.39618 1.08073 0.52079
 O1288 O 0.37186 1.10578 0.52075
 C1289 C 0.37899 1.08842 0.52811
 C1290 C 0.36770 1.07729 0.54585
 C1291 C 0.34785 1.08437 0.55342
 H1292 H 0.34017 1.09761 0.54558
 Cu1293 Cu 0.49560 0.91184 0.58996
 Cu1294 Cu 0.49454 0.88235 0.62036
 Cu1295 Cu 0.50148 1.09323 0.59131
 Cu1296 Cu 0.50196 1.12259 0.62164
 Cu1297 Cu 0.40904 0.91593 0.49946
 Cu1298 Cu 0.37761 0.88778 0.49920
 Cu1299 Cu 0.58462 0.91004 0.49998
 Cu1300 Cu 0.61373 0.87991 0.50025
 Cu1301 Cu 0.41350 1.09277 0.50008
 Cu1302 Cu 0.38449 1.12294 0.49975
 Cu1303 Cu 0.58962 1.08998 0.50091
 Cu1304 Cu 0.62087 1.11838 0.50097
 Cu1305 Cu 0.41253 1.00442 0.59015
 Cu1306 Cu 0.38223 1.00494 0.62013
 Cu1307 Cu 0.58667 1.00019 0.59062
 Cu1308 Cu 0.61640 0.99921 0.62059
 C1309 C 0.55150 0.94514 0.62643
 H1310 H 0.54605 0.95114 0.61104
 C1311 C 0.56638 0.92869 0.66572
 C1312 C 0.44621 1.05958 0.62722
 H1313 H 0.45180 1.05464 0.61145
 C1314 C 0.43061 1.07296 0.66753
 C1315 C 0.37744 1.06004 0.55611
 H1316 H 0.39288 1.05467 0.55058
 C1317 C 0.33788 1.07443 0.57115
 C1318 C 0.62024 0.94351 0.55659
 H1319 H 0.60552 0.95002 0.55056
 C1320 C 0.65770 0.92567 0.57292
 C1321 C 0.55004 0.87448 0.55612
 H1322 H 0.54465 0.88964 0.55008
 C1323 C 0.56482 0.83577 0.57266
 C1324 C 0.44662 1.12891 0.55725
 H1325 H 0.45213 1.11353 0.55193
 C1326 C 0.43168 1.16864 0.57130
 C1327 C 0.44227 0.94723 0.62672
 H1328 H 0.44808 0.95223 0.61100
 C1329 C 0.42633 0.93380 0.66696
 C1330 C 0.55581 1.05776 0.62688
 H1331 H 0.54959 1.05229 0.61159
 C1332 C 0.57262 1.07230 0.66628
 C1333 C 0.43940 0.87814 0.55608
 H1334 H 0.44611 0.89297 0.55034
 C1335 C 0.42109 0.84025 0.57160
 C1336 C 0.55748 1.12757 0.55708
 H1337 H 0.55070 1.11290 0.55112
 C1338 C 0.57613 1.16481 0.57329
 C1339 C 0.37462 0.95071 0.55543
 H1340 H 0.39046 0.95522 0.55008
 C1341 C 0.33394 0.93833 0.57024
 C1342 C 0.62403 1.05451 0.55686
 H1343 H 0.60797 1.05014 0.55234
 C1344 C 0.66554 1.06645 0.56873
 O1345 O 0.57614 0.51763 1.11242
 O1346 O 0.60077 0.51698 1.13761
 C1347 C 0.58355 0.52436 1.13023
 C1348 C 0.57228 0.54118 1.14230
 C1349 C 0.57966 0.54782 1.16255
 H1350 H 0.59367 0.54046 1.16924
 O1351 O 0.42142 0.47736 1.10781
 O1352 O 0.39615 0.47663 1.13269
 C1353 C 0.41352 0.46955 1.12499
 C1354 C 0.42442 0.45184 1.13598
 C1355 C 0.41624 0.44378 1.15543
 H1356 H 0.40192 0.45062 1.16219
 O1357 O 0.52125 0.60282 1.08624
 O1358 O 0.52114 0.62689 1.11201
 C1359 C 0.52844 0.61992 1.09421
 C1360 C 0.54545 0.63171 1.08257
 C1361 C 0.55166 0.65207 1.08927
 H1362 H 0.54412 0.65905 1.10331
 O1363 O 0.47676 0.39301 1.07784
 O1364 O 0.47627 0.36747 1.10217
 C1365 C 0.46918 0.37560 1.08490
 C1366 C 0.45175 0.36486 1.07309
 C1367 C 0.44495 0.34452 1.07924
 H1368 H 0.45259 0.33674 1.09269
 O1369 O 0.60473 0.57671 1.02605
 O1370 O 0.62986 0.60120 1.02774
 C1371 C 0.62205 0.58357 1.03393
 C1372 C 0.63299 0.57121 1.05082
 C1373 C 0.65322 0.57746 1.05791
 H1374 H 0.66126 0.59067 1.05012
 O1375 O 0.39319 0.42442 1.02067
 O1376 O 0.36786 0.40010 1.01972
 C1377 C 0.37557 0.41705 1.02754
 C1378 C 0.36423 0.42789 1.04524
 C1379 C 0.34496 0.41962 1.05312
 H1380 H 0.33833 0.40549 1.04582
 O1381 O 0.47875 0.57352 1.11435
 O1382 O 0.47848 0.59725 1.14043
 C1383 C 0.47107 0.58044 1.13197
 C1384 C 0.45301 0.56896 1.14228
 C1385 C 0.44469 0.57544 1.16234
 H1386 H 0.45165 0.58896 1.17044
 O1387 O 0.51884 0.42025 1.10835
 O1388 O 0.51842 0.39477 1.13274
 C1389 C 0.52603 0.41212 1.12559
 C1390 C 0.54380 0.42277 1.13700
 C1391 C 0.55225 0.41421 1.15611
 H1392 H 0.54546 0.39985 1.16293
 O1393 O 0.60582 0.47704 1.08211
 O1394 O 0.63045 0.47685 1.10732
 C1395 C 0.62316 0.46987 1.08965
 C1396 C 0.63469 0.45294 1.07798
 C1397 C 0.65448 0.44571 1.08531
 H1398 H 0.66140 0.45277 1.09957
 O1399 O 0.39309 0.52012 1.08015
 O1400 O 0.36761 0.51946 1.10480
 C1401 C 0.37567 0.52720 1.08763
 C1402 C 0.36508 0.54489 1.07633
 C1403 C 0.34462 0.55174 1.08243
 H1404 H 0.33603 0.54354 1.09519
 O1405 O 0.42606 0.60625 1.02744
 O1406 O 0.40140 0.63097 1.02793
 C1407 C 0.41837 0.62308 1.03547
 C1408 C 0.42900 0.63326 1.05407
 C1409 C 0.42119 0.65226 1.06279
 H1410 H 0.40725 0.65941 1.05575
 O1411 O 0.57663 0.39631 1.02234
 O1412 O 0.60106 0.37136 1.02163
 C1413 C 0.58362 0.37867 1.02897
 C1414 C 0.57139 0.36656 1.04539
 C1415 C 0.57747 0.34594 1.05081
 H1416 H 0.59145 0.33928 1.04316
 O1417 O 0.42181 0.51857 1.10999
 O1418 O 0.39645 0.51782 1.13477
 C1419 C 0.41411 0.52505 1.12778
 C1420 C 0.42544 0.54160 1.14020
 C1421 C 0.41778 0.54783 1.16049
 H1422 H 0.40442 0.53936 1.16760
 O1423 O 0.57474 0.47633 1.10982
 O1424 O 0.59937 0.47573 1.13501
 C1425 C 0.58212 0.46859 1.12709
 C1426 C 0.57101 0.45061 1.13767
 C1427 C 0.57899 0.44205 1.15680
 H1428 H 0.59249 0.44957 1.16450
 O1429 O 0.51830 0.39270 1.07740
 O1430 O 0.51788 0.36699 1.10155
 C1431 C 0.52527 0.37508 1.08420
 C1432 C 0.54262 0.36441 1.07207
 C1433 C 0.54859 0.34346 1.07686
 H1434 H 0.53954 0.33457 1.08876
 O1435 O 0.47999 0.60340 1.08579
 O1436 O 0.47974 0.62733 1.11170
 C1437 C 0.47285 0.62050 1.09374
 C1438 C 0.45590 0.63215 1.08231
 C1439 C 0.44839 0.65153 1.09033
 H1440 H 0.45622 0.65864 1.10406
 O1441 O 0.39651 0.57754 1.02548
 O1442 O 0.37186 0.60230 1.02569
 C1443 C 0.37896 0.58477 1.03254
 C1444 C 0.36685 0.57293 1.04920
 C1445 C 0.34649 0.57957 1.05545
 H1446 H 0.33957 0.59331 1.04776
 O1447 O 0.60751 0.42364 1.02385
 O1448 O 0.63213 0.39888 1.02325
 C1449 C 0.62466 0.41585 1.03114
 C1450 C 0.63555 0.42648 1.04933
 C1451 C 0.65549 0.41954 1.05670
 H1452 H 0.66352 0.40682 1.04831
 O1453 O 0.47731 0.42137 1.10793
 O1454 O 0.47662 0.39603 1.13247
 C1455 C 0.46968 0.41355 1.12524
 C1456 C 0.45202 0.42467 1.13646
 C1457 C 0.44381 0.41709 1.15622
 H1458 H 0.45134 0.40375 1.16401
 O1459 O 0.52029 0.57314 1.11519
 O1460 O 0.52026 0.59694 1.14120
 C1461 C 0.52740 0.57992 1.13306
 C1462 C 0.54465 0.56818 1.14395
 C1463 C 0.55194 0.57431 1.16446
 H1464 H 0.54388 0.58692 1.17297
 O1465 O 0.39226 0.47891 1.07855
 O1466 O 0.36692 0.47821 1.10335
 C1467 C 0.37468 0.47159 1.08565
 C1468 C 0.36361 0.45463 1.07361
 C1469 C 0.34410 0.44634 1.08110
 H1470 H 0.33639 0.45340 1.09500
 O1471 O 0.60407 0.51838 1.08140
 O1472 O 0.62876 0.51804 1.10654
 C1473 C 0.62132 0.52553 1.08909
 C1474 C 0.63260 0.54301 1.07787
 C1475 C 0.65270 0.54971 1.08494
 H1476 H 0.66002 0.54188 1.09855
 O1477 O 0.42115 0.39446 1.02095
 O1478 O 0.39596 0.36999 1.02003
 C1479 C 0.41326 0.37709 1.02782
 C1480 C 0.42431 0.36541 1.04527
 C1481 C 0.41780 0.34488 1.05157
 H1482 H 0.40489 0.33712 1.04313
 O1483 O 0.57611 0.60611 1.02741
 O1484 O 0.60110 0.63075 1.02895
 C1485 C 0.58358 0.62296 1.03569
 C1486 C 0.57204 0.63333 1.05365
 C1487 C 0.57773 0.65382 1.06030
 H1488 H 0.58987 0.66244 1.05136
 Cu1489 Cu 0.58774 0.49740 1.09392
 Cu1490 Cu 0.61726 0.49690 1.12416
 Cu1491 Cu 0.40965 0.49886 1.09159
 Cu1492 Cu 0.37926 0.49797 1.12144
 Cu1493 Cu 0.50011 0.58577 1.09787
 Cu1494 Cu 0.49994 0.61447 1.12900
 Cu1495 Cu 0.49789 0.40938 1.09048
 Cu1496 Cu 0.49724 0.37878 1.11970
 C1497 C 0.55472 0.55137 1.13321
 H1498 H 0.54929 0.54662 1.11737
 C1499 C 0.56956 0.56425 1.17394
 C1500 C 0.44239 0.44228 1.12667
 H1501 H 0.44847 0.44816 1.11138
 C1502 C 0.42580 0.42652 1.16581
 C1503 C 0.55569 0.62251 1.06470
 H1504 H 0.55126 0.60667 1.05965
 C1505 C 0.56770 0.66337 1.07813
 C1506 C 0.44144 0.37511 1.05602
 H1507 H 0.44649 0.39093 1.05140
 C1508 C 0.42820 0.33421 1.06847
 C1509 C 0.62290 0.55376 1.06068
 H1510 H 0.60718 0.54897 1.05544
 C1511 C 0.66312 0.56694 1.07508
 C1512 C 0.37337 0.44552 1.05544
 H1513 H 0.38855 0.45163 1.04974
 C1514 C 0.33474 0.42867 1.07104
 C1515 C 0.44326 0.55201 1.13138
 H1516 H 0.44917 0.54728 1.11566
 C1517 C 0.42700 0.56493 1.17162
 C1518 C 0.55326 0.44104 1.12800
 H1519 H 0.54719 0.44748 1.11306
 C1520 C 0.56999 0.42371 1.16600
 C1521 C 0.62548 0.44333 1.05993
 H1522 H 0.61006 0.44864 1.05445
 C1523 C 0.66518 0.42912 1.07471
 C1524 C 0.37592 0.55547 1.05955
 H1525 H 0.39177 0.55048 1.05492
 C1526 C 0.33513 0.56902 1.07189
 C1527 C 0.44636 0.62335 1.06395
 H1528 H 0.45207 0.60839 1.05769
 C1529 C 0.43082 0.66166 1.08090
 C1530 C 0.55391 0.37565 1.05601
 H1531 H 0.54945 0.39177 1.05219
 C1532 C 0.56605 0.33401 1.06622
 O1533 O 0.57770 0.48416 0.89757
 O1534 O 0.60254 0.48414 0.87224
 C1535 C 0.58507 0.47701 0.87992
 C1536 C 0.57341 0.45995 0.86850
 C1537 C 0.58054 0.45281 0.84824
 H1538 H 0.59423 0.46024 0.84058
 O1539 O 0.42708 0.52507 0.89486
 O1540 O 0.40266 0.52591 0.86947
 C1541 C 0.41995 0.53281 0.87740
 C1542 C 0.43150 0.55051 0.86666
 C1543 C 0.42453 0.55851 0.84675
 H1544 H 0.41136 0.55089 0.83860
 O1545 O 0.48254 0.61008 0.92721
 O1546 O 0.48272 0.63550 0.90274
 C1547 C 0.47533 0.62747 0.92009
 C1548 C 0.45786 0.63805 0.93197
 C1549 C 0.44946 0.65736 0.92463
 H1550 H 0.45604 0.66481 0.91029
 O1551 O 0.52094 0.39699 0.92499
 O1552 O 0.52160 0.37320 0.89896
 C1553 C 0.52866 0.38028 0.91673
 C1554 C 0.54656 0.36936 0.92739
 C1555 C 0.55456 0.35048 0.91872
 H1556 H 0.54666 0.34324 0.90508
 O1557 O 0.60701 0.42651 0.98192
 O1558 O 0.63174 0.40186 0.98121
 C1559 C 0.62441 0.41940 0.97449
 C1560 C 0.63581 0.43135 0.95738
 C1561 C 0.65588 0.42477 0.95003
 H1562 H 0.66361 0.41156 0.95787
 O1563 O 0.39819 0.57874 0.98346
 O1564 O 0.37362 0.60356 0.98387
 C1565 C 0.38115 0.58656 0.97603
 C1566 C 0.37026 0.57620 0.95768
 C1567 C 0.35107 0.58442 0.94999
 H1568 H 0.34366 0.59748 0.95844
 O1569 O 0.52419 0.58210 0.89728
 O1570 O 0.52478 0.60730 0.87257
 C1571 C 0.53179 0.58989 0.87994
 C1572 C 0.54923 0.57865 0.86867
 C1573 C 0.55749 0.58615 0.84891
 H1574 H 0.55092 0.60029 0.84168
 O1575 O 0.47922 0.42602 0.89596
 O1576 O 0.48006 0.40217 0.86999
 C1577 C 0.47245 0.41903 0.87803
 C1578 C 0.45543 0.43046 0.86647
 C1579 C 0.44800 0.42295 0.84659
 H1580 H 0.45466 0.40852 0.84006
 O1581 O 0.60755 0.52497 0.92695
 O1582 O 0.63261 0.52526 0.90186
 C1583 C 0.62499 0.53229 0.91949
 C1584 C 0.63602 0.54951 0.93133
 C1585 C 0.65637 0.55674 0.92505
 H1586 H 0.66459 0.54900 0.91185
 O1587 O 0.39689 0.48331 0.92361
 O1588 O 0.37235 0.48443 0.89836
 C1589 C 0.37954 0.47651 0.91572
 C1590 C 0.36791 0.45875 0.92631
 C1591 C 0.34842 0.45173 0.91794
 H1592 H 0.34137 0.46019 0.90457
 O1593 O 0.57707 0.60852 0.98532
 O1594 O 0.60223 0.63299 0.98691
 C1595 C 0.58501 0.62601 0.97890
 C1596 C 0.57451 0.63787 0.96135
 C1597 C 0.58243 0.65763 0.95453
 H1598 H 0.59543 0.66490 0.96327
 O1599 O 0.42272 0.39543 0.97907
 O1600 O 0.39734 0.37115 0.97810
 C1601 C 0.41508 0.37839 0.97140
 C1602 C 0.42663 0.36723 0.95407
 C1603 C 0.41912 0.34779 0.94634
 H1604 H 0.40558 0.34031 0.95422
 O1605 O 0.42594 0.48367 0.89382
 O1606 O 0.40151 0.48445 0.86844
 C1607 C 0.41850 0.47674 0.87614
 C1608 C 0.42938 0.45897 0.86509
 C1609 C 0.42252 0.45158 0.84483
 H1610 H 0.41002 0.45996 0.83652
 O1611 O 0.57872 0.52548 0.89731
 O1612 O 0.60364 0.52548 0.87207
 C1613 C 0.58642 0.53279 0.87978
 C1614 C 0.57565 0.55042 0.86858
 C1615 C 0.58340 0.55784 0.84868
 H1616 H 0.59643 0.54962 0.84089
 O1617 O 0.47933 0.39554 0.92405
 O1618 O 0.48001 0.37166 0.89810
 C1619 C 0.47232 0.37847 0.91575
 C1620 C 0.45456 0.36708 0.92657
 C1621 C 0.44659 0.34768 0.91865
 H1622 H 0.45388 0.34048 0.90460
 O1623 O 0.52387 0.61050 0.92726
 O1624 O 0.52435 0.63593 0.90279
 C1625 C 0.53129 0.62798 0.92021
 C1626 C 0.54847 0.63874 0.93230
 C1627 C 0.55686 0.65833 0.92538
 H1628 H 0.55052 0.66578 0.91106
 O1629 O 0.39411 0.42485 0.97856
 O1630 O 0.36862 0.40071 0.97749
 C1631 C 0.37683 0.41794 0.97058
 C1632 C 0.36654 0.42992 0.95283
 C1633 C 0.34708 0.42303 0.94400
 H1634 H 0.33932 0.40897 0.95038
 O1635 O 0.60588 0.57938 0.98413
 O1636 O 0.63109 0.60377 0.98585
 C1637 C 0.62351 0.58700 0.97750
 C1638 C 0.63512 0.57637 0.95970
 C1639 C 0.65533 0.58352 0.95310
 H1640 H 0.66246 0.59699 0.96117
 O1641 O 0.52063 0.42738 0.89690
 O1642 O 0.52138 0.40364 0.87082
 C1643 C 0.52819 0.42079 0.87911
 C1644 C 0.54546 0.43277 0.86814
 C1645 C 0.55272 0.42610 0.84786
 H1646 H 0.54526 0.41261 0.84012
 O1647 O 0.48282 0.58177 0.89709
 O1648 O 0.48319 0.60698 0.87238
 C1649 C 0.47584 0.58952 0.87961
 C1650 C 0.45870 0.57834 0.86786
 C1651 C 0.45141 0.58618 0.84804
 H1652 H 0.45863 0.60032 0.84121
 O1653 O 0.39761 0.52478 0.92427
 O1654 O 0.37308 0.52596 0.89901
 C1655 C 0.38063 0.53265 0.91674
 C1656 C 0.36998 0.55011 0.92854
 C1657 C 0.35096 0.55891 0.92080
 H1658 H 0.34391 0.55272 0.90620
 O1659 O 0.60739 0.48368 0.92640
 O1660 O 0.63236 0.48391 0.90121
 C1661 C 0.62473 0.47654 0.91871
 C1662 C 0.63586 0.45920 0.92998
 C1663 C 0.65581 0.45222 0.92263
 H1664 H 0.66318 0.45981 0.90877
 O1665 O 0.57862 0.39662 0.98032
 O1666 O 0.60321 0.37184 0.97956
 C1667 C 0.58607 0.37962 0.97235
 C1668 C 0.57486 0.36911 0.95426
 C1669 C 0.58282 0.35031 0.94513
 H1670 H 0.59716 0.34331 0.95152
 O1671 O 0.42722 0.60804 0.98514
 O1672 O 0.40262 0.63282 0.98580
 C1673 C 0.41994 0.62553 0.97830
 C1674 C 0.43113 0.63714 0.96079
 C1675 C 0.42321 0.65655 0.95345
 H1676 H 0.40985 0.66373 0.96175
 Cu1677 Cu 0.59037 0.50457 0.91460
 Cu1678 Cu 0.62027 0.50467 0.88428
 Cu1679 Cu 0.41434 0.50413 0.91164
 Cu1680 Cu 0.38492 0.50529 0.88131
 Cu1681 Cu 0.58839 0.59025 1.00555
 Cu1682 Cu 0.61858 0.61966 1.00760
 Cu1683 Cu 0.59003 0.41327 1.00218
 Cu1684 Cu 0.61949 0.38348 1.00137
 Cu1685 Cu 0.41453 0.59019 1.00538
 Cu1686 Cu 0.38495 0.61994 1.00584
 Cu1687 Cu 0.41032 0.41223 0.99990
 Cu1688 Cu 0.37983 0.38309 0.99873
 Cu1689 Cu 0.50334 0.59360 0.91467
 Cu1690 Cu 0.50377 0.62398 0.88512
 Cu1691 Cu 0.49986 0.41379 0.91318
 Cu1692 Cu 0.50090 0.38527 0.88186
 C1693 C 0.55571 0.44991 0.87827
 H1694 H 0.55035 0.45496 0.89409
 C1695 C 0.57024 0.43591 0.83787
 C1696 C 0.44876 0.56039 0.87695
 H1697 H 0.45404 0.55450 0.89244
 C1698 C 0.43435 0.57640 0.83735
 C1699 C 0.44864 0.62814 0.95014
 H1700 H 0.45464 0.61300 0.95560
 C1701 C 0.43202 0.66664 0.93524
 C1702 C 0.55666 0.37844 0.94531
 H1703 H 0.55068 0.39315 0.95192
 C1704 C 0.57281 0.34093 0.92726
 C1705 C 0.62607 0.44877 0.94746
 H1706 H 0.61048 0.45380 0.95290
 C1707 C 0.66597 0.43502 0.93256
 C1708 C 0.37947 0.55887 0.94703
 H1709 H 0.39438 0.55256 0.95281
 C1710 C 0.34141 0.57615 0.93142
 C1711 C 0.55839 0.56074 0.87831
 H1712 H 0.55246 0.55514 0.89377
 C1713 C 0.57466 0.57583 0.83880
 C1714 C 0.44608 0.44849 0.87554
 H1715 H 0.45146 0.45404 0.89113
 C1716 C 0.43176 0.43348 0.83537
 C1717 C 0.62569 0.55931 0.94881
 H1718 H 0.60996 0.55394 0.95366
 C1719 C 0.66623 0.57373 0.93592
 C1720 C 0.37674 0.44788 0.94389
 H1721 H 0.39191 0.45308 0.95026
 C1722 C 0.33797 0.43380 0.92644
 C1723 C 0.55734 0.62875 0.95035
 H1724 H 0.55129 0.61342 0.95546
 C1725 C 0.57388 0.66795 0.93642
 C1726 C 0.44451 0.37658 0.94435
 H1727 H 0.45020 0.39173 0.95023
 C1728 C 0.42873 0.33797 0.92848
 C1729 C 1.10617 1.13782 1.28674
 C1730 C 1.11655 1.12381 1.27245
 C1731 C 1.13802 1.11860 1.27691
 C1732 C 1.14816 1.12639 1.29561
 C1733 C 1.13768 1.14057 1.30954
 C1734 C 1.11657 1.14612 1.30468
 C1735 C 1.14938 1.10597 1.26246
 C1736 C 1.14018 1.09899 1.24333
 C1737 C 1.11885 1.10375 1.23821
 C1738 C 1.10652 1.11535 1.25358
 C1739 C 1.08451 1.11778 1.24978
 C1740 C 1.07499 1.10971 1.23130
 C1741 C 1.08705 1.09952 1.21549
 C1742 C 1.10924 1.09683 1.21848
 C1743 C 1.12097 1.08770 1.20135
 C1744 C 1.11092 1.08068 1.18262
 C1745 C 1.08874 1.08213 1.18021
 C1746 C 1.07697 1.09191 1.19673
 H1747 H 1.09020 1.14335 1.28411
 H1748 H 1.16454 1.12208 1.29872
 H1749 H 1.10779 1.15703 1.31482
 H1750 H 1.16575 1.10176 1.26574
 H1751 H 1.15005 1.08929 1.23311
 H1752 H 1.07398 1.12527 1.26120
 H1753 H 1.05800 1.11172 1.22926
 H1754 H 1.13805 1.08624 1.20171
 H1755 H 1.12072 1.07418 1.16984
 H1756 H 1.05987 1.09333 1.19521
 C1757 C 1.15243 0.61932 0.77071
 C1758 C 1.13077 0.61935 0.76460
 C1759 C 1.11589 0.62863 0.77907
 C1760 C 1.12272 0.63799 0.79848
 C1761 C 1.14420 0.63744 0.80432
 C1762 C 1.15890 0.62806 0.79025
 C1763 C 1.09424 0.62814 0.77431
 C1764 C 1.08688 0.61809 0.75584
 C1765 C 1.10102 0.60852 0.74098
 C1766 C 1.12337 0.61004 0.74495
 C1767 C 1.13759 0.60246 0.72901
 C1768 C 1.13027 0.59325 0.71010
 C1769 C 1.10854 0.59072 0.70647
 C1770 C 1.09358 0.59792 0.72202
 C1771 C 1.07177 0.59399 0.71799
 C1772 C 1.06518 0.58437 0.69888
 C1773 C 1.07998 0.57832 0.68304
 C1774 C 1.10171 0.58123 0.68717
 H1775 H 1.16473 0.61203 0.76113
 H1776 H 1.11120 0.64490 0.80947
 H1777 H 1.17559 0.62736 0.79445
 H1778 H 1.08278 0.63531 0.78518
 H1779 H 1.06994 0.61854 0.75338
 H1780 H 1.15461 0.60395 0.73035
 H1781 H 1.14180 0.58792 0.69823
 H1782 H 1.05939 0.59787 0.72940
 H1783 H 1.04832 0.58169 0.69647
 H1784 H 1.11335 0.57664 0.67508
 C1785 C 0.61728 1.15124 0.77824
 C1786 C 0.62125 1.13093 0.76960
 C1787 C 0.63463 1.11722 0.78149
 C1788 C 0.64451 1.12420 0.80060
 C1789 C 0.64016 1.14437 0.80918
 C1790 C 0.62632 1.15766 0.79770
 C1791 C 0.63771 1.09644 0.77449
 C1792 C 0.62722 1.08872 0.75638
 C1793 C 0.61385 1.10181 0.74396
 C1794 C 0.61187 1.12358 0.74995
 C1795 C 0.60097 1.13734 0.73587
 C1796 C 0.59183 1.12999 0.71690
 C1797 C 0.59238 1.10852 0.71158
 C1798 C 0.60287 1.09403 0.72535
 C1799 C 0.60156 1.07226 0.72014
 C1800 C 0.59121 1.06538 0.70152
 C1801 C 0.58208 1.07986 0.68707
 C1802 C 0.58256 1.10149 0.69248
 H1803 H 0.60656 1.16229 0.77077
 H1804 H 0.65479 1.11345 0.80930
 H1805 H 0.62239 1.17329 0.80368
 H1806 H 0.64798 1.08585 0.78337
 H1807 H 0.63048 1.07252 0.75205
 H1808 H 0.59992 1.15415 0.73870
 H1809 H 0.58395 1.14122 0.70642
 H1810 H 0.60789 1.06010 0.73048
 H1811 H 0.59030 1.04851 0.69855
 H1812 H 0.57563 1.11302 0.68167
 C1813 C 0.60658 0.64072 1.29001
 C1814 C 0.61152 0.62075 1.28107
 C1815 C 0.62483 0.60714 1.29315
 C1816 C 0.63386 0.61400 1.31270
 C1817 C 0.62886 0.63397 1.32136
 C1818 C 0.61491 0.64705 1.30978
 C1819 C 0.62882 0.58665 1.28578
 C1820 C 0.61940 0.57914 1.26701
 C1821 C 0.60625 0.59219 1.25431
 C1822 C 0.60325 0.61368 1.26085
 C1823 C 0.59256 0.62754 1.24671
 C1824 C 0.58454 0.62051 1.22714
 C1825 C 0.58612 0.59928 1.22119
 C1826 C 0.59650 0.58468 1.23493
 C1827 C 0.59635 0.56309 1.22883
 C1828 C 0.58714 0.55655 1.20949
 C1829 C 0.57800 0.57123 1.19529
 C1830 C 0.57744 0.59262 1.20146
 H1831 H 0.59572 0.65157 1.28246
 H1832 H 0.64422 0.60341 1.32149
 H1833 H 0.61040 0.66248 1.31586
 H1834 H 0.63903 0.57615 1.29484
 H1835 H 0.62335 0.56316 1.26241
 H1836 H 0.59084 0.64422 1.24996
 H1837 H 0.57676 0.63181 1.21666
 H1838 H 0.60274 0.55079 1.23896
 H1839 H 0.58711 0.53980 1.20573
 H1840 H 0.57056 0.60428 1.19076
 C1841 C 0.88341 0.84916 1.27366
 C1842 C 0.87833 0.86920 1.26503
 C1843 C 0.86262 0.88129 1.27588
 C1844 C 0.85116 0.87264 1.29348
 C1845 C 0.85593 0.85234 1.30148
 C1846 C 0.87259 0.84105 1.29158
 C1847 C 0.85848 0.90196 1.26909
 C1848 C 0.86983 0.91100 1.25200
 C1849 C 0.88514 0.89931 1.24029
 C1850 C 0.88860 0.87773 1.24623
 C1851 C 0.90156 0.86512 1.23273
 C1852 C 0.91112 0.87343 1.21427
 C1853 C 0.90893 0.89478 1.20897
 C1854 C 0.89651 0.90821 1.22230
 C1855 C 0.89622 0.93004 1.21717
 C1856 C 0.90684 0.93789 1.19893
 C1857 C 0.91781 0.92431 1.18482
 C1858 C 0.91895 0.90272 1.19024
 H1859 H 0.89608 0.83955 1.26724
 H1860 H 0.83879 0.88195 1.30115
 H1861 H 0.87717 0.82553 1.29735
 H1862 H 0.84652 0.91137 1.27727
 H1863 H 0.86559 0.92698 1.24769
 H1864 H 0.90384 0.84843 1.23550
 H1865 H 0.92052 0.86302 1.20413
 H1866 H 0.88834 0.94152 1.22726
 H1867 H 0.90643 0.95479 1.19596
 H1868 H 0.92726 0.89184 1.17968
 C1869 C 0.86289 0.39625 0.79164
 C1870 C 0.87766 0.38685 0.77731
 C1871 C 0.88370 0.36561 0.78142
 C1872 C 0.87580 0.35468 0.79960
 C1873 C 0.86076 0.36404 0.81345
 C1874 C 0.85450 0.38499 0.80917
 C1875 C 0.89727 0.35519 0.76713
 C1876 C 0.90431 0.36504 0.74832
 C1877 C 0.89856 0.38608 0.74337
 C1878 C 0.88610 0.39757 0.75872
 C1879 C 0.88279 0.41942 0.75510
 C1880 C 0.89086 0.42954 0.73682
 C1881 C 0.90183 0.41820 0.72101
 C1882 C 0.90533 0.39619 0.72381
 C1883 C 0.91504 0.38505 0.70665
 C1884 C 0.92197 0.39555 0.68808
 C1885 C 0.91981 0.41757 0.68591
 C1886 C 0.90937 0.42876 0.70240
 H1887 H 0.85684 0.41203 0.78929
 H1888 H 0.88075 0.33846 0.80234
 H1889 H 0.84293 0.39287 0.81937
 H1890 H 0.90217 0.33903 0.77027
 H1891 H 0.91484 0.35591 0.73822
 H1892 H 0.87456 0.42935 0.76653
 H1893 H 0.88820 0.44640 0.73489
 H1894 H 0.91696 0.36808 0.70681
 H1895 H 0.92895 0.38622 0.67523
 H1896 H 0.90734 0.44574 0.70092
 C1897 C 0.40856 0.88324 0.80146
 C1898 C 0.39617 0.89342 0.78556
 C1899 C 0.37402 0.89552 0.78967
 C1900 C 0.36488 0.88763 0.80886
 C1901 C 0.37729 0.87681 0.82393
 C1902 C 0.39920 0.87498 0.82017
 C1903 C 0.36096 0.90491 0.77434
 C1904 C 0.36913 0.91143 0.75453
 C1905 C 0.39091 0.90909 0.74933
 C1906 C 0.40483 0.90090 0.76548
 C1907 C 0.42690 0.90043 0.76098
 C1908 C 0.43504 0.90698 0.74115
 C1909 C 0.42157 0.91389 0.72484
 C1910 C 0.39929 0.91486 0.72858
 C1911 C 0.38628 0.92116 0.71118
 C1912 C 0.39511 0.92691 0.69130
 C1913 C 0.41719 0.92664 0.68794
 C1914 C 0.43032 0.91988 0.70477
 H1915 H 0.42539 0.88062 0.79964
 H1916 H 0.34786 0.88894 0.81149
 H1917 H 0.40918 0.86671 0.83159
 H1918 H 0.34409 0.90684 0.77749
 H1919 H 0.35791 0.91856 0.74369
 H1920 H 0.43847 0.89536 0.77261
 H1921 H 0.45210 0.90638 0.73849
 H1922 H 0.36916 0.92143 0.71219
 H1923 H 0.38453 0.93145 0.67839
 H1924 H 0.44742 0.91960 0.70235
 C1925 C 0.37450 0.33978 1.26832
 C1926 C 0.37101 0.36069 1.26119
 C1927 C 0.35633 0.37325 1.27295
 C1928 C 0.34440 0.36442 1.29013
 C1929 C 0.34786 0.34344 1.29683
 C1930 C 0.36333 0.33147 1.28584
 C1931 C 0.35387 0.39459 1.26765
 C1932 C 0.36606 0.40385 1.25129
 C1933 C 0.38051 0.39178 1.23886
 C1934 C 0.38204 0.36961 1.24311
 C1935 C 0.39399 0.35693 1.22876
 C1936 C 0.40459 0.36571 1.21116
 C1937 C 0.40439 0.38751 1.20761
 C1938 C 0.39291 0.40096 1.22178
 C1939 C 0.39454 0.42306 1.21837
 C1940 C 0.40599 0.43126 1.20084
 C1941 C 0.41595 0.41779 1.18590
 C1942 C 0.41537 0.39589 1.18971
 H1943 H 0.38633 0.32963 1.26116
 H1944 H 0.33295 0.37416 1.29866
 H1945 H 0.36681 0.31532 1.29053
 H1946 H 0.34269 0.40436 1.27650
 H1947 H 0.36320 0.42039 1.24814
 H1948 H 0.39469 0.33992 1.23015
 H1949 H 0.41320 0.35531 1.20032
 H1950 H 0.38749 0.43441 1.22921
 H1951 H 0.40690 0.44830 1.19893
 H1952 H 0.42293 0.38519 1.17839
 C1953 C 0.87506 1.09640 0.70216
 C1954 C 0.88904 1.10704 0.71622
 C1955 C 0.89397 1.12860 0.71176
 C1956 C 0.88574 1.13869 0.69332
 C1957 C 0.87113 1.12810 0.68002
 C1958 C 0.86613 1.10681 0.68468
 C1959 C 0.90643 1.14015 0.72618
 C1960 C 0.91305 1.13114 0.74550
 C1961 C 0.90818 1.10984 0.75072
 C1962 C 0.89740 1.09722 0.73511
 C1963 C 0.89539 1.07520 0.73884
 C1964 C 0.90262 1.06601 0.75778
 C1965 C 0.91147 1.07844 0.77402
 C1966 C 0.91403 1.10060 0.77089
 C1967 C 0.92171 1.11272 0.78835
 C1968 C 0.92746 1.10306 0.80768
 C1969 C 0.92611 1.08099 0.81027
 C1970 C 0.91781 1.06880 0.79339
 H1971 H 0.86979 1.08032 0.70483
 H1972 H 0.88963 1.15519 0.69023
 H1973 H 0.85507 1.09792 0.67479
 H1974 H 0.91051 1.15655 0.72285
 H1975 H 0.92248 1.14113 0.75586
 H1976 H 0.88884 1.06447 0.72707
 H1977 H 0.90088 1.04902 0.75989
 H1978 H 0.92287 1.12976 0.78780
 H1979 H 0.93293 1.11305 0.82074
 H1980 H 0.91655 1.05175 0.79518
 C1981 C 0.86704 0.60381 0.20693
 C1982 C 0.87734 0.61435 0.22414
 C1983 C 0.87999 0.63666 0.22248
 C1984 C 0.87281 0.64769 0.20424
 C1985 C 0.86209 0.63704 0.18773
 C1986 C 0.85943 0.61503 0.18918
 C1987 C 0.88933 0.64798 0.23925
 C1988 C 0.89543 0.63784 0.25807
 C1989 C 0.89278 0.61574 0.26075
 C1990 C 0.88456 0.60366 0.24313
 C1991 C 0.88404 0.58134 0.24503
 C1992 C 0.89097 0.57118 0.26360
 C1993 C 0.89814 0.58280 0.28127
 C1994 C 0.89863 0.60528 0.28029
 C1995 C 0.90476 0.61638 0.29907
 C1996 C 0.91154 0.60562 0.31737
 C1997 C 0.91243 0.58344 0.31776
 C1998 C 0.90513 0.57207 0.29984
 H1999 H 0.86389 0.58701 0.20701
 H2000 H 0.87466 0.66477 0.20341
 H2001 H 0.85113 0.60643 0.17664
 H2002 H 0.89163 0.66498 0.23797
 H2003 H 0.90269 0.64778 0.27010
 H2004 H 0.87887 0.57114 0.23214
 H2005 H 0.89060 0.55401 0.26418
 H2006 H 0.90429 0.63340 0.30028
 H2007 H 0.91633 0.61476 0.33133
 H2008 H 0.90551 0.55490 0.30011
 C2009 C 0.37522 1.09726 0.20355
 C2010 C 0.38920 1.10843 0.21721
 C2011 C 0.39396 1.12986 0.21199
 C2012 C 0.38562 1.13927 0.19322
 C2013 C 0.37121 1.12809 0.18017
 C2014 C 0.36629 1.10696 0.18564
 C2015 C 0.40647 1.14193 0.22592
 C2016 C 0.41345 1.13355 0.24540
 C2017 C 0.40886 1.11237 0.25134
 C2018 C 0.39780 1.09925 0.23632
 C2019 C 0.39584 1.07737 0.24082
 C2020 C 0.40334 1.06878 0.25992
 C2021 C 0.41254 1.08168 0.27556
 C2022 C 0.41519 1.10372 0.27166
 C2023 C 0.42349 1.11627 0.28853
 C2024 C 0.42948 1.10717 0.30809
 C2025 C 0.42772 1.08523 0.31152
 C2026 C 0.41909 1.07262 0.29514
 H2027 H 0.37002 1.08126 0.20680
 H2028 H 0.38945 1.15567 0.18953
 H2029 H 0.35534 1.09763 0.17606
 H2030 H 0.41040 1.15826 0.22203
 H2031 H 0.42292 1.14393 0.25531
 H2032 H 0.38907 1.06627 0.22954
 H2033 H 0.40155 1.05188 0.26263
 H2034 H 0.42495 1.13326 0.28736
 H2035 H 0.43533 1.11750 0.32070
 H2036 H 0.41762 1.05565 0.29751
 C2037 C 0.34917 0.62307 0.73203
 C2038 C 0.37099 0.62429 0.73743
 C2039 C 0.38490 0.63481 0.72273
 C2040 C 0.37698 0.64421 0.70383
 C2041 C 0.35531 0.64276 0.69880
 C2042 C 0.34157 0.63207 0.71305
 C2043 C 0.40667 0.63571 0.72682
 C2044 C 0.41513 0.62601 0.74495
 C2045 C 0.40200 0.61531 0.76009
 C2046 C 0.37949 0.61513 0.75666
 C2047 C 0.36619 0.60607 0.77272
 C2048 C 0.37454 0.59705 0.79122
 C2049 C 0.39645 0.59631 0.79437
 C2050 C 0.41057 0.60514 0.77878
 C2051 C 0.43269 0.60323 0.78253
 C2052 C 0.44029 0.59363 0.80126
 C2053 C 0.42621 0.58557 0.81691
 C2054 C 0.40428 0.58686 0.81323
 H2055 H 0.33754 0.61483 0.74181
 H2056 H 0.38781 0.65218 0.69276
 H2057 H 0.32476 0.63062 0.70954
 H2058 H 0.41738 0.64382 0.71572
 H2059 H 0.43208 0.62758 0.74687
 H2060 H 0.34909 0.60612 0.77177
 H2061 H 0.36368 0.59046 0.80316
 H2062 H 0.44459 0.60869 0.77120
 H2063 H 0.45733 0.59240 0.80344
 H2064 H 0.39319 0.58087 0.82528
 C2065 C 1.12594 0.90177 0.69935
 C2066 C 1.11566 0.88980 0.71575
 C2067 C 1.11325 0.86767 0.71235
 C2068 C 1.12046 0.85822 0.69308
 C2069 C 1.13085 0.87034 0.67720
 C2070 C 1.13345 0.89215 0.68056
 C2071 C 1.10399 0.85500 0.72833
 C2072 C 1.09755 0.86363 0.74791
 C2073 C 1.09975 0.88552 0.75220
 C2074 C 1.10814 0.89894 0.73552
 C2075 C 1.10852 0.92106 0.73908
 C2076 C 1.10145 0.92975 0.75839
 C2077 C 1.09411 0.91684 0.77516
 C2078 C 1.09345 0.89452 0.77247
 C2079 C 1.08676 0.88212 0.79035
 C2080 C 1.08023 0.89157 0.80961
 C2081 C 1.08004 0.91368 0.81187
 C2082 C 1.08730 0.92620 0.79460
 H2083 H 1.12901 0.91852 0.70073
 H2084 H 1.11862 0.84128 0.69078
 H2085 H 1.14146 0.90193 0.66859
 H2086 H 1.10194 0.83812 0.72580
 H2087 H 1.09045 0.85270 0.75925
 H2088 H 1.11377 0.93225 0.72700
 H2089 H 1.10188 0.94683 0.76027
 H2090 H 1.08671 0.86506 0.79017
 H2091 H 1.07540 0.88143 0.82291
 H2092 H 1.08728 0.94332 0.79612
 C2093 C 1.15656 0.36597 0.23835
 C2094 C 1.13462 0.36468 0.24314
 C2095 C 1.12161 0.35230 0.22932
 C2096 C 1.13061 0.34110 0.21182
 C2097 C 1.15237 0.34332 0.20680
 C2098 C 1.16511 0.35574 0.22049
 C2099 C 1.09961 0.35183 0.23259
 C2100 C 1.09017 0.36413 0.24861
 C2101 C 1.10250 0.37682 0.26260
 C2102 C 1.12515 0.37601 0.26065
 C2103 C 1.13761 0.38640 0.27635
 C2104 C 1.12832 0.39807 0.29280
 C2105 C 1.10631 0.40030 0.29403
 C2106 C 1.09304 0.39000 0.27879
 C2107 C 1.07088 0.39363 0.28023
 C2108 C 1.06233 0.40612 0.29671
 C2109 C 1.07546 0.41535 0.31237
 C2110 C 1.09751 0.41258 0.31069
 H2111 H 1.16748 0.37563 0.24743
 H2112 H 1.12039 0.33185 0.20135
 H2113 H 1.18200 0.35781 0.21742
 H2114 H 1.08951 0.34233 0.22225
 H2115 H 1.07309 0.36298 0.24998
 H2116 H 1.15470 0.38531 0.27679
 H2117 H 1.13853 0.40564 0.30458
 H2118 H 1.05977 0.38733 0.26868
 H2119 H 1.04527 0.40845 0.29725
 H2120 H 1.10787 0.41948 0.32274
 C2121 C 0.59921 0.86445 0.20982
 C2122 C 0.60929 0.87891 0.22395
 C2123 C 0.63047 0.88516 0.21903
 C2124 C 0.64050 0.87820 0.20009
 C2125 C 0.63036 0.86387 0.18614
 C2126 C 0.60968 0.85691 0.19142
 C2127 C 0.64172 0.89818 0.23314
 C2128 C 0.63266 0.90464 0.25247
 C2129 C 0.61158 0.89894 0.25807
 C2130 C 0.59929 0.88698 0.24301
 C2131 C 0.57735 0.88404 0.24723
 C2132 C 0.56786 0.89223 0.26575
 C2133 C 0.58000 0.90272 0.28125
 C2134 C 0.60218 0.90550 0.27796
 C2135 C 0.61418 0.91437 0.29492
 C2136 C 0.60434 0.92138 0.31376
 C2137 C 0.58216 0.92022 0.31632
 C2138 C 0.57011 0.91050 0.30004
 H2139 H 0.58350 0.85815 0.21292
 H2140 H 0.65663 0.88353 0.19666
 H2141 H 0.60136 0.84571 0.18122
 H2142 H 0.65787 0.90316 0.22937
 H2143 H 0.64231 0.91486 0.26237
 H2144 H 0.56690 0.87619 0.23602
 H2145 H 0.55087 0.89003 0.26811
 H2146 H 0.63131 0.91548 0.29440
 H2147 H 0.61431 0.92762 0.32647
 H2148 H 0.55298 0.90920 0.30178
 C2149 C 0.65480 0.37281 0.74115
 C2150 C 0.63276 0.37610 0.74447
 C2151 C 0.61851 0.36768 0.72896
 C2152 C 0.62619 0.35646 0.71100
 C2153 C 0.64808 0.35404 0.70771
 C2154 C 0.66224 0.36209 0.72303
 C2155 C 0.59670 0.37092 0.73113
 C2156 C 0.58863 0.38285 0.74805
 C2157 C 0.60212 0.39185 0.76376
 C2158 C 0.62448 0.38782 0.76235
 C2159 C 0.63779 0.39553 0.77890
 C2160 C 0.62966 0.40694 0.79613
 C2161 C 0.60804 0.41145 0.79746
 C2162 C 0.59396 0.40435 0.78115
 C2163 C 0.57225 0.41004 0.78302
 C2164 C 0.56479 0.42107 0.80098
 C2165 C 0.57866 0.42701 0.81752
 C2166 C 0.60035 0.42263 0.81539
 H2167 H 0.66685 0.37884 0.75181
 H2168 H 0.61515 0.35046 0.69905
 H2169 H 0.67926 0.36038 0.72083
 H2170 H 0.58572 0.36439 0.71942
 H2171 H 0.57158 0.38443 0.74852
 H2172 H 0.65464 0.39265 0.77936
 H2173 H 0.64046 0.41228 0.80860
 H2174 H 0.56059 0.40621 0.77096
 H2175 H 0.54799 0.42470 0.80214
 H2176 H 0.61116 0.42712 0.82819
 C2177 C 1.28643 1.09946 1.13545
 C2178 C 1.27601 1.10591 1.11647
 C2179 C 1.28596 1.12167 1.10349
 C2180 C 1.30446 1.13209 1.11063
 C2181 C 1.31430 1.12596 1.12995
 C2182 C 1.30533 1.10909 1.14185
 C2183 C 1.27741 1.12685 1.08345
 C2184 C 1.25940 1.11642 1.07586
 C2185 C 1.24854 1.10124 1.08866
 C2186 C 1.25626 1.09693 1.10980
 C2187 C 1.24357 1.08455 1.12394
 C2188 C 1.22406 1.07641 1.11746
 C2189 C 1.21701 1.07932 1.09638
 C2190 C 1.22961 1.09097 1.08142
 C2191 C 1.22287 1.09164 1.05974
 C2192 C 1.20365 1.08238 1.05360
 C2193 C 1.19014 1.07266 1.06889
 C2194 C 1.19725 1.07086 1.09025
 H2195 H 1.28067 1.08655 1.14536
 H2196 H 1.31145 1.14459 1.10081
 H2197 H 1.31256 1.10354 1.15663
 H2198 H 1.28491 1.13885 1.07337
 H2199 H 1.25366 1.12136 1.06028
 H2200 H 1.24780 1.08185 1.14055
 H2201 H 1.21450 1.06755 1.12903
 H2202 H 1.23242 1.09873 1.04709
 H2203 H 1.19936 1.08300 1.03672
 H2204 H 1.18724 1.06337 1.10238
 C2205 C 1.27007 0.62031 0.64931
 C2206 C 1.26288 0.62414 0.62812
 C2207 C 1.27549 0.63753 0.61470
 C2208 C 1.29395 0.64747 0.62277
 C2209 C 1.30099 0.64332 0.64386
 C2210 C 1.28875 0.62954 0.65687
 C2211 C 1.26982 0.64056 0.59318
 C2212 C 1.25234 0.63006 0.58446
 C2213 C 1.23928 0.61665 0.59723
 C2214 C 1.24398 0.61462 0.61968
 C2215 C 1.22943 0.60349 0.63304
 C2216 C 1.21131 0.59398 0.62466
 C2217 C 1.20724 0.59462 0.60258
 C2218 C 1.22134 0.60559 0.58845
 C2219 C 1.21705 0.60470 0.56608
 C2220 C 1.19909 0.59409 0.55830
 C2221 C 1.18462 0.58415 0.57245
 C2222 C 1.18898 0.58440 0.59462
 H2223 H 1.26204 0.60960 0.66025
 H2224 H 1.30325 0.65775 0.61225
 H2225 H 1.29354 0.62575 0.67320
 H2226 H 1.27927 0.65084 0.58280
 H2227 H 1.24908 0.63327 0.56772
 H2228 H 1.23122 0.60241 0.65029
 H2229 H 1.20049 0.58581 0.63559
 H2230 H 1.22753 0.61163 0.55413
 H2231 H 1.19662 0.59362 0.54102
 H2232 H 1.17794 0.57696 0.60586
 C2233 C 0.78395 1.10309 0.63953
 C2234 C 0.77325 1.10911 0.62060
 C2235 C 0.78304 1.12454 0.60707
 C2236 C 0.80183 1.13496 0.61355
 C2237 C 0.81216 1.12898 0.63264
 C2238 C 0.80313 1.11257 0.64519
 C2239 C 0.77415 1.12920 0.58704
 C2240 C 0.75611 1.11843 0.57995
 C2241 C 0.74554 1.10345 0.59325
 C2242 C 0.75345 1.09986 0.61444
 C2243 C 0.74097 1.08778 0.62905
 C2244 C 0.72153 1.07915 0.62294
 C2245 C 0.71435 1.08124 0.60180
 C2246 C 0.72676 1.09263 0.58643
 C2247 C 0.72001 1.09245 0.56477
 C2248 C 0.70088 1.08279 0.55901
 C2249 C 0.68743 1.07354 0.57466
 C2250 C 0.69465 1.07232 0.59601
 H2251 H 0.77826 1.09049 0.64990
 H2252 H 0.80879 1.14713 0.60328
 H2253 H 0.81061 1.10719 0.65991
 H2254 H 0.78147 1.14094 0.57653
 H2255 H 0.75014 1.12289 0.56431
 H2256 H 0.74533 1.08567 0.64572
 H2257 H 0.71215 1.07053 0.63484
 H2258 H 0.72948 1.09923 0.55187
 H2259 H 0.69652 1.08288 0.54213
 H2260 H 0.68474 1.06501 0.60833
 C2261 C 0.77100 0.65021 1.11660
 C2262 C 0.76529 0.62853 1.11807
 C2263 C 0.77990 0.61454 1.12794
 C2264 C 0.79882 0.62232 1.13697
 C2265 C 0.80390 0.64393 1.13583
 C2266 C 0.78996 0.65769 1.12532
 C2267 C 0.77559 0.59287 1.12874
 C2268 C 0.75716 0.58463 1.11972
 C2269 C 0.74194 0.59791 1.10999
 C2270 C 0.74573 0.62030 1.10989
 C2271 C 0.72962 0.63377 1.10214
 C2272 C 0.71067 0.62569 1.09427
 C2273 C 0.70714 0.60392 1.09336
 C2274 C 0.72279 0.58963 1.10084
 C2275 C 0.71861 0.56766 1.09869
 C2276 C 0.69943 0.56036 1.09013
 C2277 C 0.68381 0.57462 1.08344
 C2278 C 0.68785 0.59639 1.08508
 H2279 H 0.76140 0.66180 1.10849
 H2280 H 0.80971 0.61147 1.14472
 H2281 H 0.79358 0.67445 1.12399
 H2282 H 0.78668 0.58210 1.13630
 H2283 H 0.75502 0.56775 1.12120
 H2284 H 0.73085 0.65079 1.10253
 H2285 H 0.69866 0.63667 1.08871
 H2286 H 0.72993 0.55568 1.10309
 H2287 H 0.69691 0.54343 1.08856
 H2288 H 0.67578 0.60761 1.08020
 C2289 C 1.28624 0.85726 0.89569
 C2290 C 1.27686 0.87688 0.89040
 C2291 C 1.28876 0.89105 0.87718
 C2292 C 1.30859 0.88506 0.86854
 C2293 C 1.31768 0.86543 0.87380
 C2294 C 1.30629 0.85179 0.88773
 C2295 C 1.28092 0.91123 0.87282
 C2296 C 1.26176 0.91790 0.88174
 C2297 C 1.24919 0.90428 0.89476
 C2298 C 1.25631 0.88307 0.89815
 C2299 C 1.24241 0.86862 0.90861
 C2300 C 1.22240 0.87478 0.91586
 C2301 C 1.21577 0.89574 0.91382
 C2302 C 1.22936 0.91094 0.90387
 C2303 C 1.22266 0.93227 0.90375
 C2304 C 1.20281 0.93798 0.91203
 C2305 C 1.18869 0.92269 0.92043
 C2306 C 1.19552 0.90156 0.92154
 H2307 H 1.27876 0.84603 0.90650
 H2308 H 1.31719 0.89609 0.85820
 H2309 H 1.31274 0.83660 0.89244
 H2310 H 1.28986 0.92214 0.86266
 H2311 H 1.25677 0.93366 0.87744
 H2312 H 1.24622 0.85211 0.91066
 H2313 H 1.21209 0.86303 0.92338
 H2314 H 1.23263 0.94502 0.89788
 H2315 H 1.19858 0.95459 0.91188
 H2316 H 1.18496 0.88947 0.92804
 C2317 C 1.26007 0.34026 0.37405
 C2318 C 1.25382 0.36126 0.36965
 C2319 C 1.26676 0.37347 0.35543
 C2320 C 1.28446 0.36434 0.34501
 C2321 C 1.29040 0.34334 0.34948
 C2322 C 1.27802 0.33161 0.36432
 C2323 C 1.26214 0.39481 0.35198
 C2324 C 1.24534 0.40446 0.36283
 C2325 C 1.23188 0.39285 0.37693
 C2326 C 1.23550 0.37064 0.37938
 C2327 C 1.22043 0.35842 0.39104
 C2328 C 1.20285 0.36768 0.40072
 C2329 C 1.19990 0.38952 0.39976
 C2330 C 1.21456 0.40252 0.38825
 C2331 C 1.21142 0.42470 0.38888
 C2332 C 1.19402 0.43338 0.39978
 C2333 C 1.17900 0.42034 0.41025
 C2334 C 1.18219 0.39838 0.41020
 H2335 H 1.25186 0.33028 0.38556
 H2336 H 1.29397 0.37388 0.33397
 H2337 H 1.28204 0.31545 0.36848
 H2338 H 1.27188 0.40429 0.34110
 H2339 H 1.24284 0.42098 0.35928
 H2340 H 1.22136 0.34142 0.39233
 H2341 H 1.19157 0.35762 0.40929
 H2342 H 1.22242 0.43578 0.38154
 H2343 H 1.19240 0.45045 0.40008
 H2344 H 1.17068 0.38799 0.41799
 C2345 C 0.76047 0.84407 0.36868
 C2346 C 0.75696 0.86602 0.37150
 C2347 C 0.77269 0.88024 0.36335
 C2348 C 0.79104 0.87258 0.35278
 C2349 C 0.79442 0.85075 0.35084
 C2350 C 0.77888 0.83669 0.35868
 C2351 C 0.77028 0.90200 0.36623
 C2352 C 0.75291 0.91002 0.37751
 C2353 C 0.73695 0.89655 0.38619
 C2354 C 0.73868 0.87423 0.38253
 C2355 C 0.72204 0.86087 0.38996
 C2356 C 0.70451 0.86888 0.40086
 C2357 C 0.70285 0.89047 0.40510
 C2358 C 0.71912 0.90464 0.39810
 C2359 C 0.71681 0.92633 0.40340
 C2360 C 0.69870 0.93360 0.41421
 C2361 C 0.68232 0.91961 0.42028
 C2362 C 0.68472 0.89797 0.41602
 H2363 H 0.74966 0.83205 0.37455
 H2364 H 0.80313 0.88356 0.34696
 H2365 H 0.78108 0.81972 0.35733
 H2366 H 0.78213 0.91298 0.35994
 H2367 H 0.75235 0.92701 0.37890
 H2368 H 0.72180 0.84403 0.38729
 H2369 H 0.69207 0.85799 0.40606
 H2370 H 0.72867 0.93813 0.39950
 H2371 H 0.69743 0.95036 0.41771
 H2372 H 0.67209 0.88702 0.42054
 C2373 C 0.77274 0.35139 0.88883
 C2374 C 0.76715 0.37304 0.88744
 C2375 C 0.78153 0.38695 0.87668
 C2376 C 0.80005 0.37912 0.86676
 C2377 C 0.80497 0.35752 0.86780
 C2378 C 0.79131 0.34385 0.87920
 C2379 C 0.77737 0.40860 0.87581
 C2380 C 0.75927 0.41689 0.88551
 C2381 C 0.74423 0.40370 0.89608
 C2382 C 0.74792 0.38133 0.89644
 C2383 C 0.73198 0.36794 0.90522
 C2384 C 0.71325 0.37605 0.91365
 C2385 C 0.70976 0.39782 0.91414
 C2386 C 0.72533 0.41204 0.90578
 C2387 C 0.72126 0.43402 0.90758
 C2388 C 0.70225 0.44138 0.91654
 C2389 C 0.68662 0.42719 0.92399
 C2390 C 0.69061 0.40540 0.92283
 H2391 H 0.76330 0.33985 0.89750
 H2392 H 0.81071 0.38993 0.85832
 H2393 H 0.79481 0.32711 0.88048
 H2394 H 0.78829 0.41932 0.86759
 H2395 H 0.75722 0.43374 0.88386
 H2396 H 0.73318 0.35092 0.90525
 H2397 H 0.70135 0.36511 0.91994
 H2398 H 0.73256 0.44598 0.90256
 H2399 H 0.69986 0.45832 0.91776
 H2400 H 0.67859 0.39420 0.92833
 C2401 C 0.72197 0.88916 1.14567
 C2402 C 0.72928 0.88828 1.12403
 C2403 C 0.71636 0.87747 1.10886
 C2404 C 0.69751 0.86722 1.11546
 C2405 C 0.69065 0.86814 1.13698
 C2406 C 0.70294 0.87935 1.15193
 C2407 C 0.72220 0.87703 1.08713
 C2408 C 0.74046 0.88737 1.07994
 C2409 C 0.75401 0.89819 1.09438
 C2410 C 0.74877 0.89794 1.11689
 C2411 C 0.76343 0.90685 1.13154
 C2412 C 0.78247 0.91582 1.12448
 C2413 C 0.78744 0.91688 1.10254
 C2414 C 0.77302 0.90864 1.08712
 C2415 C 0.77826 0.91126 1.06503
 C2416 C 0.79756 0.92040 1.05868
 C2417 C 0.81237 0.92724 1.07402
 C2418 C 0.80696 0.92584 1.09596
 H2419 H 0.73029 0.89772 1.15810
 H2420 H 0.68787 0.85892 1.10368
 H2421 H 0.69789 0.88047 1.16864
 H2422 H 0.71244 0.86872 1.07548
 H2423 H 0.74390 0.88599 1.06295
 H2424 H 0.76101 0.90649 1.14876
 H2425 H 0.79343 0.92207 1.13636
 H2426 H 0.76768 0.90668 1.05221
 H2427 H 0.80096 0.92201 1.04159
 H2428 H 0.81822 0.93114 1.10802
 C2429 C 0.73430 0.37473 0.65945
 C2430 C 0.74066 0.37291 0.63765
 C2431 C 0.72768 0.36061 0.62374
 C2432 C 0.70947 0.35005 0.63174
 C2433 C 0.70300 0.35262 0.65332
 C2434 C 0.71580 0.36497 0.66701
 C2435 C 0.73258 0.35944 0.60179
 C2436 C 0.74955 0.37093 0.59315
 C2437 C 0.76280 0.38353 0.60633
 C2438 C 0.75902 0.38349 0.62910
 C2439 C 0.77386 0.39381 0.64259
 C2440 C 0.79138 0.40446 0.63410
 C2441 C 0.79454 0.40578 0.61186
 C2442 C 0.78006 0.39575 0.59761
 C2443 C 0.78334 0.39862 0.57519
 C2444 C 0.80096 0.40987 0.56738
 C2445 C 0.81593 0.41859 0.58156
 C2446 C 0.81235 0.41683 0.60382
 H2447 H 0.74273 0.38437 0.67095
 H2448 H 0.69974 0.34081 0.62079
 H2449 H 0.71151 0.36736 0.68379
 H2450 H 0.72287 0.34995 0.59105
 H2451 H 0.75225 0.36916 0.57605
 H2452 H 0.77278 0.39337 0.65994
 H2453 H 0.80250 0.41190 0.64509
 H2454 H 0.77244 0.39263 0.56327
 H2455 H 0.80297 0.41158 0.55009
 H2456 H 0.82381 0.42348 0.61497
 C2457 C 0.20841 0.87323 0.58926
 C2458 C 0.22008 0.88946 0.59960
 C2459 C 0.21300 0.89622 0.62023
 C2460 C 0.19431 0.88779 0.62943
 C2461 C 0.18315 0.87129 0.61923
 C2462 C 0.19051 0.86412 0.59907
 C2463 C 0.22494 0.91093 0.63188
 C2464 C 0.24440 0.91820 0.62402
 C2465 C 0.25218 0.91174 0.60366
 C2466 C 0.23903 0.89852 0.59059
 C2467 C 0.24514 0.89503 0.56892
 C2468 C 0.26402 0.90340 0.56064
 C2469 C 0.27801 0.91457 0.57390
 C2470 C 0.27251 0.91841 0.59576
 C2471 C 0.28794 0.92799 0.60908
 C2472 C 0.30775 0.93404 0.60083
 C2473 C 0.31277 0.93140 0.57887
 C2474 C 0.29761 0.92168 0.56549
 H2475 H 0.21331 0.86654 0.57403
 H2476 H 0.18919 0.89338 0.64516
 H2477 H 0.18243 0.85139 0.59069
 H2478 H 0.21952 0.91637 0.64756
 H2479 H 0.25278 0.92946 0.63397
 H2480 H 0.23522 0.88646 0.55775
 H2481 H 0.26800 0.90054 0.54385
 H2482 H 0.28553 0.93011 0.62619
 H2483 H 0.31931 0.94043 0.61198
 H2484 H 0.30100 0.91949 0.54848
 C2485 C 0.23699 0.37147 1.15968
 C2486 C 0.24359 0.36942 1.13794
 C2487 C 0.23170 0.35571 1.12443
 C2488 C 0.21455 0.34386 1.13278
 C2489 C 0.20782 0.34649 1.15427
 C2490 C 0.21932 0.36041 1.16756
 C2491 C 0.23659 0.35432 1.10250
 C2492 C 0.25247 0.36694 1.09345
 C2493 C 0.26471 0.38084 1.10624
 C2494 C 0.26111 0.38106 1.12903
 C2495 C 0.27538 0.39253 1.14217
 C2496 C 0.29228 0.40387 1.13327
 C2497 C 0.29512 0.40494 1.11096
 C2498 C 0.28096 0.39402 1.09709
 C2499 C 0.28350 0.39696 1.07460
 C2500 C 0.30032 0.40902 1.06630
 C2501 C 0.31529 0.41838 1.08006
 C2502 C 0.31228 0.41663 1.10243
 H2503 H 0.24456 0.38222 1.17079
 H2504 H 0.20575 0.33346 1.12210
 H2505 H 0.21465 0.36296 1.18422
 H2506 H 0.22768 0.34375 1.09209
 H2507 H 0.25532 0.36491 1.07640
 H2508 H 0.27440 0.39236 1.15954
 H2509 H 0.30312 0.41209 1.14398
 H2510 H 0.27252 0.39046 1.06302
 H2511 H 0.30172 0.41083 1.04896
 H2512 H 0.32367 0.42377 1.11333
 C2513 C 0.71167 1.13165 0.90047
 C2514 C 0.72546 1.11797 0.88910
 C2515 C 0.72048 1.11329 0.86730
 C2516 C 0.70194 1.12146 0.85772
 C2517 C 0.68876 1.13562 0.86905
 C2518 C 0.69392 1.14042 0.89057
 C2519 C 0.73436 1.10099 0.85499
 C2520 C 0.75354 1.09404 0.86349
 C2521 C 0.75929 1.09849 0.88503
 C2522 C 0.74440 1.10948 0.89840
 C2523 C 0.74884 1.11141 0.92064
 C2524 C 0.76757 1.10364 0.92936
 C2525 C 0.78297 1.09429 0.91623
 C2526 C 0.77924 1.09195 0.89380
 C2527 C 0.79591 1.08367 0.88097
 C2528 C 0.81503 1.07726 0.89019
 C2529 C 0.81827 1.07848 0.91257
 C2530 C 0.80211 1.08725 0.92545
 H2531 H 0.71466 1.13667 0.91679
 H2532 H 0.69851 1.11769 0.84103
 H2533 H 0.68425 1.15120 0.89999
 H2534 H 0.73063 1.09715 0.83838
 H2535 H 0.76337 1.08467 0.85290
 H2536 H 0.73778 1.11833 0.93193
 H2537 H 0.77018 1.10532 0.94656
 H2538 H 0.79491 1.08254 0.86365
 H2539 H 0.82745 1.07148 0.87958
 H2540 H 0.80427 1.08841 0.94275
 C2541 C 0.70069 0.62078 0.41292
 C2542 C 0.71661 0.61063 0.40046
 C2543 C 0.71282 0.60809 0.37804
 C2544 C 0.69386 0.61536 0.36873
 C2545 C 0.67870 0.62605 0.38120
 C2546 C 0.68221 0.62846 0.40337
 C2547 C 0.72822 0.59883 0.36487
 C2548 C 0.74772 0.59281 0.37320
 C2549 C 0.75253 0.59549 0.39527
 C2550 C 0.73635 0.60356 0.40932
 C2551 C 0.74045 0.60422 0.43171
 C2552 C 0.75986 0.59776 0.44005
 C2553 C 0.77617 0.59089 0.42645
 C2554 C 0.77288 0.59001 0.40382
 C2555 C 0.79029 0.58401 0.39064
 C2556 C 0.80964 0.57813 0.39964
 C2557 C 0.81248 0.57796 0.42206
 C2558 C 0.79574 0.58475 0.43538
 H2559 H 0.70233 0.62378 0.42993
 H2560 H 0.69144 0.61366 0.35150
 H2561 H 0.67074 0.63670 0.41338
 H2562 H 0.72532 0.59658 0.34779
 H2563 H 0.75861 0.58569 0.36189
 H2564 H 0.72877 0.60923 0.44339
 H2565 H 0.76218 0.59837 0.45736
 H2566 H 0.78964 0.58404 0.37327
 H2567 H 0.82254 0.57371 0.38890
 H2568 H 0.79779 0.58483 0.45274
 C2569 C 0.22762 1.15342 0.38260
 C2570 C 0.23631 1.13332 0.37821
 C2571 C 0.22475 1.11959 0.36439
 C2572 C 0.20582 1.12644 0.35442
 C2573 C 0.19715 1.14638 0.35934
 C2574 C 0.20839 1.15962 0.37361
 C2575 C 0.23186 1.09893 0.36109
 C2576 C 0.24967 1.09135 0.37186
 C2577 C 0.26171 1.10452 0.38568
 C2578 C 0.25569 1.12620 0.38775
 C2579 C 0.26941 1.14012 0.39894
 C2580 C 0.28803 1.13296 0.40842
 C2581 C 0.29334 1.11155 0.40789
 C2582 C 0.27995 1.09692 0.39701
 C2583 C 0.28515 1.07521 0.39832
 C2584 C 0.30349 1.06855 0.40890
 C2585 C 0.31761 1.08319 0.41825
 C2586 C 0.31212 1.10472 0.41800
 H2587 H 0.23482 1.16442 0.39371
 H2588 H 0.19729 1.11576 0.34381
 H2589 H 0.20242 1.17512 0.37795
 H2590 H 0.22325 1.08830 0.35050
 H2591 H 0.25409 1.07520 0.36849
 H2592 H 0.26660 1.15693 0.39994
 H2593 H 0.29824 1.14431 0.41652
 H2594 H 0.27508 1.06296 0.39176
 H2595 H 0.30664 1.05171 0.40965
 H2596 H 0.32269 1.11631 0.42521
 C2597 C 0.21567 0.60015 0.86826
 C2598 C 0.23014 0.61121 0.88164
 C2599 C 0.22596 0.63287 0.88599
 C2600 C 0.20764 0.64263 0.87786
 C2601 C 0.19367 0.63146 0.86449
 C2602 C 0.19788 0.61021 0.85975
 C2603 C 0.24027 0.64481 0.89810
 C2604 C 0.25910 0.63599 0.90537
 C2605 C 0.26410 0.61457 0.90131
 C2606 C 0.24885 0.60169 0.89030
 C2607 C 0.25267 0.57972 0.88861
 C2608 C 0.27108 0.57073 0.89678
 C2609 C 0.28671 0.58330 0.90632
 C2610 C 0.28366 0.60547 0.90832
 C2611 C 0.30056 0.61768 0.91684
 C2612 C 0.31922 0.60814 0.92389
 C2613 C 0.32174 0.58610 0.92292
 C2614 C 0.30542 0.57379 0.91389
 H2615 H 0.21801 0.58393 0.86345
 H2616 H 0.20468 0.65921 0.88130
 H2617 H 0.18737 0.60127 0.84932
 H2618 H 0.23708 0.66131 0.90167
 H2619 H 0.26920 0.64628 0.91472
 H2620 H 0.24139 0.56886 0.88159
 H2621 H 0.27322 0.55375 0.89532
 H2622 H 0.30012 0.63473 0.91774
 H2623 H 0.33186 0.61820 0.92993
 H2624 H 0.30714 0.55674 0.91296
 C2625 C 1.15787 1.26469 1.12076
 C2626 C 1.13609 1.25900 1.12129
 C2627 C 1.12208 1.27197 1.13348
 C2628 C 1.13000 1.28921 1.14556
 C2629 C 1.15173 1.29434 1.14502
 C2630 C 1.16543 1.28202 1.13233
 C2631 C 1.10027 1.26773 1.13343
 C2632 C 1.09198 1.25106 1.12137
 C2633 C 1.10531 1.23746 1.10931
 C2634 C 1.12780 1.24104 1.10996
 C2635 C 1.14130 1.22621 1.09979
 C2636 C 1.13318 1.20864 1.08913
 C2637 C 1.11130 1.20533 1.08766
 C2638 C 1.09700 1.21996 1.09721
 C2639 C 1.07497 1.21639 1.09420
 C2640 C 1.06758 1.19843 1.08337
 C2641 C 1.08177 1.18330 1.07520
 C2642 C 1.10368 1.18717 1.07701
 H2643 H 1.16950 1.25640 1.11118
 H2644 H 1.11920 1.29886 1.15503
 H2645 H 1.18229 1.28563 1.13146
 H2646 H 1.08944 1.27752 1.14268
 H2647 H 1.07499 1.24882 1.12240
 H2648 H 1.15839 1.22727 1.10041
 H2649 H 1.14421 1.19749 1.08195
 H2650 H 1.06302 1.22728 1.09983
 H2651 H 1.05057 1.19629 1.08156
 H2652 H 1.11489 1.17567 1.07080
 C2653 C 1.14331 0.77938 0.60456
 C2654 C 1.12230 0.77159 0.60719
 C2655 C 1.10747 0.78464 0.61824
 C2656 C 1.11388 0.80423 0.62702
 C2657 C 1.13478 0.81159 0.62418
 C2658 C 1.14931 0.79901 0.61282
 C2659 C 1.08629 0.77819 0.62022
 C2660 C 1.07930 0.75931 0.61105
 C2661 C 1.09345 0.74574 0.59997
 C2662 C 1.11546 0.75156 0.59885
 C2663 C 1.12998 0.73698 0.58983
 C2664 C 1.12322 0.71762 0.58170
 C2665 C 1.10171 0.71214 0.58173
 C2666 C 1.08643 0.72626 0.59045
 C2667 C 1.06473 0.72033 0.58907
 C2668 C 1.05868 0.70083 0.58038
 C2669 C 1.07394 0.68646 0.57280
 C2670 C 1.09546 0.69243 0.57326
 H2671 H 1.15539 0.77099 0.59567
 H2672 H 1.10244 0.81403 0.63549
 H2673 H 1.16556 0.80436 0.61029
 H2674 H 1.07487 0.78799 0.62872
 H2675 H 1.06272 0.75550 0.61346
 H2676 H 1.14691 0.73976 0.58937
 H2677 H 1.13501 0.70684 0.57520
 H2678 H 1.05199 0.73053 0.59424
 H2679 H 1.04188 0.69698 0.57958
 H2680 H 1.10746 0.68150 0.56750
 C2681 C 0.60718 1.28812 0.63853
 C2682 C 0.61769 1.27291 0.62557
 C2683 C 0.63997 1.27533 0.62245
 C2684 C 0.65099 1.29246 0.63167
 C2685 C 0.64040 1.30699 0.64491
 C2686 C 0.61842 1.30472 0.64814
 C2687 C 0.65129 1.26038 0.61058
 C2688 C 0.64122 1.24249 0.60249
 C2689 C 0.61918 1.23905 0.60556
 C2690 C 0.60702 1.25507 0.61621
 C2691 C 0.58465 1.25276 0.61700
 C2692 C 0.57455 1.23508 0.60833
 C2693 C 0.58631 1.21870 0.59914
 C2694 C 0.60883 1.22026 0.59799
 C2695 C 0.62011 1.20269 0.58978
 C2696 C 0.60944 1.18481 0.58221
 C2697 C 0.58714 1.18373 0.58234
 C2698 C 0.57567 1.20071 0.59109
 H2699 H 0.59043 1.28721 0.64226
 H2700 H 0.66806 1.29390 0.62933
 H2701 H 0.60987 1.31570 0.65838
 H2702 H 0.66827 1.26229 0.60789
 H2703 H 0.65113 1.23180 0.59341
 H2704 H 0.57437 1.26465 0.62377
 H2705 H 0.55733 1.23409 0.60914
 H2706 H 0.63724 1.20198 0.58952
 H2707 H 0.61880 1.17160 0.57643
 H2708 H 0.55843 1.20006 0.59144
 C2709 C 0.64287 0.78150 1.10625
 C2710 C 0.62217 0.77340 1.11041
 C2711 C 0.60788 0.78638 1.12218
 C2712 C 0.61474 0.80580 1.13081
 C2713 C 0.63567 0.81298 1.12756
 C2714 C 0.64943 0.80093 1.11470
 C2715 C 0.58693 0.77977 1.12563
 C2716 C 0.57976 0.76043 1.11777
 C2717 C 0.59353 0.74656 1.10662
 C2718 C 0.61524 0.75291 1.10343
 C2719 C 0.62950 0.73827 1.09414
 C2720 C 0.62282 0.71818 1.08801
 C2721 C 0.60159 0.71203 1.09031
 C2722 C 0.58650 0.72624 1.09916
 C2723 C 0.56498 0.71947 1.10010
 C2724 C 0.55897 0.69927 1.09318
 C2725 C 0.57412 0.68501 1.08521
 C2726 C 0.59544 0.69161 1.08384
 H2727 H 0.65437 0.77327 1.09645
 H2728 H 0.60378 0.81522 1.14035
 H2729 H 0.66560 0.80622 1.11162
 H2730 H 0.57591 0.78965 1.13456
 H2731 H 0.56344 0.75647 1.12144
 H2732 H 0.64623 0.74155 1.09205
 H2733 H 0.63444 0.70736 1.08129
 H2734 H 0.55229 0.72954 1.10564
 H2735 H 0.54227 0.69493 1.09381
 H2736 H 0.60743 0.68075 1.07793
 C2737 C 0.84961 1.26636 0.87578
 C2738 C 0.87142 1.26097 0.87471
 C2739 C 0.88564 1.27586 0.86510
 C2740 C 0.87806 1.29510 0.85665
 C2741 C 0.85648 1.30028 0.85837
 C2742 C 0.84239 1.28569 0.86787
 C2743 C 0.90740 1.27171 0.86443
 C2744 C 0.91555 1.25346 0.87375
 C2745 C 0.90213 1.23828 0.88378
 C2746 C 0.87963 1.24166 0.88339
 C2747 C 0.86608 1.22556 0.89157
 C2748 C 0.87417 1.20715 0.90053
 C2749 C 0.89605 1.20412 0.90207
 C2750 C 0.91041 1.21967 0.89394
 C2751 C 0.93245 1.21603 0.89664
 C2752 C 0.93978 1.19751 0.90639
 C2753 C 0.92550 1.18194 0.91382
 C2754 C 0.90362 1.18547 0.91168
 H2755 H 0.83774 1.25636 0.88328
 H2756 H 0.88913 1.30644 0.84959
 H2757 H 0.82562 1.28933 0.86944
 H2758 H 0.91834 1.28291 0.85696
 H2759 H 0.93253 1.25153 0.87248
 H2760 H 0.84900 1.22647 0.89092
 H2761 H 0.86312 1.19523 0.90652
 H2762 H 0.94448 1.22732 0.89175
 H2763 H 0.95677 1.19545 0.90828
 H2764 H 0.89238 1.17348 0.91717
 C2765 C 0.84185 0.76390 0.37567
 C2766 C 0.86374 0.75869 0.37512
 C2767 C 0.87773 0.77255 0.36376
 C2768 C 0.86987 0.79042 0.35296
 C2769 C 0.84819 0.79534 0.35381
 C2770 C 0.83431 0.78196 0.36528
 C2771 C 0.89954 0.76871 0.36345
 C2772 C 0.90796 0.75164 0.37456
 C2773 C 0.89477 0.73735 0.38613
 C2774 C 0.87223 0.74046 0.38571
 C2775 C 0.85894 0.72505 0.39554
 C2776 C 0.86733 0.70738 0.40568
 C2777 C 0.88926 0.70455 0.40693
 C2778 C 0.90334 0.71970 0.39763
 C2779 C 0.92546 0.71656 0.40032
 C2780 C 0.93313 0.69855 0.41069
 C2781 C 0.91913 0.68308 0.41880
 C2782 C 0.89717 0.68640 0.41720
 H2783 H 0.83017 0.75471 0.38444
 H2784 H 0.88080 0.80088 0.34441
 H2785 H 0.81748 0.78548 0.36630
 H2786 H 0.91029 0.77918 0.35469
 H2787 H 0.92495 0.74977 0.37328
 H2788 H 0.84183 0.72584 0.39516
 H2789 H 0.85647 0.69581 0.41270
 H2790 H 0.93728 0.72779 0.39482
 H2791 H 0.95017 0.69669 0.41230
 H2792 H 0.88616 0.67453 0.42339
 C2793 C 0.33826 1.25573 0.37187
 C2794 C 0.36021 1.25114 0.36956
 C2795 C 0.37276 1.26491 0.35653
 C2796 C 0.36349 1.28206 0.34587
 C2797 C 0.34185 1.28654 0.34858
 C2798 C 0.32933 1.27327 0.36165
 C2799 C 0.39461 1.26181 0.35448
 C2800 C 0.40457 1.24576 0.36575
 C2801 C 0.39290 1.23175 0.37916
 C2802 C 0.37024 1.23377 0.38017
 C2803 C 0.35838 1.21819 0.39145
 C2804 C 0.36833 1.20155 0.40190
 C2805 C 0.39046 1.20013 0.40213
 C2806 C 0.40311 1.21545 0.39118
 C2807 C 0.42550 1.21398 0.39302
 C2808 C 0.43482 1.19742 0.40439
 C2809 C 0.42223 1.18177 0.41427
 C2810 C 0.40001 1.18335 0.41320
 H2811 H 0.32771 1.24657 0.38205
 H2812 H 0.37341 1.29247 0.33610
 H2813 H 0.31258 1.27653 0.36413
 H2814 H 0.40421 1.27218 0.34433
 H2815 H 0.42148 1.24437 0.36314
 H2816 H 0.34123 1.21806 0.39197
 H2817 H 0.35858 1.18979 0.41014
 H2818 H 0.43627 1.22562 0.38627
 H2819 H 0.45201 1.19692 0.40552
 H2820 H 0.39006 1.17126 0.42065
 C2821 C 0.40944 0.79567 0.87875
 C2822 C 0.39767 0.77965 0.88963
 C2823 C 0.37551 0.78286 0.89256
 C2824 C 0.36587 0.80157 0.88542
 C2825 C 0.37776 0.81721 0.87466
 C2826 C 0.39958 0.81404 0.87135
 C2827 C 0.36297 0.76731 0.90242
 C2828 C 0.37177 0.74829 0.90901
 C2829 C 0.39370 0.74419 0.90635
 C2830 C 0.40702 0.76046 0.89734
 C2831 C 0.42923 0.75713 0.89668
 C2832 C 0.43811 0.73842 0.90414
 C2833 C 0.42525 0.72205 0.91204
 C2834 C 0.40283 0.72451 0.91286
 C2835 C 0.39044 0.70700 0.91990
 C2836 C 0.39999 0.68833 0.92676
 C2837 C 0.42218 0.68634 0.92691
 C2838 C 0.43472 0.70321 0.91923
 H2839 H 0.42618 0.79432 0.87521
 H2840 H 0.34890 0.80371 0.88781
 H2841 H 0.40916 0.82583 0.86298
 H2842 H 0.34606 0.76976 0.90488
 H2843 H 0.36095 0.73729 0.91669
 H2844 H 0.44035 0.76896 0.89098
 H2845 H 0.45526 0.73668 0.90355
 H2846 H 0.37330 0.70700 0.91992
 H2847 H 0.38986 0.67526 0.93181
 H2848 H 0.45192 0.70181 0.91915
 C2849 C 1.13441 0.70878 0.89813
 C2850 C 1.12272 0.72415 0.88659
 C2851 C 1.11987 0.72081 0.86414
 C2852 C 1.12795 0.70257 0.85400
 C2853 C 1.13961 0.68763 0.86570
 C2854 C 1.14274 0.69098 0.88781
 C2855 C 1.10919 0.73583 0.85181
 C2856 C 1.10168 0.75438 0.86109
 C2857 C 1.10419 0.75856 0.88333
 C2858 C 1.11414 0.74282 0.89644
 C2859 C 1.11490 0.74615 0.91898
 C2860 C 1.10666 0.76437 0.92835
 C2861 C 1.09776 0.78027 0.91571
 C2862 C 1.09671 0.77779 0.89298
 C2863 C 1.08846 0.79484 0.88083
 C2864 C 1.08086 0.81307 0.89090
 C2865 C 1.08106 0.81509 0.91345
 C2866 C 1.08982 0.79865 0.92573
 H2867 H 1.13791 0.71025 0.91506
 H2868 H 1.12566 0.70032 0.83682
 H2869 H 1.15175 0.67976 0.89728
 H2870 H 1.10681 0.73333 0.83468
 H2871 H 1.09349 0.76498 0.85038
 H2872 H 1.12135 0.73468 0.93000
 H2873 H 1.10744 0.76609 0.94574
 H2874 H 1.08802 0.79482 0.86345
 H2875 H 1.07496 0.82579 0.88087
 H2876 H 1.09016 0.79998 0.94316
 C2877 C 1.13382 0.21645 0.39730
 C2878 C 1.11987 0.23020 0.38627
 C2879 C 1.11550 0.22575 0.36428
 C2880 C 1.12411 0.20777 0.35423
 C2881 C 1.13797 0.19445 0.36540
 C2882 C 1.14280 0.19901 0.38693
 C2883 C 1.10284 0.23944 0.35232
 C2884 C 1.09498 0.25792 0.36143
 C2885 C 1.09899 0.26314 0.38320
 C2886 C 1.11061 0.24848 0.39612
 C2887 C 1.11228 0.25240 0.41849
 C2888 C 1.10351 0.27038 0.42780
 C2889 C 1.09337 0.28552 0.41515
 C2890 C 1.09135 0.28235 0.39260
 C2891 C 1.08219 0.29879 0.38030
 C2892 C 1.07467 0.31715 0.39013
 C2893 C 1.07572 0.31979 0.41258
 C2894 C 1.08527 0.30388 0.42497
 H2895 H 1.13869 0.21910 0.41372
 H2896 H 1.12061 0.20455 0.33742
 H2897 H 1.15360 0.18902 0.39587
 H2898 H 1.09927 0.23604 0.33558
 H2899 H 1.08524 0.26754 0.35111
 H2900 H 1.11975 0.24148 0.42942
 H2901 H 1.10499 0.27261 0.44507
 H2902 H 1.08119 0.29826 0.36295
 H2903 H 1.06824 0.32949 0.37996
 H2904 H 1.08628 0.30567 0.44233
 C2905 C 0.62317 0.70788 0.41099
 C2906 C 0.61208 0.72289 0.39837
 C2907 C 0.60958 0.71851 0.37608
 C2908 C 0.61722 0.69959 0.36718
 C2909 C 0.62806 0.68488 0.37992
 C2910 C 0.63108 0.68927 0.40184
 C2911 C 0.59960 0.73307 0.36266
 C2912 C 0.59243 0.75225 0.37070
 C2913 C 0.59460 0.75749 0.39273
 C2914 C 0.60372 0.74219 0.40696
 C2915 C 0.60383 0.74655 0.42932
 C2916 C 0.59578 0.76539 0.43745
 C2917 C 0.58786 0.78090 0.42366
 C2918 C 0.58752 0.77736 0.40106
 C2919 C 0.58042 0.79406 0.38771
 C2920 C 0.57329 0.81306 0.39652
 C2921 C 0.57285 0.81616 0.41891
 C2922 C 0.58030 0.79998 0.43238
 H2923 H 0.62646 0.71022 0.42786
 H2924 H 0.61508 0.69653 0.35010
 H2925 H 0.63954 0.67824 0.41204
 H2926 H 0.59748 0.72970 0.34565
 H2927 H 0.58471 0.76244 0.35924
 H2928 H 0.60954 0.73543 0.44110
 H2929 H 0.59600 0.76794 0.45475
 H2930 H 0.58068 0.79323 0.37035
 H2931 H 0.56841 0.82554 0.38564
 H2932 H 0.58007 0.80216 0.44973
 C2933 C 0.63332 0.21454 0.90212
 C2934 C 0.62214 0.23019 0.89043
 C2935 C 0.61954 0.22700 0.86793
 C2936 C 0.62728 0.20861 0.85790
 C2937 C 0.63830 0.19331 0.86974
 C2938 C 0.64128 0.19652 0.89189
 C2939 C 0.60938 0.24225 0.85547
 C2940 C 0.60210 0.26090 0.86468
 C2941 C 0.60434 0.26494 0.88697
 C2942 C 0.61378 0.24898 0.90020
 C2943 C 0.61424 0.25220 0.92276
 C2944 C 0.60616 0.27050 0.93206
 C2945 C 0.59774 0.28658 0.91931
 C2946 C 0.59704 0.28423 0.89655
 C2947 C 0.58928 0.30145 0.88431
 C2948 C 0.58180 0.31974 0.89433
 C2949 C 0.58167 0.32163 0.91687
 C2950 C 0.58992 0.30501 0.92925
 H2951 H 0.63663 0.21590 0.91909
 H2952 H 0.62511 0.20646 0.84069
 H2953 H 0.64983 0.18503 0.90145
 H2954 H 0.60720 0.23984 0.83830
 H2955 H 0.59428 0.27168 0.85387
 H2956 H 0.62030 0.24058 0.93384
 H2957 H 0.60666 0.27214 0.94946
 H2958 H 0.58915 0.30153 0.86693
 H2959 H 0.57625 0.33261 0.88428
 H2960 H 0.58998 0.30627 0.94670
 C2961 C 0.84830 0.73492 1.12509
 C2962 C 0.87018 0.74023 1.12386
 C2963 C 0.88495 0.72544 1.13226
 C2964 C 0.87787 0.70629 1.14159
 C2965 C 0.85618 0.70112 1.14197
 C2966 C 0.84153 0.71568 1.13385
 C2967 C 0.90672 0.72958 1.13082
 C2968 C 0.91430 0.74772 1.12056
 C2969 C 0.90030 0.76276 1.11159
 C2970 C 0.87788 0.75937 1.11407
 C2971 C 0.86391 0.77527 1.10675
 C2972 C 0.87147 0.79356 1.09684
 C2973 C 0.89320 0.79669 1.09348
 C2974 C 0.90796 0.78126 1.10053
 C2975 C 0.92979 0.78498 1.09602
 C2976 C 0.93658 0.80360 1.08588
 C2977 C 0.92195 0.81913 1.07978
 C2978 C 0.90023 0.81539 1.08332
 H2979 H 0.83596 0.74489 1.11878
 H2980 H 0.88932 0.69496 1.14761
 H2981 H 0.82465 0.71205 1.13399
 H2982 H 0.91808 0.71846 1.13737
 H2983 H 0.93134 0.74965 1.12024
 H2984 H 0.84691 0.77431 1.10881
 H2985 H 0.86013 0.80537 1.09165
 H2986 H 0.94204 0.77377 1.09991
 H2987 H 0.95344 0.80591 1.08286
 H2988 H 0.88879 0.82736 1.07872
 C2989 C 0.85519 0.22051 0.61070
 C2990 C 0.87609 0.22837 0.61394
 C2991 C 0.89055 0.21511 0.62504
 C2992 C 0.88389 0.19534 0.63331
 C2993 C 0.86303 0.18797 0.63021
 C2994 C 0.84888 0.20068 0.61863
 C2995 C 0.91161 0.22161 0.62779
 C2996 C 0.91883 0.24085 0.61952
 C2997 C 0.90509 0.25475 0.60851
 C2998 C 0.88319 0.24873 0.60636
 C2999 C 0.86903 0.26344 0.59712
 C3000 C 0.87602 0.28315 0.58987
 C3001 C 0.89744 0.28891 0.59101
 C3002 C 0.91238 0.27470 0.60000
 C3003 C 0.93406 0.28102 0.59985
 C3004 C 0.94040 0.30075 0.59168
 C3005 C 0.92548 0.31506 0.58347
 C3006 C 0.90396 0.30888 0.58319
 H3007 H 0.84338 0.22910 0.60177
 H3008 H 0.89513 0.18553 0.64194
 H3009 H 0.83271 0.19539 0.61581
 H3010 H 0.92273 0.21160 0.63632
 H3011 H 0.93528 0.24464 0.62255
 H3012 H 0.85221 0.26043 0.59576
 H3013 H 0.86448 0.29397 0.58312
 H3014 H 0.94662 0.27091 0.60547
 H3015 H 0.95720 0.30467 0.59156
 H3016 H 0.89213 0.31974 0.57708
 C3017 C 0.39382 0.71321 0.63228
 C3018 C 0.38281 0.72864 0.62014
 C3019 C 0.36066 0.72547 0.61699
 C3020 C 0.35027 0.70740 0.62536
 C3021 C 0.36136 0.69257 0.63775
 C3022 C 0.38321 0.69564 0.64102
 C3023 C 0.34885 0.74058 0.60593
 C3024 C 0.35830 0.75921 0.59857
 C3025 C 0.38020 0.76333 0.60158
 C3026 C 0.39286 0.74735 0.61159
 C3027 C 0.41511 0.75054 0.61253
 C3028 C 0.42462 0.76893 0.60457
 C3029 C 0.41237 0.78516 0.59587
 C3030 C 0.38995 0.78276 0.59457
 C3031 C 0.37817 0.80014 0.58669
 C3032 C 0.38831 0.81866 0.57967
 C3033 C 0.41056 0.82064 0.58006
 C3034 C 0.42247 0.80380 0.58842
 H3035 H 0.41050 0.71457 0.63598
 H3036 H 0.33329 0.70536 0.62300
 H3037 H 0.39216 0.68448 0.65062
 H3038 H 0.33197 0.73817 0.60326
 H3039 H 0.34801 0.76994 0.59010
 H3040 H 0.42578 0.73883 0.61892
 H3041 H 0.44178 0.77056 0.60550
 H3042 H 0.36104 0.80017 0.58621
 H3043 H 0.37856 0.83164 0.57412
 H3044 H 0.43967 0.80507 0.58891
 C3045 C 0.35342 0.21859 1.10901
 C3046 C 0.37452 0.22643 1.11049
 C3047 C 0.38974 0.21342 1.12083
 C3048 C 0.38369 0.19388 1.13008
 C3049 C 0.36269 0.18647 1.12854
 C3050 C 0.34773 0.19895 1.11777
 C3051 C 0.41096 0.21987 1.12175
 C3052 C 0.41760 0.23880 1.11232
 C3053 C 0.40307 0.25243 1.10200
 C3054 C 0.38105 0.24654 1.10183
 C3055 C 0.36625 0.26117 1.09350
 C3056 C 0.37272 0.28074 1.08541
 C3057 C 0.39421 0.28637 1.08467
 C3058 C 0.40975 0.27207 1.09242
 C3059 C 0.43139 0.27803 1.09011
 C3060 C 0.43717 0.29778 1.08172
 C3061 C 0.42171 0.31244 1.07536
 C3062 C 0.40021 0.30638 1.07648
 H3063 H 0.34101 0.22698 1.10075
 H3064 H 0.39548 0.18418 1.13805
 H3065 H 0.33141 0.19357 1.11619
 H3066 H 0.42268 0.21007 1.12970
 H3067 H 0.43423 0.24264 1.11401
 H3068 H 0.34934 0.25825 1.09365
 H3069 H 0.36073 0.29158 1.07957
 H3070 H 0.44428 0.26767 1.09434
 H3071 H 0.45394 0.30162 1.08026
 H3072 H 0.38805 0.31745 1.07153
 C3073 C 1.10363 1.13740 0.70690
 C3074 C 1.11435 1.12392 0.72150
 C3075 C 1.13636 1.12041 0.71786
 C3076 C 1.14686 1.12965 0.70012
 C3077 C 1.13608 1.14312 0.68597
 C3078 C 1.11439 1.14690 0.68954
 C3079 C 1.14795 1.10793 0.73208
 C3080 C 1.13842 1.09936 0.75036
 C3081 C 1.11666 1.10263 0.75500
 C3082 C 1.10418 1.11421 0.73982
 C3083 C 1.08199 1.11547 0.74334
 C3084 C 1.07239 1.10624 0.76135
 C3085 C 1.08453 1.09594 0.77690
 C3086 C 1.10688 1.09433 0.77417
 C3087 C 1.11862 1.08488 0.79100
 C3088 C 1.10849 1.07673 0.80929
 C3089 C 1.08630 1.07749 0.81155
 C3090 C 1.07442 1.08730 0.79527
 H3091 H 1.08708 1.14144 0.70876
 H3092 H 1.16371 1.12680 0.69774
 H3093 H 1.10567 1.15734 0.67894
 H3094 H 1.16472 1.10499 0.72921
 H3095 H 1.14851 1.08975 0.76034
 H3096 H 1.07145 1.12310 0.73214
 H3097 H 1.05528 1.10745 0.76327
 H3098 H 1.13574 1.08408 0.79087
 H3099 H 1.11822 1.07009 0.82195
 H3100 H 1.05725 1.08810 0.79681
 C3101 C 1.09724 0.63849 0.20551
 C3102 C 1.10707 0.62418 0.21990
 C3103 C 1.12838 0.61828 0.21542
 C3104 C 1.13883 0.62559 0.19679
 C3105 C 1.12896 0.63981 0.18262
 C3106 C 1.10808 0.64629 0.18735
 C3107 C 1.13933 0.60523 0.22964
 C3108 C 1.12985 0.59836 0.24867
 C3109 C 1.10869 0.60378 0.25392
 C3110 C 1.09672 0.61586 0.23877
 C3111 C 1.07476 0.61872 0.24273
 C3112 C 1.06492 0.61028 0.26105
 C3113 C 1.07672 0.59954 0.27658
 C3114 C 1.09892 0.59684 0.27356
 C3115 C 1.11057 0.58760 0.29053
 C3116 C 1.10037 0.58009 0.30902
 C3117 C 1.07818 0.58120 0.31128
 C3118 C 1.06647 0.59138 0.29510
 H3119 H 1.08141 0.64447 0.20819
 H3120 H 1.15506 0.62056 0.19377
 H3121 H 1.09993 0.65738 0.17695
 H3122 H 1.15556 0.60049 0.22618
 H3123 H 1.13932 0.58810 0.25862
 H3124 H 1.06454 0.62675 0.23150
 H3125 H 1.04793 0.61244 0.26320
 H3126 H 1.12768 0.58650 0.29028
 H3127 H 1.11005 0.57346 0.32173
 H3128 H 1.04934 0.59270 0.29673
 C3129 C 0.59905 1.12849 0.20475
 C3130 C 0.61026 1.11493 0.21867
 C3131 C 0.63167 1.11006 0.21327
 C3132 C 0.64094 1.11772 0.19392
 C3133 C 0.62962 1.13157 0.18045
 C3134 C 0.60859 1.13673 0.18627
 C3135 C 0.64382 1.09809 0.22754
 C3136 C 0.63549 1.09168 0.24742
 C3137 C 0.61426 1.09625 0.25343
 C3138 C 0.60110 1.10683 0.23819
 C3139 C 0.57915 1.10877 0.24281
 C3140 C 0.57054 1.10170 0.26220
 C3141 C 0.58347 1.09291 0.27800
 C3142 C 0.60558 1.09030 0.27401
 C3143 C 0.61813 1.08234 0.29101
 C3144 C 0.60894 1.07662 0.31077
 C3145 C 0.58691 1.07834 0.31429
 C3146 C 0.57433 1.08667 0.29778
 H3147 H 0.58312 1.13385 0.20814
 H3148 H 0.65729 1.11377 0.19000
 H3149 H 0.59913 1.14729 0.17647
 H3150 H 0.66015 1.09413 0.22357
 H3151 H 0.64594 1.08262 0.25757
 H3152 H 0.56799 1.11515 0.23141
 H3153 H 0.55358 1.10344 0.26499
 H3154 H 0.63518 1.08090 0.28975
 H3155 H 0.61924 1.07095 0.32345
 H3156 H 0.55729 1.08807 0.30019
 C3157 C 0.59484 0.63194 0.70671
 C3158 C 0.60640 0.61999 0.72201
 C3159 C 0.62798 0.61539 0.71716
 C3160 C 0.63714 0.62178 0.69748
 C3161 C 0.62547 0.63358 0.68256
 C3162 C 0.60433 0.63871 0.68742
 C3163 C 0.64046 0.60462 0.73204
 C3164 C 0.63222 0.59876 0.75200
 C3165 C 0.61087 0.60299 0.75769
 C3166 C 0.59747 0.61284 0.74208
 C3167 C 0.57556 0.61477 0.74687
 C3168 C 0.56709 0.60767 0.76638
 C3169 C 0.58017 0.59904 0.78219
 C3170 C 0.60234 0.59712 0.77830
 C3171 C 0.61514 0.58967 0.79537
 C3172 C 0.60611 0.58331 0.81494
 C3173 C 0.58404 0.58397 0.81827
 C3174 C 0.57118 0.59221 0.80188
 H3175 H 0.57864 0.63682 0.70941
 H3176 H 0.65365 0.61808 0.69406
 H3177 H 0.59503 0.64799 0.67622
 H3178 H 0.65690 0.60090 0.72833
 H3179 H 0.64288 0.59028 0.76241
 H3180 H 0.56433 0.62112 0.73553
 H3181 H 0.55012 0.60915 0.76920
 H3182 H 0.63225 0.58903 0.79433
 H3183 H 0.61658 0.57794 0.82761
 H3184 H 0.55410 0.59299 0.80426
 C3185 C 0.85189 0.88255 0.72220
 C3186 C 0.87334 0.88082 0.72868
 C3187 C 0.88753 0.86970 0.71489
 C3188 C 0.88013 0.86006 0.69584
 C3189 C 0.85882 0.86210 0.68974
 C3190 C 0.84489 0.87344 0.70308
 C3191 C 0.90907 0.86857 0.72003
 C3192 C 0.91698 0.87867 0.73826
 C3193 C 0.90349 0.88988 0.75251
 C3194 C 0.88117 0.89016 0.74811
 C3195 C 0.86737 0.89944 0.76345
 C3196 C 0.87508 0.90867 0.78214
 C3197 C 0.89684 0.90944 0.78618
 C3198 C 0.91144 0.90040 0.77130
 C3199 C 0.93340 0.90245 0.77584
 C3200 C 0.94036 0.91216 0.79478
 C3201 C 0.92577 0.92017 0.80987
 C3202 C 0.90402 0.91900 0.80526
 H3203 H 0.84018 0.89137 0.73115
 H3204 H 0.89107 0.85158 0.68541
 H3205 H 0.82833 0.87531 0.69872
 H3206 H 0.92002 0.86004 0.70966
 H3207 H 0.93379 0.87693 0.74104
 H3208 H 0.85032 0.89932 0.76184
 H3209 H 0.86383 0.91539 0.79354
 H3210 H 0.94564 0.89696 0.76499
 H3211 H 0.95731 0.91337 0.79764
 H3212 H 0.89254 0.92502 0.81683
 C3213 C 0.90172 0.37020 0.20452
 C3214 C 0.89035 0.38374 0.21854
 C3215 C 0.86885 0.38817 0.21346
 C3216 C 0.85953 0.37989 0.19464
 C3217 C 0.87086 0.36597 0.18117
 C3218 C 0.89209 0.36137 0.18641
 C3219 C 0.85657 0.40037 0.22751
 C3220 C 0.86483 0.40747 0.24698
 C3221 C 0.88607 0.40325 0.25285
 C3222 C 0.89939 0.39237 0.23778
 C3223 C 0.92131 0.39068 0.24234
 C3224 C 0.92977 0.39851 0.26141
 C3225 C 0.91668 0.40770 0.27702
 C3226 C 0.89457 0.40986 0.27315
 C3227 C 0.88179 0.41802 0.29002
 C3228 C 0.89074 0.42437 0.30954
 C3229 C 0.91276 0.42315 0.31296
 C3230 C 0.92561 0.41467 0.29653
 H3231 H 0.91784 0.36535 0.20758
 H3232 H 0.84305 0.38352 0.19114
 H3233 H 0.90148 0.35074 0.17653
 H3234 H 0.84018 0.40402 0.22368
 H3235 H 0.85429 0.41676 0.25691
 H3236 H 0.93254 0.38389 0.23114
 H3237 H 0.94672 0.39700 0.26414
 H3238 H 0.86472 0.41907 0.28891
 H3239 H 0.88020 0.43001 0.32215
 H3240 H 0.94265 0.41360 0.29882
 C3241 C 0.38576 0.85512 0.22176
 C3242 C 0.38477 0.87664 0.22809
 C3243 C 0.37470 0.89107 0.21390
 C3244 C 0.36518 0.88388 0.19478
 C3245 C 0.36610 0.86246 0.18897
 C3246 C 0.37665 0.84826 0.20253
 C3247 C 0.37426 0.91261 0.21879
 C3248 C 0.38388 0.92032 0.23732
 C3249 C 0.39392 0.90662 0.25210
 C3250 C 0.39364 0.88434 0.24781
 C3251 C 0.40177 0.87046 0.26361
 C3252 C 0.41021 0.87803 0.28275
 C3253 C 0.41142 0.89972 0.28676
 C3254 C 0.40373 0.91439 0.27134
 C3255 C 0.40633 0.93624 0.27583
 C3256 C 0.41530 0.94308 0.29517
 C3257 C 0.42197 0.92849 0.31077
 C3258 C 0.42014 0.90679 0.30629
 H3259 H 0.39386 0.84323 0.23105
 H3260 H 0.35739 0.89508 0.18419
 H3261 H 0.37776 0.83163 0.19835
 H3262 H 0.36653 0.92371 0.20805
 H3263 H 0.38261 0.93713 0.23992
 H3264 H 0.40125 0.85347 0.26199
 H3265 H 0.41597 0.86674 0.29453
 H3266 H 0.40193 0.94848 0.26460
 H3267 H 0.41711 0.95995 0.29787
 H3268 H 0.42511 0.89529 0.31822
 C3269 C 0.35362 0.39385 0.72106
 C3270 C 0.37296 0.38815 0.73097
 C3271 C 0.38554 0.37248 0.72073
 C3272 C 0.37812 0.36190 0.70227
 C3273 C 0.35880 0.36765 0.69261
 C3274 C 0.34688 0.38401 0.70211
 C3275 C 0.40561 0.36764 0.72879
 C3276 C 0.41376 0.37843 0.74647
 C3277 C 0.40165 0.39386 0.75745
 C3278 C 0.38045 0.39783 0.75037
 C3279 C 0.36726 0.41076 0.76329
 C3280 C 0.37466 0.41975 0.78232
 C3281 C 0.39575 0.41712 0.78867
 C3282 C 0.40976 0.40483 0.77583
 C3283 C 0.43141 0.40430 0.78174
 C3284 C 0.43850 0.41436 0.80041
 C3285 C 0.42427 0.42491 0.81422
 C3286 C 0.40289 0.42654 0.80790
 H3287 H 0.34370 0.40640 0.72716
 H3288 H 0.38789 0.34970 0.69498
 H3289 H 0.33202 0.38914 0.69510
 H3290 H 0.41532 0.35563 0.72111
 H3291 H 0.42933 0.37369 0.75179
 H3292 H 0.35075 0.41342 0.75958
 H3293 H 0.36381 0.42910 0.79203
 H3294 H 0.44337 0.39670 0.77192
 H3295 H 0.45532 0.41376 0.80400
 H3296 H 0.39158 0.43472 0.81813
 C3297 C 1.14704 0.88951 1.28045
 C3298 C 1.12669 0.88549 1.27173
 C3299 C 1.11256 0.87235 1.28375
 C3300 C 1.11920 0.86263 1.30303
 C3301 C 1.13947 0.86685 1.31157
 C3302 C 1.15314 0.88058 1.30005
 C3303 C 1.09174 0.86926 1.27666
 C3304 C 1.08441 0.87946 1.25827
 C3305 C 1.09796 0.89252 1.24565
 C3306 C 1.11975 0.89454 1.25180
 C3307 C 1.13397 0.90505 1.23757
 C3308 C 1.12703 0.91373 1.21824
 C3309 C 1.10556 0.91309 1.21271
 C3310 C 1.09061 0.90306 1.22667
 C3311 C 1.06885 0.90433 1.22121
 C3312 C 1.06242 0.91405 1.20212
 C3313 C 1.07736 0.92257 1.18748
 C3314 C 1.09897 0.92229 1.19316
 H3315 H 1.15835 0.90013 1.27291
 H3316 H 1.10817 0.85245 1.31179
 H3317 H 1.16884 0.88445 1.30605
 H3318 H 1.08084 0.85917 1.28567
 H3319 H 1.06816 0.87617 1.25384
 H3320 H 1.15083 0.90609 1.24055
 H3321 H 1.13860 0.92128 1.20763
 H3322 H 1.05637 0.89842 1.23167
 H3323 H 1.04554 0.91488 1.19885
 H3324 H 1.11081 0.92882 1.18221
 C3325 C 1.11602 0.35526 0.77838
 C3326 C 1.12027 0.37558 0.76966
 C3327 C 1.13370 0.38932 0.78160
 C3328 C 1.14319 0.38244 0.80090
 C3329 C 1.13874 0.36221 0.80945
 C3330 C 1.12491 0.34884 0.79790
 C3331 C 1.13735 0.40998 0.77438
 C3332 C 1.12752 0.41757 0.75590
 C3333 C 1.11409 0.40450 0.74339
 C3334 C 1.11129 0.38286 0.74980
 C3335 C 1.09998 0.36915 0.73592
 C3336 C 1.09129 0.37639 0.71672
 C3337 C 1.09286 0.39769 0.71085
 C3338 C 1.10383 0.41217 0.72434
 C3339 C 1.10379 0.43381 0.71833
 C3340 C 1.09410 0.44052 0.69930
 C3341 C 1.08427 0.42600 0.68535
 C3342 C 1.08357 0.40456 0.69146
 H3343 H 1.10531 0.34414 0.77088
 H3344 H 1.15352 0.39323 0.80960
 H3345 H 1.12086 0.33317 0.80388
 H3346 H 1.14768 0.42057 0.78333
 H3347 H 1.13131 0.43367 0.75142
 H3348 H 1.09817 0.35244 0.73910
 H3349 H 1.08303 0.36519 0.70645
 H3350 H 1.11066 0.44604 0.72825
 H3351 H 1.09423 0.45729 0.69560
 H3352 H 1.07611 0.39303 0.68095
 C3353 C 0.62630 0.90748 0.79538
 C3354 C 0.61393 0.89594 0.78033
 C3355 C 0.60979 0.87426 0.78485
 C3356 C 0.61700 0.86496 0.80405
 C3357 C 0.62915 0.87663 0.81876
 C3358 C 0.63386 0.89789 0.81416
 C3359 C 0.59865 0.86184 0.77012
 C3360 C 0.59194 0.87027 0.75064
 C3361 C 0.59566 0.89174 0.74531
 C3362 C 0.60591 0.90503 0.76083
 C3363 C 0.60739 0.92698 0.75652
 C3364 C 0.59954 0.93559 0.73752
 C3365 C 0.59055 0.92267 0.72174
 C3366 C 0.58894 0.90049 0.72517
 C3367 C 0.58101 0.88792 0.70811
 C3368 C 0.57411 0.89711 0.68894
 C3369 C 0.57463 0.91916 0.68602
 C3370 C 0.58312 0.93182 0.70250
 H3371 H 0.63089 0.92378 0.79286
 H3372 H 0.61359 0.84837 0.80725
 H3373 H 0.64338 0.90722 0.82518
 H3374 H 0.59529 0.84530 0.77357
 H3375 H 0.58325 0.85962 0.74032
 H3376 H 0.61398 0.93810 0.76787
 H3377 H 0.60075 0.95257 0.73507
 H3378 H 0.58045 0.87087 0.70880
 H3379 H 0.56855 0.88677 0.67621
 H3380 H 0.58374 0.94888 0.70051
 C3381 C 0.59322 0.37048 1.29827
 C3382 C 0.60474 0.38096 1.28163
 C3383 C 0.62670 0.38501 1.28507
 C3384 C 0.63629 0.37961 1.30470
 C3385 C 0.62461 0.36935 1.32097
 C3386 C 0.60309 0.36469 1.31751
 C3387 C 0.63907 0.39430 1.26885
 C3388 C 0.63029 0.39935 1.24904
 C3389 C 0.60850 0.39577 1.24481
 C3390 C 0.59533 0.38727 1.26167
 C3391 C 0.57316 0.38588 1.25819
 C3392 C 0.56417 0.39247 1.23888
 C3393 C 0.57691 0.40004 1.22202
 C3394 C 0.59933 0.40115 1.22450
 C3395 C 0.61166 0.40754 1.20644
 C3396 C 0.60204 0.41405 1.18740
 C3397 C 0.57983 0.41447 1.18557
 C3398 C 0.56734 0.40686 1.20277
 H3399 H 0.57672 0.36604 1.29675
 H3400 H 0.65308 0.38290 1.30708
 H3401 H 0.59375 0.35659 1.32979
 H3402 H 0.65583 0.39755 1.27143
 H3403 H 0.64093 0.40675 1.23757
 H3404 H 0.56214 0.38046 1.27042
 H3405 H 0.54703 0.39157 1.23713
 H3406 H 0.62881 0.40743 1.20637
 H3407 H 0.61211 0.41894 1.17401
 H3408 H 0.55015 0.40685 1.20144
 C3409 C 0.86773 1.09710 1.29053
 C3410 C 0.88365 1.10656 1.27735
 C3411 C 0.89128 1.12688 1.28334
 C3412 C 0.88386 1.13676 1.30217
 C3413 C 0.86770 1.12746 1.31488
 C3414 C 0.85976 1.10750 1.30877
 C3415 C 0.90600 1.13754 1.27028
 C3416 C 0.91264 1.12892 1.25082
 C3417 C 0.90534 1.10885 1.24400
 C3418 C 0.89176 1.09690 1.25812
 C3419 C 0.88710 1.07565 1.25269
 C3420 C 0.89499 1.06660 1.23381
 C3421 C 0.90694 1.07863 1.21911
 C3422 C 0.91168 1.10013 1.22373
 C3423 C 0.92206 1.11225 1.20758
 C3424 C 0.92839 1.10310 1.18815
 C3425 C 0.92508 1.08144 1.18415
 C3426 C 0.91409 1.06934 1.19976
 H3427 H 0.86050 1.08205 1.28668
 H3428 H 0.89014 1.15227 1.30629
 H3429 H 0.84725 1.09979 1.31805
 H3430 H 0.91211 1.15297 1.27491
 H3431 H 0.92413 1.13810 1.24173
 H3432 H 0.87796 1.06535 1.26316
 H3433 H 0.89133 1.05013 1.23047
 H3434 H 0.92481 1.12905 1.20915
 H3435 H 0.93569 1.11327 1.17608
 H3436 H 0.91118 1.05263 1.19699
 C3437 C 0.90834 0.62425 0.79757
 C3438 C 0.89634 0.61440 0.78107
 C3439 C 0.87407 0.61216 0.78444
 C3440 C 0.86453 0.61905 0.80371
 C3441 C 0.87663 0.62894 0.81972
 C3442 C 0.89858 0.63147 0.81646
 C3443 C 0.86132 0.60332 0.76847
 C3444 C 0.87001 0.59715 0.74887
 C3445 C 0.89202 0.59923 0.74456
 C3446 C 0.90554 0.60710 0.76125
 C3447 C 0.92777 0.60710 0.75768
 C3448 C 0.93649 0.59997 0.73836
 C3449 C 0.92346 0.59313 0.72160
 C3450 C 0.90102 0.59314 0.72426
 C3451 C 0.88846 0.58728 0.70635
 C3452 C 0.89784 0.58050 0.68718
 C3453 C 0.92001 0.57928 0.68506
 C3454 C 0.93277 0.58607 0.70221
 H3455 H 0.92520 0.62717 0.79617
 H3456 H 0.84747 0.61729 0.80591
 H3457 H 0.90830 0.63917 0.82855
 H3458 H 0.84433 0.60138 0.77105
 H3459 H 0.85902 0.59025 0.73757
 H3460 H 0.93900 0.61198 0.76978
 H3461 H 0.95366 0.59995 0.73648
 H3462 H 0.87134 0.58808 0.70645
 H3463 H 0.88761 0.57618 0.67387
 H3464 H 0.94995 0.58539 0.70067
 C3465 C 0.41035 1.12345 0.80123
 C3466 C 0.39899 1.11113 0.78612
 C3467 C 0.37733 1.10638 0.79080
 C3468 C 0.36775 1.11347 0.81002
 C3469 C 0.37891 1.12671 0.82427
 C3470 C 0.40043 1.13125 0.81974
 C3471 C 0.36510 1.09525 0.77587
 C3472 C 0.37347 1.08983 0.75585
 C3473 C 0.39476 1.09475 0.75023
 C3474 C 0.40810 1.10420 0.76615
 C3475 C 0.43008 1.10634 0.76158
 C3476 C 0.43855 1.10027 0.74176
 C3477 C 0.42541 1.09258 0.72546
 C3478 C 0.40325 1.09017 0.72931
 C3479 C 0.39036 1.08383 0.71186
 C3480 C 0.39928 1.07900 0.69184
 C3481 C 0.42137 1.08003 0.68847
 C3482 C 0.43433 1.08721 0.70532
 H3483 H 0.42666 1.12829 0.79871
 H3484 H 0.35110 1.10982 0.81306
 H3485 H 0.40972 1.14125 0.83036
 H3486 H 0.34863 1.09127 0.77943
 H3487 H 0.36298 1.08129 0.74522
 H3488 H 0.44131 1.11213 0.77327
 H3489 H 0.45554 1.10199 0.73905
 H3490 H 0.37324 1.08300 0.71298
 H3491 H 0.38873 1.07446 0.67888
 H3492 H 0.45140 1.08828 0.70291
 C3493 C 0.40551 0.62324 1.30162
 C3494 C 0.39434 0.60964 1.28751
 C3495 C 0.37270 0.60509 1.29240
 C3496 C 0.36302 0.61340 1.31104
 C3497 C 0.37407 0.62758 1.32445
 C3498 C 0.39549 0.63218 1.31954
 C3499 C 0.36060 0.59282 1.27830
 C3500 C 0.36913 0.58595 1.25882
 C3501 C 0.39045 0.59047 1.25303
 C3502 C 0.40364 0.60117 1.26827
 C3503 C 0.42566 0.60290 1.26383
 C3504 C 0.43432 0.59534 1.24465
 C3505 C 0.42132 0.58651 1.22883
 C3506 C 0.39913 0.58435 1.23262
 C3507 C 0.38640 0.57681 1.21552
 C3508 C 0.39547 0.57098 1.19584
 C3509 C 0.41757 0.57204 1.19251
 C3510 C 0.43038 0.57995 1.20915
 H3511 H 0.42175 0.62810 1.29871
 H3512 H 0.34643 0.60972 1.31433
 H3513 H 0.40466 0.64297 1.32945
 H3514 H 0.34413 0.58902 1.28205
 H3515 H 0.35875 0.57659 1.24879
 H3516 H 0.43677 0.60953 1.27519
 H3517 H 0.45134 0.59686 1.24200
 H3518 H 0.36928 0.57597 1.21658
 H3519 H 0.38496 0.56588 1.18306
 H3520 H 0.44748 0.58095 1.20690
 C3521 C 1.13830 1.28831 0.89909
 C3522 C 1.12496 1.27401 0.88789
 C3523 C 1.11978 1.27898 0.86623
 C3524 C 1.12676 1.29806 0.85677
 C3525 C 1.13989 1.31222 0.86813
 C3526 C 1.14571 1.30692 0.88933
 C3527 C 1.10778 1.26480 0.85402
 C3528 C 1.10123 1.24549 0.86261
 C3529 C 1.10586 1.23984 0.88413
 C3530 C 1.11696 1.25479 0.89730
 C3531 C 1.11920 1.25027 0.91950
 C3532 C 1.11125 1.23160 0.92845
 C3533 C 1.10147 1.21634 0.91556
 C3534 C 1.09917 1.21999 0.89310
 C3535 C 1.09057 1.20342 0.88048
 C3536 C 1.08355 1.18457 0.88996
 C3537 C 1.08457 1.18153 0.91237
 C3538 C 1.09387 1.19746 0.92504
 H3539 H 1.14381 1.28532 0.91524
 H3540 H 1.12231 1.30155 0.84026
 H3541 H 1.15597 1.31723 0.89864
 H3542 H 1.10363 1.26854 0.83749
 H3543 H 1.09185 1.23557 0.85214
 H3544 H 1.12638 1.26126 0.93062
 H3545 H 1.11301 1.22898 0.94565
 H3546 H 1.08956 1.20430 0.86315
 H3547 H 1.07743 1.17223 0.87955
 H3548 H 1.09494 1.19536 0.94236
 C3549 C 1.12260 0.79494 0.40305
 C3550 C 1.11184 0.77943 0.39066
 C3551 C 1.10978 0.78326 0.36818
 C3552 C 1.11808 0.80189 0.35876
 C3553 C 1.12930 0.81666 0.37121
 C3554 C 1.13126 0.81307 0.39342
 C3555 C 1.09993 0.76823 0.35508
 C3556 C 1.09282 0.74905 0.36356
 C3557 C 1.09495 0.74422 0.38571
 C3558 C 1.10369 0.76005 0.39965
 C3559 C 1.10396 0.75598 0.42208
 C3560 C 1.09663 0.73687 0.43056
 C3561 C 1.08914 0.72084 0.41709
 C3562 C 1.08839 0.72415 0.39445
 C3563 C 1.08150 0.70704 0.38146
 C3564 C 1.07505 0.68784 0.39066
 C3565 C 1.07511 0.68488 0.41309
 C3566 C 1.08237 0.70147 0.42620
 H3567 H 1.12532 0.79323 0.42011
 H3568 H 1.11669 0.80437 0.34150
 H3569 H 1.13987 0.82423 0.40343
 H3570 H 1.09807 0.77114 0.33795
 H3571 H 1.08537 0.73842 0.35228
 H3572 H 1.10940 0.76744 0.43368
 H3573 H 1.09708 0.73453 0.44789
 H3574 H 1.08133 0.70776 0.36410
 H3575 H 1.07018 0.67510 0.38004
 H3576 H 1.08252 0.69942 0.44358
 C3577 C 0.63102 1.29570 0.41126
 C3578 C 0.61640 1.28201 0.40088
 C3579 C 0.60856 1.28831 0.38048
 C3580 C 0.61440 1.30785 0.37147
 C3581 C 0.62942 1.32105 0.38154
 C3582 C 0.63764 1.31470 0.40157
 C3583 C 0.59529 1.27485 0.36879
 C3584 C 0.59044 1.25474 0.37640
 C3585 C 0.59799 1.24766 0.39653
 C3586 C 0.60984 1.26202 0.40965
 C3587 C 0.61429 1.25605 0.43113
 C3588 C 0.60762 1.23651 0.43932
 C3589 C 0.59743 1.22175 0.42610
 C3590 C 0.59335 1.22686 0.40425
 C3591 C 0.58526 1.21077 0.39076
 C3592 C 0.57992 1.19094 0.39904
 C3593 C 0.58190 1.18649 0.42114
 C3594 C 0.59118 1.20192 0.43453
 H3595 H 0.63834 1.29169 0.42641
 H3596 H 0.60797 1.31216 0.35587
 H3597 H 0.64931 1.32438 0.40984
 H3598 H 0.58904 1.27969 0.35328
 H3599 H 0.57999 1.24530 0.36650
 H3600 H 0.62213 1.26658 0.44227
 H3601 H 0.61085 1.23277 0.45607
 H3602 H 0.58354 1.21284 0.37358
 H3603 H 0.57419 1.17903 0.38792
 H3604 H 0.59325 1.19872 0.45157
 C3605 C 0.59455 0.79610 0.87594
 C3606 C 0.60609 0.78153 0.88871
 C3607 C 0.62772 0.78636 0.89303
 C3608 C 0.63696 0.80532 0.88556
 C3609 C 0.62530 0.81955 0.87300
 C3610 C 0.60409 0.81468 0.86816
 C3611 C 0.64015 0.77216 0.90462
 C3612 C 0.63181 0.75292 0.91158
 C3613 C 0.61041 0.74726 0.90765
 C3614 C 0.59707 0.76222 0.89694
 C3615 C 0.57514 0.75754 0.89520
 C3616 C 0.56661 0.73869 0.90314
 C3617 C 0.57963 0.72345 0.91252
 C3618 C 0.60178 0.72732 0.91452
 C3619 C 0.61446 0.71084 0.92294
 C3620 C 0.60538 0.69174 0.92977
 C3621 C 0.58334 0.68832 0.92867
 C3622 C 0.57058 0.70430 0.91988
 H3623 H 0.57830 0.79335 0.87120
 H3624 H 0.65351 0.80873 0.88910
 H3625 H 0.59476 0.82533 0.85834
 H3626 H 0.65664 0.77586 0.90813
 H3627 H 0.64247 0.74301 0.92059
 H3628 H 0.56395 0.76845 0.88827
 H3629 H 0.54964 0.73590 0.90165
 H3630 H 0.63154 0.71193 0.92392
 H3631 H 0.61582 0.67945 0.93563
 H3632 H 0.55352 0.70194 0.91889
 C3633 C 0.90474 1.28951 1.12277
 C3634 C 0.89324 1.27269 1.11312
 C3635 C 0.87087 1.27501 1.11118
 C3636 C 0.86071 1.29354 1.11831
 C3637 C 0.87234 1.30982 1.12816
 C3638 C 0.89441 1.30762 1.13022
 C3639 C 0.85865 1.25867 1.10248
 C3640 C 0.86797 1.23977 1.09619
 C3641 C 0.89012 1.23652 1.09800
 C3642 C 0.90307 1.25355 1.10578
 C3643 C 0.92540 1.25096 1.10572
 C3644 C 0.93475 1.23229 1.09867
 C3645 C 0.92231 1.21524 1.09185
 C3646 C 0.89979 1.21694 1.09183
 C3647 C 0.88788 1.19883 1.08580
 C3648 C 0.89793 1.18037 1.07899
 C3649 C 0.92017 1.17916 1.07790
 C3650 C 0.93229 1.19655 1.08481
 H3651 H 0.92165 1.28898 1.12540
 H3652 H 0.84358 1.29495 1.11688
 H3653 H 0.90381 1.31994 1.13783
 H3654 H 0.84158 1.26041 1.10077
 H3655 H 0.85734 1.22811 1.08947
 H3656 H 0.93625 1.26331 1.11057
 H3657 H 0.95197 1.23116 1.09866
 H3658 H 0.87075 1.19824 1.08644
 H3659 H 0.88816 1.16689 1.07449
 H3660 H 0.94952 1.19573 1.08420
 C3661 C 0.85011 0.77443 0.61275
 C3662 C 0.87121 0.76729 0.61575
 C3663 C 0.88531 0.78063 0.62738
 C3664 C 0.87809 0.79974 0.63648
 C3665 C 0.85707 0.80640 0.63349
 C3666 C 0.84329 0.79366 0.62137
 C3667 C 0.90657 0.77491 0.62973
 C3668 C 0.91435 0.75645 0.62044
 C3669 C 0.90094 0.74252 0.60888
 C3670 C 0.87883 0.74759 0.60732
 C3671 C 0.86500 0.73260 0.59782
 C3672 C 0.87251 0.71356 0.58968
 C3673 C 0.89415 0.70885 0.59009
 C3674 C 0.90877 0.72341 0.59929
 C3675 C 0.93066 0.71829 0.59825
 C3676 C 0.93753 0.69924 0.58917
 C3677 C 0.92293 0.68448 0.58091
 C3678 C 0.90121 0.68955 0.58138
 H3679 H 0.83859 0.76580 0.60337
 H3680 H 0.88900 0.80967 0.64550
 H3681 H 0.82701 0.79848 0.61866
 H3682 H 0.91744 0.78497 0.63865
 H3683 H 0.93093 0.75320 0.62317
 H3684 H 0.84804 0.73482 0.59701
 H3685 H 0.86123 0.70245 0.58279
 H3686 H 0.94295 0.72886 0.60387
 H3687 H 0.95446 0.69620 0.58843
 H3688 H 0.88964 0.67832 0.57524
 C3689 C 0.38854 1.28183 0.64826
 C3690 C 0.38484 1.27284 0.62775
 C3691 C 0.37125 1.28395 0.61352
 C3692 C 0.36071 1.30250 0.62031
 C3693 C 0.36441 1.31119 0.64087
 C3694 C 0.37874 1.30067 0.65453
 C3695 C 0.36841 1.27657 0.59250
 C3696 C 0.37911 1.25871 0.58512
 C3697 C 0.39250 1.24691 0.59881
 C3698 C 0.39449 1.25346 0.62078
 C3699 C 0.40553 1.24012 0.63517
 C3700 C 0.41457 1.22120 0.62828
 C3701 C 0.41378 1.21517 0.60664
 C3702 C 0.40335 1.22831 0.59147
 C3703 C 0.40447 1.22241 0.56950
 C3704 C 0.41437 1.20366 0.56312
 C3705 C 0.42323 1.18975 0.57832
 C3706 C 0.42320 1.19595 0.60011
 H3707 H 0.39947 1.27503 0.65964
 H3708 H 0.35012 1.31048 0.60924
 H3709 H 0.38233 1.30679 0.67043
 H3710 H 0.35802 1.28489 0.58149
 H3711 H 0.37591 1.25402 0.56873
 H3712 H 0.40670 1.24346 0.65218
 H3713 H 0.42245 1.21126 0.64003
 H3714 H 0.39827 1.23223 0.55678
 H3715 H 0.41504 1.20008 0.54605
 H3716 H 0.43005 1.18564 0.61217
 C3717 C 0.36329 0.78517 1.10193
 C3718 C 0.37774 0.77208 1.11314
 C3719 C 0.38319 0.77792 1.13448
 C3720 C 0.37567 0.79687 1.14345
 C3721 C 0.36167 0.81000 1.13201
 C3722 C 0.35526 0.80363 1.11131
 C3723 C 0.39609 0.76481 1.14686
 C3724 C 0.40339 0.74571 1.13871
 C3725 C 0.39872 0.73932 1.11744
 C3726 C 0.38668 0.75326 1.10407
 C3727 C 0.38458 0.74827 1.08198
 C3728 C 0.39358 0.73006 1.07334
 C3729 C 0.40417 0.71564 1.08650
 C3730 C 0.40629 0.71974 1.10886
 C3731 C 0.41556 0.70386 1.12182
 C3732 C 0.42314 0.68513 1.11276
 C3733 C 0.42220 0.68161 1.09042
 C3734 C 0.41258 0.69706 1.07742
 H3735 H 0.35746 0.78126 1.08609
 H3736 H 0.38050 0.80110 1.15967
 H3737 H 0.34426 0.81310 1.10205
 H3738 H 0.40040 0.76924 1.16317
 H3739 H 0.41345 0.73662 1.14924
 H3740 H 0.37674 0.75862 1.07073
 H3741 H 0.39192 0.72707 1.05620
 H3742 H 0.41649 0.70509 1.13914
 H3743 H 0.42945 0.67321 1.12350
 H3744 H 0.41167 0.69478 1.06012
 C3745 C 0.90785 0.70185 0.88482
 C3746 C 0.89557 0.71842 0.89381
 C3747 C 0.87323 0.71524 0.89544
 C3748 C 0.86379 0.69628 0.88828
 C3749 C 0.87613 0.68050 0.87860
 C3750 C 0.89822 0.68336 0.87722
 C3751 C 0.86030 0.73125 0.90358
 C3752 C 0.86885 0.75076 0.90928
 C3753 C 0.89088 0.75499 0.90736
 C3754 C 0.90459 0.73822 0.90053
 C3755 C 0.92681 0.74185 0.90066
 C3756 C 0.93533 0.76134 0.90656
 C3757 C 0.92214 0.77817 0.91213
 C3758 C 0.89971 0.77535 0.91233
 C3759 C 0.88702 0.79320 0.91711
 C3760 C 0.89626 0.81263 0.92238
 C3761 C 0.91843 0.81508 0.92310
 C3762 C 0.93129 0.79782 0.91762
 H3763 H 0.92483 0.70295 0.88260
 H3764 H 0.84664 0.69433 0.88919
 H3765 H 0.90814 0.67138 0.86980
 H3766 H 0.84326 0.72883 0.90515
 H3767 H 0.85770 0.76216 0.91549
 H3768 H 0.93818 0.72975 0.89665
 H3769 H 0.95249 0.76331 0.90653
 H3770 H 0.86990 0.79285 0.91656
 H3771 H 0.88593 0.82589 0.92585
 H3772 H 0.94846 0.79956 0.91804
 C3773 C 0.89900 0.21235 0.36166
 C3774 C 0.88899 0.22559 0.37703
 C3775 C 0.86830 0.21977 0.38423
 C3776 C 0.85879 0.20080 0.37732
 C3777 C 0.86907 0.18756 0.36235
 C3778 C 0.88914 0.19382 0.35437
 C3779 C 0.85711 0.23292 0.39828
 C3780 C 0.86579 0.25203 0.40506
 C3781 C 0.88642 0.25844 0.39858
 C3782 C 0.89862 0.24451 0.38524
 C3783 C 0.92017 0.24966 0.38110
 C3784 C 0.92939 0.26797 0.38938
 C3785 C 0.91733 0.28230 0.40138
 C3786 C 0.89552 0.27805 0.40559
 C3787 C 0.88359 0.29379 0.41635
 C3788 C 0.89320 0.31243 0.42351
 C3789 C 0.91508 0.31605 0.42053
 C3790 C 0.92700 0.30090 0.40920
 H3791 H 0.91426 0.21613 0.35455
 H3792 H 0.84310 0.19662 0.38342
 H3793 H 0.89752 0.18426 0.34260
 H3794 H 0.84132 0.22851 0.40395
 H3795 H 0.85618 0.26111 0.41611
 H3796 H 0.93061 0.23938 0.37213
 H3797 H 0.94609 0.27108 0.38613
 H3798 H 0.86665 0.29248 0.41891
 H3799 H 0.88325 0.32420 0.43120
 H3800 H 0.94390 0.30342 0.40662
 C3801 C 0.40439 0.70769 0.38020
 C3802 C 0.39206 0.72414 0.38936
 C3803 C 0.36981 0.72067 0.39148
 C3804 C 0.36055 0.70145 0.38490
 C3805 C 0.37295 0.68557 0.37545
 C3806 C 0.39493 0.68885 0.37329
 C3807 C 0.35679 0.73652 0.39976
 C3808 C 0.36518 0.75609 0.40540
 C3809 C 0.38715 0.76054 0.40328
 C3810 C 0.40094 0.74402 0.39601
 C3811 C 0.42312 0.74788 0.39581
 C3812 C 0.43153 0.76731 0.40203
 C3813 C 0.41825 0.78386 0.40823
 C3814 C 0.39585 0.78086 0.40860
 C3815 C 0.38306 0.79847 0.41404
 C3816 C 0.39220 0.81779 0.41984
 C3817 C 0.41435 0.82036 0.42042
 C3818 C 0.42729 0.80339 0.41425
 H3819 H 0.42129 0.70906 0.37751
 H3820 H 0.34348 0.69921 0.38642
 H3821 H 0.40491 0.67685 0.36599
 H3822 H 0.33980 0.73387 0.40163
 H3823 H 0.35398 0.76733 0.41182
 H3824 H 0.43455 0.73600 0.39136
 H3825 H 0.44866 0.76945 0.40181
 H3826 H 0.36593 0.79802 0.41366
 H3827 H 0.38181 0.83087 0.42384
 H3828 H 0.44445 0.80522 0.41457
 C3829 C 0.40877 0.20636 0.87756
 C3830 C 0.39705 0.22183 0.88893
 C3831 C 0.37525 0.21754 0.89327
 C3832 C 0.36592 0.19822 0.88703
 C3833 C 0.37759 0.18328 0.87513
 C3834 C 0.39915 0.18762 0.87064
 C3835 C 0.36268 0.23279 0.90334
 C3836 C 0.37100 0.25259 0.90835
 C3837 C 0.39254 0.25770 0.90411
 C3838 C 0.40607 0.24165 0.89549
 C3839 C 0.42815 0.24586 0.89401
 C3840 C 0.43663 0.26530 0.90021
 C3841 C 0.42344 0.28156 0.90735
 C3842 C 0.40113 0.27818 0.90880
 C3843 C 0.38826 0.29560 0.91453
 C3844 C 0.39730 0.31503 0.92000
 C3845 C 0.41946 0.31786 0.92018
 C3846 C 0.43244 0.30116 0.91330
 H3847 H 0.42518 0.20860 0.87293
 H3848 H 0.34920 0.19539 0.89051
 H3849 H 0.40879 0.17656 0.86154
 H3850 H 0.34606 0.22957 0.90693
 H3851 H 0.36025 0.26343 0.91619
 H3852 H 0.43945 0.23413 0.88879
 H3853 H 0.45371 0.26769 0.89915
 H3854 H 0.37111 0.29483 0.91451
 H3855 H 0.38681 0.32795 0.92425
 H3856 H 0.44958 0.30319 0.91310
 C3857 C 1.14108 0.71917 1.09937
 C3858 C 1.12102 0.72790 1.10464
 C3859 C 1.10752 0.71611 1.11864
 C3860 C 1.11474 0.69743 1.12844
 C3861 C 1.13523 0.68958 1.12408
 C3862 C 1.14795 0.70033 1.10882
 C3863 C 1.08696 0.72316 1.12307
 C3864 C 1.07945 0.74177 1.11398
 C3865 C 1.09255 0.75456 1.10063
 C3866 C 1.11393 0.74788 1.09654
 C3867 C 1.12779 0.76179 1.08533
 C3868 C 1.12101 0.78150 1.07827
 C3869 C 1.10000 0.78785 1.08135
 C3870 C 1.08527 0.77423 1.09196
 C3871 C 1.06383 0.78090 1.09336
 C3872 C 1.05762 0.80062 1.08540
 C3873 C 1.07249 0.81455 1.07598
 C3874 C 1.09370 0.80789 1.07397
 H3875 H 1.15177 0.72641 1.08781
 H3876 H 1.10430 0.68911 1.13965
 H3877 H 1.16364 0.69459 1.10454
 H3878 H 1.07652 0.71417 1.13372
 H3879 H 1.06351 0.74621 1.11852
 H3880 H 1.14434 0.75828 1.08255
 H3881 H 1.13237 0.79186 1.07017
 H3882 H 1.05136 0.77104 1.10003
 H3883 H 1.04097 0.80484 1.08647
 H3884 H 1.10554 0.81842 1.06693
 C3885 C 1.14852 0.23047 0.60911
 C3886 C 1.12759 0.23768 0.61281
 C3887 C 1.11410 0.22522 0.62625
 C3888 C 1.12191 0.20706 0.63665
 C3889 C 1.14294 0.20035 0.63316
 C3890 C 1.15595 0.21219 0.61900
 C3891 C 1.09286 0.23089 0.62915
 C3892 C 1.08458 0.24849 0.61871
 C3893 C 1.09751 0.26161 0.60550
 C3894 C 1.11958 0.25664 0.60334
 C3895 C 1.13307 0.27110 0.59235
 C3896 C 1.12523 0.28957 0.58338
 C3897 C 1.10359 0.29412 0.58442
 C3898 C 1.08929 0.27998 0.59498
 C3899 C 1.06735 0.28483 0.59446
 C3900 C 1.06019 0.30349 0.58492
 C3901 C 1.07457 0.31800 0.57566
 C3902 C 1.09625 0.31299 0.57520
 H3903 H 1.15946 0.23827 0.59819
 H3904 H 1.11140 0.19797 0.64714
 H3905 H 1.17217 0.20750 0.61553
 H3906 H 1.08243 0.22149 0.63942
 H3907 H 1.06807 0.25184 0.62195
 H3908 H 1.15004 0.26902 0.59112
 H3909 H 1.13625 0.30038 0.57544
 H3910 H 1.05528 0.27439 0.60098
 H3911 H 1.04325 0.30660 0.58486
 H3912 H 1.10760 0.32407 0.56819
 C3913 C 0.62775 0.70960 0.59319
 C3914 C 0.61519 0.72414 0.60509
 C3915 C 0.61120 0.71949 0.62716
 C3916 C 0.61863 0.70066 0.63642
 C3917 C 0.63076 0.68632 0.62434
 C3918 C 0.63547 0.69110 0.60275
 C3919 C 0.59984 0.73364 0.63998
 C3920 C 0.59261 0.75263 0.63156
 C3921 C 0.59604 0.75805 0.60969
 C3922 C 0.60670 0.74318 0.59602
 C3923 C 0.60805 0.74762 0.57370
 C3924 C 0.59961 0.76609 0.56508
 C3925 C 0.59012 0.78120 0.57837
 C3926 C 0.58864 0.77765 0.60093
 C3927 C 0.58011 0.79404 0.61385
 C3928 C 0.57266 0.81272 0.60463
 C3929 C 0.57319 0.81581 0.58222
 C3930 C 0.58211 0.79992 0.56920
 H3931 H 0.63225 0.71226 0.57659
 H3932 H 0.61522 0.69734 0.65328
 H3933 H 0.64499 0.68037 0.59311
 H3934 H 0.59663 0.73008 0.65682
 H3935 H 0.58374 0.76248 0.64254
 H3936 H 0.61501 0.73678 0.56229
 H3937 H 0.60076 0.76867 0.54780
 H3938 H 0.57952 0.79322 0.63121
 H3939 H 0.56674 0.82498 0.61527
 H3940 H 0.58271 0.80201 0.55183
 C3941 C 0.59969 0.21364 1.13440
 C3942 C 0.60592 0.22453 1.11552
 C3943 C 0.62133 0.21494 1.10191
 C3944 C 0.63169 0.19624 1.10840
 C3945 C 0.62596 0.18608 1.12782
 C3946 C 0.60934 0.19477 1.14027
 C3947 C 0.62625 0.22412 1.08197
 C3948 C 0.61599 0.24243 1.07515
 C3949 C 0.60120 0.25293 1.08863
 C3950 C 0.59707 0.24445 1.10960
 C3951 C 0.58499 0.25656 1.12436
 C3952 C 0.57690 0.27619 1.11866
 C3953 C 0.57967 0.28407 1.09780
 C3954 C 0.59112 0.27217 1.08224
 C3955 C 0.59183 0.27993 1.06086
 C3956 C 0.58278 0.29939 1.05560
 C3957 C 0.57315 0.31208 1.07149
 C3958 C 0.57129 0.30399 1.09252
 H3959 H 0.58696 0.21905 1.14474
 H3960 H 0.64398 0.18953 1.09817
 H3961 H 0.60393 0.18732 1.15510
 H3962 H 0.63795 0.21693 1.07138
 H3963 H 0.62074 0.24862 1.05961
 H3964 H 0.58245 0.25176 1.14089
 H3965 H 0.56823 0.28521 1.13068
 H3966 H 0.59885 0.27108 1.04778
 H3967 H 0.58349 0.30452 1.03893
 H3968 H 0.56385 0.31338 1.10506
 C3969 C 1.28253 1.14397 0.88807
 C3970 C 1.27500 1.12297 0.88509
 C3971 C 1.28883 1.10844 0.87474
 C3972 C 1.30895 1.11501 0.86710
 C3973 C 1.31614 1.13585 0.87023
 C3974 C 1.30276 1.15018 0.88087
 C3975 C 1.28265 1.08734 0.87224
 C3976 C 1.26322 1.08009 0.88024
 C3977 C 1.24885 1.09386 0.89072
 C3978 C 1.25446 1.11582 0.89238
 C3979 C 1.23922 1.12993 0.90093
 C3980 C 1.21942 1.12283 0.90807
 C3981 C 1.21411 1.10135 0.90754
 C3982 C 1.22885 1.08647 0.89921
 C3983 C 1.22301 1.06477 0.90002
 C3984 C 1.20322 1.05831 0.90814
 C3985 C 1.18838 1.07313 0.91565
 C3986 C 1.19407 1.09468 0.91533
 H3987 H 1.27344 1.15588 0.89639
 H3988 H 1.31929 1.10366 0.85922
 H3989 H 1.30794 1.16635 0.88365
 H3990 H 1.29308 1.07617 0.86422
 H3991 H 1.25971 1.06360 0.87747
 H3992 H 1.24191 1.14678 0.90183
 H3993 H 1.20819 1.13431 0.91432
 H3994 H 1.23356 1.05230 0.89499
 H3995 H 1.19966 1.04151 0.90879
 H3996 H 1.18279 1.10642 0.92093
 C3997 C 1.27781 0.64551 0.38791
 C3998 C 1.27005 0.62463 0.38474
 C3999 C 1.28382 0.60994 0.37451
 C4000 C 1.30408 0.61629 0.36712
 C4001 C 1.31145 0.63703 0.37038
 C4002 C 1.29815 0.65149 0.38094
 C4003 C 1.27740 0.58892 0.37188
 C4004 C 1.25780 0.58192 0.37964
 C4005 C 1.24350 0.59585 0.38997
 C4006 C 1.24935 0.61774 0.39172
 C4007 C 1.23419 0.63206 0.40005
 C4008 C 1.21423 0.62520 0.40695
 C4009 C 1.20870 0.60379 0.40639
 C4010 C 1.22334 0.58872 0.39822
 C4011 C 1.21725 0.56709 0.39899
 C4012 C 1.19731 0.56088 0.40692
 C4013 C 1.18261 0.57590 0.41428
 C4014 C 1.18853 0.59738 0.41398
 H4015 H 1.26879 0.65750 0.39620
 H4016 H 1.31436 0.60485 0.35927
 H4017 H 1.30347 0.66760 0.38381
 H4018 H 1.28779 0.57765 0.36394
 H4019 H 1.25410 0.56548 0.37678
 H4020 H 1.23705 0.64887 0.40094
 H4021 H 1.20307 0.63682 0.41304
 H4022 H 1.22770 0.55449 0.39408
 H4023 H 1.19353 0.54413 0.40756
 H4024 H 1.17733 0.60924 0.41946
 C4025 C 0.77996 1.14392 0.38989
 C4026 C 0.77275 1.12267 0.38850
 C4027 C 0.78613 1.10790 0.37788
 C4028 C 0.80531 1.11455 0.36811
 C4029 C 0.81193 1.13575 0.36927
 C4030 C 0.79920 1.15025 0.38049
 C4031 C 0.78033 1.08657 0.37703
 C4032 C 0.76161 1.07942 0.38667
 C4033 C 0.74754 1.09350 0.39714
 C4034 C 0.75286 1.11559 0.39741
 C4035 C 0.73787 1.12993 0.40602
 C4036 C 0.71847 1.12298 0.41429
 C4037 C 0.71338 1.10146 0.41485
 C4038 C 0.72800 1.08634 0.40678
 C4039 C 0.72242 1.06465 0.40878
 C4040 C 0.70278 1.05844 0.41744
 C4041 C 0.68796 1.07352 0.42438
 C4042 C 0.69355 1.09504 0.42327
 H4043 H 0.77133 1.15601 0.39844
 H4044 H 0.81522 1.10311 0.35981
 H4045 H 0.80400 1.16671 0.38184
 H4046 H 0.79047 1.07520 0.36891
 H4047 H 0.75828 1.06274 0.38503
 H4048 H 0.74033 1.14683 0.40598
 H4049 H 0.70734 1.13462 0.42038
 H4050 H 0.73297 1.05205 0.40411
 H4051 H 0.69923 1.04167 0.41875
 H4052 H 0.68225 1.10693 0.42849
 C4053 C 0.78208 0.61346 0.85967
 C4054 C 0.77424 0.61536 0.88105
 C4055 C 0.78760 0.62537 0.89641
 C4056 C 0.80755 0.63373 0.89024
 C4057 C 0.81500 0.63165 0.86899
 C4058 C 0.80211 0.62136 0.85386
 C4059 C 0.78111 0.62677 0.91792
 C4060 C 0.76185 0.61805 0.92473
 C4061 C 0.74795 0.60793 0.91011
 C4062 C 0.75385 0.60736 0.88777
 C4063 C 0.73903 0.59917 0.87285
 C4064 C 0.71933 0.59138 0.87952
 C4065 C 0.71374 0.59092 0.90133
 C4066 C 0.72810 0.59879 0.91700
 C4067 C 0.72205 0.59694 0.93898
 C4068 C 0.70229 0.58848 0.94494
 C4069 C 0.68774 0.58161 0.92934
 C4070 C 0.69375 0.58270 0.90751
 H4071 H 0.77339 0.60546 0.84712
 H4072 H 0.81754 0.64135 0.90217
 H4073 H 0.80750 0.61941 0.83734
 H4074 H 0.79116 0.63450 0.92972
 H4075 H 0.75805 0.62000 0.94158
 H4076 H 0.74192 0.59907 0.85570
 H4077 H 0.70840 0.58550 0.86743
 H4078 H 0.73236 0.60150 0.95201
 H4079 H 0.69846 0.58719 0.96196
 H4080 H 0.68270 0.57750 0.89521
 C4081 C 1.29151 0.90157 1.12778
 C4082 C 1.27607 0.89043 1.11561
 C4083 C 1.27968 0.86861 1.11158
 C4084 C 1.29822 0.85873 1.11894
 C4085 C 1.31315 0.86991 1.13123
 C4086 C 1.30961 0.89138 1.13557
 C4087 C 1.26461 0.85659 1.10055
 C4088 C 1.24558 0.86549 1.09403
 C4089 C 1.24104 0.88705 1.09787
 C4090 C 1.25697 0.89998 1.10779
 C4091 C 1.25339 0.92202 1.10925
 C4092 C 1.23470 0.93103 1.10169
 C4093 C 1.21854 0.91844 1.09309
 C4094 C 1.22126 0.89620 1.09158
 C4095 C 1.20388 0.88394 1.08419
 C4096 C 1.18512 0.89350 1.07749
 C4097 C 1.18293 0.91559 1.07771
 C4098 C 1.19965 0.92797 1.08590
 H4099 H 1.28975 0.91798 1.13218
 H4100 H 1.30060 0.84200 1.11580
 H4101 H 1.32085 0.90035 1.14517
 H4102 H 1.26740 0.83997 1.09721
 H4103 H 1.23493 0.85512 1.08543
 H4104 H 1.26505 0.93287 1.11561
 H4105 H 1.23280 0.94806 1.10285
 H4106 H 1.20403 0.86687 1.08388
 H4107 H 1.17216 0.88341 1.07221
 H4108 H 1.19815 0.94506 1.08637
 C4109 C 1.29222 0.39993 0.62333
 C4110 C 1.27566 0.38842 0.61324
 C4111 C 1.27762 0.36602 0.61228
 C4112 C 1.29558 0.35580 0.62097
 C4113 C 1.31140 0.36752 0.63151
 C4114 C 1.30958 0.38962 0.63239
 C4115 C 1.26137 0.35389 0.60319
 C4116 C 1.24288 0.36334 0.59570
 C4117 C 1.23997 0.38552 0.59664
 C4118 C 1.25701 0.39832 0.60471
 C4119 C 1.25486 0.42060 0.60394
 C4120 C 1.23649 0.43005 0.59624
 C4121 C 1.21933 0.41782 0.58928
 C4122 C 1.22069 0.39537 0.58955
 C4123 C 1.20251 0.38375 0.58303
 C4124 C 1.18418 0.39401 0.57596
 C4125 C 1.18316 0.41619 0.57503
 C4126 C 1.20081 0.42799 0.58197
 H4127 H 1.29196 0.41688 0.62524
 H4128 H 1.29671 0.33867 0.62049
 H4129 H 1.32158 0.39905 0.64046
 H4130 H 1.26279 0.33680 0.60220
 H4131 H 1.23120 0.35275 0.58893
 H4132 H 1.26730 0.43132 0.60884
 H4133 H 1.23567 0.44721 0.59591
 H4134 H 1.20174 0.36671 0.58352
 H4135 H 1.17060 0.38442 0.57135
 H4136 H 1.20029 0.44515 0.58135
 C4137 C 0.78682 0.89860 0.62709
 C4138 C 0.77029 0.88744 0.61654
 C4139 C 0.77265 0.86523 0.61389
 C4140 C 0.79106 0.85491 0.62109
 C4141 C 0.80698 0.86620 0.63187
 C4142 C 0.80471 0.88808 0.63471
 C4143 C 0.75645 0.85333 0.60448
 C4144 C 0.73756 0.86280 0.59832
 C4145 C 0.73429 0.88478 0.60088
 C4146 C 0.75132 0.89746 0.60912
 C4147 C 0.74891 0.91971 0.60942
 C4148 C 0.73030 0.92923 0.60244
 C4149 C 0.71314 0.91702 0.59544
 C4150 C 0.71471 0.89459 0.59500
 C4151 C 0.69644 0.88289 0.58897
 C4152 C 0.67795 0.89308 0.58248
 C4153 C 0.67691 0.91524 0.58171
 C4154 C 0.69446 0.92714 0.58865
 H4155 H 0.78612 0.91533 0.63041
 H4156 H 0.79256 0.83791 0.61913
 H4157 H 0.81680 0.89715 0.64308
 H4158 H 0.75823 0.83640 0.60219
 H4159 H 0.72595 0.85246 0.59105
 H4160 H 0.76140 0.93035 0.61441
 H4161 H 0.72929 0.94637 0.60270
 H4162 H 0.69576 0.86583 0.58943
 H4163 H 0.66433 0.88348 0.57800
 H4164 H 0.69377 0.94430 0.58829
 C4165 C 0.77799 0.35012 1.11257
 C4166 C 0.77059 0.37108 1.11561
 C4167 C 0.78397 0.38534 1.12698
 C4168 C 0.80349 0.37854 1.13549
 C4169 C 0.81056 0.35774 1.13228
 C4170 C 0.79765 0.34369 1.12066
 C4171 C 0.77795 0.40641 1.12962
 C4172 C 0.75914 0.41388 1.12084
 C4173 C 0.74522 0.40039 1.10937
 C4174 C 0.75062 0.37846 1.10746
 C4175 C 0.73574 0.36460 1.09782
 C4176 C 0.71643 0.37191 1.08999
 C4177 C 0.71134 0.39337 1.09088
 C4178 C 0.72581 0.40801 1.10018
 C4179 C 0.72033 0.42973 1.09965
 C4180 C 0.70099 0.43640 1.09108
 C4181 C 0.68626 0.42179 1.08278
 C4182 C 0.69173 0.40025 1.08257
 H4183 H 0.76925 0.33841 1.10356
 H4184 H 0.81348 0.38968 1.14414
 H4185 H 0.80275 0.32756 1.11780
 H4186 H 0.78803 0.41736 1.13840
 H4187 H 0.75568 0.43031 1.12383
 H4188 H 0.73827 0.34778 1.09658
 H4189 H 0.70542 0.36060 1.08298
 H4190 H 0.73080 0.44206 1.10534
 H4191 H 0.69765 0.45322 1.09081
 H4192 H 0.68057 0.38868 1.07628
 C4193 C 0.70832 1.13342 1.09292
 C4194 C 0.72383 1.12217 1.10476
 C4195 C 0.71979 1.11871 1.12706
 C4196 C 0.70061 1.12543 1.13666
 C4197 C 0.68538 1.13640 1.12463
 C4198 C 0.68957 1.14047 1.10275
 C4199 C 0.73495 1.10865 1.13974
 C4200 C 0.75425 1.10222 1.13094
 C4201 C 0.75904 1.10514 1.10882
 C4202 C 0.74324 1.11451 1.09534
 C4203 C 0.74719 1.11544 1.07287
 C4204 C 0.76596 1.10773 1.06390
 C4205 C 0.78188 1.09934 1.07691
 C4206 C 0.77888 1.09842 1.09961
 C4207 C 0.79602 1.09100 1.11218
 C4208 C 0.81476 1.08381 1.10253
 C4209 C 0.81723 1.08353 1.08000
 C4210 C 0.80075 1.09172 1.06730
 H4211 H 0.71038 1.13745 1.07613
 H4212 H 0.69774 1.12250 1.15369
 H4213 H 0.67818 1.14904 1.09307
 H4214 H 0.73194 1.10585 1.15676
 H4215 H 0.76490 1.09437 1.14187
 H4216 H 0.73572 1.12149 1.06161
 H4217 H 0.76808 1.10848 1.04653
 H4218 H 0.79565 1.09092 1.12956
 H4219 H 0.82748 1.07853 1.11291
 H4220 H 0.80239 1.09180 1.04988
 C4221 C 0.70444 0.59622 0.62642
 C4222 C 0.72098 0.60755 0.61578
 C4223 C 0.71783 0.62948 0.61190
 C4224 C 0.69864 0.63929 0.61782
 C4225 C 0.68259 0.62786 0.62853
 C4226 C 0.68571 0.60630 0.63280
 C4227 C 0.73396 0.64164 0.60244
 C4228 C 0.75346 0.63272 0.59727
 C4229 C 0.75748 0.61100 0.60087
 C4230 C 0.74064 0.59801 0.60931
 C4231 C 0.74392 0.57590 0.61061
 C4232 C 0.76305 0.56684 0.60417
 C4233 C 0.77993 0.57942 0.59684
 C4234 C 0.77759 0.60174 0.59568
 C4235 C 0.79560 0.61392 0.58956
 C4236 C 0.81457 0.60424 0.58347
 C4237 C 0.81638 0.58211 0.58314
 C4238 C 0.79911 0.56978 0.59039
 H4239 H 0.70573 0.57972 0.63067
 H4240 H 0.69653 0.65608 0.61481
 H4241 H 0.67358 0.59714 0.64120
 H4242 H 0.73160 0.65836 0.59927
 H4243 H 0.76493 0.64321 0.58980
 H4244 H 0.73169 0.56501 0.61591
 H4245 H 0.76467 0.54977 0.60508
 H4246 H 0.79569 0.63100 0.58964
 H4247 H 0.82794 0.61422 0.57887
 H4248 H 0.80037 0.55266 0.59047
 C4249 C 0.23363 1.15720 0.62172
 C4250 C 0.23892 1.13543 0.62188
 C4251 C 0.22412 1.12107 0.63140
 C4252 C 0.20504 1.12843 0.64058
 C4253 C 0.19991 1.14995 0.63971
 C4254 C 0.21443 1.16422 0.63036
 C4255 C 0.22816 1.09939 0.63127
 C4256 C 0.24622 1.09146 0.62120
 C4257 C 0.26128 1.10504 0.61118
 C4258 C 0.25806 1.12743 0.61240
 C4259 C 0.27412 1.14106 0.60425
 C4260 C 0.29242 1.13316 0.59467
 C4261 C 0.29532 1.11141 0.59242
 C4262 C 0.27969 1.09700 0.60033
 C4263 C 0.28310 1.07512 0.59681
 C4264 C 0.30166 1.06796 0.58683
 C4265 C 0.31741 1.08227 0.57993
 C4266 C 0.31397 1.10401 0.58249
 H4267 H 0.24358 1.16918 0.61438
 H4268 H 0.19373 1.11725 0.64753
 H4269 H 0.21081 1.18097 0.62947
 H4270 H 0.21702 1.08835 0.63869
 H4271 H 0.24812 1.07453 0.62193
 H4272 H 0.27332 1.15806 0.60546
 H4273 H 0.30439 1.14424 0.58881
 H4274 H 0.27166 1.06310 0.60132
 H4275 H 0.30372 1.05108 0.58454
 H4276 H 0.32612 1.11522 0.57727
 C4277 C 0.22220 0.61716 1.14632
 C4278 C 0.23014 0.61758 1.12488
 C4279 C 0.21784 0.62817 1.10910
 C4280 C 0.19886 0.63846 1.11486
 C4281 C 0.19125 0.63777 1.13614
 C4282 C 0.20306 0.62697 1.15174
 C4283 C 0.22437 0.62825 1.08757
 C4284 C 0.24265 0.61768 1.08116
 C4285 C 0.25550 0.60693 1.09620
 C4286 C 0.24961 0.60760 1.11854
 C4287 C 0.26359 0.59868 1.13379
 C4288 C 0.28256 0.58927 1.12747
 C4289 C 0.28815 0.58781 1.10572
 C4290 C 0.27444 0.59609 1.08972
 C4291 C 0.28026 0.59311 1.06784
 C4292 C 0.29950 0.58364 1.06225
 C4293 C 0.31366 0.57676 1.07815
 C4294 C 0.30760 0.57843 1.09989
 H4295 H 0.23006 0.60891 1.15921
 H4296 H 0.18964 0.64647 1.10259
 H4297 H 0.19746 0.62607 1.16830
 H4298 H 0.21512 0.63641 1.07544
 H4299 H 0.24662 0.61876 1.06425
 H4300 H 0.26067 0.59930 1.15092
 H4301 H 0.29297 0.58301 1.13980
 H4302 H 0.27023 0.59771 1.05463
 H4303 H 0.30341 0.58183 1.04530
 H4304 H 0.31835 0.57306 1.11236
 C4305 C 0.70661 0.87495 0.90675
 C4306 C 0.72202 0.88626 0.89445
 C4307 C 0.71757 0.89002 0.87236
 C4308 C 0.69816 0.88346 0.86339
 C4309 C 0.68314 0.87229 0.87581
 C4310 C 0.68761 0.86798 0.89748
 C4311 C 0.73259 0.90009 0.85920
 C4312 C 0.75227 0.90605 0.86727
 C4313 C 0.75754 0.90267 0.88912
 C4314 C 0.74179 0.89357 0.90317
 C4315 C 0.74619 0.89249 0.92548
 C4316 C 0.76544 0.89969 0.93373
 C4317 C 0.78136 0.90757 0.92007
 C4318 C 0.77785 0.90865 0.89751
 C4319 C 0.79498 0.91539 0.88421
 C4320 C 0.81429 0.92182 0.89308
 C4321 C 0.81729 0.92195 0.91549
 C4322 C 0.80078 0.91448 0.92888
 H4323 H 0.70900 0.87069 0.92341
 H4324 H 0.69502 0.88652 0.84648
 H4325 H 0.67633 0.85920 0.90738
 H4326 H 0.72921 0.90316 0.84234
 H4327 H 0.76284 0.91394 0.85604
 H4328 H 0.73474 0.88677 0.93715
 H4329 H 0.76796 0.89887 0.95100
 H4330 H 0.79418 0.91541 0.86685
 H4331 H 0.82703 0.92658 0.88222
 H4332 H 0.80286 0.91435 0.94623
 C4333 C 0.71428 0.39753 0.36436
 C4334 C 0.72275 0.39434 0.38523
 C4335 C 0.71002 0.38315 0.40047
 C4336 C 0.69034 0.37435 0.39444
 C4337 C 0.68262 0.37697 0.37344
 C4338 C 0.69458 0.38900 0.35866
 C4339 C 0.71705 0.38060 0.42160
 C4340 C 0.73647 0.38896 0.42806
 C4341 C 0.75001 0.39976 0.41339
 C4342 C 0.74333 0.40189 0.39146
 C4343 C 0.75770 0.41083 0.37632
 C4344 C 0.77781 0.41766 0.38238
 C4345 C 0.78426 0.41642 0.40382
 C4346 C 0.77032 0.40793 0.41976
 C4347 C 0.77734 0.40808 0.44143
 C4348 C 0.79758 0.41554 0.44678
 C4349 C 0.81164 0.42303 0.43080
 C4350 C 0.80473 0.42353 0.40933
 H4351 H 0.72234 0.40673 0.35211
 H4352 H 0.68102 0.36542 0.40616
 H4353 H 0.68892 0.39152 0.34238
 H4354 H 0.70739 0.37206 0.43333
 H4355 H 0.74075 0.38601 0.44459
 H4356 H 0.75418 0.41212 0.35938
 H4357 H 0.78842 0.42409 0.37011
 H4358 H 0.76744 0.40293 0.45472
 H4359 H 0.80216 0.41560 0.46360
 H4360 H 0.81541 0.42915 0.39674
 C4361 C 0.21083 0.87233 0.40314
 C4362 C 0.22613 0.88412 0.39116
 C4363 C 0.22268 0.88660 0.36870
 C4364 C 0.20428 0.87837 0.35903
 C4365 C 0.18919 0.86700 0.37118
 C4366 C 0.19276 0.86390 0.39325
 C4367 C 0.23760 0.89725 0.35591
 C4368 C 0.25621 0.90520 0.36477
 C4369 C 0.26047 0.90318 0.38703
 C4370 C 0.24480 0.89324 0.40058
 C4371 C 0.24811 0.89315 0.42311
 C4372 C 0.26630 0.90202 0.43207
 C4373 C 0.28219 0.91083 0.41898
 C4374 C 0.27971 0.91120 0.39625
 C4375 C 0.29680 0.91929 0.38366
 C4376 C 0.31515 0.92724 0.39332
 C4377 C 0.31720 0.92758 0.41583
 C4378 C 0.30062 0.91923 0.42855
 H4379 H 0.21253 0.86898 0.42009
 H4380 H 0.20187 0.88060 0.34185
 H4381 H 0.18144 0.85503 0.40301
 H4382 H 0.23496 0.89933 0.33875
 H4383 H 0.26672 0.91340 0.35374
 H4384 H 0.23663 0.88680 0.43440
 H4385 H 0.26805 0.90176 0.44947
 H4386 H 0.29679 0.91921 0.36628
 H4387 H 0.32799 0.93282 0.38299
 H4388 H 0.30196 0.91936 0.44599
 C4389 C 0.20754 0.37977 0.90271
 C4390 C 0.22371 0.39037 0.89078
 C4391 C 0.22086 0.39241 0.86816
 C4392 C 0.20259 0.38412 0.85811
 C4393 C 0.18724 0.37294 0.87012
 C4394 C 0.18979 0.37112 0.89248
 C4395 C 0.23656 0.40214 0.85554
 C4396 C 0.25548 0.40912 0.86465
 C4397 C 0.25938 0.40694 0.88698
 C4398 C 0.24284 0.39833 0.90040
 C4399 C 0.24600 0.39795 0.92297
 C4400 C 0.26489 0.40503 0.93206
 C4401 C 0.28160 0.41239 0.91912
 C4402 C 0.27920 0.41327 0.89637
 C4403 C 0.29696 0.42006 0.88395
 C4404 C 0.31589 0.42634 0.89377
 C4405 C 0.31793 0.42615 0.91629
 C4406 C 0.30072 0.41893 0.92886
 H4407 H 0.20845 0.37714 0.91985
 H4408 H 0.20089 0.38539 0.84075
 H4409 H 0.17816 0.36255 0.90215
 H4410 H 0.23439 0.40401 0.83829
 H4411 H 0.26668 0.41648 0.85371
 H4412 H 0.23397 0.39258 0.93420
 H4413 H 0.26653 0.40448 0.94947
 H4414 H 0.29695 0.42034 0.86657
 H4415 H 0.32912 0.43120 0.88359
 H4416 H 0.30209 0.41868 0.94630
   
