data_POSCAR
  _audit_creation_date              2014-09-24
  _audit_creation_method            'ToBaCCo'
  _symmetry_space_group_name_H-M    'P1'
  _symmetry_Int_Tables_number       1
  _symmetry_cell_setting            triclinic
  loop_
  _symmetry_equiv_pos_as_xyz
 x,y,z
_cell_length_a 42.8224
_cell_length_b 42.8228
_cell_length_c 42.8169
_cell_angle_alpha 89.975800
_cell_angle_beta 90.023100
_cell_angle_gamma 89.969700
loop_
  _atom_site_label
  _atom_site_type_symbol
  _atom_site_fract_x
  _atom_site_fract_y
  _atom_site_fract_z
C1 C 0.36072 1.36197 0.32064
 C2 C 0.37419 1.33540 0.33423
 C3 C 0.36085 1.32209 0.36095
 C4 C 0.33406 1.33537 0.37420
 C5 C 0.32050 1.36195 0.36070
 C6 C 0.33388 1.37527 0.33391
 H7 H 0.39473 1.32480 0.32381
 H8 H 0.32358 1.32475 0.39469
 H9 H 0.32320 1.39563 0.32319
 C10 C 0.36021 0.86171 0.82152
 C11 C 0.33342 0.87499 0.83483
 C12 C 0.31999 0.86155 0.86151
 C13 C 0.33347 0.83483 0.87487
 C14 C 0.36026 0.82157 0.86155
 C15 C 0.37363 0.83504 0.83491
 H16 H 0.32286 0.89542 0.82417
 H17 H 0.32294 0.82412 0.89528
 H18 H 0.39413 0.82454 0.82438
 C19 C 0.86060 1.36170 0.82162
 C20 C 0.87404 1.33511 0.83510
 C21 C 0.86070 1.32172 0.86177
 C22 C 0.83391 1.33497 0.87506
 C23 C 0.82037 1.36161 0.86162
 C24 C 0.83378 1.37499 0.83488
 H25 H 0.89455 1.32459 0.82459
 H26 H 0.82340 1.32428 0.89550
 H27 H 0.82318 1.39536 0.82415
 C28 C 0.86187 0.86180 0.32180
 C29 C 0.87525 0.83509 0.33515
 C30 C 0.86186 0.82164 0.36179
 C31 C 0.83512 0.83496 0.37513
 C32 C 0.82173 0.86168 0.36179
 C33 C 0.83514 0.87512 0.33515
 H34 H 0.89568 0.82452 0.32456
 H35 H 0.82450 0.82429 0.39549
 H36 H 0.82452 0.89554 0.32455
 C37 C 0.63810 0.63795 0.32072
 C38 C 0.66484 0.62455 0.33409
 C39 C 0.67823 0.63785 0.36081
 C40 C 0.66486 0.66450 0.37425
 C41 C 0.63815 0.67792 0.36095
 C42 C 0.62475 0.66464 0.33421
 H43 H 0.67551 0.60414 0.32350
 H44 H 0.67547 0.67503 0.39469
 H45 H 0.60429 0.67533 0.32372
 C46 C 0.63918 0.13829 0.82172
 C47 C 0.66600 0.12497 0.83499
 C48 C 0.67938 0.13826 0.86178
 C49 C 0.66584 0.16484 0.87528
 C50 C 0.63904 0.17813 0.86200
 C51 C 0.62571 0.16483 0.83527
 H52 H 0.67662 0.10464 0.82421
 H53 H 0.67633 0.17545 0.89576
 H54 H 0.60521 0.17538 0.82476
 C55 C 1.13812 0.63780 0.82187
 C56 C 1.16483 0.62448 0.83529
 C57 C 1.17817 0.63788 0.86198
 C58 C 1.16474 0.66456 0.87531
 C59 C 1.13803 0.67789 0.86190
 C60 C 1.12470 0.66448 0.83521
 H61 H 1.17549 0.60408 0.82471
 H62 H 1.17532 0.67520 0.89571
 H63 H 1.10428 0.67506 0.82456
 C64 C 1.13979 0.13847 0.32009
 C65 C 1.12633 0.16507 0.33363
 C66 C 1.13965 0.17837 0.36039
 C67 C 1.16641 0.16505 0.37370
 C68 C 1.17995 0.13847 0.36025
 C69 C 1.16661 0.12515 0.33345
 H70 H 1.10582 0.17568 0.32318
 H71 H 1.17687 0.17566 0.39420
 H72 H 1.17728 0.10477 0.32279
 C73 C 0.63940 1.36164 0.67857
 C74 C 0.66620 1.37493 0.66528
 C75 C 0.67955 1.36162 0.63848
 C76 C 0.66599 1.33505 0.62501
 C77 C 0.63921 1.32179 0.63832
 C78 C 0.62592 1.33511 0.66504
 H79 H 0.67683 1.39526 0.67604
 H80 H 0.67645 1.32442 0.60452
 H81 H 0.60543 1.32458 0.67557
 C82 C 0.63801 0.86203 1.17832
 C83 C 0.66471 0.87539 1.16497
 C84 C 0.67812 0.86201 1.13830
 C85 C 0.66477 0.83532 1.12494
 C86 C 0.63807 0.82195 1.13828
 C87 C 0.62467 0.83533 1.16495
 H88 H 0.67530 0.89579 1.17559
 H89 H 0.67540 0.82470 1.10455
 H90 H 0.60426 0.82472 1.17554
 C91 C 1.13967 1.36161 1.17950
 C92 C 1.16646 1.37491 1.16615
 C93 C 1.17981 1.36159 1.13937
 C94 C 1.16628 1.33498 1.12592
 C95 C 1.13953 1.32169 1.13923
 C96 C 1.12622 1.33501 1.16597
 H97 H 1.17712 1.39530 1.17681
 H98 H 1.17674 1.32437 1.10542
 H99 H 1.10572 1.32442 1.17644
 C100 C 1.13803 0.86202 0.67810
 C101 C 1.16469 0.87541 0.66470
 C102 C 1.17808 0.86204 0.63803
 C103 C 1.16474 0.83531 0.62469
 C104 C 1.13807 0.82191 0.63808
 C105 C 1.12470 0.83530 0.66476
 H106 H 1.17526 0.89584 0.67529
 H107 H 1.17536 0.82470 0.60430
 H108 H 1.10432 0.82468 0.67539
 C109 C 0.36046 0.63849 0.67849
 C110 C 0.37378 0.66517 0.66509
 C111 C 0.36036 0.67861 0.63846
 C112 C 0.33360 0.66530 0.62513
 C113 C 0.32020 0.63857 0.63850
 C114 C 0.33369 0.62516 0.66519
 H115 H 0.39426 0.67571 0.67563
 H116 H 0.32303 0.67600 0.60472
 H117 H 0.32320 0.60472 0.67586
 C118 C 0.36217 0.13797 1.17786
 C119 C 0.37555 0.16460 1.16441
 C120 C 0.36217 0.17795 1.13771
 C121 C 0.33544 0.16462 1.12439
 C122 C 0.32204 0.13798 1.13782
 C123 C 0.33543 0.12463 1.16454
 H124 H 0.39597 0.17520 1.17499
 H125 H 0.32481 0.17524 1.10398
 H126 H 0.32480 0.10427 1.17521
 C127 C 0.86172 0.63817 1.17939
 C128 C 0.87505 0.66489 1.16594
 C129 C 0.86163 0.67826 1.13925
 C130 C 0.83491 0.66489 1.12594
 C131 C 0.82156 0.63821 1.13933
 C132 C 0.83497 0.62483 1.16602
 H133 H 0.89551 0.67553 1.17644
 H134 H 0.82429 0.67548 1.10551
 H135 H 0.82434 0.60439 1.17657
 C136 C 0.86018 0.13874 0.67970
 C137 C 0.87364 0.16536 0.66623
 C138 C 0.86034 0.17875 0.63948
 C139 C 0.83359 0.16547 0.62612
 C140 C 0.82006 0.13883 0.63951
 C141 C 0.83340 0.12546 0.66630
 H142 H 0.89414 0.17593 0.67672
 H143 H 0.82315 0.17612 0.60561
 H144 H 0.82274 0.10504 0.67691
 C145 C 1.36209 0.36083 0.67815
 C146 C 1.33553 0.37433 0.66466
 C147 C 1.32216 0.36104 0.63795
 C148 C 1.33542 0.33426 0.62463
 C149 C 1.36203 0.32069 0.63808
 C150 C 1.37538 0.33404 0.66485
 H151 H 1.32500 0.39481 0.67520
 H152 H 1.32475 0.32378 0.60417
 H153 H 1.39573 0.32340 0.67560
 C154 C 1.36177 0.86081 1.17832
 C155 C 1.37508 0.83397 1.16514
 C156 C 1.36170 0.82046 1.13847
 C157 C 1.33502 0.83390 1.12500
 C158 C 1.32174 0.86074 1.13821
 C159 C 1.33515 0.87419 1.16482
 H160 H 1.39547 0.82343 1.17589
 H161 H 1.32433 0.82331 1.10461
 H162 H 1.32462 0.89471 1.17528
 C163 C 0.86233 0.36071 1.17797
 C164 C 0.87555 0.33390 1.16468
 C165 C 0.86200 0.32039 1.13811
 C166 C 0.83522 0.33383 1.12482
 C167 C 0.82202 0.36066 1.13814
 C168 C 0.83561 0.37409 1.16467
 H169 H 0.89602 0.32335 1.17530
 H170 H 0.82439 0.32324 1.10451
 H171 H 0.82514 0.39460 1.17522
 C172 C 0.86168 0.86169 0.67810
 C173 C 0.87501 0.83495 0.66478
 C174 C 0.86164 0.82157 0.63808
 C175 C 0.83499 0.83499 0.62467
 C176 C 0.82165 0.86173 0.63798
 C177 C 0.83502 0.87510 0.66466
 H178 H 0.89539 0.82431 0.67543
 H179 H 0.82437 0.82439 0.60426
 H180 H 0.82444 0.89554 0.67522
 C181 C 0.63798 0.63805 0.67847
 C182 C 0.62456 0.66475 0.66514
 C183 C 0.63782 0.67816 0.63842
 C184 C 0.66448 0.66480 0.62497
 C185 C 0.67793 0.63810 0.63827
 C186 C 0.66464 0.62470 0.66501
 H187 H 0.60417 0.67534 0.67581
 H188 H 0.67501 0.67543 0.60453
 H189 H 0.67530 0.60428 0.67557
 C190 C 0.63818 1.13932 1.17850
 C191 C 0.66482 1.12593 1.16508
 C192 C 0.67824 1.13934 1.13846
 C193 C 0.66495 1.16615 1.12517
 C194 C 0.63826 1.17960 1.13857
 C195 C 0.62487 1.16612 1.16524
 H196 H 0.67535 1.10542 1.17561
 H197 H 0.67565 1.17673 1.10477
 H198 H 0.60447 1.17667 1.17595
 C199 C 0.13857 0.63947 1.17950
 C200 C 0.12528 0.66630 1.16614
 C201 C 0.13867 0.67968 1.13939
 C202 C 0.16530 0.66614 1.12599
 C203 C 0.17857 0.63936 1.13932
 C204 C 0.16520 0.62602 1.16602
 H205 H 0.10488 0.67696 1.17676
 H206 H 0.17596 0.67661 1.10553
 H207 H 0.17577 0.60549 1.17649
 C208 C 0.13810 1.13946 0.67817
 C209 C 0.12481 1.16629 0.66491
 C210 C 0.13818 1.17972 0.63818
 C211 C 0.16481 1.16620 0.62474
 C212 C 0.17807 1.13940 0.63803
 C213 C 0.16469 1.12602 0.66470
 H214 H 0.10445 1.17689 0.67563
 H215 H 0.17548 1.17673 0.60431
 H216 H 0.17521 1.10551 0.67521
 C217 C 1.36188 0.63909 0.32197
 C218 C 1.33527 0.62569 0.33541
 C219 C 1.32182 0.63910 0.36201
 C220 C 1.33503 0.66594 0.37526
 C221 C 1.36169 0.67942 0.36185
 C222 C 1.37512 0.66593 0.33519
 H223 H 1.32478 0.60516 0.32492
 H224 H 1.32430 0.67651 0.39564
 H225 H 1.39550 0.67650 0.32448
 C226 C 1.36141 1.13984 0.82141
 C227 C 1.37469 1.16660 0.83477
 C228 C 1.36129 1.17996 0.86150
 C229 C 1.33463 1.16643 0.87487
 C230 C 1.32138 1.13968 0.86150
 C231 C 1.33480 1.12638 0.83481
 H232 H 1.39508 1.17719 0.82410
 H233 H 1.32395 1.17690 0.89532
 H234 H 1.32430 1.10591 0.82424
 C235 C 0.86176 0.63797 0.82177
 C236 C 0.87512 0.66469 0.83509
 C237 C 0.86182 0.67806 0.86182
 C238 C 0.83519 0.66466 0.87527
 C239 C 0.82182 0.63794 0.86196
 C240 C 0.83513 0.62458 0.83524
 H241 H 0.89548 0.67531 0.82442
 H242 H 0.82463 0.67526 0.89570
 H243 H 0.82453 0.60415 0.82468
 C244 C 0.86250 1.13800 0.32212
 C245 C 0.87585 1.16471 0.33546
 C246 C 0.86246 1.17815 0.36210
 C247 C 0.83574 1.16481 0.37545
 C248 C 0.82238 1.13809 0.36212
 C249 C 0.83580 1.12468 0.33549
 H250 H 0.89626 1.17529 0.32484
 H251 H 0.82510 1.17547 0.39581
 H252 H 0.82520 1.10426 0.32489
 C253 C 0.63859 0.36051 0.32074
 C254 C 0.66531 0.37389 0.33409
 C255 C 0.67878 0.36054 0.36076
 C256 C 0.66551 0.33382 0.37417
 C257 C 0.63878 0.32036 0.36088
 C258 C 0.62531 0.33375 0.33417
 H259 H 0.67589 0.39437 0.32356
 H260 H 0.67623 0.32332 0.39461
 H261 H 0.60483 0.32314 0.32364
 C262 C 0.63821 0.86159 0.82163
 C263 C 0.66488 0.87497 0.83504
 C264 C 0.67826 0.86160 0.86175
 C265 C 0.66491 0.83489 0.87510
 C266 C 0.63824 0.82149 0.86171
 C267 C 0.62487 0.83487 0.83500
 H268 H 0.67546 0.89540 0.82445
 H269 H 0.67551 0.82429 0.89553
 H270 H 0.60447 0.82426 0.82438
 C271 C 0.13829 0.36158 0.82032
 C272 C 0.16494 0.37494 0.83387
 C273 C 0.17813 0.36160 0.86070
 C274 C 0.16465 0.33496 0.87404
 C275 C 0.13804 0.32158 0.86055
 C276 C 0.12483 0.33490 0.83371
 H277 H 0.17568 0.39534 0.82337
 H278 H 0.17511 0.32441 0.89457
 H279 H 0.10445 0.32424 0.82309
 C280 C 0.13823 0.86170 0.32056
 C281 C 0.16487 0.87514 0.33404
 C282 C 0.17820 0.86181 0.36079
 C283 C 0.16487 0.83509 0.37413
 C284 C 0.13826 0.82163 0.36072
 C285 C 0.12491 0.83495 0.33395
 H286 H 0.17549 0.89560 0.32352
 H287 H 0.17545 0.82454 0.39460
 H288 H 0.10454 0.82423 0.32337
 O289 O 1.11307 1.03048 1.15584
 O290 O 1.14958 1.03049 1.19218
 C291 C 1.12417 1.04121 1.18117
 C292 C 1.10779 1.06697 1.19747
 C293 C 1.11879 1.07820 1.22628
 H294 H 1.13884 1.06740 1.23736
 O295 O 0.88744 0.96971 1.15537
 O296 O 0.85122 0.96965 1.19197
 C297 C 0.87658 0.95901 1.18082
 C298 C 0.89322 0.93343 1.19713
 C299 C 0.88257 0.92243 1.22615
 H300 H 0.86259 0.93323 1.23732
 O301 O 1.03079 1.15592 1.11295
 O302 O 1.03074 1.19239 1.14929
 C303 C 1.04138 1.18137 1.12388
 C304 C 1.06691 1.19774 1.10727
 C305 C 1.07816 1.22659 1.11810
 H306 H 1.06754 1.23767 1.13823
 O307 O 0.96997 0.84426 1.11291
 O308 O 0.96986 0.80783 1.14933
 C309 C 0.95924 0.81889 1.12391
 C310 C 0.93359 0.80261 1.10737
 C311 C 0.92247 0.77369 1.11816
 H312 H 0.93325 0.76252 1.13817
 O313 O 1.15511 1.11298 1.03038
 O314 O 1.19164 1.14927 1.03036
 C315 C 1.18056 1.12388 1.04102
 C316 C 1.19696 1.10721 1.06655
 C317 C 1.22603 1.11780 1.07748
 H318 H 1.23718 1.13780 1.06669
 O319 O 0.84468 0.88723 1.03064
 O320 O 0.80814 0.85095 1.03069
 C321 C 0.81924 0.87634 1.04130
 C322 C 0.80290 0.89301 1.06682
 C323 C 0.77388 0.88241 1.07783
 H324 H 0.76269 0.86241 1.06708
 O325 O 0.97017 1.11279 1.15565
 O326 O 0.97002 1.14906 1.19221
 C327 C 0.95947 1.12365 1.18109
 C328 C 0.93393 1.10697 1.19737
 C329 C 0.92299 1.11750 1.22645
 H330 H 0.93384 1.13740 1.23771
 O331 O 1.03088 0.88703 1.15568
 O332 O 1.03083 0.85078 1.19229
 C333 C 1.04151 0.87613 1.18116
 C334 C 1.06709 0.89272 1.19750
 C335 C 1.07821 0.88196 1.22644
 H336 H 1.06747 0.86193 1.23759
 O337 O 1.15561 0.96945 1.11293
 O338 O 1.19228 0.96938 1.14910
 C339 C 1.18108 0.95875 1.12376
 C340 C 1.19735 0.93315 1.10710
 C341 C 1.22633 0.92198 1.11775
 H342 H 1.23755 0.93267 1.13777
 O343 O 0.84443 1.03070 1.11287
 O344 O 0.80803 1.03072 1.14930
 C345 C 0.81903 1.04138 1.12388
 C346 C 0.80266 1.06697 1.10730
 C347 C 0.77371 1.07812 1.11804
 H348 H 0.76258 1.06743 1.13810
 O349 O 0.88714 1.15553 1.03065
 O350 O 0.85086 1.19210 1.03070
 C351 C 0.87623 1.18095 1.04137
 C352 C 0.89282 1.19723 1.06702
 C353 C 0.88205 1.22617 1.07814
 H354 H 0.86201 1.23731 1.06738
 O355 O 1.11307 0.84400 1.03068
 O356 O 1.14945 0.80753 1.03064
 C357 C 1.12410 0.81860 1.04139
 C358 C 1.10766 0.80233 1.06715
 C359 C 1.11856 0.77350 1.07849
 H360 H 1.13862 0.76235 1.06782
 O361 O 0.88751 1.03061 1.15537
 O362 O 0.85131 1.03061 1.19199
 C363 C 0.87668 1.04122 1.18086
 C364 C 0.89340 1.06668 1.19724
 C365 C 0.88284 1.07759 1.22632
 H366 H 0.86285 1.06681 1.23749
 O367 O 1.11295 0.96951 1.15582
 O368 O 1.14943 0.96943 1.19218
 C369 C 1.12399 0.95880 1.18119
 C370 C 1.10747 0.93317 1.19753
 C371 C 1.11823 0.92202 1.22648
 H372 H 1.13824 0.93277 1.23764
 O373 O 1.03092 0.84418 1.11301
 O374 O 1.03088 0.80776 1.14944
 C375 C 1.04159 0.81879 1.12405
 C376 C 1.06726 0.80244 1.10759
 C377 C 1.07850 0.77361 1.11855
 H378 H 1.06779 0.76256 1.13864
 O379 O 0.96985 1.15568 1.11302
 O380 O 0.96970 1.19215 1.14937
 C381 C 0.95904 1.18105 1.12399
 C382 C 0.93331 1.19728 1.10744
 C383 C 0.92214 1.22622 1.11817
 H384 H 0.93290 1.23740 1.13817
 O385 O 0.84432 1.11285 1.03051
 O386 O 0.80787 1.14925 1.03056
 C387 C 0.81892 1.12383 1.04118
 C388 C 0.80261 1.10728 1.06678
 C389 C 0.77367 1.11806 1.07785
 H390 H 0.76251 1.13805 1.06703
 O391 O 1.15543 0.88712 1.03044
 O392 O 1.19200 0.85084 1.03039
 C393 C 1.18089 0.87622 1.04105
 C394 C 1.19725 0.89281 1.06660
 C395 C 1.22622 0.88204 1.07761
 H396 H 1.23735 0.86204 1.06679
 O397 O 0.96995 0.88718 1.15550
 O398 O 0.96984 0.85094 1.19211
 C399 C 0.95924 0.87632 1.18093
 C400 C 0.93365 0.89298 1.19719
 C401 C 0.92261 0.88236 1.22621
 H402 H 0.93339 0.86238 1.23744
 O403 O 1.03111 1.11319 1.15579
 O404 O 1.03105 1.14947 1.19232
 C405 C 1.04180 1.12414 1.18121
 C406 C 1.06752 1.10760 1.19749
 C407 C 1.07892 1.11846 1.22630
 H408 H 1.06832 1.13859 1.23741
 O409 O 0.84459 0.96979 1.11270
 O410 O 0.80818 0.96973 1.14911
 C411 C 0.81920 0.95910 1.12369
 C412 C 0.80287 0.93352 1.10713
 C413 C 0.77385 0.92255 1.11778
 H414 H 0.76265 0.93339 1.13772
 O415 O 1.15545 1.03038 1.11274
 O416 O 1.19215 1.03039 1.14889
 C417 C 1.18092 1.04105 1.12355
 C418 C 1.19715 1.06665 1.10688
 C419 C 1.22621 1.07762 1.11742
 H420 H 1.23750 1.06676 1.13732
 O421 O 0.88742 0.84441 1.03071
 O422 O 0.85108 0.80794 1.03076
 C423 C 0.87647 0.81900 1.04140
 C424 C 0.89307 0.80267 1.06701
 C425 C 0.88232 0.77374 1.07818
 H426 H 0.86226 0.76262 1.06748
 O427 O 1.11263 1.15606 1.03037
 O428 O 1.14897 1.19253 1.03031
 C429 C 1.12361 1.18148 1.04102
 C430 C 1.10715 1.19779 1.06668
 C431 C 1.11803 1.22665 1.07788
 H432 H 1.13805 1.23777 1.06711
 Cu433 Cu 1.13060 0.99994 1.13072
 Cu434 Cu 1.17453 0.99992 1.17424
 Cu435 Cu 0.86961 1.00022 1.13042
 Cu436 Cu 0.82604 1.00018 1.17427
 Cu437 Cu 1.00051 1.13077 1.13072
 Cu438 Cu 1.00036 1.17442 1.17446
 Cu439 Cu 1.00044 0.86929 1.13062
 Cu440 Cu 1.00034 0.82567 1.17446
 C441 C 1.08195 1.08164 1.18343
 H442 H 1.07362 1.07340 1.16101
 C443 C 1.10441 1.10379 1.24064
 C444 C 0.91899 0.91874 1.18299
 H445 H 0.92705 0.92679 1.16040
 C446 C 0.89723 0.89705 1.24062
 C447 C 1.08137 1.18370 1.08134
 H448 H 1.07314 1.16124 1.07314
 C449 C 1.10357 1.24098 1.10345
 C450 C 0.91893 0.81674 1.08158
 H451 H 0.92708 0.83925 1.07341
 C452 C 0.89698 0.75932 1.10360
 C453 C 1.18286 1.08141 1.08122
 H454 H 1.16025 1.07339 1.07324
 C455 C 1.24059 1.10303 1.10276
 C456 C 0.81704 0.91879 1.08143
 H457 H 0.83963 0.92682 1.07337
 C458 C 0.75942 0.89715 1.10315
 C459 C 0.91918 1.08133 1.18311
 H460 H 0.92717 1.07336 1.16047
 C461 C 0.89761 1.10284 1.24085
 C462 C 1.08168 0.91854 1.18340
 H463 H 1.07353 0.92669 1.16087
 C464 C 1.10363 0.89657 1.24087
 C465 C 1.18315 0.91858 1.08130
 H466 H 1.16060 0.92673 1.07324
 C467 C 1.24070 0.89658 1.10303
 C468 C 0.81674 1.08152 1.08145
 H469 H 0.83927 1.07337 1.07333
 C470 C 0.75929 1.10352 1.10332
 C471 C 0.91867 1.18313 1.08165
 H472 H 0.92683 1.16062 1.07350
 C473 C 0.89666 1.24060 1.10356
 C474 C 1.08180 0.81643 1.08168
 H475 H 1.07355 0.83887 1.07338
 C476 C 1.10400 0.75919 1.10405
 O477 O 1.11272 0.96986 0.84455
 O478 O 1.14899 0.96980 0.80801
 C479 C 1.12361 0.95919 0.81912
 C480 C 1.10696 0.93364 0.80280
 C481 C 1.11756 0.92264 0.77377
 H482 H 1.13753 0.93342 0.76256
 O483 O 0.88669 1.03082 0.84416
 O484 O 0.85024 1.03069 0.80776
 C485 C 0.87562 1.04143 0.81875
 C486 C 0.89204 1.06709 0.80235
 C487 C 0.88104 1.07833 0.77354
 H488 H 0.86092 1.06762 0.76251
 O489 O 0.96906 1.15542 0.88689
 O490 O 0.96899 1.19201 0.85063
 C491 C 0.95841 1.18090 0.87603
 C492 C 0.93294 1.19726 0.89276
 C493 C 0.92183 1.22626 0.88212
 H494 H 0.93246 1.23741 0.86204
 O495 O 1.03035 0.84459 0.88728
 O496 O 1.03038 0.80814 0.85090
 C497 C 1.04100 0.81916 0.87632
 C498 C 1.06651 0.80274 0.89296
 C499 C 1.07748 0.77371 0.88231
 H500 H 1.06669 0.76257 0.86229
 O501 O 1.15546 0.88689 0.96949
 O502 O 1.19200 0.85059 0.96937
 C503 C 1.18086 0.87597 0.95873
 C504 C 1.19712 0.89256 0.93306
 C505 C 1.22600 0.88173 0.92182
 H506 H 1.23711 0.86163 0.93249
 O507 O 0.84422 1.11302 0.96957
 O508 O 0.80777 1.14942 0.96956
 C509 C 0.81882 1.12403 0.95888
 C510 C 0.80247 1.10752 0.93322
 C511 C 0.77354 1.11831 0.92206
 H512 H 0.76240 1.13835 0.93279
 O513 O 1.02989 1.11262 0.84409
 O514 O 1.02992 1.14901 0.80763
 C515 C 1.04060 1.12362 0.81872
 C516 C 1.06632 1.10714 0.80248
 C517 C 1.07741 1.11796 0.77356
 H518 H 1.06653 1.13790 0.76237
 O519 O 0.96942 0.88748 0.84459
 O520 O 0.96940 0.85121 0.80803
 C521 C 0.95874 0.87658 0.81915
 C522 C 0.93316 0.89319 0.80281
 C523 C 0.92216 0.88251 0.77380
 H524 H 0.93298 0.86253 0.76264
 O525 O 1.15560 1.03067 0.88727
 O526 O 1.19208 1.03071 0.85094
 C527 C 1.18100 1.04136 0.87632
 C528 C 1.19726 1.06700 0.89289
 C529 C 1.22618 1.07820 0.88215
 H530 H 1.23738 1.06748 0.86215
 O531 O 0.84435 0.96985 0.88729
 O532 O 0.80773 0.96967 0.85106
 C533 C 0.81893 0.95909 0.87644
 C534 C 0.80273 0.93346 0.89310
 C535 C 0.77374 0.92238 0.88246
 H536 H 0.76249 0.93316 0.86250
 O537 O 1.11230 1.15570 0.96940
 O538 O 1.14861 1.19220 0.96926
 C539 C 1.12322 1.18108 0.95863
 C540 C 1.10662 1.19731 0.93294
 C541 C 1.11732 1.22624 0.92174
 H542 H 1.13732 1.23745 0.93248
 O543 O 0.88739 0.84442 0.96977
 O544 O 0.85106 0.80793 0.96974
 C545 C 0.87644 0.81901 0.95909
 C546 C 0.89300 0.80272 0.93348
 C547 C 0.88236 0.77372 0.92244
 H548 H 0.86243 0.76249 0.93327
 O549 O 0.88700 0.96990 0.84442
 O550 O 0.85057 0.96969 0.80800
 C551 C 0.87602 0.95914 0.81905
 C552 C 0.89267 0.93356 0.80275
 C553 C 0.88203 0.92250 0.77375
 H554 H 0.86203 0.93325 0.76254
 O555 O 1.11284 1.03076 0.84445
 O556 O 1.14913 1.03079 0.80792
 C557 C 1.12374 1.04144 0.81900
 C558 C 1.10706 1.06700 0.80263
 C559 C 1.11779 1.07822 0.77370
 H560 H 1.13792 1.06761 0.76260
 O561 O 0.96947 0.84463 0.88729
 O562 O 0.96943 0.80818 0.85091
 C563 C 0.95881 0.81922 0.87633
 C564 C 0.93330 0.80284 0.89296
 C565 C 0.92230 0.77383 0.88229
 H566 H 0.93306 0.76269 0.86226
 O567 O 1.02994 1.15542 0.88677
 O568 O 1.02996 1.19199 0.85049
 C569 C 1.04062 1.18086 0.87586
 C570 C 1.06621 1.19718 0.89246
 C571 C 1.07729 1.22611 0.88166
 H572 H 1.06653 1.23722 0.86160
 O573 O 0.84470 0.88726 0.96973
 O574 O 0.80818 0.85097 0.96971
 C575 C 0.81927 0.87636 0.95906
 C576 C 0.80290 0.89298 0.93349
 C577 C 0.77391 0.88228 0.92247
 H578 H 0.76279 0.86225 0.93324
 O579 O 1.15529 1.11314 0.96947
 O580 O 1.19178 1.14947 0.96939
 C581 C 1.18071 1.12407 0.95879
 C582 C 1.19708 1.10747 0.93325
 C583 C 1.22599 1.11828 0.92216
 H584 H 1.23707 1.13835 0.93290
 O585 O 1.03034 0.88749 0.84461
 O586 O 1.03038 0.85122 0.80805
 C587 C 1.04101 0.87660 0.81917
 C588 C 1.06655 0.89323 0.80284
 C589 C 1.07753 0.88260 0.77381
 H590 H 1.06673 0.86263 0.76262
 O591 O 0.96891 1.11294 0.84383
 O592 O 0.96886 1.14934 0.80739
 C593 C 0.95818 1.12397 0.81845
 C594 C 0.93245 1.10750 0.80219
 C595 C 0.92107 1.11839 0.77337
 H596 H 0.93172 1.13846 0.76222
 O597 O 0.84420 1.03080 0.88717
 O598 O 0.80756 1.03068 0.85095
 C599 C 0.81872 1.04142 0.87627
 C600 C 0.80243 1.06706 0.89282
 C601 C 0.77350 1.07821 0.88205
 H602 H 0.76233 1.06746 0.86204
 O603 O 1.15556 0.96968 0.88724
 O604 O 1.19203 0.96963 0.85089
 C605 C 1.18093 0.95893 0.87626
 C606 C 1.19718 0.93316 0.89275
 C607 C 1.22605 0.92193 0.88190
 H608 H 1.23720 0.93271 0.86189
 O609 O 1.11258 0.84425 0.96972
 O610 O 1.14894 0.80776 0.96960
 C611 C 1.12351 0.81885 0.95902
 C612 C 1.10687 0.80257 0.93346
 C613 C 1.11746 0.77354 0.92244
 H614 H 1.13740 0.76228 0.93327
 O615 O 0.88717 1.15557 0.96969
 O616 O 0.85089 1.19215 0.96970
 C617 C 0.87625 1.18102 0.95904
 C618 C 0.89279 1.19732 0.93342
 C619 C 0.88206 1.22631 0.92243
 H620 H 0.86213 1.23751 0.93332
 Cu621 Cu 1.13056 1.00026 0.86953
 Cu622 Cu 1.17423 1.00023 0.82579
 Cu623 Cu 0.86921 1.00036 0.86939
 Cu624 Cu 0.82534 1.00015 0.82580
 Cu625 Cu 1.13018 1.13085 0.99992
 Cu626 Cu 1.17390 1.17453 0.99982
 Cu627 Cu 1.13048 0.86919 1.00009
 Cu628 Cu 1.17427 0.82553 0.99998
 Cu629 Cu 0.86934 1.13059 1.00010
 Cu630 Cu 0.82570 1.17441 1.00014
 Cu631 Cu 0.86970 0.86946 1.00022
 Cu632 Cu 0.82595 0.82579 1.00023
 Cu633 Cu 0.99943 1.13044 0.86901
 Cu634 Cu 0.99944 1.17425 0.82536
 Cu635 Cu 0.99990 0.86968 0.86959
 Cu636 Cu 0.99990 0.82604 0.82580
 C637 C 1.08123 0.91897 0.81699
 H638 H 1.07319 0.92702 0.83959
 C639 C 1.10288 0.89727 0.75935
 C640 C 0.91796 1.08163 0.81631
 H641 H 0.92629 1.07339 0.83874
 C642 C 0.89550 1.10383 0.75910
 C643 C 0.91845 1.18314 0.91864
 H644 H 0.92656 1.16056 0.92669
 C645 C 0.89653 1.24071 0.89694
 C646 C 1.08117 0.81682 0.91876
 H647 H 1.07315 0.83941 0.92682
 C648 C 1.10279 0.75917 0.89702
 C649 C 1.18306 0.91849 0.91854
 H650 H 1.16059 0.92670 0.92677
 C651 C 1.24040 0.89637 0.89639
 C652 C 0.81656 1.08168 0.91863
 H653 H 0.83907 1.07350 0.92679
 C654 C 0.75911 1.10368 0.89662
 C655 C 1.08110 1.08145 0.81667
 H656 H 1.07297 1.07327 0.83918
 C657 C 1.10299 1.10355 0.75923
 C658 C 0.91846 0.91894 0.81694
 H659 H 0.92651 0.92702 0.83951
 C660 C 0.89675 0.89712 0.75934
 C661 C 1.18307 1.08161 0.91866
 H662 H 1.16056 1.07343 0.92679
 C663 C 1.24047 1.10370 0.89677
 C664 C 0.81697 0.91880 0.91884
 H665 H 0.83954 0.92691 0.92689
 C666 C 0.75940 0.89694 0.89711
 C667 C 1.08084 1.18312 0.91832
 H668 H 1.07273 1.16060 0.92650
 C669 C 1.10269 1.24057 0.89625
 C670 C 0.91869 0.81693 0.91877
 H671 H 0.92675 0.83950 0.92685
 C672 C 0.89698 0.75934 0.89700
 O673 O 0.97044 0.38726 0.34401
 O674 O 0.97030 0.35085 0.30760
 C675 C 0.95972 0.37628 0.31862
 C676 C 0.93413 0.39284 0.30227
 C677 C 0.92313 0.38208 0.27331
 H678 H 0.93399 0.36210 0.26217
 O679 O 1.03071 0.61261 0.34377
 O680 O 1.03059 0.64908 0.30738
 C681 C 1.04135 0.62370 0.31839
 C682 C 1.06707 0.60732 0.30205
 C683 C 1.07827 0.61834 0.27324
 H684 H 1.06747 0.63840 0.26219
 O685 O 0.84480 0.46914 0.38664
 O686 O 0.80832 0.46903 0.35027
 C687 C 0.81940 0.45841 0.37569
 C688 C 0.80309 0.43283 0.39231
 C689 C 0.77420 0.42163 0.38150
 H690 H 0.76310 0.43227 0.36138
 O691 O 1.15574 0.53049 0.38675
 O692 O 1.19238 0.53067 0.35057
 C693 C 1.18119 0.54122 0.37595
 C694 C 1.19743 0.56676 0.39271
 C695 C 1.22642 0.57791 0.38215
 H696 H 1.23766 0.56726 0.36213
 O697 O 0.88762 0.34472 0.46966
 O698 O 0.85146 0.30807 0.46944
 C699 C 0.87684 0.31928 0.45890
 C700 C 0.89356 0.30303 0.43333
 C701 C 0.88300 0.27398 0.42237
 H702 H 0.86307 0.26275 0.43320
 O703 O 1.11285 0.65545 0.46938
 O704 O 1.14910 0.69201 0.46932
 C705 C 1.12375 0.68087 0.45865
 C706 C 1.10716 0.69712 0.43296
 C707 C 1.11783 0.72608 0.42181
 H708 H 1.13781 0.73730 0.43258
 O709 O 0.88740 0.53019 0.34388
 O710 O 0.85109 0.53016 0.30734
 C711 C 0.87644 0.54086 0.31844
 C712 C 0.89295 0.56652 0.30214
 C713 C 0.88212 0.57773 0.27325
 H714 H 0.86207 0.56701 0.26211
 O715 O 1.11322 0.46964 0.34369
 O716 O 1.14965 0.46970 0.30730
 C717 C 1.12428 0.45896 0.31832
 C718 C 1.10787 0.43321 0.30206
 C719 C 1.11880 0.42197 0.27324
 H720 H 1.13881 0.43276 0.26211
 O721 O 1.03125 0.34433 0.38679
 O722 O 1.03114 0.30775 0.35055
 C723 C 1.04183 0.31884 0.37591
 C724 C 1.06737 0.30245 0.39251
 C725 C 1.07852 0.27356 0.38170
 H726 H 1.06782 0.26247 0.36161
 O727 O 0.96971 0.65504 0.38678
 O728 O 0.96955 0.69168 0.35057
 C729 C 0.95898 0.68049 0.37594
 C730 C 0.93342 0.69676 0.39263
 C731 C 0.92243 0.72584 0.38208
 H732 H 0.93323 0.73708 0.36213
 O733 O 0.84443 0.61226 0.46920
 O734 O 0.80793 0.64861 0.46903
 C735 C 0.81904 0.62321 0.45844
 C736 C 0.80278 0.60662 0.43280
 C737 C 0.77380 0.61727 0.42168
 H738 H 0.76257 0.63725 0.43244
 O739 O 1.15595 0.38701 0.46894
 O740 O 1.19249 0.35070 0.46899
 C741 C 1.18136 0.37605 0.45824
 C742 C 1.19762 0.39260 0.43253
 C743 C 1.22651 0.38179 0.42126
 H744 H 1.23766 0.36172 0.43193
 O745 O 0.96975 0.61246 0.34383
 O746 O 0.96957 0.64893 0.30745
 C747 C 0.95899 0.62349 0.31847
 C748 C 0.93336 0.60695 0.30215
 C749 C 0.92215 0.61778 0.27326
 H750 H 0.93286 0.63784 0.26213
 O751 O 1.03138 0.38706 0.34394
 O752 O 1.03131 0.35065 0.30753
 C753 C 1.04203 0.37604 0.31854
 C754 C 1.06767 0.39257 0.30217
 C755 C 1.07898 0.38168 0.27334
 H756 H 1.06839 0.36153 0.26229
 O757 O 1.15587 0.46955 0.38654
 O758 O 1.19248 0.46964 0.35034
 C759 C 1.18132 0.45888 0.37565
 C760 C 1.19759 0.43316 0.39217
 C761 C 1.22647 0.42198 0.38132
 H762 H 1.23759 0.43278 0.36130
 O763 O 0.84475 0.53005 0.38672
 O764 O 0.80824 0.53002 0.35037
 C765 C 0.81930 0.54068 0.37577
 C766 C 0.80292 0.56622 0.39236
 C767 C 0.77393 0.57725 0.38162
 H768 H 0.76280 0.56647 0.36160
 O769 O 0.88725 0.65493 0.46929
 O770 O 0.85094 0.69148 0.46915
 C771 C 0.87635 0.68036 0.45858
 C772 C 0.89301 0.69670 0.43305
 C773 C 0.88241 0.72577 0.42212
 H774 H 0.86245 0.73697 0.43295
 O775 O 1.11331 0.34413 0.46920
 O776 O 1.14967 0.30764 0.46927
 C777 C 1.12428 0.31869 0.45859
 C778 C 1.10773 0.30236 0.43299
 C779 C 1.11854 0.27346 0.42181
 H780 H 1.13858 0.26231 0.43254
 O781 O 1.11327 0.53061 0.34363
 O782 O 1.14970 0.53077 0.30725
 C783 C 1.12427 0.54138 0.31827
 C784 C 1.10770 0.56707 0.30198
 C785 C 1.11854 0.57847 0.27316
 H786 H 1.13868 0.56790 0.26205
 O787 O 0.88767 0.46928 0.34396
 O788 O 0.85137 0.46915 0.30741
 C789 C 0.87679 0.45859 0.31852
 C790 C 0.89352 0.43307 0.30222
 C791 C 0.88287 0.42193 0.27324
 H792 H 0.86280 0.43258 0.26206
 O793 O 1.03063 0.65516 0.38673
 O794 O 1.03052 0.69180 0.35051
 C795 C 1.04122 0.68065 0.37586
 C796 C 1.06678 0.69699 0.39247
 C797 C 1.07781 0.72596 0.38172
 H798 H 1.06704 0.73708 0.36168
 O799 O 0.97032 0.34472 0.38701
 O800 O 0.97016 0.30813 0.35079
 C801 C 0.95956 0.31931 0.37617
 C802 C 0.93397 0.30305 0.39286
 C803 C 0.92300 0.27399 0.38229
 H804 H 0.93380 0.26276 0.36234
 O805 O 1.15551 0.61257 0.46956
 O806 O 1.19194 0.64895 0.46951
 C807 C 1.18091 0.62354 0.45889
 C808 C 1.19728 0.60699 0.43332
 C809 C 1.22627 0.61775 0.42240
 H810 H 1.23739 0.63771 0.43329
 O811 O 0.84453 0.38717 0.46953
 O812 O 0.80819 0.35071 0.46931
 C813 C 0.81922 0.37613 0.45871
 C814 C 0.80298 0.39261 0.43296
 C815 C 0.77410 0.38179 0.42178
 H816 H 0.76292 0.36181 0.43259
 Cu817 Cu 1.00088 0.36950 0.36906
 Cu818 Cu 1.00070 0.32568 0.32547
 Cu819 Cu 1.00021 0.63015 0.36889
 Cu820 Cu 1.00004 0.67404 0.32532
 Cu821 Cu 0.86980 0.49966 0.36894
 Cu822 Cu 0.82610 0.49958 0.32518
 Cu823 Cu 1.13087 0.50008 0.36876
 Cu824 Cu 1.17472 0.50022 0.32522
 C825 C 0.91938 0.41856 0.31638
 H826 H 0.92744 0.42670 0.33894
 C827 C 0.89765 0.39657 0.25887
 C828 C 1.08175 0.58147 0.31606
 H829 H 1.07353 0.57313 0.33848
 C830 C 1.10385 0.60397 0.25886
 C831 C 0.81713 0.41835 0.41826
 H832 H 0.83962 0.42654 0.42645
 C833 C 0.75977 0.39626 0.39620
 C834 C 1.18320 0.58127 0.41853
 H835 H 1.16063 0.57313 0.42653
 C836 C 1.24077 0.60326 0.39697
 C837 C 0.91928 0.31724 0.41861
 H838 H 0.92728 0.33985 0.42662
 C839 C 0.89767 0.25953 0.39701
 C840 C 1.08142 0.68292 0.41831
 H841 H 1.07333 0.66038 0.42646
 C842 C 1.10319 0.74044 0.39634
 C843 C 0.91879 0.58110 0.31624
 H844 H 0.92700 0.57290 0.33873
 C845 C 0.89668 0.60321 0.25887
 C846 C 1.08209 0.41855 0.31616
 H847 H 1.07382 0.42680 0.33859
 C848 C 1.10441 0.39635 0.25894
 C849 C 1.08192 0.31649 0.41838
 H850 H 1.07375 0.33899 0.42655
 C851 C 1.10396 0.25913 0.39630
 C852 C 0.91875 0.68254 0.41835
 H853 H 0.92678 0.65991 0.42634
 C854 C 0.89708 0.74027 0.39679
 C855 C 0.81700 0.58087 0.41817
 H856 H 0.83956 0.57280 0.42630
 C857 C 0.75944 0.60262 0.39625
 C858 C 1.18351 0.41850 0.41799
 H859 H 1.16104 0.42669 0.42621
 C860 C 1.24087 0.39646 0.39580
 O861 O 1.03065 0.38705 0.65559
 O862 O 1.03076 0.35070 0.69209
 C863 C 1.04140 0.37608 0.68099
 C864 C 1.06710 0.39259 0.69724
 C865 C 1.07825 0.38183 0.72618
 H866 H 1.06745 0.36187 0.73739
 O867 O 0.96953 0.61237 0.65530
 O868 O 0.96946 0.64866 0.69183
 C869 C 0.95884 0.62328 0.68072
 C870 C 0.93325 0.60669 0.69702
 C871 C 0.92225 0.61733 0.72604
 H872 H 0.93308 0.63727 0.73725
 O873 O 0.84421 0.53007 0.61246
 O874 O 0.80775 0.53017 0.64883
 C875 C 0.81880 0.54077 0.62341
 C876 C 0.80246 0.56633 0.60678
 C877 C 0.77349 0.57742 0.61747
 H878 H 0.76232 0.56666 0.63748
 O879 O 1.15593 0.46942 0.61243
 O880 O 1.19244 0.46935 0.64876
 C881 C 1.18138 0.45876 0.62334
 C882 C 1.19774 0.43325 0.60666
 C883 C 1.22674 0.42217 0.61734
 H884 H 1.23790 0.43288 0.63738
 O885 O 1.11324 0.34445 0.53016
 O886 O 1.14959 0.30796 0.53032
 C887 C 1.12420 0.31907 0.54096
 C888 C 1.10762 0.30281 0.56665
 C889 C 1.11837 0.27388 0.57786
 H890 H 1.13841 0.26271 0.56715
 O891 O 0.88706 0.65502 0.53021
 O892 O 0.85075 0.69156 0.53014
 C893 C 0.87612 0.68046 0.54084
 C894 C 0.89271 0.69679 0.56643
 C895 C 0.88204 0.72580 0.57746
 H896 H 0.86204 0.73698 0.56668
 O897 O 0.88711 0.46922 0.65523
 O898 O 0.85083 0.46925 0.69178
 C899 C 0.87621 0.45859 0.68068
 C900 C 0.89282 0.43305 0.69706
 C901 C 0.88203 0.42201 0.72600
 H902 H 0.86197 0.43279 0.73707
 O903 O 1.11298 0.53009 0.65529
 O904 O 1.14928 0.53013 0.69184
 C905 C 1.12386 0.54074 0.68074
 C906 C 1.10718 0.56625 0.69708
 C907 C 1.11777 0.57724 0.72612
 H908 H 1.13776 0.56645 0.73733
 O909 O 0.96968 0.34424 0.61289
 O910 O 0.96972 0.30772 0.64922
 C911 C 0.95901 0.31883 0.62385
 C912 C 0.93331 0.30256 0.60734
 C913 C 0.92201 0.27374 0.61824
 H914 H 0.93268 0.26262 0.63833
 O915 O 1.03040 0.65527 0.61263
 O916 O 1.03038 0.69174 0.64898
 C917 C 1.04103 0.68070 0.62358
 C918 C 1.06655 0.69710 0.60698
 C919 C 1.07754 0.72612 0.61764
 H920 H 1.06676 0.73727 0.63765
 O921 O 0.84424 0.38701 0.53051
 O922 O 0.80788 0.35056 0.53036
 C923 C 0.81883 0.37595 0.54111
 C924 C 0.80244 0.39242 0.56676
 C925 C 0.77356 0.38157 0.57797
 H926 H 0.76245 0.36152 0.56726
 O927 O 1.15567 0.61286 0.53051
 O928 O 1.19209 0.64926 0.53052
 C929 C 1.18106 0.62387 0.54121
 C930 C 1.19739 0.60736 0.56689
 C931 C 1.22625 0.61824 0.57813
 H932 H 1.23732 0.63833 0.56744
 O933 O 1.03046 0.61234 0.65527
 O934 O 1.03044 0.64862 0.69181
 C935 C 1.04111 0.62325 0.68071
 C936 C 1.06669 0.60663 0.69705
 C937 C 1.07766 0.61725 0.72609
 H938 H 1.06683 0.63720 0.73729
 O939 O 0.96968 0.38705 0.65561
 O940 O 0.96970 0.35072 0.69213
 C941 C 0.95900 0.37609 0.68103
 C942 C 0.93331 0.39265 0.69728
 C943 C 0.92210 0.38195 0.72623
 H944 H 0.93283 0.36196 0.73747
 O945 O 1.15592 0.53036 0.61274
 O946 O 1.19241 0.53038 0.64910
 C947 C 1.18129 0.54110 0.62374
 C948 C 1.19751 0.56685 0.60727
 C949 C 1.22637 0.57811 0.61813
 H950 H 1.23753 0.56737 0.63817
 O951 O 0.84412 0.46916 0.61268
 O952 O 0.80767 0.46918 0.64905
 C953 C 0.81872 0.45849 0.62368
 C954 C 0.80241 0.43285 0.60717
 C955 C 0.77354 0.42165 0.61800
 H956 H 0.76242 0.43239 0.63804
 O957 O 1.11268 0.65543 0.53033
 O958 O 1.14892 0.69200 0.53033
 C959 C 1.12355 0.68088 0.54097
 C960 C 1.10692 0.69719 0.56653
 C961 C 1.11753 0.72621 0.57755
 H962 H 1.13748 0.73742 0.56674
 O963 O 0.88723 0.34443 0.53062
 O964 O 0.85104 0.30781 0.53046
 C965 C 0.87634 0.31896 0.54123
 C966 C 0.89286 0.30264 0.56691
 C967 C 0.88195 0.27382 0.57818
 H968 H 0.86184 0.26276 0.56749
 O969 O 1.11330 0.46918 0.65534
 O970 O 1.14962 0.46913 0.69187
 C971 C 1.12425 0.45847 0.68077
 C972 C 1.10767 0.43286 0.69711
 C973 C 1.11844 0.42172 0.72606
 H974 H 1.13851 0.43241 0.73718
 O975 O 0.88699 0.53012 0.65524
 O976 O 0.85072 0.53022 0.69179
 C977 C 0.87610 0.54082 0.68067
 C978 C 0.89275 0.56636 0.69699
 C979 C 0.88213 0.57738 0.72601
 H980 H 0.86213 0.56663 0.73720
 O981 O 0.96949 0.65509 0.61250
 O982 O 0.96940 0.69157 0.64885
 C983 C 0.95878 0.68049 0.62344
 C984 C 0.93317 0.69680 0.60684
 C985 C 0.92213 0.72580 0.61749
 H986 H 0.93294 0.73699 0.63746
 O987 O 1.03066 0.34447 0.61266
 O988 O 1.03078 0.30794 0.64898
 C989 C 1.04142 0.31907 0.62359
 C990 C 1.06710 0.30281 0.60703
 C991 C 1.07824 0.27388 0.61782
 H992 H 1.06745 0.26272 0.63782
 O993 O 1.15601 0.38720 0.52991
 O994 O 1.19256 0.35089 0.53003
 C995 C 1.18145 0.37630 0.54060
 C996 C 1.19777 0.39293 0.56615
 C997 C 1.22676 0.38224 0.57719
 H998 H 1.23794 0.36226 0.56639
 O999 O 0.84426 0.61232 0.53013
 O1000 O 0.80776 0.64867 0.53005
 C1001 C 0.81882 0.62328 0.54074
 C1002 C 0.80246 0.60672 0.56632
 C1003 C 0.77348 0.61745 0.57737
 H1004 H 0.76232 0.63746 0.56658
 Cu1005 Cu 1.00015 0.36934 0.63056
 Cu1006 Cu 1.00026 0.32561 0.67425
 Cu1007 Cu 0.99999 0.63013 0.63028
 Cu1008 Cu 0.99992 0.67380 0.67404
 Cu1009 Cu 0.86951 0.36950 0.50012
 Cu1010 Cu 0.82600 0.32561 0.49986
 Cu1011 Cu 1.13098 0.36932 0.49953
 Cu1012 Cu 1.17474 0.32564 0.49968
 Cu1013 Cu 0.86938 0.62998 0.49973
 Cu1014 Cu 0.82569 0.67375 0.49957
 Cu1015 Cu 1.13054 0.63044 0.49995
 Cu1016 Cu 1.17417 0.67422 0.49991
 Cu1017 Cu 0.86923 0.49964 0.63025
 Cu1018 Cu 0.82559 0.49972 0.67403
 Cu1019 Cu 1.13090 0.49975 0.63030
 Cu1020 Cu 1.17460 0.49974 0.67405
 C1021 C 1.08178 0.41833 0.68305
 H1022 H 1.07362 0.42648 0.66053
 C1023 C 1.10377 0.39635 0.74053
 C1024 C 0.91853 0.58098 0.68284
 H1025 H 0.92658 0.57292 0.66026
 C1026 C 0.89684 0.60271 0.74047
 C1027 C 0.81659 0.58094 0.58099
 H1028 H 0.83914 0.57282 0.57291
 C1029 C 0.75906 0.60282 0.60279
 C1030 C 1.18361 0.41867 0.58084
 H1031 H 1.16103 0.42676 0.57276
 C1032 C 1.24117 0.39681 0.60263
 C1033 C 1.08177 0.31694 0.58123
 H1034 H 1.07361 0.33945 0.57305
 C1035 C 1.10372 0.25948 0.60328
 C1036 C 0.91849 0.68264 0.58109
 H1037 H 0.92658 0.66007 0.57303
 C1038 C 0.89673 0.74024 0.60284
 C1039 C 0.91868 0.41842 0.68306
 H1040 H 0.92685 0.42653 0.66053
 C1041 C 0.89660 0.39662 0.74052
 C1042 C 1.08141 0.58091 0.68289
 H1043 H 1.07339 0.57287 0.66029
 C1044 C 1.10304 0.60258 0.74056
 C1045 C 0.91876 0.31666 0.58146
 H1046 H 0.92703 0.33909 0.57320
 C1047 C 0.89646 0.25944 0.60370
 C1048 C 1.08121 0.68299 0.58120
 H1049 H 1.07318 0.66041 0.57313
 C1050 C 1.10288 0.74060 0.60295
 C1051 C 0.81649 0.41827 0.58133
 H1052 H 0.83896 0.42649 0.57314
 C1053 C 0.75917 0.39617 0.60345
 C1054 C 1.18339 0.58145 0.58144
 H1055 H 1.16094 0.57320 0.57321
 C1056 C 1.24067 0.60365 0.60360
 O1057 O 0.46934 0.88711 0.34467
 O1058 O 0.46937 0.85090 0.30806
 C1059 C 0.45872 0.87626 0.31919
 C1060 C 0.43321 0.89290 0.30281
 C1061 C 0.42219 0.88216 0.27385
 H1062 H 0.43296 0.86211 0.26276
 O1063 O 0.53053 1.11337 0.34484
 O1064 O 0.53052 1.14960 0.30822
 C1065 C 0.54116 1.12423 0.31937
 C1066 C 0.56668 1.10757 0.30303
 C1067 C 0.57769 1.11828 0.27405
 H1068 H 0.56693 1.13831 0.26291
 O1069 O 0.34438 0.96987 0.38711
 O1070 O 0.30800 0.96990 0.35063
 C1071 C 0.31899 0.95924 0.37607
 C1072 C 0.30259 0.93368 0.39261
 C1073 C 0.27364 0.92265 0.38182
 H1074 H 0.26252 0.93345 0.36179
 O1075 O 0.65556 1.03062 0.38738
 O1076 O 0.69201 1.03056 0.35100
 C1077 C 0.68101 1.04121 0.37642
 C1078 C 0.69744 1.06671 0.39303
 C1079 C 0.72650 1.07763 0.38240
 H1080 H 0.73765 1.06683 0.36241
 O1081 O 0.38683 0.84438 0.46923
 O1082 O 0.35038 0.80802 0.46927
 C1083 C 0.37580 0.81899 0.45859
 C1084 C 0.39233 0.80259 0.43300
 C1085 C 0.38154 0.77367 0.42186
 H1086 H 0.36149 0.76256 0.43258
 O1087 O 0.61340 1.15602 0.46939
 O1088 O 0.64977 1.19247 0.46935
 C1089 C 0.62438 1.18141 0.45867
 C1090 C 0.60783 1.19773 0.43300
 C1091 C 0.61870 1.22656 0.42167
 H1092 H 0.63885 1.23762 0.43226
 O1093 O 0.38750 1.03063 0.34456
 O1094 O 0.35132 1.03073 0.30789
 C1095 C 0.37668 1.04133 0.31910
 C1096 C 0.39333 1.06690 0.30284
 C1097 C 0.38280 1.07779 0.27374
 H1098 H 0.36295 1.06688 0.26244
 O1099 O 0.61249 0.96983 0.34475
 O1100 O 0.64874 0.96972 0.30818
 C1101 C 0.62337 0.95912 0.31932
 C1102 C 0.60674 0.93354 0.30304
 C1103 C 0.61736 0.92257 0.27400
 H1104 H 0.63728 0.93341 0.26278
 O1105 O 0.53013 0.84409 0.38737
 O1106 O 0.53022 0.80772 0.35092
 C1107 C 0.54082 0.81871 0.37636
 C1108 C 0.56640 0.80234 0.39292
 C1109 C 0.57749 0.77340 0.38215
 H1110 H 0.56670 0.76227 0.36213
 O1111 O 0.46971 1.15634 0.38747
 O1112 O 0.46962 1.19275 0.35103
 C1113 C 0.45900 1.18172 0.37645
 C1114 C 0.43336 1.19804 0.39296
 C1115 C 0.42221 1.22696 0.38216
 H1116 H 0.43298 1.23813 0.36216
 O1117 O 0.34422 1.11343 0.46905
 O1118 O 0.30770 1.14976 0.46896
 C1119 C 0.31883 1.12440 0.45828
 C1120 C 0.30261 1.10785 0.43255
 C1121 C 0.27376 1.11866 0.42117
 H1122 H 0.26258 1.13875 0.43177
 O1123 O 0.65505 0.88703 0.46940
 O1124 O 0.69159 0.85072 0.46949
 C1125 C 0.68050 0.87610 0.45879
 C1126 C 0.69688 0.89272 0.43326
 C1127 C 0.72589 0.88205 0.42226
 H1128 H 0.73704 0.86201 0.43301
 O1129 O 0.46966 1.11341 0.34486
 O1130 O 0.46959 1.14963 0.30824
 C1131 C 0.45900 1.12425 0.31938
 C1132 C 0.43354 1.10752 0.30300
 C1133 C 0.42262 1.11805 0.27388
 H1134 H 0.43336 1.13805 0.26269
 O1135 O 0.53022 0.88712 0.34485
 O1136 O 0.53032 0.85093 0.30821
 C1137 C 0.54092 0.87629 0.31939
 C1138 C 0.56645 0.89299 0.30309
 C1139 C 0.57745 0.88241 0.27405
 H1140 H 0.56671 0.86241 0.26286
 O1141 O 0.65537 0.96971 0.38738
 O1142 O 0.69182 0.96958 0.35100
 C1143 C 0.68074 0.95895 0.37640
 C1144 C 0.69700 0.93329 0.39296
 C1145 C 0.72601 0.92224 0.38233
 H1146 H 0.73725 0.93309 0.36241
 O1147 O 0.34441 1.03081 0.38695
 O1148 O 0.30806 1.03090 0.35045
 C1149 C 0.31907 1.04156 0.37586
 C1150 C 0.30275 1.06728 0.39227
 C1151 C 0.27391 1.07844 0.38129
 H1152 H 0.26284 1.06764 0.36125
 O1153 O 0.38705 1.15611 0.46934
 O1154 O 0.35072 1.19263 0.46928
 C1155 C 0.37614 1.18157 0.45870
 C1156 C 0.39280 1.19795 0.43321
 C1157 C 0.38203 1.22687 0.42206
 H1158 H 0.36192 1.23797 0.43272
 O1159 O 0.61248 0.84410 0.46946
 O1160 O 0.64883 0.80760 0.46956
 C1161 C 0.62345 0.81865 0.45886
 C1162 C 0.60687 0.80230 0.43329
 C1163 C 0.61762 0.77335 0.42215
 H1164 H 0.63766 0.76219 0.43287
 O1165 O 0.61270 1.03077 0.34467
 O1166 O 0.64896 1.03073 0.30811
 C1167 C 0.62361 1.04143 0.31923
 C1168 C 0.60704 1.06708 0.30295
 C1169 C 0.61770 1.07817 0.27396
 H1170 H 0.63767 1.06739 0.26275
 O1171 O 0.38714 0.96970 0.34434
 O1172 O 0.35094 0.96975 0.30769
 C1173 C 0.37626 0.95904 0.31888
 C1174 C 0.39284 0.93338 0.30263
 C1175 C 0.38216 0.92224 0.27366
 H1176 H 0.36217 0.93299 0.26242
 O1177 O 0.53068 1.15626 0.38743
 O1178 O 0.53067 1.19267 0.35099
 C1179 C 0.54140 1.18161 0.37637
 C1180 C 0.56717 1.19784 0.39277
 C1181 C 0.57842 1.22666 0.38182
 H1182 H 0.56762 1.23780 0.36180
 O1183 O 0.46921 0.84415 0.38724
 O1184 O 0.46922 0.80776 0.35081
 C1185 C 0.45852 0.81879 0.37620
 C1186 C 0.43284 0.80249 0.39267
 C1187 C 0.42169 0.77357 0.38190
 H1188 H 0.43249 0.76240 0.36192
 O1189 O 0.65583 1.11290 0.46966
 O1190 O 0.69240 1.14915 0.46962
 C1191 C 0.68128 1.12376 0.45901
 C1192 C 0.69758 1.10709 0.43349
 C1193 C 0.72662 1.11763 0.42250
 H1194 H 0.73787 1.13756 0.43331
 O1195 O 0.34427 0.88739 0.46921
 O1196 O 0.30764 0.85121 0.46924
 C1197 C 0.31880 0.87655 0.45857
 C1198 C 0.30251 0.89320 0.43298
 C1199 C 0.27356 0.88253 0.42183
 H1200 H 0.26237 0.86251 0.43254
 Cu1201 Cu 0.49972 0.86923 0.36970
 Cu1202 Cu 0.49980 0.82567 0.32582
 Cu1203 Cu 0.50013 1.13123 0.36983
 Cu1204 Cu 0.50009 1.17483 0.32596
 Cu1205 Cu 0.36949 1.00023 0.36940
 Cu1206 Cu 0.32593 1.00033 0.32549
 Cu1207 Cu 0.63040 1.00026 0.36969
 Cu1208 Cu 0.67403 1.00014 0.32590
 C1209 C 0.41858 0.91873 0.31686
 H1210 H 0.42667 0.92687 0.33941
 C1211 C 0.39682 0.89676 0.25934
 C1212 C 0.58130 1.08175 0.31714
 H1213 H 0.57323 1.07365 0.33970
 C1214 C 0.60305 1.10362 0.25958
 C1215 C 0.31667 0.91899 0.41841
 H1216 H 0.33921 0.92707 0.42657
 C1217 C 0.25919 0.89722 0.39640
 C1218 C 0.68334 1.08140 0.41880
 H1219 H 0.66073 1.07342 0.42685
 C1220 C 0.74102 1.10294 0.39712
 C1221 C 0.41819 0.81663 0.41843
 H1222 H 0.42636 0.83914 0.42658
 C1223 C 0.39620 0.75921 0.39646
 C1224 C 0.58185 1.18374 0.41857
 H1225 H 0.57360 1.16131 0.42686
 C1226 C 0.60403 1.24096 0.39622
 C1227 C 0.41892 1.08172 0.31714
 H1228 H 0.42689 1.07374 0.33979
 C1229 C 0.39740 1.10321 0.25933
 C1230 C 0.58106 0.91878 0.31725
 H1231 H 0.57302 0.92680 0.33985
 C1232 C 0.60275 0.89716 0.25958
 C1233 C 0.58105 0.81642 0.41871
 H1234 H 0.57292 0.83895 0.42685
 C1235 C 0.60294 0.75897 0.39672
 C1236 C 0.41870 1.18389 0.41871
 H1237 H 0.42685 1.16137 0.42688
 C1238 C 0.39669 1.24130 0.39668
 C1239 C 0.31675 1.08194 0.41811
 H1240 H 0.33920 1.07375 0.42643
 C1241 C 0.25947 1.10398 0.39568
 C1242 C 0.68278 0.91856 0.41864
 H1243 H 0.66021 0.92665 0.42670
 C1244 C 0.74039 0.89678 0.39695
 O1245 O 0.52994 0.88757 0.65539
 O1246 O 0.53002 0.85129 0.69197
 C1247 C 0.54067 0.87665 0.68081
 C1248 C 0.56634 0.89320 0.69705
 C1249 C 0.57743 0.88249 0.72603
 H1250 H 0.56661 0.86253 0.73724
 O1251 O 0.46958 1.11322 0.65534
 O1252 O 0.46958 1.14956 0.69182
 C1253 C 0.45890 1.12419 0.68075
 C1254 C 0.43325 1.10770 0.69706
 C1255 C 0.42216 1.11853 0.72597
 H1256 H 0.43297 1.13852 0.73710
 O1257 O 0.34426 1.03102 0.61259
 O1258 O 0.30770 1.03110 0.64885
 C1259 C 0.31881 1.04169 0.62345
 C1260 C 0.30246 1.06721 0.60676
 C1261 C 0.27348 1.07832 0.61742
 H1262 H 0.26232 1.06762 0.63747
 O1263 O 0.65538 0.96990 0.61240
 O1264 O 0.69185 0.96965 0.64878
 C1265 C 0.68076 0.95912 0.62335
 C1266 C 0.69702 0.93351 0.60674
 C1267 C 0.72605 0.92249 0.61735
 H1268 H 0.73731 0.93332 0.63727
 O1269 O 0.61223 0.84447 0.53038
 O1270 O 0.64857 0.80795 0.53057
 C1271 C 0.62316 0.81908 0.54115
 C1272 C 0.60653 0.80282 0.56675
 C1273 C 0.61716 0.77381 0.57782
 H1274 H 0.63714 0.76259 0.56705
 O1275 O 0.38688 1.15597 0.53025
 O1276 O 0.35056 1.19249 0.53029
 C1277 C 0.37593 1.18137 0.54098
 C1278 C 0.39252 1.19764 0.56664
 C1279 C 0.38178 1.22657 0.57782
 H1280 H 0.36172 1.23773 0.56712
 O1281 O 0.38698 0.97014 0.65555
 O1282 O 0.35059 0.97017 0.69198
 C1283 C 0.37598 0.95948 0.68095
 C1284 C 0.39247 0.93383 0.69730
 C1285 C 0.38161 0.92271 0.72620
 H1286 H 0.36160 0.93352 0.73731
 O1287 O 0.61271 1.03078 0.65528
 O1288 O 0.64899 1.03059 0.69186
 C1289 C 0.62365 1.04135 0.68075
 C1290 C 0.60713 1.06696 0.69709
 C1291 C 0.61791 1.07797 0.72605
 H1292 H 0.63789 1.06711 0.73720
 O1293 O 0.46893 0.84472 0.61285
 O1294 O 0.46892 0.80825 0.64923
 C1295 C 0.45826 0.81931 0.62382
 C1296 C 0.43267 0.80298 0.60721
 C1297 C 0.42149 0.77405 0.61797
 H1298 H 0.43215 0.76292 0.63806
 O1299 O 0.53046 1.15596 0.61253
 O1300 O 0.53054 1.19248 0.64882
 C1301 C 0.54116 1.18138 0.62344
 C1302 C 0.56676 1.19766 0.60683
 C1303 C 0.57789 1.22661 0.61754
 H1304 H 0.56715 1.23780 0.63754
 O1305 O 0.34441 0.88753 0.53013
 O1306 O 0.30776 0.85136 0.53023
 C1307 C 0.31896 0.87671 0.54084
 C1308 C 0.30269 0.89339 0.56642
 C1309 C 0.27369 0.88276 0.57746
 H1310 H 0.26249 0.86278 0.56668
 O1311 O 0.65601 1.11332 0.53060
 O1312 O 0.69254 1.14961 0.53066
 C1313 C 0.68141 1.12427 0.54136
 C1314 C 0.69762 1.10774 0.56711
 C1315 C 0.72641 1.11861 0.57854
 H1316 H 0.73755 1.13871 0.56793
 O1317 O 0.53051 1.11325 0.65541
 O1318 O 0.53060 1.14959 0.69189
 C1319 C 0.54123 1.12419 0.68082
 C1320 C 0.56684 1.10754 0.69714
 C1321 C 0.57802 1.11820 0.72611
 H1322 H 0.56734 1.13824 0.73729
 O1323 O 0.46899 0.88750 0.65560
 O1324 O 0.46899 0.85122 0.69217
 C1325 C 0.45834 0.87661 0.68106
 C1326 C 0.43275 0.89324 0.69736
 C1327 C 0.42152 0.88248 0.72626
 H1328 H 0.43216 0.86239 0.73741
 O1329 O 0.65572 1.03087 0.61279
 O1330 O 0.69216 1.03067 0.64920
 C1331 C 0.68113 1.04148 0.62385
 C1332 C 0.69749 1.06720 0.60746
 C1333 C 0.72628 1.07844 0.61851
 H1334 H 0.73731 1.06769 0.63861
 O1335 O 0.34444 0.97010 0.61256
 O1336 O 0.30786 0.97011 0.64881
 C1337 C 0.31900 0.95943 0.62345
 C1338 C 0.30271 0.93383 0.60684
 C1339 C 0.27370 0.92280 0.61750
 H1340 H 0.26252 0.93359 0.63748
 O1341 O 0.61295 1.15579 0.53030
 O1342 O 0.64929 1.19227 0.53036
 C1343 C 0.62386 1.18122 0.54095
 C1344 C 0.60722 1.19757 0.56646
 C1345 C 0.61796 1.22651 0.57752
 H1346 H 0.63800 1.23763 0.56678
 O1347 O 0.38696 0.84458 0.53017
 O1348 O 0.35051 0.80821 0.53029
 C1349 C 0.37593 0.81923 0.54092
 C1350 C 0.39242 0.80294 0.56660
 C1351 C 0.38162 0.77403 0.57771
 H1352 H 0.36165 0.76288 0.56687
 O1353 O 0.61268 0.96984 0.65524
 O1354 O 0.64897 0.96960 0.69180
 C1355 C 0.62356 0.95906 0.68067
 C1356 C 0.60690 0.93349 0.69697
 C1357 C 0.61759 0.92239 0.72596
 H1358 H 0.63764 0.93309 0.73711
 O1359 O 0.38705 1.03109 0.65539
 O1360 O 0.35067 1.03120 0.69183
 C1361 C 0.37608 1.04182 0.68078
 C1362 C 0.39268 1.06743 0.69708
 C1363 C 0.38194 1.07865 0.72599
 H1364 H 0.36187 1.06801 0.73714
 O1365 O 0.46951 1.15595 0.61255
 O1366 O 0.46951 1.19247 0.64885
 C1367 C 0.45880 1.18136 0.62349
 C1368 C 0.43310 1.19764 0.60696
 C1369 C 0.42198 1.22657 0.61774
 H1370 H 0.43280 1.23773 0.63772
 O1371 O 0.52984 0.84468 0.61279
 O1372 O 0.52992 0.80821 0.64917
 C1373 C 0.54053 0.81926 0.62375
 C1374 C 0.56610 0.80290 0.60716
 C1375 C 0.57711 0.77389 0.61786
 H1376 H 0.56632 0.76273 0.63785
 O1377 O 0.65506 0.88714 0.53028
 O1378 O 0.69160 0.85082 0.53046
 C1379 C 0.68050 0.87625 0.54100
 C1380 C 0.69687 0.89295 0.56647
 C1381 C 0.72591 0.88231 0.57746
 H1382 H 0.73706 0.86228 0.56672
 O1383 O 0.34417 1.11318 0.53000
 O1384 O 0.30765 1.14951 0.53001
 C1385 C 0.31874 1.12411 0.54064
 C1386 C 0.30241 1.10751 0.56620
 C1387 C 0.27344 1.11824 0.57723
 H1388 H 0.26226 1.13822 0.56641
 Cu1389 Cu 0.49941 0.86975 0.63052
 Cu1390 Cu 0.49947 0.82609 0.67431
 Cu1391 Cu 0.50003 1.13096 0.63032
 Cu1392 Cu 0.50006 1.17469 0.67400
 Cu1393 Cu 0.36928 0.86959 0.49966
 Cu1394 Cu 0.32540 0.82605 0.49977
 Cu1395 Cu 0.63006 0.86932 0.49985
 Cu1396 Cu 0.67381 0.82561 0.50005
 Cu1397 Cu 0.36921 1.13103 0.49966
 Cu1398 Cu 0.32549 1.17476 0.49964
 Cu1399 Cu 0.63092 1.13087 0.49998
 Cu1400 Cu 0.67466 1.17453 0.49999
 Cu1401 Cu 0.36934 1.00060 0.63040
 Cu1402 Cu 0.32554 1.00065 0.67402
 Cu1403 Cu 0.63050 1.00037 0.63027
 Cu1404 Cu 0.67415 1.00009 0.67407
 C1405 C 0.58105 0.91893 0.68286
 H1406 H 0.57294 0.92705 0.66031
 C1407 C 0.60290 0.89703 0.74042
 C1408 C 0.41856 1.08193 0.68297
 H1409 H 0.42670 1.07373 0.66046
 C1410 C 0.39666 1.10406 0.74037
 C1411 C 0.31657 1.08177 0.58092
 H1412 H 0.33913 1.07366 0.57285
 C1413 C 0.25904 1.10368 0.60269
 C1414 C 0.68277 0.91878 0.58107
 H1415 H 0.66017 0.92683 0.57304
 C1416 C 0.74043 0.89705 0.60274
 C1417 C 0.58077 0.81702 0.58138
 H1418 H 0.57272 0.83960 0.57328
 C1419 C 0.60249 0.75942 0.60322
 C1420 C 0.41840 1.18352 0.58119
 H1421 H 0.42654 1.16101 0.57302
 C1422 C 0.39648 1.24097 0.60322
 C1423 C 0.41826 0.91914 0.68324
 H1424 H 0.42647 0.92729 0.66074
 C1425 C 0.39609 0.89719 0.74061
 C1426 C 0.58137 1.08171 0.68299
 H1427 H 0.57321 1.07363 0.66045
 C1428 C 0.60341 1.10343 0.74050
 C1429 C 0.41817 0.81706 0.58131
 H1430 H 0.42634 0.83957 0.57315
 C1431 C 0.39611 0.75965 0.60324
 C1432 C 0.58139 1.18349 0.58107
 H1433 H 0.57327 1.16095 0.57297
 C1434 C 0.60334 1.24096 0.60290
 C1435 C 0.31687 0.91915 0.58108
 H1436 H 0.33944 0.92720 0.57300
 C1437 C 0.25927 0.89742 0.60284
 C1438 C 0.68352 1.08183 0.58156
 H1439 H 0.66112 1.07359 0.57319
 C1440 C 0.74069 1.10400 0.60410
 O1441 O 0.61265 0.53000 1.15632
 O1442 O 0.64902 0.53008 1.19280
 C1443 C 0.62362 0.54074 1.18169
 C1444 C 0.60709 0.56646 1.19790
 C1445 C 0.61785 0.57764 1.22682
 H1446 H 0.63782 0.56685 1.23805
 O1447 O 0.38702 0.46933 1.15602
 O1448 O 0.35071 0.46942 1.19253
 C1449 C 0.37606 0.45870 1.18145
 C1450 C 0.39256 0.43304 1.19780
 C1451 C 0.38165 0.42190 1.22667
 H1452 H 0.36160 0.43269 1.23773
 O1453 O 0.53036 0.65545 1.11302
 O1454 O 0.53044 0.69194 1.14935
 C1455 C 0.54104 0.68086 1.12394
 C1456 C 0.56657 0.69718 1.10730
 C1457 C 0.57756 0.72622 1.11788
 H1458 H 0.56675 0.73745 1.13783
 O1459 O 0.46963 0.34466 1.11320
 O1460 O 0.46947 0.30797 1.14936
 C1461 C 0.45893 0.31918 1.12396
 C1462 C 0.43345 0.30290 1.10716
 C1463 C 0.42256 0.27377 1.11761
 H1464 H 0.43337 0.26250 1.13755
 O1465 O 0.65535 0.61236 1.03099
 O1466 O 0.69186 0.64865 1.03102
 C1467 C 0.68075 0.62329 1.04170
 C1468 C 0.69704 0.60672 1.06737
 C1469 C 0.72599 0.61746 1.07848
 H1470 H 0.73715 0.63746 1.06771
 O1471 O 0.34399 0.38716 1.03073
 O1472 O 0.30757 0.35077 1.03084
 C1473 C 0.31864 0.37615 1.04151
 C1474 C 0.30240 0.39263 1.06726
 C1475 C 0.27357 0.38177 1.07859
 H1476 H 0.26242 0.36172 1.06790
 O1477 O 0.46957 0.61258 1.15576
 O1478 O 0.46957 0.64888 1.19229
 C1479 C 0.45892 0.62350 1.18119
 C1480 C 0.43336 0.60693 1.19753
 C1481 C 0.42236 0.61769 1.22649
 H1482 H 0.43318 0.63769 1.23762
 O1483 O 0.53041 0.38708 1.15648
 O1484 O 0.53033 0.35059 1.19283
 C1485 C 0.54105 0.37600 1.18186
 C1486 C 0.56673 0.39241 1.19823
 C1487 C 0.57797 0.38142 1.22705
 H1488 H 0.56722 0.36136 1.23812
 O1489 O 0.65546 0.46907 1.11359
 O1490 O 0.69204 0.46904 1.14985
 C1491 C 0.68093 0.45842 1.12446
 C1492 C 0.69728 0.43290 1.10775
 C1493 C 0.72630 0.42178 1.11834
 H1494 H 0.73749 0.43242 1.13840
 O1495 O 0.34428 0.53031 1.11320
 O1496 O 0.30780 0.53045 1.14954
 C1497 C 0.31889 0.54106 1.12414
 C1498 C 0.30262 0.56671 1.10755
 C1499 C 0.27373 0.57793 1.11833
 H1500 H 0.26257 0.56723 1.13838
 O1501 O 0.38715 0.65566 1.03095
 O1502 O 0.35073 0.69209 1.03090
 C1503 C 0.37613 0.68105 1.04161
 C1504 C 0.39264 0.69738 1.06727
 C1505 C 0.38183 0.72629 1.07843
 H1506 H 0.36179 0.73743 1.06767
 O1507 O 0.61291 0.34436 1.03095
 O1508 O 0.64921 0.30780 1.03107
 C1509 C 0.62384 0.31896 1.04172
 C1510 C 0.60729 0.30271 1.06741
 C1511 C 0.61805 0.27377 1.07855
 H1512 H 0.63806 0.26259 1.06778
 O1513 O 0.38709 0.53027 1.15595
 O1514 O 0.35080 0.53043 1.19248
 C1515 C 0.37619 0.54101 1.18136
 C1516 C 0.39285 0.56660 1.19764
 C1517 C 0.38220 0.57777 1.22660
 H1518 H 0.36218 0.56710 1.23781
 O1519 O 0.61283 0.46903 1.15654
 O1520 O 0.64922 0.46900 1.19300
 C1521 C 0.62383 0.45834 1.18195
 C1522 C 0.60729 0.43269 1.19826
 C1523 C 0.61817 0.42133 1.22709
 H1524 H 0.63829 0.43193 1.23819
 O1525 O 0.53056 0.34448 1.11357
 O1526 O 0.53047 0.30781 1.14975
 C1527 C 0.54122 0.31900 1.12444
 C1528 C 0.56689 0.30272 1.10787
 C1529 C 0.57805 0.27378 1.11863
 H1530 H 0.56732 0.26261 1.13865
 O1531 O 0.46943 0.65563 1.11327
 O1532 O 0.46944 0.69210 1.14962
 C1533 C 0.45874 0.68104 1.12425
 C1534 C 0.43307 0.69737 1.10772
 C1535 C 0.42189 0.72628 1.11850
 H1536 H 0.43264 0.73742 1.13853
 O1537 O 0.34447 0.61282 1.03091
 O1538 O 0.30788 0.64907 1.03084
 C1539 C 0.31901 0.62372 1.04153
 C1540 C 0.30269 0.60715 1.06713
 C1541 C 0.27379 0.61799 1.07828
 H1542 H 0.26269 0.63806 1.06755
 O1543 O 0.65557 0.38717 1.03075
 O1544 O 0.69205 0.35080 1.03086
 C1545 C 0.68097 0.37621 1.04146
 C1546 C 0.69729 0.39275 1.06707
 C1547 C 0.72630 0.38203 1.07801
 H1548 H 0.73749 0.36212 1.06709
 O1549 O 0.46944 0.38703 1.15637
 O1550 O 0.46925 0.35054 1.19273
 C1551 C 0.45864 0.37598 1.18170
 C1552 C 0.43293 0.39252 1.19795
 C1553 C 0.42161 0.38173 1.22682
 H1554 H 0.43226 0.36165 1.23800
 O1555 O 0.53050 0.61276 1.15591
 O1556 O 0.53056 0.64906 1.19242
 C1557 C 0.54120 0.62367 1.18134
 C1558 C 0.56679 0.60705 1.19770
 C1559 C 0.57793 0.61784 1.22663
 H1560 H 0.56723 0.63793 1.23771
 O1561 O 0.34424 0.46935 1.11325
 O1562 O 0.30776 0.46942 1.14959
 C1563 C 0.31882 0.45870 1.12423
 C1564 C 0.30250 0.43304 1.10772
 C1565 C 0.27368 0.42181 1.11865
 H1566 H 0.26261 0.43252 1.13874
 O1567 O 0.65538 0.52998 1.11357
 O1568 O 0.69195 0.53006 1.14985
 C1569 C 0.68080 0.54069 1.12447
 C1570 C 0.69706 0.56631 1.10785
 C1571 C 0.72602 0.57742 1.11857
 H1572 H 0.73719 0.56667 1.13860
 O1573 O 0.38715 0.34477 1.03049
 O1574 O 0.35092 0.30818 1.03061
 C1575 C 0.37633 0.31931 1.04117
 C1576 C 0.39307 0.30296 1.06666
 C1577 C 0.38257 0.27384 1.07749
 H1578 H 0.36266 0.26262 1.06662
 O1579 O 0.61270 0.65527 1.03078
 O1580 O 0.64904 0.69175 1.03080
 C1581 C 0.62363 0.68071 1.04141
 C1582 C 0.60699 0.69710 1.06691
 C1583 C 0.61762 0.72614 1.07785
 H1584 H 0.63759 0.73731 1.06705
 Cu1585 Cu 0.63043 0.49950 1.13139
 Cu1586 Cu 0.67421 0.49955 1.17504
 Cu1587 Cu 0.36929 0.49981 1.13096
 Cu1588 Cu 0.32561 0.49994 1.17469
 Cu1589 Cu 0.49997 0.63048 1.13084
 Cu1590 Cu 0.50001 0.67415 1.17459
 Cu1591 Cu 0.50002 0.36948 1.13130
 Cu1592 Cu 0.49986 0.32556 1.17481
 C1593 C 0.58134 0.58114 1.18369
 H1594 H 0.57319 0.57297 1.16118
 C1595 C 0.60330 0.60318 1.24112
 C1596 C 0.41841 0.41840 1.18380
 H1597 H 0.42667 0.42658 1.16133
 C1598 C 0.39612 0.39640 1.24112
 C1599 C 0.58125 0.68298 1.08159
 H1600 H 0.57321 0.66038 1.07358
 C1601 C 0.60293 0.74064 1.10319
 C1602 C 0.41874 0.31716 1.08145
 H1603 H 0.42669 0.33984 1.07354
 C1604 C 0.39728 0.25932 1.10281
 C1605 C 0.68292 0.58093 1.08203
 H1606 H 0.66039 0.57280 1.07390
 C1607 C 0.74041 0.60284 1.10393
 C1608 C 0.31651 0.41848 1.08182
 H1609 H 0.33894 0.42671 1.07354
 C1610 C 0.25927 0.39633 1.10413
 C1611 C 0.41865 0.58116 1.18345
 H1612 H 0.42672 0.57301 1.16090
 C1613 C 0.39693 0.60317 1.24096
 C1614 C 0.58135 0.41825 1.18420
 H1615 H 0.57311 0.42657 1.16176
 C1616 C 0.60354 0.39584 1.24142
 C1617 C 0.68312 0.41841 1.08188
 H1618 H 0.66054 0.42652 1.07385
 C1619 C 0.74074 0.39649 1.10349
 C1620 C 0.31675 0.58128 1.08173
 H1621 H 0.33924 0.57307 1.07357
 C1622 C 0.25939 0.60343 1.10373
 C1623 C 0.41847 0.68328 1.08189
 H1624 H 0.42666 0.66078 1.07372
 C1625 C 0.39642 0.74069 1.10390
 C1626 C 0.58149 0.31685 1.08205
 H1627 H 0.57334 0.33937 1.07389
 C1628 C 0.60348 0.25936 1.10400
 O1629 O 0.61275 0.46918 0.84493
 O1630 O 0.64903 0.46927 0.80839
 C1631 C 0.62369 0.45856 0.81949
 C1632 C 0.60719 0.43294 0.80315
 C1633 C 0.61800 0.42193 0.77422
 H1634 H 0.63797 0.43279 0.76309
 O1635 O 0.38726 0.53014 0.84442
 O1636 O 0.35089 0.53025 0.80794
 C1637 C 0.37628 0.54087 0.81902
 C1638 C 0.39278 0.56652 0.80274
 C1639 C 0.38196 0.57764 0.77382
 H1640 H 0.36198 0.56683 0.76266
 O1641 O 0.46916 0.65554 0.88742
 O1642 O 0.46920 0.69204 0.85108
 C1643 C 0.45851 0.68098 0.87646
 C1644 C 0.43291 0.69732 0.89303
 C1645 C 0.42166 0.72621 0.88223
 H1646 H 0.43231 0.73734 0.86213
 O1647 O 0.53037 0.34407 0.88766
 O1648 O 0.53046 0.30752 0.85139
 C1649 C 0.54105 0.31862 0.87679
 C1650 C 0.56662 0.30232 0.89346
 C1651 C 0.57777 0.27336 0.88279
 H1652 H 0.56705 0.26217 0.86277
 O1653 O 0.65578 0.38678 0.96979
 O1654 O 0.69224 0.35039 0.96984
 C1655 C 0.68118 0.37576 0.95911
 C1656 C 0.69747 0.39227 0.93341
 C1657 C 0.72636 0.38146 0.92215
 H1658 H 0.73751 0.36139 0.93284
 O1659 O 0.34468 0.61266 0.96997
 O1660 O 0.30806 0.64889 0.96985
 C1661 C 0.31924 0.62352 0.95924
 C1662 C 0.30298 0.60687 0.93363
 C1663 C 0.27394 0.61747 0.92262
 H1664 H 0.26270 0.63742 0.93343
 O1665 O 0.53009 0.61257 0.84487
 O1666 O 0.53023 0.64888 0.80833
 C1667 C 0.54083 0.62348 0.81946
 C1668 C 0.56643 0.60684 0.80320
 C1669 C 0.57746 0.61747 0.77418
 H1670 H 0.56665 0.63744 0.76296
 O1671 O 0.46965 0.38693 0.84468
 O1672 O 0.46967 0.35059 0.80820
 C1673 C 0.45902 0.37599 0.81924
 C1674 C 0.43346 0.39258 0.80285
 C1675 C 0.42246 0.38185 0.77387
 H1676 H 0.43329 0.36187 0.76274
 O1677 O 0.65554 0.53002 0.88774
 O1678 O 0.69199 0.53015 0.85136
 C1679 C 0.68094 0.54072 0.87679
 C1680 C 0.69728 0.56625 0.89342
 C1681 C 0.72627 0.57728 0.88275
 H1682 H 0.73744 0.56651 0.86274
 O1683 O 0.34441 0.46928 0.88717
 O1684 O 0.30790 0.46936 0.85083
 C1685 C 0.31895 0.45870 0.87623
 C1686 C 0.30252 0.43321 0.89284
 C1687 C 0.27359 0.42216 0.88203
 H1688 H 0.26254 0.43288 0.86192
 O1689 O 0.61269 0.65509 0.96987
 O1690 O 0.64903 0.69156 0.96982
 C1691 C 0.62364 0.68049 0.95917
 C1692 C 0.60703 0.69684 0.93357
 C1693 C 0.61773 0.72581 0.92248
 H1694 H 0.63777 0.73694 0.93322
 O1695 O 0.38669 0.34452 0.96955
 O1696 O 0.35042 0.30798 0.96960
 C1697 C 0.37576 0.31909 0.95888
 C1698 C 0.39231 0.30277 0.93322
 C1699 C 0.38144 0.27391 0.92197
 H1700 H 0.36133 0.26284 0.93263
 O1701 O 0.38730 0.46921 0.84449
 O1702 O 0.35096 0.46924 0.80798
 C1703 C 0.37635 0.45855 0.81907
 C1704 C 0.39295 0.43294 0.80276
 C1705 C 0.38230 0.42183 0.77377
 H1706 H 0.36229 0.43255 0.76256
 O1707 O 0.61267 0.53012 0.84502
 O1708 O 0.64895 0.53025 0.80847
 C1709 C 0.62356 0.54085 0.81959
 C1710 C 0.60690 0.56643 0.80327
 C1711 C 0.61754 0.57744 0.77425
 H1712 H 0.63753 0.56665 0.76308
 O1713 O 0.46941 0.34418 0.88743
 O1714 O 0.46941 0.30765 0.85115
 C1715 C 0.45867 0.31880 0.87647
 C1716 C 0.43289 0.30262 0.89293
 C1717 C 0.42164 0.27377 0.88208
 H1718 H 0.43241 0.26259 0.86208
 O1719 O 0.53010 0.65535 0.88757
 O1720 O 0.53023 0.69186 0.85123
 C1721 C 0.54084 0.68073 0.87663
 C1722 C 0.56649 0.69697 0.89322
 C1723 C 0.57757 0.72593 0.88253
 H1724 H 0.56676 0.73716 0.86256
 O1725 O 0.34397 0.38736 0.96974
 O1726 O 0.30752 0.35100 0.96976
 C1727 C 0.31857 0.37639 0.95908
 C1728 C 0.30229 0.39294 0.93341
 C1729 C 0.27336 0.38222 0.92222
 H1730 H 0.26214 0.36225 0.93299
 O1731 O 0.65553 0.61236 0.97005
 O1732 O 0.69205 0.64865 0.97001
 C1733 C 0.68097 0.62327 0.95939
 C1734 C 0.69731 0.60664 0.93385
 C1735 C 0.72630 0.61730 0.92280
 H1736 H 0.73748 0.63729 0.93358
 O1737 O 0.53057 0.38672 0.84474
 O1738 O 0.53068 0.35037 0.80827
 C1739 C 0.54131 0.37576 0.81935
 C1740 C 0.56694 0.39236 0.80307
 C1741 C 0.57815 0.38169 0.77412
 H1742 H 0.56750 0.36165 0.76293
 O1743 O 0.46918 0.61278 0.84464
 O1744 O 0.46923 0.64909 0.80810
 C1745 C 0.45856 0.62371 0.81918
 C1746 C 0.43300 0.60711 0.80281
 C1747 C 0.42180 0.61788 0.77388
 H1748 H 0.43243 0.63798 0.76276
 O1749 O 0.34476 0.53018 0.88741
 O1750 O 0.30821 0.53032 0.85111
 C1751 C 0.31934 0.54091 0.87651
 C1752 C 0.30304 0.56648 0.89316
 C1753 C 0.27400 0.57747 0.88254
 H1754 H 0.26280 0.56668 0.86256
 O1755 O 0.65564 0.46910 0.88756
 O1756 O 0.69209 0.46918 0.85118
 C1757 C 0.68105 0.45844 0.87655
 C1758 C 0.69739 0.43276 0.89303
 C1759 C 0.72627 0.42160 0.88216
 H1760 H 0.73737 0.43238 0.86212
 O1761 O 0.61276 0.34427 0.97000
 O1762 O 0.64905 0.30771 0.97007
 C1763 C 0.62366 0.31880 0.95941
 C1764 C 0.60704 0.30242 0.93389
 C1765 C 0.61781 0.27346 0.92286
 H1766 H 0.63785 0.26234 0.93364
 O1767 O 0.38718 0.65566 0.96999
 O1768 O 0.35073 0.69207 0.96988
 C1769 C 0.37615 0.68103 0.95926
 C1770 C 0.39263 0.69734 0.93359
 C1771 C 0.38177 0.72623 0.92243
 H1772 H 0.36176 0.73736 0.93322
 Cu1773 Cu 0.63052 0.49960 0.86996
 Cu1774 Cu 0.67416 0.49974 0.82618
 Cu1775 Cu 0.36959 0.49967 0.86950
 Cu1776 Cu 0.32583 0.49980 0.82580
 Cu1777 Cu 0.63043 0.63013 1.00042
 Cu1778 Cu 0.67416 0.67381 1.00041
 Cu1779 Cu 0.63063 0.36930 1.00034
 Cu1780 Cu 0.67429 0.32551 1.00048
 Cu1781 Cu 0.36953 0.63058 1.00048
 Cu1782 Cu 0.32568 0.67418 1.00035
 Cu1783 Cu 0.36906 0.36961 1.00011
 Cu1784 Cu 0.32546 0.32582 1.00022
 Cu1785 Cu 0.49960 0.63043 0.86977
 Cu1786 Cu 0.49974 0.67413 0.82603
 Cu1787 Cu 0.50001 0.36911 0.86977
 Cu1788 Cu 0.50006 0.32536 0.82610
 C1789 C 0.58144 0.41821 0.81723
 H1790 H 0.57326 0.42630 0.83976
 C1791 C 0.60354 0.39646 0.75976
 C1792 C 0.41852 0.58121 0.81688
 H1793 H 0.42670 0.57305 0.83939
 C1794 C 0.39642 0.60317 0.75946
 C1795 C 0.41842 0.68324 0.91893
 H1796 H 0.42664 0.66075 0.92712
 C1797 C 0.39624 0.74060 0.89690
 C1798 C 0.58122 0.31650 0.91924
 H1799 H 0.57308 0.33905 0.92731
 C1800 C 0.60321 0.25900 0.89746
 C1801 C 0.68336 0.41813 0.91886
 H1802 H 0.66089 0.42633 0.92710
 C1803 C 0.74070 0.39610 0.89667
 C1804 C 0.31720 0.58115 0.91893
 H1805 H 0.33980 0.57312 0.92698
 C1806 C 0.25952 0.60281 0.89723
 C1807 C 0.58112 0.58109 0.81741
 H1808 H 0.57306 0.57304 0.83999
 C1809 C 0.60286 0.60281 0.75978
 C1810 C 0.41876 0.41835 0.81694
 H1811 H 0.42683 0.42646 0.83950
 C1812 C 0.39704 0.39643 0.75939
 C1813 C 0.68315 0.58089 0.91920
 H1814 H 0.66058 0.57282 0.92727
 C1815 C 0.74071 0.60265 0.89740
 C1816 C 0.31651 0.41865 0.91876
 H1817 H 0.33903 0.42676 0.92694
 C1818 C 0.25908 0.39681 0.89667
 C1819 C 0.58119 0.68276 0.91896
 H1820 H 0.57307 0.66022 0.92706
 C1821 C 0.60304 0.74029 0.89712
 C1822 C 0.41824 0.31677 0.91871
 H1823 H 0.42649 0.33922 0.92694
 C1824 C 0.39606 0.25948 0.89655
 C1825 C 1.12746 1.12630 1.29339
 C1826 C 1.11677 1.11588 1.26950
 C1827 C 1.12533 0.62494 0.79360
 C1828 C 1.11498 0.61454 0.76959
 C1829 C 0.62620 1.12556 0.79346
 C1830 C 0.61560 1.11531 0.76948
 C1831 C 0.62587 0.62579 1.29399
 C1832 C 0.61539 0.61530 1.27005
 C1833 C 0.87476 0.87468 1.29358
 C1834 C 0.88520 0.88508 1.26961
 C1835 C 0.87364 0.37448 0.79340
 C1836 C 0.88434 0.38472 0.76947
 C1837 C 0.37322 0.87467 0.79338
 C1838 C 0.38384 0.88512 0.76949
 C1839 C 0.37307 0.37408 1.29392
 C1840 C 0.38379 0.38440 1.27001
 C1841 C 0.87248 1.12648 0.70639
 C1842 C 0.88315 1.11598 0.73026
 C1843 C 0.87399 0.62593 0.20608
 C1844 C 0.88452 0.61538 0.22998
 C1845 C 0.37503 1.12525 0.20617
 C1846 C 0.38546 1.11502 0.23023
 C1847 C 0.37352 0.62561 0.70665
 C1848 C 0.38418 0.61521 0.73055
 C1849 C 1.12519 0.87487 0.70634
 C1850 C 1.11482 0.88529 0.73033
 C1851 C 1.12736 0.37379 0.20620
 C1852 C 1.11670 0.38423 0.23008
 C1853 C 0.62515 0.87485 0.20657
 C1854 C 0.61473 0.88522 0.23056
 C1855 C 0.62642 0.37437 0.70683
 C1856 C 0.61578 0.38459 0.73079
 C1857 C 1.29372 1.12522 1.12503
 C1858 C 1.26967 1.11492 1.11467
 C1859 C 1.29348 0.62635 0.62629
 C1860 C 1.26956 0.61583 0.61577
 C1861 C 0.79337 1.12664 0.62716
 C1862 C 0.76951 1.11615 0.61647
 C1863 C 0.79332 0.62533 1.12644
 C1864 C 0.76937 0.61489 1.11599
 C1865 C 1.29324 0.87373 0.87372
 C1866 C 1.26931 0.88423 0.88423
 C1867 C 1.29374 0.37407 0.37294
 C1868 C 1.26979 0.38443 0.38356
 C1869 C 0.79344 0.87446 0.37461
 C1870 C 0.76942 0.88482 0.38499
 C1871 C 0.79360 0.37371 0.87386
 C1872 C 0.76964 0.38407 0.88445
 C1873 C 0.70639 0.87484 1.12550
 C1874 C 0.73039 0.88521 1.11512
 C1875 C 0.70631 0.37373 0.62624
 C1876 C 0.73025 0.38411 0.61564
 C1877 C 0.20631 0.87494 0.62519
 C1878 C 0.23028 0.88540 0.61482
 C1879 C 0.20652 0.37376 1.12706
 C1880 C 0.23041 0.38421 1.11642
 C1881 C 0.70617 1.12613 0.87397
 C1882 C 0.73014 1.11573 0.88449
 C1883 C 0.70648 0.62497 0.37368
 C1884 C 0.73045 0.61459 0.38416
 C1885 C 0.20668 1.12634 0.37258
 C1886 C 0.23059 1.11599 0.38331
 C1887 C 0.20645 0.62509 0.87485
 C1888 C 0.23047 0.61474 0.88526
 C1889 C 1.12646 1.29361 1.12620
 C1890 C 1.11584 1.26979 1.11564
 C1891 C 1.12524 0.79363 0.62528
 C1892 C 1.11484 0.76963 0.61492
 C1893 C 0.62614 1.29370 0.62538
 C1894 C 0.61552 1.26984 0.61495
 C1895 C 0.62526 0.79368 1.12546
 C1896 C 0.61488 0.76967 1.11510
 C1897 C 0.87374 1.29357 0.87464
 C1898 C 0.88436 1.26965 0.88499
 C1899 C 0.87471 0.79335 0.37457
 C1900 C 0.88511 0.76932 0.38490
 C1901 C 0.37391 1.29401 0.37399
 C1902 C 0.38450 1.27016 0.38453
 C1903 C 0.37333 0.79340 0.87442
 C1904 C 0.38398 0.76950 0.88483
 C1905 C 1.12514 0.70615 0.87469
 C1906 C 1.11474 0.73015 0.88505
 C1907 C 1.12664 0.20645 0.37346
 C1908 C 1.11611 0.23029 0.38408
 C1909 C 0.62532 0.70611 0.37397
 C1910 C 0.61495 0.73004 0.38456
 C1911 C 0.62600 0.20623 0.87497
 C1912 C 0.61540 0.23011 0.88542
 C1913 C 0.87450 0.70646 1.12628
 C1914 C 0.88492 0.73039 1.11574
 C1915 C 0.87347 0.20683 0.62648
 C1916 C 0.88415 0.23064 0.61592
 C1917 C 0.37334 0.70680 0.62561
 C1918 C 0.38393 0.73073 0.61524
 C1919 C 0.37498 0.20621 1.12492
 C1920 C 0.38536 0.23024 1.11462
 C1921 C 1.12528 1.12643 0.70638
 C1922 C 1.11496 1.11578 0.73031
 C1923 C 1.12636 0.62712 0.20616
 C1924 C 1.11593 0.61638 0.23003
 C1925 C 0.62535 1.12632 0.20669
 C1926 C 0.61501 1.11575 0.23063
 C1927 C 0.62521 0.62517 0.70675
 C1928 C 0.61483 0.61477 0.73075
 C1929 C 0.87449 0.87459 0.70635
 C1930 C 0.88482 0.88507 0.73034
 C1931 C 0.87529 0.37373 0.20607
 C1932 C 0.88568 0.38436 0.22996
 C1933 C 0.37457 0.87389 0.20649
 C1934 C 0.38487 0.88455 0.23041
 C1935 C 0.37487 0.37375 0.70641
 C1936 C 0.38515 0.38430 0.73040
 C1937 C 1.12608 0.87391 1.29380
 C1938 C 1.11567 0.88444 1.26983
 C1939 C 1.12622 0.37378 0.79351
 C1940 C 1.11582 0.38427 0.76952
 C1941 C 0.62534 0.87449 0.79338
 C1942 C 0.61492 0.88496 0.76940
 C1943 C 0.62627 0.37283 1.29409
 C1944 C 0.61572 0.38350 1.27024
 C1945 C 0.87532 1.12515 1.29389
 C1946 C 0.88568 1.11476 1.26989
 C1947 C 0.87455 0.62511 0.79350
 C1948 C 0.88490 0.61470 0.76949
 C1949 C 0.37429 1.12688 0.79321
 C1950 C 0.38466 1.11628 0.76928
 C1951 C 0.37471 0.62605 1.29381
 C1952 C 0.38501 0.61540 1.26989
 C1953 C 1.12511 1.29340 0.87350
 C1954 C 1.11470 1.26949 0.88406
 C1955 C 1.12547 0.79338 0.37366
 C1956 C 1.11514 0.76941 0.38421
 C1957 C 0.62662 1.29368 0.37325
 C1958 C 0.61616 1.26980 0.38392
 C1959 C 0.62542 0.79325 0.87460
 C1960 C 0.61504 0.76927 0.88507
 C1961 C 0.87411 1.29358 1.12597
 C1962 C 0.88457 1.26958 1.11558
 C1963 C 0.87444 0.79328 0.62525
 C1964 C 0.88478 0.76926 0.61483
 C1965 C 0.37412 1.29391 0.62588
 C1966 C 0.38448 1.26994 0.61535
 C1967 C 0.37387 0.79365 1.12638
 C1968 C 0.38433 0.76966 1.11596
 C1969 C 0.87465 0.70633 0.87462
 C1970 C 0.88503 0.73033 0.88502
 C1971 C 0.87530 0.20644 0.37484
 C1972 C 0.88571 0.23047 0.38513
 C1973 C 0.37377 0.70623 0.37397
 C1974 C 0.38417 0.73023 0.38441
 C1975 C 0.37345 0.20668 0.87378
 C1976 C 0.38392 0.23059 0.88436
 C1977 C 1.12652 0.70641 1.12705
 C1978 C 1.11611 0.73032 1.11637
 C1979 C 1.12608 0.20652 0.62598
 C1980 C 1.11572 0.23050 0.61544
 C1981 C 0.62491 0.70642 0.62562
 C1982 C 0.61447 0.73041 0.61523
 C1983 C 0.62608 0.20640 1.12645
 C1984 C 0.61558 0.23038 1.11605
 C1985 C 1.29324 1.12659 0.87436
 C1986 C 1.26936 1.11594 0.88474
 C1987 C 1.29365 0.62609 0.37483
 C1988 C 1.26972 0.61546 0.38511
 C1989 C 0.79409 1.12527 0.37489
 C1990 C 0.77007 1.11487 0.38520
 C1991 C 0.79363 0.62508 0.87490
 C1992 C 0.76968 0.61466 0.88536
 C1993 C 1.29357 0.87374 1.12532
 C1994 C 1.26964 0.88437 1.11497
 C1995 C 1.29402 0.37408 0.62505
 C1996 C 1.27011 0.38467 0.61464
 C1997 C 0.79342 0.87461 0.62511
 C1998 C 0.76944 0.88505 0.61471
 C1999 C 0.79375 0.37368 1.12547
 C2000 C 0.76975 0.38431 1.11530
 C2001 C 0.70643 1.12633 1.12562
 C2002 C 0.73035 1.11571 1.11529
 C2003 C 0.70614 0.62526 0.62532
 C2004 C 0.73009 0.61486 0.61483
 C2005 C 0.20621 1.12639 0.62512
 C2006 C 0.23012 1.11582 0.61470
 C2007 C 0.20668 0.62629 1.12636
 C2008 C 0.23053 0.61566 1.11586
 C2009 C 0.70647 0.87447 0.87465
 C2010 C 0.73043 0.88490 0.88510
 C2011 C 0.70697 0.37354 0.37364
 C2012 C 0.73087 0.38409 0.38409
 C2013 C 0.20636 0.87474 0.37375
 C2014 C 0.23027 0.88520 0.38426
 C2015 C 0.20628 0.37444 0.87380
 C2016 C 0.23017 0.38481 0.88445
   
