data_POSCAR
  _audit_creation_date              2014-09-24
  _audit_creation_method            'ToBaCCo'
  _symmetry_space_group_name_H-M    'P1'
  _symmetry_Int_Tables_number       1
  _symmetry_cell_setting            triclinic
  loop_
  _symmetry_equiv_pos_as_xyz
 x,y,z
_cell_length_a 76.1442
_cell_length_b 76.8732
_cell_length_c 77.5511
_cell_angle_alpha 89.693600
_cell_angle_beta 89.984000
_cell_angle_gamma 89.530800
loop_
  _atom_site_label
  _atom_site_type_symbol
  _atom_site_fract_x
  _atom_site_fract_y
  _atom_site_fract_z
C1 C 0.34753 0.33695 0.32386
 C2 C 0.36239 0.32771 0.31818
 C3 C 0.36918 0.31366 0.32790
 C4 C 0.36065 0.30872 0.34320
 C5 C 0.34573 0.31779 0.34901
 C6 C 0.33917 0.33201 0.33934
 C7 C 0.34088 0.35107 0.31429
 C8 C 0.32616 0.36051 0.32005
 C9 C 0.31777 0.35538 0.33542
 C10 C 0.32420 0.34122 0.34510
 C11 C 0.31584 0.33605 0.36039
 C12 C 0.32215 0.32179 0.37004
 C13 C 0.33728 0.31284 0.36433
 H14 H 0.36835 0.33135 0.30603
 H15 H 0.36571 0.29781 0.35066
 H16 H 0.34730 0.35487 0.30238
 H17 H 0.30604 0.36207 0.33977
 H18 H 0.30428 0.34309 0.36477
 H19 H 0.34277 0.30220 0.37179
 C20 C 0.33768 0.84169 -0.17341
 C21 C 0.35345 0.83664 -0.18140
 C22 C 0.36356 0.82259 -0.17501
 C23 C 0.35770 0.81386 -0.15998
 C24 C 0.34197 0.81880 -0.15184
 C25 C 0.33190 0.83270 -0.15863
 C26 C 0.32759 0.85557 -0.18004
 C27 C 0.31155 0.86051 -0.17216
 C28 C 0.30596 0.85128 -0.15748
 C29 C 0.31600 0.83757 -0.15064
 C30 C 0.31030 0.82866 -0.13591
 C31 C 0.32043 0.81504 -0.12880
 C32 C 0.33614 0.81005 -0.13697
 H33 H 0.35775 0.84359 -0.19285
 H34 H 0.36518 0.80332 -0.15429
 H35 H 0.33251 0.86230 -0.19127
 H36 H 0.29373 0.85487 -0.15120
 H37 H 0.29779 0.83221 -0.13025
 H38 H 0.34387 0.79939 -0.13167
 C39 C 0.84893 0.35174 -0.18172
 C40 C 0.86432 0.34410 -0.18810
 C41 C 0.87146 0.32899 -0.18050
 C42 C 0.86290 0.32165 -0.16609
 C43 C 0.84751 0.32931 -0.15948
 C44 C 0.84045 0.34440 -0.16735
 C45 C 0.84182 0.36652 -0.18973
 C46 C 0.82618 0.37424 -0.18376
 C47 C 0.81772 0.36686 -0.16925
 C48 C 0.82481 0.35199 -0.16103
 C49 C 0.81647 0.34449 -0.14666
 C50 C 0.82358 0.32961 -0.13853
 C51 C 0.83897 0.32196 -0.14523
 H52 H 0.87067 0.34990 -0.19924
 H53 H 0.86784 0.30992 -0.16000
 H54 H 0.84850 0.37196 -0.20086
 H55 H 0.80560 0.37233 -0.16434
 H56 H 0.80448 0.35029 -0.14170
 H57 H 0.84424 0.31008 -0.13968
 C58 C 0.84627 0.85033 0.32260
 C59 C 0.86299 0.84417 0.31825
 C60 C 0.87091 0.83062 0.32765
 C61 C 0.86207 0.82338 0.34189
 C62 C 0.84532 0.82962 0.34658
 C63 C 0.83736 0.84308 0.33678
 C64 C 0.83843 0.86375 0.31299
 C65 C 0.82164 0.87017 0.31721
 C66 C 0.81276 0.86281 0.33147
 C67 C 0.82059 0.84945 0.34129
 C68 C 0.81199 0.84256 0.35573
 C69 C 0.81981 0.82932 0.36570
 C70 C 0.83651 0.82285 0.36102
 H71 H 0.86982 0.84979 0.30731
 H72 H 0.86825 0.81318 0.34949
 H73 H 0.84551 0.86923 0.30212
 H74 H 0.79994 0.86740 0.33536
 H75 H 0.79916 0.84761 0.35933
 H76 H 0.84297 0.81297 0.36878
 C77 C 0.65840 0.65656 0.32859
 C78 C 0.64360 0.66411 0.32051
 C79 C 0.63516 0.67875 0.32778
 C80 C 0.64174 0.68572 0.34316
 C81 C 0.65647 0.67843 0.35128
 C82 C 0.66483 0.66380 0.34403
 C83 C 0.66695 0.64197 0.32146
 C84 C 0.68180 0.63455 0.32965
 C85 C 0.68792 0.64188 0.34505
 C86 C 0.67966 0.65645 0.35223
 C87 C 0.68612 0.66381 0.36746
 C88 C 0.67800 0.67863 0.37458
 C89 C 0.66305 0.68569 0.36649
 H90 H 0.63890 0.65857 0.30861
 H91 H 0.63540 0.69702 0.34882
 H92 H 0.66189 0.63653 0.30966
 H93 H 0.69934 0.63628 0.35141
 H94 H 0.69733 0.65779 0.37371
 H95 H 0.65664 0.69704 0.37196
 C96 C 0.65339 0.15948 -0.17748
 C97 C 0.63701 0.16625 -0.18291
 C98 C 0.62950 0.18074 -0.17452
 C99 C 0.63839 0.18827 -0.16068
 C100 C 0.65473 0.18188 -0.15536
 C101 C 0.66231 0.16743 -0.16370
 C102 C 0.66096 0.14492 -0.18555
 C103 C 0.67736 0.13810 -0.18016
 C104 C 0.68624 0.14649 -0.16651
 C105 C 0.67882 0.16102 -0.15826
 C106 C 0.68767 0.16930 -0.14465
 C107 C 0.68006 0.18380 -0.13635
 C108 C 0.66360 0.18990 -0.14184
 H109 H 0.63012 0.16007 -0.19340
 H110 H 0.63266 0.19942 -0.15418
 H111 H 0.65396 0.13882 -0.19607
 H112 H 0.69891 0.14201 -0.16203
 H113 H 0.70049 0.16451 -0.14079
 H114 H 0.65764 0.20106 -0.13555
 C115 C 0.15500 0.65121 -0.17505
 C116 C 0.14037 0.66010 -0.18188
 C117 C 0.13442 0.67578 -0.17446
 C118 C 0.14358 0.68266 -0.16035
 C119 C 0.15824 0.67396 -0.15339
 C120 C 0.16392 0.65816 -0.16074
 C121 C 0.16076 0.63539 -0.18222
 C122 C 0.17532 0.62634 -0.17516
 C123 C 0.18398 0.63345 -0.16085
 C124 C 0.17846 0.64922 -0.15368
 C125 C 0.18724 0.65608 -0.13943
 C126 C 0.18175 0.67180 -0.13199
 C127 C 0.16715 0.68071 -0.13906
 H128 H 0.13387 0.65477 -0.19303
 H129 H 0.13914 0.69476 -0.15462
 H130 H 0.15356 0.63020 -0.19302
 H131 H 0.19516 0.62667 -0.15522
 H132 H 0.19841 0.64910 -0.13403
 H133 H 0.16235 0.69264 -0.13338
 C134 C 0.15518 0.15179 0.32210
 C135 C 0.14015 0.15984 0.31522
 C136 C 0.13163 0.17586 0.32349
 C137 C 0.14120 0.18160 0.33943
 C138 C 0.15614 0.17302 0.34573
 C139 C 0.16309 0.15831 0.33719
 C140 C 0.16249 0.13713 0.31386
 C141 C 0.17766 0.12878 0.32047
 C142 C 0.18541 0.13550 0.33545
 C143 C 0.17831 0.15005 0.34381
 C144 C 0.18634 0.15643 0.35875
 C145 C 0.17939 0.17089 0.36741
 C146 C 0.16435 0.17921 0.36071
 H147 H 0.13427 0.15466 0.30363
 H148 H 0.13611 0.19288 0.34618
 H149 H 0.15628 0.13255 0.30223
 H150 H 0.19713 0.12934 0.34072
 H151 H 0.19803 0.15002 0.36376
 H152 H 0.15912 0.19074 0.36685
 C153 C 0.65125 0.34610 0.67885
 C154 C 0.63632 0.33737 0.68490
 C155 C 0.63009 0.32250 0.67636
 C156 C 0.63925 0.31622 0.66196
 C157 C 0.65416 0.32479 0.65576
 C158 C 0.66019 0.33981 0.66420
 C159 C 0.65737 0.36102 0.68723
 C160 C 0.67221 0.36988 0.68111
 C161 C 0.68124 0.36332 0.66662
 C162 C 0.67526 0.34842 0.65809
 C163 C 0.68410 0.34199 0.64353
 C164 C 0.67796 0.32723 0.63485
 C165 C 0.66311 0.31855 0.64124
 H166 H 0.62988 0.34210 0.69641
 H167 H 0.63462 0.30468 0.65543
 H168 H 0.65046 0.36586 0.69847
 H169 H 0.69307 0.36949 0.66201
 H170 H 0.69567 0.34861 0.63877
 H171 H 0.65859 0.30675 0.63519
 C172 C 0.65277 0.84905 1.17534
 C173 C 0.63811 0.84257 1.18412
 C174 C 0.62954 0.82750 1.17846
 C175 C 0.63602 0.81894 1.16367
 C176 C 0.65060 0.82541 1.15470
 C177 C 0.65907 0.84047 1.16055
 C178 C 0.66117 0.86403 1.18116
 C179 C 0.67609 0.87045 1.17260
 C180 C 0.68218 0.86197 1.15770
 C181 C 0.67380 0.84697 1.15161
 C182 C 0.67988 0.83835 1.13677
 C183 C 0.67135 0.82331 1.13078
 C184 C 0.65680 0.81698 1.13993
 H185 H 0.63337 0.84932 1.19548
 H186 H 0.63009 0.80718 1.15896
 H187 H 0.65578 0.87078 1.19219
 H188 H 0.69353 0.86699 1.15092
 H189 H 0.69119 0.84346 1.13009
 H190 H 0.65020 0.80539 1.13547
 C191 C 0.15559 0.34195 1.17294
 C192 C 0.14034 0.33636 1.18142
 C193 C 0.13143 0.32130 1.17613
 C194 C 0.13821 0.31179 1.16201
 C195 C 0.15341 0.31728 1.15335
 C196 C 0.16213 0.33239 1.15884
 C197 C 0.16436 0.35698 1.17836
 C198 C 0.17974 0.36252 1.16991
 C199 C 0.18607 0.35294 1.15581
 C200 C 0.17743 0.33793 1.15024
 C201 C 0.18391 0.32837 1.13622
 C202 C 0.17514 0.31342 1.13042
 C203 C 0.16003 0.30788 1.13923
 H204 H 0.13541 0.34383 1.19225
 H205 H 0.13200 0.30004 1.15763
 H206 H 0.15893 0.36441 1.18892
 H207 H 0.19783 0.35719 1.14917
 H208 H 0.19596 0.33254 1.13015
 H209 H 0.15332 0.29628 1.13497
 C210 C 0.15461 0.83978 0.67346
 C211 C 0.13994 0.83242 0.68170
 C212 C 0.13205 0.81722 0.67513
 C213 C 0.13932 0.80946 0.66029
 C214 C 0.15394 0.81662 0.65198
 C215 C 0.16152 0.83189 0.65849
 C216 C 0.16237 0.85505 0.67978
 C217 C 0.17671 0.86255 0.67108
 C218 C 0.18320 0.85476 0.65609
 C219 C 0.17589 0.83942 0.64986
 C220 C 0.18276 0.83158 0.63505
 C221 C 0.17564 0.81605 0.62876
 C222 C 0.16105 0.80880 0.63717
 H223 H 0.13470 0.83886 0.69295
 H224 H 0.13351 0.79778 0.65506
 H225 H 0.15698 0.86125 0.69114
 H226 H 0.19421 0.86058 0.64937
 H227 H 0.19346 0.83787 0.62836
 H228 H 0.15530 0.79697 0.63222
 C229 C 0.34059 0.64866 0.68159
 C230 C 0.35575 0.65518 0.68931
 C231 C 0.36437 0.66974 0.68242
 C232 C 0.35761 0.67778 0.66737
 C233 C 0.34236 0.67137 0.65941
 C234 C 0.33383 0.65679 0.66664
 C235 C 0.33207 0.63410 0.68862
 C236 C 0.31684 0.62756 0.68080
 C237 C 0.31009 0.63585 0.66608
 C238 C 0.31854 0.65026 0.65888
 C239 C 0.31193 0.65809 0.64393
 C240 C 0.32026 0.67246 0.63644
 C241 C 0.33551 0.67915 0.64428
 H242 H 0.36087 0.64890 0.70084
 H243 H 0.36418 0.68882 0.66165
 H244 H 0.33719 0.62813 0.70027
 H245 H 0.29831 0.63088 0.66005
 H246 H 0.30019 0.65289 0.63803
 H247 H 0.34225 0.69013 0.63865
 C248 C 0.35067 0.14990 1.18239
 C249 C 0.36574 0.15646 1.19034
 C250 C 0.37455 0.17095 1.18348
 C251 C 0.36784 0.17889 1.16838
 C252 C 0.35274 0.17242 1.16034
 C253 C 0.34410 0.15787 1.16733
 C254 C 0.34209 0.13550 1.18941
 C255 C 0.32696 0.12869 1.18164
 C256 C 0.32033 0.13683 1.16654
 C257 C 0.32883 0.15140 1.15935
 C258 C 0.32227 0.15968 1.14440
 C259 C 0.33091 0.17427 1.13734
 C260 C 0.34610 0.18044 1.14546
 H261 H 0.37063 0.15021 1.20199
 H262 H 0.37394 0.19025 1.16284
 H263 H 0.34733 0.12950 1.20104
 H264 H 0.30857 0.13218 1.16035
 H265 H 0.31045 0.15478 1.13851
 H266 H 0.35280 0.19167 1.14017
 C267 C 0.84305 0.65884 1.17153
 C268 C 0.85735 0.66542 1.18069
 C269 C 0.86602 0.68040 1.17507
 C270 C 0.86006 0.68903 1.16011
 C271 C 0.84568 0.68262 1.15076
 C272 C 0.83709 0.66742 1.15647
 C273 C 0.83470 0.64373 1.17735
 C274 C 0.82015 0.63691 1.16846
 C275 C 0.81442 0.64547 1.15338
 C276 C 0.82267 0.66065 1.14739
 C277 C 0.81646 0.66895 1.13249
 C278 C 0.82464 0.68530 1.12545
 C279 C 0.83994 0.69139 1.13591
 H280 H 0.86186 0.65876 1.19226
 H281 H 0.86630 0.70088 1.15583
 H282 H 0.84002 0.63739 1.18867
 H283 H 0.80330 0.64040 1.14630
 H284 H 0.80540 0.66348 1.12568
 H285 H 0.84660 0.70307 1.13170
 C286 C 0.84754 0.15848 0.67240
 C287 C 0.86313 0.16505 0.67955
 C288 C 0.87132 0.17966 0.67213
 C289 C 0.86389 0.18748 0.65746
 C290 C 0.84838 0.18118 0.65030
 C291 C 0.84009 0.16666 0.65776
 C292 C 0.83941 0.14375 0.67951
 C293 C 0.82383 0.13718 0.67226
 C294 C 0.81655 0.14550 0.65769
 C295 C 0.82449 0.16023 0.65041
 C296 C 0.81721 0.16855 0.63582
 C297 C 0.82547 0.18317 0.62846
 C298 C 0.84109 0.18923 0.63573
 H299 H 0.86888 0.15860 0.69065
 H300 H 0.87018 0.19869 0.65165
 H301 H 0.84556 0.13727 0.69038
 H302 H 0.80464 0.14045 0.65199
 H303 H 0.80541 0.16337 0.63010
 H304 H 0.84756 0.20041 0.63006
 C305 C 0.33924 0.34408 0.67436
 C306 C 0.33140 0.35875 0.68196
 C307 C 0.31559 0.36568 0.67536
 C308 C 0.30758 0.35758 0.66126
 C309 C 0.31530 0.34299 0.65351
 C310 C 0.33122 0.33621 0.66002
 C311 C 0.35498 0.33718 0.68092
 C312 C 0.36278 0.32236 0.67345
 C313 C 0.35484 0.31478 0.65897
 C314 C 0.33910 0.32157 0.65220
 C315 C 0.33106 0.31393 0.63780
 C316 C 0.31519 0.32077 0.63122
 C317 C 0.30735 0.33516 0.63930
 H318 H 0.33756 0.36443 0.69312
 H319 H 0.29534 0.36279 0.65618
 H320 H 0.36117 0.34364 0.69164
 H321 H 0.36087 0.30346 0.65305
 H322 H 0.33703 0.30254 0.63204
 H323 H 0.29509 0.34042 0.63433
 C324 C 0.34599 0.84336 0.17327
 C325 C 0.33669 0.85778 0.17990
 C326 C 0.32208 0.86481 0.17093
 C327 C 0.31690 0.85716 0.15535
 C328 C 0.32589 0.84278 0.14866
 C329 C 0.34052 0.83590 0.15755
 C330 C 0.36054 0.83610 0.18210
 C331 C 0.36961 0.82159 0.17526
 C332 C 0.36405 0.81454 0.15955
 C333 C 0.34961 0.82146 0.15073
 C334 C 0.34398 0.81391 0.13531
 C335 C 0.32915 0.82040 0.12665
 C336 C 0.32031 0.83506 0.13325
 H337 H 0.34084 0.86330 0.19202
 H338 H 0.30565 0.86239 0.14840
 H339 H 0.36456 0.84169 0.19423
 H340 H 0.37089 0.80336 0.15422
 H341 H 0.35091 0.80268 0.13020
 H342 H 0.30921 0.84063 0.12641
 C343 C 0.84454 0.34943 0.17199
 C344 C 0.83759 0.36417 0.18031
 C345 C 0.82327 0.37341 0.17311
 C346 C 0.81602 0.36768 0.15751
 C347 C 0.82275 0.35300 0.14912
 C348 C 0.83705 0.34381 0.15636
 C349 C 0.85890 0.34026 0.17903
 C350 C 0.86598 0.32557 0.17059
 C351 C 0.85830 0.32010 0.15506
 C352 C 0.84390 0.32905 0.14791
 C353 C 0.83629 0.32350 0.13240
 C354 C 0.82185 0.33256 0.12524
 C355 C 0.81533 0.34739 0.13360
 H356 H 0.84349 0.36832 0.19225
 H357 H 0.80498 0.37468 0.15187
 H358 H 0.86439 0.34476 0.19103
 H359 H 0.86357 0.30879 0.14848
 H360 H 0.84187 0.31237 0.12582
 H361 H 0.80431 0.35449 0.12807
 C362 C 0.84978 0.85172 0.67647
 C363 C 0.84114 0.86629 0.68348
 C364 C 0.82539 0.87268 0.67610
 C365 C 0.81841 0.86429 0.66158
 C366 C 0.82685 0.84974 0.65440
 C367 C 0.84264 0.84354 0.66181
 C368 C 0.86557 0.84530 0.68371
 C369 C 0.87430 0.83096 0.67624
 C370 C 0.86715 0.82314 0.66160
 C371 C 0.85139 0.82919 0.65446
 C372 C 0.84433 0.82102 0.64001
 C373 C 0.82855 0.82687 0.63261
 C374 C 0.81981 0.84133 0.63988
 H375 H 0.84702 0.87280 0.69435
 H376 H 0.80635 0.86917 0.65582
 H377 H 0.87114 0.85165 0.69484
 H378 H 0.87383 0.81210 0.65581
 H379 H 0.85118 0.80992 0.63451
 H380 H 0.80758 0.84606 0.63447
 C381 C 0.65281 0.66328 0.67282
 C382 C 0.65948 0.64816 0.68076
 C383 C 0.67341 0.63872 0.67329
 C384 C 0.68051 0.64450 0.65750
 C385 C 0.67405 0.65965 0.64948
 C386 C 0.66018 0.66909 0.65717
 C387 C 0.63885 0.67265 0.68027
 C388 C 0.63209 0.68772 0.67216
 C389 C 0.63971 0.69354 0.65672
 C390 C 0.65362 0.68431 0.64913
 C391 C 0.66097 0.69001 0.63354
 C392 C 0.67494 0.68077 0.62590
 C393 C 0.68124 0.66550 0.63385
 H394 H 0.65384 0.64371 0.69283
 H395 H 0.69083 0.63720 0.65118
 H396 H 0.63354 0.66829 0.69249
 H397 H 0.63463 0.70520 0.65050
 H398 H 0.65547 0.70144 0.62730
 H399 H 0.69192 0.65826 0.62793
 C400 C 0.65709 0.15552 0.16709
 C401 C 0.66289 0.13952 0.17404
 C402 C 0.67745 0.13076 0.16682
 C403 C 0.68598 0.13810 0.15256
 C404 C 0.68038 0.15399 0.14559
 C405 C 0.66594 0.16282 0.15284
 C406 C 0.64260 0.16430 0.17419
 C407 C 0.63694 0.18046 0.16739
 C408 C 0.64589 0.18758 0.15314
 C409 C 0.66036 0.17891 0.14581
 C410 C 0.66940 0.18605 0.13161
 C411 C 0.68389 0.17714 0.12436
 C412 C 0.68917 0.16115 0.13148
 H413 H 0.65600 0.13412 0.18498
 H414 H 0.69720 0.13146 0.14692
 H415 H 0.63572 0.15825 0.18479
 H416 H 0.64156 0.19994 0.14777
 H417 H 0.66511 0.19845 0.12642
 H418 H 0.70031 0.15421 0.12603
 C419 C 0.15070 0.64797 0.17920
 C420 C 0.15952 0.63358 0.18620
 C421 C 0.17534 0.62752 0.17904
 C422 C 0.18237 0.63612 0.16449
 C423 C 0.17357 0.65060 0.15722
 C424 C 0.15769 0.65652 0.16467
 C425 C 0.13509 0.65405 0.18670
 C426 C 0.12636 0.66873 0.18001
 C427 C 0.13317 0.67704 0.16528
 C428 C 0.14880 0.67107 0.15768
 C429 C 0.15570 0.67956 0.14326
 C430 C 0.17147 0.67394 0.13567
 C431 C 0.18043 0.65941 0.14276
 H432 H 0.15407 0.62711 0.19743
 H433 H 0.19468 0.63182 0.15893
 H434 H 0.12985 0.64751 0.19799
 H435 H 0.12636 0.68803 0.15954
 H436 H 0.14878 0.69076 0.13796
 H437 H 0.19271 0.65494 0.13728
 C438 C 0.14979 0.14970 0.67571
 C439 C 0.15562 0.13430 0.68351
 C440 C 0.17051 0.12556 0.67735
 C441 C 0.17945 0.13217 0.66287
 C442 C 0.17349 0.14751 0.65467
 C443 C 0.15865 0.15638 0.66122
 C444 C 0.13529 0.15857 0.68238
 C445 C 0.12940 0.17420 0.67494
 C446 C 0.13805 0.18080 0.66025
 C447 C 0.15264 0.17189 0.65330
 C448 C 0.16133 0.17827 0.63864
 C449 C 0.17609 0.16942 0.63186
 C450 C 0.18205 0.15408 0.64004
 H451 H 0.14872 0.12920 0.69467
 H452 H 0.19076 0.12528 0.65777
 H453 H 0.12868 0.15339 0.69366
 H454 H 0.13372 0.19285 0.65431
 H455 H 0.15629 0.18995 0.63256
 H456 H 0.19340 0.14721 0.63496
 C457 C 0.34150 0.64745 0.32096
 C458 C 0.33188 0.63308 0.31539
 C459 C 0.31748 0.62699 0.32502
 C460 C 0.31238 0.63593 0.34002
 C461 C 0.32182 0.65046 0.34572
 C462 C 0.33650 0.65614 0.33618
 C463 C 0.35614 0.65319 0.31158
 C464 C 0.36607 0.66727 0.31742
 C465 C 0.36083 0.67608 0.33242
 C466 C 0.34619 0.67056 0.34183
 C467 C 0.34117 0.67926 0.35685
 C468 C 0.32660 0.67383 0.36648
 C469 C 0.31694 0.65932 0.36084
 H470 H 0.33557 0.62688 0.30342
 H471 H 0.30116 0.63143 0.34736
 H472 H 0.36003 0.64649 0.29990
 H473 H 0.36791 0.68743 0.33669
 H474 H 0.34869 0.69037 0.36110
 H475 H 0.30584 0.65467 0.36818
 C476 C 0.34591 0.15087 0.81987
 C477 C 0.33944 0.13648 0.81112
 C478 C 0.32327 0.12728 0.81665
 C479 C 0.31488 0.13503 0.83256
 C480 C 0.32201 0.14943 0.84096
 C481 C 0.33733 0.15741 0.83462
 C482 C 0.36119 0.15880 0.81387
 C483 C 0.36807 0.17337 0.82208
 C484 C 0.35962 0.17999 0.83682
 C485 C 0.34432 0.17202 0.84323
 C486 C 0.33605 0.17828 0.85822
 C487 C 0.32081 0.17022 0.86470
 C488 C 0.31394 0.15589 0.85590
 H489 H 0.34627 0.13166 0.79982
 H490 H 0.30308 0.12906 0.83758
 H491 H 0.36775 0.15367 0.80253
 H492 H 0.36507 0.19103 0.84352
 H493 H 0.34182 0.18915 0.86487
 H494 H 0.30223 0.14962 0.86080
 C495 C 0.84367 0.65451 0.82530
 C496 C 0.83536 0.64022 0.81755
 C497 C 0.81961 0.63357 0.82448
 C498 C 0.81227 0.64137 0.83916
 C499 C 0.82026 0.65564 0.84694
 C500 C 0.83605 0.66219 0.84007
 C501 C 0.85955 0.66115 0.81871
 C502 C 0.86786 0.67525 0.82686
 C503 C 0.86012 0.68261 0.84157
 C504 C 0.84430 0.67630 0.84815
 C505 C 0.83665 0.68390 0.86275
 C506 C 0.82077 0.67769 0.86948
 C507 C 0.81272 0.66337 0.86157
 H508 H 0.84142 0.63413 0.80647
 H509 H 0.80019 0.63630 0.84454
 H510 H 0.86550 0.65511 0.80754
 H511 H 0.86644 0.69345 0.84790
 H512 H 0.84304 0.69483 0.86886
 H513 H 0.80077 0.65797 0.86677
 C514 C 0.83962 0.15245 0.32792
 C515 C 0.83153 0.13746 0.32139
 C516 C 0.81689 0.13023 0.32985
 C517 C 0.81067 0.13803 0.34498
 C518 C 0.81856 0.15296 0.35152
 C519 C 0.83304 0.16032 0.34300
 C520 C 0.85417 0.15968 0.31959
 C521 C 0.86229 0.17473 0.32595
 C522 C 0.85551 0.18263 0.34098
 C523 C 0.84090 0.17551 0.34955
 C524 C 0.83398 0.18327 0.36458
 C525 C 0.81944 0.17584 0.37306
 C526 C 0.81199 0.16066 0.36646
 H527 H 0.83678 0.13157 0.30984
 H528 H 0.79945 0.13254 0.35161
 H529 H 0.85921 0.15357 0.30801
 H530 H 0.86144 0.19421 0.34615
 H531 H 0.84005 0.19485 0.36964
 H532 H 0.80079 0.15489 0.37291
 C533 C 0.65454 0.35322 0.32162
 C534 C 0.66093 0.36802 0.31321
 C535 C 0.67546 0.37691 0.31969
 C536 C 0.68341 0.37108 0.33509
 C537 C 0.67704 0.35632 0.34373
 C538 C 0.66260 0.34726 0.33691
 C539 C 0.64020 0.34432 0.31490
 C540 C 0.63368 0.32940 0.32309
 C541 C 0.64169 0.32346 0.33846
 C542 C 0.65612 0.33235 0.34543
 C543 C 0.66414 0.32668 0.36081
 C544 C 0.67858 0.33569 0.36770
 C545 C 0.68482 0.35053 0.35911
 H546 H 0.65469 0.37256 0.30142
 H547 H 0.69430 0.37814 0.34057
 H548 H 0.63413 0.34900 0.30308
 H549 H 0.63682 0.31206 0.34508
 H550 H 0.65881 0.31552 0.36751
 H551 H 0.69588 0.35753 0.36439
 C552 C 0.65240 0.85158 0.81480
 C553 C 0.65969 0.86623 0.80666
 C554 C 0.67469 0.87424 0.81344
 C555 C 0.68269 0.86708 0.82825
 C556 C 0.67551 0.85253 0.83654
 C557 C 0.66031 0.84472 0.82983
 C558 C 0.63723 0.84379 0.80825
 C559 C 0.62978 0.82922 0.81642
 C560 C 0.63774 0.82250 0.83150
 C561 C 0.65298 0.83014 0.83822
 C562 C 0.66091 0.82356 0.85333
 C563 C 0.67616 0.83134 0.86004
 C564 C 0.68329 0.84579 0.85152
 H565 H 0.65358 0.87156 0.79514
 H566 H 0.69466 0.87256 0.83330
 H567 H 0.63115 0.84910 0.79669
 H568 H 0.63207 0.81157 0.83826
 H569 H 0.65493 0.81268 0.85991
 H570 H 0.69497 0.85187 0.85665
 C571 C 0.15637 0.34052 0.82970
 C572 C 0.16432 0.35498 0.82191
 C573 C 0.17934 0.36249 0.82927
 C574 C 0.18658 0.35514 0.84431
 C575 C 0.17881 0.34071 0.85226
 C576 C 0.16359 0.33342 0.84498
 C577 C 0.14137 0.33298 0.82240
 C578 C 0.13335 0.31853 0.83033
 C579 C 0.14060 0.31172 0.84562
 C580 C 0.15564 0.31899 0.85294
 C581 C 0.16292 0.31194 0.86805
 C582 C 0.17819 0.31894 0.87531
 C583 C 0.18601 0.33347 0.86737
 H584 H 0.15890 0.36010 0.81001
 H585 H 0.19824 0.36079 0.84994
 H586 H 0.13621 0.33843 0.81056
 H587 H 0.13457 0.30058 0.85180
 H588 H 0.15678 0.30078 0.87411
 H589 H 0.19751 0.33940 0.87293
 C590 C 0.15862 0.84493 0.32659
 C591 C 0.16764 0.85933 0.31995
 C592 C 0.18307 0.86530 0.32794
 C593 C 0.18967 0.85627 0.34238
 C594 C 0.18079 0.84180 0.34916
 C595 C 0.16517 0.83616 0.34127
 C596 C 0.14314 0.83916 0.31875
 C597 C 0.13407 0.82473 0.32532
 C598 C 0.14061 0.81614 0.34009
 C599 C 0.15613 0.82171 0.34802
 C600 C 0.16270 0.81305 0.36264
 C601 C 0.17819 0.81858 0.37068
 C602 C 0.18728 0.83292 0.36373
 H603 H 0.16267 0.86556 0.30839
 H604 H 0.20165 0.86065 0.34847
 H605 H 0.13811 0.84591 0.30744
 H606 H 0.13360 0.80533 0.34573
 H607 H 0.15571 0.80196 0.36783
 H608 H 0.19951 0.83715 0.36931
 O609 O 0.26624 0.98221 0.24401
 O610 O 0.23620 1.01607 0.25982
 O611 O 0.23831 0.98211 0.26345
 O612 O 0.26223 1.01568 0.23826
 O613 O 0.24500 1.01059 0.21598
 O614 O 0.22050 0.97867 0.24127
 O615 O 0.21878 1.01230 0.23742
 O616 O 0.24857 0.97719 0.22206
 Cu617 Cu 0.25250 0.99942 0.25359
 Cu618 Cu 0.23151 0.99422 0.22697
 C619 C 0.26251 0.97376 0.23054
 C620 C 0.22259 1.02024 0.25127
 C621 C 0.22519 0.97475 0.25647
 C622 C 0.25748 1.01888 0.22281
 O623 O 0.25333 0.51226 0.73188
 O624 O 0.22314 0.47801 0.74672
 O625 O 0.22220 0.51201 0.74560
 O626 O 0.25368 0.47853 0.73184
 O627 O 0.26633 0.47869 0.75746
 O628 O 0.23474 0.51248 0.77126
 O629 O 0.23578 0.47858 0.77233
 O630 O 0.26587 0.51257 0.75756
 Cu631 Cu 0.23680 0.49517 0.73644
 Cu632 Cu 0.25190 0.49562 0.76726
 C633 C 0.26473 0.51823 0.74221
 C634 C 0.22448 0.47236 0.76209
 C635 C 0.22319 0.51807 0.76072
 C636 C 0.26532 0.47287 0.74220
 O637 O 0.73426 -0.01653 0.23461
 O638 O 0.76274 0.01777 0.25073
 O639 O 0.76047 -0.01589 0.25566
 O640 O 0.73395 0.01728 0.23255
 O641 O 0.71658 0.01949 0.25527
 O642 O 0.74389 -0.01187 0.27871
 O643 O 0.74541 0.02144 0.27329
 O644 O 0.71743 -0.01438 0.25771
 Cu645 Cu 0.74959 0.00044 0.24112
 Cu646 Cu 0.72912 0.00400 0.26851
 C647 C 0.72124 -0.02159 0.24343
 C648 C 0.75896 0.02556 0.26459
 C649 C 0.75649 -0.01952 0.27120
 C650 C 0.72064 0.02392 0.24006
 O651 O 0.74982 0.49036 0.76347
 O652 O 0.73325 0.52380 0.73367
 O653 O 0.73051 0.48978 0.73570
 O654 O 0.75513 0.52379 0.75933
 O655 O 0.77826 0.51836 0.74296
 O656 O 0.75319 0.48683 0.71817
 O657 O 0.75663 0.52049 0.71713
 O658 O 0.77222 0.48518 0.74610
 Cu659 Cu 0.73988 0.50733 0.74973
 Cu660 Cu 0.76733 0.50225 0.72941
 C661 C 0.76364 0.48189 0.75982
 C662 C 0.74222 0.52820 0.72060
 C663 C 0.73783 0.48264 0.72273
 C664 C 0.77098 0.52678 0.75503
 O665 O 0.27669 0.50692 0.24746
 O666 O 0.24805 0.47404 0.22756
 O667 O 0.25445 0.50712 0.22192
 O668 O 0.27111 0.47380 0.25225
 O669 O 0.24999 0.48047 0.27064
 O670 O 0.23365 0.51409 0.24053
 O671 O 0.22695 0.48111 0.24582
 O672 O 0.25562 0.51352 0.26594
 Cu673 Cu 0.26466 0.48979 0.23542
 Cu674 Cu 0.23940 0.49794 0.25753
 C675 C 0.27099 0.51585 0.26005
 C676 C 0.23264 0.47189 0.23347
 C677 C 0.24141 0.51651 0.22621
 C678 C 0.26337 0.47140 0.26656
 O679 O 0.74497 0.98936 0.76469
 O680 O 0.76970 1.02319 0.74115
 O681 O 0.76949 0.98876 0.74137
 O682 O 0.74555 1.02357 0.76492
 O683 O 0.76585 1.02255 0.78524
 O684 O 0.79002 0.98878 0.76148
 O685 O 0.78994 1.02272 0.76153
 O686 O 0.76555 0.98872 0.78474
 Cu687 Cu 0.75541 1.00628 0.75096
 Cu688 Cu 0.77987 1.00565 0.77523
 C689 C 0.75119 0.98316 0.77865
 C690 C 0.78390 1.02891 0.74751
 C691 C 0.78377 0.98274 0.74761
 C692 C 0.75175 1.02897 0.77913
 O693 O 0.75366 0.52550 0.27218
 O694 O 0.78316 0.49039 0.25687
 O695 O 0.78159 0.52408 0.25286
 O696 O 0.75666 0.49221 0.27774
 O697 O 0.73959 0.48743 0.25525
 O698 O 0.76382 0.52092 0.23060
 O699 O 0.76594 0.48703 0.23425
 O700 O 0.73601 0.52093 0.25010
 Cu701 Cu 0.77052 0.50851 0.26712
 Cu702 Cu 0.74960 0.50370 0.24028
 C703 C 0.73976 0.52911 0.26373
 C704 C 0.77937 0.48259 0.24296
 C705 C 0.77688 0.52820 0.23770
 C706 C 0.74416 0.48412 0.27072
 O707 O 0.24204 -0.02513 0.73031
 O708 O 0.26533 0.01047 0.75281
 O709 O 0.26884 -0.02295 0.75174
 O710 O 0.24550 0.00891 0.72576
 O711 O 0.22498 0.01143 0.74576
 O712 O 0.24693 -0.02422 0.77040
 O713 O 0.24523 0.00915 0.77333
 O714 O 0.22059 -0.02274 0.74934
 Cu715 Cu 0.25718 -0.00744 0.73823
 Cu716 Cu 0.23231 -0.00631 0.76131
 C717 C 0.22717 -0.02988 0.73619
 C718 C 0.25912 0.01561 0.76723
 C719 C 0.26197 -0.02939 0.76513
 C720 C 0.23171 0.01611 0.73140
 O721 O 0.26631 0.27001 0.98663
 O722 O 0.28156 0.24029 1.02130
 O723 O 0.28681 0.24282 0.98801
 O724 O 0.26302 0.26876 1.01996
 O725 O 0.23971 0.25207 1.01735
 O726 O 0.26311 0.22719 0.98322
 O727 O 0.25861 0.22355 1.01678
 O728 O 0.24247 0.25413 0.98379
 Cu729 Cu 0.27679 0.25702 1.00435
 Cu730 Cu 0.24866 0.23755 0.99996
 C731 C 0.25168 0.26709 0.97935
 C732 C 0.27258 0.22688 1.02496
 C733 C 0.27898 0.23099 0.97978
 C734 C 0.24751 0.26484 1.02430
 O735 O 0.24239 0.75818 0.51882
 O736 O 0.25878 0.72865 0.48584
 O737 O 0.26422 0.73228 0.51912
 O738 O 0.24030 0.75734 0.48528
 O739 O 0.26332 0.77448 0.48286
 O740 O 0.28774 0.74818 0.51413
 O741 O 0.28154 0.74564 0.48108
 O742 O 0.26602 0.77446 0.51634
 Cu743 Cu 0.24917 0.74241 0.50258
 Cu744 Cu 0.27696 0.76231 0.49821
 C745 C 0.25138 0.77110 0.52353
 C746 C 0.27262 0.73216 0.47756
 C747 C 0.28011 0.73617 0.52238
 C748 C 0.24788 0.77041 0.47851
 O749 O 0.26131 0.75576 -0.01497
 O750 O 0.24494 0.72581 0.01796
 O751 O 0.24060 0.72931 -0.01554
 O752 O 0.26278 0.75468 0.01854
 O753 O 0.23920 0.77151 0.02038
 O754 O 0.21652 0.74493 -0.01130
 O755 O 0.22166 0.74264 0.02195
 O756 O 0.23716 0.77172 -0.01302
 Cu757 Cu 0.25474 0.73969 0.00127
 Cu758 Cu 0.22624 0.75927 0.00481
 C759 C 0.25206 0.76864 -0.01986
 C760 C 0.23078 0.72922 0.02585
 C761 C 0.22471 0.73303 -0.01923
 C762 C 0.25468 0.76765 0.02503
 O763 O 0.26854 0.24114 0.48276
 O764 O 0.23939 0.22538 0.51728
 O765 O 0.23878 0.22488 0.48350
 O766 O 0.26928 0.24128 0.51637
 O767 O 0.25518 0.26649 0.51624
 O768 O 0.22472 0.25011 0.48327
 O769 O 0.22522 0.25056 0.51703
 O770 O 0.25450 0.26638 0.48260
 Cu771 Cu 0.25537 0.23062 0.49997
 Cu772 Cu 0.23847 0.26091 0.49978
 C773 C 0.26644 0.25641 0.47675
 C774 C 0.22748 0.23537 0.52318
 C775 C 0.22670 0.23475 0.47763
 C776 C 0.26735 0.25664 0.52199
 O777 O 0.71740 0.75716 1.01414
 O778 O 0.73219 0.72757 0.97950
 O779 O 0.73583 0.72862 1.01278
 O780 O 0.71156 0.75464 0.98102
 O781 O 0.73515 0.77038 0.97586
 O782 O 0.75900 0.74549 1.00976
 O783 O 0.75594 0.74354 0.97624
 O784 O 0.74026 0.77395 1.00916
 Cu785 Cu 0.72189 0.74042 0.99728
 Cu786 Cu 0.74991 0.76000 0.99236
 C787 C 0.72641 0.77058 1.01755
 C788 C 0.74671 0.73058 0.97201
 C789 C 0.75135 0.73268 1.01693
 C790 C 0.71924 0.76657 0.97267
 O791 O 0.76162 0.25012 0.51871
 O792 O 0.73756 0.27458 0.48450
 O793 O 0.73567 0.27223 0.51822
 O794 O 0.76616 0.25582 0.48560
 O795 O 0.74860 0.23370 0.48056
 O796 O 0.71889 0.24917 0.51518
 O797 O 0.71979 0.25219 0.48173
 O798 O 0.74505 0.22730 0.51344
 Cu799 Cu 0.75196 0.26543 0.50215
 Cu800 Cu 0.73141 0.23836 0.49730
 C801 C 0.75726 0.23443 0.52182
 C802 C 0.72441 0.26737 0.47740
 C803 C 0.72235 0.26347 0.52259
 C804 C 0.76252 0.24220 0.47728
 O805 O 0.74329 0.24446 -0.02473
 O806 O 0.76591 0.26987 0.00916
 O807 O 0.76800 0.26755 -0.02453
 O808 O 0.73813 0.25054 0.00807
 O809 O 0.75655 0.22888 0.01364
 O810 O 0.78595 0.24513 -0.02096
 O811 O 0.78463 0.24801 0.01251
 O812 O 0.76101 0.22225 -0.01909
 Cu813 Cu 0.75206 0.26028 -0.00848
 Cu814 Cu 0.77381 0.23390 -0.00301
 C815 C 0.74846 0.22892 -0.02760
 C816 C 0.77926 0.26305 0.01655
 C817 C 0.78181 0.25925 -0.02865
 C818 C 0.74226 0.23709 0.01665
 O819 O 0.75818 0.73064 0.52033
 O820 O 0.78387 0.75382 0.48759
 O821 O 0.77775 0.75813 0.52055
 O822 O 0.76271 0.72748 0.48721
 O823 O 0.73976 0.74454 0.48233
 O824 O 0.75533 0.77554 0.51458
 O825 O 0.76095 0.77058 0.48157
 O826 O 0.73552 0.74810 0.51540
 Cu827 Cu 0.77294 0.74085 0.50448
 Cu828 Cu 0.74564 0.76146 0.49797
 C829 C 0.74257 0.73546 0.52357
 C830 C 0.77671 0.76581 0.47870
 C831 C 0.76898 0.77200 0.52330
 C832 C 0.74859 0.73088 0.47908
 O833 O 0.97680 0.25646 0.23105
 O834 O 1.00930 0.22577 0.24920
 O835 O 0.97617 0.23285 0.25498
 O836 O 1.00994 0.24949 0.22517
 O837 O 1.01756 0.26931 0.24420
 O838 O 0.98437 0.25283 0.27485
 O839 O 1.01733 0.24551 0.26813
 O840 O 0.98434 0.27606 0.25030
 Cu841 Cu 0.99234 0.23925 0.23825
 Cu842 Cu 1.00168 0.26284 0.26120
 C843 C 0.97486 0.27140 0.23771
 C844 C 1.01901 0.23046 0.26160
 C845 C 0.97362 0.23979 0.27063
 C846 C 1.01956 0.26212 0.22961
 O847 O 0.47697 0.26557 0.73717
 O848 O 0.51133 0.23614 0.75261
 O849 O 0.47767 0.23999 0.75899
 O850 O 0.51113 0.26467 0.73434
 O851 O 0.51392 0.28212 0.75670
 O852 O 0.48301 0.25634 0.78171
 O853 O 0.51640 0.25336 0.77473
 O854 O 0.47992 0.28219 0.76009
 Cu855 Cu 0.49391 0.24988 0.74357
 Cu856 Cu 0.49877 0.27017 0.77053
 C857 C 0.47227 0.27865 0.74595
 C858 C 0.51994 0.23974 0.76605
 C859 C 0.47469 0.24414 0.77462
 C860 C 0.51801 0.27785 0.74149
 O861 O 0.02244 0.25581 0.76809
 O862 O -0.01041 0.22599 0.75056
 O863 O 0.02203 0.23379 0.74296
 O864 O -0.01038 0.24922 0.77481
 O865 O -0.01860 0.26965 0.75632
 O866 O 0.01322 0.25397 0.72444
 O867 O -0.01919 0.24644 0.73232
 O868 O 0.01422 0.27620 0.74954
 Cu869 Cu 0.00680 0.23913 0.76093
 Cu870 Cu -0.00346 0.26361 0.73881
 C871 C 0.02409 0.27097 0.76176
 C872 C -0.02057 0.23119 0.73861
 C873 C 0.02325 0.24134 0.72838
 C874 C -0.02013 0.26210 0.77083
 O875 O 0.51956 0.24447 0.27805
 O876 O 0.48650 0.22748 0.24811
 O877 O 0.52013 0.22234 0.25274
 O878 O 0.48611 0.25029 0.27260
 O879 O 0.49245 0.27117 0.25400
 O880 O 0.52613 0.24323 0.23404
 O881 O 0.49257 0.24832 0.22938
 O882 O 0.52582 0.26521 0.25927
 Cu883 Cu 0.50247 0.23404 0.26474
 Cu884 Cu 0.50985 0.25910 0.24232
 C885 C 0.52845 0.25766 0.27367
 C886 C 0.48377 0.23505 0.23375
 C887 C 0.52898 0.22808 0.24006
 C888 C 0.48343 0.26548 0.26654
 O889 O 0.98353 0.75981 0.73402
 O890 O 1.01721 0.72797 0.74806
 O891 O 0.98288 0.72866 0.74730
 O892 O 1.01787 0.75844 0.73346
 O893 O 1.01824 0.77031 0.75931
 O894 O 0.98276 0.74071 0.77308
 O895 O 1.01716 0.73984 0.77392
 O896 O 0.98390 0.77186 0.75979
 Cu897 Cu 1.00034 0.74254 0.73813
 Cu898 Cu 1.00052 0.75685 0.76911
 C899 C 0.97791 0.77120 0.74456
 C900 C 1.02303 0.72861 0.76339
 C901 C 0.97672 0.72970 0.76246
 C902 C 1.02418 0.76930 0.74402
 O903 O 0.47994 0.75434 0.23433
 O904 O 0.51520 0.72426 0.24854
 O905 O 0.48186 0.72798 0.25521
 O906 O 0.51292 0.74943 0.22608
 O907 O 0.52027 0.76784 0.24657
 O908 O 0.48901 0.74699 0.27642
 O909 O 0.52221 0.74276 0.26903
 O910 O 0.48731 0.77284 0.25470
 Cu911 Cu 0.49681 0.73726 0.23903
 Cu912 Cu 0.50543 0.75941 0.26365
 C913 C 0.47754 0.76864 0.24218
 C914 C 0.52479 0.72850 0.26122
 C915 C 0.47926 0.73342 0.27138
 C916 C 0.52201 0.76208 0.23132
 O917 O 0.01713 0.74513 0.27698
 O918 O -0.01777 0.73050 0.24748
 O919 O 0.01641 0.72965 0.24736
 O920 O -0.01720 0.74520 0.27765
 O921 O -0.01704 0.77084 0.26472
 O922 O 0.01669 0.75528 0.23439
 O923 O -0.01742 0.75697 0.23424
 O924 O 0.01728 0.77077 0.26402
 Cu925 Cu -0.00039 0.73514 0.26365
 Cu926 Cu -0.00011 0.76599 0.24817
 C927 C 0.02330 0.76035 0.27536
 C928 C -0.02431 0.74102 0.23510
 C929 C 0.02237 0.73978 0.23582
 C930 C -0.02296 0.76065 0.27626
 O931 O 0.51366 0.74143 0.77787
 O932 O 0.47742 0.72550 0.75030
 O933 O 0.51129 0.72096 0.75138
 O934 O 0.47942 0.74360 0.77855
 O935 O 0.48062 0.76688 0.76179
 O936 O 0.51455 0.74452 0.73529
 O937 O 0.48036 0.74863 0.73356
 O938 O 0.51511 0.76511 0.76172
 Cu939 Cu 0.49521 0.73058 0.76617
 Cu940 Cu 0.49787 0.75863 0.74646
 C941 C 0.52061 0.75603 0.77435
 C942 C 0.47282 0.73442 0.73714
 C943 C 0.51860 0.72882 0.73896
 C944 C 0.47430 0.75885 0.77476
 C945 C 0.38478 0.30349 0.32227
 C946 C 0.39757 0.31001 0.31108
 C947 C 0.41299 0.29980 0.30506
 C948 C 0.42151 0.30512 0.28991
 C949 C 0.43604 0.29592 0.28364
 C950 C 0.44260 0.28126 0.29259
 C951 C 0.43413 0.27600 0.30781
 C952 C 0.41955 0.28519 0.31406
 C953 C 0.45773 0.27083 0.28620
 C954 C 0.46954 0.27671 0.27373
 H955 H 0.39618 0.32311 0.30608
 H956 H 0.41672 0.31631 0.28271
 H957 H 0.44177 0.30020 0.27161
 H958 H 0.43888 0.26477 0.31495
 H959 H 0.41371 0.28091 0.32603
 H960 H 0.45965 0.25792 0.29160
 H961 H 0.38623 0.29046 0.32741
 H962 H 0.46851 0.28980 0.26866
 C963 C 0.37902 0.81788 0.81601
 C964 C 0.38950 0.80326 0.81973
 C965 C 0.40515 0.79818 0.80947
 C966 C 0.41038 0.78066 0.80962
 C967 C 0.42511 0.77515 0.80038
 C968 C 0.43524 0.78714 0.79096
 C969 C 0.42994 0.80468 0.79064
 C970 C 0.41511 0.81021 0.79990
 C971 C 0.45096 0.78151 0.78108
 C972 C 0.46057 0.76665 0.78562
 H973 H 0.38563 0.79419 0.82965
 H974 H 0.40290 0.77110 0.81677
 H975 H 0.42827 0.76141 0.80042
 H976 H 0.43744 0.81415 0.78341
 H977 H 0.41174 0.82390 0.79976
 H978 H 0.45499 0.78914 0.77000
 H979 H 0.38262 0.82573 0.80495
 H980 H 0.45729 0.75965 0.79731
 C981 C -0.11345 0.32171 0.81190
 C982 C -0.10438 0.30688 0.81768
 C983 C -0.08968 0.29948 0.80758
 C984 C -0.07567 0.29109 0.81604
 C985 C -0.06135 0.28466 0.80663
 C986 C -0.06099 0.28638 0.78856
 C987 C -0.07524 0.29435 0.78014
 C988 C -0.08949 0.30068 0.78949
 C989 C -0.04600 0.28058 0.77792
 C990 C -0.03363 0.26812 0.78301
 H991 H -0.10729 0.30095 0.83000
 H992 H -0.07562 0.28991 0.82997
 H993 H -0.05049 0.27880 0.81358
 H994 H -0.07536 0.29565 0.76622
 H995 H -0.10040 0.30642 0.78248
 H996 H -0.04530 0.28574 0.76490
 H997 H -0.10836 0.32818 0.80052
 H998 H -0.03442 0.26190 0.79552
 C999 C -0.11155 0.82467 0.32201
 C1000 C -0.10535 0.80764 0.32386
 C1001 C -0.08961 0.80145 0.31444
 C1002 C -0.07952 0.78766 0.32118
 C1003 C -0.06474 0.78151 0.31227
 C1004 C -0.05999 0.78894 0.29631
 C1005 C -0.07018 0.80261 0.28958
 C1006 C -0.08490 0.80871 0.29842
 C1007 C -0.04463 0.78296 0.28621
 C1008 C -0.03687 0.76657 0.28803
 H1009 H -0.11235 0.79846 0.33189
 H1010 H -0.08298 0.78178 0.33343
 H1011 H -0.05703 0.77115 0.31805
 H1012 H -0.06692 0.80844 0.27724
 H1013 H -0.09275 0.81886 0.29243
 H1014 H -0.04001 0.79143 0.27599
 H1015 H -0.10387 0.83382 0.31457
 H1016 H -0.04169 0.75742 0.29752
 C1017 C 0.61973 0.68764 0.31988
 C1018 C 0.61101 0.68249 0.30490
 C1019 C 0.59602 0.69267 0.29776
 C1020 C 0.58302 0.68424 0.28814
 C1021 C 0.56842 0.69351 0.28183
 C1022 C 0.56669 0.71148 0.28490
 C1023 C 0.57993 0.71993 0.29414
 C1024 C 0.59448 0.71072 0.30036
 C1025 C 0.55128 0.72194 0.27921
 C1026 C 0.53921 0.71682 0.26670
 H1027 H 0.61448 0.67041 0.29867
 H1028 H 0.58397 0.67038 0.28583
 H1029 H 0.55844 0.68645 0.27494
 H1030 H 0.57904 0.73378 0.29654
 H1031 H 0.60453 0.71786 0.30708
 H1032 H 0.54977 0.73477 0.28476
 H1033 H 0.61471 0.69893 0.32661
 H1034 H 0.54071 0.70450 0.26018
 C1035 C 0.61246 0.18866 0.82054
 C1036 C 0.60506 0.18786 0.80413
 C1037 C 0.58961 0.19870 0.79943
 C1038 C 0.57758 0.19259 0.78728
 C1039 C 0.56287 0.20262 0.78270
 C1040 C 0.56013 0.21922 0.78996
 C1041 C 0.57230 0.22534 0.80200
 C1042 C 0.58691 0.21527 0.80664
 C1043 C 0.54492 0.23057 0.78539
 C1044 C 0.53425 0.22783 0.77109
 H1045 H 0.61062 0.17932 0.79448
 H1046 H 0.57943 0.17990 0.78151
 H1047 H 0.55372 0.19711 0.77366
 H1048 H 0.57063 0.23808 0.80772
 H1049 H 0.59625 0.22068 0.81562
 H1050 H 0.54251 0.24200 0.79318
 H1051 H 0.60603 0.19671 0.83011
 H1052 H 0.53671 0.21696 0.76264
 C1053 C 1.11887 0.68554 0.81897
 C1054 C 1.10605 0.67854 0.80816
 C1055 C 1.09030 0.68847 0.80243
 C1056 C 1.08183 0.68363 0.78714
 C1057 C 1.06694 0.69271 0.78131
 C1058 C 1.06014 0.70682 0.79079
 C1059 C 1.06835 0.71130 0.80633
 C1060 C 1.08323 0.70226 0.81212
 C1061 C 1.04467 0.71725 0.78511
 C1062 C 1.03705 0.71642 0.76874
 H1063 H 1.10752 0.66544 0.80338
 H1064 H 1.08685 0.67287 0.77958
 H1065 H 1.06088 0.68848 0.76949
 H1066 H 1.06327 0.72192 0.81405
 H1067 H 1.08891 0.70596 0.82433
 H1068 H 1.03956 0.72681 0.79407
 H1069 H 1.11735 0.69885 0.82323
 H1070 H 1.04193 0.70740 0.75920
 C1071 C 1.11468 0.18625 0.31704
 C1072 C 1.10493 0.18199 0.30254
 C1073 C 1.08938 0.19239 0.29717
 C1074 C 1.08019 0.18770 0.28225
 C1075 C 1.06563 0.19742 0.27668
 C1076 C 1.05988 0.21205 0.28605
 C1077 C 1.06911 0.21673 0.30096
 C1078 C 1.08366 0.20701 0.30651
 C1079 C 1.04492 0.22320 0.28037
 C1080 C 1.03257 0.21831 0.26803
 H1081 H 1.10880 0.17088 0.29483
 H1082 H 1.08440 0.17656 0.27476
 H1083 H 1.05927 0.19358 0.26487
 H1084 H 1.06507 0.22800 0.30835
 H1085 H 1.09044 0.21105 0.31807
 H1086 H 1.04362 0.23593 0.28619
 H1087 H 1.12320 0.18018 0.31940
 H1088 H 1.03298 0.20545 0.26247
 C1089 C 0.61436 0.31290 0.68223
 C1090 C 0.60137 0.32015 0.69273
 C1091 C 0.58610 0.31027 0.69910
 C1092 C 0.57866 0.31508 0.71489
 C1093 C 0.56429 0.30615 0.72154
 C1094 C 0.55667 0.29240 0.71228
 C1095 C 0.56412 0.28761 0.69642
 C1096 C 0.57868 0.29646 0.68984
 C1097 C 0.54149 0.28248 0.71910
 C1098 C 0.53101 0.28857 0.73255
 H1099 H 0.60263 0.33339 0.69716
 H1100 H 0.58422 0.32560 0.72230
 H1101 H 0.55958 0.30996 0.73410
 H1102 H 0.55860 0.27704 0.68906
 H1103 H 0.58386 0.29266 0.67742
 H1104 H 0.53875 0.26984 0.71366
 H1105 H 0.61293 0.29962 0.67792
 H1106 H 0.53304 0.30139 0.73778
 C1107 C 0.61498 0.82161 0.18798
 C1108 C 0.60447 0.80745 0.18355
 C1109 C 0.58950 0.80164 0.19422
 C1110 C 0.57593 0.79242 0.18629
 C1111 C 0.56168 0.78646 0.19590
 C1112 C 0.56087 0.78933 0.21380
 C1113 C 0.57444 0.79861 0.22171
 C1114 C 0.58867 0.80462 0.21208
 C1115 C 0.54635 0.78276 0.22468
 C1116 C 0.53493 0.76969 0.21952
 H1117 H 0.60636 0.80078 0.17148
 H1118 H 0.57630 0.78993 0.17255
 H1119 H 0.55137 0.77976 0.18914
 H1120 H 0.57418 0.80096 0.23547
 H1121 H 0.59913 0.81120 0.21878
 H1122 H 0.54532 0.78764 0.23773
 H1123 H 0.61139 0.82888 0.19938
 H1124 H 0.53605 0.76394 0.20689
 C1125 C 1.11625 0.31637 0.18538
 C1126 C 1.10542 0.30226 0.18141
 C1127 C 1.08991 0.29730 0.19193
 C1128 C 1.07669 0.28730 0.18432
 C1129 C 1.06202 0.28204 0.19384
 C1130 C 1.06038 0.28650 0.21136
 C1131 C 1.07360 0.29652 0.21895
 C1132 C 1.08825 0.30177 0.20943
 C1133 C 1.04529 0.28102 0.22222
 C1134 C 1.03335 0.26811 0.21768
 H1135 H 1.10762 0.29483 0.16984
 H1136 H 1.07765 0.28361 0.17088
 H1137 H 1.05206 0.27465 0.18730
 H1138 H 1.07274 0.30010 0.23241
 H1139 H 1.09835 0.30898 0.21599
 H1140 H 1.04405 0.28687 0.23485
 H1141 H 1.11249 0.32439 0.19622
 H1142 H 1.03451 0.26145 0.20549
 C1143 C 1.11697 0.80953 0.68241
 C1144 C 1.10841 0.81485 0.69753
 C1145 C 1.09212 0.80636 0.70376
 C1146 C 1.08848 0.80586 0.72150
 C1147 C 1.07342 0.79754 0.72774
 C1148 C 1.06154 0.78976 0.71626
 C1149 C 1.06502 0.79066 0.69850
 C1150 C 1.08004 0.79893 0.69229
 C1151 C 1.04590 0.77992 0.72211
 C1152 C 1.03880 0.78063 0.73873
 H1153 H 1.11407 0.82466 0.70570
 H1154 H 1.09752 0.81157 0.73061
 H1155 H 1.07146 0.79691 0.74153
 H1156 H 1.05606 0.78490 0.68934
 H1157 H 1.08204 0.79961 0.67849
 H1158 H 1.03962 0.77161 0.71274
 H1159 H 1.11167 0.79832 0.67586
 H1160 H 1.04408 0.78941 0.74821
 C1161 C 0.38042 0.67568 0.69149
 C1162 C 0.38890 0.69151 0.68865
 C1163 C 0.40426 0.69700 0.69905
 C1164 C 0.41627 0.70878 0.69193
 C1165 C 0.43085 0.71425 0.70142
 C1166 C 0.43358 0.70823 0.71841
 C1167 C 0.42152 0.69650 0.72552
 C1168 C 0.40697 0.69104 0.71605
 C1169 C 0.44874 0.71371 0.72910
 C1170 C 0.45851 0.72865 0.72580
 H1171 H 0.38455 0.70008 0.67839
 H1172 H 0.41448 0.71361 0.67889
 H1173 H 0.43999 0.72296 0.69524
 H1174 H 0.42322 0.69171 0.73858
 H1175 H 0.39773 0.68244 0.72228
 H1176 H 0.45176 0.70614 0.74057
 H1177 H 0.38571 0.66701 0.70126
 H1178 H 0.45521 0.73697 0.71498
 C1179 C 0.38945 0.17703 0.19230
 C1180 C 0.40027 0.19061 0.18676
 C1181 C 0.41513 0.19695 0.19725
 C1182 C 0.42937 0.20493 0.18897
 C1183 C 0.44357 0.21110 0.19852
 C1184 C 0.44367 0.20958 0.21661
 C1185 C 0.42938 0.20171 0.22487
 C1186 C 0.41518 0.19560 0.21534
 C1187 C 0.45842 0.21573 0.22730
 C1188 C 0.47011 0.22862 0.22208
 H1189 H 0.39868 0.19632 0.17411
 H1190 H 0.42961 0.20618 0.17505
 H1191 H 0.45452 0.21675 0.19166
 H1192 H 0.42908 0.20049 0.23879
 H1193 H 0.40418 0.19012 0.22225
 H1194 H 0.45947 0.21060 0.24031
 H1195 H 0.39300 0.17042 0.20418
 H1196 H 0.46867 0.23488 0.20963
 C1197 C -0.11904 0.68663 0.18553
 C1198 C -0.10592 0.69768 0.17945
 C1199 C -0.09080 0.70272 0.19028
 C1200 C -0.08265 0.71876 0.18729
 C1201 C -0.06860 0.72403 0.19760
 C1202 C -0.06232 0.71321 0.21098
 C1203 C -0.07013 0.69696 0.21360
 C1204 C -0.08418 0.69172 0.20335
 C1205 C -0.04786 0.71852 0.22248
 C1206 C -0.04030 0.73484 0.22138
 H1207 H -0.10678 0.70314 0.16660
 H1208 H -0.08735 0.72735 0.17716
 H1209 H -0.06276 0.73659 0.19512
 H1210 H -0.06539 0.68829 0.22367
 H1211 H -0.08965 0.67897 0.20560
 H1212 H -0.04333 0.70953 0.23237
 H1213 H -0.11815 0.68180 0.19864
 H1214 H -0.03246 0.73758 0.22825
 C1215 C -0.11232 0.18733 0.67891
 C1216 C -0.10596 0.18508 0.69567
 C1217 C -0.09086 0.19521 0.70210
 C1218 C -0.07999 0.18815 0.71499
 C1219 C -0.06563 0.19752 0.72119
 C1220 C -0.06199 0.21426 0.71467
 C1221 C -0.07316 0.22141 0.70207
 C1222 C -0.08745 0.21207 0.69590
 C1223 C -0.04714 0.22501 0.72076
 C1224 C -0.03423 0.21938 0.73233
 H1225 H -0.11200 0.17581 0.70432
 H1226 H -0.08253 0.17530 0.72016
 H1227 H -0.05765 0.19155 0.73112
 H1228 H -0.07090 0.23437 0.69702
 H1229 H -0.09597 0.21828 0.68651
 H1230 H -0.04641 0.23824 0.71592
 H1231 H -0.10534 0.19603 0.67034
 H1232 H -0.03423 0.20628 0.73743
 C1233 C 0.31975 0.37533 0.30940
 C1234 C 0.30960 0.38906 0.31590
 C1235 C 0.30327 0.40389 0.30522
 C1236 C 0.28871 0.41356 0.31094
 C1237 C 0.28221 0.42759 0.30125
 C1238 C 0.29030 0.43240 0.28563
 C1239 C 0.30507 0.42290 0.28009
 C1240 C 0.31154 0.40885 0.28976
 C1241 C 0.28381 0.44692 0.27455
 C1242 C 0.26968 0.45787 0.27860
 H1243 H 0.30578 0.38894 0.32933
 H1244 H 0.28218 0.41009 0.32287
 H1245 H 0.27081 0.43439 0.30613
 H1246 H 0.31169 0.42637 0.26820
 H1247 H 0.32316 0.40218 0.28516
 H1248 H 0.29046 0.44898 0.26236
 H1249 H 0.32356 0.37547 0.29597
 H1250 H 0.26272 0.45654 0.29066
 C1251 C 0.30087 -0.12564 0.82192
 C1252 C 0.30437 -0.11521 0.80750
 C1253 C 0.29323 -0.10021 0.80221
 C1254 C 0.29501 -0.09383 0.78534
 C1255 C 0.28546 -0.07928 0.77988
 C1256 C 0.27403 -0.07059 0.79126
 C1257 C 0.27184 -0.07717 0.80799
 C1258 C 0.28150 -0.09174 0.81353
 C1259 C 0.26437 -0.05476 0.78574
 C1260 C 0.27177 -0.04330 0.77390
 H1261 H 0.31538 -0.11816 0.79922
 H1262 H 0.30385 -0.10012 0.77632
 H1263 H 0.28700 -0.07493 0.76667
 H1264 H 0.26303 -0.07074 0.81693
 H1265 H 0.28000 -0.09592 0.82676
 H1266 H 0.25143 -0.05214 0.79096
 H1267 H 0.28892 -0.12302 0.82902
 H1268 H 0.28517 -0.04544 0.76969
 C1269 C 0.81971 0.38877 0.80702
 C1270 C 0.80470 0.39856 0.81102
 C1271 C 0.79883 0.41321 0.79986
 C1272 C 0.79019 0.42753 0.80723
 C1273 C 0.78497 0.44171 0.79699
 C1274 C 0.78808 0.44168 0.77909
 C1275 C 0.79653 0.42726 0.77172
 C1276 C 0.80171 0.41311 0.78193
 C1277 C 0.78294 0.45643 0.76773
 C1278 C 0.76941 0.46805 0.77174
 H1279 H 0.79763 0.39638 0.82291
 H1280 H 0.78781 0.42790 0.82099
 H1281 H 0.77886 0.45274 0.80324
 H1282 H 0.79896 0.42685 0.75796
 H1283 H 0.80778 0.40203 0.77568
 H1284 H 0.78927 0.45751 0.75526
 H1285 H 0.82720 0.39292 0.79588
 H1286 H 0.76203 0.46645 0.78356
 C1287 C 0.81477 -0.11607 0.30713
 C1288 C 0.79822 -0.10834 0.30933
 C1289 C 0.79229 -0.09286 0.29944
 C1290 C 0.77901 -0.08240 0.30652
 C1291 C 0.77323 -0.06742 0.29799
 C1292 C 0.78070 -0.06248 0.28211
 C1293 C 0.79354 -0.07326 0.27468
 C1294 C 0.79930 -0.08832 0.28323
 C1295 C 0.77471 -0.04673 0.27267
 C1296 C 0.76599 -0.03305 0.28081
 H1297 H 0.78946 -0.11286 0.31930
 H1298 H 0.77313 -0.08578 0.31880
 H1299 H 0.76269 -0.06001 0.30380
 H1300 H 0.79914 -0.07000 0.26225
 H1301 H 0.80902 -0.09641 0.27692
 H1302 H 0.77672 -0.04613 0.25885
 H1303 H 0.82320 -0.11081 0.29720
 H1304 H 0.76450 -0.03303 0.29468
 C1305 C 0.30732 0.61234 0.68764
 C1306 C 0.31519 0.59904 0.69731
 C1307 C 0.30549 0.58334 0.70275
 C1308 C 0.31102 0.57416 0.71748
 C1309 C 0.30187 0.55950 0.72316
 C1310 C 0.28699 0.55374 0.71412
 C1311 C 0.28194 0.56251 0.69900
 C1312 C 0.29108 0.57712 0.69334
 C1313 C 0.27637 0.53874 0.71989
 C1314 C 0.27671 0.53204 0.73663
 H1315 H 0.32877 0.60012 0.70122
 H1316 H 0.32233 0.57846 0.72472
 H1317 H 0.30663 0.55277 0.73452
 H1318 H 0.27076 0.55814 0.69161
 H1319 H 0.28689 0.58334 0.68148
 H1320 H 0.26704 0.53343 0.71082
 H1321 H 0.29361 0.61129 0.68417
 H1322 H 0.28538 0.53739 0.74623
 C1323 C 0.31921 1.11410 0.18959
 C1324 C 0.30487 1.10476 0.18334
 C1325 C 0.29788 1.08941 0.19269
 C1326 C 0.29012 1.07595 0.18332
 C1327 C 0.28373 1.06115 0.19174
 C1328 C 0.28467 1.05965 0.20984
 C1329 C 0.29231 1.07320 0.21919
 C1330 C 0.29875 1.08796 0.21077
 C1331 C 0.27778 1.04438 0.21947
 C1332 C 0.26596 1.03256 0.21249
 H1333 H 0.29933 1.10772 0.17084
 H1334 H 0.28926 1.07677 0.16939
 H1335 H 0.27833 1.05093 0.18390
 H1336 H 0.29312 1.07248 0.23313
 H1337 H 0.30414 1.09829 0.21851
 H1338 H 0.28120 1.04307 0.23298
 H1339 H 0.32527 1.10932 0.20135
 H1340 H 0.26151 1.03407 0.19933
 C1341 C 0.81120 0.62184 0.17396
 C1342 C 0.81432 0.61318 0.18963
 C1343 C 0.80505 0.59728 0.19532
 C1344 C 0.80540 0.59307 0.21293
 C1345 C 0.79746 0.57799 0.21904
 C1346 C 0.78917 0.56652 0.20763
 C1347 C 0.78851 0.57081 0.19002
 C1348 C 0.79651 0.58599 0.18386
 C1349 C 0.78079 0.55040 0.21400
 C1350 C 0.78669 0.54197 0.22889
 H1351 H 0.82321 0.61861 0.19895
 H1352 H 0.81179 0.60155 0.22207
 H1353 H 0.79765 0.57553 0.23279
 H1354 H 0.78208 0.56225 0.18100
 H1355 H 0.79626 0.58857 0.17014
 H1356 H 0.76969 0.54524 0.20701
 H1357 H 0.80081 0.61704 0.16580
 H1358 H 0.79851 0.54640 0.23519
 C1359 C 0.81516 1.12130 0.67906
 C1360 C 0.81748 1.11499 0.69589
 C1361 C 0.80940 1.09885 0.70288
 C1362 C 0.81466 1.09299 0.71928
 C1363 C 0.80752 1.07796 0.72658
 C1364 C 0.79488 1.06830 0.71759
 C1365 C 0.78942 1.07425 0.70129
 C1366 C 0.79658 1.08930 0.69397
 C1367 C 0.78654 1.05254 0.72506
 C1368 C 0.79346 1.04317 0.73902
 H1369 H 0.82568 1.12224 0.70463
 H1370 H 0.82434 1.10014 0.72656
 H1371 H 0.81172 1.07428 0.73940
 H1372 H 0.77953 1.06722 0.69418
 H1373 H 0.79178 1.09335 0.68147
 H1374 H 0.77436 1.04819 0.71936
 H1375 H 0.80644 1.11465 0.67037
 H1376 H 0.80599 1.04669 0.74448
 C1377 C 0.69160 0.61929 0.32286
 C1378 C 0.68863 0.61130 0.30700
 C1379 C 0.69969 0.59660 0.30092
 C1380 C 0.69247 0.58429 0.28975
 C1381 C 0.70254 0.57013 0.28405
 C1382 C 0.72019 0.56819 0.28922
 C1383 C 0.72743 0.58065 0.30022
 C1384 C 0.71738 0.59476 0.30591
 C1385 C 0.73144 0.55342 0.28366
 C1386 C 0.72778 0.54303 0.26944
 H1387 H 0.67769 0.61529 0.29901
 H1388 H 0.67890 0.58546 0.28568
 H1389 H 0.69628 0.56067 0.27588
 H1390 H 0.74100 0.57955 0.30431
 H1391 H 0.72363 0.60432 0.31399
 H1392 H 0.74362 0.55116 0.29059
 H1393 H 0.70193 0.61403 0.33099
 H1394 H 0.71623 0.54550 0.26168
 C1395 C 0.68408 1.12319 0.81134
 C1396 C 0.69987 1.11457 0.81552
 C1397 C 0.70681 1.09875 0.80672
 C1398 C 0.72143 1.09025 0.81401
 C1399 C 0.72884 1.07553 0.80631
 C1400 C 0.72175 1.06877 0.79099
 C1401 C 0.70716 1.07730 0.78361
 C1402 C 0.69976 1.09211 0.79132
 C1403 C 0.72946 1.05335 0.78204
 C1404 C 0.74299 1.04299 0.78886
 H1405 H 0.70770 1.11910 0.82614
 H1406 H 0.72729 1.09509 0.82576
 H1407 H 0.74024 1.06984 0.81242
 H1408 H 0.70150 1.07255 0.77173
 H1409 H 0.68875 1.09832 0.78495
 H1410 H 0.72449 1.05023 0.76935
 H1411 H 0.67620 1.11792 0.80105
 H1412 H 0.74812 1.04547 0.80157
 C1413 C 0.18157 0.61034 0.81852
 C1414 C 0.17567 0.60199 0.80365
 C1415 C 0.18352 0.58526 0.79815
 C1416 C 0.18577 0.58193 0.78053
 C1417 C 0.19440 0.56679 0.77511
 C1418 C 0.20065 0.55456 0.78727
 C1419 C 0.19781 0.55765 0.80486
 C1420 C 0.18923 0.57278 0.81026
 C1421 C 0.21111 0.53910 0.78227
 C1422 C 0.21100 0.53205 0.76575
 H1423 H 0.16652 0.60830 0.79495
 H1424 H 0.18145 0.59137 0.77098
 H1425 H 0.19667 0.56511 0.76146
 H1426 H 0.20240 0.54840 0.81447
 H1427 H 0.18716 0.57471 0.82393
 H1428 H 0.21934 0.53304 0.79204
 H1429 H 0.19232 0.60418 0.82547
 H1430 H 0.20201 0.53700 0.75607
 C1431 C 0.18567 1.11415 0.31275
 C1432 C 0.17949 1.10523 0.29825
 C1433 C 0.18917 1.09023 0.29072
 C1434 C 0.17993 1.07750 0.28157
 C1435 C 0.18871 1.06302 0.27467
 C1436 C 0.20698 1.06110 0.27669
 C1437 C 0.21623 1.07401 0.28552
 C1438 C 0.20750 1.08847 0.29231
 C1439 C 0.21690 1.04571 0.27041
 C1440 C 0.21128 1.03465 0.25730
 H1441 H 0.16689 1.10846 0.29266
 H1442 H 0.16582 1.07859 0.28006
 H1443 H 0.18108 1.05322 0.26817
 H1444 H 0.23034 1.07294 0.28712
 H1445 H 0.21524 1.09831 0.29862
 H1446 H 0.22983 1.04350 0.27589
 H1447 H 0.19748 1.10912 0.31883
 H1448 H 0.19901 1.03713 0.25066
 C1449 C 0.67803 0.38565 0.69048
 C1450 C 0.68912 0.39818 0.68334
 C1451 C 0.69551 0.41358 0.69282
 C1452 C 0.71130 0.42113 0.68750
 C1453 C 0.71792 0.43570 0.69587
 C1454 C 0.70864 0.44344 0.70960
 C1455 C 0.69279 0.43588 0.71494
 C1456 C 0.68624 0.42112 0.70664
 C1457 C 0.71541 0.45889 0.71895
 C1458 C 0.72896 0.46923 0.71257
 H1459 H 0.69396 0.39652 0.67034
 H1460 H 0.71874 0.41553 0.67696
 H1461 H 0.73048 0.44051 0.69160
 H1462 H 0.68539 0.44146 0.72552
 H1463 H 0.67380 0.41591 0.71088
 H1464 H 0.70983 0.46197 0.73143
 H1465 H 0.67319 0.38746 0.70347
 H1466 H 0.73437 0.46679 0.69994
 C1467 C 0.68517 -0.11372 0.17866
 C1468 C 0.68436 -0.10805 0.19577
 C1469 C 0.69224 -0.09173 0.20208
 C1470 C 0.68621 -0.08481 0.21774
 C1471 C 0.69333 -0.06954 0.22437
 C1472 C 0.70680 -0.06088 0.21546
 C1473 C 0.71289 -0.06788 0.19984
 C1474 C 0.70576 -0.08313 0.19321
 C1475 C 0.71532 -0.04497 0.22205
 C1476 C 0.71071 -0.03625 0.23722
 H1477 H 0.67725 -0.11571 0.20515
 H1478 H 0.67588 -0.09125 0.22489
 H1479 H 0.68829 -0.06481 0.23649
 H1480 H 0.72339 -0.06160 0.19278
 H1481 H 0.71117 -0.08823 0.18137
 H1482 H 0.72628 -0.04003 0.21462
 H1483 H 0.69268 -0.10649 0.16926
 H1484 H 0.69975 -0.04039 0.24502
 C1485 C 0.18934 0.37843 0.17503
 C1486 C 0.18812 0.38603 0.19136
 C1487 C 0.19802 0.40172 0.19664
 C1488 C 0.19263 0.41061 0.21152
 C1489 C 0.20174 0.42519 0.21730
 C1490 C 0.21655 0.43125 0.20828
 C1491 C 0.22206 0.42225 0.19351
 C1492 C 0.21295 0.40766 0.18773
 C1493 C 0.22708 0.44624 0.21428
 C1494 C 0.22117 0.45835 0.22639
 H1495 H 0.17950 0.38034 0.20088
 H1496 H 0.18134 0.40620 0.21879
 H1497 H 0.19731 0.43130 0.22905
 H1498 H 0.23358 0.42644 0.18647
 H1499 H 0.21798 0.40095 0.17654
 H1500 H 0.24015 0.44775 0.20896
 H1501 H 0.19800 0.38404 0.16551
 H1502 H 0.20793 0.45771 0.23136
 C1503 C 0.18512 -0.12125 0.67683
 C1504 C 0.18677 -0.11659 0.69410
 C1505 C 0.19678 -0.10116 0.69970
 C1506 C 0.19316 -0.09401 0.71591
 C1507 C 0.20214 -0.07936 0.72159
 C1508 C 0.21500 -0.07151 0.71113
 C1509 C 0.21914 -0.07906 0.69523
 C1510 C 0.21014 -0.09373 0.68953
 C1511 C 0.22459 -0.05585 0.71676
 C1512 C 0.21727 -0.04406 0.72833
 H1513 H 0.18046 -0.12443 0.70391
 H1514 H 0.18327 -0.09973 0.72418
 H1515 H 0.19914 -0.07443 0.73430
 H1516 H 0.22928 -0.07352 0.68714
 H1517 H 0.21396 -0.09930 0.67731
 H1518 H 0.23759 -0.05349 0.71161
 H1519 H 0.19121 -0.11332 0.66698
 H1520 H 0.20392 -0.04581 0.73275
 C1521 C 0.31271 0.31692 0.38609
 C1522 C 0.31439 0.30070 0.39423
 C1523 C 0.30465 0.29573 0.41004
 C1524 C 0.31125 0.28204 0.42024
 C1525 C 0.30225 0.27649 0.43495
 C1526 C 0.28621 0.28437 0.43964
 C1527 C 0.27971 0.29820 0.42955
 C1528 C 0.28875 0.30379 0.41486
 C1529 C 0.27587 0.27857 0.45480
 C1530 C 0.27793 0.26228 0.46266
 H1531 H 0.32330 0.29106 0.38902
 H1532 H 0.32350 0.27565 0.41685
 H1533 H 0.30803 0.26614 0.44260
 H1534 H 0.26740 0.30451 0.43287
 H1535 H 0.28294 0.31408 0.40714
 H1536 H 0.26546 0.28709 0.45933
 H1537 H 0.30383 0.32651 0.39147
 H1538 H 0.28758 0.25310 0.45793
 C1539 C 0.31461 0.80542 -0.11324
 C1540 C 0.30342 0.81273 -0.10086
 C1541 C 0.29638 0.80324 -0.08569
 C1542 C 0.28248 0.81082 -0.07640
 C1543 C 0.27522 0.80235 -0.06211
 C1544 C 0.28179 0.78604 -0.05679
 C1545 C 0.29591 0.77862 -0.06587
 C1546 C 0.30314 0.78707 -0.08016
 C1547 C 0.27465 0.77637 -0.04182
 C1548 C 0.25857 0.77993 -0.03381
 H1549 H 0.29926 0.82614 -0.10240
 H1550 H 0.27713 0.82335 -0.08026
 H1551 H 0.26465 0.80875 -0.05527
 H1552 H 0.30135 0.76616 -0.06194
 H1553 H 0.31409 0.78086 -0.08656
 H1554 H 0.28223 0.76524 -0.03734
 H1555 H 0.31955 0.79231 -0.11161
 H1556 H 0.25027 0.79055 -0.03814
 C1557 C 0.81433 0.32210 -0.12342
 C1558 C 0.82256 0.31132 -0.11119
 C1559 C 0.81345 0.30360 -0.09612
 C1560 C 0.82104 0.28907 -0.08786
 C1561 C 0.81300 0.28146 -0.07348
 C1562 C 0.79719 0.28838 -0.06698
 C1563 C 0.78975 0.30304 -0.07513
 C1564 C 0.79776 0.31060 -0.08949
 C1565 C 0.78788 0.28096 -0.05187
 C1566 C 0.79289 0.26596 -0.04274
 H1567 H 0.83633 0.30812 -0.11264
 H1568 H 0.83321 0.28349 -0.09263
 H1569 H 0.81930 0.27028 -0.06761
 H1570 H 0.77765 0.30874 -0.07034
 H1571 H 0.79173 0.32209 -0.09506
 H1572 H 0.77597 0.28763 -0.04790
 H1573 H 0.80060 0.32545 -0.12192
 H1574 H 0.80455 0.25867 -0.04613
 C1575 C 0.81041 0.82333 0.38135
 C1576 C 0.81343 0.80727 0.38938
 C1577 C 0.80437 0.80162 0.40538
 C1578 C 0.81164 0.78780 0.41494
 C1579 C 0.80367 0.78204 0.43014
 C1580 C 0.78815 0.79004 0.43615
 C1581 C 0.78065 0.80359 0.42640
 C1582 C 0.78861 0.80934 0.41118
 C1583 C 0.77895 0.78404 0.45192
 C1584 C 0.78685 0.77371 0.46462
 H1585 H 0.82312 0.79847 0.38402
 H1586 H 0.82358 0.78141 0.41064
 H1587 H 0.80956 0.77111 0.43684
 H1588 H 0.76851 0.80974 0.43054
 H1589 H 0.78212 0.81959 0.40397
 H1590 H 0.76527 0.78773 0.45347
 H1591 H 0.80063 0.83210 0.38657
 H1592 H 0.80065 0.77039 0.46383
 C1593 C 0.68757 0.32100 0.61942
 C1594 C 0.67968 0.31118 0.60643
 C1595 C 0.68900 0.30463 0.59094
 C1596 C 0.68111 0.29149 0.58116
 C1597 C 0.68934 0.28490 0.56642
 C1598 C 0.70571 0.29138 0.56112
 C1599 C 0.71342 0.30473 0.57072
 C1600 C 0.70521 0.31132 0.58544
 C1601 C 0.71520 0.28486 0.54573
 C1602 C 0.71104 0.26974 0.53670
 H1603 H 0.66594 0.30792 0.60761
 H1604 H 0.66852 0.28625 0.58498
 H1605 H 0.68271 0.27490 0.55925
 H1606 H 0.72593 0.31012 0.56683
 H1607 H 0.71156 0.32178 0.59219
 H1608 H 0.72672 0.29204 0.54175
 H1609 H 0.70118 0.32469 0.61826
 H1610 H 0.69998 0.26184 0.54041
 C1611 C 0.67688 0.81358 1.11518
 C1612 C 0.69081 0.81798 1.10429
 C1613 C 0.69535 0.80759 1.08882
 C1614 C 0.70412 0.81564 1.07504
 C1615 C 0.70828 0.80630 1.06013
 C1616 C 0.70392 0.78859 1.05880
 C1617 C 0.69530 0.78053 1.07263
 C1618 C 0.69121 0.78983 1.08754
 C1619 C 0.70803 0.77808 1.04332
 C1620 C 0.72123 0.78232 1.03160
 H1621 H 0.69809 0.82977 1.10644
 H1622 H 0.70752 0.82927 1.07572
 H1623 H 0.71460 0.81312 1.04963
 H1624 H 0.69192 0.76688 1.07201
 H1625 H 0.68506 0.78291 1.09808
 H1626 H 0.70127 0.76584 1.04180
 H1627 H 0.66901 0.80245 1.11182
 H1628 H 0.72902 0.79386 1.03344
 C1629 C 0.18164 0.30302 1.11557
 C1630 C 0.19291 0.30969 1.10296
 C1631 C 0.20046 0.29934 1.08864
 C1632 C 0.21606 0.30512 1.08105
 C1633 C 0.22372 0.29610 1.06737
 C1634 C 0.21582 0.28103 1.06072
 C1635 C 0.20008 0.27531 1.06828
 C1636 C 0.19245 0.28433 1.08209
 C1637 C 0.22357 0.27088 1.04619
 C1638 C 0.23901 0.27552 1.03764
 H1639 H 0.19703 0.32308 1.10376
 H1640 H 0.22250 0.31665 1.08585
 H1641 H 0.23585 0.30116 1.06232
 H1642 H 0.19361 0.26382 1.06344
 H1643 H 0.18018 0.27970 1.08732
 H1644 H 0.21708 0.25902 1.04233
 H1645 H 0.17726 0.28971 1.11459
 H1646 H 0.24594 0.28715 1.04113
 C1647 C 0.18278 0.80739 0.61320
 C1648 C 0.19991 0.80994 0.60714
 C1649 C 0.20708 0.80172 0.59139
 C1650 C 0.22177 0.80918 0.58336
 C1651 C 0.22909 0.80175 0.56855
 C1652 C 0.22190 0.78654 0.56157
 C1653 C 0.20727 0.77906 0.56968
 C1654 C 0.19997 0.78648 0.58444
 C1655 C 0.22908 0.77783 0.54607
 C1656 C 0.24485 0.78198 0.53778
 H1657 H 0.20857 0.81855 0.61401
 H1658 H 0.22754 0.82090 0.58851
 H1659 H 0.24024 0.80805 0.56270
 H1660 H 0.20155 0.76726 0.56467
 H1661 H 0.18904 0.77996 0.59049
 H1662 H 0.22170 0.76688 0.54128
 H1663 H 0.17417 0.79861 0.60647
 H1664 H 0.25288 0.79264 0.54208
 C1665 C 0.31244 0.67948 0.62029
 C1666 C 0.31681 0.69517 0.61230
 C1667 C 0.30774 0.70130 0.59642
 C1668 C 0.31662 0.71223 0.58490
 C1669 C 0.30851 0.71800 0.56969
 C1670 C 0.29121 0.71295 0.56570
 C1671 C 0.28219 0.70241 0.57750
 C1672 C 0.29029 0.69669 0.59270
 C1673 C 0.28180 0.71906 0.54998
 C1674 C 0.29003 0.72728 0.53613
 H1675 H 0.32744 0.70292 0.61727
 H1676 H 0.32994 0.71624 0.58761
 H1677 H 0.31583 0.72660 0.56139
 H1678 H 0.26875 0.69864 0.57500
 H1679 H 0.28268 0.68891 0.60159
 H1680 H 0.26768 0.71752 0.54953
 H1681 H 0.30243 0.67162 0.61432
 H1682 H 0.30412 0.72878 0.53595
 C1683 C 0.32469 0.18388 1.12180
 C1684 C 0.31059 0.17919 1.11130
 C1685 C 0.30533 0.18967 1.09597
 C1686 C 0.29659 0.18158 1.08229
 C1687 C 0.29187 0.19104 1.06749
 C1688 C 0.29564 0.20890 1.06618
 C1689 C 0.30415 0.21702 1.07996
 C1690 C 0.30879 0.20760 1.09475
 C1691 C 0.29113 0.21950 1.05074
 C1692 C 0.27798 0.21511 1.03906
 H1693 H 0.30381 0.16711 1.11361
 H1694 H 0.29368 0.16782 1.08292
 H1695 H 0.28562 0.18420 1.05704
 H1696 H 0.30708 0.23078 1.07937
 H1697 H 0.31487 0.21454 1.10524
 H1698 H 0.29760 0.23191 1.04918
 H1699 H 0.33219 0.19521 1.11812
 H1700 H 0.27043 0.20340 1.04096
 C1701 C 0.81769 0.69597 1.10773
 C1702 C 0.80154 0.69252 1.10022
 C1703 C 0.79508 0.70172 1.08466
 C1704 C 0.77780 0.69885 1.07927
 C1705 C 0.77109 0.70725 1.06468
 C1706 C 0.78166 0.71856 1.05489
 C1707 C 0.79894 0.72158 1.06039
 C1708 C 0.80563 0.71323 1.07512
 C1709 C 0.77481 0.72784 1.03942
 C1710 C 0.76000 0.72231 1.03046
 H1711 H 0.79303 0.68301 1.10621
 H1712 H 0.76934 0.69019 1.08650
 H1713 H 0.75749 0.70504 1.06144
 H1714 H 0.80730 0.73037 1.05323
 H1715 H 0.81903 0.71575 1.07897
 H1716 H 0.78148 0.73947 1.03510
 H1717 H 0.82089 0.69033 1.11662
 H1718 H 0.75370 0.71026 1.03402
 C1719 C 0.81871 0.19237 0.61297
 C1720 C 0.80124 0.19217 0.60754
 C1721 C 0.79492 0.20244 0.59251
 C1722 C 0.77996 0.19689 0.58365
 C1723 C 0.77372 0.20614 0.56931
 C1724 C 0.78234 0.22124 0.56353
 C1725 C 0.79693 0.22715 0.57277
 C1726 C 0.80319 0.21787 0.58710
 C1727 C 0.77602 0.23143 0.54843
 C1728 C 0.76585 0.22412 0.53545
 H1729 H 0.79187 0.18406 0.61422
 H1730 H 0.77312 0.18529 0.58778
 H1731 H 0.76196 0.20155 0.56306
 H1732 H 0.80354 0.23895 0.56886
 H1733 H 0.81429 0.22303 0.59403
 H1734 H 0.77947 0.24506 0.54751
 H1735 H 0.82800 0.20019 0.60585
 H1736 H 0.76305 0.21035 0.53575
 C1737 C 0.68452 0.68713 0.39042
 C1738 C 0.70145 0.68483 0.39708
 C1739 C 0.70791 0.69450 0.41224
 C1740 C 0.72162 0.68737 0.42217
 C1741 C 0.72818 0.69629 0.43644
 C1742 C 0.72124 0.71268 0.44092
 C1743 C 0.70764 0.71984 0.43085
 C1744 C 0.70111 0.71094 0.41663
 C1745 C 0.72761 0.72291 0.45577
 C1746 C 0.74260 0.71903 0.46548
 H1747 H 0.71042 0.67565 0.39121
 H1748 H 0.72717 0.67478 0.41895
 H1749 H 0.73854 0.69018 0.44387
 H1750 H 0.70216 0.73251 0.43387
 H1751 H 0.69101 0.71720 0.40894
 H1752 H 0.72033 0.73467 0.45883
 H1753 H 0.67561 0.69604 0.39680
 H1754 H 0.75056 0.70766 0.46278
 C1755 C 0.68865 0.19338 -0.12217
 C1756 C 0.70312 0.18743 -0.11274
 C1757 C 0.71014 0.19727 -0.09790
 C1758 C 0.71869 0.18818 -0.08459
 C1759 C 0.72481 0.19694 -0.07005
 C1760 C 0.72276 0.21513 -0.06865
 C1761 C 0.71446 0.22422 -0.08214
 C1762 C 0.70832 0.21546 -0.09665
 C1763 C 0.72914 0.22515 -0.05358
 C1764 C 0.74042 0.21828 -0.04109
 H1765 H 0.70854 0.17464 -0.11520
 H1766 H 0.72034 0.17419 -0.08528
 H1767 H 0.73088 0.18923 -0.05999
 H1768 H 0.71282 0.23822 -0.08153
 H1769 H 0.70235 0.22304 -0.10690
 H1770 H 0.72565 0.23882 -0.05285
 H1771 H 0.68240 0.20541 -0.11823
 H1772 H 0.74486 0.20493 -0.04181
 C1773 C 0.19135 0.67789 -0.11653
 C1774 C 0.18956 0.69443 -0.10936
 C1775 C 0.19873 0.69964 -0.09338
 C1776 C 0.19130 0.71286 -0.08331
 C1777 C 0.19936 0.71807 -0.06804
 C1778 C 0.21512 0.71013 -0.06249
 C1779 C 0.22286 0.69728 -0.07284
 C1780 C 0.21476 0.69203 -0.08813
 C1781 C 0.22418 0.71564 -0.04653
 C1782 C 0.21544 0.72411 -0.03315
 H1783 H 0.18056 0.70378 -0.11502
 H1784 H 0.17914 0.71915 -0.08723
 H1785 H 0.19333 0.72858 -0.06090
 H1786 H 0.23521 0.69127 -0.06909
 H1787 H 0.22128 0.68229 -0.09590
 H1788 H 0.23821 0.71337 -0.04549
 H1789 H 0.20015 0.66864 -0.11039
 H1790 H 0.20133 0.72577 -0.03363
 C1791 C 0.18857 0.17712 0.38306
 C1792 C 0.18073 0.18756 0.39568
 C1793 C 0.19010 0.19360 0.41130
 C1794 C 0.18373 0.20834 0.41996
 C1795 C 0.19227 0.21457 0.43464
 C1796 C 0.20740 0.20608 0.44102
 C1797 C 0.21344 0.19104 0.43263
 C1798 C 0.20491 0.18483 0.41797
 C1799 C 0.21734 0.21230 0.45624
 C1800 C 0.21504 0.22862 0.46382
 H1801 H 0.16727 0.19186 0.39407
 H1802 H 0.17218 0.21518 0.41526
 H1803 H 0.18683 0.22592 0.44088
 H1804 H 0.22489 0.18407 0.43738
 H1805 H 0.20987 0.17303 0.41215
 H1806 H 0.22771 0.20392 0.46117
 H1807 H 0.20208 0.17298 0.38471
 H1808 H 0.20522 0.23765 0.45903
 C1809 C 0.30679 0.38115 0.68281
 C1810 C 0.31489 0.39307 0.69373
 C1811 C 0.30562 0.40872 0.70013
 C1812 C 0.31048 0.41584 0.71603
 C1813 C 0.30158 0.43037 0.72259
 C1814 C 0.28771 0.43811 0.71322
 C1815 C 0.28338 0.43136 0.69701
 C1816 C 0.29222 0.41686 0.69051
 C1817 C 0.27730 0.45307 0.71965
 C1818 C 0.27762 0.45920 0.73657
 H1819 H 0.32819 0.39087 0.69813
 H1820 H 0.32100 0.40998 0.72352
 H1821 H 0.30569 0.43539 0.73492
 H1822 H 0.27297 0.43723 0.68938
 H1823 H 0.28862 0.41223 0.67786
 H1824 H 0.26810 0.45904 0.71070
 H1825 H 0.29325 0.38340 0.67915
 H1826 H 0.28642 0.45362 0.74607
 C1827 C 0.31144 0.87985 0.17712
 C1828 C 0.31486 0.88974 0.19179
 C1829 C 0.30344 0.90461 0.19697
 C1830 C 0.31059 0.91807 0.20683
 C1831 C 0.30028 0.93241 0.21165
 C1832 C 0.28243 0.93348 0.20691
 C1833 C 0.27527 0.91993 0.19718
 C1834 C 0.28556 0.90561 0.19239
 C1835 C 0.27092 0.94841 0.21168
 C1836 C 0.27463 0.95977 0.22515
 H1837 H 0.32663 0.88732 0.19923
 H1838 H 0.32429 0.91762 0.21058
 H1839 H 0.30649 0.94269 0.21881
 H1840 H 0.26157 0.92034 0.19342
 H1841 H 0.27933 0.89526 0.18532
 H1842 H 0.25854 0.94994 0.20492
 H1843 H 0.30038 0.88365 0.16916
 H1844 H 0.28636 0.95789 0.23281
 C1845 C 0.81527 0.38905 0.18116
 C1846 C 0.81997 0.39604 0.19710
 C1847 C 0.81087 0.41150 0.20430
 C1848 C 0.81991 0.42255 0.21552
 C1849 C 0.81177 0.43757 0.22200
 C1850 C 0.79431 0.44165 0.21747
 C1851 C 0.78519 0.43033 0.20661
 C1852 C 0.79328 0.41536 0.20022
 C1853 C 0.78508 0.45757 0.22337
 C1854 C 0.79039 0.46793 0.23713
 H1855 H 0.83096 0.39074 0.20425
 H1856 H 0.83343 0.41976 0.21899
 H1857 H 0.81932 0.44602 0.23019
 H1858 H 0.77166 0.43304 0.20308
 H1859 H 0.78560 0.40681 0.19222
 H1860 H 0.77282 0.46083 0.21697
 H1861 H 0.80505 0.39558 0.17383
 H1862 H 0.80205 0.46471 0.24447
 C1863 C 0.81620 0.88849 0.68263
 C1864 C 0.81832 0.89506 0.69930
 C1865 C 0.80976 0.91124 0.70579
 C1866 C 0.81565 0.91815 0.72146
 C1867 C 0.80815 0.93331 0.72823
 C1868 C 0.79450 0.94207 0.71942
 C1869 C 0.78835 0.93500 0.70392
 C1870 C 0.79586 0.91980 0.69714
 C1871 C 0.78590 0.95804 0.72635
 C1872 C 0.79330 0.96833 0.73921
 H1873 H 0.82687 0.88816 0.70818
 H1874 H 0.82613 0.91175 0.72857
 H1875 H 0.81293 0.93781 0.74052
 H1876 H 0.77765 0.94126 0.69701
 H1877 H 0.79049 0.91480 0.68529
 H1878 H 0.77317 0.96175 0.72122
 H1879 H 0.80732 0.89498 0.67380
 H1880 H 0.80627 0.96533 0.74409
 C1881 C 0.67977 0.62270 0.68219
 C1882 C 0.69593 0.61458 0.67882
 C1883 C 0.70210 0.59861 0.68786
 C1884 C 0.71501 0.58818 0.68001
 C1885 C 0.72133 0.57310 0.68816
 C1886 C 0.71497 0.56823 0.70452
 C1887 C 0.70212 0.57873 0.71238
 C1888 C 0.69581 0.59378 0.70424
 C1889 C 0.72121 0.55248 0.71390
 C1890 C 0.73610 0.54267 0.70954
 H1891 H 0.70448 0.61981 0.66899
 H1892 H 0.72013 0.59164 0.66743
 H1893 H 0.73102 0.56532 0.68148
 H1894 H 0.69706 0.57538 0.72502
 H1895 H 0.68629 0.60169 0.71103
 H1896 H 0.71406 0.54889 0.72545
 H1897 H 0.67126 0.61724 0.69194
 H1898 H 0.74403 0.54608 0.69849
 C1899 C 0.68465 0.11414 0.17364
 C1900 C 0.67913 0.10576 0.18867
 C1901 C 0.68824 0.09003 0.19530
 C1902 C 0.67884 0.07790 0.20511
 C1903 C 0.68720 0.06302 0.21166
 C1904 C 0.70524 0.06018 0.20872
 C1905 C 0.71461 0.07227 0.19885
 C1906 C 0.70627 0.08713 0.19234
 C1907 C 0.71478 0.04504 0.21604
 C1908 C 0.70977 0.03717 0.23144
 H1909 H 0.66772 0.11036 0.19561
 H1910 H 0.66496 0.07986 0.20757
 H1911 H 0.67947 0.05374 0.21886
 H1912 H 0.72853 0.07043 0.19654
 H1913 H 0.71412 0.09649 0.18537
 H1914 H 0.72708 0.04116 0.21010
 H1915 H 0.69525 0.10824 0.16637
 H1916 H 0.69825 0.04179 0.23826
 C1917 C 0.18401 0.61255 0.18778
 C1918 C 0.19844 0.60313 0.18157
 C1919 C 0.20587 0.58821 0.19145
 C1920 C 0.21375 0.57426 0.18268
 C1921 C 0.21984 0.55958 0.19176
 C1922 C 0.21827 0.55873 0.20984
 C1923 C 0.21088 0.57293 0.21858
 C1924 C 0.20492 0.58756 0.20956
 C1925 C 0.22364 0.54329 0.22013
 C1926 C 0.23555 0.53061 0.21458
 H1927 H 0.20358 0.60577 0.16884
 H1928 H 0.21476 0.57450 0.16875
 H1929 H 0.22527 0.54882 0.18453
 H1930 H 0.20970 0.57271 0.23251
 H1931 H 0.19961 0.59834 0.21686
 H1932 H 0.21868 0.54241 0.23320
 H1933 H 0.17807 0.60822 0.19972
 H1934 H 0.24169 0.53163 0.20204
 C1935 C 0.17589 0.10943 0.68634
 C1936 C 0.19331 0.10402 0.68806
 C1937 C 0.19843 0.08873 0.69866
 C1938 C 0.21418 0.08002 0.69491
 C1939 C 0.21923 0.06531 0.70437
 C1940 C 0.20858 0.05900 0.71784
 C1941 C 0.19326 0.06820 0.72214
 C1942 C 0.18819 0.08292 0.71266
 C1943 C 0.21343 0.04324 0.72789
 C1944 C 0.22412 0.03025 0.72103
 H1945 H 0.20353 0.11102 0.68132
 H1946 H 0.22253 0.08452 0.68451
 H1947 H 0.23162 0.05913 0.70120
 H1948 H 0.18511 0.06391 0.73277
 H1949 H 0.17640 0.08978 0.71654
 H1950 H 0.20851 0.04186 0.74093
 H1951 H 0.16568 0.10221 0.69283
 H1952 H 0.22843 0.03115 0.70776
 C1953 C 0.30730 0.61162 0.31945
 C1954 C 0.31452 0.59848 0.30914
 C1955 C 0.30457 0.58354 0.30226
 C1956 C 0.31162 0.57442 0.28820
 C1957 C 0.30276 0.56033 0.28107
 C1958 C 0.28662 0.55487 0.28800
 C1959 C 0.27967 0.56388 0.30221
 C1960 C 0.28852 0.57802 0.30931
 C1961 C 0.27637 0.54030 0.28065
 C1962 C 0.28235 0.52920 0.26763
 H1963 H 0.32819 0.59928 0.30542
 H1964 H 0.32398 0.57837 0.28253
 H1965 H 0.30860 0.55406 0.27002
 H1966 H 0.26730 0.55995 0.30787
 H1967 H 0.28280 0.58437 0.32039
 H1968 H 0.26325 0.53833 0.28569
 H1969 H 0.29385 0.61073 0.32377
 H1970 H 0.29547 0.53034 0.26248
 C1971 C 0.31635 0.11006 0.80548
 C1972 C 0.30050 0.10185 0.80834
 C1973 C 0.29519 0.08660 0.79813
 C1974 C 0.27867 0.07933 0.80112
 C1975 C 0.27332 0.06473 0.79197
 C1976 C 0.28453 0.05694 0.77974
 C1977 C 0.30088 0.06449 0.77639
 C1978 C 0.30623 0.07914 0.78555
 C1979 C 0.27920 0.04125 0.77015
 C1980 C 0.26743 0.02942 0.77717
 H1981 H 0.29172 0.10672 0.81825
 H1982 H 0.26983 0.08497 0.81055
 H1983 H 0.26029 0.05977 0.79437
 H1984 H 0.30962 0.05888 0.76686
 H1985 H 0.31904 0.08452 0.78284
 H1986 H 0.28454 0.03904 0.75739
 H1987 H 0.31883 0.11861 0.81186
 H1988 H 0.26291 0.03108 0.79030
 C1989 C 0.81049 0.61821 0.81738
 C1990 C 0.81240 0.61210 0.80055
 C1991 C 0.80234 0.59709 0.79387
 C1992 C 0.80905 0.58776 0.77982
 C1993 C 0.80002 0.57350 0.77320
 C1994 C 0.78397 0.56822 0.78054
 C1995 C 0.77699 0.57789 0.79425
 C1996 C 0.78602 0.59216 0.80085
 C1997 C 0.77384 0.55328 0.77379
 C1998 C 0.78133 0.54029 0.76360
 H1999 H 0.82175 0.61819 0.79198
 H2000 H 0.82139 0.59148 0.77395
 H2001 H 0.80557 0.56694 0.76216
 H2002 H 0.76447 0.57439 0.79988
 H2003 H 0.77996 0.59943 0.81119
 H2004 H 0.76000 0.55250 0.77691
 H2005 H 0.80141 0.61167 0.82591
 H2006 H 0.79526 0.54039 0.76090
 C2007 C 0.80742 0.11471 0.32360
 C2008 C 0.80994 0.10682 0.30761
 C2009 C 0.79895 0.09214 0.30190
 C2010 C 0.80606 0.07981 0.29056
 C2011 C 0.79601 0.06573 0.28507
 C2012 C 0.77849 0.06392 0.29058
 C2013 C 0.77137 0.07634 0.30182
 C2014 C 0.78142 0.09037 0.30733
 C2015 C 0.76728 0.04929 0.28507
 C2016 C 0.77057 0.03956 0.27029
 H2017 H 0.82040 0.11098 0.29917
 H2018 H 0.81951 0.08091 0.28618
 H2019 H 0.80219 0.05624 0.27677
 H2020 H 0.75791 0.07531 0.30620
 H2021 H 0.77528 0.09994 0.31560
 H2022 H 0.75551 0.04665 0.29246
 H2023 H 0.79756 0.10936 0.33212
 H2024 H 0.78166 0.04257 0.26213
 C2025 C 0.68159 0.39244 0.31022
 C2026 C 0.69895 0.39809 0.31054
 C2027 C 0.70517 0.41344 0.30076
 C2028 C 0.72072 0.42143 0.30605
 C2029 C 0.72707 0.43600 0.29731
 C2030 C 0.71796 0.44291 0.28301
 C2031 C 0.70271 0.43458 0.27735
 C2032 C 0.69633 0.42000 0.28612
 C2033 C 0.72444 0.45824 0.27337
 C2034 C 0.73547 0.47048 0.28079
 H2035 H 0.70842 0.39122 0.31850
 H2036 H 0.72798 0.41641 0.31704
 H2037 H 0.73931 0.44152 0.30164
 H2038 H 0.69570 0.43940 0.26613
 H2039 H 0.68471 0.41382 0.28115
 H2040 H 0.72046 0.45989 0.26004
 H2041 H 0.67207 0.39921 0.30225
 H2042 H 0.73878 0.46954 0.29433
 C2043 C 0.68199 0.88978 0.80461
 C2044 C 0.69219 0.90209 0.81317
 C2045 C 0.70082 0.91711 0.80472
 C2046 C 0.71486 0.92500 0.81329
 C2047 C 0.72351 0.93922 0.80602
 C2048 C 0.71824 0.94602 0.78991
 C2049 C 0.70400 0.93825 0.78145
 C2050 C 0.69536 0.92397 0.78873
 C2051 C 0.72714 0.96100 0.78146
 C2052 C 0.74206 0.96916 0.78799
 H2053 H 0.69450 0.90050 0.82685
 H2054 H 0.71928 0.92004 0.82566
 H2055 H 0.73423 0.94466 0.81323
 H2056 H 0.69951 0.94327 0.76912
 H2057 H 0.68430 0.91859 0.78191
 H2058 H 0.72193 0.96554 0.76922
 H2059 H 0.67905 0.89149 0.79106
 H2060 H 0.74792 0.96493 0.79998
 C2061 C 0.18813 0.37780 0.82159
 C2062 C 0.17982 0.38984 0.81067
 C2063 C 0.18867 0.40564 0.80412
 C2064 C 0.18260 0.41354 0.78887
 C2065 C 0.19074 0.42843 0.78230
 C2066 C 0.20510 0.43576 0.79099
 C2067 C 0.21079 0.42813 0.80650
 C2068 C 0.20268 0.41328 0.81304
 C2069 C 0.21456 0.45127 0.78458
 C2070 C 0.21303 0.45817 0.76794
 H2071 H 0.16643 0.38771 0.80659
 H2072 H 0.17161 0.40809 0.78193
 H2073 H 0.18561 0.43413 0.77055
 H2074 H 0.22164 0.43363 0.81360
 H2075 H 0.20730 0.40808 0.82521
 H2076 H 0.22405 0.45701 0.79322
 H2077 H 0.20165 0.37989 0.82526
 H2078 H 0.20408 0.45266 0.75869
 C2079 C 0.19284 0.88062 0.32133
 C2080 C 0.18515 0.89346 0.31087
 C2081 C 0.19480 0.90829 0.30325
 C2082 C 0.18799 0.91607 0.28829
 C2083 C 0.19635 0.93019 0.28058
 C2084 C 0.21171 0.93719 0.28784
 C2085 C 0.21849 0.92942 0.30292
 C2086 C 0.21016 0.91513 0.31058
 C2087 C 0.22118 0.95217 0.27995
 C2088 C 0.21499 0.96142 0.26560
 H2089 H 0.17143 0.89246 0.30749
 H2090 H 0.17620 0.91103 0.28237
 H2091 H 0.19060 0.93526 0.26887
 H2092 H 0.23027 0.93447 0.30884
 H2093 H 0.21559 0.90974 0.32234
 H2094 H 0.23375 0.95575 0.28535
 H2095 H 0.20649 0.88179 0.32497
 H2096 H 0.20251 0.95833 0.25987
 C2097 C 0.37935 0.31463 0.68014
 C2098 C 0.38571 0.31736 0.69684
 C2099 C 0.40206 0.30927 0.70358
 C2100 C 0.41041 0.31681 0.71783
 C2101 C 0.42571 0.30938 0.72477
 C2102 C 0.43287 0.29410 0.71764
 C2103 C 0.42445 0.28657 0.70344
 C2104 C 0.40920 0.29397 0.69653
 C2105 C 0.44885 0.28535 0.72444
 C2106 C 0.45751 0.28953 0.73977
 H2107 H 0.37859 0.32582 0.70551
 H2108 H 0.40512 0.32856 0.72356
 H2109 H 0.43180 0.31571 0.73561
 H2110 H 0.42957 0.27472 0.69777
 H2111 H 0.40291 0.28737 0.68596
 H2112 H 0.45372 0.27434 0.71713
 H2113 H 0.38659 0.30621 0.67151
 H2114 H 0.45318 0.30025 0.74769
 C2115 C 0.38461 0.81271 0.18391
 C2116 C 0.39237 0.81742 0.19950
 C2117 C 0.40680 0.80673 0.20700
 C2118 C 0.42030 0.81468 0.21633
 C2119 C 0.43461 0.80483 0.22244
 C2120 C 0.43551 0.78677 0.21949
 C2121 C 0.42169 0.77881 0.21067
 C2122 C 0.40744 0.78860 0.20464
 C2123 C 0.45068 0.77575 0.22482
 C2124 C 0.46320 0.78054 0.23699
 H2125 H 0.38868 0.82942 0.20580
 H2126 H 0.42004 0.82860 0.21842
 H2127 H 0.44506 0.81154 0.22901
 H2128 H 0.42192 0.76492 0.20837
 H2129 H 0.39694 0.78189 0.19811
 H2130 H 0.45165 0.76286 0.21928
 H2131 H 0.39008 0.80155 0.17729
 H2132 H 0.46216 0.79289 0.24353
 C2133 C 0.88126 0.31543 0.17733
 C2134 C 0.89047 0.31919 0.19247
 C2135 C 0.90563 0.30867 0.19878
 C2136 C 0.91734 0.31615 0.21053
 C2137 C 0.93173 0.30668 0.21690
 C2138 C 0.93465 0.28935 0.21173
 C2139 C 0.92283 0.28186 0.20008
 C2140 C 0.90845 0.29132 0.19374
 C2141 C 0.94954 0.27851 0.21816
 C2142 C 0.96129 0.28345 0.23106
 H2143 H 0.88708 0.33060 0.19985
 H2144 H 0.91541 0.32944 0.21474
 H2145 H 0.94043 0.31311 0.22576
 H2146 H 0.92462 0.26851 0.19597
 H2147 H 0.89947 0.28480 0.18519
 H2148 H 0.95098 0.26559 0.21277
 H2149 H 0.88570 0.30461 0.16957
 H2150 H 0.96027 0.29606 0.23706
 C2151 C 0.89104 0.82367 0.68285
 C2152 C 0.89647 0.82414 0.70002
 C2153 C 0.91164 0.81356 0.70614
 C2154 C 0.92167 0.81918 0.72019
 C2155 C 0.93610 0.80933 0.72601
 C2156 C 0.94058 0.79349 0.71797
 C2157 C 0.93035 0.78781 0.70411
 C2158 C 0.91599 0.79760 0.69834
 C2159 C 0.95572 0.78250 0.72337
 C2160 C 0.96407 0.78365 0.73934
 H2161 H 0.88944 0.83211 0.70924
 H2162 H 0.91851 0.83135 0.72650
 H2163 H 0.94378 0.81432 0.73657
 H2164 H 0.93335 0.77560 0.69780
 H2165 H 0.90817 0.79243 0.68795
 H2166 H 0.95985 0.77226 0.71468
 H2167 H 0.89888 0.81627 0.67378
 H2168 H 0.95981 0.79316 0.74870
 C2169 C 0.61861 0.32072 0.31477
 C2170 C 0.61122 0.30493 0.31984
 C2171 C 0.59688 0.29705 0.30971
 C2172 C 0.58396 0.28719 0.31805
 C2173 C 0.56983 0.28043 0.30873
 C2174 C 0.56856 0.28326 0.29081
 C2175 C 0.58177 0.29270 0.28247
 C2176 C 0.59584 0.29938 0.29174
 C2177 C 0.55368 0.27704 0.28029
 C2178 C 0.54216 0.26397 0.28539
 H2179 H 0.61532 0.29853 0.33162
 H2180 H 0.58455 0.28511 0.33187
 H2181 H 0.55981 0.27341 0.31570
 H2182 H 0.58123 0.29492 0.26866
 H2183 H 0.60592 0.30631 0.28474
 H2184 H 0.55224 0.28251 0.26745
 H2185 H 0.61298 0.32729 0.30367
 H2186 H 0.54370 0.25751 0.29772
 C2187 C 0.61351 0.82185 0.80886
 C2188 C 0.60652 0.80554 0.81300
 C2189 C 0.59057 0.79846 0.80458
 C2190 C 0.58099 0.78534 0.81295
 C2191 C 0.56593 0.77833 0.80534
 C2192 C 0.56026 0.78423 0.78903
 C2193 C 0.56996 0.79720 0.78063
 C2194 C 0.58497 0.80415 0.78820
 C2195 C 0.54435 0.77753 0.78028
 C2196 C 0.53543 0.76232 0.78482
 H2197 H 0.61266 0.79761 0.82288
 H2198 H 0.58506 0.78063 0.82553
 H2199 H 0.55876 0.76852 0.81238
 H2200 H 0.56600 0.80190 0.76801
 H2201 H 0.59225 0.81373 0.78095
 H2202 H 0.53986 0.78466 0.76901
 H2203 H 0.60683 0.82981 0.79934
 H2204 H 0.53980 0.75439 0.79557
 C2205 C 0.11770 0.30976 0.82311
 C2206 C 0.10848 0.31513 0.80839
 C2207 C 0.09341 0.30528 0.80143
 C2208 C 0.08092 0.31395 0.79113
 C2209 C 0.06652 0.30503 0.78441
 C2210 C 0.06447 0.28713 0.78775
 C2211 C 0.07709 0.27847 0.79787
 C2212 C 0.09146 0.28736 0.80453
 C2213 C 0.04950 0.27691 0.78114
 C2214 C 0.03777 0.28257 0.76841
 H2215 H 0.11174 0.32720 0.80202
 H2216 H 0.08220 0.32772 0.78843
 H2217 H 0.05705 0.31229 0.77685
 H2218 H 0.07594 0.26468 0.80053
 H2219 H 0.10110 0.28001 0.81182
 H2220 H 0.04808 0.26381 0.78616
 H2221 H 0.11304 0.29849 0.83009
 H2222 H 0.03896 0.29531 0.76260
 C2223 C 0.11760 0.81944 0.31664
 C2224 C 0.10987 0.80310 0.31862
 C2225 C 0.09343 0.79800 0.30982
 C2226 C 0.08358 0.78425 0.31670
 C2227 C 0.06812 0.77886 0.30867
 C2228 C 0.06231 0.78702 0.29339
 C2229 C 0.07215 0.80078 0.28655
 C2230 C 0.08759 0.80616 0.29457
 C2231 C 0.04624 0.78166 0.28411
 C2232 C 0.03789 0.76571 0.28651
 H2233 H 0.11582 0.79356 0.32713
 H2234 H 0.08780 0.77773 0.32842
 H2235 H 0.06078 0.76846 0.31461
 H2236 H 0.06802 0.80725 0.27476
 H2237 H 0.09501 0.81643 0.28850
 H2238 H 0.04140 0.79028 0.27404
 H2239 H 0.11149 0.82893 0.30818
 H2240 H 0.04272 0.75640 0.29590
 C2241 C 0.61730 0.69793 0.67948
 C2242 C 0.60451 0.69069 0.69017
 C2243 C 0.58936 0.70056 0.69728
 C2244 C 0.58053 0.69357 0.71154
 C2245 C 0.56606 0.70216 0.71866
 C2246 C 0.55981 0.71788 0.71144
 C2247 C 0.56870 0.72496 0.69723
 C2248 C 0.58327 0.71637 0.69012
 C2249 C 0.54454 0.72739 0.71882
 C2250 C 0.53208 0.71928 0.72922
 H2251 H 0.60558 0.67709 0.69371
 H2252 H 0.58498 0.68147 0.71736
 H2253 H 0.56011 0.69652 0.73001
 H2254 H 0.56424 0.73710 0.69149
 H2255 H 0.58941 0.72205 0.67889
 H2256 H 0.54319 0.74119 0.71615
 H2257 H 0.61625 0.71146 0.67571
 H2258 H 0.53273 0.70538 0.73133
 C2259 C 0.62154 0.19010 0.17446
 C2260 C 0.61386 0.18656 0.19050
 C2261 C 0.59824 0.19592 0.19732
 C2262 C 0.58816 0.18786 0.21019
 C2263 C 0.57353 0.19628 0.21729
 C2264 C 0.56873 0.21314 0.21178
 C2265 C 0.57887 0.22120 0.19892
 C2266 C 0.59348 0.21275 0.19179
 C2267 C 0.55363 0.22297 0.21916
 C2268 C 0.54286 0.21702 0.23253
 H2269 H 0.61914 0.17625 0.19851
 H2270 H 0.59159 0.17492 0.21474
 H2271 H 0.56623 0.18944 0.22710
 H2272 H 0.57561 0.23423 0.19450
 H2273 H 0.60117 0.21966 0.18229
 H2274 H 0.55112 0.23590 0.21402
 H2275 H 0.61608 0.20043 0.16655
 H2276 H 0.54477 0.20427 0.23814
 C2277 C 0.11022 0.67486 0.18879
 C2278 C 0.10353 0.69178 0.18731
 C2279 C 0.08810 0.69796 0.19718
 C2280 C 0.07817 0.71198 0.19069
 C2281 C 0.06367 0.71836 0.19982
 C2282 C 0.05901 0.71094 0.21579
 C2283 C 0.06898 0.69695 0.22226
 C2284 C 0.08345 0.69058 0.21315
 C2285 C 0.04393 0.71726 0.22608
 C2286 C 0.03625 0.73369 0.22411
 H2287 H 0.10963 0.70098 0.17864
 H2288 H 0.08154 0.71791 0.17844
 H2289 H 0.05612 0.72891 0.19418
 H2290 H 0.06574 0.69108 0.23458
 H2291 H 0.09113 0.68018 0.21889
 H2292 H 0.03934 0.70893 0.23644
 H2293 H 0.10375 0.66572 0.19729
 H2294 H 0.04106 0.74273 0.21452
 C2295 C 0.11466 0.18319 0.68364
 C2296 C 0.10651 0.19857 0.67821
 C2297 C 0.09260 0.20654 0.68894
 C2298 C 0.07793 0.21441 0.68116
 C2299 C 0.06396 0.22049 0.69128
 C2300 C 0.06465 0.21897 0.70938
 C2301 C 0.07966 0.21172 0.71710
 C2302 C 0.09355 0.20572 0.70703
 C2303 C 0.04996 0.22418 0.72074
 C2304 C 0.03664 0.23573 0.71594
 H2305 H 0.10937 0.20422 0.66574
 H2306 H 0.07699 0.21525 0.66724
 H2307 H 0.05252 0.22582 0.68483
 H2308 H 0.08060 0.21057 0.73100
 H2309 H 0.10498 0.20028 0.71345
 H2310 H 0.05018 0.21934 0.73389
 H2311 H 0.10981 0.17713 0.69534
 H2312 H 0.03661 0.24174 0.70330
 C2313 C 0.38162 0.67276 0.30744
 C2314 C 0.39600 0.68079 0.31516
 C2315 C 0.41125 0.68761 0.30552
 C2316 C 0.42190 0.69999 0.31354
 C2317 C 0.43612 0.70726 0.30481
 C2318 C 0.44003 0.70216 0.28786
 C2319 C 0.42972 0.68942 0.28000
 C2320 C 0.41547 0.68217 0.28872
 C2321 C 0.45439 0.71019 0.27791
 C2322 C 0.46431 0.72378 0.28429
 H2323 H 0.39589 0.68279 0.32896
 H2324 H 0.41902 0.70430 0.32653
 H2325 H 0.44389 0.71699 0.31128
 H2326 H 0.43259 0.68517 0.26699
 H2327 H 0.40797 0.67228 0.28225
 H2328 H 0.45669 0.70583 0.26481
 H2329 H 0.38166 0.67012 0.29376
 H2330 H 0.47173 0.72875 0.27824
 C2331 C 0.38431 0.18079 0.81479
 C2332 C 0.38891 0.19826 0.81581
 C2333 C 0.40391 0.20528 0.80589
 C2334 C 0.41305 0.21961 0.81225
 C2335 C 0.42741 0.22630 0.80321
 C2336 C 0.43285 0.21878 0.78753
 C2337 C 0.42326 0.20487 0.78086
 C2338 C 0.40895 0.19817 0.78991
 C2339 C 0.44792 0.22552 0.77748
 C2340 C 0.46121 0.23532 0.78488
 H2341 H 0.38147 0.20701 0.82396
 H2342 H 0.40917 0.22556 0.82431
 H2343 H 0.43394 0.23753 0.80845
 H2344 H 0.42688 0.19913 0.76863
 H2345 H 0.40170 0.18763 0.78418
 H2346 H 0.44854 0.22270 0.76382
 H2347 H 0.39240 0.17217 0.80710
 H2348 H 0.46122 0.23768 0.79861
 C2349 C 0.88476 0.68273 0.82098
 C2350 C 0.89175 0.68127 0.80437
 C2351 C 0.90759 0.69109 0.79896
 C2352 C 0.91826 0.68467 0.78562
 C2353 C 0.93324 0.69376 0.78032
 C2354 C 0.93771 0.70961 0.78815
 C2355 C 0.92693 0.71606 0.80136
 C2356 C 0.91200 0.70704 0.80660
 C2357 C 0.95342 0.71983 0.78317
 C2358 C 0.96222 0.71811 0.76746
 H2359 H 0.88562 0.67283 0.79507
 H2360 H 0.91512 0.67248 0.77944
 H2361 H 0.94134 0.68815 0.77031
 H2362 H 0.92995 0.72830 0.80752
 H2363 H 0.90379 0.71284 0.81643
 H2364 H 0.95759 0.72996 0.79188
 H2365 H 0.89172 0.69056 0.83026
 H2366 H 0.95782 0.70878 0.75805
 C2367 C 0.87768 0.18145 0.31621
 C2368 C 0.88696 0.19661 0.31998
 C2369 C 0.90187 0.20275 0.30920
 C2370 C 0.91447 0.21376 0.31649
 C2371 C 0.92869 0.21971 0.30669
 C2372 C 0.93051 0.21484 0.28932
 C2373 C 0.91780 0.20407 0.28197
 C2374 C 0.90358 0.19819 0.29172
 C2375 C 0.94524 0.22089 0.27842
 C2376 C 0.95766 0.23271 0.28409
 H2377 H 0.88381 0.20400 0.33139
 H2378 H 0.91338 0.21765 0.32986
 H2379 H 0.93823 0.22808 0.31273
 H2380 H 0.91877 0.20030 0.26856
 H2381 H 0.89384 0.19034 0.28534
 H2382 H 0.94606 0.21631 0.26524
 H2383 H 0.88206 0.17370 0.30542
 H2384 H 0.96550 0.23618 0.27749
 C2385 C 0.30606 0.31324 0.61618
 C2386 C 0.31437 0.30367 0.60323
 C2387 C 0.30499 0.29766 0.58762
 C2388 C 0.31153 0.28325 0.57857
 C2389 C 0.30285 0.27714 0.56392
 C2390 C 0.28742 0.28544 0.55798
 C2391 C 0.28127 0.30023 0.56670
 C2392 C 0.28993 0.30631 0.58131
 C2393 C 0.27729 0.27927 0.54289
 C2394 C 0.27920 0.26279 0.53561
 H2395 H 0.32814 0.30030 0.60447
 H2396 H 0.32331 0.27657 0.58296
 H2397 H 0.30840 0.26605 0.55732
 H2398 H 0.26961 0.30707 0.56226
 H2399 H 0.28488 0.31794 0.58741
 H2400 H 0.26703 0.28777 0.53793
 H2401 H 0.29217 0.31611 0.61500
 H2402 H 0.28888 0.25368 0.54052
 C2403 C 0.32332 0.81153 0.11079
 C2404 C 0.30580 0.81139 0.10551
 C2405 C 0.29932 0.80187 0.09025
 C2406 C 0.28261 0.80615 0.08389
 C2407 C 0.27556 0.79727 0.06990
 C2408 C 0.28514 0.78383 0.06181
 C2409 C 0.30181 0.77943 0.06830
 C2410 C 0.30885 0.78830 0.08237
 C2411 C 0.27799 0.77372 0.04716
 C2412 C 0.26283 0.77856 0.03821
 H2413 H 0.29615 0.81854 0.11294
 H2414 H 0.27489 0.81639 0.08984
 H2415 H 0.26246 0.80089 0.06587
 H2416 H 0.30937 0.76896 0.06255
 H2417 H 0.32153 0.78415 0.08718
 H2418 H 0.28477 0.76188 0.04345
 H2419 H 0.33308 0.80421 0.10370
 H2420 H 0.25602 0.79054 0.04118
 C2421 C 0.81350 0.32723 0.10887
 C2422 C 0.81346 0.31005 0.10310
 C2423 C 0.80507 0.30428 0.08685
 C2424 C 0.80910 0.28757 0.08081
 C2425 C 0.80156 0.28135 0.06567
 C2426 C 0.78980 0.29180 0.05607
 C2427 C 0.78540 0.30837 0.06230
 C2428 C 0.79295 0.31460 0.07750
 C2429 C 0.78139 0.28541 0.04007
 C2430 C 0.78875 0.27206 0.03029
 H2431 H 0.81998 0.30017 0.11082
 H2432 H 0.81813 0.27921 0.08787
 H2433 H 0.80473 0.26820 0.06184
 H2434 H 0.77610 0.31652 0.05536
 H2435 H 0.78897 0.32734 0.08190
 H2436 H 0.76896 0.29111 0.03610
 H2437 H 0.80668 0.33722 0.10159
 H2438 H 0.80154 0.26685 0.03364
 C2439 C 0.82190 0.81707 0.61755
 C2440 C 0.80715 0.82143 0.60768
 C2441 C 0.80163 0.81065 0.59286
 C2442 C 0.79263 0.81846 0.57902
 C2443 C 0.78787 0.80868 0.56461
 C2444 C 0.79184 0.79077 0.56388
 C2445 C 0.80056 0.78293 0.57786
 C2446 C 0.80525 0.79267 0.59225
 C2447 C 0.78734 0.77981 0.54887
 C2448 C 0.77427 0.78409 0.53695
 H2449 H 0.80009 0.83344 0.61002
 H2450 H 0.78962 0.83226 0.57921
 H2451 H 0.78145 0.81530 0.55399
 H2452 H 0.80364 0.76915 0.57771
 H2453 H 0.81156 0.78599 0.60291
 H2454 H 0.79382 0.76726 0.54781
 H2455 H 0.82959 0.80585 0.61369
 H2456 H 0.76676 0.79600 0.53829
 C2457 C 0.32243 0.68365 0.38240
 C2458 C 0.30691 0.68221 0.39186
 C2459 C 0.30344 0.69276 0.40745
 C2460 C 0.29225 0.68617 0.42020
 C2461 C 0.28862 0.69576 0.43506
 C2462 C 0.29584 0.71243 0.43731
 C2463 C 0.30705 0.71900 0.42453
 C2464 C 0.31077 0.70935 0.40972
 C2465 C 0.29186 0.72342 0.45255
 C2466 C 0.27774 0.72035 0.46357
 H2467 H 0.29714 0.67279 0.38825
 H2468 H 0.28644 0.67344 0.41875
 H2469 H 0.28029 0.68986 0.44468
 H2470 H 0.31276 0.73179 0.42587
 H2471 H 0.31905 0.71513 0.39996
 H2472 H 0.29966 0.73496 0.45455
 H2473 H 0.33226 0.69267 0.38684
 H2474 H 0.26919 0.70944 0.46141
 C2475 C 0.31186 0.17577 0.88085
 C2476 C 0.31491 0.19143 0.88941
 C2477 C 0.30595 0.19647 0.90569
 C2478 C 0.31359 0.20932 0.91597
 C2479 C 0.30558 0.21469 0.93130
 C2480 C 0.28964 0.20729 0.93676
 C2481 C 0.28181 0.19468 0.92632
 C2482 C 0.28983 0.18929 0.91097
 C2483 C 0.28038 0.21314 0.95263
 C2484 C 0.28866 0.22225 0.96582
 H2485 H 0.32455 0.20035 0.88437
 H2486 H 0.32583 0.21529 0.91211
 H2487 H 0.31179 0.22494 0.93849
 H2488 H 0.26936 0.18903 0.93000
 H2489 H 0.28311 0.17983 0.90317
 H2490 H 0.26646 0.21058 0.95374
 H2491 H 0.30240 0.16685 0.88624
 H2492 H 0.30267 0.22433 0.96534
 C2493 C 0.81332 0.68645 0.88487
 C2494 C 0.79608 0.68449 0.89076
 C2495 C 0.78901 0.69427 0.90567
 C2496 C 0.77501 0.68731 0.91517
 C2497 C 0.76804 0.69624 0.92932
 C2498 C 0.77484 0.71250 0.93409
 C2499 C 0.78867 0.71953 0.92441
 C2500 C 0.79563 0.71061 0.91032
 C2501 C 0.76817 0.72261 0.94897
 C2502 C 0.75276 0.71905 0.95807
 H2503 H 0.78740 0.67539 0.88460
 H2504 H 0.76961 0.67479 0.91176
 H2505 H 0.75753 0.69022 0.93649
 H2506 H 0.79407 0.73209 0.92767
 H2507 H 0.80594 0.71675 0.90295
 H2508 H 0.77562 0.73398 0.95260
 H2509 H 0.82192 0.69519 0.89170
 H2510 H 0.74456 0.70820 0.95465
 C2511 C 0.81128 0.18308 0.38881
 C2512 C 0.81334 0.19997 0.39494
 C2513 C 0.80244 0.20637 0.40943
 C2514 C 0.80951 0.21795 0.42142
 C2515 C 0.79951 0.22348 0.43557
 C2516 C 0.78210 0.21772 0.43777
 C2517 C 0.77499 0.20647 0.42550
 C2518 C 0.78496 0.20094 0.41145
 C2519 C 0.77089 0.22289 0.45258
 C2520 C 0.77462 0.23668 0.46354
 H2521 H 0.82305 0.20852 0.38938
 H2522 H 0.82291 0.22236 0.42008
 H2523 H 0.80567 0.23195 0.44480
 H2524 H 0.76160 0.20195 0.42674
 H2525 H 0.77889 0.19250 0.40209
 H2526 H 0.75869 0.21597 0.45447
 H2527 H 0.80222 0.17470 0.39563
 H2528 H 0.78625 0.24440 0.46160
 C2529 C 0.68722 0.33041 0.38407
 C2530 C 0.68703 0.31342 0.39057
 C2531 C 0.69577 0.30787 0.40683
 C2532 C 0.69136 0.29164 0.41386
 C2533 C 0.69932 0.28557 0.42897
 C2534 C 0.71189 0.29569 0.43758
 C2535 C 0.71657 0.31179 0.43040
 C2536 C 0.70861 0.31786 0.41521
 C2537 C 0.72093 0.28941 0.45345
 C2538 C 0.71424 0.27611 0.46376
 H2539 H 0.68008 0.30355 0.38347
 H2540 H 0.68173 0.28353 0.40757
 H2541 H 0.69580 0.27276 0.43351
 H2542 H 0.72647 0.31968 0.43654
 H2543 H 0.71289 0.33019 0.41003
 H2544 H 0.73340 0.29513 0.45686
 H2545 H 0.69437 0.34033 0.39088
 H2546 H 0.70148 0.27074 0.46099
 C2547 C 0.68483 0.82534 0.87618
 C2548 C 0.68257 0.80892 0.88362
 C2549 C 0.69162 0.80327 0.89967
 C2550 C 0.68445 0.78958 0.90931
 C2551 C 0.69259 0.78372 0.92444
 C2552 C 0.70818 0.79146 0.93030
 C2553 C 0.71558 0.80489 0.92045
 C2554 C 0.70742 0.81076 0.90531
 C2555 C 0.71752 0.78521 0.94598
 C2556 C 0.70939 0.77544 0.95887
 H2557 H 0.67362 0.79984 0.87778
 H2558 H 0.67249 0.78336 0.90511
 H2559 H 0.68678 0.77286 0.93118
 H2560 H 0.72777 0.81082 0.92444
 H2561 H 0.71381 0.82087 0.89794
 H2562 H 0.73136 0.78812 0.94724
 H2563 H 0.69361 0.83440 0.88231
 H2564 H 0.69543 0.77308 0.95829
 C2565 C 0.18529 0.31067 0.89119
 C2566 C 0.20236 0.31293 0.89741
 C2567 C 0.20927 0.30333 0.91262
 C2568 C 0.22320 0.31038 0.92208
 C2569 C 0.23012 0.30154 0.93642
 C2570 C 0.22332 0.28530 0.94144
 C2571 C 0.20951 0.27823 0.93185
 C2572 C 0.20262 0.28703 0.91756
 C2573 C 0.22998 0.27524 0.95647
 C2574 C 0.24552 0.27869 0.96538
 H2575 H 0.21107 0.32202 0.89116
 H2576 H 0.22863 0.32286 0.91846
 H2577 H 0.24061 0.30759 0.94351
 H2578 H 0.20410 0.26569 0.93531
 H2579 H 0.19236 0.28081 0.91027
 H2580 H 0.22248 0.26394 0.96032
 H2581 H 0.17662 0.30195 0.89805
 H2582 H 0.25375 0.28948 0.96174
 C2583 C 0.18455 0.80869 0.38600
 C2584 C 0.19712 0.81485 0.39752
 C2585 C 0.20383 0.80456 0.41233
 C2586 C 0.22076 0.80801 0.41841
 C2587 C 0.22771 0.79874 0.43237
 C2588 C 0.21768 0.78601 0.44093
 C2589 C 0.20071 0.78253 0.43482
 C2590 C 0.19380 0.79173 0.42069
 C2591 C 0.22470 0.77588 0.45582
 C2592 C 0.23922 0.78123 0.46532
 H2593 H 0.20294 0.82745 0.39541
 H2594 H 0.22878 0.81775 0.41214
 H2595 H 0.24107 0.80147 0.43607
 H2596 H 0.19272 0.77276 0.44108
 H2597 H 0.18053 0.78898 0.41662
 H2598 H 0.21836 0.76380 0.45930
 H2599 H 0.17897 0.79597 0.38824
 H2600 H 0.24529 0.79359 0.46257
 C2601 C 0.68301 0.68646 0.60944
 C2602 C 0.68277 0.70376 0.60375
 C2603 C 0.69110 0.70999 0.58759
 C2604 C 0.70289 0.69977 0.57790
 C2605 C 0.71090 0.70657 0.56315
 C2606 C 0.70748 0.72380 0.55786
 C2607 C 0.69540 0.73382 0.56725
 C2608 C 0.68739 0.72704 0.58200
 C2609 C 0.71640 0.73177 0.54286
 C2610 C 0.73291 0.72629 0.53718
 H2611 H 0.67636 0.71348 0.61163
 H2612 H 0.70631 0.68663 0.58167
 H2613 H 0.71973 0.69825 0.55595
 H2614 H 0.69243 0.74709 0.56338
 H2615 H 0.67835 0.73521 0.58916
 H2616 H 0.71048 0.74324 0.53703
 H2617 H 0.68979 0.67663 0.60203
 H2618 H 0.73960 0.71560 0.54359
 C2619 C 0.69427 0.18373 0.10956
 C2620 C 0.69087 0.19897 0.10025
 C2621 C 0.70211 0.20421 0.08554
 C2622 C 0.69473 0.21375 0.07187
 C2623 C 0.70490 0.21827 0.05753
 C2624 C 0.72282 0.21357 0.05674
 C2625 C 0.73022 0.20422 0.07054
 C2626 C 0.72006 0.19971 0.08485
 C2627 C 0.73420 0.21811 0.04189
 C2628 C 0.73022 0.23152 0.03036
 H2629 H 0.67924 0.20667 0.10290
 H2630 H 0.68096 0.21740 0.07212
 H2631 H 0.69851 0.22514 0.04705
 H2632 H 0.74398 0.20053 0.07034
 H2633 H 0.72640 0.19288 0.09540
 H2634 H 0.74671 0.21140 0.04063
 H2635 H 0.70514 0.17562 0.10540
 H2636 H 0.71834 0.23914 0.03196
 C2637 C 0.17789 0.68404 0.12061
 C2638 C 0.19260 0.67994 0.11062
 C2639 C 0.19779 0.69077 0.09560
 C2640 C 0.20697 0.68303 0.08192
 C2641 C 0.21153 0.69279 0.06733
 C2642 C 0.20719 0.71061 0.06626
 C2643 C 0.19821 0.71837 0.08004
 C2644 C 0.19371 0.70865 0.09462
 C2645 C 0.21167 0.72149 0.05108
 C2646 C 0.22534 0.71744 0.03981
 H2647 H 0.19987 0.66804 0.11299
 H2648 H 0.21032 0.66932 0.08238
 H2649 H 0.21813 0.68621 0.05686
 H2650 H 0.19483 0.73209 0.07961
 H2651 H 0.18723 0.71528 0.10514
 H2652 H 0.20476 0.73377 0.04942
 H2653 H 0.17003 0.69521 0.11682
 H2654 H 0.23327 0.70589 0.04193
 C2655 C 0.18554 0.17538 0.61613
 C2656 C 0.18277 0.19143 0.60790
 C2657 C 0.19226 0.19685 0.59207
 C2658 C 0.18471 0.20972 0.58144
 C2659 C 0.19326 0.21533 0.56647
 C2660 C 0.20975 0.20833 0.56194
 C2661 C 0.21730 0.19547 0.57258
 C2662 C 0.20875 0.18986 0.58753
 C2663 C 0.21948 0.21395 0.54632
 C2664 C 0.21630 0.22959 0.53757
 H2665 H 0.17297 0.20037 0.61275
 H2666 H 0.17203 0.21533 0.58464
 H2667 H 0.18676 0.22497 0.55847
 H2668 H 0.23002 0.18991 0.56944
 H2669 H 0.21532 0.18033 0.59561
 H2670 H 0.23039 0.20587 0.54215
 H2671 H 0.19505 0.16643 0.61071
 H2672 H 0.20617 0.23846 0.54195
   
