data_POSCAR
  _audit_creation_date              2014-09-24
  _audit_creation_method            'ToBaCCo'
  _symmetry_space_group_name_H-M    'P1'
  _symmetry_Int_Tables_number       1
  _symmetry_cell_setting            triclinic
  loop_
  _symmetry_equiv_pos_as_xyz
 x,y,z
_cell_length_a 63.2700
_cell_length_b 63.2894
_cell_length_c 63.2821
_cell_angle_alpha 90.022500
_cell_angle_beta 90.003900
_cell_angle_gamma 89.925900
loop_
  _atom_site_label
  _atom_site_type_symbol
  _atom_site_fract_x
  _atom_site_fract_y
  _atom_site_fract_z
C1 C 0.24875 1.04684 0.02118
 C2 C 0.24875 1.05798 0.00211
 C3 C 0.24890 1.04743 -0.01729
 C4 C 0.24915 1.02508 -0.01784
 C5 C 0.24907 1.01357 0.00141
 C6 C 0.24882 1.02447 0.02103
 C7 C 0.24865 1.01270 0.03990
 C8 C 0.24867 0.99070 0.03953
 C9 C 0.24896 0.97960 0.02029
 C10 C 0.24922 0.99112 0.00104
 C11 C 0.24948 1.01392 -0.03709
 C12 C 0.24974 0.99194 -0.03744
 C13 C 0.24959 0.98020 -0.01856
 C14 C 0.24979 0.95784 -0.01870
 C15 C 0.24945 0.94672 0.00036
 C16 C 0.24898 0.95728 0.01973
 H17 H 0.24845 1.02044 0.05516
 H18 H 0.24850 0.98243 0.05451
 H19 H 0.24958 1.02214 -0.05209
 H20 H 0.25001 0.98419 -0.05269
 H21 H 0.24862 1.07516 0.00238
 H22 H 0.24952 0.92955 0.00017
 C23 C 0.75144 0.45801 0.48273
 C24 C 0.75145 0.44716 0.50193
 C25 C 0.75116 0.45799 0.52116
 C26 C 0.75094 0.48032 0.52138
 C27 C 0.75086 0.49152 0.50196
 C28 C 0.75109 0.48033 0.48253
 C29 C 0.75094 0.49173 0.46347
 C30 C 0.75057 0.51373 0.46347
 C31 C 0.75038 0.52514 0.48254
 C32 C 0.75056 0.51395 0.50196
 C33 C 0.75078 0.49174 0.54045
 C34 C 0.75058 0.51375 0.54046
 C35 C 0.75046 0.52516 0.52139
 C36 C 0.75026 0.54749 0.52117
 C37 C 0.75000 0.55833 0.50195
 C38 C 0.75003 0.54747 0.48274
 H39 H 0.75109 0.48372 0.44835
 H40 H 0.75046 0.52173 0.44835
 H41 H 0.75084 0.48372 0.55556
 H42 H 0.75048 0.52177 0.55557
 H43 H 0.75166 0.43001 0.50192
 H44 H 0.74980 0.57548 0.50194
 C45 C 0.75120 0.98349 1.04731
 C46 C 0.75221 1.00262 1.05825
 C47 C 0.75242 1.02191 1.04750
 C48 C 0.75154 1.02224 1.02514
 C49 C 0.75057 1.00286 1.01387
 C50 C 0.75042 0.98340 1.02501
 C51 C 0.74952 0.96438 1.01355
 C52 C 0.74881 0.96445 0.99157
 C53 C 0.74892 0.98354 0.98021
 C54 C 0.74976 1.00293 0.99144
 C55 C 0.75162 1.04133 1.01375
 C56 C 0.75077 1.04141 0.99175
 C57 C 0.74985 1.02238 0.98027
 C58 C 0.74904 1.02219 0.95791
 C59 C 0.74827 1.00296 0.94707
 C60 C 0.74825 0.98376 0.95791
 H61 H 0.74938 0.94924 1.02150
 H62 H 0.74816 0.94936 0.98354
 H63 H 0.75234 1.05643 1.02178
 H64 H 0.75088 1.05655 0.98379
 H65 H 0.75286 1.00245 1.07540
 H66 H 0.74775 1.00289 0.92991
 C67 C 0.25045 0.52033 0.54718
 C68 C 0.25014 0.50103 0.55789
 C69 C 0.24944 0.48190 0.54692
 C70 C 0.24905 0.48186 0.52459
 C71 C 0.24933 0.50135 0.51352
 C72 C 0.25001 0.52070 0.52485
 C73 C 0.25024 0.53983 0.51356
 C74 C 0.24983 0.53997 0.49154
 C75 C 0.24920 0.52098 0.48001
 C76 C 0.24894 0.50149 0.49109
 C77 C 0.24841 0.46287 0.51306
 C78 C 0.24808 0.46301 0.49106
 C79 C 0.24835 0.48214 0.47977
 C80 C 0.24806 0.48247 0.45745
 C81 C 0.24829 0.50174 0.44672
 C82 C 0.24883 0.52089 0.45768
 H83 H 0.25074 0.55488 0.52168
 H84 H 0.25003 0.55512 0.48361
 H85 H 0.24819 0.44771 0.52097
 H86 H 0.24761 0.44795 0.48295
 H87 H 0.25047 0.50090 0.57504
 H88 H 0.24808 0.50183 0.42957
 C89 C 0.95770 0.25010 -0.02100
 C90 C 0.94699 0.25083 -0.00170
 C91 C 0.95795 0.25062 0.01744
 C92 C 0.98026 0.24975 0.01752
 C93 C 0.99137 0.24894 -0.00195
 C94 C 0.98006 0.24909 -0.02133
 C95 C 0.99141 0.24820 -0.04043
 C96 C 1.01340 0.24719 -0.04051
 C97 C 1.02494 0.24707 -0.02148
 C98 C 1.01381 0.24798 -0.00202
 C99 C 0.99173 0.24965 0.03654
 C100 C 1.01371 0.24879 0.03648
 C101 C 1.02509 0.24794 0.01738
 C102 C 1.04744 0.24704 0.01713
 C103 C 1.05821 0.24609 -0.00213
 C104 C 1.04730 0.24606 -0.02133
 H105 H 0.98335 0.24827 -0.05553
 H106 H 1.02132 0.24652 -0.05566
 H107 H 0.98379 0.25026 0.05168
 H108 H 1.02173 0.24878 0.05159
 H109 H 0.92984 0.25154 -0.00153
 H110 H 1.07538 0.24537 -0.00216
 C111 C 0.45818 0.75089 0.47913
 C112 C 0.44731 0.75136 0.49833
 C113 C 0.45813 0.75112 0.51756
 C114 C 0.48045 0.75048 0.51780
 C115 C 0.49167 0.74991 0.49839
 C116 C 0.48050 0.75007 0.47894
 C117 C 0.49193 0.74940 0.45990
 C118 C 0.51394 0.74856 0.45994
 C119 C 0.52532 0.74842 0.47903
 C120 C 0.51409 0.74915 0.49843
 C121 C 0.49182 0.75039 0.53688
 C122 C 0.51382 0.74975 0.53692
 C123 C 0.52526 0.74910 0.51787
 C124 C 0.54757 0.74839 0.51772
 C125 C 0.55845 0.74760 0.49854
 C126 C 0.54765 0.74757 0.47930
 H127 H 0.48393 0.74949 0.44477
 H128 H 0.52198 0.74803 0.44484
 H129 H 0.48379 0.75084 0.55198
 H130 H 0.52180 0.74973 0.55205
 H131 H 0.43016 0.75189 0.49831
 H132 H 0.57560 0.74701 0.49859
 C133 C 0.02044 0.75026 0.04259
 C134 C 0.00124 0.74944 0.05343
 C135 C -0.01799 0.74904 0.04259
 C136 C -0.01821 0.74951 0.02024
 C137 C 0.00123 0.75028 0.00905
 C138 C 0.02065 0.75064 0.02027
 C139 C 0.03972 0.75135 0.00888
 C140 C 0.03973 0.75169 -0.01312
 C141 C 0.02068 0.75137 -0.02456
 C142 C 0.00124 0.75069 -0.01340
 C143 C -0.03726 0.74923 0.00877
 C144 C -0.03725 0.74970 -0.01322
 C145 C -0.01817 0.75042 -0.02464
 C146 C -0.01793 0.75087 -0.04700
 C147 C 0.00133 0.75148 -0.05780
 C148 C 0.02052 0.75171 -0.04689
 H149 H 0.05482 0.75163 0.01692
 H150 H 0.05486 0.75222 -0.02111
 H151 H -0.05239 0.74867 0.01674
 H152 H -0.05237 0.74947 -0.02122
 H153 H 0.00132 0.74912 0.07060
 H154 H 0.00143 0.75177 -0.07496
 C155 C 0.52026 0.25110 0.45295
 C156 C 0.50091 0.25087 0.44231
 C157 C 0.48181 0.25050 0.45336
 C158 C 0.48186 0.25030 0.47569
 C159 C 0.50141 0.25057 0.48669
 C160 C 0.52072 0.25100 0.47528
 C161 C 0.53991 0.25131 0.48650
 C162 C 0.54014 0.25120 0.50852
 C163 C 0.52119 0.25073 0.52013
 C164 C 0.50165 0.25040 0.50912
 C165 C 0.46292 0.24984 0.48730
 C166 C 0.46315 0.24961 0.50930
 C167 C 0.48234 0.24988 0.52051
 C168 C 0.48277 0.24965 0.54284
 C169 C 0.50209 0.25002 0.55349
 C170 C 0.52120 0.25059 0.54247
 H171 H 0.55493 0.25165 0.47832
 H172 H 0.55533 0.25146 0.51639
 H173 H 0.44772 0.24962 0.47945
 H174 H 0.44812 0.24924 0.51746
 H175 H 0.50072 0.25098 0.42516
 H176 H 0.50225 0.24986 0.57065
 C177 C 0.95270 -0.02140 0.24925
 C178 C 0.94197 -0.00208 0.24897
 C179 C 0.95294 0.01704 0.24899
 C180 C 0.97527 0.01709 0.24941
 C181 C 0.98638 -0.00240 0.24957
 C182 C 0.97507 -0.02176 0.24943
 C183 C 0.98645 -0.04089 0.24947
 C184 C 1.00846 -0.04100 0.24966
 C185 C 1.01998 -0.02199 0.24990
 C186 C 1.00883 -0.00252 0.24990
 C187 C 0.98676 0.03609 0.24969
 C188 C 1.00875 0.03598 0.25014
 C189 C 1.02009 0.01686 0.25024
 C190 C 1.04241 0.01658 0.25069
 C191 C 1.05323 -0.00265 0.25060
 C192 C 1.04236 -0.02185 0.25016
 H193 H 0.97840 -0.05597 0.24932
 H194 H 1.01641 -0.05616 0.24965
 H195 H 0.97882 0.05126 0.24960
 H196 H 1.01681 0.05106 0.25037
 H197 H 0.92480 -0.00187 0.24875
 H198 H 1.07039 -0.00263 0.25088
 C199 C 0.45266 0.47945 0.74916
 C200 C 0.44183 0.49869 0.74893
 C201 C 0.45270 0.51789 0.74912
 C202 C 0.47504 0.51803 0.74965
 C203 C 0.48622 0.49858 0.74977
 C204 C 0.47500 0.47918 0.74947
 C205 C 0.48641 0.46009 0.74950
 C206 C 0.50843 0.46004 0.74978
 C207 C 0.51985 0.47908 0.75013
 C208 C 0.50866 0.49853 0.75019
 C209 C 0.48647 0.53707 0.75005
 C210 C 0.50847 0.53702 0.75059
 C211 C 0.51987 0.51793 0.75065
 C212 C 0.54220 0.51768 0.75115
 C213 C 0.55304 0.49845 0.75099
 C214 C 0.54219 0.47925 0.75043
 H215 H 0.47838 0.44500 0.74926
 H216 H 0.51644 0.44492 0.74975
 H217 H 0.47847 0.55221 0.75000
 H218 H 0.51650 0.55211 0.75091
 H219 H 0.42468 0.49874 0.74861
 H220 H 0.57019 0.49842 0.75129
 C221 C 1.01675 0.95312 0.74885
 C222 C 0.99729 0.94273 0.74941
 C223 C 0.97832 0.95401 0.74995
 C224 C 0.97858 0.97634 0.74988
 C225 C 0.99823 0.98712 0.74939
 C226 C 1.01743 0.97548 0.74891
 C227 C 1.03673 0.98651 0.74851
 C228 C 1.03718 1.00849 0.74863
 C229 C 1.01835 1.02035 0.74908
 C230 C 0.99869 1.00957 0.74942
 C231 C 0.95975 0.98815 0.75028
 C232 C 0.96018 1.01015 0.75022
 C233 C 0.97947 1.02119 0.74982
 C234 C 0.98014 1.04355 0.74982
 C235 C 0.99959 1.05397 0.74955
 C236 C 1.01860 1.04271 0.74922
 H237 H 1.05169 0.97819 0.74814
 H238 H 1.05247 1.01615 0.74833
 H239 H 0.94448 0.98046 0.75063
 H240 H 0.94522 1.01846 0.75053
 H241 H 0.99685 0.92557 0.74944
 H242 H 0.99995 1.07114 0.74963
 C243 C 0.48050 0.54298 0.24868
 C244 C 0.50006 0.55318 0.24849
 C245 C 0.51891 0.54171 0.24844
 C246 C 0.51841 0.51940 0.24853
 C247 C 0.49863 0.50885 0.24878
 C248 C 0.47957 0.52068 0.24888
 C249 C 0.46014 0.50991 0.24919
 C250 C 0.45944 0.48791 0.24945
 C251 C 0.47815 0.47587 0.24935
 C252 C 0.49792 0.48643 0.24897
 C253 C 0.53711 0.50737 0.24838
 C254 C 0.53641 0.48538 0.24849
 C255 C 0.51699 0.47461 0.24880
 C256 C 0.51608 0.45231 0.24896
 C257 C 0.49654 0.44209 0.24939
 C258 C 0.47767 0.45355 0.24962
 H259 H 0.44529 0.51843 0.24927
 H260 H 0.44409 0.48039 0.24971
 H261 H 0.55247 0.51489 0.24817
 H262 H 0.55127 0.47688 0.24836
 H263 H 0.50061 0.57032 0.24841
 H264 H 0.49602 0.42495 0.24957
 O265 O 0.24665 0.19483 0.22417
 O266 O 0.26964 0.18903 0.25356
 O267 O 0.19101 0.22016 0.25437
 O268 O 0.18301 0.24765 0.27495
 O269 O 0.21678 0.24936 0.19818
 O270 O 0.24440 0.27434 0.19363
 O271 O 0.24571 0.27888 0.30824
 O272 O 0.22115 0.25054 0.31345
 O273 O 0.30018 0.25066 0.28286
 O274 O 0.30636 0.22616 0.25272
 O275 O 0.27450 0.30438 0.25434
 O276 O 0.24477 0.31102 0.23046
 O277 O 0.24583 0.30423 0.28274
 O278 O 0.22160 0.31026 0.25214
 O279 O 0.30012 0.27910 0.25450
 O280 O 0.30657 0.25210 0.23026
 O281 O 0.27472 0.25114 0.30829
 O282 O 0.24926 0.22686 0.31483
 O283 O 0.24653 0.22022 0.19870
 O284 O 0.27037 0.25006 0.19341
 O285 O 0.19126 0.24949 0.22363
 O286 O 0.18593 0.27403 0.25341
 O287 O 0.21659 0.19484 0.25341
 O288 O 0.24718 0.18855 0.27667
 Zr289 Zr 0.24520 0.21184 0.25274
 O290 O 0.26463 0.23013 0.27257
 Zr291 Zr 0.20784 0.24872 0.25260
 O292 O 0.22573 0.26855 0.27254
 Zr293 Zr 0.24513 0.24897 0.21548
 O294 O 0.26461 0.26875 0.23381
 Zr295 Zr 0.24618 0.25035 0.29126
 O296 O 0.22633 0.23011 0.27333
 Zr297 Zr 0.28334 0.25047 0.25420
 O298 O 0.26563 0.23039 0.23408
 Zr299 Zr 0.24594 0.28736 0.25407
 O300 O 0.22626 0.26916 0.23402
 O301 O 0.22559 0.22926 0.23303
 O302 O 0.26584 0.27025 0.27393
 C303 C 0.24719 0.20091 0.20484
 C304 C 0.19723 0.20086 0.25441
 C305 C 0.19743 0.24981 0.20427
 C306 C 0.24572 0.29819 0.30209
 C307 C 0.29406 0.25101 0.30219
 C308 C 0.29388 0.29839 0.25450
 H309 H 0.27320 0.22062 0.28154
 H310 H 0.27353 0.27736 0.22431
 H311 H 0.21665 0.22010 0.22404
 H312 H 0.21611 0.27713 0.28139
 H313 H 0.21172 0.23863 0.30973
 H314 H 0.18814 0.25476 0.28788
 H315 H 0.30072 0.24455 0.21789
 H316 H 0.26491 0.24616 0.17923
 H317 H 0.24050 0.21479 0.31026
 H318 H 0.23475 0.19034 0.28600
 H319 H 0.25564 0.30759 0.21976
 H320 H 0.23388 0.28469 0.19887
 H321 H 0.28081 0.19408 0.24384
 H322 H 0.30372 0.21628 0.26453
 H323 H 0.19014 0.28406 0.24217
 H324 H 0.21161 0.30763 0.26387
 O325 O 0.74933 0.80097 0.21660
 O326 O 0.72674 0.80734 0.24673
 O327 O 0.80489 0.77580 0.24701
 O328 O 0.81312 0.74825 0.26713
 O329 O 0.77913 0.74648 0.19043
 O330 O 0.75182 0.72261 0.18489
 O331 O 0.74994 0.71690 0.30041
 O332 O 0.77398 0.74531 0.30613
 O333 O 0.69511 0.74417 0.27417
 O334 O 0.68930 0.76868 0.24871
 O335 O 0.72217 0.69092 0.24632
 O336 O 0.75220 0.68453 0.22279
 O337 O 0.75043 0.69145 0.27500
 O338 O 0.77539 0.68593 0.24453
 O339 O 0.69626 0.71592 0.24664
 O340 O 0.69239 0.74420 0.21929
 O341 O 0.72047 0.74418 0.29977
 O342 O 0.74574 0.76897 0.30681
 O343 O 0.74976 0.77571 0.19098
 O344 O 0.72437 0.74604 0.18721
 O345 O 0.80457 0.74651 0.21598
 O346 O 0.80998 0.72192 0.24610
 O347 O 0.77922 0.80101 0.24603
 O348 O 0.74827 0.80680 0.26954
 Zr349 Zr 0.75062 0.78397 0.24518
 O350 O 0.73106 0.76533 0.26445
 Zr351 Zr 0.78810 0.74724 0.24501
 O352 O 0.77030 0.72735 0.26494
 Zr353 Zr 0.75084 0.74699 0.20781
 O354 O 0.73180 0.72664 0.22595
 Zr355 Zr 0.74943 0.74537 0.28341
 O356 O 0.76945 0.76569 0.26576
 Zr357 Zr 0.71265 0.74483 0.24602
 O358 O 0.73022 0.76551 0.22636
 Zr359 Zr 0.75052 0.70828 0.24629
 O360 O 0.76986 0.72678 0.22625
 O361 O 0.77033 0.76669 0.22548
 O362 O 0.73028 0.72528 0.26585
 C363 C 0.74903 0.79499 0.19723
 C364 C 0.79859 0.79507 0.24712
 C365 C 0.79846 0.74610 0.19660
 C366 C 0.75018 0.69757 0.29433
 C367 C 0.70114 0.74391 0.29354
 C368 C 0.70273 0.69670 0.24656
 H369 H 0.72205 0.77470 0.27317
 H370 H 0.72313 0.71783 0.21638
 H371 H 0.77931 0.77586 0.21656
 H372 H 0.77994 0.71894 0.27393
 H373 H 0.78354 0.75714 0.30249
 H374 H 0.80763 0.74226 0.28047
 H375 H 0.67792 0.74092 0.22432
 H376 H 0.72896 0.75041 0.17287
 H377 H 0.75485 0.78090 0.30260
 H378 H 0.76101 0.80545 0.27851
 H379 H 0.74143 0.68781 0.21195
 H380 H 0.76102 0.71134 0.19065
 H381 H 0.71611 0.80373 0.23586
 H382 H 0.69151 0.77853 0.23678
 H383 H 0.80623 0.71214 0.23448
 H384 H 0.78484 0.68828 0.25675
 O385 O 0.75050 0.19529 0.77952
 O386 O 0.72836 0.18855 0.74888
 O387 O 0.80571 0.22156 0.74985
 O388 O 0.81367 0.24915 0.72974
 O389 O 0.77871 0.25039 0.80597
 O390 O 0.75081 0.27384 0.81108
 O391 O 0.74999 0.27912 0.69548
 O392 O 0.77455 0.25160 0.68979
 O393 O 0.69564 0.25069 0.72116
 O394 O 0.69001 0.22627 0.74683
 O395 O 0.72099 0.30463 0.74914
 O396 O 0.75050 0.31183 0.77296
 O397 O 0.74974 0.30462 0.72085
 O398 O 0.77403 0.31083 0.75163
 O399 O 0.69569 0.27909 0.74860
 O400 O 0.69227 0.25087 0.77607
 O401 O 0.72128 0.25091 0.69584
 O402 O 0.75073 0.22643 0.68938
 O403 O 0.74990 0.22067 0.80505
 O404 O 0.72394 0.24992 0.80856
 O405 O 0.80447 0.25085 0.78075
 O406 O 0.80955 0.27573 0.75095
 O407 O 0.78062 0.19578 0.75012
 O408 O 0.75148 0.18974 0.72631
 Zr409 Zr 0.75173 0.21233 0.75094
 O410 O 0.73185 0.23040 0.73140
 Zr411 Zr 0.78835 0.24987 0.75155
 O412 O 0.77029 0.26921 0.73126
 Zr413 Zr 0.75063 0.24937 0.78823
 O414 O 0.73128 0.26923 0.76979
 Zr415 Zr 0.75011 0.25065 0.71256
 O416 O 0.77037 0.23106 0.73069
 Zr417 Zr 0.71281 0.25059 0.74955
 O418 O 0.73068 0.23037 0.76947
 Zr419 Zr 0.74978 0.28790 0.74959
 O420 O 0.76934 0.26996 0.76997
 O421 O 0.77079 0.23005 0.77085
 O422 O 0.73021 0.27040 0.72981
 C423 C 0.74973 0.20135 0.79887
 C424 C 0.79987 0.20214 0.74950
 C425 C 0.79812 0.25110 0.80005
 C426 C 0.74984 0.29847 0.70154
 C427 C 0.70188 0.25084 0.70185
 C428 C 0.70168 0.29844 0.74869
 H429 H 0.72295 0.22077 0.72292
 H430 H 0.72229 0.27789 0.77921
 H431 H 0.77985 0.22104 0.77988
 H432 H 0.77981 0.27782 0.72238
 H433 H 0.78556 0.24153 0.69454
 H434 H 0.80877 0.25635 0.71677
 H435 H 0.67778 0.25391 0.77091
 H436 H 0.72847 0.24562 0.82295
 H437 H 0.73951 0.21611 0.69275
 H438 H 0.76155 0.19481 0.71547
 H439 H 0.73984 0.30822 0.78379
 H440 H 0.75987 0.28525 0.80541
 H441 H 0.71767 0.19171 0.75983
 H442 H 0.69249 0.21643 0.75871
 H443 H 0.80532 0.28540 0.76250
 H444 H 0.78379 0.30856 0.73963
 O445 O 0.25320 0.81008 0.77807
 O446 O 0.27576 0.81644 0.74760
 O447 O 0.19836 0.78336 0.74867
 O448 O 0.19255 0.75381 0.72617
 O449 O 0.22461 0.75511 0.80461
 O450 O 0.25247 0.73188 0.81047
 O451 O 0.25488 0.72522 0.69497
 O452 O 0.23101 0.75492 0.68787
 O453 O 0.30890 0.75414 0.72108
 O454 O 0.31403 0.77888 0.74654
 O455 O 0.28324 0.70042 0.74908
 O456 O 0.25357 0.69342 0.77277
 O457 O 0.25482 0.70001 0.72059
 O458 O 0.23023 0.69410 0.75127
 O459 O 0.30852 0.72598 0.74858
 O460 O 0.31151 0.75443 0.77594
 O461 O 0.28353 0.75381 0.69549
 O462 O 0.25290 0.77786 0.68843
 O463 O 0.25350 0.78495 0.80382
 O464 O 0.27939 0.75568 0.80801
 O465 O 0.19920 0.75401 0.77904
 O466 O 0.19331 0.73041 0.74949
 O467 O 0.22337 0.80922 0.74838
 O468 O 0.25279 0.81507 0.72484
 Zr469 Zr 0.25232 0.79273 0.74967
 O470 O 0.27246 0.77445 0.73051
 Zr471 Zr 0.21580 0.75509 0.75013
 O472 O 0.23409 0.73544 0.73042
 Zr473 Zr 0.25298 0.75603 0.78731
 O474 O 0.27264 0.73602 0.76935
 Zr475 Zr 0.25441 0.75392 0.71175
 O476 O 0.23397 0.77374 0.72942
 Zr477 Zr 0.29130 0.75448 0.74916
 O478 O 0.27315 0.77488 0.76864
 Zr479 Zr 0.25445 0.71706 0.74913
 O480 O 0.23455 0.73518 0.76899
 O481 O 0.23306 0.77514 0.76947
 O482 O 0.27418 0.73442 0.72940
 C483 C 0.25376 0.80421 0.79748
 C484 C 0.20413 0.80278 0.74798
 C485 C 0.20530 0.75410 0.79842
 C486 C 0.25500 0.70594 0.70121
 C487 C 0.30286 0.75389 0.70172
 C488 C 0.30253 0.70662 0.74872
 H489 H 0.28136 0.78402 0.72196
 H490 H 0.28154 0.72749 0.77897
 H491 H 0.22388 0.78417 0.77837
 H492 H 0.22460 0.72662 0.72172
 H493 H 0.22024 0.74415 0.69133
 H494 H 0.19767 0.76295 0.71456
 H495 H 0.32607 0.75143 0.77097
 H496 H 0.27469 0.76022 0.82227
 H497 H 0.26449 0.78796 0.69119
 H498 H 0.24283 0.80988 0.71395
 H499 H 0.26418 0.69713 0.78363
 H500 H 0.24370 0.72029 0.80471
 H501 H 0.28626 0.81347 0.75879
 H502 H 0.31146 0.78874 0.75840
 H503 H 0.19823 0.71963 0.75971
 H504 H 0.22059 0.69614 0.73913
 O505 O 0.24906 0.30037 0.71730
 O506 O 0.22657 0.30702 0.74736
 O507 O 0.30456 0.27521 0.74800
 O508 O 0.31260 0.24775 0.76837
 O509 O 0.27895 0.24572 0.69151
 O510 O 0.25164 0.22184 0.68599
 O511 O 0.24927 0.21673 0.80154
 O512 O 0.27336 0.24517 0.80716
 O513 O 0.19458 0.24404 0.77493
 O514 O 0.18893 0.26840 0.74933
 O515 O 0.22158 0.19055 0.74747
 O516 O 0.25163 0.18392 0.72411
 O517 O 0.24978 0.19114 0.77626
 O518 O 0.27480 0.18540 0.74585
 O519 O 0.19575 0.21563 0.74754
 O520 O 0.19210 0.24380 0.72003
 O521 O 0.21984 0.24409 0.80065
 O522 O 0.24513 0.26880 0.80769
 O523 O 0.24954 0.27498 0.69180
 O524 O 0.22421 0.24528 0.68806
 O525 O 0.30428 0.24577 0.71717
 O526 O 0.30952 0.22133 0.74741
 O527 O 0.27897 0.30049 0.74673
 O528 O 0.24803 0.30642 0.77026
 Zr529 Zr 0.25033 0.28352 0.74596
 O530 O 0.23063 0.26503 0.76525
 Zr531 Zr 0.28769 0.24668 0.74612
 O532 O 0.26975 0.22694 0.76608
 Zr533 Zr 0.25059 0.24634 0.70877
 O534 O 0.23140 0.22614 0.72694
 Zr535 Zr 0.24887 0.24512 0.78438
 O536 O 0.26902 0.26529 0.76671
 Zr537 Zr 0.21223 0.24448 0.74685
 O538 O 0.22995 0.26501 0.72716
 Zr539 Zr 0.24999 0.20783 0.74746
 O540 O 0.26947 0.22618 0.72740
 O541 O 0.27006 0.26608 0.72641
 O542 O 0.22973 0.22498 0.76685
 C543 C 0.24877 0.29429 0.69795
 C544 C 0.29833 0.29450 0.74792
 C545 C 0.29826 0.24532 0.69777
 C546 C 0.24950 0.19737 0.79556
 C547 C 0.20053 0.24386 0.79433
 C548 C 0.20215 0.19639 0.74759
 H549 H 0.22162 0.27448 0.77388
 H550 H 0.22274 0.21731 0.71739
 H551 H 0.27907 0.27519 0.71746
 H552 H 0.27933 0.21855 0.77514
 H553 H 0.28292 0.25700 0.80350
 H554 H 0.30704 0.24180 0.78169
 H555 H 0.17760 0.24056 0.72499
 H556 H 0.22887 0.24958 0.67372
 H557 H 0.25414 0.28076 0.80338
 H558 H 0.26080 0.30512 0.77919
 H559 H 0.24100 0.18726 0.71315
 H560 H 0.26081 0.21059 0.69185
 H561 H 0.21587 0.30334 0.73658
 H562 H 0.19123 0.27820 0.73738
 H563 H 0.30576 0.21147 0.73586
 H564 H 0.28422 0.18780 0.75809
 O565 O 0.74689 0.69564 0.72546
 O566 O 0.76966 0.68937 0.75471
 O567 O 0.69129 0.72091 0.75580
 O568 O 0.68321 0.74832 0.77635
 O569 O 0.71738 0.75057 0.69975
 O570 O 0.74482 0.77454 0.69464
 O571 O 0.74617 0.77903 0.81012
 O572 O 0.72181 0.75069 0.81521
 O573 O 0.80064 0.75122 0.78419
 O574 O 0.80876 0.72910 0.75585
 O575 O 0.77465 0.80524 0.75633
 O576 O 0.74467 0.81203 0.73272
 O577 O 0.74615 0.80463 0.78488
 O578 O 0.72166 0.81082 0.75442
 O579 O 0.80028 0.77998 0.75568
 O580 O 0.80498 0.74806 0.73005
 O581 O 0.77529 0.75146 0.80972
 O582 O 0.74994 0.72692 0.81611
 O583 O 0.74678 0.72124 0.70017
 O584 O 0.77202 0.75072 0.69652
 O585 O 0.69181 0.75047 0.72516
 O586 O 0.68644 0.77481 0.75537
 O587 O 0.71678 0.69550 0.75470
 O588 O 0.74753 0.68923 0.77821
 Zr589 Zr 0.74545 0.71241 0.75419
 O590 O 0.76506 0.73062 0.77388
 Zr591 Zr 0.70823 0.74941 0.75422
 O592 O 0.72611 0.76902 0.77437
 Zr593 Zr 0.74561 0.74983 0.71720
 O594 O 0.76489 0.76982 0.73554
 Zr595 Zr 0.74668 0.75069 0.79284
 O596 O 0.72665 0.73064 0.77487
 Zr597 Zr 0.78364 0.75119 0.75564
 O598 O 0.76590 0.73102 0.73573
 Zr599 Zr 0.74618 0.78809 0.75603
 O600 O 0.72668 0.76996 0.73579
 O601 O 0.72596 0.73004 0.73456
 O602 O 0.76622 0.77081 0.77561
 C603 C 0.74743 0.70188 0.70617
 C604 C 0.69744 0.70158 0.75571
 C605 C 0.69802 0.75098 0.70582
 C606 C 0.74610 0.79839 0.80416
 C607 C 0.79461 0.75144 0.80354
 C608 C 0.79403 0.79927 0.75606
 H609 H 0.77378 0.72109 0.78269
 H610 H 0.77353 0.77870 0.72604
 H611 H 0.71699 0.72100 0.72550
 H612 H 0.71648 0.77745 0.78335
 H613 H 0.71232 0.73885 0.81144
 H614 H 0.68857 0.75459 0.78961
 H615 H 0.80460 0.76138 0.72187
 H616 H 0.76729 0.74676 0.68210
 H617 H 0.74099 0.71499 0.81157
 H618 H 0.73484 0.69067 0.78725
 H619 H 0.75553 0.80885 0.72194
 H620 H 0.73548 0.78569 0.70042
 H621 H 0.78095 0.69453 0.74519
 H622 H 0.80375 0.71649 0.76359
 H623 H 0.69047 0.78479 0.74402
 H624 H 0.71187 0.80819 0.76632
 O625 O 0.24992 0.69551 0.27893
 O626 O 0.22982 0.68728 0.25112
 O627 O 0.30550 0.72223 0.24875
 O628 O 0.31311 0.74999 0.22881
 O629 O 0.27889 0.75070 0.30531
 O630 O 0.25099 0.77395 0.31080
 O631 O 0.24871 0.77936 0.19515
 O632 O 0.27316 0.75213 0.18898
 O633 O 0.19481 0.75053 0.22151
 O634 O 0.18978 0.72607 0.24811
 O635 O 0.22031 0.80476 0.24915
 O636 O 0.25001 0.81214 0.27258
 O637 O 0.24866 0.80487 0.22052
 O638 O 0.27337 0.81116 0.25105
 O639 O 0.19511 0.77912 0.24866
 O640 O 0.19205 0.75133 0.27639
 O641 O 0.22018 0.75114 0.19591
 O642 O 0.24991 0.72651 0.18926
 O643 O 0.25018 0.72078 0.30457
 O644 O 0.22417 0.74994 0.30847
 O645 O 0.30438 0.75134 0.27983
 O646 O 0.30891 0.77644 0.25001
 O647 O 0.28056 0.69632 0.24942
 O648 O 0.25050 0.69125 0.22475
 Zr649 Zr 0.25154 0.71262 0.25047
 O650 O 0.23117 0.73056 0.23125
 Zr651 Zr 0.28795 0.75038 0.25081
 O652 O 0.26954 0.76957 0.23071
 Zr653 Zr 0.25064 0.74957 0.28786
 O654 O 0.23100 0.76939 0.26969
 Zr655 Zr 0.24921 0.75091 0.21226
 O656 O 0.26990 0.73149 0.23012
 Zr657 Zr 0.21234 0.75070 0.24968
 O658 O 0.23061 0.73057 0.26922
 Zr659 Zr 0.24916 0.78816 0.24927
 O660 O 0.26903 0.77032 0.26945
 O661 O 0.27073 0.73037 0.27024
 O662 O 0.22944 0.77056 0.22974
 C663 C 0.24961 0.70150 0.29831
 C664 C 0.29975 0.70279 0.24849
 C665 C 0.29822 0.75153 0.29919
 C666 C 0.24851 0.79871 0.20120
 C667 C 0.20085 0.75085 0.20214
 C668 C 0.20103 0.79849 0.24876
 H669 H 0.22221 0.72096 0.22280
 H670 H 0.22209 0.77803 0.27922
 H671 H 0.27987 0.72134 0.27918
 H672 H 0.27889 0.77823 0.22169
 H673 H 0.28451 0.74243 0.19368
 H674 H 0.30795 0.75693 0.21580
 H675 H 0.17749 0.75422 0.27136
 H676 H 0.22887 0.74562 0.32280
 H677 H 0.23814 0.71666 0.19215
 H678 H 0.26189 0.69545 0.21488
 H679 H 0.23960 0.80841 0.28362
 H680 H 0.25983 0.78547 0.30501
 H681 H 0.21619 0.69290 0.24595
 H682 H 0.19297 0.71635 0.25995
 H683 H 0.30486 0.78595 0.26176
 H684 H 0.28293 0.80900 0.23886
 O685 O 0.75368 0.30894 0.27923
 O686 O 0.77623 0.31574 0.24888
 O687 O 0.69900 0.28233 0.24948
 O688 O 0.69332 0.25302 0.22666
 O689 O 0.72521 0.25354 0.30517
 O690 O 0.75320 0.23042 0.31084
 O691 O 0.75577 0.22502 0.19528
 O692 O 0.73187 0.25469 0.18843
 O693 O 0.80968 0.25374 0.22178
 O694 O 0.81465 0.27836 0.24748
 O695 O 0.78419 0.19975 0.24919
 O696 O 0.75452 0.19234 0.27271
 O697 O 0.75581 0.19952 0.22061
 O698 O 0.73120 0.19318 0.25120
 O699 O 0.80937 0.22542 0.24907
 O700 O 0.81219 0.25361 0.27666
 O701 O 0.78435 0.25359 0.19615
 O702 O 0.75366 0.27773 0.18933
 O703 O 0.75398 0.28356 0.30473
 O704 O 0.77998 0.25437 0.30869
 O705 O 0.69988 0.25259 0.27951
 O706 O 0.69412 0.22936 0.24967
 O707 O 0.72391 0.30828 0.24949
 O708 O 0.75334 0.31448 0.22605
 Zr709 Zr 0.75291 0.29189 0.25066
 O710 O 0.77316 0.27392 0.23136
 Zr711 Zr 0.71652 0.25411 0.25066
 O712 O 0.73493 0.23475 0.23079
 Zr713 Zr 0.75362 0.25480 0.28793
 O714 O 0.77339 0.23508 0.26980
 Zr715 Zr 0.75521 0.25352 0.21236
 O716 O 0.73466 0.27306 0.23019
 Zr717 Zr 0.79203 0.25383 0.24984
 O718 O 0.77375 0.27393 0.26950
 Zr719 Zr 0.75532 0.21626 0.24935
 O720 O 0.73531 0.23408 0.26935
 O721 O 0.73366 0.27403 0.27025
 O722 O 0.77503 0.23391 0.22984
 C723 C 0.75421 0.30288 0.29857
 C724 C 0.70470 0.30177 0.24899
 C725 C 0.70592 0.25247 0.29892
 C726 C 0.75596 0.20568 0.20131
 C727 C 0.80367 0.25362 0.20241
 C728 C 0.80346 0.20604 0.24899
 H729 H 0.78205 0.28359 0.22292
 H730 H 0.78231 0.22649 0.27935
 H731 H 0.72443 0.28292 0.27923
 H732 H 0.72548 0.22599 0.22197
 H733 H 0.72110 0.24389 0.19178
 H734 H 0.69842 0.26230 0.21515
 H735 H 0.82678 0.25076 0.27169
 H736 H 0.77523 0.25876 0.32298
 H737 H 0.76531 0.28775 0.19213
 H738 H 0.74341 0.30937 0.21510
 H739 H 0.76504 0.19602 0.28366
 H740 H 0.74449 0.21885 0.30495
 H741 H 0.78675 0.31267 0.26003
 H742 H 0.81206 0.28806 0.25946
 H743 H 0.69907 0.21847 0.25975
 H744 H 0.72159 0.19529 0.23905
 C745 C 0.24876 0.05831 0.03951
 C746 C 0.24883 0.06894 0.05533
 C747 C 0.24898 0.08219 0.07382
 C748 C 0.26819 0.08856 0.08272
 C749 C 0.26839 0.10242 0.09993
 C750 C 0.24934 0.11013 0.10846
 C751 C 0.23009 0.10337 0.09961
 C752 C 0.22993 0.08952 0.08238
 C753 C 0.24954 0.12561 0.12612
 C754 C 0.23467 0.12426 0.14260
 C755 C 0.23452 0.13923 0.15886
 C756 C 0.24922 0.15575 0.15887
 C757 C 0.26417 0.15714 0.14264
 C758 C 0.26436 0.14218 0.12638
 C759 C 0.24867 0.17153 0.17525
 C760 C 0.24809 0.18489 0.18882
 H761 H 0.28303 0.08300 0.07620
 H762 H 0.28345 0.10710 0.10657
 H763 H 0.21518 0.10923 0.10563
 H764 H 0.21497 0.08481 0.07553
 H765 H 0.22322 0.11156 0.14297
 H766 H 0.22289 0.13799 0.17136
 H767 H 0.27556 0.16991 0.14244
 H768 H 0.27580 0.14385 0.11377
 C769 C 0.75046 0.55992 0.54032
 C770 C 0.75072 0.57078 0.55597
 C771 C 0.75114 0.58427 0.57427
 C772 C 0.76895 0.59670 0.57836
 C773 C 0.76904 0.61064 0.59548
 C774 C 0.75128 0.61236 0.60876
 C775 C 0.73356 0.59955 0.60471
 C776 C 0.73350 0.58562 0.58754
 C777 C 0.75105 0.62783 0.62641
 C778 C 0.74206 0.62255 0.64605
 C779 C 0.74156 0.63732 0.66249
 C780 C 0.75000 0.65753 0.65950
 C781 C 0.75903 0.66290 0.64006
 C782 C 0.75957 0.64817 0.62362
 C783 C 0.74916 0.67292 0.67623
 C784 C 0.74841 0.68603 0.69002
 H785 H 0.78268 0.59577 0.56817
 H786 H 0.78302 0.62007 0.59836
 H787 H 0.71956 0.60069 0.61448
 H788 H 0.71958 0.57615 0.58445
 H789 H 0.73557 0.60696 0.64874
 H790 H 0.73454 0.63300 0.67749
 H791 H 0.76551 0.67854 0.63755
 H792 H 0.76630 0.65282 0.60860
 C793 C 0.75101 0.96425 0.05960
 C794 C 0.75087 0.94841 0.07017
 C795 C 0.75073 0.92976 0.08315
 C796 C 0.76776 0.92557 0.09662
 C797 C 0.76739 0.90786 0.10981
 C798 C 0.74994 0.89410 0.10971
 C799 C 0.73297 0.89835 0.09596
 C800 C 0.73338 0.91607 0.08277
 C801 C 0.74930 0.87568 0.12422
 C802 C 0.73052 0.87038 0.13489
 C803 C 0.73014 0.85353 0.14917
 C804 C 0.74848 0.84174 0.15294
 C805 C 0.76716 0.84671 0.14220
 C806 C 0.76758 0.86355 0.12793
 C807 C 0.74835 0.82498 0.16829
 C808 C 0.74850 0.81116 0.18139
 H809 H 0.78122 0.93613 0.09712
 H810 H 0.78056 0.90520 0.12041
 H811 H 0.71943 0.88792 0.09535
 H812 H 0.72012 0.91916 0.07238
 H813 H 0.71627 0.87958 0.13258
 H814 H 0.71562 0.84989 0.15748
 H815 H 0.78144 0.83767 0.14500
 H816 H 0.78220 0.86706 0.11976
 C817 C 0.24917 0.46264 0.55917
 C818 C 0.24897 0.44679 0.56973
 C819 C 0.24877 0.42813 0.58271
 C820 C 0.22993 0.41702 0.58588
 C821 C 0.22957 0.39939 0.59919
 C822 C 0.24808 0.39266 0.60952
 C823 C 0.26700 0.40380 0.60603
 C824 C 0.26732 0.42142 0.59273
 C825 C 0.24760 0.37443 0.62430
 C826 C 0.26437 0.35981 0.62483
 C827 C 0.26424 0.34311 0.63930
 C828 C 0.24737 0.34080 0.65340
 C829 C 0.23051 0.35511 0.65285
 C830 C 0.23060 0.37181 0.63839
 C831 C 0.24766 0.32413 0.66886
 C832 C 0.24807 0.31038 0.68203
 H833 H 0.21548 0.42208 0.57820
 H834 H 0.21483 0.39100 0.60135
 H835 H 0.28145 0.39920 0.61397
 H836 H 0.28197 0.42998 0.59047
 H837 H 0.27755 0.36124 0.61402
 H838 H 0.27738 0.33211 0.63959
 H839 H 0.21742 0.35353 0.66377
 H840 H 0.21760 0.38295 0.63858
 C841 C 0.74909 0.04030 0.94614
 C842 C 0.74915 0.05586 0.93514
 C843 C 0.74926 0.07390 0.92133
 C844 C 0.73018 0.08301 0.91478
 C845 C 0.73023 0.09961 0.90020
 C846 C 0.74939 0.10726 0.89193
 C847 C 0.76850 0.09824 0.89890
 C848 C 0.76841 0.08166 0.91349
 C849 C 0.74942 0.12416 0.87565
 C850 C 0.76327 0.12298 0.85828
 C851 C 0.76312 0.13867 0.84276
 C852 C 0.74915 0.15575 0.84435
 C853 C 0.73534 0.15711 0.86158
 C854 C 0.73545 0.14141 0.87713
 C855 C 0.74908 0.17186 0.82832
 C856 C 0.74924 0.18532 0.81486
 H857 H 0.71526 0.07701 0.92063
 H858 H 0.71526 0.10604 0.89496
 H859 H 0.78351 0.10399 0.89305
 H860 H 0.78326 0.07470 0.91842
 H861 H 0.77398 0.10974 0.85651
 H862 H 0.77384 0.13744 0.82946
 H863 H 0.72451 0.17031 0.86300
 H864 H 0.72476 0.14288 0.89042
 C865 C 0.24911 0.54007 0.44529
 C866 C 0.24937 0.55559 0.43426
 C867 C 0.24977 0.57357 0.42035
 C868 C 0.23147 0.58559 0.41711
 C869 C 0.23152 0.60217 0.40249
 C870 C 0.24989 0.60687 0.39087
 C871 C 0.26830 0.59492 0.39453
 C872 C 0.26821 0.57838 0.40916
 C873 C 0.24972 0.62379 0.37461
 C874 C 0.25999 0.62073 0.35512
 C875 C 0.25969 0.63653 0.33970
 C876 C 0.24915 0.65559 0.34352
 C877 C 0.23889 0.65882 0.36285
 C878 C 0.23914 0.64302 0.37831
 C879 C 0.24902 0.67184 0.32762
 C880 C 0.24915 0.68539 0.31424
 H881 H 0.21706 0.58190 0.42558
 H882 H 0.21704 0.61092 0.39986
 H883 H 0.28276 0.59835 0.38606
 H884 H 0.28245 0.56916 0.41152
 H885 H 0.26799 0.60599 0.35167
 H886 H 0.26765 0.63385 0.32477
 H887 H 0.23075 0.67356 0.36600
 H888 H 0.23129 0.64593 0.39323
 C889 C 0.25033 0.94637 0.96298
 C890 C 0.25083 0.93581 0.94712
 C891 C 0.25145 0.92270 0.92856
 C892 C 0.23276 0.91405 0.92051
 C893 C 0.23344 0.90037 0.90318
 C894 C 0.25286 0.89511 0.89368
 C895 C 0.27153 0.90413 0.90170
 C896 C 0.27081 0.91783 0.91903
 C897 C 0.25367 0.87977 0.87592
 C898 C 0.26965 0.86431 0.87509
 C899 C 0.26999 0.84937 0.85881
 C900 C 0.25440 0.84969 0.84314
 C901 C 0.23856 0.86514 0.84368
 C902 C 0.23818 0.88010 0.85995
 C903 C 0.25435 0.83385 0.82682
 C904 C 0.25417 0.82039 0.81333
 H905 H 0.21770 0.91761 0.92785
 H906 H 0.21883 0.89347 0.89756
 H907 H 0.28668 0.90060 0.89457
 H908 H 0.28537 0.92442 0.92515
 H909 H 0.28162 0.86345 0.88729
 H910 H 0.28226 0.83742 0.85860
 H911 H 0.22642 0.86555 0.83161
 H912 H 0.22582 0.89195 0.86002
 C913 C 0.75183 0.44561 0.46357
 C914 C 0.75218 0.43483 0.44787
 C915 C 0.75259 0.42148 0.42948
 C916 C 0.73390 0.41223 0.42215
 C917 C 0.73441 0.39840 0.40493
 C918 C 0.75365 0.39361 0.39485
 C919 C 0.77231 0.40322 0.40217
 C920 C 0.77176 0.41706 0.41939
 C921 C 0.75429 0.37821 0.37715
 C922 C 0.77067 0.36319 0.37587
 C923 C 0.77090 0.34822 0.35962
 C924 C 0.75482 0.34808 0.34445
 C925 C 0.73858 0.36307 0.34546
 C926 C 0.73830 0.37805 0.36170
 C927 C 0.75476 0.33228 0.32811
 C928 C 0.75458 0.31890 0.31456
 H929 H 0.71899 0.41545 0.42994
 H930 H 0.71982 0.39104 0.39986
 H931 H 0.78732 0.40005 0.39457
 H932 H 0.78632 0.42414 0.42495
 H933 H 0.78303 0.36271 0.38768
 H934 H 0.78350 0.33662 0.35903
 H935 H 0.72607 0.36311 0.33377
 H936 H 0.72563 0.38956 0.36212
 C937 C 0.05919 0.24714 0.03528
 C938 C 0.06984 0.24725 0.05108
 C939 C 0.08288 0.24742 0.06972
 C940 C 0.08298 0.26507 0.08305
 C941 C 0.09623 0.26551 0.10074
 C942 C 0.10955 0.24829 0.10532
 C943 C 0.10916 0.23054 0.09192
 C944 C 0.09592 0.23014 0.07424
 C945 C 0.12415 0.24897 0.12370
 C946 C 0.12749 0.23089 0.13621
 C947 C 0.14180 0.23135 0.15303
 C948 C 0.15295 0.24988 0.15761
 C949 C 0.14957 0.26802 0.14543
 C950 C 0.13525 0.26760 0.12861
 C951 C 0.16834 0.25008 0.17436
 C952 C 0.18149 0.25007 0.18815
 H953 H 0.07294 0.27853 0.07970
 H954 H 0.09599 0.27929 0.11089
 H955 H 0.11943 0.21716 0.09483
 H956 H 0.09604 0.21644 0.06396
 H957 H 0.11899 0.21640 0.13301
 H958 H 0.14429 0.21722 0.16237
 H959 H 0.15819 0.28242 0.14877
 H960 H 0.13325 0.28169 0.11912
 C961 C 0.55990 0.74851 0.53693
 C962 C 0.57049 0.74865 0.55276
 C963 C 0.58346 0.74885 0.57142
 C964 C 0.58399 0.76675 0.58439
 C965 C 0.59720 0.76723 0.60210
 C966 C 0.61008 0.74976 0.60704
 C967 C 0.60925 0.73175 0.59402
 C968 C 0.59604 0.73133 0.57632
 C969 C 0.62469 0.75048 0.62539
 C970 C 0.62755 0.73259 0.63829
 C971 C 0.64190 0.73305 0.65508
 C972 C 0.65356 0.75137 0.65921
 C973 C 0.65066 0.76932 0.64663
 C974 C 0.63630 0.76890 0.62984
 C975 C 0.66897 0.75151 0.67592
 C976 C 0.68212 0.75141 0.68970
 H977 H 0.57430 0.78040 0.58074
 H978 H 0.59730 0.78121 0.61196
 H979 H 0.61918 0.71818 0.59723
 H980 H 0.59583 0.71743 0.56632
 H981 H 0.61865 0.71827 0.63543
 H982 H 0.64402 0.71907 0.66473
 H983 H 0.65969 0.78354 0.64962
 H984 H 0.63467 0.78282 0.62003
 C985 C 0.03971 0.75223 0.94074
 C986 C 0.05540 0.75264 0.92994
 C987 C 0.07377 0.75311 0.91655
 C988 C 0.08037 0.77218 0.90755
 C989 C 0.09751 0.77250 0.89362
 C990 C 0.10828 0.75372 0.88848
 C991 C 0.10172 0.73467 0.89788
 C992 C 0.08456 0.73438 0.91180
 C993 C 0.12588 0.75390 0.87296
 C994 C 0.14405 0.74146 0.87619
 C995 C 0.16041 0.74141 0.86131
 C996 C 0.15880 0.75374 0.84303
 C997 C 0.14083 0.76621 0.83972
 C998 C 0.12448 0.76631 0.85457
 C999 C 0.17545 0.75358 0.82755
 C1000 C 0.18919 0.75367 0.81436
 H1001 H 0.07212 0.78676 0.91111
 H1002 H 0.10235 0.78745 0.88687
 H1003 H 0.10951 0.71991 0.89405
 H1004 H 0.07950 0.71951 0.91859
 H1005 H 0.14570 0.73193 0.89030
 H1006 H 0.17428 0.73173 0.86405
 H1007 H 0.13939 0.77577 0.82559
 H1008 H 0.11058 0.77581 0.85146
 C1009 C 0.53926 0.25138 0.44027
 C1010 C 0.55466 0.25158 0.42906
 C1011 C 0.57253 0.25180 0.41500
 C1012 C 0.56986 0.25848 0.39410
 C1013 C 0.58693 0.25827 0.38011
 C1014 C 0.60697 0.25134 0.38682
 C1015 C 0.60957 0.24482 0.40793
 C1016 C 0.59243 0.24503 0.42192
 C1017 C 0.62498 0.25081 0.37177
 C1018 C 0.64531 0.25723 0.37810
 C1019 C 0.66209 0.25716 0.36369
 C1020 C 0.65878 0.25061 0.34282
 C1021 C 0.63868 0.24399 0.33645
 C1022 C 0.62190 0.24407 0.35080
 C1023 C 0.67580 0.25108 0.32775
 C1024 C 0.68973 0.25162 0.31476
 H1025 H 0.55453 0.26380 0.38858
 H1026 H 0.58449 0.26370 0.36407
 H1027 H 0.62475 0.23920 0.41351
 H1028 H 0.59466 0.23975 0.43805
 H1029 H 0.64813 0.26272 0.39406
 H1030 H 0.67757 0.26239 0.36878
 H1031 H 0.63594 0.23886 0.32034
 H1032 H 0.60652 0.23874 0.34551
 C1033 C 0.96389 0.74815 0.05433
 C1034 C 0.94823 0.74734 0.06514
 C1035 C 0.92994 0.74636 0.07859
 C1036 C 0.92883 0.73101 0.09446
 C1037 C 0.91157 0.73055 0.10822
 C1038 C 0.89519 0.74548 0.10632
 C1039 C 0.89633 0.76070 0.09014
 C1040 C 0.91362 0.76112 0.07637
 C1041 C 0.87731 0.74550 0.12152
 C1042 C 0.86938 0.76464 0.12962
 C1043 C 0.85308 0.76464 0.14452
 C1044 C 0.84447 0.74553 0.15151
 C1045 C 0.85208 0.72640 0.14340
 C1046 C 0.86838 0.72637 0.12849
 C1047 C 0.82810 0.74556 0.16729
 C1048 C 0.81452 0.74572 0.18063
 H1049 H 0.94145 0.71959 0.09638
 H1050 H 0.91131 0.71884 0.12068
 H1051 H 0.88384 0.77224 0.08811
 H1052 H 0.91434 0.77307 0.06414
 H1053 H 0.87610 0.77961 0.12479
 H1054 H 0.84735 0.77953 0.15076
 H1055 H 0.84549 0.71152 0.14868
 H1056 H 0.87396 0.71139 0.12237
 C1057 C 0.46373 0.24897 0.55542
 C1058 C 0.44811 0.24838 0.56631
 C1059 C 0.42978 0.24765 0.57974
 C1060 C 0.42142 0.22817 0.58599
 C1061 C 0.40423 0.22743 0.59985
 C1062 C 0.39518 0.24620 0.60766
 C1063 C 0.40352 0.26571 0.60104
 C1064 C 0.42073 0.26641 0.58719
 C1065 C 0.37748 0.24545 0.62305
 C1066 C 0.36060 0.25988 0.62166
 C1067 C 0.34426 0.25950 0.63654
 C1068 C 0.34458 0.24472 0.65298
 C1069 C 0.36121 0.23020 0.65440
 C1070 C 0.37755 0.23053 0.63954
 C1071 C 0.32809 0.24473 0.66863
 C1072 C 0.31440 0.24489 0.68188
 H1073 H 0.42831 0.21356 0.58031
 H1074 H 0.39799 0.21219 0.60443
 H1075 H 0.39709 0.28042 0.60698
 H1076 H 0.42715 0.28157 0.58254
 H1077 H 0.35997 0.27138 0.60901
 H1078 H 0.33145 0.27081 0.63528
 H1079 H 0.36166 0.21876 0.66713
 H1080 H 0.39046 0.21942 0.64122
 C1081 C 0.94581 0.25040 0.96095
 C1082 C 0.93470 0.25070 0.94546
 C1083 C 0.92077 0.25107 0.92750
 C1084 C 0.91605 0.23234 0.91673
 C1085 C 0.90142 0.23245 0.90018
 C1086 C 0.89126 0.25133 0.89419
 C1087 C 0.89638 0.27014 0.90489
 C1088 C 0.91101 0.26998 0.92145
 C1089 C 0.87498 0.25131 0.87727
 C1090 C 0.87387 0.26794 0.86255
 C1091 C 0.85826 0.26806 0.84690
 C1092 C 0.84355 0.25160 0.84577
 C1093 C 0.84456 0.23496 0.86029
 C1094 C 0.86016 0.23480 0.87593
 C1095 C 0.82746 0.25170 0.82969
 C1096 C 0.81401 0.25157 0.81620
 H1097 H 0.92348 0.21760 0.92132
 H1098 H 0.89802 0.21778 0.89207
 H1099 H 0.88865 0.28486 0.90085
 H1100 H 0.91443 0.28454 0.92978
 H1101 H 0.88519 0.28074 0.86302
 H1102 H 0.85767 0.28098 0.83568
 H1103 H 0.83324 0.22215 0.85957
 H1104 H 0.86039 0.22194 0.88721
 C1105 C 0.44574 0.75123 0.46000
 C1106 C 0.43473 0.75156 0.44447
 C1107 C 0.42091 0.75197 0.42643
 C1108 C 0.41701 0.73344 0.41502
 C1109 C 0.40248 0.73353 0.39838
 C1110 C 0.39162 0.75219 0.39296
 C1111 C 0.39594 0.77082 0.40430
 C1112 C 0.41047 0.77068 0.42094
 C1113 C 0.37540 0.75208 0.37601
 C1114 C 0.37368 0.76912 0.36182
 C1115 C 0.35805 0.76916 0.34619
 C1116 C 0.34395 0.75222 0.34456
 C1117 C 0.34559 0.73518 0.35853
 C1118 C 0.36120 0.73509 0.37415
 C1119 C 0.32780 0.75226 0.32856
 C1120 C 0.31425 0.75207 0.31517
 H1121 H 0.42499 0.71886 0.41917
 H1122 H 0.39970 0.71901 0.38977
 H1123 H 0.38765 0.78535 0.40070
 H1124 H 0.41326 0.78508 0.42977
 H1125 H 0.38452 0.78231 0.36270
 H1126 H 0.35696 0.78240 0.33539
 H1127 H 0.33473 0.72200 0.35743
 H1128 H 0.36191 0.72190 0.38503
 C1129 C 0.05485 0.03569 0.25134
 C1130 C 0.06568 0.05134 0.25197
 C1131 C 0.07907 0.06967 0.25280
 C1132 C 0.08533 0.07967 0.23411
 C1133 C 0.09919 0.09684 0.23486
 C1134 C 0.10700 0.10421 0.25434
 C1135 C 0.10037 0.09421 0.27305
 C1136 C 0.08651 0.07705 0.27227
 C1137 C 0.12241 0.12187 0.25507
 C1138 C 0.13978 0.12109 0.26895
 C1139 C 0.15467 0.13738 0.26920
 C1140 C 0.15239 0.15468 0.25562
 C1141 C 0.13508 0.15571 0.24189
 C1142 C 0.12018 0.13942 0.24161
 C1143 C 0.16808 0.17111 0.25543
 C1144 C 0.18134 0.18475 0.25508
 H1145 H 0.07976 0.07400 0.21895
 H1146 H 0.10421 0.10402 0.22016
 H1147 H 0.10589 0.09968 0.28830
 H1148 H 0.08177 0.06941 0.28683
 H1149 H 0.14211 0.10766 0.27929
 H1150 H 0.16806 0.13639 0.27982
 H1151 H 0.13317 0.16905 0.23133
 H1152 H 0.10685 0.14060 0.23093
 C1153 C 0.55462 0.53680 0.75187
 C1154 C 0.56543 0.55245 0.75253
 C1155 C 0.57883 0.57078 0.75334
 C1156 C 0.58628 0.57987 0.73462
 C1157 C 0.60016 0.59703 0.73540
 C1158 C 0.60681 0.60528 0.75495
 C1159 C 0.59900 0.59620 0.77368
 C1160 C 0.58511 0.57906 0.77286
 C1161 C 0.62226 0.62291 0.75577
 C1162 C 0.63876 0.62275 0.77069
 C1163 C 0.65372 0.63898 0.77104
 C1164 C 0.65238 0.65560 0.75653
 C1165 C 0.63593 0.65602 0.74175
 C1166 C 0.62095 0.63980 0.74137
 C1167 C 0.66816 0.67195 0.75648
 C1168 C 0.68149 0.68554 0.75626
 H1169 H 0.58162 0.57350 0.71943
 H1170 H 0.60610 0.60348 0.72071
 H1171 H 0.60362 0.60237 0.78895
 H1172 H 0.57945 0.57213 0.78744
 H1173 H 0.64038 0.60983 0.78179
 H1174 H 0.66645 0.63845 0.78248
 H1175 H 0.63473 0.66883 0.73046
 H1176 H 0.60830 0.64050 0.72987
 C1177 C 0.96226 0.05573 0.75013
 C1178 C 0.94693 0.06706 0.75042
 C1179 C 0.92915 0.08126 0.75079
 C1180 C 0.92729 0.09610 0.76708
 C1181 C 0.91073 0.11074 0.76694
 C1182 C 0.89581 0.11077 0.75046
 C1183 C 0.89763 0.09557 0.73431
 C1184 C 0.91422 0.08094 0.73447
 C1185 C 0.87869 0.12685 0.74992
 C1186 C 0.85805 0.12131 0.74378
 C1187 C 0.84200 0.13653 0.74334
 C1188 C 0.84638 0.15746 0.74897
 C1189 C 0.86687 0.16314 0.75502
 C1190 C 0.88292 0.14796 0.75549
 C1191 C 0.82985 0.17311 0.74883
 C1192 C 0.81612 0.18634 0.74896
 H1193 H 0.93876 0.09650 0.77979
 H1194 H 0.90959 0.12203 0.77976
 H1195 H 0.88653 0.09533 0.72128
 H1196 H 0.91560 0.06960 0.72171
 H1197 H 0.85425 0.10516 0.73963
 H1198 H 0.82617 0.13195 0.73871
 H1199 H 0.87044 0.17930 0.75937
 H1200 H 0.89871 0.15280 0.75997
 C1201 C 0.46182 0.55611 0.24872
 C1202 C 0.44677 0.56780 0.24875
 C1203 C 0.42944 0.58252 0.24883
 C1204 C 0.43243 0.60280 0.25710
 C1205 C 0.41597 0.61750 0.25669
 C1206 C 0.39624 0.61214 0.24796
 C1207 C 0.39331 0.59163 0.23985
 C1208 C 0.40984 0.57693 0.24026
 C1209 C 0.37891 0.62796 0.24726
 C1210 C 0.35797 0.62209 0.25189
 C1211 C 0.34179 0.63716 0.25170
 C1212 C 0.34632 0.65825 0.24682
 C1213 C 0.36705 0.66420 0.24200
 C1214 C 0.38324 0.64917 0.24220
 C1215 C 0.32980 0.67388 0.24715
 C1216 C 0.31605 0.68707 0.24763
 H1217 H 0.44754 0.60728 0.26379
 H1218 H 0.41862 0.63304 0.26336
 H1219 H 0.37837 0.58711 0.23284
 H1220 H 0.40739 0.56129 0.23374
 H1221 H 0.35418 0.60594 0.25606
 H1222 H 0.32580 0.63241 0.25552
 H1223 H 0.37071 0.68047 0.23817
 H1224 H 0.39913 0.65411 0.23826
 C1225 C 0.03465 0.94099 0.74829
 C1226 C 0.05012 0.92985 0.74780
 C1227 C 0.06819 0.91603 0.74728
 C1228 C 0.06526 0.89432 0.74433
 C1229 C 0.08264 0.88068 0.74418
 C1230 C 0.10323 0.88857 0.74700
 C1231 C 0.10604 0.91046 0.74977
 C1232 C 0.08861 0.92409 0.74993
 C1233 C 0.12160 0.87394 0.74724
 C1234 C 0.14063 0.87934 0.73707
 C1235 C 0.15775 0.86532 0.73708
 C1236 C 0.15609 0.84578 0.74729
 C1237 C 0.13729 0.84034 0.75756
 C1238 C 0.12017 0.85430 0.75756
 C1239 C 0.17350 0.83112 0.74718
 C1240 C 0.18771 0.81841 0.74737
 H1241 H 0.04953 0.88792 0.74219
 H1242 H 0.07997 0.86397 0.74169
 H1243 H 0.12167 0.91697 0.75220
 H1244 H 0.09104 0.94087 0.75228
 H1245 H 0.14214 0.89424 0.72881
 H1246 H 0.17222 0.86967 0.72903
 H1247 H 0.13586 0.82529 0.76558
 H1248 H 0.10588 0.84981 0.76581
 C1249 C 0.53486 0.43932 0.24871
 C1250 C 0.55027 0.42812 0.24853
 C1251 C 0.56835 0.41432 0.24835
 C1252 C 0.56541 0.39243 0.24772
 C1253 C 0.58286 0.37889 0.24773
 C1254 C 0.60351 0.38707 0.24837
 C1255 C 0.60632 0.40912 0.24888
 C1256 C 0.58882 0.42266 0.24889
 C1257 C 0.62199 0.37260 0.24861
 C1258 C 0.64012 0.37708 0.23655
 C1259 C 0.65731 0.36315 0.23652
 C1260 C 0.65660 0.34463 0.24858
 C1261 C 0.63871 0.34014 0.26076
 C1262 C 0.62152 0.35401 0.26079
 C1263 C 0.67402 0.33001 0.24838
 C1264 C 0.68824 0.31734 0.24848
 H1265 H 0.54963 0.38583 0.24723
 H1266 H 0.58019 0.36201 0.24702
 H1267 H 0.62201 0.41588 0.24962
 H1268 H 0.59125 0.43959 0.24943
 H1269 H 0.64085 0.39115 0.22684
 H1270 H 0.67107 0.36674 0.22700
 H1271 H 0.63802 0.32588 0.27020
 H1272 H 0.60793 0.35028 0.27048
 C1273 C 0.94084 0.96055 0.24953
 C1274 C 0.92991 0.94497 0.24990
 C1275 C 0.91630 0.92678 0.25047
 C1276 C 0.91616 0.91240 0.23366
 C1277 C 0.90216 0.89531 0.23381
 C1278 C 0.88808 0.89244 0.25078
 C1279 C 0.88857 0.90682 0.26774
 C1280 C 0.90258 0.92387 0.26756
 C1281 C 0.87256 0.87484 0.25057
 C1282 C 0.85168 0.87821 0.25747
 C1283 C 0.83694 0.86180 0.25697
 C1284 C 0.84284 0.84180 0.24961
 C1285 C 0.86358 0.83824 0.24278
 C1286 C 0.87836 0.85465 0.24325
 C1287 C 0.82747 0.82507 0.24882
 C1288 C 0.81438 0.81127 0.24810
 H1289 H 0.92664 0.91458 0.22030
 H1290 H 0.90199 0.88467 0.22042
 H1291 H 0.87815 0.90487 0.28116
 H1292 H 0.90257 0.93490 0.28065
 H1293 H 0.84663 0.89364 0.26288
 H1294 H 0.82089 0.86475 0.26220
 H1295 H 0.86832 0.82281 0.23707
 H1296 H 0.89437 0.85151 0.23806
 C1297 C 0.44022 0.46031 0.74917
 C1298 C 0.42940 0.44464 0.74927
 C1299 C 0.41601 0.42628 0.74947
 C1300 C 0.40922 0.41729 0.73045
 C1301 C 0.39539 0.40007 0.73063
 C1302 C 0.38812 0.39164 0.74988
 C1303 C 0.39527 0.40063 0.76893
 C1304 C 0.40910 0.41784 0.76870
 C1305 C 0.37276 0.37391 0.75007
 C1306 C 0.35582 0.37385 0.76449
 C1307 C 0.34102 0.35746 0.76431
 C1308 C 0.34295 0.34092 0.74977
 C1309 C 0.35982 0.34074 0.73547
 C1310 C 0.37464 0.35712 0.73560
 C1311 C 0.32738 0.32436 0.74927
 C1312 C 0.31419 0.31065 0.74873
 H1313 H 0.41437 0.42377 0.71547
 H1314 H 0.38997 0.39369 0.71570
 H1315 H 0.39018 0.39434 0.78400
 H1316 H 0.41426 0.42468 0.78353
 H1317 H 0.35375 0.38669 0.77561
 H1318 H 0.32797 0.35781 0.77538
 H1319 H 0.36147 0.32799 0.72415
 H1320 H 0.38763 0.35658 0.72448
 C1321 C 0.05897 0.24505 0.96050
 C1322 C 0.06978 0.24415 0.94482
 C1323 C 0.08324 0.24308 0.92652
 C1324 C 0.07871 0.25520 0.90859
 C1325 C 0.09235 0.25475 0.89119
 C1326 C 0.11071 0.24216 0.89153
 C1327 C 0.11497 0.22987 0.90956
 C1328 C 0.10134 0.23035 0.92692
 C1329 C 0.12565 0.24222 0.87342
 C1330 C 0.13547 0.22339 0.86674
 C1331 C 0.15018 0.22363 0.85025
 C1332 C 0.15527 0.24265 0.84020
 C1333 C 0.14540 0.26141 0.84655
 C1334 C 0.13068 0.26121 0.86302
 C1335 C 0.17101 0.24300 0.82379
 C1336 C 0.18440 0.24337 0.81024
 H1337 H 0.06474 0.26510 0.90812
 H1338 H 0.08851 0.26420 0.87745
 H1339 H 0.12912 0.22026 0.91044
 H1340 H 0.10506 0.22100 0.94078
 H1341 H 0.13174 0.20848 0.87424
 H1342 H 0.15769 0.20900 0.84544
 H1343 H 0.14929 0.27624 0.83893
 H1344 H 0.12362 0.27600 0.86797
 C1345 C 0.56013 0.74657 0.46021
 C1346 C 0.57118 0.74569 0.44471
 C1347 C 0.58506 0.74459 0.42673
 C1348 C 0.57723 0.74762 0.40626
 C1349 C 0.59094 0.74679 0.38892
 C1350 C 0.61265 0.74288 0.39187
 C1351 C 0.62031 0.73980 0.41252
 C1352 C 0.60660 0.74066 0.42980
 C1353 C 0.62738 0.74229 0.37360
 C1354 C 0.64378 0.72727 0.37280
 C1355 C 0.65820 0.72727 0.35607
 C1356 C 0.65644 0.74225 0.33991
 C1357 C 0.64000 0.75707 0.34039
 C1358 C 0.62554 0.75709 0.35711
 C1359 C 0.67188 0.74277 0.32323
 C1360 C 0.68511 0.74327 0.30953
 H1361 H 0.56057 0.75064 0.40371
 H1362 H 0.58455 0.74902 0.37321
 H1363 H 0.63697 0.73710 0.41535
 H1364 H 0.61284 0.73838 0.44558
 H1365 H 0.64544 0.71549 0.38510
 H1366 H 0.67084 0.71570 0.35584
 H1367 H 0.63854 0.76879 0.32800
 H1368 H 0.61325 0.76900 0.35740
 C1369 C 0.96392 0.75073 0.94128
 C1370 C 0.94809 0.75062 0.93067
 C1371 C 0.92943 0.75048 0.91768
 C1372 C 0.92568 0.73354 0.90398
 C1373 C 0.90794 0.73366 0.89081
 C1374 C 0.89373 0.75078 0.89115
 C1375 C 0.89754 0.76766 0.90512
 C1376 C 0.91529 0.76749 0.91830
 C1377 C 0.87529 0.75120 0.87663
 C1378 C 0.86957 0.76998 0.86618
 C1379 C 0.85272 0.77019 0.85189
 C1380 C 0.84134 0.75167 0.84790
 C1381 C 0.84672 0.73297 0.85841
 C1382 C 0.86358 0.73273 0.87269
 C1383 C 0.82457 0.75169 0.83254
 C1384 C 0.81076 0.75163 0.81943
 H1385 H 0.93659 0.72035 0.90330
 H1386 H 0.90561 0.72059 0.88002
 H1387 H 0.88676 0.78093 0.90592
 H1388 H 0.91804 0.78067 0.92886
 H1389 H 0.87844 0.78439 0.86866
 H1390 H 0.84874 0.78472 0.84375
 H1391 H 0.83800 0.71855 0.85545
 H1392 H 0.86743 0.71810 0.88069
 C1393 C 0.46249 0.25034 0.44117
 C1394 C 0.44662 0.25023 0.43062
 C1395 C 0.42795 0.25015 0.41761
 C1396 C 0.42306 0.23235 0.40544
 C1397 C 0.40545 0.23252 0.39210
 C1398 C 0.39249 0.25056 0.39072
 C1399 C 0.39740 0.26830 0.40320
 C1400 C 0.41503 0.26808 0.41655
 C1401 C 0.37424 0.25101 0.37594
 C1402 C 0.36991 0.26920 0.36389
 C1403 C 0.35321 0.26938 0.34943
 C1404 C 0.34058 0.25143 0.34683
 C1405 C 0.34460 0.23334 0.35890
 C1406 C 0.36131 0.23312 0.37336
 C1407 C 0.32390 0.25138 0.33136
 C1408 C 0.31015 0.25126 0.31816
 H1409 H 0.43303 0.21842 0.40605
 H1410 H 0.40227 0.21873 0.38250
 H1411 H 0.38759 0.28232 0.40269
 H1412 H 0.41866 0.28194 0.42591
 H1413 H 0.37975 0.28312 0.36528
 H1414 H 0.35030 0.28344 0.34009
 H1415 H 0.33492 0.21936 0.35702
 H1416 H 0.36408 0.21897 0.38257
 C1417 C 0.03954 0.75074 0.05508
 C1418 C 0.05503 0.75115 0.06615
 C1419 C 0.07302 0.75163 0.08004
 C1420 C 0.07667 0.76938 0.09271
 C1421 C 0.09335 0.76943 0.10718
 C1422 C 0.10659 0.75166 0.10922
 C1423 C 0.10298 0.73400 0.09619
 C1424 C 0.08628 0.73400 0.08171
 C1425 C 0.12371 0.75137 0.12527
 C1426 C 0.12753 0.73309 0.13735
 C1427 C 0.14325 0.73297 0.15286
 C1428 C 0.15536 0.75108 0.15652
 C1429 C 0.15179 0.76930 0.14451
 C1430 C 0.13607 0.76946 0.12898
 C1431 C 0.17138 0.75100 0.17266
 C1432 C 0.18480 0.75093 0.18617
 H1433 H 0.06639 0.78305 0.09165
 H1434 H 0.09554 0.78315 0.11717
 H1435 H 0.11306 0.72020 0.09720
 H1436 H 0.08357 0.72016 0.07200
 H1437 H 0.11809 0.71901 0.13508
 H1438 H 0.14586 0.71880 0.16211
 H1439 H 0.16114 0.78339 0.14716
 H1440 H 0.13367 0.78369 0.11979
 C1441 C 0.54044 0.25101 0.55478
 C1442 C 0.55603 0.25135 0.56573
 C1443 C 0.57414 0.25174 0.57950
 C1444 C 0.57862 0.26988 0.59132
 C1445 C 0.59535 0.26988 0.60574
 C1446 C 0.60783 0.25167 0.60858
 C1447 C 0.60341 0.23362 0.59636
 C1448 C 0.58666 0.23366 0.58194
 C1449 C 0.62497 0.25135 0.62464
 C1450 C 0.62808 0.23344 0.63746
 C1451 C 0.64381 0.23333 0.65298
 C1452 C 0.65664 0.25108 0.65591
 C1453 C 0.65378 0.26892 0.64316
 C1454 C 0.63805 0.26908 0.62763
 C1455 C 0.67262 0.25103 0.67210
 C1456 C 0.68597 0.25096 0.68570
 H1457 H 0.56892 0.28391 0.58967
 H1458 H 0.59816 0.28393 0.61509
 H1459 H 0.61289 0.21945 0.59798
 H1460 H 0.58331 0.21951 0.57290
 H1461 H 0.61809 0.21967 0.63577
 H1462 H 0.64585 0.21945 0.66279
 H1463 H 0.66367 0.28273 0.64525
 H1464 H 0.63621 0.28300 0.61786
 C1465 C 0.94564 0.25123 0.03666
 C1466 C 0.93493 0.25169 0.05241
 C1467 C 0.92165 0.25218 0.07086
 C1468 C 0.91961 0.23420 0.08354
 C1469 C 0.90588 0.23435 0.10085
 C1470 C 0.89398 0.25253 0.10568
 C1471 C 0.89637 0.27062 0.09299
 C1472 C 0.91010 0.27042 0.07569
 C1473 C 0.87873 0.25248 0.12353
 C1474 C 0.87653 0.27031 0.13664
 C1475 C 0.86167 0.27046 0.15299
 C1476 C 0.84883 0.25281 0.15646
 C1477 C 0.85103 0.23492 0.14364
 C1478 C 0.86588 0.23474 0.12728
 C1479 C 0.83311 0.25317 0.17288
 C1480 C 0.81975 0.25341 0.18645
 H1481 H 0.92847 0.21999 0.07993
 H1482 H 0.90458 0.22027 0.11047
 H1483 H 0.88723 0.28476 0.09611
 H1484 H 0.91146 0.28439 0.06589
 H1485 H 0.88635 0.28411 0.13430
 H1486 H 0.86011 0.28437 0.16285
 H1487 H 0.84111 0.22121 0.14613
 H1488 H 0.86698 0.22089 0.11729
 C1489 C 0.44568 0.75135 0.53670
 C1490 C 0.43484 0.75144 0.55236
 C1491 C 0.42140 0.75147 0.57069
 C1492 C 0.40930 0.73362 0.57549
 C1493 C 0.39547 0.73390 0.59271
 C1494 C 0.39354 0.75210 0.60535
 C1495 C 0.40598 0.76988 0.60055
 C1496 C 0.41981 0.76955 0.58332
 C1497 C 0.37820 0.75268 0.62311
 C1498 C 0.36582 0.77081 0.62674
 C1499 C 0.35089 0.77113 0.64301
 C1500 C 0.34813 0.75337 0.65588
 C1501 C 0.36051 0.73533 0.65254
 C1502 C 0.37545 0.73497 0.63627
 C1503 C 0.33233 0.75354 0.67222
 C1504 C 0.31894 0.75370 0.68576
 H1505 H 0.41032 0.71958 0.56574
 H1506 H 0.38591 0.72007 0.59581
 H1507 H 0.40504 0.78402 0.61014
 H1508 H 0.42912 0.78346 0.57974
 H1509 H 0.36735 0.78457 0.61671
 H1510 H 0.34133 0.78514 0.64541
 H1511 H 0.35853 0.72151 0.66245
 H1512 H 0.38492 0.72088 0.63403
 C1513 C 0.24869 0.05940 0.96472
 C1514 C 0.24842 0.07025 0.94907
 C1515 C 0.24803 0.08355 0.93064
 C1516 C 0.23496 0.10140 0.93023
 C1517 C 0.23485 0.11467 0.91259
 C1518 C 0.24784 0.11027 0.89508
 C1519 C 0.26084 0.09221 0.89559
 C1520 C 0.26092 0.07894 0.91326
 C1521 C 0.24808 0.12469 0.87657
 C1522 C 0.26724 0.12990 0.86656
 C1523 C 0.26753 0.14409 0.84964
 C1524 C 0.24870 0.15322 0.84246
 C1525 C 0.22953 0.14795 0.85213
 C1526 C 0.22920 0.13377 0.86906
 C1527 C 0.24909 0.16848 0.82561
 C1528 C 0.24933 0.18153 0.81174
 H1529 H 0.22499 0.10516 0.94364
 H1530 H 0.22490 0.12860 0.91282
 H1531 H 0.27084 0.08827 0.88227
 H1532 H 0.27107 0.06514 0.91341
 H1533 H 0.28206 0.12339 0.87214
 H1534 H 0.28247 0.14815 0.84233
 H1535 H 0.21486 0.15491 0.84668
 H1536 H 0.21417 0.12987 0.87624
 C1537 C 0.74966 0.55983 0.46355
 C1538 C 0.74930 0.57049 0.44777
 C1539 C 0.74881 0.58360 0.42921
 C1540 C 0.73483 0.60071 0.42819
 C1541 C 0.73470 0.61389 0.41048
 C1542 C 0.74860 0.61015 0.39353
 C1543 C 0.76250 0.59279 0.39463
 C1544 C 0.76258 0.57961 0.41237
 C1545 C 0.74889 0.62457 0.37503
 C1546 C 0.76817 0.63081 0.36589
 C1547 C 0.76847 0.64504 0.34900
 C1548 C 0.74952 0.65319 0.34100
 C1549 C 0.73025 0.64688 0.34979
 C1550 C 0.72991 0.63266 0.36669
 C1551 C 0.74987 0.66853 0.32423
 C1552 C 0.75007 0.68165 0.31043
 H1553 H 0.72417 0.60400 0.44118
 H1554 H 0.72403 0.62729 0.41025
 H1555 H 0.77321 0.58936 0.38174
 H1556 H 0.77346 0.56639 0.41299
 H1557 H 0.78305 0.62508 0.37212
 H1558 H 0.78348 0.64991 0.34238
 H1559 H 0.71548 0.65309 0.34371
 H1560 H 0.71481 0.62795 0.37320
 C1561 C 0.75355 0.03997 0.05931
 C1562 C 0.75459 0.05555 0.07022
 C1563 C 0.75582 0.07372 0.08382
 C1564 C 0.74500 0.09232 0.07868
 C1565 C 0.74562 0.10965 0.09240
 C1566 C 0.75708 0.10857 0.11144
 C1567 C 0.76808 0.08986 0.11632
 C1568 C 0.76743 0.07257 0.10261
 C1569 C 0.75718 0.12663 0.12643
 C1570 C 0.77578 0.13221 0.13727
 C1571 C 0.77564 0.14865 0.15203
 C1572 C 0.75693 0.15974 0.15614
 C1573 C 0.73842 0.15449 0.14525
 C1574 C 0.73852 0.13807 0.13047
 C1575 C 0.75663 0.17613 0.17189
 C1576 C 0.75634 0.18970 0.18526
 H1577 H 0.73598 0.09338 0.06417
 H1578 H 0.73719 0.12392 0.08809
 H1579 H 0.77679 0.08842 0.13098
 H1580 H 0.77576 0.05820 0.10679
 H1581 H 0.79045 0.12389 0.13430
 H1582 H 0.79007 0.15261 0.16034
 H1583 H 0.72383 0.16293 0.14837
 H1584 H 0.72390 0.13398 0.12260
 C1585 C 0.25129 0.53935 0.55980
 C1586 C 0.25201 0.55475 0.57099
 C1587 C 0.25288 0.57258 0.58509
 C1588 C 0.25400 0.59320 0.57717
 C1589 C 0.25484 0.61039 0.59108
 C1590 C 0.25462 0.60713 0.61309
 C1591 C 0.25347 0.58634 0.62084
 C1592 C 0.25261 0.56921 0.60694
 C1593 C 0.25545 0.62527 0.62798
 C1594 C 0.26761 0.62403 0.64656
 C1595 C 0.26783 0.64077 0.66097
 C1596 C 0.25593 0.65899 0.65703
 C1597 C 0.24398 0.66052 0.63847
 C1598 C 0.24375 0.64379 0.62401
 C1599 C 0.25563 0.67586 0.67230
 C1600 C 0.25535 0.68972 0.68537
 H1601 H 0.25428 0.59598 0.56029
 H1602 H 0.25594 0.62620 0.58463
 H1603 H 0.25292 0.58331 0.63767
 H1604 H 0.25167 0.55332 0.61324
 H1605 H 0.27702 0.61013 0.64993
 H1606 H 0.27717 0.63944 0.67526
 H1607 H 0.23465 0.67453 0.63529
 H1608 H 0.23406 0.64513 0.60997
 C1609 C 0.74778 0.96460 0.94550
 C1610 C 0.74750 0.94887 0.93477
 C1611 C 0.74732 0.93040 0.92153
 C1612 C 0.72862 0.91896 0.91867
 C1613 C 0.72826 0.90156 0.90506
 C1614 C 0.74662 0.89538 0.89412
 C1615 C 0.76540 0.90684 0.89731
 C1616 C 0.76572 0.92424 0.91091
 C1617 C 0.74610 0.87744 0.87901
 C1618 C 0.76312 0.86314 0.87778
 C1619 C 0.76292 0.84671 0.86301
 C1620 C 0.74574 0.84435 0.84929
 C1621 C 0.72864 0.85834 0.85054
 C1622 C 0.72880 0.87477 0.86530
 C1623 C 0.74585 0.82791 0.83360
 C1624 C 0.74596 0.81433 0.82025
 H1625 H 0.71429 0.92360 0.92682
 H1626 H 0.71363 0.89290 0.90313
 H1627 H 0.77971 0.90268 0.88890
 H1628 H 0.78025 0.93306 0.91292
 H1629 H 0.77654 0.86463 0.88829
 H1630 H 0.77622 0.83595 0.86219
 H1631 H 0.71530 0.85670 0.83993
 H1632 H 0.71560 0.88567 0.86565
 C1633 C 0.24767 0.46338 0.44491
 C1634 C 0.24743 0.44775 0.43401
 C1635 C 0.24726 0.42944 0.42053
 C1636 C 0.22857 0.41803 0.41751
 C1637 C 0.22821 0.40084 0.40362
 C1638 C 0.24656 0.39485 0.39255
 C1639 C 0.26533 0.40629 0.39591
 C1640 C 0.26565 0.42347 0.40978
 C1641 C 0.24605 0.37712 0.37717
 C1642 C 0.26309 0.36287 0.37571
 C1643 C 0.26285 0.34659 0.36077
 C1644 C 0.24561 0.34433 0.34710
 C1645 C 0.22851 0.35830 0.34855
 C1646 C 0.22871 0.37458 0.36348
 C1647 C 0.24560 0.32791 0.33137
 C1648 C 0.24563 0.31428 0.31805
 H1649 H 0.21424 0.42252 0.42575
 H1650 H 0.21359 0.39219 0.40158
 H1651 H 0.27964 0.40227 0.38741
 H1652 H 0.28017 0.43228 0.41191
 H1653 H 0.27655 0.36426 0.38618
 H1654 H 0.27615 0.33583 0.35981
 H1655 H 0.21512 0.35674 0.33799
 H1656 H 0.21549 0.38546 0.36400
 C1657 C 0.24836 0.94451 0.03864
 C1658 C 0.24776 0.93319 0.05395
 C1659 C 0.24695 0.91902 0.07170
 C1660 C 0.25897 0.92303 0.08983
 C1661 C 0.25874 0.90872 0.10668
 C1662 C 0.24647 0.89020 0.10558
 C1663 C 0.23430 0.88645 0.08736
 C1664 C 0.23457 0.90075 0.07055
 C1665 C 0.24668 0.87462 0.12313
 C1666 C 0.22796 0.86436 0.12935
 C1667 C 0.22831 0.84920 0.14541
 C1668 C 0.24734 0.84407 0.15545
 C1669 C 0.26601 0.85431 0.14952
 C1670 C 0.26570 0.86949 0.13347
 C1671 C 0.24775 0.82812 0.17165
 C1672 C 0.24810 0.81469 0.18515
 H1673 H 0.26861 0.93712 0.09088
 H1674 H 0.26808 0.91217 0.12059
 H1675 H 0.22494 0.87221 0.08589
 H1676 H 0.22531 0.89743 0.05653
 H1677 H 0.21304 0.86815 0.12188
 H1678 H 0.21375 0.84141 0.14992
 H1679 H 0.28084 0.85042 0.15715
 H1680 H 0.28041 0.87689 0.12886
 C1681 C 0.75103 0.44552 0.54027
 C1682 C 0.75088 0.43448 0.55579
 C1683 C 0.75065 0.42065 0.57383
 C1684 C 0.73165 0.41158 0.58053
 C1685 C 0.73156 0.39709 0.59720
 C1686 C 0.75053 0.39144 0.60735
 C1687 C 0.76951 0.40092 0.60071
 C1688 C 0.76956 0.41541 0.58404
 C1689 C 0.75058 0.37530 0.62439
 C1690 C 0.76664 0.35993 0.62530
 C1691 C 0.76645 0.34442 0.64102
 C1692 C 0.75024 0.34407 0.65604
 C1693 C 0.73424 0.35935 0.65536
 C1694 C 0.73439 0.37487 0.63963
 C1695 C 0.75000 0.32798 0.67209
 C1696 C 0.74988 0.31448 0.68552
 H1697 H 0.71694 0.41541 0.57263
 H1698 H 0.71674 0.38988 0.60175
 H1699 H 0.78433 0.39710 0.60839
 H1700 H 0.78437 0.42232 0.57896
 H1701 H 0.77914 0.35964 0.61361
 H1702 H 0.77888 0.33264 0.64137
 H1703 H 0.72165 0.35925 0.66696
 H1704 H 0.72194 0.38662 0.63950
 C1705 C 0.03698 0.05406 0.74917
 C1706 C 0.05287 0.06457 0.74918
 C1707 C 0.07142 0.07769 0.74926
 C1708 C 0.08357 0.07987 0.73092
 C1709 C 0.10090 0.09357 0.73068
 C1710 C 0.10626 0.10530 0.74880
 C1711 C 0.09413 0.10273 0.76726
 C1712 C 0.07682 0.08903 0.76746
 C1713 C 0.12401 0.12063 0.74831
 C1714 C 0.13763 0.12280 0.76576
 C1715 C 0.15384 0.13780 0.76553
 C1716 C 0.15666 0.15081 0.74788
 C1717 C 0.14334 0.14863 0.73037
 C1718 C 0.12713 0.13364 0.73055
 C1719 C 0.17291 0.16669 0.74786
 C1720 C 0.18634 0.18018 0.74777
 H1721 H 0.07952 0.07117 0.71674
 H1722 H 0.11008 0.09500 0.71632
 H1723 H 0.09766 0.11174 0.78137
 H1724 H 0.06743 0.08756 0.78170
 H1725 H 0.13579 0.11285 0.77955
 H1726 H 0.16410 0.13933 0.77916
 H1727 H 0.14533 0.15867 0.71665
 H1728 H 0.11674 0.13257 0.71700
 C1729 C 0.53844 0.55352 0.24840
 C1730 C 0.55434 0.56398 0.24843
 C1731 C 0.57289 0.57710 0.24851
 C1732 C 0.58502 0.57933 0.23017
 C1733 C 0.60226 0.59313 0.22990
 C1734 C 0.60755 0.60492 0.24800
 C1735 C 0.59545 0.60229 0.26647
 C1736 C 0.57823 0.58849 0.26670
 C1737 C 0.62516 0.62041 0.24746
 C1738 C 0.63877 0.62273 0.26489
 C1739 C 0.65484 0.63788 0.26462
 C1740 C 0.65751 0.65088 0.24694
 C1741 C 0.64419 0.64855 0.22945
 C1742 C 0.62812 0.63342 0.22968
 C1743 C 0.67364 0.66688 0.24686
 C1744 C 0.68699 0.68043 0.24675
 H1745 H 0.58100 0.57060 0.21599
 H1746 H 0.61143 0.59461 0.21553
 H1747 H 0.59893 0.61135 0.28056
 H1748 H 0.56885 0.58700 0.28094
 H1749 H 0.63704 0.61279 0.27870
 H1750 H 0.66509 0.63953 0.27823
 H1751 H 0.64607 0.65860 0.21571
 H1752 H 0.61772 0.63224 0.21614
 C1753 C 0.05410 0.96000 0.24991
 C1754 C 0.06503 0.94438 0.24965
 C1755 C 0.07872 0.92623 0.24930
 C1756 C 0.08664 0.91797 0.26822
 C1757 C 0.10104 0.90121 0.26785
 C1758 C 0.10776 0.89251 0.24851
 C1759 C 0.09944 0.90071 0.22958
 C1760 C 0.08503 0.91747 0.23000
 C1761 C 0.12382 0.87538 0.24809
 C1762 C 0.14013 0.87558 0.23296
 C1763 C 0.15562 0.85982 0.23293
 C1764 C 0.15502 0.84365 0.24799
 C1765 C 0.13879 0.84320 0.26300
 C1766 C 0.12328 0.85896 0.26306
 C1767 C 0.17122 0.82768 0.24819
 C1768 C 0.18484 0.81435 0.24842
 H1769 H 0.08197 0.92474 0.28325
 H1770 H 0.10735 0.89544 0.28267
 H1771 H 0.10410 0.89418 0.21447
 H1772 H 0.07903 0.92378 0.21525
 H1773 H 0.14116 0.88817 0.22142
 H1774 H 0.16815 0.86034 0.22128
 H1775 H 0.13816 0.83072 0.27469
 H1776 H 0.11080 0.85824 0.27475
 C1777 C 0.55467 0.46011 0.75006
 C1778 C 0.56571 0.44457 0.74969
 C1779 C 0.57953 0.42649 0.74922
 C1780 C 0.58647 0.41734 0.76811
 C1781 C 0.60091 0.40060 0.76771
 C1782 C 0.60867 0.39283 0.74836
 C1783 C 0.60135 0.40194 0.72943
 C1784 C 0.58689 0.41866 0.72988
 C1785 C 0.62474 0.37570 0.74795
 C1786 C 0.64181 0.37657 0.73371
 C1787 C 0.65725 0.36075 0.73368
 C1788 C 0.65586 0.34384 0.74785
 C1789 C 0.63888 0.34274 0.76198
 C1790 C 0.62341 0.35856 0.76205
 C1791 C 0.67199 0.32778 0.74806
 C1792 C 0.68555 0.31438 0.74831
 H1793 H 0.58099 0.42337 0.78318
 H1794 H 0.60644 0.39413 0.78255
 H1795 H 0.60680 0.39614 0.71429
 H1796 H 0.58166 0.42566 0.71515
 H1797 H 0.64346 0.38970 0.72288
 H1798 H 0.67037 0.36180 0.72273
 H1799 H 0.63761 0.32969 0.77298
 H1800 H 0.61035 0.35730 0.77302
 C1801 C 0.94069 0.03632 0.24849
 C1802 C 0.93014 0.05218 0.24800
 C1803 C 0.91717 0.07085 0.24737
 C1804 C 0.92176 0.08807 0.26046
 C1805 C 0.90872 0.10594 0.26025
 C1806 C 0.89093 0.10679 0.24692
 C1807 C 0.88660 0.08947 0.23368
 C1808 C 0.89963 0.07163 0.23392
 C1809 C 0.87664 0.12542 0.24716
 C1810 C 0.86794 0.13325 0.22824
 C1811 C 0.85378 0.15022 0.22859
 C1812 C 0.84814 0.15959 0.24781
 C1813 C 0.85692 0.15211 0.26668
 C1814 C 0.87109 0.13515 0.26637
 C1815 C 0.83276 0.17635 0.24824
 C1816 C 0.81955 0.19008 0.24859
 H1817 H 0.93532 0.08765 0.27090
 H1818 H 0.91261 0.11913 0.27044
 H1819 H 0.87287 0.08950 0.22346
 H1820 H 0.89590 0.05834 0.22379
 H1821 H 0.87210 0.12627 0.21318
 H1822 H 0.84707 0.15589 0.21389
 H1823 H 0.85256 0.15918 0.28166
 H1824 H 0.87729 0.12931 0.28121
 C1825 C 0.44034 0.53710 0.74866
 C1826 C 0.42963 0.55287 0.74818
 C1827 C 0.41642 0.57139 0.74752
 C1828 C 0.42216 0.58964 0.75860
 C1829 C 0.40897 0.60741 0.75832
 C1830 C 0.38987 0.60713 0.74692
 C1831 C 0.38434 0.58873 0.73571
 C1832 C 0.39753 0.57101 0.73604
 C1833 C 0.37553 0.62574 0.74699
 C1834 C 0.36483 0.63185 0.72847
 C1835 C 0.35067 0.64883 0.72876
 C1836 C 0.34703 0.65995 0.74753
 C1837 C 0.35779 0.65419 0.76597
 C1838 C 0.37197 0.63722 0.76572
 C1839 C 0.33171 0.67678 0.74800
 C1840 C 0.31856 0.69058 0.74836
 H1841 H 0.43676 0.59012 0.76753
 H1842 H 0.41378 0.62141 0.76690
 H1843 H 0.36961 0.58789 0.72705
 H1844 H 0.39288 0.55692 0.72748
 H1845 H 0.36743 0.62352 0.71375
 H1846 H 0.34243 0.65316 0.71439
 H1847 H 0.35501 0.66262 0.78062
 H1848 H 0.37974 0.63274 0.78029
 C1849 C 0.95892 0.94200 0.75066
 C1850 C 0.94310 0.93141 0.75130
 C1851 C 0.92462 0.91819 0.75208
 C1852 C 0.91537 0.91321 0.77153
 C1853 C 0.89819 0.89936 0.77241
 C1854 C 0.89004 0.89028 0.75381
 C1855 C 0.89927 0.89565 0.73430
 C1856 C 0.91645 0.90949 0.73346
 C1857 C 0.87241 0.87483 0.75477
 C1858 C 0.85629 0.87504 0.73944
 C1859 C 0.84010 0.86003 0.73999
 C1860 C 0.83978 0.84462 0.75585
 C1861 C 0.85562 0.84440 0.77128
 C1862 C 0.87182 0.85939 0.77077
 C1863 C 0.82348 0.82878 0.75604
 C1864 C 0.80997 0.81537 0.75610
 H1865 H 0.92159 0.91983 0.78604
 H1866 H 0.89127 0.89575 0.78763
 H1867 H 0.89356 0.88872 0.71974
 H1868 H 0.92359 0.91313 0.71833
 H1869 H 0.85615 0.88687 0.72709
 H1870 H 0.82789 0.86037 0.72799
 H1871 H 0.85558 0.83249 0.78358
 H1872 H 0.88414 0.85862 0.78262
 C1873 C 0.45816 0.44172 0.25023
 C1874 C 0.44228 0.43122 0.25077
 C1875 C 0.42378 0.41804 0.25143
 C1876 C 0.41455 0.41285 0.27084
 C1877 C 0.39742 0.39894 0.27160
 C1878 C 0.38931 0.38999 0.25292
 C1879 C 0.39850 0.39558 0.23345
 C1880 C 0.41563 0.40949 0.23274
 C1881 C 0.37179 0.37441 0.25375
 C1882 C 0.35567 0.37462 0.23843
 C1883 C 0.33961 0.35948 0.23884
 C1884 C 0.33943 0.34393 0.25456
 C1885 C 0.35528 0.34369 0.26999
 C1886 C 0.37135 0.35882 0.26961
 C1887 C 0.32324 0.32798 0.25464
 C1888 C 0.30979 0.31451 0.25462
 H1889 H 0.42077 0.41934 0.28541
 H1890 H 0.39053 0.39515 0.28679
 H1891 H 0.39283 0.38875 0.21883
 H1892 H 0.42276 0.41327 0.21764
 H1893 H 0.35544 0.38656 0.22617
 H1894 H 0.32740 0.35982 0.22685
 H1895 H 0.35533 0.33167 0.28218
 H1896 H 0.38368 0.35803 0.28144
   
