data_POSCAR
  _audit_creation_date              2014-09-24
  _audit_creation_method            'ToBaCCo'
  _symmetry_space_group_name_H-M    'P1'
  _symmetry_Int_Tables_number       1
  _symmetry_cell_setting            triclinic
  loop_
  _symmetry_equiv_pos_as_xyz
 x,y,z
_cell_length_a 56.9972
_cell_length_b 56.9721
_cell_length_c 56.5359
_cell_angle_alpha 88.763200
_cell_angle_beta 89.471400
_cell_angle_gamma 89.713200
loop_
  _atom_site_label
  _atom_site_type_symbol
  _atom_site_fract_x
  _atom_site_fract_y
  _atom_site_fract_z
C1 C 0.11477 0.00556 0.22639
 C2 C 0.12076 0.03119 0.22948
 C3 C 0.13673 0.03525 0.24790
 C4 C 0.14382 0.01267 0.26175
 C5 C 0.13812 -0.00716 0.22378
 C6 C 0.15377 -0.00388 0.24287
 C7 C 0.10514 -0.00271 0.25020
 C8 C 0.12022 0.00150 0.26939
 H9 H 0.11412 0.04506 0.21790
 H10 H 0.15610 0.01551 0.27647
 H11 H 0.14074 -0.02025 0.21041
 H12 H 0.08767 -0.00990 0.25248
 C13 C 0.36927 0.00838 0.72141
 C14 C 0.35489 -0.01393 0.72182
 C15 C 0.34324 -0.01872 0.74374
 C16 C 0.34742 0.00046 0.76211
 C17 C 0.35193 0.02758 0.72795
 C18 C 0.34056 0.02397 0.75017
 C19 C 0.38529 0.00626 0.74109
 C20 C 0.37446 0.00217 0.76364
 H21 H 0.35320 -0.02441 0.70621
 H22 H 0.33796 -0.00294 0.77904
 H23 H 0.34873 0.04267 0.71645
 H24 H 0.40403 0.00890 0.73902
 C25 C 0.87629 0.49673 0.21994
 C26 C 0.86196 0.47465 0.22314
 C27 C 0.84487 0.47559 0.24147
 C28 C 0.84438 0.49944 0.25400
 C29 C 0.85845 0.51624 0.21583
 C30 C 0.84194 0.51867 0.23446
 C31 C 0.88669 0.50113 0.24419
 C32 C 0.86960 0.50246 0.26271
 H33 H 0.86396 0.46006 0.21133
 H34 H 0.83084 0.50025 0.26820
 H35 H 0.86075 0.52948 0.20195
 H36 H 0.90542 0.50188 0.24677
 C37 C 0.61203 0.49348 0.74100
 C38 C 0.62840 0.51421 0.73796
 C39 C 0.64641 0.51497 0.75487
 C40 C 0.64574 0.49419 0.77286
 C41 C 0.62779 0.47194 0.74065
 C42 C 0.64627 0.47212 0.75743
 C43 C 0.60288 0.49456 0.76627
 C44 C 0.62081 0.49465 0.78368
 H45 H 0.62629 0.52747 0.72409
 H46 H 0.65995 0.49436 0.78616
 H47 H 0.62357 0.45710 0.72991
 H48 H 0.58433 0.49604 0.77005
 C49 C 0.21829 0.10551 1.00606
 C50 C 0.22393 0.11669 1.02933
 C51 C 0.24238 0.13319 1.02797
 C52 C 0.25331 0.13594 1.00286
 C53 C 0.21370 0.12577 0.98891
 C54 C 0.23248 0.14179 0.98632
 C55 C 0.24123 0.09466 0.99773
 C56 C 0.26028 0.11059 0.99642
 H57 H 0.21471 0.11221 1.04565
 H58 H 0.26779 0.14877 1.00157
 H59 H 0.19847 0.12631 0.97756
 H60 H 0.24315 0.07610 0.99430
 C61 C 0.72959 0.38701 0.99835
 C62 C 0.72576 0.36626 0.98454
 C63 C 0.74420 0.34951 0.98541
 C64 C 0.76409 0.35669 1.00201
 C65 C 0.73318 0.37895 1.02250
 C66 C 0.75149 0.36226 1.02554
 C67 C 0.75354 0.39668 0.99011
 C68 C 0.77182 0.38095 0.99225
 H69 H 0.71106 0.36460 0.97263
 H70 H 0.77849 0.34362 1.00366
 H71 H 0.72277 0.38521 1.03727
 H72 H 0.75536 0.41466 0.98395
 C73 C 0.23568 0.89515 0.49445
 C74 C 0.23080 0.87720 0.47576
 C75 C 0.24885 0.86048 0.47281
 C76 C 0.26960 0.86378 0.48970
 C77 C 0.24043 0.88094 0.51695
 C78 C 0.25866 0.86398 0.51465
 C79 C 0.25922 0.90596 0.48755
 C80 C 0.27781 0.88922 0.48552
 H81 H 0.21517 0.87772 0.46496
 H82 H 0.28385 0.85056 0.48798
 H83 H 0.22978 0.88309 0.53268
 H84 H 0.26136 0.92474 0.48591
 C85 C 0.71536 0.60241 0.50921
 C86 C 0.72237 0.60985 0.53362
 C87 C 0.74145 0.62555 0.53384
 C88 C 0.75170 0.63122 0.50889
 C89 C 0.71124 0.62506 0.49518
 C90 C 0.73082 0.64020 0.49397
 C91 C 0.73749 0.59175 0.49856
 C92 C 0.75724 0.60686 0.49865
 H93 H 0.71334 0.60376 0.54955
 H94 H 0.76662 0.64353 0.50906
 H95 H 0.69597 0.62762 0.48410
 H96 H 0.73830 0.57392 0.49227
 C97 C 0.01093 0.21755 0.10531
 C98 C 0.03379 0.21845 0.11873
 C99 C 0.03511 0.23705 0.13474
 C100 C 0.01288 0.25258 0.13514
 C101 C -0.00817 0.21678 0.12417
 C102 C -0.00727 0.23535 0.14047
 C103 C 0.00836 0.24161 0.09327
 C104 C 0.00921 0.26060 0.10927
 H105 H 0.04782 0.20577 0.11638
 H106 H 0.01348 0.26720 0.14778
 H107 H -0.02256 0.20452 0.12331
 H108 H 0.00629 0.24359 0.07436
 C109 C 0.01117 0.73821 0.38814
 C110 C -0.01025 0.74209 0.37540
 C111 C -0.01078 0.76262 0.36045
 C112 C 0.01251 0.77662 0.36109
 C113 C 0.03061 0.73792 0.36962
 C114 C 0.03207 0.75861 0.35538
 C115 C 0.01525 0.76047 0.40190
 C116 C 0.01577 0.78130 0.38771
 H117 H -0.02392 0.72896 0.37576
 H118 H 0.01263 0.79249 0.34942
 H119 H 0.04383 0.72418 0.36921
 H120 H 0.01701 0.76046 0.42097
 C121 C 0.49832 0.24401 0.88818
 C122 C 0.47621 0.24676 0.87369
 C123 C 0.47573 0.26710 0.85878
 C124 C 0.49820 0.28187 0.86036
 C125 C 0.51847 0.24473 0.87048
 C126 C 0.51876 0.26497 0.85537
 C127 C 0.50027 0.26674 0.90170
 C128 C 0.50009 0.28734 0.88687
 H129 H 0.46267 0.23350 0.87406
 H130 H 0.49809 0.29777 0.84860
 H131 H 0.53272 0.23220 0.87186
 H132 H 0.50074 0.26675 0.92079
 C133 C 0.50932 0.73713 0.60000
 C134 C 0.52992 0.73722 0.61680
 C135 C 0.53216 0.75826 0.62955
 C136 C 0.51300 0.77650 0.62359
 C137 C 0.48788 0.74261 0.61509
 C138 C 0.48960 0.76372 0.62789
 C139 C 0.51265 0.75875 0.58404
 C140 C 0.51427 0.78008 0.59643
 H141 H 0.54287 0.72327 0.61695
 H142 H 0.51452 0.79267 0.63400
 H143 H 0.47336 0.73052 0.61684
 H144 H 0.51228 0.75809 0.56490
 C145 C 0.88988 0.99038 0.76704
 C146 C 0.87119 1.00722 0.76975
 C147 C 0.85593 1.00991 0.74998
 C148 C 0.86284 0.99369 0.72949
 C149 C 0.87836 0.96740 0.76091
 C150 C 0.86353 0.96884 0.74087
 C151 C 0.90309 0.99800 0.74474
 C152 C 0.88889 0.99956 0.72429
 H153 H 0.87117 1.01906 0.78448
 H154 H 0.85105 0.99526 0.71402
 H155 H 0.87955 0.95211 0.77255
 H156 H 0.92181 1.00125 0.74437
 C157 C 0.38186 0.51367 0.28323
 C158 C 0.36313 0.53247 0.28555
 C159 C 0.34785 0.53446 0.26609
 C160 C 0.35295 0.51627 0.24690
 C161 C 0.36862 0.49117 0.27926
 C162 C 0.35312 0.49212 0.25977
 C163 C 0.39430 0.51914 0.25971
 C164 C 0.37883 0.52032 0.23995
 H165 H 0.36304 0.54488 0.29982
 H166 H 0.34073 0.51712 0.23172
 H167 H 0.36998 0.47636 0.29149
 H168 H 0.41317 0.52050 0.25841
 C169 C 0.60814 0.99272 0.26404
 C170 C 0.61834 0.96874 0.25845
 C171 C 0.63019 0.96778 0.23631
 C172 C 0.63027 0.99156 0.22293
 C173 C 0.62757 1.00881 0.26259
 C174 C 0.63995 1.00930 0.24053
 C175 C 0.59235 0.99879 0.24303
 C176 C 0.60401 0.99790 0.22073
 H177 H 0.61770 0.95418 0.27106
 H178 H 0.64036 0.99113 0.20610
 H179 H 0.63040 1.02139 0.27634
 H180 H 0.57367 1.00199 0.24487
 C181 C 0.10432 0.50892 0.76017
 C182 C 0.11273 0.48367 0.76191
 C183 C 0.12654 0.47648 0.74252
 C184 C 0.13032 0.49614 0.72369
 C185 C 0.12635 0.52348 0.75674
 C186 C 0.14038 0.51694 0.73711
 C187 C 0.09142 0.51084 0.73664
 C188 C 0.10536 0.50376 0.71692
 H189 H 0.10765 0.47185 0.77634
 H190 H 0.14137 0.49106 0.70836
 H191 H 0.12929 0.53922 0.76668
 H192 H 0.07348 0.51693 0.73545
 C193 C 0.75913 0.88192 0.00824
 C194 C 0.75552 0.86397 0.02810
 C195 C 0.73465 0.85050 0.02621
 C196 C 0.71990 0.85765 0.00435
 C197 C 0.75788 0.86822 -0.01440
 C198 C 0.73708 0.85484 -0.01671
 C199 C 0.73718 0.89703 0.00849
 C200 C 0.71602 0.88443 0.00630
 H201 H 0.76706 0.86318 0.04318
 H202 H 0.70362 0.84723 0.00274
 H203 H 0.77115 0.87005 -0.02812
 H204 H 0.73768 0.91596 0.01000
 C205 C 0.25121 0.38770 0.50428
 C206 C 0.24864 0.36822 0.52290
 C207 C 0.22871 0.35365 0.51983
 C208 C 0.21377 0.36123 0.49836
 C209 C 0.25111 0.37551 0.48073
 C210 C 0.23124 0.36101 0.47731
 C211 C 0.22828 0.40126 0.50524
 C212 C 0.20807 0.38738 0.50233
 H213 H 0.25997 0.36716 0.53814
 H214 H 0.19827 0.34989 0.49582
 H215 H 0.26446 0.37895 0.46739
 H216 H 0.22742 0.41987 0.50875
 C217 C 0.26849 0.60763 0.00833
 C218 C 0.26746 0.61806 -0.01660
 C219 C 0.24778 0.63294 -0.02076
 C220 C 0.23177 0.63521 0.00118
 C221 C 0.26747 0.62844 0.02462
 C222 C 0.24782 0.64337 0.02105
 C223 C 0.24517 0.59505 0.01199
 C224 C 0.22524 0.60977 0.00794
 H225 H 0.28129 0.61483 -0.02933
 H226 H 0.21636 0.64691 -0.00181
 H227 H 0.27936 0.62993 0.03933
 H228 H 0.24431 0.57667 0.01701
 C229 C 0.77111 0.11126 0.50336
 C230 C 0.77066 0.12977 0.48524
 C231 C 0.75023 0.14439 0.48547
 C232 C 0.73299 0.13714 0.50528
 C233 C 0.76822 0.12262 0.52589
 C234 C 0.74778 0.13701 0.52793
 C235 C 0.74990 0.09768 0.50009
 C236 C 0.72865 0.11090 0.50073
 H237 H 0.78341 0.13015 0.47093
 H238 H 0.71714 0.14845 0.50627
 H239 H 0.78167 0.12164 0.53929
 H240 H 0.75010 0.07906 0.49643
 C241 C 1.01176 0.76025 0.88460
 C242 C 1.03106 0.76547 0.86663
 C243 C 1.03416 0.74798 0.84953
 C244 C 1.01607 0.72799 0.85192
 C245 C 0.98980 0.75717 0.87019
 C246 C 0.99171 0.73988 0.85258
 C247 C 1.01734 0.73591 0.89476
 C248 C 1.01948 0.71833 0.87726
 H249 H 1.04338 0.77971 0.86873
 H250 H 1.01756 0.71446 0.83815
 H251 H 0.97469 0.76853 0.87238
 H252 H 1.01770 0.73242 0.91361
 C253 C 0.51439 0.28971 0.37560
 C254 C 0.53329 0.28874 0.35666
 C255 C 0.53426 0.26727 0.34456
 C256 C 0.51474 0.24994 0.35229
 C257 C 0.49172 0.28517 0.36274
 C258 C 0.49156 0.26383 0.35020
 C259 C 0.51854 0.26811 0.39137
 C260 C 0.51810 0.24662 0.37922
 H261 H 0.54661 0.30217 0.35455
 H262 H 0.51473 0.23354 0.34215
 H263 H 0.47780 0.29813 0.36197
 H264 H 0.52034 0.26900 0.41040
 C265 C 0.99944 0.27441 0.61160
 C266 C 0.97505 0.26968 0.62121
 C267 C 0.97361 0.25064 0.63757
 C268 C 0.99756 0.23830 0.64183
 C269 C 1.01453 0.27752 0.63320
 C270 C 1.01447 0.25802 0.64909
 C271 C 1.00732 0.25132 0.60091
 C272 C 1.00587 0.23160 0.61687
 H273 H 0.95989 0.27991 0.61567
 H274 H 0.99679 0.22326 0.65462
 H275 H 1.02632 0.29225 0.63492
 H276 H 1.01097 0.25014 0.58220
 C277 C 0.51773 0.78125 0.11522
 C278 C 0.49290 0.78106 0.12486
 C279 C 0.48835 0.76333 0.14211
 C280 C 0.51008 0.74778 0.14759
 C281 C 0.53315 0.78317 0.13677
 C282 C 0.52971 0.76515 0.15396
 C283 C 0.52188 0.75658 0.10608
 C284 C 0.51742 0.73837 0.12328
 H285 H 0.47950 0.79308 0.11834
 H286 H 0.50690 0.73389 0.16129
 H287 H 0.54702 0.79604 0.13789
 H288 H 0.52744 0.75370 0.08806
 O289 O -0.02811 0.97828 0.93651
 O290 O 0.00721 0.99710 0.93073
 O291 O -0.01131 0.92000 0.98302
 O292 O 0.00337 0.91437 1.01914
 O293 O -0.07210 0.96387 0.99789
 O294 O -0.07712 1.00170 1.01363
 O295 O 0.04768 0.98444 1.04324
 O296 O 0.05317 0.95087 1.02167
 O297 O 0.03463 1.04009 0.99707
 O298 O 0.00836 1.04648 0.96285
 O299 O -0.00969 1.02954 1.05412
 O300 O -0.04232 1.00306 1.06364
 O301 O 0.01580 0.99422 1.06560
 O302 O -0.02326 0.97450 1.07221
 O303 O -0.00126 1.05099 1.02079
 O304 O -0.02060 1.05459 0.98157
 O305 O 0.05706 1.00861 1.00792
 O306 O 0.06036 0.97176 0.98490
 O307 O -0.06037 0.98821 0.95829
 O308 O -0.06766 1.02138 0.98360
 O309 O -0.04992 0.93208 1.00835
 O310 O -0.02274 0.92792 1.04229
 O311 O -0.00324 0.94171 0.94968
 O312 O 0.03120 0.96782 0.94428
 Zr313 Zr -0.00107 0.97635 0.96118
 O314 O 0.02062 0.99883 0.98004
 Zr315 Zr -0.01545 0.94511 1.00949
 O316 O 0.00634 0.96584 1.03034
 Zr317 Zr -0.04786 0.99120 0.99312
 O318 O -0.02805 1.01387 1.01390
 Zr319 Zr 0.03357 0.98037 1.00962
 O320 O 0.01372 0.95696 0.98949
 Zr321 Zr 0.00066 1.02639 0.99388
 O322 O -0.02057 1.00562 0.97235
 Zr323 Zr -0.01284 0.99494 1.04224
 O324 O -0.03546 0.97289 1.02328
 O325 O -0.02943 0.96262 0.98028
 O326 O 0.01519 1.00896 1.02299
 C327 C -0.04997 0.98343 0.93867
 C328 C -0.00675 0.92217 0.96077
 C329 C -0.06966 0.94217 1.00403
 C330 C 0.03784 0.98998 1.06282
 C331 C 0.05423 1.03049 1.00281
 C332 C -0.00519 1.04895 1.04310
 H333 H 0.03354 1.00454 0.96967
 H334 H -0.03824 1.02676 1.01942
 H335 H -0.03936 0.95227 0.97076
 H336 H 0.01269 0.95617 1.04355
 H337 H 0.05016 0.93813 1.01047
 H338 H 0.01833 0.91955 1.02597
 H339 H -0.03407 1.05605 0.99261
 H340 H -0.05860 1.02981 0.97108
 H341 H 0.07571 0.97399 0.99263
 H342 H 0.02786 0.96043 0.92895
 H343 H -0.05137 1.01553 1.05532
 H344 H -0.07516 0.99422 1.02946
 H345 H -0.00057 1.01249 0.93278
 H346 H 0.02213 1.03928 0.95502
 H347 H -0.03612 0.93634 1.04957
 H348 H -0.01169 0.96164 1.07433
 O349 O 0.46131 0.48591 0.45414
 O350 O 0.49744 0.50129 0.44719
 O351 O 0.47416 0.42984 0.50563
 O352 O 0.48868 0.42623 0.54198
 O353 O 0.41637 0.47786 0.51523
 O354 O 0.41340 0.51667 0.52947
 O355 O 0.53739 0.49475 0.56040
 O356 O 0.54080 0.45960 0.54147
 O357 O 0.52762 0.54776 0.51024
 O358 O 0.50150 0.55342 0.47588
 O359 O 0.48282 0.54423 0.56799
 O360 O 0.44989 0.52167 0.57999
 O361 O 0.50629 0.50748 0.58234
 O362 O 0.46507 0.49078 0.58921
 O363 O 0.49257 0.56260 0.53323
 O364 O 0.47320 0.56447 0.49390
 O365 O 0.54822 0.51573 0.52308
 O366 O 0.54901 0.47714 0.50330
 O367 O 0.43000 0.50003 0.47489
 O368 O 0.42418 0.53452 0.49879
 O369 O 0.43675 0.44604 0.52895
 O370 O 0.46330 0.44314 0.56370
 O371 O 0.48418 0.44815 0.47085
 O372 O 0.51983 0.47231 0.46323
 Zr373 Zr 0.48802 0.48371 0.47924
 O374 O 0.51100 0.50631 0.49640
 Zr375 Zr 0.47179 0.45724 0.52975
 O376 O 0.49498 0.47801 0.54894
 Zr377 Zr 0.44221 0.50372 0.50979
 O378 O 0.46346 0.52659 0.52897
 Zr379 Zr 0.52295 0.48929 0.52722
 O380 O 0.50161 0.46565 0.50899
 Zr381 Zr 0.49283 0.53598 0.50822
 O382 O 0.47039 0.51492 0.48823
 Zr383 Zr 0.47771 0.50902 0.55870
 O384 O 0.45354 0.48712 0.54135
 O385 O 0.45890 0.47323 0.49914
 O386 O 0.50651 0.51991 0.53853
 C387 C 0.44007 0.49339 0.45567
 C388 C 0.47933 0.42977 0.48351
 C389 C 0.41768 0.45650 0.52290
 C390 C 0.52800 0.50159 0.57976
 C391 C 0.54670 0.53732 0.51630
 C392 C 0.48843 0.56252 0.55557
 H393 H 0.52418 0.51050 0.48565
 H394 H 0.45409 0.54044 0.53353
 H395 H 0.44848 0.46291 0.49012
 H396 H 0.50072 0.46886 0.56280
 H397 H 0.53685 0.44622 0.53137
 H398 H 0.50399 0.43098 0.54832
 H399 H 0.46014 0.56779 0.50498
 H400 H 0.43371 0.54181 0.48590
 H401 H 0.56454 0.47890 0.51082
 H402 H 0.51612 0.46354 0.44876
 H403 H 0.43932 0.53084 0.56950
 H404 H 0.41454 0.50943 0.54550
 H405 H 0.49153 0.51759 0.44838
 H406 H 0.51481 0.54493 0.46860
 H407 H 0.44985 0.45235 0.56980
 H408 H 0.47638 0.47808 0.59308
 O409 O 0.45055 -0.03468 0.49741
 O410 O 0.46787 -0.04006 0.46130
 O411 O 0.51103 -0.02991 0.54404
 O412 O 0.54269 -0.00714 0.54660
 O413 O 0.45380 0.01916 0.54985
 O414 O 0.44295 0.05366 0.52791
 O415 O 0.55936 0.03662 0.47370
 O416 O 0.56634 -0.00002 0.48968
 O417 O 0.50272 0.02900 0.42628
 O418 O 0.46334 0.01145 0.42986
 O419 O 0.50239 0.08294 0.47356
 O420 O 0.49172 0.08627 0.51606
 O421 O 0.54130 0.06842 0.48967
 O422 O 0.52250 0.07450 0.52887
 O423 O 0.48375 0.06400 0.44424
 O424 O 0.44742 0.03895 0.44525
 O425 O 0.53850 0.01707 0.43952
 O426 O 0.54542 -0.02108 0.46061
 O427 O 0.43316 -0.00259 0.51363
 O428 O 0.42664 0.03698 0.50013
 O429 O 0.48928 0.00638 0.56312
 O430 O 0.52785 0.02563 0.55811
 O431 O 0.49224 -0.04923 0.51500
 O432 O 0.50479 -0.04944 0.47256
 Zr433 Zr 0.48476 -0.02285 0.48922
 O434 O 0.50123 -0.00148 0.46312
 Zr435 Zr 0.51057 0.00538 0.53264
 O436 O 0.52855 0.02738 0.50835
 Zr437 Zr 0.45888 0.02373 0.51307
 O438 O 0.47446 0.04700 0.48812
 Zr439 Zr 0.53337 0.01049 0.47601
 O440 O 0.51804 -0.01282 0.50141
 Zr441 Zr 0.48139 0.02910 0.45675
 O442 O 0.46349 0.00653 0.48082
 Zr443 Zr 0.50768 0.05689 0.50004
 O444 O 0.49066 0.03608 0.52652
 O445 O 0.47828 -0.00631 0.52105
 O446 O 0.51397 0.04066 0.46798
 C447 C 0.43279 -0.02377 0.50625
 C448 C 0.50303 -0.04862 0.53488
 C449 C 0.46778 0.01229 0.56636
 C450 C 0.55904 0.05814 0.48023
 C451 C 0.52442 0.02385 0.42308
 C452 C 0.49299 0.08231 0.45301
 H453 H 0.50359 -0.01058 0.44858
 H454 H 0.46409 0.06072 0.48538
 H455 H 0.47018 -0.01686 0.53259
 H456 H 0.54375 0.03177 0.51523
 H457 H 0.56365 -0.01471 0.49897
 H458 H 0.55526 -0.00157 0.53574
 H459 H 0.44278 0.05341 0.45351
 H460 H 0.42429 0.02980 0.48455
 H461 H 0.55994 -0.01752 0.45144
 H462 H 0.49819 -0.06499 0.47712
 H463 H 0.47607 0.08860 0.50895
 H464 H 0.45550 0.06204 0.53623
 H465 H 0.45703 -0.02846 0.45397
 H466 H 0.47292 -0.00229 0.42532
 H467 H 0.51762 0.03931 0.56136
 H468 H 0.53700 0.06600 0.53342
 O469 O -0.05358 0.44934 0.98069
 O470 O -0.03123 0.44625 0.94651
 O471 O -0.00485 0.43537 1.03686
 O472 O 0.02766 0.45044 1.05111
 O473 O -0.05243 0.49531 1.03844
 O474 O -0.05121 0.53339 1.02127
 O475 O 0.06897 0.49635 0.98859
 O476 O 0.06486 0.45766 0.99998
 O477 O 0.02386 0.50801 0.93092
 O478 O -0.01674 0.50118 0.92295
 O479 O 0.02284 0.55483 0.98672
 O480 O 0.00637 0.55511 1.02587
 O481 O 0.05489 0.52945 1.00573
 O482 O 0.02928 0.53363 1.04264
 O483 O 0.00864 0.54451 0.95098
 O484 O -0.03127 0.52816 0.94040
 O485 O 0.05297 0.48700 0.94880
 O486 O 0.04687 0.44581 0.96405
 O487 O -0.06773 0.48329 0.99612
 O488 O -0.06268 0.52495 0.98771
 O489 O -0.02387 0.47435 1.05737
 O490 O 0.01856 0.48378 1.06306
 O491 O -0.01957 0.42457 1.00146
 O492 O 0.00020 0.42705 0.96227
 Zr493 Zr -0.01709 0.45499 0.97968
 O494 O 0.00843 0.47488 0.96112
 Zr495 Zr 0.00321 0.47110 1.03189
 O496 O 0.03035 0.49054 1.01543
 Zr497 Zr -0.03801 0.50289 1.00505
 O498 O -0.01282 0.52465 0.98846
 Zr499 Zr 0.03853 0.47716 0.98200
 O500 O 0.01376 0.45551 0.99996
 Zr501 Zr -0.00295 0.50974 0.95629
 O502 O -0.02984 0.48910 0.97189
 Zr503 Zr 0.01821 0.52478 1.00833
 O504 O -0.00843 0.50590 1.02682
 O505 O -0.02711 0.46859 1.01209
 O506 O 0.02791 0.51175 0.97557
 C507 C -0.07044 0.46298 0.98709
 C508 C -0.01329 0.42014 1.02287
 C509 C -0.04408 0.48448 1.05659
 C510 C 0.07169 0.51654 0.99781
 C511 C 0.04438 0.49872 0.93123
 C512 C 0.01812 0.55916 0.96492
 H513 H 0.01207 0.46739 0.94589
 H514 H -0.01944 0.54060 0.98624
 H515 H -0.03920 0.45880 1.02014
 H516 H 0.04428 0.49025 1.02572
 H517 H 0.05738 0.44299 1.00589
 H518 H 0.04258 0.45124 1.04209
 H519 H -0.03433 0.54242 0.94964
 H520 H -0.06393 0.51933 0.97133
 H521 H 0.06338 0.44691 0.95847
 H522 H -0.01022 0.41314 0.96254
 H523 H -0.00867 0.55994 1.01862
 H524 H -0.03987 0.53741 1.03370
 H525 H -0.03879 0.46064 0.94000
 H526 H -0.01192 0.48487 0.91963
 H527 H 0.01040 0.49863 1.06684
 H528 H 0.04231 0.52295 1.04713
 O529 O 0.00280 0.54784 0.44212
 O530 O 0.03333 0.52085 0.44146
 O531 O -0.05948 0.50659 0.43841
 O532 O -0.07631 0.47722 0.45864
 O533 O -0.05416 0.56025 0.49155
 O534 O -0.03422 0.56239 0.52807
 O535 O -0.01782 0.43556 0.51044
 O536 O -0.03225 0.43535 0.47223
 O537 O 0.04342 0.47286 0.51067
 O538 O 0.05612 0.51167 0.49642
 O539 O -0.00990 0.48960 0.56007
 O540 O -0.04708 0.51050 0.55803
 O541 O -0.03252 0.45625 0.54130
 O542 O -0.06587 0.48546 0.54286
 O543 O 0.02683 0.49686 0.54579
 O544 O 0.04276 0.53082 0.52243
 O545 O 0.02158 0.44439 0.49406
 O546 O 0.00457 0.44692 0.45392
 O547 O -0.01111 0.56873 0.47324
 O548 O -0.00076 0.56885 0.51456
 O549 O -0.07621 0.53179 0.47518
 O550 O -0.08678 0.49242 0.49134
 O551 O -0.02293 0.51491 0.42410
 O552 O 0.01254 0.48990 0.42780
 Zr553 Zr -0.00100 0.51285 0.45374
 O554 O 0.01458 0.48803 0.47683
 Zr555 Zr -0.05446 0.50179 0.47506
 O556 O -0.04114 0.47587 0.49851
 Zr557 Zr -0.02198 0.54337 0.49868
 O558 O -0.00781 0.51948 0.52368
 Zr559 Zr -0.00985 0.46166 0.48505
 O560 O -0.02490 0.48526 0.46002
 Zr561 Zr 0.02214 0.50326 0.50931
 O562 O 0.00928 0.52903 0.48514
 Zr563 Zr -0.03136 0.49173 0.53009
 O564 O -0.04692 0.51741 0.50750
 O565 O -0.03127 0.52875 0.46683
 O566 O -0.00084 0.47597 0.51739
 C567 C -0.00187 0.56717 0.45247
 C568 C -0.04498 0.51153 0.42148
 C569 C -0.07332 0.55268 0.48279
 C570 C -0.02625 0.43703 0.53150
 C571 C 0.04038 0.45176 0.50365
 C572 C 0.01225 0.49228 0.56272
 H573 H 0.02874 0.48148 0.46912
 H574 H -0.00429 0.52803 0.53824
 H575 H -0.03813 0.54043 0.45563
 H576 H -0.05292 0.46340 0.50124
 H577 H -0.03775 0.44100 0.45654
 H578 H -0.07091 0.46147 0.46395
 H579 H 0.03345 0.53877 0.53478
 H580 H 0.01531 0.56668 0.50816
 H581 H 0.00749 0.42998 0.45714
 H582 H 0.01347 0.49851 0.41237
 H583 H -0.03684 0.52399 0.56131
 H584 H -0.04783 0.55363 0.53465
 H585 H 0.04111 0.52948 0.45419
 H586 H 0.05872 0.50301 0.48164
 H587 H -0.08849 0.50210 0.50559
 H588 H -0.07236 0.47212 0.53417
 O589 O 0.45118 1.06285 -0.00358
 O590 O 0.47685 1.06605 0.02815
 O591 O 0.49564 1.05075 -0.06337
 O592 O 0.52310 1.02509 -0.07425
 O593 O 0.43549 1.00546 -0.04985
 O594 O 0.42792 0.97420 -0.02267
 O595 O 0.55545 0.98117 -0.00424
 O596 O 0.56112 1.01603 -0.02570
 O597 O 0.51501 0.99719 0.05514
 O598 O 0.47751 1.01687 0.06202
 O599 O 0.49710 0.94091 0.01220
 O600 O 0.47571 0.93775 -0.02558
 O601 O 0.53163 0.95097 -0.01401
 O602 O 0.50315 0.94611 -0.04679
 O603 O 0.48934 0.96239 0.04481
 O604 O 0.45636 0.99038 0.05337
 O605 O 0.54669 1.00476 0.03150
 O606 O 0.55041 1.04110 0.00644
 O607 O 0.42741 1.03223 -0.01228
 O608 O 0.42173 0.99425 0.00726
 O609 O 0.46670 1.01430 -0.07372
 O610 O 0.50436 0.99321 -0.07878
 O611 O 0.48779 1.07210 -0.03066
 O612 O 0.51016 1.07265 0.00623
 Zr613 Zr 0.48480 1.04729 -0.00290
 O614 O 0.50603 1.02540 0.01847
 Zr615 Zr 0.49558 1.01567 -0.05065
 O616 O 0.51782 0.99283 -0.03128
 Zr617 Zr 0.44991 1.00298 -0.01581
 O618 O 0.46990 0.97904 0.00469
 Zr619 Zr 0.53235 1.01005 -0.00243
 O620 O 0.51256 1.03388 -0.02366
 Zr621 Zr 0.48635 0.99709 0.03193
 O622 O 0.46429 1.02053 0.01290
 Zr623 Zr 0.49770 0.96571 -0.01581
 O624 O 0.47573 0.98725 -0.03722
 O625 O 0.46881 1.03061 -0.03089
 O626 O 0.51349 0.98214 0.01242
 C627 C 0.43093 1.05393 -0.00743
 C628 C 0.49248 1.07028 -0.05279
 C629 C 0.44486 1.00959 -0.07024
 C630 C 0.55177 0.95950 -0.00899
 C631 C 0.53711 1.00039 0.05176
 C632 C 0.49386 0.94301 0.03456
 H633 H 0.51287 1.03480 0.03117
 H634 H 0.45964 0.96638 0.01095
 H635 H 0.45897 1.04132 -0.04067
 H636 H 0.53032 0.98677 -0.04178
 H637 H 0.55759 1.03072 -0.03467
 H638 H 0.53782 1.01948 -0.06691
 H639 H 0.44803 0.97684 0.04680
 H640 H 0.42402 1.00329 0.02182
 H641 H 0.56656 1.03661 0.01118
 H642 H 0.50333 1.08858 0.00383
 H643 H 0.46265 0.93672 -0.01397
 H644 H 0.43687 0.96394 -0.03345
 H645 H 0.46555 1.05645 0.03752
 H646 H 0.48778 1.03081 0.06196
 H647 H 0.49309 0.98004 -0.07804
 H648 H 0.51712 0.95254 -0.05512
 O649 O 0.54948 0.50298 -0.03814
 O650 O 0.55776 0.53957 -0.02344
 O651 O 0.54996 0.45752 0.02398
 O652 O 0.53115 0.45397 0.05845
 O653 O 0.49389 0.45405 -0.02655
 O654 O 0.45920 0.47683 -0.03244
 O655 O 0.49490 0.52960 0.07996
 O656 O 0.53105 0.51151 0.08191
 O657 O 0.49732 0.57602 0.02116
 O658 O 0.50759 0.57273 -0.02041
 O659 O 0.44020 0.52956 0.02915
 O660 O 0.43335 0.48977 0.02348
 O661 O 0.46010 0.51467 0.06789
 O662 O 0.45085 0.47442 0.05067
 O663 O 0.45804 0.55889 0.00798
 O664 O 0.47805 0.55817 -0.03171
 O665 O 0.51299 0.56227 0.05564
 O666 O 0.55063 0.53977 0.05672
 O667 O 0.51438 0.48903 -0.05063
 O668 O 0.47462 0.50483 -0.05127
 O669 O 0.50971 0.43980 0.00767
 O670 O 0.49638 0.44538 0.04965
 O671 O 0.56799 0.48585 0.00148
 O672 O 0.57218 0.52753 0.01236
 Zr673 Zr 0.54219 0.51218 -0.00291
 O674 O 0.52472 0.53859 0.01603
 Zr675 Zr 0.51549 0.46967 0.02826
 O676 O 0.49792 0.49440 0.04923
 Zr677 Zr 0.49156 0.49043 -0.02113
 O678 O 0.47199 0.51540 -0.00225
 Zr679 Zr 0.51684 0.52591 0.05028
 O680 O 0.53620 0.49993 0.03210
 Zr681 Zr 0.49197 0.54602 0.00094
 O682 O 0.51071 0.52180 -0.01995
 Zr683 Zr 0.46624 0.50365 0.03285
 O684 O 0.48280 0.47706 0.01283
 O685 O 0.52337 0.48124 -0.00594
 O686 O 0.48454 0.53502 0.03557
 C687 C 0.53599 0.49468 -0.05404
 C688 C 0.56780 0.46610 0.01290
 C689 C 0.50131 0.43716 -0.01313
 C690 C 0.47329 0.52408 0.08342
 C691 C 0.50548 0.57893 0.04197
 C692 C 0.44029 0.54983 0.01882
 H693 H 0.53478 0.55266 0.01650
 H694 H 0.45706 0.51843 -0.01057
 H695 H 0.53216 0.46946 -0.01516
 H696 H 0.49548 0.48766 0.06532
 H697 H 0.54484 0.50198 0.07724
 H698 H 0.53035 0.46572 0.07104
 H699 H 0.46314 0.54982 -0.03428
 H700 H 0.48321 0.51932 -0.05579
 H701 H 0.54977 0.54873 0.07156
 H702 H 0.58629 0.52298 0.00308
 H703 H 0.43192 0.49182 0.00614
 H704 H 0.45276 0.46743 -0.01898
 H705 H 0.54529 0.54628 -0.03366
 H706 H 0.52359 0.57534 -0.01440
 H707 H 0.48176 0.44187 0.04113
 H708 H 0.45938 0.47171 0.06566
 O709 O 0.04942 -0.04366 0.50391
 O710 O 0.02251 -0.05168 0.53328
 O711 O 0.00679 -0.03122 0.44181
 O712 O -0.02106 -0.00631 0.43007
 O713 O 0.06370 0.01619 0.45845
 O714 O 0.06708 0.04726 0.48554
 O715 O -0.06030 0.02894 0.49935
 O716 O -0.06198 -0.00480 0.47789
 O717 O -0.02244 0.01522 0.56001
 O718 O 0.01550 -0.00324 0.56891
 O719 O -0.00380 0.07394 0.51844
 O720 O 0.01545 0.08106 0.48166
 O721 O -0.03867 0.06190 0.49233
 O722 O -0.00898 0.07031 0.45911
 O723 O 0.00341 0.05160 0.55137
 O724 O 0.03642 0.02388 0.56079
 O725 O -0.05177 0.00480 0.53542
 O726 O -0.05086 -0.03051 0.51031
 O727 O 0.07140 -0.01091 0.49676
 O728 O 0.07310 0.02661 0.51592
 O729 O 0.03441 0.00608 0.43367
 O730 O -0.00426 0.02674 0.42754
 O731 O 0.01555 -0.05421 0.47398
 O732 O -0.00927 -0.05850 0.51055
 Zr733 Zr 0.01479 -0.03102 0.50274
 O734 O -0.00878 -0.01185 0.52391
 Zr735 Zr 0.00428 0.00275 0.45530
 O736 O -0.02063 0.02249 0.47418
 Zr737 Zr 0.04701 0.01660 0.49182
 O738 O 0.02429 0.03785 0.51172
 Zr739 Zr -0.03504 0.00239 0.50221
 O740 O -0.01268 -0.01851 0.48116
 Zr741 Zr 0.00778 0.01736 0.53832
 O742 O 0.03228 -0.00358 0.51972
 Zr743 Zr -0.00348 0.05022 0.49055
 O744 O 0.02129 0.03175 0.46971
 O745 O 0.03100 -0.01150 0.47580
 O746 O -0.01946 0.03114 0.51802
 C747 C 0.06911 -0.03298 0.50148
 C748 C 0.01149 -0.05114 0.45175
 C749 C 0.05581 0.01156 0.43789
 C750 C -0.05825 0.05115 0.49571
 C751 C -0.04392 0.01001 0.55584
 C752 C -0.00042 0.07141 0.54078
 H753 H -0.01557 -0.02235 0.53630
 H754 H 0.03351 0.05080 0.51825
 H755 H 0.04212 -0.02112 0.46653
 H756 H -0.03304 0.02812 0.46333
 H757 H -0.05675 -0.01865 0.46892
 H758 H -0.03658 -0.00353 0.43747
 H759 H 0.04453 0.03807 0.55459
 H760 H 0.07111 0.01645 0.53022
 H761 H -0.06759 -0.02765 0.51434
 H762 H -0.00158 -0.07374 0.50717
 H763 H 0.03032 0.08034 0.49052
 H764 H 0.05863 0.05668 0.47338
 H765 H 0.03028 -0.04117 0.54447
 H766 H 0.00584 -0.01760 0.56852
 H767 H 0.00706 0.03983 0.42823
 H768 H -0.02323 0.06436 0.45144
 O769 O 0.69573 0.21243 0.24897
 O770 O 0.69953 0.22546 0.21022
 O771 O 0.75300 0.16517 0.26018
 O772 O 0.79192 0.16546 0.25585
 O773 O 0.73998 0.21945 0.31081
 O774 O 0.74647 0.25999 0.31116
 O775 O 0.81971 0.23154 0.20716
 O776 O 0.80579 0.19443 0.20228
 O777 O 0.76408 0.27802 0.19284
 O778 O 0.72405 0.28178 0.20564
 O779 O 0.80299 0.28657 0.25347
 O780 O 0.80458 0.26723 0.29252
 O781 O 0.82783 0.25163 0.24048
 O782 O 0.82345 0.23919 0.28306
 O783 O 0.77159 0.29983 0.23250
 O784 O 0.72771 0.29543 0.23768
 O785 O 0.78654 0.24691 0.18193
 O786 O 0.77159 0.20621 0.18053
 O787 O 0.70373 0.23219 0.28253
 O788 O 0.71948 0.27108 0.28917
 O789 O 0.76280 0.18857 0.29994
 O790 O 0.80297 0.18690 0.28417
 O791 O 0.72284 0.17662 0.23642
 O792 O 0.72478 0.19727 0.19727
 Zr793 Zr 0.72809 0.21305 0.23075
 O794 O 0.74961 0.23637 0.21093
 Zr795 Zr 0.77257 0.19584 0.26463
 O796 O 0.79604 0.21750 0.24552
 Zr797 Zr 0.73955 0.24117 0.28021
 O798 O 0.76215 0.26507 0.26256
 Zr799 Zr 0.78408 0.22334 0.21091
 O800 O 0.76225 0.19883 0.22902
 Zr801 Zr 0.75175 0.26912 0.22716
 O802 O 0.72769 0.24681 0.24545
 Zr803 Zr 0.79626 0.25093 0.26038
 O804 O 0.77433 0.22852 0.28110
 O805 O 0.73823 0.20801 0.26581
 O806 O 0.78613 0.25666 0.22545
 C807 C 0.68967 0.22141 0.26878
 C808 C 0.73446 0.16102 0.24829
 C809 C 0.75070 0.19997 0.31516
 C810 C 0.83373 0.24261 0.22062
 C811 C 0.77729 0.26716 0.17803
 C812 C 0.79123 0.30289 0.24299
 H813 H 0.74362 0.23791 0.19460
 H814 H 0.76175 0.28009 0.27098
 H815 H 0.72779 0.19722 0.27491
 H816 H 0.81174 0.21006 0.24552
 H817 H 0.79617 0.18014 0.20473
 H818 H 0.80298 0.17012 0.24306
 H819 H 0.73325 0.30169 0.25282
 H820 H 0.70921 0.27471 0.27554
 H821 H 0.78374 0.20758 0.16791
 H822 H 0.71075 0.18702 0.19763
 H823 H 0.79219 0.27897 0.29577
 H824 H 0.76301 0.25660 0.31524
 H825 H 0.69651 0.24185 0.21491
 H826 H 0.72016 0.26931 0.19445
 H827 H 0.80467 0.19893 0.29641
 H828 H 0.83121 0.22558 0.27568
 O829 O 0.70270 0.74729 0.71013
 O830 O 0.72240 0.78253 0.70607
 O831 O 0.75834 0.69566 0.70285
 O832 O 0.79041 0.68461 0.72170
 O833 O 0.70766 0.68946 0.76343
 O834 O 0.70160 0.71101 0.79790
 O835 O 0.82190 0.74908 0.76676
 O836 O 0.82163 0.73710 0.72855
 O837 O 0.77078 0.80475 0.76891
 O838 O 0.72954 0.80802 0.75853
 O839 O 0.76985 0.75081 0.82175
 O840 O 0.75590 0.70943 0.82270
 O841 O 0.80568 0.73337 0.80045
 O842 O 0.78443 0.69634 0.80725
 O843 O 0.75208 0.78405 0.80776
 O844 O 0.71551 0.79225 0.78674
 O845 O 0.80325 0.78739 0.75320
 O846 O 0.80198 0.77107 0.71271
 O847 O 0.68790 0.72827 0.74281
 O848 O 0.68723 0.74109 0.78312
 O849 O 0.73843 0.67361 0.74338
 O850 O 0.77951 0.67207 0.75508
 O851 O 0.74068 0.72896 0.68878
 O852 O 0.75623 0.76888 0.68982
 Zr853 Zr 0.73858 0.75094 0.71805
 O854 O 0.76093 0.77173 0.73830
 Zr855 Zr 0.76243 0.70150 0.73939
 O856 O 0.78585 0.72038 0.76028
 Zr857 Zr 0.71627 0.72512 0.76623
 O858 O 0.73760 0.74491 0.78847
 Zr859 Zr 0.79244 0.75349 0.74485
 O860 O 0.77113 0.73357 0.72241
 Zr861 Zr 0.74611 0.77718 0.77183
 O862 O 0.72248 0.75839 0.75069
 Zr863 Zr 0.77008 0.72790 0.79302
 O864 O 0.74754 0.70660 0.77314
 O865 O 0.73056 0.71813 0.73310
 O866 O 0.77826 0.76064 0.77817
 C867 C 0.68577 0.73800 0.72223
 C868 C 0.74994 0.70864 0.68598
 C869 C 0.71869 0.67203 0.75447
 C870 C 0.82318 0.74111 0.78817
 C871 C 0.79215 0.80512 0.76136
 C872 C 0.76146 0.77155 0.82436
 H873 H 0.76393 0.78671 0.72966
 H874 H 0.72924 0.74701 0.80368
 H875 H 0.72033 0.70849 0.72315
 H876 H 0.80053 0.71124 0.76207
 H877 H 0.81594 0.73053 0.71359
 H878 H 0.80465 0.69390 0.72463
 H879 H 0.70935 0.78105 0.79885
 H880 H 0.68527 0.75683 0.77560
 H881 H 0.81790 0.77767 0.71461
 H882 H 0.74675 0.76784 0.67523
 H883 H 0.74224 0.71845 0.82856
 H884 H 0.71384 0.70083 0.80509
 H885 H 0.71268 0.78837 0.71932
 H886 H 0.73649 0.81176 0.74281
 H887 H 0.77205 0.66932 0.77077
 H888 H 0.79682 0.69095 0.79625
 O889 O 0.23975 0.21777 0.81430
 O890 O 0.20413 0.20852 0.79656
 O891 O 0.29184 0.20720 0.76199
 O892 O 0.30085 0.21950 0.72561
 O893 O 0.29000 0.27170 0.80073
 O894 O 0.26673 0.30638 0.79790
 O895 O 0.22927 0.25417 0.68571
 O896 O 0.24681 0.21824 0.69189
 O897 O 0.17584 0.26044 0.73670
 O898 O 0.17266 0.25842 0.77811
 O899 O 0.22572 0.31474 0.72424
 O900 O 0.26367 0.32293 0.73674
 O901 O 0.24681 0.28876 0.69427
 O902 O 0.28310 0.30106 0.71707
 O903 O 0.19323 0.30220 0.74432
 O904 O 0.18795 0.28848 0.78758
 O905 O 0.19352 0.23832 0.70861
 O906 O 0.21623 0.20172 0.71656
 O907 O 0.25326 0.25412 0.82305
 O908 O 0.23635 0.29297 0.81483
 O909 O 0.30866 0.25058 0.77245
 O910 O 0.30915 0.25504 0.72830
 O911 O 0.25940 0.19238 0.78059
 O912 O 0.21928 0.18806 0.76567
 Zr913 Zr 0.23436 0.21971 0.77743
 O914 O 0.21164 0.23445 0.75185
 Zr915 Zr 0.28166 0.24055 0.74932
 O916 O 0.26086 0.25472 0.72193
 Zr917 Zr 0.25483 0.27234 0.79013
 O918 O 0.23378 0.28910 0.76431
 Zr919 Zr 0.22902 0.23652 0.71896
 O920 O 0.25148 0.21997 0.74414
 Zr921 Zr 0.20322 0.26941 0.75957
 O922 O 0.22338 0.25364 0.78706
 Zr923 Zr 0.25080 0.28873 0.73118
 O924 O 0.27337 0.27536 0.75779
 O925 O 0.26517 0.23841 0.78209
 O926 O 0.21935 0.27094 0.72636
 C927 C 0.24709 0.23308 0.82893
 C928 C 0.28072 0.19080 0.77317
 C929 C 0.30847 0.26277 0.79135
 C930 C 0.23794 0.27430 0.67978
 C931 C 0.17535 0.24792 0.71805
 C932 C 0.20442 0.31714 0.73111
 H933 H 0.19748 0.22453 0.75113
 H934 H 0.23016 0.30528 0.76919
 H935 H 0.27558 0.23112 0.79412
 H936 H 0.26993 0.25441 0.70694
 H937 H 0.25560 0.20530 0.69978
 H938 H 0.29080 0.21759 0.71165
 H939 H 0.19553 0.30405 0.78786
 H940 H 0.22163 0.28453 0.81872
 H941 H 0.20919 0.20002 0.70072
 H942 H 0.22178 0.17552 0.77787
 H943 H 0.25823 0.32769 0.75259
 H944 H 0.27753 0.31109 0.78486
 H945 H 0.19751 0.22249 0.80437
 H946 H 0.17231 0.24109 0.77767
 H947 H 0.31241 0.27084 0.73441
 H948 H 0.28807 0.29029 0.70444
 O949 O 0.20081 0.77568 0.28319
 O950 O 0.20758 0.73644 0.28631
 O951 O 0.26924 0.80585 0.29718
 O952 O 0.30405 0.80870 0.28018
 O953 O 0.22642 0.83088 0.23638
 O954 O 0.21916 0.81575 0.19892
 O955 O 0.31744 0.73676 0.23509
 O956 O 0.31753 0.74693 0.27361
 O957 O 0.25370 0.70282 0.22202
 O958 O 0.21292 0.71112 0.23039
 O959 O 0.27523 0.75607 0.17625
 O960 O 0.27594 0.79698 0.17528
 O961 O 0.31240 0.76035 0.20249
 O962 O 0.30178 0.80439 0.19804
 O963 O 0.24623 0.73022 0.18578
 O964 O 0.20603 0.73429 0.20408
 O965 O 0.28626 0.70675 0.24447
 O966 O 0.28635 0.72147 0.28591
 O967 O 0.19425 0.79824 0.25014
 O968 O 0.19570 0.78949 0.20807
 O969 O 0.25819 0.83505 0.25991
 O970 O 0.29949 0.82444 0.24723
 O971 O 0.24100 0.77968 0.30833
 O972 O 0.24247 0.73644 0.30480
 Zr973 Zr 0.23417 0.76094 0.27724
 O974 O 0.25042 0.73493 0.25669
 Zr975 Zr 0.27356 0.80120 0.26082
 O976 O 0.29229 0.77637 0.24100
 Zr977 Zr 0.22530 0.79480 0.22957
 O978 O 0.24235 0.77076 0.20723
 Zr979 Zr 0.28637 0.74215 0.25422
 O980 O 0.27054 0.76729 0.27628
 Zr981 Zr 0.23857 0.73668 0.22161
 O982 O 0.21982 0.76059 0.24298
 Zr983 Zr 0.27888 0.77627 0.20662
 O984 O 0.26123 0.80278 0.22590
 O985 O 0.23776 0.79513 0.26401
 O986 O 0.27470 0.74200 0.21935
 C987 C 0.18782 0.78920 0.27024
 C988 C 0.25604 0.79576 0.31274
 C989 C 0.24042 0.84331 0.24858
 C990 C 0.32449 0.74578 0.21532
 C991 C 0.27216 0.69457 0.23212
 C992 C 0.26123 0.73938 0.17125
 H993 H 0.24767 0.71929 0.26410
 H994 H 0.23558 0.77229 0.19123
 H995 H 0.22979 0.80664 0.27426
 H996 H 0.30916 0.78029 0.24126
 H997 H 0.31293 0.75500 0.28829
 H998 H 0.31356 0.79415 0.28051
 H999 H 0.20623 0.74569 0.19062
 H1000 H 0.18775 0.77523 0.21437
 H1001 H 0.29915 0.70969 0.28470
 H1002 H 0.23322 0.74032 0.31917
 H1003 H 0.25902 0.79854 0.17185
 H1004 H 0.23458 0.82218 0.19393
 H1005 H 0.19928 0.73296 0.27150
 H1006 H 0.21630 0.70496 0.24650
 H1007 H 0.29269 0.83265 0.23326
 H1008 H 0.31572 0.80277 0.20825
 O1009 O 0.25874 0.66912 0.74935
 O1010 O 0.29676 0.67412 0.73655
 O1011 O 0.24981 0.71584 0.80677
 O1012 O 0.25332 0.75377 0.81349
 O1013 O 0.19826 0.71350 0.75175
 O1014 O 0.19562 0.72963 0.71359
 O1015 O 0.30302 0.79259 0.74962
 O1016 O 0.30805 0.77215 0.78500
 O1017 O 0.31201 0.74774 0.69458
 O1018 O 0.29821 0.70905 0.68455
 O1019 O 0.25359 0.78984 0.69616
 O1020 O 0.21687 0.79013 0.71512
 O1021 O 0.26808 0.80628 0.73560
 O1022 O 0.22514 0.79887 0.74854
 O1023 O 0.27398 0.76156 0.67688
 O1024 O 0.26622 0.71815 0.67221
 O1025 O 0.32597 0.76221 0.72886
 O1026 O 0.32801 0.73940 0.76730
 O1027 O 0.22525 0.68121 0.73090
 O1028 O 0.21743 0.70632 0.69575
 O1029 O 0.20939 0.73063 0.78582
 O1030 O 0.22664 0.77026 0.79425
 O1031 O 0.27210 0.68782 0.78919
 O1032 O 0.31075 0.69306 0.76843
 Zr1033 Zr 0.27717 0.70035 0.75403
 O1034 O 0.29640 0.72538 0.73401
 Zr1035 Zr 0.24459 0.74116 0.77985
 O1036 O 0.26396 0.76797 0.76253
 Zr1037 Zr 0.22733 0.71837 0.72934
 O1038 O 0.24411 0.74545 0.70981
 Zr1039 Zr 0.29787 0.75639 0.75314
 O1040 O 0.27986 0.73083 0.77416
 Zr1041 Zr 0.27865 0.73478 0.70277
 O1042 O 0.26133 0.70695 0.72090
 Zr1043 Zr 0.24772 0.77577 0.73020
 O1044 O 0.22723 0.74997 0.74826
 O1045 O 0.24271 0.71005 0.76160
 O1046 O 0.28175 0.76573 0.72136
 C1047 C 0.23902 0.66518 0.73944
 C1048 C 0.26116 0.69633 0.80710
 C1049 C 0.19426 0.72033 0.77284
 C1050 C 0.28926 0.80919 0.74274
 C1051 C 0.32781 0.75776 0.70669
 C1052 C 0.26396 0.78177 0.67782
 H1053 H 0.31234 0.71924 0.73076
 H1054 H 0.23526 0.74876 0.69515
 H1055 H 0.23401 0.69772 0.77057
 H1056 H 0.26474 0.78178 0.77280
 H1057 H 0.30581 0.76016 0.79775
 H1058 H 0.26848 0.76194 0.81145
 H1059 H 0.25172 0.72635 0.66713
 H1060 H 0.23034 0.69613 0.69009
 H1061 H 0.34095 0.75097 0.76725
 H1062 H 0.31037 0.67740 0.77645
 H1063 H 0.21015 0.77797 0.70502
 H1064 H 0.19167 0.74494 0.72061
 H1065 H 0.29213 0.67497 0.71972
 H1066 H 0.31082 0.70338 0.69516
 H1067 H 0.21262 0.77320 0.78438
 H1068 H 0.23396 0.80522 0.76195
 O1069 O 0.26494 0.21342 0.19096
 O1070 O 0.29975 0.20735 0.21045
 O1071 O 0.21294 0.20413 0.24728
 O1072 O 0.20156 0.22167 0.27963
 O1073 O 0.20942 0.26571 0.19745
 O1074 O 0.23094 0.30091 0.19435
 O1075 O 0.26959 0.26269 0.31326
 O1076 O 0.25476 0.22506 0.31170
 O1077 O 0.32408 0.26630 0.26223
 O1078 O 0.32719 0.25914 0.22034
 O1079 O 0.27139 0.32033 0.26339
 O1080 O 0.23141 0.32331 0.25126
 O1081 O 0.25218 0.29643 0.29977
 O1082 O 0.21570 0.30468 0.27669
 O1083 O 0.30510 0.30546 0.24776
 O1084 O 0.31180 0.28824 0.20776
 O1085 O 0.30637 0.24882 0.29416
 O1086 O 0.28825 0.20939 0.29110
 O1087 O 0.24930 0.24787 0.17709
 O1088 O 0.26132 0.28798 0.17945
 O1089 O 0.19283 0.24483 0.22789
 O1090 O 0.19118 0.25539 0.27017
 O1091 O 0.24557 0.19027 0.22870
 O1092 O 0.28564 0.18967 0.24387
 Zr1093 Zr 0.26867 0.21898 0.22749
 O1094 O 0.29017 0.23724 0.25093
 Zr1095 Zr 0.22003 0.23989 0.25242
 O1096 O 0.23950 0.25851 0.27719
 Zr1097 Zr 0.24481 0.26866 0.20721
 O1098 O 0.26503 0.28895 0.23007
 Zr1099 Zr 0.27209 0.24220 0.28294
 O1100 O 0.25133 0.22180 0.26046
 Zr1101 Zr 0.29661 0.27127 0.23783
 O1102 O 0.27738 0.25215 0.21293
 Zr1103 Zr 0.24790 0.29186 0.26302
 O1104 O 0.22624 0.27406 0.23899
 O1105 O 0.23661 0.23512 0.21998
 O1106 O 0.28011 0.27598 0.27047
 C1107 C 0.25777 0.22717 0.17412
 C1108 C 0.22521 0.18754 0.23821
 C1109 C 0.19175 0.25620 0.20806
 C1110 C 0.26082 0.28322 0.31632
 C1111 C 0.32427 0.25763 0.28341
 C1112 C 0.29292 0.32212 0.25668
 H1113 H 0.30487 0.22826 0.25346
 H1114 H 0.26779 0.30449 0.22249
 H1115 H 0.22696 0.22594 0.20903
 H1116 H 0.23035 0.25938 0.29210
 H1117 H 0.24775 0.21063 0.30540
 H1118 H 0.21155 0.22203 0.29381
 H1119 H 0.30256 0.30262 0.20425
 H1120 H 0.27737 0.28146 0.17781
 H1121 H 0.29466 0.21012 0.30732
 H1122 H 0.28398 0.17578 0.23372
 H1123 H 0.23834 0.32770 0.23570
 H1124 H 0.22007 0.30663 0.20673
 H1125 H 0.30634 0.22102 0.20162
 H1126 H 0.33022 0.24288 0.22603
 H1127 H 0.18798 0.27062 0.26205
 H1128 H 0.21046 0.29372 0.28946
 O1129 O 0.79921 0.69804 0.26661
 O1130 O 0.80551 0.71086 0.22929
 O1131 O 0.80331 0.76332 0.30647
 O1132 O 0.78407 0.79749 0.30712
 O1133 O 0.74881 0.71309 0.32188
 O1134 O 0.71251 0.70424 0.30291
 O1135 O 0.73958 0.81199 0.23392
 O1136 O 0.77643 0.81666 0.24892
 O1137 O 0.73803 0.75236 0.19400
 O1138 O 0.75209 0.71147 0.19996
 O1139 O 0.68636 0.75898 0.24657
 O1140 O 0.68498 0.75673 0.28865
 O1141 O 0.70652 0.79920 0.25299
 O1142 O 0.70113 0.78669 0.29622
 O1143 O 0.70199 0.73630 0.21780
 O1144 O 0.72508 0.69920 0.21907
 O1145 O 0.75701 0.78608 0.20272
 O1146 O 0.79540 0.79052 0.22188
 O1147 O 0.76679 0.68652 0.28766
 O1148 O 0.72678 0.68335 0.27643
 O1149 O 0.76620 0.74767 0.33040
 O1150 O 0.75026 0.78752 0.32218
 O1151 O 0.81966 0.74048 0.27809
 O1152 O 0.81865 0.74745 0.23429
 Zr1153 Zr 0.79123 0.73284 0.25553
 O1154 O 0.77060 0.74933 0.22910
 Zr1155 Zr 0.76774 0.76585 0.29761
 O1156 O 0.74682 0.78412 0.27272
 Zr1157 Zr 0.74347 0.71508 0.28499
 O1158 O 0.72107 0.73103 0.25989
 Zr1159 Zr 0.76285 0.78374 0.23922
 O1160 O 0.78531 0.76810 0.26470
 Zr1161 Zr 0.73776 0.73307 0.22654
 O1162 O 0.75936 0.71478 0.25121
 Zr1163 Zr 0.71503 0.76626 0.26850
 O1164 O 0.73495 0.74925 0.29548
 O1165 O 0.77565 0.73140 0.28894
 O1166 O 0.73030 0.76770 0.23490
 C1167 C 0.78711 0.68271 0.27851
 C1168 C 0.82088 0.75302 0.29674
 C1169 C 0.75790 0.72749 0.33640
 C1170 C 0.71811 0.81446 0.24051
 C1171 C 0.74705 0.77238 0.18823
 C1172 C 0.68465 0.74666 0.22789
 H1173 H 0.77929 0.74928 0.21388
 H1174 H 0.70639 0.72188 0.25959
 H1175 H 0.78586 0.72327 0.30062
 H1176 H 0.74424 0.80042 0.27781
 H1177 H 0.79103 0.81334 0.25778
 H1178 H 0.77864 0.80986 0.29591
 H1179 H 0.71197 0.69577 0.23018
 H1180 H 0.73361 0.67841 0.26115
 H1181 H 0.79348 0.80469 0.21156
 H1182 H 0.83376 0.74000 0.23887
 H1183 H 0.68264 0.73969 0.28674
 H1184 H 0.70680 0.71790 0.31190
 H1185 H 0.79211 0.70254 0.22236
 H1186 H 0.76638 0.71916 0.19355
 H1187 H 0.73561 0.77937 0.32697
 H1188 H 0.70996 0.80158 0.29654
 O1189 O 0.71808 0.29914 0.75735
 O1190 O 0.71053 0.28209 0.72166
 O1191 O 0.70374 0.24429 0.80869
 O1192 O 0.71686 0.20894 0.81856
 O1193 O 0.76941 0.28443 0.81272
 O1194 O 0.80435 0.28495 0.79046
 O1195 O 0.75552 0.17324 0.74780
 O1196 O 0.71838 0.17853 0.76404
 O1197 O 0.76559 0.22464 0.69554
 O1198 O 0.76256 0.26640 0.69272
 O1199 O 0.81727 0.21426 0.74885
 O1200 O 0.82101 0.22478 0.78921
 O1201 O 0.79010 0.18178 0.76546
 O1202 O 0.79911 0.20151 0.80444
 O1203 O 0.80594 0.23419 0.71557
 O1204 O 0.79143 0.27618 0.70971
 O1205 O 0.74399 0.19520 0.71249
 O1206 O 0.70486 0.20264 0.73106
 O1207 O 0.75271 0.30847 0.77452
 O1208 O 0.79260 0.30191 0.75988
 O1209 O 0.74590 0.25617 0.82899
 O1210 O 0.75149 0.21290 0.82906
 O1211 O 0.69171 0.26522 0.77625
 O1212 O 0.68991 0.25044 0.73546
 Zr1213 Zr 0.72038 0.26280 0.75248
 O1214 O 0.73680 0.23855 0.72998
 Zr1215 Zr 0.73831 0.23392 0.80079
 O1216 O 0.75438 0.20781 0.78034
 Zr1217 Zr 0.77126 0.27616 0.77669
 O1218 O 0.78966 0.25167 0.75592
 Zr1219 Zr 0.73809 0.20569 0.74733
 O1220 O 0.71975 0.22937 0.76917
 Zr1221 Zr 0.77209 0.24740 0.72378
 O1222 O 0.75478 0.27356 0.74375
 Zr1223 Zr 0.78885 0.21811 0.77227
 O1224 O 0.77347 0.24340 0.79464
 O1225 O 0.73684 0.26704 0.78486
 O1226 O 0.77296 0.21411 0.73961
 C1227 C 0.73250 0.31395 0.76591
 C1228 C 0.68830 0.25606 0.79697
 C1229 C 0.75903 0.27435 0.83041
 C1230 C 0.77578 0.16749 0.75580
 C1231 C 0.75461 0.20499 0.69485
 C1232 C 0.82085 0.22195 0.72767
 H1233 H 0.72790 0.23775 0.71507
 H1234 H 0.80591 0.25724 0.75344
 H1235 H 0.72880 0.27851 0.79511
 H1236 H 0.75372 0.19255 0.78897
 H1237 H 0.70445 0.18608 0.77126
 H1238 H 0.71587 0.19533 0.80808
 H1239 H 0.80593 0.27754 0.71906
 H1240 H 0.78515 0.30592 0.74455
 H1241 H 0.70399 0.18683 0.72412
 H1242 H 0.67699 0.26198 0.73758
 H1243 H 0.82712 0.23980 0.78265
 H1244 H 0.80936 0.27138 0.80043
 H1245 H 0.72500 0.28931 0.71503
 H1246 H 0.74556 0.26405 0.69041
 H1247 H 0.76741 0.21872 0.83249
 H1248 H 0.78793 0.18867 0.80806
 C1249 C 0.09824 1.00180 1.20635
 C1250 C 0.10538 1.00573 1.18302
 C1251 C 0.08940 1.00300 1.16317
 N1252 N 0.09800 1.00363 1.14075
 N1253 N 0.08374 1.00108 1.12250
 C1254 C 0.06036 0.99792 1.12603
 N1255 N 0.05172 0.99747 1.14845
 N1256 N 0.06601 0.99991 1.16673
 C1257 C 0.04454 0.99520 1.10602
 C1258 C 0.05321 0.99181 1.08327
 H1259 H 0.12340 1.01059 1.17920
 H1260 H 0.02579 0.99558 1.10932
 H1261 H 0.08020 0.99710 1.21026
 H1262 H 0.07197 0.99040 1.08028
 C1263 C 0.59320 0.49349 0.72253
 C1264 C 0.59931 0.49215 0.69871
 C1265 C 0.58240 0.49517 0.67952
 N1266 N 0.59018 0.49460 0.65684
 N1267 N 0.57535 0.49763 0.63902
 C1268 C 0.55215 0.50142 0.64317
 N1269 N 0.54431 0.50202 0.66590
 N1270 N 0.55920 0.49899 0.68379
 C1271 C 0.53572 0.50414 0.62338
 C1272 C 0.54364 0.50219 0.60013
 H1273 H 0.61760 0.48971 0.69388
 H1274 H 0.51721 0.50657 0.62714
 H1275 H 0.57508 0.49634 0.72768
 H1276 H 0.56215 0.49930 0.59667
 C1277 C 0.38077 0.01340 0.69775
 C1278 C 0.39930 0.00005 0.68898
 C1279 C 0.40889 0.00449 0.66509
 N1280 N 0.42937 -0.00571 0.65839
 N1281 N 0.43818 -0.00172 0.63677
 C1282 C 0.42676 0.01253 0.62104
 N1283 N 0.40619 0.02257 0.62767
 N1284 N 0.39747 0.01869 0.64932
 C1285 C 0.43606 0.01677 0.59701
 C1286 C 0.45869 0.00996 0.59067
 H1287 H 0.40704 -0.01370 0.69994
 H1288 H 0.42486 0.02546 0.58412
 H1289 H 0.37320 0.02700 0.68646
 H1290 H 0.47012 0.00219 0.60393
 C1291 C -0.10583 0.49481 1.20040
 C1292 C -0.11306 0.49124 1.17734
 C1293 C -0.09668 0.48752 1.15771
 N1294 N -0.10518 0.48593 1.13553
 N1295 N -0.09072 0.48282 1.11730
 C1296 C -0.06720 0.48104 1.12055
 N1297 N -0.05866 0.48231 1.14281
 N1298 N -0.07317 0.48551 1.16110
 C1299 C -0.05124 0.47889 1.10020
 C1300 C -0.05937 0.48355 1.07745
 H1301 H -0.13166 0.49105 1.17355
 H1302 H -0.03280 0.47532 1.10318
 H1303 H -0.08730 0.49501 1.20452
 H1304 H -0.07756 0.48853 1.07491
 C1305 C -0.12529 0.50546 0.28665
 C1306 C -0.10270 0.50986 0.29478
 C1307 C -0.09683 0.51079 0.31996
 N1308 N -0.07447 0.51566 0.32606
 N1309 N -0.06826 0.51567 0.34866
 C1310 C -0.08414 0.51076 0.36609
 N1311 N -0.10660 0.50601 0.36002
 N1312 N -0.11285 0.50602 0.33734
 C1313 C -0.07697 0.50990 0.39104
 C1314 C -0.05369 0.51375 0.39720
 H1315 H -0.08833 0.51266 0.28249
 H1316 H -0.08991 0.50553 0.40455
 H1317 H -0.13960 0.50435 0.29935
 H1318 H -0.04093 0.51807 0.38348
 C1319 C 0.38745 1.00199 -0.21656
 C1320 C 0.37853 1.00033 -0.19345
 C1321 C 0.39396 1.00260 -0.17277
 N1322 N 0.38477 1.00161 -0.15054
 N1323 N 0.39848 1.00407 -0.13178
 C1324 C 0.42192 1.00766 -0.13455
 N1325 N 0.43109 1.00863 -0.15676
 N1326 N 0.41739 1.00618 -0.17550
 C1327 C 0.43744 1.01025 -0.11406
 C1328 C 0.42917 1.00876 -0.09078
 H1329 H 0.36000 0.99814 -0.19001
 H1330 H 0.45600 1.01284 -0.11745
 H1331 H 0.40625 1.00406 -0.21870
 H1332 H 0.41065 1.00590 -0.08743
 C1333 C 0.61650 0.49486 -0.19177
 C1334 C 0.59404 0.49172 -0.18197
 C1335 C 0.58833 0.49248 -0.15657
 N1336 N 0.56623 0.48702 -0.14943
 N1337 N 0.55995 0.48820 -0.12678
 C1338 C 0.57552 0.49497 -0.11028
 N1339 N 0.59774 0.50041 -0.11736
 N1340 N 0.60407 0.49917 -0.14012
 C1341 C 0.56814 0.49703 -0.08529
 C1342 C 0.54537 0.49116 -0.07805
 H1343 H 0.57942 0.48777 -0.19319
 H1344 H 0.58046 0.50378 -0.07268
 H1345 H 0.63124 0.49675 -0.18003
 H1346 H 0.53335 0.48420 -0.09085
 C1347 C 0.11205 -0.00295 0.29240
 C1348 C 0.12232 0.00488 0.31310
 C1349 C 0.10923 0.00267 0.33573
 N1350 N 0.11618 0.01430 0.35517
 N1351 N 0.10316 0.01368 0.37494
 C1352 C 0.08273 0.00144 0.37589
 N1353 N 0.07603 -0.01040 0.35661
 N1354 N 0.08900 -0.00980 0.33696
 C1355 C 0.06714 0.00140 0.39671
 C1356 C 0.07261 0.01196 0.41794
 H1357 H 0.13859 0.01456 0.31259
 H1358 H 0.05046 -0.00747 0.39512
 H1359 H 0.09522 -0.01165 0.29398
 H1360 H 0.08965 0.01987 0.42021
 C1361 C 0.19832 1.08848 1.00782
 C1362 C 0.17571 1.09620 1.01316
 C1363 C 0.15542 1.08059 1.01254
 N1364 N 0.13347 1.08983 1.01299
 N1365 N 0.11482 1.07598 1.01155
 C1366 C 0.11750 1.05240 1.00970
 N1367 N 0.13945 1.04313 1.00954
 N1368 N 0.15811 1.05699 1.01083
 C1369 C 0.09715 1.03699 1.00792
 C1370 C 0.07470 1.04587 1.00389
 H1371 H 0.17266 1.11464 1.01643
 H1372 H 0.10001 1.01820 1.00938
 H1373 H 0.20150 1.07013 1.00421
 H1374 H 0.07202 1.06460 1.00145
 C1375 C 0.69444 0.58651 0.50965
 C1376 C 0.67264 0.59503 0.51683
 C1377 C 0.65145 0.58069 0.51711
 N1378 N 0.63025 0.59116 0.52002
 N1379 N 0.61070 0.57852 0.52009
 C1380 C 0.61169 0.55492 0.51737
 N1381 N 0.63291 0.54439 0.51468
 N1382 N 0.65248 0.55708 0.51446
 C1383 C 0.59027 0.54086 0.51752
 C1384 C 0.56820 0.55127 0.51558
 H1385 H 0.67091 0.61327 0.52164
 H1386 H 0.59195 0.52192 0.51866
 H1387 H 0.69647 0.56835 0.50469
 H1388 H 0.56662 0.57012 0.51305
 C1389 C 0.71073 0.40358 -0.00364
 C1390 C 0.68800 0.39731 0.00331
 C1391 C 0.66806 0.41354 0.00265
 N1392 N 0.64710 0.40621 0.01141
 N1393 N 0.62866 0.42056 0.01128
 C1394 C 0.63046 0.44278 0.00235
 N1395 N 0.65143 0.45014 -0.00655
 N1396 N 0.66996 0.43576 -0.00637
 C1397 C 0.61001 0.45855 0.00226
 C1398 C 0.58907 0.45164 0.01315
 H1399 H 0.68478 0.37966 0.01010
 H1400 H 0.61143 0.47564 -0.00639
 H1401 H 0.71409 0.42127 -0.01022
 H1402 H 0.58804 0.43471 0.02219
 C1403 C 0.21594 -0.08746 0.49700
 C1404 C 0.19370 -0.09515 0.50391
 C1405 C 0.17300 -0.07983 0.50384
 N1406 N 0.15168 -0.08912 0.50901
 N1407 N 0.13248 -0.07578 0.50822
 C1408 C 0.13392 -0.05262 0.50225
 N1409 N 0.15528 -0.04326 0.49724
 N1410 N 0.17451 -0.05664 0.49799
 C1411 C 0.11277 -0.03791 0.50071
 C1412 C 0.09042 -0.04732 0.50388
 H1413 H 0.19117 -0.11353 0.50851
 H1414 H 0.11487 -0.01941 0.49643
 H1415 H 0.21867 -0.06926 0.49179
 H1416 H 0.08839 -0.06588 0.50792
 C1417 C 0.30173 -0.10511 0.48354
 C1418 C 0.31006 -0.08207 0.48375
 C1419 C 0.33491 -0.07610 0.48673
 N1420 N 0.34042 -0.05393 0.49277
 N1421 N 0.36260 -0.04790 0.49623
 C1422 C 0.38024 -0.06376 0.49372
 N1423 N 0.37481 -0.08596 0.48741
 N1424 N 0.35250 -0.09208 0.48413
 C1425 C 0.40483 -0.05658 0.49687
 C1426 C 0.40988 -0.03544 0.50770
 H1427 H 0.29801 -0.06741 0.48386
 H1428 H 0.41881 -0.06724 0.48959
 H1429 H 0.31436 -0.11938 0.48366
 H1430 H 0.39564 -0.02560 0.51566
 C1431 C -0.20540 0.38575 0.98767
 C1432 C -0.19701 0.40770 0.97995
 C1433 C -0.17188 0.41335 0.97878
 N1434 N -0.16533 0.43604 0.97560
 N1435 N -0.14278 0.44194 0.97577
 C1436 C -0.12587 0.42535 0.97903
 N1437 N -0.13236 0.40255 0.98181
 N1438 N -0.15498 0.39665 0.98179
 C1439 C -0.10101 0.43206 0.98034
 C1440 C -0.09477 0.45527 0.98427
 H1441 H -0.20883 0.42209 0.97601
 H1442 H -0.08764 0.41851 0.97961
 H1443 H -0.19268 0.37191 0.99102
 H1444 H -0.10842 0.46835 0.98654
 C1445 C -0.22098 0.59870 0.49065
 C1446 C -0.19978 0.61072 0.49231
 C1447 C -0.17749 0.59916 0.48577
 N1448 N -0.15664 0.60847 0.49209
 N1449 N -0.13657 0.59715 0.48766
 C1450 C -0.13666 0.57618 0.47663
 N1451 N -0.15745 0.56712 0.46996
 N1452 N -0.17746 0.57837 0.47445
 C1453 C -0.11510 0.56232 0.47324
 C1454 C -0.09338 0.56906 0.48190
 H1455 H -0.19903 0.62790 0.49999
 H1456 H -0.11683 0.54534 0.46519
 H1457 H -0.22050 0.58115 0.48364
 H1458 H -0.09148 0.58612 0.48974
 C1459 C 0.28270 1.10205 -0.00896
 C1460 C 0.30374 1.11422 -0.00665
 C1461 C 0.32630 1.10170 -0.00993
 N1462 N 0.34681 1.11108 -0.00260
 N1463 N 0.36685 1.09892 -0.00420
 C1464 C 0.36705 1.07696 -0.01320
 N1465 N 0.34665 1.06781 -0.02080
 N1466 N 0.32672 1.07990 -0.01919
 C1467 C 0.38845 1.06246 -0.01426
 C1468 C 0.41040 1.06979 -0.00671
 H1469 H 0.30392 1.13209 -0.00060
 H1470 H 0.38662 1.04494 -0.02107
 H1471 H 0.28376 1.08379 -0.01386
 H1472 H 0.41263 1.08747 -0.00046
 C1473 C 0.00975 1.19697 1.08920
 C1474 C 0.01082 1.17426 1.09884
 C1475 C 0.00784 1.15318 1.08491
 N1476 N 0.00655 1.13196 1.09615
 N1477 N 0.00359 1.11251 1.08394
 C1478 C 0.00183 1.11362 1.06002
 N1479 N 0.00320 1.13485 1.04875
 N1480 N 0.00609 1.15433 1.06098
 C1481 C -0.00098 1.09232 1.04632
 C1482 C -0.00419 1.07030 1.05708
 H1483 H 0.01305 1.17190 1.11776
 H1484 H -0.00026 1.09405 1.02721
 H1485 H 0.00725 1.19982 1.07038
 H1486 H -0.00565 1.06862 1.07616
 C1487 C 0.50718 0.71444 0.58706
 C1488 C 0.50373 0.69332 0.59955
 C1489 C 0.50152 0.67067 0.58793
 N1490 N 0.49737 0.65095 0.60116
 N1491 N 0.49533 0.63022 0.59095
 C1492 C 0.49739 0.62849 0.56711
 N1493 N 0.50157 0.64821 0.55388
 N1494 N 0.50358 0.66894 0.56409
 C1495 C 0.49531 0.60582 0.55546
 C1496 C 0.49024 0.58495 0.56782
 H1497 H 0.50250 0.69349 0.61869
 H1498 H 0.49780 0.60566 0.53645
 H1499 H 0.50844 0.71458 0.56793
 H1500 H 0.48746 0.58506 0.58679
 C1501 C 0.01050 0.71642 0.40366
 C1502 C 0.01032 0.69418 0.39390
 C1503 C 0.00811 0.67270 0.40843
 N1504 N 0.00974 0.65152 0.39806
 N1505 N 0.00740 0.63180 0.41090
 C1506 C 0.00328 0.63257 0.43456
 N1507 N 0.00162 0.65376 0.44494
 N1508 N 0.00404 0.67349 0.43211
 C1509 C -0.00000 0.61097 0.44875
 C1510 C 0.00313 0.58890 0.43906
 H1511 H 0.01172 0.69252 0.37488
 H1512 H -0.00529 0.61250 0.46711
 H1513 H 0.00865 0.71819 0.42263
 H1514 H 0.00911 0.58745 0.42090
 C1515 C 0.49821 1.22193 -0.09672
 C1516 C 0.49791 1.20005 -0.10736
 C1517 C 0.49680 1.17780 -0.09391
 N1518 N 0.49729 1.15724 -0.10558
 N1519 N 0.49607 1.13682 -0.09374
 C1520 C 0.49428 1.13626 -0.06978
 N1521 N 0.49378 1.15683 -0.05811
 N1522 N 0.49503 1.17725 -0.06995
 C1523 C 0.49271 1.11401 -0.05637
 C1524 C 0.49410 1.09214 -0.06700
 H1525 H 0.49838 1.19926 -0.12649
 H1526 H 0.49052 1.11498 -0.03736
 H1527 H 0.49751 1.22312 -0.07763
 H1528 H 0.49674 1.09104 -0.08594
 C1529 C 0.50033 0.31046 -0.10492
 C1530 C 0.50222 0.31603 -0.08101
 C1531 C 0.50092 0.34020 -0.07231
 N1532 N 0.50384 0.34398 -0.04890
 N1533 N 0.50242 0.36557 -0.04042
 C1534 C 0.49793 0.38425 -0.05501
 N1535 N 0.49496 0.38049 -0.07844
 N1536 N 0.49642 0.35887 -0.08695
 C1537 C 0.49646 0.40826 -0.04582
 C1538 C 0.50103 0.41310 -0.02219
 H1539 H 0.50475 0.30239 -0.06771
 H1540 H 0.49237 0.42250 -0.05812
 H1541 H 0.49879 0.32465 -0.11787
 H1542 H 0.50572 0.39887 -0.01009
 C1543 C 0.01828 -0.19709 0.39868
 C1544 C 0.01679 -0.17495 0.38770
 C1545 C 0.01793 -0.15358 0.40209
 N1546 N 0.01332 -0.13206 0.39237
 N1547 N 0.01350 -0.11297 0.40567
 C1548 C 0.01831 -0.11471 0.42918
 N1549 N 0.02310 -0.13616 0.43880
 N1550 N 0.02290 -0.15518 0.42554
 C1551 C 0.01804 -0.09409 0.44450
 C1552 C 0.01244 -0.07157 0.43618
 H1553 H 0.01367 -0.17309 0.36892
 H1554 H 0.02204 -0.09687 0.46304
 H1555 H 0.02076 -0.19777 0.41767
 H1556 H 0.00851 -0.06877 0.41761
 C1557 C 0.51441 -0.19841 0.58392
 C1558 C 0.51427 -0.17638 0.59428
 C1559 C 0.51146 -0.15462 0.57992
 N1560 N 0.51352 -0.13340 0.59012
 N1561 N 0.51049 -0.11364 0.57744
 C1562 C 0.50513 -0.11434 0.55408
 N1563 N 0.50298 -0.13556 0.54390
 N1564 N 0.50611 -0.15531 0.55656
 C1565 C 0.50150 -0.09265 0.53986
 C1566 C 0.50628 -0.07057 0.54873
 H1567 H 0.51583 -0.17467 0.61318
 H1568 H 0.49536 -0.09417 0.52188
 H1569 H 0.51384 -0.19902 0.56478
 H1570 H 0.51325 -0.06924 0.56641
 C1571 C 0.00646 0.28439 1.10289
 C1572 C 0.00077 0.29235 1.08007
 C1573 C -0.00209 0.31740 1.07380
 N1574 N -0.00941 0.32373 1.05180
 N1575 N -0.01169 0.34629 1.04553
 C1576 C -0.00672 0.36340 1.06104
 N1577 N 0.00056 0.35708 1.08308
 N1578 N 0.00279 0.33450 1.08938
 C1579 C -0.00804 0.38838 1.05394
 C1580 C -0.01560 0.39571 1.03155
 H1581 H -0.00222 0.28010 1.06612
 H1582 H -0.00187 0.40121 1.06629
 H1583 H 0.00827 0.29717 1.11665
 H1584 H -0.02209 0.38287 1.01938
 C1585 C 0.75612 0.35319 0.04818
 C1586 C 0.77227 0.33553 0.05389
 C1587 C 0.77394 0.32683 0.07864
 N1588 N 0.78535 0.30645 0.08402
 N1589 N 0.78547 0.29797 0.10622
 C1590 C 0.77428 0.30962 0.12383
 N1591 N 0.76326 0.33014 0.11849
 N1592 N 0.76310 0.33855 0.09637
 C1593 C 0.77270 0.29999 0.14815
 C1594 C 0.78198 0.27818 0.15467
 H1595 H 0.78261 0.32712 0.04033
 H1596 H 0.76277 0.30990 0.16099
 H1597 H 0.74552 0.36016 0.06245
 H1598 H 0.79210 0.26833 0.14192
 C1599 C 0.26623 0.84914 0.53321
 C1600 C 0.25949 0.85280 0.55667
 C1601 C 0.26475 0.83680 0.57657
 N1602 N 0.25819 0.84327 0.59856
 N1603 N 0.26124 0.82883 0.61704
 C1604 C 0.27093 0.80726 0.61429
 N1605 N 0.27775 0.80077 0.59226
 N1606 N 0.27469 0.81529 0.57367
 C1607 C 0.27310 0.79101 0.63478
 C1608 C 0.26396 0.79722 0.65676
 H1609 H 0.24992 0.86848 0.56131
 H1610 H 0.28112 0.77394 0.63243
 H1611 H 0.27821 0.83491 0.52928
 H1612 H 0.25574 0.81427 0.65869
 C1613 C 0.74914 0.63343 0.55567
 C1614 C 0.76354 0.65264 0.55934
 C1615 C 0.76649 0.66029 0.58391
 N1616 N 0.76346 0.68316 0.58946
 N1617 N 0.76253 0.68951 0.61204
 C1618 C 0.76467 0.67324 0.62987
 N1619 N 0.76840 0.65050 0.62428
 N1620 N 0.76907 0.64412 0.60175
 C1621 C 0.76242 0.67978 0.65491
 C1622 C 0.75122 0.70047 0.66144
 H1623 H 0.76914 0.66391 0.54473
 H1624 H 0.76896 0.66772 0.66841
 H1625 H 0.74148 0.62502 0.57131
 H1626 H 0.74390 0.71187 0.64777
 C1627 C 0.24940 0.14381 0.04879
 C1628 C 0.26425 0.16301 0.05060
 C1629 C 0.26810 0.17239 0.07438
 N1630 N 0.26664 0.19579 0.07826
 N1631 N 0.26693 0.20382 0.10027
 C1632 C 0.26880 0.18875 0.11917
 N1633 N 0.27092 0.16546 0.11520
 N1634 N 0.27038 0.15743 0.09328
 C1635 C 0.26790 0.19697 0.14372
 C1636 C 0.25921 0.21905 0.14953
 H1637 H 0.27039 0.17259 0.03503
 H1638 H 0.27303 0.18476 0.15771
 H1639 H 0.24137 0.13724 0.06510
 H1640 H 0.25330 0.23090 0.13555
 C1641 C 0.23181 0.15767 0.96709
 C1642 C 0.25060 0.17031 0.95736
 C1643 C 0.24837 0.17996 0.93291
 N1644 N 0.26216 0.19777 0.92461
 N1645 N 0.25983 0.20600 0.90241
 C1646 C 0.24382 0.19654 0.88769
 N1647 N 0.23036 0.17859 0.89592
 N1648 N 0.23253 0.17055 0.91805
 C1649 C 0.24109 0.20461 0.86291
 C1650 C 0.24958 0.22598 0.85408
 H1651 H 0.26704 0.17181 0.96661
 H1652 H 0.23129 0.19344 0.85133
 H1653 H 0.21549 0.15841 0.95735
 H1654 H 0.25826 0.23783 0.86588
 C1655 C 0.73115 0.65753 0.47604
 C1656 C 0.75120 0.66772 0.46595
 C1657 C 0.74990 0.67787 0.44165
 N1658 N 0.76736 0.69152 0.43245
 N1659 N 0.76634 0.69957 0.41009
 C1660 C 0.74797 0.69399 0.39608
 N1661 N 0.73071 0.68023 0.40524
 N1662 N 0.73162 0.67241 0.42755
 C1663 C 0.74668 0.70168 0.37108
 C1664 C 0.75965 0.72031 0.36155
 H1665 H 0.76810 0.66612 0.47441
 H1666 H 0.73427 0.69282 0.35997
 H1667 H 0.71468 0.66085 0.46707
 H1668 H 0.77083 0.73032 0.37295
 C1669 C 0.24680 0.84382 0.45521
 C1670 C 0.26523 0.83050 0.44622
 C1671 C 0.26161 0.81790 0.42413
 N1672 N 0.27853 0.81812 0.40713
 N1673 N 0.27414 0.80986 0.38576
 C1674 C 0.25273 0.80096 0.38065
 N1675 N 0.23608 0.79998 0.39790
 N1676 N 0.24038 0.80848 0.41919
 C1677 C 0.24723 0.79358 0.35656
 C1678 C 0.25936 0.80312 0.33720
 H1679 H 0.28292 0.83265 0.45255
 H1680 H 0.23289 0.78153 0.35397
 H1681 H 0.23008 0.84300 0.44625
 H1682 H 0.27270 0.81621 0.34016
 C1683 C 0.74417 0.33080 0.96990
 C1684 C 0.76433 0.31957 0.96172
 C1685 C 0.76272 0.30562 0.94019
 N1686 N 0.77908 0.30813 0.92274
 N1687 N 0.77596 0.29827 0.90183
 C1688 C 0.75642 0.28548 0.89767
 N1689 N 0.74043 0.28240 0.91535
 N1690 N 0.74341 0.29246 0.93614
 C1691 C 0.75205 0.27554 0.87433
 C1692 C 0.76290 0.28438 0.85383
 H1693 H 0.78147 0.32477 0.96773
 H1694 H 0.73911 0.26176 0.87313
 H1695 H 0.72784 0.32730 0.96094
 H1696 H 0.77489 0.29900 0.85500
 C1697 C 0.83104 0.45602 0.24798
 C1698 C 0.83839 0.43333 0.24208
 C1699 C 0.82481 0.41155 0.24452
 N1700 N 0.83661 0.39095 0.24282
 N1701 N 0.82522 0.37070 0.24227
 C1702 C 0.80145 0.37014 0.24310
 N1703 N 0.78949 0.39079 0.24487
 N1704 N 0.80096 0.41120 0.24554
 C1705 C 0.78912 0.34744 0.24167
 C1706 C 0.80175 0.32638 0.24321
 H1707 H 0.85615 0.43076 0.23568
 H1708 H 0.77021 0.34722 0.23999
 H1709 H 0.81548 0.45833 0.25881
 H1710 H 0.82043 0.32698 0.24652
 C1711 C 0.33056 0.96056 0.74864
 C1712 C 0.33235 0.94098 0.73413
 C1713 C 0.32035 0.91848 0.73834
 N1714 N 0.32953 0.89902 0.72835
 N1715 N 0.31878 0.87844 0.73062
 C1716 C 0.29820 0.87648 0.74271
 N1717 N 0.28880 0.89601 0.75258
 N1718 N 0.29974 0.91667 0.75052
 C1719 C 0.28636 0.85353 0.74470
 C1720 C 0.29935 0.83288 0.74237
 H1721 H 0.34488 0.94097 0.71968
 H1722 H 0.26772 0.85280 0.74851
 H1723 H 0.32046 0.95914 0.76492
 H1724 H 0.31830 0.83400 0.74107
 C1725 C 0.17415 0.98241 0.24586
 C1726 C 0.18423 0.97053 0.22686
 C1727 C 0.19792 0.94864 0.22891
 N1728 N 0.20289 0.93806 0.25009
 N1729 N 0.21253 0.91661 0.25093
 C1730 C 0.21729 0.90500 0.23064
 N1731 N 0.21256 0.91575 0.20962
 N1732 N 0.20314 0.93714 0.20878
 C1733 C 0.22499 0.88033 0.23069
 C1734 C 0.23542 0.86866 0.24981
 H1735 H 0.17958 0.97590 0.20901
 H1736 H 0.22230 0.87079 0.21455
 H1737 H 0.18158 0.98035 0.26334
 H1738 H 0.24059 0.87826 0.26523
 C1739 C 0.66264 0.45363 0.76008
 C1740 C 0.66510 0.43637 0.74291
 C1741 C 0.67793 0.41399 0.74549
 N1742 N 0.69078 0.40792 0.76487
 N1743 N 0.70093 0.38672 0.76659
 C1744 C 0.69840 0.37092 0.74906
 N1745 N 0.68565 0.37715 0.72982
 N1746 N 0.67573 0.39824 0.72804
 C1747 C 0.70753 0.34674 0.75069
 C1748 C 0.72510 0.33887 0.76598
 H1749 H 0.65638 0.43872 0.72613
 H1750 H 0.70033 0.33451 0.73829
 H1751 H 0.67371 0.45293 0.77555
 H1752 H 0.73398 0.35110 0.77720
 C1753 C 0.66258 0.53330 0.75344
 C1754 C 0.67737 0.54014 0.77142
 C1755 C 0.69060 0.56204 0.76762
 N1756 N 0.68758 0.58023 0.78247
 N1757 N 0.69659 0.60126 0.77705
 C1758 C 0.70899 0.60482 0.75663
 N1759 N 0.71250 0.58648 0.74211
 N1760 N 0.70323 0.56556 0.74736
 C1761 C 0.71841 0.62812 0.75006
 C1762 C 0.70809 0.64869 0.75821
 H1763 H 0.67619 0.53217 0.78893
 H1764 H 0.73334 0.62908 0.73810
 H1765 H 0.66211 0.54446 0.73763
 H1766 H 0.69227 0.64753 0.76895
 C1767 C 0.14465 0.05806 0.25137
 C1768 C 0.16479 0.06396 0.26360
 C1769 C 0.17291 0.08847 0.26225
 N1770 N 0.19602 0.09338 0.25914
 N1771 N 0.20306 0.11546 0.25536
 C1772 C 0.18725 0.13341 0.25467
 N1773 N 0.16423 0.12854 0.25835
 N1774 N 0.15717 0.10648 0.26185
 C1775 C 0.19465 0.15786 0.25035
 C1776 C 0.21603 0.16341 0.23950
 H1777 H 0.17628 0.05049 0.27081
 H1778 H 0.18287 0.17179 0.25570
 H1779 H 0.13571 0.07209 0.24172
 H1780 H 0.22715 0.14940 0.23308
 C1781 C 0.32797 0.04175 0.76170
 C1782 C 0.33129 0.06535 0.75520
 C1783 C 0.31947 0.08554 0.76572
 N1784 N 0.32983 0.10678 0.76317
 N1785 N 0.31869 0.12620 0.76950
 C1786 C 0.29656 0.12526 0.77847
 N1787 N 0.28620 0.10392 0.78142
 N1788 N 0.29748 0.08433 0.77518
 C1789 C 0.28337 0.14723 0.78238
 C1790 C 0.29385 0.16886 0.77712
 H1791 H 0.34494 0.07000 0.74256
 H1792 H 0.26485 0.14633 0.78673
 H1793 H 0.31761 0.03740 0.77731
 H1794 H 0.31238 0.16938 0.77273
 C1795 C 0.83046 0.54033 0.23647
 C1796 C 0.82225 0.54970 0.25764
 C1797 C 0.81839 0.57534 0.25937
 N1798 N 0.80955 0.58471 0.27949
 N1799 N 0.80701 0.60792 0.28127
 C1800 C 0.81350 0.62264 0.26312
 N1801 N 0.82247 0.61327 0.24314
 N1802 N 0.82488 0.59013 0.24132
 C1803 C 0.81008 0.64829 0.26417
 C1804 C 0.79636 0.65868 0.28158
 H1805 H 0.82099 0.53894 0.27359
 H1806 H 0.81633 0.65895 0.24933
 H1807 H 0.83107 0.55198 0.22105
 H1808 H 0.78886 0.64775 0.29561
 C1809 C 0.97565 0.23841 0.15820
 C1810 C 0.96106 0.21985 0.16530
 C1811 C 0.93789 0.22237 0.17646
 N1812 N 0.92916 0.24335 0.18359
 N1813 N 0.90708 0.24496 0.19157
 C1814 C 0.89302 0.22572 0.19235
 N1815 N 0.90187 0.20489 0.18533
 N1816 N 0.92388 0.20324 0.17763
 C1817 C 0.86819 0.22688 0.19922
 C1818 C 0.85845 0.24433 0.21313
 H1819 H 0.96568 0.20215 0.16038
 H1820 H 0.85732 0.21226 0.19423
 H1821 H 0.97361 0.25540 0.16620
 H1822 H 0.86947 0.25784 0.22029
 C1823 C 0.47162 0.77202 0.64274
 C1824 C 0.44857 0.76423 0.64038
 C1825 C 0.42894 0.76939 0.65643
 N1826 N 0.40694 0.76647 0.64827
 N1827 N 0.38855 0.76767 0.66277
 C1828 C 0.39130 0.77159 0.68616
 N1829 N 0.41338 0.77491 0.69440
 N1830 N 0.43192 0.77383 0.67977
 C1831 C 0.37071 0.77015 0.70231
 C1832 C 0.34891 0.76435 0.69307
 H1833 H 0.44396 0.75421 0.62507
 H1834 H 0.37297 0.77168 0.72120
 H1835 H 0.47539 0.78560 0.65523
 H1836 H 0.34736 0.76270 0.67409
 C1837 C 0.45632 0.27322 0.84474
 C1838 C 0.43408 0.26393 0.84977
 C1839 C 0.41327 0.26688 0.83489
 N1840 N 0.39187 0.26347 0.84499
 N1841 N 0.37263 0.26334 0.83188
 C1842 C 0.37403 0.26628 0.80804
 N1843 N 0.39547 0.26971 0.79783
 N1844 N 0.41479 0.27006 0.81103
 C1845 C 0.35270 0.26461 0.79359
 C1846 C 0.33051 0.26621 0.80407
 H1847 H 0.43109 0.25452 0.86634
 H1848 H 0.35442 0.26202 0.77473
 H1849 H 0.45829 0.28635 0.83074
 H1850 H 0.32909 0.27081 0.82253
 C1851 C 0.97027 0.76882 0.34737
 C1852 C 0.94804 0.75909 0.35218
 C1853 C 0.92689 0.76136 0.33753
 N1854 N 0.90580 0.75745 0.34815
 N1855 N 0.88634 0.75603 0.33549
 C1856 C 0.88713 0.75810 0.31156
 N1857 N 0.90825 0.76211 0.30080
 N1858 N 0.92783 0.76370 0.31355
 C1859 C 0.86543 0.75525 0.29768
 C1860 C 0.84346 0.75546 0.30889
 H1861 H 0.94509 0.74977 0.36881
 H1862 H 0.86666 0.75342 0.27868
 H1863 H 0.97190 0.78247 0.33384
 H1864 H 0.84253 0.75929 0.32756
 C1865 C 0.05227 0.76188 0.34143
 C1866 C 0.05992 0.78271 0.33046
 C1867 C 0.08469 0.78404 0.32224
 N1868 N 0.09176 0.79939 0.30487
 N1869 N 0.11413 0.79965 0.29743
 C1870 C 0.13022 0.78475 0.30734
 N1871 N 0.12317 0.76984 0.32492
 N1872 N 0.10093 0.76946 0.33217
 C1873 C 0.15492 0.78366 0.29943
 C1874 C 0.16378 0.79449 0.27886
 H1875 H 0.04858 0.79794 0.32887
 H1876 H 0.16635 0.77219 0.30967
 H1877 H 0.06419 0.74699 0.34068
 H1878 H 0.15250 0.80569 0.26815
 C1879 C 0.53749 0.27033 0.83977
 C1880 C 0.55490 0.25373 0.83453
 C1881 C 0.57818 0.25904 0.82448
 N1882 N 0.59527 0.24258 0.82703
 N1883 N 0.61687 0.24656 0.81896
 C1884 C 0.62230 0.26716 0.80782
 N1885 N 0.60514 0.28364 0.80491
 N1886 N 0.58346 0.27974 0.81329
 C1887 C 0.64631 0.27095 0.79859
 C1888 C 0.66500 0.25807 0.80816
 H1889 H 0.55239 0.23554 0.83967
 H1890 H 0.64915 0.28309 0.78386
 H1891 H 0.53884 0.28793 0.83231
 H1892 H 0.66196 0.24748 0.82404
 C1893 C 0.55097 0.76262 0.64465
 C1894 C 0.56535 0.74451 0.65334
 C1895 C 0.58760 0.74814 0.66557
 N1896 N 0.59733 0.72986 0.67775
 N1897 N 0.61841 0.73180 0.68739
 C1898 C 0.63075 0.75203 0.68497
 N1899 N 0.62106 0.77038 0.67272
 N1900 N 0.59982 0.76849 0.66321
 C1901 C 0.65446 0.75374 0.69493
 C1902 C 0.66225 0.73747 0.71191
 H1903 H 0.56012 0.72643 0.65144
 H1904 H 0.66568 0.76812 0.68926
 H1905 H 0.55413 0.78044 0.65006
 H1906 H 0.65016 0.72440 0.71893
 C1907 C 0.05483 0.23888 0.14899
 C1908 C 0.06057 0.25815 0.16243
 C1909 C 0.08252 0.25703 0.17580
 N1910 N 0.09897 0.27404 0.17302
 N1911 N 0.12008 0.27137 0.18274
 C1912 C 0.12539 0.25168 0.19566
 N1913 N 0.10874 0.23500 0.19890
 N1914 N 0.08779 0.23751 0.18894
 C1915 C 0.14869 0.24805 0.20602
 C1916 C 0.16870 0.25899 0.19681
 H1917 H 0.05094 0.27451 0.16089
 H1918 H 0.15025 0.23556 0.22066
 H1919 H 0.06737 0.22447 0.14863
 H1920 H 0.16733 0.27028 0.18121
 C1921 C -0.09503 0.98811 0.78863
 C1922 C -0.10508 0.98236 0.81055
 C1923 C -0.09156 0.98169 0.83237
 N1924 N -0.10288 0.97999 0.85353
 N1925 N -0.09087 0.97993 0.87360
 C1926 C -0.06712 0.98149 0.87316
 N1927 N -0.05579 0.98298 0.85200
 N1928 N -0.06780 0.98316 0.83192
 C1929 C -0.05361 0.98151 0.89499
 C1930 C -0.06416 0.98346 0.91719
 H1931 H -0.12382 0.97938 0.81182
 H1932 H -0.03467 0.98050 0.89340
 H1933 H -0.07638 0.99148 0.78715
 H1934 H -0.08301 0.98549 0.91881
 C1935 C 0.39737 0.51176 0.30461
 C1936 C 0.38713 0.50839 0.32695
 C1937 C 0.40046 0.50458 0.34873
 N1938 N 0.38878 0.50308 0.36971
 N1939 N 0.40034 0.49939 0.38980
 C1940 C 0.42402 0.49691 0.38960
 N1941 N 0.43572 0.49830 0.36859
 N1942 N 0.42415 0.50208 0.34848
 C1943 C 0.43702 0.49315 0.41165
 C1944 C 0.42630 0.49472 0.43386
 H1945 H 0.36816 0.50833 0.32853
 H1946 H 0.45577 0.49019 0.41031
 H1947 H 0.41627 0.51162 0.30247
 H1948 H 0.40772 0.49862 0.43524
 C1949 C 0.59620 -0.00739 0.28790
 C1950 C 0.58293 0.01146 0.29597
 C1951 C 0.57539 0.01249 0.32087
 N1952 N 0.55882 0.02819 0.32767
 N1953 N 0.55203 0.02914 0.35026
 C1954 C 0.56176 0.01460 0.36687
 N1955 N 0.57853 -0.00087 0.36010
 N1956 N 0.58518 -0.00194 0.33753
 C1957 C 0.55419 0.01497 0.39175
 C1958 C 0.53339 0.02579 0.39870
 H1959 H 0.57844 0.02582 0.28396
 H1960 H 0.56440 0.00506 0.40462
 H1961 H 0.60042 -0.02157 0.30025
 H1962 H 0.52248 0.03449 0.38555
 C1963 C 0.09026 0.51561 0.78161
 C1964 C 0.10098 0.51514 0.80369
 C1965 C 0.08779 0.51580 0.82595
 N1966 N 0.09877 0.51007 0.84646
 N1967 N 0.08686 0.50911 0.86680
 C1968 C 0.06353 0.51395 0.86731
 N1969 N 0.05261 0.52003 0.84684
 N1970 N 0.06451 0.52086 0.82647
 C1971 C 0.04996 0.51212 0.88935
 C1972 C 0.05898 0.50164 0.90988
 H1973 H 0.11969 0.51182 0.80470
 H1974 H 0.03193 0.51821 0.88900
 H1975 H 0.07143 0.51780 0.78026
 H1976 H 0.07676 0.49482 0.91007
 C1977 C 0.09758 0.50235 0.69358
 C1978 C 0.07429 0.50568 0.68676
 C1979 C 0.06677 0.50251 0.66222
 N1980 N 0.04357 0.50166 0.65723
 N1981 N 0.03642 0.49872 0.63514
 C1982 C 0.05223 0.49657 0.61717
 N1983 N 0.07544 0.49754 0.62213
 N1984 N 0.08260 0.50036 0.64426
 C1985 C 0.04450 0.49422 0.59259
 C1986 C 0.02100 0.49081 0.58707
 H1987 H 0.06079 0.50950 0.69967
 H1988 H 0.05748 0.49598 0.57855
 H1989 H 0.11030 0.49727 0.68027
 H1990 H 0.00825 0.48829 0.60122
 C1991 C 0.59137 1.00054 0.19968
 C1992 C 0.60096 0.99830 0.17699
 C1993 C 0.58609 0.99876 0.15576
 N1994 N 0.59602 0.99767 0.13388
 N1995 N 0.58271 0.99758 0.11461
 C1996 C 0.55894 0.99845 0.11652
 N1997 N 0.54902 0.99948 0.13838
 N1998 N 0.56232 0.99964 0.15762
 C1999 C 0.54381 0.99830 0.09554
 C2000 C 0.55266 0.99929 0.07245
 H2001 H 0.61956 0.99568 0.17436
 H2002 H 0.52500 0.99802 0.09848
 H2003 H 0.57268 1.00385 0.20126
 H2004 H 0.57143 1.00025 0.06945
 C2005 C 0.38593 0.52305 0.21620
 C2006 C 0.40913 0.52709 0.20896
 C2007 C 0.41665 0.52711 0.18393
 N2008 N 0.43923 0.53230 0.17820
 N2009 N 0.44676 0.53140 0.15585
 C2010 C 0.43200 0.52522 0.13834
 N2011 N 0.40937 0.52010 0.14405
 N2012 N 0.40182 0.52105 0.16642
 C2013 C 0.44046 0.52309 0.11372
 C2014 C 0.46350 0.52855 0.10713
 H2015 H 0.42263 0.53006 0.22184
 H2016 H 0.42852 0.51638 0.10072
 H2017 H 0.37263 0.52162 0.20277
 H2018 H 0.47521 0.53563 0.12014
 C2019 C -0.10066 0.00523 0.70245
 C2020 C -0.11141 0.00445 0.68039
 C2021 C -0.09733 0.00874 0.65862
 N2022 N -0.10580 0.00332 0.63704
 N2023 N -0.09242 0.00596 0.61765
 C2024 C -0.07012 0.01417 0.61916
 N2025 N -0.06184 0.01987 0.64065
 N2026 N -0.07515 0.01720 0.65996
 C2027 C -0.05441 0.01619 0.59841
 C2028 C -0.06084 0.00971 0.57575
 H2029 H -0.12953 -0.00080 0.67882
 H2030 H -0.03675 0.02236 0.60136
 H2031 H -0.08215 0.00952 0.70277
 H2032 H -0.07857 0.00383 0.57259
 C2033 C -0.21870 0.89588 1.01010
 C2034 C -0.19673 0.88506 1.01078
 C2035 C -0.17499 0.89875 1.00972
 N2036 N -0.15386 0.88769 1.01047
 N2037 N -0.13405 0.89996 1.00888
 C2038 C -0.13470 0.92373 1.00641
 N2039 N -0.15581 0.93476 1.00568
 N2040 N -0.17559 0.92251 1.00731
 C2041 C -0.11318 0.93763 1.00427
 C2042 C -0.09087 0.92769 1.00604
 H2043 H -0.19554 0.86607 1.01135
 H2044 H -0.11507 0.95641 1.00141
 H2045 H -0.21985 0.91487 1.00931
 H2046 H -0.08890 0.90901 1.00948
 C2047 C 0.27223 0.40310 0.50743
 C2048 C 0.29467 0.39380 0.51027
 C2049 C 0.31527 0.40891 0.51248
 N2050 N 0.33650 0.39924 0.51737
 N2051 N 0.35535 0.41276 0.51926
 C2052 C 0.35366 0.43643 0.51628
 N2053 N 0.33243 0.44610 0.51134
 N2054 N 0.31357 0.43259 0.50953
 C2055 C 0.37442 0.45146 0.51760
 C2056 C 0.39622 0.44241 0.52405
 H2057 H 0.29712 0.37493 0.51108
 H2058 H 0.37259 0.46990 0.51285
 H2059 H 0.26990 0.42198 0.50625
 H2060 H 0.39784 0.42408 0.52933
 C2061 C 0.28993 0.59267 0.01246
 C2062 C 0.31212 0.60261 0.00984
 C2063 C 0.33395 0.58973 0.01439
 N2064 N 0.35473 0.60067 0.01048
 N2065 N 0.37486 0.58938 0.01430
 C2066 C 0.37494 0.56675 0.02228
 N2067 N 0.35415 0.55582 0.02636
 N2068 N 0.33397 0.56712 0.02249
 C2069 C 0.39707 0.55390 0.02566
 C2070 C 0.41852 0.56362 0.01875
 H2071 H 0.31352 0.62087 0.00425
 H2072 H 0.39629 0.53596 0.03237
 H2073 H 0.28807 0.57445 0.01798
 H2074 H 0.41915 0.58134 0.01144
 C2075 C -0.20788 0.09736 0.50237
 C2076 C -0.18568 0.10763 0.50335
 C2077 C -0.16397 0.09386 0.50196
 N2078 N -0.14298 0.10497 0.50107
 N2079 N -0.12308 0.09272 0.49970
 C2080 C -0.12350 0.06891 0.49919
 N2081 N -0.14448 0.05780 0.50015
 N2082 N -0.16438 0.07005 0.50146
 C2083 C -0.10180 0.05508 0.49803
 C2084 C -0.07977 0.06540 0.49564
 H2085 H -0.18423 0.12652 0.50470
 H2086 H -0.10331 0.03614 0.49920
 H2087 H -0.20906 0.07843 0.50125
 H2088 H -0.07823 0.08431 0.49392
 C2089 C 0.70725 0.10015 0.49602
 C2090 C 0.68573 0.11180 0.49429
 C2091 C 0.66417 0.09903 0.48842
 N2092 N 0.64318 0.11035 0.48810
 N2093 N 0.62357 0.09880 0.48333
 C2094 C 0.62423 0.07551 0.47856
 N2095 N 0.64524 0.06426 0.47865
 N2096 N 0.66483 0.07580 0.48346
 C2097 C 0.60259 0.06212 0.47484
 C2098 C 0.58049 0.07222 0.47782
 H2099 H 0.68434 0.13045 0.49718
 H2100 H 0.60411 0.04345 0.47187
 H2101 H 0.70764 0.08143 0.49300
 H2102 H 0.57912 0.09079 0.48139
 C2103 C 0.20183 0.60226 1.00859
 C2104 C 0.19518 0.57880 1.01166
 C2105 C 0.17062 0.57114 1.01037
 N2106 N 0.16582 0.54793 1.00896
 N2107 N 0.14377 0.54054 1.00738
 C2108 C 0.12565 0.55611 1.00727
 N2109 N 0.13042 0.57934 1.00890
 N2110 N 0.15251 0.58675 1.01034
 C2111 C 0.10123 0.54808 1.00549
 C2112 C 0.09590 0.52511 0.99948
 H2113 H 0.20821 0.56510 1.01375
 H2114 H 0.08722 0.56063 1.00841
 H2115 H 0.18829 0.61534 1.00546
 H2116 H 0.11000 0.51298 0.99538
 C2117 C 0.18597 0.39791 0.50452
 C2118 C 0.16433 0.38671 0.50300
 C2119 C 0.14248 0.40030 0.50674
 N2120 N 0.12126 0.39132 0.50117
 N2121 N 0.10174 0.40411 0.50379
 C2122 C 0.10277 0.42628 0.51221
 N2123 N 0.12391 0.43505 0.51808
 N2124 N 0.14334 0.42234 0.51540
 C2125 C 0.08186 0.44143 0.51396
 C2126 C 0.05989 0.43482 0.50592
 H2127 H 0.16318 0.36836 0.49871
 H2128 H 0.08432 0.45904 0.52032
 H2129 H 0.18582 0.41656 0.50794
 H2130 H 0.05738 0.41724 0.49950
 C2131 C 0.69479 0.89690 0.00583
 C2132 C 0.67250 0.88762 0.00227
 C2133 C 0.65179 0.90344 0.00143
 N2134 N 0.63028 0.89526 -0.00435
 N2135 N 0.61182 0.90977 -0.00551
 C2136 C 0.61419 0.93299 -0.00091
 N2137 N 0.63562 0.94107 0.00497
 N2138 N 0.65401 0.92663 0.00609
 C2139 C 0.59423 0.94953 -0.00210
 C2140 C 0.57172 0.94288 -0.00854
 H2141 H 0.67013 0.86907 -0.00057
 H2142 H 0.59746 0.96763 0.00236
 H2143 H 0.69601 0.91572 0.00795
 H2144 H 0.56845 0.92479 -0.01297
 C2145 C 0.00912 0.77901 0.90268
 C2146 C 0.00422 0.80193 0.89526
 C2147 C 0.00122 0.82134 0.91147
 N2148 N -0.00219 0.84324 0.90238
 N2149 N -0.00467 0.86136 0.91659
 C2150 C -0.00391 0.85827 0.94044
 N2151 N -0.00070 0.83629 0.94960
 N2152 N 0.00186 0.81810 0.93534
 C2153 C -0.00600 0.87847 0.95597
 C2154 C -0.00573 0.90118 0.94641
 H2155 H 0.00271 0.80586 0.87649
 H2156 H -0.00693 0.87553 0.97495
 H2157 H 0.01082 0.77465 0.92133
 H2158 H -0.00392 0.90386 0.92745
 C2159 C 0.51398 0.31244 0.38848
 C2160 C 0.49874 0.31596 0.40746
 C2161 C 0.49631 0.33892 0.41839
 N2162 N 0.48334 0.34116 0.43845
 N2163 N 0.48092 0.36200 0.44843
 C2164 C 0.49127 0.38133 0.43859
 N2165 N 0.50408 0.37912 0.41845
 N2166 N 0.50658 0.35828 0.40854
 C2167 C 0.48911 0.40433 0.44947
 C2168 C 0.47963 0.40697 0.47203
 H2169 H 0.48812 0.30155 0.41423
 H2170 H 0.49622 0.41940 0.43989
 H2171 H 0.52449 0.32691 0.38165
 H2172 H 0.47342 0.39176 0.48202
 C2173 C 0.00009 0.29504 0.59460
 C2174 C -0.00780 0.31700 0.60166
 C2175 C -0.01044 0.33692 0.58510
 N2176 N -0.02018 0.35717 0.59275
 N2177 N -0.02307 0.37539 0.57793
 C2178 C -0.01638 0.37398 0.55489
 N2179 N -0.00662 0.35373 0.54723
 N2180 N -0.00377 0.33547 0.56206
 C2181 C -0.01859 0.39426 0.53865
 C2182 C -0.02813 0.41548 0.54600
 H2183 H -0.01335 0.31929 0.61986
 H2184 H -0.01132 0.39283 0.52096
 H2185 H 0.00549 0.29245 0.57642
 H2186 H -0.03544 0.41682 0.56367
 C2187 C 0.52130 0.80074 0.09722
 C2188 C 0.51918 0.82396 0.10420
 C2189 C 0.51619 0.84371 0.08753
 N2190 N 0.51096 0.86517 0.09605
 N2191 N 0.50690 0.88324 0.08137
 C2192 C 0.50789 0.88051 0.05760
 N2193 N 0.51334 0.85908 0.04902
 N2194 N 0.51733 0.84093 0.06374
 C2195 C 0.50338 0.90044 0.04139
 C2196 C 0.49601 0.92207 0.04986
 H2197 H 0.51746 0.82760 0.12287
 H2198 H 0.50634 0.89818 0.02262
 H2199 H 0.52204 0.79668 0.07860
 H2200 H 0.49285 0.92411 0.06864
 C2201 C 0.51783 0.71422 0.11867
 C2202 C 0.52127 0.70525 0.09605
 C2203 C 0.51919 0.68019 0.09065
 N2204 N 0.51818 0.67384 0.06771
 N2205 N 0.51598 0.65140 0.06211
 C2206 C 0.51481 0.63436 0.07922
 N2207 N 0.51605 0.64065 0.10223
 N2208 N 0.51810 0.66319 0.10786
 C2209 C 0.51250 0.60950 0.07290
 C2210 C 0.50653 0.60330 0.04998
 H2211 H 0.52416 0.71690 0.08101
 H2212 H 0.51534 0.59601 0.08637
 H2213 H 0.51407 0.70208 0.13320
 H2214 H 0.50250 0.61702 0.03706
 C2215 C 0.00844 0.20813 0.61000
 C2216 C 0.01612 0.20204 0.58736
 C2217 C 0.01361 0.17861 0.57729
 N2218 N 0.00570 0.15972 0.59012
 N2219 N 0.00263 0.13908 0.57979
 C2220 C 0.00716 0.13676 0.55628
 N2221 N 0.01504 0.15563 0.54363
 N2222 N 0.01825 0.17610 0.55393
 C2223 C 0.00347 0.11470 0.54386
 C2224 C 0.00008 0.09285 0.55497
 H2225 H 0.02323 0.21529 0.57541
 H2226 H 0.00498 0.11564 0.52474
 H2227 H 0.00336 0.19433 0.62245
 H2228 H -0.00007 0.09131 0.57410
 C2229 C 0.51891 0.22536 0.39205
 C2230 C 0.51400 0.20340 0.38288
 C2231 C 0.51227 0.18246 0.39861
 N2232 N 0.50265 0.16238 0.39071
 N2233 N 0.50018 0.14372 0.40515
 C2234 C 0.50726 0.14445 0.42802
 N2235 N 0.51707 0.16443 0.43583
 N2236 N 0.51946 0.18310 0.42144
 C2237 C 0.50485 0.12402 0.44424
 C2238 C 0.49325 0.10366 0.43787
 H2239 H 0.50953 0.20155 0.36448
 H2240 H 0.51277 0.12495 0.46154
 H2241 H 0.52201 0.22635 0.41089
 H2242 H 0.48513 0.10287 0.42066
 C2243 C 0.02274 0.69436 0.88224
 C2244 C 0.02770 0.68547 0.90487
 C2245 C 0.02713 0.66034 0.91108
 N2246 N 0.03258 0.65327 0.93341
 N2247 N 0.03065 0.63083 0.94010
 C2248 C 0.02312 0.61459 0.92472
 N2249 N 0.01785 0.62160 0.90228
 N2250 N 0.01981 0.64409 0.89556
 C2251 C 0.01960 0.59004 0.93248
 C2252 C 0.02383 0.58277 0.95577
 H2253 H 0.03167 0.69717 0.91907
 H2254 H 0.01266 0.57779 0.91997
 H2255 H 0.02114 0.68224 0.86786
 H2256 H 0.03099 0.59508 0.96811
 C2257 C 0.24322 0.64436 0.95746
 C2258 C 0.25600 0.63962 0.93680
 C2259 C 0.25305 0.65232 0.91412
 N2260 N 0.26569 0.64530 0.89507
 N2261 N 0.26422 0.65685 0.87443
 C2262 C 0.25008 0.67596 0.87205
 N2263 N 0.23735 0.68299 0.89109
 N2264 N 0.23879 0.67139 0.91179
 C2265 C 0.24890 0.68925 0.84947
 C2266 C 0.26156 0.68252 0.82940
 H2267 H 0.26887 0.62567 0.93665
 H2268 H 0.23800 0.70488 0.84874
 H2269 H 0.22894 0.65696 0.95660
 H2270 H 0.27212 0.66666 0.83003
 C2271 C 0.74466 0.16078 0.46749
 C2272 C 0.76099 0.16760 0.45013
 C2273 C 0.75465 0.17757 0.42693
 N2274 N 0.77078 0.17674 0.40923
 N2275 N 0.76539 0.18392 0.38744
 C2276 C 0.74366 0.19235 0.38246
 N2277 N 0.72755 0.19370 0.40026
 N2278 N 0.73288 0.18622 0.42212
 C2279 C 0.73806 0.19988 0.35812
 C2280 C 0.75026 0.18999 0.33928
 H2281 H 0.77934 0.16331 0.45232
 H2282 H 0.72506 0.21352 0.35507
 H2283 H 0.72684 0.16736 0.46643
 H2284 H 0.76170 0.17509 0.34278
 C2285 C 0.22808 0.34787 0.45681
 C2286 C 0.24685 0.34296 0.44147
 C2287 C 0.24475 0.33183 0.41837
 N2288 N 0.26423 0.32242 0.40830
 N2289 N 0.26364 0.31402 0.38654
 C2290 C 0.24359 0.31501 0.37381
 N2291 N 0.22404 0.32446 0.38384
 N2292 N 0.22457 0.33270 0.40577
 C2293 C 0.24326 0.30668 0.34929
 C2294 C 0.26084 0.29195 0.34061
 H2295 H 0.26459 0.34668 0.44683
 H2296 H 0.22866 0.31166 0.33808
 H2297 H 0.21102 0.34044 0.45343
 H2298 H 0.27415 0.28518 0.35252
 C2299 C 0.73282 0.84084 0.96361
 C2300 C 0.75117 0.83377 0.94862
 C2301 C 0.74835 0.82233 0.92576
 N2302 N 0.76730 0.81181 0.91580
 N2303 N 0.76623 0.80317 0.89415
 C2304 C 0.74622 0.80499 0.88144
 N2305 N 0.72717 0.81551 0.89139
 N2306 N 0.72819 0.82403 0.91319
 C2307 C 0.74534 0.79628 0.85707
 C2308 C 0.76261 0.78127 0.84822
 H2309 H 0.76914 0.83624 0.95400
 H2310 H 0.73048 0.80112 0.84616
 H2311 H 0.71521 0.83462 0.96054
 H2312 H 0.77629 0.77475 0.85985
 C2313 C 0.72829 0.83288 0.04292
 C2314 C 0.74492 0.82315 0.05848
 C2315 C 0.74014 0.80864 0.07984
 N2316 N 0.75870 0.80203 0.09328
 N2317 N 0.75557 0.79099 0.11399
 C2318 C 0.73370 0.78599 0.12222
 N2319 N 0.71499 0.79205 0.10854
 N2320 N 0.71813 0.80331 0.08773
 C2321 C 0.73071 0.77579 0.14636
 C2322 C 0.74761 0.78043 0.16334
 H2323 H 0.76330 0.82687 0.05542
 H2324 H 0.71489 0.76632 0.15118
 H2325 H 0.71048 0.82636 0.04333
 H2326 H 0.76178 0.79228 0.15853
 C2327 C 0.22291 0.33496 0.53543
 C2328 C 0.23953 0.32528 0.55095
 C2329 C 0.23446 0.30988 0.57155
 N2330 N 0.25271 0.30289 0.58522
 N2331 N 0.24909 0.29140 0.60560
 C2332 C 0.22702 0.28634 0.61324
 N2333 N 0.20864 0.29271 0.59927
 N2334 N 0.21228 0.30439 0.57879
 C2335 C 0.22340 0.27626 0.63729
 C2336 C 0.23956 0.28154 0.65475
 H2337 H 0.25780 0.32991 0.54863
 H2338 H 0.20750 0.26676 0.64173
 H2339 H 0.20542 0.32766 0.53510
 H2340 H 0.25374 0.29348 0.65023
 C2341 C 0.74255 0.15033 0.54793
 C2342 C 0.75339 0.14567 0.56964
 C2343 C 0.75174 0.16063 0.59040
 N2344 N 0.75830 0.15148 0.61166
 N2345 N 0.75887 0.16480 0.63065
 C2346 C 0.75320 0.18793 0.62912
 N2347 N 0.74672 0.19722 0.60779
 N2348 N 0.74597 0.18379 0.58872
 C2349 C 0.75424 0.20253 0.65030
 C2350 C 0.75430 0.19196 0.67277
 H2351 H 0.76336 0.12963 0.57217
 H2352 H 0.75402 0.22148 0.64834
 H2353 H 0.72936 0.16404 0.54666
 H2354 H 0.75219 0.17310 0.67442
 C2355 C 0.24247 0.66204 0.03598
 C2356 C 0.25958 0.67185 0.05027
 C2357 C 0.25457 0.68592 0.07117
 N2358 N 0.27257 0.69700 0.08169
 N2359 N 0.26945 0.70744 0.10231
 C2360 C 0.24823 0.70699 0.11338
 N2361 N 0.23011 0.69606 0.10279
 N2362 N 0.23321 0.68569 0.08204
 C2363 C 0.24525 0.71704 0.13703
 C2364 C 0.26292 0.73026 0.14717
 H2365 H 0.27794 0.66827 0.04669
 H2366 H 0.22905 0.71378 0.14669
 H2367 H 0.22474 0.66896 0.03641
 H2368 H 0.27846 0.73467 0.13685
 C2369 C 0.15956 0.53036 0.72925
 C2370 C 0.17135 0.54493 0.74469
 C2371 C 0.18509 0.56553 0.73729
 N2372 N 0.19996 0.57497 0.75300
 N2373 N 0.20978 0.59575 0.74861
 C2374 C 0.20483 0.60813 0.72848
 N2375 N 0.19007 0.59863 0.71259
 N2376 N 0.18038 0.57766 0.71690
 C2377 C 0.21382 0.63218 0.72496
 C2378 C 0.23166 0.64052 0.73917
 H2379 H 0.16924 0.54208 0.76360
 H2380 H 0.20582 0.64363 0.71175
 H2381 H 0.16527 0.52943 0.71097
 H2382 H 0.24068 0.62837 0.75102
 C2383 C 0.65649 0.02531 0.23463
 C2384 C 0.66689 0.03974 0.25128
 C2385 C 0.67989 0.06129 0.24523
 N2386 N 0.69307 0.07127 0.26209
 N2387 N 0.70296 0.09212 0.25823
 C2388 C 0.69981 0.10400 0.23743
 N2389 N 0.68667 0.09401 0.22046
 N2390 N 0.67689 0.07300 0.22426
 C2391 C 0.70944 0.12783 0.23388
 C2392 C 0.72585 0.13672 0.24946
 H2393 H 0.66538 0.03545 0.26996
 H2394 H 0.70334 0.13855 0.21911
 H2395 H 0.66193 0.02713 0.21628
 H2396 H 0.73298 0.12526 0.26318
 C2397 C 0.83908 0.02664 0.74858
 C2398 C 0.83185 0.03917 0.76849
 C2399 C 0.82161 0.06285 0.76791
 N2400 N 0.81305 0.07321 0.74787
 N2401 N 0.80538 0.09541 0.74811
 C2402 C 0.80635 0.10800 0.76827
 N2403 N 0.81492 0.09758 0.78814
 N2404 N 0.82226 0.07542 0.78798
 C2405 C 0.79940 0.13282 0.76894
 C2406 C 0.78299 0.14280 0.75367
 H2407 H 0.83606 0.03253 0.78601
 H2408 H 0.80633 0.14322 0.78307
 H2409 H 0.83130 0.03081 0.73159
 H2410 H 0.77423 0.13196 0.74099
 C2411 C 0.33278 0.55386 0.26482
 C2412 C 0.32181 0.56281 0.24453
 C2413 C 0.31283 0.58727 0.24456
 N2414 N 0.30087 0.59666 0.22589
 N2415 N 0.29410 0.61918 0.22582
 C2416 C 0.29927 0.63307 0.24434
 N2417 N 0.31120 0.62367 0.26284
 N2418 N 0.31778 0.60128 0.26296
 C2419 C 0.29331 0.65818 0.24476
 C2420 C 0.27747 0.66936 0.22959
 H2421 H 0.32179 0.55316 0.22827
 H2422 H 0.30133 0.66821 0.25859
 H2423 H 0.33162 0.56426 0.28063
 H2424 H 0.26814 0.65936 0.21662
 C2425 C 0.33989 0.47267 0.25296
 C2426 C 0.34612 0.44992 0.26054
 C2427 C 0.33211 0.42864 0.25781
 N2428 N 0.34238 0.40767 0.26292
 N2429 N 0.33010 0.38792 0.26263
 C2430 C 0.30693 0.38834 0.25745
 N2431 N 0.29653 0.40936 0.25229
 N2432 N 0.30890 0.42923 0.25249
 C2433 C 0.29347 0.36630 0.25744
 C2434 C 0.30495 0.34463 0.25902
 H2435 H 0.36293 0.44697 0.26884
 H2436 H 0.27463 0.36705 0.25511
 H2437 H 0.32542 0.47519 0.24088
 H2438 H 0.32394 0.34410 0.25961
 C2439 C 0.84957 0.94991 0.73413
 C2440 C 0.85541 0.92696 0.74133
 C2441 C 0.83939 0.90688 0.74276
 N2442 N 0.84837 0.88574 0.74949
 N2443 N 0.83444 0.86744 0.75357
 C2444 C 0.81086 0.86953 0.75130
 N2445 N 0.80175 0.89069 0.74440
 N2446 N 0.81577 0.90912 0.74030
 C2447 C 0.79562 0.84900 0.75593
 C2448 C 0.80542 0.82710 0.76161
 H2449 H 0.87295 0.92340 0.74773
 H2450 H 0.77687 0.85071 0.75339
 H2451 H 0.83425 0.95311 0.72332
 H2452 H 0.82431 0.82541 0.76283
 C2453 C 0.64044 0.94712 0.22781
 C2454 C 0.63329 0.92512 0.23658
 C2455 C 0.64577 0.90289 0.23300
 N2456 N 0.66881 0.90205 0.22663
 N2457 N 0.68039 0.88161 0.22691
 C2458 C 0.66932 0.86138 0.23358
 N2459 N 0.64626 0.86229 0.23948
 N2460 N 0.63476 0.88264 0.23930
 C2461 C 0.68186 0.83891 0.23642
 C2462 C 0.70604 0.83644 0.23352
 H2463 H 0.61740 0.92381 0.24716
 H2464 H 0.67167 0.82395 0.24260
 H2465 H 0.65327 0.94818 0.21359
 H2466 H 0.71636 0.85100 0.22660
 C2467 C 0.13360 0.45302 0.74151
 C2468 C 0.14622 0.44282 0.72315
 C2469 C 0.15190 0.41753 0.72452
 N2470 N 0.16867 0.40831 0.71026
 N2471 N 0.17476 0.38575 0.71258
 C2472 C 0.16419 0.37156 0.72912
 N2473 N 0.14708 0.38067 0.74298
 N2474 N 0.14107 0.40320 0.74072
 C2475 C 0.17217 0.34725 0.73344
 C2476 C 0.19278 0.33895 0.72324
 H2477 H 0.15267 0.45320 0.70827
 H2478 H 0.16304 0.33663 0.74668
 H2479 H 0.12855 0.44177 0.75640
 H2480 H 0.20216 0.35002 0.71057
 C2481 C 0.05503 0.74792 0.83636
 C2482 C 0.06447 0.72863 0.82477
 C2483 C 0.08958 0.72858 0.81806
 N2484 N 0.09869 0.71166 0.80409
 N2485 N 0.12152 0.71152 0.79860
 C2486 C 0.13610 0.72811 0.80714
 N2487 N 0.12703 0.74480 0.82130
 N2488 N 0.10426 0.74503 0.82663
 C2489 C 0.16119 0.72887 0.80081
 C2490 C 0.17051 0.71604 0.78228
 H2491 H 0.05429 0.71294 0.82223
 H2492 H 0.17211 0.74149 0.80956
 H2493 H 0.06595 0.76338 0.83753
 H2494 H 0.15923 0.70440 0.77268
 C2495 C 0.55420 0.26252 0.33089
 C2496 C 0.56098 0.24067 0.32240
 C2497 C 0.58575 0.23730 0.31532
 N2498 N 0.59238 0.22059 0.29979
 N2499 N 0.61492 0.21825 0.29345
 C2500 C 0.63156 0.23235 0.30271
 N2501 N 0.62491 0.24866 0.31851
 N2502 N 0.60250 0.25112 0.32463
 C2503 C 0.65647 0.23088 0.29603
 C2504 C 0.66488 0.21925 0.27623
 H2505 H 0.54903 0.22599 0.32223
 H2506 H 0.66853 0.24105 0.30634
 H2507 H 0.56664 0.27676 0.32860
 H2508 H 0.65290 0.20967 0.26528
 C2509 C 0.54513 0.76371 0.17300
 C2510 C 0.55249 0.74290 0.18405
 C2511 C 0.57436 0.74350 0.19783
 N2512 N 0.59194 0.72794 0.19352
 N2513 N 0.61307 0.73074 0.20303
 C2514 C 0.61739 0.74917 0.21723
 N2515 N 0.59963 0.76431 0.22203
 N2516 N 0.57861 0.76168 0.21233
 C2517 C 0.64087 0.75325 0.22708
 C2518 C 0.66121 0.74328 0.21758
 H2519 H 0.54569 0.72621 0.17849
 H2520 H 0.64224 0.76524 0.24161
 H2521 H 0.55525 0.77933 0.17649
 H2522 H 0.65987 0.73214 0.20237
 C2523 C 0.03123 0.25725 0.66702
 C2524 C 0.04260 0.23690 0.67506
 C2525 C 0.06511 0.23929 0.68761
 N2526 N 0.08360 0.22505 0.68254
 N2527 N 0.10474 0.22906 0.69159
 C2528 C 0.10815 0.24745 0.70610
 N2529 N 0.08955 0.26131 0.71158
 N2530 N 0.06852 0.25745 0.70237
 C2531 C 0.13141 0.25268 0.71601
 C2532 C 0.15238 0.24348 0.70704
 H2533 H 0.03781 0.22000 0.66820
 H2534 H 0.13201 0.26477 0.73051
 H2535 H 0.03907 0.27384 0.67158
 H2536 H 0.15189 0.23212 0.69194
 C2537 C 0.95145 0.24485 0.64679
 C2538 C 0.94597 0.22753 0.66374
 C2539 C 0.92112 0.22483 0.67137
 N2540 N 0.91536 0.21422 0.69237
 N2541 N 0.89304 0.21368 0.69983
 C2542 C 0.87567 0.22363 0.68653
 N2543 N 0.88141 0.23372 0.66538
 N2544 N 0.90363 0.23429 0.65798
 C2545 C 0.85117 0.22511 0.69507
 C2546 C 0.84412 0.21672 0.71731
 H2547 H 0.95957 0.21719 0.67226
 H2548 H 0.83864 0.23448 0.68403
 H2549 H 0.93700 0.25552 0.64024
 H2550 H 0.85662 0.20720 0.72825
 C2551 C 0.46530 0.76108 0.15059
 C2552 C 0.45639 0.74402 0.16627
 C2553 C 0.43081 0.74399 0.17152
 N2554 N 0.42174 0.73183 0.19039
 N2555 N 0.39880 0.73301 0.19542
 C2556 C 0.38410 0.74627 0.18169
 N2557 N 0.39313 0.75803 0.16268
 N2558 N 0.41595 0.75689 0.15771
 C2559 C 0.35899 0.74929 0.18748
 C2560 C 0.34843 0.73934 0.20758
 H2561 H 0.46777 0.73121 0.17477
 H2562 H 0.34881 0.76096 0.17614
 H2563 H 0.45292 0.77398 0.14372
 H2564 H 0.35855 0.72760 0.21890
 C2565 C 0.47206 0.25632 0.33743
 C2566 C 0.44968 0.26564 0.34164
 C2567 C 0.42888 0.26131 0.32734
 N2568 N 0.40749 0.26641 0.33661
 N2569 N 0.38827 0.26487 0.32362
 C2570 C 0.38968 0.25844 0.30069
 N2571 N 0.41111 0.25332 0.29131
 N2572 N 0.43041 0.25469 0.30442
 C2573 C 0.36836 0.25775 0.28619
 C2574 C 0.34618 0.25785 0.29681
 H2575 H 0.44666 0.27638 0.35694
 H2576 H 0.37008 0.25676 0.26714
 H2577 H 0.47418 0.24228 0.32497
 H2578 H 0.34472 0.25677 0.31593
 C2579 C 0.97292 0.73413 0.83785
 C2580 C 0.94983 0.74004 0.84410
 C2581 C 0.92906 0.73817 0.82913
 N2582 N 0.90773 0.74080 0.83951
 N2583 N 0.88834 0.74139 0.82666
 C2584 C 0.88944 0.73961 0.80280
 N2585 N 0.91083 0.73692 0.79228
 N2586 N 0.93036 0.73623 0.80522
 C2587 C 0.86769 0.74090 0.78881
 C2588 C 0.84587 0.74066 0.80026
 H2589 H 0.94614 0.74607 0.86177
 H2590 H 0.86877 0.74154 0.76967
 H2591 H 0.97621 0.72405 0.82214
 H2592 H 0.84519 0.73861 0.81935
   
