data_POSCAR
  _audit_creation_date              2014-09-24
  _audit_creation_method            'ToBaCCo'
  _symmetry_space_group_name_H-M    'P1'
  _symmetry_Int_Tables_number       1
  _symmetry_cell_setting            triclinic
  loop_
  _symmetry_equiv_pos_as_xyz
 x,y,z
_cell_length_a 42.2622
_cell_length_b 42.5108
_cell_length_c 38.8864
_cell_angle_alpha 89.986500
_cell_angle_beta 90.029900
_cell_angle_gamma 89.988400
loop_
  _atom_site_label
  _atom_site_type_symbol
  _atom_site_fract_x
  _atom_site_fract_y
  _atom_site_fract_z
Zr1 Zr -0.05090 0.01623 0.01402
 O2 O -0.09730 -0.00141 0.00655
 O3 O -0.05952 0.05168 0.05025
 O4 O -0.06943 -0.00696 0.05784
 O5 O -0.05107 0.06504 -0.05789
 O6 O -0.03181 -0.04330 0.07179
 O7 O -0.08095 0.04727 -0.01301
 O8 O -0.01039 0.07042 0.06311
 O9 O -0.01227 0.01118 0.04728
 O10 O -0.01863 0.05125 -0.00012
 O11 O -0.03448 -0.02983 0.00609
 O12 O -0.04108 0.00908 -0.03866
 Zr13 Zr 0.04985 -0.00747 -0.02732
 Zr14 Zr 0.00561 -0.03399 0.03750
 Zr15 Zr -0.00667 0.04285 -0.05126
 Zr16 Zr 0.02057 0.04503 0.03154
 O17 O -0.02143 0.03765 -0.10295
 O18 O 0.03572 0.03835 0.08303
 O19 O 0.03374 0.03902 -0.02005
 O20 O 0.03951 0.00013 0.02490
 O21 O 0.01760 -0.04271 -0.01376
 O22 O 0.01110 -0.00224 -0.06032
 C23 C -0.04062 0.07041 0.06615
 C24 C -0.07715 0.06352 -0.04072
 C25 C -0.05910 -0.03036 0.07578
 O26 O 0.02336 -0.02935 0.08811
 O27 O 0.04814 -0.05980 0.04149
 O28 O 0.07885 -0.04106 -0.00217
 C29 C 0.07420 -0.05879 0.02434
 O30 O -0.07146 -0.04229 -0.05097
 Zr31 Zr -0.02184 -0.03590 -0.04534
 O32 O 0.05829 -0.04361 -0.06261
 O33 O -0.00502 -0.08262 0.03704
 O34 O -0.03187 -0.08352 -0.03321
 O35 O -0.03380 -0.03171 -0.09813
 O36 O 0.00957 -0.06477 -0.07240
 C37 C 0.03975 -0.06431 -0.07583
 O38 O 0.09635 0.00913 -0.01804
 O39 O 0.00080 0.09208 -0.05106
 O40 O 0.06944 0.01704 -0.06966
 O41 O 0.03255 0.05452 -0.08244
 O42 O 0.02697 0.09358 0.02104
 O43 O 0.06951 0.05653 0.03280
 C44 C 0.05974 0.04131 -0.08664
 H45 H -0.02740 0.07276 0.00193
 H46 H 0.05862 -0.00169 0.03949
 H47 H 0.01694 -0.00499 -0.08479
 H48 H -0.05092 -0.04551 0.01193
 H49 H 0.03817 0.05943 0.09357
 H50 H 0.02196 -0.05045 0.09885
 H51 H 0.00100 -0.09104 0.05990
 H52 H -0.03637 -0.09463 -0.05508
 H53 H 0.03170 0.10421 0.04313
 H54 H -0.00539 0.09991 -0.07411
 H55 H -0.01996 0.05875 -0.11366
 H56 H -0.03669 -0.05329 -0.10723
 H57 H 0.07363 0.07132 0.05195
 H58 H 0.11092 -0.00319 -0.03285
 H59 H -0.11180 0.01115 0.02122
 H60 H -0.07557 -0.06010 -0.06675
 Zr61 Zr 0.54962 0.49228 0.47289
 O62 O 0.59608 0.50893 0.48228
 O63 O 0.55819 0.45601 0.43781
 O64 O 0.57854 0.45879 0.49831
 O65 O 0.53250 0.55406 0.41741
 O66 O 0.54774 0.44028 0.54201
 O67 O 0.56935 0.51663 0.43053
 O68 O 0.50951 0.43474 0.42801
 O69 O 0.51735 0.45709 0.48655
 O70 O 0.51096 0.49733 0.43972
 O71 O 0.53912 0.50014 0.52502
 O72 O 0.53345 0.53879 0.47981
 Zr73 Zr 0.44873 0.51613 0.51373
 Zr74 Zr 0.50522 0.46607 0.53771
 Zr75 Zr 0.49313 0.54245 0.44842
 Zr76 Zr 0.47800 0.46372 0.45479
 O77 O 0.50048 0.59170 0.44835
 O78 O 0.46798 0.41615 0.46717
 O79 O 0.45871 0.50872 0.46112
 O80 O 0.46521 0.47005 0.50615
 O81 O 0.48727 0.51128 0.54714
 O82 O 0.48101 0.55110 0.49947
 C83 C 0.53970 0.43523 0.42464
 C84 C 0.55973 0.54085 0.41342
 C85 C 0.57383 0.44118 0.52491
 O86 O 0.49458 0.41744 0.53753
 O87 O 0.46771 0.45695 0.57196
 O88 O 0.43010 0.49318 0.55765
 C89 C 0.44040 0.46990 0.57579
 O90 O 0.56907 0.55660 0.53265
 Zr91 Zr 0.52013 0.54507 0.53131
 O92 O 0.43998 0.55179 0.54967
 O93 O 0.52283 0.47099 0.58835
 O94 O 0.53513 0.53868 0.58289
 O95 O 0.52654 0.59356 0.52051
 O96 O 0.48907 0.57061 0.56259
 C97 C 0.45883 0.57061 0.56551
 O98 O 0.40237 0.49840 0.50626
 O99 O 0.47862 0.53696 0.39669
 O100 O 0.41871 0.54694 0.48634
 O101 O 0.44869 0.56452 0.44145
 O102 O 0.46619 0.46763 0.40194
 O103 O 0.42841 0.45726 0.44904
 C104 C 0.42255 0.56303 0.45852
 H105 H 0.51689 0.49446 0.41529
 H106 H 0.44876 0.45438 0.51204
 H107 H 0.47221 0.57262 0.50134
 H108 H 0.55820 0.49840 0.53968
 H109 H 0.46355 0.40493 0.44535
 H110 H 0.50054 0.40914 0.56047
 H111 H 0.52141 0.44995 0.59923
 H112 H 0.53754 0.55982 0.59330
 H113 H 0.46334 0.44600 0.39296
 H114 H 0.48010 0.55801 0.38586
 H115 H 0.49438 0.59939 0.42522
 H116 H 0.53122 0.60432 0.54255
 H117 H 0.42435 0.43937 0.43335
 H118 H 0.38782 0.51104 0.52079
 H119 H 0.61070 0.49654 0.46758
 H120 H 0.57312 0.57148 0.55173
 Zr121 Zr 0.55077 -0.01559 0.51416
 O122 O 0.59712 0.00202 0.50630
 O123 O 0.55970 -0.05110 0.55027
 O124 O 0.56971 0.00751 0.55783
 O125 O 0.55035 -0.06421 0.44206
 O126 O 0.53221 0.04382 0.57221
 O127 O 0.58057 -0.04659 0.48678
 O128 O 0.51065 -0.06979 0.56352
 O129 O 0.51243 -0.01057 0.54776
 O130 O 0.51837 -0.05056 0.50023
 O131 O 0.53432 0.03049 0.50646
 O132 O 0.54052 -0.00832 0.46157
 Zr133 Zr 0.44969 0.00832 0.47376
 Zr134 Zr 0.49449 0.03463 0.53823
 Zr135 Zr 0.50598 -0.04204 0.44920
 Zr136 Zr 0.47943 -0.04436 0.53224
 O137 O 0.52022 -0.03674 0.39737
 O138 O 0.46469 -0.03779 0.58387
 O139 O 0.46584 -0.03820 0.48079
 O140 O 0.46046 0.00058 0.52587
 O141 O 0.48210 0.04349 0.48710
 O142 O 0.48816 0.00309 0.44041
 C143 C 0.54090 -0.06980 0.56634
 C144 C 0.57658 -0.06273 0.45902
 C145 C 0.55954 0.03088 0.57591
 O146 O 0.47716 0.02988 0.58898
 O147 O 0.45206 0.06053 0.54270
 O148 O 0.42099 0.04198 0.49922
 C149 C 0.42587 0.05966 0.52573
 O150 O 0.57083 0.04306 0.44911
 Zr151 Zr 0.52126 0.03669 0.45516
 O152 O 0.44097 0.04453 0.43858
 O153 O 0.50520 0.08326 0.53778
 O154 O 0.53145 0.08428 0.46727
 O155 O 0.53276 0.03258 0.40226
 O156 O 0.48965 0.06563 0.42844
 C157 C 0.45944 0.06523 0.42524
 O158 O 0.40325 -0.00821 0.48346
 O159 O 0.49853 -0.09128 0.44940
 O160 O 0.42970 -0.01613 0.43160
 O161 O 0.46643 -0.05365 0.41843
 O162 O 0.47293 -0.09288 0.52169
 O163 O 0.43049 -0.05584 0.53389
 C164 C 0.43921 -0.04041 0.41452
 H165 H 0.52714 -0.07208 0.50217
 H166 H 0.44147 0.00241 0.54062
 H167 H 0.48210 0.00590 0.41600
 H168 H 0.55083 0.04616 0.51218
 H169 H 0.46231 -0.05889 0.59438
 H170 H 0.47870 0.05094 0.59978
 H171 H 0.49941 0.09163 0.56072
 H172 H 0.53577 0.09542 0.44537
 H173 H 0.46840 -0.10356 0.54381
 H174 H 0.50449 -0.09906 0.42627
 H175 H 0.51864 -0.05782 0.38664
 H176 H 0.53558 0.05418 0.39316
 H177 H 0.42653 -0.07069 0.55303
 H178 H 0.38857 0.00417 0.46881
 H179 H 0.61174 -0.01057 0.52081
 H180 H 0.57483 0.06086 0.43328
 Zr181 Zr -0.05109 0.50815 -0.02778
 O182 O -0.09755 0.49191 -0.01763
 O183 O -0.05980 0.54386 -0.06353
 O184 O -0.07943 0.54227 -0.00270
 O185 O -0.03658 0.44432 -0.08078
 O186 O -0.04797 0.56116 0.04026
 O187 O -0.07120 0.48410 -0.06998
 O188 O -0.01124 0.56464 -0.07402
 O189 O -0.01834 0.54325 -0.01542
 O190 O -0.01306 0.50190 -0.06144
 O191 O -0.04006 0.50108 0.02435
 O192 O -0.03561 0.46154 -0.01992
 Zr193 Zr 0.04987 0.48386 0.01198
 Zr194 Zr -0.00566 0.53502 0.03576
 Zr195 Zr 0.00412 0.45665 -0.05188
 Zr196 Zr 0.02043 0.53544 -0.04763
 O197 O -0.00320 0.40739 -0.05084
 O198 O 0.03171 0.58301 -0.03662
 O199 O 0.03914 0.49027 -0.04061
 O200 O 0.03385 0.52998 0.00366
 O201 O 0.01192 0.48978 0.04593
 O202 O 0.01702 0.44893 -0.00085
 C203 C -0.04150 0.56457 -0.07723
 C204 C -0.06318 0.45862 -0.08585
 C205 C -0.07431 0.56017 0.02358
 O206 O 0.00546 0.58352 0.03420
 O207 O 0.03240 0.54430 0.06923
 O208 O 0.06937 0.50736 0.05514
 C209 C 0.05959 0.53107 0.07295
 O210 O -0.07055 0.44512 0.03418
 Zr211 Zr -0.02152 0.45606 0.03147
 O212 O 0.05887 0.44871 0.04848
 O213 O -0.02253 0.53131 0.08680
 O214 O -0.03563 0.46359 0.08315
 O215 O -0.02866 0.40749 0.02170
 O216 O 0.00979 0.43078 0.06281
 C217 C 0.04008 0.43045 0.06514
 O218 O 0.09636 0.50089 0.00358
 O219 O 0.01735 0.46096 -0.10413
 O220 O 0.07915 0.45256 -0.01558
 O221 O 0.04825 0.43386 -0.05900
 O222 O 0.03106 0.53076 -0.10069
 O223 O 0.07004 0.54075 -0.05444
 C224 C 0.07492 0.43560 -0.04277
 H225 H -0.01927 0.50444 -0.08584
 H226 H 0.05058 0.54554 0.00894
 H227 H 0.02564 0.42738 0.00138
 H228 H -0.05892 0.50328 0.03923
 H229 H 0.03588 0.59372 -0.05881
 H230 H -0.00010 0.59232 0.05701
 H231 H -0.02073 0.55254 0.09713
 H232 H -0.03804 0.44268 0.09412
 H233 H 0.03407 0.55225 -0.11002
 H234 H 0.01519 0.43975 -0.11439
 H235 H 0.00201 0.39937 -0.07408
 H236 H -0.03289 0.39709 0.04404
 H237 H 0.07421 0.55819 -0.07069
 H238 H 0.11092 0.48828 0.01816
 H239 H -0.11223 0.50416 -0.03241
 H240 H -0.07434 0.43039 0.05347
 Zr241 Zr 0.05114 0.51632 0.48616
 O242 O 0.09761 0.49887 0.49369
 O243 O 0.05961 0.55172 0.44983
 O244 O 0.06981 0.49322 0.44238
 O245 O 0.05110 0.56510 0.55810
 O246 O 0.03227 0.45683 0.42834
 O247 O 0.08105 0.54749 0.51320
 O248 O 0.01040 0.57022 0.43689
 O249 O 0.01254 0.51115 0.45290
 O250 O 0.01874 0.55124 0.50027
 O251 O 0.03490 0.47020 0.49406
 O252 O 0.04134 0.50911 0.53884
 Zr253 Zr -0.04952 0.49221 0.52740
 Zr254 Zr -0.00517 0.46592 0.46264
 Zr255 Zr 0.00679 0.54275 0.55141
 Zr256 Zr -0.02044 0.54488 0.46861
 O257 O 0.02151 0.53761 0.60312
 O258 O -0.03571 0.53820 0.41716
 O259 O -0.03360 0.53877 0.52018
 O260 O -0.03920 0.49990 0.47521
 O261 O -0.01713 0.45709 0.51388
 O262 O -0.01079 0.49759 0.56042
 C263 C 0.04062 0.57027 0.43380
 C264 C 0.07720 0.56369 0.54094
 C265 C 0.05953 0.46984 0.42440
 O266 O -0.02291 0.47053 0.41202
 O267 O -0.04758 0.43996 0.45856
 O268 O -0.07836 0.45852 0.50224
 C269 C -0.07365 0.44085 0.47569
 O270 O 0.07193 0.45779 0.55107
 Zr271 Zr 0.02229 0.46405 0.54548
 O272 O -0.05779 0.45609 0.56275
 O273 O 0.00568 0.41732 0.46307
 O274 O 0.03244 0.41645 0.53335
 O275 O 0.03428 0.46828 0.59825
 O276 O -0.00899 0.43513 0.57264
 C277 C -0.03917 0.43551 0.57608
 O278 O -0.09608 0.50863 0.51810
 O279 O -0.00088 0.59196 0.55118
 O280 O -0.06923 0.51659 0.56971
 O281 O -0.03253 0.55422 0.58254
 O282 O -0.02690 0.59342 0.47907
 O283 O -0.06942 0.55626 0.46748
 C284 C -0.05966 0.54088 0.58669
 H285 H 0.02744 0.57277 0.49819
 H286 H -0.05830 0.49802 0.46062
 H287 H -0.01663 0.49481 0.58489
 H288 H 0.05141 0.45458 0.48822
 H289 H -0.03827 0.55928 0.40664
 H290 H -0.02141 0.44946 0.40125
 H291 H -0.00028 0.40891 0.44020
 H292 H 0.03697 0.40535 0.55522
 H293 H -0.03166 0.60404 0.45697
 H294 H 0.00522 0.59980 0.57425
 H295 H 0.01993 0.55870 0.61382
 H296 H 0.03728 0.44671 0.60736
 H297 H -0.07360 0.57112 0.44839
 H298 H -0.11061 0.49624 0.53290
 H299 H 0.11207 0.51148 0.47902
 H300 H 0.07610 0.43996 0.56683
 Zr301 Zr 0.45048 -0.00767 0.02731
 O302 O 0.40394 0.00875 0.01788
 O303 O 0.44213 -0.04379 0.06265
 O304 O 0.42169 -0.04137 0.00210
 O305 O 0.46735 0.05440 0.08242
 O306 O 0.45253 -0.05994 -0.04152
 O307 O 0.43068 0.01674 0.06955
 O308 O 0.49092 -0.06471 0.07269
 O309 O 0.48290 -0.04280 0.01388
 O310 O 0.48914 -0.00227 0.06042
 O311 O 0.46091 -0.00000 -0.02487
 O312 O 0.46643 0.03889 0.02008
 Zr313 Zr 0.55121 0.01640 -0.01372
 Zr314 Zr 0.49495 -0.03400 -0.03735
 Zr315 Zr 0.50675 0.04288 0.05142
 Zr316 Zr 0.52225 -0.03582 0.04557
 O317 O 0.49911 0.09210 0.05115
 O318 O 0.53239 -0.08343 0.03350
 O319 O 0.54131 0.00923 0.03894
 O320 O 0.53496 -0.02971 -0.00583
 O321 O 0.51269 0.01123 -0.04708
 O322 O 0.51879 0.05133 0.00030
 C323 C 0.46074 -0.06435 0.07606
 C324 C 0.44021 0.04106 0.08652
 C325 C 0.42643 -0.05905 -0.02443
 O326 O 0.50576 -0.08260 -0.03686
 O327 O 0.53249 -0.04315 -0.07152
 O328 O 0.56996 -0.00670 -0.05744
 C329 C 0.55976 -0.03013 -0.07540
 O330 O 0.43071 0.05633 -0.03280
 Zr331 Zr 0.47969 0.04497 -0.03147
 O332 O 0.55979 0.05182 -0.04999
 O333 O 0.47734 -0.02940 -0.08803
 O334 O 0.46463 0.03826 -0.08297
 O335 O 0.47313 0.09350 -0.02101
 O336 O 0.51063 0.07040 -0.06302
 C337 C 0.54086 0.07045 -0.06600
 O338 O 0.59765 -0.00108 -0.00608
 O339 O 0.52133 0.03776 0.10318
 O340 O 0.58108 0.04755 0.01336
 O341 O 0.55108 0.06518 0.05820
 O342 O 0.53416 -0.03155 0.09835
 O343 O 0.57187 -0.04209 0.05126
 C344 C 0.57720 0.06374 0.04109
 H345 H 0.48325 -0.00504 0.08487
 H346 H 0.55148 -0.04534 -0.01162
 H347 H 0.52750 0.07287 -0.00175
 H348 H 0.44183 -0.00188 -0.03951
 H349 H 0.53690 -0.09452 0.05539
 H350 H 0.49986 -0.09102 -0.05975
 H351 H 0.47886 -0.05049 -0.09877
 H352 H 0.46211 0.05934 -0.09352
 H353 H 0.53715 -0.05312 0.10749
 H354 H 0.51975 0.05886 0.11385
 H355 H 0.50519 0.09994 0.07422
 H356 H 0.46842 0.10412 -0.04313
 H357 H 0.57602 -0.05991 0.06703
 H358 H 0.61215 0.01151 -0.02071
 H359 H 0.38938 -0.00363 0.03265
 H360 H 0.42658 0.07113 -0.05195
 Zr361 Zr 0.44880 0.48475 -0.01372
 O362 O 0.40253 0.50267 -0.00612
 O363 O 0.43984 0.44919 -0.04967
 O364 O 0.43016 0.50772 -0.05762
 O365 O 0.44875 0.43629 0.05850
 O366 O 0.46791 0.54375 -0.07205
 O367 O 0.41877 0.45394 0.01359
 O368 O 0.48881 0.43000 -0.06249
 O369 O 0.48730 0.48942 -0.04717
 O370 O 0.48099 0.44967 0.00055
 O371 O 0.46543 0.53078 -0.00623
 O372 O 0.45884 0.49216 0.03888
 Zr373 Zr 0.54978 0.50830 0.02703
 Zr374 Zr 0.50542 0.53457 -0.03781
 Zr375 Zr 0.49319 0.45833 0.05159
 Zr376 Zr 0.52006 0.45552 -0.03133
 O377 O 0.47867 0.46391 0.10329
 O378 O 0.53493 0.46183 -0.08295
 O379 O 0.53347 0.46182 0.02017
 O380 O 0.53922 0.50039 -0.02509
 O381 O 0.51761 0.54357 0.01334
 O382 O 0.51115 0.50341 0.06022
 C383 C 0.45856 0.43021 -0.06544
 C384 C 0.42261 0.43780 0.04138
 C385 C 0.44054 0.53093 -0.07580
 O386 O 0.52299 0.52955 -0.08843
 O387 O 0.54802 0.56024 -0.04212
 O388 O 0.57879 0.54165 0.00160
 C389 C 0.57412 0.55927 -0.02500
 O390 O 0.42869 0.54368 0.05085
 Zr391 Zr 0.47826 0.53710 0.04512
 O392 O 0.55850 0.54466 0.06199
 O393 O 0.49493 0.58324 -0.03771
 O394 O 0.46831 0.58469 0.03271
 O395 O 0.46654 0.53332 0.09799
 O396 O 0.50988 0.56603 0.07179
 C397 C 0.54006 0.56551 0.07511
 O398 O 0.59616 0.49142 0.01767
 O399 O 0.50052 0.40907 0.05174
 O400 O 0.56947 0.48405 0.06948
 O401 O 0.53255 0.44673 0.08268
 O402 O 0.52639 0.40703 -0.02047
 O403 O 0.56895 0.44381 -0.03275
 C404 C 0.55979 0.45991 0.08666
 H405 H 0.47213 0.42819 -0.00130
 H406 H 0.55829 0.50205 -0.03974
 H407 H 0.51711 0.50631 0.08465
 H408 H 0.44903 0.54650 -0.01213
 H409 H 0.53721 0.44067 -0.09335
 H410 H 0.52160 0.55058 -0.09934
 H411 H 0.50088 0.59148 -0.06066
 H412 H 0.46391 0.59592 0.05452
 H413 H 0.53095 0.39622 -0.04250
 H414 H 0.49441 0.40142 0.07488
 H415 H 0.48012 0.44287 0.11415
 H416 H 0.46374 0.55497 0.10692
 H417 H 0.57292 0.42894 -0.05187
 H418 H 0.61086 0.50377 0.03231
 H419 H 0.38789 0.49011 -0.02063
 H420 H 0.42467 0.56156 0.06657
 Zr421 Zr 0.04971 0.00864 0.52729
 O422 O 0.09619 -0.00801 0.51802
 O423 O 0.05823 0.04508 0.56218
 O424 O 0.07858 0.04208 0.50177
 O425 O 0.03269 -0.05296 0.58296
 O426 O 0.04771 0.06046 0.45803
 O427 O 0.06949 -0.01553 0.56976
 O428 O 0.00954 0.06636 0.57180
 O429 O 0.01738 0.04374 0.51351
 O430 O 0.01108 0.00363 0.56046
 O431 O 0.03922 0.00062 0.47518
 O432 O 0.03360 -0.03791 0.52051
 Zr433 Zr -0.05115 -0.01542 0.48649
 Zr434 Zr 0.00525 0.03461 0.46238
 Zr435 Zr -0.00670 -0.04153 0.55188
 Zr436 Zr -0.02195 0.03716 0.54528
 O437 O 0.00079 -0.09076 0.55214
 O438 O -0.03220 0.08466 0.53279
 O439 O -0.04118 -0.00788 0.53908
 O440 O -0.03473 0.03069 0.49394
 O441 O -0.01264 -0.01063 0.45307
 O442 O -0.01881 -0.05033 0.50085
 C443 C 0.03973 0.06594 0.57514
 C444 C 0.05989 -0.03971 0.58693
 C445 C 0.07382 0.05963 0.47513
 O446 O -0.00544 0.08324 0.46242
 O447 O -0.03227 0.04362 0.42812
 O448 O -0.06989 0.00746 0.44256
 C449 C -0.05960 0.03072 0.42439
 O450 O 0.06923 -0.05583 0.46775
 Zr451 Zr 0.02028 -0.04434 0.46902
 O452 O -0.05986 -0.05111 0.45057
 O453 O 0.02284 0.02959 0.41177
 O454 O 0.03524 -0.03806 0.41743
 O455 O 0.02676 -0.09280 0.47996
 O456 O -0.01077 -0.06998 0.43779
 C457 C -0.04101 -0.06996 0.43481
 O458 O -0.09755 0.00223 0.49396
 O459 O -0.02125 -0.03591 0.60357
 O460 O -0.08108 -0.04631 0.51386
 O461 O -0.05105 -0.06373 0.55883
 O462 O -0.03360 0.03340 0.59817
 O463 O -0.07156 0.04349 0.55103
 C464 C -0.07719 -0.06236 0.54170
 H465 H 0.01703 0.00659 0.58488
 H466 H -0.05121 0.04633 0.48801
 H467 H -0.02757 -0.07186 0.49902
 H468 H 0.05828 0.00235 0.46053
 H469 H -0.03666 0.09591 0.55458
 H470 H 0.00047 0.09149 0.43946
 H471 H 0.02138 0.05060 0.40083
 H472 H 0.03768 -0.05922 0.40708
 H473 H -0.03647 0.05505 0.60707
 H474 H -0.01971 -0.05692 0.61447
 H475 H -0.00528 -0.09840 0.57530
 H476 H 0.03143 -0.10360 0.45795
 H477 H -0.07566 0.06132 0.56679
 H478 H -0.11209 -0.01044 0.47945
 H479 H 0.11081 0.00445 0.53266
 H480 H 0.07330 -0.07075 0.44870
 Zr481 Zr 0.76568 0.19976 0.23653
 O482 O 0.74744 0.15382 0.24393
 O483 O 0.80164 0.19079 0.20080
 O484 O 0.74276 0.18141 0.19244
 O485 O 0.81403 0.19934 0.30903
 O486 O 0.70659 0.21901 0.17793
 O487 O 0.79637 0.16971 0.26396
 O488 O 0.82109 0.23943 0.18810
 O489 O 0.76125 0.23810 0.20309
 O490 O 0.80101 0.23160 0.25103
 O491 O 0.71940 0.21643 0.24383
 O492 O 0.75805 0.20970 0.28910
 Zr493 Zr 0.74219 0.30016 0.27728
 Zr494 Zr 0.71585 0.25622 0.21226
 Zr495 Zr 0.79214 0.24368 0.30204
 Zr496 Zr 0.79539 0.27052 0.21917
 O497 O 0.78627 0.22923 0.35372
 O498 O 0.78932 0.28542 0.16753
 O499 O 0.78890 0.28379 0.27065
 O500 O 0.75029 0.28970 0.22519
 O501 O 0.70665 0.26833 0.26337
 O502 O 0.74683 0.26169 0.31046
 C503 C 0.82083 0.20937 0.18514
 C504 C 0.81245 0.17339 0.29187
 C505 C 0.71949 0.19179 0.17417
 O506 O 0.72115 0.27376 0.16169
 O507 O 0.69017 0.29864 0.20792
 O508 O 0.70881 0.32914 0.25173
 C509 C 0.69116 0.32456 0.22506
 O510 O 0.70607 0.17989 0.30085
 Zr511 Zr 0.71288 0.22916 0.29516
 O512 O 0.70555 0.30893 0.31210
 O513 O 0.66686 0.24596 0.21210
 O514 O 0.66503 0.21947 0.28248
 O515 O 0.71643 0.21741 0.34803
 O516 O 0.68377 0.26068 0.32170
 C517 C 0.68444 0.29069 0.32509
 O518 O 0.75934 0.34622 0.26800
 O519 O 0.84173 0.25068 0.30245
 O520 O 0.76651 0.31959 0.31986
 O521 O 0.80388 0.28274 0.33319
 O522 O 0.84414 0.27662 0.23029
 O523 O 0.80729 0.31910 0.21787
 C524 C 0.79070 0.30987 0.33714
 H525 H 0.82260 0.22271 0.24929
 H526 H 0.74872 0.30868 0.21054
 H527 H 0.74385 0.26760 0.33488
 H528 H 0.70357 0.20017 0.23782
 H529 H 0.81065 0.28765 0.15725
 H530 H 0.70003 0.27248 0.15068
 H531 H 0.65867 0.25196 0.18912
 H532 H 0.65361 0.21513 0.30422
 H533 H 0.85511 0.28118 0.20832
 H534 H 0.84930 0.24453 0.32562
 H535 H 0.80741 0.23054 0.36467
 H536 H 0.69460 0.21472 0.35686
 H537 H 0.82237 0.32302 0.19886
 H538 H 0.74692 0.36085 0.28261
 H539 H 0.76008 0.13924 0.22946
 H540 H 0.68797 0.17596 0.31643
 Zr541 Zr 0.73516 0.80116 0.73746
 O542 O 0.75357 0.84703 0.74494
 O543 O 0.69897 0.81034 0.70200
 O544 O 0.75782 0.81961 0.69327
 O545 O 0.68730 0.80150 0.81028
 O546 O 0.79376 0.78194 0.67835
 O547 O 0.70464 0.83117 0.76511
 O548 O 0.67930 0.76176 0.68938
 O549 O 0.73923 0.76291 0.70388
 O550 O 0.69988 0.76937 0.75217
 O551 O 0.78145 0.78435 0.74435
 O552 O 0.74320 0.79108 0.78996
 Zr553 Zr 0.75868 0.70060 0.77779
 Zr554 Zr 0.78465 0.74464 0.71264
 Zr555 Zr 0.70911 0.75716 0.80309
 Zr556 Zr 0.70515 0.73052 0.72016
 O557 O 0.71552 0.77146 0.85473
 O558 O 0.71079 0.71573 0.66845
 O559 O 0.71198 0.71713 0.77156
 O560 O 0.75024 0.71121 0.72578
 O561 O 0.79418 0.73238 0.76363
 O562 O 0.75444 0.73897 0.81114
 C563 C 0.67961 0.79183 0.68645
 C564 C 0.68872 0.82745 0.79310
 C565 C 0.78093 0.80922 0.67480
 O566 O 0.77894 0.72724 0.66207
 O567 O 0.81020 0.70217 0.70805
 O568 O 0.79185 0.67164 0.75198
 C569 C 0.80931 0.67624 0.72519
 O570 O 0.79503 0.82070 0.80165
 Zr571 Zr 0.78837 0.77145 0.79559
 O572 O 0.79551 0.69160 0.81238
 O573 O 0.83366 0.75478 0.71215
 O574 O 0.83602 0.78169 0.78261
 O575 O 0.78549 0.78246 0.84870
 O576 O 0.81817 0.73964 0.82092
 C577 C 0.81720 0.70966 0.82450
 O578 O 0.74136 0.65462 0.76845
 O579 O 0.65950 0.75034 0.80398
 O580 O 0.73451 0.68107 0.82040
 O581 O 0.69737 0.71801 0.83411
 O582 O 0.65646 0.72453 0.73163
 O583 O 0.69309 0.68198 0.71885
 C584 C 0.71042 0.69080 0.83782
 H585 H 0.67829 0.77829 0.75061
 H586 H 0.75165 0.69226 0.71108
 H587 H 0.75761 0.73293 0.83549
 H588 H 0.79727 0.80059 0.73827
 H589 H 0.68937 0.71359 0.65833
 H590 H 0.79998 0.72849 0.65091
 H591 H 0.84167 0.74883 0.68909
 H592 H 0.84758 0.78593 0.80431
 H593 H 0.64532 0.72004 0.70974
 H594 H 0.65216 0.75643 0.82725
 H595 H 0.69449 0.77016 0.86589
 H596 H 0.80744 0.78496 0.85725
 H597 H 0.67788 0.67814 0.69994
 H598 H 0.75384 0.63989 0.78292
 H599 H 0.74088 0.86169 0.73060
 H600 H 0.81293 0.82459 0.81752
 Zr601 Zr 0.26414 0.30218 0.76357
 O602 O 0.24629 0.34822 0.75577
 O603 O 0.29960 0.31105 0.80000
 O604 O 0.24036 0.32066 0.80715
 O605 O 0.31378 0.30215 0.69205
 O606 O 0.20348 0.28335 0.82042
 O607 O 0.29538 0.33204 0.73655
 O608 O 0.31845 0.26230 0.81333
 O609 O 0.25892 0.26390 0.79695
 O610 O 0.29960 0.27014 0.74991
 O611 O 0.21796 0.28565 0.75516
 O612 O 0.25745 0.29210 0.71084
 Zr613 Zr 0.24103 0.20172 0.72250
 Zr614 Zr 0.21362 0.24592 0.78673
 Zr615 Zr 0.29164 0.25793 0.69873
 Zr616 Zr 0.29323 0.23131 0.78172
 O617 O 0.28681 0.27231 0.64690
 O618 O 0.28616 0.21653 0.83324
 O619 O 0.28767 0.21791 0.73015
 O620 O 0.24820 0.21230 0.77472
 O621 O 0.20533 0.23372 0.73546
 O622 O 0.24643 0.24009 0.68933
 C623 C 0.31841 0.29237 0.81614
 C624 C 0.31195 0.32820 0.70901
 C625 C 0.21651 0.31043 0.82461
 O626 O 0.21797 0.22886 0.83761
 O627 O 0.18803 0.20344 0.79093
 O628 O 0.20727 0.17283 0.74755
 C629 C 0.18933 0.17743 0.77397
 O630 O 0.20580 0.32209 0.69776
 Zr631 Zr 0.21234 0.27282 0.70375
 O632 O 0.20496 0.19305 0.68693
 O633 O 0.16461 0.25601 0.78548
 O634 O 0.16429 0.28270 0.71528
 O635 O 0.21698 0.28448 0.65095
 O636 O 0.18365 0.24138 0.67652
 C637 C 0.18422 0.21136 0.67332
 O638 O 0.25790 0.15561 0.73214
 O639 O 0.34119 0.25066 0.69954
 O640 O 0.26595 0.18214 0.68045
 O641 O 0.30373 0.21876 0.66783
 O642 O 0.34216 0.22501 0.77175
 O643 O 0.30494 0.18269 0.78341
 C644 C 0.29044 0.19171 0.66361
 H645 H 0.32119 0.27893 0.75210
 H646 H 0.24637 0.19338 0.78942
 H647 H 0.24386 0.23416 0.66486
 H648 H 0.20206 0.30198 0.76070
 H649 H 0.30729 0.21420 0.84401
 H650 H 0.19663 0.23013 0.84807
 H651 H 0.15595 0.25018 0.80830
 H652 H 0.15330 0.28703 0.69327
 H653 H 0.35270 0.22040 0.79396
 H654 H 0.34923 0.25672 0.67655
 H655 H 0.30813 0.27086 0.63644
 H656 H 0.19534 0.28724 0.64158
 H657 H 0.31965 0.17874 0.80276
 H658 H 0.24566 0.14100 0.71731
 H659 H 0.25878 0.36271 0.77051
 H660 H 0.18799 0.32606 0.68179
 Zr661 Zr 0.23442 0.69904 0.26222
 O662 O 0.25274 0.65314 0.25473
 O663 O 0.19814 0.68983 0.29752
 O664 O 0.25708 0.68043 0.30639
 O665 O 0.18669 0.69902 0.18917
 O666 O 0.29300 0.71804 0.32152
 O667 O 0.20401 0.66912 0.23419
 O668 O 0.17851 0.73840 0.31028
 O669 O 0.23848 0.73720 0.29594
 O670 O 0.19917 0.73092 0.24755
 O671 O 0.28073 0.71585 0.25553
 O672 O 0.24253 0.70930 0.20980
 Zr673 Zr 0.25809 0.79975 0.22240
 Zr674 Zr 0.28393 0.75547 0.28740
 Zr675 Zr 0.20849 0.74332 0.19672
 Zr676 Zr 0.20444 0.76967 0.27971
 O677 O 0.21490 0.72920 0.14502
 O678 O 0.21000 0.78427 0.33151
 O679 O 0.21136 0.78324 0.22840
 O680 O 0.24954 0.78896 0.27432
 O681 O 0.29357 0.76789 0.23647
 O682 O 0.25383 0.76147 0.18890
 C683 C 0.17878 0.70833 0.31307
 C684 C 0.18814 0.67297 0.20615
 C685 C 0.28019 0.69075 0.32494
 O686 O 0.27811 0.77262 0.33806
 O687 O 0.30943 0.79795 0.29238
 O688 O 0.29114 0.82864 0.24854
 C689 C 0.30853 0.82398 0.27540
 O690 O 0.29465 0.67967 0.19840
 Zr691 Zr 0.28771 0.72889 0.20436
 O692 O 0.29503 0.80877 0.18804
 O693 O 0.33295 0.74535 0.28797
 O694 O 0.33545 0.71913 0.21748
 O695 O 0.28467 0.71753 0.15136
 O696 O 0.31705 0.76063 0.17843
 C697 C 0.31633 0.79065 0.17523
 O698 O 0.24078 0.84573 0.23176
 O699 O 0.15889 0.75023 0.19580
 O700 O 0.23407 0.81941 0.17973
 O701 O 0.19690 0.78256 0.16577
 O702 O 0.15578 0.77577 0.26811
 O703 O 0.19242 0.81823 0.28116
 C704 C 0.21002 0.80975 0.16217
 H705 H 0.17758 0.72200 0.24899
 H706 H 0.25092 0.80786 0.28912
 H707 H 0.25702 0.76754 0.16457
 H708 H 0.29655 0.69959 0.26157
 H709 H 0.18857 0.78644 0.34156
 H710 H 0.29913 0.77133 0.34928
 H711 H 0.34091 0.75119 0.31108
 H712 H 0.34706 0.71493 0.19582
 H713 H 0.14461 0.78023 0.28998
 H714 H 0.15155 0.74425 0.17249
 H715 H 0.19388 0.73059 0.13382
 H716 H 0.30658 0.71494 0.14275
 H717 H 0.17721 0.82204 0.30006
 H718 H 0.25332 0.86047 0.21738
 H719 H 0.23997 0.63848 0.26896
 H720 H 0.31283 0.67586 0.18290
 Zr721 Zr 0.24213 0.80024 0.77732
 O722 O 0.25929 0.84629 0.76803
 O723 O 0.20554 0.80902 0.81220
 O724 O 0.20874 0.82924 0.75185
 O725 O 0.30391 0.78282 0.83311
 O726 O 0.19001 0.79876 0.70806
 O727 O 0.26651 0.81966 0.81986
 O728 O 0.18373 0.76079 0.82180
 O729 O 0.20655 0.76842 0.76348
 O730 O 0.24682 0.76177 0.81049
 O731 O 0.25012 0.78979 0.72521
 O732 O 0.28883 0.78388 0.77059
 Zr733 Zr 0.26554 0.69986 0.73650
 Zr734 Zr 0.21565 0.75632 0.71235
 Zr735 Zr 0.29212 0.74377 0.80196
 Zr736 Zr 0.21284 0.72924 0.79525
 O737 O 0.34171 0.75078 0.80227
 O738 O 0.16498 0.71951 0.78267
 O739 O 0.25800 0.70978 0.78909
 O740 O 0.21927 0.71652 0.74390
 O741 O 0.26104 0.73820 0.70309
 O742 O 0.30090 0.73170 0.75093
 C743 C 0.18442 0.79079 0.82517
 C744 C 0.29073 0.80994 0.83710
 C745 C 0.19106 0.82469 0.72520
 O746 O 0.16666 0.74607 0.71230
 O747 O 0.20634 0.71910 0.67802
 O748 O 0.24255 0.68151 0.69245
 C749 C 0.21925 0.69189 0.67422
 O750 O 0.30713 0.81920 0.71785
 Zr751 Zr 0.29521 0.77063 0.71909
 O752 O 0.30140 0.69091 0.70066
 O753 O 0.22085 0.77384 0.66176
 O754 O 0.28905 0.78561 0.66750
 O755 O 0.34400 0.77665 0.73006
 O756 O 0.32077 0.73957 0.68788
 C757 C 0.32052 0.70951 0.68490
 O758 O 0.24733 0.65391 0.74396
 O759 O 0.28635 0.72929 0.85364
 O760 O 0.29632 0.66982 0.76384
 O761 O 0.31404 0.69944 0.80888
 O762 O 0.21646 0.71754 0.84813
 O763 O 0.20607 0.67998 0.80097
 C764 C 0.31246 0.67350 0.79171
 H765 H 0.24388 0.76768 0.83491
 H766 H 0.20343 0.70026 0.73793
 H767 H 0.32248 0.72281 0.74912
 H768 H 0.24854 0.80877 0.71057
 H769 H 0.15360 0.71517 0.80444
 H770 H 0.15844 0.75207 0.68934
 H771 H 0.19971 0.77258 0.65080
 H772 H 0.31036 0.78786 0.65718
 H773 H 0.19464 0.71485 0.85699
 H774 H 0.30750 0.73061 0.86455
 H775 H 0.34933 0.74464 0.82542
 H776 H 0.35490 0.78124 0.70807
 H777 H 0.18802 0.67604 0.81661
 H778 H 0.25993 0.63934 0.72945
 H779 H 0.24690 0.86094 0.78266
 H780 H 0.32219 0.82314 0.69884
 Zr781 Zr 0.25752 0.20069 0.27659
 O782 O 0.24030 0.15469 0.26712
 O783 O 0.29415 0.19175 0.31142
 O784 O 0.29089 0.17179 0.25101
 O785 O 0.19591 0.21797 0.33258
 O786 O 0.30948 0.20237 0.20726
 O787 O 0.23324 0.18114 0.31911
 O788 O 0.31600 0.23995 0.32113
 O789 O 0.29307 0.23253 0.26278
 O790 O 0.25293 0.23905 0.30989
 O791 O 0.24939 0.21130 0.22453
 O792 O 0.21081 0.21710 0.27000
 Zr793 Zr 0.23404 0.30121 0.23613
 Zr794 Zr 0.28383 0.24480 0.21170
 Zr795 Zr 0.20762 0.25711 0.30152
 Zr796 Zr 0.28690 0.27161 0.29468
 O797 O 0.15803 0.25011 0.30191
 O798 O 0.33474 0.28129 0.28202
 O799 O 0.24173 0.29112 0.28868
 O800 O 0.28032 0.28450 0.24340
 O801 O 0.23843 0.26298 0.20258
 O802 O 0.19871 0.26935 0.25055
 C803 C 0.31529 0.20994 0.32446
 C804 C 0.20909 0.19083 0.33644
 C805 C 0.30851 0.17641 0.22435
 O806 O 0.33283 0.25504 0.21156
 O807 O 0.29309 0.28213 0.17750
 O808 O 0.25695 0.31970 0.19212
 C809 C 0.28021 0.30937 0.17383
 O810 O 0.19237 0.18196 0.21708
 Zr811 Zr 0.20429 0.23053 0.21856
 O812 O 0.19805 0.31034 0.20043
 O813 O 0.27848 0.22742 0.16107
 O814 O 0.21032 0.21582 0.16687
 O815 O 0.15555 0.22438 0.22965
 O816 O 0.17855 0.26173 0.18763
 C817 C 0.17881 0.29181 0.18475
 O818 O 0.25231 0.34712 0.24372
 O819 O 0.21354 0.27143 0.35323
 O820 O 0.20337 0.33118 0.26365
 O821 O 0.18575 0.30144 0.30863
 O822 O 0.28341 0.28320 0.34760
 O823 O 0.29377 0.32084 0.30054
 C824 C 0.18731 0.32743 0.29154
 H825 H 0.25593 0.23308 0.33429
 H826 H 0.29616 0.30076 0.23745
 H827 H 0.17712 0.27825 0.24883
 H828 H 0.25094 0.19237 0.20982
 H829 H 0.34619 0.28552 0.30378
 H830 H 0.34099 0.24909 0.18857
 H831 H 0.29959 0.22872 0.15008
 H832 H 0.18897 0.21364 0.15657
 H833 H 0.30525 0.28582 0.35643
 H834 H 0.19243 0.27009 0.36418
 H835 H 0.15048 0.25620 0.32510
 H836 H 0.14457 0.21988 0.20767
 H837 H 0.31189 0.32470 0.31613
 H838 H 0.23968 0.36175 0.22929
 H839 H 0.25271 0.13998 0.28167
 H840 H 0.17731 0.17810 0.19803
 Zr841 Zr 0.74200 0.70076 0.22291
 O842 O 0.75902 0.65467 0.23232
 O843 O 0.70553 0.69204 0.18784
 O844 O 0.70850 0.67187 0.24837
 O845 O 0.80396 0.71798 0.16729
 O846 O 0.68975 0.70246 0.29203
 O847 O 0.76646 0.68123 0.18049
 O848 O 0.68393 0.74032 0.17794
 O849 O 0.70645 0.73270 0.23651
 O850 O 0.74689 0.73917 0.18969
 O851 O 0.74987 0.71129 0.27503
 O852 O 0.78872 0.71702 0.22980
 Zr853 Zr 0.76553 0.80118 0.26362
 Zr854 Zr 0.71544 0.74487 0.28766
 Zr855 Zr 0.79220 0.75708 0.19837
 Zr856 Zr 0.71293 0.77181 0.20470
 O857 O 0.84177 0.74989 0.19834
 O858 O 0.66504 0.78159 0.21705
 O859 O 0.75811 0.79117 0.21102
 O860 O 0.71924 0.78461 0.25604
 O861 O 0.76084 0.76290 0.29708
 O862 O 0.80086 0.76922 0.24942
 C863 C 0.68456 0.71031 0.17463
 C864 C 0.79072 0.69089 0.16329
 C865 C 0.69080 0.67649 0.27498
 O866 O 0.66645 0.75517 0.28742
 O867 O 0.70604 0.78220 0.32182
 O868 O 0.74237 0.81968 0.30749
 C869 C 0.71897 0.80939 0.32562
 O870 O 0.80679 0.68175 0.28267
 Zr871 Zr 0.79498 0.73035 0.28130
 O872 O 0.80132 0.81007 0.29962
 O873 O 0.72049 0.72750 0.33834
 O874 O 0.78864 0.71546 0.33289
 O875 O 0.84379 0.72418 0.27056
 O876 O 0.82053 0.76137 0.31257
 C877 C 0.82035 0.79144 0.31548
 O878 O 0.74750 0.84719 0.25601
 O879 O 0.78661 0.77150 0.14664
 O880 O 0.79646 0.83109 0.23630
 O881 O 0.81425 0.80133 0.19142
 O882 O 0.71677 0.78351 0.15184
 O883 O 0.70622 0.82108 0.19889
 C884 C 0.81268 0.82732 0.20851
 H885 H 0.74400 0.73325 0.16527
 H886 H 0.70342 0.80091 0.26189
 H887 H 0.82246 0.77805 0.25131
 H888 H 0.74822 0.69234 0.28971
 H889 H 0.65372 0.78591 0.19522
 H890 H 0.65815 0.74926 0.31036
 H891 H 0.69932 0.72882 0.34920
 H892 H 0.80992 0.71316 0.34331
 H893 H 0.69499 0.78625 0.14286
 H894 H 0.80779 0.77011 0.13583
 H895 H 0.84948 0.75598 0.17521
 H896 H 0.85462 0.71958 0.29261
 H897 H 0.68818 0.82503 0.18322
 H898 H 0.76012 0.86173 0.27056
 H899 H 0.74663 0.64005 0.21766
 H900 H 0.82178 0.67779 0.30177
 Zr901 Zr 0.75816 0.30021 0.72304
 O902 O 0.74082 0.34626 0.73199
 O903 O 0.79505 0.30912 0.68856
 O904 O 0.79086 0.32940 0.74927
 O905 O 0.69659 0.28281 0.66696
 O906 O 0.81028 0.29860 0.79250
 O907 O 0.73391 0.31966 0.68041
 O908 O 0.81683 0.26092 0.67872
 O909 O 0.79379 0.26843 0.73692
 O910 O 0.75369 0.26182 0.68974
 O911 O 0.75001 0.28956 0.77509
 O912 O 0.71148 0.28372 0.72952
 Zr913 Zr 0.73483 0.19967 0.76348
 Zr914 Zr 0.78457 0.25616 0.78798
 Zr915 Zr 0.70840 0.24369 0.69801
 Zr916 Zr 0.78768 0.22930 0.70505
 O917 O 0.65880 0.25061 0.69748
 O918 O 0.83551 0.21957 0.71779
 O919 O 0.74255 0.20973 0.71094
 O920 O 0.78110 0.21642 0.75633
 O921 O 0.73917 0.23793 0.79700
 O922 O 0.69946 0.23147 0.74897
 C923 C 0.81620 0.29094 0.67555
 C924 C 0.70974 0.30996 0.66309
 C925 C 0.80862 0.32475 0.77584
 O926 O 0.83356 0.24587 0.78812
 O927 O 0.79374 0.21887 0.82227
 O928 O 0.75764 0.18127 0.80762
 C929 C 0.78084 0.19165 0.82598
 O930 O 0.69297 0.31887 0.78228
 Zr931 Zr 0.70496 0.27031 0.78095
 O932 O 0.69879 0.19053 0.79907
 O933 O 0.77922 0.27362 0.83858
 O934 O 0.71088 0.28507 0.83264
 O935 O 0.65620 0.27637 0.76979
 O936 O 0.67926 0.23913 0.81187
 C937 C 0.67953 0.20906 0.81473
 O938 O 0.75321 0.15378 0.75600
 O939 O 0.71444 0.22938 0.64632
 O940 O 0.70423 0.16963 0.73590
 O941 O 0.68657 0.19935 0.69088
 O942 O 0.78428 0.21775 0.65211
 O943 O 0.79455 0.18005 0.69921
 C944 C 0.68815 0.17337 0.70799
 H945 H 0.75673 0.26781 0.66536
 H946 H 0.79695 0.20017 0.76233
 H947 H 0.67788 0.22256 0.75064
 H948 H 0.75143 0.30847 0.78985
 H949 H 0.84697 0.21529 0.69606
 H950 H 0.84172 0.25176 0.81114
 H951 H 0.80031 0.27224 0.84963
 H952 H 0.68952 0.28729 0.84286
 H953 H 0.80613 0.21509 0.64335
 H954 H 0.69334 0.23068 0.63531
 H955 H 0.65129 0.24451 0.67427
 H956 H 0.64522 0.28093 0.79175
 H957 H 0.81265 0.17617 0.68362
 H958 H 0.74057 0.13914 0.77039
 H959 H 0.75336 0.36092 0.71752
 H960 H 0.67792 0.32277 0.80131
 C961 C 0.12382 0.38303 0.90354
 C962 C 0.15315 0.38839 0.91766
 C963 C 0.15759 0.40807 0.94575
 C964 C 0.13087 0.42311 0.95965
 C965 C 0.10012 0.41915 0.94487
 C966 C 0.09694 0.39834 0.91632
 O967 O 0.12461 0.36303 0.87730
 C968 C 0.15512 0.35583 0.87464
 C969 C 0.17372 0.37100 0.89844
 C970 C 0.20657 0.36782 0.89913
 C971 C 0.22074 0.34814 0.87437
 C972 C 0.20191 0.33157 0.85027
 C973 C 0.16861 0.33549 0.85055
 H974 H 0.18086 0.41174 0.95666
 H975 H 0.13460 0.43854 0.98144
 H976 H 0.07427 0.39409 0.90416
 H977 H 0.22081 0.38031 0.91781
 H978 H 0.24623 0.34542 0.87426
 H979 H 0.15373 0.32349 0.83205
 C980 C 0.37150 0.62014 0.40791
 C981 C 0.34174 0.60930 0.41600
 C982 C 0.33682 0.58447 0.43868
 C983 C 0.36359 0.57010 0.45336
 C984 C 0.39465 0.58026 0.44478
 C985 C 0.39849 0.60586 0.42177
 O986 O 0.37108 0.64380 0.38561
 C987 C 0.34044 0.64785 0.37930
 C988 C 0.32143 0.62718 0.39698
 C989 C 0.28869 0.62630 0.39261
 C990 C 0.27508 0.64747 0.36898
 C991 C 0.29417 0.66935 0.35088
 C992 C 0.32733 0.66958 0.35643
 H993 H 0.31321 0.57626 0.44466
 H994 H 0.36008 0.55045 0.47067
 H995 H 0.42177 0.61422 0.41460
 H996 H 0.27422 0.60952 0.40641
 H997 H 0.24974 0.64688 0.36480
 H998 H 0.34262 0.68549 0.34240
 C999 C 0.87203 0.88021 0.59209
 C1000 C 0.84222 0.89084 0.58384
 C1001 C 0.83719 0.91564 0.56114
 C1002 C 0.86389 0.93020 0.54660
 C1003 C 0.89500 0.92025 0.55534
 C1004 C 0.89895 0.89468 0.57837
 O1005 O 0.87170 0.85655 0.61440
 C1006 C 0.84107 0.85229 0.62055
 C1007 C 0.82198 0.87282 0.60275
 C1008 C 0.78922 0.87350 0.60695
 C1009 C 0.77568 0.85228 0.63055
 C1010 C 0.79486 0.83056 0.64879
 C1011 C 0.82803 0.83050 0.64340
 H1012 H 0.81354 0.92368 0.55503
 H1013 H 0.86030 0.94981 0.52927
 H1014 H 0.92227 0.88648 0.58566
 H1015 H 0.77468 0.89018 0.59307
 H1016 H 0.75033 0.85274 0.63462
 H1017 H 0.84338 0.81472 0.65754
 C1018 C 0.62812 0.12110 0.09145
 C1019 C 0.65791 0.11053 0.08306
 C1020 C 0.66287 0.08582 0.06024
 C1021 C 0.63612 0.07129 0.04575
 C1022 C 0.60504 0.08117 0.05464
 C1023 C 0.60115 0.10666 0.07777
 O1024 O 0.62851 0.14466 0.11388
 C1025 C 0.65916 0.14891 0.11995
 C1026 C 0.67820 0.12847 0.10199
 C1027 C 0.71097 0.12779 0.10608
 C1028 C 0.72459 0.14890 0.12974
 C1029 C 0.70546 0.17054 0.14815
 C1030 C 0.67228 0.17059 0.14286
 H1031 H 0.68650 0.07782 0.05403
 H1032 H 0.63968 0.05173 0.02834
 H1033 H 0.57786 0.11480 0.08519
 H1034 H 0.72547 0.11117 0.09207
 H1035 H 0.74996 0.14844 0.13372
 H1036 H 0.65697 0.18631 0.15713
 C1037 C 0.89738 0.09103 0.37057
 C1038 C 0.87652 0.07230 0.35275
 C1039 C 0.87555 0.03973 0.35683
 C1040 C 0.89683 0.02598 0.38032
 C1041 C 0.91890 0.04480 0.39857
 C1042 C 0.91921 0.07779 0.39330
 O1043 O 0.89340 0.12154 0.36451
 C1044 C 0.86959 0.12217 0.34223
 C1045 C 0.85857 0.09267 0.33392
 C1046 C 0.83358 0.08799 0.31122
 C1047 C 0.81922 0.11474 0.29674
 C1048 C 0.82958 0.14553 0.30554
 C1049 C 0.85533 0.14913 0.32858
 H1050 H 0.85861 0.02548 0.34293
 H1051 H 0.89618 0.00077 0.38429
 H1052 H 0.93526 0.09287 0.40744
 H1053 H 0.82524 0.06459 0.30506
 H1054 H 0.79946 0.11143 0.27939
 H1055 H 0.86384 0.17220 0.33590
 C1056 C 0.39734 0.40990 0.63007
 C1057 C 0.37664 0.42878 0.64789
 C1058 C 0.37580 0.46134 0.64366
 C1059 C 0.39704 0.47491 0.62002
 C1060 C 0.41895 0.45593 0.60175
 C1061 C 0.41914 0.42295 0.60717
 O1062 O 0.39323 0.37943 0.63627
 C1063 C 0.36949 0.37899 0.65864
 C1064 C 0.35866 0.40858 0.66687
 C1065 C 0.33374 0.41345 0.68961
 C1066 C 0.31924 0.38683 0.70418
 C1067 C 0.32937 0.35594 0.69545
 C1068 C 0.35509 0.35215 0.67241
 H1069 H 0.35899 0.47573 0.65756
 H1070 H 0.39648 0.50011 0.61595
 H1071 H 0.43507 0.40776 0.59303
 H1072 H 0.32554 0.43692 0.69569
 H1073 H 0.29950 0.39032 0.72151
 H1074 H 0.36344 0.32902 0.66511
 C1075 C 0.60322 0.90956 0.87127
 C1076 C 0.62398 0.92834 0.85340
 C1077 C 0.62469 0.96094 0.85724
 C1078 C 0.60326 0.97466 0.88056
 C1079 C 0.58131 0.95578 0.89888
 C1080 C 0.58124 0.92276 0.89384
 O1081 O 0.60743 0.87905 0.86543
 C1082 C 0.63130 0.87848 0.84325
 C1083 C 0.64212 0.90801 0.83479
 C1084 C 0.66712 0.91277 0.81214
 C1085 C 0.68167 0.88607 0.79784
 C1086 C 0.67151 0.85524 0.80676
 C1087 C 0.64577 0.85156 0.82977
 H1088 H 0.64154 0.97523 0.84330
 H1089 H 0.60373 0.99989 0.88435
 H1090 H 0.56528 0.90765 0.90805
 H1091 H 0.67529 0.93621 0.80586
 H1092 H 0.70142 0.88945 0.78050
 H1093 H 0.63739 0.82846 0.83717
 C1094 C 0.10334 0.59122 0.12644
 C1095 C 0.12410 0.57236 0.14422
 C1096 C 0.12487 0.53978 0.14011
 C1097 C 0.10346 0.52618 0.11666
 C1098 C 0.08146 0.54513 0.09846
 C1099 C 0.08139 0.57813 0.10371
 O1100 O 0.10741 0.62170 0.13264
 C1101 C 0.13119 0.62215 0.15499
 C1102 C 0.14208 0.59258 0.16319
 C1103 C 0.16695 0.58771 0.18603
 C1104 C 0.18130 0.61434 0.20077
 C1105 C 0.17106 0.64521 0.19212
 C1106 C 0.14545 0.64900 0.16891
 H1107 H 0.14170 0.52541 0.15402
 H1108 H 0.10392 0.50095 0.11276
 H1109 H 0.06536 0.59331 0.08967
 H1110 H 0.17518 0.56425 0.19212
 H1111 H 0.20095 0.61087 0.21825
 H1112 H 0.13701 0.67214 0.16171
 C1113 C 0.39994 0.88445 0.11727
 C1114 C 0.41688 0.85704 0.12114
 C1115 C 0.44886 0.85464 0.11360
 C1116 C 0.46377 0.88145 0.10048
 C1117 C 0.44635 0.90962 0.09501
 C1118 C 0.41415 0.91124 0.10429
 O1119 O 0.36981 0.88176 0.12591
 C1120 C 0.36766 0.85195 0.13526
 C1121 C 0.39571 0.83573 0.13258
 C1122 C 0.39867 0.80408 0.14069
 C1123 C 0.37169 0.78877 0.15308
 C1124 C 0.34279 0.80545 0.15725
 C1125 C 0.34069 0.83733 0.14753
 H1126 H 0.46167 0.83281 0.11700
 H1127 H 0.48845 0.87979 0.09327
 H1128 H 0.40022 0.93234 0.10041
 H1129 H 0.42099 0.79182 0.13816
 H1130 H 0.37371 0.76435 0.16067
 H1131 H 0.31902 0.85068 0.15037
 C1132 C 0.60075 0.38406 0.38376
 C1133 C 0.58402 0.35649 0.38032
 C1134 C 0.55210 0.35392 0.38811
 C1135 C 0.53704 0.38074 0.40100
 C1136 C 0.55424 0.40910 0.40600
 C1137 C 0.58639 0.41087 0.39652
 O1138 O 0.63082 0.38156 0.37481
 C1139 C 0.63314 0.35170 0.36569
 C1140 C 0.60526 0.33527 0.36883
 C1141 C 0.60247 0.30358 0.36091
 C1142 C 0.62942 0.28844 0.34819
 C1143 C 0.65812 0.30532 0.34350
 C1144 C 0.66008 0.33725 0.35309
 H1145 H 0.53944 0.33197 0.38502
 H1146 H 0.51241 0.37895 0.40837
 H1147 H 0.60015 0.43212 0.40003
 H1148 H 0.58028 0.29116 0.36378
 H1149 H 0.62749 0.26398 0.34072
 H1150 H 0.68160 0.35077 0.34984
 C1151 C 0.89845 0.61595 0.88633
 C1152 C 0.91699 0.64083 0.87627
 C1153 C 0.94971 0.64055 0.87847
 C1154 C 0.96390 0.61382 0.89272
 C1155 C 0.94512 0.58828 0.90514
 C1156 C 0.91181 0.58938 0.90083
 O1157 O 0.86786 0.62060 0.88125
 C1158 C 0.86708 0.64917 0.86788
 C1159 C 0.89649 0.66273 0.86463
 C1160 C 0.90110 0.69268 0.85137
 C1161 C 0.87428 0.70895 0.84004
 C1162 C 0.84390 0.69476 0.84183
 C1163 C 0.84023 0.66470 0.85655
 H1164 H 0.96379 0.66031 0.86987
 H1165 H 0.98944 0.61379 0.89515
 H1166 H 0.89637 0.57055 0.90929
 H1167 H 0.92449 0.70286 0.84920
 H1168 H 0.87737 0.73190 0.82842
 H1169 H 0.81734 0.65332 0.85812
 C1170 C 0.10085 0.11766 0.61500
 C1171 C 0.08418 0.14533 0.61782
 C1172 C 0.05224 0.14782 0.61003
 C1173 C 0.03712 0.12079 0.59774
 C1174 C 0.05428 0.09231 0.59335
 C1175 C 0.08643 0.09065 0.60285
 O1176 O 0.13090 0.12024 0.62400
 C1177 C 0.13327 0.15024 0.63253
 C1178 C 0.10544 0.16669 0.62894
 C1179 C 0.10268 0.19848 0.63640
 C1180 C 0.12957 0.21369 0.64919
 C1181 C 0.15817 0.19676 0.65443
 C1182 C 0.16015 0.16475 0.64517
 H1183 H 0.03962 0.16984 0.61266
 H1184 H 0.01248 0.12249 0.59033
 H1185 H 0.10016 0.06931 0.59982
 H1186 H 0.08052 0.21092 0.63321
 H1187 H 0.12763 0.23821 0.65640
 H1188 H 0.18159 0.15119 0.64888
 C1189 C 0.10250 0.40958 0.37052
 C1190 C 0.12323 0.42835 0.35260
 C1191 C 0.12412 0.46093 0.35662
 C1192 C 0.10289 0.47464 0.38017
 C1193 C 0.08097 0.45577 0.39854
 C1194 C 0.08073 0.42277 0.39332
 O1195 O 0.10653 0.37908 0.36447
 C1196 C 0.13025 0.37850 0.34210
 C1197 C 0.14115 0.40803 0.33372
 C1198 C 0.16603 0.41277 0.31091
 C1199 C 0.18040 0.38606 0.29640
 C1200 C 0.17017 0.35524 0.30526
 C1201 C 0.14453 0.35158 0.32841
 H1202 H 0.14095 0.47522 0.34263
 H1203 H 0.10349 0.49985 0.38409
 H1204 H 0.06478 0.40766 0.40754
 H1205 H 0.17428 0.43619 0.30470
 H1206 H 0.20008 0.38943 0.27897
 H1207 H 0.13610 0.32849 0.33578
 C1208 C 0.39754 0.59123 0.87033
 C1209 C 0.37673 0.57249 0.85247
 C1210 C 0.37581 0.53991 0.85652
 C1211 C 0.39708 0.52618 0.88004
 C1212 C 0.41909 0.54502 0.89834
 C1213 C 0.41937 0.57801 0.89309
 O1214 O 0.39352 0.62174 0.86430
 C1215 C 0.36972 0.62235 0.84200
 C1216 C 0.35877 0.59283 0.83365
 C1217 C 0.33379 0.58813 0.81093
 C1218 C 0.31938 0.61486 0.79648
 C1219 C 0.32966 0.64566 0.80532
 C1220 C 0.35540 0.64929 0.82837
 H1221 H 0.35891 0.52565 0.84259
 H1222 H 0.39645 0.50097 0.88399
 H1223 H 0.43538 0.59310 0.90727
 H1224 H 0.32550 0.56471 0.80474
 H1225 H 0.29962 0.61152 0.77912
 H1226 H 0.36386 0.67237 0.83573
 C1227 C 0.60293 0.09119 0.62941
 C1228 C 0.62378 0.07243 0.64719
 C1229 C 0.62464 0.03985 0.64318
 C1230 C 0.60324 0.02613 0.61981
 C1231 C 0.58117 0.04498 0.60159
 C1232 C 0.58098 0.07799 0.60677
 O1233 O 0.60700 0.12170 0.63541
 C1234 C 0.63087 0.12228 0.65763
 C1235 C 0.64183 0.09275 0.66594
 C1236 C 0.66685 0.08802 0.68861
 C1237 C 0.68128 0.11473 0.70306
 C1238 C 0.67098 0.14555 0.69427
 C1239 C 0.64522 0.14921 0.67125
 H1240 H 0.64156 0.02556 0.65707
 H1241 H 0.60380 0.00091 0.61591
 H1242 H 0.56492 0.09309 0.59267
 H1243 H 0.67514 0.06459 0.69477
 H1244 H 0.70106 0.11136 0.72039
 H1245 H 0.63673 0.17230 0.66395
 C1246 C 0.89782 0.90933 0.12962
 C1247 C 0.87720 0.92814 0.14765
 C1248 C 0.87643 0.96073 0.14371
 C1249 C 0.89766 0.97442 0.12015
 C1250 C 0.91949 0.95553 0.10167
 C1251 C 0.91961 0.92251 0.10680
 O1252 O 0.89367 0.87883 0.13559
 C1253 C 0.86997 0.87829 0.15802
 C1254 C 0.85922 0.90784 0.16651
 C1255 C 0.83439 0.91263 0.18938
 C1256 C 0.81991 0.88595 0.20384
 C1257 C 0.82998 0.85510 0.19488
 C1258 C 0.85559 0.85139 0.17167
 H1259 H 0.85968 0.97505 0.15778
 H1260 H 0.89714 0.99965 0.11631
 H1261 H 0.93548 0.90739 0.09249
 H1262 H 0.82626 0.93607 0.19567
 H1263 H 0.80027 0.88937 0.22130
 H1264 H 0.86389 0.82828 0.16421
 C1265 C 0.87196 0.12098 0.90904
 C1266 C 0.84217 0.11034 0.91729
 C1267 C 0.83717 0.08556 0.94002
 C1268 C 0.86391 0.07101 0.95456
 C1269 C 0.89500 0.08096 0.94579
 C1270 C 0.89890 0.10653 0.92276
 O1271 O 0.87161 0.14458 0.88666
 C1272 C 0.84098 0.14879 0.88046
 C1273 C 0.82191 0.12830 0.89830
 C1274 C 0.78916 0.12757 0.89404
 C1275 C 0.77560 0.14870 0.87034
 C1276 C 0.79477 0.17039 0.85205
 C1277 C 0.82793 0.17049 0.85752
 H1278 H 0.81354 0.07751 0.94612
 H1279 H 0.86035 0.05139 0.97188
 H1280 H 0.92220 0.11472 0.91544
 H1281 H 0.77463 0.11091 0.90795
 H1282 H 0.75026 0.14820 0.86622
 H1283 H 0.84328 0.18624 0.84334
 C1284 C 0.12801 0.62112 0.59135
 C1285 C 0.15782 0.61062 0.58293
 C1286 C 0.16284 0.58596 0.56007
 C1287 C 0.13612 0.57138 0.54555
 C1288 C 0.10501 0.58118 0.55447
 C1289 C 0.10108 0.60663 0.57764
 O1290 O 0.12835 0.64464 0.61383
 C1291 C 0.15900 0.64895 0.61991
 C1292 C 0.17808 0.62859 0.60190
 C1293 C 0.21085 0.62797 0.60600
 C1294 C 0.22442 0.64907 0.62970
 C1295 C 0.20525 0.67064 0.64816
 C1296 C 0.17206 0.67063 0.64287
 H1297 H 0.18649 0.57803 0.55384
 H1298 H 0.13971 0.55186 0.52811
 H1299 H 0.07777 0.61471 0.58509
 H1300 H 0.22539 0.61141 0.59195
 H1301 H 0.24979 0.64866 0.63368
 H1302 H 0.15672 0.68629 0.65716
 C1303 C 0.62749 0.88014 0.40824
 C1304 C 0.65728 0.89074 0.41662
 C1305 C 0.66225 0.91539 0.43950
 C1306 C 0.63551 0.92984 0.45410
 C1307 C 0.60441 0.91994 0.44526
 C1308 C 0.60052 0.89452 0.42202
 O1309 O 0.62789 0.85660 0.38577
 C1310 C 0.65855 0.85239 0.37967
 C1311 C 0.67758 0.87283 0.39765
 C1312 C 0.71035 0.87351 0.39359
 C1313 C 0.72398 0.85238 0.36997
 C1314 C 0.70488 0.83073 0.35154
 C1315 C 0.67168 0.83069 0.35678
 H1316 H 0.68588 0.92339 0.44571
 H1317 H 0.63909 0.94935 0.47158
 H1318 H 0.57722 0.88635 0.41464
 H1319 H 0.72484 0.89011 0.40763
 H1320 H 0.74935 0.85283 0.36604
 H1321 H 0.65638 0.81495 0.34252
 C1322 C 0.37163 0.38040 0.09158
 C1323 C 0.34185 0.39108 0.08325
 C1324 C 0.33691 0.41591 0.06058
 C1325 C 0.36367 0.43046 0.04615
 C1326 C 0.39474 0.42046 0.05496
 C1327 C 0.39861 0.39486 0.07796
 O1328 O 0.37121 0.35670 0.11385
 C1329 C 0.34056 0.35247 0.11988
 C1330 C 0.32154 0.37305 0.10206
 C1331 C 0.28877 0.37375 0.10614
 C1332 C 0.27514 0.35250 0.12964
 C1333 C 0.29425 0.33073 0.14792
 C1334 C 0.32743 0.33066 0.14264
 H1335 H 0.31329 0.42399 0.05442
 H1336 H 0.36014 0.45011 0.02884
 H1337 H 0.42189 0.38661 0.08530
 H1338 H 0.27429 0.39046 0.09223
 H1339 H 0.24978 0.35298 0.13362
 H1340 H 0.34273 0.31484 0.15681
 C1341 C 0.60120 0.61690 0.11556
 C1342 C 0.58442 0.64445 0.11896
 C1343 C 0.55247 0.64695 0.11127
 C1344 C 0.53742 0.62007 0.09853
 C1345 C 0.55466 0.59172 0.09357
 C1346 C 0.58685 0.59003 0.10293
 O1347 O 0.63127 0.61946 0.12451
 C1348 C 0.63353 0.64934 0.13360
 C1349 C 0.60562 0.66572 0.13042
 C1350 C 0.60275 0.69739 0.13840
 C1351 C 0.62964 0.71256 0.15123
 C1352 C 0.65836 0.69571 0.15599
 C1353 C 0.66042 0.66381 0.14631
 H1354 H 0.53977 0.66888 0.11435
 H1355 H 0.51275 0.62180 0.09125
 H1356 H 0.60064 0.56878 0.09947
 H1357 H 0.58052 0.70977 0.13551
 H1358 H 0.62764 0.73700 0.15878
 H1359 H 0.68195 0.65032 0.14963
 C1360 C 0.10075 0.88441 0.88337
 C1361 C 0.08394 0.85690 0.87984
 C1362 C 0.05198 0.85443 0.88743
 C1363 C 0.03695 0.88129 0.90028
 C1364 C 0.05423 0.90958 0.90542
 C1365 C 0.08642 0.91126 0.89608
 O1366 O 0.13086 0.88180 0.87463
 C1367 C 0.13313 0.85193 0.86554
 C1368 C 0.10518 0.83559 0.86850
 C1369 C 0.10234 0.80390 0.86058
 C1370 C 0.12931 0.78867 0.84804
 C1371 C 0.15808 0.80547 0.84352
 C1372 C 0.16009 0.83739 0.85313
 H1373 H 0.03926 0.83252 0.88427
 H1374 H 0.01228 0.87958 0.90754
 H1375 H 0.10025 0.93245 0.89970
 H1376 H 0.08009 0.79155 0.86332
 H1377 H 0.12734 0.76422 0.84056
 H1378 H 0.18167 0.85084 0.84999
 C1379 C 0.39846 0.11649 0.38412
 C1380 C 0.41535 0.14393 0.38040
 C1381 C 0.44729 0.14640 0.38815
 C1382 C 0.46223 0.11960 0.40127
 C1383 C 0.44490 0.09135 0.40654
 C1384 C 0.41271 0.08969 0.39715
 O1385 O 0.36841 0.11908 0.37510
 C1386 C 0.36626 0.14888 0.36563
 C1387 C 0.39423 0.16517 0.36865
 C1388 C 0.39721 0.19677 0.36037
 C1389 C 0.37036 0.21197 0.34746
 C1390 C 0.34156 0.19523 0.34293
 C1391 C 0.33941 0.16338 0.35283
 H1392 H 0.46006 0.16826 0.38483
 H1393 H 0.48689 0.12131 0.40857
 H1394 H 0.39885 0.06853 0.40085
 H1395 H 0.41948 0.20909 0.36314
 H1396 H 0.37244 0.23636 0.33974
 H1397 H 0.31780 0.14998 0.34969
 C1398 C 0.90001 0.38449 0.61748
 C1399 C 0.91679 0.35696 0.62104
 C1400 C 0.94872 0.35440 0.61325
 C1401 C 0.96371 0.38119 0.60019
 C1402 C 0.94644 0.40949 0.59503
 C1403 C 0.91431 0.41126 0.60457
 O1404 O 0.86992 0.38195 0.62631
 C1405 C 0.86763 0.35209 0.63548
 C1406 C 0.89556 0.33571 0.63248
 C1407 C 0.89836 0.30401 0.64037
 C1408 C 0.87136 0.28881 0.65288
 C1409 C 0.84261 0.30565 0.65739
 C1410 C 0.84065 0.33759 0.64787
 H1411 H 0.96141 0.33247 0.61641
 H1412 H 0.98834 0.37941 0.59276
 H1413 H 0.90048 0.43246 0.60094
 H1414 H 0.92058 0.29161 0.63759
 H1415 H 0.87329 0.26433 0.66031
 H1416 H 0.81908 0.35107 0.65097
 C1417 C 0.87837 0.61932 0.07586
 C1418 C 0.84801 0.61061 0.06743
 C1419 C 0.84152 0.58726 0.04334
 C1420 C 0.86730 0.57189 0.02779
 C1421 C 0.89896 0.57959 0.03683
 C1422 C 0.90439 0.60406 0.06101
 O1423 O 0.87944 0.64170 0.09974
 C1424 C 0.84911 0.64708 0.10672
 C1425 C 0.82890 0.62846 0.08788
 C1426 C 0.79623 0.62901 0.09256
 C1427 C 0.78391 0.64954 0.11759
 C1428 C 0.80417 0.66945 0.13694
 C1429 C 0.83729 0.66826 0.13115
 H1430 H 0.81744 0.58073 0.03713
 H1431 H 0.86248 0.55317 0.00965
 H1432 H 0.92813 0.61051 0.06875
 H1433 H 0.78079 0.61382 0.07782
 H1434 H 0.75857 0.65013 0.12172
 H1435 H 0.85341 0.68275 0.14590
 C1436 C 0.62162 0.38191 0.57652
 C1437 C 0.65192 0.39083 0.56810
 C1438 C 0.65822 0.41445 0.54427
 C1439 C 0.63232 0.42985 0.52895
 C1440 C 0.60073 0.42190 0.53799
 C1441 C 0.59550 0.39719 0.56192
 O1442 O 0.62072 0.35928 0.60013
 C1443 C 0.65109 0.35395 0.60697
 C1444 C 0.67117 0.37283 0.58830
 C1445 C 0.70386 0.37237 0.59290
 C1446 C 0.71632 0.35165 0.61768
 C1447 C 0.69619 0.33148 0.63686
 C1448 C 0.66306 0.33259 0.63114
 H1449 H 0.68226 0.42115 0.53807
 H1450 H 0.63696 0.44877 0.51100
 H1451 H 0.57181 0.39054 0.56963
 H1452 H 0.71920 0.38776 0.57830
 H1453 H 0.74167 0.35113 0.62179
 H1454 H 0.64703 0.31792 0.64578
 C1455 C 0.12136 0.11891 0.42336
 C1456 C 0.15169 0.11003 0.43171
 C1457 C 0.15811 0.08644 0.45556
 C1458 C 0.13228 0.07103 0.47097
 C1459 C 0.10065 0.07894 0.46200
 C1460 C 0.09531 0.10362 0.43804
 O1461 O 0.12034 0.14150 0.39971
 C1462 C 0.15068 0.14685 0.39278
 C1463 C 0.17085 0.12801 0.41143
 C1464 C 0.20352 0.12850 0.40674
 C1465 C 0.21587 0.14920 0.38188
 C1466 C 0.19565 0.16932 0.36272
 C1467 C 0.16254 0.16818 0.36854
 H1468 H 0.18217 0.07978 0.46171
 H1469 H 0.13700 0.05213 0.48893
 H1470 H 0.07159 0.11023 0.43039
 H1471 H 0.21893 0.11315 0.42132
 H1472 H 0.24120 0.14974 0.37771
 H1473 H 0.14644 0.18282 0.35392
 C1474 C 0.37875 0.88167 0.92391
 C1475 C 0.34844 0.89051 0.93239
 C1476 C 0.34210 0.91404 0.95631
 C1477 C 0.36798 0.92945 0.97165
 C1478 C 0.39958 0.92160 0.96255
 C1479 C 0.40485 0.89696 0.93854
 O1480 O 0.37969 0.85914 0.90021
 C1481 C 0.34933 0.85379 0.89337
 C1482 C 0.32922 0.87256 0.91213
 C1483 C 0.29653 0.87207 0.90754
 C1484 C 0.28410 0.85144 0.88267
 C1485 C 0.30426 0.83138 0.86340
 C1486 C 0.33739 0.83252 0.86911
 H1487 H 0.31805 0.92068 0.96255
 H1488 H 0.36330 0.94831 0.98965
 H1489 H 0.42854 0.89039 0.93077
 H1490 H 0.28116 0.88739 0.92221
 H1491 H 0.25875 0.85090 0.87858
 H1492 H 0.35344 0.81792 0.85439
 C1493 C 0.10389 0.90193 0.64308
 C1494 C 0.12305 0.92181 0.66167
 C1495 C 0.12281 0.95430 0.65697
 C1496 C 0.10202 0.96676 0.63217
 C1497 C 0.08157 0.94682 0.61310
 C1498 C 0.08248 0.91389 0.61891
 O1499 O 0.10901 0.87172 0.65000
 C1500 C 0.13179 0.87252 0.67358
 C1501 C 0.14102 0.90259 0.68191
 C1502 C 0.16485 0.90874 0.70570
 C1503 C 0.18014 0.88290 0.72108
 C1504 C 0.17187 0.85155 0.71212
 C1505 C 0.14695 0.84648 0.68823
 H1506 H 0.13842 0.96948 0.67151
 H1507 H 0.10165 0.99195 0.62801
 H1508 H 0.06759 0.89801 0.60435
 H1509 H 0.17178 0.93259 0.71183
 H1510 H 0.19923 0.88741 0.73899
 H1511 H 0.14006 0.82296 0.68060
 C1512 C 0.60375 0.59930 0.35733
 C1513 C 0.62284 0.57941 0.33868
 C1514 C 0.62255 0.54692 0.34333
 C1515 C 0.60179 0.53445 0.36812
 C1516 C 0.58140 0.55438 0.38727
 C1517 C 0.58235 0.58732 0.38152
 O1518 O 0.60889 0.62951 0.35043
 C1519 C 0.63162 0.62870 0.32680
 C1520 C 0.64078 0.59862 0.31843
 C1521 C 0.66452 0.59246 0.29456
 C1522 C 0.67980 0.61828 0.27915
 C1523 C 0.67160 0.64965 0.28813
 C1524 C 0.64677 0.65474 0.31211
 H1525 H 0.63811 0.53173 0.32874
 H1526 H 0.60139 0.50925 0.37223
 H1527 H 0.56750 0.60320 0.39612
 H1528 H 0.67141 0.56860 0.28839
 H1529 H 0.69882 0.61375 0.26117
 H1530 H 0.63993 0.67826 0.31977
 C1531 C 0.39595 0.09942 0.14239
 C1532 C 0.37693 0.07949 0.16108
 C1533 C 0.37736 0.04699 0.15656
 C1534 C 0.39821 0.03456 0.13183
 C1535 C 0.41851 0.05454 0.11264
 C1536 C 0.41741 0.08748 0.11828
 O1537 O 0.39065 0.12962 0.14917
 C1538 C 0.36790 0.12877 0.17276
 C1539 C 0.35886 0.09867 0.18122
 C1540 C 0.33510 0.09246 0.20505
 C1541 C 0.31968 0.11825 0.22034
 C1542 C 0.32777 0.14962 0.21125
 C1543 C 0.35261 0.15477 0.18732
 H1544 H 0.36186 0.03177 0.17117
 H1545 H 0.39872 0.00935 0.12780
 H1546 H 0.43219 0.10340 0.10363
 H1547 H 0.32832 0.06858 0.21129
 H1548 H 0.30066 0.11368 0.23830
 H1549 H 0.35936 0.17830 0.17960
 C1550 C 0.89700 0.40322 0.85503
 C1551 C 0.87192 0.42146 0.84465
 C1552 C 0.86714 0.45186 0.85664
 C1553 C 0.88900 0.46405 0.88035
 C1554 C 0.91602 0.44633 0.89102
 C1555 C 0.92000 0.41538 0.87742
 O1556 O 0.89556 0.37396 0.84289
 C1557 C 0.86913 0.37389 0.82422
 C1558 C 0.85411 0.40258 0.82401
 C1559 C 0.82594 0.40780 0.80639
 C1560 C 0.81232 0.38230 0.78880
 C1561 C 0.82642 0.35200 0.78986
 C1562 C 0.85551 0.34789 0.80763
 H1563 H 0.84679 0.46551 0.84868
 H1564 H 0.88489 0.48764 0.88990
 H1565 H 0.93957 0.40051 0.88517
 H1566 H 0.81454 0.43060 0.80663
 H1567 H 0.78994 0.38583 0.77578
 H1568 H 0.86671 0.32502 0.80919
 C1569 C 0.60001 0.11858 0.88548
 C1570 C 0.58295 0.14580 0.88081
 C1571 C 0.55151 0.14894 0.89036
 C1572 C 0.53725 0.12313 0.90631
 C1573 C 0.55477 0.09519 0.91267
 C1574 C 0.58646 0.09274 0.90154
 O1575 O 0.62952 0.12053 0.87424
 C1576 C 0.63110 0.14970 0.86244
 C1577 C 0.60332 0.16620 0.86620
 C1578 C 0.59978 0.19730 0.85618
 C1579 C 0.62582 0.21180 0.84076
 C1580 C 0.65439 0.19487 0.83539
 C1581 C 0.65718 0.16350 0.84690
 H1582 H 0.53860 0.17061 0.88620
 H1583 H 0.51301 0.12545 0.91493
 H1584 H 0.60038 0.07175 0.90604
 H1585 H 0.57769 0.20978 0.85966
 H1586 H 0.62324 0.23579 0.83182
 H1587 H 0.67867 0.15004 0.84317
 C1588 C 0.39962 0.61907 0.61358
 C1589 C 0.41663 0.64635 0.61794
 C1590 C 0.44804 0.64948 0.60826
 C1591 C 0.46231 0.62357 0.59253
 C1592 C 0.44485 0.59553 0.58653
 C1593 C 0.41318 0.59313 0.59774
 O1594 O 0.37018 0.62101 0.62504
 C1595 C 0.36860 0.65024 0.63666
 C1596 C 0.39631 0.66678 0.63258
 C1597 C 0.39987 0.69790 0.64250
 C1598 C 0.37394 0.71238 0.65819
 C1599 C 0.34547 0.69540 0.66391
 C1600 C 0.34264 0.66402 0.65246
 H1601 H 0.46091 0.67119 0.61219
 H1602 H 0.48653 0.62586 0.58384
 H1603 H 0.39931 0.57206 0.59352
 H1604 H 0.42191 0.71041 0.63879
 H1605 H 0.37655 0.73637 0.66708
 H1606 H 0.32123 0.65051 0.65647
 C1607 C 0.09950 0.38221 0.11335
 C1608 C 0.08230 0.35514 0.11841
 C1609 C 0.05076 0.35214 0.10920
 C1610 C 0.03651 0.37794 0.09320
 C1611 C 0.05412 0.40573 0.08644
 C1612 C 0.08595 0.40803 0.09719
 O1613 O 0.12906 0.38016 0.12443
 C1614 C 0.13055 0.35107 0.13654
 C1615 C 0.10264 0.33473 0.13311
 C1616 C 0.09895 0.30375 0.14352
 C1617 C 0.12497 0.28922 0.15899
 C1618 C 0.15367 0.30600 0.16403
 C1619 C 0.15661 0.33724 0.15215
 H1620 H 0.03775 0.33060 0.11368
 H1621 H 0.01217 0.37573 0.08486
 H1622 H 0.09995 0.42891 0.09238
 H1623 H 0.07675 0.29140 0.14030
 H1624 H 0.12228 0.26534 0.16823
 H1625 H 0.17820 0.35058 0.15564
 C1626 C 0.89974 0.88173 0.38665
 C1627 C 0.91662 0.85433 0.38252
 C1628 C 0.94798 0.85107 0.39237
 C1629 C 0.96234 0.87697 0.40804
 C1630 C 0.94500 0.90512 0.41381
 C1631 C 0.91339 0.90766 0.40242
 O1632 O 0.87033 0.87990 0.37508
 C1633 C 0.86862 0.85063 0.36361
 C1634 C 0.89623 0.83395 0.36791
 C1635 C 0.89964 0.80276 0.35818
 C1636 C 0.87367 0.78837 0.34247
 C1637 C 0.84531 0.80549 0.33652
 C1638 C 0.84262 0.83693 0.34779
 H1639 H 0.96075 0.82926 0.38862
 H1640 H 0.98651 0.87458 0.41689
 H1641 H 0.89961 0.92882 0.40647
 H1642 H 0.92160 0.79015 0.36206
 H1643 H 0.87618 0.76432 0.33373
 H1644 H 0.82130 0.85055 0.34361
 C1645 C 0.89634 0.59920 0.64281
 C1646 C 0.87731 0.57928 0.66150
 C1647 C 0.87765 0.54679 0.65689
 C1648 C 0.89841 0.53436 0.63207
 C1649 C 0.91872 0.55434 0.61288
 C1650 C 0.91771 0.58727 0.61861
 O1651 O 0.89114 0.62940 0.64968
 C1652 C 0.86844 0.62855 0.67333
 C1653 C 0.85935 0.59846 0.68174
 C1654 C 0.83563 0.59226 0.70563
 C1655 C 0.82032 0.61805 0.72102
 C1656 C 0.82846 0.64943 0.71199
 C1657 C 0.85326 0.65456 0.68800
 H1658 H 0.86215 0.53157 0.67151
 H1659 H 0.89886 0.50916 0.62798
 H1660 H 0.93250 0.60318 0.60396
 H1661 H 0.82880 0.56838 0.71183
 H1662 H 0.80132 0.61351 0.73902
 H1663 H 0.86005 0.67809 0.68032
 C1664 C 0.60383 0.40159 0.14288
 C1665 C 0.62292 0.42152 0.16151
 C1666 C 0.62259 0.45400 0.15683
 C1667 C 0.60180 0.46642 0.13201
 C1668 C 0.58143 0.44644 0.11289
 C1669 C 0.58241 0.41352 0.11868
 O1670 O 0.60904 0.37140 0.14979
 C1671 C 0.63180 0.37225 0.17339
 C1672 C 0.64093 0.40234 0.18175
 C1673 C 0.66472 0.40855 0.20557
 C1674 C 0.68009 0.38275 0.22094
 C1675 C 0.67192 0.35138 0.21196
 C1676 C 0.64703 0.34624 0.18804
 H1677 H 0.63814 0.46922 0.17139
 H1678 H 0.60137 0.49162 0.12786
 H1679 H 0.56758 0.39761 0.10408
 H1680 H 0.67158 0.43242 0.21172
 H1681 H 0.69915 0.38730 0.23887
 H1682 H 0.64022 0.32271 0.18039
 C1683 C 0.39509 0.90114 0.35850
 C1684 C 0.37596 0.92103 0.33988
 C1685 C 0.37620 0.95352 0.34456
 C1686 C 0.39698 0.96598 0.36936
 C1687 C 0.41743 0.94605 0.38846
 C1688 C 0.41650 0.91311 0.38269
 O1689 O 0.39002 0.87093 0.35151
 C1690 C 0.36731 0.87175 0.32784
 C1691 C 0.35807 0.90183 0.31954
 C1692 C 0.33437 0.90801 0.29559
 C1693 C 0.31923 0.88220 0.28001
 C1694 C 0.32751 0.85082 0.28890
 C1695 C 0.35227 0.84571 0.31298
 H1696 H 0.36062 0.96871 0.32998
 H1697 H 0.39736 0.99118 0.37347
 H1698 H 0.43142 0.89723 0.39724
 H1699 H 0.32745 0.93187 0.28947
 H1700 H 0.30027 0.88674 0.26194
 H1701 H 0.35918 0.82218 0.32056
 C1702 C 0.10309 0.09988 0.85684
 C1703 C 0.12221 0.08007 0.83813
 C1704 C 0.12221 0.04759 0.84290
 C1705 C 0.10167 0.03505 0.86789
 C1706 C 0.08125 0.05490 0.88710
 C1707 C 0.08194 0.08783 0.88122
 O1708 O 0.10797 0.13010 0.84979
 C1709 C 0.13056 0.12939 0.82600
 C1710 C 0.13989 0.09935 0.81767
 C1711 C 0.16356 0.09329 0.79369
 C1712 C 0.17860 0.11917 0.77814
 C1713 C 0.17024 0.15051 0.78710
 C1714 C 0.14546 0.15549 0.81116
 H1715 H 0.13778 0.03246 0.82826
 H1716 H 0.10147 0.00986 0.87208
 H1717 H 0.06705 0.10366 0.89585
 H1718 H 0.17059 0.06946 0.78756
 H1719 H 0.19759 0.11472 0.76010
 H1720 H 0.13852 0.17898 0.81883
 C1721 C 0.12205 0.88176 0.07559
 C1722 C 0.15234 0.89086 0.06737
 C1723 C 0.15863 0.91465 0.04373
 C1724 C 0.13272 0.93004 0.02841
 C1725 C 0.10113 0.92190 0.03727
 C1726 C 0.09592 0.89702 0.06099
 O1727 O 0.12114 0.85902 0.09905
 C1728 C 0.15150 0.85379 0.10600
 C1729 C 0.17158 0.87285 0.08755
 C1730 C 0.20425 0.87250 0.09233
 C1731 C 0.21669 0.85171 0.11708
 C1732 C 0.19655 0.83137 0.13601
 C1733 C 0.16344 0.83237 0.13011
 H1734 H 0.18266 0.92149 0.03768
 H1735 H 0.13734 0.94909 0.01063
 H1736 H 0.07223 0.89024 0.06857
 H1737 H 0.21959 0.88804 0.07792
 H1738 H 0.24201 0.85128 0.12132
 H1739 H 0.14740 0.81756 0.14457
 C1740 C 0.87866 0.38156 0.42407
 C1741 C 0.84835 0.39043 0.43249
 C1742 C 0.84201 0.41399 0.45639
 C1743 C 0.86788 0.42938 0.47175
 C1744 C 0.89948 0.42149 0.46269
 C1745 C 0.90475 0.39683 0.43872
 O1746 O 0.87961 0.35901 0.40038
 C1747 C 0.84925 0.35369 0.39349
 C1748 C 0.82913 0.37250 0.41222
 C1749 C 0.79645 0.37204 0.40756
 C1750 C 0.78404 0.35140 0.38268
 C1751 C 0.80421 0.33131 0.36345
 C1752 C 0.83733 0.33242 0.36922
 H1753 H 0.81796 0.42065 0.46259
 H1754 H 0.86321 0.44827 0.48972
 H1755 H 0.92845 0.39023 0.43098
 H1756 H 0.78108 0.38737 0.42220
 H1757 H 0.75869 0.35089 0.37854
 H1758 H 0.85339 0.31781 0.35454
 C1759 C 0.37845 0.11916 0.57747
 C1760 C 0.34810 0.11060 0.56879
 C1761 C 0.34166 0.08715 0.54480
 C1762 C 0.36747 0.07154 0.52957
 C1763 C 0.39910 0.07912 0.53883
 C1764 C 0.40448 0.10367 0.56295
 O1765 O 0.37946 0.14169 0.60119
 C1766 C 0.34911 0.14732 0.60782
 C1767 C 0.32894 0.12873 0.58891
 C1768 C 0.29624 0.12954 0.59321
 C1769 C 0.28384 0.15030 0.61796
 C1770 C 0.30404 0.17018 0.63742
 C1771 C 0.33721 0.16873 0.63199
 H1772 H 0.31759 0.08074 0.53839
 H1773 H 0.36270 0.05277 0.51148
 H1774 H 0.42820 0.11005 0.57083
 H1775 H 0.28082 0.11437 0.57841
 H1776 H 0.25847 0.15107 0.62181
 H1777 H 0.35329 0.18319 0.64683
 C1778 C 0.62207 0.61860 0.92370
 C1779 C 0.65234 0.60959 0.93217
 C1780 C 0.65858 0.58586 0.95590
 C1781 C 0.63263 0.57044 0.97107
 C1782 C 0.60106 0.57850 0.96199
 C1783 C 0.59590 0.60330 0.93814
 O1784 O 0.62124 0.64134 0.90022
 C1785 C 0.65163 0.64666 0.89352
 C1786 C 0.67166 0.62765 0.91215
 C1787 C 0.70436 0.62810 0.90768
 C1788 C 0.71690 0.64892 0.88305
 C1789 C 0.69682 0.66921 0.86393
 C1790 C 0.66368 0.66812 0.86952
 H1791 H 0.68259 0.57910 0.96215
 H1792 H 0.63722 0.55146 0.98896
 H1793 H 0.57224 0.61003 0.93041
 H1794 H 0.71966 0.61261 0.92224
 H1795 H 0.74225 0.64942 0.87903
 H1796 H 0.64769 0.68288 0.85490
 C1797 C 0.39883 0.38237 0.88652
 C1798 C 0.41528 0.35465 0.88293
 C1799 C 0.44653 0.35101 0.89301
 C1800 C 0.46124 0.37687 0.90839
 C1801 C 0.44433 0.40535 0.91367
 C1802 C 0.41282 0.40826 0.90202
 O1803 O 0.36944 0.38086 0.87481
 C1804 C 0.36729 0.35146 0.86380
 C1805 C 0.39461 0.33441 0.86854
 C1806 C 0.39755 0.30304 0.85938
 C1807 C 0.37144 0.28884 0.84374
 C1808 C 0.34339 0.30633 0.83728
 C1809 C 0.34115 0.33797 0.84802
 H1810 H 0.45896 0.32896 0.88968
 H1811 H 0.48532 0.37420 0.91745
 H1812 H 0.39937 0.42969 0.90570
 H1813 H 0.41928 0.29012 0.86362
 H1814 H 0.37363 0.26463 0.83543
 H1815 H 0.32009 0.35187 0.84343
 C1816 C 0.90018 0.11880 0.11432
 C1817 C 0.91726 0.14600 0.11892
 C1818 C 0.94873 0.14906 0.10945
 C1819 C 0.96299 0.12317 0.09365
 C1820 C 0.94545 0.09523 0.08736
 C1821 C 0.91373 0.09288 0.09841
 O1822 O 0.87067 0.12082 0.12553
 C1823 C 0.86911 0.15002 0.13725
 C1824 C 0.89691 0.16647 0.13346
 C1825 C 0.90049 0.19757 0.14346
 C1826 C 0.87448 0.21211 0.15892
 C1827 C 0.84591 0.19522 0.16434
 C1828 C 0.84307 0.16386 0.15281
 H1829 H 0.96166 0.17071 0.11356
 H1830 H 0.98725 0.12542 0.08510
 H1831 H 0.89978 0.07190 0.09397
 H1832 H 0.92260 0.21001 0.13997
 H1833 H 0.87709 0.23609 0.16788
 H1834 H 0.82157 0.15042 0.15659
 C1835 C 0.60022 0.88210 0.61489
 C1836 C 0.58313 0.85492 0.61971
 C1837 C 0.55170 0.85176 0.61013
 C1838 C 0.53745 0.87751 0.59404
 C1839 C 0.55495 0.90543 0.58758
 C1840 C 0.58667 0.90788 0.59867
 O1841 O 0.62970 0.88018 0.62625
 C1842 C 0.63125 0.85108 0.63830
 C1843 C 0.60346 0.83459 0.63457
 C1844 C 0.59985 0.80358 0.64485
 C1845 C 0.62585 0.78913 0.66047
 C1846 C 0.65444 0.80602 0.66578
 C1847 C 0.65728 0.83733 0.65405
 H1848 H 0.53878 0.83013 0.61442
 H1849 H 0.51319 0.87518 0.58546
 H1850 H 0.60058 0.92886 0.59409
 H1851 H 0.57775 0.79111 0.64140
 H1852 H 0.62322 0.76520 0.66957
 H1853 H 0.67879 0.85077 0.65773
 C1854 C 0.09950 0.61810 0.38455
 C1855 C 0.08231 0.64518 0.37950
 C1856 C 0.05089 0.64833 0.38911
 C1857 C 0.03678 0.62267 0.40549
 C1858 C 0.05442 0.59487 0.41220
 C1859 C 0.08610 0.59242 0.40103
 O1860 O 0.12899 0.62004 0.37325
 C1861 C 0.13043 0.64908 0.36103
 C1862 C 0.10257 0.66549 0.36456
 C1863 C 0.09889 0.69647 0.35416
 C1864 C 0.12489 0.71095 0.33864
 C1865 C 0.15356 0.69411 0.33357
 C1866 C 0.15646 0.66285 0.34538
 H1867 H 0.03789 0.66989 0.38467
 H1868 H 0.01255 0.62499 0.41414
 H1869 H 0.10012 0.57153 0.40579
 H1870 H 0.07674 0.70888 0.35748
 H1871 H 0.12223 0.73485 0.32945
 H1872 H 0.17804 0.64948 0.34190
   
