data_POSCAR
  _audit_creation_date              2014-09-24
  _audit_creation_method            'ToBaCCo'
  _symmetry_space_group_name_H-M    'P1'
  _symmetry_Int_Tables_number       1
  _symmetry_cell_setting            triclinic
  loop_
  _symmetry_equiv_pos_as_xyz
 x,y,z
_cell_length_a 43.7392
_cell_length_b 43.5936
_cell_length_c 44.0845
_cell_angle_alpha 89.585300
_cell_angle_beta 90.414200
_cell_angle_gamma 90.349100
loop_
  _atom_site_label
  _atom_site_type_symbol
  _atom_site_fract_x
  _atom_site_fract_y
  _atom_site_fract_z
C1 C 0.18337 0.22122 0.23091
 C2 C 0.20254 0.19597 0.23572
 C3 C 0.22500 0.18868 0.21447
 C4 C 0.22852 0.20707 0.18853
 C5 C 0.20900 0.23198 0.18315
 C6 C 0.18658 0.23911 0.20452
 H7 H 0.19991 0.18191 0.25593
 H8 H 0.24606 0.20164 0.17220
 H9 H 0.17141 0.25831 0.20047
 C10 C 0.68846 0.72196 0.73398
 C11 C 0.70789 0.69675 0.73816
 C12 C 0.72975 0.68955 0.71626
 C13 C 0.73288 0.70825 0.69047
 C14 C 0.71334 0.73323 0.68585
 C15 C 0.69097 0.73977 0.70743
 H16 H 0.70576 0.68244 0.75826
 H17 H 0.74994 0.70289 0.67362
 H18 H 0.67551 0.75875 0.70350
 C19 C 0.31384 0.77549 0.73733
 C20 C 0.31212 0.76004 0.70955
 C21 C 0.28731 0.76465 0.68982
 C22 C 0.26427 0.78529 0.69771
 C23 C 0.26586 0.80166 0.72513
 C24 C 0.29111 0.79675 0.74458
 H25 H 0.33004 0.74428 0.70332
 H26 H 0.24561 0.78926 0.68188
 H27 H 0.29261 0.80871 0.76602
 C28 C 0.82359 0.29469 0.22289
 C29 C 0.80462 0.32029 0.22732
 C30 C 0.77875 0.32527 0.20887
 C31 C 0.77143 0.30408 0.18613
 C32 C 0.78955 0.27810 0.18192
 C33 C 0.81532 0.27335 0.20040
 H34 H 0.80950 0.33600 0.24571
 H35 H 0.75157 0.30773 0.17173
 H36 H 0.82942 0.25340 0.19656
 C37 C 0.81290 0.71832 0.26658
 C38 C 0.79075 0.69614 0.25925
 C39 C 0.76468 0.69240 0.27732
 C40 C 0.76115 0.71085 0.30302
 C41 C 0.78312 0.73316 0.31030
 C42 C 0.80885 0.73704 0.29190
 H43 H 0.79401 0.68158 0.23973
 H44 H 0.74163 0.70743 0.31770
 H45 H 0.82604 0.75407 0.29772
 C46 C 0.30647 0.21170 -0.23616
 C47 C 0.30081 0.23171 -0.21190
 C48 C 0.27723 0.22561 -0.19129
 C49 C 0.26020 0.19844 -0.19378
 C50 C 0.26628 0.17761 -0.21699
 C51 C 0.28912 0.18444 -0.23823
 H52 H 0.31384 0.25282 -0.20968
 H53 H 0.24219 0.19351 -0.17767
 H54 H 0.29383 0.16802 -0.25592
 C55 C 0.67535 0.29293 -0.22444
 C56 C 0.69623 0.31712 -0.22969
 C57 C 0.72236 0.32067 -0.21138
 C58 C 0.72873 0.29894 -0.18870
 C59 C 0.70899 0.27396 -0.18400
 C60 C 0.68235 0.27116 -0.20167
 H61 H 0.69154 0.33415 -0.24713
 H62 H 0.74896 0.30153 -0.17457
 H63 H 0.66755 0.25143 -0.19818
 C64 C 0.18371 0.79142 0.27467
 C65 C 0.19064 0.77031 0.29779
 C66 C 0.21585 0.77515 0.31702
 C67 C 0.23366 0.80178 0.31353
 C68 C 0.22684 0.82348 0.29066
 C69 C 0.20229 0.81744 0.27067
 H70 H 0.17634 0.75014 0.30086
 H71 H 0.25333 0.80519 0.32826
 H72 H 0.19654 0.83377 0.25289
 C73 C 0.46017 0.43059 0.47619
 C74 C 0.43482 0.44966 0.48014
 C75 C 0.43032 0.47521 0.46111
 C76 C 0.45190 0.48205 0.43861
 C77 C 0.47766 0.46344 0.43493
 C78 C 0.48159 0.43761 0.45366
 H79 H 0.41848 0.44443 0.49784
 H80 H 0.44854 0.50172 0.42379
 H81 H 0.50121 0.42291 0.45062
 C82 C -0.03655 -0.06197 0.98117
 C83 C -0.01962 -0.05914 0.95445
 C84 C -0.02517 -0.03493 0.93412
 C85 C -0.04731 -0.01295 0.94106
 C86 C -0.06462 -0.01538 0.96783
 C87 C -0.05964 -0.04073 0.98723
 H88 H -0.00202 -0.07574 0.94953
 H89 H -0.05151 0.00564 0.92514
 H90 H -0.07268 -0.04323 1.00793
 C91 C 1.03147 0.56214 0.98489
 C92 C 1.01080 0.55715 0.96094
 C93 C 1.01556 0.53325 0.94046
 C94 C 1.04157 0.51483 0.94346
 C95 C 1.06273 0.52003 0.96692
 C96 C 1.05742 0.54354 0.98778
 H97 H 0.99080 0.57155 0.95850
 H98 H 1.04542 0.49658 0.92738
 H99 H 1.07352 0.54744 1.00618
 C100 C 0.53997 0.06776 0.47871
 C101 C 0.52018 0.06388 0.45389
 C102 C 0.52653 0.04208 0.43169
 C103 C 0.55267 0.02385 0.43446
 C104 C 0.57354 0.02818 0.45859
 C105 C 0.56667 0.05014 0.48081
 H106 H 0.49980 0.07780 0.45184
 H107 H 0.55743 0.00731 0.41689
 H108 H 0.58166 0.05310 0.50027
 C109 C -0.02576 0.05753 0.51298
 C110 C -0.00580 0.05193 0.53737
 C111 C -0.00946 0.02566 0.55545
 C112 C -0.03344 0.00508 0.54931
 C113 C -0.05378 0.01033 0.52491
 C114 C -0.05006 0.03720 0.50733
 H115 H 0.01283 0.06778 0.54197
 H116 H -0.03662 -0.01465 0.56409
 H117 H -0.06520 0.04169 0.48825
 C118 C 0.47246 0.55235 0.01071
 C119 C 0.44896 0.53150 0.00371
 C120 C 0.44280 0.50656 0.02307
 C121 C 0.45997 0.50290 0.04982
 C122 C 0.48278 0.52425 0.05759
 C123 C 0.48909 0.54879 0.03783
 H124 H 0.43540 0.53472 -0.01673
 H125 H 0.45522 0.48369 0.06485
 H126 H 0.50669 0.56537 0.04374
 C127 C 0.53671 -0.06531 0.02763
 C128 C 0.56195 -0.04558 0.02304
 C129 C 0.56654 -0.01973 0.04134
 C130 C 0.54496 -0.01252 0.06344
 C131 C 0.51902 -0.03104 0.06749
 C132 C 0.51503 -0.05730 0.04967
 H133 H 0.57894 -0.05095 0.00614
 H134 H 0.54836 0.00751 0.07753
 H135 H 0.49460 -0.07115 0.05271
 C136 C 1.03120 0.44004 0.52091
 C137 C 1.05488 0.46093 0.51478
 C138 C 1.06000 0.48648 0.53361
 C139 C 1.04186 0.48963 0.55969
 C140 C 1.01882 0.46816 0.56651
 C141 C 1.01337 0.44362 0.54685
 H142 H 1.06833 0.45798 0.49446
 H143 H 1.04611 0.50835 0.57525
 H144 H 0.99529 0.42724 0.55176
 C145 C 0.42179 0.02078 0.21029
 H146 H 0.42528 0.04011 0.22520
 C147 C 0.44061 0.01702 0.18518
 H148 H 0.45864 0.03352 0.18065
 C149 C 0.39427 -0.02463 0.19820
 H150 H 0.37631 -0.04088 0.20355
 C151 C 0.41254 -0.02923 0.17280
 H152 H 0.40868 -0.04909 0.15861
 N153 N 0.39907 0.00019 0.21619
 C154 C 0.32732 0.04620 0.26588
 H155 H 0.32598 0.03185 0.28596
 C156 C 0.30642 0.06992 0.26152
 H157 H 0.28908 0.07409 0.27839
 C158 C 0.35105 0.05789 0.21895
 H159 H 0.36812 0.05282 0.20217
 C160 C 0.33061 0.08185 0.21370
 H161 H 0.33216 0.09528 0.19300
 Zn162 Zn 0.37497 0.00649 0.25093
 N163 N 0.34910 0.04067 0.24475
 C164 C 0.39823 0.03823 0.30232
 N165 N 0.40173 0.01336 0.28421
 C166 C 0.42536 -0.00640 0.28848
 C167 C 0.44655 -0.00161 0.31184
 C168 C 0.41879 0.04377 0.32604
 C169 C 0.32294 -0.02971 0.24209
 C170 C 0.30191 -0.05319 0.24787
 C171 C 0.33667 -0.07381 0.28554
 C172 C 0.35681 -0.04957 0.27949
 N173 N 0.34956 -0.02805 0.25815
 H174 H 0.37968 0.05398 0.29833
 H175 H 0.42793 -0.02571 0.27345
 H176 H 0.46538 -0.01738 0.31494
 H177 H 0.41571 0.06353 0.34043
 H178 H 0.31776 -0.01235 0.22520
 H179 H 0.28049 -0.05384 0.23539
 H180 H 0.34271 -0.09091 0.30246
 H181 H 0.37803 -0.04789 0.29202
 C182 C 0.30781 0.08773 0.23498
 C183 C 0.43584 -0.00809 0.16603
 C184 C 0.30848 -0.07528 0.27021
 C185 C 0.44350 0.02393 0.33068
 C186 C 0.07891 -0.02560 0.70583
 H187 H 0.07565 -0.04591 0.71970
 C188 C 0.06173 -0.02162 0.67930
 H189 H 0.04511 -0.03889 0.67269
 C190 C 0.10417 0.02202 0.69772
 H191 H 0.12040 0.03918 0.70518
 C192 C 0.08748 0.02690 0.67102
 H193 H 0.09115 0.04766 0.65787
 N194 N 0.09997 -0.00414 0.71425
 C195 C 0.16498 -0.05520 0.77023
 H196 H 0.16479 -0.04173 0.79074
 C197 C 0.18318 -0.08132 0.76866
 H198 H 0.19692 -0.08806 0.78810
 C199 C 0.14753 -0.06265 0.71976
 H200 H 0.13401 -0.05503 0.70059
 C201 C 0.16574 -0.08868 0.71708
 H202 H 0.16608 -0.10100 0.69584
 Zn203 Zn 0.12255 -0.01143 0.75034
 N204 N 0.14708 -0.04681 0.74625
 C205 C 0.09368 -0.04304 0.79915
 N206 N 0.09413 -0.01678 0.78226
 C207 C 0.07382 0.00614 0.78731
 C208 C 0.05269 0.00359 0.81082
 C209 C 0.07303 -0.04648 0.82293
 C210 C 0.17218 0.02730 0.73834
 C211 C 0.19265 0.05156 0.74286
 C212 C 0.16595 0.06401 0.78894
 C213 C 0.14601 0.03947 0.78358
 N214 N 0.14921 0.02195 0.75839
 H215 H 0.10927 -0.06141 0.79430
 H216 H 0.07433 0.02656 0.77323
 H217 H 0.03694 0.02213 0.81501
 H218 H 0.07310 -0.06729 0.83650
 H219 H 0.17441 0.01278 0.71869
 H220 H 0.21061 0.05591 0.72657
 H221 H 0.16310 0.07800 0.80891
 H222 H 0.12808 0.03448 0.79960
 C223 C 0.18330 -0.09863 0.74197
 C224 C 0.06633 0.00469 0.66140
 C225 C 0.18959 0.07013 0.76846
 C226 C 0.05233 -0.02296 0.82892
 C227 C 0.59625 0.48157 0.19375
 H228 H 0.61076 0.46175 0.19639
 C229 C 0.57676 0.48373 0.16859
 H230 H 0.57657 0.46571 0.15181
 C231 C 0.57798 0.52882 0.21256
 H232 H 0.57841 0.54616 0.22999
 C233 C 0.55836 0.53200 0.18767
 H234 H 0.54395 0.55205 0.18573
 N235 N 0.59659 0.50400 0.21508
 C236 C 0.65143 0.44333 0.26343
 H237 H 0.63564 0.44125 0.28206
 C238 C 0.67339 0.42063 0.25909
 H239 H 0.67454 0.40130 0.27462
 C240 C 0.66937 0.47085 0.22046
 H241 H 0.66767 0.49062 0.20559
 C242 C 0.69111 0.44837 0.21488
 H243 H 0.70587 0.45067 0.19537
 Zn244 Zn 0.62239 0.50059 0.24986
 N245 N 0.65009 0.46800 0.24438
 C246 C 0.56639 0.49277 0.28090
 N247 N 0.59733 0.49369 0.28476
 C248 C 0.61007 0.48959 0.31280
 C249 C 0.59160 0.48550 0.33825
 C250 C 0.54712 0.48871 0.30571
 C251 C 0.64603 0.55896 0.23178
 C252 C 0.66394 0.58546 0.23452
 C253 C 0.68278 0.56640 0.28261
 C254 C 0.66479 0.54015 0.27882
 N255 N 0.64622 0.53716 0.25409
 H256 H 0.55642 0.49506 0.25857
 H257 H 0.63455 0.48883 0.31553
 H258 H 0.60199 0.48227 0.36041
 H259 H 0.52257 0.48825 0.30231
 H260 H 0.63261 0.55565 0.21143
 H261 H 0.66379 0.60248 0.21650
 H262 H 0.69724 0.56852 0.30254
 H263 H 0.66615 0.52204 0.29547
 C264 C 0.69385 0.42327 0.23480
 C265 C 0.55736 0.50906 0.16557
 C266 C 0.68212 0.58959 0.26049
 C267 C 0.55975 0.48551 0.33479
 C268 C 0.92116 0.51759 0.70971
 H269 H 0.92286 0.53825 0.72308
 C270 C 0.94120 0.51313 0.68569
 H271 H 0.95821 0.53046 0.68036
 C272 C 0.89740 0.46944 0.70064
 H273 H 0.88053 0.45233 0.70676
 C274 C 0.91694 0.46410 0.67634
 H275 H 0.91499 0.44295 0.66372
 N276 N 0.89987 0.49583 0.71682
 C277 C 0.82553 0.54150 0.76368
 H278 H 0.82177 0.52565 0.78223
 C279 C 0.80542 0.56589 0.75926
 H280 H 0.78680 0.56923 0.77493
 C281 C 0.85309 0.55567 0.71963
 H282 H 0.87120 0.55138 0.70378
 C283 C 0.83344 0.58029 0.71430
 H284 H 0.83679 0.59491 0.69462
 Zn285 Zn 0.87440 0.50225 0.75090
 N286 N 0.84905 0.53699 0.74419
 C287 C 0.88603 0.51561 0.81285
 N288 N 0.89927 0.50785 0.78613
 C289 C 0.92997 0.50310 0.78444
 C290 C 0.94860 0.50681 0.80999
 C291 C 0.90382 0.51937 0.83901
 C292 C 0.82448 0.46404 0.73739
 C293 C 0.80351 0.44024 0.74207
 C294 C 0.83267 0.42448 0.78625
 C295 C 0.85306 0.44863 0.78078
 N296 N 0.84846 0.46796 0.75682
 H297 H 0.86163 0.51857 0.81409
 H298 H 0.94012 0.49594 0.76344
 H299 H 0.97298 0.50299 0.80840
 H300 H 0.89309 0.52550 0.86016
 H301 H 0.82139 0.47980 0.71856
 H302 H 0.78421 0.43752 0.72677
 H303 H 0.83622 0.40943 0.80560
 H304 H 0.87236 0.45211 0.79584
 C305 C 0.80916 0.58536 0.73413
 C306 C 0.93933 0.48597 0.66899
 C307 C 0.80734 0.42049 0.76702
 C308 C 0.93543 0.51495 0.83757
 C309 C 0.20444 0.41458 0.01207
 H310 H 0.21676 0.41274 0.03336
 C311 C 0.18014 0.43502 0.00914
 H312 H 0.17365 0.44905 0.02819
 C313 C 0.19806 0.39888 -0.03904
 H314 H 0.20534 0.38491 -0.05778
 C315 C 0.17350 0.41890 -0.04289
 H316 H 0.16183 0.42034 -0.06459
 N317 N 0.21312 0.39736 -0.01197
 C318 C 0.26310 0.34186 0.04903
 H319 H 0.28529 0.35237 0.04629
 C320 C 0.25783 0.32284 0.07411
 H321 H 0.27609 0.31860 0.09030
 C322 C 0.21209 0.33459 0.03191
 H323 H 0.19422 0.33966 0.01559
 C324 C 0.20580 0.31560 0.05673
 H325 H 0.18314 0.30584 0.05938
 Zn326 Zn 0.24713 0.37130 -0.00701
 N327 N 0.24054 0.34680 0.02814
 C328 C 0.28150 0.42648 -0.00284
 N329 N 0.28332 0.39532 -0.00290
 C330 C 0.31083 0.38093 -0.00105
 C331 C 0.33783 0.39798 0.00172
 C332 C 0.30792 0.44438 -0.00015
 C333 C 0.23185 0.32116 -0.04487
 C334 C 0.23459 0.30199 -0.06993
 C335 C 0.27590 0.33411 -0.08803
 C336 C 0.27242 0.35265 -0.06262
 N337 N 0.25080 0.34581 -0.04152
 H338 H 0.25962 0.43761 -0.00500
 H339 H 0.31176 0.35616 -0.00180
 H340 H 0.35956 0.38632 0.00361
 H341 H 0.30619 0.46915 0.00008
 H342 H 0.21465 0.31621 -0.02809
 H343 H 0.21953 0.28233 -0.07230
 H344 H 0.29333 0.33961 -0.10457
 H345 H 0.28693 0.37260 -0.05986
 C346 C 0.22907 0.30904 0.07775
 C347 C 0.16468 0.43740 -0.01868
 C348 C 0.25674 0.30855 -0.09185
 C349 C 0.33644 0.43008 0.00205
 C350 C 0.71072 0.07967 -0.01094
 H351 H 0.72468 0.07754 -0.03096
 C352 C 0.68684 0.05892 -0.00576
 H353 H 0.68227 0.04078 -0.02186
 C354 C 0.69988 0.10554 0.03486
 H355 H 0.70532 0.12338 0.05091
 C356 C 0.67568 0.08540 0.04082
 H357 H 0.66243 0.08794 0.06130
 N358 N 0.71667 0.10250 0.00919
 C359 C 0.76358 0.17497 -0.04122
 H360 H 0.78394 0.17762 -0.02739
 C361 C 0.75909 0.19383 -0.06658
 H362 H 0.77600 0.21116 -0.07225
 C363 C 0.71629 0.14966 -0.05030
 H364 H 0.69947 0.13272 -0.04366
 C365 C 0.71095 0.16795 -0.07592
 H366 H 0.69015 0.16484 -0.08903
 Zn367 Zn 0.75029 0.12878 0.00104
 N368 N 0.74247 0.15320 -0.03379
 C369 C 0.79997 0.10436 -0.03213
 N370 N 0.78475 0.10356 -0.00532
 C371 C 0.79314 0.08396 0.01736
 C372 C 0.81874 0.06531 0.01418
 C373 C 0.82544 0.08575 -0.03644
 C374 C 0.73572 0.17692 0.04022
 C375 C 0.73951 0.19688 0.06463
 C376 C 0.78832 0.17339 0.07542
 C377 C 0.78371 0.15404 0.05070
 N378 N 0.75741 0.15564 0.03407
 H379 H 0.79236 0.11931 -0.05027
 H380 H 0.78015 0.08319 0.03815
 H381 H 0.82557 0.05030 0.03266
 H382 H 0.83736 0.08652 -0.05789
 H383 H 0.71533 0.17818 0.02624
 H384 H 0.72207 0.21366 0.06940
 H385 H 0.80914 0.17161 0.08874
 H386 H 0.80119 0.13779 0.04495
 C387 C 0.73271 0.19006 -0.08445
 C388 C 0.66918 0.06172 0.02044
 C389 C 0.76582 0.19474 0.08288
 C390 C 0.83549 0.06651 -0.01281
 C391 C 0.20669 0.58198 0.48503
 H392 H 0.21983 0.58089 0.46437
 C393 C 0.18046 0.56390 0.48829
 H394 H 0.17331 0.54897 0.47000
 C395 C 0.20003 0.60276 0.53407
 H396 H 0.20793 0.61767 0.55199
 C397 C 0.17390 0.58474 0.53845
 H398 H 0.16173 0.58589 0.55972
 N399 N 0.21548 0.60153 0.50742
 C400 C 0.26634 0.67388 0.46051
 H401 H 0.28684 0.67475 0.47437
 C402 C 0.26305 0.69386 0.43580
 H403 H 0.28108 0.71013 0.43049
 C404 C 0.21765 0.65180 0.45053
 H405 H 0.19973 0.63584 0.45657
 C406 C 0.21352 0.67120 0.42553
 H407 H 0.19263 0.66983 0.41225
 Zn408 Zn 0.25057 0.62625 0.50059
 N409 N 0.24404 0.65300 0.46706
 C410 C 0.29988 0.60191 0.46674
 N411 N 0.28357 0.59953 0.49285
 C412 C 0.28948 0.57704 0.51361
 C413 C 0.31280 0.55595 0.50862
 C414 C 0.32350 0.58140 0.46094
 C415 C 0.23822 0.67278 0.54187
 C416 C 0.24348 0.69243 0.56625
 C417 C 0.29175 0.66717 0.57540
 C418 C 0.28558 0.64799 0.55082
 N419 N 0.25906 0.65100 0.53476
 H420 H 0.29446 0.61946 0.45020
 H421 H 0.27590 0.57543 0.53397
 H422 H 0.31733 0.53808 0.52521
 H423 H 0.33634 0.58341 0.44009
 H424 H 0.21748 0.67487 0.52851
 H425 H 0.22665 0.70956 0.57187
 H426 H 0.31289 0.66462 0.58809
 H427 H 0.30210 0.63092 0.54449
 C428 C 0.23657 0.69221 0.41784
 C429 C 0.16345 0.56562 0.51505
 C430 C 0.27064 0.68983 0.58311
 C431 C 0.32992 0.55804 0.48195
 C432 C 0.71056 0.92291 0.51177
 H433 H 0.72196 0.92256 0.53349
 C434 C 0.68754 0.94436 0.50640
 H435 H 0.68083 0.95972 0.52434
 C436 C 0.70589 0.90448 0.46154
 H437 H 0.71355 0.88957 0.44376
 C438 C 0.68300 0.92581 0.45510
 H439 H 0.67290 0.92674 0.43261
 N440 N 0.71904 0.90316 0.48962
 C441 C 0.74195 0.81885 0.52839
 H442 H 0.74599 0.80877 0.50655
 C443 C 0.73564 0.79961 0.55301
 H444 H 0.73454 0.77501 0.54983
 C445 C 0.73971 0.86259 0.55983
 H446 H 0.74236 0.88699 0.56276
 C447 C 0.73347 0.84414 0.58511
 H448 H 0.73063 0.85453 0.60714
 Zn449 Zn 0.75165 0.87528 0.49736
 N450 N 0.74337 0.84986 0.53195
 C451 C 0.80560 0.89472 0.52874
 N452 N 0.78745 0.89886 0.50387
 C453 C 0.79453 0.92000 0.48216
 C454 C 0.82122 0.93750 0.48457
 C455 C 0.83230 0.91213 0.53229
 C456 C 0.73367 0.83244 0.45266
 C457 C 0.73761 0.81256 0.42833
 C458 C 0.79028 0.82923 0.42514
 C459 C 0.78542 0.84863 0.44966
 N460 N 0.75746 0.84986 0.46296
 H461 H 0.79965 0.87771 0.54566
 H462 H 0.77961 0.92284 0.46268
 H463 H 0.82687 0.95388 0.46686
 H464 H 0.84656 0.90880 0.55222
 H465 H 0.71170 0.83371 0.46369
 H466 H 0.71862 0.79855 0.42056
 H467 H 0.81261 0.82844 0.41472
 H468 H 0.80417 0.86231 0.45829
 C469 C 0.73095 0.81233 0.58163
 C470 C 0.67381 0.94621 0.47764
 C471 C 0.76632 0.81054 0.41463
 C472 C 0.84065 0.93333 0.50967
 C473 C 0.01440 0.21266 0.42438
 H474 H 0.03288 0.22883 0.42815
 C475 C 0.01191 0.18650 0.44264
 H476 H 0.02848 0.18247 0.46058
 C477 C -0.02985 0.19815 0.39641
 H478 H -0.04605 0.20286 0.37838
 C479 C -0.03318 0.17167 0.41414
 H480 H -0.05190 0.15593 0.40966
 N481 N -0.00604 0.21772 0.40151
 C482 C 0.03932 0.26930 0.32984
 H483 H 0.02366 0.28823 0.32695
 C484 C 0.06430 0.26652 0.31053
 H485 H 0.06787 0.28331 0.29265
 C486 C 0.05327 0.22371 0.35600
 H487 H 0.04868 0.20680 0.37341
 C488 C 0.07861 0.22017 0.33732
 H489 H 0.09352 0.20066 0.34060
 Zn490 Zn -0.00036 0.25302 0.37703
 N491 N 0.03445 0.24820 0.35222
 C492 C 0.02948 0.30636 0.39919
 N493 N 0.00512 0.28715 0.40286
 C494 C -0.01544 0.29151 0.42541
 C495 C -0.01245 0.31656 0.44480
 C496 C 0.03324 0.33176 0.41796
 C497 C -0.03679 0.24105 0.32603
 C498 C -0.05949 0.24654 0.30426
 C499 C -0.07790 0.28817 0.33492
 C500 C -0.05452 0.28225 0.35585
 N501 N -0.03443 0.25913 0.35098
 H502 H 0.04599 0.30217 0.38165
 H503 H -0.03426 0.27553 0.42821
 H504 H -0.02899 0.31992 0.46262
 H505 H 0.05249 0.34713 0.41459
 H506 H -0.02041 0.22292 0.32263
 H507 H -0.06061 0.23254 0.28408
 H508 H -0.09369 0.30672 0.33894
 H509 H -0.05221 0.29651 0.37565
 C510 C 0.08446 0.24192 0.31449
 C511 C -0.01181 0.16545 0.43719
 C512 C -0.07993 0.27079 0.30831
 C513 C 0.01185 0.33727 0.44074
 C514 C -0.01360 0.71018 0.07919
 H515 H -0.03336 0.72482 0.07672
 C516 C -0.01046 0.68463 0.06059
 H517 H -0.02787 0.67949 0.04376
 C518 C 0.03331 0.69900 0.10411
 H519 H 0.05046 0.70483 0.12087
 C520 C 0.03732 0.67320 0.08601
 H521 H 0.05749 0.65916 0.08897
 N522 N 0.00786 0.71655 0.10077
 C523 C -0.03829 0.76489 0.17321
 H524 H -0.02384 0.78502 0.17511
 C525 C -0.06253 0.76054 0.19325
 H526 H -0.06684 0.77741 0.21059
 C527 C -0.05008 0.71806 0.14857
 H528 H -0.04497 0.70135 0.13142
 C529 C -0.07463 0.71289 0.16804
 H530 H -0.08857 0.69243 0.16549
 Zn531 Zn 0.00128 0.75101 0.12572
 N532 N -0.03266 0.74388 0.15130
 C533 C -0.03151 0.80263 0.10338
 N534 N -0.00596 0.78531 0.10014
 C535 C 0.01478 0.79164 0.07806
 C536 C 0.01060 0.81672 0.05861
 C537 C -0.03647 0.82802 0.08455
 C538 C 0.04167 0.73722 0.17330
 C539 C 0.06550 0.74218 0.19396
 C540 C 0.07635 0.79045 0.16883
 C541 C 0.05228 0.78460 0.14865
 N542 N 0.03555 0.75829 0.15119
 H543 H -0.04807 0.79688 0.12058
 H544 H 0.03467 0.77724 0.07573
 H545 H 0.02735 0.82181 0.04129
 H546 H -0.05667 0.84191 0.08747
 H547 H 0.02773 0.71671 0.17506
 H548 H 0.07011 0.72536 0.21158
 H549 H 0.08938 0.81157 0.16684
 H550 H 0.04672 0.80134 0.13133
 C551 C -0.08083 0.73415 0.19086
 C552 C 0.01500 0.66561 0.06432
 C553 C 0.08284 0.76925 0.19198
 C554 C -0.01511 0.83531 0.06208
 C555 C 0.48330 0.20531 0.58130
 H556 H 0.46231 0.21823 0.57943
 C557 C 0.48839 0.18069 0.56197
 H558 H 0.47124 0.17449 0.54522
 C559 C 0.53160 0.19802 0.60497
 H560 H 0.54866 0.20524 0.62127
 C561 C 0.53757 0.17313 0.58615
 H562 H 0.55907 0.16108 0.58822
 N563 N 0.50464 0.21331 0.60245
 C564 C 0.45138 0.26313 0.66902
 H565 H 0.46380 0.28466 0.66939
 C566 C 0.42528 0.25934 0.68671
 H567 H 0.41752 0.27809 0.70063
 C568 C 0.44636 0.21245 0.65040
 H569 H 0.45487 0.19412 0.63649
 C570 C 0.42038 0.20754 0.66809
 H571 H 0.40894 0.18544 0.66767
 Zn572 Zn 0.49574 0.24784 0.62657
 N573 N 0.46091 0.24013 0.65075
 C574 C 0.46087 0.29549 0.59873
 N575 N 0.48834 0.28099 0.59950
 C576 C 0.51099 0.28878 0.57985
 C577 C 0.50661 0.31229 0.55860
 C578 C 0.45558 0.31921 0.57795
 C579 C 0.53703 0.23557 0.67395
 C580 C 0.56028 0.24174 0.69494
 C581 C 0.56501 0.29276 0.67363
 C582 C 0.54192 0.28550 0.65280
 N583 N 0.52854 0.25724 0.65324
 H584 H 0.44284 0.28852 0.61392
 H585 H 0.53245 0.27658 0.58066
 H586 H 0.52477 0.31830 0.54305
 H587 H 0.43372 0.33076 0.57767
 H588 H 0.52567 0.21346 0.67413
 H589 H 0.56713 0.22418 0.71107
 H590 H 0.57534 0.31540 0.67323
 H591 H 0.53436 0.30267 0.63668
 C592 C 0.40918 0.23145 0.68591
 C593 C 0.51568 0.16422 0.56452
 C594 C 0.57418 0.27081 0.69520
 C595 C 0.47851 0.32755 0.55738
 C596 C 0.49157 0.71648 0.93401
 H597 H 0.48861 0.73848 0.94468
 C598 C 0.48814 0.68968 0.95118
 H599 H 0.48300 0.69116 0.97512
 C600 C 0.50094 0.68749 0.88976
 H601 H 0.50578 0.68685 0.86577
 C602 C 0.49758 0.66011 0.90608
 H603 H 0.49977 0.63835 0.89462
 N604 N 0.49835 0.71494 0.90397
 C605 C 0.56684 0.75593 0.86469
 H606 H 0.57019 0.76575 0.88683
 C607 C 0.59192 0.75291 0.84555
 H608 H 0.61438 0.76004 0.85335
 C609 C 0.53413 0.73373 0.82773
 H610 H 0.51161 0.72582 0.82105
 C611 C 0.55843 0.73100 0.80761
 H612 H 0.55442 0.72126 0.78539
 Zn613 Zn 0.50394 0.75133 0.88093
 N614 N 0.53853 0.74661 0.85548
 C615 C 0.53074 0.78283 0.93008
 N616 N 0.50960 0.78511 0.90738
 C617 C 0.49205 0.81062 0.90407
 C618 C 0.49542 0.83510 0.92415
 C619 C 0.53487 0.80673 0.95057
 C620 C 0.47109 0.77450 0.83042
 C621 C 0.44614 0.77683 0.81060
 C622 C 0.41624 0.74660 0.84583
 C623 C 0.44196 0.74418 0.86461
 N624 N 0.46882 0.75762 0.85639
 H625 H 0.54401 0.76211 0.93265
 H626 H 0.47530 0.81194 0.88597
 H627 H 0.48128 0.85526 0.92145
 H628 H 0.55175 0.80463 0.96855
 H629 H 0.49257 0.78542 0.82467
 H630 H 0.44853 0.78949 0.78952
 H631 H 0.39495 0.73589 0.85268
 H632 H 0.44056 0.73135 0.88564
 C633 C 0.58767 0.74112 0.81629
 C634 C 0.49163 0.66115 0.93726
 C635 C 0.41851 0.76212 0.81792
 C636 C 0.51678 0.83304 0.94791
 C637 C 0.15897 0.25501 0.27061
 C638 C 0.15903 0.22797 0.25294
 C639 C 0.13556 0.20630 0.25646
 C640 C 0.11181 0.21127 0.27659
 C641 C 0.11081 0.23800 0.29397
 C642 C 0.13472 0.26002 0.29143
 C643 C 0.18292 0.27678 0.26867
 C644 C 0.18291 0.30295 0.28667
 C645 C 0.15939 0.30774 0.30716
 C646 C 0.13559 0.28647 0.30974
 H647 H 0.20200 0.27366 0.25356
 H648 H 0.20143 0.31944 0.28495
 H649 H 0.15971 0.32792 0.32131
 H650 H 0.11822 0.29078 0.32648
 H651 H 0.13548 0.18546 0.24320
 H652 H 0.09380 0.19418 0.27840
 C653 C 0.65950 0.75779 0.76902
 C654 C 0.66408 0.72833 0.75632
 C655 C 0.64395 0.70436 0.76379
 C656 C 0.61949 0.70908 0.78312
 C657 C 0.61385 0.73809 0.79526
 C658 C 0.63354 0.76300 0.78767
 C659 C 0.68032 0.78215 0.76391
 C660 C 0.67461 0.81140 0.77501
 C661 C 0.64819 0.81697 0.79140
 C662 C 0.62778 0.79311 0.79768
 H663 H 0.70130 0.77884 0.75156
 H664 H 0.69064 0.82990 0.77066
 H665 H 0.64358 0.83986 0.79947
 H666 H 0.60739 0.79866 0.81016
 H667 H 0.64700 0.68174 0.75426
 H668 H 0.60477 0.68980 0.78867
 C669 C 0.34880 0.74062 0.76865
 C670 C 0.33998 0.77030 0.75847
 C671 C 0.35693 0.79593 0.76793
 C672 C 0.38223 0.79271 0.78695
 C673 C 0.39193 0.76369 0.79676
 C674 C 0.37569 0.73720 0.78686
 C675 C 0.33131 0.71425 0.76153
 C676 C 0.34125 0.68511 0.77008
 C677 C 0.36865 0.68162 0.78589
 C678 C 0.38578 0.70731 0.79422
 H679 H 0.30971 0.71580 0.74958
 H680 H 0.32774 0.66511 0.76419
 H681 H 0.37655 0.65889 0.79195
 H682 H 0.40708 0.70340 0.80616
 H683 H 0.35059 0.81874 0.76040
 H684 H 0.39432 0.81317 0.79423
 C685 C -0.12862 0.31303 0.24852
 C686 C -0.15051 0.28962 0.24168
 C687 C -0.14660 0.26038 0.25476
 C688 C -0.12358 0.25482 0.27600
 C689 C -0.10319 0.27804 0.28467
 C690 C -0.10496 0.30722 0.27027
 C691 C -0.12813 0.34121 0.23242
 C692 C -0.10641 0.36376 0.23891
 C693 C -0.08395 0.35840 0.26072
 C694 C -0.08283 0.33030 0.27592
 H695 H -0.14370 0.34565 0.21387
 H696 H -0.10660 0.38525 0.22645
 H697 H -0.06681 0.37580 0.26530
 H698 H -0.06397 0.32670 0.29148
 H699 H -0.16260 0.24195 0.24989
 H700 H -0.12218 0.23227 0.28640
 C701 C -0.13543 0.69931 0.24962
 C702 C -0.15910 0.72134 0.24827
 C703 C -0.15602 0.74713 0.22946
 C704 C -0.13033 0.75099 0.21137
 C705 C -0.10687 0.72924 0.21166
 C706 C -0.10897 0.70338 0.23131
 C707 C -0.13720 0.67366 0.26929
 C708 C -0.11345 0.65252 0.27089
 C709 C -0.08745 0.65665 0.25328
 C710 C -0.08504 0.68187 0.23378
 H711 H -0.15674 0.66987 0.28378
 H712 H -0.11509 0.63298 0.28609
 H713 H -0.06894 0.64034 0.25489
 H714 H -0.06413 0.68451 0.22107
 H715 H -0.17389 0.76422 0.22850
 H716 H -0.12893 0.77093 0.19662
 C717 C 0.32656 0.21510 0.71090
 C718 C 0.33012 0.21824 0.74296
 C719 C 0.35865 0.22777 0.75452
 C720 C 0.38368 0.23191 0.73568
 C721 C 0.38123 0.22720 0.70442
 C722 C 0.35237 0.21945 0.69159
 C723 C 0.29753 0.21023 0.69729
 C724 C 0.29430 0.20783 0.66593
 C725 C 0.31960 0.21122 0.64730
 C726 C 0.34827 0.21741 0.65984
 H727 H 0.27684 0.20922 0.71050
 H728 H 0.27192 0.20393 0.65599
 H729 H 0.31686 0.20979 0.62292
 H730 H 0.36691 0.22130 0.64430
 H731 H 0.36222 0.23051 0.77871
 H732 H 0.40547 0.23823 0.74575
 C733 C 0.61931 0.28255 0.76943
 C734 C 0.64872 0.28980 0.75734
 C735 C 0.65159 0.29329 0.72574
 C736 C 0.62717 0.28735 0.70627
 C737 C 0.59872 0.27813 0.71748
 C738 C 0.59427 0.27648 0.74930
 C739 C 0.61354 0.28355 0.80097
 C740 C 0.58461 0.27691 0.81241
 C741 C 0.56054 0.27012 0.79280
 C742 C 0.56509 0.27031 0.76157
 H743 H 0.63092 0.29042 0.81712
 H744 H 0.58072 0.27762 0.83662
 H745 H 0.53802 0.26542 0.80181
 H746 H 0.54533 0.26633 0.74724
 H747 H 0.67347 0.29893 0.71569
 H748 H 0.63079 0.28915 0.68202
 C749 C 0.12644 0.78642 0.26572
 C750 C 0.15683 0.78644 0.25465
 C751 C 0.16196 0.78187 0.22370
 C752 C 0.13769 0.77653 0.20379
 C753 C 0.10754 0.77555 0.21423
 C754 C 0.10159 0.78087 0.24534
 C755 C 0.12012 0.79265 0.29643
 C756 C 0.09012 0.79290 0.30690
 C757 C 0.06588 0.78739 0.28703
 C758 C 0.07142 0.78162 0.25650
 H759 H 0.13815 0.79777 0.31255
 H760 H 0.08564 0.79768 0.33051
 H761 H 0.04263 0.78788 0.29526
 H762 H 0.05185 0.77815 0.24177
 H763 H 0.18504 0.78209 0.21493
 H764 H 0.14248 0.77277 0.18003
 C765 C 0.23344 0.13129 0.21941
 C766 C 0.24494 0.16179 0.21931
 C767 C 0.27629 0.16702 0.22348
 C768 C 0.29623 0.14272 0.22841
 C769 C 0.28542 0.11244 0.22934
 C770 C 0.25386 0.10639 0.22450
 C771 C 0.20222 0.12492 0.21370
 C772 C 0.19134 0.09480 0.21345
 C773 C 0.21127 0.07049 0.21846
 C774 C 0.24226 0.07609 0.22374
 H775 H 0.18603 0.14302 0.20902
 H776 H 0.16736 0.09027 0.20908
 H777 H 0.20271 0.04715 0.21796
 H778 H 0.25700 0.05647 0.22684
 H779 H 0.28537 0.19021 0.22319
 H780 H 0.32033 0.14758 0.23182
 C781 C 0.73653 0.63186 0.71851
 C782 C 0.74894 0.66196 0.71999
 C783 C 0.78035 0.66605 0.72483
 C784 C 0.79944 0.64094 0.72907
 C785 C 0.78772 0.61097 0.72852
 C786 C 0.75611 0.60613 0.72270
 C787 C 0.70521 0.62675 0.71218
 C788 C 0.69344 0.59704 0.71024
 C789 C 0.71257 0.57192 0.71414
 C790 C 0.74363 0.57629 0.72010
 H791 H 0.68962 0.64557 0.70832
 H792 H 0.66939 0.59349 0.70537
 H793 H 0.70334 0.54891 0.71226
 H794 H 0.75773 0.55609 0.72223
 H795 H 0.79008 0.68894 0.72572
 H796 H 0.82358 0.64492 0.73325
 C797 C 0.73357 0.37796 0.78834
 C798 C 0.74315 0.34725 0.78409
 C799 C 0.77330 0.34147 0.77543
 C800 C 0.79376 0.36548 0.77017
 C801 C 0.78465 0.39601 0.77333
 C802 C 0.75448 0.40255 0.78278
 C803 C 0.70395 0.38478 0.79881
 C804 C 0.69496 0.41506 0.80311
 C805 C 0.71531 0.43906 0.79750
 C806 C 0.74485 0.43299 0.78763
 H807 H 0.68760 0.36688 0.80416
 H808 H 0.67217 0.41992 0.81110
 H809 H 0.70826 0.46250 0.80111
 H810 H 0.76009 0.45231 0.78420
 H811 H 0.78097 0.31811 0.77237
 H812 H 0.81684 0.36023 0.76323
 C813 C 0.25368 -0.13048 0.31166
 C814 C 0.24501 -0.14982 0.28700
 C815 C 0.25539 -0.14235 0.25775
 C816 C 0.27572 -0.11822 0.25296
 C817 C 0.28604 -0.10006 0.27702
 C818 C 0.27433 -0.10546 0.30655
 C819 C 0.24045 -0.13382 0.34073
 C820 C 0.24850 -0.11428 0.36437
 C821 C 0.26905 -0.09036 0.35949
 C822 C 0.28153 -0.08563 0.33085
 H823 H 0.22301 -0.15084 0.34536
 H824 H 0.23823 -0.11732 0.38647
 H825 H 0.27481 -0.07493 0.37782
 H826 H 0.29619 -0.06582 0.32789
 H827 H 0.24910 -0.15639 0.23847
 H828 H 0.28408 -0.11410 0.23019
 C829 C 0.21164 -0.18066 0.72818
 C830 C 0.24375 -0.17591 0.73208
 C831 C 0.25414 -0.14709 0.74211
 C832 C 0.23415 -0.12274 0.74557
 C833 C 0.20287 -0.12621 0.73968
 C834 C 0.19115 -0.15557 0.73187
 C835 C 0.19915 -0.21020 0.72300
 C836 C 0.16772 -0.21459 0.71976
 C837 C 0.14792 -0.18998 0.72255
 C838 C 0.15936 -0.16083 0.72895
 H839 H 0.21334 -0.23039 0.72235
 H840 H 0.15863 -0.23735 0.71564
 H841 H 0.12350 -0.19363 0.72045
 H842 H 0.14296 -0.14275 0.73233
 H843 H 0.27832 -0.14259 0.74546
 H844 H 0.24341 -0.10058 0.75196
 C845 C 0.76885 0.38242 0.21593
 C846 C 0.75819 0.35163 0.21459
 C847 C 0.72729 0.34533 0.22024
 C848 C 0.70706 0.36872 0.22718
 C849 C 0.71710 0.39922 0.22939
 C850 C 0.74852 0.40615 0.22475
 C851 C 0.79916 0.39030 0.20819
 C852 C 0.80998 0.42022 0.21158
 C853 C 0.79080 0.44289 0.22249
 C854 C 0.76035 0.43606 0.22900
 H855 H 0.81455 0.37358 0.19899
 H856 H 0.83340 0.42580 0.20587
 H857 H 0.79946 0.46598 0.22561
 H858 H 0.74637 0.45435 0.23765
 H859 H 0.71872 0.32197 0.21938
 H860 H 0.68319 0.36296 0.23058
 C861 C 0.71059 0.67283 0.26711
 C862 C 0.74239 0.66749 0.27085
 C863 C 0.75333 0.63738 0.27022
 C864 C 0.73343 0.61267 0.26669
 C865 C 0.70186 0.61715 0.26385
 C866 C 0.69008 0.64742 0.26427
 C867 C 0.69873 0.70287 0.26589
 C868 C 0.66734 0.70776 0.26343
 C869 C 0.64721 0.68296 0.26211
 C870 C 0.65835 0.65305 0.26257
 H871 H 0.71353 0.72282 0.26658
 H872 H 0.65857 0.73092 0.26269
 H873 H 0.62284 0.68691 0.26061
 H874 H 0.64183 0.63453 0.26179
 H875 H 0.77752 0.63291 0.27312
 H876 H 0.74277 0.58971 0.26634
 C877 C 0.26107 0.11943 0.78284
 C878 C 0.24795 0.14905 0.78043
 C879 C 0.21644 0.15184 0.77540
 C880 C 0.19798 0.12600 0.77195
 C881 C 0.21044 0.09652 0.77333
 C882 C 0.24216 0.09293 0.77916
 C883 C 0.29242 0.11551 0.78963
 C884 C 0.30491 0.08625 0.79219
 C885 C 0.28648 0.06041 0.78846
 C886 C 0.25536 0.06359 0.78220
 H887 H 0.30746 0.13490 0.79341
 H888 H 0.32899 0.08361 0.79737
 H889 H 0.29628 0.03776 0.79073
 H890 H 0.24178 0.04288 0.78015
 H891 H 0.20610 0.17432 0.77369
 H892 H 0.17375 0.12902 0.76767
 C893 C 0.20904 0.23816 0.12581
 C894 C 0.21238 0.25076 0.15525
 C895 C 0.22045 0.28170 0.15840
 C896 C 0.22583 0.30009 0.13305
 C897 C 0.22330 0.28813 0.10373
 C898 C 0.21514 0.25683 0.09985
 C899 C 0.19948 0.20747 0.12157
 C900 C 0.19731 0.19509 0.09256
 C901 C 0.20454 0.21293 0.06730
 C902 C 0.21341 0.24348 0.07078
 H903 H 0.19340 0.19282 0.14053
 H904 H 0.19011 0.17148 0.08969
 H905 H 0.20316 0.20308 0.04486
 H906 H 0.21905 0.25637 0.05051
 H907 H 0.22307 0.29159 0.18076
 H908 H 0.23203 0.32395 0.13631
 C909 C 0.69360 0.75412 0.63556
 C910 C 0.71648 0.75276 0.65848
 C911 C 0.74284 0.77090 0.65581
 C912 C 0.74681 0.79041 0.63102
 C913 C 0.72462 0.79224 0.60805
 C914 C 0.69757 0.77426 0.61027
 C915 C 0.66703 0.73562 0.63702
 C916 C 0.64450 0.73760 0.61457
 C917 C 0.64798 0.75790 0.59031
 C918 C 0.67420 0.77612 0.58808
 H919 H 0.66349 0.71940 0.65537
 H920 H 0.62420 0.72336 0.61603
 H921 H 0.63029 0.75950 0.57308
 H922 H 0.67585 0.79173 0.56897
 H923 H 0.76043 0.77007 0.67323
 H924 H 0.76759 0.80399 0.62954
 C925 C 0.79742 0.74661 0.36434
 C926 C 0.77960 0.75180 0.33786
 C927 C 0.75753 0.77487 0.33757
 C928 C 0.75342 0.79340 0.36277
 C929 C 0.77113 0.78927 0.38907
 C930 C 0.79297 0.76532 0.39030
 C931 C 0.81910 0.72276 0.36581
 C932 C 0.83594 0.71740 0.39226
 C933 C 0.83129 0.73535 0.41778
 C934 C 0.80993 0.75897 0.41698
 H935 H 0.82303 0.70790 0.34669
 H936 H 0.85245 0.69902 0.39308
 H937 H 0.84416 0.73081 0.43837
 H938 H 0.80660 0.77181 0.43757
 H939 H 0.74361 0.77879 0.31749
 H940 H 0.73651 0.81144 0.36160
 C941 C 0.25992 0.27781 -0.17301
 C942 C 0.27047 0.24766 -0.16689
 C943 C 0.27481 0.23806 -0.13680
 C944 C 0.26983 0.25802 -0.11288
 C945 C 0.26039 0.28821 -0.11829
 C946 C 0.25490 0.29828 -0.14849
 C947 C 0.25351 0.28784 -0.20291
 C948 C 0.24286 0.31744 -0.20854
 C949 C 0.23804 0.33744 -0.18461
 C950 C 0.24378 0.32801 -0.15483
 H951 H 0.25624 0.27287 -0.22214
 H952 H 0.23807 0.32480 -0.23158
 H953 H 0.22952 0.36029 -0.18912
 H954 H 0.23905 0.34407 -0.13691
 H955 H 0.28263 0.21501 -0.13183
 H956 H 0.27391 0.25000 -0.08989
 C957 C 0.74163 0.23164 -0.16096
 C958 C 0.71577 0.25107 -0.15995
 C959 C 0.69574 0.24894 -0.13540
 C960 C 0.70145 0.22875 -0.11146
 C961 C 0.72731 0.20995 -0.11136
 C962 C 0.74739 0.21081 -0.13651
 C963 C 0.76147 0.23191 -0.18609
 C964 C 0.78650 0.21229 -0.18703
 C965 C 0.79203 0.19183 -0.16328
 C966 C 0.77263 0.19087 -0.13832
 H967 H 0.75765 0.24692 -0.20537
 H968 H 0.80150 0.21275 -0.20645
 H969 H 0.81130 0.17643 -0.16432
 H970 H 0.77739 0.17407 -0.12077
 H971 H 0.67578 0.26350 -0.13450
 H972 H 0.68581 0.22819 -0.09251
 C973 C 0.22946 0.72165 0.33609
 C974 C 0.22293 0.75296 0.34168
 C975 C 0.22260 0.76358 0.37161
 C976 C 0.22758 0.74365 0.39592
 C977 C 0.23287 0.71246 0.39106
 C978 C 0.23421 0.70120 0.36103
 C979 C 0.23211 0.71034 0.30629
 C980 C 0.23850 0.67951 0.30120
 C981 C 0.24274 0.65947 0.32557
 C982 C 0.24081 0.67013 0.35523
 H983 H 0.22971 0.72519 0.28667
 H984 H 0.24040 0.67117 0.27823
 H985 H 0.24785 0.63560 0.32146
 H986 H 0.24485 0.65390 0.37349
 H987 H 0.21785 0.78746 0.37621
 H988 H 0.22670 0.75250 0.41880
 C989 C 0.28415 0.76097 0.63227
 C990 C 0.28486 0.74687 0.66138
 C991 C 0.28258 0.71489 0.66379
 C992 C 0.27854 0.69687 0.63814
 C993 C 0.27660 0.71025 0.60923
 C994 C 0.27995 0.74250 0.60598
 C995 C 0.28828 0.79293 0.62865
 C996 C 0.28782 0.80643 0.59988
 C997 C 0.28367 0.78842 0.57423
 C998 C 0.27995 0.75675 0.57711
 H999 H 0.29232 0.80772 0.64788
 H1000 H 0.29100 0.83097 0.59746
 H1001 H 0.28362 0.79902 0.55195
 H1002 H 0.27752 0.74359 0.55652
 H1003 H 0.28329 0.70380 0.68587
 H1004 H 0.27624 0.67225 0.64092
 C1005 C 0.75610 0.23662 0.15853
 C1006 C 0.78209 0.25617 0.15749
 C1007 C 0.80193 0.25471 0.13280
 C1008 C 0.79617 0.23471 0.10897
 C1009 C 0.77047 0.21538 0.10912
 C1010 C 0.75033 0.21587 0.13425
 C1011 C 0.73616 0.23667 0.18357
 C1012 C 0.71111 0.21677 0.18469
 C1013 C 0.70567 0.19626 0.16119
 C1014 C 0.72512 0.19557 0.13628
 H1015 H 0.73988 0.25179 0.20261
 H1016 H 0.69603 0.21705 0.20404
 H1017 H 0.68640 0.18061 0.16238
 H1018 H 0.72039 0.17874 0.11896
 H1019 H 0.82195 0.26945 0.13186
 H1020 H 0.81185 0.23447 0.09005
 C1021 C 0.44525 0.37683 0.49285
 C1022 C 0.46425 0.40313 0.49560
 C1023 C 0.48784 0.40343 0.51719
 C1024 C 0.49230 0.37855 0.53665
 C1025 C 0.47336 0.35258 0.53505
 C1026 C 0.44991 0.35126 0.51265
 C1027 C 0.42216 0.37512 0.47037
 C1028 C 0.40394 0.34893 0.46757
 C1029 C 0.40863 0.32386 0.48673
 C1030 C 0.43148 0.32481 0.50893
 H1031 H 0.41824 0.39377 0.45455
 H1032 H 0.38632 0.34796 0.45023
 H1033 H 0.39465 0.30345 0.48419
 H1034 H 0.43478 0.30451 0.52277
 H1035 H 0.50265 0.42333 0.51928
 H1036 H 0.51041 0.37978 0.55351
 C1037 C -0.01997 0.91811 0.03308
 C1038 C -0.02998 0.91273 0.00285
 C1039 C -0.03374 0.88253 -0.00722
 C1040 C -0.02855 0.85777 0.01223
 C1041 C -0.01960 0.86248 0.04237
 C1042 C -0.01501 0.89275 0.05306
 C1043 C -0.01399 0.94807 0.04369
 C1044 C -0.00417 0.95293 0.07344
 C1045 C 0.00024 0.92817 0.09306
 C1046 C -0.00493 0.89832 0.08303
 H1047 H -0.01643 0.96796 0.02911
 H1048 H 0.00024 0.97603 0.08126
 H1049 H 0.00800 0.93210 0.11608
 H1050 H -0.00068 0.87971 0.09886
 H1051 H -0.04112 0.87809 -0.03030
 H1052 H -0.03193 0.83470 0.00381
 C1053 C 0.02148 0.58235 0.03784
 C1054 C 0.02633 0.58747 0.00642
 C1055 C 0.02634 0.61750 -0.00508
 C1056 C 0.02242 0.64241 0.01402
 C1057 C 0.01843 0.63808 0.04523
 C1058 C 0.01755 0.60789 0.05743
 C1059 C 0.01959 0.55239 0.05012
 C1060 C 0.01446 0.54772 0.08099
 C1061 C 0.01072 0.57264 0.10012
 C1062 C 0.01204 0.60247 0.08854
 H1063 H 0.02165 0.53233 0.03601
 H1064 H 0.01310 0.52462 0.09008
 H1065 H 0.00648 0.56884 0.12402
 H1066 H 0.00832 0.62111 0.10412
 H1067 H 0.02982 0.62170 -0.02907
 H1068 H 0.02290 0.66536 0.00442
 C1069 C 0.52862 0.08365 0.53295
 C1070 C 0.53320 0.09116 0.50191
 C1071 C 0.53125 0.12181 0.49240
 C1072 C 0.52548 0.14503 0.51303
 C1073 C 0.52162 0.13837 0.54387
 C1074 C 0.52296 0.10750 0.55413
 C1075 C 0.52864 0.05291 0.54329
 C1076 C 0.52389 0.04591 0.57382
 C1077 C 0.51864 0.06922 0.59451
 C1078 C 0.51796 0.09973 0.58485
 H1079 H 0.53189 0.03400 0.52794
 H1080 H 0.52403 0.02224 0.58141
 H1081 H 0.51476 0.06360 0.61813
 H1082 H 0.51317 0.11704 0.60158
 H1083 H 0.53454 0.12786 0.46875
 H1084 H 0.52430 0.16851 0.50490
 C1085 C 0.00485 0.08721 0.47372
 C1086 C -0.02098 0.08442 0.49286
 C1087 C -0.04322 0.10737 0.49247
 C1088 C -0.03993 0.13328 0.47412
 C1089 C -0.01430 0.13702 0.45558
 C1090 C 0.00821 0.11373 0.45491
 C1091 C 0.02699 0.06382 0.47223
 C1092 C 0.05201 0.06667 0.45298
 C1093 C 0.05528 0.09254 0.43460
 C1094 C 0.03357 0.11581 0.43532
 H1095 H 0.02505 0.04300 0.48558
 H1096 H 0.06880 0.04856 0.45210
 H1097 H 0.07460 0.09447 0.41948
 H1098 H 0.03669 0.13514 0.42013
 H1099 H -0.06320 0.10531 0.50676
 H1100 H -0.05738 0.15080 0.47464
 C1101 C 0.50738 0.58405 0.97671
 C1102 C 0.47856 0.57893 0.99048
 C1103 C 0.45508 0.60020 0.98596
 C1104 C 0.45984 0.62658 0.96865
 C1105 C 0.48821 0.63253 0.95526
 C1106 C 0.51241 0.61133 0.95937
 C1107 C 0.53125 0.56253 0.97957
 C1108 C 0.55975 0.56831 0.96670
 C1109 C 0.56503 0.59548 0.95077
 C1110 C 0.54169 0.61687 0.94711
 H1111 H 0.52810 0.54103 0.99156
 H1112 H 0.57788 0.55167 0.96920
 H1113 H 0.58731 0.59997 0.94111
 H1114 H 0.54692 0.63775 0.93477
 H1115 H 0.43297 0.59658 0.99637
 H1116 H 0.44117 0.64258 0.96569
 C1117 C 0.52267 0.87926 1.02144
 C1118 C 0.53263 0.90820 1.00952
 C1119 C 0.53760 0.91086 0.97808
 C1120 C 0.53168 0.88654 0.95862
 C1121 C 0.52070 0.85850 0.96969
 C1122 C 0.51563 0.85474 1.00121
 C1123 C 0.52150 0.87328 1.05302
 C1124 C 0.51063 0.84531 1.06419
 C1125 C 0.50130 0.82244 1.04430
 C1126 C 0.50392 0.82691 1.01311
 H1127 H 0.52964 0.88973 1.06946
 H1128 H 0.50953 0.84133 1.08842
 H1129 H 0.49257 0.80088 1.05310
 H1130 H 0.49679 0.80834 0.99848
 H1131 H 0.54497 0.93241 0.96807
 H1132 H 0.53583 0.88962 0.93458
 C1133 C -0.00193 0.41326 0.48164
 C1134 C 0.02491 0.41451 0.49984
 C1135 C 0.04664 0.39122 0.49774
 C1136 C 0.04194 0.36649 0.47847
 C1137 C 0.01541 0.36433 0.46061
 C1138 C -0.00667 0.38802 0.46173
 C1139 C -0.02377 0.43698 0.48218
 C1140 C -0.04972 0.43579 0.46367
 C1141 C -0.05423 0.41129 0.44405
 C1142 C -0.03291 0.38770 0.44286
 H1143 H -0.02087 0.45677 0.49659
 H1144 H -0.06626 0.45414 0.46433
 H1145 H -0.07426 0.41069 0.42949
 H1146 H -0.03703 0.36953 0.42675
 H1147 H 0.06733 0.39210 0.51139
 H1148 H 0.05908 0.34868 0.47765
 C1149 C 0.37290 0.48445 0.46273
 C1150 C 0.40348 0.49535 0.46522
 C1151 C 0.40890 0.52625 0.47207
 C1152 C 0.38477 0.54617 0.47723
 C1153 C 0.35447 0.53578 0.47589
 C1154 C 0.34821 0.50479 0.46839
 C1155 C 0.36625 0.45404 0.45391
 C1156 C 0.33611 0.44369 0.45158
 C1157 C 0.31204 0.46344 0.45752
 C1158 C 0.31790 0.49377 0.46566
 H1159 H 0.38414 0.43815 0.44827
 H1160 H 0.33140 0.42028 0.44487
 H1161 H 0.28869 0.45530 0.45549
 H1162 H 0.29850 0.50849 0.46946
 H1163 H 0.43210 0.53494 0.47385
 H1164 H 0.38978 0.56987 0.48270
 C1165 C 0.91726 0.03872 -0.02786
 C1166 C 0.91252 0.00635 -0.02548
 C1167 C 0.88361 -0.00458 -0.01657
 C1168 C 0.85928 0.01526 -0.01246
 C1169 C 0.86284 0.04692 -0.01654
 C1170 C 0.89218 0.05905 -0.02349
 C1171 C 0.94676 0.05154 -0.03204
 C1172 C 0.95115 0.08319 -0.03369
 C1173 C 0.92657 0.10286 -0.03024
 C1174 C 0.89745 0.09106 -0.02475
 H1175 H 0.96695 0.03744 -0.03308
 H1176 H 0.97387 0.09252 -0.03707
 H1177 H 0.93021 0.12744 -0.03108
 H1178 H 0.87941 0.10733 -0.02076
 H1179 H 0.87919 -0.02898 -0.01436
 H1180 H 0.83712 0.00567 -0.00674
 C1181 C 0.62413 -0.01095 0.04114
 C1182 C 0.59388 0.00008 0.03716
 C1183 C 0.58929 0.03081 0.02887
 C1184 C 0.61397 0.05041 0.02376
 C1185 C 0.64400 0.03986 0.02662
 C1186 C 0.64940 0.00907 0.03558
 C1187 C 0.62987 -0.04119 0.05132
 C1188 C 0.65972 -0.05164 0.05517
 C1189 C 0.68437 -0.03219 0.04935
 C1190 C 0.67939 -0.00206 0.03982
 H1191 H 0.61146 -0.05689 0.05680
 H1192 H 0.66375 -0.07489 0.06292
 H1193 H 0.70749 -0.04041 0.05254
 H1194 H 0.69919 0.01244 0.03612
 H1195 H 0.56632 0.03959 0.02595
 H1196 H 0.60963 0.07398 0.01715
 C1197 C 0.08030 0.54009 0.52869
 C1198 C 0.08386 0.50758 0.52714
 C1199 C 0.11261 0.49583 0.51935
 C1200 C 0.13780 0.51500 0.51549
 C1201 C 0.13532 0.54677 0.51874
 C1202 C 0.10628 0.55971 0.52463
 C1203 C 0.05119 0.55371 0.53171
 C1204 C 0.04799 0.58547 0.53260
 C1205 C 0.07342 0.60445 0.52951
 C1206 C 0.10222 0.59185 0.52513
 H1207 H 0.03044 0.54017 0.53240
 H1208 H 0.02554 0.59542 0.53509
 H1209 H 0.07071 0.62912 0.52977
 H1210 H 0.12100 0.60760 0.52138
 H1211 H 0.11619 0.47132 0.51783
 H1212 H 0.15973 0.50480 0.51057
 C1213 C 0.12029 0.51180 -0.03122
 C1214 C 0.08994 0.50014 -0.02996
 C1215 C 0.08509 0.46859 -0.02576
 C1216 C 0.10959 0.44864 -0.02225
 C1217 C 0.13967 0.45966 -0.02266
 C1218 C 0.14535 0.49138 -0.02723
 C1219 C 0.12637 0.54312 -0.03717
 C1220 C 0.15633 0.55416 -0.03828
 C1221 C 0.18077 0.53428 -0.03386
 C1222 C 0.17546 0.50315 -0.02854
 H1223 H 0.10816 0.55930 -0.04140
 H1224 H 0.16063 0.57824 -0.04278
 H1225 H 0.20398 0.54299 -0.03486
 H1226 H 0.19511 0.48841 -0.02571
 H1227 H 0.06205 0.45936 -0.02493
 H1228 H 0.10506 0.42439 -0.01893
 C1229 C 0.62951 1.02167 0.46876
 C1230 C 0.59998 1.00973 0.46112
 C1231 C 0.59677 0.97796 0.45655
 C1232 C 0.62098 0.95806 0.46170
 C1233 C 0.64954 0.96902 0.47122
 C1234 C 0.65433 1.00109 0.47406
 C1235 C 0.63564 1.05359 0.46891
 C1236 C 0.66469 1.06489 0.47594
 C1237 C 0.68853 1.04480 0.48200
 C1238 C 0.68364 1.01324 0.48068
 H1239 H 0.61844 1.07021 0.46264
 H1240 H 0.66885 1.08939 0.47611
 H1241 H 0.71114 1.05372 0.48703
 H1242 H 0.70323 0.99860 0.48415
 H1243 H 0.57478 0.96801 0.45061
 H1244 H 0.61711 0.93365 0.45903
 C1245 C 0.92500 0.95734 0.51826
 C1246 C 0.92164 0.98990 0.51902
 C1247 C 0.89239 1.00236 0.51434
 C1248 C 0.86675 0.98365 0.51137
 C1249 C 0.86921 0.95169 0.51239
 C1250 C 0.89856 0.93818 0.51507
 C1251 C 0.95415 0.94342 0.51805
 C1252 C 0.95714 0.91167 0.51669
 C1253 C 0.93134 0.89306 0.51442
 C1254 C 0.90236 0.90608 0.51315
 H1255 H 0.97496 0.95682 0.51786
 H1256 H 0.97966 0.90149 0.51675
 H1257 H 0.93384 0.86843 0.51288
 H1258 H 0.88316 0.89072 0.50987
 H1259 H 0.88895 1.02696 0.51463
 H1260 H 0.84454 0.99430 0.50889
 C1261 C 0.41507 0.46752 -0.01002
 C1262 C 0.41688 0.48557 0.01658
 C1263 C 0.39289 0.48458 0.03743
 C1264 C 0.36713 0.46652 0.03218
 C1265 C 0.36451 0.44879 0.00594
 C1266 C 0.38846 0.44928 -0.01560
 C1267 C 0.43925 0.46689 -0.03105
 C1268 C 0.43681 0.44963 -0.05747
 C1269 C 0.41040 0.43270 -0.06344
 C1270 C 0.38638 0.43247 -0.04280
 H1271 H 0.46027 0.47951 -0.02721
 H1272 H 0.45548 0.44948 -0.07345
 H1273 H 0.40854 0.41958 -0.08413
 H1274 H 0.36622 0.41916 -0.04846
 H1275 H 0.39396 0.49829 0.05783
 H1276 H 0.34901 0.46634 0.04881
 C1277 C 0.51771 0.49741 0.40979
 C1278 C 0.49983 0.47017 0.41053
 C1279 C 0.50241 0.44889 0.38706
 C1280 C 0.52190 0.45435 0.36280
 C1281 C 0.53958 0.48119 0.36131
 C1282 C 0.53752 0.50313 0.38481
 C1283 C 0.51659 0.51898 0.43350
 C1284 C 0.53382 0.54597 0.43215
 C1285 C 0.55245 0.55198 0.40732
 C1286 C 0.55435 0.53086 0.38381
 H1287 H 0.50259 0.51515 0.45331
 H1288 H 0.53264 0.56235 0.45044
 H1289 H 0.56557 0.57309 0.40631
 H1290 H 0.56897 0.53655 0.36489
 H1291 H 0.48885 0.42799 0.38735
 H1292 H 0.52325 0.43744 0.34498
 C1293 C -0.02005 -0.03291 0.87661
 C1294 C -0.00682 -0.03204 0.90610
 C1295 C 0.02490 -0.02865 0.90930
 C1296 C 0.04353 -0.02572 0.88401
 C1297 C 0.03105 -0.02591 0.85470
 C1298 C -0.00094 -0.02963 0.85069
 C1299 C -0.05170 -0.03791 0.87223
 C1300 C -0.06429 -0.03894 0.84310
 C1301 C -0.04566 -0.03544 0.81783
 C1302 C -0.01426 -0.03102 0.82146
 H1303 H -0.06696 -0.04146 0.89113
 H1304 H -0.08860 -0.04272 0.84010
 H1305 H -0.05556 -0.03646 0.79528
 H1306 H -0.00056 -0.02902 0.80121
 H1307 H 0.03532 -0.02808 0.93166
 H1308 H 0.06798 -0.02307 0.88733
 C1309 C 0.03229 -0.00504 0.58163
 C1310 C 0.01159 0.01985 0.58123
 C1311 C 0.01039 0.03956 0.60610
 C1312 C 0.02857 0.03443 0.63164
 C1313 C 0.04849 0.00942 0.63311
 C1314 C 0.05088 -0.01036 0.60781
 C1315 C 0.03545 -0.02434 0.55629
 C1316 C 0.05606 -0.04860 0.55688
 C1317 C 0.07420 -0.05383 0.58244
 C1318 C 0.07189 -0.03483 0.60763
 H1319 H 0.02244 -0.02057 0.53567
 H1320 H 0.05820 -0.06323 0.53728
 H1321 H 0.09038 -0.07252 0.58265
 H1322 H 0.08695 -0.03930 0.62669
 H1323 H -0.00521 0.05878 0.60593
 H1324 H 0.02670 0.04983 0.65071
 C1325 C 0.48636 0.52002 0.11513
 C1326 C 0.50043 0.52069 0.08620
 C1327 C 0.53216 0.51726 0.08418
 C1328 C 0.55002 0.51305 0.11008
 C1329 C 0.53675 0.51200 0.13888
 C1330 C 0.50458 0.51489 0.14161
 C1331 C 0.45464 0.52483 0.11842
 C1332 C 0.44099 0.52298 0.14685
 C1333 C 0.45855 0.51643 0.17250
 C1334 C 0.49003 0.51240 0.17003
 H1335 H 0.44012 0.53027 0.09920
 H1336 H 0.41663 0.52650 0.14898
 H1337 H 0.44776 0.51464 0.19446
 H1338 H 0.50270 0.50709 0.19053
 H1339 H 0.54321 0.51772 0.06225
 H1340 H 0.57455 0.51091 0.10766
 C1341 C 0.46556 -0.01710 0.08495
 C1342 C 0.49667 -0.02369 0.09143
 C1343 C 0.50698 -0.02381 0.12157
 C1344 C 0.48697 -0.01839 0.14528
 C1345 C 0.45596 -0.01276 0.13963
 C1346 C 0.44501 -0.01166 0.10928
 C1347 C 0.45457 -0.01501 0.05482
 C1348 C 0.42400 -0.00822 0.04881
 C1349 C 0.40393 -0.00302 0.07255
 C1350 C 0.41426 -0.00450 0.10251
 H1351 H 0.46949 -0.01817 0.03565
 H1352 H 0.41590 -0.00672 0.02559
 H1353 H 0.38029 0.00249 0.06771
 H1354 H 0.39803 0.00037 0.12021
 H1355 H 0.53071 -0.02868 0.12683
 H1356 H 0.49565 -0.01909 0.16836
 C1357 C 1.01208 0.47105 0.62369
 C1358 C 0.99972 0.47178 0.59384
 C1359 C 0.96823 0.47594 0.58964
 C1360 C 0.94906 0.48016 0.61428
 C1361 C 0.96079 0.48046 0.64388
 C1362 C 0.99245 0.47557 0.64892
 C1363 C 1.04336 0.46509 0.62910
 C1364 C 1.05511 0.46424 0.65857
 C1365 C 1.03599 0.46889 0.68318
 C1366 C 1.00492 0.47431 0.67854
 H1367 H 1.05895 0.46064 0.61074
 H1368 H 1.07915 0.45971 0.66236
 H1369 H 1.04522 0.46798 0.70602
 H1370 H 0.99079 0.47714 0.69835
 H1371 H 0.95847 0.47632 0.56697
 H1372 H 0.92487 0.48367 0.61020
 C1373 C 0.97504 0.50109 0.91404
 C1374 C 0.99362 0.52781 0.91541
 C1375 C 0.99214 0.54957 0.89196
 C1376 C 0.97309 0.54498 0.86697
 C1377 C 0.95478 0.51864 0.86488
 C1378 C 0.95553 0.49640 0.88846
 C1379 C 0.97524 0.47903 0.93765
 C1380 C 0.95708 0.45269 0.93578
 C1381 C 0.93843 0.44785 0.91053
 C1382 C 0.93758 0.46942 0.88702
 H1383 H 0.98924 0.48199 0.95776
 H1384 H 0.95751 0.43594 0.95402
 H1385 H 0.92449 0.42730 0.90917
 H1386 H 0.92282 0.46475 0.86778
 H1387 H 1.00627 0.57006 0.89279
 H1388 H 0.97266 0.56210 0.84903
 C1389 C 0.50419 0.06130 0.38191
 C1390 C 0.50609 0.03864 0.40507
 C1391 C 0.48864 0.01176 0.40272
 C1392 C 0.46878 0.00734 0.37830
 C1393 C 0.46589 0.02962 0.35542
 C1394 C 0.48407 0.05668 0.35676
 C1395 C 0.52244 0.08813 0.38284
 C1396 C 0.52086 0.10990 0.35957
 C1397 C 0.50146 0.10525 0.33485
 C1398 C 0.48336 0.07887 0.33326
 H1399 H 0.53829 0.09239 0.40130
 H1400 H 0.53499 0.13034 0.36058
 H1401 H 0.50062 0.12207 0.31669
 H1402 H 0.46921 0.07590 0.31327
 H1403 H 0.49016 -0.00582 0.42016
 H1404 H 0.45520 -0.01351 0.37745
   
