data_POSCAR
  _audit_creation_date              2014-09-24
  _audit_creation_method            'ToBaCCo'
  _symmetry_space_group_name_H-M    'P1'
  _symmetry_Int_Tables_number       1
  _symmetry_cell_setting            triclinic
  loop_
  _symmetry_equiv_pos_as_xyz
 x,y,z
_cell_length_a 62.2161
_cell_length_b 65.8541
_cell_length_c 64.5409
_cell_angle_alpha 88.966400
_cell_angle_beta 89.042300
_cell_angle_gamma 89.424400
loop_
  _atom_site_label
  _atom_site_type_symbol
  _atom_site_fract_x
  _atom_site_fract_y
  _atom_site_fract_z
N1 N 0.17603 0.21770 0.22634
 N2 N 0.18079 0.20026 0.23542
 C3 C 0.16676 0.19678 0.25113
 C4 C 0.15228 0.21289 0.25200
 C5 C 0.15875 0.22591 0.23598
 H6 H 0.16724 0.18353 0.26124
 H7 H 0.15134 0.24019 0.23147
 Cu8 Cu 0.20464 0.18345 0.22590
 Cu9 Cu 0.19260 0.22822 0.20264
 Cu10 Cu 0.23930 0.20190 0.18989
 N11 N 0.23254 0.17083 0.22101
 N12 N 0.24614 0.17814 0.20706
 C13 C 0.26398 0.16641 0.20680
 C14 C 0.26142 0.15084 0.22135
 C15 C 0.24123 0.15420 0.23009
 H16 H 0.27761 0.16882 0.19648
 H17 H 0.23344 0.14531 0.24223
 N18 N 0.22946 0.22624 0.17442
 N19 N 0.21165 0.23627 0.17921
 C20 C 0.20922 0.25190 0.16566
 C21 C 0.22634 0.25175 0.15160
 C22 C 0.23881 0.23520 0.15772
 H23 H 0.19592 0.26256 0.16604
 H24 H 0.25352 0.22988 0.15046
 H25 H 0.20613 0.20124 0.19246
 H26 H 0.22071 0.21480 0.21315
 N27 N 0.67472 0.72466 0.72632
 N28 N 0.68060 0.70758 0.73552
 C29 C 0.66625 0.70293 0.75065
 C30 C 0.65047 0.71790 0.75110
 C31 C 0.65641 0.73148 0.73537
 H32 H 0.66749 0.68987 0.76095
 H33 H 0.64816 0.74537 0.73094
 Cu34 Cu 0.70678 0.69324 0.72741
 Cu35 Cu 0.69182 0.73707 0.70386
 Cu36 Cu 0.73934 0.71228 0.69013
 N37 N 0.73268 0.67883 0.71853
 N38 N 0.74548 0.68649 0.70408
 C39 C 0.76183 0.67341 0.70055
 C40 C 0.75921 0.65658 0.71352
 C41 C 0.74050 0.66061 0.72473
 H42 H 0.77460 0.67596 0.68928
 H43 H 0.73286 0.65083 0.73621
 N44 N 0.73028 0.73837 0.67758
 N45 N 0.71157 0.74718 0.68175
 C46 C 0.70945 0.76380 0.66938
 C47 C 0.72788 0.76567 0.65725
 C48 C 0.74073 0.74938 0.66289
 H49 H 0.69573 0.77402 0.66940
 H50 H 0.75630 0.74557 0.65626
 H51 H 0.70619 0.71058 0.69374
 H52 H 0.72076 0.72526 0.71352
 N53 N 0.32006 0.77669 0.72376
 N54 N 0.31616 0.79355 0.73378
 C55 C 0.32980 0.79459 0.74973
 C56 C 0.34297 0.77741 0.74968
 C57 C 0.33621 0.76646 0.73291
 H58 H 0.33016 0.80695 0.76049
 H59 H 0.34266 0.75220 0.72748
 Cu60 Cu 0.29387 0.81256 0.72452
 Cu61 Cu 0.30437 0.76905 0.69940
 Cu62 Cu 0.26506 0.80247 0.68230
 N63 N 0.27142 0.83111 0.71469
 N64 N 0.26062 0.82705 0.69799
 C65 C 0.24631 0.84201 0.69433
 C66 C 0.24796 0.85645 0.70961
 C67 C 0.26420 0.84891 0.72232
 H68 H 0.23532 0.84202 0.68157
 H69 H 0.27035 0.85578 0.73605
 N70 N 0.27182 0.77680 0.66849
 N71 N 0.28677 0.76401 0.67504
 C72 C 0.28742 0.74785 0.66256
 C73 C 0.27210 0.75057 0.64741
 C74 C 0.26254 0.76912 0.65170
 H75 H 0.29809 0.73494 0.66453
 H76 H 0.24983 0.77656 0.64315
 H77 H 0.29695 0.79836 0.68995
 H78 H 0.27656 0.78496 0.70668
 N79 N 0.81758 0.27223 0.21949
 N80 N 0.81308 0.28887 0.22966
 C81 C 0.82725 0.29070 0.24508
 C82 C 0.84146 0.27424 0.24460
 C83 C 0.83465 0.26289 0.22804
 H84 H 0.82712 0.30312 0.25578
 H85 H 0.84153 0.24888 0.22241
 Cu86 Cu 0.78907 0.30643 0.22165
 Cu87 Cu 0.80129 0.26379 0.19576
 Cu88 Cu 0.75961 0.29532 0.18012
 N89 N 0.76579 0.32420 0.21227
 N90 N 0.75455 0.31974 0.19594
 C91 C 0.73956 0.33424 0.19278
 C92 C 0.74137 0.34868 0.20795
 C93 C 0.75823 0.34177 0.22010
 H94 H 0.72794 0.33405 0.18054
 H95 H 0.76457 0.34903 0.23354
 N96 N 0.76714 0.26991 0.16610
 N97 N 0.78299 0.25785 0.17209
 C98 C 0.78399 0.24170 0.15961
 C99 C 0.76798 0.24365 0.14504
 C100 C 0.75763 0.26175 0.14966
 H101 H 0.79537 0.22929 0.16120
 H102 H 0.74424 0.26857 0.14158
 H103 H 0.79190 0.29278 0.18686
 H104 H 0.77279 0.27816 0.20392
 N105 N 0.82365 0.72553 0.27868
 N106 N 0.81943 0.70714 0.27245
 C107 C 0.83330 0.70207 0.25719
 C108 C 0.84712 0.71815 0.25349
 C109 C 0.84049 0.73279 0.26755
 H110 H 0.83297 0.68780 0.24922
 H111 H 0.84705 0.74779 0.26930
 Cu112 Cu 0.79556 0.69169 0.28371
 Cu113 Cu 0.80636 0.73857 0.30035
 Cu114 Cu 0.75838 0.71493 0.31342
 N115 N 0.76710 0.68065 0.28779
 N116 N 0.75229 0.68993 0.29895
 C117 C 0.73412 0.67896 0.29890
 C118 C 0.73785 0.66185 0.28709
 C119 C 0.75898 0.66351 0.28027
 H120 H 0.71947 0.68292 0.30719
 H121 H 0.76781 0.65318 0.27038
 N122 N 0.76779 0.74013 0.32640
 N123 N 0.78624 0.74897 0.32177
 C124 C 0.78872 0.76488 0.33433
 C125 C 0.77094 0.76613 0.34751
 C126 C 0.75802 0.75019 0.34194
 H127 H 0.80260 0.77462 0.33411
 H128 H 0.74304 0.74569 0.34928
 H129 H 0.79176 0.71326 0.31375
 H130 H 0.77921 0.72456 0.28992
 N131 N 0.32661 0.24033 -0.22196
 N132 N 0.32294 0.22387 -0.23246
 C133 C 0.33802 0.22194 -0.24745
 C134 C 0.35216 0.23807 -0.24648
 C135 C 0.34427 0.24947 -0.22997
 H136 H 0.33845 0.20965 -0.25828
 H137 H 0.35083 0.26332 -0.22410
 Cu138 Cu 0.29869 0.20653 -0.22579
 Cu139 Cu 0.30811 0.24821 -0.19854
 Cu140 Cu 0.26417 0.21724 -0.18717
 N141 N 0.27427 0.18927 -0.21958
 N142 N 0.26033 0.19376 -0.20480
 C143 C 0.24501 0.17940 -0.20390
 C144 C 0.24982 0.16507 -0.21879
 C145 C 0.26846 0.17188 -0.22843
 H146 H 0.23177 0.17905 -0.19284
 H147 H 0.27709 0.16464 -0.24100
 N148 N 0.27090 0.24161 -0.17117
 N149 N 0.28747 0.25342 -0.17551
 C150 C 0.28799 0.26829 -0.16144
 C151 C 0.27104 0.26566 -0.14748
 C152 C 0.26057 0.24859 -0.15419
 H153 H 0.30021 0.27982 -0.16097
 H154 H 0.24652 0.24167 -0.14712
 H155 H 0.29721 0.21948 -0.19070
 H156 H 0.28052 0.23488 -0.20895
 N157 N 0.68052 0.26650 -0.22152
 N158 N 0.68590 0.28241 -0.23294
 C159 C 0.67211 0.28431 -0.24877
 C160 C 0.65720 0.26868 -0.24721
 C161 C 0.66321 0.25776 -0.22959
 H162 H 0.67296 0.29621 -0.26047
 H163 H 0.65578 0.24429 -0.22308
 Cu164 Cu 0.71049 0.29904 -0.22592
 Cu165 Cu 0.69652 0.25777 -0.19729
 Cu166 Cu 0.73951 0.28723 -0.18362
 N167 N 0.73414 0.31604 -0.21720
 N168 N 0.74530 0.31121 -0.20070
 C169 C 0.76038 0.32532 -0.19795
 C170 C 0.75870 0.33996 -0.21352
 C171 C 0.74183 0.33351 -0.22552
 H172 H 0.77180 0.32484 -0.18552
 H173 H 0.73544 0.34111 -0.23910
 N174 N 0.73115 0.26241 -0.16820
 N175 N 0.71463 0.25128 -0.17331
 C176 C 0.71290 0.23553 -0.15981
 C177 C 0.72912 0.23677 -0.14547
 C178 C 0.74038 0.25403 -0.15133
 H179 H 0.70083 0.22390 -0.16052
 H180 H 0.75414 0.26020 -0.14371
 H181 H 0.70716 0.28648 -0.19026
 H182 H 0.72556 0.27034 -0.20638
 N183 N 0.17492 0.76757 0.26965
 N184 N 0.18179 0.78217 0.25720
 C185 C 0.16908 0.78323 0.24047
 C186 C 0.15347 0.76838 0.24258
 C187 C 0.15775 0.75883 0.26136
 H188 H 0.17109 0.79396 0.22773
 H189 H 0.14889 0.74655 0.26868
 Cu190 Cu 0.20650 0.79847 0.26435
 Cu191 Cu 0.18857 0.76071 0.29559
 Cu192 Cu 0.23154 0.78985 0.31001
 N193 N 0.22967 0.81560 0.27361
 N194 N 0.23941 0.81224 0.29127
 C195 C 0.25427 0.82669 0.29380
 C196 C 0.25385 0.83999 0.27680
 C197 C 0.23796 0.83229 0.26434
 H198 H 0.26434 0.82748 0.30722
 H199 H 0.23249 0.83844 0.24972
 N200 N 0.22092 0.76651 0.32681
 N201 N 0.20424 0.75577 0.32129
 C202 C 0.20033 0.74134 0.33579
 C203 C 0.21521 0.74291 0.35129
 C204 C 0.22815 0.75901 0.34505
 H205 H 0.18773 0.73022 0.33498
 H206 H 0.24160 0.76497 0.35332
 H207 H 0.20010 0.78981 0.30079
 H208 H 0.21904 0.77158 0.28788
 N209 N 0.47037 0.42128 0.48069
 N210 N 0.45247 0.42709 0.48998
 C211 C 0.44876 0.41484 0.50658
 C212 C 0.46523 0.40051 0.50775
 C213 C 0.47864 0.40518 0.49098
 H214 H 0.43508 0.41627 0.51699
 H215 H 0.49336 0.39750 0.48648
 Cu216 Cu 0.43573 0.45008 0.47950
 Cu217 Cu 0.48178 0.43486 0.45592
 Cu218 Cu 0.45331 0.47660 0.43757
 N219 N 0.42053 0.47414 0.46930
 N220 N 0.42750 0.48430 0.45287
 C221 C 0.41432 0.50019 0.44921
 C222 C 0.39812 0.50012 0.46416
 C223 C 0.40262 0.48333 0.47671
 H224 H 0.41665 0.51120 0.43678
 H225 H 0.39354 0.47817 0.49019
 N226 N 0.47978 0.46655 0.42415
 N227 N 0.49068 0.45063 0.43107
 C228 C 0.50798 0.44768 0.41861
 C229 C 0.50799 0.46252 0.40312
 C230 C 0.48983 0.47418 0.40716
 H231 H 0.51982 0.43576 0.42079
 H232 H 0.48419 0.48717 0.39827
 H233 H 0.46835 0.46284 0.46264
 H234 H 0.45276 0.44602 0.44547
 N235 N -0.02071 -0.07734 0.97410
 N236 N -0.03895 -0.07369 0.98395
 C237 C -0.04231 -0.08860 0.99822
 C238 C -0.02519 -0.10231 0.99722
 C239 C -0.01189 -0.09455 0.98166
 H240 H -0.05604 -0.08926 1.00868
 H241 H 0.00336 -0.10066 0.97636
 Cu242 Cu -0.05612 -0.04958 0.97706
 Cu243 Cu -0.00873 -0.05918 0.95300
 Cu244 Cu -0.03723 -0.01501 0.94245
 N245 N -0.07217 -0.02470 0.97057
 N246 N -0.06449 -0.01141 0.95700
 C247 C -0.07871 0.00386 0.95455
 C248 C -0.09638 0.00010 0.96722
 C249 C -0.09164 -0.01815 0.97732
 H250 H -0.07637 0.01676 0.94419
 H251 H -0.10184 -0.02626 0.98831
 N252 N -0.00945 -0.02145 0.92914
 N253 N 0.00087 -0.03878 0.93235
 C254 C 0.01840 -0.03938 0.91984
 C255 C 0.01923 -0.02145 0.90842
 C256 C 0.00139 -0.01042 0.91474
 H257 H 0.02980 -0.05185 0.91911
 H258 H -0.00369 0.00424 0.90869
 H259 H -0.02312 -0.03343 0.96482
 H260 H -0.03750 -0.04635 0.94361
 N261 N 1.01660 0.58128 0.97293
 N262 N 1.03295 0.57506 0.98412
 C263 C 1.03582 0.58837 0.99949
 C264 C 1.02055 0.60378 0.99763
 C265 C 1.00866 0.59868 0.98062
 H266 H 1.04835 0.58722 1.01088
 H267 H 0.99509 0.60696 0.97435
 Cu268 Cu 1.04922 0.55061 0.97660
 Cu269 Cu 1.00654 0.56671 0.94911
 Cu270 Cu 1.03453 0.52323 0.93563
 N271 N 1.06501 0.52607 0.96853
 N272 N 1.05903 0.51562 0.95249
 C273 C 1.07257 0.49983 0.94985
 C274 C 1.08808 0.50026 0.96497
 C275 C 1.08270 0.51717 0.97663
 H276 H 1.07114 0.48884 0.93774
 H277 H 1.09122 0.52276 0.98979
 N278 N 1.00932 0.53333 0.92040
 N279 N 0.99869 0.54995 0.92552
 C280 C 0.98252 0.55300 0.91217
 C281 C 0.98295 0.53754 0.89788
 C282 C 1.00021 0.52535 0.90365
 H283 H 0.97121 0.56552 0.91289
 H284 H 1.00591 0.51179 0.89607
 H285 H 1.01782 0.53848 0.95857
 H286 H 1.03599 0.55392 0.94131
 N287 N 0.53421 0.08160 0.48130
 N288 N 0.55326 0.07667 0.48838
 C289 C 0.55839 0.08945 0.50352
 C290 C 0.54163 0.10327 0.50618
 C291 C 0.52656 0.09775 0.49169
 H292 H 0.57315 0.08849 0.51208
 H293 H 0.51104 0.10472 0.48901
 Cu294 Cu 0.56945 0.05363 0.47785
 Cu295 Cu 0.52064 0.06632 0.45949
 Cu296 Cu 0.54503 0.02062 0.44705
 N297 N 0.58079 0.02643 0.47375
 N298 N 0.57089 0.01333 0.46219
 C299 C 0.58195 -0.00436 0.46241
 C300 C 0.59967 -0.00207 0.47470
 C301 C 0.59854 0.01760 0.48164
 H302 H 0.57760 -0.01779 0.45411
 H303 H 0.60971 0.02487 0.49174
 N304 N 0.51891 0.03088 0.43337
 N305 N 0.50968 0.04839 0.43791
 C306 C 0.49280 0.05148 0.42538
 C307 C 0.49133 0.03511 0.41224
 C308 C 0.50819 0.02236 0.41787
 H309 H 0.48262 0.06487 0.42556
 H310 H 0.51256 0.00801 0.41107
 H311 H 0.53456 0.03974 0.47038
 H312 H 0.54755 0.05204 0.44701
 N313 N -0.01206 0.07651 0.51619
 N314 N -0.03173 0.07456 0.50950
 C315 C -0.03519 0.08845 0.49430
 C316 C -0.01664 0.09980 0.49133
 C317 C -0.00234 0.09165 0.50555
 H318 H -0.05022 0.09030 0.48630
 H319 H 0.01384 0.09657 0.50837
 Cu320 Cu -0.05114 0.05454 0.52182
 Cu321 Cu -0.00101 0.06040 0.53920
 Cu322 Cu -0.03238 0.02083 0.55759
 N323 N -0.06664 0.02995 0.52948
 N324 N -0.05916 0.01663 0.54303
 C325 C -0.07300 0.00106 0.54490
 C326 C -0.09015 0.00493 0.53194
 C327 C -0.08553 0.02342 0.52241
 H328 H -0.07091 -0.01194 0.55517
 H329 H -0.09504 0.03137 0.51092
 N330 N -0.00466 0.02787 0.56999
 N331 N 0.00750 0.04265 0.56248
 C332 C 0.02509 0.04411 0.57417
 C333 C 0.02398 0.02967 0.58993
 C334 C 0.00484 0.01963 0.58684
 H335 H 0.03739 0.05545 0.57194
 H336 H -0.00175 0.00740 0.59627
 H337 H -0.01948 0.03527 0.53194
 H338 H -0.03009 0.05174 0.55327
 N339 N 0.48075 0.57200 0.01965
 N340 N 0.46455 0.56708 0.00803
 C341 C 0.46327 0.58041 -0.00799
 C342 C 0.47958 0.59446 -0.00637
 C343 C 0.49036 0.58856 0.01141
 H344 H 0.45129 0.57993 -0.01990
 H345 H 0.50390 0.59599 0.01816
 Cu346 Cu 0.44628 0.54407 0.01513
 Cu347 Cu 0.48775 0.55700 0.04493
 Cu348 Cu 0.45454 0.51702 0.05916
 N349 N 0.42751 0.52190 0.02378
 N350 N 0.43075 0.51142 0.04097
 C351 C 0.41542 0.49724 0.04322
 C352 C 0.40172 0.49888 0.02652
 C353 C 0.40997 0.51475 0.01452
 H354 H 0.41425 0.48667 0.05618
 H355 H 0.40373 0.52063 0.00007
 N356 N 0.47947 0.52498 0.07552
 N357 N 0.49223 0.54008 0.06999
 C358 C 0.50772 0.54169 0.08419
 C359 C 0.50455 0.52694 0.09947
 C360 C 0.48646 0.51664 0.09341
 H361 H 0.52019 0.55300 0.08362
 H362 H 0.47904 0.50388 0.10136
 H363 H 0.47463 0.52961 0.03673
 H364 H 0.45662 0.54753 0.05116
 N365 N 0.52497 -0.09175 0.02911
 N366 N 0.54396 -0.08729 0.02121
 C367 C 0.54869 -0.09993 0.00565
 C368 C 0.53178 -0.11323 0.00357
 C369 C 0.51698 -0.10754 0.01883
 H370 H 0.56331 -0.09916 -0.00359
 H371 H 0.50146 -0.11419 0.02214
 Cu372 Cu 0.56068 -0.06509 0.03132
 Cu373 Cu 0.51224 -0.07634 0.05191
 Cu374 Cu 0.53852 -0.03216 0.06471
 N375 N 0.57280 -0.03857 0.03522
 N376 N 0.56427 -0.02564 0.04834
 C377 C 0.57602 -0.00857 0.04791
 C378 C 0.59273 -0.01093 0.03362
 C379 C 0.59011 -0.03020 0.02589
 H380 H 0.57250 0.00465 0.05711
 H381 H 0.60012 -0.03772 0.01447
 N382 N 0.51228 -0.04167 0.07929
 N383 N 0.50227 -0.05846 0.07447
 C384 C 0.48544 -0.06112 0.08760
 C385 C 0.48479 -0.04523 0.10145
 C386 C 0.50211 -0.03321 0.09560
 H387 H 0.47468 -0.07387 0.08725
 H388 H 0.50727 -0.01951 0.10290
 H389 H 0.52658 -0.04982 0.04143
 H390 H 0.53978 -0.06359 0.06349
 N391 N 1.02807 0.41917 0.51365
 N392 N 1.04401 0.42638 0.50222
 C393 C 1.04793 0.41376 0.48638
 C394 C 1.03365 0.39776 0.48792
 C395 C 1.02130 0.40175 0.50548
 H396 H 1.06004 0.41622 0.47443
 H397 H 1.00835 0.39268 0.51191
 Cu398 Cu 1.05781 0.45172 0.50898
 Cu399 Cu 1.01712 0.43303 0.53807
 Cu400 Cu 1.04200 0.47787 0.55100
 N401 N 1.07187 0.47666 0.51660
 N402 N 1.06572 0.48682 0.53303
 C403 C 1.07828 0.50323 0.53473
 C404 C 1.09312 0.50340 0.51844
 C405 C 1.08850 0.48624 0.50729
 H406 H 1.07665 0.51423 0.54690
 H407 H 1.09687 0.48092 0.49360
 N408 N 1.01771 0.46624 0.56715
 N409 N 1.00830 0.44918 0.56218
 C410 C 0.99232 0.44529 0.57594
 C411 C 0.99154 0.46060 0.59037
 C412 C 1.00793 0.47364 0.58425
 H413 H 0.98185 0.43234 0.57533
 H414 H 1.01248 0.48746 0.59172
 H415 H 1.02596 0.46211 0.52879
 H416 H 1.04560 0.44740 0.54484
 Si417 Si 0.37258 -0.00635 0.26166
 Si418 Si 0.13613 0.01098 0.75073
 Si419 Si 0.63036 0.50494 0.25026
 Si420 Si 0.86878 0.49634 0.74400
 Si421 Si 0.24386 0.38161 0.00538
 Si422 Si 0.74376 0.11349 0.00617
 Si423 Si 0.24837 0.62501 0.50431
 Si424 Si 0.75933 0.88158 0.50202
 Si425 Si -0.00682 0.25239 0.36981
 Si426 Si -0.00289 0.74900 0.12222
 Si427 Si 0.50725 0.25061 0.62615
 Si428 Si 0.49455 0.74888 0.87535
 C429 C 0.10983 0.20131 0.29330
 C430 C 0.09861 0.22002 0.29515
 C431 C 0.10541 0.23641 0.28215
 C432 C 0.12284 0.23404 0.26822
 C433 C 0.13386 0.21542 0.26673
 C434 C 0.12708 0.19914 0.27940
 C435 C 0.09480 0.25511 0.28307
 C436 C 0.07744 0.25802 0.29653
 C437 C 0.06999 0.24226 0.30986
 C438 C 0.08089 0.22300 0.30930
 C439 C 0.07381 0.20738 0.32299
 C440 C 0.05657 0.21030 0.33654
 C441 C 0.04560 0.22882 0.33709
 C442 C 0.05205 0.24512 0.32379
 C443 C 0.04009 0.26352 0.32496
 C444 C 0.02270 0.26551 0.33878
 C445 C 0.01676 0.24942 0.35195
 C446 C 0.02811 0.23106 0.35091
 H447 H 0.10565 0.18790 0.30220
 H448 H 0.12786 0.24685 0.25863
 H449 H 0.13494 0.18445 0.27851
 H450 H 0.09992 0.26770 0.27319
 H451 H 0.07029 0.27296 0.29616
 H452 H 0.08133 0.19262 0.32380
 H453 H 0.05176 0.19783 0.34675
 H454 H 0.04356 0.27666 0.31536
 H455 H 0.01383 0.27975 0.33917
 H456 H 0.02328 0.21834 0.36069
 C457 C 0.60856 0.70325 0.79183
 C458 C 0.59749 0.72178 0.79542
 C459 C 0.60385 0.73900 0.78338
 C460 C 0.62085 0.73763 0.76880
 C461 C 0.63193 0.71924 0.76584
 C462 C 0.62543 0.70209 0.77738
 C463 C 0.59333 0.75758 0.78603
 C464 C 0.57657 0.75957 0.80035
 C465 C 0.56962 0.74297 0.81282
 C466 C 0.58040 0.72379 0.81046
 C467 C 0.57386 0.70733 0.82333
 C468 C 0.55727 0.70936 0.83780
 C469 C 0.54641 0.72779 0.84009
 C470 C 0.55232 0.74490 0.82766
 C471 C 0.54045 0.76316 0.83053
 C472 C 0.52358 0.76421 0.84504
 C473 C 0.51808 0.74729 0.85726
 C474 C 0.52946 0.72911 0.85469
 H475 H 0.60462 0.68927 0.79984
 H476 H 0.62566 0.75105 0.76004
 H477 H 0.63331 0.68755 0.77520
 H478 H 0.59812 0.77080 0.77690
 H479 H 0.56950 0.77450 0.80134
 H480 H 0.58133 0.69254 0.82278
 H481 H 0.55286 0.69626 0.84730
 H482 H 0.54352 0.77687 0.82168
 H483 H 0.51465 0.77833 0.84660
 H484 H 0.52497 0.71580 0.86378
 C485 C 0.38831 0.74793 0.77531
 C486 C 0.39549 0.76145 0.79046
 C487 C 0.38444 0.78029 0.79231
 C488 C 0.36735 0.78539 0.77914
 C489 C 0.36072 0.77193 0.76396
 C490 C 0.37131 0.75312 0.76239
 C491 C 0.39051 0.79401 0.80726
 C492 C 0.40730 0.78953 0.82053
 C493 C 0.41899 0.77108 0.81926
 C494 C 0.41314 0.75689 0.80380
 C495 C 0.42528 0.73874 0.80205
 C496 C 0.44236 0.73443 0.81498
 C497 C 0.44804 0.74789 0.83029
 C498 C 0.43645 0.76638 0.83280
 C499 C 0.44293 0.77935 0.84878
 C500 C 0.46010 0.77412 0.86153
 C501 C 0.47128 0.75584 0.85890
 C502 C 0.46538 0.74291 0.84312
 H503 H 0.39530 0.73311 0.77304
 H504 H 0.35936 0.79997 0.78072
 H505 H 0.36655 0.74214 0.75115
 H506 H 0.38213 0.80844 0.80877
 H507 H 0.41083 0.80107 0.83153
 H508 H 0.42220 0.72748 0.79062
 H509 H 0.45122 0.72032 0.81297
 H510 H 0.43511 0.79364 0.85195
 H511 H 0.46467 0.78461 0.87335
 H512 H 0.47427 0.72884 0.84092
 C513 C -0.11118 0.24790 0.26807
 C514 C -0.10573 0.26093 0.28431
 C515 C -0.11839 0.27875 0.28689
 C516 C -0.13580 0.28305 0.27384
 C517 C -0.14109 0.26992 0.25779
 C518 C -0.12843 0.25232 0.25517
 C519 C -0.11364 0.29228 0.30249
 C520 C -0.09649 0.28867 0.31558
 C521 C -0.08330 0.27120 0.31367
 C522 C -0.08816 0.25696 0.29794
 C523 C -0.07538 0.23917 0.29643
 C524 C -0.05836 0.23545 0.30962
 C525 C -0.05323 0.24927 0.32479
 C526 C -0.06548 0.26741 0.32704
 C527 C -0.05919 0.28103 0.34254
 C528 C -0.04179 0.27659 0.35528
 C529 C -0.03019 0.25848 0.35314
 C530 C -0.03580 0.24499 0.33775
 H531 H -0.10241 0.23415 0.26471
 H532 H -0.14510 0.29679 0.27634
 H533 H -0.13164 0.24166 0.24310
 H534 H -0.12330 0.30590 0.30462
 H535 H -0.09414 0.29991 0.32720
 H536 H -0.07815 0.22758 0.28527
 H537 H -0.04906 0.22155 0.30787
 H538 H -0.06717 0.29536 0.34513
 H539 H -0.03740 0.28754 0.36672
 H540 H -0.02654 0.23107 0.33589
 C541 C -0.11660 0.70516 0.20764
 C542 C -0.10261 0.72195 0.20615
 C543 C -0.10548 0.73751 0.22089
 C544 C -0.12171 0.73618 0.23626
 C545 C -0.13550 0.71947 0.23742
 C546 C -0.13266 0.70402 0.22294
 C547 C -0.09218 0.75441 0.22022
 C548 C -0.07608 0.75636 0.20521
 C549 C -0.07253 0.74137 0.19010
 C550 C -0.08600 0.72385 0.19059
 C551 C -0.08247 0.70888 0.17546
 C552 C -0.06651 0.71092 0.16031
 C553 C -0.05333 0.72789 0.15955
 C554 C -0.05602 0.74335 0.17446
 C555 C -0.04203 0.76018 0.17299
 C556 C -0.02633 0.76153 0.15737
 C557 C -0.02403 0.74632 0.14271
 C558 C -0.03744 0.72947 0.14386
 H559 H -0.11571 0.69259 0.19722
 H560 H -0.12351 0.74826 0.24734
 H561 H -0.14295 0.69089 0.22318
 H562 H -0.09428 0.76636 0.23144
 H563 H -0.06671 0.76996 0.20591
 H564 H -0.09182 0.69526 0.17478
 H565 H -0.06449 0.69904 0.14901
 H566 H -0.04268 0.77260 0.18359
 H567 H -0.01595 0.77465 0.15670
 H568 H -0.03564 0.71763 0.13251
 C569 C 0.40093 0.26263 0.72978
 C570 C 0.40676 0.24901 0.71383
 C571 C 0.39396 0.23152 0.71178
 C572 C 0.37610 0.22812 0.72486
 C573 C 0.37030 0.24177 0.74054
 C574 C 0.38309 0.25904 0.74282
 C575 C 0.39892 0.21736 0.69662
 C576 C 0.41647 0.21997 0.68343
 C577 C 0.42992 0.23702 0.68478
 C578 C 0.42476 0.25201 0.69995
 C579 C 0.43763 0.26954 0.70053
 C580 C 0.45493 0.27234 0.68688
 C581 C 0.46038 0.25770 0.67230
 C582 C 0.44815 0.23969 0.67122
 C583 C 0.45488 0.22497 0.65670
 C584 C 0.47243 0.22834 0.64346
 C585 C 0.48388 0.24643 0.64409
 C586 C 0.47804 0.26094 0.65876
 H587 H 0.40988 0.27615 0.73274
 H588 H 0.36686 0.21455 0.72260
 H589 H 0.37943 0.27000 0.75467
 H590 H 0.38907 0.20402 0.69490
 H591 H 0.41879 0.20838 0.67204
 H592 H 0.43458 0.28164 0.71122
 H593 H 0.46422 0.28612 0.68781
 H594 H 0.44722 0.21049 0.65530
 H595 H 0.47704 0.21651 0.63283
 H596 H 0.48727 0.27478 0.65960
 C597 C 0.60919 0.24394 0.73053
 C598 C 0.60541 0.25580 0.71245
 C599 C 0.61925 0.27242 0.70836
 C600 C 0.63626 0.27661 0.72166
 C601 C 0.64000 0.26456 0.73947
 C602 C 0.62610 0.24823 0.74366
 C603 C 0.61612 0.28484 0.69094
 C604 C 0.59929 0.28146 0.67764
 C605 C 0.58484 0.26530 0.68113
 C606 C 0.58832 0.25189 0.69847
 C607 C 0.57473 0.23494 0.70113
 C608 C 0.55808 0.23140 0.68762
 C609 C 0.55397 0.24474 0.67113
 C610 C 0.56712 0.26202 0.66774
 C611 C 0.56162 0.27554 0.65134
 C612 C 0.54403 0.27194 0.63889
 C613 C 0.53148 0.25466 0.64206
 C614 C 0.53652 0.24107 0.65816
 H615 H 0.59924 0.23134 0.73521
 H616 H 0.64653 0.28936 0.71791
 H617 H 0.62798 0.23856 0.75722
 H618 H 0.62678 0.29745 0.68756
 H619 H 0.59830 0.29168 0.66449
 H620 H 0.57667 0.22384 0.71342
 H621 H 0.54810 0.21818 0.69030
 H622 H 0.57017 0.28938 0.64801
 H623 H 0.54020 0.28301 0.62693
 H624 H 0.52654 0.22785 0.66088
 C625 C 0.10670 0.74147 0.21871
 C626 C 0.10051 0.75488 0.20246
 C627 C 0.11298 0.77257 0.19901
 C628 C 0.13034 0.77684 0.21189
 C629 C 0.13576 0.76366 0.22833
 C630 C 0.12392 0.74583 0.23133
 C631 C 0.10798 0.78600 0.18281
 C632 C 0.09074 0.78244 0.17001
 C633 C 0.07747 0.76533 0.17308
 C634 C 0.08240 0.75136 0.18965
 C635 C 0.06882 0.73453 0.19313
 C636 C 0.05109 0.73138 0.18095
 C637 C 0.04614 0.74472 0.16472
 C638 C 0.05924 0.76182 0.16036
 C639 C 0.05323 0.77479 0.14363
 C640 C 0.03501 0.77091 0.13200
 C641 C 0.02232 0.75395 0.13647
 C642 C 0.02785 0.74110 0.15301
 H643 H 0.09871 0.72736 0.22213
 H644 H 0.13939 0.79064 0.20923
 H645 H 0.12791 0.73499 0.24347
 H646 H 0.11752 0.79949 0.17999
 H647 H 0.08810 0.79363 0.15793
 H648 H 0.07118 0.72353 0.20542
 H649 H 0.04107 0.71832 0.18435
 H650 H 0.06212 0.78815 0.13914
 H651 H 0.03083 0.78148 0.11971
 H652 H 0.01754 0.72850 0.15725
 C653 C 0.31273 0.11945 0.22450
 C654 C 0.30584 0.10144 0.23486
 C655 C 0.28379 0.10011 0.24058
 C656 C 0.26954 0.11629 0.23637
 C657 C 0.27666 0.13399 0.22613
 C658 C 0.29836 0.13534 0.22023
 C659 C 0.27595 0.08258 0.25031
 C660 C 0.28939 0.06609 0.25432
 C661 C 0.31149 0.06654 0.24898
 C662 C 0.31994 0.08466 0.23945
 C663 C 0.34220 0.08541 0.23486
 C664 C 0.35564 0.06890 0.23879
 C665 C 0.34756 0.05094 0.24740
 C666 C 0.32543 0.04945 0.25279
 C667 C 0.31825 0.03081 0.26162
 C668 C 0.33235 0.01440 0.26446
 C669 C 0.35400 0.01592 0.25863
 C670 C 0.36158 0.03436 0.25052
 H671 H 0.32904 0.12172 0.21922
 H672 H 0.25274 0.11485 0.24076
 H673 H 0.30440 0.14882 0.21235
 H674 H 0.25910 0.08148 0.25471
 H675 H 0.28185 0.05318 0.26174
 H676 H 0.34989 0.09865 0.22829
 H677 H 0.37260 0.07019 0.23487
 H678 H 0.30182 0.02825 0.26639
 H679 H 0.32615 0.00050 0.27132
 H680 H 0.37839 0.03586 0.24639
 C681 C 0.80131 0.61662 0.70013
 C682 C 0.79932 0.60241 0.71679
 C683 C 0.78381 0.60665 0.73251
 C684 C 0.77087 0.62423 0.73135
 C685 C 0.77301 0.63807 0.71471
 C686 C 0.78839 0.63405 0.69918
 C687 C 0.78126 0.59337 0.74940
 C688 C 0.79384 0.57594 0.75123
 C689 C 0.80957 0.57095 0.73607
 C690 C 0.81220 0.58429 0.71844
 C691 C 0.82758 0.57905 0.70305
 C692 C 0.84019 0.56163 0.70488
 C693 C 0.83813 0.54872 0.72211
 C694 C 0.82279 0.55309 0.73797
 C695 C 0.82149 0.53938 0.75513
 C696 C 0.83505 0.52241 0.75649
 C697 C 0.85032 0.51854 0.74095
 C698 C 0.85155 0.53149 0.72361
 H699 H 0.81271 0.61484 0.68756
 H700 H 0.75926 0.62716 0.74365
 H701 H 0.79041 0.64431 0.68603
 H702 H 0.76940 0.59652 0.76145
 H703 H 0.79070 0.56664 0.76480
 H704 H 0.83032 0.58808 0.68921
 H705 H 0.85183 0.55832 0.69269
 H706 H 0.81041 0.54135 0.76793
 H707 H 0.83380 0.51240 0.76995
 H708 H 0.86307 0.52835 0.71130
 C709 C 0.79811 0.38186 0.79722
 C710 C 0.79857 0.39329 0.77843
 C711 C 0.78503 0.38698 0.76234
 C712 C 0.77200 0.36973 0.76502
 C713 C 0.77206 0.35843 0.78364
 C714 C 0.78515 0.36482 0.79968
 C715 C 0.78461 0.39783 0.74361
 C716 C 0.79726 0.41491 0.74040
 C717 C 0.81108 0.42184 0.75586
 C718 C 0.81192 0.41070 0.77512
 C719 C 0.82622 0.41723 0.79036
 C720 C 0.83913 0.43405 0.78707
 C721 C 0.83834 0.44519 0.76856
 C722 C 0.82425 0.43942 0.75268
 C723 C 0.82391 0.45164 0.73437
 C724 C 0.83721 0.46852 0.73198
 C725 C 0.85135 0.47369 0.74755
 C726 C 0.85166 0.46215 0.76590
 H727 H 0.80744 0.38566 0.81046
 H728 H 0.76201 0.36503 0.75242
 H729 H 0.78535 0.35676 0.81443
 H730 H 0.77434 0.39308 0.73122
 H731 H 0.79595 0.42224 0.72543
 H732 H 0.82809 0.40955 0.80508
 H733 H 0.84990 0.43840 0.79922
 H734 H 0.81348 0.44874 0.72164
 H735 H 0.83650 0.47757 0.71781
 H736 H 0.86213 0.46640 0.77830
 C737 C 0.27561 -0.11292 0.25145
 C738 C 0.29100 -0.10647 0.26576
 C739 C 0.29393 -0.11863 0.28385
 C740 C 0.28174 -0.13627 0.28740
 C741 C 0.26633 -0.14241 0.27314
 C742 C 0.26361 -0.13045 0.25510
 C743 C 0.30903 -0.11316 0.29840
 C744 C 0.32137 -0.09587 0.29549
 C745 C 0.31907 -0.08313 0.27780
 C746 C 0.30355 -0.08847 0.26272
 C747 C 0.30104 -0.07561 0.24515
 C748 C 0.31328 -0.05827 0.24226
 C749 C 0.32857 -0.05296 0.25666
 C750 C 0.33175 -0.06523 0.27467
 C751 C 0.34752 -0.05896 0.28875
 C752 C 0.35959 -0.04148 0.28492
 C753 C 0.35646 -0.02970 0.26700
 C754 C 0.34076 -0.03538 0.25307
 H755 H 0.27238 -0.10485 0.23718
 H756 H 0.28441 -0.14511 0.30143
 H757 H 0.25213 -0.13442 0.24350
 H758 H 0.31138 -0.12239 0.31228
 H759 H 0.33260 -0.09290 0.30754
 H760 H 0.28962 -0.07841 0.23322
 H761 H 0.31076 -0.04890 0.22851
 H762 H 0.35103 -0.06717 0.30288
 H763 H 0.37138 -0.03724 0.29614
 H764 H 0.33807 -0.02607 0.23930
 C765 C 0.20743 -0.10280 0.69886
 C766 C 0.20940 -0.08994 0.71600
 C767 C 0.22489 -0.09533 0.73104
 C768 C 0.23784 -0.11283 0.72876
 C769 C 0.23553 -0.12560 0.71171
 C770 C 0.22018 -0.12016 0.69682
 C771 C 0.22728 -0.08334 0.74843
 C772 C 0.21433 -0.06633 0.75152
 C773 C 0.19843 -0.06045 0.73717
 C774 C 0.19631 -0.07216 0.71885
 C775 C 0.18116 -0.06572 0.70398
 C776 C 0.16808 -0.04887 0.70710
 C777 C 0.16939 -0.03774 0.72515
 C778 C 0.18455 -0.04326 0.74050
 C779 C 0.18480 -0.03153 0.75869
 C780 C 0.17060 -0.01519 0.76136
 C781 C 0.15589 -0.00989 0.74604
 C782 C 0.15532 -0.02120 0.72799
 H783 H 0.19598 -0.10015 0.68678
 H784 H 0.24946 -0.11652 0.74057
 H785 H 0.21771 -0.12924 0.68331
 H786 H 0.23920 -0.08727 0.75993
 H787 H 0.21733 -0.05800 0.76536
 H788 H 0.17900 -0.07330 0.68955
 H789 H 0.15662 -0.04462 0.69527
 H790 H 0.19544 -0.03474 0.77135
 H791 H 0.17096 -0.00676 0.77561
 H792 H 0.14365 -0.01748 0.71624
 C793 C 0.70169 0.39136 0.19689
 C794 C 0.70071 0.40187 0.21584
 C795 C 0.71408 0.39471 0.23205
 C796 C 0.72740 0.37755 0.22938
 C797 C 0.72782 0.36714 0.21063
 C798 C 0.71495 0.37435 0.19443
 C799 C 0.71405 0.40461 0.25094
 C800 C 0.70112 0.42159 0.25419
 C801 C 0.68746 0.42936 0.23861
 C802 C 0.68705 0.41918 0.21920
 C803 C 0.67284 0.42652 0.20388
 C804 C 0.65969 0.44332 0.20721
 C805 C 0.66018 0.45362 0.22584
 C806 C 0.67410 0.44691 0.24183
 C807 C 0.67414 0.45822 0.26030
 C808 C 0.66094 0.47528 0.26264
 C809 C 0.64720 0.48162 0.24685
 C810 C 0.64683 0.47075 0.22850
 H811 H 0.69255 0.39588 0.18355
 H812 H 0.73720 0.37216 0.24210
 H813 H 0.71516 0.36694 0.17960
 H814 H 0.72418 0.39919 0.26342
 H815 H 0.70212 0.42814 0.26929
 H816 H 0.67127 0.41953 0.18905
 H817 H 0.64905 0.44836 0.19497
 H818 H 0.68432 0.45453 0.27317
 H819 H 0.66158 0.48371 0.27688
 H820 H 0.63632 0.47567 0.21613
 C821 C 0.68661 0.63188 0.28122
 C822 C 0.69445 0.61272 0.27460
 C823 C 0.71704 0.61021 0.27249
 C824 C 0.73092 0.62624 0.27654
 C825 C 0.72289 0.64509 0.28294
 C826 C 0.70064 0.64771 0.28534
 C827 C 0.72581 0.59168 0.26643
 C828 C 0.71273 0.57534 0.26252
 C829 C 0.69013 0.57689 0.26436
 C830 C 0.68080 0.59598 0.27021
 C831 C 0.65816 0.59768 0.27139
 C832 C 0.64508 0.58128 0.26743
 C833 C 0.65393 0.56248 0.26225
 C834 C 0.67655 0.55998 0.26056
 C835 C 0.68459 0.54056 0.25516
 C836 C 0.67079 0.52442 0.25197
 C837 C 0.64855 0.52690 0.25416
 C838 C 0.64020 0.54610 0.25881
 H839 H 0.66977 0.63516 0.28351
 H840 H 0.74811 0.62384 0.27497
 H841 H 0.69396 0.66213 0.29021
 H842 H 0.74308 0.58971 0.26477
 H843 H 0.72100 0.56166 0.25798
 H844 H 0.64992 0.61158 0.27526
 H845 H 0.62779 0.58332 0.26859
 H846 H 0.70146 0.53716 0.25332
 H847 H 0.67779 0.51002 0.24759
 H848 H 0.62301 0.54842 0.25979
 C849 C 0.23922 0.11151 0.76436
 C850 C 0.21680 0.10950 0.76776
 C851 C 0.20529 0.12659 0.77541
 C852 C 0.21613 0.14452 0.78023
 C853 C 0.23835 0.14609 0.77685
 C854 C 0.24969 0.12949 0.76877
 C855 C 0.18303 0.12574 0.77809
 C856 C 0.17180 0.10840 0.77313
 C857 C 0.18251 0.09090 0.76572
 C858 C 0.20546 0.09125 0.76366
 C859 C 0.21635 0.07320 0.75802
 C860 C 0.20530 0.05548 0.75439
 C861 C 0.18295 0.05504 0.75575
 C862 C 0.17113 0.07282 0.76090
 C863 C 0.14839 0.07170 0.76086
 C864 C 0.13808 0.05340 0.75709
 C865 C 0.15000 0.03569 0.75355
 C866 C 0.17238 0.03673 0.75222
 H867 H 0.24915 0.09964 0.75792
 H868 H 0.20716 0.15745 0.78613
 H869 H 0.26687 0.13028 0.76600
 H870 H 0.17413 0.13872 0.78396
 H871 H 0.15469 0.10899 0.77586
 H872 H 0.23360 0.07202 0.75690
 H873 H 0.21441 0.04191 0.75047
 H874 H 0.13811 0.08470 0.76348
 H875 H 0.12067 0.05301 0.75736
 H876 H 0.18174 0.02329 0.74859
 C877 C 0.25334 0.27765 0.10513
 C878 C 0.23818 0.29280 0.09932
 C879 C 0.21907 0.29437 0.11148
 C880 C 0.21531 0.28104 0.12839
 C881 C 0.23040 0.26595 0.13378
 C882 C 0.24946 0.26454 0.12198
 C883 C 0.20376 0.30927 0.10679
 C884 C 0.20694 0.32281 0.09032
 C885 C 0.22561 0.32190 0.07760
 C886 C 0.24138 0.30647 0.08202
 C887 C 0.25975 0.30515 0.06893
 C888 C 0.26290 0.31860 0.05240
 C889 C 0.24798 0.33396 0.04817
 C890 C 0.22907 0.33587 0.06060
 C891 C 0.21448 0.35179 0.05544
 C892 C 0.21876 0.36525 0.03895
 C893 C 0.23764 0.36340 0.02710
 C894 C 0.25199 0.34753 0.03156
 H895 H 0.26850 0.27555 0.09715
 H896 H 0.20048 0.28248 0.13727
 H897 H 0.26165 0.25332 0.12573
 H898 H 0.18912 0.31056 0.11604
 H899 H 0.19427 0.33380 0.08794
 H900 H 0.27208 0.29375 0.07090
 H901 H 0.27730 0.31700 0.04284
 H902 H 0.19967 0.35442 0.06387
 H903 H 0.20718 0.37715 0.03559
 H904 H 0.26648 0.34586 0.02213
 C905 C 0.75882 0.80347 0.62412
 C906 C 0.74361 0.80957 0.60911
 C907 C 0.72292 0.80071 0.61036
 C908 C 0.71753 0.78717 0.62669
 C909 C 0.73288 0.78125 0.64124
 C910 C 0.75355 0.78934 0.63973
 C911 C 0.70790 0.80506 0.59507
 C912 C 0.71318 0.81742 0.57810
 C913 C 0.73353 0.82662 0.57617
 C914 C 0.74847 0.82361 0.59256
 C915 C 0.76759 0.83501 0.59206
 C916 C 0.77234 0.84830 0.57571
 C917 C 0.75868 0.85023 0.55886
 C918 C 0.73930 0.83910 0.55861
 C919 C 0.72672 0.84065 0.54057
 C920 C 0.73296 0.85308 0.52383
 C921 C 0.75169 0.86460 0.52450
 C922 C 0.76439 0.86320 0.54217
 H923 H 0.77518 0.80870 0.62375
 H924 H 0.70165 0.78051 0.62755
 H925 H 0.76571 0.78472 0.65071
 H926 H 0.69201 0.79844 0.59598
 H927 H 0.70067 0.81999 0.56698
 H928 H 0.77893 0.83447 0.60451
 H929 H 0.78709 0.85690 0.57610
 H930 H 0.71226 0.83205 0.53870
 H931 H 0.72273 0.85395 0.51048
 H932 H 0.77886 0.87206 0.54305
 C933 C 0.74268 0.79524 0.39032
 C934 C 0.75961 0.80616 0.39923
 C935 C 0.78038 0.80416 0.39006
 C936 C 0.78393 0.79144 0.37304
 C937 C 0.76705 0.78037 0.36478
 C938 C 0.74642 0.78260 0.37350
 C939 C 0.79763 0.81468 0.39805
 C940 C 0.79486 0.82710 0.41506
 C941 C 0.77459 0.82951 0.42493
 C942 C 0.75666 0.81884 0.41691
 C943 C 0.73645 0.82100 0.42697
 C944 C 0.73377 0.83303 0.44426
 C945 C 0.75102 0.84347 0.45228
 C946 C 0.77165 0.84207 0.44271
 C947 C 0.78840 0.85345 0.45137
 C948 C 0.78480 0.86520 0.46893
 C949 C 0.76454 0.86594 0.47857
 C950 C 0.74765 0.85535 0.46990
 H951 H 0.72631 0.79603 0.39592
 H952 H 0.80001 0.78986 0.36655
 H953 H 0.73294 0.77458 0.36728
 H954 H 0.81355 0.81322 0.39111
 H955 H 0.80913 0.83445 0.42022
 H956 H 0.72223 0.81344 0.42201
 H957 H 0.71796 0.83409 0.45150
 H958 H 0.80447 0.85378 0.44492
 H959 H 0.79801 0.87381 0.47475
 H960 H 0.73167 0.85658 0.47666
 C961 C 0.24861 0.28077 -0.09490
 C962 C 0.25668 0.30063 -0.09257
 C963 C 0.26913 0.30895 -0.10920
 C964 C 0.27372 0.29754 -0.12698
 C965 C 0.26587 0.27780 -0.12884
 C966 C 0.25314 0.26966 -0.11270
 C967 C 0.27702 0.32862 -0.10804
 C968 C 0.27285 0.34036 -0.09076
 C969 C 0.26072 0.33280 -0.07366
 C970 C 0.25280 0.31248 -0.07443
 C971 C 0.24157 0.30458 -0.05692
 C972 C 0.23806 0.31606 -0.03934
 C973 C 0.24535 0.33595 -0.03846
 C974 C 0.25653 0.34477 -0.05565
 C975 C 0.26294 0.36527 -0.05406
 C976 C 0.25894 0.37616 -0.03601
 C977 C 0.24855 0.36709 -0.01893
 C978 C 0.24151 0.34708 -0.02036
 H979 H 0.23862 0.27334 -0.08335
 H980 H 0.28329 0.30420 -0.13948
 H981 H 0.24683 0.25445 -0.11360
 H982 H 0.28655 0.33507 -0.12070
 H983 H 0.27975 0.35529 -0.09119
 H984 H 0.23551 0.28933 -0.05609
 H985 H 0.22951 0.30924 -0.02623
 H986 H 0.27091 0.37346 -0.06651
 H987 H 0.26412 0.39174 -0.03552
 H988 H 0.23289 0.34009 -0.00742
 C989 C 0.75710 0.21020 -0.10061
 C990 C 0.74156 0.19603 -0.09342
 C991 C 0.72172 0.19566 -0.10390
 C992 C 0.71785 0.20884 -0.12080
 C993 C 0.73341 0.22276 -0.12769
 C994 C 0.75303 0.22327 -0.11740
 C995 C 0.70574 0.18218 -0.09749
 C996 C 0.70881 0.16908 -0.08071
 C997 C 0.72815 0.16889 -0.06956
 C998 C 0.74494 0.18237 -0.07620
 C999 C 0.76454 0.18170 -0.06545
 C1000 C 0.76762 0.16854 -0.04870
 C1001 C 0.75133 0.15560 -0.04182
 C1002 C 0.73130 0.15559 -0.05203
 C1003 C 0.71519 0.14241 -0.04402
 C1004 C 0.71899 0.12974 -0.02689
 C1005 C 0.73890 0.12966 -0.01723
 C1006 C 0.75494 0.14272 -0.02462
 H1007 H 0.77257 0.21172 -0.09361
 H1008 H 0.70248 0.20837 -0.12840
 H1009 H 0.76548 0.23371 -0.12237
 H1010 H 0.69059 0.18175 -0.10552
 H1011 H 0.69561 0.15914 -0.07700
 H1012 H 0.77802 0.19111 -0.06963
 H1013 H 0.78296 0.16858 -0.04097
 H1014 H 0.69934 0.14166 -0.05037
 H1015 H 0.70610 0.12022 -0.02109
 H1016 H 0.77026 0.14293 -0.01685
 C1017 C 0.19976 0.70568 0.39410
 C1018 C 0.21928 0.70242 0.40466
 C1019 C 0.23738 0.71386 0.39788
 C1020 C 0.23593 0.72742 0.38083
 C1021 C 0.21664 0.72980 0.37013
 C1022 C 0.19857 0.71902 0.37717
 C1023 C 0.25690 0.71152 0.40796
 C1024 C 0.25903 0.69795 0.42455
 C1025 C 0.24164 0.68596 0.43174
 C1026 C 0.22144 0.68819 0.42157
 C1027 C 0.20414 0.67591 0.42844
 C1028 C 0.20637 0.66200 0.44464
 C1029 C 0.22583 0.65971 0.45478
 C1030 C 0.24377 0.67168 0.44864
 C1031 C 0.26302 0.66884 0.45982
 C1032 C 0.26425 0.65473 0.47618
 C1033 C 0.24654 0.64287 0.48179
 C1034 C 0.22734 0.64549 0.47117
 H1035 H 0.18502 0.69819 0.39841
 H1036 H 0.25002 0.73571 0.37557
 H1037 H 0.18327 0.72091 0.36960
 H1038 H 0.27078 0.72023 0.40290
 H1039 H 0.27474 0.69709 0.43128
 H1040 H 0.18855 0.67646 0.42150
 H1041 H 0.19263 0.65289 0.44928
 H1042 H 0.27738 0.67737 0.45653
 H1043 H 0.27913 0.65311 0.48455
 H1044 H 0.21340 0.63671 0.47580
 C1045 C 0.24314 0.72628 0.60315
 C1046 C 0.25713 0.71007 0.59765
 C1047 C 0.27627 0.70755 0.60908
 C1048 C 0.28100 0.72071 0.62521
 C1049 C 0.26697 0.73666 0.63040
 C1050 C 0.24803 0.73927 0.61920
 C1051 C 0.29070 0.69194 0.60437
 C1052 C 0.28671 0.67871 0.58845
 C1053 C 0.26799 0.68055 0.57646
 C1054 C 0.25284 0.69639 0.58125
 C1055 C 0.23393 0.69801 0.56950
 C1056 C 0.22996 0.68481 0.55356
 C1057 C 0.24462 0.66948 0.54856
 C1058 C 0.26388 0.66708 0.55985
 C1059 C 0.27828 0.65135 0.55383
 C1060 C 0.27359 0.63865 0.53747
 C1061 C 0.25445 0.64109 0.52671
 C1062 C 0.24012 0.65659 0.53217
 H1063 H 0.22827 0.72946 0.59539
 H1064 H 0.29584 0.71857 0.63355
 H1065 H 0.23672 0.75130 0.62289
 H1066 H 0.30532 0.68990 0.61311
 H1067 H 0.29873 0.66709 0.58604
 H1068 H 0.22169 0.70935 0.57221
 H1069 H 0.21521 0.68667 0.54497
 H1070 H 0.29343 0.64853 0.56120
 H1071 H 0.28521 0.62711 0.53315
 H1072 H 0.22542 0.65866 0.52353
 C1073 C 0.73848 0.21759 0.10217
 C1074 C 0.75311 0.20207 0.09616
 C1075 C 0.77289 0.20065 0.10673
 C1076 C 0.77760 0.21420 0.12253
 C1077 C 0.76292 0.22943 0.12827
 C1078 C 0.74336 0.23096 0.11790
 C1079 C 0.78794 0.18572 0.10153
 C1080 C 0.78391 0.17203 0.08604
 C1081 C 0.76452 0.17271 0.07496
 C1082 C 0.74883 0.18797 0.08012
 C1083 C 0.72940 0.18859 0.06910
 C1084 C 0.72534 0.17485 0.05364
 C1085 C 0.74040 0.15993 0.04845
 C1086 C 0.76025 0.15862 0.05893
 C1087 C 0.77502 0.14324 0.05278
 C1088 C 0.77009 0.12978 0.03716
 C1089 C 0.75035 0.13107 0.02724
 C1090 C 0.73568 0.14629 0.03274
 H1091 H 0.72307 0.21987 0.09513
 H1092 H 0.79291 0.21290 0.13021
 H1093 H 0.73155 0.24242 0.12205
 H1094 H 0.80307 0.18456 0.10959
 H1095 H 0.79644 0.16101 0.08320
 H1096 H 0.71682 0.19955 0.07201
 H1097 H 0.71017 0.17592 0.04564
 H1098 H 0.79058 0.14118 0.05958
 H1099 H 0.78194 0.11845 0.03281
 H1100 H 0.72049 0.14747 0.02477
 C1101 C 0.45543 0.36510 0.55407
 C1102 C 0.47314 0.35144 0.55290
 C1103 C 0.48823 0.35448 0.53647
 C1104 C 0.48556 0.37042 0.52200
 C1105 C 0.46793 0.38377 0.52332
 C1106 C 0.45294 0.38091 0.53954
 C1107 C 0.50598 0.34160 0.53442
 C1108 C 0.50922 0.32562 0.54829
 C1109 C 0.49474 0.32179 0.56495
 C1110 C 0.47638 0.33491 0.56732
 C1111 C 0.46188 0.33100 0.58397
 C1112 C 0.46507 0.31486 0.59775
 C1113 C 0.48282 0.30195 0.59565
 C1114 C 0.49799 0.30523 0.57928
 C1115 C 0.51576 0.29168 0.57794
 C1116 C 0.51821 0.27570 0.59214
 C1117 C 0.50324 0.27266 0.60820
 C1118 C 0.48547 0.28570 0.60986
 H1119 H 0.44315 0.36405 0.56597
 H1120 H 0.49739 0.37226 0.50965
 H1121 H 0.43911 0.39087 0.54113
 H1122 H 0.51756 0.34387 0.52187
 H1123 H 0.52335 0.31650 0.54537
 H1124 H 0.44775 0.34015 0.58683
 H1125 H 0.45346 0.31246 0.61025
 H1126 H 0.52813 0.29287 0.56615
 H1127 H 0.53198 0.26561 0.59056
 H1128 H 0.47365 0.28323 0.62211
 C1129 C 0.00154 0.85020 0.01930
 C1130 C -0.01270 0.84414 0.03552
 C1131 C -0.03156 0.85604 0.03865
 C1132 C -0.03569 0.87330 0.02611
 C1133 C -0.02125 0.87918 0.01025
 C1134 C -0.00270 0.86732 0.00700
 C1135 C -0.04619 0.85075 0.05437
 C1136 C -0.04251 0.83400 0.06725
 C1137 C -0.02390 0.82172 0.06494
 C1138 C -0.00878 0.82683 0.04874
 C1139 C 0.00982 0.81454 0.04638
 C1140 C 0.01374 0.79805 0.05946
 C1141 C -0.00067 0.79300 0.07541
 C1142 C -0.01979 0.80458 0.07836
 C1143 C -0.03393 0.79847 0.09471
 C1144 C -0.02898 0.78189 0.10763
 C1145 C -0.00985 0.77093 0.10481
 C1146 C 0.00408 0.77638 0.08851
 H1147 H 0.01622 0.84217 0.01564
 H1148 H -0.05016 0.88217 0.02889
 H1149 H 0.00886 0.87117 -0.00508
 H1150 H -0.06067 0.85974 0.05684
 H1151 H -0.05464 0.83118 0.07900
 H1152 H 0.02191 0.81725 0.03457
 H1153 H 0.02831 0.78917 0.05709
 H1154 H -0.04895 0.80609 0.09800
 H1155 H -0.04031 0.77772 0.11982
 H1156 H 0.01875 0.76764 0.08607
 C1157 C 0.00355 0.65648 0.01409
 C1158 C 0.00991 0.65703 0.03502
 C1159 C 0.02015 0.63945 0.04343
 C1160 C 0.02408 0.62230 0.03112
 C1161 C 0.01746 0.62206 0.01048
 C1162 C 0.00723 0.63932 0.00216
 C1163 C 0.02626 0.63897 0.06411
 C1164 C 0.02220 0.65542 0.07683
 C1165 C 0.01204 0.67328 0.06928
 C1166 C 0.00627 0.67428 0.04789
 C1167 C -0.00274 0.69258 0.04002
 C1168 C -0.00619 0.70923 0.05254
 C1169 C -0.00110 0.70837 0.07347
 C1170 C 0.00777 0.69034 0.08229
 C1171 C 0.01182 0.69019 0.10383
 C1172 C 0.00809 0.70745 0.11570
 C1173 C 0.00030 0.72543 0.10663
 C1174 C -0.00474 0.72561 0.08560
 H1175 H -0.00463 0.66891 0.00643
 H1176 H 0.03180 0.60895 0.03780
 H1177 H 0.00209 0.63969 -0.01378
 H1178 H 0.03417 0.62563 0.07063
 H1179 H 0.02762 0.65375 0.09253
 H1180 H -0.00700 0.69475 0.02404
 H1181 H -0.01295 0.72299 0.04571
 H1182 H 0.01771 0.67696 0.11206
 H1183 H 0.01142 0.70659 0.13204
 H1184 H -0.01152 0.73919 0.07850
 C1185 C 0.55487 0.13848 0.55017
 C1186 C 0.53671 0.15159 0.55105
 C1187 C 0.52021 0.14843 0.53660
 C1188 C 0.52194 0.13280 0.52210
 C1189 C 0.53999 0.11990 0.52148
 C1190 C 0.55641 0.12299 0.53569
 C1191 C 0.50197 0.16084 0.53660
 C1192 C 0.49962 0.17647 0.55058
 C1193 C 0.51555 0.18041 0.56530
 C1194 C 0.53436 0.16770 0.56564
 C1195 C 0.55015 0.17152 0.58054
 C1196 C 0.54781 0.18726 0.59448
 C1197 C 0.52971 0.19989 0.59424
 C1198 C 0.51328 0.19667 0.57967
 C1199 C 0.49528 0.21001 0.58005
 C1200 C 0.49382 0.22573 0.59416
 C1201 C 0.51003 0.22872 0.60844
 C1202 C 0.52800 0.21584 0.60845
 H1203 H 0.56826 0.13972 0.56041
 H1204 H 0.50906 0.13080 0.51128
 H1205 H 0.57062 0.11342 0.53577
 H1206 H 0.48928 0.15847 0.52561
 H1207 H 0.48496 0.18518 0.54938
 H1208 H 0.56464 0.16257 0.58192
 H1209 H 0.56040 0.18959 0.60559
 H1210 H 0.48205 0.20892 0.56962
 H1211 H 0.47986 0.23570 0.59387
 H1212 H 0.54070 0.21827 0.61939
 C1213 C 0.01002 0.14459 0.46384
 C1214 C -0.00625 0.15211 0.45062
 C1215 C -0.02598 0.14152 0.45062
 C1216 C -0.02923 0.12446 0.46369
 C1217 C -0.01305 0.11745 0.47699
 C1218 C 0.00662 0.12766 0.47672
 C1219 C -0.04246 0.14803 0.43765
 C1220 C -0.03991 0.16489 0.42464
 C1221 C -0.02069 0.17615 0.42416
 C1222 C -0.00362 0.16972 0.43747
 C1223 C 0.01542 0.18124 0.43738
 C1224 C 0.01780 0.19837 0.42477
 C1225 C 0.00145 0.20473 0.41164
 C1226 C -0.01801 0.19372 0.41096
 C1227 C -0.03396 0.20092 0.39711
 C1228 C -0.03064 0.21825 0.38471
 C1229 C -0.01139 0.22888 0.38559
 C1230 C 0.00450 0.22218 0.39918
 H1231 H 0.02566 0.15133 0.46469
 H1232 H -0.04451 0.11675 0.46348
 H1233 H 0.01963 0.12272 0.48655
 H1234 H -0.05758 0.14000 0.43755
 H1235 H -0.05352 0.16880 0.41525
 H1236 H 0.02888 0.17760 0.44706
 H1237 H 0.03269 0.20675 0.42534
 H1238 H -0.04919 0.19358 0.39543
 H1239 H -0.04332 0.22337 0.37456
 H1240 H 0.01936 0.23058 0.40000
 C1241 C 0.50763 0.63978 0.96855
 C1242 C 0.49257 0.64681 0.95376
 C1243 C 0.47312 0.63593 0.95230
 C1244 C 0.46909 0.61888 0.96514
 C1245 C 0.48412 0.61224 0.97979
 C1246 C 0.50341 0.62285 0.98126
 C1247 C 0.45763 0.64214 0.93812
 C1248 C 0.46078 0.65913 0.92546
 C1249 C 0.47970 0.67072 0.92642
 C1250 C 0.49602 0.66428 0.94058
 C1251 C 0.51520 0.67555 0.94111
 C1252 C 0.51823 0.69270 0.92864
 C1253 C 0.50232 0.69943 0.91516
 C1254 C 0.48282 0.68859 0.91376
 C1255 C 0.46714 0.69637 0.89994
 C1256 C 0.47074 0.71408 0.88823
 C1257 C 0.49005 0.72451 0.88971
 C1258 C 0.50576 0.71717 0.90320
 H1259 H 0.52280 0.64704 0.97087
 H1260 H 0.45399 0.61102 0.96385
 H1261 H 0.51548 0.61808 0.99225
 H1262 H 0.44278 0.63381 0.93686
 H1263 H 0.44796 0.66271 0.91499
 H1264 H 0.52836 0.67154 0.95105
 H1265 H 0.53319 0.70089 0.92969
 H1266 H 0.45175 0.68940 0.89800
 H1267 H 0.45812 0.71972 0.87829
 H1268 H 0.52063 0.72547 0.90457
 C1269 C 0.54510 0.85186 0.95890
 C1270 C 0.52649 0.83979 0.95766
 C1271 C 0.50966 0.84335 0.97228
 C1272 C 0.51147 0.85851 0.98721
 C1273 C 0.52994 0.87047 0.98804
 C1274 C 0.54672 0.86684 0.97376
 C1275 C 0.49102 0.83183 0.97193
 C1276 C 0.48854 0.81686 0.95733
 C1277 C 0.50469 0.81276 0.94229
 C1278 C 0.52400 0.82442 0.94245
 C1279 C 0.54010 0.82043 0.92733
 C1280 C 0.53749 0.80570 0.91251
 C1281 C 0.51880 0.79428 0.91208
 C1282 C 0.50213 0.79750 0.92699
 C1283 C 0.48359 0.78526 0.92587
 C1284 C 0.48171 0.77083 0.91047
 C1285 C 0.49805 0.76813 0.89568
 C1286 C 0.51668 0.77965 0.89667
 H1287 H 0.55879 0.85021 0.94864
 H1288 H 0.49833 0.86097 0.99810
 H1289 H 0.56132 0.87558 0.97389
 H1290 H 0.47811 0.83444 0.98309
 H1291 H 0.47357 0.80882 0.95825
 H1292 H 0.55503 0.82851 0.92635
 H1293 H 0.55028 0.80328 0.90118
 H1294 H 0.47020 0.78640 0.93657
 H1295 H 0.46727 0.76179 0.91004
 H1296 H 0.52959 0.77732 0.88548
 C1297 C 0.04610 0.36028 0.44532
 C1298 C 0.02764 0.34784 0.44560
 C1299 C 0.01126 0.35216 0.46045
 C1300 C 0.01340 0.36824 0.47425
 C1301 C 0.03170 0.38049 0.47362
 C1302 C 0.04801 0.37626 0.45907
 C1303 C -0.00732 0.34054 0.46143
 C1304 C -0.01024 0.32475 0.44786
 C1305 C 0.00544 0.31984 0.43263
 C1306 C 0.02480 0.33146 0.43160
 C1307 C 0.04061 0.32636 0.41656
 C1308 C 0.03757 0.31074 0.40280
 C1309 C 0.01871 0.29952 0.40337
 C1310 C 0.00238 0.30376 0.41834
 C1311 C -0.01637 0.29171 0.41824
 C1312 C -0.01876 0.27646 0.40376
 C1313 C -0.00275 0.27275 0.38888
 C1314 C 0.01610 0.28407 0.38892
 H1315 H 0.05938 0.35821 0.43465
 H1316 H 0.00053 0.37136 0.48528
 H1317 H 0.06246 0.38525 0.45827
 H1318 H -0.01988 0.34375 0.47280
 H1319 H -0.02513 0.31671 0.44975
 H1320 H 0.05566 0.33417 0.41491
 H1321 H 0.05015 0.30749 0.39147
 H1322 H -0.02957 0.29363 0.42904
 H1323 H -0.03334 0.26759 0.40410
 H1324 H 0.02879 0.28095 0.37773
 C1325 C 0.35914 0.54309 0.45206
 C1326 C 0.34691 0.54468 0.47066
 C1327 C 0.35157 0.53067 0.48697
 C1328 C 0.36807 0.51612 0.48473
 C1329 C 0.38028 0.51507 0.46634
 C1330 C 0.37549 0.52859 0.45003
 C1331 C 0.33985 0.53130 0.50553
 C1332 C 0.32354 0.54553 0.50840
 C1333 C 0.31831 0.55994 0.49276
 C1334 C 0.33031 0.55962 0.47363
 C1335 C 0.32551 0.57441 0.45822
 C1336 C 0.30958 0.58897 0.46128
 C1337 C 0.29765 0.58940 0.47971
 C1338 C 0.30164 0.57482 0.49570
 C1339 C 0.28867 0.57580 0.51392
 C1340 C 0.27290 0.59082 0.51619
 C1341 C 0.26956 0.60535 0.50055
 C1342 C 0.28172 0.60444 0.48223
 H1343 H 0.35652 0.55271 0.43867
 H1344 H 0.37156 0.50582 0.49753
 H1345 H 0.38429 0.52799 0.43545
 H1346 H 0.34336 0.52064 0.51806
 H1347 H 0.31550 0.54492 0.52329
 H1348 H 0.33395 0.57539 0.44356
 H1349 H 0.30659 0.60008 0.44903
 H1350 H 0.29013 0.56518 0.52670
 H1351 H 0.26328 0.59113 0.53034
 H1352 H 0.27879 0.61535 0.46983
 C1353 C 0.86075 0.03924 -0.04550
 C1354 C 0.84749 0.03908 -0.02747
 C1355 C 0.85281 0.02508 -0.01133
 C1356 C 0.87076 0.01204 -0.01329
 C1357 C 0.88396 0.01286 -0.03106
 C1358 C 0.87862 0.02642 -0.04716
 C1359 C 0.84040 0.02433 0.00682
 C1360 C 0.82302 0.03744 0.00962
 C1361 C 0.81723 0.05192 -0.00578
 C1362 C 0.82943 0.05250 -0.02479
 C1363 C 0.82327 0.06658 -0.04043
 C1364 C 0.80617 0.07994 -0.03751
 C1365 C 0.79450 0.07996 -0.01893
 C1366 C 0.79972 0.06593 -0.00278
 C1367 C 0.78725 0.06672 0.01578
 C1368 C 0.77064 0.08091 0.01811
 C1369 C 0.76592 0.09479 0.00220
 C1370 C 0.77765 0.09410 -0.01640
 H1371 H 0.85803 0.04922 -0.05860
 H1372 H 0.87477 0.00166 -0.00069
 H1373 H 0.88826 0.02716 -0.06126
 H1374 H 0.84429 0.01360 0.01916
 H1375 H 0.81446 0.03579 0.02416
 H1376 H 0.83133 0.06775 -0.05527
 H1377 H 0.80216 0.09054 -0.04994
 H1378 H 0.78995 0.05675 0.02890
 H1379 H 0.76150 0.08115 0.03254
 H1380 H 0.77379 0.10459 -0.02892
 C1381 C 0.63824 0.01465 0.00398
 C1382 C 0.64369 0.03083 0.01699
 C1383 C 0.63165 0.03307 0.03568
 C1384 C 0.61484 0.01971 0.04085
 C1385 C 0.60985 0.00369 0.02783
 C1386 C 0.62167 0.00139 0.00937
 C1387 C 0.63659 0.04848 0.04928
 C1388 C 0.65352 0.06155 0.04503
 C1389 C 0.66619 0.05986 0.02677
 C1390 C 0.66082 0.04459 0.01225
 C1391 C 0.67274 0.04360 -0.00653
 C1392 C 0.68970 0.05658 -0.01077
 C1393 C 0.69563 0.07101 0.00349
 C1394 C 0.68404 0.07296 0.02248
 C1395 C 0.69111 0.08775 0.03648
 C1396 C 0.70875 0.10001 0.03166
 C1397 C 0.71978 0.09802 0.01279
 C1398 C 0.71326 0.08346 -0.00116
 H1399 H 0.64662 0.01152 -0.01035
 H1400 H 0.60598 0.02155 0.05530
 H1401 H 0.61812 -0.01071 -0.00113
 H1402 H 0.62737 0.05034 0.06354
 H1403 H 0.65614 0.07298 0.05641
 H1404 H 0.66929 0.03303 -0.01852
 H1405 H 0.69841 0.05518 -0.02538
 H1406 H 0.68364 0.09006 0.05143
 H1407 H 0.71384 0.11087 0.04289
 H1408 H 0.72205 0.08176 -0.01569
 C1409 C 0.13824 0.53175 0.49076
 C1410 C 0.14489 0.54567 0.50579
 C1411 C 0.13347 0.54579 0.52499
 C1412 C 0.11651 0.53224 0.52893
 C1413 C 0.11049 0.51826 0.51402
 C1414 C 0.12142 0.51835 0.49487
 C1415 C 0.13913 0.55931 0.54030
 C1416 C 0.15613 0.57257 0.53720
 C1417 C 0.16836 0.57281 0.51856
 C1418 C 0.16252 0.55927 0.50251
 C1419 C 0.17467 0.55959 0.48381
 C1420 C 0.19210 0.57234 0.48097
 C1421 C 0.19821 0.58535 0.49653
 C1422 C 0.18641 0.58597 0.51552
 C1423 C 0.19350 0.59952 0.53076
 C1424 C 0.21163 0.61153 0.52731
 C1425 C 0.22313 0.61060 0.50859
 C1426 C 0.21635 0.59755 0.49326
 H1427 H 0.14568 0.53068 0.47564
 H1428 H 0.10828 0.53240 0.54385
 H1429 H 0.11700 0.50805 0.48282
 H1430 H 0.13038 0.55956 0.55496
 H1431 H 0.15932 0.58240 0.54990
 H1432 H 0.17129 0.54999 0.47097
 H1433 H 0.20104 0.57188 0.46641
 H1434 H 0.18565 0.60106 0.54564
 H1435 H 0.21681 0.62126 0.53954
 H1436 H 0.22546 0.59669 0.47882
 C1437 C 0.12861 0.45820 -0.04587
 C1438 C 0.14086 0.45725 -0.02759
 C1439 C 0.13565 0.47133 -0.01185
 C1440 C 0.11861 0.48536 -0.01433
 C1441 C 0.10642 0.48580 -0.03242
 C1442 C 0.11179 0.47217 -0.04815
 C1443 C 0.14743 0.47132 0.00633
 C1444 C 0.16431 0.45768 0.00934
 C1445 C 0.17010 0.44323 -0.00574
 C1446 C 0.15804 0.44290 -0.02445
 C1447 C 0.16343 0.42812 -0.03931
 C1448 C 0.18007 0.41429 -0.03621
 C1449 C 0.19213 0.41454 -0.01825
 C1450 C 0.18744 0.42901 -0.00272
 C1451 C 0.20041 0.42858 0.01515
 C1452 C 0.21709 0.41439 0.01737
 C1453 C 0.22136 0.40016 0.00204
 C1454 C 0.20892 0.40031 -0.01576
 H1455 H 0.13161 0.44850 -0.05886
 H1456 H 0.11475 0.49579 -0.00199
 H1457 H 0.10311 0.47226 -0.06253
 H1458 H 0.14357 0.48204 0.01842
 H1459 H 0.17243 0.45880 0.02386
 H1460 H 0.15496 0.42662 -0.05359
 H1461 H 0.18355 0.40323 -0.04809
 H1462 H 0.19825 0.43902 0.02767
 H1463 H 0.22672 0.41453 0.03120
 H1464 H 0.21222 0.38933 -0.02772
 C1465 C 0.62956 0.95424 0.49970
 C1466 C 0.64957 0.95446 0.48884
 C1467 C 0.65218 0.96888 0.47240
 C1468 C 0.63581 0.98305 0.46792
 C1469 C 0.61647 0.98280 0.47919
 C1470 C 0.61330 0.96822 0.49485
 C1471 C 0.67110 0.96915 0.46055
 C1472 C 0.68754 0.95527 0.46443
 C1473 C 0.68594 0.94079 0.48077
 C1474 C 0.66696 0.94086 0.49364
 C1475 C 0.66626 0.92776 0.51120
 C1476 C 0.68334 0.91487 0.51593
 C1477 C 0.70155 0.91404 0.50310
 C1478 C 0.70296 0.92661 0.48506
 C1479 C 0.72134 0.92434 0.47202
 C1480 C 0.73779 0.91067 0.47714
 C1481 C 0.73659 0.89899 0.49538
 C1482 C 0.71845 0.90070 0.50830
 H1483 H 0.62580 0.94328 0.51177
 H1484 H 0.63805 0.99428 0.45559
 H1485 H 0.59821 0.96776 0.50347
 H1486 H 0.67320 0.98018 0.44802
 H1487 H 0.70166 0.95672 0.45466
 H1488 H 0.65292 0.92754 0.52205
 H1489 H 0.68218 0.90531 0.52975
 H1490 H 0.72337 0.93260 0.45757
 H1491 H 0.75166 0.90936 0.46685
 H1492 H 0.71743 0.89181 0.52254
 C1493 C 0.85332 0.98943 0.51890
 C1494 C 0.85371 0.96814 0.52243
 C1495 C 0.87333 0.95914 0.52896
 C1496 C 0.89142 0.97120 0.53244
 C1497 C 0.89066 0.99225 0.52888
 C1498 C 0.87149 1.00117 0.52201
 C1499 C 0.87489 0.93814 0.53180
 C1500 C 0.85755 0.92572 0.52789
 C1501 C 0.83764 0.93388 0.52139
 C1502 C 0.83548 0.95550 0.51936
 C1503 C 0.81510 0.96378 0.51459
 C1504 C 0.79759 0.95146 0.51128
 C1505 C 0.79968 0.93038 0.51220
 C1506 C 0.81972 0.92120 0.51708
 C1507 C 0.82094 0.89968 0.51716
 C1508 C 0.80300 0.88801 0.51273
 C1509 C 0.78328 0.89727 0.50818
 C1510 C 0.78171 0.91846 0.50813
 H1511 H 0.83939 0.99751 0.51330
 H1512 H 0.90629 0.96408 0.53742
 H1513 H 0.87040 1.01740 0.51915
 H1514 H 0.88980 0.93117 0.53687
 H1515 H 0.86018 0.90970 0.53051
 H1516 H 0.81194 0.97988 0.51370
 H1517 H 0.78226 0.95855 0.50772
 H1518 H 0.83559 0.89138 0.52016
 H1519 H 0.80456 0.87161 0.51278
 H1520 H 0.76653 0.92587 0.50482
 C1521 C 0.35006 0.48084 0.00272
 C1522 C 0.34549 0.46281 0.01419
 C1523 C 0.35991 0.45703 0.03008
 C1524 C 0.37811 0.46876 0.03400
 C1525 C 0.38244 0.48650 0.02239
 C1526 C 0.36816 0.49237 0.00678
 C1527 C 0.35617 0.43952 0.04200
 C1528 C 0.33834 0.42759 0.03867
 C1529 C 0.32341 0.43264 0.02311
 C1530 C 0.32717 0.45043 0.01051
 C1531 C 0.31257 0.45517 -0.00544
 C1532 C 0.29487 0.44313 -0.00892
 C1533 C 0.29085 0.42592 0.00333
 C1534 C 0.30491 0.42043 0.01962
 C1535 C 0.29965 0.40300 0.03182
 C1536 C 0.28154 0.39148 0.02766
 C1537 C 0.26817 0.39675 0.01121
 C1538 C 0.27272 0.41418 -0.00066
 H1539 H 0.33996 0.48663 -0.00944
 H1540 H 0.38897 0.46387 0.04608
 H1541 H 0.37077 0.50608 -0.00236
 H1542 H 0.36718 0.43497 0.05411
 H1543 H 0.33688 0.41431 0.04854
 H1544 H 0.31438 0.46809 -0.01574
 H1545 H 0.28417 0.44738 -0.02139
 H1546 H 0.30901 0.39790 0.04482
 H1547 H 0.27812 0.37846 0.03753
 H1548 H 0.26195 0.41880 -0.01295
 C1549 C 0.55304 0.45245 0.36425
 C1550 C 0.55395 0.47090 0.35262
 C1551 C 0.53928 0.48658 0.35817
 C1552 C 0.52457 0.48378 0.37466
 C1553 C 0.52386 0.46542 0.38595
 C1554 C 0.53828 0.44985 0.38060
 C1555 C 0.53930 0.50503 0.34727
 C1556 C 0.55331 0.50827 0.33064
 C1557 C 0.56803 0.49311 0.32420
 C1558 C 0.56870 0.47428 0.33566
 C1559 C 0.58418 0.45952 0.32984
 C1560 C 0.59831 0.46287 0.31331
 C1561 C 0.59752 0.48090 0.30172
 C1562 C 0.58226 0.49623 0.30679
 C1563 C 0.58166 0.51386 0.29389
 C1564 C 0.59600 0.51627 0.27720
 C1565 C 0.61153 0.50143 0.27286
 C1566 C 0.61189 0.48359 0.28493
 H1567 H 0.56330 0.43960 0.36104
 H1568 H 0.51372 0.49610 0.37871
 H1569 H 0.53802 0.43540 0.38884
 H1570 H 0.52827 0.51714 0.35161
 H1571 H 0.55234 0.52306 0.32332
 H1572 H 0.58601 0.44517 0.33789
 H1573 H 0.60996 0.45110 0.30950
 H1574 H 0.57002 0.52590 0.29592
 H1575 H 0.59445 0.52962 0.26734
 H1576 H 0.62310 0.47151 0.28122
 C1577 C 0.05439 0.01031 0.87260
 C1578 C 0.06396 -0.00442 0.85956
 C1579 C 0.05836 -0.02504 0.86310
 C1580 C 0.04442 -0.03054 0.87953
 C1581 C 0.03500 -0.01571 0.89210
 C1582 C 0.04002 0.00470 0.88846
 C1583 C 0.06633 -0.04003 0.84999
 C1584 C 0.07909 -0.03496 0.83286
 C1585 C 0.08492 -0.01465 0.82852
 C1586 C 0.07829 0.00067 0.84277
 C1587 C 0.08639 0.02049 0.83989
 C1588 C 0.09965 0.02544 0.82309
 C1589 C 0.10484 0.01107 0.80818
 C1590 C 0.09735 -0.00914 0.81050
 C1591 C 0.10207 -0.02281 0.79433
 C1592 C 0.11379 -0.01659 0.77677
 C1593 C 0.12138 0.00325 0.77484
 C1594 C 0.11719 0.01692 0.79074
 H1595 H 0.05706 0.02637 0.87051
 H1596 H 0.04023 -0.04635 0.88201
 H1597 H 0.03283 0.01642 0.89796
 H1598 H 0.06228 -0.05583 0.85274
 H1599 H 0.08458 -0.04745 0.82353
 H1600 H 0.08316 0.03247 0.85068
 H1601 H 0.10551 0.04085 0.82151
 H1602 H 0.09630 -0.03818 0.79439
 H1603 H 0.11672 -0.02732 0.76449
 H1604 H 0.12304 0.03229 0.78945
 C1605 C 0.07506 0.03170 0.62082
 C1606 C 0.06854 0.02399 0.64054
 C1607 C 0.04693 0.01755 0.64298
 C1608 C 0.03267 0.01881 0.62631
 C1609 C 0.03934 0.02688 0.60707
 C1610 C 0.06066 0.03316 0.60449
 C1611 C 0.03951 0.01012 0.66211
 C1612 C 0.05288 0.00928 0.67910
 C1613 C 0.07445 0.01573 0.67765
 C1614 C 0.08258 0.02272 0.65792
 C1615 C 0.10447 0.02812 0.65622
 C1616 C 0.11792 0.02695 0.67315
 C1617 C 0.11015 0.02066 0.69256
 C1618 C 0.08825 0.01519 0.69521
 C1619 C 0.08110 0.00957 0.71545
 C1620 C 0.09526 0.00872 0.73199
 C1621 C 0.11694 0.01339 0.72898
 C1622 C 0.12424 0.01969 0.70935
 H1623 H 0.09104 0.03708 0.61748
 H1624 H 0.01614 0.01410 0.62855
 H1625 H 0.06634 0.03928 0.58973
 H1626 H 0.02307 0.00503 0.66403
 H1627 H 0.04579 0.00319 0.69319
 H1628 H 0.11192 0.03310 0.64187
 H1629 H 0.13464 0.03112 0.67103
 H1630 H 0.06464 0.00589 0.71915
 H1631 H 0.08908 0.00426 0.74713
 H1632 H 0.14102 0.02360 0.70710
 C1633 C 0.52131 0.50794 0.15267
 C1634 C 0.54232 0.51578 0.15444
 C1635 C 0.55062 0.52743 0.13748
 C1636 C 0.53828 0.53102 0.11972
 C1637 C 0.51753 0.52312 0.11826
 C1638 C 0.50925 0.51156 0.13491
 C1639 C 0.57122 0.53545 0.13826
 C1640 C 0.58394 0.53220 0.15548
 C1641 C 0.57654 0.52072 0.17282
 C1642 C 0.55534 0.51245 0.17233
 C1643 C 0.54784 0.50115 0.18976
 C1644 C 0.56052 0.49793 0.20700
 C1645 C 0.58119 0.50578 0.20769
 C1646 C 0.58961 0.51727 0.19066
 C1647 C 0.61082 0.52474 0.19228
 C1648 C 0.62285 0.52105 0.21006
 C1649 C 0.61422 0.50990 0.22673
 C1650 C 0.59350 0.50214 0.22543
 H1651 H 0.51362 0.49892 0.16466
 H1652 H 0.54505 0.53982 0.10690
 H1653 H 0.49321 0.50539 0.13441
 H1654 H 0.57764 0.54438 0.12534
 H1655 H 0.59958 0.53902 0.15467
 H1656 H 0.53210 0.49454 0.19069
 H1657 H 0.55402 0.48917 0.21999
 H1658 H 0.61869 0.53343 0.18014
 H1659 H 0.63902 0.52692 0.21073
 H1660 H 0.58691 0.49319 0.23823
 C1661 C 0.43982 -0.05418 0.14105
 C1662 C 0.44091 -0.03688 0.15372
 C1663 C 0.45677 -0.02225 0.14857
 C1664 C 0.47071 -0.02492 0.13147
 C1665 C 0.46952 -0.04220 0.11917
 C1666 C 0.45386 -0.05672 0.12416
 C1667 C 0.45877 -0.00500 0.16056
 C1668 C 0.44569 -0.00204 0.17787
 C1669 C 0.42984 -0.01626 0.18393
 C1670 C 0.42705 -0.03373 0.17136
 C1671 C 0.41046 -0.04740 0.17683
 C1672 C 0.39736 -0.04442 0.19414
 C1673 C 0.40028 -0.02784 0.20687
 C1674 C 0.41661 -0.01355 0.20208
 C1675 C 0.41923 0.00263 0.21596
 C1676 C 0.40600 0.00458 0.23350
 C1677 C 0.38958 -0.00926 0.23775
 C1678 C 0.38701 -0.02561 0.22453
 H1679 H 0.42854 -0.06624 0.14387
 H1680 H 0.48259 -0.01343 0.12793
 H1681 H 0.45242 -0.07030 0.11515
 H1682 H 0.47075 0.00634 0.15659
 H1683 H 0.44832 0.01177 0.18609
 H1684 H 0.40698 -0.06060 0.16793
 H1685 H 0.38484 -0.05535 0.19768
 H1686 H 0.43162 0.01384 0.21403
 H1687 H 0.40902 0.01679 0.24403
 H1688 H 0.37486 -0.03684 0.22796
 C1689 C 0.94837 0.44824 0.63076
 C1690 C 0.94663 0.46638 0.64215
 C1691 C 0.96047 0.48254 0.63628
 C1692 C 0.97501 0.48059 0.61951
 C1693 C 0.97632 0.46259 0.60825
 C1694 C 0.96290 0.44646 0.61418
 C1695 C 0.95974 0.50065 0.64712
 C1696 C 0.94570 0.50314 0.66382
 C1697 C 0.93155 0.48756 0.67036
 C1698 C 0.93178 0.46898 0.65914
 C1699 C 0.91702 0.45372 0.66514
 C1700 C 0.90271 0.45634 0.68161
 C1701 C 0.90254 0.47415 0.69292
 C1702 C 0.91702 0.49001 0.68763
 C1703 C 0.91643 0.50755 0.70005
 C1704 C 0.90192 0.50924 0.71667
 C1705 C 0.88743 0.49372 0.72137
 C1706 C 0.88794 0.47612 0.70962
 H1707 H 0.93891 0.43499 0.63431
 H1708 H 0.98518 0.49327 0.61519
 H1709 H 0.96364 0.43221 0.60613
 H1710 H 0.97023 0.51309 0.64265
 H1711 H 0.94620 0.51767 0.67115
 H1712 H 0.91588 0.43952 0.65728
 H1713 H 0.89165 0.44420 0.68557
 H1714 H 0.92710 0.52016 0.69759
 H1715 H 0.90204 0.52279 0.72594
 H1716 H 0.87719 0.46377 0.71355
 C1717 C 0.94006 0.54777 0.85775
 C1718 C 0.94017 0.52963 0.84628
 C1719 C 0.95489 0.51410 0.85223
 C1720 C 0.96865 0.51674 0.86899
 C1721 C 0.96829 0.53478 0.88021
 C1722 C 0.95385 0.55022 0.87434
 C1723 C 0.95586 0.49597 0.84146
 C1724 C 0.94266 0.49282 0.82473
 C1725 C 0.92775 0.50776 0.81805
 C1726 C 0.92631 0.52640 0.82914
 C1727 C 0.91103 0.54114 0.82279
 C1728 C 0.89773 0.53795 0.80615
 C1729 C 0.89908 0.52003 0.79505
 C1730 C 0.91414 0.50466 0.80070
 C1731 C 0.91499 0.48693 0.78855
 C1732 C 0.90135 0.48463 0.77181
 C1733 C 0.88636 0.49972 0.76670
 C1734 C 0.88543 0.51748 0.77821
 H1735 H 0.92966 0.56050 0.85430
 H1736 H 0.97958 0.50454 0.87331
 H1737 H 0.95322 0.56445 0.88244
 H1738 H 0.96703 0.48401 0.84598
 H1739 H 0.94450 0.47832 0.81744
 H1740 H 0.90876 0.55541 0.83042
 H1741 H 0.88623 0.54973 0.80190
 H1742 H 0.92608 0.47458 0.79139
 H1743 H 0.90252 0.47093 0.76279
 H1744 H 0.87427 0.52950 0.77401
 C1745 C 0.44329 0.04249 0.37714
 C1746 C 0.44605 0.02669 0.36268
 C1747 C 0.46401 0.01352 0.36521
 C1748 C 0.47855 0.01633 0.38130
 C1749 C 0.47569 0.03215 0.39537
 C1750 C 0.45785 0.04512 0.39311
 C1751 C 0.46750 -0.00245 0.35165
 C1752 C 0.45354 -0.00581 0.33558
 C1753 C 0.43540 0.00682 0.33226
 C1754 C 0.43167 0.02346 0.34592
 C1755 C 0.41381 0.03637 0.34228
 C1756 C 0.39996 0.03311 0.32605
 C1757 C 0.40319 0.01686 0.31279
 C1758 C 0.42090 0.00341 0.31567
 C1759 C 0.42325 -0.01294 0.30179
 C1760 C 0.40873 -0.01564 0.28586
 C1761 C 0.39144 -0.00226 0.28319
 C1762 C 0.38872 0.01399 0.29663
 H1763 H 0.43000 0.05307 0.37669
 H1764 H 0.49224 0.00616 0.38263
 H1765 H 0.45494 0.05736 0.40378
 H1766 H 0.48124 -0.01255 0.35350
 H1767 H 0.45761 -0.01847 0.32592
 H1768 H 0.41007 0.04933 0.35165
 H1769 H 0.38649 0.04347 0.32389
 H1770 H 0.43603 -0.02404 0.30278
 H1771 H 0.41103 -0.02831 0.27555
 H1772 H 0.37526 0.02437 0.29463
   
