data_POSCAR
  _audit_creation_date              2014-09-24
  _audit_creation_method            'ToBaCCo'
  _symmetry_space_group_name_H-M    'P1'
  _symmetry_Int_Tables_number       1
  _symmetry_cell_setting            triclinic
  loop_
  _symmetry_equiv_pos_as_xyz
 x,y,z
_cell_length_a 56.7297
_cell_length_b 55.9731
_cell_length_c 56.5039
_cell_angle_alpha 90.193100
_cell_angle_beta 90.295200
_cell_angle_gamma 90.140000
loop_
  _atom_site_label
  _atom_site_type_symbol
  _atom_site_fract_x
  _atom_site_fract_y
  _atom_site_fract_z
N1 N 0.16549 0.22477 0.23307
 N2 N 0.17266 0.20641 0.24557
 C3 C 0.15768 0.20298 0.26365
 C4 C 0.14013 0.22013 0.26246
 C5 C 0.14573 0.23366 0.24276
 H6 H 0.15964 0.18927 0.27692
 H7 H 0.13617 0.24884 0.23593
 Cu8 Cu 0.20107 0.18900 0.23722
 Cu9 Cu 0.18275 0.23618 0.20561
 Cu10 Cu 0.23474 0.20678 0.19175
 N11 N 0.22994 0.17232 0.22900
 N12 N 0.24313 0.17939 0.21130
 C13 C 0.26161 0.16449 0.20918
 C14 C 0.25997 0.14710 0.22654
 C15 C 0.23961 0.15274 0.23878
 H16 H 0.27514 0.16617 0.19589
 H17 H 0.23209 0.14301 0.25341
 N18 N 0.22306 0.23472 0.17401
 N19 N 0.20274 0.24516 0.17865
 C20 C 0.19900 0.26262 0.16274
 C21 C 0.21798 0.26342 0.14755
 C22 C 0.23294 0.24556 0.15524
 H23 H 0.18377 0.27419 0.16239
 H24 H 0.24953 0.24052 0.14733
 H25 H 0.19884 0.20418 0.19688
 H26 H 0.21543 0.22461 0.21719
 N27 N 0.66469 0.72420 0.72980
 N28 N 0.67052 0.70463 0.74116
 C29 C 0.65520 0.70106 0.75890
 C30 C 0.63877 0.71933 0.75871
 C31 C 0.64542 0.73372 0.73993
 H32 H 0.65619 0.68642 0.77126
 H33 H 0.63689 0.74989 0.73398
 Cu34 Cu 0.69774 0.68573 0.73218
 Cu35 Cu 0.68275 0.73587 0.70292
 Cu36 Cu 0.73220 0.70325 0.68722
 N37 N 0.72593 0.66814 0.72351
 N38 N 0.73935 0.67503 0.70593
 C39 C 0.75764 0.65988 0.70393
 C40 C 0.75563 0.64250 0.72125
 C41 C 0.73524 0.64840 0.73333
 H42 H 0.77150 0.66162 0.69101
 H43 H 0.72768 0.63898 0.74812
 N44 N 0.72213 0.73227 0.67039
 N45 N 0.70331 0.74471 0.67627
 C46 C 0.70121 0.76337 0.66138
 C47 C 0.71962 0.76267 0.64535
 C48 C 0.73247 0.74265 0.65167
 H49 H 0.68738 0.77658 0.66226
 H50 H 0.74809 0.73593 0.64311
 H51 H 0.69613 0.70321 0.69270
 H52 H 0.71439 0.72127 0.71379
 N53 N 0.33083 0.77158 0.73083
 N54 N 0.32219 0.78828 0.74465
 C55 C 0.33702 0.79196 0.76296
 C56 C 0.35599 0.77662 0.76059
 C57 C 0.35142 0.76395 0.73995
 H58 H 0.33398 0.80459 0.77713
 H59 H 0.36230 0.75029 0.73203
 Cu60 Cu 0.29215 0.80326 0.73786
 Cu61 Cu 0.31460 0.76096 0.70221
 Cu62 Cu 0.26466 0.79253 0.68596
 N63 N 0.26690 0.82352 0.72650
 N64 N 0.25590 0.81913 0.70645
 C65 C 0.23905 0.83570 0.70317
 C66 C 0.23954 0.85155 0.72221
 C67 C 0.25760 0.84310 0.73661
 H68 H 0.22759 0.83618 0.68786
 H69 H 0.26363 0.85040 0.75330
 N70 N 0.27660 0.76502 0.66775
 N71 N 0.29565 0.75305 0.67393
 C72 C 0.29920 0.73535 0.65819
 C73 C 0.28155 0.73612 0.64115
 C74 C 0.26754 0.75523 0.64788
 H75 H 0.31354 0.72275 0.65924
 H76 H 0.25185 0.76158 0.63904
 H77 H 0.29955 0.79416 0.69655
 H78 H 0.28063 0.77103 0.71098
 N79 N 0.83276 0.27232 0.23074
 N80 N 0.82832 0.29321 0.24032
 C81 C 0.84309 0.29685 0.25867
 C82 C 0.85781 0.27712 0.26083
 C83 C 0.85055 0.26190 0.24267
 H84 H 0.84298 0.31279 0.26949
 H85 H 0.85771 0.24462 0.23816
 Cu86 Cu 0.80392 0.31401 0.22790
 Cu87 Cu 0.81556 0.26062 0.20312
 Cu88 Cu 0.76728 0.29381 0.18520
 N89 N 0.77444 0.32996 0.22065
 N90 N 0.76020 0.32217 0.20391
 C91 C 0.74141 0.33675 0.20250
 C92 C 0.74395 0.35464 0.21936
 C93 C 0.76517 0.34968 0.23056
 H94 H 0.72690 0.33434 0.19025
 H95 H 0.77345 0.35978 0.24467
 N96 N 0.77752 0.26458 0.16870
 N97 N 0.79590 0.25193 0.17556
 C98 C 0.79872 0.23345 0.16055
 C99 C 0.78127 0.23443 0.14331
 C100 C 0.76815 0.25446 0.14915
 H101 H 0.81269 0.22047 0.16195
 H102 H 0.75300 0.26137 0.13978
 H103 H 0.80344 0.29290 0.19010
 H104 H 0.78497 0.27798 0.21313
 N105 N 0.82973 0.73104 0.26802
 N106 N 0.82479 0.71114 0.25665
 C107 C 0.84041 0.70821 0.23899
 C108 C 0.85605 0.72732 0.23932
 C109 C 0.84862 0.74142 0.25806
 H110 H 0.84032 0.69332 0.22679
 H111 H 0.85650 0.75789 0.26427
 Cu112 Cu 0.79851 0.69098 0.26618
 Cu113 Cu 0.81171 0.74185 0.29520
 Cu114 Cu 0.76475 0.70642 0.31262
 N115 N 0.77134 0.67196 0.27547
 N116 N 0.75831 0.67796 0.29369
 C117 C 0.74071 0.66197 0.29600
 C118 C 0.74272 0.64498 0.27822
 C119 C 0.76243 0.65196 0.26555
 H120 H 0.72722 0.66295 0.30940
 H121 H 0.76979 0.64315 0.25025
 N122 N 0.77403 0.73597 0.32939
 N123 N 0.79151 0.74977 0.32232
 C124 C 0.79321 0.76873 0.33696
 C125 C 0.77611 0.76672 0.35420
 C126 C 0.76430 0.74570 0.34886
 H127 H 0.80628 0.78273 0.33557
 H128 H 0.74957 0.73819 0.35837
 H129 H 0.80043 0.70840 0.30579
 H130 H 0.78040 0.72526 0.28554
 N131 N 0.32819 0.23235 -0.23275
 N132 N 0.32314 0.21272 -0.24452
 C133 C 0.33898 0.20979 -0.26194
 C134 C 0.35496 0.22867 -0.26118
 C135 C 0.34736 0.24265 -0.24232
 H136 H 0.33867 0.19505 -0.27430
 H137 H 0.35522 0.25898 -0.23573
 Cu138 Cu 0.29622 0.19285 -0.23625
 Cu139 Cu 0.30987 0.24278 -0.20556
 Cu140 Cu 0.26111 0.20857 -0.19100
 N141 N 0.26813 0.17454 -0.22838
 N142 N 0.25445 0.18082 -0.21076
 C143 C 0.23648 0.16519 -0.20917
 C144 C 0.23891 0.14806 -0.22679
 C145 C 0.25927 0.15469 -0.23864
 H146 H 0.22274 0.16627 -0.19606
 H147 H 0.26716 0.14571 -0.25357
 N148 N 0.27067 0.23725 -0.17309
 N149 N 0.28918 0.25035 -0.17862
 C150 C 0.29127 0.26833 -0.16283
 C151 C 0.27319 0.26650 -0.14650
 C152 C 0.26051 0.24654 -0.15366
 H153 H 0.30505 0.28167 -0.16316
 H154 H 0.24521 0.23902 -0.14514
 H155 H 0.29720 0.20951 -0.19630
 H156 H 0.27864 0.22748 -0.21702
 N157 N 0.67008 0.27312 -0.23463
 N158 N 0.67645 0.29248 -0.24602
 C159 C 0.66120 0.29624 -0.26397
 C160 C 0.64424 0.27822 -0.26391
 C161 C 0.65064 0.26388 -0.24491
 H162 H 0.66249 0.31102 -0.27613
 H163 H 0.64182 0.24799 -0.23870
 Cu164 Cu 0.70405 0.31090 -0.23622
 Cu165 Cu 0.68709 0.26148 -0.20700
 Cu166 Cu 0.73680 0.29316 -0.18970
 N167 N 0.73254 0.32805 -0.22667
 N168 N 0.74518 0.32095 -0.20848
 C169 C 0.76357 0.33587 -0.20546
 C170 C 0.76253 0.35340 -0.22268
 C171 C 0.74255 0.34779 -0.23588
 H172 H 0.77674 0.33400 -0.19171
 H173 H 0.73562 0.35752 -0.25084
 N174 N 0.72552 0.26460 -0.17292
 N175 N 0.70659 0.25252 -0.17949
 C176 C 0.70335 0.23424 -0.16442
 C177 C 0.72110 0.23476 -0.14745
 C178 C 0.73481 0.25432 -0.15351
 H179 H 0.68899 0.22159 -0.16567
 H180 H 0.75039 0.26074 -0.14443
 H181 H 0.70096 0.29405 -0.19658
 H182 H 0.71937 0.27536 -0.21674
 N183 N 0.16625 0.78084 0.27123
 N184 N 0.17388 0.79903 0.25878
 C185 C 0.16010 0.80153 0.23948
 C186 C 0.14278 0.78399 0.23988
 C187 C 0.14733 0.77119 0.26037
 H188 H 0.16246 0.81526 0.22629
 H189 H 0.13737 0.75630 0.26727
 Cu190 Cu 0.20020 0.81859 0.26960
 Cu191 Cu 0.18063 0.77188 0.30120
 Cu192 Cu 0.23545 0.79700 0.31261
 N193 N 0.23075 0.83281 0.27661
 N194 N 0.24437 0.82435 0.29344
 C195 C 0.26385 0.83797 0.29521
 C196 C 0.26258 0.85606 0.27845
 C197 C 0.24122 0.85201 0.26689
 H198 H 0.27775 0.83487 0.30795
 H199 H 0.23346 0.86249 0.25286
 N200 N 0.22303 0.76940 0.33016
 N201 N 0.20199 0.76015 0.32611
 C202 C 0.19839 0.74197 0.34123
 C203 C 0.21809 0.73968 0.35564
 C204 C 0.23334 0.75742 0.34804
 H205 H 0.18249 0.73132 0.34175
 H206 H 0.25070 0.76135 0.35496
 H207 H 0.20003 0.80241 0.31004
 H208 H 0.21283 0.78147 0.28783
 N209 N 0.47701 0.41919 0.47710
 N210 N 0.45765 0.42503 0.48834
 C211 C 0.45445 0.40973 0.50642
 C212 C 0.47281 0.39336 0.50650
 C213 C 0.48674 0.40004 0.48753
 H214 H 0.43991 0.41057 0.51866
 H215 H 0.50278 0.39162 0.48161
 Cu216 Cu 0.43867 0.45214 0.47825
 Cu217 Cu 0.48832 0.43674 0.44979
 Cu218 Cu 0.45614 0.48611 0.43227
 N219 N 0.42121 0.48040 0.46852
 N220 N 0.42824 0.49368 0.45076
 C221 C 0.41325 0.51208 0.44806
 C222 C 0.39579 0.51026 0.46502
 C223 C 0.40146 0.48990 0.47769
 H224 H 0.41484 0.52563 0.43458
 H225 H 0.39208 0.48273 0.49269
 N226 N 0.48487 0.47549 0.41583
 N227 N 0.49705 0.45664 0.42258
 C228 C 0.51537 0.45367 0.40785
 C229 C 0.51478 0.47145 0.39088
 C230 C 0.49517 0.48500 0.39657
 H231 H 0.52823 0.43956 0.40942
 H232 H 0.48863 0.50042 0.38717
 H233 H 0.47352 0.46910 0.45957
 H234 H 0.45596 0.44990 0.43884
 N235 N -0.02215 -0.07904 0.97718
 N236 N -0.04332 -0.07512 0.98560
 C237 C -0.04751 -0.09045 1.00338
 C238 C -0.02790 -0.10491 1.00633
 C239 C -0.01213 -0.09705 0.98931
 H240 H -0.06375 -0.09099 1.01326
 H241 H 0.00529 -0.10391 0.98583
 Cu242 Cu -0.06373 -0.05066 0.97253
 Cu243 Cu -0.00954 -0.06091 0.95071
 Cu244 Cu -0.04239 -0.01244 0.93201
 N245 N -0.07961 -0.02091 0.96517
 N246 N -0.07118 -0.00595 0.94946
 C247 C -0.08549 0.01313 0.94803
 C248 C -0.10396 0.00997 0.96369
 C249 C -0.09960 -0.01189 0.97426
 H250 H -0.08272 0.02808 0.93631
 H251 H -0.10995 -0.02049 0.98781
 N252 N -0.01275 -0.02211 0.91677
 N253 N -0.00003 -0.04036 0.92413
 C254 C 0.01893 -0.04262 0.91007
 C255 C 0.01806 -0.02502 0.89293
 C256 C -0.00229 -0.01235 0.89776
 H257 H 0.03204 -0.05650 0.91173
 H258 H -0.00902 0.00283 0.88811
 H259 H -0.02787 -0.03054 0.96042
 H260 H -0.04097 -0.04921 0.93609
 N261 N 1.02593 0.58428 0.98048
 N262 N 1.04204 0.57544 0.99474
 C263 C 1.04316 0.58885 1.01450
 C264 C 1.02697 0.60724 1.01255
 C265 C 1.01630 0.60371 0.99066
 H266 H 1.05513 0.58562 1.02908
 H267 H 1.00310 0.61484 0.98237
 Cu268 Cu 1.06131 0.54845 0.98530
 Cu269 Cu 1.02015 0.57073 0.94915
 Cu270 Cu 1.04185 0.51315 0.94137
 N271 N 1.07838 0.51992 0.97604
 N272 N 1.07093 0.50620 0.95862
 C273 C 1.08559 0.48742 0.95643
 C274 C 1.10315 0.48948 0.97349
 C275 C 1.09796 0.51038 0.98555
 H276 H 1.08328 0.47308 0.94375
 H277 H 1.10772 0.51806 1.00019
 N278 N 1.01750 0.52730 0.92070
 N279 N 1.00967 0.54931 0.92340
 C280 C 0.99320 0.55369 0.90677
 C281 C 0.99048 0.53346 0.89276
 C282 C 1.00631 0.51713 0.90215
 H283 H 0.98375 0.57035 0.90523
 H284 H 1.00929 0.49904 0.89619
 H285 H 1.02544 0.53811 0.96364
 H286 H 1.04943 0.54845 0.94364
 N287 N 0.52549 0.08157 0.48150
 N288 N 0.54123 0.07307 0.49635
 C289 C 0.54201 0.08711 0.51574
 C290 C 0.52584 0.10545 0.51287
 C291 C 0.51575 0.10132 0.49084
 H292 H 0.55348 0.08419 0.53079
 H293 H 0.50259 0.11204 0.48198
 Cu294 Cu 0.55967 0.04501 0.48815
 Cu295 Cu 0.51967 0.06694 0.45074
 Cu296 Cu 0.53784 0.00783 0.44676
 N297 N 0.57675 0.01666 0.47829
 N298 N 0.56784 0.00162 0.46268
 C299 C 0.58277 -0.01687 0.45996
 C300 C 0.60227 -0.01291 0.47431
 C301 C 0.59781 0.00854 0.48566
 H302 H 0.57991 -0.03173 0.44798
 H303 H 0.60897 0.01742 0.49855
 N304 N 0.51417 0.02200 0.42525
 N305 N 0.50796 0.04467 0.42643
 C306 C 0.49209 0.04921 0.40931
 C307 C 0.48805 0.02843 0.39654
 C308 C 0.50247 0.01152 0.40716
 H309 H 0.48409 0.06647 0.40645
 H310 H 0.50429 -0.00705 0.40220
 H311 H 0.52303 0.03519 0.46737
 H312 H 0.54755 0.04255 0.44672
 N313 N -0.02949 0.08317 0.52636
 N314 N -0.04762 0.07629 0.51347
 C315 C -0.04991 0.09106 0.49484
 C316 C -0.03220 0.10819 0.49614
 C317 C -0.01968 0.10259 0.51652
 H318 H -0.06327 0.08920 0.48124
 H319 H -0.00449 0.11181 0.52376
 Cu320 Cu -0.06641 0.04874 0.52258
 Cu321 Cu -0.01995 0.06612 0.55478
 Cu322 Cu -0.03702 0.00663 0.55290
 N323 N -0.08041 0.01778 0.52904
 N324 N -0.06837 0.00085 0.53972
 C325 C -0.08159 -0.01915 0.54052
 C326 C -0.10320 -0.01418 0.53032
 C327 C -0.10193 0.00939 0.52329
 H328 H -0.07619 -0.03575 0.54864
 H329 H -0.11556 0.01952 0.51443
 N330 N -0.01144 0.01877 0.57359
 N331 N -0.00549 0.04155 0.57471
 C332 C 0.01129 0.04454 0.59133
 C333 C 0.01613 0.02257 0.60142
 C334 C 0.00133 0.00664 0.58971
 H335 H 0.01894 0.06161 0.59609
 H336 H -0.00039 -0.01231 0.59293
 H337 H -0.02667 0.03722 0.53465
 H338 H -0.04699 0.04069 0.56033
 N339 N 0.47609 0.57835 0.01860
 N340 N 0.45646 0.57247 0.00760
 C341 C 0.45233 0.58832 -0.00980
 C342 C 0.47035 0.60511 -0.00973
 C343 C 0.48510 0.59814 0.00863
 H344 H 0.43748 0.58747 -0.02183
 H345 H 0.50118 0.60679 0.01442
 Cu346 Cu 0.43876 0.54432 0.01696
 Cu347 Cu 0.48855 0.55980 0.04497
 Cu348 Cu 0.45747 0.50873 0.06089
 N349 N 0.42115 0.51602 0.02596
 N350 N 0.42899 0.50155 0.04250
 C351 C 0.41384 0.48312 0.04473
 C352 C 0.39541 0.48644 0.02893
 C353 C 0.40063 0.50748 0.01736
 H354 H 0.41570 0.46876 0.05736
 H355 H 0.39027 0.51580 0.00356
 N356 N 0.48661 0.51934 0.07726
 N357 N 0.49829 0.53876 0.07113
 C358 C 0.51663 0.54183 0.08601
 C359 C 0.51658 0.52358 0.10250
 C360 C 0.49727 0.50960 0.09630
 H361 H 0.52895 0.55652 0.08504
 H362 H 0.49103 0.49385 0.10535
 H363 H 0.47429 0.52733 0.03447
 H364 H 0.45687 0.54520 0.05608
 N365 N 0.52442 -0.08115 0.02221
 N366 N 0.54378 -0.07529 0.01096
 C367 C 0.54722 -0.09082 -0.00691
 C368 C 0.52907 -0.10743 -0.00692
 C369 C 0.51490 -0.10066 0.01188
 H370 H 0.56174 -0.08990 -0.01915
 H371 H 0.49891 -0.10929 0.01774
 Cu372 Cu 0.56271 -0.04789 0.02043
 Cu373 Cu 0.51307 -0.06294 0.04931
 Cu374 Cu 0.54590 -0.01322 0.06592
 N375 N 0.58053 -0.01963 0.02965
 N376 N 0.57387 -0.00613 0.04744
 C377 C 0.58915 0.01213 0.04996
 C378 C 0.60639 0.01005 0.03278
 C379 C 0.60027 -0.01037 0.02021
 H380 H 0.58763 0.02600 0.06321
 H381 H 0.60956 -0.01805 0.00539
 N382 N 0.51710 -0.02326 0.08246
 N383 N 0.50457 -0.04217 0.07624
 C384 C 0.48617 -0.04430 0.09109
 C385 C 0.48713 -0.02581 0.10746
 C386 C 0.50702 -0.01288 0.10137
 H387 H 0.47300 -0.05824 0.08998
 H388 H 0.51389 0.00278 0.11026
 H389 H 0.52787 -0.03090 0.03905
 H390 H 0.54545 -0.04974 0.05984
 N391 N 1.02326 0.41969 0.52219
 N392 N 1.04244 0.42520 0.51045
 C393 C 1.04506 0.40962 0.49244
 C394 C 1.02651 0.39342 0.49291
 C395 C 1.01307 0.40046 0.51212
 H396 H 1.05930 0.41016 0.47983
 H397 H 0.99717 0.39213 0.51857
 Cu398 Cu 1.06170 0.45252 0.51970
 Cu399 Cu 1.01299 0.43746 0.54993
 Cu400 Cu 1.05038 0.48219 0.57015
 N401 N 1.08052 0.47995 0.52952
 N402 N 1.07589 0.49154 0.54920
 C403 C 1.09149 0.50949 0.55193
 C404 C 1.10683 0.50926 0.53288
 C405 C 1.09923 0.49020 0.51902
 H406 H 1.09153 0.52172 0.56676
 H407 H 1.10680 0.48410 0.50258
 N408 N 1.02034 0.47425 0.58565
 N409 N 1.00601 0.45737 0.57781
 C410 C 0.98708 0.45626 0.59204
 C411 C 0.98951 0.47333 0.60967
 C412 C 1.01082 0.48445 0.60498
 H413 H 0.97252 0.44399 0.58964
 H414 H 1.01894 0.49874 0.61503
 H415 H 1.02982 0.46966 0.54264
 H416 H 1.04651 0.44658 0.55963
 Si417 Si 0.37422 0.00175 0.25159
 Si418 Si 0.12938 -0.00136 0.74692
 Si419 Si 0.62960 0.49894 0.24825
 Si420 Si 0.87359 0.50134 0.75125
 Si421 Si 0.24748 0.37616 0.00247
 Si422 Si 0.75125 0.12142 -0.00247
 Si423 Si 0.25060 0.62188 0.49644
 Si424 Si 0.74927 0.87730 0.50182
 Si425 Si -0.00191 0.24869 0.37748
 Si426 Si -0.00067 0.75383 0.12527
 Si427 Si 0.49818 0.25197 0.62569
 Si428 Si 0.49887 0.74967 0.87589
 C429 C 0.08208 0.22945 0.31079
 C430 C 0.08817 0.24785 0.29481
 C431 C 0.10700 0.24469 0.27904
 C432 C 0.12006 0.22339 0.27892
 C433 C 0.11392 0.20522 0.29479
 C434 C 0.09524 0.20814 0.31048
 C435 C 0.06190 0.23353 0.32736
 C436 C 0.05430 0.21624 0.34375
 C437 C 0.03541 0.22086 0.35877
 C438 C 0.02375 0.24283 0.35798
 C439 C 0.03087 0.26009 0.34164
 C440 C 0.04987 0.25565 0.32639
 C441 C 0.07553 0.26933 0.29472
 C442 C 0.05681 0.27315 0.31018
 H443 H 0.08019 0.28344 0.28251
 H444 H 0.04761 0.29007 0.30940
 H445 H 0.11159 0.25901 0.26707
 H446 H 0.12341 0.18848 0.29504
 H447 H 0.02988 0.20700 0.37081
 H448 H 0.02158 0.27697 0.34078
 H449 H 0.09147 0.19347 0.32219
 H450 H 0.06256 0.19899 0.34522
 C451 C 0.58120 0.72902 0.80759
 C452 C 0.58769 0.74764 0.79201
 C453 C 0.60634 0.74436 0.77604
 C454 C 0.61877 0.72270 0.77526
 C455 C 0.61209 0.70424 0.79061
 C456 C 0.59362 0.70730 0.80653
 C457 C 0.56137 0.73330 0.82455
 C458 C 0.55365 0.71598 0.84086
 C459 C 0.53514 0.72088 0.85630
 C460 C 0.52402 0.74313 0.85597
 C461 C 0.53128 0.76041 0.83970
 C462 C 0.54992 0.75575 0.82411
 C463 C 0.57561 0.76943 0.79249
 C464 C 0.55711 0.77338 0.80816
 H465 H 0.58054 0.78369 0.78056
 H466 H 0.54834 0.79056 0.80783
 H467 H 0.61126 0.75887 0.76442
 H468 H 0.62101 0.68720 0.79034
 H469 H 0.52948 0.70706 0.86834
 H470 H 0.52242 0.77755 0.83923
 H471 H 0.58943 0.69241 0.81780
 H472 H 0.56156 0.69854 0.84199
 C473 C 0.41487 0.76882 0.80860
 C474 C 0.40937 0.75059 0.79202
 C475 C 0.39035 0.75336 0.77629
 C476 C 0.37638 0.77401 0.77688
 C477 C 0.38183 0.79201 0.79337
 C478 C 0.40079 0.78952 0.80899
 C479 C 0.43528 0.76510 0.82515
 C480 C 0.44256 0.78233 0.84195
 C481 C 0.46153 0.77785 0.85712
 C482 C 0.47352 0.75608 0.85602
 C483 C 0.46681 0.73900 0.83915
 C484 C 0.44784 0.74331 0.82374
 C485 C 0.42271 0.72957 0.79139
 C486 C 0.44146 0.72597 0.80697
 H487 H 0.41848 0.71560 0.77872
 H488 H 0.45114 0.70934 0.80585
 H489 H 0.38621 0.73916 0.76387
 H490 H 0.37153 0.80824 0.79416
 H491 H 0.46679 0.79154 0.86962
 H492 H 0.47638 0.72229 0.83807
 H493 H 0.40400 0.80396 0.82127
 H494 H 0.43397 0.79940 0.84363
 C495 C -0.08621 0.26731 0.31030
 C496 C -0.09191 0.24913 0.29380
 C497 C -0.11046 0.25240 0.27755
 C498 C -0.12380 0.27363 0.27742
 C499 C -0.11820 0.29139 0.29423
 C500 C -0.09978 0.28833 0.31036
 C501 C -0.06600 0.26335 0.32703
 C502 C -0.05838 0.28075 0.34348
 C503 C -0.03939 0.27628 0.35857
 C504 C -0.02765 0.25435 0.35781
 C505 C -0.03476 0.23700 0.34137
 C506 C -0.05380 0.24132 0.32597
 C507 C -0.07907 0.22776 0.29360
 C508 C -0.06052 0.22390 0.30941
 H509 H -0.08346 0.21376 0.28102
 H510 H -0.05117 0.20705 0.30853
 H511 H -0.11434 0.23821 0.26508
 H512 H -0.12787 0.30798 0.29510
 H513 H -0.03383 0.29025 0.37062
 H514 H -0.02537 0.22017 0.34049
 H515 H -0.09653 0.30269 0.32271
 H516 H -0.06663 0.29801 0.34486
 C517 C -0.08451 0.74019 0.19342
 C518 C -0.09683 0.71820 0.19234
 C519 C -0.11615 0.71410 0.20728
 C520 C -0.12361 0.73168 0.22339
 C521 C -0.11141 0.75352 0.22424
 C522 C -0.09219 0.75775 0.20952
 C523 C -0.06393 0.74384 0.17725
 C524 C -0.05026 0.76491 0.17729
 C525 C -0.03143 0.76752 0.16173
 C526 C -0.02584 0.74934 0.14571
 C527 C -0.03891 0.72811 0.14573
 C528 C -0.05792 0.72524 0.16134
 C529 C -0.08984 0.70043 0.17633
 C530 C -0.07086 0.70391 0.16112
 H531 H -0.09926 0.68358 0.17546
 H532 H -0.06624 0.68964 0.14900
 H533 H -0.12522 0.69709 0.20635
 H534 H -0.11672 0.76760 0.23620
 H535 H -0.02124 0.78391 0.16212
 H536 H -0.03436 0.71378 0.13370
 H537 H -0.08369 0.77494 0.21103
 H538 H -0.05373 0.77959 0.18915
 C539 C 0.41382 0.24070 0.69379
 C540 C 0.40016 0.21963 0.69156
 C541 C 0.38070 0.21585 0.70636
 C542 C 0.37449 0.23265 0.72387
 C543 C 0.38836 0.25344 0.72611
 C544 C 0.40763 0.25745 0.71132
 C545 C 0.43435 0.24410 0.67745
 C546 C 0.44878 0.26467 0.67781
 C547 C 0.46768 0.26686 0.66222
 C548 C 0.47262 0.24872 0.64591
 C549 C 0.45858 0.22814 0.64545
 C550 C 0.43942 0.22578 0.66089
 C551 C 0.40605 0.20231 0.67466
 C552 C 0.42532 0.20525 0.65976
 H553 H 0.39564 0.18611 0.67298
 H554 H 0.42917 0.19126 0.64706
 H555 H 0.37068 0.19953 0.70418
 H556 H 0.38442 0.26696 0.73920
 H557 H 0.47852 0.28281 0.66289
 H558 H 0.46247 0.21387 0.63313
 H559 H 0.41745 0.27375 0.71401
 H560 H 0.44577 0.27926 0.68991
 C561 C 0.58545 0.26976 0.68956
 C562 C 0.59013 0.25258 0.70725
 C563 C 0.60953 0.25548 0.72257
 C564 C 0.62481 0.27527 0.72056
 C565 C 0.62016 0.29206 0.70265
 C566 C 0.60085 0.28939 0.68745
 C567 C 0.56438 0.26615 0.67377
 C568 C 0.55771 0.28265 0.65619
 C569 C 0.53800 0.27843 0.64190
 C570 C 0.52458 0.25763 0.64461
 C571 C 0.53070 0.24128 0.66227
 C572 C 0.55044 0.24538 0.67686
 C573 C 0.57550 0.23251 0.70952
 C574 C 0.55617 0.22892 0.69457
 H575 H 0.57910 0.21929 0.72302
 H576 H 0.54547 0.21306 0.69700
 H577 H 0.61258 0.24204 0.73594
 H578 H 0.63128 0.30755 0.70021
 H579 H 0.53329 0.29166 0.62883
 H580 H 0.52004 0.22537 0.66465
 H581 H 0.59839 0.30291 0.67413
 H582 H 0.56733 0.29900 0.65326
 C583 C 0.08477 0.77404 0.19087
 C584 C 0.09018 0.75632 0.20784
 C585 C 0.10918 0.75958 0.22356
 C586 C 0.12308 0.78036 0.22279
 C587 C 0.11780 0.79779 0.20577
 C588 C 0.09896 0.79472 0.19004
 C589 C 0.06416 0.76996 0.17458
 C590 C 0.05705 0.78662 0.15729
 C591 C 0.03774 0.78190 0.14255
 C592 C 0.02520 0.76047 0.14459
 C593 C 0.03178 0.74396 0.16192
 C594 C 0.05116 0.74845 0.17682
 C595 C 0.07660 0.73543 0.20910
 C596 C 0.05753 0.73158 0.19391
 H597 H 0.08076 0.72183 0.22206
 H598 H 0.04758 0.71512 0.19561
 H599 H 0.11312 0.74577 0.23635
 H600 H 0.12802 0.81408 0.20469
 H601 H 0.03265 0.79517 0.12966
 H602 H 0.02182 0.72751 0.16371
 H603 H 0.09580 0.80880 0.17746
 H604 H 0.06605 0.80341 0.15489
 C605 C 0.30566 0.08661 0.23877
 C606 C 0.30746 0.09998 0.21763
 C607 C 0.29266 0.11972 0.21380
 C608 C 0.27593 0.12651 0.23077
 C609 C 0.27438 0.11332 0.25178
 C610 C 0.28898 0.09369 0.25578
 C611 C 0.32172 0.06561 0.24215
 C612 C 0.32108 0.05094 0.26238
 C613 C 0.33668 0.03184 0.26481
 C614 C 0.35331 0.02697 0.24729
 C615 C 0.35376 0.04096 0.22681
 C616 C 0.33819 0.06026 0.22415
 C617 C 0.32401 0.09359 0.20043
 C618 C 0.33907 0.07421 0.20364
 H619 H 0.32542 0.10381 0.18423
 H620 H 0.35163 0.07009 0.18984
 H621 H 0.29408 0.12958 0.19741
 H622 H 0.26194 0.11818 0.26541
 H623 H 0.33590 0.02094 0.28060
 H624 H 0.36621 0.03697 0.21292
 H625 H 0.28692 0.08441 0.27232
 H626 H 0.30877 0.05387 0.27656
 C627 C 0.80271 0.58360 0.73548
 C628 C 0.80454 0.59663 0.71413
 C629 C 0.78917 0.61574 0.70959
 C630 C 0.77182 0.62224 0.72603
 C631 C 0.77007 0.60924 0.74716
 C632 C 0.78525 0.59024 0.75185
 C633 C 0.81953 0.56339 0.73969
 C634 C 0.81913 0.54927 0.76032
 C635 C 0.83533 0.53082 0.76346
 C636 C 0.85233 0.52606 0.74627
 C637 C 0.85271 0.53961 0.72551
 C638 C 0.83655 0.55828 0.72214
 C639 C 0.82171 0.59056 0.69744
 C640 C 0.83736 0.57181 0.70136
 H641 H 0.82312 0.60051 0.68109
 H642 H 0.85036 0.56788 0.68792
 H643 H 0.79069 0.62539 0.69310
 H644 H 0.75708 0.61384 0.76035
 H645 H 0.83465 0.52027 0.77948
 H646 H 0.86553 0.53572 0.71192
 H647 H 0.78301 0.58108 0.76844
 H648 H 0.80652 0.55214 0.77424
 C649 C 0.81024 0.41308 0.76862
 C650 C 0.79381 0.40716 0.75058
 C651 C 0.77837 0.38771 0.75346
 C652 C 0.77896 0.37387 0.77415
 C653 C 0.79536 0.37978 0.79193
 C654 C 0.81077 0.39904 0.78926
 C655 C 0.82628 0.43410 0.76496
 C656 C 0.84306 0.44164 0.78193
 C657 C 0.85737 0.46150 0.77777
 C658 C 0.85543 0.47419 0.75658
 C659 C 0.83880 0.46701 0.73960
 C660 C 0.82428 0.44708 0.74357
 C661 C 0.79283 0.42069 0.72979
 C662 C 0.80773 0.44021 0.72637
 H663 H 0.78029 0.41616 0.71595
 H664 H 0.80622 0.45014 0.70999
 H665 H 0.76600 0.38334 0.73944
 H666 H 0.79624 0.36970 0.80820
 H667 H 0.86978 0.46698 0.79133
 H668 H 0.83710 0.47706 0.72331
 H669 H 0.82286 0.40262 0.80361
 H670 H 0.84535 0.43260 0.79860
 C671 C 0.31087 -0.08658 0.26842
 C672 C 0.29191 -0.09010 0.25243
 C673 C 0.27602 -0.10908 0.25579
 C674 C 0.27889 -0.12522 0.27468
 C675 C 0.29841 -0.12208 0.28987
 C676 C 0.31407 -0.10309 0.28687
 C677 C 0.32682 -0.06550 0.26485
 C678 C 0.34490 -0.05926 0.28095
 C679 C 0.35909 -0.03929 0.27699
 C680 C 0.35585 -0.02528 0.25680
 C681 C 0.33781 -0.03110 0.24077
 C682 C 0.32310 -0.05087 0.24479
 C683 C 0.28900 -0.07476 0.23309
 C684 C 0.30445 -0.05577 0.22917
 H685 H 0.27461 -0.07754 0.22068
 H686 H 0.30151 -0.04451 0.21388
 H687 H 0.26157 -0.11124 0.24337
 H688 H 0.30165 -0.13400 0.30453
 H689 H 0.37247 -0.03483 0.28995
 H690 H 0.33500 -0.01995 0.22535
 H691 H 0.32860 -0.10174 0.29918
 H692 H 0.34812 -0.06926 0.29691
 C693 C 0.19617 -0.08765 0.73403
 C694 C 0.19196 -0.10284 0.71440
 C695 C 0.20643 -0.12279 0.71047
 C696 C 0.22507 -0.12832 0.72608
 C697 C 0.22884 -0.11327 0.74576
 C698 C 0.21470 -0.09330 0.74967
 C699 C 0.18048 -0.06641 0.73746
 C700 C 0.18391 -0.04955 0.75576
 C701 C 0.16862 -0.03023 0.75831
 C702 C 0.14943 -0.02738 0.74295
 C703 C 0.14624 -0.04356 0.72425
 C704 C 0.16158 -0.06298 0.72138
 C705 C 0.17316 -0.09821 0.69891
 C706 C 0.15820 -0.07883 0.70243
 H707 H 0.16984 -0.10988 0.68391
 H708 H 0.14380 -0.07615 0.69005
 H709 H 0.20277 -0.13406 0.69530
 H710 H 0.24284 -0.11661 0.75835
 H711 H 0.17197 -0.01734 0.77226
 H712 H 0.13195 -0.04111 0.71178
 H713 H 0.21853 -0.08264 0.76515
 H714 H 0.19837 -0.05077 0.76814
 C715 C 0.69744 0.41393 0.23355
 C716 C 0.69520 0.40069 0.21227
 C717 C 0.71025 0.38130 0.20782
 C718 C 0.72776 0.37484 0.22425
 C719 C 0.72985 0.38797 0.24535
 C720 C 0.71494 0.40719 0.24999
 C721 C 0.68113 0.43459 0.23757
 C722 C 0.68196 0.44889 0.25814
 C723 C 0.66642 0.46793 0.26100
 C724 C 0.64965 0.47315 0.24356
 C725 C 0.64873 0.45931 0.22291
 C726 C 0.66423 0.44001 0.21984
 C727 C 0.67805 0.40694 0.19548
 C728 C 0.66293 0.42619 0.19917
 H729 H 0.67631 0.39682 0.17918
 H730 H 0.64999 0.43030 0.18561
 H731 H 0.70849 0.37150 0.19135
 H732 H 0.74295 0.38333 0.25852
 H733 H 0.66748 0.47865 0.27697
 H734 H 0.63607 0.46351 0.20917
 H735 H 0.71749 0.41649 0.26655
 H736 H 0.69443 0.44575 0.27223
 C737 C 0.69716 0.58452 0.26394
 C738 C 0.69542 0.59718 0.28558
 C739 C 0.71030 0.61679 0.29016
 C740 C 0.72703 0.62418 0.27343
 C741 C 0.72862 0.61159 0.25198
 C742 C 0.71395 0.59209 0.24726
 C743 C 0.68098 0.56367 0.25974
 C744 C 0.68155 0.54972 0.23892
 C745 C 0.66607 0.53056 0.23584
 C746 C 0.64956 0.52491 0.25324
 C747 C 0.64897 0.53832 0.27417
 C748 C 0.66450 0.55767 0.27753
 C749 C 0.67882 0.59023 0.30251
 C750 C 0.66368 0.57094 0.29856
 H751 H 0.67747 0.59990 0.31910
 H752 H 0.65111 0.56634 0.31221
 H753 H 0.70887 0.62615 0.30688
 H754 H 0.74108 0.61688 0.23854
 H755 H 0.66695 0.52012 0.21969
 H756 H 0.63658 0.53371 0.28793
 H757 H 0.71602 0.58331 0.23040
 H758 H 0.69381 0.55321 0.22483
 C759 C 0.19431 0.08668 0.75936
 C760 C 0.18932 0.10236 0.77838
 C761 C 0.20376 0.12235 0.78265
 C762 C 0.22341 0.12709 0.76835
 C763 C 0.22825 0.11148 0.74949
 C764 C 0.21397 0.09160 0.74503
 C765 C 0.17856 0.06542 0.75554
 C766 C 0.18183 0.04888 0.73696
 C767 C 0.16688 0.02918 0.73442
 C768 C 0.14841 0.02549 0.75027
 C769 C 0.14475 0.04183 0.76866
 C770 C 0.15960 0.06178 0.77136
 C771 C 0.17007 0.09792 0.79317
 C772 C 0.15559 0.07803 0.78979
 H773 H 0.16621 0.10993 0.80771
 H774 H 0.14101 0.07533 0.80182
 H775 H 0.19964 0.13406 0.79732
 H776 H 0.24316 0.11446 0.73803
 H777 H 0.16986 0.01668 0.72007
 H778 H 0.13036 0.03910 0.78089
 H779 H 0.21876 0.08028 0.73036
 H780 H 0.19580 0.05075 0.72423
 C781 C 0.22753 0.31057 0.08825
 C782 C 0.24717 0.30294 0.10180
 C783 C 0.24397 0.28725 0.12087
 C784 C 0.22132 0.27968 0.12729
 C785 C 0.20181 0.28793 0.11441
 C786 C 0.20483 0.30303 0.09504
 C787 C 0.23179 0.32663 0.06750
 C788 C 0.21380 0.33351 0.05167
 C789 C 0.21876 0.34832 0.03249
 C790 C 0.24165 0.35685 0.02871
 C791 C 0.25967 0.35016 0.04435
 C792 C 0.25503 0.33480 0.06338
 C793 C 0.26981 0.31133 0.09650
 C794 C 0.27359 0.32723 0.07796
 H795 H 0.28482 0.30573 0.10703
 H796 H 0.29142 0.33338 0.07473
 H797 H 0.25909 0.28135 0.13109
 H798 H 0.18415 0.28236 0.11909
 H799 H 0.20456 0.35308 0.02055
 H800 H 0.27740 0.35653 0.04174
 H801 H 0.18917 0.30874 0.08579
 H802 H 0.19587 0.32739 0.05354
 C803 C 0.73422 0.81042 0.58724
 C804 C 0.71229 0.81147 0.59901
 C805 C 0.70765 0.79603 0.61804
 C806 C 0.72459 0.77941 0.62562
 C807 C 0.74642 0.77872 0.61406
 C808 C 0.75120 0.79394 0.59520
 C809 C 0.73835 0.82682 0.56673
 C810 C 0.75942 0.82678 0.55362
 C811 C 0.76228 0.84210 0.53446
 C812 C 0.74431 0.85778 0.52784
 C813 C 0.72339 0.85837 0.54085
 C814 C 0.72021 0.84288 0.56014
 C815 C 0.69510 0.82783 0.59167
 C816 C 0.69900 0.84323 0.57272
 H817 H 0.67831 0.82871 0.60070
 H818 H 0.68510 0.85550 0.56771
 H819 H 0.69067 0.79682 0.62667
 H820 H 0.76006 0.76647 0.61960
 H821 H 0.77861 0.84155 0.52462
 H822 H 0.70955 0.87072 0.53599
 H823 H 0.76831 0.79243 0.58715
 H824 H 0.77387 0.81501 0.55770
 C825 C 0.76462 0.81464 0.41293
 C826 C 0.75813 0.79025 0.41453
 C827 C 0.76148 0.77486 0.39516
 C828 C 0.77187 0.78319 0.37427
 C829 C 0.77864 0.80725 0.37285
 C830 C 0.77500 0.82282 0.39184
 C831 C 0.76061 0.83050 0.43398
 C832 C 0.76510 0.85530 0.43378
 C833 C 0.76144 0.86916 0.45403
 C834 C 0.75361 0.85860 0.47496
 C835 C 0.74841 0.83415 0.47524
 C836 C 0.75168 0.82008 0.45492
 C837 C 0.74877 0.78123 0.43558
 C838 C 0.74588 0.79576 0.45543
 H839 H 0.74391 0.76255 0.43686
 H840 H 0.73887 0.78784 0.47140
 H841 H 0.75657 0.75620 0.39662
 H842 H 0.78663 0.81417 0.35691
 H843 H 0.76500 0.88817 0.45343
 H844 H 0.74154 0.82603 0.49115
 H845 H 0.78068 0.84108 0.38971
 H846 H 0.77128 0.86437 0.41819
 C847 C 0.26025 0.31083 -0.08508
 C848 C 0.28100 0.31394 -0.09854
 C849 C 0.28508 0.29955 -0.11853
 C850 C 0.26870 0.28200 -0.12557
 C851 C 0.24800 0.27925 -0.11232
 C852 C 0.24381 0.29339 -0.09241
 C853 C 0.25671 0.32634 -0.06368
 C854 C 0.23692 0.32430 -0.04881
 C855 C 0.23447 0.33918 -0.02912
 C856 C 0.25157 0.35642 -0.02375
 C857 C 0.27130 0.35871 -0.03836
 C858 C 0.27407 0.34372 -0.05814
 C859 C 0.29757 0.33138 -0.09200
 C860 C 0.29413 0.34602 -0.07231
 H861 H 0.31345 0.33381 -0.10230
 H862 H 0.30745 0.35929 -0.06805
 H863 H 0.30118 0.30202 -0.12843
 H864 H 0.23480 0.26617 -0.11729
 H865 H 0.21901 0.33727 -0.01814
 H866 H 0.28447 0.37220 -0.03452
 H867 H 0.22755 0.29037 -0.08309
 H868 H 0.22315 0.31137 -0.05200
 C869 C 0.73084 0.18669 -0.08840
 C870 C 0.74647 0.20608 -0.09187
 C871 C 0.74320 0.22162 -0.11106
 C872 C 0.72451 0.21822 -0.12716
 C873 C 0.70911 0.19887 -0.12369
 C874 C 0.71219 0.18334 -0.10464
 C875 C 0.73497 0.17054 -0.06766
 C876 C 0.72021 0.15099 -0.06236
 C877 C 0.72495 0.13640 -0.04293
 C878 C 0.74457 0.14077 -0.02843
 C879 C 0.75906 0.16044 -0.03317
 C880 C 0.75449 0.17526 -0.05263
 C881 C 0.76535 0.20987 -0.07621
 C882 C 0.76929 0.19478 -0.05704
 H883 H 0.77734 0.22472 -0.07885
 H884 H 0.78419 0.19844 -0.04549
 H885 H 0.75534 0.23635 -0.11331
 H886 H 0.69456 0.19554 -0.13568
 H887 H 0.71312 0.12172 -0.03939
 H888 H 0.77379 0.16443 -0.02151
 H889 H 0.69979 0.16882 -0.10305
 H890 H 0.70489 0.14667 -0.07291
 C891 C 0.22913 0.68925 0.41241
 C892 C 0.24455 0.70893 0.40950
 C893 C 0.24084 0.72522 0.39102
 C894 C 0.22195 0.72230 0.37510
 C895 C 0.20677 0.70269 0.37797
 C896 C 0.21027 0.68639 0.39631
 C897 C 0.23367 0.67236 0.43249
 C898 C 0.21915 0.65248 0.43727
 C899 C 0.22416 0.63734 0.45624
 C900 C 0.24382 0.64150 0.47073
 C901 C 0.25817 0.66136 0.46640
 C902 C 0.25331 0.67675 0.44746
 C903 C 0.26359 0.71230 0.42504
 C904 C 0.26791 0.69653 0.44357
 H905 H 0.27541 0.72737 0.42281
 H906 H 0.28291 0.69991 0.45507
 H907 H 0.25267 0.74030 0.38928
 H908 H 0.19217 0.69971 0.36593
 H909 H 0.21249 0.62244 0.45947
 H910 H 0.27303 0.66505 0.47799
 H911 H 0.19805 0.67167 0.39749
 H912 H 0.20379 0.64835 0.42670
 C913 C 0.27195 0.68842 0.58144
 C914 C 0.25553 0.70688 0.58588
 C915 C 0.25882 0.72239 0.60522
 C916 C 0.27828 0.71987 0.62049
 C917 C 0.29456 0.70158 0.61591
 C918 C 0.29149 0.68610 0.59673
 C919 C 0.26766 0.67209 0.56074
 C920 C 0.28289 0.65312 0.55481
 C921 C 0.27791 0.63823 0.53554
 C922 C 0.25768 0.64188 0.52181
 C923 C 0.24253 0.66076 0.52728
 C924 C 0.24732 0.67585 0.54660
 C925 C 0.23586 0.70972 0.57108
 C926 C 0.23184 0.69453 0.55188
 H927 H 0.22330 0.72388 0.57444
 H928 H 0.21630 0.69743 0.54103
 H929 H 0.24601 0.73632 0.60833
 H930 H 0.30983 0.69905 0.62713
 H931 H 0.28984 0.62372 0.53159
 H932 H 0.22688 0.66358 0.51655
 H933 H 0.30460 0.67242 0.59428
 H934 H 0.29867 0.64938 0.56482
 C935 C 0.77155 0.18667 0.08367
 C936 C 0.75666 0.20670 0.08666
 C937 C 0.75991 0.22214 0.10605
 C938 C 0.77778 0.21797 0.12284
 C939 C 0.79236 0.19795 0.11989
 C940 C 0.78934 0.18254 0.10064
 C941 C 0.76754 0.17068 0.06268
 C942 C 0.78166 0.15054 0.05784
 C943 C 0.77697 0.13604 0.03823
 C944 C 0.75817 0.14125 0.02304
 C945 C 0.74411 0.16125 0.02745
 C946 C 0.74870 0.17605 0.04704
 C947 C 0.73853 0.21116 0.07035
 C948 C 0.73457 0.19611 0.05104
 H949 H 0.72711 0.22649 0.07262
 H950 H 0.72022 0.20027 0.03901
 H951 H 0.74841 0.23741 0.10792
 H952 H 0.80621 0.19397 0.13246
 H953 H 0.78794 0.12056 0.03516
 H954 H 0.72951 0.16522 0.01565
 H955 H 0.80108 0.16748 0.09948
 H956 H 0.79634 0.14561 0.06897
 C957 C 0.48498 0.33455 0.55448
 C958 C 0.46414 0.34828 0.55617
 C959 C 0.46023 0.36737 0.54052
 C960 C 0.47687 0.37319 0.52310
 C961 C 0.49757 0.35956 0.52166
 C962 C 0.50160 0.34057 0.53705
 C963 C 0.48850 0.31429 0.57144
 C964 C 0.50842 0.29930 0.57088
 C965 C 0.51096 0.28083 0.58717
 C966 C 0.49388 0.27692 0.60448
 C967 C 0.47376 0.29133 0.60503
 C968 C 0.47096 0.30999 0.58868
 C969 C 0.44737 0.34295 0.57351
 C970 C 0.45074 0.32428 0.58945
 H971 H 0.43141 0.35345 0.57484
 H972 H 0.43728 0.32096 0.60258
 H973 H 0.44413 0.37759 0.54199
 H974 H 0.51093 0.36351 0.50867
 H975 H 0.52645 0.26958 0.58633
 H976 H 0.46023 0.28806 0.61807
 H977 H 0.51790 0.33095 0.53500
 H978 H 0.52223 0.30143 0.55803
 C979 C -0.01924 0.83732 0.05630
 C980 C -0.00134 0.84248 0.03972
 C981 C -0.00421 0.86130 0.02357
 C982 C -0.02474 0.87532 0.02360
 C983 C -0.04234 0.87022 0.04024
 C984 C -0.03968 0.85156 0.05633
 C985 C -0.01557 0.81700 0.07315
 C986 C -0.03251 0.81013 0.09000
 C987 C -0.02813 0.79125 0.10545
 C988 C -0.00677 0.77887 0.10460
 C989 C 0.01000 0.78509 0.08761
 C990 C 0.00583 0.80407 0.07196
 C991 C 0.01936 0.82887 0.03938
 C992 C 0.02289 0.81013 0.05519
 H993 H 0.03310 0.83282 0.02672
 H994 H 0.03924 0.80021 0.05425
 H995 H 0.00964 0.86487 0.01096
 H996 H -0.05833 0.88063 0.04099
 H997 H -0.04162 0.78639 0.11800
 H998 H 0.02639 0.77521 0.08671
 H999 H -0.05383 0.84868 0.06865
 H1000 H -0.04927 0.81901 0.09154
 C1001 C 0.01713 0.66602 0.06115
 C1002 C -0.00049 0.66039 0.04419
 C1003 C 0.00274 0.64118 0.02843
 C1004 C 0.02324 0.62720 0.02945
 C1005 C 0.04040 0.63256 0.04664
 C1006 C 0.03745 0.65165 0.06225
 C1007 C 0.01336 0.68704 0.07721
 C1008 C 0.03036 0.69481 0.09384
 C1009 C 0.02612 0.71461 0.10824
 C1010 C 0.00480 0.72699 0.10661
 C1011 C -0.01216 0.71968 0.09002
 C1012 C -0.00803 0.69990 0.07525
 C1013 C -0.02122 0.67392 0.04308
 C1014 C -0.02497 0.69313 0.05839
 H1015 H -0.03479 0.66956 0.03020
 H1016 H -0.04132 0.70300 0.05684
 H1017 H -0.01084 0.63704 0.01549
 H1018 H 0.05646 0.62225 0.04788
 H1019 H 0.03975 0.72026 0.12046
 H1020 H -0.02852 0.72956 0.08848
 H1021 H 0.05133 0.65480 0.07499
 H1022 H 0.04715 0.68608 0.09586
 C1023 C 0.51129 0.16456 0.55986
 C1024 C 0.53227 0.15115 0.56250
 C1025 C 0.53677 0.13171 0.54738
 C1026 C 0.52076 0.12547 0.52934
 C1027 C 0.49996 0.13874 0.52686
 C1028 C 0.49523 0.15795 0.54189
 C1029 C 0.50732 0.18540 0.57612
 C1030 C 0.48703 0.19987 0.57494
 C1031 C 0.48445 0.21939 0.59011
 C1032 C 0.50184 0.22490 0.60689
 C1033 C 0.52205 0.21067 0.60837
 C1034 C 0.52487 0.19094 0.59322
 C1035 C 0.54877 0.15738 0.58000
 C1036 C 0.54518 0.17688 0.59498
 H1037 H 0.56483 0.14713 0.58205
 H1038 H 0.55859 0.18105 0.60810
 H1039 H 0.55302 0.12179 0.54941
 H1040 H 0.48712 0.13423 0.51333
 H1041 H 0.46881 0.23036 0.58863
 H1042 H 0.53575 0.21503 0.62108
 H1043 H 0.47895 0.16742 0.53899
 H1044 H 0.47302 0.19656 0.56239
 C1045 C -0.01753 0.16566 0.44749
 C1046 C -0.03921 0.15315 0.44617
 C1047 C -0.04391 0.13442 0.46199
 C1048 C -0.02729 0.12788 0.47931
 C1049 C -0.00579 0.14029 0.48044
 C1050 C -0.00094 0.15886 0.46481
 C1051 C -0.01323 0.18563 0.43041
 C1052 C 0.00767 0.19929 0.43050
 C1053 C 0.01075 0.21782 0.41441
 C1054 C -0.00676 0.22312 0.39776
 C1055 C -0.02769 0.20985 0.39746
 C1056 C -0.03104 0.19112 0.41363
 C1057 C -0.05609 0.15944 0.42911
 C1058 C -0.05209 0.17800 0.41320
 H1059 H -0.07270 0.14988 0.42806
 H1060 H -0.06574 0.18218 0.40038
 H1061 H -0.06066 0.12515 0.46091
 H1062 H 0.00757 0.13559 0.49332
 H1063 H 0.02693 0.22814 0.41500
 H1064 H -0.04148 0.21417 0.38488
 H1065 H 0.01593 0.16757 0.46665
 H1066 H 0.02183 0.19612 0.44287
 C1067 C 0.47907 0.66463 0.94252
 C1068 C 0.49747 0.65810 0.95820
 C1069 C 0.49449 0.63880 0.97373
 C1070 C 0.47333 0.62571 0.97401
 C1071 C 0.45508 0.63236 0.95852
 C1072 C 0.45787 0.65150 0.94300
 C1073 C 0.48305 0.68523 0.92607
 C1074 C 0.46592 0.69312 0.90971
 C1075 C 0.47058 0.71230 0.89469
 C1076 C 0.49241 0.72393 0.89552
 C1077 C 0.50946 0.71655 0.91189
 C1078 C 0.50503 0.69726 0.92704
 C1079 C 0.51878 0.67079 0.95827
 C1080 C 0.52247 0.68996 0.94305
 H1081 H 0.53288 0.66581 0.97029
 H1082 H 0.53928 0.69918 0.94379
 H1083 H 0.50886 0.63392 0.98542
 H1084 H 0.43846 0.62288 0.95835
 H1085 H 0.45696 0.71802 0.88253
 H1086 H 0.52628 0.72578 0.91270
 H1087 H 0.44319 0.65564 0.93156
 H1088 H 0.44881 0.68483 0.90823
 C1089 C 0.51941 0.83378 0.94415
 C1090 C 0.50116 0.84025 0.95991
 C1091 C 0.50441 0.85932 0.97586
 C1092 C 0.52569 0.87221 0.97645
 C1093 C 0.54376 0.86559 0.96089
 C1094 C 0.54072 0.84672 0.94498
 C1095 C 0.51518 0.81347 0.92727
 C1096 C 0.53217 0.80571 0.91081
 C1097 C 0.52732 0.78677 0.89540
 C1098 C 0.50545 0.77523 0.89593
 C1099 C 0.48853 0.78248 0.91237
 C1100 C 0.49315 0.80156 0.92792
 C1101 C 0.47977 0.82770 0.95964
 C1102 C 0.47586 0.80876 0.94402
 H1103 H 0.46579 0.83261 0.97171
 H1104 H 0.45900 0.79963 0.94452
 H1105 H 0.49019 0.86419 0.98762
 H1106 H 0.56049 0.87488 0.96096
 H1107 H 0.54084 0.78113 0.88320
 H1108 H 0.47169 0.77329 0.91298
 H1109 H 0.55530 0.84260 0.93353
 H1110 H 0.54931 0.81393 0.90954
 C1111 C 0.01286 0.33385 0.44589
 C1112 C 0.03444 0.34649 0.44460
 C1113 C 0.03881 0.36587 0.45990
 C1114 C 0.02191 0.37305 0.47658
 C1115 C 0.00046 0.36056 0.47758
 C1116 C -0.00403 0.34128 0.46252
 C1117 C 0.00893 0.31314 0.42942
 C1118 C -0.01175 0.29913 0.42972
 C1119 C -0.01459 0.28007 0.41405
 C1120 C 0.00292 0.27457 0.39761
 C1121 C 0.02373 0.28805 0.39726
 C1122 C 0.02685 0.30730 0.41303
 C1123 C 0.05152 0.33973 0.42805
 C1124 C 0.04777 0.32061 0.41257
 H1125 H 0.06805 0.34941 0.42702
 H1126 H 0.06152 0.31615 0.40007
 H1127 H 0.05550 0.37521 0.45884
 H1128 H -0.01312 0.36566 0.48993
 H1129 H -0.03064 0.26957 0.41472
 H1130 H 0.03755 0.28354 0.38490
 H1131 H -0.02089 0.33256 0.46420
 H1132 H -0.02591 0.30246 0.44192
 C1133 C 0.33714 0.55799 0.47612
 C1134 C 0.33677 0.53459 0.48555
 C1135 C 0.35593 0.51918 0.48193
 C1136 C 0.37559 0.52659 0.46882
 C1137 C 0.37579 0.54971 0.45931
 C1138 C 0.35689 0.56521 0.46289
 C1139 C 0.31641 0.57396 0.48057
 C1140 C 0.31532 0.59776 0.47256
 C1141 C 0.29564 0.61189 0.47721
 C1142 C 0.27652 0.60267 0.48979
 C1143 C 0.27745 0.57916 0.49811
 C1144 C 0.29719 0.56477 0.49363
 C1145 C 0.31724 0.52665 0.49843
 C1146 C 0.29785 0.54138 0.50231
 H1147 H 0.31691 0.50872 0.50560
 H1148 H 0.28317 0.53435 0.51235
 H1149 H 0.35534 0.50128 0.48912
 H1150 H 0.39072 0.55604 0.44926
 H1151 H 0.29552 0.63009 0.47095
 H1152 H 0.26296 0.57208 0.50838
 H1153 H 0.35815 0.58273 0.45513
 H1154 H 0.32949 0.60589 0.46281
 C1155 C 0.83795 0.05790 -0.02335
 C1156 C 0.83660 0.03367 -0.01635
 C1157 C 0.85560 0.01822 -0.02052
 C1158 C 0.87606 0.02640 -0.03183
 C1159 C 0.87725 0.05036 -0.03892
 C1160 C 0.85853 0.06592 -0.03474
 C1161 C 0.81730 0.07384 -0.01846
 C1162 C 0.81713 0.09836 -0.02406
 C1163 C 0.79742 0.11238 -0.01924
 C1164 C 0.77735 0.10236 -0.00894
 C1165 C 0.77743 0.07812 -0.00286
 C1166 C 0.79718 0.06383 -0.00752
 C1167 C 0.81625 0.02495 -0.00538
 C1168 C 0.79694 0.03968 -0.00115
 H1169 H 0.81518 0.00640 -0.00006
 H1170 H 0.78157 0.03203 0.00730
 H1171 H 0.85424 -0.00031 -0.01522
 H1172 H 0.89281 0.05729 -0.04754
 H1173 H 0.79800 0.13114 -0.02360
 H1174 H 0.76228 0.07036 0.00582
 H1175 H 0.86055 0.08410 -0.04064
 H1176 H 0.83203 0.10712 -0.03204
 C1177 C 0.66575 0.05699 0.02098
 C1178 C 0.65959 0.03934 0.00404
 C1179 C 0.64029 0.02414 0.00800
 C1180 C 0.62682 0.02614 0.02869
 C1181 C 0.63300 0.04366 0.04545
 C1182 C 0.65215 0.05886 0.04170
 C1183 C 0.68644 0.07291 0.01603
 C1184 C 0.69407 0.09099 0.03175
 C1185 C 0.71337 0.10540 0.02624
 C1186 C 0.72544 0.10225 0.00494
 C1187 C 0.71823 0.08422 -0.01073
 C1188 C 0.69885 0.06960 -0.00541
 C1189 C 0.67267 0.03696 -0.01679
 C1190 C 0.69188 0.05176 -0.02141
 H1191 H 0.66798 0.02344 -0.02977
 H1192 H 0.70141 0.04921 -0.03780
 H1193 H 0.63573 0.01090 -0.00527
 H1194 H 0.62317 0.04563 0.06168
 H1195 H 0.71874 0.11904 0.03877
 H1196 H 0.72778 0.08157 -0.02710
 H1197 H 0.65596 0.07191 0.05527
 H1198 H 0.68544 0.09432 0.04838
 C1199 C 0.16561 0.55689 0.52038
 C1200 C 0.15950 0.53914 0.50352
 C1201 C 0.14038 0.52375 0.50767
 C1202 C 0.12702 0.52565 0.52848
 C1203 C 0.13315 0.54333 0.54510
 C1204 C 0.15211 0.55872 0.54115
 C1205 C 0.18616 0.57296 0.51527
 C1206 C 0.19382 0.59102 0.53099
 C1207 C 0.21298 0.60557 0.52537
 C1208 C 0.22489 0.60260 0.50394
 C1209 C 0.21770 0.58452 0.48830
 C1210 C 0.19846 0.56975 0.49375
 C1211 C 0.17247 0.53685 0.48260
 C1212 C 0.19151 0.55183 0.47782
 H1213 H 0.16781 0.52326 0.46969
 H1214 H 0.20094 0.54934 0.46137
 H1215 H 0.13598 0.51033 0.49454
 H1216 H 0.12339 0.54540 0.56135
 H1217 H 0.21841 0.61912 0.53795
 H1218 H 0.22718 0.58195 0.47188
 H1219 H 0.15583 0.57191 0.55462
 H1220 H 0.18535 0.59422 0.54773
 C1221 C 0.16105 0.44179 -0.01184
 C1222 C 0.15004 0.44167 -0.03439
 C1223 C 0.13091 0.45694 -0.03899
 C1224 C 0.12284 0.47283 -0.02157
 C1225 C 0.13394 0.47301 0.00067
 C1226 C 0.15271 0.45772 0.00553
 C1227 C 0.18146 0.42533 -0.00763
 C1228 C 0.19306 0.42352 0.01442
 C1229 C 0.21242 0.40848 0.01722
 C1230 C 0.22075 0.39496 -0.00181
 C1231 C 0.20912 0.39611 -0.02369
 C1232 C 0.18946 0.41105 -0.02669
 C1233 C 0.15844 0.42664 -0.05232
 C1234 C 0.17785 0.41182 -0.04862
 H1235 H 0.15006 0.42656 -0.06960
 H1236 H 0.18386 0.40077 -0.06316
 H1237 H 0.12270 0.45683 -0.05635
 H1238 H 0.12802 0.48489 0.01455
 H1239 H 0.22115 0.40763 0.03429
 H1240 H 0.21545 0.38565 -0.03849
 H1241 H 0.16052 0.45888 0.02292
 H1242 H 0.18754 0.43355 0.02972
 C1243 C 0.66444 0.94392 0.48309
 C1244 C 0.64253 0.93303 0.47761
 C1245 C 0.62238 0.94722 0.47406
 C1246 C 0.62356 0.97212 0.47687
 C1247 C 0.64518 0.98276 0.48281
 C1248 C 0.66538 0.96894 0.48577
 C1249 C 0.68555 0.92827 0.48662
 C1250 C 0.70841 0.93751 0.49016
 C1251 C 0.72738 0.92228 0.49426
 C1252 C 0.72403 0.89753 0.49531
 C1253 C 0.70164 0.88801 0.49055
 C1254 C 0.68241 0.90318 0.48606
 C1255 C 0.64076 0.90807 0.47636
 C1256 C 0.66018 0.89346 0.48089
 H1257 H 0.62398 0.89968 0.47231
 H1258 H 0.65778 0.87426 0.48018
 H1259 H 0.60562 0.93881 0.46991
 H1260 H 0.64657 1.00193 0.48504
 H1261 H 0.74468 0.93009 0.49643
 H1262 H 0.69919 0.86879 0.49046
 H1263 H 0.68141 0.97818 0.49056
 H1264 H 0.71211 0.95640 0.48958
 C1265 C 0.83642 0.94003 0.52324
 C1266 C 0.85807 0.93362 0.51264
 C1267 C 0.87807 0.94816 0.51590
 C1268 C 0.87632 0.96983 0.52821
 C1269 C 0.85466 0.97674 0.53773
 C1270 C 0.83496 0.96190 0.53557
 C1271 C 0.81561 0.92391 0.51971
 C1272 C 0.79434 0.92687 0.53211
 C1273 C 0.77502 0.91219 0.52722
 C1274 C 0.77621 0.89482 0.50941
 C1275 C 0.79773 0.89055 0.49815
 C1276 C 0.81757 0.90469 0.50351
 C1277 C 0.85932 0.91336 0.49806
 C1278 C 0.83933 0.89961 0.49304
 H1279 H 0.87582 0.90856 0.48972
 H1280 H 0.84100 0.88461 0.48099
 H1281 H 0.89474 0.94319 0.50799
 H1282 H 0.85305 0.99362 0.54701
 H1283 H 0.75880 0.91492 0.53689
 H1284 H 0.79917 0.87616 0.48539
 H1285 H 0.81863 0.96814 0.54307
 H1286 H 0.79237 0.94030 0.54570
 C1287 C 0.33352 0.44311 0.01763
 C1288 C 0.35523 0.43230 0.02383
 C1289 C 0.37527 0.44655 0.02815
 C1290 C 0.37422 0.47142 0.02542
 C1291 C 0.35287 0.48199 0.01866
 C1292 C 0.33275 0.46811 0.01496
 C1293 C 0.31242 0.42739 0.01374
 C1294 C 0.28972 0.43653 0.00927
 C1295 C 0.27059 0.42120 0.00590
 C1296 C 0.27349 0.39639 0.00684
 C1297 C 0.29609 0.38706 0.01070
 C1298 C 0.31540 0.40233 0.01481
 C1299 C 0.35690 0.40736 0.02517
 C1300 C 0.33752 0.39269 0.02033
 H1301 H 0.37354 0.39903 0.02970
 H1302 H 0.33979 0.37350 0.02133
 H1303 H 0.39186 0.43824 0.03294
 H1304 H 0.35163 0.50116 0.01644
 H1305 H 0.25354 0.42902 0.00241
 H1306 H 0.29870 0.36790 0.01046
 H1307 H 0.31690 0.47731 0.00973
 H1308 H 0.28625 0.45544 0.00857
 C1309 C 0.56312 0.48056 0.33269
 C1310 C 0.54717 0.49899 0.33868
 C1311 C 0.53144 0.49597 0.35761
 C1312 C 0.53133 0.47476 0.37084
 C1313 C 0.54720 0.45657 0.36479
 C1314 C 0.56285 0.45937 0.34606
 C1315 C 0.57960 0.48443 0.31238
 C1316 C 0.59599 0.46710 0.30496
 C1317 C 0.61093 0.47152 0.28594
 C1318 C 0.61005 0.49332 0.27396
 C1319 C 0.59368 0.51061 0.28091
 C1320 C 0.57853 0.50639 0.30006
 C1321 C 0.54701 0.52032 0.32576
 C1322 C 0.56235 0.52394 0.30688
 H1323 H 0.53482 0.53447 0.33032
 H1324 H 0.56151 0.54076 0.29746
 H1325 H 0.51946 0.51030 0.36209
 H1326 H 0.54751 0.43988 0.37436
 H1327 H 0.62302 0.45765 0.28058
 H1328 H 0.59278 0.52738 0.27138
 H1329 H 0.57453 0.44468 0.34239
 H1330 H 0.59755 0.44997 0.31346
 C1331 C 0.06643 -0.01503 0.83507
 C1332 C 0.04329 -0.00570 0.83381
 C1333 C 0.02774 -0.00873 0.85284
 C1334 C 0.03474 -0.02125 0.87317
 C1335 C 0.05766 -0.03049 0.87436
 C1336 C 0.07333 -0.02741 0.85565
 C1337 C 0.08240 -0.01161 0.81426
 C1338 C 0.10583 -0.01992 0.81384
 C1339 C 0.11980 -0.01675 0.79383
 C1340 C 0.11083 -0.00527 0.77378
 C1341 C 0.08777 0.00359 0.77415
 C1342 C 0.07350 0.00046 0.79414
 C1343 C 0.03568 0.00634 0.81347
 C1344 C 0.05043 0.00929 0.79404
 H1345 H 0.01795 0.01345 0.81248
 H1346 H 0.04363 0.01858 0.77866
 H1347 H 0.00999 -0.00176 0.85151
 H1348 H 0.06364 -0.04003 0.88989
 H1349 H 0.13761 -0.02344 0.79419
 H1350 H 0.08087 0.01295 0.75887
 H1351 H 0.09067 -0.03498 0.85764
 H1352 H 0.11374 -0.02893 0.82871
 C1353 C 0.06262 0.00940 0.66068
 C1354 C 0.06513 0.03032 0.64690
 C1355 C 0.05015 0.03428 0.62747
 C1356 C 0.03254 0.01768 0.62134
 C1357 C 0.03043 -0.00329 0.63469
 C1358 C 0.04522 -0.00741 0.65409
 C1359 C 0.07860 0.00618 0.68167
 C1360 C 0.07702 -0.01355 0.69703
 C1361 C 0.09226 -0.01561 0.71639
 C1362 C 0.10948 0.00179 0.72081
 C1363 C 0.11109 0.02162 0.70590
 C1364 C 0.09582 0.02396 0.68643
 C1365 C 0.08252 0.04721 0.65259
 C1366 C 0.09759 0.04405 0.67186
 H1367 H 0.08451 0.06318 0.64198
 H1368 H 0.11076 0.05766 0.67551
 H1369 H 0.05232 0.05037 0.61710
 H1370 H 0.01702 -0.01643 0.63047
 H1371 H 0.09059 -0.03088 0.72799
 H1372 H 0.12412 0.03535 0.70944
 H1373 H 0.04263 -0.02380 0.66371
 H1374 H 0.06410 -0.02750 0.69455
 C1375 C 0.56415 0.51562 0.16201
 C1376 C 0.54810 0.49712 0.15609
 C1377 C 0.53270 0.49971 0.13668
 C1378 C 0.53301 0.52056 0.12288
 C1379 C 0.54910 0.53874 0.12880
 C1380 C 0.56443 0.53636 0.14799
 C1381 C 0.58020 0.51228 0.18292
 C1382 C 0.59643 0.52985 0.19049
 C1383 C 0.61109 0.52585 0.20995
 C1384 C 0.61009 0.50424 0.22224
 C1385 C 0.59373 0.48678 0.21526
 C1386 C 0.57884 0.49059 0.19568
 C1387 C 0.54756 0.47613 0.16954
 C1388 C 0.56263 0.47292 0.18886
 H1389 H 0.53530 0.46193 0.16504
 H1390 H 0.56154 0.45634 0.19865
 H1391 H 0.52058 0.48536 0.13233
 H1392 H 0.54988 0.55513 0.11876
 H1393 H 0.62311 0.53987 0.21535
 H1394 H 0.59267 0.47019 0.22505
 H1395 H 0.57631 0.55102 0.15149
 H1396 H 0.59808 0.54685 0.18176
 C1397 C 0.44048 -0.01169 0.16609
 C1398 C 0.43916 -0.03369 0.15372
 C1399 C 0.45425 -0.03815 0.13455
 C1400 C 0.47079 -0.02095 0.12737
 C1401 C 0.47178 0.00095 0.13951
 C1402 C 0.45690 0.00556 0.15854
 C1403 C 0.42438 -0.00779 0.18671
 C1404 C 0.42474 0.01323 0.20054
 C1405 C 0.40955 0.01587 0.21970
 C1406 C 0.39356 -0.00221 0.22544
 C1407 C 0.39305 -0.02326 0.21201
 C1408 C 0.40832 -0.02619 0.19273
 C1409 C 0.42287 -0.05116 0.16058
 C1410 C 0.40774 -0.04746 0.17961
 H1411 H 0.42180 -0.06799 0.15110
 H1412 H 0.39547 -0.06156 0.18422
 H1413 H 0.45323 -0.05519 0.12548
 H1414 H 0.48401 0.01478 0.13429
 H1415 H 0.41032 0.03213 0.23014
 H1416 H 0.38097 -0.03748 0.21662
 H1417 H 0.45857 0.02274 0.16705
 H1418 H 0.43668 0.02778 0.19702
 C1419 C 0.94201 0.48777 0.66746
 C1420 C 0.94050 0.46599 0.65473
 C1421 C 0.95588 0.46151 0.63584
 C1422 C 0.97308 0.47834 0.62942
 C1423 C 0.97458 0.49987 0.64212
 C1424 C 0.95928 0.50458 0.66083
 C1425 C 0.92530 0.49179 0.68758
 C1426 C 0.92520 0.51291 0.70126
 C1427 C 0.90948 0.51560 0.72000
 C1428 C 0.89347 0.49744 0.72549
 C1429 C 0.89335 0.47636 0.71212
 C1430 C 0.90900 0.47346 0.69316
 C1431 C 0.92379 0.44870 0.66101
 C1432 C 0.90845 0.45231 0.67986
 H1433 H 0.92264 0.43202 0.65127
 H1434 H 0.89594 0.43831 0.68408
 H1435 H 0.95464 0.44466 0.62644
 H1436 H 0.98750 0.51330 0.63751
 H1437 H 0.90989 0.53193 0.73033
 H1438 H 0.88126 0.46208 0.71649
 H1439 H 0.96134 0.52145 0.66986
 H1440 H 0.93710 0.52752 0.69788
 C1441 C 0.94121 0.52291 0.83494
 C1442 C 0.95899 0.50583 0.83956
 C1443 C 0.97506 0.50944 0.85825
 C1444 C 0.97374 0.52988 0.87270
 C1445 C 0.95609 0.54677 0.86800
 C1446 C 0.94007 0.54339 0.84945
 C1447 C 0.92433 0.51834 0.81488
 C1448 C 0.90620 0.53436 0.80863
 C1449 C 0.89095 0.52926 0.78980
 C1450 C 0.89326 0.50804 0.77690
 C1451 C 0.91131 0.49207 0.78271
 C1452 C 0.92683 0.49703 0.80155
 C1453 C 0.96059 0.48519 0.82557
 C1454 C 0.94483 0.48086 0.80702
 H1455 H 0.97420 0.47210 0.82907
 H1456 H 0.94679 0.46459 0.79678
 H1457 H 0.98862 0.49625 0.86142
 H1458 H 0.95435 0.56265 0.87878
 H1459 H 0.87748 0.54212 0.78532
 H1460 H 0.91331 0.47579 0.77247
 H1461 H 0.92688 0.55698 0.84690
 H1462 H 0.90354 0.55099 0.81790
 C1463 C 0.44047 0.01996 0.33712
 C1464 C 0.45771 0.00237 0.34193
 C1465 C 0.47312 0.00511 0.36134
 C1466 C 0.47168 0.02525 0.37617
 C1467 C 0.45443 0.04253 0.37138
 C1468 C 0.43906 0.03997 0.35221
 C1469 C 0.42437 0.01642 0.31626
 C1470 C 0.40685 0.03305 0.30984
 C1471 C 0.39204 0.02875 0.29050
 C1472 C 0.39421 0.00779 0.27717
 C1473 C 0.41196 -0.00858 0.28290
 C1474 C 0.42694 -0.00451 0.30238
 C1475 C 0.45946 -0.01786 0.32737
 C1476 C 0.44438 -0.02124 0.30805
 H1477 H 0.47265 -0.03135 0.33100
 H1478 H 0.44640 -0.03724 0.29740
 H1479 H 0.48638 -0.00837 0.36469
 H1480 H 0.45252 0.05809 0.38260
 H1481 H 0.37892 0.04199 0.28607
 H1482 H 0.41392 -0.02462 0.27228
 H1483 H 0.42618 0.05386 0.34965
 H1484 H 0.40424 0.04949 0.31944
   
