data_POSCAR
  _audit_creation_date              2014-09-24
  _audit_creation_method            'ToBaCCo'
  _symmetry_space_group_name_H-M    'P1'
  _symmetry_Int_Tables_number       1
  _symmetry_cell_setting            triclinic
  loop_
  _symmetry_equiv_pos_as_xyz
 x,y,z
_cell_length_a 95.7374
_cell_length_b 93.9318
_cell_length_c 96.4097
_cell_angle_alpha 89.823400
_cell_angle_beta 89.969600
_cell_angle_gamma 89.968800
loop_
  _atom_site_label
  _atom_site_type_symbol
  _atom_site_fract_x
  _atom_site_fract_y
  _atom_site_fract_z
N1 N 0.35785 0.31971 0.32640
 N2 N 0.35847 0.33119 0.31861
 C3 C 0.36925 0.33005 0.30975
 C4 C 0.37583 0.31713 0.31210
 C5 C 0.36827 0.31084 0.32276
 H6 H 0.37200 0.33802 0.30212
 H7 H 0.37030 0.30069 0.32767
 Cu8 Cu 0.34525 0.34661 0.32076
 Cu9 Cu 0.34385 0.31748 0.34095
 Cu10 Cu 0.31783 0.34316 0.34232
 N11 N 0.32915 0.35898 0.31944
 N12 N 0.31856 0.35791 0.32805
 C13 C 0.30898 0.36789 0.32479
 C14 C 0.31381 0.37549 0.31341
 C15 C 0.32664 0.36952 0.31032
 H16 H 0.29912 0.36928 0.33008
 H17 H 0.33370 0.37266 0.30210
 N18 N 0.31907 0.32722 0.35563
 N19 N 0.32880 0.31729 0.35491
 C20 C 0.32681 0.30786 0.36526
 C21 C 0.31530 0.31206 0.37292
 C22 C 0.31068 0.32441 0.36652
 H23 H 0.33344 0.29877 0.36728
 H24 H 0.30180 0.33082 0.36951
 H25 H 0.32906 0.32921 0.33015
 H26 H 0.33894 0.33873 0.34405
 N27 N 0.35790 0.81593 -0.17457
 N28 N 0.35869 0.82699 -0.18288
 C29 C 0.37005 0.82567 -0.19099
 C30 C 0.37681 0.81302 -0.18766
 C31 C 0.36869 0.80713 -0.17714
 H32 H 0.37302 0.83333 -0.19883
 H33 H 0.37039 0.79720 -0.17171
 Cu34 Cu 0.34457 0.84183 -0.18255
 Cu35 Cu 0.34270 0.81365 -0.16132
 Cu36 Cu 0.31986 0.84221 -0.15775
 N37 N 0.33002 0.85619 -0.18231
 N38 N 0.32059 0.85660 -0.17242
 C39 C 0.31201 0.86775 -0.17468
 C40 C 0.31625 0.87471 -0.18674
 C41 C 0.32774 0.86697 -0.19123
 H42 H 0.30326 0.87040 -0.16810
 H43 H 0.33408 0.86899 -0.20028
 N44 N 0.32079 0.82627 -0.14436
 N45 N 0.32925 0.81531 -0.14596
 C46 C 0.32737 0.80616 -0.13536
 C47 C 0.31715 0.81152 -0.12663
 C48 C 0.31324 0.82432 -0.13270
 H49 H 0.33321 0.79641 -0.13404
 H50 H 0.30543 0.83168 -0.12897
 H51 H 0.32761 0.82692 -0.17049
 H52 H 0.34053 0.83536 -0.15853
 N53 N 0.85866 0.31815 -0.17349
 N54 N 0.85774 0.32832 -0.18282
 C55 C 0.86813 0.32674 -0.19212
 C56 C 0.87601 0.31494 -0.18841
 C57 C 0.86964 0.30978 -0.17650
 H58 H 0.86989 0.33374 -0.20086
 H59 H 0.87268 0.30057 -0.17047
 Cu60 Cu 0.84309 0.34266 -0.18180
 Cu61 Cu 0.84560 0.31642 -0.15811
 Cu62 Cu 0.81901 0.34139 -0.15640
 N63 N 0.82794 0.35645 -0.18082
 N64 N 0.81864 0.35593 -0.17082
 C65 C 0.80948 0.36665 -0.17247
 C66 C 0.81316 0.37441 -0.18421
 C67 C 0.82498 0.36752 -0.18923
 H68 H 0.80078 0.36855 -0.16558
 H69 H 0.83106 0.37035 -0.19826
 N70 N 0.82116 0.32587 -0.14278
 N71 N 0.83137 0.31645 -0.14336
 C72 C 0.83012 0.30737 -0.13259
 C73 C 0.81854 0.31121 -0.12487
 C74 C 0.81312 0.32300 -0.13165
 H75 H 0.83705 0.29852 -0.13060
 H76 H 0.80409 0.32914 -0.12860
 H77 H 0.82905 0.32610 -0.16817
 H78 H 0.84027 0.33770 -0.15710
 N79 N 0.85637 0.81785 0.32565
 N80 N 0.85518 0.82762 0.31595
 C81 C 0.86563 0.82600 0.30674
 C82 C 0.87382 0.81458 0.31086
 C83 C 0.86758 0.80968 0.32294
 H84 H 0.86720 0.83272 0.29776
 H85 H 0.87086 0.80079 0.32929
 Cu86 Cu 0.84014 0.84156 0.31631
 Cu87 Cu 0.84329 0.81636 0.34103
 Cu88 Cu 0.81683 0.84146 0.34245
 N89 N 0.82548 0.85585 0.31758
 N90 N 0.81649 0.85580 0.32786
 C91 C 0.80761 0.86679 0.32631
 C92 C 0.81119 0.87424 0.31434
 C93 C 0.82263 0.86689 0.30910
 H94 H 0.79917 0.86907 0.33340
 H95 H 0.82853 0.86938 0.29986
 N96 N 0.81891 0.82610 0.35625
 N97 N 0.82905 0.81660 0.35576
 C98 C 0.82767 0.80757 0.36655
 C99 C 0.81606 0.81153 0.37419
 C100 C 0.81079 0.82333 0.36734
 H101 H 0.83449 0.79864 0.36858
 H102 H 0.80175 0.82953 0.37027
 H103 H 0.82648 0.82565 0.33105
 H104 H 0.83808 0.83773 0.34123
 N105 N 0.64261 0.68353 0.32825
 N106 N 0.64210 0.67271 0.31966
 C107 C 0.63063 0.67392 0.31170
 C108 C 0.62352 0.68618 0.31545
 C109 C 0.63148 0.69201 0.32602
 H110 H 0.62785 0.66661 0.30353
 H111 H 0.62945 0.70175 0.33161
 Cu112 Cu 0.65674 0.65831 0.31922
 Cu113 Cu 0.65807 0.68613 0.34113
 Cu114 Cu 0.68343 0.65990 0.34182
 N115 N 0.67209 0.64473 0.31858
 N116 N 0.68249 0.64549 0.32742
 C117 C 0.69163 0.63497 0.32480
 C118 C 0.68673 0.62711 0.31371
 C119 C 0.67426 0.63361 0.31003
 H120 H 0.70106 0.63308 0.33068
 H121 H 0.66734 0.63053 0.30171
 N122 N 0.68259 0.67540 0.35545
 N123 N 0.67290 0.68540 0.35532
 C124 C 0.67512 0.69428 0.36606
 C125 C 0.68687 0.68971 0.37318
 C126 C 0.69128 0.67771 0.36615
 H127 H 0.66875 0.70346 0.36844
 H128 H 0.70009 0.67102 0.36877
 H129 H 0.67309 0.67474 0.33008
 H130 H 0.66227 0.66470 0.34299
 N131 N 0.64290 0.18288 -0.16991
 N132 N 0.64317 0.17335 -0.17987
 C133 C 0.63190 0.17522 -0.18805
 C134 C 0.62413 0.18650 -0.18292
 C135 C 0.63146 0.19106 -0.17138
 H136 H 0.62958 0.16892 -0.19712
 H137 H 0.62890 0.19996 -0.16476
 Cu138 Cu 0.65854 0.15982 -0.18135
 Cu139 Cu 0.65777 0.18465 -0.15622
 Cu140 Cu 0.68552 0.16118 -0.15923
 N141 N 0.67384 0.14613 -0.18242
 N142 N 0.68455 0.14717 -0.17398
 C143 C 0.69382 0.13686 -0.17687
 C144 C 0.68867 0.12868 -0.18768
 C145 C 0.67589 0.13493 -0.19093
 H146 H 0.70340 0.13527 -0.17117
 H147 H 0.66866 0.13169 -0.19891
 N148 N 0.68459 0.17598 -0.14489
 N149 N 0.67390 0.18473 -0.14347
 C150 C 0.67621 0.19318 -0.13242
 C151 C 0.68900 0.18959 -0.12665
 C152 C 0.69397 0.17865 -0.13484
 H153 H 0.66915 0.20137 -0.12887
 H154 H 0.70358 0.17280 -0.13340
 H155 H 0.67324 0.17653 -0.16873
 H156 H 0.66414 0.16368 -0.15700
 N157 N 0.14268 0.68540 -0.16956
 N158 N 0.14254 0.67634 -0.17993
 C159 C 0.13149 0.67921 -0.18812
 C160 C 0.12428 0.69067 -0.18259
 C161 C 0.13172 0.69429 -0.17079
 H162 H 0.12882 0.67332 -0.19735
 H163 H 0.12946 0.70290 -0.16371
 Cu164 Cu 0.15680 0.66166 -0.18173
 Cu165 Cu 0.15721 0.68523 -0.15544
 Cu166 Cu 0.18248 0.65896 -0.15805
 N167 N 0.17077 0.64660 -0.18265
 N168 N 0.18073 0.64560 -0.17334
 C169 C 0.18882 0.63429 -0.17627
 C170 C 0.18368 0.62776 -0.18809
 C171 C 0.17219 0.63591 -0.19184
 H172 H 0.19781 0.63111 -0.17024
 H173 H 0.16528 0.63410 -0.20051
 N174 N 0.18250 0.67342 -0.14330
 N175 N 0.17280 0.68333 -0.14218
 C176 C 0.17570 0.69152 -0.13110
 C177 C 0.18786 0.68657 -0.12496
 C178 C 0.19185 0.67508 -0.13300
 H179 H 0.16955 0.70057 -0.12786
 H180 H 0.20086 0.66834 -0.13140
 H181 H 0.17249 0.67597 -0.16752
 H182 H 0.16138 0.66371 -0.15694
 N183 N 0.14340 0.18448 0.32974
 N184 N 0.14324 0.17435 0.32037
 C185 C 0.13222 0.17643 0.31187
 C186 C 0.12508 0.18847 0.31625
 C187 C 0.13253 0.19327 0.32760
 H188 H 0.12944 0.16956 0.30334
 H189 H 0.13027 0.20252 0.33385
 Cu190 Cu 0.15726 0.15926 0.32072
 Cu191 Cu 0.15746 0.18559 0.34425
 Cu192 Cu 0.18240 0.15892 0.34509
 N193 N 0.17164 0.14453 0.32102
 N194 N 0.18121 0.14441 0.33079
 C195 C 0.18964 0.13313 0.32898
 C196 C 0.18520 0.12572 0.31742
 C197 C 0.17375 0.13330 0.31258
 H198 H 0.19849 0.13062 0.33551
 H199 H 0.16734 0.13071 0.30372
 N200 N 0.18188 0.17458 0.35860
 N201 N 0.17251 0.18487 0.35813
 C202 C 0.17506 0.19410 0.36847
 C203 C 0.18657 0.18939 0.37585
 C204 C 0.19060 0.17696 0.36931
 H205 H 0.16889 0.20348 0.37059
 H206 H 0.19936 0.17026 0.37204
 H207 H 0.17293 0.17477 0.33361
 H208 H 0.16144 0.16398 0.34525
 N209 N 0.64471 0.31534 0.67220
 N210 N 0.64363 0.32580 0.68117
 C211 C 0.63262 0.32339 0.68949
 C212 C 0.62640 0.31073 0.68558
 C213 C 0.63434 0.30591 0.67451
 H214 H 0.62935 0.33034 0.69779
 H215 H 0.63291 0.29613 0.66879
 Cu216 Cu 0.65698 0.34132 0.68157
 Cu217 Cu 0.66018 0.31449 0.65899
 Cu218 Cu 0.67838 0.34626 0.65464
 N219 N 0.67156 0.35568 0.68204
 N220 N 0.67986 0.35773 0.67138
 C221 C 0.68838 0.36879 0.67407
 C222 C 0.68531 0.37392 0.68722
 C223 C 0.67456 0.36527 0.69193
 H224 H 0.69610 0.37282 0.66689
 H225 H 0.66907 0.36606 0.70169
 N226 N 0.67972 0.33022 0.64159
 N227 N 0.67313 0.31802 0.64337
 C228 C 0.67671 0.30912 0.63302
 C229 C 0.68606 0.31604 0.62431
 C230 C 0.68769 0.32941 0.63013
 H231 H 0.67275 0.29841 0.63192
 H232 H 0.69445 0.33785 0.62651
 H233 H 0.67423 0.32938 0.66712
 H234 H 0.65900 0.33587 0.65684
 N235 N 0.64322 0.81754 1.17012
 N236 N 0.64332 0.82735 1.17980
 C237 C 0.63222 0.82535 1.18820
 C238 C 0.62473 0.81371 1.18344
 C239 C 0.63207 0.80905 1.17195
 H240 H 0.62969 0.83193 1.19704
 H241 H 0.62962 0.80000 1.16550
 Cu242 Cu 0.65796 0.84178 1.18030
 Cu243 Cu 0.65758 0.81621 1.15593
 Cu244 Cu 0.68424 0.84102 1.15700
 N245 N 0.67327 0.85545 1.18094
 N246 N 0.68353 0.85494 1.17189
 C247 C 0.69275 0.86534 1.17470
 C248 C 0.68804 0.87286 1.18610
 C249 C 0.67561 0.86629 1.18978
 H250 H 0.70210 0.86739 1.16873
 H251 H 0.66886 0.86911 1.19833
 N252 N 0.68310 0.82608 1.14273
 N253 N 0.67300 0.81655 1.14245
 C254 C 0.67516 0.80768 1.13172
 C255 C 0.68718 0.81184 1.12486
 C256 C 0.69192 0.82357 1.13212
 H257 H 0.66839 0.79893 1.12899
 H258 H 0.70121 0.82972 1.12992
 H259 H 0.67321 0.82561 1.16761
 H260 H 0.66302 0.83756 1.15584
 N261 N 0.14385 0.31532 1.16955
 N262 N 0.14385 0.32455 1.17976
 C263 C 0.13275 0.32198 1.18801
 C264 C 0.12539 0.31052 1.18265
 C265 C 0.13280 0.30661 1.17092
 H266 H 0.13012 0.32809 1.19713
 H267 H 0.13042 0.29796 1.16394
 Cu268 Cu 0.15826 0.33915 1.18113
 Cu269 Cu 0.15817 0.31519 1.15526
 Cu270 Cu 0.18317 0.34177 1.15644
 N271 N 0.17224 0.35423 1.18137
 N272 N 0.18176 0.35534 1.17160
 C273 C 0.18992 0.36668 1.17423
 C274 C 0.18532 0.37304 1.18635
 C275 C 0.17406 0.36483 1.19057
 H276 H 0.19870 0.36991 1.16791
 H277 H 0.16758 0.36654 1.19959
 N278 N 0.18286 0.32699 1.14197
 N279 N 0.17344 0.31675 1.14169
 C280 C 0.17621 0.30806 1.13096
 C281 C 0.18792 0.31305 1.12410
 C282 C 0.19184 0.32511 1.13135
 H283 H 0.17008 0.29882 1.12828
 H284 H 0.20074 0.33184 1.12921
 H285 H 0.17382 0.32495 1.16664
 H286 H 0.16215 0.33685 1.15625
 N287 N 0.14381 0.81815 0.67201
 N288 N 0.14474 0.82814 0.68147
 C289 C 0.13418 0.82659 0.69059
 C290 C 0.12616 0.81503 0.68662
 C291 C 0.13261 0.80994 0.67475
 H292 H 0.13240 0.83342 0.69941
 H293 H 0.12952 0.80083 0.66866
 Cu294 Cu 0.15965 0.84218 0.68100
 Cu295 Cu 0.15737 0.81641 0.65701
 Cu296 Cu 0.18391 0.84154 0.65580
 N297 N 0.17441 0.85638 0.68006
 N298 N 0.18394 0.85600 0.67026
 C299 C 0.19300 0.86677 0.67216
 C300 C 0.18890 0.87439 0.68376
 C301 C 0.17704 0.86746 0.68849
 H302 H 0.20185 0.86894 0.66552
 H303 H 0.17092 0.87017 0.69752
 N304 N 0.18209 0.82609 0.64211
 N305 N 0.17208 0.81645 0.64266
 C306 C 0.17376 0.80728 0.63207
 C307 C 0.18537 0.81133 0.62446
 C308 C 0.19035 0.82334 0.63112
 H309 H 0.16694 0.79839 0.62995
 H310 H 0.19944 0.82951 0.62827
 H311 H 0.17390 0.82595 0.66723
 H312 H 0.16269 0.83774 0.65629
 N313 N 0.35676 0.68298 0.67175
 N314 N 0.35877 0.67137 0.67911
 C315 C 0.36988 0.67324 0.68746
 C316 C 0.37511 0.68681 0.68523
 C317 C 0.36649 0.69268 0.67519
 H318 H 0.37376 0.66536 0.69468
 H319 H 0.36740 0.70311 0.67050
 Cu320 Cu 0.34677 0.65487 0.67716
 Cu321 Cu 0.34208 0.68433 0.65784
 Cu322 Cu 0.31802 0.65684 0.65704
 N323 N 0.33159 0.64132 0.67893
 N324 N 0.32041 0.64201 0.67106
 C325 C 0.31160 0.63147 0.67471
 C326 C 0.31758 0.62375 0.68548
 C327 C 0.33029 0.63036 0.68785
 H328 H 0.30157 0.62963 0.66989
 H329 H 0.33794 0.62763 0.69565
 N330 N 0.31757 0.67300 0.64390
 N331 N 0.32656 0.68362 0.64447
 C332 C 0.32366 0.69295 0.63426
 C333 C 0.31232 0.68797 0.62683
 C334 C 0.30875 0.67525 0.63322
 H335 H 0.32965 0.70245 0.63208
 H336 H 0.30038 0.66816 0.63029
 H337 H 0.32884 0.67120 0.66911
 H338 H 0.33867 0.66281 0.65446
 N339 N 0.35885 0.17841 1.16938
 N340 N 0.35850 0.16832 1.17883
 C341 C 0.36884 0.17043 1.18801
 C342 C 0.37616 0.18251 1.18412
 C343 C 0.36950 0.18731 1.17221
 H344 H 0.37085 0.16363 1.19685
 H345 H 0.37232 0.19640 1.16589
 Cu346 Cu 0.34510 0.15287 1.17800
 Cu347 Cu 0.34574 0.17853 1.15391
 Cu348 Cu 0.31517 0.16005 1.16127
 N349 N 0.32898 0.14055 1.17959
 N350 N 0.31719 0.14339 1.17321
 C351 C 0.30763 0.13350 1.17677
 C352 C 0.31381 0.12392 1.18589
 C353 C 0.32739 0.12879 1.18739
 H354 H 0.29694 0.13349 1.17317
 H355 H 0.33551 0.12429 1.19383
 N356 N 0.31681 0.17401 1.14600
 N357 N 0.32850 0.18080 1.14303
 C358 C 0.32651 0.18886 1.13165
 C359 C 0.31288 0.18703 1.12712
 C360 C 0.30707 0.17753 1.13653
 H361 H 0.33452 0.19533 1.12689
 H362 H 0.29663 0.17319 1.13636
 H363 H 0.33171 0.17264 1.16836
 H364 H 0.33554 0.15865 1.15518
 N365 N 0.85578 0.68088 1.17124
 N366 N 0.85732 0.67003 1.17972
 C367 C 0.86832 0.67243 1.18807
 C368 C 0.87401 0.68554 1.18465
 C369 C 0.86574 0.69059 1.17391
 H370 H 0.87182 0.66522 1.19611
 H371 H 0.86699 0.70048 1.16828
 Cu372 Cu 0.84490 0.65375 1.17911
 Cu373 Cu 0.84121 0.68143 1.15718
 Cu374 Cu 0.81623 0.65490 1.15886
 N375 N 0.82949 0.64062 1.18172
 N376 N 0.81831 0.64108 1.17385
 C377 C 0.80941 0.63079 1.17791
 C378 C 0.81534 0.62347 1.18895
 C379 C 0.82811 0.63006 1.19107
 H380 H 0.79945 0.62872 1.17306
 H381 H 0.83580 0.62747 1.19887
 N382 N 0.81613 0.66991 1.14452
 N383 N 0.82566 0.68003 1.14391
 C384 C 0.82298 0.68847 1.13292
 C385 C 0.81117 0.68345 1.12623
 C386 C 0.80712 0.67166 1.13392
 H387 H 0.82924 0.69755 1.12998
 H388 H 0.79840 0.66469 1.13183
 H389 H 0.82757 0.66993 1.16960
 H390 H 0.83703 0.65981 1.15577
 N391 N 0.85405 0.18517 0.67635
 N392 N 0.85558 0.17386 0.68426
 C393 C 0.86737 0.17524 0.69177
 C394 C 0.87349 0.18820 0.68844
 C395 C 0.86469 0.19419 0.67862
 H396 H 0.87104 0.16751 0.69925
 H397 H 0.86592 0.20429 0.67336
 Cu398 Cu 0.84143 0.15899 0.68442
 Cu399 Cu 0.83824 0.18749 0.66383
 Cu400 Cu 0.82171 0.15570 0.65596
 N401 N 0.82778 0.14376 0.68278
 N402 N 0.81996 0.14267 0.67164
 C403 C 0.81133 0.13148 0.67307
 C404 C 0.81376 0.12522 0.68587
 C405 C 0.82435 0.13329 0.69174
 H406 H 0.80388 0.12820 0.66529
 H407 H 0.82904 0.13181 0.70184
 N408 N 0.82011 0.17290 0.64434
 N409 N 0.82603 0.18511 0.64760
 C410 C 0.82275 0.19488 0.63791
 C411 C 0.81432 0.18855 0.62801
 C412 C 0.81284 0.17459 0.63250
 H413 H 0.82647 0.20574 0.63800
 H414 H 0.80676 0.16628 0.62766
 H415 H 0.82428 0.17145 0.67004
 H416 H 0.84038 0.16656 0.66023
 N417 N 0.31912 0.35714 0.67159
 N418 N 0.32834 0.35653 0.68167
 C419 C 0.32631 0.36772 0.69020
 C420 C 0.31529 0.37577 0.68508
 C421 C 0.31102 0.36868 0.67327
 H422 H 0.33242 0.36990 0.69937
 H423 H 0.30244 0.37154 0.66653
 Cu424 Cu 0.34198 0.34109 0.68249
 Cu425 Cu 0.31785 0.34282 0.65716
 Cu426 Cu 0.34209 0.31555 0.65799
 N427 N 0.35593 0.32593 0.68245
 N428 N 0.35568 0.31592 0.67296
 C429 C 0.36612 0.30667 0.67535
 C430 C 0.37342 0.31109 0.68694
 C431 C 0.36669 0.32341 0.69116
 H432 H 0.36838 0.29751 0.66897
 H433 H 0.36934 0.32994 0.69999
 N434 N 0.32751 0.31703 0.64365
 N435 N 0.31820 0.32738 0.64345
 C436 C 0.30957 0.32545 0.63261
 C437 C 0.31365 0.31332 0.62558
 C438 C 0.32510 0.30828 0.63287
 H439 H 0.30104 0.33246 0.62990
 H440 H 0.33112 0.29884 0.63057
 H441 H 0.32655 0.32629 0.66846
 H442 H 0.33877 0.33725 0.65770
 N443 N 0.31886 0.85702 0.17268
 N444 N 0.32928 0.85663 0.18153
 C445 C 0.32770 0.86722 0.19078
 C446 C 0.31560 0.87464 0.18759
 C447 C 0.31027 0.86782 0.17602
 H448 H 0.33471 0.86926 0.19933
 H449 H 0.30091 0.87059 0.17036
 Cu450 Cu 0.34377 0.84216 0.18036
 Cu451 Cu 0.31724 0.84353 0.15750
 Cu452 Cu 0.34220 0.81688 0.15565
 N453 N 0.35743 0.82687 0.17937
 N454 N 0.35670 0.81692 0.16985
 C455 C 0.36730 0.80768 0.17170
 C456 C 0.37513 0.81208 0.18299
 C457 C 0.36852 0.82430 0.18758
 H458 H 0.36925 0.79853 0.16520
 H459 H 0.37147 0.83076 0.19636
 N460 N 0.32674 0.81869 0.14223
 N461 N 0.31734 0.82895 0.14287
 C462 C 0.30842 0.82759 0.13216
 C463 C 0.31234 0.81590 0.12437
 C464 C 0.32400 0.81051 0.13110
 H465 H 0.29967 0.83458 0.13020
 H466 H 0.33019 0.80145 0.12796
 H467 H 0.32746 0.82710 0.16769
 H468 H 0.33826 0.83848 0.15592
 N469 N 0.81931 0.35689 0.17229
 N470 N 0.82957 0.35641 0.18132
 C471 C 0.82786 0.36699 0.19057
 C472 C 0.81589 0.37453 0.18715
 C473 C 0.81075 0.36777 0.17546
 H474 H 0.83473 0.36891 0.19925
 H475 H 0.80149 0.37052 0.16965
 Cu476 Cu 0.84405 0.34189 0.18039
 Cu477 Cu 0.81771 0.34332 0.15722
 Cu478 Cu 0.84211 0.31616 0.15609
 N479 N 0.85730 0.32618 0.17980
 N480 N 0.85635 0.31605 0.17048
 C481 C 0.86665 0.30652 0.17261
 C482 C 0.87452 0.31092 0.18386
 C483 C 0.86826 0.32345 0.18815
 H484 H 0.86839 0.29720 0.16629
 H485 H 0.87135 0.33000 0.19682
 N486 N 0.82694 0.31813 0.14240
 N487 N 0.81777 0.32861 0.14276
 C488 C 0.80899 0.32731 0.13193
 C489 C 0.81278 0.31542 0.12437
 C490 C 0.82420 0.30985 0.13134
 H491 H 0.80041 0.33444 0.12976
 H492 H 0.83023 0.30060 0.12843
 H493 H 0.82751 0.32696 0.16790
 H494 H 0.83863 0.33787 0.15597
 N495 N 0.81805 0.85697 0.66924
 N496 N 0.82707 0.85654 0.67951
 C497 C 0.82465 0.86766 0.68800
 C498 C 0.81356 0.87547 0.68272
 C499 C 0.80967 0.86834 0.67079
 H500 H 0.83050 0.86988 0.69733
 H501 H 0.80112 0.87097 0.66394
 Cu502 Cu 0.84085 0.84130 0.68079
 Cu503 Cu 0.81723 0.84241 0.65496
 Cu504 Cu 0.84139 0.81508 0.65709
 N505 N 0.85490 0.82627 0.68138
 N506 N 0.85481 0.81594 0.67221
 C507 C 0.86539 0.80694 0.67491
 C508 C 0.87260 0.81186 0.68637
 C509 C 0.86565 0.82420 0.69020
 H510 H 0.86783 0.79766 0.66878
 H511 H 0.86819 0.83110 0.69879
 N512 N 0.82703 0.81612 0.64250
 N513 N 0.81800 0.82668 0.64153
 C514 C 0.80976 0.82451 0.63041
 C515 C 0.81376 0.81193 0.62409
 C516 C 0.82474 0.80692 0.63207
 H517 H 0.80134 0.83145 0.62724
 H518 H 0.83075 0.79736 0.63028
 H519 H 0.82560 0.82624 0.66686
 H520 H 0.83808 0.83680 0.65606
 N521 N 0.68286 0.64420 0.66956
 N522 N 0.67372 0.64423 0.67974
 C523 C 0.67614 0.63290 0.68801
 C524 C 0.68739 0.62537 0.68270
 C525 C 0.69135 0.63289 0.67097
 H526 H 0.67012 0.63028 0.69715
 H527 H 0.69995 0.63049 0.66410
 Cu528 Cu 0.65954 0.65904 0.68117
 Cu529 Cu 0.68348 0.65901 0.65546
 Cu530 Cu 0.65826 0.68529 0.65730
 N531 N 0.64490 0.67347 0.68141
 N532 N 0.64453 0.68365 0.67205
 C533 C 0.63329 0.69190 0.67427
 C534 C 0.62612 0.68666 0.68567
 C535 C 0.63384 0.67495 0.68997
 H536 H 0.63052 0.70102 0.66799
 H537 H 0.63140 0.66784 0.69847
 N538 N 0.67299 0.68511 0.64310
 N539 N 0.68244 0.67493 0.64220
 C540 C 0.69077 0.67760 0.63122
 C541 C 0.68638 0.69010 0.62495
 C542 C 0.67509 0.69455 0.63278
 H543 H 0.69948 0.67102 0.62811
 H544 H 0.66871 0.70386 0.63094
 H545 H 0.67435 0.67475 0.66733
 H546 H 0.66239 0.66369 0.65645
 N547 N 0.68172 0.14573 0.17167
 N548 N 0.67177 0.14623 0.18105
 C549 C 0.67344 0.13533 0.18999
 C550 C 0.68509 0.12757 0.18605
 C551 C 0.69008 0.13452 0.17436
 H552 H 0.66671 0.13327 0.19877
 H553 H 0.69905 0.13163 0.16818
 Cu554 Cu 0.65750 0.16098 0.18076
 Cu555 Cu 0.68316 0.15967 0.15675
 Cu556 Cu 0.65752 0.18565 0.15543
 N557 N 0.64286 0.17532 0.17939
 N558 N 0.64290 0.18482 0.16937
 C559 C 0.63167 0.19330 0.17068
 C560 C 0.62412 0.18893 0.18217
 C561 C 0.63156 0.17747 0.18746
 H562 H 0.62927 0.20211 0.16384
 H563 H 0.62886 0.17109 0.19641
 N564 N 0.67311 0.18478 0.14221
 N565 N 0.68278 0.17477 0.14250
 C566 C 0.69180 0.17703 0.13197
 C567 C 0.68764 0.18910 0.12481
 C568 C 0.67575 0.19370 0.13160
 H569 H 0.70083 0.17050 0.12979
 H570 H 0.66938 0.20278 0.12886
 H571 H 0.67312 0.17593 0.16701
 H572 H 0.66206 0.16405 0.15605
 N573 N 0.18040 0.64539 0.17009
 N574 N 0.17004 0.64567 0.17903
 C575 C 0.17153 0.63483 0.18805
 C576 C 0.18347 0.62729 0.18462
 C577 C 0.18882 0.63431 0.17311
 H578 H 0.16445 0.63261 0.19651
 H579 H 0.19826 0.63175 0.16751
 Cu580 Cu 0.15567 0.66026 0.17842
 Cu581 Cu 0.18239 0.65970 0.15556
 Cu582 Cu 0.15785 0.68682 0.15505
 N583 N 0.14226 0.67579 0.17807
 N584 N 0.14321 0.68620 0.16899
 C585 C 0.13271 0.69547 0.17110
 C586 C 0.12470 0.69064 0.18212
 C587 C 0.13111 0.67809 0.18627
 H588 H 0.13098 0.70493 0.16494
 H589 H 0.12796 0.67119 0.19468
 N590 N 0.17337 0.68565 0.14174
 N591 N 0.18260 0.67521 0.14172
 C592 C 0.19162 0.67732 0.13117
 C593 C 0.18793 0.68973 0.12429
 C594 C 0.17630 0.69468 0.13130
 H595 H 0.20032 0.67042 0.12874
 H596 H 0.17027 0.70407 0.12880
 H597 H 0.17245 0.67557 0.16662
 H598 H 0.16152 0.66510 0.15423
 N599 N 0.18402 0.14578 0.67027
 N600 N 0.17474 0.14588 0.68031
 C601 C 0.17732 0.13488 0.68895
 C602 C 0.18883 0.12748 0.68403
 C603 C 0.19278 0.13475 0.67215
 H604 H 0.17112 0.13228 0.69799
 H605 H 0.20141 0.13224 0.66535
 Cu606 Cu 0.15989 0.16008 0.68097
 Cu607 Cu 0.18408 0.15978 0.65539
 Cu608 Cu 0.15701 0.18408 0.65502
 N609 N 0.14439 0.17352 0.68003
 N610 N 0.14328 0.18265 0.66974
 C611 C 0.13167 0.19048 0.67144
 C612 C 0.12506 0.18609 0.68347
 C613 C 0.13345 0.17529 0.68869
 H614 H 0.12841 0.19892 0.66453
 H615 H 0.13166 0.16910 0.69799
 N616 N 0.17190 0.18394 0.64100
 N617 N 0.18233 0.17478 0.64119
 C618 C 0.19087 0.17758 0.63041
 C619 C 0.18552 0.18904 0.62306
 C620 C 0.17348 0.19278 0.63011
 H621 H 0.20023 0.17163 0.62802
 H622 H 0.16649 0.20145 0.62761
 H623 H 0.17367 0.17568 0.66597
 H624 H 0.16269 0.16282 0.65597
 N625 N 0.31674 0.64497 0.32865
 N626 N 0.32659 0.64402 0.31920
 C627 C 0.32367 0.63307 0.31070
 C628 C 0.31130 0.62681 0.31502
 C629 C 0.30721 0.63469 0.32646
 H630 H 0.32998 0.62999 0.30191
 H631 H 0.29807 0.63297 0.33284
 Cu632 Cu 0.34218 0.65731 0.31872
 Cu633 Cu 0.31710 0.65929 0.34320
 Cu634 Cu 0.34429 0.68357 0.34238
 N635 N 0.35690 0.67159 0.31804
 N636 N 0.35769 0.68178 0.32730
 C637 C 0.36871 0.69016 0.32434
 C638 C 0.37521 0.68498 0.31253
 C639 C 0.36738 0.67317 0.30884
 H640 H 0.37163 0.69942 0.33028
 H641 H 0.36918 0.66620 0.30012
 N642 N 0.32971 0.68367 0.35680
 N643 N 0.31928 0.67451 0.35704
 C644 C 0.31108 0.67735 0.36805
 C645 C 0.31662 0.68885 0.37514
 C646 C 0.32845 0.69255 0.36768
 H647 H 0.30186 0.67136 0.37082
 H648 H 0.33557 0.70115 0.36994
 H649 H 0.32796 0.67424 0.33165
 H650 H 0.33845 0.66238 0.34326
 N651 N 0.32204 0.14185 0.83229
 N652 N 0.32851 0.14370 0.82040
 C653 C 0.32456 0.13339 0.81156
 C654 C 0.31509 0.12454 0.81830
 C655 C 0.31383 0.13028 0.83148
 H656 H 0.32833 0.13242 0.80104
 H657 H 0.30730 0.12651 0.83986
 Cu658 Cu 0.34153 0.15942 0.81787
 Cu659 Cu 0.32475 0.15458 0.84796
 Cu660 Cu 0.33950 0.18718 0.83949
 N661 N 0.35543 0.17454 0.81746
 N662 N 0.35439 0.18556 0.82576
 C663 C 0.36484 0.19471 0.82303
 C664 C 0.37301 0.18909 0.81251
 C665 C 0.36670 0.17624 0.80924
 H666 H 0.36643 0.20462 0.82849
 H667 H 0.36992 0.16877 0.80135
 N668 N 0.32864 0.18398 0.85656
 N669 N 0.32348 0.17144 0.85998
 C670 C 0.31676 0.17254 0.87218
 C671 C 0.31773 0.18649 0.87675
 C672 C 0.32540 0.19342 0.86655
 H673 H 0.31140 0.16383 0.87720
 H674 H 0.32832 0.20453 0.86630
 H675 H 0.32549 0.17085 0.83413
 H676 H 0.34257 0.16619 0.84228
 N677 N 0.81759 0.64550 0.82979
 N678 N 0.82646 0.64524 0.81939
 C679 C 0.82327 0.63423 0.81104
 C680 C 0.81179 0.62719 0.81651
 C681 C 0.80848 0.63469 0.82843
 H682 H 0.82900 0.63143 0.80179
 H683 H 0.80004 0.63252 0.83556
 Cu684 Cu 0.84143 0.65919 0.81785
 Cu685 Cu 0.81847 0.65979 0.84434
 Cu686 Cu 0.84548 0.68423 0.84243
 N687 N 0.85675 0.67281 0.81718
 N688 N 0.85827 0.68251 0.82684
 C689 C 0.86959 0.69047 0.82394
 C690 C 0.87556 0.68552 0.81177
 C691 C 0.86709 0.67427 0.80779
 H692 H 0.87311 0.69926 0.83022
 H693 H 0.86838 0.66758 0.79878
 N694 N 0.83148 0.68428 0.85741
 N695 N 0.82112 0.67505 0.85807
 C696 C 0.81327 0.67794 0.86932
 C697 C 0.81896 0.68954 0.87610
 C698 C 0.83051 0.69326 0.86824
 H699 H 0.80415 0.67195 0.87241
 H700 H 0.83760 0.70197 0.87016
 H701 H 0.82831 0.67536 0.83275
 H702 H 0.83977 0.66297 0.84281
 N703 N 0.81864 0.14457 0.32820
 N704 N 0.82871 0.14503 0.31894
 C705 C 0.82677 0.13449 0.30970
 C706 C 0.81489 0.12695 0.31340
 C707 C 0.81003 0.13367 0.32523
 H708 H 0.83357 0.13237 0.30100
 H709 H 0.80079 0.13098 0.33113
 Cu710 Cu 0.84337 0.15937 0.31978
 Cu711 Cu 0.81733 0.15830 0.34324
 Cu712 Cu 0.84270 0.18458 0.34455
 N713 N 0.85735 0.17439 0.32052
 N714 N 0.85694 0.18430 0.33011
 C715 C 0.86758 0.19344 0.32805
 C716 C 0.87512 0.18902 0.31657
 C717 C 0.86830 0.17688 0.31207
 H718 H 0.86972 0.20256 0.33452
 H719 H 0.87098 0.17046 0.30317
 N720 N 0.82744 0.18307 0.35824
 N721 N 0.81774 0.17312 0.35767
 C722 C 0.80874 0.17498 0.36824
 C723 C 0.81297 0.18665 0.37591
 C724 C 0.82489 0.19149 0.36925
 H725 H 0.79983 0.16825 0.37030
 H726 H 0.83114 0.20060 0.37212
 H727 H 0.82753 0.17460 0.33288
 H728 H 0.83842 0.16304 0.34437
 N729 N 0.68098 0.35220 0.32941
 N730 N 0.67155 0.35142 0.31953
 C731 C 0.67404 0.36170 0.31010
 C732 C 0.68562 0.36939 0.31428
 C733 C 0.68974 0.36305 0.32662
 H734 H 0.66769 0.36371 0.30105
 H735 H 0.69845 0.36609 0.33309
 Cu736 Cu 0.65652 0.33751 0.32029
 Cu737 Cu 0.68104 0.33920 0.34524
 Cu738 Cu 0.65434 0.31426 0.34664
 N739 N 0.64177 0.32329 0.32105
 N740 N 0.64091 0.31437 0.33153
 C741 C 0.62973 0.30591 0.32979
 C742 C 0.62316 0.30970 0.31753
 C743 C 0.63112 0.32079 0.31225
 H744 H 0.62670 0.29754 0.33689
 H745 H 0.62918 0.32673 0.30284
 N746 N 0.66892 0.31574 0.36092
 N747 N 0.67921 0.32507 0.36035
 C748 C 0.68769 0.32298 0.37134
 C749 C 0.68240 0.31188 0.37925
 C750 C 0.67053 0.30755 0.37227
 H751 H 0.69701 0.32908 0.37344
 H752 H 0.66375 0.29881 0.37509
 H753 H 0.67083 0.32275 0.33547
 H754 H 0.65978 0.33560 0.34532
 N755 N 0.68079 0.85472 0.82935
 N756 N 0.67121 0.85403 0.81962
 C757 C 0.67344 0.86452 0.81034
 C758 C 0.68501 0.87226 0.81449
 C759 C 0.68938 0.86573 0.82664
 H760 H 0.66702 0.86651 0.80133
 H761 H 0.69825 0.86865 0.83296
 Cu762 Cu 0.65664 0.83960 0.81998
 Cu763 Cu 0.68151 0.84118 0.84469
 Cu764 Cu 0.65610 0.81492 0.84526
 N765 N 0.64271 0.82451 0.82029
 N766 N 0.64259 0.81492 0.83023
 C767 C 0.63212 0.80569 0.82797
 C768 C 0.62523 0.80964 0.81593
 C769 C 0.63227 0.82167 0.81134
 H770 H 0.62971 0.79677 0.83467
 H771 H 0.63006 0.82781 0.80210
 N772 N 0.67063 0.81661 0.85956
 N773 N 0.68043 0.82648 0.85931
 C774 C 0.68894 0.82453 0.87029
 C775 C 0.68423 0.81291 0.87783
 C776 C 0.67260 0.80819 0.87070
 H777 H 0.69787 0.83112 0.87267
 H778 H 0.66619 0.79910 0.87329
 H779 H 0.67194 0.82476 0.83413
 H780 H 0.66047 0.83651 0.84482
 N781 N 0.18140 0.35484 0.82858
 N782 N 0.17154 0.35420 0.81911
 C783 C 0.17358 0.36469 0.80977
 C784 C 0.18531 0.37236 0.81361
 C785 C 0.18998 0.36578 0.82562
 H786 H 0.16687 0.36678 0.80099
 H787 H 0.19898 0.36870 0.83175
 Cu788 Cu 0.15676 0.34000 0.82024
 Cu789 Cu 0.18235 0.34155 0.84412
 Cu790 Cu 0.15613 0.31619 0.84622
 N791 N 0.14228 0.32546 0.82135
 N792 N 0.14204 0.31635 0.83171
 C793 C 0.13101 0.30764 0.83027
 C794 C 0.12389 0.31143 0.81832
 C795 C 0.13138 0.32280 0.81290
 H796 H 0.12849 0.29905 0.83731
 H797 H 0.12897 0.32876 0.80360
 N798 N 0.17130 0.31765 0.85989
 N799 N 0.18141 0.32715 0.85903
 C800 C 0.19031 0.32513 0.86970
 C801 C 0.18550 0.31387 0.87768
 C802 C 0.17344 0.30941 0.87113
 H803 H 0.19954 0.33145 0.87158
 H804 H 0.16683 0.30062 0.87418
 H805 H 0.17198 0.32512 0.83442
 H806 H 0.16121 0.33759 0.84503
 N807 N 0.17908 0.85472 0.32987
 N808 N 0.16957 0.85428 0.32006
 C809 C 0.17118 0.86558 0.31161
 C810 C 0.18233 0.87356 0.31631
 C811 C 0.18716 0.86631 0.32791
 H812 H 0.16478 0.86777 0.30262
 H813 H 0.19570 0.86939 0.33461
 Cu814 Cu 0.15569 0.83929 0.31920
 Cu815 Cu 0.17981 0.84041 0.34460
 Cu816 Cu 0.15414 0.81423 0.34410
 N817 N 0.14150 0.82455 0.31908
 N818 N 0.14064 0.81498 0.32900
 C819 C 0.12964 0.80641 0.32650
 C820 C 0.12331 0.81084 0.31430
 C821 C 0.13112 0.82240 0.30991
 H822 H 0.12657 0.79756 0.33302
 H823 H 0.12925 0.82890 0.30083
 N824 N 0.16876 0.81522 0.35842
 N825 N 0.17868 0.82498 0.35852
 C826 C 0.18720 0.82249 0.36939
 C827 C 0.18234 0.81066 0.37653
 C828 C 0.17067 0.80632 0.36921
 H829 H 0.19620 0.82890 0.37199
 H830 H 0.16419 0.79718 0.37144
 H831 H 0.17039 0.82424 0.33372
 H832 H 0.15866 0.83597 0.34414
 C833 C 0.24227 0.99934 0.25605
 C834 C 0.25253 0.99912 0.24624
 C835 C 0.25828 1.01244 0.24019
 C836 C 0.25885 0.98561 0.24123
 C837 C 0.23597 0.98603 0.26159
 C838 C 0.23706 1.01290 0.26209
 C839 C 0.24957 1.02248 0.23369
 C840 C 0.25520 1.03503 0.22820
 C841 C 0.26961 1.03770 0.22910
 C842 C 0.27831 1.02749 0.23537
 C843 C 0.27270 1.01497 0.24082
 C844 C 0.25966 0.98300 0.22694
 C845 C 0.26594 0.97060 0.22201
 C846 C 0.27159 0.96054 0.23127
 C847 C 0.27082 0.96321 0.24560
 C848 C 0.26461 0.97568 0.25053
 C849 C 0.23555 0.98375 0.27597
 C850 C 0.22964 0.97136 0.28141
 C851 C 0.22398 0.96097 0.27258
 C852 C 0.22437 0.96330 0.25816
 C853 C 0.23019 0.97577 0.25272
 C854 C 0.24628 1.02269 0.26816
 C855 C 0.24122 1.03524 0.27406
 C856 C 0.22679 1.03814 0.27427
 C857 C 0.21759 1.02822 0.26833
 C858 C 0.22268 1.01572 0.26233
 H859 H 0.23844 1.02062 0.23296
 H860 H 0.24826 1.04276 0.22348
 H861 H 0.28949 1.02915 0.23598
 H862 H 0.27960 1.00731 0.24572
 H863 H 0.25544 0.99061 0.21959
 H864 H 0.26659 0.96901 0.21091
 H865 H 0.26436 0.97762 0.26159
 H866 H 0.23987 0.99158 0.28299
 H867 H 0.22933 0.97003 0.29256
 H868 H 0.22028 0.95543 0.25106
 H869 H 0.23021 0.97742 0.24160
 H870 H 0.25740 1.02055 0.26842
 H871 H 0.24861 1.04268 0.27846
 H872 H 0.20641 1.02995 0.26858
 H873 H 0.21537 1.00821 0.25790
 H874 H 0.27496 0.95563 0.25302
 C875 C 0.24419 0.50029 0.75649
 C876 C 0.25480 0.50018 0.74704
 C877 C 0.26117 0.51356 0.74175
 C878 C 0.26039 0.48671 0.74114
 C879 C 0.23823 0.48692 0.76229
 C880 C 0.23772 0.51380 0.76127
 C881 C 0.26186 0.51600 0.72741
 C882 C 0.26802 0.52838 0.72220
 C883 C 0.27369 0.53858 0.73124
 C884 C 0.27306 0.53607 0.74562
 C885 C 0.26692 0.52365 0.75083
 C886 C 0.25154 0.47687 0.73464
 C887 C 0.25702 0.46451 0.72871
 C888 C 0.27149 0.46185 0.72895
 C889 C 0.28031 0.47178 0.73542
 C890 C 0.27482 0.48409 0.74142
 C891 C 0.24676 0.47656 0.76855
 C892 C 0.24097 0.46389 0.77359
 C893 C 0.22651 0.46142 0.77263
 C894 C 0.21797 0.47200 0.76670
 C895 C 0.22377 0.48460 0.76160
 C896 C 0.23710 0.51680 0.77549
 C897 C 0.23094 0.52938 0.78017
 C898 C 0.22514 0.53916 0.77072
 C899 C 0.22561 0.53603 0.75647
 C900 C 0.23180 0.52344 0.75179
 H901 H 0.25759 0.50830 0.72023
 H902 H 0.26855 0.52985 0.71107
 H903 H 0.27723 0.54376 0.75286
 H904 H 0.26670 0.52186 0.76193
 H905 H 0.24041 0.47882 0.73405
 H906 H 0.24991 0.45704 0.72392
 H907 H 0.28184 0.49164 0.74623
 H908 H 0.25791 0.47824 0.76942
 H909 H 0.24784 0.45594 0.77802
 H910 H 0.20677 0.47058 0.76607
 H911 H 0.21698 0.49249 0.75693
 H912 H 0.24147 0.50942 0.78297
 H913 H 0.23053 0.53136 0.79122
 H914 H 0.22131 0.54339 0.74892
 H915 H 0.23194 0.52119 0.74078
 H916 H 0.29152 0.47021 0.73556
 C917 C 0.74410 0.00080 0.24507
 C918 C 0.75417 0.00090 0.25505
 C919 C 0.75988 -0.01248 0.26095
 C920 C 0.76012 0.01434 0.26062
 C921 C 0.73833 0.01416 0.23916
 C922 C 0.73834 -0.01268 0.23942
 C923 C 0.75850 -0.01512 0.27520
 C924 C 0.76354 -0.02775 0.28096
 C925 C 0.77020 -0.03793 0.27259
 C926 C 0.77185 -0.03513 0.25834
 C927 C 0.76673 -0.02248 0.25256
 C928 C 0.75160 0.02487 0.26655
 C929 C 0.75749 0.03746 0.27161
 C930 C 0.77202 0.03967 0.27099
 C931 C 0.78051 0.02892 0.26532
 C932 C 0.77462 0.01641 0.26022
 C933 C 0.74694 0.02416 0.23249
 C934 C 0.74126 0.03676 0.22716
 C935 C 0.72686 0.03952 0.22837
 C936 C 0.71827 0.02933 0.23481
 C937 C 0.72395 0.01675 0.24009
 C938 C 0.73893 -0.01511 0.22509
 C939 C 0.73386 -0.02779 0.21951
 C940 C 0.72803 -0.03832 0.22815
 C941 C 0.72712 -0.03571 0.24249
 C942 C 0.73217 -0.02297 0.24806
 H943 H 0.75335 -0.00745 0.28183
 H944 H 0.76233 -0.02952 0.29200
 H945 H 0.77690 -0.04281 0.25165
 H946 H 0.76804 -0.02052 0.24157
 H947 H 0.74041 0.02336 0.26721
 H948 H 0.75066 0.04554 0.27585
 H949 H 0.78139 0.00835 0.25583
 H950 H 0.75805 0.02223 0.23148
 H951 H 0.74813 0.04444 0.22230
 H952 H 0.70711 0.03102 0.23565
 H953 H 0.71713 0.00909 0.24508
 H954 H 0.74349 -0.00724 0.21822
 H955 H 0.73443 -0.02930 0.20840
 H956 H 0.72274 -0.04361 0.24943
 H957 H 0.73135 -0.02117 0.25912
 H958 H 0.79175 0.03012 0.26496
 C959 C 0.74522 0.50009 0.74588
 C960 C 0.75467 0.50042 0.75645
 C961 C 0.76045 0.48713 0.76253
 C962 C 0.75958 0.51398 0.76266
 C963 C 0.74006 0.51331 0.73910
 C964 C 0.73935 0.48647 0.74066
 C965 C 0.75887 0.48445 0.77675
 C966 C 0.76404 0.47190 0.78260
 C967 C 0.77105 0.46187 0.77434
 C968 C 0.77289 0.46471 0.76013
 C969 C 0.76764 0.47725 0.75427
 C970 C 0.75010 0.52403 0.76789
 C971 C 0.75492 0.53663 0.77389
 C972 C 0.76933 0.53936 0.77492
 C973 C 0.77879 0.52917 0.76982
 C974 C 0.77396 0.51661 0.76379
 C975 C 0.74935 0.52331 0.73342
 C976 C 0.74428 0.53565 0.72702
 C977 C 0.72982 0.53813 0.72603
 C978 C 0.72056 0.52796 0.73154
 C979 C 0.72564 0.51568 0.73798
 C980 C 0.74010 0.48331 0.72647
 C981 C 0.73430 0.47074 0.72134
 C982 C 0.72755 0.46111 0.73030
 C983 C 0.72676 0.46435 0.74452
 C984 C 0.73254 0.47694 0.74963
 H985 H 0.75346 0.49202 0.78330
 H986 H 0.76267 0.47010 0.79362
 H987 H 0.77820 0.45714 0.75352
 H988 H 0.76914 0.47925 0.74330
 H989 H 0.73896 0.52208 0.76738
 H990 H 0.74736 0.54429 0.77763
 H991 H 0.78145 0.50893 0.75996
 H992 H 0.76052 0.52155 0.73393
 H993 H 0.75169 0.54331 0.72296
 H994 H 0.70937 0.52940 0.73070
 H995 H 0.71829 0.50802 0.74216
 H996 H 0.74517 0.49061 0.71936
 H997 H 0.73487 0.46870 0.71031
 H998 H 0.72173 0.45711 0.75171
 H999 H 0.73160 0.47931 0.76058
 H1000 H 0.78995 0.53081 0.77070
 C1001 C 0.24254 0.50099 0.24434
 C1002 C 0.25249 0.50096 0.25445
 C1003 C 0.25832 0.48752 0.26018
 C1004 C 0.25809 0.51437 0.26044
 C1005 C 0.23636 0.51443 0.23903
 C1006 C 0.23692 0.48760 0.23832
 C1007 C 0.24965 0.47705 0.26604
 C1008 C 0.25539 0.46438 0.27116
 C1009 C 0.26990 0.46208 0.27069
 C1010 C 0.27854 0.47279 0.26517
 C1011 C 0.27280 0.48537 0.25998
 C1012 C 0.25765 0.51636 0.27484
 C1013 C 0.26280 0.52884 0.28074
 C1014 C 0.26856 0.53962 0.27236
 C1015 C 0.26923 0.53750 0.25793
 C1016 C 0.26410 0.52495 0.25203
 C1017 C 0.23699 0.51750 0.22480
 C1018 C 0.23115 0.53004 0.21959
 C1019 C 0.22442 0.53967 0.22849
 C1020 C 0.22365 0.53648 0.24274
 C1021 C 0.22953 0.52394 0.24796
 C1022 C 0.24572 0.47737 0.23230
 C1023 C 0.24017 0.46468 0.22709
 C1024 C 0.22570 0.46209 0.22766
 C1025 C 0.21693 0.47257 0.23334
 C1026 C 0.22248 0.48517 0.23860
 H1027 H 0.23846 0.47864 0.26656
 H1028 H 0.24845 0.45632 0.27528
 H1029 H 0.28978 0.47151 0.26495
 H1030 H 0.27967 0.49341 0.25566
 H1031 H 0.25322 0.50824 0.28153
 H1032 H 0.26240 0.52999 0.29190
 H1033 H 0.26481 0.52350 0.24091
 H1034 H 0.24208 0.51019 0.21775
 H1035 H 0.23169 0.53207 0.20854
 H1036 H 0.21859 0.54373 0.24986
 H1037 H 0.22874 0.52163 0.25894
 H1038 H 0.25689 0.47914 0.23177
 H1039 H 0.24722 0.45680 0.22284
 H1040 H 0.20572 0.47106 0.23366
 H1041 H 0.21549 0.49298 0.24308
 H1042 H 0.27356 0.54560 0.25118
 C1043 C 0.74361 0.99955 0.75602
 C1044 C 0.75370 0.99942 0.74602
 C1045 C 0.75966 1.01278 0.74022
 C1046 C 0.75900 0.98596 0.73989
 C1047 C 0.73783 0.98617 0.76196
 C1048 C 0.73774 1.01306 0.76154
 C1049 C 0.75902 1.01516 0.72588
 C1050 C 0.76433 1.02768 0.72014
 C1051 C 0.77044 1.03809 0.72864
 C1052 C 0.77135 1.03557 0.74300
 C1053 C 0.76602 1.02299 0.74875
 C1054 C 0.74991 0.97613 0.73371
 C1055 C 0.75516 0.96376 0.72757
 C1056 C 0.76962 0.96107 0.72735
 C1057 C 0.77868 0.97099 0.73350
 C1058 C 0.77342 0.98331 0.73967
 C1059 C 0.74654 0.97575 0.76786
 C1060 C 0.74086 0.96314 0.77314
 C1061 C 0.72635 0.96079 0.77276
 C1062 C 0.71766 0.97143 0.76718
 C1063 C 0.72334 0.98398 0.76186
 C1064 C 0.73768 1.01537 0.77590
 C1065 C 0.73245 1.02804 0.78134
 C1066 C 0.72717 1.03874 0.77253
 C1067 C 0.72689 1.03624 0.75815
 C1068 C 0.73200 1.02346 0.75272
 H1069 H 0.75423 1.00737 0.71912
 H1070 H 0.76372 1.02918 0.70902
 H1071 H 0.77595 1.04343 0.74981
 H1072 H 0.76678 1.02126 0.75983
 H1073 H 0.73876 0.97809 0.73353
 H1074 H 0.74788 0.95629 0.72304
 H1075 H 0.78062 0.99084 0.74425
 H1076 H 0.75773 0.97735 0.76828
 H1077 H 0.74784 0.95512 0.77731
 H1078 H 0.70643 0.97011 0.76701
 H1079 H 0.71643 0.99195 0.75749
 H1080 H 0.74186 1.00740 0.78291
 H1081 H 0.73251 1.02944 0.79248
 H1082 H 0.72298 1.04427 0.75107
 H1083 H 0.73161 1.02175 0.74163
 H1084 H 0.78988 0.96939 0.73329
 C1085 C 0.74305 0.49801 0.25749
 C1086 C 0.75374 0.49834 0.24815
 C1087 C 0.76002 0.51193 0.24330
 C1088 C 0.75990 0.48513 0.24235
 C1089 C 0.73739 0.48438 0.26296
 C1090 C 0.73666 0.51127 0.26298
 C1091 C 0.76067 0.51483 0.22904
 C1092 C 0.76671 0.52743 0.22422
 C1093 C 0.77230 0.53737 0.23357
 C1094 C 0.77174 0.53438 0.24787
 C1095 C 0.76572 0.52173 0.25269
 C1096 C 0.75166 0.47516 0.23527
 C1097 C 0.75770 0.46278 0.22991
 C1098 C 0.77209 0.46022 0.23147
 C1099 C 0.78031 0.47034 0.23840
 C1100 C 0.77428 0.48269 0.24373
 C1101 C 0.74609 0.47428 0.26939
 C1102 C 0.74056 0.46146 0.27435
 C1103 C 0.72619 0.45859 0.27314
 C1104 C 0.71749 0.46889 0.26699
 C1105 C 0.72303 0.48165 0.26198
 C1106 C 0.73616 0.51342 0.27735
 C1107 C 0.73083 0.52606 0.28275
 C1108 C 0.72579 0.53682 0.27389
 C1109 C 0.72587 0.53445 0.25948
 C1110 C 0.73119 0.52175 0.25408
 H1111 H 0.75644 0.50734 0.22163
 H1112 H 0.76721 0.52927 0.21314
 H1113 H 0.77586 0.54186 0.25534
 H1114 H 0.76553 0.51958 0.26373
 H1115 H 0.74057 0.47697 0.23392
 H1116 H 0.75109 0.45514 0.22469
 H1117 H 0.78083 0.49033 0.24905
 H1118 H 0.75717 0.47631 0.27052
 H1119 H 0.74755 0.45373 0.27897
 H1120 H 0.70634 0.46716 0.26616
 H1121 H 0.71613 0.48937 0.25721
 H1122 H 0.74018 0.50540 0.28439
 H1123 H 0.73065 0.52743 0.29389
 H1124 H 0.72212 0.54254 0.25238
 H1125 H 0.73124 0.52017 0.24296
 H1126 H 0.79146 0.46880 0.23954
 C1127 C 0.24432 0.00075 0.74661
 C1128 C 0.25376 0.00038 0.75719
 C1129 C 0.25984 -0.01320 0.76228
 C1130 C 0.25906 0.01357 0.76384
 C1131 C 0.23938 0.01440 0.74050
 C1132 C 0.23887 -0.01249 0.74017
 C1133 C 0.25871 -0.01683 0.77636
 C1134 C 0.26479 -0.02934 0.78140
 C1135 C 0.27228 -0.03835 0.77247
 C1136 C 0.27342 -0.03466 0.75837
 C1137 C 0.26728 -0.02218 0.75332
 C1138 C 0.24991 0.02354 0.76976
 C1139 C 0.25514 0.03592 0.77589
 C1140 C 0.26961 0.03849 0.77630
 C1141 C 0.27872 0.02837 0.77053
 C1142 C 0.27349 0.01604 0.76439
 C1143 C 0.24887 0.02441 0.73517
 C1144 C 0.24405 0.03701 0.72909
 C1145 C 0.22964 0.03975 0.72803
 C1146 C 0.22018 0.02963 0.73327
 C1147 C 0.22501 0.01707 0.73941
 C1148 C 0.23984 -0.01426 0.72575
 C1149 C 0.23497 -0.02668 0.71949
 C1150 C 0.22898 -0.03763 0.72750
 C1151 C 0.22780 -0.03573 0.74193
 C1152 C 0.23261 -0.02325 0.74819
 H1153 H 0.25313 -0.00994 0.78345
 H1154 H 0.26392 -0.03179 0.79235
 H1155 H 0.27905 -0.04145 0.75123
 H1156 H 0.26846 -0.01943 0.74247
 H1157 H 0.23874 0.02173 0.76961
 H1158 H 0.24785 0.04355 0.78018
 H1159 H 0.28073 0.00844 0.75995
 H1160 H 0.26000 0.02241 0.73562
 H1161 H 0.25162 0.04461 0.72524
 H1162 H 0.20902 0.03128 0.73237
 H1163 H 0.21752 0.00939 0.74330
 H1164 H 0.24451 -0.00604 0.71935
 H1165 H 0.23580 -0.02765 0.70833
 H1166 H 0.22334 -0.04398 0.74842
 H1167 H 0.23153 -0.02200 0.75930
 H1168 H 0.28992 0.02990 0.77090
 C1169 C 0.26159 0.24859 1.00074
 C1170 C 0.25158 0.25891 1.00014
 C1171 C 0.24528 0.26507 1.01290
 C1172 C 0.24559 0.26382 0.98674
 C1173 C 0.26791 0.24245 0.98800
 C1174 C 0.26606 0.24220 1.01412
 C1175 C 0.23072 0.26496 1.01451
 C1176 C 0.22458 0.27012 1.02661
 C1177 C 0.23286 0.27551 1.03742
 C1178 C 0.24744 0.27603 1.03564
 C1179 C 0.25359 0.27093 1.02345
 C1180 C 0.23953 0.25412 0.97747
 C1181 C 0.23327 0.25893 0.96524
 C1182 C 0.23271 0.27357 0.96216
 C1183 C 0.23878 0.28325 0.97148
 C1184 C 0.24511 0.27841 0.98367
 C1185 C 0.27422 0.25112 0.97789
 C1186 C 0.27951 0.24514 0.96569
 C1187 C 0.27862 0.23038 0.96342
 C1188 C 0.27266 0.22172 0.97376
 C1189 C 0.26742 0.22769 0.98593
 C1190 C 0.28023 0.24216 1.01776
 C1191 C 0.28459 0.23604 1.03026
 C1192 C 0.27484 0.22972 1.03930
 C1193 C 0.26066 0.22961 1.03552
 C1194 C 0.25632 0.23571 1.02301
 H1195 H 0.22409 0.26060 1.00647
 H1196 H 0.21331 0.26988 1.02750
 H1197 H 0.25412 0.28006 1.04378
 H1198 H 0.26484 0.27136 1.02232
 H1199 H 0.23948 0.24283 0.97979
 H1200 H 0.22881 0.25119 0.95823
 H1201 H 0.24954 0.28607 0.99079
 H1202 H 0.27489 0.26252 0.97938
 H1203 H 0.28402 0.25208 0.95790
 H1204 H 0.27207 0.21029 0.97245
 H1205 H 0.26269 0.22079 0.99363
 H1206 H 0.28792 0.24692 1.01093
 H1207 H 0.29561 0.23606 1.03275
 H1208 H 0.25289 0.22490 1.04228
 H1209 H 0.24537 0.23536 1.02024
 H1210 H 0.23831 0.29460 0.96955
 C1211 C 0.25563 0.74387 0.50006
 C1212 C 0.24489 0.75344 0.49999
 C1213 C 0.23879 0.75912 0.51305
 C1214 C 0.23850 0.75862 0.48684
 C1215 C 0.26246 0.73905 0.48702
 C1216 C 0.26127 0.73783 0.51321
 C1217 C 0.22434 0.75819 0.51528
 C1218 C 0.21841 0.76340 0.52748
 C1219 C 0.22681 0.76965 0.53776
 C1220 C 0.24128 0.77080 0.53540
 C1221 C 0.24719 0.76566 0.52312
 C1222 C 0.23328 0.74905 0.47696
 C1223 C 0.22713 0.75409 0.46475
 C1224 C 0.22590 0.76880 0.46224
 C1225 C 0.23104 0.77835 0.47221
 C1226 C 0.23722 0.77331 0.48441
 C1227 C 0.26795 0.74887 0.47746
 C1228 C 0.27425 0.74416 0.46521
 C1229 C 0.27534 0.72951 0.46236
 C1230 C 0.27006 0.71972 0.47211
 C1231 C 0.26373 0.72444 0.48431
 C1232 C 0.27561 0.73881 0.51599
 C1233 C 0.28106 0.73359 0.52843
 C1234 C 0.27227 0.72726 0.53839
 C1235 C 0.25795 0.72592 0.53541
 C1236 C 0.25252 0.73107 0.52290
 H1237 H 0.21765 0.75328 0.50760
 H1238 H 0.20721 0.76262 0.52882
 H1239 H 0.24806 0.77548 0.54312
 H1240 H 0.25834 0.76670 0.52152
 H1241 H 0.23393 0.73768 0.47874
 H1242 H 0.22340 0.74644 0.45723
 H1243 H 0.24104 0.78087 0.49196
 H1244 H 0.26733 0.76019 0.47947
 H1245 H 0.27812 0.75199 0.45790
 H1246 H 0.27096 0.70837 0.47037
 H1247 H 0.25971 0.71669 0.49163
 H1248 H 0.28258 0.74382 0.50859
 H1249 H 0.29219 0.73447 0.53024
 H1250 H 0.25090 0.72114 0.54287
 H1251 H 0.24146 0.72992 0.52083
 H1252 H 0.23006 0.78973 0.47072
 C1253 C 0.24797 0.74502 -0.00115
 C1254 C 0.25783 0.75550 -0.00107
 C1255 C 0.26446 0.76070 -0.01407
 C1256 C 0.26258 0.76231 0.01203
 C1257 C 0.24207 0.73908 0.01190
 C1258 C 0.24237 0.73907 -0.01430
 C1259 C 0.27125 0.75128 -0.02313
 C1260 C 0.27738 0.75634 -0.03535
 C1261 C 0.27695 0.77093 -0.03867
 C1262 C 0.27032 0.78034 -0.02946
 C1263 C 0.26419 0.77527 -0.01726
 C1264 C 0.27688 0.76285 0.01510
 C1265 C 0.28155 0.76913 0.02736
 C1266 C 0.27201 0.77504 0.03683
 C1267 C 0.25767 0.77468 0.03362
 C1268 C 0.25301 0.76847 0.02129
 C1269 C 0.22755 0.73894 0.01382
 C1270 C 0.22180 0.73373 0.02613
 C1271 C 0.23044 0.72853 0.03679
 C1272 C 0.24498 0.72832 0.03470
 C1273 C 0.25074 0.73348 0.02233
 C1274 C 0.23654 0.74793 -0.02454
 C1275 C 0.23124 0.74212 -0.03680
 C1276 C 0.23151 0.72731 -0.03898
 C1277 C 0.23711 0.71848 -0.02857
 C1278 C 0.24246 0.72429 -0.01637
 H1279 H 0.27178 0.74002 -0.02074
 H1280 H 0.28231 0.74881 -0.04228
 H1281 H 0.27002 0.79166 -0.03160
 H1282 H 0.25912 0.78272 -0.01034
 H1283 H 0.28445 0.75830 0.00803
 H1284 H 0.29268 0.76950 0.02935
 H1285 H 0.24194 0.76842 0.01900
 H1286 H 0.22068 0.74306 0.00585
 H1287 H 0.21055 0.73375 0.02728
 H1288 H 0.25192 0.72444 0.04273
 H1289 H 0.26196 0.73324 0.02094
 H1290 H 0.23609 0.75934 -0.02303
 H1291 H 0.22707 0.74923 -0.04462
 H1292 H 0.23721 0.70702 -0.02978
 H1293 H 0.24674 0.71726 -0.00853
 H1294 H 0.25002 0.77904 0.04071
 C1295 C 0.24853 0.24530 0.49964
 C1296 C 0.25913 0.25500 0.49934
 C1297 C 0.26481 0.26064 0.48608
 C1298 C 0.26531 0.26084 0.51227
 C1299 C 0.24210 0.24047 0.51285
 C1300 C 0.24239 0.23938 0.48674
 C1301 C 0.27917 0.25963 0.48341
 C1302 C 0.28469 0.26469 0.47094
 C1303 C 0.27595 0.27091 0.46088
 C1304 C 0.26160 0.27220 0.46372
 C1305 C 0.25609 0.26721 0.47626
 C1306 C 0.27060 0.25187 0.52270
 C1307 C 0.27570 0.25762 0.53507
 C1308 C 0.27575 0.27244 0.53715
 C1309 C 0.27093 0.28137 0.52644
 C1310 C 0.26578 0.27562 0.51414
 C1311 C 0.23618 0.25023 0.52215
 C1312 C 0.22990 0.24545 0.53440
 C1313 C 0.22929 0.23082 0.53749
 C1314 C 0.23512 0.22109 0.52806
 C1315 C 0.24141 0.22587 0.51584
 C1316 C 0.22795 0.24048 0.48456
 C1317 C 0.22196 0.23540 0.47236
 C1318 C 0.23029 0.22909 0.46206
 C1319 C 0.24473 0.22763 0.46443
 C1320 C 0.25071 0.23266 0.47670
 H1321 H 0.28609 0.25478 0.49096
 H1322 H 0.29583 0.26383 0.46922
 H1323 H 0.25458 0.27688 0.45618
 H1324 H 0.24502 0.26838 0.47826
 H1325 H 0.27059 0.24043 0.52135
 H1326 H 0.27930 0.25044 0.54312
 H1327 H 0.26190 0.28273 0.50616
 H1328 H 0.23637 0.26153 0.51990
 H1329 H 0.22560 0.25322 0.54149
 H1330 H 0.23460 0.20974 0.53000
 H1331 H 0.24576 0.21818 0.50869
 H1332 H 0.22132 0.24547 0.49224
 H1333 H 0.21077 0.23637 0.47102
 H1334 H 0.25143 0.22286 0.45668
 H1335 H 0.26184 0.23145 0.47831
 H1336 H 0.27113 0.29283 0.52757
 C1337 C 0.75914 0.74626 1.00071
 C1338 C 0.74879 0.75625 1.00044
 C1339 C 0.74253 0.76199 1.01340
 C1340 C 0.74271 0.76149 0.98718
 C1341 C 0.76615 0.74129 0.98784
 C1342 C 0.76368 0.73944 1.01389
 C1343 C 0.72799 0.76171 1.01515
 C1344 C 0.72192 0.76679 1.02734
 C1345 C 0.73027 0.77229 1.03806
 C1346 C 0.74483 0.77287 1.03615
 C1347 C 0.75089 0.76785 1.02390
 C1348 C 0.73734 0.75194 0.97736
 C1349 C 0.73112 0.75700 0.96520
 C1350 C 0.72995 0.77172 0.96270
 C1351 C 0.73531 0.78124 0.97259
 C1352 C 0.74159 0.77617 0.98471
 C1353 C 0.77208 0.75097 0.97840
 C1354 C 0.77840 0.74611 0.96622
 C1355 C 0.77906 0.73145 0.96332
 C1356 C 0.77338 0.72179 0.97296
 C1357 C 0.76703 0.72666 0.98509
 C1358 C 0.77785 0.73951 1.01758
 C1359 C 0.78226 0.73307 1.02990
 C1360 C 0.77260 0.72630 1.03871
 C1361 C 0.75843 0.72605 1.03487
 C1362 C 0.75403 0.73249 1.02254
 H1363 H 0.72132 0.75738 1.00713
 H1364 H 0.71066 0.76649 1.02832
 H1365 H 0.75156 0.77698 1.04422
 H1366 H 0.76212 0.76843 1.02265
 H1367 H 0.73782 0.74057 0.97918
 H1368 H 0.72723 0.74937 0.95775
 H1369 H 0.74551 0.78371 0.99224
 H1370 H 0.77175 0.76230 0.98043
 H1371 H 0.78259 0.75383 0.95898
 H1372 H 0.77396 0.71042 0.97119
 H1373 H 0.76264 0.71899 0.99229
 H1374 H 0.78548 0.74464 1.01094
 H1375 H 0.79328 0.73321 1.03243
 H1376 H 0.75073 0.72099 1.04147
 H1377 H 0.74309 0.73205 1.01973
 H1378 H 0.73435 0.79263 0.97111
 C1379 C 0.75665 0.24466 0.50183
 C1380 C 0.74638 0.25473 0.50190
 C1381 C 0.74111 0.26108 0.51501
 C1382 C 0.73973 0.25990 0.48891
 C1383 C 0.76245 0.23881 0.48871
 C1384 C 0.76257 0.23886 0.51492
 C1385 C 0.72676 0.26070 0.51794
 C1386 C 0.72156 0.26680 0.53008
 C1387 C 0.73059 0.27350 0.53952
 C1388 C 0.74497 0.27397 0.53650
 C1389 C 0.75017 0.26787 0.52433
 C1390 C 0.73346 0.25042 0.47957
 C1391 C 0.72710 0.25551 0.46749
 C1392 C 0.72671 0.27020 0.46461
 C1393 C 0.73286 0.27966 0.47408
 C1394 C 0.73926 0.27456 0.48612
 C1395 C 0.76788 0.24778 0.47834
 C1396 C 0.77296 0.24207 0.46593
 C1397 C 0.77288 0.22727 0.46374
 C1398 C 0.76781 0.21832 0.47433
 C1399 C 0.76267 0.22404 0.48667
 C1400 C 0.77699 0.23969 0.51728
 C1401 C 0.78271 0.23457 0.52965
 C1402 C 0.77411 0.22839 0.53985
 C1403 C 0.75969 0.22728 0.53732
 C1404 C 0.75397 0.23244 0.52494
 H1405 H 0.71958 0.25565 0.51081
 H1406 H 0.71041 0.26650 0.53195
 H1407 H 0.75221 0.27899 0.54358
 H1408 H 0.76125 0.26850 0.52214
 H1409 H 0.73345 0.23908 0.48166
 H1410 H 0.72255 0.24793 0.46036
 H1411 H 0.74388 0.28207 0.49328
 H1412 H 0.76808 0.25920 0.47982
 H1413 H 0.77673 0.24926 0.45798
 H1414 H 0.76790 0.20687 0.47311
 H1415 H 0.75868 0.21692 0.49459
 H1416 H 0.78381 0.24447 0.50960
 H1417 H 0.79388 0.23536 0.53120
 H1418 H 0.75279 0.22265 0.54501
 H1419 H 0.74284 0.23151 0.52320
 H1420 H 0.73251 0.29104 0.47231
 C1421 C 0.74728 0.24463 -0.00065
 C1422 C 0.75754 0.25469 -0.00051
 C1423 C 0.76439 0.25965 -0.01349
 C1424 C 0.76243 0.26135 0.01260
 C1425 C 0.74134 0.23868 0.01238
 C1426 C 0.74133 0.23914 -0.01383
 C1427 C 0.77052 0.24995 -0.02274
 C1428 C 0.77683 0.25479 -0.03495
 C1429 C 0.77731 0.26943 -0.03804
 C1430 C 0.77141 0.27910 -0.02860
 C1431 C 0.76504 0.27426 -0.01645
 C1432 C 0.77673 0.26152 0.01572
 C1433 C 0.78152 0.26778 0.02794
 C1434 C 0.77209 0.27406 0.03730
 C1435 C 0.75776 0.27402 0.03406
 C1436 C 0.75299 0.26782 0.02178
 C1437 C 0.72684 0.23883 0.01440
 C1438 C 0.72107 0.23362 0.02670
 C1439 C 0.72968 0.22813 0.03725
 C1440 C 0.74420 0.22763 0.03504
 C1441 C 0.74997 0.23278 0.02268
 C1442 C 0.73575 0.24844 -0.02384
 C1443 C 0.73032 0.24310 -0.03624
 C1444 C 0.73025 0.22837 -0.03880
 C1445 C 0.73555 0.21910 -0.02859
 C1446 C 0.74099 0.22444 -0.01623
 H1447 H 0.77037 0.23865 -0.02053
 H1448 H 0.78119 0.24706 -0.04204
 H1449 H 0.77185 0.29046 -0.03053
 H1450 H 0.76050 0.28191 -0.00938
 H1451 H 0.78420 0.25673 0.00870
 H1452 H 0.79264 0.26788 0.02997
 H1453 H 0.74193 0.26805 0.01945
 H1454 H 0.71999 0.24319 0.00652
 H1455 H 0.70983 0.23387 0.02793
 H1456 H 0.75113 0.22353 0.04298
 H1457 H 0.76117 0.23230 0.02121
 H1458 H 0.73566 0.25981 -0.02207
 H1459 H 0.72639 0.25052 -0.04392
 H1460 H 0.73539 0.20769 -0.03012
 H1461 H 0.74509 0.21708 -0.00857
 H1462 H 0.75020 0.27865 0.04108
 C1463 C 0.74326 0.74733 0.49896
 C1464 C 0.75403 0.75682 0.49874
 C1465 C 0.76069 0.76146 0.48556
 C1466 C 0.76010 0.76273 0.51169
 C1467 C 0.73747 0.74171 0.51218
 C1468 C 0.73695 0.74169 0.48600
 C1469 C 0.76635 0.75153 0.47627
 C1470 C 0.77269 0.75611 0.46398
 C1471 C 0.77365 0.77071 0.46085
 C1472 C 0.76816 0.78062 0.47031
 C1473 C 0.76178 0.77603 0.48255
 C1474 C 0.77450 0.76149 0.51407
 C1475 C 0.78037 0.76653 0.52634
 C1476 C 0.77197 0.77296 0.53653
 C1477 C 0.75758 0.77454 0.53396
 C1478 C 0.75172 0.76956 0.52162
 C1479 C 0.72312 0.74287 0.51481
 C1480 C 0.71750 0.73777 0.52722
 C1481 C 0.72613 0.73136 0.53726
 C1482 C 0.74048 0.72994 0.53447
 C1483 C 0.74609 0.73498 0.52200
 C1484 C 0.73186 0.75083 0.47560
 C1485 C 0.72647 0.74526 0.46327
 C1486 C 0.72592 0.73045 0.46120
 C1487 C 0.73057 0.72136 0.47186
 C1488 C 0.73601 0.72693 0.48411
 H1489 H 0.76585 0.74024 0.47854
 H1490 H 0.77673 0.74821 0.45688
 H1491 H 0.76897 0.79194 0.46835
 H1492 H 0.75762 0.78386 0.48968
 H1493 H 0.78117 0.75640 0.50648
 H1494 H 0.79153 0.76544 0.52784
 H1495 H 0.74062 0.77087 0.51987
 H1496 H 0.71628 0.74785 0.50728
 H1497 H 0.70636 0.73874 0.52891
 H1498 H 0.74742 0.72513 0.54200
 H1499 H 0.75715 0.73371 0.52003
 H1500 H 0.73224 0.76226 0.47696
 H1501 H 0.72304 0.75254 0.45525
 H1502 H 0.73000 0.70991 0.47074
 H1503 H 0.73974 0.71969 0.49206
 H1504 H 0.75081 0.77938 0.54161
 C1505 C 1.00013 0.25362 0.24319
 C1506 C 1.00022 0.24432 0.25409
 C1507 C 1.01347 0.23930 0.26051
 C1508 C 0.98709 0.23884 0.26042
 C1509 C 0.98691 0.25925 0.23723
 C1510 C 1.01327 0.25866 0.23656
 C1511 C 1.01597 0.22465 0.26187
 C1512 C 1.02827 0.21971 0.26801
 C1513 C 1.03833 0.22935 0.27296
 C1514 C 1.03574 0.24404 0.27167
 C1515 C 1.02338 0.24897 0.26560
 C1516 C 0.97686 0.23200 0.25241
 C1517 C 0.96449 0.22717 0.25857
 C1518 C 0.96220 0.22892 0.27288
 C1519 C 0.97265 0.23544 0.28090
 C1520 C 0.98495 0.24033 0.27473
 C1521 C 0.97701 0.26627 0.24553
 C1522 C 0.96454 0.27126 0.23973
 C1523 C 0.96181 0.26950 0.22549
 C1524 C 0.97193 0.26279 0.21719
 C1525 C 0.98434 0.25775 0.22300
 C1526 C 1.01578 0.27333 0.23531
 C1527 C 1.02805 0.27830 0.22916
 C1528 C 1.03808 0.26871 0.22405
 C1529 C 1.03546 0.25400 0.22515
 C1530 C 1.02314 0.24903 0.23127
 H1531 H 1.00838 0.21701 0.25814
 H1532 H 1.02980 0.20834 0.26908
 H1533 H 1.04330 0.25176 0.27526
 H1534 H 1.02153 0.26032 0.26489
 H1535 H 0.97842 0.23047 0.24139
 H1536 H 0.95663 0.22227 0.25208
 H1537 H 0.99277 0.24543 0.28113
 H1538 H 0.97891 0.26779 0.25649
 H1539 H 0.95695 0.27631 0.24643
 H1540 H 0.97032 0.26155 0.20614
 H1541 H 0.99191 0.25252 0.21639
 H1542 H 1.00824 0.28093 0.23921
 H1543 H 1.02961 0.28968 0.22824
 H1544 H 1.04301 0.24633 0.22142
 H1545 H 1.02130 0.23768 0.23191
 H1546 H 0.97138 0.23668 0.29199
 C1547 C 0.50014 0.25200 0.74228
 C1548 C 0.50028 0.24221 0.75278
 C1549 C 0.51351 0.23721 0.75925
 C1550 C 0.48715 0.23638 0.75880
 C1551 C 0.48685 0.25801 0.73681
 C1552 C 0.51324 0.25760 0.73598
 C1553 C 0.51620 0.22257 0.76030
 C1554 C 0.52834 0.21765 0.76677
 C1555 C 0.53803 0.22728 0.77239
 C1556 C 0.53529 0.24197 0.77135
 C1557 C 0.52311 0.24688 0.76493
 C1558 C 0.47698 0.22988 0.75043
 C1559 C 0.46447 0.22500 0.75626
 C1560 C 0.46196 0.22638 0.77058
 C1561 C 0.47238 0.23246 0.77895
 C1562 C 0.48483 0.23739 0.77312
 C1563 C 0.47713 0.26462 0.74561
 C1564 C 0.46462 0.27006 0.74029
 C1565 C 0.46168 0.26916 0.72602
 C1566 C 0.47164 0.26290 0.71720
 C1567 C 0.48408 0.25740 0.72254
 C1568 C 0.51526 0.27236 0.73505
 C1569 C 0.52760 0.27790 0.72956
 C1570 C 0.53827 0.26880 0.72487
 C1571 C 0.53607 0.25400 0.72539
 C1572 C 0.52363 0.24845 0.73081
 H1573 H 0.50887 0.21494 0.75611
 H1574 H 0.53000 0.20628 0.76761
 H1575 H 0.54259 0.24968 0.77545
 H1576 H 0.52112 0.25822 0.76446
 H1577 H 0.47866 0.22877 0.73938
 H1578 H 0.45664 0.22042 0.74951
 H1579 H 0.49258 0.24223 0.77979
 H1580 H 0.47920 0.26550 0.75662
 H1581 H 0.45716 0.27474 0.74737
 H1582 H 0.46987 0.26233 0.70613
 H1583 H 0.49153 0.25253 0.71555
 H1584 H 0.50733 0.27962 0.73880
 H1585 H 0.52879 0.28935 0.72899
 H1586 H 0.54407 0.24670 0.72191
 H1587 H 0.52217 0.23702 0.73113
 H1588 H 0.47093 0.23340 0.79005
 C1589 C 0.00092 0.24245 0.74610
 C1590 C 0.00067 0.25260 0.75617
 C1591 C -0.01262 0.25920 0.76086
 C1592 C 0.01366 0.25788 0.76286
 C1593 C 0.01423 0.23716 0.74010
 C1594 C -0.01214 0.23652 0.74012
 C1595 C -0.02161 0.26595 0.75140
 C1596 C -0.03398 0.27229 0.75600
 C1597 C -0.03751 0.27210 0.77016
 C1598 C -0.02838 0.26548 0.77961
 C1599 C -0.01604 0.25914 0.77500
 C1600 C 0.01625 0.27257 0.76342
 C1601 C 0.02834 0.27774 0.76972
 C1602 C 0.03809 0.26833 0.77566
 C1603 C 0.03540 0.25361 0.77521
 C1604 C 0.02326 0.24845 0.76895
 C1605 C 0.01682 0.22248 0.73949
 C1606 C 0.02908 0.21733 0.73345
 C1607 C 0.03895 0.22679 0.72779
 C1608 C 0.03631 0.24151 0.72840
 C1609 C 0.02402 0.24664 0.73439
 C1610 C -0.02251 0.23050 0.74861
 C1611 C -0.03490 0.22536 0.74281
 C1612 C -0.03707 0.22601 0.72840
 C1613 C -0.02649 0.23168 0.71991
 C1614 C -0.01416 0.23687 0.72571
 H1615 H -0.01904 0.26632 0.74046
 H1616 H -0.04085 0.27722 0.74847
 H1617 H -0.03067 0.26538 0.79060
 H1618 H -0.00916 0.25411 0.78247
 H1619 H 0.00891 0.28004 0.75890
 H1620 H 0.02995 0.28914 0.77013
 H1621 H 0.02134 0.23709 0.76886
 H1622 H 0.00930 0.21499 0.74367
 H1623 H 0.03068 0.20594 0.73291
 H1624 H 0.04374 0.24908 0.72423
 H1625 H 0.02208 0.25800 0.73447
 H1626 H -0.02105 0.22991 0.75974
 H1627 H -0.04288 0.22114 0.74964
 H1628 H -0.02772 0.23207 0.70875
 H1629 H -0.00625 0.24137 0.71897
 H1630 H 0.04274 0.24607 0.77960
 C1631 C 0.49907 0.24567 0.24265
 C1632 C 0.49922 0.25568 0.25285
 C1633 C 0.48615 0.26229 0.25811
 C1634 C 0.51245 0.26046 0.25941
 C1635 C 0.51218 0.24038 0.23620
 C1636 C 0.48581 0.23942 0.23743
 C1637 C 0.47658 0.26875 0.24902
 C1638 C 0.46436 0.27495 0.25414
 C1639 C 0.46154 0.27493 0.26846
 C1640 C 0.47124 0.26862 0.27753
 C1641 C 0.48344 0.26241 0.27241
 C1642 C 0.51543 0.27505 0.26029
 C1643 C 0.52766 0.27973 0.26671
 C1644 C 0.53714 0.26990 0.27244
 C1645 C 0.53409 0.25528 0.27158
 C1646 C 0.52182 0.25061 0.26522
 C1647 C 0.51470 0.22569 0.23539
 C1648 C 0.52688 0.22058 0.22918
 C1649 C 0.53678 0.23006 0.22361
 C1650 C 0.53418 0.24478 0.22436
 C1651 C 0.52195 0.24988 0.23050
 C1652 C 0.47603 0.23342 0.24659
 C1653 C 0.46373 0.22736 0.24153
 C1654 C 0.46107 0.22695 0.22718
 C1655 C 0.47096 0.23287 0.21804
 C1656 C 0.48320 0.23902 0.22312
 H1657 H 0.47860 0.26900 0.23797
 H1658 H 0.45704 0.27962 0.24687
 H1659 H 0.46951 0.26866 0.28863
 H1660 H 0.49075 0.25760 0.27960
 H1661 H 0.50827 0.28282 0.25599
 H1662 H 0.52956 0.29106 0.26742
 H1663 H 0.51959 0.23932 0.26489
 H1664 H 0.50724 0.21818 0.23962
 H1665 H 0.52845 0.20918 0.22856
 H1666 H 0.54165 0.25237 0.22030
 H1667 H 0.52010 0.26125 0.23080
 H1668 H 0.47795 0.23337 0.25766
 H1669 H 0.45629 0.22303 0.24887
 H1670 H 0.46937 0.23251 0.20693
 H1671 H 0.49066 0.24348 0.21586
 H1672 H 0.54123 0.24743 0.27578
 C1673 C 0.99999 0.75780 0.74497
 C1674 C 1.00002 0.74756 0.75505
 C1675 C 1.01314 0.74264 0.76180
 C1676 C 0.98690 0.74069 0.75990
 C1677 C 0.98675 0.76353 0.73910
 C1678 C 1.01318 0.76372 0.73920
 C1679 C 1.01620 0.72804 0.76233
 C1680 C 1.02839 0.72319 0.76874
 C1681 C 1.03777 0.73284 0.77483
 C1682 C 1.03460 0.74746 0.77443
 C1683 C 1.02236 0.75231 0.76805
 C1684 C 0.97788 0.73386 0.75057
 C1685 C 0.96559 0.72743 0.75533
 C1686 C 0.96217 0.72763 0.76952
 C1687 C 0.97136 0.73430 0.77883
 C1688 C 0.98361 0.74071 0.77407
 C1689 C 0.97629 0.76918 0.74770
 C1690 C 0.96377 0.77419 0.74200
 C1691 C 0.96155 0.77380 0.72759
 C1692 C 0.97225 0.76853 0.71900
 C1693 C 0.98471 0.76347 0.72470
 C1694 C 1.01520 0.77851 0.73890
 C1695 C 1.02755 0.78427 0.73360
 C1696 C 1.03813 0.77536 0.72841
 C1697 C 1.03597 0.76055 0.72847
 C1698 C 1.02358 0.75479 0.73374
 H1699 H 1.00916 0.72039 0.75770
 H1700 H 1.03036 0.71184 0.76910
 H1701 H 1.04164 0.75519 0.77894
 H1702 H 1.02007 0.76360 0.76800
 H1703 H 0.98035 0.73351 0.73961
 H1704 H 0.95870 0.72245 0.74789
 H1705 H 0.99051 0.74581 0.78145
 H1706 H 0.97777 0.76960 0.75882
 H1707 H 0.95573 0.77811 0.74891
 H1708 H 0.97101 0.76837 0.70784
 H1709 H 0.99271 0.75932 0.71787
 H1710 H 1.00725 0.78559 0.74291
 H1711 H 1.02875 0.79573 0.73346
 H1712 H 1.04394 0.75339 0.72463
 H1713 H 1.02212 0.74336 0.73360
 H1714 H 0.96916 0.73440 0.78985
 C1715 C 0.50017 0.75655 0.24511
 C1716 C 0.49970 0.74651 0.25534
 C1717 C 0.51258 0.74062 0.26176
 C1718 C 0.48630 0.74029 0.26022
 C1719 C 0.48723 0.76235 0.23868
 C1720 C 0.51361 0.76175 0.23925
 C1721 C 0.51480 0.72586 0.26163
 C1722 C 0.52695 0.72006 0.26728
 C1723 C 0.53714 0.72888 0.27326
 C1724 C 0.53477 0.74366 0.27369
 C1725 C 0.52257 0.74948 0.26801
 C1726 C 0.47723 0.73336 0.25100
 C1727 C 0.46484 0.72724 0.25584
 C1728 C 0.46135 0.72782 0.27000
 C1729 C 0.47051 0.73469 0.27920
 C1730 C 0.48289 0.74080 0.27436
 C1731 C 0.47662 0.76850 0.24676
 C1732 C 0.46433 0.77340 0.24052
 C1733 C 0.46249 0.77239 0.22607
 C1734 C 0.47331 0.76659 0.21801
 C1735 C 0.48555 0.76164 0.22425
 C1736 C 0.51627 0.77642 0.23863
 C1737 C 0.52859 0.78154 0.23266
 C1738 C 0.53850 0.77207 0.22710
 C1739 C 0.53580 0.75735 0.22776
 C1740 C 0.52343 0.75226 0.23367
 H1741 H 0.50719 0.71883 0.25695
 H1742 H 0.52834 0.70862 0.26702
 H1743 H 0.54245 0.75073 0.27817
 H1744 H 0.52095 0.76088 0.26839
 H1745 H 0.47980 0.73264 0.24009
 H1746 H 0.45796 0.72211 0.24849
 H1747 H 0.48984 0.74595 0.28164
 H1748 H 0.47781 0.76938 0.25789
 H1749 H 0.45617 0.77775 0.24703
 H1750 H 0.47237 0.76593 0.20684
 H1751 H 0.49364 0.75704 0.21782
 H1752 H 0.50875 0.78393 0.24274
 H1753 H 0.53021 0.79293 0.23210
 H1754 H 0.54326 0.74976 0.22372
 H1755 H 0.52147 0.74091 0.23377
 H1756 H 0.46825 0.73511 0.29019
 C1757 C -0.00112 0.74353 0.24398
 C1758 C -0.00148 0.75332 0.25436
 C1759 C -0.01483 0.75955 0.25932
 C1760 C 0.01150 0.75890 0.26083
 C1761 C 0.01225 0.73890 0.23760
 C1762 C -0.01409 0.73743 0.23800
 C1763 C -0.02398 0.76640 0.25009
 C1764 C -0.03633 0.77256 0.25496
 C1765 C -0.03967 0.77210 0.26916
 C1766 C -0.03040 0.76533 0.27837
 C1767 C -0.01807 0.75918 0.27350
 C1768 C 0.01368 0.77364 0.26139
 C1769 C 0.02598 0.77911 0.26696
 C1770 C 0.03637 0.76996 0.27214
 C1771 C 0.03399 0.75518 0.27200
 C1772 C 0.02162 0.74970 0.26644
 C1773 C 0.01553 0.72437 0.23696
 C1774 C 0.02797 0.71987 0.23081
 C1775 C 0.03731 0.72983 0.22506
 C1776 C 0.03390 0.74438 0.22558
 C1777 C 0.02145 0.74887 0.23173
 C1778 C -0.02422 0.73096 0.24647
 C1779 C -0.03658 0.72574 0.24070
 C1780 C -0.03898 0.72677 0.22634
 C1781 C -0.02864 0.73290 0.21786
 C1782 C -0.01631 0.73814 0.22364
 H1783 H -0.02152 0.76707 0.23915
 H1784 H -0.04331 0.77761 0.24760
 H1785 H -0.03256 0.76503 0.28939
 H1786 H -0.01103 0.75411 0.28079
 H1787 H 0.00593 0.78093 0.25729
 H1788 H 0.02734 0.79055 0.26725
 H1789 H 0.01999 0.73829 0.26638
 H1790 H 0.00846 0.71652 0.24128
 H1791 H 0.03018 0.70858 0.23034
 H1792 H 0.04091 0.75230 0.22131
 H1793 H 0.01895 0.76012 0.23186
 H1794 H -0.02260 0.73009 0.25756
 H1795 H -0.04438 0.72113 0.24750
 H1796 H -0.03004 0.73360 0.20674
 H1797 H -0.00858 0.74296 0.21690
 H1798 H 0.04179 0.74785 0.27592
 C1799 C 0.50046 0.74146 0.74632
 C1800 C 0.50091 0.75145 0.75643
 C1801 C 0.48807 0.75778 0.76235
 C1802 C 0.51438 0.75664 0.76189
 C1803 C 0.51340 0.73562 0.74026
 C1804 C 0.48714 0.73651 0.74026
 C1805 C 0.48592 0.77251 0.76139
 C1806 C 0.47365 0.77860 0.76647
 C1807 C 0.46336 0.77007 0.77275
 C1808 C 0.46568 0.75534 0.77400
 C1809 C 0.47795 0.74924 0.76884
 C1810 C 0.52251 0.76626 0.75421
 C1811 C 0.53511 0.77131 0.75959
 C1812 C 0.53980 0.76671 0.77268
 C1813 C 0.53163 0.75699 0.78028
 C1814 C 0.51897 0.75207 0.77495
 C1815 C 0.52078 0.72469 0.74694
 C1816 C 0.53286 0.71906 0.74089
 C1817 C 0.53778 0.72438 0.72811
 C1818 C 0.53040 0.73553 0.72163
 C1819 C 0.51827 0.74101 0.72760
 C1820 C 0.48324 0.72220 0.74159
 C1821 C 0.47066 0.71741 0.73596
 C1822 C 0.46182 0.72682 0.72870
 C1823 C 0.46587 0.74116 0.72730
 C1824 C 0.47842 0.74595 0.73303
 H1825 H 0.49365 0.77927 0.75648
 H1826 H 0.47224 0.79000 0.76556
 H1827 H 0.45790 0.74851 0.77873
 H1828 H 0.47953 0.73787 0.76984
 H1829 H 0.51903 0.76989 0.74412
 H1830 H 0.54126 0.77870 0.75348
 H1831 H 0.51276 0.74466 0.78098
 H1832 H 0.51708 0.72043 0.75673
 H1833 H 0.53818 0.71037 0.74607
 H1834 H 0.53405 0.74011 0.71197
 H1835 H 0.51270 0.74954 0.72242
 H1836 H 0.48986 0.71478 0.74716
 H1837 H 0.46778 0.70637 0.73745
 H1838 H 0.45947 0.74864 0.72157
 H1839 H 0.48141 0.75700 0.73173
 H1840 H 0.53492 0.75339 0.79044
 C1841 C 0.41206 0.30060 0.29162
 C1842 C 0.40858 0.31506 0.29011
 C1843 C 0.39674 0.32040 0.29672
 C1844 C 0.38836 0.31148 0.30494
 C1845 C 0.39227 0.29714 0.30629
 N1846 N 0.40384 0.29216 0.29972
 C1847 C 0.42466 0.29431 0.28511
 N1848 N 0.42968 0.28179 0.29024
 C1849 C 0.44128 0.27539 0.28505
 C1850 C 0.44863 0.28162 0.27398
 C1851 C 0.44352 0.29439 0.26836
 C1852 C 0.43154 0.30072 0.27382
 H1853 H 0.39434 0.33160 0.29556
 H1854 H 0.38615 0.28983 0.31249
 H1855 H 0.44469 0.26540 0.28953
 H1856 H 0.44889 0.29962 0.25987
 H1857 H 0.41501 0.32233 0.28420
 H1858 H 0.42775 0.31043 0.26909
 C1859 C 0.41317 0.79588 0.79407
 C1860 C 0.40822 0.80924 0.78975
 C1861 C 0.39621 0.81489 0.79577
 C1862 C 0.38904 0.80740 0.80626
 C1863 C 0.39453 0.79414 0.81042
 N1864 N 0.40624 0.78885 0.80433
 C1865 C 0.42591 0.78935 0.78808
 N1866 N 0.43264 0.77899 0.79540
 C1867 C 0.44446 0.77258 0.79069
 C1868 C 0.45024 0.77659 0.77789
 C1869 C 0.44336 0.78705 0.77004
 C1870 C 0.43119 0.79339 0.77504
 H1871 H 0.39273 0.82520 0.79217
 H1872 H 0.38960 0.78787 0.81846
 H1873 H 0.44946 0.76457 0.79707
 H1874 H 0.44729 0.79020 0.75996
 H1875 H 0.41362 0.81549 0.78200
 H1876 H 0.42596 0.80116 0.76859
 C1877 C -0.08765 0.29800 0.79154
 C1878 C -0.09547 0.30869 0.78491
 C1879 C -0.10730 0.31423 0.79143
 C1880 C -0.11146 0.30913 0.80450
 C1881 C -0.10345 0.29831 0.81067
 N1882 N -0.09196 0.29312 0.80414
 C1883 C -0.07495 0.29162 0.78532
 N1884 N -0.07035 0.27891 0.79038
 C1885 C -0.05861 0.27245 0.78561
 C1886 C -0.05059 0.27887 0.77513
 C1887 C -0.05512 0.29197 0.76972
 C1888 C -0.06723 0.29840 0.77479
 H1889 H -0.11322 0.32240 0.78612
 H1890 H -0.10616 0.29399 0.82072
 H1891 H -0.05560 0.26227 0.78997
 H1892 H -0.04910 0.29742 0.76181
 H1893 H -0.09272 0.31262 0.77472
 H1894 H -0.07020 0.30869 0.77072
 C1895 C -0.08961 0.79785 0.29109
 C1896 C -0.09763 0.80825 0.28426
 C1897 C -0.10953 0.81372 0.29070
 C1898 C -0.11355 0.80885 0.30390
 C1899 C -0.10530 0.79834 0.31029
 N1900 N -0.09376 0.79319 0.30381
 C1901 C -0.07690 0.79154 0.28485
 N1902 N -0.07230 0.77877 0.28978
 C1903 C -0.06059 0.77235 0.28487
 C1904 C -0.05265 0.77885 0.27439
 C1905 C -0.05715 0.79204 0.26917
 C1906 C -0.06922 0.79843 0.27438
 H1907 H -0.11562 0.82163 0.28522
 H1908 H -0.10791 0.79422 0.32044
 H1909 H -0.05757 0.76212 0.28911
 H1910 H -0.05116 0.79758 0.26131
 H1911 H -0.09501 0.81197 0.27396
 H1912 H -0.07220 0.80878 0.27044
 C1913 C 0.58671 0.70344 0.29649
 C1914 C 0.59078 0.68939 0.29359
 C1915 C 0.60269 0.68376 0.29985
 C1916 C 0.61060 0.69200 0.30908
 C1917 C 0.60599 0.70589 0.31196
 N1918 N 0.59435 0.71117 0.30569
 C1919 C 0.57419 0.70996 0.29005
 N1920 N 0.56770 0.72096 0.29659
 C1921 C 0.55604 0.72732 0.29138
 C1922 C 0.55020 0.72258 0.27886
 C1923 C 0.55693 0.71149 0.27179
 C1924 C 0.56891 0.70521 0.27728
 H1925 H 0.60558 0.67290 0.29750
 H1926 H 0.61168 0.71266 0.31903
 H1927 H 0.55117 0.73583 0.29718
 H1928 H 0.55301 0.70775 0.26191
 H1929 H 0.58476 0.68266 0.28676
 H1930 H 0.57401 0.69688 0.27144
 C1931 C 0.58712 0.20510 0.79975
 C1932 C 0.59082 0.20806 0.81355
 C1933 C 0.60284 0.20196 0.81920
 C1934 C 0.61116 0.19277 0.81125
 C1935 C 0.60694 0.18983 0.79761
 N1936 N 0.59524 0.19599 0.79230
 C1937 C 0.57453 0.21130 0.79306
 N1938 N 0.56958 0.20515 0.78127
 C1939 C 0.55811 0.21009 0.77449
 C1940 C 0.55081 0.22199 0.77951
 C1941 C 0.55584 0.22864 0.79152
 C1942 C 0.56769 0.22342 0.79827
 H1943 H 0.60549 0.20433 0.82985
 H1944 H 0.61299 0.18282 0.79107
 H1945 H 0.55478 0.20478 0.76511
 H1946 H 0.55052 0.23779 0.79583
 H1947 H 0.58448 0.21479 0.82010
 H1948 H 0.57142 0.22898 0.80733
 C1949 C 1.08749 0.71061 0.80102
 C1950 C 1.09152 0.71328 0.81479
 C1951 C 1.10353 0.70683 0.82011
 C1952 C 1.11152 0.69762 0.81186
 C1953 C 1.10706 0.69512 0.79821
 N1954 N 1.09537 0.70157 0.79325
 C1955 C 1.07476 0.71691 0.79467
 N1956 N 1.06994 0.71125 0.78259
 C1957 C 1.05833 0.71620 0.77607
 C1958 C 1.05072 0.72760 0.78168
 C1959 C 1.05560 0.73377 0.79400
 C1960 C 1.06760 0.72853 0.80048
 H1961 H 1.10641 0.70892 0.83076
 H1962 H 1.11287 0.68816 0.79141
 H1963 H 1.05514 0.71128 0.76645
 H1964 H 1.05003 0.74253 0.79875
 H1965 H 1.08545 0.72001 0.82157
 H1966 H 1.07115 0.73369 0.80984
 C1967 C 1.08808 0.20718 0.29909
 C1968 C 1.09211 0.21045 0.31272
 C1969 C 1.10414 0.20433 0.31827
 C1970 C 1.11217 0.19481 0.31040
 C1971 C 1.10764 0.19155 0.29694
 N1972 N 1.09591 0.19775 0.29170
 C1973 C 1.07540 0.21340 0.29259
 N1974 N 1.06988 0.20694 0.28122
 C1975 C 1.05822 0.21187 0.27474
 C1976 C 1.05132 0.22406 0.27967
 C1977 C 1.05695 0.23102 0.29124
 C1978 C 1.06897 0.22581 0.29767
 H1979 H 1.10699 0.20693 0.32882
 H1980 H 1.11348 0.18427 0.29049
 H1981 H 1.05442 0.20630 0.26569
 H1982 H 1.05197 0.24040 0.29548
 H1983 H 1.08601 0.21743 0.31924
 H1984 H 1.07314 0.23161 0.30639
 C1985 C 0.59008 0.29226 0.70427
 C1986 C 0.59869 0.30139 0.71201
 C1987 C 0.61056 0.30725 0.70591
 C1988 C 0.61412 0.30393 0.69219
 C1989 C 0.60562 0.29431 0.68497
 N1990 N 0.59393 0.28887 0.69107
 C1991 C 0.57691 0.28632 0.71003
 N1992 N 0.57106 0.27470 0.70392
 C1993 C 0.55887 0.26885 0.70848
 C1994 C 0.55171 0.27482 0.71979
 C1995 C 0.55756 0.28681 0.72620
 C1996 C 0.57002 0.29262 0.72134
 H1997 H 0.61702 0.31430 0.71203
 H1998 H 0.60802 0.29140 0.67438
 H1999 H 0.55468 0.25971 0.70310
 H2000 H 0.55252 0.29170 0.73504
 H2001 H 0.59647 0.30397 0.72270
 H2002 H 0.57395 0.30209 0.72632
 C2003 C 0.58777 0.79493 0.20061
 C2004 C 0.59148 0.79217 0.18677
 C2005 C 0.60348 0.79834 0.18121
 C2006 C 0.61180 0.80740 0.18927
 C2007 C 0.60756 0.81019 0.20293
 N2008 N 0.59586 0.80396 0.20818
 C2009 C 0.57519 0.78857 0.20716
 N2010 N 0.57000 0.79458 0.21893
 C2011 C 0.55846 0.78948 0.22551
 C2012 C 0.55137 0.77755 0.22029
 C2013 C 0.55666 0.77104 0.20830
 C2014 C 0.56855 0.77642 0.20178
 H2015 H 0.60612 0.79612 0.17051
 H2016 H 0.61363 0.81712 0.20953
 H2017 H 0.55493 0.79468 0.23487
 H2018 H 0.55150 0.76189 0.20382
 H2019 H 0.58515 0.78555 0.18012
 H2020 H 0.57247 0.77096 0.19273
 C2021 C 1.08819 0.29115 0.19880
 C2022 C 1.09241 0.28830 0.18512
 C2023 C 1.10452 0.29460 0.17989
 C2024 C 1.11244 0.30387 0.18813
 C2025 C 1.10775 0.30664 0.20166
 N2026 N 1.09595 0.30031 0.20656
 C2027 C 1.07539 0.28486 0.20499
 N2028 N 1.06982 0.29104 0.21649
 C2029 C 1.05808 0.28605 0.22276
 C2030 C 1.05113 0.27407 0.21748
 C2031 C 1.05681 0.26736 0.20577
 C2032 C 1.06891 0.27265 0.19954
 H2033 H 1.10752 0.29233 0.16931
 H2034 H 1.11349 0.31369 0.20843
 H2035 H 1.05425 0.29140 0.23193
 H2036 H 1.05178 0.25813 0.20129
 H2037 H 1.08639 0.28152 0.17835
 H2038 H 1.07312 0.26707 0.19069
 C2039 C 1.08925 0.79896 0.70637
 C2040 C 1.09827 0.80803 0.71371
 C2041 C 1.11027 0.81327 0.70726
 C2042 C 1.11348 0.80941 0.69357
 C2043 C 1.10434 0.80013 0.68668
 N2044 N 1.09265 0.79525 0.69315
 C2045 C 1.07622 0.79314 0.71254
 N2046 N 1.07000 0.78177 0.70637
 C2047 C 1.05797 0.77589 0.71124
 C2048 C 1.05137 0.78154 0.72301
 C2049 C 1.05755 0.79332 0.72950
 C2050 C 1.06987 0.79918 0.72430
 H2051 H 1.11709 0.82019 0.71310
 H2052 H 1.10633 0.79690 0.67611
 H2053 H 1.05347 0.76697 0.70575
 H2054 H 1.05289 0.79798 0.73866
 H2055 H 1.09634 0.81094 0.72437
 H2056 H 1.07412 0.80845 0.72938
 C2057 C 0.41097 0.70571 0.70420
 C2058 C 0.40088 0.71446 0.69792
 C2059 C 0.38915 0.70831 0.69178
 C2060 C 0.38741 0.69347 0.69189
 C2061 C 0.39773 0.68511 0.69829
 N2062 N 0.40912 0.69134 0.70410
 C2063 C 0.42378 0.71160 0.71055
 N2064 N 0.43547 0.70336 0.71102
 C2065 C 0.44764 0.70797 0.71669
 C2066 C 0.44854 0.72165 0.72249
 C2067 C 0.43655 0.73027 0.72227
 C2068 C 0.42419 0.72531 0.71630
 H2069 H 0.38145 0.71518 0.68701
 H2070 H 0.39692 0.67363 0.69849
 H2071 H 0.45663 0.70100 0.71645
 H2072 H 0.43663 0.74075 0.72691
 H2073 H 0.40211 0.72590 0.69746
 H2074 H 0.41503 0.73206 0.71649
 C2075 C 0.41209 0.20015 0.20417
 C2076 C 0.40814 0.18602 0.20693
 C2077 C 0.39641 0.18034 0.20044
 C2078 C 0.38863 0.18856 0.19104
 C2079 C 0.39303 0.20255 0.18836
 N2080 N 0.40446 0.20790 0.19491
 C2081 C 0.42452 0.20681 0.21067
 N2082 N 0.42976 0.21896 0.20496
 C2083 C 0.44123 0.22564 0.21011
 C2084 C 0.44822 0.22008 0.22173
 C2085 C 0.44285 0.20771 0.22794
 C2086 C 0.43100 0.20112 0.22254
 H2087 H 0.39362 0.16941 0.20263
 H2088 H 0.38736 0.20930 0.18121
 H2089 H 0.44480 0.23532 0.20514
 H2090 H 0.44793 0.20296 0.23686
 H2091 H 0.41409 0.17920 0.21377
 H2092 H 0.42705 0.19177 0.22776
 C2093 C -0.08989 0.70534 0.20227
 C2094 C -0.09936 0.71354 0.19447
 C2095 C -0.11113 0.70708 0.18876
 C2096 C -0.11364 0.69253 0.19088
 C2097 C -0.10410 0.68478 0.19898
 N2098 N -0.09265 0.69128 0.20436
 C2099 C -0.07702 0.71146 0.20839
 N2100 N -0.07048 0.70420 0.21877
 C2101 C -0.05848 0.70891 0.22474
 C2102 C -0.05224 0.72160 0.22017
 C2103 C -0.05877 0.72924 0.20945
 C2104 C -0.07109 0.72422 0.20352
 H2105 H -0.11832 0.71357 0.18283
 H2106 H -0.10557 0.67353 0.20088
 H2107 H -0.05371 0.70258 0.23285
 H2108 H -0.05439 0.73914 0.20567
 H2109 H -0.09792 0.72483 0.19289
 H2110 H -0.07564 0.73019 0.19507
 C2111 C -0.08881 0.20603 0.70484
 C2112 C -0.09815 0.21472 0.69742
 C2113 C -0.11040 0.20890 0.69209
 C2114 C -0.11353 0.19446 0.69419
 C2115 C -0.10406 0.18618 0.70189
 N2116 N -0.09213 0.19209 0.70693
 C2117 C -0.07557 0.21159 0.71067
 N2118 N -0.06931 0.20434 0.72123
 C2119 C -0.05712 0.20872 0.72707
 C2120 C -0.05041 0.22105 0.72220
 C2121 C -0.05661 0.22860 0.71124
 C2122 C -0.06911 0.22391 0.70543
 H2123 H -0.11747 0.21580 0.68648
 H2124 H -0.10600 0.17501 0.70379
 H2125 H -0.05260 0.20244 0.73536
 H2126 H -0.05186 0.23822 0.70721
 H2127 H -0.09625 0.22596 0.69591
 H2128 H -0.07343 0.22981 0.69679
 C2129 C 0.29464 0.41069 0.29258
 C2130 C 0.30435 0.40214 0.28550
 C2131 C 0.31051 0.39063 0.29230
 C2132 C 0.30689 0.38738 0.30603
 C2133 C 0.29678 0.39582 0.31259
 N2134 N 0.29107 0.40714 0.30583
 C2135 C 0.28825 0.42356 0.28623
 N2136 N 0.27718 0.42979 0.29272
 C2137 C 0.27102 0.44188 0.28789
 C2138 C 0.27609 0.44857 0.27586
 C2139 C 0.28742 0.44231 0.26896
 C2140 C 0.29356 0.42992 0.27410
 H2141 H 0.31801 0.38420 0.28672
 H2142 H 0.29365 0.39367 0.32318
 H2143 H 0.26241 0.44641 0.29366
 H2144 H 0.29158 0.44699 0.25955
 H2145 H 0.30723 0.40410 0.27484
 H2146 H 0.30251 0.42571 0.26867
 C2147 C 0.29875 -0.08867 0.79461
 C2148 C 0.30993 -0.09570 0.78817
 C2149 C 0.31569 -0.10777 0.79434
 C2150 C 0.31034 -0.11313 0.80692
 C2151 C 0.29892 -0.10591 0.81287
 N2152 N 0.29355 -0.09408 0.80667
 C2153 C 0.29229 -0.07570 0.78858
 N2154 N 0.27919 -0.07193 0.79269
 C2155 C 0.27260 -0.06015 0.78770
 C2156 C 0.27923 -0.05134 0.77793
 C2157 C 0.29277 -0.05494 0.77363
 C2158 C 0.29935 -0.06702 0.77896
 H2159 H 0.32427 -0.11287 0.78903
 H2160 H 0.29426 -0.10949 0.82247
 H2161 H 0.26214 -0.05778 0.79127
 H2162 H 0.29839 -0.04824 0.76637
 H2163 H 0.31412 -0.09217 0.77834
 H2164 H 0.30995 -0.06922 0.77575
 C2165 C 0.79334 0.41079 0.79913
 C2166 C 0.78831 0.40470 0.81147
 C2167 C 0.79479 0.39263 0.81693
 C2168 C 0.80645 0.38656 0.81028
 C2169 C 0.81122 0.39313 0.79800
 N2170 N 0.80466 0.40485 0.79288
 C2171 C 0.78704 0.42373 0.79286
 N2172 N 0.79460 0.43121 0.78334
 C2173 C 0.78969 0.44325 0.77719
 C2174 C 0.77641 0.44851 0.78060
 C2175 C 0.76833 0.44087 0.79021
 C2176 C 0.77354 0.42847 0.79628
 H2177 H 0.79065 0.38825 0.82646
 H2178 H 0.82011 0.38905 0.79237
 H2179 H 0.79627 0.44885 0.76985
 H2180 H 0.75790 0.44440 0.79288
 H2181 H 0.77965 0.40926 0.81712
 H2182 H 0.76690 0.42266 0.80337
 C2183 C 0.79187 -0.08920 0.29749
 C2184 C 0.78702 -0.09489 0.31009
 C2185 C 0.79335 -0.10701 0.31562
 C2186 C 0.80467 -0.11353 0.30880
 C2187 C 0.80928 -0.10733 0.29628
 N2188 N 0.80288 -0.09555 0.29108
 C2189 C 0.78572 -0.07624 0.29113
 N2190 N 0.79327 -0.06901 0.28143
 C2191 C 0.78849 -0.05694 0.27522
 C2192 C 0.77537 -0.05139 0.27879
 C2193 C 0.76728 -0.05880 0.28855
 C2194 C 0.77234 -0.07124 0.29467
 H2195 H 0.78936 -0.11108 0.32534
 H2196 H 0.81792 -0.11174 0.29051
 H2197 H 0.79507 -0.05153 0.26776
 H2198 H 0.75695 -0.05506 0.29134
 H2199 H 0.77864 -0.08998 0.31586
 H2200 H 0.76570 -0.07686 0.30191
 C2201 C 0.30025 0.58784 0.70701
 C2202 C 0.31441 0.59130 0.70883
 C2203 C 0.32002 0.60304 0.70189
 C2204 C 0.31168 0.61129 0.69297
 C2205 C 0.29764 0.60734 0.69130
 N2206 N 0.29239 0.59592 0.69823
 C2207 C 0.29364 0.57541 0.71390
 N2208 N 0.28152 0.57020 0.70855
 C2209 C 0.27489 0.55870 0.71402
 C2210 C 0.28046 0.55160 0.72561
 C2211 C 0.29276 0.55699 0.73153
 C2212 C 0.29932 0.56890 0.72578
 H2213 H 0.33095 0.60549 0.70340
 H2214 H 0.29077 0.61334 0.68457
 H2215 H 0.26524 0.55514 0.70933
 H2216 H 0.29744 0.55185 0.74045
 H2217 H 0.32123 0.58491 0.71525
 H2218 H 0.30864 0.57293 0.73072
 C2219 C 0.29505 1.08806 0.20619
 C2220 C 0.30847 1.09255 0.21009
 C2221 C 0.31451 1.10423 0.20350
 C2222 C 0.30735 1.11148 0.19292
 C2223 C 0.29400 1.10657 0.18921
 N2224 N 0.28831 1.09513 0.19581
 C2225 C 0.28827 1.07553 0.21270
 N2226 N 0.27801 1.06858 0.20566
 C2227 C 0.27165 1.05673 0.21078
 C2228 C 0.27569 1.05112 0.22368
 C2229 C 0.28593 1.05835 0.23129
 C2230 C 0.29218 1.07055 0.22590
 H2231 H 0.32482 1.10749 0.20676
 H2232 H 0.28811 1.11168 0.18103
 H2233 H 0.26376 1.05148 0.20459
 H2234 H 0.28905 1.05460 0.24145
 H2235 H 0.31446 1.08702 0.21793
 H2236 H 0.29987 1.07600 0.23213
 C2237 C 0.79817 0.58761 0.21063
 C2238 C 0.81229 0.59120 0.21252
 C2239 C 0.81784 0.60296 0.20557
 C2240 C 0.80946 0.61114 0.19663
 C2241 C 0.79542 0.60717 0.19501
 N2242 N 0.79024 0.59569 0.20191
 C2243 C 0.79170 0.57497 0.21728
 N2244 N 0.77961 0.56979 0.21184
 C2245 C 0.77315 0.55803 0.21699
 C2246 C 0.77888 0.55065 0.22833
 C2247 C 0.79115 0.55599 0.23434
 C2248 C 0.79755 0.56814 0.22891
 H2249 H 0.82877 0.60543 0.20701
 H2250 H 0.78851 0.61315 0.18831
 H2251 H 0.76354 0.55449 0.21222
 H2252 H 0.79596 0.55061 0.24307
 H2253 H 0.81915 0.58488 0.21895
 H2254 H 0.80689 0.57207 0.23388
 C2255 C 0.79283 1.08907 0.70349
 C2256 C 0.78703 1.09613 0.69195
 C2257 C 0.79382 1.10792 0.68631
 C2258 C 0.80644 1.11277 0.69197
 C2259 C 0.81191 1.10547 0.70348
 N2260 N 0.80508 1.09400 0.70882
 C2261 C 0.78634 1.07627 0.70996
 N2262 N 0.79333 1.06954 0.72042
 C2263 C 0.78839 1.05758 0.72672
 C2264 C 0.77572 1.05153 0.72243
 C2265 C 0.76821 1.05838 0.71186
 C2266 C 0.77339 1.07073 0.70567
 H2267 H 0.78908 1.11327 0.67754
 H2268 H 0.82166 1.10871 0.70814
 H2269 H 0.79454 1.05263 0.73482
 H2270 H 0.75825 1.05424 0.70842
 H2271 H 0.77745 1.09272 0.68710
 H2272 H 0.76716 1.07566 0.69768
 C2273 C 0.70538 0.58969 0.29645
 C2274 C 0.71352 0.59906 0.30440
 C2275 C 0.70745 0.61128 0.30992
 C2276 C 0.69333 0.61437 0.30745
 C2277 C 0.68565 0.60499 0.29909
 N2278 N 0.69177 0.59305 0.29393
 C2279 C 0.71112 0.57626 0.29075
 N2280 N 0.70448 0.56992 0.27991
 C2281 C 0.70897 0.55746 0.27429
 C2282 C 0.72078 0.55052 0.27971
 C2283 C 0.72771 0.55682 0.29094
 C2284 C 0.72292 0.56959 0.29651
 H2285 H 0.71388 0.61835 0.31603
 H2286 H 0.67474 0.60694 0.29688
 H2287 H 0.70317 0.55287 0.26578
 H2288 H 0.73691 0.55191 0.29541
 H2289 H 0.72449 0.59717 0.30626
 H2290 H 0.72830 0.57394 0.30540
 C2291 C 0.70702 1.09172 0.79537
 C2292 C 0.71464 1.10021 0.80464
 C2293 C 0.70857 1.11241 0.81017
 C2294 C 0.69496 1.11653 0.80639
 C2295 C 0.68790 1.10802 0.79665
 N2296 N 0.69398 1.09601 0.79157
 C2297 C 0.71270 1.07824 0.78962
 N2298 N 0.70618 1.07213 0.77858
 C2299 C 0.71060 1.05966 0.77289
 C2300 C 0.72224 1.05249 0.77840
 C2301 C 0.72909 1.05859 0.78977
 C2302 C 0.72434 1.07132 0.79545
 H2303 H 0.71477 1.11861 0.81730
 H2304 H 0.67745 1.11063 0.79325
 H2305 H 0.70485 1.05526 0.76425
 H2306 H 0.73821 1.05357 0.79428
 H2307 H 0.72523 1.09769 0.80761
 H2308 H 0.72970 1.07539 0.80445
 C2309 C 0.19993 0.59041 0.79212
 C2310 C 0.18981 0.59869 0.78528
 C2311 C 0.18447 0.61083 0.79174
 C2312 C 0.18922 0.61486 0.80493
 C2313 C 0.19945 0.60636 0.81133
 N2314 N 0.20445 0.59458 0.80486
 C2315 C 0.20612 0.57739 0.78596
 N2316 N 0.21821 0.57223 0.79146
 C2317 C 0.22449 0.56022 0.78671
 C2318 C 0.21854 0.55250 0.77576
 C2319 C 0.20607 0.55758 0.76991
 C2320 C 0.19980 0.56995 0.77499
 H2321 H 0.17675 0.61712 0.78627
 H2322 H 0.20345 0.60894 0.82149
 H2323 H 0.23416 0.55677 0.79145
 H2324 H 0.20098 0.55180 0.76163
 H2325 H 0.18618 0.59610 0.77499
 H2326 H 0.18998 0.57332 0.77054
 C2327 C 0.20394 1.08819 0.30048
 C2328 C 0.20633 1.09181 0.31441
 C2329 C 0.20017 1.10400 0.31990
 C2330 C 0.19149 1.11258 0.31166
 C2331 C 0.18907 1.10844 0.29790
 N2332 N 0.19529 1.09655 0.29274
 C2333 C 0.21030 1.07541 0.29400
 N2334 N 0.20470 1.07032 0.28202
 C2335 C 0.20982 1.05861 0.27550
 C2336 C 0.22132 1.05123 0.28101
 C2337 C 0.22740 1.05642 0.29323
 C2338 C 0.22201 1.06849 0.29969
 H2339 H 0.20210 1.10657 0.33066
 H2340 H 0.18245 1.11473 0.29117
 H2341 H 0.20494 1.05516 0.26596
 H2342 H 0.23622 1.05104 0.29793
 H2343 H 0.21265 1.08527 0.32118
 H2344 H 0.22714 1.07231 0.30894
 C2345 C 0.70291 0.41026 0.70759
 C2346 C 0.69325 0.40165 0.71466
 C2347 C 0.68764 0.38975 0.70807
 C2348 C 0.69161 0.38630 0.69446
 C2349 C 0.70157 0.39500 0.68789
 N2350 N 0.70687 0.40656 0.69452
 C2351 C 0.70901 0.42318 0.71394
 N2352 N 0.72146 0.42813 0.70910
 C2353 C 0.72761 0.44006 0.71420
 C2354 C 0.72111 0.44789 0.72479
 C2355 C 0.70822 0.44304 0.72987
 C2356 C 0.70214 0.43075 0.72449
 H2357 H 0.68022 0.38330 0.71374
 H2358 H 0.70508 0.39279 0.67747
 H2359 H 0.73761 0.44333 0.71005
 H2360 H 0.70267 0.44893 0.73778
 H2361 H 0.69013 0.40389 0.72521
 H2362 H 0.69202 0.42750 0.72834
 C2363 C 0.70729 -0.09056 0.20440
 C2364 C 0.71530 -0.09990 0.19626
 C2365 C 0.70903 -0.11184 0.19038
 C2366 C 0.69484 -0.11470 0.19270
 C2367 C 0.68729 -0.10538 0.20125
 N2368 N 0.69359 -0.09371 0.20674
 C2369 C 0.71322 -0.07737 0.21049
 N2370 N 0.70622 -0.07085 0.22102
 C2371 C 0.71078 -0.05856 0.22692
 C2372 C 0.72305 -0.05197 0.22215
 C2373 C 0.73042 -0.05851 0.21131
 C2374 C 0.72554 -0.07110 0.20543
 H2375 H 0.71536 -0.11888 0.18413
 H2376 H 0.67633 -0.10717 0.20335
 H2377 H 0.70465 -0.05380 0.23513
 H2378 H 0.74001 -0.05391 0.20737
 H2379 H 0.72632 -0.09822 0.19449
 H2380 H 0.73129 -0.07557 0.19684
 C2381 C 0.20215 0.41005 0.20616
 C2382 C 0.19350 0.40072 0.21369
 C2383 C 0.18800 0.38869 0.20723
 C2384 C 0.19118 0.38576 0.19332
 C2385 C 0.20009 0.39517 0.18623
 N2386 N 0.20522 0.40689 0.19272
 C2387 C 0.20812 0.42320 0.21229
 N2388 N 0.21890 0.42979 0.20564
 C2389 C 0.22478 0.44202 0.21038
 C2390 C 0.21971 0.44850 0.22249
 C2391 C 0.20861 0.44190 0.22952
 C2392 C 0.20276 0.42936 0.22446
 H2393 H 0.18142 0.38161 0.21321
 H2394 H 0.20283 0.39338 0.17550
 H2395 H 0.23319 0.44682 0.20452
 H2396 H 0.20445 0.44642 0.23898
 H2397 H 0.19108 0.40243 0.22451
 H2398 H 0.19399 0.42483 0.22997
 C2399 C 0.20823 -0.08872 0.70144
 C2400 C 0.21582 -0.09733 0.69219
 C2401 C 0.20951 -0.10932 0.68640
 C2402 C 0.19571 -0.11289 0.68983
 C2403 C 0.18854 -0.10413 0.69921
 N2404 N 0.19487 -0.09247 0.70466
 C2405 C 0.21419 -0.07575 0.70797
 N2406 N 0.20718 -0.06970 0.71875
 C2407 C 0.21172 -0.05771 0.72520
 C2408 C 0.22402 -0.05093 0.72079
 C2409 C 0.23142 -0.05696 0.70969
 C2410 C 0.22656 -0.06928 0.70325
 H2411 H 0.21554 -0.11587 0.67939
 H2412 H 0.17786 -0.10639 0.70211
 H2413 H 0.20556 -0.05335 0.73359
 H2414 H 0.24103 -0.05220 0.70602
 H2415 H 0.22655 -0.09512 0.68952
 H2416 H 0.23242 -0.07340 0.69457
 C2417 C 0.29886 0.29214 0.40945
 C2418 C 0.30732 0.28427 0.40033
 C2419 C 0.31263 0.29077 0.38842
 C2420 C 0.30946 0.30502 0.38541
 C2421 C 0.30071 0.31242 0.39458
 N2422 N 0.29577 0.30591 0.40620
 C2423 C 0.29311 0.28605 0.42248
 N2424 N 0.28276 0.29326 0.42916
 C2425 C 0.27707 0.28863 0.44127
 C2426 C 0.28184 0.27600 0.44750
 C2427 C 0.29250 0.26838 0.44081
 C2428 C 0.29819 0.27336 0.42840
 H2429 H 0.31909 0.28454 0.38150
 H2430 H 0.29798 0.32343 0.39270
 H2431 H 0.26901 0.29496 0.44614
 H2432 H 0.29640 0.25850 0.44514
 H2433 H 0.30974 0.27319 0.40212
 H2434 H 0.30661 0.26737 0.42378
 C2435 C 0.30139 0.79274 -0.08913
 C2436 C 0.31104 0.78521 -0.09727
 C2437 C 0.31617 0.79134 -0.10945
 C2438 C 0.31171 0.80493 -0.11367
 C2439 C 0.30190 0.81201 -0.10531
 N2440 N 0.29706 0.80582 -0.09348
 C2441 C 0.29549 0.78675 -0.07615
 N2442 N 0.28310 0.79193 -0.07138
 C2443 C 0.27701 0.78707 -0.05954
 C2444 C 0.28346 0.77633 -0.05165
 C2445 C 0.29630 0.77092 -0.05628
 C2446 C 0.30236 0.77611 -0.06846
 H2447 H 0.32353 0.78529 -0.11556
 H2448 H 0.29806 0.82246 -0.10809
 H2449 H 0.26706 0.79148 -0.05641
 H2450 H 0.30181 0.76288 -0.05035
 H2451 H 0.31444 0.77460 -0.09451
 H2452 H 0.31244 0.77201 -0.07155
 C2453 C 0.80269 0.29139 -0.08800
 C2454 C 0.81643 0.28853 -0.09234
 C2455 C 0.82156 0.29491 -0.10440
 C2456 C 0.81315 0.30427 -0.11212
 C2457 C 0.79954 0.30694 -0.10738
 N2458 N 0.79476 0.30054 -0.09564
 C2459 C 0.79656 0.28518 -0.07520
 N2460 N 0.78457 0.29100 -0.07014
 C2461 C 0.77824 0.28612 -0.05844
 C2462 C 0.78398 0.27465 -0.05101
 C2463 C 0.79622 0.26833 -0.05613
 C2464 C 0.80250 0.27349 -0.06821
 H2465 H 0.83219 0.29269 -0.10751
 H2466 H 0.79263 0.31399 -0.11300
 H2467 H 0.76867 0.29114 -0.05505
 H2468 H 0.80106 0.25951 -0.05070
 H2469 H 0.82334 0.28170 -0.08648
 H2470 H 0.81179 0.26822 -0.07194
 C2471 C 0.79965 0.79188 0.41091
 C2472 C 0.81331 0.78866 0.40657
 C2473 C 0.81863 0.79498 0.39455
 C2474 C 0.81049 0.80463 0.38689
 C2475 C 0.79695 0.80764 0.39163
 N2476 N 0.79198 0.80131 0.40332
 C2477 C 0.79332 0.78581 0.42367
 N2478 N 0.78149 0.79196 0.42872
 C2479 C 0.77501 0.78727 0.44040
 C2480 C 0.78043 0.77566 0.44785
 C2481 C 0.79249 0.76897 0.44274
 C2482 C 0.79892 0.77394 0.43066
 H2483 H 0.82920 0.79246 0.39144
 H2484 H 0.79023 0.81493 0.38606
 H2485 H 0.76557 0.79257 0.44378
 H2486 H 0.79708 0.76002 0.44818
 H2487 H 0.82001 0.78160 0.41240
 H2488 H 0.80806 0.76841 0.42693
 C2489 C 0.70661 0.29940 0.58825
 C2490 C 0.70734 0.31403 0.59114
 C2491 C 0.70063 0.31943 0.60285
 C2492 C 0.69309 0.31038 0.61173
 C2493 C 0.69245 0.29585 0.60836
 N2494 N 0.69909 0.29083 0.59690
 C2495 C 0.71334 0.29303 0.57586
 N2496 N 0.70865 0.28022 0.57123
 C2497 C 0.71407 0.27375 0.55983
 C2498 C 0.72494 0.28020 0.55231
 C2499 C 0.73014 0.29327 0.55706
 C2500 C 0.72443 0.29969 0.56881
 H2501 H 0.70125 0.33074 0.60480
 H2502 H 0.68678 0.28842 0.61483
 H2503 H 0.70992 0.26353 0.55672
 H2504 H 0.73847 0.29866 0.55156
 H2505 H 0.71274 0.32137 0.58435
 H2506 H 0.72881 0.30965 0.57230
 C2507 C 0.70506 0.79281 1.08863
 C2508 C 0.69583 0.78491 1.09699
 C2509 C 0.69003 0.79113 1.10878
 C2510 C 0.69350 0.80512 1.11245
 C2511 C 0.70302 0.81254 1.10405
 N2512 N 0.70843 0.80631 1.09252
 C2513 C 0.71136 0.78697 1.07576
 N2514 N 0.72246 0.79386 1.06999
 C2515 C 0.72871 0.78937 1.05811
 C2516 C 0.72375 0.77725 1.05119
 C2517 C 0.71232 0.76998 1.05694
 C2518 C 0.70606 0.77481 1.06910
 H2519 H 0.68298 0.78487 1.11510
 H2520 H 0.70599 0.82336 1.10647
 H2521 H 0.73737 0.79544 1.05396
 H2522 H 0.70822 0.76049 1.05206
 H2523 H 0.69315 0.77400 1.09470
 H2524 H 0.69706 0.76913 1.07298
 C2525 C 0.20709 0.29503 1.08805
 C2526 C 0.19844 0.28657 1.09649
 C2527 C 0.19225 0.29246 1.10823
 C2528 C 0.19474 0.30670 1.11178
 C2529 C 0.20377 0.31469 1.10333
 N2530 N 0.20957 0.30876 1.09183
 C2531 C 0.21361 0.28950 1.07518
 N2532 N 0.22468 0.29660 1.06959
 C2533 C 0.23107 0.29232 1.05769
 C2534 C 0.22625 0.28026 1.05057
 C2535 C 0.21484 0.27281 1.05614
 C2536 C 0.20846 0.27741 1.06832
 H2537 H 0.18564 0.28576 1.11460
 H2538 H 0.20601 0.32571 1.10568
 H2539 H 0.23972 0.29851 1.05369
 H2540 H 0.21086 0.26336 1.05111
 H2541 H 0.19655 0.27547 1.09429
 H2542 H 0.19945 0.27162 1.07204
 C2543 C 0.20220 0.79129 0.58821
 C2544 C 0.19313 0.78365 0.59698
 C2545 C 0.18764 0.79020 0.60876
 C2546 C 0.19121 0.80428 0.61199
 C2547 C 0.20050 0.81146 0.60314
 N2548 N 0.20563 0.80490 0.59166
 C2549 C 0.20833 0.78511 0.57541
 N2550 N 0.21903 0.79215 0.56908
 C2551 C 0.22515 0.78742 0.55722
 C2552 C 0.22046 0.77486 0.55089
 C2553 C 0.20946 0.76740 0.55722
 C2554 C 0.20333 0.77248 0.56937
 H2555 H 0.18076 0.78412 0.61543
 H2556 H 0.20358 0.82233 0.60519
 H2557 H 0.23348 0.79364 0.55265
 H2558 H 0.20562 0.75756 0.55283
 H2559 H 0.19036 0.77270 0.59503
 H2560 H 0.19469 0.76660 0.57372
 C2561 C 0.29481 0.70685 0.59030
 C2562 C 0.30238 0.71530 0.59966
 C2563 C 0.30797 0.70914 0.61160
 C2564 C 0.30590 0.69464 0.61443
 C2565 C 0.29784 0.68667 0.60511
 N2566 N 0.29264 0.69287 0.59343
 C2567 C 0.28909 0.71264 0.57713
 N2568 N 0.27895 0.70520 0.57040
 C2569 C 0.27336 0.70966 0.55816
 C2570 C 0.27806 0.72229 0.55187
 C2571 C 0.28852 0.73010 0.55862
 C2572 C 0.29412 0.72529 0.57112
 H2573 H 0.31380 0.71580 0.61867
 H2574 H 0.29592 0.67547 0.60689
 H2575 H 0.26545 0.70318 0.55324
 H2576 H 0.29236 0.73999 0.55426
 H2577 H 0.30394 0.72656 0.59799
 H2578 H 0.30246 0.73137 0.57577
 C2579 C 0.29436 0.20456 1.09036
 C2580 C 0.28683 0.19468 1.09837
 C2581 C 0.29281 0.18905 1.11039
 C2582 C 0.30624 0.19325 1.11457
 C2583 C 0.31326 0.20342 1.10643
 N2584 N 0.30724 0.20871 1.09474
 C2585 C 0.28875 0.21078 1.07736
 N2586 N 0.29430 0.22320 1.07258
 C2587 C 0.28999 0.22946 1.06060
 C2588 C 0.27950 0.22312 1.05254
 C2589 C 0.27367 0.21027 1.05722
 C2590 C 0.27828 0.20404 1.06955
 H2591 H 0.28687 0.18135 1.11631
 H2592 H 0.32353 0.20718 1.10926
 H2593 H 0.29469 0.23943 1.05746
 H2594 H 0.26577 0.20485 1.05118
 H2595 H 0.27638 0.19141 1.09556
 H2596 H 0.27390 0.19392 1.07266
 C2597 C 0.79252 0.70030 1.08922
 C2598 C 0.78549 0.68971 1.09682
 C2599 C 0.79155 0.68421 1.10888
 C2600 C 0.80454 0.68926 1.11349
 C2601 C 0.81111 0.69999 1.10568
 N2602 N 0.80503 0.70513 1.09397
 C2603 C 0.78678 0.70665 1.07634
 N2604 N 0.79202 0.71935 1.07191
 C2605 C 0.78762 0.72582 1.06007
 C2606 C 0.77732 0.71945 1.05179
 C2607 C 0.77178 0.70634 1.05612
 C2608 C 0.77649 0.69988 1.06832
 H2609 H 0.78594 0.67613 1.11462
 H2610 H 0.82112 0.70426 1.10873
 H2611 H 0.79209 0.73599 1.05722
 H2612 H 0.76402 0.70091 1.04991
 H2613 H 0.77534 0.68583 1.09373
 H2614 H 0.77232 0.68958 1.07114
 C2615 C 0.79750 0.20745 0.59108
 C2616 C 0.80401 0.21610 0.60103
 C2617 C 0.80946 0.20995 0.61305
 C2618 C 0.80840 0.19521 0.61532
 C2619 C 0.80163 0.18698 0.60520
 N2620 N 0.79643 0.19322 0.59355
 C2621 C 0.79163 0.21332 0.57805
 N2622 N 0.78156 0.20583 0.57128
 C2623 C 0.77577 0.21043 0.55919
 C2624 C 0.78020 0.22326 0.55311
 C2625 C 0.79066 0.23109 0.55984
 C2626 C 0.79641 0.22617 0.57224
 H2627 H 0.81440 0.21681 0.62057
 H2628 H 0.80057 0.17559 0.60639
 H2629 H 0.76788 0.20395 0.55425
 H2630 H 0.79433 0.24108 0.55556
 H2631 H 0.80472 0.22751 0.59974
 H2632 H 0.80467 0.23228 0.57701
 C2633 C 0.70535 0.70719 0.40980
 C2634 C 0.71330 0.69842 0.40105
 C2635 C 0.70728 0.69283 0.38909
 C2636 C 0.69340 0.69605 0.38565
 C2637 C 0.68593 0.70524 0.39440
 N2638 N 0.69198 0.71045 0.40611
 C2639 C 0.71107 0.71301 0.42291
 N2640 N 0.70482 0.72456 0.42876
 C2641 C 0.70937 0.73037 0.44086
 C2642 C 0.72083 0.72442 0.44790
 C2643 C 0.72736 0.71247 0.44209
 C2644 C 0.72250 0.70670 0.42971
 H2645 H 0.71359 0.68611 0.38249
 H2646 H 0.67521 0.70805 0.39214
 H2647 H 0.70390 0.73947 0.44506
 H2648 H 0.73631 0.70760 0.44707
 H2649 H 0.72412 0.69596 0.40320
 H2650 H 0.72756 0.69726 0.42575
 C2651 C 0.70841 0.20634 -0.09017
 C2652 C 0.71642 0.19869 -0.09981
 C2653 C 0.71010 0.19336 -0.11174
 C2654 C 0.69584 0.19572 -0.11423
 C2655 C 0.68830 0.20382 -0.10457
 N2656 N 0.69466 0.20880 -0.09294
 C2657 C 0.71447 0.21185 -0.07710
 N2658 N 0.70798 0.22282 -0.07049
 C2659 C 0.71283 0.22832 -0.05837
 C2660 C 0.72486 0.22264 -0.05210
 C2661 C 0.73163 0.21127 -0.05868
 C2662 C 0.72647 0.20582 -0.07109
 H2663 H 0.71646 0.18750 -0.11903
 H2664 H 0.67730 0.20595 -0.10606
 H2665 H 0.70715 0.23695 -0.05354
 H2666 H 0.74099 0.20662 -0.05427
 H2667 H 0.72748 0.19693 -0.09836
 H2668 H 0.73174 0.19681 -0.07569
 C2669 C 0.20851 0.70316 -0.08902
 C2670 C 0.21579 0.69411 -0.09810
 C2671 C 0.20904 0.68870 -0.10978
 C2672 C 0.19511 0.69234 -0.11260
 C2673 C 0.18829 0.70162 -0.10343
 N2674 N 0.19505 0.70668 -0.09206
 C2675 C 0.21499 0.70916 -0.07632
 N2676 N 0.20870 0.72045 -0.07004
 C2677 C 0.21380 0.72648 -0.05828
 C2678 C 0.22594 0.72106 -0.05201
 C2679 C 0.23257 0.70940 -0.05827
 C2680 C 0.22714 0.70340 -0.07033
 H2681 H 0.21485 0.68183 -0.11668
 H2682 H 0.17755 0.70472 -0.10513
 H2683 H 0.20821 0.73531 -0.05371
 H2684 H 0.24202 0.70494 -0.05387
 H2685 H 0.22662 0.69134 -0.09647
 H2686 H 0.23235 0.69422 -0.07464
 C2687 C 0.20505 0.20865 0.41160
 C2688 C 0.19662 0.21686 0.40270
 C2689 C 0.19060 0.21057 0.39107
 C2690 C 0.19307 0.19619 0.38809
 C2691 C 0.20182 0.18844 0.39701
 N2692 N 0.20745 0.19475 0.40838
 C2693 C 0.21148 0.21454 0.42434
 N2694 N 0.22193 0.20706 0.43062
 C2695 C 0.22818 0.21152 0.44250
 C2696 C 0.22389 0.22420 0.44888
 C2697 C 0.21316 0.23209 0.44259
 C2698 C 0.20689 0.22729 0.43043
 H2699 H 0.18416 0.21706 0.38433
 H2700 H 0.20403 0.17731 0.39514
 H2701 H 0.23629 0.20499 0.44707
 H2702 H 0.20962 0.24203 0.44704
 H2703 H 0.19475 0.22805 0.40446
 H2704 H 0.19839 0.23345 0.42615
 C2705 C 0.29613 0.41295 0.70228
 C2706 C 0.29445 0.40985 0.68813
 C2707 C 0.30081 0.39781 0.68255
 C2708 C 0.30902 0.38888 0.69092
 C2709 C 0.31083 0.39257 0.70490
 N2710 N 0.30440 0.40430 0.71015
 C2711 C 0.28935 0.42543 0.70887
 N2712 N 0.29440 0.43026 0.72119
 C2713 C 0.28883 0.44168 0.72784
 C2714 C 0.27741 0.44903 0.72209
 C2715 C 0.27188 0.44409 0.70953
 C2716 C 0.27773 0.43231 0.70294
 H2717 H 0.29939 0.39562 0.67164
 H2718 H 0.31709 0.38601 0.71172
 H2719 H 0.29327 0.44493 0.73764
 H2720 H 0.26315 0.44944 0.70465
 H2721 H 0.28847 0.41664 0.68129
 H2722 H 0.27302 0.42865 0.69342
 C2723 C 0.29824 0.91076 0.20843
 C2724 C 0.31229 0.90706 0.21068
 C2725 C 0.31792 0.89522 0.20398
 C2726 C 0.30969 0.88711 0.19492
 C2727 C 0.29575 0.89123 0.19287
 N2728 N 0.29048 0.90276 0.19956
 C2729 C 0.29165 0.92337 0.21494
 N2730 N 0.27973 0.92867 0.20922
 C2731 C 0.27310 0.94031 0.21433
 C2732 C 0.27846 0.94746 0.22594
 C2733 C 0.29058 0.94202 0.23221
 C2734 C 0.29716 0.92998 0.22681
 H2735 H 0.32879 0.89262 0.20572
 H2736 H 0.28896 0.88528 0.18606
 H2737 H 0.26361 0.94393 0.20934
 H2738 H 0.29512 0.94719 0.24116
 H2739 H 0.31903 0.91334 0.21723
 H2740 H 0.30635 0.92595 0.23200
 C2741 C 0.79811 0.41049 0.20800
 C2742 C 0.81145 0.40562 0.21180
 C2743 C 0.81723 0.39389 0.20504
 C2744 C 0.80983 0.38699 0.19444
 C2745 C 0.79657 0.39229 0.19088
 N2746 N 0.79117 0.40373 0.19761
 C2747 C 0.79151 0.42304 0.21457
 N2748 N 0.78126 0.43009 0.20757
 C2749 C 0.77480 0.44180 0.21279
 C2750 C 0.77861 0.44712 0.22584
 C2751 C 0.78896 0.43986 0.23336
 C2752 C 0.79539 0.42783 0.22782
 H2753 H 0.82756 0.39041 0.20804
 H2754 H 0.79043 0.38738 0.18281
 H2755 H 0.76692 0.44710 0.20661
 H2756 H 0.79198 0.44341 0.24360
 H2757 H 0.81757 0.41092 0.21966
 H2758 H 0.80312 0.42231 0.23398
 C2759 C 0.79364 0.91212 0.70023
 C2760 C 0.79161 0.90884 0.68616
 C2761 C 0.79815 0.89694 0.68047
 C2762 C 0.80687 0.88833 0.68865
 C2763 C 0.80893 0.89216 0.70256
 N2764 N 0.80234 0.90375 0.70791
 C2765 C 0.78692 0.92457 0.70694
 N2766 N 0.79225 0.92942 0.71914
 C2767 C 0.78683 0.94084 0.72589
 C2768 C 0.77530 0.94820 0.72039
 C2769 C 0.76947 0.94322 0.70796
 C2770 C 0.77516 0.93142 0.70127
 H2771 H 0.79648 0.89462 0.66962
 H2772 H 0.81556 0.88586 0.70927
 H2773 H 0.79149 0.94410 0.73559
 H2774 H 0.76064 0.94859 0.70328
 H2775 H 0.78526 0.91542 0.67945
 H2776 H 0.77024 0.92774 0.69185
 C2777 C 0.70685 0.58804 0.69950
 C2778 C 0.70948 0.59202 0.68569
 C2779 C 0.70310 0.60415 0.68022
 C2780 C 0.69400 0.61232 0.68838
 C2781 C 0.69144 0.60785 0.70205
 N2782 N 0.69784 0.59603 0.70717
 C2783 C 0.71327 0.57527 0.70598
 N2784 N 0.70742 0.56992 0.71777
 C2785 C 0.71256 0.55824 0.72436
 C2786 C 0.72434 0.55114 0.71913
 C2787 C 0.73069 0.55659 0.70712
 C2788 C 0.72525 0.56864 0.70055
 H2789 H 0.70519 0.60698 0.66953
 H2790 H 0.68453 0.61380 0.70875
 H2791 H 0.70747 0.55458 0.73374
 H2792 H 0.73976 0.55144 0.70267
 H2793 H 0.71616 0.58580 0.67900
 H2794 H 0.73054 0.57268 0.69146
 C2795 C 0.70213 0.09049 0.20580
 C2796 C 0.68881 0.09539 0.20960
 C2797 C 0.68329 0.10747 0.20319
 C2798 C 0.69090 0.11468 0.19290
 C2799 C 0.70409 0.10932 0.18925
 N2800 N 0.70928 0.09754 0.19568
 C2801 C 0.70848 0.07764 0.21214
 N2802 N 0.71870 0.07061 0.20510
 C2803 C 0.72487 0.05862 0.21012
 C2804 C 0.72073 0.05294 0.22297
 C2805 C 0.71045 0.06019 0.23055
 C2806 C 0.70437 0.07254 0.22524
 H2807 H 0.67298 0.11100 0.20623
 H2808 H 0.71038 0.11447 0.18139
 H2809 H 0.73275 0.05335 0.20393
 H2810 H 0.70722 0.05638 0.24067
 H2811 H 0.68251 0.08986 0.21720
 H2812 H 0.69669 0.07804 0.23147
 C2813 C 0.19994 0.59044 0.20519
 C2814 C 0.18960 0.59865 0.21172
 C2815 C 0.18428 0.61066 0.20502
 C2816 C 0.18924 0.61464 0.19187
 C2817 C 0.19977 0.60630 0.18581
 N2818 N 0.20476 0.59461 0.19252
 C2819 C 0.20595 0.57751 0.21171
 N2820 N 0.21859 0.57273 0.20721
 C2821 C 0.22471 0.56082 0.21247
 C2822 C 0.21801 0.55287 0.22288
 C2823 C 0.20496 0.55757 0.22765
 C2824 C 0.19888 0.56981 0.22208
 H2825 H 0.17639 0.61687 0.21029
 H2826 H 0.20394 0.60892 0.17570
 H2827 H 0.23484 0.55766 0.20857
 H2828 H 0.19930 0.55158 0.23544
 H2829 H 0.18577 0.59607 0.22197
 H2830 H 0.18862 0.57289 0.22567
 C2831 C 0.20786 0.09021 0.70145
 C2832 C 0.21078 0.09411 0.68767
 C2833 C 0.20461 0.10626 0.68203
 C2834 C 0.19541 0.11454 0.68998
 C2835 C 0.19262 0.11019 0.70365
 N2836 N 0.19881 0.09833 0.70894
 C2837 C 0.21399 0.07735 0.70804
 N2838 N 0.20784 0.07198 0.71967
 C2839 C 0.21268 0.06016 0.72626
 C2840 C 0.22447 0.05294 0.72119
 C2841 C 0.23113 0.05842 0.70936
 C2842 C 0.22600 0.07060 0.70281
 H2843 H 0.20690 0.10900 0.67137
 H2844 H 0.18565 0.11625 0.71020
 H2845 H 0.20736 0.05648 0.73551
 H2846 H 0.24021 0.05318 0.70503
 H2847 H 0.21750 0.08779 0.68111
 H2848 H 0.23153 0.07464 0.69386
 C2849 C 0.29082 0.59059 0.29734
 C2850 C 0.28338 0.59969 0.30624
 C2851 C 0.29006 0.61146 0.31202
 C2852 C 0.30408 0.61439 0.30885
 C2853 C 0.31105 0.60521 0.29969
 N2854 N 0.30436 0.59373 0.29429
 C2855 C 0.28446 0.57771 0.29103
 N2856 N 0.29108 0.57144 0.28012
 C2857 C 0.28616 0.55947 0.27391
 C2858 C 0.27388 0.55296 0.27873
 C2859 C 0.26688 0.55922 0.28996
 C2860 C 0.27214 0.57149 0.29617
 H2861 H 0.28416 0.61836 0.31882
 H2862 H 0.32186 0.60699 0.29695
 H2863 H 0.29203 0.55490 0.26543
 H2864 H 0.25731 0.55465 0.29396
 H2865 H 0.27249 0.59799 0.30865
 H2866 H 0.26667 0.57576 0.30504
 C2867 C 0.29382 0.08815 0.80177
 C2868 C 0.29264 0.09132 0.81594
 C2869 C 0.29956 0.10316 0.82131
 C2870 C 0.30775 0.11187 0.81267
 C2871 C 0.30878 0.10821 0.79859
 N2872 N 0.30193 0.09663 0.79360
 C2873 C 0.28698 0.07558 0.79547
 N2874 N 0.29211 0.07044 0.78329
 C2875 C 0.28664 0.05881 0.77694
 C2876 C 0.27527 0.05156 0.78285
 C2877 C 0.26959 0.05684 0.79523
 C2878 C 0.27536 0.06884 0.80154
 H2879 H 0.29856 0.10533 0.83227
 H2880 H 0.31496 0.11453 0.79148
 H2881 H 0.29117 0.05529 0.76725
 H2882 H 0.26084 0.05157 0.80016
 H2883 H 0.28674 0.08464 0.82296
 H2884 H 0.27064 0.07277 0.81097
 C2885 C 0.79154 0.59015 0.80020
 C2886 C 0.78873 0.59447 0.81387
 C2887 C 0.79526 0.60658 0.81915
 C2888 C 0.80468 0.61439 0.81095
 C2889 C 0.80727 0.60965 0.79740
 N2890 N 0.80076 0.59785 0.79247
 C2891 C 0.78521 0.57723 0.79399
 N2892 N 0.79121 0.57166 0.78239
 C2893 C 0.78627 0.55977 0.77609
 C2894 C 0.77454 0.55265 0.78145
 C2895 C 0.76802 0.55833 0.79324
 C2896 C 0.77326 0.57060 0.79950
 H2897 H 0.79308 0.60965 0.82974
 H2898 H 0.81439 0.61530 0.79064
 H2899 H 0.79147 0.55595 0.76686
 H2900 H 0.75899 0.55317 0.79778
 H2901 H 0.78186 0.58851 0.82061
 H2902 H 0.76786 0.57479 0.80845
 C2903 C 0.79718 0.09070 0.29301
 C2904 C 0.80662 0.09952 0.28584
 C2905 C 0.81242 0.11129 0.29250
 C2906 C 0.80874 0.11449 0.30623
 C2907 C 0.79907 0.10560 0.31295
 N2908 N 0.79367 0.09411 0.30629
 C2909 C 0.79081 0.07783 0.28669
 N2910 N 0.77975 0.07159 0.29321
 C2911 C 0.77349 0.05961 0.28834
 C2912 C 0.77840 0.05305 0.27622
 C2913 C 0.78976 0.05930 0.26931
 C2914 C 0.79603 0.07158 0.27450
 H2915 H 0.81964 0.11796 0.28680
 H2916 H 0.79594 0.10761 0.32354
 H2917 H 0.76488 0.05507 0.29414
 H2918 H 0.79383 0.05471 0.25984
 H2919 H 0.80946 0.09762 0.27516
 H2920 H 0.80498 0.07582 0.26907
 C2921 C 0.70298 0.40616 0.29435
 C2922 C 0.69466 0.39667 0.28670
 C2923 C 0.68907 0.38467 0.29320
 C2924 C 0.69187 0.38190 0.30723
 C2925 C 0.70059 0.39137 0.31439
 N2926 N 0.70577 0.40310 0.30789
 C2927 C 0.70886 0.41940 0.28826
 N2928 N 0.71921 0.42628 0.29524
 C2929 C 0.72496 0.43864 0.29060
 C2930 C 0.72024 0.44492 0.27823
 C2931 C 0.70957 0.43805 0.27087
 C2932 C 0.70381 0.42538 0.27584
 H2933 H 0.68266 0.37751 0.28717
 H2934 H 0.70307 0.38967 0.32521
 H2935 H 0.73300 0.44368 0.29675
 H2936 H 0.70567 0.44243 0.26122
 H2937 H 0.69252 0.39827 0.27581
 H2938 H 0.69535 0.42063 0.27008
 C2939 C 0.70244 0.90897 0.79454
 C2940 C 0.69376 0.89973 0.78701
 C2941 C 0.68812 0.88777 0.79352
 C2942 C 0.69120 0.88481 0.80746
 C2943 C 0.70020 0.89408 0.81452
 N2944 N 0.70547 0.90576 0.80799
 C2945 C 0.70849 0.92208 0.78836
 N2946 N 0.71943 0.92847 0.79487
 C2947 C 0.72538 0.94066 0.79006
 C2948 C 0.72024 0.94728 0.77802
 C2949 C 0.70896 0.94089 0.77115
 C2950 C 0.70302 0.92839 0.77629
 H2951 H 0.68149 0.88077 0.78755
 H2952 H 0.70288 0.89224 0.82527
 H2953 H 0.73393 0.94531 0.79581
 H2954 H 0.70473 0.94552 0.76175
 H2955 H 0.69142 0.90148 0.77618
 H2956 H 0.69410 0.92403 0.77092
 C2957 C 0.20237 0.40937 0.79378
 C2958 C 0.19337 0.40035 0.78635
 C2959 C 0.18783 0.38829 0.79281
 C2960 C 0.19131 0.38502 0.80659
 C2961 C 0.20057 0.39412 0.81355
 N2962 N 0.20573 0.40588 0.80709
 C2963 C 0.20842 0.42256 0.78771
 N2964 N 0.21910 0.42907 0.79455
 C2965 C 0.22509 0.44132 0.78992
 C2966 C 0.22029 0.44787 0.77771
 C2967 C 0.20930 0.44136 0.77049
 C2968 C 0.20331 0.42881 0.77545
 H2969 H 0.18096 0.38145 0.78693
 H2970 H 0.20355 0.39208 0.82419
 H2971 H 0.23340 0.44605 0.79594
 H2972 H 0.20535 0.44594 0.76095
 H2973 H 0.19067 0.40232 0.77564
 H2974 H 0.19465 0.42434 0.76977
 C2975 C 0.19849 0.91126 0.29712
 C2976 C 0.18449 0.90734 0.29496
 C2977 C 0.17923 0.89514 0.30135
 C2978 C 0.18774 0.88689 0.31007
 C2979 C 0.20149 0.89143 0.31240
 N2980 N 0.20646 0.90328 0.30591
 C2981 C 0.20479 0.92392 0.29034
 N2982 N 0.21669 0.92953 0.29576
 C2983 C 0.22306 0.94116 0.29021
 C2984 C 0.21744 0.94793 0.27845
 C2985 C 0.20532 0.94216 0.27252
 C2986 C 0.19904 0.93015 0.27834
 H2987 H 0.16843 0.89229 0.29954
 H2988 H 0.20840 0.88542 0.31909
 H2989 H 0.23256 0.94505 0.29496
 H2990 H 0.20056 0.94705 0.26350
 H2991 H 0.17754 0.91365 0.28861
 H2992 H 0.18991 0.92581 0.27332
 C2993 C 0.40990 0.29119 0.70391
 C2994 C 0.40049 0.28319 0.69591
 C2995 C 0.38858 0.28968 0.69050
 C2996 C 0.38580 0.30408 0.69316
 C2997 C 0.39517 0.31160 0.70160
 N2998 N 0.40683 0.30508 0.70662
 C2999 C 0.42305 0.28502 0.70948
 N3000 N 0.42987 0.29197 0.71984
 C3001 C 0.44208 0.28713 0.72533
 C3002 C 0.44824 0.27457 0.72032
 C3003 C 0.44141 0.26727 0.70961
 C3004 C 0.42894 0.27246 0.70413
 H3005 H 0.38149 0.28335 0.68434
 H3006 H 0.39342 0.32271 0.70396
 H3007 H 0.44707 0.29323 0.73343
 H3008 H 0.44567 0.25747 0.70550
 H3009 H 0.40208 0.27200 0.69388
 H3010 H 0.42422 0.26673 0.69564
 C3011 C 0.41187 0.79284 0.20025
 C3012 C 0.40335 0.78495 0.19120
 C3013 C 0.39142 0.79124 0.18552
 C3014 C 0.38782 0.80529 0.18888
 C3015 C 0.39651 0.81274 0.19807
 N3016 N 0.40810 0.80643 0.20340
 C3017 C 0.42474 0.78694 0.20668
 N3018 N 0.43060 0.79410 0.21748
 C3019 C 0.44248 0.78965 0.22387
 C3020 C 0.44933 0.77728 0.21938
 C3021 C 0.44351 0.76973 0.20825
 C3022 C 0.43131 0.77451 0.20185
 H3023 H 0.38493 0.78499 0.17866
 H3024 H 0.39424 0.82361 0.20093
 H3025 H 0.44668 0.79593 0.23228
 H3026 H 0.44836 0.76005 0.20451
 H3027 H 0.40560 0.77401 0.18864
 H3028 H 0.42733 0.76858 0.19313
 C3029 C 0.91080 0.29083 0.20112
 C3030 C 0.90171 0.28296 0.19263
 C3031 C 0.88991 0.28951 0.18700
 C3032 C 0.88697 0.30383 0.18989
 C3033 C 0.89614 0.31124 0.19863
 N3034 N 0.90763 0.30467 0.20389
 C3035 C 0.92370 0.28468 0.20729
 N3036 N 0.93039 0.29213 0.21740
 C3037 C 0.94240 0.28748 0.22343
 C3038 C 0.94850 0.27459 0.21927
 C3039 C 0.94179 0.26671 0.20888
 C3040 C 0.92949 0.27171 0.20283
 H3041 H 0.88302 0.28328 0.18052
 H3042 H 0.89434 0.32230 0.20113
 H3043 H 0.94729 0.29402 0.23127
 H3044 H 0.94603 0.25664 0.20543
 H3045 H 0.90344 0.27184 0.19040
 H3046 H 0.92485 0.26548 0.19464
 C3047 C 0.90958 0.79362 0.70404
 C3048 C 0.90075 0.78521 0.69580
 C3049 C 0.88868 0.79116 0.69015
 C3050 C 0.88519 0.80540 0.69277
 C3051 C 0.89404 0.81333 0.70141
 N3052 N 0.90585 0.80735 0.70669
 C3053 C 0.92282 0.78803 0.70996
 N3054 N 0.92882 0.79499 0.72080
 C3055 C 0.94105 0.79065 0.72664
 C3056 C 0.94810 0.77866 0.72148
 C3057 C 0.94214 0.77138 0.71026
 C3058 C 0.92961 0.77603 0.70445
 H3059 H 0.88202 0.78451 0.68382
 H3060 H 0.89178 0.82435 0.70373
 H3061 H 0.94536 0.79673 0.73514
 H3062 H 0.94712 0.76201 0.70600
 H3063 H 0.90292 0.77412 0.69381
 H3064 H 0.92554 0.77037 0.69559
 C3065 C 0.58652 0.29106 0.29972
 C3066 C 0.58977 0.28843 0.31371
 C3067 C 0.60171 0.29448 0.31949
 C3068 C 0.61043 0.30325 0.31146
 C3069 C 0.60674 0.30575 0.29758
 N3070 N 0.59506 0.29970 0.29216
 C3071 C 0.57390 0.28509 0.29298
 N3072 N 0.56918 0.29125 0.28107
 C3073 C 0.55761 0.28656 0.27431
 C3074 C 0.55001 0.27492 0.27950
 C3075 C 0.55479 0.26827 0.29165
 C3076 C 0.56672 0.27324 0.29837
 H3077 H 0.60396 0.29244 0.33031
 H3078 H 0.61315 0.31237 0.29096
 H3079 H 0.55445 0.29187 0.26485
 H3080 H 0.54921 0.25933 0.29609
 H3081 H 0.58312 0.28203 0.32029
 H3082 H 0.57024 0.26771 0.30756
 C3083 C 0.58996 0.78922 0.79718
 C3084 C 0.59710 0.78245 0.80809
 C3085 C 0.60861 0.78906 0.81411
 C3086 C 0.61307 0.80247 0.80943
 C3087 C 0.60560 0.80894 0.79856
 N3088 N 0.59439 0.80228 0.79286
 C3089 C 0.57744 0.78288 0.79061
 N3090 N 0.56840 0.79157 0.78370
 C3091 C 0.55651 0.78664 0.77769
 C3092 C 0.55307 0.77215 0.77855
 C3093 C 0.56236 0.76294 0.78535
 C3094 C 0.57457 0.76822 0.79130
 H3095 H 0.61397 0.78360 0.82244
 H3096 H 0.60851 0.81932 0.79468
 H3097 H 0.54960 0.79411 0.77257
 H3098 H 0.56023 0.75163 0.78596
 H3099 H 0.59374 0.77230 0.81221
 H3100 H 0.58166 0.76080 0.79620
 C3101 C 0.08723 0.29166 0.80171
 C3102 C 0.09091 0.28933 0.81565
 C3103 C 0.10284 0.29577 0.82103
 C3104 C 0.11111 0.30468 0.81268
 C3105 C 0.10695 0.30695 0.79889
 N3106 N 0.09531 0.30047 0.79385
 C3107 C 0.07466 0.28515 0.79534
 N3108 N 0.06962 0.29084 0.78335
 C3109 C 0.05811 0.28562 0.77686
 C3110 C 0.05090 0.27391 0.78244
 C3111 C 0.05603 0.26772 0.79468
 C3112 C 0.06790 0.27323 0.80111
 H3113 H 0.10543 0.29391 0.83180
 H3114 H 0.11298 0.31370 0.79205
 H3115 H 0.05470 0.29057 0.76730
 H3116 H 0.05078 0.25873 0.79941
 H3117 H 0.08460 0.28285 0.82249
 H3118 H 0.07170 0.26804 0.81039
 C3119 C 0.08720 0.79349 0.29441
 C3120 C 0.09642 0.80217 0.28685
 C3121 C 0.10814 0.80785 0.29336
 C3122 C 0.11093 0.80470 0.30732
 C3123 C 0.10172 0.79560 0.31440
 N3124 N 0.09023 0.79036 0.30788
 C3125 C 0.07430 0.78756 0.28819
 N3126 N 0.06800 0.77623 0.29444
 C3127 C 0.05604 0.77034 0.28947
 C3128 C 0.04965 0.77592 0.27753
 C3129 C 0.05596 0.78761 0.27094
 C3130 C 0.06814 0.79354 0.27630
 H3131 H 0.11507 0.81456 0.28735
 H3132 H 0.10347 0.79281 0.32516
 H3133 H 0.05138 0.76151 0.29503
 H3134 H 0.05148 0.79219 0.26163
 H3135 H 0.09483 0.80448 0.27597
 H3136 H 0.07239 0.80287 0.27126
 C3137 C 0.58778 0.70241 0.70260
 C3138 C 0.59207 0.70680 0.68934
 C3139 C 0.60454 0.70165 0.68386
 C3140 C 0.61285 0.69216 0.69152
 C3141 C 0.60826 0.68812 0.70480
 N3142 N 0.59606 0.69334 0.70997
 C3143 C 0.57466 0.70772 0.70886
 N3144 N 0.57367 0.70880 0.72291
 C3145 C 0.56203 0.71390 0.72929
 C3146 C 0.55044 0.71830 0.72142
 C3147 C 0.55115 0.71691 0.70694
 C3148 C 0.56318 0.71165 0.70065
 H3149 H 0.60757 0.70509 0.67357
 H3150 H 0.61439 0.68096 0.71116
 H3151 H 0.56198 0.71479 0.74048
 H3152 H 0.54234 0.71975 0.70045
 H3153 H 0.58602 0.71432 0.68331
 H3154 H 0.56335 0.71049 0.68949
 C3155 C 0.58658 0.20755 0.19808
 C3156 C 0.59063 0.21029 0.18432
 C3157 C 0.60285 0.20420 0.17916
 C3158 C 0.61102 0.19525 0.18755
 C3159 C 0.60645 0.19252 0.20114
 N3160 N 0.59455 0.19867 0.20598
 C3161 C 0.57377 0.21377 0.20426
 N3162 N 0.56849 0.20778 0.21602
 C3163 C 0.55681 0.21279 0.22237
 C3164 C 0.54967 0.22460 0.21690
 C3165 C 0.55502 0.23108 0.20489
 C3166 C 0.56706 0.22577 0.19859
 H3167 H 0.60577 0.20639 0.16852
 H3168 H 0.61239 0.18569 0.20800
 H3169 H 0.55321 0.20762 0.23176
 H3170 H 0.54982 0.24016 0.20026
 H3171 H 0.58442 0.21682 0.17745
 H3172 H 0.57104 0.23121 0.18953
 C3173 C 0.08790 0.70955 0.19942
 C3174 C 0.09601 0.71732 0.18990
 C3175 C 0.10800 0.71117 0.18426
 C3176 C 0.11203 0.69734 0.18811
 C3177 C 0.10375 0.69004 0.19782
 N3178 N 0.09210 0.69623 0.20313
 C3179 C 0.07502 0.71537 0.20576
 N3180 N 0.07021 0.70937 0.21772
 C3181 C 0.05834 0.71385 0.22408
 C3182 C 0.05044 0.72501 0.21836
 C3183 C 0.05515 0.73132 0.20601
 C3184 C 0.06737 0.72651 0.19965
 H3185 H 0.11414 0.71735 0.17700
 H3186 H 0.10638 0.67937 0.20115
 H3187 H 0.05515 0.70874 0.23365
 H3188 H 0.04922 0.73975 0.20108
 H3189 H 0.09337 0.72811 0.18698
 H3190 H 0.07048 0.73127 0.18991
 C3191 C 0.08792 0.20402 0.70096
 C3192 C 0.09093 0.20612 0.68684
 C3193 C 0.10296 0.20016 0.68116
 C3194 C 0.11201 0.19199 0.68941
 C3195 C 0.10844 0.18978 0.70337
 N3196 N 0.09668 0.19579 0.70872
 C3197 C 0.07539 0.21029 0.70761
 N3198 N 0.07048 0.20440 0.71958
 C3199 C 0.05901 0.20951 0.72624
 C3200 C 0.05173 0.22130 0.72089
 C3201 C 0.05675 0.22768 0.70870
 C3202 C 0.06856 0.22228 0.70208
 H3203 H 0.10506 0.20188 0.67026
 H3204 H 0.11508 0.18354 0.71012
 H3205 H 0.05565 0.20441 0.73576
 H3206 H 0.05144 0.23673 0.70414
 H3207 H 0.08404 0.21210 0.68012
 H3208 H 0.07229 0.22762 0.69285
 C3209 C 0.41147 0.70198 0.29226
 C3210 C 0.40363 0.69130 0.28572
 C3211 C 0.39184 0.68574 0.29232
 C3212 C 0.38772 0.69082 0.30539
 C3213 C 0.39576 0.70163 0.31148
 N3214 N 0.40721 0.70684 0.30486
 C3215 C 0.42412 0.70835 0.28589
 N3216 N 0.42864 0.72119 0.29062
 C3217 C 0.44031 0.72764 0.28562
 C3218 C 0.44833 0.72109 0.27524
 C3219 C 0.44389 0.70784 0.27020
 C3220 C 0.43186 0.70142 0.27550
 H3221 H 0.38590 0.67759 0.28707
 H3222 H 0.39307 0.70592 0.32152
 H3223 H 0.44327 0.73792 0.28972
 H3224 H 0.44992 0.70226 0.26241
 H3225 H 0.40632 0.68738 0.27553
 H3226 H 0.42897 0.69102 0.27171
 C3227 C 0.41010 0.20709 0.79477
 C3228 C 0.40095 0.21576 0.80242
 C3229 C 0.38887 0.20989 0.80818
 C3230 C 0.38572 0.19544 0.80624
 C3231 C 0.39496 0.18722 0.79827
 N3232 N 0.40673 0.19315 0.79285
 C3233 C 0.42327 0.21260 0.78864
 N3234 N 0.42961 0.20500 0.77840
 C3235 C 0.44182 0.20919 0.77242
 C3236 C 0.44850 0.22170 0.77680
 C3237 C 0.44217 0.22968 0.78737
 C3238 C 0.42966 0.22516 0.79334
 H3239 H 0.38196 0.21674 0.81400
 H3240 H 0.39300 0.17603 0.79650
 H3241 H 0.44640 0.20260 0.76443
 H3242 H 0.44686 0.23947 0.79100
 H3243 H 0.40286 0.22699 0.80386
 H3244 H 0.42531 0.23139 0.80170
 C3245 C 0.91209 0.70195 0.79149
 C3246 C 0.90409 0.69140 0.78492
 C3247 C 0.89221 0.68600 0.79152
 C3248 C 0.88819 0.69110 0.80462
 C3249 C 0.89643 0.70174 0.81074
 N3250 N 0.90793 0.70680 0.80412
 C3251 C 0.92478 0.70825 0.78513
 N3252 N 0.92948 0.72093 0.79009
 C3253 C 0.94120 0.72734 0.78518
 C3254 C 0.94911 0.72090 0.77465
 C3255 C 0.94448 0.70783 0.76934
 C3256 C 0.93238 0.70145 0.77456
 H3257 H 0.88616 0.67795 0.78626
 H3258 H 0.89384 0.70605 0.82079
 H3259 H 0.94428 0.73750 0.78946
 H3260 H 0.95040 0.70237 0.76141
 H3261 H 0.90672 0.68749 0.77472
 H3262 H 0.92932 0.69118 0.77057
 C3263 C 0.91152 0.20836 0.29868
 C3264 C 0.90295 0.21628 0.30767
 C3265 C 0.89114 0.20996 0.31354
 C3266 C 0.88766 0.19583 0.31040
 C3267 C 0.89635 0.18834 0.30123
 N3268 N 0.90787 0.19468 0.29574
 C3269 C 0.92438 0.21428 0.29219
 N3270 N 0.93064 0.20679 0.28181
 C3271 C 0.94254 0.21126 0.27544
 C3272 C 0.94900 0.22400 0.27949
 C3273 C 0.94274 0.23191 0.29015
 C3274 C 0.93054 0.22710 0.29655
 H3275 H 0.88464 0.21624 0.32037
 H3276 H 0.89415 0.17740 0.29854
 H3277 H 0.94707 0.20469 0.26741
 H3278 H 0.94725 0.24188 0.29354
 H3279 H 0.90507 0.22728 0.31010
 H3280 H 0.92626 0.23337 0.30490
 C3281 C 0.29539 0.29622 0.58869
 C3282 C 0.28755 0.30540 0.59717
 C3283 C 0.29351 0.31092 0.60919
 C3284 C 0.30719 0.30723 0.61297
 C3285 C 0.31455 0.29774 0.60445
 N3286 N 0.30857 0.29260 0.59269
 C3287 C 0.28981 0.29029 0.57557
 N3288 N 0.29636 0.27888 0.56977
 C3289 C 0.29206 0.27296 0.55764
 C3290 C 0.28054 0.27861 0.55050
 C3291 C 0.27366 0.29039 0.55626
 C3292 C 0.27827 0.29629 0.56868
 H3293 H 0.28731 0.31795 0.61560
 H3294 H 0.32512 0.29459 0.60695
 H3295 H 0.29780 0.26401 0.55350
 H3296 H 0.26464 0.29503 0.55120
 H3297 H 0.27688 0.30822 0.59478
 H3298 H 0.27292 0.30558 0.57259
 C3299 C 0.29321 0.80013 0.08725
 C3300 C 0.29020 0.81401 0.09181
 C3301 C 0.29637 0.81910 0.10393
 C3302 C 0.30565 0.81053 0.11153
 C3303 C 0.30848 0.79679 0.10657
 N3304 N 0.30230 0.79204 0.09476
 C3305 C 0.28719 0.79405 0.07435
 N3306 N 0.29299 0.78196 0.06910
 C3307 C 0.28829 0.77570 0.05730
 C3308 C 0.27704 0.78162 0.04993
 C3309 C 0.27075 0.79396 0.05523
 C3310 C 0.27572 0.80016 0.06742
 H3311 H 0.29402 0.82985 0.10719
 H3312 H 0.31550 0.78975 0.11208
 H3313 H 0.29330 0.76604 0.05378
 H3314 H 0.26211 0.79896 0.04987
 H3315 H 0.28342 0.82107 0.08606
 H3316 H 0.27047 0.80952 0.07128
 C3317 C 0.79368 0.29951 0.08733
 C3318 C 0.79110 0.31359 0.09153
 C3319 C 0.79727 0.31873 0.10363
 C3320 C 0.80614 0.31001 0.11153
 C3321 C 0.80859 0.29608 0.10690
 N3322 N 0.80239 0.29128 0.09512
 C3323 C 0.78759 0.29335 0.07452
 N3324 N 0.79311 0.28102 0.06952
 C3325 C 0.78831 0.27466 0.05781
 C3326 C 0.77723 0.28073 0.05029
 C3327 C 0.77123 0.29333 0.05535
 C3328 C 0.77630 0.29962 0.06744
 H3329 H 0.79526 0.32963 0.10662
 H3330 H 0.81529 0.28893 0.11266
 H3331 H 0.79308 0.26481 0.05448
 H3332 H 0.76273 0.29845 0.04986
 H3333 H 0.78465 0.32075 0.08554
 H3334 H 0.77126 0.30918 0.07112
 C3335 C 0.79636 0.79310 0.58757
 C3336 C 0.80439 0.78474 0.59670
 C3337 C 0.81006 0.79089 0.60857
 C3338 C 0.80767 0.80529 0.61155
 C3339 C 0.79937 0.81321 0.60233
 N3340 N 0.79404 0.80702 0.59076
 C3341 C 0.79020 0.78732 0.57462
 N3342 N 0.77993 0.79488 0.56816
 C3343 C 0.77390 0.79051 0.55614
 C3344 C 0.77823 0.77781 0.54980
 C3345 C 0.78880 0.76985 0.55627
 C3346 C 0.79484 0.77456 0.56858
 H3347 H 0.81616 0.78428 0.61551
 H3348 H 0.79726 0.82436 0.60416
 H3349 H 0.76591 0.79709 0.55143
 H3350 H 0.79238 0.75991 0.55185
 H3351 H 0.80617 0.77353 0.59494
 H3352 H 0.80319 0.76832 0.57305
 C3353 C 0.30062 0.70816 0.41215
 C3354 C 0.31431 0.71121 0.40778
 C3355 C 0.31949 0.70498 0.39569
 C3356 C 0.31118 0.69562 0.38794
 C3357 C 0.29760 0.69277 0.39272
 N3358 N 0.29277 0.69900 0.40450
 C3359 C 0.29448 0.71420 0.42500
 N3360 N 0.28286 0.70793 0.43041
 C3361 C 0.27659 0.71264 0.44218
 C3362 C 0.28198 0.72443 0.44933
 C3363 C 0.29383 0.73122 0.44384
 C3364 C 0.30007 0.72620 0.43170
 H3365 H 0.33010 0.70735 0.39258
 H3366 H 0.29075 0.68569 0.38710
 H3367 H 0.26731 0.70724 0.44585
 H3368 H 0.29839 0.74030 0.44902
 H3369 H 0.32115 0.71804 0.41368
 H3370 H 0.30903 0.73182 0.42766
 C3371 C 0.29966 0.20451 0.91344
 C3372 C 0.29629 0.19052 0.90960
 C3373 C 0.30218 0.18468 0.89767
 C3374 C 0.31152 0.19264 0.88953
 C3375 C 0.31479 0.20652 0.89386
 N3376 N 0.30890 0.21200 0.90554
 C3377 C 0.29374 0.21119 0.92606
 N3378 N 0.30084 0.22199 0.93227
 C3379 C 0.29617 0.22842 0.94403
 C3380 C 0.28366 0.22395 0.95028
 C3381 C 0.27601 0.21308 0.94385
 C3382 C 0.28095 0.20674 0.93175
 H3383 H 0.29931 0.17394 0.89488
 H3384 H 0.32205 0.21304 0.88806
 H3385 H 0.30239 0.23677 0.94863
 H3386 H 0.26611 0.20958 0.94810
 H3387 H 0.28939 0.18398 0.91580
 H3388 H 0.27467 0.19860 0.92689
 C3389 C 0.80377 0.70938 0.91317
 C3390 C 0.81743 0.71224 0.90856
 C3391 C 0.82235 0.70584 0.89645
 C3392 C 0.81382 0.69648 0.88894
 C3393 C 0.80031 0.69380 0.89396
 N3394 N 0.79573 0.70020 0.90573
 C3395 C 0.79784 0.71561 0.92602
 N3396 N 0.78599 0.70974 0.93136
 C3397 C 0.77982 0.71464 0.94311
 C3398 C 0.78559 0.72620 0.95031
 C3399 C 0.79768 0.73258 0.94491
 C3400 C 0.80380 0.72739 0.93278
 H3401 H 0.83292 0.70807 0.89314
 H3402 H 0.79330 0.68672 0.88852
 H3403 H 0.77035 0.70956 0.94672
 H3404 H 0.80253 0.74148 0.95015
 H3405 H 0.82442 0.71908 0.91426
 H3406 H 0.81298 0.73270 0.92881
 C3407 C 0.79378 0.20347 0.41258
 C3408 C 0.78615 0.19439 0.40384
 C3409 C 0.79241 0.18893 0.39191
 C3410 C 0.80621 0.19256 0.38850
 C3411 C 0.81339 0.20189 0.39734
 N3412 N 0.80710 0.20699 0.40897
 C3413 C 0.78784 0.20943 0.42557
 N3414 N 0.79429 0.22077 0.43158
 C3415 C 0.78969 0.22670 0.44360
 C3416 C 0.77794 0.22112 0.45044
 C3417 C 0.77114 0.20942 0.44445
 C3418 C 0.77606 0.20352 0.43212
 H3419 H 0.78634 0.18200 0.38530
 H3420 H 0.82404 0.20498 0.39517
 H3421 H 0.79538 0.23560 0.44791
 H3422 H 0.76196 0.20485 0.44927
 H3423 H 0.77540 0.19162 0.40594
 H3424 H 0.77074 0.19431 0.42803
 C3425 C 0.69961 0.29311 0.41599
 C3426 C 0.68547 0.29092 0.41272
 C3427 C 0.67987 0.29712 0.40080
 C3428 C 0.68822 0.30562 0.39214
 C3429 C 0.70218 0.30789 0.39596
 N3430 N 0.70744 0.30164 0.40758
 C3431 C 0.70624 0.28673 0.42844
 N3432 N 0.71845 0.29239 0.43312
 C3433 C 0.72519 0.28726 0.44449
 C3434 C 0.71967 0.27568 0.45194
 C3435 C 0.70722 0.26952 0.44718
 C3436 C 0.70053 0.27493 0.43544
 H3437 H 0.66895 0.29538 0.39850
 H3438 H 0.70899 0.31441 0.38966
 H3439 H 0.73491 0.29217 0.44761
 H3440 H 0.70254 0.26063 0.45263
 H3441 H 0.67866 0.28472 0.41932
 H3442 H 0.69111 0.26975 0.43192
 C3443 C 0.70223 0.79423 0.91425
 C3444 C 0.68830 0.79120 0.91074
 C3445 C 0.68245 0.79733 0.89890
 C3446 C 0.69032 0.80662 0.89058
 C3447 C 0.70409 0.80964 0.89461
 N3448 N 0.70960 0.80345 0.90614
 C3449 C 0.70909 0.78795 0.92663
 N3450 N 0.72082 0.79427 0.93168
 C3451 C 0.72769 0.78926 0.94303
 C3452 C 0.72282 0.77712 0.95005
 C3453 C 0.71087 0.77029 0.94489
 C3454 C 0.70405 0.77559 0.93319
 H3455 H 0.67170 0.79490 0.89641
 H3456 H 0.71056 0.81673 0.88852
 H3457 H 0.73702 0.79471 0.94647
 H3458 H 0.70667 0.76095 0.95000
 H3459 H 0.68181 0.78440 0.91710
 H3460 H 0.69505 0.76990 0.92935
 C3461 C 0.20421 0.29552 0.91390
 C3462 C 0.19004 0.29300 0.91103
 C3463 C 0.18397 0.29902 0.89926
 C3464 C 0.19186 0.30769 0.89035
 C3465 C 0.20590 0.31023 0.89374
 N3466 N 0.21162 0.30415 0.90523
 C3467 C 0.21129 0.28936 0.92622
 N3468 N 0.22348 0.29531 0.93062
 C3469 C 0.23054 0.29041 0.94189
 C3470 C 0.22540 0.27877 0.94952
 C3471 C 0.21299 0.27232 0.94504
 C3472 C 0.20597 0.27749 0.93340
 H3473 H 0.17302 0.29701 0.89727
 H3474 H 0.21240 0.31684 0.88719
 H3475 H 0.24021 0.29555 0.94481
 H3476 H 0.20857 0.26340 0.95065
 H3477 H 0.18353 0.28669 0.91784
 H3478 H 0.19659 0.27209 0.93011
 C3479 C 0.19957 0.79117 0.41293
 C3480 C 0.18575 0.78814 0.40900
 C3481 C 0.18019 0.79448 0.39714
 C3482 C 0.18822 0.80397 0.38919
 C3483 C 0.20188 0.80694 0.39361
 N3484 N 0.20712 0.80055 0.40516
 C3485 C 0.20608 0.78486 0.42549
 N3486 N 0.21762 0.79123 0.43089
 C3487 C 0.22414 0.78629 0.44247
 C3488 C 0.21907 0.77417 0.44939
 C3489 C 0.20732 0.76729 0.44388
 C3490 C 0.20087 0.77251 0.43192
 H3491 H 0.16949 0.79212 0.39437
 H3492 H 0.20846 0.81424 0.38787
 H3493 H 0.23334 0.79178 0.44616
 H3494 H 0.20297 0.75796 0.44890
 H3495 H 0.17911 0.78124 0.41509
 H3496 H 0.19201 0.76677 0.42781
 C3497 C 0.70299 0.71000 0.58851
 C3498 C 0.69484 0.71799 0.59780
 C3499 C 0.68946 0.71150 0.60967
 C3500 C 0.69228 0.69713 0.61249
 C3501 C 0.70073 0.68960 0.60315
 N3502 N 0.70575 0.69612 0.59157
 C3503 C 0.70879 0.71611 0.57552
 N3504 N 0.71904 0.70881 0.56878
 C3505 C 0.72477 0.71347 0.55669
 C3506 C 0.72014 0.72621 0.55057
 C3507 C 0.70956 0.73389 0.55730
 C3508 C 0.70382 0.72888 0.56968
 H3509 H 0.68322 0.71782 0.61672
 H3510 H 0.70318 0.67849 0.60487
 H3511 H 0.73275 0.70708 0.55177
 H3512 H 0.70575 0.74383 0.55302
 H3513 H 0.69271 0.72916 0.59615
 H3514 H 0.69546 0.73492 0.57435
 C3515 C 0.70579 0.20787 0.08856
 C3516 C 0.69735 0.21615 0.09733
 C3517 C 0.69154 0.21002 0.10918
 C3518 C 0.69423 0.19574 0.11250
 C3519 C 0.70310 0.18795 0.10376
 N3520 N 0.70851 0.19411 0.09215
 C3521 C 0.71181 0.21362 0.07552
 N3522 N 0.72269 0.20661 0.06950
 C3523 C 0.72861 0.21104 0.05741
 C3524 C 0.72350 0.22318 0.05054
 C3525 C 0.71227 0.23053 0.05654
 C3526 C 0.70636 0.22577 0.06892
 H3527 H 0.68505 0.21656 0.11580
 H3528 H 0.70548 0.17691 0.10593
 H3529 H 0.73712 0.20492 0.05306
 H3530 H 0.70806 0.24002 0.05169
 H3531 H 0.69529 0.22727 0.09528
 H3532 H 0.69747 0.23148 0.07300
 C3533 C 0.20640 0.70830 0.08807
 C3534 C 0.19816 0.71670 0.09690
 C3535 C 0.19226 0.71065 0.10874
 C3536 C 0.19464 0.69629 0.11199
 C3537 C 0.20334 0.68837 0.10318
 N3538 N 0.20886 0.69446 0.09159
 C3539 C 0.21249 0.71401 0.07503
 N3540 N 0.22349 0.70710 0.06913
 C3541 C 0.22946 0.71155 0.05706
 C3542 C 0.22425 0.72358 0.05009
 C3543 C 0.21289 0.73082 0.05596
 C3544 C 0.20695 0.72606 0.06833
 H3545 H 0.18592 0.71730 0.11539
 H3546 H 0.20551 0.67727 0.10530
 H3547 H 0.23808 0.70552 0.05281
 H3548 H 0.20860 0.74022 0.05103
 H3549 H 0.19634 0.72787 0.09487
 H3550 H 0.19796 0.73167 0.07233
 C3551 C 0.20263 0.20877 0.58671
 C3552 C 0.18867 0.21143 0.59043
 C3553 C 0.18313 0.20506 0.60231
 C3554 C 0.19134 0.19588 0.61044
 C3555 C 0.20515 0.19333 0.60626
 N3556 N 0.21035 0.19974 0.59470
 C3557 C 0.20918 0.21506 0.57416
 N3558 N 0.22126 0.20920 0.56937
 C3559 C 0.22791 0.21413 0.55786
 C3560 C 0.22239 0.22566 0.55036
 C3561 C 0.21009 0.23205 0.55524
 C3562 C 0.20351 0.22687 0.56714
 H3563 H 0.17235 0.20718 0.60495
 H3564 H 0.21190 0.18638 0.61218
 H3565 H 0.23753 0.20907 0.55466
 H3566 H 0.20543 0.24093 0.54975
 H3567 H 0.18192 0.21809 0.58420
 H3568 H 0.19420 0.23220 0.57074
   
