data_POSCAR
  _audit_creation_date              2014-09-24
  _audit_creation_method            'ToBaCCo'
  _symmetry_space_group_name_H-M    'P1'
  _symmetry_Int_Tables_number       1
  _symmetry_cell_setting            triclinic
  loop_
  _symmetry_equiv_pos_as_xyz
 x,y,z
_cell_length_a 55.7012
_cell_length_b 56.5147
_cell_length_c 57.5565
_cell_angle_alpha 90.606200
_cell_angle_beta 88.431100
_cell_angle_gamma 91.901100
loop_
  _atom_site_label
  _atom_site_type_symbol
  _atom_site_fract_x
  _atom_site_fract_y
  _atom_site_fract_z
C1 C 0.39478 0.01016 0.28284
 C2 C 0.37933 0.03178 0.28165
 C3 C 0.36363 0.03151 0.26279
 C4 C 0.36517 0.00894 0.24775
 C5 C 0.37691 -0.01078 0.28364
 C6 C 0.36091 -0.01170 0.26478
 C7 C 0.40762 0.00858 0.25917
 C8 C 0.39175 0.00786 0.24018
 H9 H 0.38053 0.04641 0.29395
 H10 H 0.35267 0.00821 0.23304
 H11 H 0.37758 -0.02414 0.29687
 H12 H 0.42693 0.00764 0.25747
 C13 C 0.09477 -0.02201 0.76759
 C14 C 0.11288 -0.04165 0.76590
 C15 C 0.12997 -0.03910 0.74728
 C16 C 0.12606 -0.01700 0.73268
 C17 C 0.11016 0.00079 0.76898
 C18 C 0.12713 0.00376 0.75024
 C19 C 0.08338 -0.02181 0.74536
 C20 C 0.09938 -0.01912 0.72576
 H21 H 0.11152 -0.05698 0.77702
 H22 H 0.13953 -0.01496 0.71828
 H23 H 0.10764 0.01345 0.78295
 H24 H 0.06404 -0.02351 0.74375
 C25 C 0.59753 0.49928 0.26784
 C26 C 0.61279 0.47788 0.27140
 C27 C 0.63113 0.47487 0.25428
 C28 C 0.63206 0.49449 0.23582
 C29 C 0.61520 0.52030 0.26647
 C30 C 0.63414 0.51784 0.24978
 C31 C 0.58809 0.49640 0.24331
 C32 C 0.60664 0.49396 0.22590
 H33 H 0.60930 0.46548 0.28544
 H34 H 0.64662 0.49276 0.22241
 H35 H 0.61203 0.53648 0.27613
 H36 H 0.56919 0.49730 0.23976
 C37 C 0.89714 0.51096 0.78276
 C38 C 0.88060 0.53182 0.78162
 C39 C 0.86543 0.53130 0.76235
 C40 C 0.86832 0.50910 0.74698
 C41 C 0.88030 0.48923 0.78280
 C42 C 0.86465 0.48796 0.76365
 C43 C 0.91052 0.51045 0.75931
 C44 C 0.89529 0.50954 0.73993
 H45 H 0.88100 0.54636 0.79406
 H46 H 0.85564 0.50810 0.73255
 H47 H 0.88121 0.47579 0.79592
 H48 H 0.92995 0.51127 0.75760
 C49 C 0.28042 0.38291 0.99940
 C50 C 0.27718 0.36418 1.01816
 C51 C 0.25581 0.34985 1.01620
 C52 C 0.24081 0.35612 0.99520
 C53 C 0.27923 0.36947 0.97649
 C54 C 0.25831 0.35487 0.97405
 C55 C 0.25744 0.39678 1.00093
 C56 C 0.23609 0.38270 0.99851
 H57 H 0.28843 0.36418 1.03318
 H58 H 0.22439 0.34469 0.99368
 H59 H 0.29333 0.37088 0.96317
 H60 H 0.25738 0.41575 1.00387
 C61 C 0.77049 0.12038 1.00384
 C62 C 0.76857 0.13054 0.97956
 C63 C 0.75087 0.14770 0.97775
 C64 C 0.73647 0.15146 1.00064
 C65 C 0.77370 0.14176 1.01994
 C66 C 0.75523 0.15844 1.01873
 C67 C 0.74684 0.11023 1.00954
 C68 C 0.72761 0.12631 1.00766
 H69 H 0.77969 0.12499 0.96488
 H70 H 0.72186 0.16426 0.99950
 H71 H 0.78698 0.14207 1.03332
 H72 H 0.74408 0.09153 1.01293
 C73 C 0.26685 0.60714 0.49014
 C74 C 0.26612 0.62474 0.47038
 C75 C 0.24981 0.64320 0.47437
 C76 C 0.23583 0.64102 0.49774
 C77 C 0.27195 0.62203 0.51165
 C78 C 0.25522 0.63991 0.51629
 C79 C 0.24094 0.59786 0.49361
 C80 C 0.22412 0.61602 0.49760
 H81 H 0.27543 0.62191 0.45389
 H82 H 0.22280 0.65526 0.50066
 H83 H 0.28614 0.61808 0.52339
 H84 H 0.23593 0.57928 0.49187
 C85 C 0.77669 0.88267 0.49699
 C86 C 0.77308 0.87057 0.52037
 C87 C 0.75529 0.85223 0.52069
 C88 C 0.74268 0.84892 0.49742
 C89 C 0.78114 0.86292 0.47941
 C90 C 0.76277 0.84486 0.47916
 C91 C 0.75192 0.89166 0.49145
 C92 C 0.73340 0.87358 0.49221
 H93 H 0.78263 0.87616 0.53576
 H94 H 0.72832 0.83482 0.49742
 H95 H 0.79555 0.86450 0.46649
 H96 H 0.74858 0.91032 0.48991
 C97 C -0.01407 0.27947 0.40588
 C98 C 0.01212 0.28066 0.39762
 C99 C 0.01901 0.26104 0.38387
 C100 C -0.00169 0.24267 0.38046
 C101 C -0.02810 0.27656 0.38528
 C102 C -0.02207 0.25694 0.37081
 C103 C -0.01706 0.25611 0.41884
 C104 C -0.01015 0.23616 0.40522
 H105 H 0.02435 0.29534 0.40177
 H106 H 0.00277 0.22706 0.36955
 H107 H -0.04384 0.28688 0.38272
 H108 H -0.02281 0.25538 0.43691
 C109 C 0.01349 0.77117 0.10453
 C110 C -0.01250 0.76616 0.11242
 C111 C -0.01538 0.74795 0.12910
 C112 C 0.00822 0.73648 0.13472
 C113 C 0.02727 0.77550 0.12670
 C114 C 0.02493 0.75686 0.14277
 C115 C 0.02192 0.74744 0.09486
 C116 C 0.01852 0.72856 0.11105
 H117 H -0.02707 0.77600 0.10577
 H118 H 0.00555 0.72187 0.14734
 H119 H 0.03902 0.79092 0.12934
 H120 H 0.02756 0.74510 0.07689
 C121 C 0.50179 0.25987 0.58651
 C122 C 0.48347 0.26705 0.60512
 C123 C 0.48000 0.25056 0.62326
 C124 C 0.49613 0.22910 0.62054
 C125 C 0.52476 0.25559 0.59927
 C126 C 0.52176 0.23961 0.61800
 C127 C 0.49325 0.23549 0.57821
 C128 C 0.49047 0.21871 0.59650
 H129 H 0.47294 0.28275 0.60383
 H130 H 0.49423 0.21596 0.63468
 H131 H 0.54206 0.26256 0.59308
 H132 H 0.49055 0.23159 0.56004
 C133 C 0.48662 0.77305 0.90175
 C134 C 0.50609 0.78056 0.88394
 C135 C 0.51097 0.76327 0.86672
 C136 C 0.49440 0.74105 0.86908
 C137 C 0.46450 0.76681 0.88775
 C138 C 0.46859 0.75006 0.86984
 C139 C 0.49404 0.75089 0.91111
 C140 C 0.49827 0.73273 0.89405
 H141 H 0.51715 0.79658 0.88593
 H142 H 0.49732 0.72712 0.85574
 H143 H 0.44707 0.77417 0.89145
 H144 H 0.49552 0.74857 0.92962
 C145 C -0.22749 0.66130 0.97243
 C146 C -0.20507 0.64728 0.97678
 C147 C -0.20803 0.63087 0.99526
 C148 C -0.23303 0.63135 1.00717
 C149 C -0.24777 0.64289 0.96917
 C150 C -0.25114 0.62690 0.98790
 C151 C -0.23324 0.67335 0.99564
 C152 C -0.23608 0.65733 1.01452
 H153 H -0.18879 0.64928 0.96622
 H154 H -0.23534 0.61873 1.02182
 H155 H -0.25931 0.64340 0.95441
 H156 H -0.23475 0.69232 0.99720
 C157 C -0.26514 0.35131 0.48153
 C158 C -0.28737 0.36642 0.48310
 C159 C -0.28759 0.38279 0.50183
 C160 C -0.26501 0.38183 0.51650
 C161 C -0.24414 0.36938 0.48030
 C162 C -0.24391 0.38599 0.49905
 C163 C -0.26388 0.33985 0.50387
 C164 C -0.26376 0.35568 0.52349
 H165 H -0.30168 0.36506 0.47072
 H166 H -0.26470 0.39449 0.53138
 H167 H -0.23068 0.36903 0.46645
 H168 H -0.26282 0.32084 0.50516
 C169 C 0.24366 -0.15807 -0.02341
 C170 C 0.22257 -0.14149 -0.02317
 C171 C 0.22201 -0.12531 -0.00415
 C172 C 0.24294 -0.12840 0.01224
 C173 C 0.26586 -0.14148 -0.02261
 C174 C 0.26568 -0.12535 -0.00344
 C175 C 0.24218 -0.17010 -0.00137
 C176 C 0.24159 -0.15500 0.01862
 H177 H 0.20847 -0.14330 -0.03568
 H178 H 0.24267 -0.11561 0.02692
 H179 H 0.28030 -0.14241 -0.03546
 H180 H 0.24129 -0.18925 -0.00016
 C181 C 0.27152 1.15703 0.47607
 C182 C 0.29303 1.14106 0.47847
 C183 C 0.28952 1.12348 0.49584
 C184 C 0.26515 1.12480 0.50872
 C185 C 0.24987 1.14032 0.47247
 C186 C 0.24618 1.12306 0.49000
 C187 C 0.26763 1.16766 0.50037
 C188 C 0.26448 1.15032 0.51811
 H189 H 0.30922 1.14296 0.46776
 H190 H 0.26247 1.11121 0.52248
 H191 H 0.23796 1.14253 0.45820
 H192 H 0.26794 1.18656 0.50354
 C193 C 0.13869 0.51757 0.25098
 C194 C 0.12047 0.51548 0.23178
 C195 C 0.10153 0.49857 0.23595
 C196 C 0.10383 0.48537 0.25899
 C197 C 0.12410 0.52209 0.27307
 C198 C 0.10551 0.50504 0.27781
 C199 C 0.14782 0.49254 0.25358
 C200 C 0.12913 0.47502 0.25761
 H201 H 0.12356 0.52398 0.21515
 H202 H 0.08921 0.47189 0.26222
 H203 H 0.12817 0.53684 0.28467
 H204 H 0.16652 0.48851 0.25069
 C205 C -0.13183 1.02478 0.24992
 C206 C -0.11766 1.02351 0.27219
 C207 C -0.10079 1.00526 0.27207
 C208 C -0.10133 0.99013 0.24980
 C209 C -0.11286 1.02647 0.23038
 C210 C -0.09627 1.00787 0.23011
 C211 C -0.14364 1.00168 0.24723
 C212 C -0.12784 0.98219 0.24724
 H213 H -0.12146 1.03461 0.28719
 H214 H -0.08860 0.97536 0.24970
 H215 H -0.11366 1.03958 0.21689
 H216 H -0.16300 0.99957 0.24669
 C217 C 0.36439 0.51027 -0.24449
 C218 C 0.38395 0.51251 -0.22658
 C219 C 0.39920 0.49290 -0.22625
 C220 C 0.39242 0.47343 -0.24402
 C221 C 0.37748 0.50572 -0.26758
 C222 C 0.39264 0.48596 -0.26751
 C223 C 0.35092 0.48707 -0.23870
 C224 C 0.36567 0.46708 -0.23893
 H225 H 0.38435 0.52664 -0.21376
 H226 H 0.40452 0.45824 -0.24370
 H227 H 0.37632 0.51767 -0.28203
 H228 H 0.33161 0.48575 -0.23593
 C229 C 0.63614 0.01683 -0.24792
 C230 C 0.62001 0.01392 -0.26880
 C231 C 0.60202 -0.00429 -0.26651
 C232 C 0.60313 -0.01770 -0.24355
 C233 C 0.61917 0.01982 -0.22709
 C234 C 0.60127 0.00147 -0.22445
 C235 C 0.64678 -0.00758 -0.24484
 C236 C 0.62901 -0.02634 -0.24287
 H237 H 0.62390 0.02312 -0.28494
 H238 H 0.58914 -0.03212 -0.24173
 H239 H 0.62233 0.03378 -0.21445
 H240 H 0.66589 -0.01037 -0.24617
 C241 C 0.01518 0.25663 0.85174
 C242 C 0.01291 0.27421 0.87191
 C243 C -0.00828 0.27058 0.88599
 C244 C -0.02426 0.24987 0.87743
 C245 C 0.01320 0.23229 0.86290
 C246 C -0.00780 0.22861 0.87715
 C247 C -0.00633 0.25858 0.83859
 C248 C -0.02820 0.25509 0.85157
 H249 H 0.02559 0.28894 0.87405
 H250 H -0.04069 0.24688 0.88845
 H251 H 0.02622 0.21890 0.85913
 H252 H -0.00590 0.26226 0.82011
 C253 C 0.52441 0.26802 0.14259
 C254 C 0.52075 0.24242 0.13446
 C255 C 0.49940 0.23828 0.12183
 C256 C 0.48468 0.26048 0.11936
 C257 C 0.52348 0.28251 0.12057
 C258 C 0.50216 0.27860 0.10806
 C259 C 0.50174 0.27383 0.15661
 C260 C 0.48025 0.26948 0.14441
 H261 H 0.53427 0.22943 0.13673
 H262 H 0.46849 0.25735 0.10888
 H263 H 0.53700 0.29602 0.11609
 H264 H 0.50198 0.27960 0.17462
 C265 C 0.02400 0.77312 0.64408
 C266 C 0.01940 0.74789 0.63502
 C267 C -0.00112 0.74539 0.62088
 C268 C -0.01422 0.76850 0.61810
 C269 C 0.02552 0.78818 0.62235
 C270 C 0.00515 0.78571 0.60828
 C271 C 0.00082 0.77994 0.65672
 C272 C -0.01993 0.77694 0.64310
 H273 H 0.03196 0.73405 0.63753
 H274 H -0.02979 0.76673 0.60657
 H275 H 0.04048 0.80040 0.61862
 H276 H 0.00001 0.78468 0.67501
 C277 C 0.51311 0.74812 0.35938
 C278 C 0.51456 0.76060 0.38290
 C279 C 0.49354 0.75734 0.39720
 C280 C 0.47410 0.74179 0.38584
 C281 C 0.50720 0.72227 0.36476
 C282 C 0.48653 0.71877 0.37943
 C283 C 0.49060 0.75720 0.34851
 C284 C 0.46950 0.75376 0.36272
 H285 H 0.52934 0.77271 0.38694
 H286 H 0.45768 0.73908 0.39706
 H287 H 0.51780 0.70815 0.35755
 H288 H 0.49108 0.76541 0.33162
 Zr289 Zr 0.02089 -0.01381 1.03032
 O290 O 0.04695 -0.00321 1.05480
 O291 O 0.01360 -0.04921 1.03953
 O292 O 0.00631 -0.01323 1.06470
 O293 O 0.06150 -0.02612 0.98568
 O294 O -0.02567 0.01079 1.06223
 O295 O 0.05389 -0.03073 1.02455
 O296 O -0.01858 -0.05987 1.01754
 O297 O -0.01647 -0.01610 1.02689
 O298 O 0.01484 -0.03054 0.99834
 O299 O 0.00939 0.02131 1.03212
 O300 O 0.03959 0.00729 1.00522
 Zr301 Zr -0.01691 0.02381 0.96996
 Zr302 Zr -0.02770 0.01892 1.02686
 Zr303 Zr 0.03157 -0.00891 0.97326
 Zr304 Zr -0.02218 -0.03164 0.99440
 O305 O 0.06361 0.00762 0.95990
 O306 O -0.05655 -0.03964 1.00966
 O307 O -0.00550 -0.01144 0.96771
 O308 O -0.03528 0.00263 0.99496
 O309 O -0.01096 0.04090 1.00180
 O310 O 0.02034 0.02590 0.97355
 C311 C -0.00316 -0.06385 1.03312
 C312 C 0.06705 -0.03327 1.00596
 C313 C -0.01144 -0.00190 1.07370
 O314 O -0.06102 0.00321 1.03793
 O315 O -0.05601 0.03918 1.01519
 O316 O -0.04781 0.04368 0.97638
 C317 C -0.06067 0.04711 0.99496
 O318 O 0.05360 0.04457 1.03073
 Zr319 Zr 0.02618 0.04162 1.00579
 O320 O -0.00919 0.05899 0.96017
 O321 O -0.02844 0.05062 1.04671
 O322 O 0.01744 0.07003 1.02851
 O323 O 0.05945 0.05144 0.98920
 O324 O 0.02010 0.07122 0.98497
 C325 C 0.00574 0.07463 0.96830
 O326 O -0.04474 0.01387 0.94711
 O327 O 0.03405 -0.04162 0.95524
 O328 O -0.00439 0.02073 0.93514
 O329 O 0.02696 -0.00406 0.93751
 O330 O -0.01339 -0.06169 0.97389
 O331 O -0.04668 -0.03586 0.96687
 C332 C 0.01238 0.00823 0.92599
 H333 H 0.02137 -0.04661 0.99734
 H334 H -0.05275 0.00170 0.99220
 H335 H 0.02872 0.03502 0.96098
 H336 H 0.01305 0.02869 1.04735
 H337 H -0.06007 -0.05677 1.00717
 H338 H -0.06818 0.01412 1.04959
 H339 H -0.04385 0.05025 1.05574
 H340 H 0.02825 0.08370 1.02434
 H341 H -0.02477 -0.07478 0.97849
 H342 H 0.04947 -0.04101 0.94622
 H343 H 0.07059 -0.00349 0.94833
 H344 H 0.06246 0.06857 0.99222
 H345 H -0.05554 -0.05127 0.96838
 H346 H -0.04733 0.02763 0.93700
 H347 H 0.04970 -0.01709 1.06468
 H348 H 0.06008 0.06109 1.03126
 Zr349 Zr 0.51018 0.48389 0.53655
 O350 O 0.52357 0.49837 0.56789
 O351 O 0.50996 0.44755 0.54290
 O352 O 0.48604 0.47716 0.56499
 O353 O 0.56471 0.48728 0.50645
 O354 O 0.44988 0.48750 0.55109
 O355 O 0.54669 0.47573 0.54074
 O356 O 0.49432 0.43084 0.51008
 O357 O 0.47840 0.47170 0.52104
 O358 O 0.51998 0.47037 0.50380
 O359 O 0.48834 0.51349 0.53523
 O360 O 0.52878 0.51200 0.51923
 Zr361 Zr 0.48400 0.51608 0.46756
 Zr362 Zr 0.45748 0.50152 0.51806
 Zr363 Zr 0.53669 0.49844 0.48593
 Zr364 Zr 0.48835 0.45947 0.48799
 O365 O 0.56508 0.52428 0.48541
 O366 O 0.45511 0.44043 0.49239
 O367 O 0.50594 0.48639 0.46849
 O368 O 0.46572 0.48806 0.48492
 O369 O 0.47399 0.52992 0.50011
 O370 O 0.51573 0.52799 0.48315
 C371 C 0.50304 0.42971 0.53051
 C372 C 0.56522 0.47845 0.52695
 C373 C 0.46310 0.47946 0.56694
 O374 O 0.42796 0.47713 0.51574
 O375 O 0.43017 0.51650 0.49908
 O376 O 0.44834 0.52693 0.46452
 C377 C 0.43008 0.52568 0.47872
 O378 O 0.52103 0.54797 0.54885
 Zr379 Zr 0.50582 0.54052 0.51599
 O380 O 0.48418 0.55246 0.46111
 O381 O 0.44112 0.52772 0.53908
 O382 O 0.48147 0.56215 0.53471
 O383 O 0.53822 0.56097 0.51161
 O384 O 0.49858 0.56926 0.49443
 C385 C 0.49036 0.57038 0.47381
 O386 O 0.46840 0.50200 0.43702
 O387 O 0.55425 0.47090 0.46777
 O388 O 0.50720 0.51956 0.43804
 O389 O 0.54329 0.50795 0.45113
 O390 O 0.51168 0.43628 0.46993
 O391 O 0.47580 0.45213 0.45404
 C392 C 0.52971 0.51536 0.43524
 H393 H 0.53095 0.45698 0.50445
 H394 H 0.45103 0.48297 0.47667
 H395 H 0.52466 0.54041 0.47413
 H396 H 0.48432 0.51946 0.55104
 H397 H 0.45802 0.42360 0.48862
 H398 H 0.41453 0.48381 0.52505
 H399 H 0.42432 0.52210 0.54228
 H400 H 0.48831 0.57856 0.53451
 H401 H 0.50392 0.42024 0.47020
 H402 H 0.57097 0.47668 0.46443
 H403 H 0.57860 0.51738 0.47640
 H404 H 0.53469 0.57758 0.51577
 H405 H 0.47113 0.43512 0.45271
 H406 H 0.46540 0.51553 0.42675
 H407 H 0.52692 0.48490 0.57809
 H408 H 0.52133 0.56527 0.55177
 Zr409 Zr 0.48444 1.00239 0.53592
 O410 O 0.45970 0.99235 0.56289
 O411 O 0.49234 1.03797 0.54431
 O412 O 0.50126 1.00357 0.56830
 O413 O 0.44046 1.01271 0.49620
 O414 O 0.53375 0.98029 0.56301
 O415 O 0.45214 1.02069 0.53328
 O416 O 0.52039 1.04916 0.51658
 O417 O 0.52135 1.00526 0.52808
 O418 O 0.48775 1.01760 0.50304
 O419 O 0.49681 0.96763 0.53717
 O420 O 0.46424 0.97974 0.51385
 Zr421 Zr 0.51853 0.96323 0.47212
 Zr422 Zr 0.53334 0.97045 0.52757
 Zr423 Zr 0.46941 0.99457 0.48078
 Zr424 Zr 0.52425 1.01940 0.49474
 O425 O 0.43689 0.97642 0.47246
 O426 O 0.55889 1.02914 0.50673
 O427 O 0.50588 0.99790 0.47064
 O428 O 0.53819 0.98560 0.49460
 O429 O 0.51541 0.94731 0.50481
 O430 O 0.48174 0.96011 0.48022
 C431 C 0.50687 1.05321 0.53451
 C432 C 0.43749 1.02230 0.51644
 C433 C 0.51999 0.99346 0.57556
 O434 O 0.56715 0.98692 0.53423
 O435 O 0.56078 0.94964 0.51276
 O436 O 0.55127 0.94590 0.47452
 C437 C 0.56499 0.94250 0.49172
 O438 O 0.45249 0.94383 0.54082
 Zr439 Zr 0.47872 0.94577 0.51332
 O440 O 0.51194 0.92737 0.46463
 O441 O 0.53591 0.93973 0.54792
 O442 O 0.48895 0.91913 0.53641
 O443 O 0.44539 0.93346 0.49998
 O444 O 0.48576 0.91496 0.49353
 C445 C 0.49929 0.91136 0.47543
 O446 O 0.54361 0.97295 0.44527
 O447 O 0.46448 1.02602 0.46205
 O448 O 0.50318 0.96420 0.43895
 O449 O 0.47128 0.98806 0.44484
 O450 O 0.51403 1.04797 0.47397
 O451 O 0.54707 1.02233 0.46463
 C452 C 0.48537 0.97583 0.43174
 H453 H 0.48103 1.03356 0.50230
 H454 H 0.55538 0.98692 0.48983
 H455 H 0.47293 0.95005 0.46891
 H456 H 0.49434 0.96098 0.55294
 H457 H 0.56181 1.04616 0.50332
 H458 H 0.57529 0.97654 0.54510
 H459 H 0.55195 0.94064 0.55498
 H460 H 0.47828 0.90502 0.53383
 H461 H 0.52566 1.06132 0.47657
 H462 H 0.44849 1.02445 0.45495
 H463 H 0.42860 0.98661 0.46152
 H464 H 0.44338 0.91646 0.50388
 H465 H 0.55650 1.03748 0.46525
 H466 H 0.54597 0.95880 0.43520
 H467 H 0.45748 1.00650 0.57297
 H468 H 0.44608 0.92734 0.54225
 Zr469 Zr -0.00820 0.51617 1.03502
 O470 O -0.03436 0.50950 1.06174
 O471 O 0.00353 0.55124 1.04275
 O472 O 0.00742 0.51617 1.06802
 O473 O -0.05058 0.52806 0.99421
 O474 O 0.03761 0.48995 1.06414
 O475 O -0.03882 0.53673 1.03112
 O476 O 0.03279 0.55888 1.01508
 O477 O 0.02882 0.51554 1.02793
 O478 O -0.00286 0.53011 1.00177
 O479 O 0.00064 0.48028 1.03737
 O480 O -0.02964 0.49442 1.01306
 Zr481 Zr 0.02361 0.47214 0.97309
 Zr482 Zr 0.03739 0.47974 1.02879
 Zr483 Zr -0.02257 0.50792 0.97971
 Zr484 Zr 0.03374 0.52832 0.99415
 O485 O -0.05623 0.49248 0.97073
 O486 O 0.06895 0.53535 1.00614
 O487 O 0.01413 0.50776 0.97023
 O488 O 0.04454 0.49336 0.99547
 O489 O 0.01822 0.45744 1.00614
 O490 O -0.01339 0.47244 0.98031
 C491 C 0.01990 0.56468 1.03292
 C492 C -0.05327 0.53836 1.01414
 C493 C 0.02469 0.50440 1.07611
 O494 O 0.07211 0.49381 1.03593
 O495 O 0.06307 0.45633 1.01534
 O496 O 0.05352 0.45067 0.97732
 C497 C 0.06655 0.44707 0.99503
 O498 O -0.04524 0.45954 1.04068
 Zr499 Zr -0.01853 0.45909 1.01360
 O500 O 0.01381 0.43703 0.96591
 O501 O 0.03693 0.44938 1.05001
 O502 O -0.01081 0.43212 1.03736
 O503 O -0.05261 0.44988 0.99996
 O504 O -0.01417 0.42718 0.99420
 C505 C -0.00052 0.42224 0.97644
 O506 O 0.05055 0.47901 0.94714
 O507 O -0.02412 0.53942 0.96029
 O508 O 0.00919 0.47354 0.93947
 O509 O -0.02065 0.50007 0.94399
 O510 O 0.02632 0.55718 0.97250
 O511 O 0.05707 0.52826 0.96430
 C512 C -0.00757 0.48617 0.93155
 H513 H -0.00811 0.54660 1.00057
 H514 H 0.06183 0.49288 0.99109
 H515 H -0.02281 0.46289 0.96904
 H516 H -0.00285 0.47422 1.05322
 H517 H 0.07355 0.55191 1.00205
 H518 H 0.07912 0.48303 1.04719
 H519 H 0.05280 0.44909 1.05736
 H520 H -0.02239 0.41873 1.03475
 H521 H 0.03909 0.56956 0.97479
 H522 H -0.03998 0.53910 0.95288
 H523 H -0.06324 0.50315 0.95937
 H524 H -0.05620 0.43305 1.00376
 H525 H 0.06745 0.54282 0.96428
 H526 H 0.05176 0.46448 0.93741
 H527 H -0.03536 0.52415 1.07133
 H528 H -0.05288 0.44354 1.04226
 Zr529 Zr -0.03814 0.50481 0.46754
 O530 O -0.05740 0.52241 0.44206
 O531 O -0.03857 0.46987 0.45498
 O532 O -0.01959 0.50332 0.43505
 O533 O -0.08620 0.49720 0.50658
 O534 O 0.01821 0.51720 0.44317
 O535 O -0.07465 0.49330 0.46841
 O536 O -0.01638 0.45081 0.48132
 O537 O -0.00348 0.49434 0.47489
 O538 O -0.04106 0.48573 0.49847
 O539 O -0.01724 0.53641 0.46996
 O540 O -0.05371 0.52801 0.49226
 Zr541 Zr 0.00048 0.52946 0.53505
 Zr542 Zr 0.01690 0.52579 0.47893
 Zr543 Zr -0.05478 0.50892 0.52335
 Zr544 Zr -0.00650 0.47643 0.50634
 O545 O -0.08321 0.53126 0.53294
 O546 O 0.02568 0.46188 0.49288
 O547 O -0.02075 0.49797 0.53288
 O548 O 0.01570 0.50670 0.51001
 O549 O 0.00364 0.54909 0.50435
 O550 O -0.03412 0.53999 0.52753
 C551 C -0.02890 0.45140 0.46289
 C552 C -0.09028 0.49152 0.48530
 C553 C 0.00242 0.50856 0.42918
 O554 O 0.04735 0.50515 0.47208
 O555 O 0.04679 0.54186 0.49505
 O556 O 0.03675 0.54197 0.53379
 C557 C 0.05146 0.54612 0.51650
 O558 O -0.05317 0.56883 0.46911
 Zr559 Zr -0.03107 0.55832 0.49644
 O560 O 0.00134 0.56425 0.54751
 O561 O 0.02779 0.55632 0.45990
 O562 O -0.01135 0.58485 0.47757
 O563 O -0.06223 0.57456 0.51022
 O564 O -0.01954 0.58435 0.52087
 C565 C -0.00727 0.58318 0.53949
 O566 O 0.02132 0.51254 0.55980
 O567 O -0.06789 0.47728 0.53928
 O568 O -0.01726 0.52703 0.56808
 O569 O -0.05474 0.51246 0.55963
 O570 O -0.02513 0.44827 0.52390
 O571 O 0.01299 0.46598 0.53555
 C572 C -0.03878 0.51981 0.57398
 H573 H -0.05165 0.47136 0.49747
 H574 H 0.03193 0.50208 0.51443
 H575 H -0.04134 0.55003 0.53988
 H576 H -0.01667 0.54487 0.45496
 H577 H 0.02390 0.44444 0.49421
 H578 H 0.05843 0.51467 0.46183
 H579 H 0.04393 0.55330 0.45305
 H580 H -0.01813 0.60030 0.48200
 H581 H -0.01702 0.43345 0.51957
 H582 H -0.08382 0.48064 0.54643
 H583 H -0.09462 0.52176 0.54286
 H584 H -0.05969 0.59191 0.50857
 H585 H 0.01834 0.44958 0.53313
 H586 H 0.02616 0.52471 0.57147
 H587 H -0.06255 0.51026 0.43050
 H588 H -0.05415 0.58629 0.46926
 Zr589 Zr 0.47361 -0.00494 -0.02764
 O590 O 0.45162 0.01150 -0.05173
 O591 O 0.47566 -0.03928 -0.04140
 O592 O 0.49087 -0.00333 -0.06083
 O593 O 0.42788 -0.01843 0.01284
 O594 O 0.52708 0.01499 -0.05363
 O595 O 0.43815 -0.01943 -0.02584
 O596 O 0.50101 -0.05717 -0.01708
 O597 O 0.50961 -0.01224 -0.02223
 O598 O 0.47385 -0.02528 0.00248
 O599 O 0.49145 0.02832 -0.02464
 O600 O 0.45682 0.01558 -0.00135
 Zr601 Zr 0.51270 0.02080 0.03904
 Zr602 Zr 0.52704 0.02082 -0.01747
 Zr603 Zr 0.45899 -0.00457 0.02893
 Zr604 Zr 0.50968 -0.03153 0.00845
 O605 O 0.42877 0.01440 0.04063
 O606 O 0.54255 -0.04237 -0.00703
 O607 O 0.49456 -0.01244 0.03644
 O608 O 0.52903 0.00052 0.01262
 O609 O 0.51256 0.04175 0.00927
 O610 O 0.47674 0.02812 0.03345
 C611 C 0.48731 -0.05711 -0.03473
 C612 C 0.42335 -0.02326 -0.00856
 C613 C 0.51165 0.00532 -0.06736
 O614 O 0.55877 0.00316 -0.02705
 O615 O 0.55651 0.03830 -0.00174
 O616 O 0.54759 0.03664 0.03716
 C617 C 0.56148 0.04233 0.01970
 O618 O 0.45206 0.05663 -0.02281
 Zr619 Zr 0.47654 0.04769 0.00313
 O620 O 0.51065 0.05501 0.05295
 O621 O 0.53439 0.05322 -0.03476
 O622 O 0.49244 0.07666 -0.01543
 O623 O 0.44450 0.06033 0.01886
 O624 O 0.48663 0.07378 0.02798
 C625 C 0.49979 0.07323 0.04603
 O626 O 0.53621 0.00498 0.06218
 O627 O 0.44996 -0.03782 0.04394
 O628 O 0.49689 0.01582 0.07242
 O629 O 0.46039 -0.00203 0.06540
 O630 O 0.49470 -0.06181 0.02562
 O631 O 0.53164 -0.04108 0.03625
 C632 C 0.47646 0.00654 0.07909
 H633 H 0.46457 -0.04046 0.00128
 H634 H 0.54588 -0.00271 0.01620
 H635 H 0.46912 0.03700 0.04644
 H636 H 0.49047 0.03738 -0.03919
 H637 H 0.54256 -0.05988 -0.00639
 H638 H 0.56852 0.01412 -0.03711
 H639 H 0.55044 0.05203 -0.04245
 H640 H 0.48420 0.09110 -0.01012
 H641 H 0.50404 -0.07560 0.02038
 H642 H 0.43404 -0.03631 0.05185
 H643 H 0.41883 0.00348 0.05057
 H644 H 0.44518 0.07783 0.01768
 H645 H 0.53852 -0.05671 0.03286
 H646 H 0.54046 0.01702 0.07418
 H647 H 0.44714 -0.00067 -0.06352
 H648 H 0.44918 0.07381 -0.02193
 Zr649 Zr 0.53407 0.52204 -0.03968
 O650 O 0.55653 0.51615 -0.06933
 O651 O 0.52649 0.55798 -0.04355
 O652 O 0.51555 0.52486 -0.07117
 O653 O 0.58108 0.52918 -0.00149
 O654 O 0.48257 0.50022 -0.06603
 O655 O 0.56816 0.53929 -0.03727
 O656 O 0.50106 0.56539 -0.01277
 O657 O 0.49780 0.52289 -0.02926
 O658 O 0.53358 0.53378 -0.00508
 O659 O 0.52050 0.48713 -0.04405
 O660 O 0.55476 0.49807 -0.02134
 Zr661 Zr 0.50260 0.47513 0.02093
 Zr662 Zr 0.48469 0.48780 -0.03198
 Zr663 Zr 0.55225 0.50915 0.01356
 Zr664 Zr 0.49765 0.53342 0.00564
 O665 O 0.58483 0.49172 0.01800
 O666 O 0.46253 0.54322 -0.00276
 O667 O 0.51648 0.50997 0.02593
 O668 O 0.48242 0.49922 0.00269
 O669 O 0.50330 0.46296 -0.01350
 O670 O 0.53884 0.47438 0.01057
 C671 C 0.51300 0.57161 -0.03125
 C672 C 0.58391 0.53950 -0.02127
 C673 C 0.49620 0.51431 -0.07831
 O674 O 0.45137 0.50430 -0.03483
 O675 O 0.45719 0.46517 -0.01820
 O676 O 0.46994 0.45552 0.01771
 C677 C 0.45469 0.45431 0.00131
 O678 O 0.56356 0.46568 -0.05336
 Zr679 Zr 0.53945 0.46374 -0.02412
 O680 O 0.50902 0.43896 0.02382
 O681 O 0.47926 0.45896 -0.05520
 O682 O 0.52668 0.43889 -0.04914
 O683 O 0.57361 0.45206 -0.01466
 O684 O 0.53359 0.43098 -0.00748
 C685 C 0.52110 0.42484 0.01070
 O686 O 0.47869 0.48072 0.04958
 O687 O 0.55879 0.53886 0.03546
 O688 O 0.51960 0.47397 0.05318
 O689 O 0.55285 0.49836 0.04853
 O690 O 0.51070 0.55986 0.02893
 O691 O 0.47678 0.53274 0.03712
 C692 C 0.53863 0.48469 0.06078
 H693 H 0.54108 0.54978 -0.00314
 H694 H 0.46557 0.49931 0.00861
 H695 H 0.54808 0.46359 0.02009
 H696 H 0.52176 0.48198 -0.06052
 H697 H 0.46053 0.55974 0.00271
 H698 H 0.44196 0.49480 -0.04618
 H699 H 0.46281 0.46013 -0.06116
 H700 H 0.53728 0.42515 -0.04902
 H701 H 0.49965 0.57324 0.02857
 H702 H 0.57524 0.53744 0.04132
 H703 H 0.59408 0.50117 0.02950
 H704 H 0.57511 0.43566 -0.02067
 H705 H 0.46844 0.54786 0.03909
 H706 H 0.47678 0.46556 0.05808
 H707 H 0.55855 0.53142 -0.07763
 H708 H 0.56925 0.44966 -0.05724
 Zr709 Zr 0.02940 1.02255 0.46245
 O710 O 0.05005 1.01288 0.43261
 O711 O 0.02469 1.05878 0.45675
 O712 O 0.00999 1.02589 0.43166
 O713 O 0.07809 1.02765 0.49854
 O714 O -0.02493 1.00465 0.43896
 O715 O 0.06471 1.03736 0.46285
 O716 O 0.00083 1.06971 0.48759
 O717 O -0.00606 1.02732 0.47410
 O718 O 0.03141 1.03605 0.49632
 O719 O 0.01234 0.98883 0.46030
 O720 O 0.04834 0.99746 0.48112
 Zr721 Zr -0.00383 0.98185 0.52657
 Zr722 Zr -0.02258 0.99355 0.47352
 Zr723 Zr 0.04842 1.01058 0.51534
 Zr724 Zr -0.00380 1.03949 0.50838
 O725 O 0.07950 0.99052 0.51892
 O726 O -0.03836 1.05200 0.50155
 O727 O 0.01364 1.01545 0.52918
 O728 O -0.02233 1.00677 0.50767
 O729 O -0.00587 0.96795 0.49280
 O730 O 0.03155 0.97708 0.51477
 C731 C 0.01239 1.07397 0.46836
 C732 C 0.08096 1.03710 0.47836
 C733 C -0.01057 1.01704 0.42569
 O734 O -0.05416 1.01305 0.47109
 O735 O -0.05133 0.97413 0.48920
 O736 O -0.03841 0.96532 0.52530
 C737 C -0.05417 0.96453 0.50929
 O738 O 0.05247 0.96235 0.45080
 Zr739 Zr 0.02952 0.96456 0.48081
 O740 O -0.00094 0.94546 0.53141
 O741 O -0.03176 0.96431 0.45188
 O742 O 0.01312 0.93998 0.45756
 O743 O 0.06250 0.94976 0.48974
 O744 O 0.02072 0.93334 0.49947
 C745 C 0.00880 0.92949 0.51862
 O746 O -0.02558 0.99138 0.55571
 O747 O 0.05851 1.04038 0.53586
 O748 O 0.01479 0.98026 0.55813
 O749 O 0.05001 1.00082 0.55036
 O750 O 0.01286 1.06631 0.52903
 O751 O -0.02257 1.04223 0.54089
 C752 C 0.03550 0.98899 0.56398
 H753 H 0.04033 1.05147 0.49714
 H754 H -0.03880 1.00873 0.51414
 H755 H 0.04015 0.96585 0.52439
 H756 H 0.01239 0.98283 0.44408
 H757 H -0.03852 1.06891 0.50629
 H758 H -0.06491 1.00398 0.46055
 H759 H -0.04819 0.96680 0.44640
 H760 H 0.02200 0.92509 0.45821
 H761 H 0.00298 1.08053 0.52828
 H762 H 0.07502 1.03778 0.54108
 H763 H 0.09014 0.99953 0.52960
 H764 H 0.06185 0.93291 0.48477
 H765 H -0.02910 1.05825 0.54266
 H766 H -0.02866 0.97686 0.56502
 H767 H 0.05312 1.02741 0.42332
 H768 H 0.05612 0.94558 0.44761
 Zr769 Zr 0.73667 0.27165 0.21790
 O770 O 0.74515 0.29400 0.18930
 O771 O 0.69993 0.26405 0.21315
 O772 O 0.73434 0.25392 0.18540
 O773 O 0.73002 0.31753 0.25785
 O774 O 0.75756 0.22181 0.18962
 O775 O 0.72131 0.30522 0.22103
 O776 O 0.68988 0.23728 0.24148
 O777 O 0.73351 0.23573 0.22644
 O778 O 0.72282 0.27042 0.25202
 O779 O 0.77163 0.25890 0.21403
 O780 O 0.76096 0.29211 0.23807
 Zr781 Zr 0.77964 0.24055 0.27858
 Zr782 Zr 0.76857 0.22344 0.22424
 Zr783 Zr 0.74763 0.28893 0.27239
 Zr784 Zr 0.72106 0.23483 0.26100
 O785 O 0.76682 0.32095 0.27977
 O786 O 0.71014 0.20000 0.25087
 O787 O 0.74463 0.25350 0.28296
 O788 O 0.75518 0.22055 0.25847
 O789 O 0.79374 0.24188 0.24454
 O790 O 0.78246 0.27642 0.27002
 C791 C 0.68496 0.24988 0.22392
 C792 C 0.72109 0.32060 0.23771
 C793 C 0.74462 0.23527 0.17752
 O794 O 0.75035 0.19045 0.21909
 O795 O 0.78922 0.19634 0.23736
 O796 O 0.79792 0.20857 0.27420
 C797 C 0.79906 0.19372 0.25710
 O798 O 0.79603 0.30166 0.20752
 Zr799 Zr 0.79518 0.27764 0.23573
 O800 O 0.81651 0.24754 0.28314
 O801 O 0.79879 0.21885 0.20176
 O802 O 0.82117 0.26568 0.21107
 O803 O 0.80797 0.31144 0.24715
 O804 O 0.82715 0.27244 0.25338
 C805 C 0.83195 0.26015 0.27121
 O806 O 0.77138 0.21658 0.30592
 O807 O 0.71638 0.29509 0.29304
 O808 O 0.78002 0.25703 0.31175
 O809 O 0.75555 0.28831 0.30794
 O810 O 0.69355 0.24713 0.28383
 O811 O 0.71911 0.21403 0.29159
 C812 C 0.76853 0.27483 0.32001
 H813 H 0.70689 0.27760 0.25377
 H814 H 0.75396 0.20387 0.26356
 H815 H 0.79324 0.28561 0.28041
 H816 H 0.77778 0.26047 0.19781
 H817 H 0.69306 0.19756 0.25580
 H818 H 0.76003 0.18155 0.20746
 H819 H 0.79703 0.20278 0.19482
 H820 H 0.83560 0.27632 0.21220
 H821 H 0.67948 0.23604 0.28248
 H822 H 0.71843 0.31117 0.29989
 H823 H 0.75696 0.32968 0.29137
 H824 H 0.82499 0.31333 0.24182
 H825 H 0.70317 0.20579 0.29286
 H826 H 0.78627 0.21480 0.31473
 H827 H 0.73015 0.29599 0.18069
 H828 H 0.81276 0.30750 0.20446
 Zr829 Zr 0.75415 0.72644 0.70583
 O830 O 0.74112 0.70173 0.68087
 O831 O 0.78851 0.73525 0.69170
 O832 O 0.74903 0.74197 0.67320
 O833 O 0.76980 0.68410 0.74503
 O834 O 0.72701 0.77442 0.68192
 O835 O 0.77165 0.69355 0.70661
 O836 O 0.80285 0.76374 0.71654
 O837 O 0.75713 0.76299 0.71241
 O838 O 0.77429 0.73065 0.73577
 O839 O 0.71868 0.73809 0.70987
 O840 O 0.73511 0.70690 0.73184
 Zr841 Zr 0.72243 0.76064 0.77445
 Zr842 Zr 0.72192 0.77423 0.71823
 Zr843 Zr 0.75461 0.71314 0.76203
 Zr844 Zr 0.77618 0.76677 0.74299
 O845 O 0.73877 0.68116 0.77494
 O846 O 0.78328 0.80102 0.72918
 O847 O 0.75811 0.74919 0.77062
 O848 O 0.74171 0.77975 0.74833
 O849 O 0.70201 0.75653 0.74453
 O850 O 0.71960 0.72425 0.76762
 C851 C 0.80464 0.75052 0.69827
 C852 C 0.77524 0.67949 0.72365
 C853 C 0.73784 0.76054 0.66749
 O854 O 0.73690 0.80766 0.70838
 O855 O 0.70276 0.80156 0.73492
 O856 O 0.70417 0.79288 0.77348
 C857 C 0.69842 0.80618 0.75658
 O858 O 0.69500 0.69470 0.71022
 Zr859 Zr 0.70067 0.72022 0.73709
 O860 O 0.68727 0.75252 0.78741
 O861 O 0.68802 0.77585 0.70274
 O862 O 0.66984 0.73003 0.71911
 O863 O 0.69234 0.68659 0.75183
 O864 O 0.67286 0.72472 0.76183
 C865 C 0.67076 0.73809 0.77986
 O866 O 0.73412 0.78616 0.79927
 O867 O 0.78949 0.70947 0.77498
 O868 O 0.72992 0.74644 0.80742
 O869 O 0.75396 0.71565 0.79828
 O870 O 0.80796 0.75684 0.75930
 O871 O 0.78355 0.78990 0.77146
 C872 C 0.74352 0.72944 0.81297
 H873 H 0.79051 0.72408 0.73394
 H874 H 0.74338 0.79677 0.75239
 H875 H 0.71160 0.71538 0.78057
 H876 H 0.70959 0.73536 0.69549
 H877 H 0.80086 0.80428 0.72967
 H878 H 0.72491 0.81525 0.69875
 H879 H 0.68761 0.79145 0.69508
 H880 H 0.65640 0.71904 0.72384
 H881 H 0.82112 0.76790 0.75399
 H882 H 0.78968 0.69377 0.78248
 H883 H 0.75107 0.67356 0.78420
 H884 H 0.67477 0.68358 0.75072
 H885 H 0.79907 0.79854 0.76851
 H886 H 0.72099 0.78778 0.81115
 H887 H 0.75415 0.69962 0.66899
 H888 H 0.67829 0.68820 0.71141
 Zr889 Zr 0.23786 0.21284 0.78998
 O890 O 0.24660 0.18957 0.81683
 O891 O 0.20179 0.21913 0.79798
 O892 O 0.23489 0.22972 0.82301
 O893 O 0.22894 0.16885 0.74812
 O894 O 0.25682 0.26414 0.81788
 O895 O 0.22060 0.17919 0.78589
 O896 O 0.19205 0.24675 0.77147
 O897 O 0.23562 0.24892 0.78282
 O898 O 0.22381 0.21502 0.75674
 O899 O 0.27303 0.22709 0.79272
 O900 O 0.26148 0.19420 0.76768
 Zr901 Zr 0.28134 0.24837 0.72842
 Zr902 Zr 0.27083 0.26276 0.78375
 Zr903 Zr 0.24812 0.19842 0.73422
 Zr904 Zr 0.22279 0.25087 0.74930
 O905 O 0.26613 0.16709 0.72522
 O906 O 0.21302 0.28503 0.76095
 O907 O 0.24596 0.23418 0.72529
 O908 O 0.25739 0.26655 0.75047
 O909 O 0.29555 0.24616 0.76154
 O910 O 0.28324 0.21227 0.73545
 C911 C 0.18731 0.23365 0.78932
 C912 C 0.21950 0.16474 0.76841
 C913 C 0.24318 0.25003 0.83015
 O914 O 0.25488 0.29585 0.78963
 O915 O 0.29359 0.29039 0.77109
 O916 O 0.30120 0.28059 0.73313
 C917 C 0.30348 0.29436 0.75099
 O918 O 0.29634 0.18527 0.79642
 Zr919 Zr 0.29605 0.21012 0.76897
 O920 O 0.31771 0.24211 0.72108
 O921 O 0.29991 0.26677 0.80650
 O922 O 0.32247 0.22256 0.79239
 O923 O 0.30797 0.17715 0.75596
 O924 O 0.32810 0.21685 0.74951
 C925 C 0.33295 0.22963 0.73154
 O926 O 0.27394 0.27359 0.70282
 O927 O 0.21695 0.19263 0.71445
 O928 O 0.28074 0.23370 0.69457
 O929 O 0.25710 0.20011 0.69840
 O930 O 0.19436 0.23827 0.72823
 O931 O 0.22101 0.27240 0.71938
 C932 C 0.26987 0.21515 0.68625
 H933 H 0.20758 0.20746 0.75570
 H934 H 0.25681 0.28341 0.74609
 H935 H 0.29370 0.20384 0.72416
 H936 H 0.27883 0.22541 0.80871
 H937 H 0.19589 0.28686 0.75733
 H938 H 0.26448 0.30442 0.80150
 H939 H 0.29869 0.28264 0.81384
 H940 H 0.33665 0.21256 0.79015
 H941 H 0.18061 0.24868 0.73120
 H942 H 0.21837 0.17689 0.70686
 H943 H 0.25612 0.15848 0.71370
 H944 H 0.32488 0.17569 0.76053
 H945 H 0.20523 0.27998 0.71933
 H946 H 0.28883 0.27616 0.69317
 H947 H 0.23170 0.18652 0.82632
 H948 H 0.31299 0.18030 0.79863
 Zr949 Zr 0.26088 0.77429 0.28345
 O950 O 0.24777 0.79234 0.31339
 O951 O 0.29794 0.77425 0.28939
 O952 O 0.26570 0.75490 0.31408
 O953 O 0.26206 0.82350 0.24779
 O954 O 0.24809 0.71871 0.30642
 O955 O 0.27174 0.81041 0.28364
 O956 O 0.31314 0.75409 0.25802
 O957 O 0.27030 0.74060 0.27166
 O958 O 0.27530 0.77879 0.24983
 O959 O 0.22871 0.75372 0.28487
 O960 O 0.23394 0.79050 0.26457
 Zr961 Zr 0.22567 0.73906 0.21834
 Zr962 Zr 0.23799 0.72056 0.27150
 Zr963 Zr 0.24827 0.79307 0.23057
 Zr964 Zr 0.28338 0.74521 0.23758
 O965 O 0.22430 0.82102 0.22716
 O966 O 0.30001 0.71314 0.24541
 O967 O 0.25769 0.76006 0.21658
 O968 O 0.25239 0.72334 0.23756
 O969 O 0.21083 0.73450 0.25188
 O970 O 0.21633 0.77270 0.23031
 C971 C 0.31533 0.76537 0.27738
 C972 C 0.27060 0.82665 0.26821
 C973 C 0.25872 0.73378 0.31992
 O974 O 0.26131 0.69198 0.27412
 O975 O 0.22221 0.69065 0.25519
 O976 O 0.21279 0.70343 0.21916
 C977 C 0.21331 0.68746 0.23495
 O978 O 0.19718 0.78980 0.29411
 Zr979 Zr 0.20287 0.76830 0.26407
 O980 O 0.18864 0.73793 0.21282
 O981 O 0.20868 0.70759 0.29239
 O982 O 0.17918 0.74907 0.28696
 O983 O 0.18418 0.79879 0.25495
 O984 O 0.17293 0.75624 0.24505
 C985 C 0.17095 0.74485 0.22567
 O986 O 0.23860 0.71951 0.18928
 O987 O 0.27775 0.80716 0.21059
 O988 O 0.22364 0.75779 0.18670
 O989 O 0.23976 0.79438 0.19533
 O990 O 0.30867 0.76474 0.21654
 O991 O 0.28937 0.72733 0.20537
 C992 C 0.23044 0.77912 0.18119
 H993 H 0.28982 0.78936 0.24917
 H994 H 0.25649 0.70767 0.23101
 H995 H 0.20433 0.78000 0.22048
 H996 H 0.22211 0.75266 0.30098
 H997 H 0.31727 0.71509 0.24098
 H998 H 0.25304 0.68019 0.28443
 H999 H 0.21295 0.69173 0.29786
 H1000 H 0.16316 0.75610 0.28617
 H1001 H 0.32425 0.75683 0.21727
 H1002 H 0.27328 0.82308 0.20548
 H1003 H 0.23240 0.83277 0.21669
 H1004 H 0.16709 0.79604 0.25972
 H1005 H 0.30625 0.72238 0.20420
 H1006 H 0.22454 0.71514 0.17971
 H1007 H 0.26184 0.79686 0.32288
 H1008 H 0.17971 0.79151 0.29701
 Zr1009 Zr 0.23712 0.76039 0.71532
 O1010 O 0.24716 0.78199 0.68657
 O1011 O 0.19977 0.75595 0.71151
 O1012 O 0.23191 0.74262 0.68323
 O1013 O 0.23560 0.80670 0.75499
 O1014 O 0.25088 0.70781 0.68748
 O1015 O 0.22396 0.79501 0.71884
 O1016 O 0.18823 0.73024 0.74034
 O1017 O 0.23092 0.72484 0.72434
 O1018 O 0.22436 0.76052 0.74980
 O1019 O 0.27051 0.74428 0.71054
 O1020 O 0.26394 0.77870 0.73441
 Zr1021 Zr 0.27854 0.72591 0.77502
 Zr1022 Zr 0.26445 0.70920 0.72125
 Zr1023 Zr 0.25141 0.77696 0.76908
 Zr1024 Zr 0.21948 0.72521 0.75916
 O1025 O 0.27369 0.80734 0.77508
 O1026 O 0.20522 0.69129 0.74977
 O1027 O 0.24520 0.74203 0.78024
 O1028 O 0.25195 0.70779 0.75586
 O1029 O 0.29170 0.72553 0.74064
 O1030 O 0.28472 0.76130 0.76591
 C1031 C 0.18395 0.74312 0.72277
 C1032 C 0.22555 0.81034 0.73552
 C1033 C 0.23896 0.72241 0.67562
 O1034 O 0.24376 0.67735 0.71784
 O1035 O 0.28402 0.68093 0.73391
 O1036 O 0.29456 0.69294 0.77035
 C1037 C 0.29453 0.67804 0.75330
 O1038 O 0.29887 0.78482 0.70302
 Zr1039 Zr 0.29652 0.76092 0.73131
 O1040 O 0.31570 0.72980 0.77894
 O1041 O 0.29266 0.70208 0.69708
 O1042 O 0.32009 0.74644 0.70575
 O1043 O 0.31330 0.79324 0.74222
 O1044 O 0.32846 0.75198 0.74785
 C1045 C 0.33225 0.73982 0.76612
 O1046 O 0.26863 0.70264 0.80251
 O1047 O 0.22183 0.78622 0.79081
 O1048 O 0.28149 0.74240 0.80800
 O1049 O 0.26052 0.77610 0.80425
 O1050 O 0.19374 0.74001 0.78243
 O1051 O 0.21661 0.70500 0.79011
 C1052 C 0.27223 0.76144 0.81622
 H1053 H 0.20921 0.76903 0.75200
 H1054 H 0.24955 0.69125 0.76118
 H1055 H 0.29663 0.76953 0.77589
 H1056 H 0.27608 0.74505 0.69408
 H1057 H 0.18817 0.69041 0.75517
 H1058 H 0.25208 0.66761 0.70588
 H1059 H 0.28930 0.68600 0.69067
 H1060 H 0.33558 0.75555 0.70639
 H1061 H 0.17881 0.73003 0.78159
 H1062 H 0.22567 0.80213 0.79740
 H1063 H 0.26521 0.81708 0.78692
 H1064 H 0.33022 0.79321 0.73644
 H1065 H 0.20014 0.69798 0.79183
 H1066 H 0.28342 0.69951 0.81104
 H1067 H 0.23229 0.78527 0.67823
 H1068 H 0.31596 0.78914 0.69953
 Zr1069 Zr 0.25464 0.22757 0.21069
 O1070 O 0.24073 0.20387 0.18528
 O1071 O 0.28949 0.23485 0.19733
 O1072 O 0.25249 0.24420 0.17835
 O1073 O 0.26818 0.18444 0.24963
 O1074 O 0.23066 0.27705 0.18592
 O1075 O 0.27092 0.19420 0.21130
 O1076 O 0.30421 0.26325 0.22207
 O1077 O 0.25870 0.26398 0.21737
 O1078 O 0.27438 0.23099 0.24093
 O1079 O 0.21958 0.24031 0.21377
 O1080 O 0.23453 0.20844 0.23621
 Zr1081 Zr 0.22303 0.26237 0.27867
 Zr1082 Zr 0.22382 0.27632 0.22225
 Zr1083 Zr 0.25371 0.21386 0.26671
 Zr1084 Zr 0.27728 0.26708 0.24822
 O1085 O 0.23661 0.18232 0.27924
 O1086 O 0.28580 0.30118 0.23467
 O1087 O 0.25829 0.24981 0.27549
 O1088 O 0.24314 0.28109 0.25284
 O1089 O 0.20304 0.25913 0.24835
 O1090 O 0.21908 0.22611 0.27163
 C1091 C 0.30587 0.24979 0.20395
 C1092 C 0.27377 0.17989 0.22826
 C1093 C 0.24247 0.26323 0.17215
 O1094 O 0.23963 0.30973 0.21353
 O1095 O 0.20429 0.30347 0.23876
 O1096 O 0.20500 0.29471 0.27738
 C1097 C 0.19949 0.30798 0.26036
 O1098 O 0.19454 0.19767 0.21374
 Zr1099 Zr 0.20051 0.22294 0.24076
 O1100 O 0.18802 0.25444 0.29184
 O1101 O 0.19074 0.27867 0.20537
 O1102 O 0.17050 0.23403 0.22229
 O1103 O 0.19040 0.18956 0.25517
 O1104 O 0.17251 0.22842 0.26513
 C1105 C 0.17102 0.24093 0.28382
 O1106 O 0.23505 0.28791 0.30332
 O1107 O 0.28818 0.20893 0.28018
 O1108 O 0.22993 0.24805 0.31184
 O1109 O 0.25252 0.21612 0.30301
 O1110 O 0.30852 0.25626 0.26491
 O1111 O 0.28461 0.28986 0.27697
 C1112 C 0.24263 0.23042 0.31760
 H1113 H 0.29037 0.22391 0.23935
 H1114 H 0.24508 0.29807 0.25701
 H1115 H 0.21066 0.21737 0.28442
 H1116 H 0.21094 0.23797 0.19907
 H1117 H 0.30343 0.30385 0.23551
 H1118 H 0.22813 0.31767 0.20361
 H1119 H 0.19091 0.29442 0.19796
 H1120 H 0.15657 0.22353 0.22678
 H1121 H 0.32199 0.26708 0.25986
 H1122 H 0.28770 0.19315 0.28754
 H1123 H 0.24853 0.17417 0.28850
 H1124 H 0.17280 0.18727 0.25361
 H1125 H 0.30042 0.29808 0.27439
 H1126 H 0.22191 0.28975 0.31516
 H1127 H 0.25376 0.20134 0.17351
 H1128 H 0.17752 0.19202 0.21435
 Zr1129 Zr 0.73909 0.72966 0.28195
 O1130 O 0.75515 0.70633 0.30503
 O1131 O 0.70443 0.73199 0.29681
 O1132 O 0.74205 0.74471 0.31562
 O1133 O 0.72579 0.68667 0.24019
 O1134 O 0.76158 0.78029 0.30908
 O1135 O 0.72453 0.69471 0.27916
 O1136 O 0.68699 0.75909 0.27412
 O1137 O 0.73239 0.76560 0.27786
 O1138 O 0.71824 0.73177 0.25243
 O1139 O 0.77313 0.74682 0.27865
 O1140 O 0.75946 0.71425 0.25461
 Zr1141 Zr 0.76568 0.77124 0.21590
 Zr1142 Zr 0.76620 0.78243 0.27279
 Zr1143 Zr 0.73894 0.71833 0.22493
 Zr1144 Zr 0.71264 0.76755 0.24770
 O1145 O 0.75741 0.68898 0.21113
 O1146 O 0.70226 0.79975 0.26370
 O1147 O 0.73159 0.75389 0.21874
 O1148 O 0.74546 0.78624 0.24333
 O1149 O 0.78707 0.76918 0.24513
 O1150 O 0.77239 0.73538 0.22025
 C1151 C 0.68684 0.74483 0.29142
 C1152 C 0.72128 0.68088 0.26146
 C1153 C 0.75191 0.76440 0.32256
 O1154 O 0.74844 0.81307 0.28437
 O1155 O 0.78372 0.81235 0.25763
 O1156 O 0.78207 0.80539 0.21856
 C1157 C 0.78775 0.81829 0.23630
 O1158 O 0.80106 0.70763 0.27501
 Zr1159 Zr 0.79232 0.73322 0.25007
 O1160 O 0.80033 0.76907 0.20115
 O1161 O 0.79958 0.78861 0.28884
 O1162 O 0.82214 0.74745 0.26831
 O1163 O 0.80433 0.70207 0.23318
 O1164 O 0.81873 0.74366 0.22498
 C1165 C 0.81846 0.75738 0.20729
 O1166 O 0.75003 0.79581 0.19378
 O1167 O 0.70471 0.71077 0.21106
 O1168 O 0.76033 0.75731 0.18219
 O1169 O 0.74124 0.72149 0.18852
 O1170 O 0.68145 0.75369 0.23137
 O1171 O 0.70304 0.79039 0.22060
 C1172 C 0.75046 0.73769 0.17512
 H1173 H 0.70274 0.72273 0.25391
 H1174 H 0.74239 0.80309 0.24038
 H1175 H 0.78116 0.72829 0.20686
 H1176 H 0.78252 0.74489 0.29282
 H1177 H 0.68450 0.80014 0.26341
 H1178 H 0.75982 0.82211 0.29430
 H1179 H 0.79864 0.80399 0.29722
 H1180 H 0.83659 0.73927 0.26244
 H1181 H 0.66764 0.76282 0.23731
 H1182 H 0.70583 0.69550 0.20256
 H1183 H 0.74596 0.67989 0.20130
 H1184 H 0.82209 0.70226 0.23394
 H1185 H 0.68698 0.79673 0.22417
 H1186 H 0.76230 0.80032 0.18166
 H1187 H 0.74269 0.70158 0.31689
 H1188 H 0.81845 0.70456 0.27369
 Zr1189 Zr 0.74879 0.27965 0.79005
 O1190 O 0.73333 0.30219 0.81556
 O1191 O 0.78359 0.27643 0.80229
 O1192 O 0.74620 0.26339 0.82308
 O1193 O 0.76089 0.32458 0.75009
 O1194 O 0.72911 0.22701 0.81536
 O1195 O 0.76370 0.31454 0.78825
 O1196 O 0.80092 0.25144 0.77585
 O1197 O 0.75628 0.24422 0.78272
 O1198 O 0.76849 0.27945 0.75856
 O1199 O 0.71516 0.26170 0.78864
 O1200 O 0.72713 0.29600 0.76574
 Zr1201 Zr 0.72014 0.24079 0.72375
 Zr1202 Zr 0.72285 0.22670 0.77955
 Zr1203 Zr 0.74645 0.29379 0.73394
 Zr1204 Zr 0.77471 0.24424 0.75069
 O1205 O 0.72687 0.32351 0.72453
 O1206 O 0.78633 0.21132 0.76279
 O1207 O 0.75405 0.25873 0.72465
 O1208 O 0.74216 0.22503 0.74791
 O1209 O 0.70027 0.24085 0.75513
 O1210 O 0.71310 0.27624 0.73123
 C1211 C 0.80115 0.26419 0.79454
 C1212 C 0.76668 0.32913 0.77124
 C1213 C 0.73809 0.24270 0.82928
 O1214 O 0.74218 0.19641 0.78776
 O1215 O 0.70720 0.19633 0.76386
 O1216 O 0.70418 0.20631 0.72576
 C1217 C 0.70131 0.19173 0.74279
 O1218 O 0.68670 0.30038 0.79072
 Zr1219 Zr 0.69455 0.27643 0.76303
 O1220 O 0.68451 0.24255 0.71297
 O1221 O 0.69004 0.21850 0.79753
 O1222 O 0.66574 0.26075 0.78292
 O1223 O 0.68131 0.30816 0.74968
 O1224 O 0.66716 0.26703 0.73991
 C1225 C 0.66660 0.25381 0.72163
 O1226 O 0.73496 0.21761 0.69843
 O1227 O 0.77972 0.30249 0.71701
 O1228 O 0.72390 0.25645 0.69061
 O1229 O 0.74255 0.29235 0.69755
 O1230 O 0.80499 0.25997 0.73298
 O1231 O 0.78395 0.22358 0.72090
 C1232 C 0.73328 0.27649 0.68391
 H1233 H 0.78397 0.28851 0.75934
 H1234 H 0.74561 0.20853 0.74334
 H1235 H 0.70359 0.28374 0.71921
 H1236 H 0.70625 0.26259 0.80373
 H1237 H 0.80409 0.21146 0.76105
 H1238 H 0.73155 0.18648 0.79806
 H1239 H 0.69191 0.20297 0.80499
 H1240 H 0.65099 0.26915 0.77924
 H1241 H 0.81923 0.25104 0.73720
 H1242 H 0.77800 0.31816 0.70976
 H1243 H 0.73763 0.33327 0.71420
 H1244 H 0.66365 0.30773 0.75238
 H1245 H 0.80033 0.21759 0.72248
 H1246 H 0.72211 0.21344 0.68735
 H1247 H 0.74603 0.30646 0.82676
 H1248 H 0.66927 0.30332 0.79130
 C1249 C 0.41128 1.01143 0.30311
 C1250 C 0.42567 0.99283 0.30913
 C1251 C 0.43843 0.99339 0.33121
 N1252 N 0.45026 0.97423 0.33833
 N1253 N 0.46029 0.97420 0.35913
 C1254 C 0.45881 0.99339 0.37348
 N1255 N 0.44726 1.01257 0.36621
 N1256 N 0.43730 1.01259 0.34550
 C1257 C 0.46761 0.99343 0.39725
 C1258 C 0.48046 0.97528 0.40674
 H1259 H 0.42618 0.97705 0.29830
 H1260 H 0.46294 1.00845 0.40814
 H1261 H 0.41102 1.02713 0.31407
 H1262 H 0.48693 0.96095 0.39589
 C1263 C -0.08678 0.51289 0.80337
 C1264 C -0.07168 0.49501 0.80989
 C1265 C -0.05824 0.49707 0.83160
 N1266 N -0.04554 0.47870 0.83928
 N1267 N -0.03460 0.48017 0.85963
 C1268 C -0.03597 0.50011 0.87296
 N1269 N -0.04841 0.51848 0.86513
 N1270 N -0.05929 0.51701 0.84487
 C1271 C -0.02606 0.50187 0.89632
 C1272 C -0.01278 0.48445 0.90658
 H1273 H -0.07076 0.47891 0.79959
 H1274 H -0.03050 0.51750 0.90641
 H1275 H -0.08730 0.52896 0.81378
 H1276 H -0.00676 0.46938 0.89649
 C1277 C 0.07760 -0.02535 0.78809
 C1278 C 0.06260 -0.00764 0.79631
 C1279 C 0.05125 -0.00904 0.81969
 N1280 N 0.03940 0.00966 0.82885
 N1281 N 0.03119 0.00932 0.85084
 C1282 C 0.03459 -0.00974 0.86443
 N1283 N 0.04611 -0.02850 0.85516
 N1284 N 0.05427 -0.02817 0.83323
 C1285 C 0.02791 -0.00988 0.88926
 C1286 C 0.01541 0.00809 0.90051
 H1287 H 0.06133 0.00854 0.78655
 H1288 H 0.03393 -0.02455 0.89932
 H1289 H 0.07824 -0.04165 0.79777
 H1290 H 0.00786 0.02209 0.89059
 C1291 C 0.57888 0.50224 0.28708
 C1292 C 0.58667 0.50700 0.30952
 C1293 C 0.57104 0.51070 0.33002
 N1294 N 0.58146 0.51670 0.35031
 N1295 N 0.56823 0.51943 0.36962
 C1296 C 0.54399 0.51627 0.36948
 N1297 N 0.53342 0.51052 0.34908
 N1298 N 0.54673 0.50781 0.32962
 C1299 C 0.52981 0.51749 0.39146
 C1300 C 0.54156 0.51919 0.41252
 H1301 H 0.60585 0.50838 0.31228
 H1302 H 0.51047 0.51488 0.39124
 H1303 H 0.55990 0.50054 0.28356
 H1304 H 0.56101 0.52063 0.41240
 C1305 C 0.60293 0.49191 0.20193
 C1306 C 0.58027 0.48924 0.19215
 C1307 C 0.57689 0.48856 0.16683
 N1308 N 0.55501 0.48239 0.15842
 N1309 N 0.55133 0.48240 0.13564
 C1310 C 0.56939 0.48873 0.12038
 N1311 N 0.59128 0.49494 0.12879
 N1312 N 0.59499 0.49479 0.15158
 C1313 C 0.56528 0.48992 0.09523
 C1314 C 0.54407 0.48119 0.08540
 H1315 H 0.56429 0.48714 0.20311
 H1316 H 0.57916 0.49824 0.08426
 H1317 H 0.61865 0.49208 0.19042
 H1318 H 0.53070 0.47191 0.09623
 C1319 C 0.09086 0.98140 0.70407
 C1320 C 0.10507 0.98446 0.68387
 C1321 C 0.09467 0.98544 0.66062
 N1322 N 0.10917 0.99086 0.64200
 N1323 N 0.10020 0.99224 0.62087
 C1324 C 0.07642 0.98814 0.61747
 N1325 N 0.06183 0.98257 0.63606
 N1326 N 0.07081 0.98126 0.65726
 C1327 C 0.06714 0.99056 0.59395
 C1328 C 0.04345 0.98505 0.58788
 H1329 H 0.12433 0.98687 0.68463
 H1330 H 0.07985 0.99704 0.58072
 H1331 H 0.07158 0.97954 0.70214
 H1332 H 0.03078 0.97760 0.60064
 C1333 C -0.09498 0.51025 0.71720
 C1334 C -0.10873 0.51017 0.69729
 C1335 C -0.09796 0.51170 0.67368
 N1336 N -0.11247 0.50998 0.65519
 N1337 N -0.10333 0.51131 0.63363
 C1338 C -0.07934 0.51454 0.62968
 N1339 N -0.06470 0.51635 0.64816
 N1340 N -0.07387 0.51496 0.66980
 C1341 C -0.07009 0.51542 0.60554
 C1342 C -0.04608 0.52009 0.59887
 H1343 H -0.12809 0.50885 0.69853
 H1344 H -0.08325 0.51222 0.59226
 H1345 H -0.07558 0.51116 0.71502
 H1346 H -0.03278 0.52414 0.61183
 C1347 C 0.39882 0.00621 0.21670
 C1348 C 0.42274 0.00637 0.20867
 C1349 C 0.42922 0.00457 0.18379
 N1350 N 0.45251 0.00762 0.17659
 N1351 N 0.45866 0.00621 0.15410
 C1352 C 0.44173 0.00157 0.13799
 N1353 N 0.41847 -0.00164 0.14520
 N1354 N 0.41231 -0.00014 0.16767
 C1355 C 0.44805 0.00026 0.11307
 C1356 C 0.47098 0.00629 0.10424
 H1357 H 0.43734 0.00842 0.22057
 H1358 H 0.43389 -0.00474 0.10127
 H1359 H 0.38475 0.00508 0.20408
 H1360 H 0.48497 0.01201 0.11595
 C1361 C 0.30288 0.39844 0.00088
 C1362 C 0.32527 0.38936 0.00539
 C1363 C 0.34768 0.40375 0.00281
 N1364 N 0.36842 0.39595 0.01140
 N1365 N 0.38895 0.40852 0.00854
 C1366 C 0.38950 0.42926 -0.00322
 N1367 N 0.36880 0.43697 -0.01191
 N1368 N 0.34826 0.42451 -0.00889
 C1369 C 0.41202 0.44312 -0.00718
 C1370 C 0.43267 0.43963 0.00536
 H1371 H 0.32647 0.37108 0.01054
 H1372 H 0.41202 0.45719 -0.01982
 H1373 H 0.30195 0.41669 -0.00451
 H1374 H 0.43226 0.42683 0.01925
 C1375 C -0.20310 0.90113 0.49689
 C1376 C -0.18077 0.89566 0.50558
 C1377 C -0.15962 0.91185 0.50496
 N1378 N -0.13989 0.90625 0.51682
 N1379 N -0.12009 0.92009 0.51587
 C1380 C -0.11925 0.94003 0.50291
 N1381 N -0.13899 0.94566 0.49105
 N1382 N -0.15887 0.93188 0.49211
 C1383 C -0.09704 0.95467 0.50047
 C1384 C -0.07708 0.95158 0.51417
 H1385 H -0.17865 0.87850 0.51333
 H1386 H -0.09626 0.96803 0.48709
 H1387 H -0.20548 0.91802 0.48869
 H1388 H -0.07823 0.93941 0.52860
 C1389 C -0.20902 0.10365 1.00567
 C1390 C -0.18600 0.11053 0.99751
 C1391 C -0.16457 0.09645 1.00016
 N1392 N -0.14408 0.10264 0.98812
 N1393 N -0.12416 0.09063 0.99055
 C1394 C -0.12391 0.07207 1.00529
 N1395 N -0.14437 0.06592 1.01746
 N1396 N -0.16439 0.07785 1.01490
 C1397 C -0.10186 0.05889 1.00828
 C1398 C -0.08236 0.06092 0.99260
 H1399 H -0.18351 0.12725 0.98858
 H1400 H -0.10134 0.04664 1.02259
 H1401 H -0.21176 0.08715 1.01495
 H1402 H -0.08363 0.07178 0.97731
 C1403 C 0.28489 0.58802 0.48648
 C1404 C 0.30799 0.59321 0.47750
 C1405 C 0.32749 0.57634 0.47773
 N1406 N 0.34863 0.58169 0.46641
 N1407 N 0.36714 0.56748 0.46770
 C1408 C 0.36521 0.54741 0.48048
 N1409 N 0.34402 0.54199 0.49171
 N1410 N 0.32546 0.55614 0.49030
 C1411 C 0.38615 0.53281 0.48395
 C1412 C 0.40777 0.53632 0.47145
 H1413 H 0.31233 0.61072 0.47083
 H1414 H 0.38490 0.51983 0.49768
 H1415 H 0.28076 0.57068 0.49369
 H1416 H 0.40868 0.54817 0.45675
 C1417 C 0.19925 0.61212 0.50085
 C1418 C 0.18852 0.58994 0.50575
 C1419 C 0.16226 0.58599 0.50714
 N1420 N 0.15255 0.56737 0.51928
 N1421 N 0.12892 0.56267 0.51946
 C1422 C 0.11416 0.57628 0.50728
 N1423 N 0.12388 0.59485 0.49509
 N1424 N 0.14746 0.59974 0.49516
 C1425 C 0.08849 0.56982 0.50521
 C1426 C 0.07562 0.55594 0.52149
 H1427 H 0.19948 0.57509 0.50953
 H1428 H 0.07949 0.57581 0.49000
 H1429 H 0.18790 0.62730 0.50048
 H1430 H 0.08351 0.55197 0.53794
 C1431 C 0.70400 0.12042 0.00989
 C1432 C 0.69483 0.09840 0.01757
 C1433 C 0.66912 0.09155 0.01628
 N1434 N 0.65978 0.07356 0.02951
 N1435 N 0.63693 0.06620 0.02750
 C1436 C 0.62263 0.07638 0.01196
 N1437 N 0.63200 0.09430 -0.00133
 N1438 N 0.65477 0.10184 0.00087
 C1439 C 0.59793 0.06725 0.00825
 C1440 C 0.58500 0.05369 0.02474
 H1441 H 0.70644 0.08575 0.02507
 H1442 H 0.58967 0.07133 -0.00800
 H1443 H 0.69125 0.13362 0.00549
 H1444 H 0.59226 0.05142 0.04181
 C1445 C 0.70873 0.87763 0.49182
 C1446 C 0.69913 0.89913 0.48570
 C1447 C 0.67345 0.90376 0.48939
 N1448 N 0.66278 0.91983 0.47608
 N1449 N 0.63989 0.92510 0.48008
 C1450 C 0.62689 0.91476 0.49777
 N1451 N 0.63761 0.89883 0.51122
 N1452 N 0.66042 0.89330 0.50700
 C1453 C 0.60214 0.92181 0.50327
 C1454 C 0.58775 0.93087 0.48629
 H1455 H 0.71043 0.91286 0.47768
 H1456 H 0.59530 0.92021 0.52100
 H1457 H 0.69639 0.86320 0.49672
 H1458 H 0.59389 0.93029 0.46827
 C1459 C 0.21366 0.39316 1.00012
 C1460 C 0.19170 0.38180 0.99523
 C1461 C 0.16909 0.39448 0.99845
 N1462 N 0.14928 0.38787 0.98640
 N1463 N 0.12902 0.39971 0.98905
 C1464 C 0.12780 0.41842 1.00403
 N1465 N 0.14748 0.42475 1.01628
 N1466 N 0.16775 0.41310 1.01347
 C1467 C 0.10580 0.43188 1.00745
 C1468 C 0.08720 0.43158 0.99166
 H1469 H 0.19093 0.36413 0.98785
 H1470 H 0.10500 0.44376 1.02234
 H1471 H 0.21348 0.41177 1.00490
 H1472 H 0.08859 0.42101 0.97590
 C1473 C -0.02055 0.30076 0.42018
 C1474 C -0.02182 0.32278 0.40976
 C1475 C -0.02510 0.34449 0.42317
 N1476 N -0.02777 0.36514 0.41193
 N1477 N -0.02953 0.38533 0.42383
 C1478 C -0.02863 0.38550 0.44737
 N1479 N -0.02610 0.36483 0.45862
 N1480 N -0.02442 0.34462 0.44672
 C1481 C -0.02868 0.40768 0.46052
 C1482 C -0.03246 0.42923 0.45002
 H1483 H -0.01970 0.32420 0.39104
 H1484 H -0.02473 0.40710 0.47883
 H1485 H -0.02208 0.29928 0.43892
 H1486 H -0.03802 0.42986 0.43215
 C1487 C 0.48271 -0.20780 -0.08041
 C1488 C 0.47323 -0.18649 -0.08707
 C1489 C 0.47654 -0.16461 -0.07364
 N1490 N 0.46915 -0.14403 -0.08244
 N1491 N 0.47365 -0.12361 -0.07146
 C1492 C 0.48582 -0.12307 -0.05135
 N1493 N 0.49304 -0.14368 -0.04242
 N1494 N 0.48854 -0.16412 -0.05341
 C1495 C 0.49123 -0.10067 -0.03934
 C1496 C 0.48393 -0.07919 -0.04787
 H1497 H 0.46548 -0.18518 -0.10405
 H1498 H 0.50065 -0.10121 -0.02314
 H1499 H 0.49134 -0.20889 -0.06382
 H1500 H 0.47408 -0.07873 -0.06383
 C1501 C 0.01631 -0.20799 1.08849
 C1502 C 0.00544 -0.18692 1.09487
 C1503 C 0.00801 -0.16495 1.08183
 N1504 N -0.00891 -0.14846 1.08497
 N1505 N -0.00668 -0.12775 1.07429
 C1506 C 0.01276 -0.12263 1.06034
 N1507 N 0.02989 -0.13903 1.05733
 N1508 N 0.02750 -0.15994 1.06783
 C1509 C 0.01524 -0.09958 1.04898
 C1510 C -0.00501 -0.08696 1.04419
 H1511 H -0.00617 -0.18655 1.11028
 H1512 H 0.03294 -0.09289 1.04354
 H1513 H 0.02813 -0.20878 1.07326
 H1514 H -0.02276 -0.09503 1.04701
 C1515 C 0.50473 0.27821 0.56790
 C1516 C 0.51672 0.29955 0.57297
 C1517 C 0.51399 0.32114 0.55983
 N1518 N 0.52370 0.34163 0.56826
 N1519 N 0.51976 0.36203 0.55807
 C1520 C 0.50591 0.36271 0.53909
 N1521 N 0.49654 0.34214 0.53031
 N1522 N 0.50043 0.32165 0.54059
 C1523 C 0.50072 0.38543 0.52870
 C1524 C 0.50617 0.40646 0.54050
 H1525 H 0.52642 0.30136 0.58899
 H1526 H 0.49237 0.38562 0.51192
 H1527 H 0.49390 0.27657 0.55258
 H1528 H 0.51378 0.40596 0.55761
 C1529 C 0.48503 1.19460 0.59353
 C1530 C 0.48255 1.18377 0.57186
 C1531 C 0.48315 1.15807 0.56906
 N1532 N 0.49007 1.14890 0.54822
 N1533 N 0.49274 1.12575 0.54563
 C1534 C 0.48849 1.11090 0.56377
 N1535 N 0.48096 1.11995 0.58452
 N1536 N 0.47853 1.14322 0.58718
 C1537 C 0.49189 1.08549 0.56072
 C1538 C 0.50733 1.07760 0.54313
 H1539 H 0.48332 1.19399 0.55610
 H1540 H 0.48165 1.07308 0.57160
 H1541 H 0.48451 1.18359 0.60884
 H1542 H 0.51858 1.09038 0.53356
 C1543 C 0.02059 0.70445 1.10597
 C1544 C 0.02748 0.69529 1.08433
 C1545 C 0.02460 0.66985 1.07901
 N1546 N 0.03328 0.66119 1.05853
 N1547 N 0.02986 0.63841 1.05303
 C1548 C 0.01751 0.62344 1.06771
 N1549 N 0.00876 0.63211 1.08818
 N1550 N 0.01227 0.65489 1.09374
 C1551 C 0.01316 0.59839 1.06132
 C1552 C 0.02444 0.58883 1.04169
 H1553 H 0.03428 0.70680 1.07060
 H1554 H 0.00095 0.58751 1.07196
 H1555 H 0.01527 0.69210 1.11959
 H1556 H 0.03725 0.59980 1.03177
 C1557 C 0.50431 0.71041 -0.10140
 C1558 C 0.50710 0.70177 -0.07899
 C1559 C 0.51129 0.67678 -0.07433
 N1560 N 0.50939 0.66904 -0.05214
 N1561 N 0.51221 0.64635 -0.04738
 C1562 C 0.51715 0.63052 -0.06460
 N1563 N 0.51943 0.63829 -0.08682
 N1564 N 0.51645 0.66103 -0.09162
 C1565 C 0.51953 0.60533 -0.05927
 C1566 C 0.51115 0.59641 -0.03798
 H1567 H 0.50493 0.71302 -0.06386
 H1568 H 0.52708 0.59364 -0.07238
 H1569 H 0.50655 0.69829 -0.11595
 H1570 H 0.50228 0.60807 -0.02566
 C1571 C -0.00919 1.21301 0.41332
 C1572 C -0.01619 1.20629 0.43582
 C1573 C -0.01241 1.18244 0.44445
 N1574 N -0.00062 1.16616 0.43135
 N1575 N 0.00312 1.14475 0.43971
 C1576 C -0.00477 1.13893 0.46149
 N1577 N -0.01655 1.15519 0.47455
 N1578 N -0.02025 1.17659 0.46621
 C1579 C -0.00130 1.11540 0.47097
 C1580 C 0.01119 1.09792 0.45893
 H1581 H -0.02434 1.21866 0.44783
 H1582 H -0.00931 1.11167 0.48796
 H1583 H -0.00209 1.19977 0.40151
 H1584 H 0.01966 1.10168 0.44215
 C1585 C 0.77453 0.67806 0.95218
 C1586 C 0.78364 0.67049 0.93069
 C1587 C 0.78002 0.68286 0.90881
 N1588 N 0.79228 0.67581 0.88946
 N1589 N 0.78811 0.68520 0.86896
 C1590 C 0.77135 0.70185 0.86689
 N1591 N 0.75905 0.70911 0.88626
 N1592 N 0.76335 0.69977 0.90690
 C1593 C 0.76661 0.71049 0.84356
 C1594 C 0.74788 0.72506 0.83777
 H1595 H 0.79274 0.65386 0.92953
 H1596 H 0.77819 0.70372 0.82977
 H1597 H 0.76502 0.69447 0.95329
 H1598 H 0.73655 0.73287 0.85117
 C1599 C 0.27383 0.17498 0.45672
 C1600 C 0.28188 0.16814 0.43456
 C1601 C 0.27834 0.18150 0.41315
 N1602 N 0.29055 0.17499 0.39358
 N1603 N 0.28640 0.18498 0.37335
 C1604 C 0.26967 0.20172 0.37170
 N1605 N 0.25740 0.20847 0.39130
 N1606 N 0.26169 0.19852 0.41171
 C1607 C 0.26505 0.21090 0.34845
 C1608 C 0.24662 0.22583 0.34252
 H1609 H 0.29025 0.15120 0.43240
 H1610 H 0.27665 0.20419 0.33464
 H1611 H 0.26507 0.19171 0.45895
 H1612 H 0.23531 0.23378 0.35585
 C1613 C 0.73378 0.33458 0.46084
 C1614 C 0.75396 0.32436 0.45043
 C1615 C 0.75317 0.31438 0.42662
 N1616 N 0.77283 0.30438 0.41664
 N1617 N 0.77275 0.29711 0.39448
 C1618 C 0.75303 0.29977 0.38147
 N1619 N 0.73341 0.30967 0.39148
 N1620 N 0.73346 0.31679 0.41359
 C1621 C 0.75271 0.29343 0.35659
 C1622 C 0.77017 0.28013 0.34511
 H1623 H 0.77106 0.32572 0.45894
 H1624 H 0.73760 0.29929 0.34693
 H1625 H 0.71656 0.33163 0.45278
 H1626 H 0.78446 0.27268 0.35479
 C1627 C 0.24274 0.82552 0.95571
 C1628 C 0.26274 0.81502 0.94531
 C1629 C 0.26133 0.80448 0.92181
 N1630 N 0.28041 0.79348 0.91183
 N1631 N 0.27960 0.78553 0.88992
 C1632 C 0.25973 0.78848 0.87720
 N1633 N 0.24072 0.79939 0.88721
 N1634 N 0.24148 0.80717 0.90906
 C1635 C 0.25862 0.78155 0.85257
 C1636 C 0.27490 0.76691 0.84114
 H1637 H 0.27993 0.81616 0.95365
 H1638 H 0.24374 0.78811 0.84305
 H1639 H 0.22541 0.82234 0.94793
 H1640 H 0.28877 0.75861 0.85069
 C1641 C 0.23942 0.83585 0.04018
 C1642 C 0.23816 0.84930 0.06068
 C1643 C 0.23571 0.83856 0.08393
 N1644 N 0.23614 0.85283 0.10300
 N1645 N 0.23437 0.84372 0.12423
 C1646 C 0.23193 0.81998 0.12729
 N1647 N 0.23135 0.80559 0.10823
 N1648 N 0.23319 0.81474 0.08692
 C1649 C 0.23127 0.81072 0.15113
 C1650 C 0.22766 0.78685 0.15695
 H1651 H 0.23919 0.86839 0.06027
 H1652 H 0.23440 0.82360 0.16488
 H1653 H 0.23848 0.81674 0.04177
 H1654 H 0.22335 0.77382 0.14364
 C1655 C 0.73702 0.34936 0.54601
 C1656 C 0.73684 0.32598 0.55398
 C1657 C 0.73748 0.32034 0.57898
 N1658 N 0.73406 0.29760 0.58609
 N1659 N 0.73453 0.29223 0.60858
 C1660 C 0.73856 0.30940 0.62485
 N1661 N 0.74210 0.33211 0.61773
 N1662 N 0.74153 0.33749 0.59526
 C1663 C 0.73926 0.30390 0.64984
 C1664 C 0.73299 0.28156 0.65878
 H1665 H 0.73553 0.31118 0.54198
 H1666 H 0.74438 0.31814 0.66164
 H1667 H 0.73738 0.36345 0.55891
 H1668 H 0.72704 0.26753 0.64710
 C1669 C 0.26233 0.15499 0.54205
 C1670 C 0.26500 0.17746 0.55226
 C1671 C 0.26419 0.18092 0.57773
 N1672 N 0.27111 0.20213 0.58711
 N1673 N 0.27075 0.20542 0.61009
 C1674 C 0.26338 0.18762 0.62457
 N1675 N 0.25631 0.16648 0.61519
 N1676 N 0.25679 0.16315 0.59222
 C1677 C 0.26246 0.19100 0.65001
 C1678 C 0.27214 0.21119 0.66092
 H1679 H 0.26899 0.19287 0.54170
 H1680 H 0.25391 0.17709 0.66043
 H1681 H 0.25953 0.13991 0.55339
 H1682 H 0.28143 0.22471 0.65056
 C1683 C 0.75923 0.66382 0.03773
 C1684 C 0.75792 0.68726 0.04563
 C1685 C 0.75390 0.69331 0.07033
 N1686 N 0.75620 0.71620 0.07753
 N1687 N 0.75310 0.72196 0.09990
 C1688 C 0.74744 0.70501 0.11587
 N1689 N 0.74493 0.68216 0.10864
 N1690 N 0.74813 0.67639 0.08629
 C1691 C 0.74464 0.71083 0.14074
 C1692 C 0.75052 0.73319 0.14988
 H1693 H 0.76078 0.70187 0.03382
 H1694 H 0.73905 0.69660 0.15235
 H1695 H 0.75707 0.64974 0.05031
 H1696 H 0.75687 0.74725 0.13839
 C1697 C 0.15780 0.53687 0.24695
 C1698 C 0.15158 0.55889 0.23842
 C1699 C 0.16751 0.58014 0.23814
 N1700 N 0.16076 0.59952 0.22655
 N1701 N 0.17374 0.61970 0.22744
 C1702 C 0.19390 0.62134 0.24013
 N1703 N 0.20075 0.60192 0.25167
 N1704 N 0.18783 0.58164 0.25065
 C1705 C 0.20721 0.64410 0.24288
 C1706 C 0.20261 0.66392 0.22958
 H1707 H 0.13356 0.56110 0.23238
 H1708 H 0.22046 0.64548 0.25630
 H1709 H 0.17557 0.53467 0.25362
 H1710 H 0.19062 0.66222 0.21511
 C1711 C 0.65397 0.03764 0.75006
 C1712 C 0.64666 0.05941 0.74170
 C1713 C 0.66066 0.08192 0.74321
 N1714 N 0.65343 0.10089 0.73126
 N1715 N 0.66450 0.12201 0.73355
 C1716 C 0.68314 0.12505 0.74809
 N1717 N 0.69043 0.10606 0.76004
 N1718 N 0.67946 0.08486 0.75762
 C1719 C 0.69452 0.14866 0.75196
 C1720 C 0.69070 0.16802 0.73772
 H1721 H 0.62908 0.06035 0.73426
 H1722 H 0.70637 0.15084 0.76650
 H1723 H 0.67127 0.03658 0.75806
 H1724 H 0.68043 0.16557 0.72212
 C1725 C 0.85160 0.04545 0.24973
 C1726 C 0.85991 0.06811 0.25627
 C1727 C 0.84576 0.08946 0.25438
 N1728 N 0.85356 0.10990 0.26470
 N1729 N 0.84153 0.12971 0.26264
 C1730 C 0.82133 0.12986 0.24999
 N1731 N 0.81356 0.10944 0.23959
 N1732 N 0.82550 0.08956 0.24180
 C1733 C 0.80828 0.15177 0.24692
 C1734 C 0.81238 0.17202 0.26054
 H1735 H 0.87779 0.07038 0.26306
 H1736 H 0.79460 0.15174 0.23390
 H1737 H 0.83392 0.04308 0.24249
 H1738 H 0.82474 0.17160 0.27473
 C1739 C 0.34846 0.53129 0.75458
 C1740 C 0.35803 0.55441 0.75512
 C1741 C 0.34338 0.57528 0.75239
 N1742 N 0.35218 0.59688 0.75908
 N1743 N 0.33940 0.61611 0.75646
 C1744 C 0.31743 0.61451 0.74680
 N1745 N 0.30870 0.59293 0.73988
 N1746 N 0.32140 0.57363 0.74273
 C1747 C 0.30340 0.63576 0.74356
 C1748 C 0.30788 0.65638 0.75643
 H1749 H 0.37702 0.55742 0.75804
 H1750 H 0.28882 0.63492 0.73148
 H1751 H 0.32951 0.52828 0.75140
 H1752 H 0.32105 0.65640 0.76994
 C1753 C 0.35541 0.44425 0.76372
 C1754 C 0.36701 0.42335 0.75791
 C1755 C 0.35419 0.40014 0.75976
 N1756 N 0.36161 0.38131 0.74689
 N1757 N 0.34968 0.36046 0.74812
 C1758 C 0.32999 0.35766 0.76242
 N1759 N 0.32279 0.37639 0.77547
 N1760 N 0.33456 0.39725 0.77408
 C1761 C 0.31655 0.33487 0.76449
 C1762 C 0.31825 0.31641 0.74823
 H1763 H 0.38488 0.42389 0.75007
 H1764 H 0.30383 0.33305 0.77899
 H1765 H 0.33658 0.44285 0.76900
 H1766 H 0.32966 0.31861 0.73281
 C1767 C 0.86537 0.95908 0.24603
 C1768 C 0.84208 0.95062 0.24130
 C1769 C 0.83532 0.92518 0.24217
 N1770 N 0.81642 0.91652 0.22993
 N1771 N 0.80949 0.89375 0.23134
 C1772 C 0.82104 0.87884 0.24528
 N1773 N 0.83983 0.88755 0.25765
 N1774 N 0.84696 0.91024 0.25600
 C1775 C 0.81247 0.85408 0.24835
 C1776 C 0.79894 0.84187 0.23175
 H1777 H 0.82855 0.96252 0.23587
 H1778 H 0.81701 0.84519 0.26415
 H1779 H 0.87901 0.94614 0.24835
 H1780 H 0.79638 0.84985 0.21501
 C1781 C 0.63368 0.94934 0.75726
 C1782 C 0.65631 0.93999 0.76033
 C1783 C 0.66043 0.91434 0.75786
 N1784 N 0.67836 0.90435 0.76949
 N1785 N 0.68293 0.88146 0.76655
 C1786 C 0.66997 0.86772 0.75159
 N1787 N 0.65217 0.87775 0.73983
 N1788 N 0.64735 0.90055 0.74303
 C1789 C 0.67626 0.84291 0.74665
 C1790 C 0.68753 0.82901 0.76278
 H1791 H 0.67125 0.95142 0.76544
 H1792 H 0.67222 0.83552 0.72970
 H1793 H 0.61857 0.93700 0.75518
 H1794 H 0.68947 0.83564 0.78039
 C1795 C 0.13267 0.45051 0.25862
 C1796 C 0.15516 0.44069 0.26137
 C1797 C 0.15897 0.41496 0.25995
 N1798 N 0.17734 0.40557 0.27142
 N1799 N 0.18217 0.38270 0.26903
 C1800 C 0.16903 0.36836 0.25477
 N1801 N 0.15072 0.37777 0.24319
 N1802 N 0.14565 0.40058 0.24586
 C1803 C 0.17577 0.34362 0.25026
 C1804 C 0.18812 0.33060 0.26634
 H1805 H 0.17051 0.45199 0.26561
 H1806 H 0.17138 0.33564 0.23365
 H1807 H 0.11704 0.43864 0.25788
 H1808 H 0.19036 0.33771 0.28373
 C1809 C 0.03802 0.26023 0.83744
 C1810 C 0.06024 0.25754 0.84737
 C1811 C 0.08259 0.25667 0.83343
 N1812 N 0.10242 0.24810 0.84301
 N1813 N 0.12259 0.24596 0.83038
 C1814 C 0.12371 0.25240 0.80771
 N1815 N 0.10398 0.26135 0.79818
 N1816 N 0.08371 0.26333 0.81080
 C1817 C 0.14588 0.24966 0.79370
 C1818 C 0.16392 0.23541 0.80133
 H1819 H 0.06096 0.25381 0.86577
 H1820 H 0.14791 0.25872 0.77724
 H1821 H 0.03711 0.26329 0.81893
 H1822 H 0.16107 0.22549 0.81724
 C1823 C 0.53562 0.75160 0.34473
 C1824 C 0.55737 0.74348 0.35231
 C1825 C 0.57984 0.74650 0.33874
 N1826 N 0.60010 0.73675 0.34628
 N1827 N 0.62066 0.73918 0.33408
 C1828 C 0.62168 0.75153 0.31396
 N1829 N 0.60145 0.76138 0.30648
 N1830 N 0.58087 0.75889 0.31864
 C1831 C 0.64408 0.75418 0.30019
 C1832 C 0.66485 0.74274 0.30594
 H1833 H 0.55783 0.73434 0.36874
 H1834 H 0.64398 0.76502 0.28478
 H1835 H 0.53488 0.76072 0.32831
 H1836 H 0.66483 0.73151 0.32107
 C1837 C 0.54733 0.27288 0.15514
 C1838 C 0.55486 0.25843 0.17274
 C1839 C 0.57950 0.26069 0.18107
 N1840 N 0.58750 0.24479 0.19627
 N1841 N 0.61031 0.24582 0.20268
 C1842 C 0.62591 0.26272 0.19403
 N1843 N 0.61786 0.27872 0.17898
 N1844 N 0.59508 0.27769 0.17258
 C1845 C 0.65118 0.26383 0.20053
 C1846 C 0.66012 0.24807 0.21624
 H1847 H 0.54325 0.24397 0.17897
 H1848 H 0.66286 0.27763 0.19306
 H1849 H 0.55883 0.28770 0.14955
 H1850 H 0.64826 0.23464 0.22408
 C1851 C 0.04617 0.77661 0.65822
 C1852 C 0.05388 0.75974 0.67354
 C1853 C 0.07858 0.76073 0.68192
 N1854 N 0.08627 0.74327 0.69558
 N1855 N 0.10912 0.74308 0.70179
 C1856 C 0.12513 0.76025 0.69445
 N1857 N 0.11741 0.77777 0.68091
 N1858 N 0.09457 0.77799 0.67473
 C1859 C 0.15052 0.75994 0.70062
 C1860 C 0.15889 0.74313 0.71562
 H1861 H 0.04245 0.74440 0.67766
 H1862 H 0.16276 0.77348 0.69352
 H1863 H 0.05716 0.79257 0.65546
 H1864 H 0.14641 0.73016 0.72334
 C1865 C 0.95703 0.77908 0.65316
 C1866 C 0.93586 0.77182 0.64226
 C1867 C 0.91239 0.77143 0.65465
 N1868 N 0.89319 0.76000 0.64509
 N1869 N 0.87204 0.75866 0.65648
 C1870 C 0.86932 0.76879 0.67785
 N1871 N 0.88845 0.78043 0.68730
 N1872 N 0.90961 0.78168 0.67596
 C1873 C 0.84636 0.76712 0.69101
 C1874 C 0.82693 0.75279 0.68399
 H1875 H 0.93624 0.76443 0.62490
 H1876 H 0.84509 0.77691 0.70726
 H1877 H 0.95576 0.78526 0.67103
 H1878 H 0.82834 0.74248 0.66807
 C1879 C 0.45778 0.27202 0.15546
 C1880 C 0.43602 0.26523 0.14548
 C1881 C 0.41307 0.26600 0.15858
 N1882 N 0.39309 0.25554 0.14957
 N1883 N 0.37229 0.25530 0.16154
 C1884 C 0.37072 0.26559 0.18293
 N1885 N 0.39064 0.27629 0.19183
 N1886 N 0.41147 0.27644 0.17990
 C1887 C 0.34808 0.26494 0.19658
 C1888 C 0.32816 0.25126 0.18977
 H1889 H 0.43542 0.25771 0.12820
 H1890 H 0.34740 0.27483 0.21280
 H1891 H 0.45743 0.27865 0.17320
 H1892 H 0.32912 0.24081 0.17390
 C1893 C 0.44641 0.76011 0.35691
 C1894 C 0.44090 0.77011 0.33575
 C1895 C 0.41599 0.77343 0.32927
 N1896 N 0.41103 0.77681 0.30666
 N1897 N 0.38841 0.77797 0.30008
 C1898 C 0.36992 0.77597 0.31589
 N1899 N 0.37488 0.77322 0.33861
 N1900 N 0.39754 0.77187 0.34519
 C1901 C 0.34499 0.77518 0.30835
 C1902 C 0.33982 0.76847 0.28567
 H1903 H 0.45469 0.77385 0.32263
 H1904 H 0.33060 0.77784 0.32106
 H1905 H 0.43191 0.75620 0.36935
 H1906 H 0.35436 0.76405 0.27366
 C1907 C 0.95066 0.25594 0.84107
 C1908 C 0.92820 0.25404 0.85234
 C1909 C 0.90620 0.25404 0.83887
 N1910 N 0.88485 0.25910 0.84936
 N1911 N 0.86495 0.25945 0.83706
 C1912 C 0.86570 0.25458 0.81388
 N1913 N 0.88697 0.24920 0.80349
 N1914 N 0.90686 0.24902 0.81574
 C1915 C 0.84404 0.25476 0.80003
 C1916 C 0.82295 0.26477 0.80827
 H1917 H 0.92629 0.25357 0.87105
 H1918 H 0.84498 0.24728 0.78263
 H1919 H 0.95106 0.25861 0.82242
 H1920 H 0.82241 0.27337 0.82519
 C1921 C 0.58590 0.98966 0.71594
 C1922 C 0.58141 1.00522 0.69794
 C1923 C 0.56822 0.99843 0.67704
 N1924 N 0.55948 1.01561 0.66367
 N1925 N 0.54967 1.01027 0.64336
 C1926 C 0.54852 0.98755 0.63551
 N1927 N 0.55721 0.97031 0.64891
 N1928 N 0.56682 0.97563 0.66937
 C1929 C 0.53969 0.98187 0.61218
 C1930 C 0.52621 0.99768 0.59994
 H1931 H 0.58770 1.02351 0.69907
 H1932 H 0.54424 0.96505 0.60430
 H1933 H 0.57610 0.97280 0.71678
 H1934 H 0.51977 1.01348 0.60855
 C1935 C 0.08387 0.49335 1.21953
 C1936 C 0.07882 0.50960 1.20225
 C1937 C 0.06600 0.50379 1.18085
 N1938 N 0.05817 0.52171 1.16782
 N1939 N 0.04949 0.51752 1.14680
 C1940 C 0.04860 0.49523 1.13782
 N1941 N 0.05626 0.47721 1.15091
 N1942 N 0.06479 0.48139 1.17206
 C1943 C 0.04120 0.49082 1.11372
 C1944 C 0.03001 0.50792 1.10085
 H1945 H 0.08531 0.52779 1.20397
 H1946 H 0.04499 0.47383 1.10578
 H1947 H 0.07369 0.47672 1.22054
 H1948 H 0.02440 0.52412 1.10930
 C1949 C -0.07814 0.00523 1.21294
 C1950 C -0.07102 0.02375 1.19813
 C1951 C -0.05625 0.02122 1.17677
 N1952 N -0.04996 -0.00021 1.16796
 N1953 N -0.03889 -0.00176 1.14712
 C1954 C -0.03380 0.01807 1.13447
 N1955 N -0.03981 0.03936 1.14351
 N1956 N -0.05077 0.04090 1.16423
 C1957 C -0.02459 0.01720 1.11035
 C1958 C -0.01584 -0.00280 1.09903
 H1959 H -0.07714 0.04141 1.20177
 H1960 H -0.02570 0.03338 1.10053
 H1961 H -0.06927 -0.01150 1.21136
 H1962 H -0.01216 -0.01861 1.10858
 C1963 C 0.40663 0.47856 0.71329
 C1964 C 0.40288 0.48656 0.69086
 C1965 C 0.41781 0.48041 0.67044
 N1966 N 0.40884 0.48349 0.64911
 N1967 N 0.42232 0.47994 0.63009
 C1968 C 0.44544 0.47335 0.63156
 N1969 N 0.45451 0.47020 0.65295
 N1970 N 0.44088 0.47358 0.67210
 C1971 C 0.46068 0.47163 0.61024
 C1972 C 0.45016 0.47316 0.58864
 H1973 H 0.38747 0.49700 0.68748
 H1974 H 0.48003 0.47149 0.61155
 H1975 H 0.41998 0.46538 0.71580
 H1976 H 0.43072 0.47277 0.58792
 C1977 C 0.41760 0.49065 -0.21036
 C1978 C 0.42630 0.50967 -0.19686
 C1979 C 0.44169 0.50671 -0.17683
 N1980 N 0.45127 0.52611 -0.16591
 N1981 N 0.46329 0.52399 -0.14637
 C1982 C 0.46603 0.50235 -0.13698
 N1983 N 0.45663 0.48295 -0.14800
 N1984 N 0.44473 0.48506 -0.16759
 C1985 C 0.47684 0.49968 -0.11421
 C1986 C 0.48914 0.51790 -0.10244
 H1987 H 0.42126 0.52754 -0.20053
 H1988 H 0.47431 0.48258 -0.10596
 H1989 H 0.42547 0.47351 -0.20863
 H1990 H 0.49392 0.53441 -0.11104
 C1991 C -0.08513 1.00147 0.29021
 C1992 C -0.08032 1.01871 0.30723
 C1993 C -0.06592 1.01446 0.32765
 N1994 N -0.05689 1.03316 0.33999
 N1995 N -0.04542 1.02983 0.35964
 C1996 C -0.04279 1.00765 0.36778
 N1997 N -0.05178 0.98893 0.35542
 N1998 N -0.06305 0.99225 0.33564
 C1999 C -0.03226 1.00379 0.39048
 C2000 C -0.01824 1.02098 0.40186
 H2001 H -0.08674 1.03644 0.30542
 H2002 H -0.03592 0.98683 0.39868
 H2003 H -0.07552 0.98512 0.29033
 H2004 H -0.01228 1.03701 0.39298
 C2005 C 0.09208 0.50707 0.29865
 C2006 C 0.07303 0.49224 0.30650
 C2007 C 0.06228 0.49632 0.33003
 N2008 N 0.04039 0.48675 0.33643
 N2009 N 0.03087 0.49100 0.35760
 C2010 C 0.04298 0.50489 0.37314
 N2011 N 0.06488 0.51416 0.36679
 N2012 N 0.07428 0.51002 0.34571
 C2013 C 0.03351 0.50984 0.39683
 C2014 C 0.01019 0.50391 0.40479
 H2015 H 0.06583 0.47815 0.29561
 H2016 H 0.04570 0.51893 0.40854
 H2017 H 0.09720 0.52180 0.30989
 H2018 H -0.00242 0.49543 0.39309
 C2019 C 0.58440 0.00040 -0.20575
 C2020 C 0.58094 0.01971 -0.19068
 C2021 C 0.56747 0.01906 -0.16832
 N2022 N 0.55463 -0.00035 -0.16061
 N2023 N 0.54390 -0.00023 -0.13953
 C2024 C 0.54579 0.01925 -0.12547
 N2025 N 0.55851 0.03851 -0.13332
 N2026 N 0.56901 0.03845 -0.15432
 C2027 C 0.53628 0.01964 -0.10138
 C2028 C 0.51852 0.00410 -0.09232
 H2029 H 0.58936 0.03670 -0.19476
 H2030 H 0.54356 0.03349 -0.09018
 H2031 H 0.57381 -0.01579 -0.20301
 H2032 H 0.50939 -0.00853 -0.10358
 C2033 C 0.72961 0.61033 -0.00974
 C2034 C 0.71206 0.60662 -0.02647
 C2035 C 0.69000 0.59205 -0.02227
 N2036 N 0.67316 0.59049 -0.03887
 N2037 N 0.65259 0.57825 -0.03516
 C2038 C 0.64806 0.56711 -0.01465
 N2039 N 0.66494 0.56854 0.00193
 N2040 N 0.68552 0.58082 -0.00178
 C2041 C 0.62523 0.55385 -0.01010
 C2042 C 0.60676 0.55267 -0.02606
 H2043 H 0.71368 0.61526 -0.04310
 H2044 H 0.62287 0.54498 0.00644
 H2045 H 0.72787 0.60055 0.00634
 H2046 H 0.60909 0.56160 -0.04256
 C2047 C 0.22660 1.10682 0.49143
 C2048 C 0.20873 1.10476 0.47481
 C2049 C 0.18698 1.08952 0.47808
 N2050 N 0.16999 1.08888 0.46160
 N2051 N 0.14971 1.07598 0.46464
 C2052 C 0.14567 1.06323 0.48431
 N2053 N 0.16272 1.06376 0.50073
 N2054 N 0.18300 1.07667 0.49769
 C2055 C 0.12301 1.04965 0.48847
 C2056 C 0.10431 1.04899 0.47276
 H2057 H 0.21003 1.11494 0.45904
 H2058 H 0.12075 1.04047 0.50485
 H2059 H 0.22509 1.09559 0.50657
 H2060 H 0.10658 1.05797 0.45627
 C2061 C 0.20395 -0.10874 0.99958
 C2062 C 0.18831 -0.10292 0.98203
 C2063 C 0.16774 -0.08740 0.98492
 N2064 N 0.15724 -0.08259 1.00599
 N2065 N 0.13734 -0.06999 1.00746
 C2066 C 0.12736 -0.06178 0.98790
 N2067 N 0.13807 -0.06644 0.96702
 N2068 N 0.15774 -0.07909 0.96555
 C2069 C 0.10512 -0.04841 0.98835
 C2070 C 0.09003 -0.04543 1.00787
 H2071 H 0.19165 -0.10922 0.96448
 H2072 H 0.09987 -0.04142 0.97185
 H2073 H 0.20275 -0.09956 1.01616
 H2074 H 0.09485 -0.05245 1.02448
 C2075 C 0.69348 0.39832 0.50466
 C2076 C 0.68913 0.41273 0.52407
 C2077 C 0.66899 0.42902 0.52377
 N2078 N 0.65507 0.43304 0.54310
 N2079 N 0.63586 0.44652 0.54206
 C2080 C 0.63015 0.45666 0.52169
 N2081 N 0.64441 0.45303 0.50261
 N2082 N 0.66334 0.43940 0.50358
 C2083 C 0.60853 0.47058 0.51917
 C2084 C 0.58851 0.46965 0.53439
 H2085 H 0.69910 0.41099 0.53979
 H2086 H 0.60731 0.47981 0.50287
 H2087 H 0.68063 0.39856 0.49084
 H2088 H 0.58927 0.46027 0.55065
 C2089 C -0.22659 0.40442 0.50168
 C2090 C -0.20890 0.41015 0.48470
 C2091 C -0.18974 0.42839 0.48797
 N2092 N -0.17410 0.43351 0.47008
 N2093 N -0.15587 0.44906 0.47282
 C2094 C -0.15257 0.46010 0.49360
 N2095 N -0.16831 0.45511 0.51147
 N2096 N -0.18659 0.43958 0.50872
 C2097 C -0.13142 0.47589 0.49745
 C2098 C -0.11408 0.48089 0.48000
 H2099 H -0.20874 0.40117 0.46805
 H2100 H -0.12855 0.48227 0.51500
 H2101 H -0.22729 0.41492 0.51752
 H2102 H -0.11711 0.47484 0.46237
 C2103 C 0.28399 -0.10824 0.00099
 C2104 C 0.30330 -0.10329 -0.01455
 C2105 C 0.32318 -0.08621 -0.00972
 N2106 N 0.33970 -0.08101 -0.02684
 N2107 N 0.35843 -0.06639 -0.02286
 C2108 C 0.36143 -0.05641 -0.00154
 N2109 N 0.34487 -0.06155 0.01562
 N2110 N 0.32605 -0.07614 0.01161
 C2111 C 0.38284 -0.04126 0.00341
 C2112 C 0.40001 -0.03498 -0.01383
 H2113 H 0.30409 -0.11184 -0.03140
 H2114 H 0.38565 -0.03579 0.02125
 H2115 H 0.28274 -0.09806 0.01700
 H2116 H 0.39688 -0.04007 -0.03173
 C2117 C 0.30615 1.10634 0.50117
 C2118 C 0.33039 1.10773 0.49424
 C2119 C 0.34698 1.08880 0.49927
 N2120 N 0.37031 1.09427 0.50379
 N2121 N 0.38584 1.07724 0.50708
 C2122 C 0.37869 1.05408 0.50561
 N2123 N 0.35539 1.04859 0.50090
 N2124 N 0.33976 1.06563 0.49802
 C2125 C 0.39632 1.03527 0.50667
 C2126 C 0.41676 1.03760 0.52008
 H2127 H 0.33796 1.12367 0.48632
 H2128 H 0.39357 1.01959 0.49597
 H2129 H 0.30011 1.09186 0.51229
 H2130 H 0.41821 1.05192 0.53268
 C2131 C -0.19043 0.61523 1.00191
 C2132 C -0.16615 0.61800 0.99532
 C2133 C -0.14830 0.60022 1.00032
 N2134 N -0.12501 0.60713 1.00341
 N2135 N -0.10824 0.59117 1.00610
 C2136 C -0.11406 0.56765 1.00540
 N2137 N -0.13733 0.56072 1.00220
 N2138 N -0.15419 0.57671 0.99989
 C2139 C -0.09525 0.54994 1.00586
 C2140 C -0.07377 0.55401 1.01739
 H2141 H -0.15955 0.63415 0.98710
 H2142 H -0.09823 0.53338 0.99656
 H2143 H -0.19579 0.60088 1.01346
 H2144 H -0.07183 0.56922 1.02888
 C2145 C -0.00790 0.72493 0.60852
 C2146 C 0.00380 0.70360 0.60997
 C2147 C -0.00153 0.68347 0.59449
 N2148 N 0.01044 0.66323 0.59691
 N2149 N 0.00650 0.64494 0.58265
 C2150 C -0.00951 0.64621 0.56537
 N2151 N -0.02152 0.66649 0.56290
 N2152 N -0.01757 0.68483 0.57721
 C2153 C -0.01391 0.62589 0.54974
 C2154 C -0.00264 0.60468 0.55324
 H2155 H 0.01775 0.70136 0.62236
 H2156 H -0.02653 0.62741 0.53589
 H2157 H -0.02268 0.72602 0.59678
 H2158 H 0.00950 0.60328 0.56752
 C2159 C 0.49291 0.21693 0.11084
 C2160 C 0.50562 0.19625 0.11294
 C2161 C 0.50063 0.17507 0.09874
 N2162 N 0.51345 0.15547 0.10197
 N2163 N 0.51000 0.13634 0.08868
 C2164 C 0.49366 0.13611 0.07159
 N2165 N 0.48077 0.15570 0.06837
 N2166 N 0.48420 0.17487 0.08171
 C2167 C 0.49014 0.11513 0.05665
 C2168 C 0.50279 0.09471 0.06024
 H2169 H 0.52013 0.19530 0.12494
 H2170 H 0.47740 0.11572 0.04280
 H2171 H 0.47742 0.21668 0.09985
 H2172 H 0.51515 0.09416 0.07442
 C2173 C -0.01287 0.20812 0.89013
 C2174 C 0.00446 0.19137 0.89391
 C2175 C -0.00015 0.16988 0.90756
 N2176 N 0.01877 0.15844 0.91586
 N2177 N 0.01536 0.13847 0.92766
 C2178 C -0.00710 0.12903 0.93143
 N2179 N -0.02609 0.14037 0.92298
 N2180 N -0.02269 0.16054 0.91132
 C2181 C -0.01065 0.10653 0.94380
 C2182 C 0.00734 0.09801 0.95750
 H2183 H 0.02288 0.19459 0.88809
 H2184 H -0.02750 0.09661 0.94215
 H2185 H -0.03038 0.20596 0.89863
 H2186 H 0.02326 0.10901 0.96063
 C2187 C 0.47918 0.69709 0.38917
 C2188 C 0.49384 0.67758 0.38885
 C2189 C 0.48826 0.65697 0.40329
 N2190 N 0.50644 0.64599 0.41342
 N2191 N 0.50190 0.62751 0.42711
 C2192 C 0.47904 0.61919 0.43092
 N2193 N 0.46081 0.62989 0.42046
 N2194 N 0.46533 0.64868 0.40703
 C2195 C 0.47446 0.59829 0.44527
 C2196 C 0.48935 0.59383 0.46359
 H2197 H 0.51170 0.67863 0.38104
 H2198 H 0.46013 0.58579 0.44075
 H2199 H 0.46261 0.69626 0.39948
 H2200 H 0.50173 0.60760 0.46967
 C2201 C 0.48941 0.76929 0.41823
 C2202 C 0.50745 0.78231 0.42939
 C2203 C 0.50222 0.80258 0.44449
 N2204 N 0.52022 0.81853 0.44892
 N2205 N 0.51557 0.83901 0.45934
 C2206 C 0.49274 0.84427 0.46582
 N2207 N 0.47477 0.82797 0.46219
 N2208 N 0.47941 0.80750 0.45153
 C2209 C 0.48755 0.86800 0.47465
 C2210 C 0.50148 0.88721 0.46651
 H2211 H 0.52611 0.78008 0.42441
 H2212 H 0.47230 0.87053 0.48639
 H2213 H 0.47119 0.76949 0.42529
 H2214 H 0.51521 0.88434 0.45315
 C2215 C -0.01446 0.28470 0.90526
 C2216 C 0.00234 0.29978 0.91589
 C2217 C -0.00370 0.31820 0.93301
 N2218 N 0.01451 0.33121 0.94233
 N2219 N 0.01007 0.35011 0.95544
 C2220 C -0.01280 0.35685 0.95976
 N2221 N -0.03120 0.34338 0.95110
 N2222 N -0.02672 0.32437 0.93787
 C2223 C -0.01693 0.37995 0.97103
 C2224 C 0.00033 0.39800 0.96732
 H2225 H 0.02120 0.29872 0.91110
 H2226 H -0.03373 0.38333 0.98018
 H2227 H -0.03264 0.28339 0.91241
 H2228 H 0.01566 0.39443 0.95594
 C2229 C 0.49684 0.29128 0.08829
 C2230 C 0.51475 0.30328 0.07531
 C2231 C 0.50997 0.32355 0.06084
 N2232 N 0.52815 0.33335 0.04770
 N2233 N 0.52554 0.35394 0.03727
 C2234 C 0.50471 0.36560 0.03982
 N2235 N 0.48634 0.35562 0.05266
 N2236 N 0.48892 0.33493 0.06301
 C2237 C 0.50282 0.38955 0.03077
 C2238 C 0.52108 0.39985 0.01693
 H2239 H 0.53343 0.29915 0.07734
 H2240 H 0.48736 0.39967 0.03602
 H2241 H 0.47833 0.29195 0.08312
 H2242 H 0.53567 0.38929 0.01027
 C2243 C 0.00290 0.79760 0.58737
 C2244 C 0.02276 0.80743 0.57523
 C2245 C 0.02051 0.82555 0.55758
 N2246 N 0.04003 0.83243 0.54440
 N2247 N 0.03938 0.85133 0.53085
 C2248 C 0.01928 0.86416 0.53028
 N2249 N -0.00043 0.85694 0.54305
 N2250 N 0.00015 0.83793 0.55642
 C2251 C 0.01991 0.88693 0.51836
 C2252 C 0.00594 0.90518 0.52692
 H2253 H 0.04078 0.80282 0.57963
 H2254 H 0.03362 0.89038 0.50500
 H2255 H -0.01478 0.79876 0.58015
 H2256 H -0.00635 0.90196 0.54156
 C2257 C 0.24750 0.33392 0.03337
 C2258 C 0.26243 0.32571 0.05044
 C2259 C 0.25344 0.31363 0.07157
 N2260 N 0.26883 0.30109 0.08404
 N2261 N 0.26195 0.29196 0.10447
 C2262 C 0.23948 0.29528 0.11339
 N2263 N 0.22403 0.30785 0.10092
 N2264 N 0.23085 0.31680 0.08032
 C2265 C 0.23259 0.28675 0.13682
 C2266 C 0.24584 0.26968 0.14757
 H2267 H 0.28171 0.32832 0.04854
 H2268 H 0.21736 0.29437 0.14590
 H2269 H 0.22888 0.32778 0.03334
 H2270 H 0.25979 0.26088 0.13762
 C2271 C 0.74953 0.84054 0.54140
 C2272 C 0.73506 0.82008 0.54349
 C2273 C 0.73041 0.81054 0.56684
 N2274 N 0.73317 0.78725 0.57127
 N2275 N 0.73168 0.77936 0.59305
 C2276 C 0.72722 0.79451 0.61105
 N2277 N 0.72386 0.81761 0.60649
 N2278 N 0.72563 0.82551 0.58483
 C2279 C 0.72655 0.78679 0.63530
 C2280 C 0.73720 0.76627 0.64263
 H2281 H 0.72927 0.81007 0.52842
 H2282 H 0.71896 0.79882 0.64808
 H2283 H 0.75776 0.84749 0.55704
 H2284 H 0.74572 0.75465 0.63004
 C2285 C 0.25608 0.65222 0.53750
 C2286 C 0.23893 0.66767 0.54639
 C2287 C 0.24004 0.67567 0.57093
 N2288 N 0.22594 0.69313 0.57943
 N2289 N 0.22697 0.69986 0.60173
 C2290 C 0.24200 0.68919 0.61632
 N2291 N 0.25586 0.67169 0.60783
 N2292 N 0.25492 0.66510 0.58564
 C2293 C 0.24393 0.69588 0.64100
 C2294 C 0.23363 0.71570 0.65135
 H2295 H 0.22429 0.67319 0.53598
 H2296 H 0.25525 0.68505 0.65125
 H2297 H 0.27085 0.64826 0.54855
 H2298 H 0.22283 0.72712 0.64119
 C2299 C 0.75233 0.17685 0.03505
 C2300 C 0.77104 0.18438 0.04934
 C2301 C 0.76788 0.19633 0.07198
 N2302 N 0.78754 0.20004 0.08503
 N2303 N 0.78547 0.20803 0.10675
 C2304 C 0.76365 0.21275 0.11634
 N2305 N 0.74384 0.20946 0.10323
 N2306 N 0.74591 0.20128 0.08140
 C2307 C 0.76231 0.21923 0.14111
 C2308 C 0.74275 0.22937 0.15260
 H2309 H 0.78920 0.17942 0.04486
 H2310 H 0.77836 0.21644 0.15083
 H2311 H 0.73496 0.18479 0.03710
 H2312 H 0.72740 0.23471 0.14303
 C2313 C 0.74769 0.15863 0.95644
 C2314 C 0.73444 0.17875 0.95300
 C2315 C 0.73312 0.18817 0.92928
 N2316 N 0.73203 0.21180 0.92543
 N2317 N 0.73227 0.22009 0.90376
 C2318 C 0.73346 0.20498 0.88525
 N2319 N 0.73410 0.18142 0.88917
 N2320 N 0.73409 0.17319 0.91072
 C2321 C 0.73343 0.21314 0.86109
 C2322 C 0.73875 0.23638 0.85411
 H2323 H 0.72687 0.18856 0.96752
 H2324 H 0.72993 0.19966 0.84797
 H2325 H 0.75752 0.15157 0.94153
 H2326 H 0.74368 0.24982 0.86682
 C2327 C 0.24600 0.66082 0.45799
 C2328 C 0.26281 0.66605 0.44007
 C2329 C 0.25788 0.68057 0.41981
 N2330 N 0.27656 0.68975 0.40678
 N2331 N 0.27279 0.70056 0.38681
 C2332 C 0.25018 0.70230 0.37895
 N2333 N 0.23146 0.69320 0.39203
 N2334 N 0.23522 0.68260 0.41215
 C2335 C 0.24597 0.71194 0.35581
 C2336 C 0.26286 0.72637 0.34386
 H2337 H 0.28066 0.65911 0.44067
 H2338 H 0.22900 0.70743 0.34783
 H2339 H 0.22999 0.67114 0.45970
 H2340 H 0.27870 0.73317 0.35254
 C2341 C 0.76122 0.82704 0.46199
 C2342 C 0.78026 0.82248 0.44641
 C2343 C 0.77766 0.80970 0.42419
 N2344 N 0.75633 0.79993 0.41730
 N2345 N 0.75430 0.79056 0.39600
 C2346 C 0.77351 0.79080 0.38087
 N2347 N 0.79475 0.80036 0.38791
 N2348 N 0.79680 0.80954 0.40915
 C2349 C 0.77157 0.78314 0.35651
 C2350 C 0.75270 0.76920 0.34776
 H2351 H 0.79795 0.83009 0.44954
 H2352 H 0.78607 0.78888 0.34472
 H2353 H 0.74441 0.81707 0.46033
 H2354 H 0.73919 0.76123 0.35938
 C2355 C 0.25518 0.34189 0.95347
 C2356 C 0.23720 0.32465 0.94931
 C2357 C 0.23629 0.31342 0.92603
 N2358 N 0.22782 0.29077 0.92296
 N2359 N 0.22881 0.28046 0.90193
 C2360 C 0.23813 0.29259 0.88330
 N2361 N 0.24604 0.31529 0.88639
 N2362 N 0.24521 0.32546 0.90728
 C2363 C 0.24091 0.28206 0.85995
 C2364 C 0.23667 0.25827 0.85395
 H2365 H 0.22497 0.31850 0.96303
 H2366 H 0.24798 0.29407 0.84670
 H2367 H 0.26852 0.34513 0.93968
 H2368 H 0.22878 0.24595 0.86650
 C2369 C 0.84781 0.46928 0.75972
 C2370 C 0.84271 0.45111 0.77572
 C2371 C 0.82641 0.43053 0.77129
 N2372 N 0.82172 0.41468 0.78852
 N2373 N 0.80786 0.39540 0.78490
 C2374 C 0.79814 0.39116 0.76383
 N2375 N 0.80275 0.40706 0.74657
 N2376 N 0.81661 0.42640 0.75022
 C2377 C 0.78367 0.36929 0.75926
 C2378 C 0.77841 0.35236 0.77640
 H2379 H 0.85073 0.45165 0.79259
 H2380 H 0.77778 0.36608 0.74170
 H2381 H 0.83817 0.46915 0.74364
 H2382 H 0.78407 0.35575 0.79402
 C2383 C 0.34371 0.97000 0.26105
 C2384 C 0.33854 0.95193 0.27707
 C2385 C 0.32288 0.93110 0.27220
 N2386 N 0.31912 0.91449 0.28887
 N2387 N 0.30611 0.89481 0.28464
 C2388 C 0.29633 0.89095 0.26354
 N2389 N 0.29991 0.90766 0.24688
 N2390 N 0.31296 0.92738 0.25111
 C2391 C 0.28306 0.86863 0.25828
 C2392 C 0.28062 0.85027 0.27433
 H2393 H 0.34644 0.95248 0.29400
 H2394 H 0.27621 0.86614 0.24096
 H2395 H 0.33412 0.96988 0.24494
 H2396 H 0.28763 0.85278 0.29159
 C2397 C 0.14816 0.94472 0.74253
 C2398 C 0.15512 0.92875 0.75931
 C2399 C 0.17256 0.91007 0.75538
 N2400 N 0.17544 0.89889 0.73449
 N2401 N 0.18934 0.88009 0.73242
 C2402 C 0.20086 0.87198 0.75116
 N2403 N 0.19819 0.88344 0.77181
 N2404 N 0.18417 0.90196 0.77392
 C2405 C 0.21527 0.85060 0.75027
 C2406 C 0.21441 0.83350 0.73257
 H2407 H 0.14856 0.93068 0.77706
 H2408 H 0.22537 0.84716 0.76563
 H2409 H 0.15789 0.94550 0.72600
 H2410 H 0.20423 0.83651 0.71717
 C2411 C 0.64566 0.45519 0.25530
 C2412 C 0.66113 0.44731 0.23758
 C2413 C 0.67414 0.42522 0.24063
 N2414 N 0.68118 0.41198 0.22197
 N2415 N 0.69170 0.39137 0.22491
 C2416 C 0.69569 0.38334 0.24662
 N2417 N 0.68904 0.39678 0.26519
 N2418 N 0.67838 0.41723 0.26226
 C2419 C 0.70698 0.36055 0.25053
 C2420 C 0.70988 0.34336 0.23318
 H2421 H 0.66214 0.45591 0.22087
 H2422 H 0.71241 0.35688 0.26803
 H2423 H 0.64356 0.44434 0.27070
 H2424 H 0.70360 0.34657 0.21588
 C2425 C 0.65236 0.53535 0.24615
 C2426 C 0.65661 0.55342 0.26259
 C2427 C 0.67193 0.57476 0.25867
 N2428 N 0.67521 0.59021 0.27660
 N2429 N 0.68720 0.61073 0.27344
 C2430 C 0.69634 0.61666 0.25213
 N2431 N 0.69327 0.60112 0.23417
 N2432 N 0.68125 0.58052 0.23735
 C2433 C 0.70837 0.63995 0.24816
 C2434 C 0.71125 0.65683 0.26594
 H2435 H 0.64801 0.55229 0.27964
 H2436 H 0.71440 0.64418 0.23059
 H2437 H 0.66371 0.53449 0.23062
 H2438 H 0.70564 0.65245 0.28359
 C2439 C 0.14314 0.02342 0.74761
 C2440 C 0.14537 0.04157 0.76432
 C2441 C 0.16121 0.06280 0.76147
 N2442 N 0.16264 0.07883 0.77916
 N2443 N 0.17631 0.09852 0.77702
 C2444 C 0.18908 0.10298 0.75704
 N2445 N 0.18771 0.08693 0.73933
 N2446 N 0.17404 0.06719 0.74148
 C2447 C 0.20378 0.12501 0.75420
 C2448 C 0.20600 0.14207 0.77188
 H2449 H 0.13529 0.04055 0.78058
 H2450 H 0.21279 0.12802 0.73752
 H2451 H 0.15440 0.02438 0.73200
 H2452 H 0.19723 0.13894 0.78865
 C2453 C 0.34887 0.05066 0.25956
 C2454 C 0.33608 0.05506 0.23961
 C2455 C 0.32145 0.07634 0.23905
 N2456 N 0.31833 0.08818 0.21895
 N2457 N 0.30652 0.10841 0.21913
 C2458 C 0.29731 0.11730 0.23942
 N2459 N 0.30004 0.10516 0.25928
 N2460 N 0.31193 0.08517 0.25913
 C2461 C 0.28501 0.13988 0.24097
 C2462 C 0.28428 0.15660 0.22328
 H2463 H 0.33821 0.04433 0.22406
 H2464 H 0.27711 0.14405 0.25787
 H2465 H 0.34837 0.06387 0.27336
 H2466 H 0.29176 0.15279 0.20613
 C2467 C 0.85049 0.55028 0.75869
 C2468 C 0.83896 0.55510 0.73806
 C2469 C 0.82453 0.57655 0.73683
 N2470 N 0.82173 0.58799 0.71643
 N2471 N 0.80990 0.60821 0.71597
 C2472 C 0.80036 0.61753 0.73592
 N2473 N 0.80282 0.60582 0.75609
 N2474 N 0.81470 0.58584 0.75657
 C2475 C 0.78777 0.64003 0.73688
 C2476 C 0.78644 0.65641 0.71888
 H2477 H 0.84201 0.54457 0.72252
 H2478 H 0.77985 0.64438 0.75373
 H2479 H 0.84911 0.56322 0.77267
 H2480 H 0.79382 0.65247 0.70173
 C2481 C 0.96295 0.74166 0.14058
 C2482 C 0.94120 0.75181 0.13569
 C2483 C 0.91988 0.74899 0.15090
 N2484 N 0.90006 0.76116 0.14623
 N2485 N 0.88093 0.76009 0.16054
 C2486 C 0.88096 0.74686 0.18007
 N2487 N 0.90071 0.73449 0.18466
 N2488 N 0.91990 0.73560 0.17035
 C2489 C 0.86007 0.74586 0.19604
 C2490 C 0.84016 0.75948 0.19248
 H2491 H 0.93962 0.76339 0.12106
 H2492 H 0.86032 0.73402 0.21071
 H2493 H 0.96341 0.72897 0.15452
 H2494 H 0.84004 0.77139 0.17786
 C2495 C 0.46180 0.25376 0.64002
 C2496 C 0.45496 0.23744 0.65715
 C2497 C 0.43258 0.24028 0.67089
 N2498 N 0.42545 0.22391 0.68694
 N2499 N 0.40439 0.22561 0.69829
 C2500 C 0.38972 0.24370 0.69393
 N2501 N 0.39694 0.26012 0.67803
 N2502 N 0.41798 0.25845 0.66675
 C2503 C 0.36586 0.24515 0.70509
 C2504 C 0.35768 0.22939 0.72216
 H2505 H 0.46493 0.22166 0.65974
 H2506 H 0.35420 0.25873 0.69926
 H2507 H 0.45146 0.26959 0.63871
 H2508 H 0.36963 0.21645 0.72875
 C2509 C 0.44970 0.74256 0.85589
 C2510 C 0.45203 0.73017 0.83497
 C2511 C 0.43008 0.72503 0.82208
 N2512 N 0.42805 0.73263 0.79994
 N2513 N 0.40680 0.73155 0.78975
 C2514 C 0.38694 0.72272 0.80135
 N2515 N 0.38919 0.71452 0.82319
 N2516 N 0.41030 0.71584 0.83344
 C2517 C 0.36291 0.72314 0.79158
 C2518 C 0.35734 0.73738 0.77296
 H2519 H 0.46945 0.72729 0.82683
 H2520 H 0.34862 0.71341 0.80085
 H2521 H 0.43186 0.74818 0.86105
 H2522 H 0.37145 0.74734 0.76370
 C2523 C 0.96587 0.25065 0.35168
 C2524 C 0.95112 0.26639 0.34078
 C2525 C 0.93160 0.25911 0.32556
 N2526 N 0.92163 0.27574 0.31244
 N2527 N 0.90140 0.27089 0.30140
 C2528 C 0.89015 0.24931 0.30330
 N2529 N 0.90026 0.23250 0.31620
 N2530 N 0.92068 0.23731 0.32715
 C2531 C 0.86639 0.24503 0.29334
 C2532 C 0.85691 0.26145 0.27855
 H2533 H 0.95306 0.28522 0.34430
 H2534 H 0.85580 0.22946 0.29856
 H2535 H 0.96802 0.23315 0.34420
 H2536 H 0.86822 0.27605 0.27210
 C2537 C 0.04243 0.26010 0.37477
 C2538 C 0.05073 0.24239 0.35994
 C2539 C 0.07516 0.24400 0.34969
 N2540 N 0.08154 0.22906 0.33221
 N2541 N 0.10323 0.23114 0.32201
 C2542 C 0.11935 0.24818 0.32894
 N2543 N 0.11311 0.26290 0.34666
 N2544 N 0.09139 0.26087 0.35682
 C2545 C 0.14294 0.25113 0.31712
 C2546 C 0.14803 0.23878 0.29667
 H2547 H 0.03911 0.22779 0.35456
 H2548 H 0.15610 0.26359 0.32417
 H2549 H 0.05473 0.27464 0.37912
 H2550 H 0.13444 0.22683 0.28954
 C2551 C 0.53182 0.76574 0.85280
 C2552 C 0.54175 0.74751 0.83963
 C2553 C 0.56661 0.74962 0.83036
 N2554 N 0.57634 0.73116 0.81871
 N2555 N 0.59915 0.73243 0.81117
 C2556 C 0.61316 0.75214 0.81512
 N2557 N 0.60344 0.77062 0.82679
 N2558 N 0.58060 0.76936 0.83431
 C2559 C 0.63824 0.75379 0.80640
 C2560 C 0.64747 0.73604 0.79222
 H2561 H 0.53226 0.73067 0.83754
 H2562 H 0.64900 0.76968 0.80994
 H2563 H 0.54207 0.78232 0.85412
 H2564 H 0.63611 0.72073 0.78802
 C2565 C 0.54014 0.23423 0.63297
 C2566 C 0.56113 0.24831 0.63413
 C2567 C 0.58022 0.24415 0.65032
 N2568 N 0.59370 0.26291 0.65785
 N2569 N 0.61177 0.25982 0.67195
 C2570 C 0.61728 0.23780 0.67877
 N2571 N 0.60400 0.21890 0.67100
 N2572 N 0.58562 0.22203 0.65709
 C2573 C 0.63766 0.23481 0.69388
 C2574 C 0.64399 0.25285 0.70935
 H2575 H 0.56287 0.26471 0.62463
 H2576 H 0.64787 0.21885 0.69258
 H2577 H 0.53719 0.21992 0.64520
 H2578 H 0.63200 0.26738 0.71223
 C2579 C 0.03835 0.75748 0.16287
 C2580 C 0.04244 0.73773 0.17630
 C2581 C 0.06200 0.73905 0.19277
 N2582 N 0.07784 0.72137 0.19322
 N2583 N 0.09800 0.72410 0.20498
 C2584 C 0.10290 0.74450 0.21687
 N2585 N 0.08661 0.76180 0.21718
 N2586 N 0.06659 0.75920 0.20518
 C2587 C 0.12631 0.74886 0.22733
 C2588 C 0.14681 0.73905 0.21741
 H2589 H 0.03521 0.72041 0.17159
 H2590 H 0.12786 0.76197 0.24112
 H2591 H 0.04838 0.77377 0.16672
 H2592 H 0.14522 0.72746 0.20237
   
