data_POSCAR
  _audit_creation_date              2014-09-24
  _audit_creation_method            'ToBaCCo'
  _symmetry_space_group_name_H-M    'P1'
  _symmetry_Int_Tables_number       1
  _symmetry_cell_setting            triclinic
  loop_
  _symmetry_equiv_pos_as_xyz
 x,y,z
_cell_length_a 80.2327
_cell_length_b 80.4572
_cell_length_c 80.4666
_cell_angle_alpha 90.116600
_cell_angle_beta 90.036000
_cell_angle_gamma 89.853900
loop_
  _atom_site_label
  _atom_site_type_symbol
  _atom_site_fract_x
  _atom_site_fract_y
  _atom_site_fract_z
N1 N 0.36030 0.31130 0.32690
 N2 N 0.35974 0.32253 0.31505
 C3 C 0.37196 0.31914 0.30394
 C4 C 0.38036 0.30500 0.30928
 C5 C 0.37261 0.30046 0.32377
 H6 H 0.37433 0.32616 0.29274
 H7 H 0.37566 0.28983 0.33140
 Cu8 Cu 0.34255 0.33995 0.31541
 Cu9 Cu 0.34504 0.31080 0.34543
 Cu10 Cu 0.31248 0.33862 0.34506
 N11 N 0.32348 0.35527 0.31537
 N12 N 0.31171 0.35417 0.32670
 C13 C 0.30012 0.36591 0.32393
 C14 C 0.30479 0.37499 0.31025
 C15 C 0.31970 0.36795 0.30502
 H16 H 0.28920 0.36797 0.33154
 H17 H 0.32722 0.37177 0.29456
 N18 N 0.31551 0.32205 0.36273
 N19 N 0.32845 0.31194 0.36318
 C20 C 0.32777 0.30280 0.37714
 C21 C 0.31363 0.30723 0.38577
 C22 C 0.30607 0.31946 0.37634
 H23 H 0.33679 0.29349 0.38078
 H24 H 0.29482 0.32622 0.37938
 H25 H 0.32555 0.32106 0.33178
 H26 H 0.33791 0.33572 0.34509
 N27 N 0.35894 0.81248 -0.16780
 N28 N 0.36063 0.82332 -0.17989
 C29 C 0.37391 0.81908 -0.18922
 C30 C 0.38102 0.80489 -0.18250
 C31 C 0.37121 0.80107 -0.16892
 H32 H 0.37820 0.82598 -0.19989
 H33 H 0.37287 0.79074 -0.16050
 Cu34 Cu 0.34568 0.84225 -0.18201
 Cu35 Cu 0.34093 0.81402 -0.15154
 Cu36 Cu 0.31349 0.84713 -0.15587
 N37 N 0.33026 0.86080 -0.18422
 N38 N 0.31737 0.86229 -0.17425
 C39 C 0.30851 0.87583 -0.17856
 C40 C 0.31640 0.88334 -0.19188
 C41 C 0.33018 0.87351 -0.19510
 H42 H 0.29740 0.88001 -0.17221
 H43 H 0.33935 0.87545 -0.20475
 N44 N 0.31161 0.83057 -0.13802
 N45 N 0.32187 0.81782 -0.13640
 C46 C 0.31743 0.80904 -0.12284
 C47 C 0.30382 0.81679 -0.11558
 C48 C 0.30052 0.83035 -0.12548
 H49 H 0.32390 0.79816 -0.11830
 H50 H 0.29084 0.83951 -0.12349
 H51 H 0.32465 0.82661 -0.16685
 H52 H 0.33800 0.83947 -0.15283
 N53 N 0.85696 0.31004 -0.17792
 N54 N 0.85628 0.32159 -0.18943
 C55 C 0.86833 0.31854 -0.20078
 C56 C 0.87671 0.30422 -0.19603
 C57 C 0.86915 0.29920 -0.18158
 H58 H 0.87054 0.32586 -0.21182
 H59 H 0.87231 0.28835 -0.17430
 Cu60 Cu 0.83901 0.33878 -0.18847
 Cu61 Cu 0.84212 0.30949 -0.15900
 Cu62 Cu 0.81138 0.33954 -0.15671
 N63 N 0.82157 0.35571 -0.18703
 N64 N 0.81109 0.35604 -0.17445
 C65 C 0.80080 0.36917 -0.17613
 C66 C 0.80490 0.37744 -0.19058
 C67 C 0.81814 0.36855 -0.19726
 H68 H 0.79103 0.37249 -0.16747
 H69 H 0.82495 0.37136 -0.20848
 N70 N 0.81391 0.32173 -0.13999
 N71 N 0.82608 0.31069 -0.14072
 C72 C 0.82524 0.30071 -0.12739
 C73 C 0.81180 0.30545 -0.11792
 C74 C 0.80478 0.31883 -0.12620
 H75 H 0.83372 0.29059 -0.12472
 H76 H 0.79412 0.32608 -0.12228
 H77 H 0.82207 0.32106 -0.17070
 H78 H 0.83640 0.33476 -0.15856
 N79 N 0.86096 0.81448 0.33081
 N80 N 0.85875 0.82358 0.31742
 C81 C 0.87185 0.82120 0.30711
 C82 C 0.88276 0.81016 0.31470
 C83 C 0.87549 0.80627 0.32964
 H84 H 0.87354 0.82736 0.29530
 H85 H 0.88047 0.79800 0.33900
 Cu86 Cu 0.83938 0.83834 0.31542
 Cu87 Cu 0.84499 0.81344 0.34877
 Cu88 Cu 0.81311 0.84195 0.34829
 N89 N 0.82301 0.85636 0.31711
 N90 N 0.81324 0.85782 0.33017
 C91 C 0.80395 0.87165 0.32869
 C92 C 0.80790 0.87926 0.31388
 C93 C 0.82005 0.86921 0.30673
 H94 H 0.79497 0.87595 0.33777
 H95 H 0.82658 0.87130 0.29518
 N96 N 0.81517 0.82481 0.36558
 N97 N 0.82762 0.81409 0.36587
 C98 C 0.82627 0.80453 0.37950
 C99 C 0.81226 0.80940 0.38814
 C100 C 0.80545 0.82228 0.37899
 H101 H 0.83489 0.79481 0.38302
 H102 H 0.79454 0.82955 0.38209
 H103 H 0.82416 0.82223 0.33608
 H104 H 0.83835 0.83821 0.34555
 N105 N 0.64748 0.69042 0.32695
 N106 N 0.64647 0.67846 0.31581
 C107 C 0.63393 0.68200 0.30518
 C108 C 0.62688 0.69700 0.30997
 C109 C 0.63581 0.70199 0.32371
 H110 H 0.63020 0.67427 0.29483
 H111 H 0.63368 0.71306 0.33106
 Cu112 Cu 0.66157 0.65940 0.31674
 Cu113 Cu 0.66295 0.68990 0.34559
 Cu114 Cu 0.68917 0.65588 0.34787
 N115 N 0.67733 0.64083 0.31763
 N116 N 0.68756 0.63948 0.33033
 C117 C 0.69630 0.62532 0.32899
 C118 C 0.69155 0.61740 0.31463
 C119 C 0.67947 0.62752 0.30756
 H120 H 0.70546 0.62099 0.33786
 H121 H 0.67244 0.62508 0.29635
 N122 N 0.68918 0.67371 0.36447
 N123 N 0.67946 0.68692 0.36352
 C124 C 0.68249 0.69682 0.37673
 C125 C 0.69466 0.68933 0.38637
 C126 C 0.69856 0.67477 0.37828
 H127 H 0.67612 0.70839 0.37930
 H128 H 0.70759 0.66560 0.38227
 H129 H 0.68063 0.67571 0.33374
 H130 H 0.66478 0.66447 0.34647
 N131 N 0.63713 0.18797 -0.17927
 N132 N 0.63616 0.17433 -0.18819
 C133 C 0.62275 0.17522 -0.19819
 C134 C 0.61491 0.19023 -0.19537
 C135 C 0.62435 0.19807 -0.18327
 H136 H 0.61884 0.16560 -0.20674
 H137 H 0.62187 0.20996 -0.17749
 Cu138 Cu 0.65203 0.15643 -0.18545
 Cu139 Cu 0.65427 0.19095 -0.16243
 Cu140 Cu 0.68551 0.16098 -0.16059
 N141 N 0.67095 0.14164 -0.18685
 N142 N 0.68411 0.14316 -0.17722
 C143 C 0.69501 0.13084 -0.18088
 C144 C 0.68809 0.12121 -0.19346
 C145 C 0.67293 0.12847 -0.19691
 H146 H 0.70685 0.12895 -0.17473
 H147 H 0.66394 0.12436 -0.20605
 N148 N 0.68430 0.18019 -0.14512
 N149 N 0.67258 0.19171 -0.14621
 C150 C 0.67483 0.20301 -0.13410
 C151 C 0.68849 0.19841 -0.12483
 C152 C 0.69428 0.18388 -0.13212
 H153 H 0.66689 0.21365 -0.13185
 H154 H 0.70485 0.17650 -0.12819
 H155 H 0.67183 0.17680 -0.17528
 H156 H 0.66049 0.16616 -0.15804
 N157 N 0.13948 0.68251 -0.16960
 N158 N 0.14004 0.67053 -0.18074
 C159 C 0.12645 0.67147 -0.19049
 C160 C 0.11698 0.68481 -0.18535
 C161 C 0.12557 0.69163 -0.17207
 H162 H 0.12348 0.66298 -0.20049
 H163 H 0.12166 0.70195 -0.16437
 Cu164 Cu 0.15828 0.65469 -0.18144
 Cu165 Cu 0.15582 0.68409 -0.15162
 Cu166 Cu 0.18746 0.65454 -0.15176
 N167 N 0.17642 0.63868 -0.18172
 N168 N 0.18794 0.63888 -0.17011
 C169 C 0.19930 0.62700 -0.17335
 C170 C 0.19460 0.61887 -0.18768
 C171 C 0.18001 0.62656 -0.19272
 H172 H 0.21023 0.62447 -0.16588
 H173 H 0.17275 0.62374 -0.20368
 N174 N 0.18503 0.67137 -0.13427
 N175 N 0.17350 0.68311 -0.13446
 C176 C 0.17532 0.69264 -0.12075
 C177 C 0.18850 0.68638 -0.11156
 C178 C 0.19430 0.67295 -0.12044
 H179 H 0.16731 0.70293 -0.11738
 H180 H 0.20449 0.66487 -0.11693
 H181 H 0.17515 0.67335 -0.16449
 H182 H 0.16187 0.65926 -0.15174
 N183 N 0.13896 0.18887 0.32400
 N184 N 0.13801 0.17791 0.31191
 C185 C 0.12520 0.18206 0.30185
 C186 C 0.11788 0.19639 0.30810
 C187 C 0.12692 0.20032 0.32209
 H188 H 0.12160 0.17530 0.29079
 H189 H 0.12488 0.21084 0.33023
 Cu190 Cu 0.15391 0.15955 0.31058
 Cu191 Cu 0.15564 0.18773 0.34129
 Cu192 Cu 0.18578 0.15710 0.33820
 N193 N 0.17112 0.14251 0.30897
 N194 N 0.18374 0.14185 0.31940
 C195 C 0.19351 0.12877 0.31542
 C196 C 0.18657 0.12084 0.30180
 C197 C 0.17242 0.12985 0.29807
 H198 H 0.20450 0.12504 0.32225
 H199 H 0.16362 0.12720 0.28823
 N200 N 0.18536 0.17370 0.35637
 N201 N 0.17338 0.18489 0.35770
 C202 C 0.17529 0.19334 0.37197
 C203 C 0.18920 0.18740 0.37996
 C204 C 0.19542 0.17495 0.36979
 H205 H 0.16701 0.20296 0.37648
 H206 H 0.20593 0.16692 0.37237
 H207 H 0.17363 0.17619 0.32646
 H208 H 0.16085 0.16227 0.33998
 N209 N 0.64045 0.30935 0.67265
 N210 N 0.64051 0.32025 0.68485
 C211 C 0.62842 0.31635 0.69576
 C212 C 0.62042 0.30224 0.69002
 C213 C 0.62840 0.29810 0.67541
 H214 H 0.62579 0.32310 0.70709
 H215 H 0.62559 0.28770 0.66736
 Cu216 Cu 0.65690 0.33794 0.68506
 Cu217 Cu 0.65600 0.31051 0.65408
 Cu218 Cu 0.68658 0.34109 0.65604
 N219 N 0.67437 0.35444 0.68708
 N220 N 0.68584 0.35580 0.67549
 C221 C 0.69627 0.36825 0.67960
 C222 C 0.69106 0.37489 0.69463
 C223 C 0.67724 0.36578 0.69906
 H224 H 0.70691 0.37201 0.67231
 H225 H 0.66980 0.36743 0.71014
 N226 N 0.68487 0.32490 0.63752
 N227 N 0.67286 0.31371 0.63662
 C228 C 0.67435 0.30525 0.62227
 C229 C 0.68802 0.31115 0.61386
 C230 C 0.69449 0.32360 0.62382
 H231 H 0.66612 0.29545 0.61816
 H232 H 0.70509 0.33139 0.62107
 H233 H 0.67516 0.32136 0.66755
 H234 H 0.66162 0.33561 0.65526
 N235 N 0.64079 0.81630 1.18001
 N236 N 0.64268 0.82898 1.19017
 C237 C 0.63031 0.82881 1.20150
 C238 C 0.62031 0.81522 1.19835
 C239 C 0.62727 0.80758 1.18458
 H240 H 0.62875 0.83775 1.21143
 H241 H 0.62279 0.79660 1.17825
 Cu242 Cu 0.66145 0.84404 1.18771
 Cu243 Cu 0.65570 0.81215 1.16137
 Cu244 Cu 0.68916 0.83898 1.15689
 N245 N 0.68016 0.85914 1.18508
 N246 N 0.69108 0.85691 1.17309
 C247 C 0.70287 0.86872 1.17415
 C248 C 0.69917 0.87889 1.18748
 C249 C 0.68464 0.87250 1.19416
 H250 H 0.71342 0.86985 1.16587
 H251 H 0.67796 0.87708 1.20489
 N252 N 0.68502 0.82014 1.14176
 N253 N 0.67216 0.81006 1.14332
 C254 C 0.67234 0.79903 1.13069
 C255 C 0.68599 0.80227 1.12082
 C256 C 0.69376 0.81573 1.12817
 H257 H 0.66315 0.78944 1.12867
 H258 H 0.70472 0.82211 1.12373
 H259 H 0.67648 0.82273 1.17214
 H260 H 0.66358 0.83640 1.15847
 N261 N 0.14258 0.31439 1.16896
 N262 N 0.14312 0.32492 1.18147
 C263 C 0.12948 0.32269 1.19103
 C264 C 0.11992 0.31021 1.18393
 C265 C 0.12858 0.30531 1.16996
 H266 H 0.12655 0.32985 1.20204
 H267 H 0.12499 0.29576 1.16118
 Cu268 Cu 0.16142 0.34085 1.18364
 Cu269 Cu 0.16038 0.31256 1.15270
 Cu270 Cu 0.18390 0.34804 1.14885
 N271 N 0.17702 0.35947 1.18208
 N272 N 0.18535 0.36223 1.16828
 C273 C 0.19421 0.37626 1.16989
 C274 C 0.19147 0.38268 1.18552
 C275 C 0.18050 0.37173 1.19305
 H276 H 0.20196 0.38158 1.16030
 H277 H 0.17498 0.37294 1.20526
 N278 N 0.18441 0.32997 1.13235
 N279 N 0.17564 0.31623 1.13399
 C280 C 0.17887 0.30610 1.12104
 C281 C 0.19031 0.31387 1.11080
 C282 C 0.19352 0.32895 1.11833
 H283 H 0.17319 0.29407 1.11918
 H284 H 0.20204 0.33838 1.11399
 H285 H 0.17934 0.32748 1.16289
 H286 H 0.16057 0.33771 1.15353
 N287 N 0.13694 0.81213 0.67685
 N288 N 0.13512 0.82644 0.68453
 C289 C 0.12168 0.82578 0.69446
 C290 C 0.11473 0.81020 0.69299
 C291 C 0.12470 0.80178 0.68171
 H292 H 0.11720 0.83591 0.70211
 H293 H 0.12291 0.78932 0.67700
 Cu294 Cu 0.15024 0.84472 0.68084
 Cu295 Cu 0.15428 0.80879 0.66025
 Cu296 Cu 0.18523 0.83873 0.65836
 N297 N 0.16910 0.85945 0.68260
 N298 N 0.18298 0.85714 0.67421
 C299 C 0.19367 0.86954 0.67797
 C300 C 0.18589 0.88004 0.68928
 C301 C 0.17041 0.87324 0.69189
 H302 H 0.20592 0.87104 0.67258
 H303 H 0.16073 0.87810 0.69991
 N304 N 0.18468 0.81908 0.64346
 N305 N 0.17277 0.80780 0.64424
 C306 C 0.17476 0.79686 0.63174
 C307 C 0.18857 0.80135 0.62267
 C308 C 0.19466 0.81548 0.63042
 H309 H 0.16640 0.78670 0.62898
 H310 H 0.20503 0.82302 0.62640
 H311 H 0.17081 0.82400 0.67331
 H312 H 0.16040 0.83349 0.65472
 N313 N 0.36264 0.68726 0.67410
 N314 N 0.36368 0.67492 0.68475
 C315 C 0.37791 0.67630 0.69345
 C316 C 0.38614 0.69034 0.68824
 C317 C 0.37614 0.69710 0.67591
 H318 H 0.38205 0.66780 0.70300
 H319 H 0.37868 0.70806 0.66858
 Cu320 Cu 0.34639 0.65823 0.68643
 Cu321 Cu 0.34415 0.68892 0.65826
 Cu322 Cu 0.31300 0.65903 0.66154
 N323 N 0.32906 0.64157 0.68822
 N324 N 0.31579 0.64209 0.67865
 C325 C 0.30577 0.62922 0.68244
 C326 C 0.31328 0.62017 0.69501
 C327 C 0.32802 0.62830 0.69831
 H328 H 0.29412 0.62648 0.67626
 H329 H 0.33727 0.62472 0.70741
 N330 N 0.31247 0.67707 0.64499
 N331 N 0.32440 0.68827 0.64345
 C332 C 0.32062 0.69835 0.63057
 C333 C 0.30559 0.69324 0.62384
 C334 C 0.30079 0.67983 0.63331
 H335 H 0.32818 0.70865 0.62645
 H336 H 0.28966 0.67248 0.63157
 H337 H 0.32687 0.67735 0.67316
 H338 H 0.33811 0.66399 0.65786
 N339 N 0.36178 0.18232 1.17018
 N340 N 0.36011 0.17248 1.18311
 C341 C 0.37341 0.17450 1.19321
 C342 C 0.38389 0.18606 1.18598
 C343 C 0.37619 0.19067 1.17143
 H344 H 0.37552 0.16780 1.20466
 H345 H 0.38073 0.19958 1.16248
 Cu346 Cu 0.34112 0.15744 1.18466
 Cu347 Cu 0.34512 0.18421 1.15285
 Cu348 Cu 0.31044 0.15905 1.15603
 N349 N 0.32192 0.14265 1.18571
 N350 N 0.30984 0.14376 1.17470
 C351 C 0.29815 0.13233 1.17811
 C352 C 0.30320 0.12345 1.19185
 C353 C 0.31835 0.13028 1.19643
 H354 H 0.28694 0.13033 1.17092
 H355 H 0.32615 0.12653 1.20672
 N356 N 0.31345 0.17524 1.13797
 N357 N 0.32692 0.18451 1.13656
 C358 C 0.32574 0.19368 1.12263
 C359 C 0.31082 0.19008 1.11498
 C360 C 0.30329 0.17834 1.12499
 H361 H 0.33505 0.20233 1.11828
 H362 H 0.29152 0.17223 1.12279
 H363 H 0.32526 0.17664 1.16737
 H364 H 0.33607 0.16021 1.15491
 N365 N 0.85807 0.69024 1.17257
 N366 N 0.85902 0.67874 1.18415
 C367 C 0.87230 0.68208 1.19398
 C368 C 0.87989 0.69641 1.18810
 C369 C 0.87053 0.70116 1.17459
 H370 H 0.87598 0.67483 1.20468
 H371 H 0.87264 0.71191 1.16683
 Cu372 Cu 0.84211 0.66115 1.18538
 Cu373 Cu 0.84089 0.69073 1.15559
 Cu374 Cu 0.81347 0.65784 1.15488
 N375 N 0.82480 0.64390 1.18583
 N376 N 0.81361 0.64319 1.17390
 C377 C 0.80288 0.63082 1.17697
 C378 C 0.80746 0.62320 1.19155
 C379 C 0.82149 0.63176 1.19697
 H380 H 0.79242 0.62756 1.16913
 H381 H 0.82858 0.62944 1.20816
 N382 N 0.81228 0.67630 1.13910
 N383 N 0.82271 0.68893 1.13930
 C384 C 0.81849 0.69957 1.12707
 C385 C 0.80466 0.69330 1.11895
 C386 C 0.80102 0.67863 1.12692
 H387 H 0.82482 0.71111 1.12444
 H388 H 0.79083 0.67032 1.12410
 H389 H 0.82297 0.67745 1.16849
 H390 H 0.83840 0.66561 1.15559
 N391 N 0.86018 0.18594 0.67403
 N392 N 0.85933 0.17310 0.68406
 C393 C 0.87165 0.17416 0.69538
 C394 C 0.88060 0.18847 0.69233
 C395 C 0.87299 0.19567 0.67868
 H396 H 0.87404 0.16515 0.70506
 H397 H 0.87674 0.20688 0.67233
 Cu398 Cu 0.84247 0.15600 0.68128
 Cu399 Cu 0.84519 0.18856 0.65521
 Cu400 Cu 0.81180 0.16159 0.65303
 N401 N 0.82239 0.14253 0.68130
 N402 N 0.81032 0.14494 0.67051
 C403 C 0.79799 0.13404 0.67351
 C404 C 0.80263 0.12423 0.68680
 C405 C 0.81818 0.12996 0.69149
 H406 H 0.78654 0.13316 0.66645
 H407 H 0.82580 0.12549 0.70163
 N408 N 0.81569 0.17921 0.63648
 N409 N 0.82870 0.18920 0.63712
 C410 C 0.82857 0.19911 0.62365
 C411 C 0.81475 0.19531 0.61420
 C412 C 0.80681 0.18265 0.62266
 H413 H 0.83790 0.20835 0.62080
 H414 H 0.79573 0.17608 0.61877
 H415 H 0.82573 0.17725 0.66783
 H416 H 0.83741 0.16406 0.65251
 N417 N 0.30594 0.35812 0.66836
 N418 N 0.31710 0.36048 0.68008
 C419 C 0.31273 0.37390 0.68913
 C420 C 0.29805 0.38021 0.68268
 C421 C 0.29408 0.36991 0.66955
 H422 H 0.31970 0.37866 0.69959
 H423 H 0.28342 0.37102 0.66140
 Cu424 Cu 0.33619 0.34582 0.68241
 Cu425 Cu 0.30786 0.34027 0.65216
 Cu426 Cu 0.34230 0.31435 0.65550
 N427 N 0.35549 0.33134 0.68401
 N428 N 0.35762 0.31882 0.67371
 C429 C 0.37175 0.31071 0.67773
 C430 C 0.37885 0.31870 0.69122
 C431 C 0.36829 0.33174 0.69484
 H432 H 0.37661 0.30002 0.67115
 H433 H 0.36984 0.34078 0.70467
 N434 N 0.32535 0.31193 0.63796
 N435 N 0.31205 0.32157 0.63694
 C436 C 0.30294 0.31693 0.62367
 C437 C 0.31098 0.30383 0.61594
 C438 C 0.32514 0.30101 0.62524
 H439 H 0.29161 0.32298 0.61961
 H440 H 0.33464 0.29177 0.62278
 H441 H 0.32151 0.32425 0.66694
 H442 H 0.33360 0.33845 0.65315
 N443 N 0.31696 0.85796 0.17849
 N444 N 0.33010 0.85785 0.18828
 C445 C 0.32949 0.87121 0.19835
 C446 C 0.31525 0.88015 0.19474
 C447 C 0.30752 0.87139 0.18208
 H448 H 0.33870 0.87429 0.20767
 H449 H 0.29604 0.87463 0.17581
 Cu450 Cu 0.34676 0.84022 0.18739
 Cu451 Cu 0.31326 0.84082 0.16167
 Cu452 Cu 0.34165 0.80841 0.16081
 N453 N 0.36208 0.82136 0.18701
 N454 N 0.35985 0.80899 0.17657
 C455 C 0.37183 0.79753 0.17888
 C456 C 0.38215 0.80294 0.19142
 C457 C 0.37564 0.81811 0.19642
 H458 H 0.37296 0.78603 0.17199
 H459 H 0.38035 0.82613 0.20613
 N460 N 0.32258 0.80973 0.14571
 N461 N 0.31184 0.82218 0.14565
 C462 C 0.30045 0.81942 0.13358
 C463 C 0.30430 0.80447 0.12591
 C464 C 0.31828 0.79870 0.13392
 H465 H 0.29006 0.82752 0.13075
 H466 H 0.32487 0.78727 0.13121
 H467 H 0.32527 0.82274 0.17510
 H468 H 0.33775 0.83402 0.15907
 N469 N 0.81341 0.36274 0.17339
 N470 N 0.82345 0.36032 0.18607
 C471 C 0.82195 0.37324 0.19671
 C472 C 0.81040 0.38425 0.19014
 C473 C 0.80532 0.37723 0.17538
 H474 H 0.82893 0.37467 0.20812
 H475 H 0.79622 0.38226 0.16683
 Cu476 Cu 0.83795 0.34085 0.18700
 Cu477 Cu 0.81061 0.34665 0.15568
 Cu478 Cu 0.83481 0.31113 0.15751
 N479 N 0.85485 0.32358 0.18436
 N480 N 0.85345 0.31198 0.17291
 C481 C 0.86622 0.30123 0.17433
 C482 C 0.87625 0.30639 0.18727
 C483 C 0.86871 0.32065 0.19339
 H484 H 0.86800 0.29032 0.16665
 H485 H 0.87275 0.32811 0.20383
 N486 N 0.81842 0.31521 0.13974
 N487 N 0.80936 0.32889 0.13901
 C488 C 0.79910 0.32798 0.12581
 C489 C 0.80190 0.31310 0.11779
 C490 C 0.81428 0.30527 0.12689
 H491 H 0.79001 0.33730 0.12237
 H492 H 0.81965 0.29316 0.12453
 H493 H 0.81749 0.32635 0.16945
 H494 H 0.83447 0.33651 0.15729
 N495 N 0.81375 0.85978 0.67949
 N496 N 0.82499 0.85957 0.69140
 C497 C 0.82312 0.87312 0.70099
 C498 C 0.80990 0.88223 0.69499
 C499 C 0.80414 0.87346 0.68130
 H500 H 0.83097 0.87634 0.71144
 H501 H 0.79420 0.87706 0.67296
 Cu502 Cu 0.84136 0.84200 0.69289
 Cu503 Cu 0.81372 0.84298 0.66177
 Cu504 Cu 0.84419 0.81202 0.66467
 N505 N 0.86024 0.82700 0.69278
 N506 N 0.86127 0.81503 0.68168
 C507 C 0.87487 0.80572 0.68487
 C508 C 0.88274 0.81234 0.69871
 C509 C 0.87319 0.82584 0.70333
 H510 H 0.87846 0.79479 0.67790
 H511 H 0.87530 0.83390 0.71389
 N512 N 0.82813 0.81341 0.64617
 N513 N 0.81621 0.82477 0.64528
 C514 C 0.80730 0.82215 0.63131
 C515 C 0.81410 0.80868 0.62301
 C516 C 0.82729 0.80353 0.63269
 H517 H 0.79695 0.82975 0.62722
 H518 H 0.83567 0.79332 0.63003
 H519 H 0.82392 0.82423 0.67533
 H520 H 0.83885 0.83711 0.66331
 N521 N 0.68857 0.64091 0.67375
 N522 N 0.67775 0.63866 0.68582
 C523 C 0.68146 0.62434 0.69374
 C524 C 0.69526 0.61732 0.68610
 C525 C 0.69937 0.62810 0.67346
 H526 H 0.67450 0.61927 0.70405
 H527 H 0.70957 0.62678 0.66477
 Cu528 Cu 0.65957 0.65450 0.68917
 Cu529 Cu 0.68838 0.66065 0.65976
 Cu530 Cu 0.65499 0.68765 0.66432
 N531 N 0.64137 0.67030 0.69251
 N532 N 0.63993 0.68336 0.68281
 C533 C 0.62646 0.69222 0.68736
 C534 C 0.61891 0.68424 0.70054
 C535 C 0.62862 0.67031 0.70345
 H536 H 0.62219 0.70337 0.68118
 H537 H 0.62645 0.66089 0.71277
 N538 N 0.67164 0.68981 0.64646
 N539 N 0.68433 0.67948 0.64463
 C540 C 0.69336 0.68420 0.63134
 C541 C 0.68599 0.69821 0.62459
 C542 C 0.67232 0.70141 0.63446
 H543 H 0.70450 0.67799 0.62702
 H544 H 0.66354 0.71151 0.63295
 H545 H 0.67504 0.67655 0.67526
 H546 H 0.66286 0.66339 0.66053
 N547 N 0.68478 0.13629 0.17884
 N548 N 0.67204 0.13790 0.18899
 C549 C 0.67238 0.12540 0.20012
 C550 C 0.68613 0.11558 0.19684
 C551 C 0.69373 0.12281 0.18323
 H552 H 0.66345 0.12363 0.21001
 H553 H 0.70481 0.11854 0.17687
 Cu554 Cu 0.65680 0.15661 0.18683
 Cu555 Cu 0.68870 0.15161 0.16051
 Cu556 Cu 0.66184 0.18542 0.15720
 N557 N 0.64167 0.17543 0.18503
 N558 N 0.64395 0.18689 0.17363
 C559 C 0.63216 0.19872 0.17535
 C560 C 0.62194 0.19441 0.18845
 C561 C 0.62834 0.17956 0.19435
 H562 H 0.63106 0.20966 0.16762
 H563 H 0.62379 0.17243 0.20476
 N564 N 0.68064 0.18153 0.14179
 N565 N 0.69058 0.16846 0.14285
 C566 C 0.70135 0.16868 0.13003
 C567 C 0.69816 0.18258 0.12055
 C568 C 0.68497 0.19049 0.12833
 H569 H 0.71072 0.15931 0.12756
 H570 H 0.67863 0.20160 0.12417
 H571 H 0.67810 0.17212 0.17191
 H572 H 0.66440 0.15992 0.15772
 N573 N 0.18414 0.63553 0.17561
 N574 N 0.17246 0.63659 0.18701
 C575 C 0.17268 0.62283 0.19644
 C576 C 0.18536 0.61268 0.19089
 C577 C 0.19245 0.62107 0.17762
 H578 H 0.16437 0.62044 0.20673
 H579 H 0.20264 0.61688 0.16987
 Cu580 Cu 0.15849 0.65605 0.18873
 Cu581 Cu 0.18682 0.65283 0.15867
 Cu582 Cu 0.15830 0.68575 0.15972
 N583 N 0.14088 0.67234 0.18785
 N584 N 0.14106 0.68456 0.17703
 C585 C 0.12741 0.69414 0.17947
 C586 C 0.11827 0.68727 0.19236
 C587 C 0.12711 0.67346 0.19726
 H588 H 0.12409 0.70485 0.17205
 H589 H 0.12369 0.66480 0.20694
 N590 N 0.17667 0.68417 0.14324
 N591 N 0.18725 0.67155 0.14273
 C592 C 0.19752 0.67353 0.12965
 C593 C 0.19331 0.68807 0.12160
 C594 C 0.18006 0.69455 0.13053
 H595 H 0.20722 0.66491 0.12601
 H596 H 0.17307 0.70568 0.12767
 H597 H 0.17704 0.67284 0.17159
 H598 H 0.16207 0.66036 0.15909
 N599 N 0.19158 0.14215 0.67458
 N600 N 0.18007 0.13967 0.68591
 C601 C 0.18403 0.12602 0.69472
 C602 C 0.19888 0.11970 0.68863
 C603 C 0.20334 0.13025 0.67588
 H604 H 0.17690 0.12132 0.70508
 H605 H 0.21442 0.12944 0.66826
 Cu606 Cu 0.16159 0.15506 0.68878
 Cu607 Cu 0.19075 0.16100 0.65950
 Cu608 Cu 0.15498 0.18527 0.66069
 N609 N 0.14273 0.17014 0.69062
 N610 N 0.14009 0.18172 0.67942
 C611 C 0.12640 0.19045 0.68361
 C612 C 0.12015 0.18399 0.69826
 C613 C 0.13080 0.17113 0.70235
 H614 H 0.12162 0.20091 0.67666
 H615 H 0.12994 0.16322 0.71316
 N616 N 0.17177 0.18701 0.64295
 N617 N 0.18546 0.17788 0.64259
 C618 C 0.19451 0.18213 0.62918
 C619 C 0.18614 0.19461 0.62080
 C620 C 0.17182 0.19740 0.62986
 H621 H 0.20636 0.17663 0.62588
 H622 H 0.16224 0.20647 0.62713
 H623 H 0.17554 0.17707 0.67318
 H624 H 0.16509 0.16144 0.65952
 N625 N 0.31873 0.63782 0.32322
 N626 N 0.33137 0.63974 0.31301
 C627 C 0.33146 0.62713 0.30197
 C628 C 0.31816 0.61686 0.30539
 C629 C 0.31031 0.62398 0.31898
 H630 H 0.34059 0.62541 0.29224
 H631 H 0.29953 0.61929 0.32550
 Cu632 Cu 0.34647 0.65845 0.31541
 Cu633 Cu 0.31472 0.65287 0.34189
 Cu634 Cu 0.34200 0.68608 0.34632
 N635 N 0.36170 0.67705 0.31783
 N636 N 0.36008 0.68762 0.33022
 C637 C 0.37273 0.69858 0.32976
 C638 C 0.38260 0.69484 0.31621
 C639 C 0.37525 0.68113 0.30889
 H640 H 0.37468 0.70851 0.33864
 H641 H 0.37981 0.67426 0.29826
 N642 N 0.32292 0.68236 0.36131
 N643 N 0.31280 0.66950 0.35991
 C644 C 0.30175 0.66992 0.37253
 C645 C 0.30494 0.68378 0.38214
 C646 C 0.31843 0.69139 0.37470
 H647 H 0.29212 0.66080 0.37467
 H648 H 0.32480 0.70240 0.37903
 H649 H 0.32537 0.67358 0.33122
 H650 H 0.33908 0.66061 0.34472
 N651 N 0.31377 0.13737 0.82364
 N652 N 0.32688 0.13577 0.81396
 C653 C 0.32559 0.12159 0.80521
 C654 C 0.31090 0.11394 0.80948
 C655 C 0.30359 0.12425 0.82122
 H656 H 0.33466 0.11706 0.79635
 H657 H 0.29201 0.12219 0.82775
 Cu658 Cu 0.34430 0.15239 0.81343
 Cu659 Cu 0.31159 0.15603 0.83914
 Cu660 Cu 0.34269 0.18611 0.83783
 N661 N 0.36177 0.16895 0.81292
 N662 N 0.36083 0.18246 0.82208
 C663 C 0.37420 0.19206 0.81900
 C664 C 0.38402 0.18403 0.80732
 C665 C 0.37582 0.16943 0.80379
 H666 H 0.37670 0.20384 0.82499
 H667 H 0.37977 0.15997 0.79508
 N668 N 0.32340 0.18742 0.85298
 N669 N 0.31177 0.17584 0.85376
 C670 C 0.30097 0.17984 0.86596
 C671 C 0.30604 0.19464 0.87312
 C672 C 0.32019 0.19913 0.86454
 H673 H 0.29029 0.17248 0.86945
 H674 H 0.32783 0.20993 0.86692
 H675 H 0.32489 0.17271 0.82500
 H676 H 0.33673 0.16131 0.84137
 N677 N 0.80940 0.63792 0.82766
 N678 N 0.82075 0.63694 0.81593
 C679 C 0.81717 0.62391 0.80598
 C680 C 0.80278 0.61648 0.81188
 C681 C 0.79822 0.62568 0.82559
 H682 H 0.82436 0.62025 0.79522
 H683 H 0.78749 0.62362 0.83344
 Cu684 Cu 0.83879 0.65308 0.81489
 Cu685 Cu 0.80976 0.65500 0.84466
 Cu686 Cu 0.84065 0.68495 0.84227
 N687 N 0.85662 0.66941 0.81419
 N688 N 0.85692 0.68220 0.82440
 C689 C 0.87056 0.69140 0.82122
 C690 C 0.87929 0.68385 0.80842
 C691 C 0.87015 0.66995 0.80431
 H692 H 0.87421 0.70233 0.82815
 H693 H 0.87330 0.66081 0.79494
 N694 N 0.82310 0.68509 0.85955
 N695 N 0.81190 0.67316 0.86074
 C696 C 0.80285 0.67549 0.87459
 C697 C 0.80839 0.68963 0.88241
 C698 C 0.82123 0.69553 0.87259
 H699 H 0.79307 0.66735 0.87892
 H700 H 0.82912 0.70610 0.87522
 H701 H 0.82167 0.67289 0.83027
 H702 H 0.83530 0.66011 0.84412
 N703 N 0.81192 0.14425 0.32444
 N704 N 0.82336 0.14207 0.31294
 C705 C 0.81933 0.12872 0.30365
 C706 C 0.80456 0.12223 0.30966
 C707 C 0.80019 0.13241 0.32279
 H708 H 0.82652 0.12416 0.29323
 H709 H 0.78936 0.13116 0.33068
 Cu710 Cu 0.84234 0.15699 0.31109
 Cu711 Cu 0.81345 0.16181 0.34107
 Cu712 Cu 0.84701 0.18868 0.33801
 N713 N 0.86064 0.17271 0.30908
 N714 N 0.86223 0.18526 0.31945
 C715 C 0.87559 0.19434 0.31504
 C716 C 0.88277 0.18704 0.30119
 C717 C 0.87302 0.17332 0.29779
 H718 H 0.87983 0.20532 0.32153
 H719 H 0.87479 0.16457 0.28772
 N720 N 0.83029 0.19017 0.35590
 N721 N 0.81723 0.18026 0.35679
 C722 C 0.80821 0.18435 0.37032
 C723 C 0.81606 0.19736 0.37837
 C724 C 0.83001 0.20070 0.36895
 H725 H 0.79708 0.17798 0.37435
 H726 H 0.83933 0.21003 0.37156
 H727 H 0.82669 0.17808 0.32632
 H728 H 0.83907 0.16431 0.34036
 N729 N 0.68862 0.35956 0.32124
 N730 N 0.67749 0.35970 0.30924
 C731 C 0.68119 0.37185 0.29843
 C732 C 0.69525 0.37991 0.30396
 C733 C 0.69972 0.37186 0.31852
 H734 H 0.67432 0.37460 0.28721
 H735 H 0.71047 0.37437 0.32622
 Cu736 Cu 0.65934 0.34388 0.30845
 Cu737 Cu 0.68840 0.34246 0.33855
 Cu738 Cu 0.65673 0.31304 0.33621
 N739 N 0.64140 0.32781 0.30762
 N740 N 0.64060 0.31547 0.31826
 C741 C 0.62709 0.30616 0.31479
 C742 C 0.61902 0.31319 0.30130
 C743 C 0.62839 0.32687 0.29711
 H744 H 0.62326 0.29537 0.32178
 H745 H 0.62581 0.33549 0.28714
 N746 N 0.67411 0.31274 0.35351
 N747 N 0.68598 0.32404 0.35468
 C748 C 0.69569 0.32037 0.36788
 C749 C 0.68959 0.30610 0.37527
 C750 C 0.67597 0.30164 0.36586
 H751 H 0.70647 0.32744 0.37171
 H752 H 0.66802 0.29101 0.36792
 H753 H 0.67655 0.32465 0.32441
 H754 H 0.66310 0.33792 0.33793
 N755 N 0.68903 0.86363 0.82421
 N756 N 0.67792 0.86362 0.81221
 C757 C 0.68198 0.87543 0.80105
 C758 C 0.69637 0.88319 0.80652
 C759 C 0.70051 0.87536 0.82118
 H760 H 0.67514 0.87804 0.78977
 H761 H 0.71107 0.87806 0.82908
 Cu762 Cu 0.65997 0.84743 0.81254
 Cu763 Cu 0.68757 0.84890 0.84322
 Cu764 Cu 0.65833 0.81703 0.84115
 N765 N 0.64232 0.83099 0.81219
 N766 N 0.64174 0.81899 0.82327
 C767 C 0.62862 0.80910 0.81984
 C768 C 0.62069 0.81528 0.80584
 C769 C 0.62975 0.82907 0.80131
 H770 H 0.62524 0.79818 0.82689
 H771 H 0.62732 0.83702 0.79075
 N772 N 0.67623 0.81795 0.85822
 N773 N 0.68713 0.83022 0.85878
 C774 C 0.69798 0.82746 0.87117
 C775 C 0.69376 0.81289 0.87895
 C776 C 0.67986 0.80707 0.87051
 H777 H 0.70842 0.83537 0.87424
 H778 H 0.67312 0.79573 0.87296
 H779 H 0.67747 0.82954 0.82939
 H780 H 0.66243 0.84171 0.84221
 N781 N 0.18671 0.36164 0.82672
 N782 N 0.17688 0.36106 0.81366
 C783 C 0.17989 0.37437 0.80399
 C784 C 0.19221 0.38375 0.81152
 C785 C 0.19619 0.37537 0.82591
 H786 H 0.17336 0.37724 0.79259
 H787 H 0.20537 0.37899 0.83507
 Cu788 Cu 0.16073 0.34326 0.81149
 Cu789 Cu 0.18672 0.34440 0.84364
 Cu790 Cu 0.15809 0.31219 0.83913
 N791 N 0.14364 0.32638 0.80952
 N792 N 0.14280 0.31396 0.82011
 C793 C 0.12945 0.30451 0.81630
 C794 C 0.12152 0.31157 0.80271
 C795 C 0.13082 0.32538 0.79881
 H796 H 0.12540 0.29382 0.82334
 H797 H 0.12809 0.33429 0.78913
 N798 N 0.17462 0.31322 0.85750
 N799 N 0.18499 0.32583 0.85937
 C800 C 0.19390 0.32365 0.87334
 C801 C 0.18912 0.30897 0.88058
 C802 C 0.17687 0.30257 0.87027
 H803 H 0.20323 0.33213 0.87802
 H804 H 0.16984 0.29128 0.87218
 H805 H 0.17759 0.32518 0.82901
 H806 H 0.16192 0.33733 0.84108
 N807 N 0.19124 0.85932 0.32485
 N808 N 0.17900 0.86088 0.31412
 C809 C 0.18245 0.87360 0.30378
 C810 C 0.19769 0.88023 0.30837
 C811 C 0.20290 0.87086 0.32172
 H812 H 0.17466 0.87750 0.29354
 H813 H 0.21438 0.87236 0.32860
 Cu814 Cu 0.16016 0.84568 0.31427
 Cu815 Cu 0.19112 0.84257 0.34205
 Cu816 Cu 0.15873 0.81422 0.34245
 N817 N 0.14293 0.82877 0.31378
 N818 N 0.14213 0.81659 0.32465
 C819 C 0.12902 0.80678 0.32077
 C820 C 0.12138 0.81322 0.30668
 C821 C 0.13054 0.82707 0.30266
 H822 H 0.12555 0.79567 0.32746
 H823 H 0.12841 0.83519 0.29217
 N824 N 0.17695 0.81415 0.35925
 N825 N 0.18927 0.82499 0.35868
 C826 C 0.19997 0.82194 0.37113
 C827 C 0.19429 0.80862 0.38010
 C828 C 0.17960 0.80386 0.37231
 H829 H 0.21123 0.82888 0.37358
 H830 H 0.17160 0.79363 0.37575
 H831 H 0.17711 0.82504 0.32864
 H832 H 0.16530 0.83869 0.34335
 C833 C 0.26122 1.01483 0.24564
 C834 C 0.24660 1.01620 0.25539
 C835 C 0.23690 1.00197 0.25816
 C836 C 0.24161 0.98644 0.25176
 C837 C 0.25622 0.98504 0.24201
 C838 C 0.26594 0.99929 0.23924
 H839 H 0.27687 0.99849 0.23137
 H840 H 0.22596 1.00278 0.26602
 C841 C 0.24960 0.51705 0.73833
 C842 C 0.23479 0.51558 0.74772
 C843 C 0.22900 0.49982 0.75223
 C844 C 0.23782 0.48538 0.74786
 C845 C 0.25265 0.48686 0.73854
 C846 C 0.25849 0.50261 0.73407
 H847 H 0.26969 0.50351 0.72661
 H848 H 0.21756 0.49881 0.75933
 C849 C 0.76202 -0.01769 0.25407
 C850 C 0.74695 -0.01625 0.24506
 C851 C 0.74071 -0.00047 0.24107
 C852 C 0.74937 0.01405 0.24549
 C853 C 0.76429 0.01264 0.25478
 C854 C 0.77050 -0.00317 0.25879
 H855 H 0.78209 -0.00415 0.26566
 H856 H 0.72939 0.00040 0.23377
 C857 C 0.76137 0.48075 0.74746
 C858 C 0.74893 0.48234 0.73510
 C859 C 0.74276 0.49816 0.73105
 C860 C 0.74879 0.51255 0.73894
 C861 C 0.76170 0.51096 0.75079
 C862 C 0.76778 0.49517 0.75494
 H863 H 0.77798 0.49416 0.76373
 H864 H 0.73288 0.49918 0.72192
 C865 C 0.26089 0.48311 0.25562
 C866 C 0.24642 0.48239 0.24557
 C867 C 0.23935 0.49735 0.23980
 C868 C 0.24623 0.51284 0.24405
 C869 C 0.25998 0.51347 0.25500
 C870 C 0.26741 0.49858 0.26030
 H871 H 0.27812 0.49895 0.26851
 H872 H 0.22859 0.49695 0.23171
 C873 C 0.75900 1.01808 0.74398
 C874 C 0.74539 1.01923 0.75507
 C875 C 0.73571 1.00499 0.75808
 C876 C 0.73950 0.98972 0.75055
 C877 C 0.75317 0.98857 0.73954
 C878 C 0.76283 1.00279 0.73650
 H879 H 0.77302 1.00219 0.72768
 H880 H 0.72557 1.00554 0.76695
 C881 C 0.76582 0.51695 0.25101
 C882 C 0.75134 0.51759 0.26101
 C883 C 0.74534 0.50276 0.26806
 C884 C 0.75316 0.48744 0.26512
 C885 C 0.76700 0.48670 0.25428
 C886 C 0.77335 0.50156 0.24768
 H887 H 0.78457 0.50122 0.24018
 H888 H 0.73429 0.50297 0.27578
 C889 C 0.25511 -0.01783 0.75571
 C890 C 0.24330 -0.01826 0.74272
 C891 C 0.23557 -0.00342 0.73772
 C892 C 0.23950 0.01178 0.74523
 C893 C 0.25167 0.01236 0.75793
 C894 C 0.25931 -0.00254 0.76304
 H895 H 0.26782 -0.00241 0.77349
 H896 H 0.22665 -0.00355 0.72760
 C897 C 0.23330 0.24346 1.01149
 C898 C 0.24479 0.23015 1.01214
 C899 C 0.25105 0.22342 0.99731
 C900 C 0.24607 0.22958 0.98181
 C901 C 0.23455 0.24291 0.98106
 C902 C 0.22848 0.24983 0.99597
 H903 H 0.21915 0.25957 0.99553
 H904 H 0.25973 0.21308 0.99782
 C905 C 0.24684 0.75621 0.51680
 C906 C 0.26154 0.74659 0.51504
 C907 C 0.26651 0.74133 0.49917
 C908 C 0.25701 0.74513 0.48498
 C909 C 0.24211 0.75440 0.48680
 C910 C 0.23712 0.75966 0.50266
 H911 H 0.22595 0.76717 0.50381
 H912 H 0.27795 0.73425 0.49785
 C913 C 0.24888 0.76322 -0.01228
 C914 C 0.23679 0.75050 -0.01177
 C915 C 0.23037 0.74540 0.00366
 C916 C 0.23529 0.75315 0.01853
 C917 C 0.24673 0.76651 0.01785
 C918 C 0.25345 0.77129 0.00251
 H919 H 0.26276 0.78102 0.00223
 H920 H 0.22075 0.73599 0.00406
 C921 C 0.25368 0.25190 0.48389
 C922 C 0.24502 0.23665 0.48337
 C923 C 0.24013 0.22914 0.49834
 C924 C 0.24331 0.23671 0.51368
 C925 C 0.25217 0.25183 0.51425
 C926 C 0.25718 0.25929 0.49933
 H927 H 0.26345 0.27119 0.49975
 H928 H 0.23395 0.21717 0.49812
 C929 C 0.74535 0.75946 1.01463
 C930 C 0.76104 0.75153 1.01329
 C931 C 0.76731 0.74740 0.99760
 C932 C 0.75804 0.75040 0.98310
 C933 C 0.74212 0.75790 0.98447
 C934 C 0.73589 0.76219 1.00019
 H935 H 0.72393 0.76843 1.00104
 H936 H 0.77954 0.74171 0.99674
 C937 C 0.74905 0.26311 0.51202
 C938 C 0.75845 0.24824 0.51171
 C939 C 0.76287 0.24117 0.49633
 C940 C 0.75794 0.24853 0.48126
 C941 C 0.74853 0.26340 0.48166
 C942 C 0.74447 0.27065 0.49696
 H943 H 0.73777 0.28236 0.49710
 H944 H 0.76964 0.22949 0.49607
 C945 C 0.75424 0.25160 -0.01658
 C946 C 0.74268 0.23844 -0.01504
 C947 C 0.73808 0.23283 0.00081
 C948 C 0.74484 0.24002 0.01525
 C949 C 0.75700 0.25254 0.01363
 C950 C 0.76147 0.25827 -0.00213
 H951 H 0.77056 0.26817 -0.00306
 H952 H 0.72895 0.22299 0.00183
 C953 C 0.74955 0.76572 0.49081
 C954 C 0.73871 0.75194 0.48977
 C955 C 0.73493 0.74300 0.50424
 C956 C 0.74115 0.74791 0.51973
 C957 C 0.75175 0.76185 0.52089
 C958 C 0.75603 0.77045 0.50633
 H959 H 0.76398 0.78129 0.50711
 H960 H 0.72665 0.73239 0.50360
 C961 C 1.01421 0.24694 0.25078
 C962 C 1.01576 0.26241 0.24263
 C963 C 1.00123 0.27143 0.23878
 C964 C 0.98537 0.26537 0.24287
 C965 C 0.98390 0.25010 0.25145
 C966 C 0.99839 0.24091 0.25495
 H967 H 0.99752 0.22930 0.26171
 H968 H 1.00224 0.28331 0.23254
 C969 C 0.51216 0.25317 0.75933
 C970 C 0.51171 0.26642 0.74784
 C971 C 0.49643 0.27147 0.74111
 C972 C 0.48153 0.26354 0.74554
 C973 C 0.48187 0.25057 0.75733
 C974 C 0.49721 0.24545 0.76401
 H975 H 0.49745 0.23601 0.77358
 H976 H 0.49629 0.28125 0.73187
 C977 C -0.01421 0.26246 0.75060
 C978 C -0.01565 0.24963 0.73864
 C979 C -0.00121 0.24141 0.73319
 C980 C 0.01447 0.24528 0.73974
 C981 C 0.01590 0.25754 0.75224
 C982 C 0.00150 0.26616 0.75734
 H983 H 0.00240 0.27564 0.76689
 H984 H -0.00209 0.23229 0.72329
 C985 C 0.48531 0.25535 0.25331
 C986 C 0.48399 0.23969 0.24537
 C987 C 0.49861 0.23065 0.24192
 C988 C 0.51435 0.23687 0.24605
 C989 C 0.51562 0.25218 0.25459
 C990 C 0.50106 0.26142 0.25776
 H991 H 0.50183 0.27310 0.26444
 H992 H 0.49780 0.21862 0.23589
 C993 C 1.01455 0.74039 0.76183
 C994 C 1.01521 0.74933 0.74676
 C995 C 1.00031 0.75351 0.73863
 C996 C 0.98484 0.74952 0.74549
 C997 C 0.98405 0.74063 0.76058
 C998 C 0.99897 0.73605 0.76853
 H999 H 0.99844 0.72969 0.78037
 H1000 H 1.00072 0.75992 0.72679
 C1001 C 0.51708 0.73820 0.25627
 C1002 C 0.51849 0.75325 0.24728
 C1003 C 0.50402 0.76241 0.24363
 C1004 C 0.48824 0.75657 0.24810
 C1005 C 0.48677 0.74145 0.25686
 C1006 C 0.50125 0.73245 0.26085
 H1007 H 0.50020 0.72082 0.26756
 H1008 H 0.50490 0.77378 0.23649
 C1009 C -0.01537 0.75663 0.25648
 C1010 C -0.01399 0.74360 0.24475
 C1011 C 0.00181 0.73848 0.23931
 C1012 C 0.01647 0.74559 0.24576
 C1013 C 0.01512 0.75764 0.25850
 C1014 C -0.00069 0.76324 0.26345
 H1015 H -0.00140 0.77293 0.27278
 H1016 H 0.00255 0.72891 0.22985
 C1017 C 0.48455 0.76038 0.75591
 C1018 C 0.48590 0.75029 0.74154
 C1019 C 0.50161 0.74393 0.73698
 C1020 C 0.51600 0.74776 0.74617
 C1021 C 0.51457 0.75793 0.76043
 C1022 C 0.49888 0.76379 0.76534
 H1023 H 0.49795 0.77165 0.77627
 H1024 H 0.50276 0.73651 0.72579
 C1025 C 0.39418 0.29553 0.30187
 C1026 C 0.40383 0.30067 0.28847
 C1027 C 0.41800 0.29034 0.28282
 N1028 N 0.42860 0.29585 0.27089
 N1029 N 0.44159 0.28658 0.26617
 C1030 C 0.44444 0.27147 0.27320
 N1031 N 0.43380 0.26596 0.28501
 N1032 N 0.42087 0.27520 0.28972
 C1033 C 0.45871 0.26099 0.26842
 C1034 C 0.47066 0.26590 0.25694
 H1035 H 0.40135 0.31247 0.28249
 H1036 H 0.46006 0.24903 0.27444
 H1037 H 0.39723 0.28390 0.30793
 H1038 H 0.47033 0.27838 0.25193
 C1039 C 0.39516 0.79621 0.81220
 C1040 C 0.40381 0.80030 0.79771
 C1041 C 0.41905 0.79153 0.79250
 N1042 N 0.42526 0.79408 0.77704
 N1043 N 0.43921 0.78650 0.77216
 C1044 C 0.44753 0.77616 0.78261
 N1045 N 0.44138 0.77369 0.79812
 N1046 N 0.42736 0.78119 0.80296
 C1047 C 0.46317 0.76803 0.77750
 C1048 C 0.46843 0.76783 0.76099
 H1049 H 0.39921 0.81002 0.78964
 H1050 H 0.47057 0.76181 0.78689
 H1051 H 0.39939 0.78578 0.81960
 H1052 H 0.46043 0.77311 0.75154
 C1053 C -0.10972 0.29512 0.79576
 C1054 C -0.09896 0.30217 0.78421
 C1055 C -0.08471 0.29255 0.77775
 N1056 N -0.07181 0.30034 0.77016
 N1057 N -0.05860 0.29169 0.76494
 C1058 C -0.05786 0.27494 0.76707
 N1059 N -0.07085 0.26716 0.77444
 N1060 N -0.08399 0.27580 0.77973
 C1061 C -0.04343 0.26513 0.76150
 C1062 C -0.02864 0.27245 0.75626
 H1063 H -0.10034 0.31510 0.78077
 H1064 H -0.04434 0.25171 0.76193
 H1065 H -0.10744 0.28254 0.79998
 H1066 H -0.02706 0.28576 0.75756
 C1067 C -0.10089 0.80390 0.30931
 C1068 C -0.09574 0.80316 0.29280
 C1069 C -0.07982 0.79506 0.28840
 N1070 N -0.07657 0.79057 0.27245
 N1071 N -0.06241 0.78274 0.26860
 C1072 C -0.05097 0.77915 0.28056
 N1073 N -0.05415 0.78382 0.29644
 N1074 N -0.06832 0.79156 0.30029
 C1075 C -0.03513 0.77075 0.27664
 C1076 C -0.03191 0.76358 0.26117
 H1077 H -0.10391 0.80753 0.28302
 H1078 H -0.02587 0.77000 0.28640
 H1079 H -0.09309 0.79839 0.31882
 H1080 H -0.04187 0.76325 0.25212
 C1081 C 0.61274 0.70615 0.30275
 C1082 C 0.60178 0.69927 0.29120
 C1083 C 0.58724 0.70871 0.28512
 N1084 N 0.57527 0.70106 0.27598
 N1085 N 0.56194 0.70949 0.27074
 C1086 C 0.56013 0.72589 0.27442
 N1087 N 0.57217 0.73355 0.28343
 N1088 N 0.58544 0.72512 0.28872
 C1089 C 0.54557 0.73550 0.26882
 C1090 C 0.53177 0.72821 0.26125
 H1091 H 0.60346 0.68657 0.28706
 H1092 H 0.54553 0.74876 0.27116
 H1093 H 0.61047 0.71859 0.30739
 H1094 H 0.53101 0.71479 0.26040
 C1095 C 0.59929 0.19575 0.79689
 C1096 C 0.59288 0.21169 0.79913
 C1097 C 0.57699 0.21680 0.79164
 N1098 N 0.57238 0.23302 0.79186
 N1099 N 0.55800 0.23780 0.78508
 C1100 C 0.54768 0.22650 0.77792
 N1101 N 0.55222 0.21026 0.77783
 N1102 N 0.56664 0.20549 0.78453
 C1103 C 0.53180 0.23155 0.77040
 C1104 C 0.52792 0.24816 0.76743
 H1105 H 0.59977 0.22077 0.80630
 H1106 H 0.52325 0.22192 0.76644
 H1107 H 0.59273 0.18697 0.78905
 H1108 H 0.53708 0.25765 0.77017
 C1109 C 1.10067 0.68949 0.80779
 C1110 C 1.09370 0.70520 0.80990
 C1111 C 1.07757 0.70945 0.80231
 N1112 N 1.07347 0.72556 0.79949
 N1113 N 1.05909 0.72945 0.79213
 C1114 C 1.04824 0.71736 0.78748
 N1115 N 1.05222 0.70127 0.79056
 N1116 N 1.06666 0.69738 0.79776
 C1117 C 1.03247 0.72139 0.77908
 C1118 C 1.02999 0.73657 0.77117
 H1119 H 1.10060 0.71480 0.81635
 H1120 H 1.02307 0.71180 0.77812
 H1121 H 1.09435 0.68043 0.80008
 H1122 H 1.04007 0.74550 0.77088
 C1123 C 1.10376 0.20616 0.30177
 C1124 C 1.09417 0.20152 0.28812
 C1125 C 1.08011 0.21190 0.28254
 N1126 N 1.07017 0.20677 0.26988
 N1127 N 1.05738 0.21611 0.26488
 C1128 C 1.05408 0.23093 0.27235
 N1129 N 1.06404 0.23607 0.28494
 N1130 N 1.07680 0.22673 0.28995
 C1131 C 1.04005 0.24145 0.26709
 C1132 C 1.02876 0.23653 0.25494
 H1133 H 1.09684 0.19006 0.28156
 H1134 H 1.03834 0.25335 0.27320
 H1135 H 1.10074 0.21750 0.30841
 H1136 H 1.02945 0.22411 0.24976
 C1137 C 0.60645 0.29317 0.69752
 C1138 C 0.59666 0.30001 0.71009
 C1139 C 0.58223 0.29116 0.71694
 N1140 N 0.57100 0.29946 0.72645
 N1141 N 0.55768 0.29169 0.73249
 C1142 C 0.55518 0.27529 0.72932
 N1143 N 0.56652 0.26694 0.71998
 N1144 N 0.57978 0.27475 0.71385
 C1145 C 0.54048 0.26659 0.73576
 C1146 C 0.52686 0.27515 0.74228
 H1147 H 0.59911 0.31249 0.71449
 H1148 H 0.54005 0.25317 0.73474
 H1149 H 0.60335 0.28109 0.69244
 H1150 H 0.52652 0.28860 0.74165
 C1151 C 0.60535 0.81033 0.20768
 C1152 C 0.59810 0.79475 0.20570
 C1153 C 0.58299 0.78975 0.21468
 N1154 N 0.57782 0.77374 0.21393
 N1155 N 0.56400 0.76901 0.22173
 C1156 C 0.55478 0.78014 0.23052
 N1157 N 0.55992 0.79619 0.23124
 N1158 N 0.57380 0.80090 0.22349
 C1159 C 0.53923 0.77516 0.23875
 C1160 C 0.53463 0.75852 0.24014
 H1161 H 0.60382 0.78569 0.19751
 H1162 H 0.53132 0.78478 0.24395
 H1163 H 0.60021 0.81906 0.21659
 H1164 H 0.54326 0.74896 0.23609
 C1165 C 1.10363 0.30363 0.18912
 C1166 C 1.09770 0.30464 0.20536
 C1167 C 1.08144 0.29749 0.21000
 N1168 N 1.07791 0.29413 0.22615
 N1169 N 1.06328 0.28754 0.23037
 C1170 C 1.05158 0.28420 0.21862
 N1171 N 1.05505 0.28773 0.20251
 N1172 N 1.06972 0.29417 0.19827
 C1173 C 1.03523 0.27718 0.22303
 C1174 C 1.03232 0.26930 0.23818
 H1175 H 1.10544 0.31003 0.21499
 H1176 H 1.02540 0.27761 0.21381
 H1177 H 1.09645 0.29691 0.17990
 H1178 H 1.04266 0.26760 0.24662
 C1179 C 1.09934 0.80469 0.70112
 C1180 C 1.09445 0.78811 0.70161
 C1181 C 1.07869 0.78317 0.70947
 N1182 N 1.07579 0.76698 0.71314
 N1183 N 1.06153 0.76244 0.72029
 C1184 C 1.04963 0.77393 0.72390
 N1185 N 1.05247 0.79008 0.72007
 N1186 N 1.06676 0.79462 0.71305
 C1187 C 1.03375 0.76921 0.73158
 C1188 C 1.03132 0.75380 0.73904
 H1189 H 1.10248 0.77854 0.69653
 H1190 H 1.02387 0.77841 0.73194
 H1191 H 1.09180 0.81405 0.70725
 H1192 H 1.04167 0.74518 0.73999
 C1193 C 0.40243 0.69580 0.69453
 C1194 C 0.40850 0.71188 0.69270
 C1195 C 0.42440 0.71680 0.70046
 N1196 N 0.42805 0.73309 0.70284
 N1197 N 0.44211 0.73753 0.71050
 C1198 C 0.45307 0.72583 0.71594
 N1199 N 0.44953 0.70957 0.71332
 N1200 N 0.43544 0.70514 0.70578
 C1201 C 0.46843 0.73037 0.72486
 C1202 C 0.47106 0.74625 0.73129
 H1203 H 0.40104 0.72121 0.68646
 H1204 H 0.47738 0.72061 0.72745
 H1205 H 0.40944 0.68695 0.70190
 H1206 H 0.46145 0.75556 0.72965
 C1207 C 0.40016 0.19217 0.19158
 C1208 C 0.40501 0.19244 0.20817
 C1209 C 0.42092 0.20010 0.21304
 N1210 N 0.42337 0.20546 0.22885
 N1211 N 0.43754 0.21299 0.23308
 C1212 C 0.44978 0.21533 0.22166
 N1213 N 0.44741 0.20974 0.20594
 N1214 N 0.43322 0.20235 0.20169
 C1215 C 0.46557 0.22343 0.22602
 C1216 C 0.46763 0.23258 0.24059
 H1217 H 0.39658 0.18812 0.21773
 H1218 H 0.47574 0.22251 0.21723
 H1219 H 0.40806 0.19791 0.18232
 H1220 H 0.45691 0.23470 0.24844
 C1221 C -0.10561 0.70572 0.19437
 C1222 C -0.09551 0.70057 0.20749
 C1223 C -0.08118 0.71070 0.21300
 N1224 N -0.07060 0.70490 0.22482
 N1225 N -0.05762 0.71397 0.22977
 C1226 C -0.05473 0.72922 0.22311
 N1227 N -0.06534 0.73504 0.21135
 N1228 N -0.07828 0.72595 0.20637
 C1229 C -0.04047 0.73947 0.22847
 C1230 C -0.02851 0.73359 0.23953
 H1231 H -0.09798 0.68889 0.21366
 H1232 H -0.03926 0.75191 0.22348
 H1233 H -0.10270 0.71724 0.18808
 H1234 H -0.02898 0.72079 0.24364
 C1235 C -0.10437 0.19397 0.70125
 C1236 C -0.09752 0.20972 0.69904
 C1237 C -0.08186 0.21473 0.70712
 N1238 N -0.07686 0.23082 0.70653
 N1239 N -0.06251 0.23545 0.71348
 C1240 C -0.05260 0.22411 0.72116
 N1241 N -0.05757 0.20802 0.72169
 N1242 N -0.07196 0.20341 0.71484
 C1243 C -0.03654 0.22886 0.72855
 C1244 C -0.03181 0.24536 0.73086
 H1245 H -0.10380 0.21870 0.69122
 H1246 H -0.02835 0.21901 0.73280
 H1247 H -0.09860 0.18535 0.70985
 H1248 H -0.04049 0.25525 0.72788
 C1249 C 0.29539 0.38928 0.30369
 C1250 C 0.30124 0.39975 0.29125
 C1251 C 0.29156 0.41444 0.28596
 N1252 N 0.29788 0.42506 0.27451
 N1253 N 0.28927 0.43847 0.26986
 C1254 C 0.27403 0.44176 0.27649
 N1255 N 0.26771 0.43113 0.28789
 N1256 N 0.27631 0.41774 0.29255
 C1257 C 0.26432 0.45649 0.27150
 C1258 C 0.27044 0.46813 0.26031
 H1259 H 0.31326 0.39744 0.28559
 H1260 H 0.25206 0.45831 0.27687
 H1261 H 0.28349 0.39194 0.30946
 H1262 H 0.28316 0.46712 0.25593
 C1263 C 0.31186 -0.10223 0.79962
 C1264 C 0.29681 -0.09402 0.80251
 C1265 C 0.29205 -0.07886 0.79354
 N1266 N 0.27577 -0.07438 0.79277
 N1267 N 0.27117 -0.06064 0.78480
 C1268 C 0.28269 -0.05076 0.77745
 N1269 N 0.29902 -0.05511 0.77840
 N1270 N 0.30362 -0.06897 0.78623
 C1271 C 0.27761 -0.03545 0.76888
 C1272 C 0.26137 -0.03346 0.76310
 H1273 H 0.28773 -0.09923 0.81095
 H1274 H 0.28678 -0.02582 0.76676
 H1275 H 0.32017 -0.09760 0.79010
 H1276 H 0.25285 -0.04386 0.76386
 C1277 C 0.79721 0.39189 0.80359
 C1278 C 0.80095 0.39922 0.78833
 C1279 C 0.79304 0.41491 0.78306
 N1280 N 0.79380 0.41979 0.76694
 N1281 N 0.78687 0.43408 0.76212
 C1282 C 0.77904 0.44407 0.77331
 N1283 N 0.77838 0.43924 0.78943
 N1284 N 0.78518 0.42491 0.79421
 C1285 C 0.77175 0.46013 0.76841
 C1286 C 0.76865 0.46440 0.75190
 H1287 H 0.80955 0.39324 0.77984
 H1288 H 0.76819 0.46870 0.77819
 H1289 H 0.78767 0.39751 0.81133
 H1290 H 0.77075 0.45530 0.74218
 C1291 C 0.80101 -0.10581 0.30832
 C1292 C 0.80409 -0.09895 0.29271
 C1293 C 0.79663 -0.08290 0.28790
 N1294 N 0.79505 -0.07879 0.27162
 N1295 N 0.78820 -0.06432 0.26723
 C1296 C 0.78283 -0.05339 0.27897
 N1297 N 0.78460 -0.05742 0.29523
 N1298 N 0.79129 -0.07194 0.29962
 C1299 C 0.77553 -0.03723 0.27440
 C1300 C 0.76902 -0.03414 0.25864
 H1301 H 0.81146 -0.10567 0.28364
 H1302 H 0.77463 -0.02772 0.28392
 H1303 H 0.79246 -0.09942 0.31659
 H1304 H 0.76852 -0.04420 0.24974
 C1305 C 0.30767 0.60475 0.70301
 C1306 C 0.29175 0.59828 0.70073
 C1307 C 0.28655 0.58265 0.70859
 N1308 N 0.27037 0.57786 0.70789
 N1309 N 0.26553 0.56364 0.71482
 C1310 C 0.27672 0.55365 0.72264
 N1311 N 0.29291 0.55840 0.72329
 N1312 N 0.29773 0.57266 0.71643
 C1313 C 0.27164 0.53773 0.73000
 C1314 C 0.25493 0.53335 0.73167
 H1315 H 0.28276 0.60492 0.69320
 H1316 H 0.28128 0.52942 0.73446
 H1317 H 0.31635 0.59846 0.71121
 H1318 H 0.24539 0.54231 0.72842
 C1319 C 0.29394 1.10961 0.19933
 C1320 C 0.30093 1.09862 0.21075
 C1321 C 0.29136 1.08443 0.21721
 N1322 N 0.29911 1.07220 0.22590
 N1323 N 0.29054 1.05916 0.23145
 C1324 C 0.27389 1.05794 0.22856
 N1325 N 0.26614 1.07024 0.22002
 N1326 N 0.27471 1.08321 0.21442
 C1327 C 0.26415 1.04366 0.23439
 C1328 C 0.27143 1.02943 0.24111
 H1329 H 0.31382 1.09999 0.21449
 H1330 H 0.25076 1.04408 0.23269
 H1331 H 0.28133 1.10758 0.19500
 H1332 H 0.28488 1.02821 0.24125
 C1333 C 0.79843 0.60910 0.19888
 C1334 C 0.80411 0.59977 0.21231
 C1335 C 0.79470 0.58517 0.21820
 N1336 N 0.80108 0.57526 0.23027
 N1337 N 0.79276 0.56188 0.23540
 C1338 C 0.77774 0.55791 0.22865
 N1339 N 0.77133 0.56787 0.21666
 N1340 N 0.77965 0.58121 0.21152
 C1341 C 0.76839 0.54315 0.23411
 C1342 C 0.77482 0.53204 0.24571
 H1343 H 0.81583 0.60287 0.21822
 H1344 H 0.75625 0.54082 0.22869
 H1345 H 0.78690 0.60555 0.19284
 H1346 H 0.78750 0.53357 0.25007
 C1347 C 0.79275 1.11073 0.69416
 C1348 C 0.79945 1.09956 0.70560
 C1349 C 0.78955 1.08600 0.71280
 N1350 N 0.79720 1.07388 0.72170
 N1351 N 0.78842 1.06145 0.72820
 C1352 C 0.77163 1.06076 0.72611
 N1353 N 0.76396 1.07296 0.71734
 N1354 N 0.77276 1.08534 0.71077
 C1355 C 0.76177 1.04700 0.73295
 C1356 C 0.76913 1.03262 0.73922
 H1357 H 0.81246 1.10041 0.70904
 H1358 H 0.74831 1.04778 0.73214
 H1359 H 0.77997 1.10929 0.69007
 H1360 H 0.78253 1.03110 0.73849
 C1361 C 0.69783 0.60106 0.30950
 C1362 C 0.69833 0.59553 0.29311
 C1363 C 0.70694 0.57983 0.28910
 N1364 N 0.71230 0.57663 0.27341
 N1365 N 0.72099 0.56285 0.27010
 C1366 C 0.72457 0.55179 0.28237
 N1367 N 0.71896 0.55488 0.29795
 N1368 N 0.71038 0.56865 0.30125
 C1369 C 0.73422 0.53657 0.27923
 C1370 C 0.74247 0.53349 0.26429
 H1371 H 0.69368 0.60333 0.28318
 H1372 H 0.73525 0.52775 0.28931
 H1373 H 0.70382 0.59371 0.31906
 H1374 H 0.74244 0.54306 0.25489
 C1375 C 0.69396 1.10687 0.79878
 C1376 C 0.70939 1.09945 0.80181
 C1377 C 0.71383 1.08379 0.79332
 N1378 N 0.72987 1.07838 0.79282
 N1379 N 0.73380 1.06436 0.78481
 C1380 C 0.72180 1.05524 0.77711
 N1381 N 0.70579 1.06055 0.77781
 N1382 N 0.70190 1.07457 0.78571
 C1383 C 0.72567 1.03976 0.76817
 C1384 C 0.74186 1.03482 0.76432
 H1385 H 0.71832 1.10523 0.81009
 H1386 H 0.71527 1.03238 0.76381
 H1387 H 0.68577 1.10120 0.78968
 H1388 H 0.75215 1.04294 0.76747
 C1389 C 0.20381 0.60528 0.80429
 C1390 C 0.19718 0.59602 0.79126
 C1391 C 0.20658 0.58237 0.78354
 N1392 N 0.19889 0.57184 0.77284
 N1393 N 0.20726 0.55928 0.76595
 C1394 C 0.22366 0.55688 0.76945
 N1395 N 0.23138 0.56750 0.78002
 N1396 N 0.22299 0.58000 0.78697
 C1397 C 0.23304 0.54302 0.76215
 C1398 C 0.22526 0.53016 0.75357
 H1399 H 0.18464 0.59844 0.78692
 H1400 H 0.24637 0.54248 0.76428
 H1401 H 0.21604 0.60224 0.80913
 H1402 H 0.21178 0.52976 0.75292
 C1403 C 0.19196 1.10547 0.29339
 C1404 C 0.20732 1.09790 0.29637
 C1405 C 0.21210 1.08222 0.28814
 N1406 N 0.22797 1.07647 0.28931
 N1407 N 0.23238 1.06224 0.28200
 C1408 C 0.22104 1.05319 0.27331
 N1409 N 0.20516 1.05890 0.27222
 N1410 N 0.20078 1.07316 0.27946
 C1411 C 0.22558 1.03735 0.26529
 C1412 C 0.24207 1.03207 0.26369
 H1413 H 0.21618 1.10369 0.30471
 H1414 H 0.21567 1.02993 0.25997
 H1415 H 0.18352 1.10005 0.28439
 H1416 H 0.25200 1.04016 0.26785
 C1417 C 0.69835 0.38863 0.70426
 C1418 C 0.70990 0.39958 0.69749
 C1419 C 0.71668 0.41363 0.70704
 N1420 N 0.72541 0.42567 0.69914
 N1421 N 0.73154 0.43853 0.70758
 C1422 C 0.72923 0.43980 0.72426
 N1423 N 0.72062 0.42769 0.73219
 N1424 N 0.71441 0.41486 0.72373
 C1425 C 0.73602 0.45390 0.73372
 C1426 C 0.74225 0.46797 0.72582
 H1427 H 0.71361 0.39827 0.68462
 H1428 H 0.73573 0.45342 0.74717
 H1429 H 0.69391 0.39056 0.71683
 H1430 H 0.74088 0.46918 0.71248
 C1431 C 0.70906 -0.10676 0.19308
 C1432 C 0.70409 -0.09653 0.20618
 C1433 C 0.71420 -0.08237 0.21182
 N1434 N 0.70845 -0.07231 0.22410
 N1435 N 0.71748 -0.05946 0.22938
 C1436 C 0.73261 -0.05621 0.22257
 N1437 N 0.73838 -0.06629 0.21032
 N1438 N 0.72934 -0.07913 0.20502
 C1439 C 0.74275 -0.04211 0.22829
 C1440 C 0.73700 -0.03083 0.24012
 H1441 H 0.69242 -0.09885 0.21249
 H1442 H 0.75498 -0.04038 0.22287
 H1443 H 0.72060 -0.10421 0.18662
 H1444 H 0.72429 -0.03161 0.24455
 C1445 C 0.19829 0.39856 0.19147
 C1446 C 0.19894 0.40332 0.20811
 C1447 C 0.20685 0.41915 0.21295
 N1448 N 0.21157 0.42193 0.22892
 N1449 N 0.21922 0.43604 0.23313
 C1450 C 0.22236 0.44789 0.22152
 N1451 N 0.21744 0.44518 0.20564
 N1452 N 0.20989 0.43107 0.20142
 C1453 C 0.23074 0.46360 0.22579
 C1454 C 0.23866 0.46623 0.24100
 H1455 H 0.19445 0.39501 0.21767
 H1456 H 0.23111 0.47316 0.21636
 H1457 H 0.20390 0.40652 0.18219
 H1458 H 0.23935 0.45601 0.24966
 C1459 C 0.19149 -0.10423 0.69664
 C1460 C 0.20782 -0.09846 0.69608
 C1461 C 0.21217 -0.08251 0.70398
 N1462 N 0.22832 -0.07848 0.70694
 N1463 N 0.23216 -0.06421 0.71448
 C1464 C 0.21997 -0.05344 0.71925
 N1465 N 0.20387 -0.05739 0.71610
 N1466 N 0.20005 -0.07165 0.70866
 C1467 C 0.22379 -0.03770 0.72772
 C1468 C 0.23958 -0.03404 0.73389
 H1469 H 0.21752 -0.10592 0.69039
 H1470 H 0.21361 -0.02909 0.72982
 H1471 H 0.18219 -0.09706 0.70329
 H1472 H 0.24935 -0.04330 0.73287
 C1473 C 0.30844 0.30031 0.40180
 C1474 C 0.29210 0.30125 0.40748
 C1475 C 0.28717 0.29328 0.42312
 N1476 N 0.27095 0.28953 0.42597
 N1477 N 0.26648 0.28179 0.43989
 C1478 C 0.27807 0.27765 0.45150
 N1479 N 0.29423 0.28165 0.44876
 N1480 N 0.29872 0.28924 0.43479
 C1481 C 0.27341 0.26902 0.46685
 C1482 C 0.25831 0.26068 0.46843
 H1483 H 0.28256 0.30696 0.39985
 H1484 H 0.28245 0.26851 0.47684
 H1485 H 0.31761 0.29335 0.40882
 H1486 H 0.24999 0.25994 0.45785
 C1487 C 0.29501 0.81263 -0.10011
 C1488 C 0.29671 0.79737 -0.09213
 C1489 C 0.28778 0.79373 -0.07657
 N1490 N 0.28666 0.77785 -0.07101
 N1491 N 0.27855 0.77444 -0.05698
 C1492 C 0.27136 0.78679 -0.04791
 N1493 N 0.27263 0.80267 -0.05338
 N1494 N 0.28063 0.80607 -0.06747
 C1495 C 0.26249 0.78325 -0.03230
 C1496 C 0.25758 0.76721 -0.02805
 H1497 H 0.30431 0.78769 -0.09765
 H1498 H 0.25919 0.79359 -0.02431
 H1499 H 0.28652 0.82184 -0.09509
 H1500 H 0.25972 0.75720 -0.03683
 C1501 C 0.80699 0.29770 -0.10214
 C1502 C 0.79108 0.29895 -0.09538
 C1503 C 0.78677 0.29001 -0.08003
 N1504 N 0.77058 0.28763 -0.07580
 N1505 N 0.76666 0.27927 -0.06206
 C1506 C 0.77880 0.27304 -0.05204
 N1507 N 0.79496 0.27556 -0.05619
 N1508 N 0.79887 0.28381 -0.06997
 C1509 C 0.77478 0.26420 -0.03659
 C1510 C 0.75875 0.25863 -0.03300
 H1511 H 0.78144 0.30578 -0.10189
 H1512 H 0.78479 0.26192 -0.02784
 H1513 H 0.81615 0.28978 -0.09619
 H1514 H 0.74925 0.25974 -0.04245
 C1515 C 0.80674 0.80255 0.40413
 C1516 C 0.79120 0.80610 0.41098
 C1517 C 0.78605 0.79911 0.42704
 N1518 N 0.76984 0.79983 0.43176
 N1519 N 0.76500 0.79332 0.44618
 C1520 C 0.77624 0.78597 0.45647
 N1521 N 0.79248 0.78543 0.45184
 N1522 N 0.79729 0.79184 0.43737
 C1523 C 0.77107 0.77837 0.47224
 C1524 C 0.75441 0.77511 0.47580
 H1525 H 0.78238 0.81371 0.40421
 H1526 H 0.78066 0.77415 0.48073
 H1527 H 0.81511 0.79410 0.41049
 H1528 H 0.74496 0.77831 0.46676
 C1529 C 0.69356 0.30541 0.59743
 C1530 C 0.70982 0.30732 0.59173
 C1531 C 0.71497 0.30035 0.57561
 N1532 N 0.73130 0.29726 0.57244
 N1533 N 0.73594 0.29041 0.55805
 C1534 C 0.72441 0.28654 0.54629
 N1535 N 0.70814 0.28988 0.54937
 N1536 N 0.70349 0.29658 0.56379
 C1537 C 0.72919 0.27887 0.53040
 C1538 C 0.74463 0.27129 0.52795
 H1539 H 0.71913 0.31298 0.59967
 H1540 H 0.71989 0.27834 0.52064
 H1541 H 0.68472 0.29841 0.59003
 H1542 H 0.75331 0.27051 0.53824
 C1543 C 0.69048 0.79361 1.10532
 C1544 C 0.70564 0.79635 1.09737
 C1545 C 0.71006 0.78841 1.08151
 N1546 N 0.72572 0.79014 1.07545
 N1547 N 0.72995 0.78331 1.06098
 C1548 C 0.71867 0.77454 1.05195
 N1549 N 0.70296 0.77286 1.05796
 N1550 N 0.69873 0.77964 1.07250
 C1551 C 0.72330 0.76713 1.03585
 C1552 C 0.73988 0.76654 1.03072
 H1553 H 0.71476 0.80450 1.10299
 H1554 H 0.71364 0.76170 1.02819
 H1555 H 0.68169 0.78481 1.10015
 H1556 H 0.74946 0.77096 1.03912
 C1557 C 0.19768 0.30782 1.09513
 C1558 C 0.19549 0.29158 1.08949
 C1559 C 0.20288 0.28545 1.07389
 N1560 N 0.20213 0.26902 1.07020
 N1561 N 0.20872 0.26319 1.05615
 C1562 C 0.21624 0.27359 1.04521
 N1563 N 0.21689 0.29005 1.04885
 N1564 N 0.21037 0.29588 1.06295
 C1565 C 0.22356 0.26722 1.02965
 C1566 C 0.22571 0.25024 1.02688
 H1567 H 0.18843 0.28288 1.09689
 H1568 H 0.22791 0.27606 1.02049
 H1569 H 0.20535 0.31632 1.08807
 H1570 H 0.22226 0.24164 1.03660
 C1571 C 0.19396 0.79331 0.60714
 C1572 C 0.20889 0.79696 0.59913
 C1573 C 0.21339 0.78884 0.58332
 N1574 N 0.22914 0.79001 0.57730
 N1575 N 0.23328 0.78266 0.56301
 C1576 C 0.22179 0.77395 0.55417
 N1577 N 0.20602 0.77291 0.56012
 N1578 N 0.20191 0.78016 0.57444
 C1579 C 0.22604 0.76592 0.53827
 C1580 C 0.24246 0.76398 0.53296
 H1581 H 0.21757 0.80562 0.60468
 H1582 H 0.21597 0.76094 0.53081
 H1583 H 0.18580 0.78394 0.60193
 H1584 H 0.25249 0.76777 0.54113
 C1585 C 0.29614 0.70008 0.60971
 C1586 C 0.30271 0.71152 0.59851
 C1587 C 0.29289 0.71761 0.58424
 N1588 N 0.30031 0.72661 0.57206
 N1589 N 0.29153 0.73199 0.55904
 C1590 C 0.27498 0.72861 0.55777
 N1591 N 0.26757 0.71973 0.57000
 N1592 N 0.27635 0.71429 0.58296
 C1593 C 0.26497 0.73443 0.54358
 C1594 C 0.27195 0.74159 0.52944
 H1595 H 0.31546 0.71569 0.59987
 H1596 H 0.25161 0.73252 0.54405
 H1597 H 0.28366 0.69536 0.60775
 H1598 H 0.28539 0.74198 0.52816
 C1599 C 0.30498 0.19702 1.09913
 C1600 C 0.28881 0.19465 1.09330
 C1601 C 0.28325 0.20138 1.07727
 N1602 N 0.26684 0.20107 1.07322
 N1603 N 0.26162 0.20707 1.05870
 C1604 C 0.27264 0.21352 1.04766
 N1605 N 0.28906 0.21373 1.05166
 N1606 N 0.29427 0.20781 1.06622
 C1607 C 0.26707 0.22016 1.03159
 C1608 C 0.25029 0.22305 1.02817
 H1609 H 0.27986 0.18799 1.10080
 H1610 H 0.27641 0.22347 1.02247
 H1611 H 0.31363 0.20446 1.09200
 H1612 H 0.24112 0.22077 1.03774
 C1613 C 0.79517 0.70047 1.10509
 C1614 C 0.80097 0.71373 1.09565
 C1615 C 0.79127 0.72031 1.08161
 N1616 N 0.79836 0.73106 1.07074
 N1617 N 0.78972 0.73684 1.05783
 C1618 C 0.77365 0.73214 1.05538
 N1619 N 0.76653 0.72154 1.06634
 N1620 N 0.77518 0.71570 1.07918
 C1621 C 0.76391 0.73820 1.04117
 C1622 C 0.77104 0.74686 1.02801
 H1623 H 0.81311 0.71902 1.09818
 H1624 H 0.75079 0.73509 1.04070
 H1625 H 0.78342 0.69467 1.10191
 H1626 H 0.78443 0.74850 1.02758
 C1627 C 0.81035 0.20282 0.59813
 C1628 C 0.79450 0.20148 0.59119
 C1629 C 0.79029 0.20928 0.57520
 N1630 N 0.77411 0.21187 0.57102
 N1631 N 0.77016 0.21911 0.55666
 C1632 C 0.78225 0.22389 0.54588
 N1633 N 0.79842 0.22109 0.54996
 N1634 N 0.80238 0.21399 0.56438
 C1635 C 0.77809 0.23201 0.53003
 C1636 C 0.76261 0.23943 0.52733
 H1637 H 0.78471 0.19524 0.59799
 H1638 H 0.78772 0.23301 0.52066
 H1639 H 0.81973 0.21020 0.59191
 H1640 H 0.75360 0.23965 0.53734
 C1641 C 0.70195 0.69484 0.40218
 C1642 C 0.69932 0.71062 0.40878
 C1643 C 0.70705 0.71569 0.42456
 N1644 N 0.70640 0.73181 0.42950
 N1645 N 0.71350 0.73653 0.44372
 C1646 C 0.72143 0.72528 0.45353
 N1647 N 0.72197 0.70916 0.44865
 N1648 N 0.71494 0.70445 0.43440
 C1649 C 0.72925 0.73025 0.46928
 C1650 C 0.73116 0.74687 0.47374
 H1651 H 0.69185 0.71961 0.40207
 H1652 H 0.73403 0.72058 0.47734
 H1653 H 0.71005 0.68619 0.40861
 H1654 H 0.72737 0.75640 0.46506
 C1655 C 0.69461 0.20741 -0.11013
 C1656 C 0.70671 0.20112 -0.09944
 C1657 C 0.71177 0.21024 -0.08437
 N1658 N 0.72255 0.20320 -0.07344
 N1659 N 0.72710 0.21130 -0.05972
 C1660 C 0.72104 0.22675 -0.05641
 N1661 N 0.71031 0.23380 -0.06736
 N1662 N 0.70574 0.22569 -0.08106
 C1663 C 0.72620 0.23599 -0.04148
 C1664 C 0.73663 0.22900 -0.02956
 H1665 H 0.71226 0.18908 -0.10186
 H1666 H 0.72186 0.24866 -0.03990
 H1667 H 0.68879 0.21925 -0.10733
 H1668 H 0.73985 0.21594 -0.03030
 C1669 C 0.19494 0.69177 -0.09535
 C1670 C 0.19228 0.70763 -0.08900
 C1671 C 0.19998 0.71286 -0.07326
 N1672 N 0.20181 0.72925 -0.06979
 N1673 N 0.20925 0.73411 -0.05580
 C1674 C 0.21504 0.72275 -0.04471
 N1675 N 0.21298 0.70636 -0.04806
 N1676 N 0.20567 0.70150 -0.06212
 C1677 C 0.22329 0.72801 -0.02926
 C1678 C 0.22948 0.74406 -0.02742
 H1679 H 0.18542 0.71671 -0.09621
 H1680 H 0.22496 0.71898 -0.01943
 H1681 H 0.20296 0.68321 -0.08870
 H1682 H 0.22899 0.75237 -0.03799
 C1683 C 0.19455 0.19268 0.39657
 C1684 C 0.21073 0.19083 0.40249
 C1685 C 0.21523 0.19757 0.41889
 N1686 N 0.23125 0.20165 0.42244
 N1687 N 0.23512 0.20860 0.43700
 C1688 C 0.22310 0.21159 0.44854
 N1689 N 0.20718 0.20723 0.44510
 N1690 N 0.20330 0.20043 0.43052
 C1691 C 0.22692 0.21954 0.46453
 C1692 C 0.24172 0.22809 0.46739
 H1693 H 0.22034 0.18559 0.39460
 H1694 H 0.21730 0.21955 0.47396
 H1695 H 0.18551 0.19940 0.40400
 H1696 H 0.25066 0.22932 0.45739
 C1697 C 0.28840 0.39473 0.68822
 C1698 C 0.29386 0.40517 0.70091
 C1699 C 0.28410 0.41965 0.70636
 N1700 N 0.29029 0.42995 0.71819
 N1701 N 0.28157 0.44312 0.72326
 C1702 C 0.26633 0.44644 0.71668
 N1703 N 0.26012 0.43611 0.70488
 N1704 N 0.26886 0.42296 0.69979
 C1705 C 0.25650 0.46081 0.72220
 C1706 C 0.26263 0.47230 0.73358
 H1707 H 0.30567 0.40284 0.70699
 H1708 H 0.24411 0.46251 0.71709
 H1709 H 0.27672 0.39731 0.68196
 H1710 H 0.27546 0.47159 0.73770
 C1711 C 0.31017 0.89580 0.20283
 C1712 C 0.29460 0.90316 0.20044
 C1713 C 0.29005 0.91894 0.20864
 N1714 N 0.27411 0.92460 0.20798
 N1715 N 0.26988 0.93886 0.21535
 C1716 C 0.28147 0.94803 0.22358
 N1717 N 0.29741 0.94242 0.22414
 N1718 N 0.30162 0.92813 0.21685
 C1719 C 0.27710 0.96389 0.23167
 C1720 C 0.26065 0.96915 0.23368
 H1721 H 0.28541 0.89712 0.19266
 H1722 H 0.28714 0.97134 0.23671
 H1723 H 0.31901 0.90155 0.21121
 H1724 H 0.25065 0.96103 0.22975
 C1725 C 0.80459 0.40035 0.19655
 C1726 C 0.80662 0.40545 0.21297
 C1727 C 0.80002 0.42161 0.21860
 N1728 N 0.79855 0.42507 0.23506
 N1729 N 0.79226 0.43960 0.24010
 C1730 C 0.78732 0.45119 0.22885
 N1731 N 0.78895 0.44777 0.21244
 N1732 N 0.79513 0.43325 0.20741
 C1733 C 0.78025 0.46726 0.23396
 C1734 C 0.77533 0.47077 0.25019
 H1735 H 0.81248 0.39727 0.22191
 H1736 H 0.77795 0.47636 0.22431
 H1737 H 0.79768 0.40818 0.18802
 H1738 H 0.77636 0.46125 0.25963
 C1739 C 0.80462 0.89841 0.70162
 C1740 C 0.78960 0.90613 0.69762
 C1741 C 0.78523 0.92232 0.70505
 N1742 N 0.76931 0.92805 0.70458
 N1743 N 0.76534 0.94253 0.71169
 C1744 C 0.77719 0.95181 0.71942
 N1745 N 0.79310 0.94616 0.71969
 N1746 N 0.79704 0.93168 0.71269
 C1747 C 0.77319 0.96772 0.72751
 C1748 C 0.75689 0.97291 0.73050
 H1749 H 0.78073 0.89999 0.68955
 H1750 H 0.78347 0.97513 0.73208
 H1751 H 0.81282 0.90422 0.71061
 H1752 H 0.74666 0.96482 0.72713
 C1753 C 0.70385 0.60159 0.68987
 C1754 C 0.70230 0.59353 0.70510
 C1755 C 0.71126 0.57794 0.70867
 N1756 N 0.71277 0.57254 0.72457
 N1757 N 0.72084 0.55844 0.72794
 C1758 C 0.72761 0.54916 0.71552
 N1759 N 0.72598 0.55449 0.69962
 N1760 N 0.71803 0.56865 0.69626
 C1761 C 0.73619 0.53333 0.71900
 C1762 C 0.74135 0.52899 0.73497
 H1763 H 0.69490 0.59912 0.71488
 H1764 H 0.73878 0.52506 0.70868
 H1765 H 0.71228 0.59662 0.68059
 H1766 H 0.73995 0.53801 0.74485
 C1767 C 0.69120 0.10056 0.20599
 C1768 C 0.70700 0.09355 0.20420
 C1769 C 0.71212 0.07841 0.21308
 N1770 N 0.72833 0.07358 0.21281
 N1771 N 0.73317 0.05975 0.22051
 C1772 C 0.72196 0.05017 0.22871
 N1773 N 0.70573 0.05496 0.22893
 N1774 N 0.70090 0.06885 0.22130
 C1775 C 0.72708 0.03455 0.23676
 C1776 C 0.74382 0.03031 0.23880
 H1777 H 0.71611 0.09951 0.19630
 H1778 H 0.71746 0.02627 0.24123
 H1779 H 0.68242 0.09520 0.21466
 H1780 H 0.75329 0.03929 0.23550
 C1781 C 0.18982 0.59649 0.19809
 C1782 C 0.20538 0.58915 0.19586
 C1783 C 0.21006 0.57378 0.20463
 N1784 N 0.22633 0.56938 0.20590
 N1785 N 0.23077 0.55576 0.21421
 C1786 C 0.21909 0.54599 0.22150
 N1787 N 0.20279 0.55027 0.22004
 N1788 N 0.19836 0.56396 0.21183
 C1789 C 0.22389 0.53091 0.23071
 C1790 C 0.24030 0.52824 0.23576
 H1791 H 0.21474 0.59540 0.18848
 H1792 H 0.21428 0.52208 0.23397
 H1793 H 0.18095 0.59081 0.20646
 H1794 H 0.24935 0.53797 0.23360
 C1795 C 0.20855 0.10544 0.69483
 C1796 C 0.20189 0.09424 0.70619
 C1797 C 0.21155 0.08036 0.71311
 N1798 N 0.20367 0.06852 0.72211
 N1799 N 0.21218 0.05589 0.72861
 C1800 C 0.22893 0.05468 0.72646
 N1801 N 0.23685 0.06660 0.71757
 N1802 N 0.22831 0.07920 0.71097
 C1803 C 0.23837 0.04066 0.73347
 C1804 C 0.23031 0.02661 0.73953
 H1805 H 0.18901 0.09545 0.71002
 H1806 H 0.25186 0.04102 0.73318
 H1807 H 0.22112 0.10369 0.69024
 H1808 H 0.21691 0.02559 0.73825
 C1809 C 0.31399 0.60133 0.29662
 C1810 C 0.29858 0.59361 0.29842
 C1811 C 0.29440 0.57802 0.28982
 N1812 N 0.27833 0.57289 0.28922
 N1813 N 0.27430 0.55874 0.28163
 C1814 C 0.28622 0.54910 0.27444
 N1815 N 0.30233 0.55414 0.27517
 N1816 N 0.30635 0.56837 0.28266
 C1817 C 0.28185 0.53328 0.26630
 C1818 C 0.26541 0.52961 0.26210
 H1819 H 0.28904 0.59940 0.30600
 H1820 H 0.29173 0.52460 0.26328
 H1821 H 0.32313 0.59615 0.28815
 H1822 H 0.25597 0.53908 0.26394
 C1823 C 0.30533 0.09786 0.80286
 C1824 C 0.28903 0.09207 0.80404
 C1825 C 0.28429 0.07617 0.79627
 N1826 N 0.26801 0.07235 0.79373
 N1827 N 0.26379 0.05818 0.78619
 C1828 C 0.27571 0.04731 0.78100
 N1829 N 0.29194 0.05105 0.78374
 N1830 N 0.29615 0.06521 0.79118
 C1831 C 0.27150 0.03166 0.77255
 C1832 C 0.25552 0.02810 0.76677
 H1833 H 0.27953 0.09963 0.80994
 H1834 H 0.28155 0.02299 0.77012
 H1835 H 0.31442 0.09067 0.79595
 H1836 H 0.24581 0.03738 0.76807
 C1837 C 0.79362 0.60207 0.80536
 C1838 C 0.79941 0.59240 0.79220
 C1839 C 0.79002 0.57795 0.78607
 N1840 N 0.79672 0.56803 0.77417
 N1841 N 0.78840 0.55486 0.76856
 C1842 C 0.77306 0.55112 0.77462
 N1843 N 0.76632 0.56108 0.78648
 N1844 N 0.77466 0.57424 0.79212
 C1845 C 0.76372 0.53667 0.76843
 C1846 C 0.77080 0.52548 0.75727
 H1847 H 0.81122 0.59527 0.78640
 H1848 H 0.75110 0.53471 0.77276
 H1849 H 0.78199 0.59888 0.81136
 H1850 H 0.78383 0.52661 0.75396
 C1851 C 0.79517 0.10770 0.30364
 C1852 C 0.80174 0.09656 0.29206
 C1853 C 0.79241 0.08198 0.28612
 N1854 N 0.80011 0.07046 0.27644
 N1855 N 0.79183 0.05723 0.27090
 C1856 C 0.77551 0.05505 0.27478
 N1857 N 0.76779 0.06660 0.28441
 N1858 N 0.77609 0.07980 0.29001
 C1859 C 0.76612 0.04060 0.26863
 C1860 C 0.77381 0.02731 0.26051
 H1861 H 0.81428 0.09830 0.28745
 H1862 H 0.75282 0.04022 0.27093
 H1863 H 0.78293 0.10549 0.30886
 H1864 H 0.78728 0.02689 0.25972
 C1865 C 0.70362 0.39347 0.29504
 C1866 C 0.71527 0.40397 0.30235
 C1867 C 0.72260 0.41788 0.29297
 N1868 N 0.73043 0.43041 0.30110
 N1869 N 0.73671 0.44323 0.29272
 C1870 C 0.73548 0.44393 0.27588
 N1871 N 0.72783 0.43130 0.26774
 N1872 N 0.72145 0.41855 0.27613
 C1873 C 0.74226 0.45806 0.26646
 C1874 C 0.74684 0.47282 0.27427
 H1875 H 0.71839 0.40255 0.31537
 H1876 H 0.74306 0.45708 0.25306
 H1877 H 0.69970 0.39577 0.28236
 H1878 H 0.74426 0.47437 0.28740
 C1879 C 0.70593 0.89662 0.79873
 C1880 C 0.69941 0.90679 0.78634
 C1881 C 0.70914 0.92063 0.77946
 N1882 N 0.70150 0.93272 0.77050
 N1883 N 0.71019 0.94550 0.76459
 C1884 C 0.72687 0.94659 0.76735
 N1885 N 0.73453 0.93440 0.77613
 N1886 N 0.72583 0.92169 0.78212
 C1887 C 0.73668 0.96067 0.76117
 C1888 C 0.72932 0.97516 0.75517
 H1889 H 0.68667 0.90513 0.78223
 H1890 H 0.75013 0.95998 0.76222
 H1891 H 0.71827 0.89909 0.80360
 H1892 H 0.71591 0.97663 0.75581
 C1893 C 0.19944 0.39957 0.80605
 C1894 C 0.19815 0.40513 0.78973
 C1895 C 0.20539 0.42102 0.78446
 N1896 N 0.20748 0.42427 0.76807
 N1897 N 0.21398 0.43867 0.76315
 C1898 C 0.21850 0.45038 0.77446
 N1899 N 0.21627 0.44718 0.79085
 N1900 N 0.20990 0.43273 0.79577
 C1901 C 0.22536 0.46644 0.76922
 C1902 C 0.23144 0.46900 0.75323
 H1903 H 0.19222 0.39740 0.78043
 H1904 H 0.22608 0.47636 0.77832
 H1905 H 0.20652 0.40671 0.81502
 H1906 H 0.23205 0.45859 0.74473
 C1907 C 0.20715 0.89388 0.30082
 C1908 C 0.20045 0.90459 0.28898
 C1909 C 0.21035 0.91828 0.28200
 N1910 N 0.20288 0.93030 0.27280
 N1911 N 0.21175 0.94289 0.26671
 C1912 C 0.22842 0.94384 0.26952
 N1913 N 0.23590 0.93173 0.27857
 N1914 N 0.22703 0.91921 0.28472
 C1915 C 0.23843 0.95772 0.26320
 C1916 C 0.23131 0.97191 0.25626
 H1917 H 0.18758 0.90330 0.28516
 H1918 H 0.25182 0.95714 0.26487
 H1919 H 0.21978 0.89580 0.30518
 H1920 H 0.21787 0.97328 0.25613
 C1921 C 0.39445 0.31476 0.69992
 C1922 C 0.40253 0.29957 0.69799
 C1923 C 0.41799 0.29569 0.70695
 N1924 N 0.42353 0.27978 0.70767
 N1925 N 0.43747 0.27607 0.71587
 C1926 C 0.44642 0.28816 0.72355
 N1927 N 0.44098 0.30410 0.72268
 N1928 N 0.42698 0.30780 0.71458
 C1929 C 0.46184 0.28422 0.73256
 C1930 C 0.46586 0.26796 0.73691
 H1931 H 0.39709 0.28999 0.69025
 H1932 H 0.46988 0.29434 0.73631
 H1933 H 0.39934 0.32389 0.70853
 H1934 H 0.45700 0.25813 0.73436
 C1935 C 0.39663 0.79368 0.19772
 C1936 C 0.40700 0.79944 0.21035
 C1937 C 0.42134 0.78951 0.21606
 N1938 N 0.43166 0.79548 0.22803
 N1939 N 0.44468 0.78653 0.23318
 C1940 C 0.44783 0.77129 0.22655
 N1941 N 0.43749 0.76533 0.21463
 N1942 N 0.42451 0.77427 0.20948
 C1943 C 0.46208 0.76118 0.23199
 C1944 C 0.47364 0.76678 0.24359
 H1945 H 0.40465 0.81139 0.21610
 H1946 H 0.46371 0.74897 0.22649
 H1947 H 0.39922 0.78176 0.19197
 H1948 H 0.47302 0.77945 0.24811
 C1949 C 0.89115 0.29760 0.19336
 C1950 C 0.90171 0.30410 0.20550
 C1951 C 0.91625 0.29472 0.21163
 N1952 N 0.92751 0.30215 0.22180
 N1953 N 0.94068 0.29373 0.22743
 C1954 C 0.94302 0.27754 0.22315
 N1955 N 0.93170 0.27010 0.21308
 N1956 N 0.91859 0.27853 0.20740
 C1957 C 0.95738 0.26796 0.22927
 C1958 C 0.97068 0.27525 0.23770
 H1959 H 0.89944 0.31640 0.21048
 H1960 H 0.95777 0.25476 0.22658
 H1961 H 0.89393 0.28558 0.18793
 H1962 H 0.97118 0.28865 0.23896
 C1963 C 0.89738 0.80614 0.70778
 C1964 C 0.90595 0.79178 0.70322
 C1965 C 0.91992 0.78539 0.71320
 N1966 N 0.92851 0.77178 0.70804
 N1967 N 0.94113 0.76585 0.71705
 C1968 C 0.94556 0.77328 0.73157
 N1969 N 0.93693 0.78683 0.73675
 N1970 N 0.92435 0.79278 0.72773
 C1971 C 0.95953 0.76703 0.74158
 C1972 C 0.96982 0.75423 0.73609
 H1973 H 0.90231 0.78494 0.69222
 H1974 H 0.96219 0.77303 0.75335
 H1975 H 0.90124 0.81301 0.71871
 H1976 H 0.96814 0.74902 0.72378
 C1977 C 0.60349 0.30805 0.29311
 C1978 C 0.59604 0.29272 0.29594
 C1979 C 0.58052 0.28793 0.28750
 N1980 N 0.57511 0.27199 0.28825
 N1981 N 0.56108 0.26751 0.28061
 C1982 C 0.55191 0.27881 0.27202
 N1983 N 0.55724 0.29478 0.27138
 N1984 N 0.57132 0.29924 0.27894
 C1985 C 0.53626 0.27407 0.26378
 C1986 C 0.53174 0.25747 0.26183
 H1987 H 0.60191 0.28382 0.30416
 H1988 H 0.52833 0.28381 0.25890
 H1989 H 0.59802 0.31653 0.28420
 H1990 H 0.54046 0.24788 0.26559
 C1991 C 0.60615 0.80888 0.79673
 C1992 C 0.59650 0.79556 0.80212
 C1993 C 0.58204 0.78977 0.79240
 N1994 N 0.57184 0.77783 0.79853
 N1995 N 0.55870 0.77263 0.78979
 C1996 C 0.55533 0.77916 0.77459
 N1997 N 0.56558 0.79102 0.76844
 N1998 N 0.57866 0.79624 0.77718
 C1999 C 0.54099 0.77362 0.76466
 C2000 C 0.52913 0.76255 0.77064
 H2001 H 0.59940 0.78943 0.81373
 H2002 H 0.53953 0.77862 0.75224
 H2003 H 0.60280 0.81520 0.78533
 H2004 H 0.52957 0.75849 0.78346
 C2005 C 0.10575 0.30694 0.79464
 C2006 C 0.09797 0.29165 0.79684
 C2007 C 0.08206 0.28787 0.78851
 N2008 N 0.07653 0.27197 0.78749
 N2009 N 0.06220 0.26851 0.77985
 C2010 C 0.05281 0.28084 0.77305
 N2011 N 0.05825 0.29674 0.77423
 N2012 N 0.07263 0.30018 0.78176
 C2013 C 0.03684 0.27733 0.76475
 C2014 C 0.03223 0.26131 0.76005
 H2015 H 0.10387 0.28214 0.80433
 H2016 H 0.02878 0.28772 0.76178
 H2017 H 0.10028 0.31592 0.78621
 H2018 H 0.04104 0.25128 0.76185
 C2019 C 0.10706 0.80709 0.29698
 C2020 C 0.09695 0.79389 0.30181
 C2021 C 0.08266 0.78854 0.29153
 N2022 N 0.07192 0.77689 0.29729
 N2023 N 0.05892 0.77209 0.28813
 C2024 C 0.05618 0.77872 0.27284
 N2025 N 0.06697 0.79030 0.26705
 N2026 N 0.07993 0.79513 0.27622
 C2027 C 0.04190 0.77351 0.26252
 C2028 C 0.02963 0.76290 0.26853
 H2029 H 0.09932 0.78758 0.31345
 H2030 H 0.04089 0.77826 0.24997
 H2031 H 0.10421 0.81360 0.28556
 H2032 H 0.02990 0.75914 0.28144
 C2033 C 0.60336 0.68899 0.70907
 C2034 C 0.59709 0.70513 0.70810
 C2035 C 0.58112 0.71018 0.71553
 N2036 N 0.57756 0.72658 0.71728
 N2037 N 0.56298 0.73149 0.72349
 C2038 C 0.55131 0.72019 0.72804
 N2039 N 0.55481 0.70376 0.72619
 N2040 N 0.56948 0.69884 0.72010
 C2041 C 0.53499 0.72558 0.73448
 C2042 C 0.53246 0.74169 0.74038
 H2043 H 0.60430 0.71463 0.70190
 H2044 H 0.52493 0.71664 0.73494
 H2045 H 0.59694 0.67975 0.71642
 H2046 H 0.54303 0.74996 0.74118
 C2047 C 0.60761 0.20402 0.19475
 C2048 C 0.59672 0.19769 0.20665
 C2049 C 0.58257 0.20735 0.21320
 N2050 N 0.57134 0.19995 0.22338
 N2051 N 0.55849 0.20851 0.22949
 C2052 C 0.55642 0.22482 0.22569
 N2053 N 0.56769 0.23225 0.21558
 N2054 N 0.58052 0.22367 0.20942
 C2055 C 0.54230 0.23447 0.23228
 C2056 C 0.52914 0.22712 0.24085
 H2057 H 0.59841 0.18516 0.21121
 H2058 H 0.54190 0.24769 0.22974
 H2059 H 0.60549 0.21630 0.18968
 H2060 H 0.52870 0.21372 0.24201
 C2061 C 0.10211 0.69228 0.19935
 C2062 C 0.09587 0.70842 0.19861
 C2063 C 0.08024 0.71283 0.20720
 N2064 N 0.07646 0.72896 0.21046
 N2065 N 0.06254 0.73291 0.21864
 C2066 C 0.05188 0.72087 0.22380
 N2067 N 0.05558 0.70478 0.22036
 N2068 N 0.06952 0.70083 0.21230
 C2069 C 0.03625 0.72494 0.23249
 C2070 C 0.03296 0.74074 0.23887
 H2071 H 0.10303 0.71809 0.19262
 H2072 H 0.02720 0.71511 0.23403
 H2073 H 0.09547 0.68304 0.20652
 H2074 H 0.04276 0.74993 0.23852
 C2075 C 0.10565 0.18966 0.70796
 C2076 C 0.09523 0.20232 0.70233
 C2077 C 0.08091 0.20848 0.71191
 N2078 N 0.07094 0.22031 0.70520
 N2079 N 0.05794 0.22620 0.71362
 C2080 C 0.05440 0.22051 0.72909
 N2081 N 0.06440 0.20869 0.73586
 N2082 N 0.07743 0.20276 0.72741
 C2083 C 0.04005 0.22712 0.73841
 C2084 C 0.02912 0.23840 0.73111
 H2085 H 0.09752 0.20801 0.69038
 H2086 H 0.03796 0.22301 0.75105
 H2087 H 0.10316 0.18371 0.71975
 H2088 H 0.03049 0.24151 0.71809
 C2089 C 0.39821 0.70313 0.31150
 C2090 C 0.40505 0.70140 0.29568
 C2091 C 0.42108 0.70892 0.29114
 N2092 N 0.42529 0.71043 0.27489
 N2093 N 0.43992 0.71691 0.27057
 C2094 C 0.45095 0.72195 0.28234
 N2095 N 0.44680 0.72030 0.29860
 N2096 N 0.43211 0.71396 0.30293
 C2097 C 0.46725 0.72881 0.27769
 C2098 C 0.47031 0.73484 0.26177
 H2099 H 0.39830 0.69465 0.28618
 H2100 H 0.47687 0.72965 0.28710
 H2101 H 0.40422 0.71107 0.32057
 H2102 H 0.46017 0.73527 0.25294
 C2103 C 0.39985 0.18941 0.79994
 C2104 C 0.40527 0.20580 0.80078
 C2105 C 0.42071 0.21126 0.79266
 N2106 N 0.42360 0.22771 0.79056
 N2107 N 0.43745 0.23288 0.78310
 C2108 C 0.44897 0.22179 0.77754
 N2109 N 0.44616 0.20533 0.77978
 N2110 N 0.43224 0.20015 0.78714
 C2111 C 0.46441 0.22746 0.76954
 C2112 C 0.46611 0.24377 0.76405
 H2113 H 0.39761 0.21509 0.80685
 H2114 H 0.47444 0.21861 0.76773
 H2115 H 0.40699 0.18036 0.79292
 H2116 H 0.45542 0.25200 0.76468
 C2117 C 0.89549 0.68849 0.80127
 C2118 C 0.90227 0.70430 0.80307
 C2119 C 0.91857 0.70858 0.79592
 N2120 N 0.92279 0.72474 0.79367
 N2121 N 0.93748 0.72874 0.78709
 C2122 C 0.94856 0.71672 0.78268
 N2123 N 0.94443 0.70058 0.78513
 N2124 N 0.92968 0.69657 0.79155
 C2125 C 0.96483 0.72094 0.77542
 C2126 C 0.96782 0.73638 0.76822
 H2127 H 0.89520 0.71397 0.80929
 H2128 H 0.97437 0.71140 0.77495
 H2129 H 0.90200 0.67926 0.79389
 H2130 H 0.95768 0.74522 0.76739
 C2131 C 0.89766 0.19227 0.29188
 C2132 C 0.90485 0.20790 0.29394
 C2133 C 0.91985 0.21304 0.28478
 N2134 N 0.92486 0.22913 0.28537
 N2135 N 0.93852 0.23398 0.27734
 C2136 C 0.94774 0.22291 0.26847
 N2137 N 0.94278 0.20679 0.26795
 N2138 N 0.92906 0.20196 0.27591
 C2139 C 0.96320 0.22800 0.26004
 C2140 C 0.96765 0.24467 0.25837
 H2141 H 0.89918 0.21682 0.30231
 H2142 H 0.97123 0.21838 0.25504
 H2143 H 0.90286 0.18366 0.28290
 H2144 H 0.95888 0.25418 0.26223
 C2145 C 0.30627 0.29524 0.60052
 C2146 C 0.29025 0.29634 0.59396
 C2147 C 0.28571 0.28830 0.57821
 N2148 N 0.26942 0.28635 0.57415
 N2149 N 0.26512 0.27918 0.55985
 C2150 C 0.27698 0.27385 0.54903
 N2151 N 0.29327 0.27595 0.55301
 N2152 N 0.29756 0.28299 0.56738
 C2153 C 0.27244 0.26606 0.53315
 C2154 C 0.25653 0.25983 0.53022
 H2155 H 0.28061 0.30291 0.60073
 H2156 H 0.28204 0.26456 0.52380
 H2157 H 0.31557 0.28761 0.59440
 H2158 H 0.24746 0.26006 0.54014
 C2159 C 0.29577 0.79569 0.11235
 C2160 C 0.28404 0.80311 0.10199
 C2161 C 0.27684 0.79389 0.08789
 N2162 N 0.26836 0.80205 0.07580
 N2163 N 0.26232 0.79382 0.06273
 C2164 C 0.26450 0.77711 0.06132
 N2165 N 0.27280 0.76894 0.07350
 N2166 N 0.27890 0.77717 0.08651
 C2167 C 0.25817 0.76784 0.04689
 C2168 C 0.25213 0.77581 0.03276
 H2169 H 0.28076 0.81607 0.10367
 H2170 H 0.25895 0.75440 0.04710
 H2171 H 0.29965 0.78301 0.10992
 H2172 H 0.25301 0.78921 0.03188
 C2173 C 0.79270 0.30712 0.10316
 C2174 C 0.79707 0.29274 0.09455
 C2175 C 0.78742 0.28695 0.08012
 N2176 N 0.79322 0.27419 0.07071
 N2177 N 0.78460 0.26885 0.05760
 C2178 C 0.76982 0.27603 0.05346
 N2179 N 0.76397 0.28872 0.06294
 N2180 N 0.77262 0.29410 0.07600
 C2181 C 0.76015 0.27017 0.03909
 C2182 C 0.76661 0.25856 0.02800
 H2183 H 0.80795 0.28568 0.09825
 H2184 H 0.74772 0.27509 0.03711
 H2185 H 0.78221 0.31449 0.09896
 H2186 H 0.77937 0.25432 0.02925
 C2187 C 0.80913 0.80142 0.60699
 C2188 C 0.79321 0.80354 0.60045
 C2189 C 0.78824 0.79585 0.58463
 N2190 N 0.77185 0.79392 0.58100
 N2191 N 0.76716 0.78693 0.56673
 C2192 C 0.77870 0.78174 0.55550
 N2193 N 0.79510 0.78384 0.55905
 N2194 N 0.79979 0.79068 0.57340
 C2195 C 0.77363 0.77440 0.53955
 C2196 C 0.75770 0.76795 0.53721
 H2197 H 0.78389 0.81029 0.60749
 H2198 H 0.78268 0.77377 0.52958
 H2199 H 0.81798 0.79345 0.60064
 H2200 H 0.74940 0.76719 0.54777
 C2201 C 0.29633 0.68861 0.39757
 C2202 C 0.29737 0.70466 0.40401
 C2203 C 0.28956 0.70944 0.41984
 N2204 N 0.28751 0.72575 0.42362
 N2205 N 0.28084 0.73033 0.43809
 C2206 C 0.27612 0.71875 0.44939
 N2207 N 0.27829 0.70242 0.44567
 N2208 N 0.28481 0.69784 0.43113
 C2209 C 0.26924 0.72369 0.46562
 C2210 C 0.26298 0.73962 0.46844
 H2211 H 0.30381 0.71419 0.39705
 H2212 H 0.26879 0.71453 0.47546
 H2213 H 0.28872 0.67941 0.40376
 H2214 H 0.26219 0.74815 0.45811
 C2215 C 0.29861 0.20376 0.88720
 C2216 C 0.28678 0.19664 0.89764
 C2217 C 0.27985 0.20546 0.91214
 N2218 N 0.27050 0.19704 0.92334
 N2219 N 0.26418 0.20475 0.93658
 C2220 C 0.26691 0.22122 0.93909
 N2221 N 0.27616 0.22969 0.92783
 N2222 N 0.28256 0.22195 0.91462
 C2223 C 0.25990 0.22987 0.95366
 C2224 C 0.25274 0.22120 0.96683
 H2225 H 0.28288 0.18394 0.89557
 H2226 H 0.26079 0.24329 0.95427
 H2227 H 0.30318 0.21615 0.88983
 H2228 H 0.25343 0.20775 0.96693
 C2229 C 0.80247 0.69554 0.89861
 C2230 C 0.80371 0.71198 0.90382
 C2231 C 0.79652 0.71713 0.91983
 N2232 N 0.79190 0.73316 0.92245
 N2233 N 0.78475 0.73765 0.93673
 C2234 C 0.78209 0.72629 0.94892
 N2235 N 0.78697 0.71035 0.94639
 N2236 N 0.79396 0.70583 0.93208
 C2237 C 0.77433 0.73094 0.96478
 C2238 C 0.76518 0.74555 0.96679
 H2239 H 0.80889 0.72128 0.89561
 H2240 H 0.77532 0.72225 0.97501
 H2241 H 0.79578 0.68672 0.90626
 H2242 H 0.76295 0.75325 0.95603
 C2243 C 0.81147 0.20547 0.39414
 C2244 C 0.79560 0.20410 0.40101
 C2245 C 0.79119 0.21198 0.41694
 N2246 N 0.77494 0.21394 0.42118
 N2247 N 0.77078 0.22100 0.43559
 C2248 C 0.78272 0.22622 0.44637
 N2249 N 0.79897 0.22410 0.44220
 N2250 N 0.80314 0.21717 0.42773
 C2251 C 0.77830 0.23396 0.46236
 C2252 C 0.76247 0.24051 0.46530
 H2253 H 0.78593 0.19757 0.39427
 H2254 H 0.78792 0.23525 0.47173
 H2255 H 0.82074 0.21311 0.40025
 H2256 H 0.75346 0.24044 0.45531
 C2257 C 0.69585 0.29693 0.38984
 C2258 C 0.70925 0.30231 0.39945
 C2259 C 0.71515 0.29283 0.41398
 N2260 N 0.72762 0.29894 0.42360
 N2261 N 0.73301 0.29052 0.43681
 C2262 C 0.72614 0.27565 0.44088
 N2263 N 0.71373 0.26951 0.43123
 N2264 N 0.70832 0.27794 0.41804
 C2265 C 0.73188 0.26622 0.45547
 C2266 C 0.74375 0.27245 0.46645
 H2267 H 0.71550 0.31382 0.39643
 H2268 H 0.72635 0.25419 0.45789
 H2269 H 0.68950 0.28554 0.39313
 H2270 H 0.74832 0.28501 0.46493
 C2271 C 0.70314 0.80583 0.89294
 C2272 C 0.69803 0.79230 0.90241
 C2273 C 0.70808 0.78687 0.91678
 N2274 N 0.70247 0.77485 0.92719
 N2275 N 0.71148 0.77031 0.94038
 C2276 C 0.72640 0.77763 0.94362
 N2277 N 0.73201 0.78953 0.93316
 N2278 N 0.72303 0.79407 0.92003
 C2279 C 0.73660 0.77304 0.95806
 C2280 C 0.73160 0.76146 0.96984
 H2281 H 0.68642 0.78605 0.89963
 H2282 H 0.74849 0.77921 0.95964
 H2283 H 0.71455 0.81219 0.89626
 H2284 H 0.71917 0.75628 0.96933
 C2285 C 0.19568 0.30265 0.89640
 C2286 C 0.19369 0.28634 0.90175
 C2287 C 0.20120 0.28070 0.91748
 N2288 N 0.20246 0.26424 0.92091
 N2289 N 0.20952 0.25912 0.93501
 C2290 C 0.21552 0.27028 0.94621
 N2291 N 0.21411 0.28672 0.94283
 N2292 N 0.20714 0.29183 0.92872
 C2293 C 0.22319 0.26493 0.96191
 C2294 C 0.22745 0.24843 0.96498
 H2295 H 0.18720 0.27743 0.89400
 H2296 H 0.22594 0.27436 0.97114
 H2297 H 0.20313 0.31113 0.90376
 H2298 H 0.22587 0.23932 0.95518
 C2299 C 0.20324 0.80172 0.39450
 C2300 C 0.19739 0.78920 0.40490
 C2301 C 0.20750 0.78375 0.41931
 N2302 N 0.20149 0.77248 0.43032
 N2303 N 0.21062 0.76781 0.44340
 C2304 C 0.22609 0.77424 0.44592
 N2305 N 0.23208 0.78541 0.43487
 N2306 N 0.22297 0.79008 0.42186
 C2307 C 0.23654 0.76936 0.46016
 C2308 C 0.23124 0.75854 0.47253
 H2309 H 0.18532 0.78364 0.40270
 H2310 H 0.24891 0.77468 0.46105
 H2311 H 0.21521 0.80732 0.39722
 H2312 H 0.21846 0.75426 0.47267
 C2313 C 0.69133 0.70820 0.61026
 C2314 C 0.70477 0.70376 0.60021
 C2315 C 0.71006 0.71408 0.58611
 N2316 N 0.72242 0.70871 0.57592
 N2317 N 0.72735 0.71795 0.56311
 C2318 C 0.72011 0.73292 0.56006
 N2319 N 0.70779 0.73831 0.57028
 N2320 N 0.70284 0.72906 0.58306
 C2321 C 0.72537 0.74327 0.54599
 C2322 C 0.73688 0.73773 0.53429
 H2323 H 0.71155 0.69237 0.60260
 H2324 H 0.71984 0.75549 0.54457
 H2325 H 0.68434 0.71940 0.60754
 H2326 H 0.74163 0.72513 0.53484
 C2327 C 0.70652 0.18697 0.10489
 C2328 C 0.70495 0.20261 0.09767
 C2329 C 0.71286 0.20671 0.08171
 N2330 N 0.71392 0.22280 0.07681
 N2331 N 0.72081 0.22669 0.06229
 C2332 C 0.72680 0.21464 0.05204
 N2333 N 0.72563 0.19854 0.05687
 N2334 N 0.71885 0.19464 0.07147
 C2335 C 0.73403 0.21880 0.03577
 C2336 C 0.73873 0.23500 0.03188
 H2337 H 0.69804 0.21228 0.10404
 H2338 H 0.73598 0.20890 0.02684
 H2339 H 0.71440 0.17768 0.09908
 H2340 H 0.73806 0.24439 0.04150
 C2341 C 0.20093 0.69420 0.10611
 C2342 C 0.19774 0.70996 0.09964
 C2343 C 0.20507 0.71552 0.08380
 N2344 N 0.20403 0.73174 0.07926
 N2345 N 0.21050 0.73688 0.06490
 C2346 C 0.21815 0.72596 0.05448
 N2347 N 0.21910 0.70974 0.05897
 N2348 N 0.21273 0.70462 0.07337
 C2349 C 0.22522 0.73132 0.03847
 C2350 C 0.22747 0.74802 0.03441
 H2351 H 0.18988 0.71856 0.10644
 H2352 H 0.22945 0.72181 0.02990
 H2353 H 0.20954 0.68601 0.09971
 H2354 H 0.22448 0.75749 0.04352
 C2355 C 0.19122 0.20360 0.60574
 C2356 C 0.20527 0.19911 0.59659
 C2357 C 0.21054 0.20828 0.58172
 N2358 N 0.22350 0.20253 0.57254
 N2359 N 0.22850 0.21070 0.55906
 C2360 C 0.22076 0.22494 0.55431
 N2361 N 0.20783 0.23074 0.56353
 N2362 N 0.20279 0.22254 0.57699
 C2363 C 0.22622 0.23409 0.53951
 C2364 C 0.23832 0.22777 0.52882
 H2365 H 0.21262 0.18845 0.60027
 H2366 H 0.22044 0.24596 0.53677
 H2367 H 0.18359 0.21396 0.60172
 H2368 H 0.24309 0.21530 0.53062
   
