data_POSCAR
  _audit_creation_date              2014-09-24
  _audit_creation_method            'ToBaCCo'
  _symmetry_space_group_name_H-M    'P1'
  _symmetry_Int_Tables_number       1
  _symmetry_cell_setting            triclinic
  loop_
  _symmetry_equiv_pos_as_xyz
 x,y,z
_cell_length_a 46.6022
_cell_length_b 46.5188
_cell_length_c 46.4088
_cell_angle_alpha 90.081400
_cell_angle_beta 89.930400
_cell_angle_gamma 90.017400
loop_
  _atom_site_label
  _atom_site_type_symbol
  _atom_site_fract_x
  _atom_site_fract_y
  _atom_site_fract_z
C1 C 0.35810 1.35755 0.32249
 N2 N 0.33403 1.36938 0.33407
 C3 C 0.32168 1.35749 0.35778
 N4 N 0.33343 1.33367 0.36983
 C5 C 0.35748 1.32186 0.35833
 N6 N 0.36972 1.33377 0.33466
 C7 C 0.35668 0.85958 0.82312
 N8 N 0.33280 0.87140 0.83495
 C9 C 0.32071 0.85942 0.85869
 N10 N 0.33249 0.83547 0.87046
 C11 C 0.35635 0.82358 0.85862
 N12 N 0.36838 0.83564 0.83492
 C13 C 0.85923 1.35925 0.82270
 N14 N 0.83524 1.37097 0.83452
 C15 C 0.82319 1.35907 0.85835
 N16 N 0.83520 1.33532 0.87031
 C17 C 0.85920 1.32358 0.85855
 N18 N 0.87110 1.33552 0.83473
 C19 C 0.85915 0.85892 0.32250
 N20 N 0.87065 0.83493 0.33446
 C21 C 0.85854 0.82317 0.35831
 N22 N 0.83483 0.83536 0.37011
 C23 C 0.82330 0.85932 0.35820
 N24 N 0.83542 0.87103 0.33437
 C25 C 0.64031 0.64015 0.32432
 N26 N 0.66404 0.62803 0.33609
 C27 C 0.67597 0.63961 0.36013
 N28 N 0.66428 0.66343 0.37226
 C29 C 0.64056 0.67553 0.36056
 N30 N 0.62864 0.66392 0.33656
 C31 C 0.64466 0.14202 0.82218
 N32 N 0.66868 0.13027 0.83382
 C33 C 0.68077 0.14216 0.85768
 N34 N 0.66884 0.16590 0.86977
 C35 C 0.64487 0.17767 0.85823
 N36 N 0.63284 0.16575 0.83444
 C37 C 1.14040 0.63941 0.82277
 N38 N 1.12841 0.66320 0.83469
 C39 C 1.13991 0.67497 0.85881
 N40 N 1.16356 0.66301 0.87092
 C41 C 1.17558 0.63922 0.85903
 N42 N 1.16403 0.62749 0.83490
 C43 C 1.14162 0.14053 0.32421
 N44 N 1.12984 0.16429 0.33636
 C45 C 1.14180 0.17617 0.36020
 N46 N 1.16573 0.16437 0.37185
 C47 C 1.17760 0.14057 0.35982
 N48 N 1.16555 0.12871 0.33596
 C49 C 0.64186 1.35802 0.67762
 N50 N 0.66579 1.36997 0.66597
 C51 C 0.67798 1.35827 0.64208
 N52 N 0.66621 1.33451 0.62989
 C53 C 0.64227 1.32257 0.64142
 N54 N 0.63016 1.33427 0.66532
 C55 C 0.64016 0.86142 1.17453
 N56 N 0.66408 0.87308 1.16262
 C57 C 0.67571 0.86126 1.13852
 N58 N 0.66353 0.83765 1.12648
 C59 C 0.63960 0.82601 1.13834
 N60 N 0.62800 0.83785 1.16239
 C61 C 1.14290 1.35839 1.17751
 N62 N 1.16691 1.37002 1.16569
 C63 C 1.17894 1.35792 1.14190
 N64 N 1.16697 1.33409 1.13004
 C65 C 1.14298 1.32247 1.14177
 N66 N 1.13102 1.33459 1.16551
 C67 C 1.14227 0.86015 0.67518
 N68 N 1.16619 0.87174 0.66325
 C69 C 1.17796 0.85978 0.63931
 N70 N 1.16584 0.83607 0.62738
 C71 C 1.14188 0.82445 0.63921
 N72 N 1.13015 0.83646 0.66316
 C73 C 0.35683 0.63949 0.67602
 N74 N 0.36893 0.66333 0.66433
 C75 C 0.35731 0.67553 0.64051
 N76 N 0.33349 0.66391 0.62843
 C77 C 0.32134 0.64005 0.64004
 N78 N 0.33299 0.62792 0.66390
 C79 C 0.35856 0.14159 1.17813
 N80 N 0.37047 0.16539 1.16620
 C81 C 0.35864 0.17742 1.14240
 N82 N 0.33473 0.16571 1.13056
 C83 C 0.32272 0.14188 1.14237
 N84 N 0.33465 0.12988 1.16619
 C85 C 0.85830 0.64116 1.17701
 N86 N 0.87034 0.66510 1.16549
 C87 C 0.85863 0.67738 1.14174
 N88 N 0.83477 0.66579 1.12967
 C89 C 0.82267 0.64190 1.14120
 N90 N 0.83443 0.62964 1.16491
 C91 C 0.85748 0.14175 0.67799
 N92 N 0.86938 0.16553 0.66605
 C93 C 0.85750 0.17765 0.64234
 N94 N 0.83353 0.16601 0.63055
 C95 C 0.82151 0.14217 0.64236
 N96 N 0.83349 0.13009 0.66615
 C97 C 1.35935 0.35789 0.67778
 N98 N 1.37111 0.33398 0.66581
 C99 C 1.35933 0.32210 0.64185
 N100 N 1.33564 0.33421 0.62992
 C101 C 1.32382 0.35812 0.64184
 N102 N 1.33566 0.36987 0.66580
 C103 C 1.35926 0.85902 1.17587
 N104 N 1.37089 0.83502 1.16397
 C105 C 1.35892 0.82311 1.14013
 N106 N 1.33520 0.83523 1.12830
 C107 C 1.32356 0.85922 1.14020
 N108 N 1.33555 0.87102 1.16403
 C109 C 0.85784 0.35841 1.17715
 N110 N 0.83423 0.37041 1.16505
 C111 C 0.82247 0.35863 1.14105
 N112 N 0.83424 0.33468 1.12920
 C113 C 0.85788 0.32265 1.14124
 N114 N 0.86961 0.33451 1.16522
 C115 C 0.85907 0.86040 0.67566
 N116 N 0.87053 0.83648 0.66346
 C117 C 0.85813 0.82458 0.63983
 N118 N 0.83417 0.83661 0.62848
 C119 C 0.82269 0.86055 0.64065
 N120 N 0.83509 0.87236 0.66429
 C121 C 0.63959 0.63964 0.67634
 N122 N 0.66351 0.62802 0.66437
 C123 C 0.67529 0.64005 0.64050
 N124 N 0.66322 0.66382 0.62874
 C125 C 0.63932 0.67547 0.64070
 N126 N 0.62758 0.66341 0.66454
 C127 C 0.64080 1.14296 1.17797
 N128 N 0.62927 1.16706 1.16626
 C129 C 0.64135 1.17909 1.14252
 N130 N 0.66510 1.16700 1.13061
 C131 C 0.67671 1.14294 1.14231
 N132 N 0.66456 1.13100 1.16600
 C133 C 0.14080 0.64155 1.17699
 N134 N 0.16461 0.62977 1.16500
 C135 C 0.17669 0.64179 1.14131
 N136 N 0.16501 0.66582 1.12961
 C137 C 0.14116 0.67773 1.14150
 N138 N 0.12912 0.66556 1.16522
 C139 C 0.14312 1.14347 0.67654
 N140 N 0.13130 1.16741 0.66479
 C141 C 0.14307 1.17942 0.64086
 N142 N 0.16678 1.16745 0.62878
 C143 C 0.17857 1.14350 0.64047
 N144 N 0.16678 1.13160 0.66437
 C145 C 1.35944 0.63872 0.32294
 N146 N 1.37132 0.66251 0.33497
 C147 C 1.35937 0.67451 0.35877
 N148 N 1.33538 0.66275 0.37046
 C149 C 1.32345 0.63897 0.35844
 N150 N 1.33545 0.62704 0.33464
 C151 C 1.36052 1.14220 0.82248
 N152 N 1.37234 1.16601 0.83450
 C153 C 1.36055 1.17785 0.85848
 N154 N 1.33673 1.16587 0.87036
 C155 C 1.32480 1.14206 0.85836
 N156 N 1.33670 1.13030 0.83440
 C157 C 0.85898 0.64074 0.82394
 N158 N 0.87076 0.66454 0.83602
 C159 C 0.85868 0.67655 0.85976
 N160 N 0.83468 0.66477 0.87137
 C161 C 0.82287 0.64093 0.85933
 N162 N 0.83498 0.62900 0.83556
 C163 C 0.85988 1.14217 0.32374
 N164 N 0.87165 1.16604 0.33571
 C165 C 0.85974 1.17796 0.35960
 N166 N 0.83589 1.16604 0.37145
 C167 C 0.82405 1.14217 0.35952
 N168 N 0.83604 1.13031 0.33565
 C169 C 0.64109 0.35692 0.32149
 N170 N 0.66479 0.36855 0.33386
 C171 C 0.67643 0.35632 0.35763
 N172 N 0.66438 0.33233 0.36901
 C173 C 0.64069 0.32056 0.35672
 N174 N 0.62910 0.33286 0.33290
 C175 C 0.64178 0.86037 0.82416
 N176 N 0.66585 0.87181 0.83587
 C177 C 0.67781 0.85967 0.85956
 N178 N 0.66573 0.83590 0.87145
 C179 C 0.64160 0.82444 0.85975
 N180 N 0.62972 0.83666 0.83609
 C181 C 0.14155 0.35819 0.82318
 N182 N 0.16544 0.36988 0.83509
 C183 C 0.17723 0.35795 0.85895
 N184 N 0.16516 0.33421 0.87082
 C185 C 0.14129 0.32241 0.85895
 N186 N 0.12954 0.33439 0.83505
 C187 C 0.14032 0.85858 0.32222
 N188 N 0.16428 0.87035 0.33398
 C189 C 0.17630 0.85842 0.35776
 N190 N 0.16440 0.83459 0.36969
 C191 C 0.14046 0.82281 0.35796
 N192 N 0.12851 0.83479 0.33422
 O193 O 0.97385 0.89649 0.85647
 O194 O 0.97390 0.86308 0.82271
 C195 C 0.96423 0.88651 0.83289
 C196 C 0.94102 0.90190 0.81759
 C197 C 0.93079 0.89164 0.79107
 H198 H 0.94067 0.87297 0.78133
 O199 O 1.02943 1.10503 0.85747
 O200 O 1.02975 1.13880 0.82417
 C201 C 1.03944 1.11531 0.83421
 C202 C 1.06310 1.10025 0.81909
 C203 C 1.07342 1.11068 0.79270
 H204 H 1.06328 1.12918 0.78300
 O205 O 0.85952 0.97295 0.89460
 O206 O 0.82618 0.97292 0.86092
 C207 C 0.83620 0.96314 0.88440
 C208 C 0.82098 0.93964 0.89960
 C209 C 0.79447 0.92953 0.88939
 H210 H 0.78473 0.93960 0.87083
 O211 O 1.14472 1.02900 0.89591
 O212 O 1.17850 1.02881 0.86261
 C213 C 1.16822 1.03873 0.88597
 C214 C 1.18313 1.06238 0.90142
 C215 C 1.20951 1.07324 0.89142
 H216 H 1.21975 1.06375 0.87272
 O217 O 0.89672 0.85742 0.97144
 O218 O 0.86313 0.82402 0.97109
 C219 C 0.88660 0.83408 0.96146
 C220 C 0.90196 0.81905 0.93786
 C221 C 0.89204 0.79253 0.92727
 H222 H 0.87349 0.78231 0.93696
 O223 O 1.10521 1.14318 0.97316
 O224 O 1.13844 1.17694 0.97353
 C225 C 1.11520 1.16670 0.96352
 C226 C 1.10009 1.18187 0.93993
 C227 C 1.11043 1.20831 0.92967
 H228 H 1.12894 1.21806 0.93975
 O229 O 0.89874 1.02926 0.85528
 O230 O 0.86552 1.02920 0.82148
 C231 C 0.88868 1.03918 0.83188
 C232 C 0.90360 1.06319 0.81720
 C233 C 0.89328 1.07410 0.79097
 H234 H 0.87486 1.06426 0.78067
 O235 O 1.10511 0.97315 0.85623
 O236 O 1.13864 0.97279 0.82267
 C237 C 1.11525 0.96307 0.83288
 C238 C 1.10008 0.93920 0.81809
 C239 C 1.10990 0.92854 0.79145
 H240 H 1.12821 0.93837 0.78095
 O241 O 1.02897 0.85622 0.89596
 O242 O 1.02910 0.82271 0.86230
 C243 C 1.03864 0.83272 0.88588
 C244 C 1.06173 0.81745 0.90148
 C245 C 1.07220 0.79085 0.89161
 H246 H 1.06278 0.78071 0.87283
 O247 O 0.97327 1.14453 0.89669
 O248 O 0.97351 1.17847 0.86357
 C249 C 0.96353 1.16804 0.88680
 C250 C 0.93982 1.18280 0.90213
 C251 C 0.92898 1.20920 0.89215
 H252 H 0.93855 1.21954 0.87357
 O253 O 0.85795 1.10417 0.97169
 O254 O 0.82461 1.13780 0.97147
 C255 C 0.83484 1.11447 0.96152
 C256 C 0.82032 1.09946 0.93735
 C257 C 0.79407 1.10953 0.92634
 H258 H 0.78367 1.12800 0.93604
 O259 O 1.14140 0.89590 0.97232
 O260 O 1.17496 0.86249 0.97226
 C261 C 1.16474 0.88583 0.96239
 C262 C 1.17987 0.90101 0.93873
 C263 C 1.20623 0.89056 0.92846
 H264 H 1.21579 0.87191 0.93847
 O265 O 0.97342 1.10561 0.85667
 O266 O 0.97367 1.13939 0.82339
 C267 C 0.96377 1.11593 0.83327
 C268 C 0.94026 1.10084 0.81792
 C269 C 0.92961 1.11141 0.79166
 H270 H 0.93928 1.13024 0.78207
 O271 O 1.02979 0.89659 0.85745
 O272 O 1.02982 0.86320 0.82367
 C273 C 1.03964 0.88654 0.83398
 C274 C 1.06314 0.90179 0.81883
 C275 C 1.07323 0.89161 0.79221
 H276 H 1.06315 0.87307 0.78246
 O277 O 1.14346 0.97282 0.89642
 O278 O 1.17726 0.97236 0.86313
 C279 C 1.16669 0.96257 0.88644
 C280 C 1.18098 0.93847 0.90168
 C281 C 1.20734 0.92755 0.89176
 H282 H 1.21790 0.93728 0.87339
 O283 O 0.85968 1.02902 0.89496
 O284 O 0.82635 1.02897 0.86127
 C285 C 0.83637 1.03879 0.88477
 C286 C 0.82118 1.06234 0.89994
 C287 C 0.79494 1.07267 0.88938
 H288 H 0.78540 1.06262 0.87069
 O289 O 0.89743 1.14337 0.97256
 O290 O 0.86420 1.17711 0.97265
 C291 C 0.88755 1.16691 0.96290
 C292 C 0.90282 1.18215 0.93950
 C293 C 0.89242 1.20853 0.92930
 H294 H 0.87389 1.21818 0.93946
 O295 O 1.10269 0.85591 0.97287
 O296 O 1.13618 0.82242 0.97294
 C297 C 1.11285 0.83249 0.96313
 C298 C 1.09791 0.81736 0.93949
 C299 C 1.10803 0.79078 0.92940
 H300 H 1.12618 0.78080 0.93987
 O301 O 1.10523 1.02936 0.85663
 O302 O 1.13876 1.02925 0.82307
 C303 C 1.11546 1.03926 0.83328
 C304 C 1.10039 1.06319 0.81849
 C305 C 1.11045 1.07408 0.79206
 H306 H 1.12896 1.06448 0.78169
 O307 O 0.89905 0.97305 0.85529
 O308 O 0.86583 0.97295 0.82148
 C309 C 0.88908 0.96314 0.83182
 C310 C 0.90425 0.93937 0.81699
 C311 C 0.89428 0.92871 0.79047
 H312 H 0.87593 0.93852 0.78009
 O313 O 1.02932 1.14435 0.89700
 O314 O 1.02967 1.17828 0.86387
 C315 C 1.03934 1.16778 0.88718
 C316 C 1.06303 1.18245 0.90262
 C317 C 1.07377 1.20889 0.89270
 H318 H 1.06412 1.21926 0.87419
 O319 O 0.97305 0.85742 0.89615
 O320 O 0.97315 0.82389 0.86251
 C321 C 0.96319 0.83411 0.88589
 C322 C 0.93943 0.81915 0.90090
 C323 C 0.92921 0.79264 0.89069
 H324 H 0.93942 0.78268 0.87228
 O325 O 1.14441 1.10370 0.97289
 O326 O 1.17776 1.13733 0.97324
 C327 C 1.16770 1.11399 0.96313
 C328 C 1.18278 1.09912 0.93924
 C329 C 1.20912 1.10957 0.92894
 H330 H 1.21888 1.12797 0.93926
 O331 O 0.85806 0.89734 0.97095
 O332 O 0.82428 0.86414 0.97065
 C333 C 0.83477 0.88739 0.96085
 C334 C 0.82023 0.90262 0.93697
 C335 C 0.79373 0.89283 0.92638
 H336 H 0.78325 0.87452 0.93626
 Cu337 Cu 1.00145 0.88001 0.87991
 Cu338 Cu 1.00151 0.83987 0.83939
 Cu339 Cu 1.00128 1.12153 0.88029
 Cu340 Cu 1.00170 1.16213 0.84041
 Cu341 Cu 0.88263 1.00105 0.87836
 Cu342 Cu 0.84264 1.00099 0.83789
 Cu343 Cu 1.12129 1.00116 0.87959
 Cu344 Cu 1.16167 1.00078 0.83954
 C345 C 0.92782 0.92597 0.83023
 H346 H 0.93533 0.93372 0.85091
 C347 C 0.90744 0.90488 0.77749
 C348 C 1.07653 1.07632 0.83167
 H349 H 1.06888 1.06843 0.85224
 C350 C 1.09703 1.09781 0.77912
 C351 C 0.83355 0.92622 0.92358
 H352 H 0.85419 0.93364 0.93132
 C353 C 0.78081 0.90616 0.90265
 C354 C 1.17012 1.07535 0.92552
 H355 H 1.14959 1.06745 0.93312
 C356 C 1.22255 1.09681 0.90508
 C357 C 0.92585 0.83203 0.92468
 H358 H 0.93338 0.85268 0.93241
 C359 C 0.90555 0.77928 0.90372
 C360 C 1.07619 1.16925 0.92644
 H361 H 1.06837 1.14865 0.93394
 C362 C 1.09744 1.22184 0.90607
 C363 C 0.92728 1.07655 0.83033
 H364 H 0.93508 1.06854 0.85078
 C365 C 0.90612 1.09815 0.77814
 C366 C 1.07650 0.92578 0.83145
 H367 H 1.06905 0.93350 0.85218
 C368 C 1.09655 0.90479 0.77846
 C369 C 1.07455 0.83034 0.92562
 H370 H 1.06694 0.85106 0.93307
 C371 C 1.09534 0.77748 0.90549
 C372 C 0.92671 1.16961 0.92600
 H373 H 0.93455 1.14903 0.93354
 C374 C 0.90528 1.22208 0.90564
 C375 C 0.83355 1.07567 0.92410
 H376 H 0.85399 1.06803 0.93210
 C377 C 0.78134 1.09621 0.90238
 C378 C 1.16753 0.92515 0.92537
 H379 H 1.14700 0.93309 0.93291
 C380 C 1.21998 0.90364 0.90502
 O381 O 1.02738 0.89659 1.14409
 O382 O 1.02713 0.86335 1.17791
 C383 C 1.03717 0.88656 1.16754
 C384 C 1.06104 0.90167 1.18228
 C385 C 1.07176 0.89166 1.20875
 H386 H 1.06200 0.87325 1.21916
 O387 O 0.97256 1.10306 1.14555
 O388 O 0.97249 1.13663 1.17914
 C389 C 0.96262 1.11330 1.16891
 C390 C 0.93870 1.09835 1.18363
 C391 C 0.92793 1.10840 1.21009
 H392 H 0.93781 1.12671 1.22061
 O393 O 0.85632 1.02942 1.10438
 O394 O 0.82254 1.02929 1.13770
 C395 C 0.83286 1.03919 1.11440
 C396 C 0.81798 1.06278 1.09906
 C397 C 0.79162 1.07366 1.10908
 H398 H 0.78138 1.06424 1.12779
 O399 O 1.14370 0.97205 1.10414
 O400 O 1.17720 0.97149 1.13765
 C401 C 1.16696 0.96196 1.11416
 C402 C 1.18169 0.93835 1.09866
 C403 C 1.20828 0.92780 1.10825
 H404 H 1.21879 0.93752 1.12666
 O405 O 1.10294 0.85627 1.02916
 O406 O 1.13645 0.82281 1.02920
 C407 C 1.11315 0.83299 1.03915
 C408 C 1.09808 0.81816 1.06307
 C409 C 1.10820 0.79183 1.07394
 H410 H 1.12676 0.78160 1.06428
 O411 O 0.89699 1.14261 1.02881
 O412 O 0.86383 1.17642 1.02890
 C413 C 0.88698 1.16595 1.03888
 C414 C 0.90207 1.18059 1.06292
 C415 C 0.89207 1.20704 1.07361
 H416 H 0.87370 1.21738 1.06377
 O417 O 0.89565 0.97300 1.14321
 O418 O 0.86199 0.97280 1.17665
 C419 C 0.88539 0.96305 1.16652
 C420 C 0.90045 0.93943 1.18162
 C421 C 0.89010 0.92915 1.20810
 H422 H 0.87158 0.93921 1.21789
 O423 O 1.10453 1.02805 1.14387
 O424 O 1.13789 1.02755 1.17754
 C425 C 1.11463 1.03758 1.16744
 C426 C 1.09957 1.06106 1.18281
 C427 C 1.10997 1.07127 1.20928
 H428 H 1.12852 1.06118 1.21888
 O429 O 0.97137 0.85744 1.10451
 O430 O 0.97082 0.82397 1.13811
 C431 C 0.96126 0.83417 1.11460
 C432 C 0.93765 0.81938 1.09914
 C433 C 0.92685 0.79295 1.10904
 H434 H 0.93634 0.78265 1.12765
 O435 O 1.02856 1.14184 1.10557
 O436 O 1.02854 1.17558 1.13899
 C437 C 1.03835 1.16528 1.11559
 C438 C 1.06191 1.18031 1.10034
 C439 C 1.07207 1.20683 1.11056
 H440 H 1.06192 1.21671 1.12904
 O441 O 0.85705 0.89721 1.02717
 O442 O 0.82326 0.86401 1.02698
 C443 C 0.83352 0.88733 1.03685
 C444 C 0.81849 0.90281 1.06037
 C445 C 0.79180 0.89314 1.07071
 H446 H 0.78147 0.87470 1.06091
 O447 O 1.14491 1.10396 1.02919
 O448 O 1.17824 1.13761 1.02960
 C449 C 1.16815 1.11415 1.03924
 C450 C 1.18298 1.09890 1.06297
 C451 C 1.20926 1.10899 1.07394
 H452 H 1.21950 1.12762 1.06443
 O453 O 1.02864 1.10306 1.14553
 O454 O 1.02871 1.13663 1.17913
 C455 C 1.03857 1.11327 1.16890
 C456 C 1.06240 1.09817 1.18367
 C457 C 1.07322 1.10815 1.21016
 H458 H 1.06355 1.12659 1.22063
 O459 O 0.97132 0.89686 1.14396
 O460 O 0.97091 0.86360 1.17776
 C461 C 0.96126 0.88693 1.16737
 C462 C 0.93754 0.90224 1.18213
 C463 C 0.92681 0.89228 1.20861
 H464 H 0.93648 0.87381 1.21897
 O465 O 1.14389 1.02815 1.10441
 O466 O 1.17732 1.02759 1.13799
 C467 C 1.16727 1.03772 1.11468
 C468 C 1.18248 1.06141 1.09983
 C469 C 1.20873 1.07175 1.11042
 H470 H 1.21839 1.06157 1.12896
 O471 O 0.85715 0.97340 1.10306
 O472 O 0.82336 0.97324 1.13637
 C473 C 0.83371 0.96358 1.11293
 C474 C 0.81870 0.94018 1.09746
 C475 C 0.79206 0.93027 1.10737
 H476 H 0.78211 0.94058 1.12572
 O477 O 1.10477 1.14249 1.02941
 O478 O 1.13796 1.17629 1.02982
 C479 C 1.11465 1.16587 1.03950
 C480 C 1.09925 1.18062 1.06324
 C481 C 1.10910 1.20714 1.07388
 H482 H 1.12758 1.21747 1.06418
 O483 O 0.89656 0.85807 1.02770
 O484 O 0.86295 0.82469 1.02744
 C485 C 0.88623 0.83479 1.03751
 C486 C 0.90102 0.81976 1.06139
 C487 C 0.89062 0.79335 1.07161
 H488 H 0.87228 0.78354 1.06128
 O489 O 1.10381 0.97201 1.14308
 O490 O 1.13720 0.97155 1.17671
 C491 C 1.11378 0.96202 1.16646
 C492 C 1.09842 0.93859 1.18158
 C493 C 1.10868 0.92833 1.20803
 H494 H 1.12727 0.93831 1.21772
 O495 O 0.89598 1.02902 1.14352
 O496 O 0.86232 1.02882 1.17696
 C497 C 0.88579 1.03859 1.16704
 C498 C 0.90104 1.06179 1.18258
 C499 C 0.89065 1.07207 1.20904
 H500 H 0.87188 1.06226 1.21857
 O501 O 0.97255 1.14179 1.10558
 O502 O 0.97248 1.17553 1.13901
 C503 C 0.96268 1.16521 1.11561
 C504 C 0.93908 1.18019 1.10034
 C505 C 0.92872 1.20663 1.11061
 H506 H 0.93868 1.21648 1.12919
 O507 O 1.02736 0.85701 1.10487
 O508 O 1.02696 0.82358 1.13851
 C509 C 1.03701 0.83363 1.11513
 C510 C 1.06072 0.81850 1.10015
 C511 C 1.07112 0.79219 1.11063
 H512 H 1.06101 0.78244 1.12918
 O513 O 1.14203 0.89593 1.02851
 O514 O 1.17562 0.86253 1.02835
 C515 C 1.16551 0.88596 1.03809
 C516 C 1.18086 0.90129 1.06135
 C517 C 1.20745 0.89115 1.07114
 H518 H 1.21713 0.87269 1.06082
 O519 O 0.85703 1.10395 1.02800
 O520 O 0.82375 1.13764 1.02782
 C521 C 0.83366 1.11422 1.03767
 C522 C 0.81839 1.09932 1.06130
 C523 C 0.79207 1.10984 1.07155
 H524 H 0.78237 1.12825 1.06124
 Cu525 Cu 0.99938 0.88031 1.12101
 Cu526 Cu 0.99890 0.84028 1.16147
 Cu527 Cu 1.00059 1.11902 1.12227
 Cu528 Cu 1.00056 1.15949 1.16241
 Cu529 Cu 0.88045 0.88084 0.99934
 Cu530 Cu 0.84003 0.84086 0.99902
 Cu531 Cu 1.11884 0.87930 1.00075
 Cu532 Cu 1.15918 0.83921 1.00067
 Cu533 Cu 0.88065 1.12012 1.00026
 Cu534 Cu 0.84077 1.16063 1.00020
 Cu535 Cu 1.12153 1.11994 1.00115
 Cu536 Cu 1.16143 1.16043 1.00156
 Cu537 Cu 0.87964 1.00130 1.12018
 Cu538 Cu 0.83916 1.00099 1.16028
 Cu539 Cu 1.12067 1.00012 1.12046
 Cu540 Cu 1.16075 0.99948 1.16086
 C541 C 1.07440 0.92534 1.16901
 H542 H 1.06664 0.93293 1.14838
 C543 C 1.09557 0.90490 1.22164
 C544 C 0.92526 1.07484 1.17022
 H545 H 0.93312 1.06726 1.14959
 C546 C 0.90394 1.09535 1.22285
 C547 C 0.83100 1.07561 1.07498
 H548 H 0.85153 1.06769 1.06740
 C549 C 0.77862 1.09720 1.09542
 C550 C 1.16830 0.92510 1.07500
 H551 H 1.14757 0.93274 1.06777
 C552 C 1.22119 0.90421 1.09456
 C553 C 1.07416 0.83115 1.07620
 H554 H 1.06648 0.85163 1.06827
 C555 C 1.09482 0.77878 1.09768
 C556 C 0.92576 1.16745 1.07631
 H557 H 0.93336 1.14686 1.06851
 C558 C 0.90526 1.22009 1.09741
 C559 C 0.92437 0.92602 1.16894
 H560 H 0.93220 0.93356 1.14831
 C561 C 0.90312 0.90561 1.22162
 C562 C 1.07561 1.07444 1.17035
 H563 H 1.06774 1.06688 1.14973
 C564 C 1.09699 1.09478 1.22301
 C565 C 0.92472 0.83246 1.07512
 H566 H 0.93260 0.85304 1.06760
 C567 C 0.90337 0.77991 1.09538
 C568 C 1.07545 1.16750 1.07648
 H569 H 1.06799 1.14683 1.06874
 C570 C 1.09564 1.22026 1.09750
 C571 C 0.83163 0.92654 1.07375
 H572 H 0.85241 0.93386 1.06629
 C573 C 0.77858 0.90678 1.09420
 C574 C 1.16995 1.07492 1.07591
 H575 H 1.14949 1.06728 1.06791
 C576 C 1.22218 1.09551 1.09765
 O577 O 0.97141 0.39519 0.35676
 O578 O 0.97137 0.36126 0.32352
 C579 C 0.96155 0.38471 0.33350
 C580 C 0.93780 0.39948 0.31844
 C581 C 0.92762 0.38913 0.29193
 H582 H 0.93799 0.37087 0.28193
 O583 O 1.02645 0.60199 0.35555
 O584 O 1.02581 0.63516 0.32166
 C585 C 1.03599 0.61205 0.33197
 C586 C 1.05978 0.59726 0.31681
 C587 C 1.07013 0.60795 0.29051
 H588 H 1.05985 0.62638 0.28082
 O589 O 0.85544 0.46916 0.39679
 O590 O 0.82178 0.46887 0.36344
 C591 C 0.83205 0.45922 0.38684
 C592 C 0.81720 0.43568 0.40235
 C593 C 0.79096 0.42467 0.39229
 H594 H 0.78080 0.43399 0.37351
 O595 O 1.14221 0.52765 0.39434
 O596 O 1.17569 0.52784 0.36072
 C597 C 1.16547 0.53765 0.38417
 C598 C 1.18023 0.56143 0.39948
 C599 C 1.20691 0.57180 0.38983
 H600 H 1.21742 0.56190 0.37149
 O601 O 0.89610 0.35700 0.47388
 O602 O 0.86313 0.32298 0.47439
 C603 C 0.88624 0.33343 0.46424
 C604 C 0.90130 0.31846 0.44044
 C605 C 0.89104 0.29200 0.43019
 H606 H 0.87270 0.28212 0.44048
 O607 O 1.10200 0.64341 0.47025
 O608 O 1.13525 0.67715 0.46960
 C609 C 1.11191 0.66671 0.46006
 C610 C 1.09652 0.68130 0.43635
 C611 C 1.10631 0.70774 0.42557
 H612 H 1.12473 0.71819 0.43524
 O613 O 0.89475 0.52512 0.35721
 O614 O 0.86120 0.52497 0.32374
 C615 C 0.88456 0.53486 0.33381
 C616 C 0.89960 0.55844 0.31861
 C617 C 0.88922 0.56873 0.29217
 H618 H 0.87068 0.55869 0.28241
 O619 O 1.10302 0.47120 0.35529
 O620 O 1.13623 0.47117 0.32140
 C621 C 1.11303 0.46122 0.33187
 C622 C 1.09794 0.43723 0.31724
 C623 C 1.10810 0.42626 0.29091
 H624 H 1.12656 0.43595 0.28054
 O625 O 1.02746 0.35655 0.39666
 O626 O 1.02725 0.32249 0.36355
 C627 C 1.03714 0.33299 0.38679
 C628 C 1.06068 0.31805 0.40200
 C629 C 1.07079 0.29147 0.39190
 H630 H 1.06055 0.28145 0.37357
 O631 O 0.97027 0.64126 0.39518
 O632 O 0.96992 0.67447 0.36132
 C633 C 0.96034 0.66452 0.38492
 C634 C 0.93693 0.67981 0.40012
 C635 C 0.92700 0.70635 0.38985
 H636 H 0.93724 0.71602 0.37134
 O637 O 0.85593 0.60298 0.47188
 O638 O 0.82215 0.63616 0.47153
 C639 C 0.83249 0.61271 0.46197
 C640 C 0.81761 0.59691 0.43858
 C641 C 0.79110 0.60660 0.42797
 H642 H 0.78085 0.62528 0.43742
 O643 O 1.14360 0.39592 0.47071
 O644 O 1.17696 0.36232 0.47041
 C645 C 1.16675 0.38564 0.46051
 C646 C 1.18140 0.40069 0.43641
 C647 C 1.20769 0.39057 0.42545
 H648 H 1.21798 0.37206 0.43511
 O649 O 0.97036 0.60137 0.35613
 O650 O 0.96980 0.63451 0.32220
 C651 C 0.96025 0.61118 0.33272
 C652 C 0.93662 0.59572 0.31806
 C653 C 0.92588 0.60566 0.29162
 H654 H 0.93551 0.62417 0.28126
 O655 O 1.02748 0.39534 0.35662
 O656 O 1.02743 0.36139 0.32342
 C657 C 1.03729 0.38490 0.33329
 C658 C 1.06092 0.39988 0.31798
 C659 C 1.07143 0.38928 0.29163
 H660 H 1.06155 0.37056 0.28199
 O661 O 1.14252 0.47149 0.39441
 O662 O 1.17592 0.47155 0.36072
 C663 C 1.16584 0.46167 0.38417
 C664 C 1.18092 0.43798 0.39922
 C665 C 1.20721 0.42756 0.38870
 H666 H 1.21692 0.43763 0.37010
 O667 O 0.85597 0.52527 0.39710
 O668 O 0.82226 0.52505 0.36379
 C669 C 0.83260 0.53505 0.38707
 C670 C 0.81771 0.55885 0.40213
 C671 C 0.79122 0.56886 0.39193
 H672 H 0.78126 0.55838 0.37371
 O673 O 0.89466 0.64283 0.47132
 O674 O 0.86117 0.67631 0.47101
 C675 C 0.88451 0.66606 0.46122
 C676 C 0.89974 0.68069 0.43733
 C677 C 0.89006 0.70724 0.42664
 H678 H 0.87172 0.71777 0.43640
 O679 O 1.10404 0.35677 0.47180
 O680 O 1.13722 0.32298 0.47157
 C681 C 1.11383 0.33322 0.46201
 C682 C 1.09824 0.31810 0.43872
 C683 C 1.10806 0.29151 0.42823
 H684 H 1.12665 0.28134 0.43782
 O685 O 1.10306 0.52732 0.35474
 O686 O 1.13632 0.52750 0.32091
 C687 C 1.11299 0.53722 0.33124
 C688 C 1.09757 0.56081 0.31637
 C689 C 1.10766 0.57191 0.29005
 H690 H 1.12642 0.56265 0.27981
 O691 O 0.89467 0.46912 0.35711
 O692 O 0.86116 0.46889 0.32360
 C693 C 0.88458 0.45925 0.33368
 C694 C 0.89999 0.43586 0.31852
 C695 C 0.89010 0.42520 0.29197
 H696 H 0.87144 0.43467 0.28181
 O697 O 1.02625 0.64171 0.39473
 O698 O 1.02579 0.67494 0.36088
 C699 C 1.03579 0.66508 0.38433
 C700 C 1.05928 0.68049 0.39929
 C701 C 1.06939 0.70695 0.38884
 H702 H 1.05928 0.71661 0.37026
 O703 O 0.97146 0.35653 0.39685
 O704 O 0.97126 0.32249 0.36373
 C705 C 0.96154 0.33301 0.38707
 C706 C 0.93798 0.31822 0.40265
 C707 C 0.92728 0.29173 0.39272
 H708 H 0.93679 0.28145 0.37405
 O709 O 1.14125 0.60408 0.47023
 O710 O 1.17466 0.63766 0.46968
 C711 C 1.16452 0.61413 0.46016
 C712 C 1.17963 0.59871 0.43670
 C713 C 1.20628 0.60863 0.42680
 H714 H 1.21611 0.62702 0.43708
 O715 O 0.85587 0.39526 0.47385
 O716 O 0.82276 0.36137 0.47440
 C717 C 0.83263 0.38471 0.46420
 C718 C 0.81748 0.39927 0.44029
 C719 C 0.79127 0.38857 0.42992
 H720 H 0.78152 0.37015 0.44023
 Cu721 Cu 0.99946 0.37932 0.38002
 Cu722 Cu 0.99934 0.33850 0.34022
 Cu723 Cu 0.99838 0.61823 0.37878
 Cu724 Cu 0.99776 0.65808 0.33809
 Cu725 Cu 0.87857 0.49710 0.38040
 Cu726 Cu 0.83819 0.49694 0.34031
 Cu727 Cu 1.11938 0.49945 0.37805
 Cu728 Cu 1.15939 0.49952 0.33756
 C729 C 0.92405 0.42302 0.33140
 H730 H 0.93155 0.43081 0.35207
 C731 C 0.90380 0.40186 0.27864
 C732 C 1.07344 0.57351 0.32942
 H733 H 1.06580 0.56545 0.34992
 C734 C 1.09405 0.59550 0.27709
 C735 C 0.83011 0.42300 0.42654
 H736 H 0.85054 0.43107 0.43416
 C737 C 0.77796 0.40113 0.40595
 C738 C 1.16689 0.57491 0.42312
 H739 H 1.14613 0.56740 0.43044
 C740 C 1.21998 0.59536 0.40343
 C741 C 0.92497 0.33129 0.42670
 H742 H 0.93273 0.35192 0.43423
 C743 C 0.90382 0.27862 0.40636
 C744 C 1.07280 0.66799 0.42323
 H745 H 1.06540 0.64738 0.43114
 C746 C 1.09288 0.72059 0.40187
 C747 C 0.92350 0.57190 0.33125
 H748 H 0.93135 0.56439 0.35186
 C749 C 0.90221 0.59233 0.27868
 C750 C 1.07416 0.42404 0.33044
 H751 H 1.06647 0.43208 0.35096
 C752 C 1.09499 0.40234 0.27806
 C753 C 1.07434 0.33107 0.42562
 H754 H 1.06691 0.35180 0.43323
 C755 C 1.09447 0.27820 0.40483
 C756 C 0.92338 0.66729 0.42405
 H757 H 0.93072 0.64662 0.43181
 C758 C 0.90362 0.72012 0.40293
 C759 C 0.83063 0.57282 0.42566
 H760 H 0.85129 0.56547 0.43335
 C761 C 0.77792 0.59270 0.40466
 C762 C 1.16834 0.42457 0.42326
 H763 H 1.14788 0.43225 0.43124
 C764 C 1.22066 0.40391 0.40164
 O765 O 1.02892 0.39768 0.64401
 O766 O 1.02925 0.36450 0.67790
 C767 C 1.03897 0.38776 0.66740
 C768 C 1.06284 0.40297 0.68194
 C769 C 1.07362 0.39305 0.70837
 H770 H 1.06381 0.37474 0.71891
 O771 O 0.97205 0.60433 0.64186
 O772 O 0.97235 0.63780 0.67557
 C773 C 0.96255 0.61440 0.66548
 C774 C 0.93931 0.59922 0.68094
 C775 C 0.92942 0.60946 0.70763
 H776 H 0.93962 0.62794 0.71738
 O777 O 0.85721 0.52835 0.60399
 O778 O 0.82404 0.52864 0.63792
 C779 C 0.83395 0.53821 0.61429
 C780 C 0.81864 0.56154 0.59904
 C781 C 0.79206 0.57142 0.60925
 H782 H 0.78237 0.56121 0.62777
 O783 O 1.14492 0.47216 0.60249
 O784 O 1.17851 0.47278 0.63590
 C785 C 1.16834 0.46256 0.61265
 C786 C 1.18325 0.43873 0.59755
 C787 C 1.20950 0.42783 0.60775
 H788 H 1.21969 0.43744 0.62639
 O789 O 1.10477 0.35743 0.52803
 O790 O 1.13792 0.32361 0.52794
 C791 C 1.11479 0.33409 0.53804
 C792 C 1.09974 0.31951 0.56216
 C793 C 1.10982 0.29317 0.57304
 H794 H 1.12827 0.28283 0.56329
 O795 O 0.89489 0.64339 0.52749
 O796 O 0.86136 0.67683 0.52748
 C797 C 0.88476 0.66680 0.53729
 C798 C 0.90009 0.68187 0.56087
 C799 C 0.89021 0.70838 0.57158
 H800 H 0.87164 0.71860 0.56202
 O801 O 0.89688 0.47262 0.64348
 O802 O 0.86376 0.47302 0.67747
 C803 C 0.88698 0.46307 0.66711
 C804 C 0.90214 0.43961 0.68231
 C805 C 0.89168 0.42930 0.70870
 H806 H 0.87310 0.43934 0.71837
 O807 O 1.10486 0.52840 0.64100
 O808 O 1.13823 0.52927 0.67465
 C809 C 1.11479 0.53868 0.66432
 C810 C 1.09923 0.56226 0.67910
 C811 C 1.10878 0.57273 0.70584
 H812 H 1.12718 0.56305 0.71629
 O813 O 0.97286 0.35790 0.60509
 O814 O 0.97317 0.32456 0.63882
 C815 C 0.96318 0.33456 0.61542
 C816 C 0.93950 0.31938 0.60053
 C817 C 0.92928 0.29297 0.61100
 H818 H 0.93948 0.28318 0.62946
 O819 O 1.02732 0.64413 0.60182
 O820 O 1.02748 0.67759 0.63553
 C821 C 1.03709 0.66754 0.61199
 C822 C 1.06047 0.68273 0.59675
 C823 C 1.07075 0.70916 0.60708
 H824 H 1.06067 0.71896 0.62564
 O825 O 0.85626 0.39594 0.53007
 O826 O 0.82314 0.36208 0.53069
 C827 C 0.83310 0.38568 0.54021
 C828 C 0.81820 0.40105 0.56386
 C829 C 0.79186 0.39107 0.57474
 H830 H 0.78164 0.37241 0.56523
 O831 O 1.14181 0.60470 0.52635
 O832 O 1.17520 0.63830 0.52582
 C833 C 1.16524 0.61492 0.53584
 C834 C 1.18065 0.59982 0.55924
 C835 C 1.20706 0.61024 0.56936
 H836 H 1.21663 0.62893 0.55938
 O837 O 1.02804 0.60401 0.64048
 O838 O 1.02820 0.63742 0.67424
 C839 C 1.03801 0.61410 0.66385
 C840 C 1.06168 0.59902 0.67879
 C841 C 1.07157 0.60907 0.70552
 H842 H 1.06119 0.62731 0.71554
 O843 O 0.97285 0.39735 0.64452
 O844 O 0.97308 0.36415 0.67838
 C845 C 0.96308 0.38735 0.66804
 C846 C 0.93927 0.40249 0.68290
 C847 C 0.92838 0.39241 0.70931
 H848 H 0.93798 0.37389 0.71964
 O849 O 1.14407 0.52828 0.60155
 O850 O 1.17766 0.52909 0.63498
 C851 C 1.16727 0.53857 0.61154
 C852 C 1.18173 0.56239 0.59617
 C853 C 1.20812 0.57317 0.60598
 H854 H 1.21866 0.56339 0.62431
 O855 O 0.85685 0.47228 0.60486
 O856 O 0.82365 0.47263 0.63878
 C857 C 0.83360 0.46257 0.61535
 C858 C 0.81849 0.43878 0.60057
 C859 C 0.79217 0.42853 0.61111
 H860 H 0.78239 0.43883 0.62956
 O861 O 1.10277 0.64435 0.52642
 O862 O 1.13602 0.67809 0.52587
 C863 C 1.11282 0.66789 0.53598
 C864 C 1.09769 0.68297 0.55965
 C865 C 1.10776 0.70942 0.57035
 H866 H 1.12631 0.71961 0.56066
 O867 O 0.89608 0.35705 0.53011
 O868 O 0.86310 0.32304 0.53066
 C869 C 0.88637 0.33361 0.54021
 C870 C 0.90192 0.31894 0.56380
 C871 C 0.89205 0.29254 0.57461
 H872 H 0.87347 0.28222 0.56510
 O873 O 1.10535 0.47242 0.64177
 O874 O 1.13876 0.47315 0.67537
 C875 C 1.11547 0.46307 0.66536
 C876 C 1.10033 0.43974 0.68087
 C877 C 1.11075 0.42952 0.70732
 H878 H 1.12947 0.43941 0.71687
 O879 O 0.89647 0.52864 0.64347
 O880 O 0.86340 0.52903 0.67751
 C881 C 0.88665 0.53866 0.66697
 C882 C 0.90208 0.56226 0.68170
 C883 C 0.89245 0.57286 0.70837
 H884 H 0.87406 0.56318 0.71889
 O885 O 0.97131 0.64337 0.60207
 O886 O 0.97157 0.67688 0.63574
 C887 C 0.96153 0.66670 0.61241
 C888 C 0.93774 0.68171 0.59757
 C889 C 0.92759 0.70821 0.60788
 H890 H 0.93792 0.71811 0.62623
 O891 O 1.02890 0.35832 0.60454
 O892 O 1.02925 0.32500 0.63828
 C893 C 1.03892 0.33508 0.61474
 C894 C 1.06259 0.32005 0.59953
 C895 C 1.07300 0.29374 0.60996
 H896 H 1.06299 0.28402 0.62858
 O897 O 1.14423 0.39659 0.52700
 O898 O 1.17756 0.36294 0.52682
 C899 C 1.16760 0.38643 0.53665
 C900 C 1.18282 0.40159 0.56019
 C901 C 1.20904 0.39111 0.57062
 H902 H 1.21868 0.37249 0.56055
 O903 O 0.85582 0.60391 0.52800
 O904 O 0.82201 0.63706 0.52794
 C905 C 0.83243 0.61388 0.53791
 C906 C 0.81779 0.59863 0.56178
 C907 C 0.79120 0.60826 0.57239
 H908 H 0.78066 0.62655 0.56259
 Cu909 Cu 1.00082 0.38117 0.62119
 Cu910 Cu 1.00123 0.34120 0.66173
 Cu911 Cu 0.99964 0.62061 0.61815
 Cu912 Cu 0.99993 0.66078 0.65866
 Cu913 Cu 0.87935 0.37974 0.50198
 Cu914 Cu 0.83973 0.33893 0.50260
 Cu915 Cu 1.12085 0.38004 0.49938
 Cu916 Cu 1.16076 0.33959 0.49916
 Cu917 Cu 0.87869 0.61999 0.49970
 Cu918 Cu 0.83828 0.65995 0.49945
 Cu919 Cu 1.11857 0.62080 0.49842
 Cu920 Cu 1.15865 0.66118 0.49766
 Cu921 Cu 0.88018 0.50046 0.62053
 Cu922 Cu 0.84037 0.50088 0.66133
 Cu923 Cu 1.12150 0.50019 0.61832
 Cu924 Cu 1.16168 0.50115 0.65858
 C925 C 1.07618 0.42651 0.66851
 H926 H 1.06828 0.43399 0.64790
 C927 C 1.09753 0.40619 0.72109
 C928 C 0.92572 0.57541 0.66830
 H929 H 0.93299 0.56769 0.64751
 C930 C 0.90601 0.59644 0.72136
 C931 C 0.83119 0.57507 0.57511
 H932 H 0.85189 0.56777 0.56740
 C933 C 0.77830 0.59473 0.59609
 C934 C 1.17028 0.42559 0.57357
 H935 H 1.14983 0.43350 0.56585
 C936 C 1.22244 0.40403 0.59437
 C937 C 1.07593 0.33264 0.57545
 H938 H 1.06826 0.35314 0.56754
 C939 C 1.09657 0.28025 0.59690
 C940 C 0.92404 0.66888 0.57388
 H941 H 0.93155 0.64825 0.56608
 C942 C 0.90388 0.72161 0.59505
 C943 C 0.92612 0.42628 0.66973
 H944 H 0.93401 0.43391 0.64915
 C945 C 0.90458 0.40572 0.72224
 C946 C 1.07547 0.57541 0.66586
 H947 H 1.06821 0.56780 0.64504
 C948 C 1.09507 0.59609 0.71907
 C949 C 0.92584 0.33206 0.57674
 H950 H 0.93331 0.35264 0.56882
 C951 C 0.90557 0.27953 0.59817
 C952 C 1.07385 0.66999 0.57284
 H953 H 1.06624 0.64939 0.56507
 C954 C 1.09437 0.72255 0.59405
 C955 C 0.83116 0.42510 0.57676
 H956 H 0.85168 0.43267 0.56882
 C957 C 0.77880 0.40472 0.59834
 C958 C 1.16830 0.57570 0.57259
 H959 H 1.14771 0.56781 0.56518
 C960 C 1.22081 0.59705 0.59271
 O961 O 0.47156 0.89547 0.35771
 O962 O 0.47175 0.86197 0.32403
 C963 C 0.46197 0.88537 0.33419
 C964 C 0.43868 0.90056 0.31892
 C965 C 0.42885 0.89042 0.29224
 H966 H 0.43911 0.87201 0.28240
 O967 O 0.52813 1.10254 0.35547
 O968 O 0.52817 1.13591 0.32178
 C969 C 0.53796 1.11258 0.33201
 C970 C 0.56163 1.09741 0.31708
 C971 C 0.57246 1.10767 0.29076
 H972 H 0.56280 1.12624 0.28056
 O973 O 0.35646 0.97064 0.39615
 O974 O 0.32305 0.97034 0.36254
 C975 C 0.33320 0.96061 0.38598
 C976 C 0.31834 0.93688 0.40124
 C977 C 0.29194 0.92618 0.39120
 H978 H 0.28172 0.93583 0.37262
 O979 O 0.64316 1.02770 0.39574
 O980 O 0.67663 1.02731 0.36211
 C981 C 0.66654 1.03736 0.38552
 C982 C 0.68172 1.06097 0.40066
 C983 C 0.70812 1.07128 0.39030
 H984 H 0.71784 1.06127 0.37166
 O985 O 0.39617 0.85576 0.47251
 O986 O 0.36267 0.82226 0.47277
 C987 C 0.38600 0.83235 0.46281
 C988 C 0.40105 0.81722 0.43915
 C989 C 0.39086 0.79072 0.42895
 H990 H 0.37251 0.78087 0.43924
 O991 O 0.60445 1.14194 0.47153
 O992 O 0.63768 1.17570 0.47141
 C993 C 0.61446 1.16528 0.46149
 C994 C 0.59940 1.18001 0.43753
 C995 C 0.60969 1.20634 0.42696
 H996 H 0.62810 1.21626 0.43705
 O997 O 0.39590 1.02700 0.35701
 O998 O 0.36261 1.02676 0.32329
 C999 C 0.38584 1.03676 0.33355
 C1000 C 0.40088 1.06050 0.31847
 C1001 C 0.39035 1.07097 0.29217
 H1002 H 0.37176 1.06096 0.28249
 O1003 O 0.60362 0.97124 0.35692
 O1004 O 0.63688 0.97081 0.32308
 C1005 C 0.61356 0.96115 0.33351
 C1006 C 0.59818 0.93747 0.31870
 C1007 C 0.60779 0.92717 0.29190
 H1008 H 0.62609 0.93706 0.28142
 O1009 O 0.52718 0.85615 0.39728
 O1010 O 0.52735 0.82256 0.36369
 C1011 C 0.53704 0.83280 0.38713
 C1012 C 0.56059 0.81790 0.40226
 C1013 C 0.57068 0.79132 0.39222
 H1014 H 0.56033 0.78124 0.37399
 O1015 O 0.47255 1.14205 0.39543
 O1016 O 0.47257 1.17557 0.36188
 C1017 C 0.46278 1.16544 0.38534
 C1018 C 0.43918 1.18050 0.40052
 C1019 C 0.42886 1.20688 0.39020
 H1020 H 0.43899 1.21673 0.37171
 O1021 O 0.35659 1.10353 0.47107
 O1022 O 0.32302 1.13693 0.47105
 C1023 C 0.33318 1.11354 0.46126
 C1024 C 0.31814 1.09811 0.43772
 C1025 C 0.29172 1.10808 0.42704
 H1026 H 0.28158 1.12678 0.43658
 O1027 O 0.64254 0.89644 0.47192
 O1028 O 0.67618 0.86310 0.47213
 C1029 C 0.66599 0.88638 0.46223
 C1030 C 0.68116 0.90146 0.43868
 C1031 C 0.70765 0.89124 0.42859
 H1032 H 0.71745 0.87287 0.43887
 O1033 O 0.47204 1.10274 0.35589
 O1034 O 0.47195 1.13610 0.32218
 C1035 C 0.46202 1.11284 0.33254
 C1036 C 0.43803 1.09773 0.31787
 C1037 C 0.42706 1.10790 0.29156
 H1038 H 0.43666 1.12644 0.28124
 O1039 O 0.52750 0.89520 0.35763
 O1040 O 0.52766 0.86173 0.32392
 C1041 C 0.53741 0.88511 0.33418
 C1042 C 0.56095 0.90036 0.31906
 C1043 C 0.57090 0.89045 0.29225
 H1044 H 0.56068 0.87212 0.28224
 O1045 O 0.64340 0.97167 0.39581
 O1046 O 0.67685 0.97118 0.36215
 C1047 C 0.66670 0.96167 0.38569
 C1048 C 0.68159 0.93822 0.40115
 C1049 C 0.70809 0.92764 0.39130
 H1050 H 0.71842 0.93724 0.37273
 O1051 O 0.35641 1.02680 0.39626
 O1052 O 0.32298 1.02656 0.36266
 C1053 C 0.33309 1.03653 0.38605
 C1054 C 0.31812 1.06030 0.40105
 C1055 C 0.29174 1.07055 0.39075
 H1056 H 0.28184 1.06022 0.37241
 O1057 O 0.39640 1.14248 0.47105
 O1058 O 0.36301 1.17606 0.47088
 C1059 C 0.38637 1.16582 0.46112
 C1060 C 0.40171 1.18069 0.43746
 C1061 C 0.39168 1.20707 0.42675
 H1062 H 0.37307 1.21726 0.43636
 O1063 O 0.60339 0.85686 0.47194
 O1064 O 0.63694 0.82342 0.47199
 C1065 C 0.61354 0.83343 0.46221
 C1066 C 0.59822 0.81818 0.43884
 C1067 C 0.60809 0.79156 0.42844
 H1068 H 0.62670 0.78144 0.43805
 O1069 O 0.60396 1.02732 0.35618
 O1070 O 0.63729 1.02697 0.32241
 C1071 C 0.61400 1.03691 0.33262
 C1072 C 0.59886 1.06040 0.31744
 C1073 C 0.60932 1.07094 0.29112
 H1074 H 0.62798 1.06109 0.28138
 O1075 O 0.39589 0.97093 0.35676
 O1076 O 0.36265 0.97061 0.32297
 C1077 C 0.38599 0.96100 0.33328
 C1078 C 0.40144 0.93749 0.31837
 C1079 C 0.39183 0.92697 0.29167
 H1080 H 0.37345 0.93665 0.28121
 O1081 O 0.52862 1.14186 0.39505
 O1082 O 0.52872 1.17539 0.36152
 C1083 C 0.53860 1.16516 0.38489
 C1084 C 0.56243 1.18002 0.40005
 C1085 C 0.57317 1.20637 0.38982
 H1086 H 0.56353 1.21651 0.37119
 O1087 O 0.47123 0.85543 0.39647
 O1088 O 0.47137 0.82181 0.36291
 C1089 C 0.46147 0.83199 0.38631
 C1090 C 0.43787 0.81698 0.40158
 C1091 C 0.42730 0.79043 0.39163
 H1092 H 0.43695 0.78015 0.37303
 O1093 O 0.64421 1.10312 0.47199
 O1094 O 0.67763 1.13669 0.47179
 C1095 C 0.66750 1.11326 0.46199
 C1096 C 0.68230 1.09806 0.43812
 C1097 C 0.70869 1.10806 0.42738
 H1098 H 0.71902 1.12650 0.43720
 O1099 O 0.35691 0.89504 0.47224
 O1100 O 0.32325 0.86171 0.47256
 C1101 C 0.33352 0.88494 0.46250
 C1102 C 0.31855 0.89994 0.43872
 C1103 C 0.29218 0.88964 0.42838
 H1104 H 0.28233 0.87121 0.43856
 Cu1105 Cu 0.49931 0.87890 0.38067
 Cu1106 Cu 0.49956 0.83865 0.34024
 Cu1107 Cu 0.50035 1.11895 0.37879
 Cu1108 Cu 0.50035 1.15910 0.33847
 Cu1109 Cu 0.37948 0.99882 0.37993
 Cu1110 Cu 0.33946 0.99855 0.33949
 Cu1111 Cu 0.62020 0.99952 0.37954
 Cu1112 Cu 0.66025 0.99904 0.33903
 C1113 C 0.42508 0.92430 0.33168
 H1114 H 0.43234 0.93195 0.35249
 C1115 C 0.40545 0.90345 0.27859
 C1116 C 0.57482 1.07357 0.33009
 H1117 H 0.56692 1.06583 0.35062
 C1118 C 0.59627 1.09457 0.27776
 C1119 C 0.33132 0.92374 0.42518
 H1120 H 0.35186 0.93154 0.43280
 C1121 C 0.27882 0.90259 0.40465
 C1122 C 0.66915 1.07432 0.42475
 H1123 H 0.64860 1.06674 0.43259
 C1124 C 0.72165 1.09479 0.40352
 C1125 C 0.42473 0.83002 0.42553
 H1126 H 0.43242 0.85067 0.43307
 C1127 C 0.40381 0.77726 0.40523
 C1128 C 0.57559 1.16715 0.42409
 H1129 H 0.56777 1.14664 0.43187
 C1130 C 0.59677 1.21957 0.40314
 C1131 C 0.42489 1.07385 0.33101
 H1132 H 0.43287 1.06613 0.35149
 C1133 C 0.40324 1.09464 0.27867
 C1134 C 0.57456 0.92407 0.33199
 H1135 H 0.56727 0.93158 0.35285
 C1136 C 0.59427 0.90373 0.27862
 C1137 C 0.57427 0.83101 0.42577
 H1138 H 0.56680 0.85175 0.43333
 C1139 C 0.59440 0.77811 0.40513
 C1140 C 0.42566 1.16772 0.42436
 H1141 H 0.43325 1.14714 0.43215
 C1142 C 0.40513 1.22018 0.40315
 C1143 C 0.33099 1.07402 0.42472
 H1144 H 0.35155 1.06646 0.43248
 C1145 C 0.27849 1.09441 0.40357
 C1146 C 0.66844 0.92515 0.42504
 H1147 H 0.64779 0.93286 0.43248
 C1148 C 0.72115 0.90416 0.40492
 O1149 O 0.52806 0.89606 0.64287
 O1150 O 0.52811 0.86275 0.67663
 C1151 C 0.53780 0.88614 0.66639
 C1152 C 0.56107 0.90157 0.68164
 C1153 C 0.57123 0.89143 0.70821
 H1154 H 0.56133 0.87279 0.71793
 O1155 O 0.47204 1.10415 0.64347
 O1156 O 0.47173 1.13791 0.67687
 C1157 C 0.46215 1.11436 0.66684
 C1158 C 0.43872 1.09901 0.68192
 C1159 C 0.42805 1.10905 0.70842
 H1160 H 0.43757 1.12772 0.71862
 O1161 O 0.35808 1.02792 0.60370
 O1162 O 0.32454 1.02807 0.63728
 C1163 C 0.33473 1.03778 0.61382
 C1164 C 0.31968 1.06128 0.59855
 C1165 C 0.29335 1.07169 0.60890
 H1166 H 0.28361 1.06180 0.62758
 O1167 O 0.64221 0.97287 0.60486
 O1168 O 0.67573 0.97248 0.63835
 C1169 C 0.66549 0.96282 0.61488
 C1170 C 0.68029 0.93919 0.59939
 C1171 C 0.70684 0.92866 0.60913
 H1172 H 0.71719 0.93834 0.62766
 O1173 O 0.60323 0.85698 0.52800
 O1174 O 0.63681 0.82357 0.52803
 C1175 C 0.61339 0.83361 0.53777
 C1176 C 0.59824 0.81837 0.56120
 C1177 C 0.60832 0.79177 0.57114
 H1178 H 0.62669 0.78195 0.56084
 O1179 O 0.39619 1.14281 0.52731
 O1180 O 0.36278 1.17637 0.52723
 C1181 C 0.38606 1.16620 0.53717
 C1182 C 0.40102 1.18128 0.56099
 C1183 C 0.39060 1.20767 0.57136
 H1184 H 0.37218 1.21744 0.56117
 O1185 O 0.39699 0.97186 0.64339
 O1186 O 0.36353 0.97191 0.67705
 C1187 C 0.38684 0.96204 0.66681
 C1188 C 0.40192 0.93837 0.68177
 C1189 C 0.39176 0.92779 0.70823
 H1190 H 0.37325 0.93755 0.71846
 O1191 O 0.60335 1.02922 0.64454
 O1192 O 0.63669 1.02905 0.67821
 C1193 C 0.61350 1.03911 0.66794
 C1194 C 0.59859 1.06314 0.68273
 C1195 C 0.60901 1.07419 0.70892
 H1196 H 0.62756 1.06452 0.71909
 O1197 O 0.47202 0.85628 0.60382
 O1198 O 0.47218 0.82286 0.63748
 C1199 C 0.46226 0.83295 0.61410
 C1200 C 0.43858 0.81785 0.59915
 C1201 C 0.42834 0.79141 0.60950
 H1202 H 0.43855 0.78155 0.62791
 O1203 O 0.52765 1.14303 0.60318
 O1204 O 0.52749 1.17697 0.63639
 C1205 C 0.53739 1.16652 0.61308
 C1206 C 0.56107 1.18137 0.59787
 C1207 C 0.57135 1.20779 0.60814
 H1208 H 0.56109 1.21774 0.62652
 O1209 O 0.35702 0.89554 0.52842
 O1210 O 0.32333 0.86224 0.52882
 C1211 C 0.33364 0.88566 0.53840
 C1212 C 0.31882 0.90124 0.56191
 C1213 C 0.29222 0.89161 0.57243
 H1214 H 0.28183 0.87314 0.56274
 O1215 O 0.64404 1.10368 0.52835
 O1216 O 0.67744 1.13725 0.52833
 C1217 C 0.66725 1.11398 0.53836
 C1218 C 0.68191 1.09906 0.56246
 C1219 C 0.70815 1.10925 0.57345
 H1220 H 0.71850 1.12772 0.56374
 O1221 O 0.52802 1.10494 0.64382
 O1222 O 0.52782 1.13875 0.67717
 C1223 C 0.53782 1.11536 0.66716
 C1224 C 0.56159 1.10049 0.68231
 C1225 C 0.57235 1.11119 0.70852
 H1226 H 0.56257 1.12993 0.71821
 O1227 O 0.47219 0.89590 0.64298
 O1228 O 0.47222 0.86260 0.67677
 C1229 C 0.46243 0.88592 0.66648
 C1230 C 0.43894 0.90117 0.68154
 C1231 C 0.42852 0.89097 0.70799
 H1232 H 0.43846 0.87244 0.71784
 O1233 O 0.64249 1.02892 0.60490
 O1234 O 0.67598 1.02863 0.63843
 C1235 C 0.66591 1.03855 0.61503
 C1236 C 0.68114 1.06207 0.59988
 C1237 C 0.70737 1.07249 0.61043
 H1238 H 0.71691 1.06253 0.62914
 O1239 O 0.35789 0.97190 0.60381
 O1240 O 0.32433 0.97210 0.63737
 C1241 C 0.33448 0.96223 0.61395
 C1242 C 0.31929 0.93875 0.59880
 C1243 C 0.29271 0.92885 0.60897
 H1244 H 0.28287 0.93919 0.62737
 O1245 O 0.60440 1.14273 0.52780
 O1246 O 0.63761 1.17650 0.52781
 C1247 C 0.61426 1.16626 0.53759
 C1248 C 0.59878 1.18130 0.56113
 C1249 C 0.60878 1.20775 0.57186
 H1250 H 0.62748 1.21787 0.56238
 O1251 O 0.39591 0.85579 0.52867
 O1252 O 0.36240 0.82230 0.52904
 C1253 C 0.38579 0.83249 0.53871
 C1254 C 0.40108 0.81760 0.56236
 C1255 C 0.39113 0.79115 0.57306
 H1256 H 0.37256 0.78090 0.56346
 O1257 O 0.60290 0.97300 0.64432
 O1258 O 0.63623 0.97270 0.67800
 C1259 C 0.61292 0.96297 0.66767
 C1260 C 0.59776 0.93915 0.68240
 C1261 C 0.60765 0.92859 0.70895
 H1262 H 0.62594 0.93850 0.71942
 O1263 O 0.39721 1.02795 0.64328
 O1264 O 0.36375 1.02797 0.67693
 C1265 C 0.38708 1.03777 0.66672
 C1266 C 0.40208 1.06142 0.68180
 C1267 C 0.39178 1.07172 0.70828
 H1268 H 0.37342 1.06151 0.71819
 O1269 O 0.47156 1.14355 0.60403
 O1270 O 0.47134 1.17747 0.63725
 C1271 C 0.46156 1.16698 0.61395
 C1272 C 0.43781 1.18170 0.59860
 C1273 C 0.42697 1.20811 0.60865
 H1274 H 0.43649 1.21841 0.62728
 O1275 O 0.52798 0.85617 0.60383
 O1276 O 0.52818 0.82272 0.63746
 C1277 C 0.53785 0.83283 0.61397
 C1278 C 0.56133 0.81790 0.59859
 C1279 C 0.57176 0.79128 0.60831
 H1280 H 0.56202 0.78090 0.62678
 O1281 O 0.64177 0.89704 0.52814
 O1282 O 0.67543 0.86373 0.52828
 C1283 C 0.66509 0.88707 0.53808
 C1284 C 0.67999 0.90231 0.56175
 C1285 C 0.70651 0.89224 0.57177
 H1286 H 0.71641 0.87394 0.56139
 O1287 O 0.35720 1.10325 0.52727
 O1288 O 0.32362 1.13664 0.52739
 C1289 C 0.33391 1.11334 0.53724
 C1290 C 0.31920 1.09822 0.56111
 C1291 C 0.29287 1.10833 0.57185
 H1292 H 0.28259 1.12678 0.56207
 Cu1293 Cu 0.50009 0.87942 0.61995
 Cu1294 Cu 0.50020 0.83937 0.66049
 Cu1295 Cu 0.49979 1.12053 0.62032
 Cu1296 Cu 0.49958 1.16121 0.66023
 Cu1297 Cu 0.37987 0.87887 0.50047
 Cu1298 Cu 0.33953 0.83877 0.50082
 Cu1299 Cu 0.61934 0.88018 0.49994
 Cu1300 Cu 0.65977 0.84014 0.50014
 Cu1301 Cu 0.37993 1.11967 0.49912
 Cu1302 Cu 0.33976 1.15988 0.49913
 Cu1303 Cu 0.62101 1.11948 0.49997
 Cu1304 Cu 0.66092 1.15991 0.49981
 Cu1305 Cu 0.38094 0.99988 0.62019
 Cu1306 Cu 0.34067 1.00003 0.66054
 Cu1307 Cu 0.61936 1.00102 0.62134
 Cu1308 Cu 0.65949 1.00069 0.66164
 C1309 C 0.57427 0.92564 0.66905
 H1310 H 0.56680 0.93332 0.64835
 C1311 C 0.59449 0.90477 0.72189
 C1312 C 0.42575 1.07499 0.66895
 H1313 H 0.43351 1.06739 0.64829
 C1314 C 0.40459 1.09551 0.72162
 C1315 C 0.33230 1.07449 0.57445
 H1316 H 0.35283 1.06684 0.56662
 C1317 C 0.27994 1.09519 0.59571
 C1318 C 0.66716 0.92598 0.57550
 H1319 H 0.64648 0.93360 0.56810
 C1320 C 0.71997 0.90521 0.59542
 C1321 C 0.57455 0.83111 0.57483
 H1322 H 0.56695 0.85184 0.56748
 C1323 C 0.59523 0.77818 0.59466
 C1324 C 0.42481 1.16861 0.57458
 H1325 H 0.43269 1.14806 0.56695
 C1326 C 0.40339 1.22113 0.59516
 C1327 C 0.42571 0.92507 0.66874
 H1328 H 0.43339 0.93278 0.64812
 C1329 C 0.40494 0.90411 0.72135
 C1330 C 0.57471 1.07630 0.66978
 H1331 H 0.56681 1.06819 0.64939
 C1332 C 0.59604 1.09817 0.72187
 C1333 C 0.42500 0.83061 0.57539
 H1334 H 0.43254 0.85120 0.56758
 C1335 C 0.40465 0.77801 0.59660
 C1336 C 0.57472 1.16842 0.57415
 H1337 H 0.56714 1.14780 0.56639
 C1338 C 0.59518 1.22099 0.59537
 C1339 C 0.33204 0.92502 0.57507
 H1340 H 0.35277 0.93229 0.56740
 C1341 C 0.27916 0.90531 0.59594
 C1342 C 0.66875 1.07529 0.57572
 H1343 H 0.64831 1.06757 0.56773
 C1344 C 0.72094 1.09604 0.59741
 O1345 O 0.47305 0.39547 0.85704
 O1346 O 0.47331 0.36179 0.82356
 C1347 C 0.46337 0.38516 0.83364
 C1348 C 0.43976 0.40003 0.81845
 C1349 C 0.42959 0.38951 0.79200
 H1350 H 0.43983 0.37107 0.78221
 O1351 O 0.52589 0.60400 0.85796
 O1352 O 0.52570 0.63710 0.82399
 C1353 C 0.53567 0.61391 0.83444
 C1354 C 0.55934 0.59874 0.81943
 C1355 C 0.56936 0.60879 0.79275
 H1356 H 0.55909 0.62708 0.78279
 O1357 O 0.35730 0.46989 0.89586
 O1358 O 0.32376 0.46916 0.86238
 C1359 C 0.33406 0.45968 0.88587
 C1360 C 0.31935 0.43610 0.90148
 C1361 C 0.29291 0.42532 0.89172
 H1362 H 0.28260 0.43475 0.87307
 O1363 O 0.64264 0.52865 0.89617
 O1364 O 0.67591 0.52940 0.86235
 C1365 C 0.66575 0.53893 0.88592
 C1366 C 0.68040 0.56274 0.90120
 C1367 C 0.70698 0.57326 0.89147
 H1368 H 0.71751 0.56339 0.87312
 O1369 O 0.39763 0.35648 0.97321
 O1370 O 0.36457 0.32255 0.97344
 C1371 C 0.38774 0.33297 0.96343
 C1372 C 0.40283 0.31802 0.93960
 C1373 C 0.39248 0.29165 0.92921
 H1374 H 0.37408 0.28181 0.93943
 O1375 O 0.60184 0.64481 0.97120
 O1376 O 0.63505 0.67861 0.97094
 C1377 C 0.61176 0.66822 0.96124
 C1378 C 0.59639 0.68305 0.93767
 C1379 C 0.60639 0.70943 0.92694
 H1380 H 0.62501 0.71962 0.93649
 O1381 O 0.39568 0.52644 0.85623
 O1382 O 0.36239 0.52595 0.82251
 C1383 C 0.38550 0.53618 0.83282
 C1384 C 0.40035 0.56021 0.81804
 C1385 C 0.39031 0.57077 0.79151
 H1386 H 0.37204 0.56080 0.78110
 O1387 O 0.60372 0.47208 0.85691
 O1388 O 0.63682 0.47281 0.82292
 C1389 C 0.61378 0.46249 0.83334
 C1390 C 0.59904 0.43852 0.81836
 C1391 C 0.60952 0.42813 0.79196
 H1392 H 0.62782 0.43846 0.78207
 O1393 O 0.52918 0.35671 0.89677
 O1394 O 0.52928 0.32290 0.86342
 C1395 C 0.53909 0.33332 0.88673
 C1396 C 0.56286 0.31856 0.90180
 C1397 C 0.57335 0.29224 0.89143
 H1398 H 0.56317 0.28225 0.87305
 O1399 O 0.46938 0.64370 0.89644
 O1400 O 0.46908 0.67698 0.86265
 C1401 C 0.45928 0.66686 0.88610
 C1402 C 0.43534 0.68153 0.90118
 C1403 C 0.42453 0.70795 0.89126
 H1404 H 0.43430 0.71844 0.87286
 O1405 O 0.35499 0.60188 0.97169
 O1406 O 0.32083 0.63468 0.97171
 C1407 C 0.33146 0.61151 0.96185
 C1408 C 0.31685 0.59600 0.93813
 C1409 C 0.29036 0.60568 0.92744
 H1410 H 0.27988 0.62409 0.93717
 O1411 O 0.64482 0.39694 0.97114
 O1412 O 0.67865 0.36381 0.97134
 C1413 C 0.66825 0.38696 0.96127
 C1414 C 0.68296 0.40209 0.93729
 C1415 C 0.70926 0.39206 0.92628
 H1416 H 0.71959 0.37355 0.93589
 O1417 O 0.46992 0.60373 0.85749
 O1418 O 0.46975 0.63689 0.82358
 C1419 C 0.46016 0.61349 0.83391
 C1420 C 0.43693 0.59793 0.81870
 C1421 C 0.42666 0.60804 0.79218
 H1422 H 0.43651 0.62670 0.78246
 O1423 O 0.52905 0.39541 0.85669
 O1424 O 0.52938 0.36174 0.82320
 C1425 C 0.53903 0.38523 0.83331
 C1426 C 0.56261 0.40060 0.81829
 C1427 C 0.57350 0.39051 0.79185
 H1428 H 0.56413 0.37175 0.78169
 O1429 O 0.64351 0.47250 0.89579
 O1430 O 0.67673 0.47320 0.86193
 C1431 C 0.66690 0.46304 0.88534
 C1432 C 0.68226 0.43940 0.90018
 C1433 C 0.70855 0.42907 0.88952
 H1434 H 0.71815 0.43917 0.87089
 O1435 O 0.35656 0.52590 0.89582
 O1436 O 0.32307 0.52530 0.86229
 C1437 C 0.33307 0.53533 0.88570
 C1438 C 0.31770 0.55873 0.90091
 C1439 C 0.29122 0.56873 0.89059
 H1440 H 0.28158 0.55856 0.87201
 O1441 O 0.39355 0.64199 0.97156
 O1442 O 0.35954 0.67495 0.97161
 C1443 C 0.38307 0.66520 0.96178
 C1444 C 0.39804 0.68059 0.93826
 C1445 C 0.38762 0.70699 0.92811
 H1446 H 0.36902 0.71655 0.93823
 O1447 O 0.60557 0.35746 0.97173
 O1448 O 0.63921 0.32414 0.97179
 C1449 C 0.61577 0.33407 0.96198
 C1450 C 0.60053 0.31885 0.93845
 C1451 C 0.61076 0.29250 0.92766
 H1452 H 0.62952 0.28253 0.93712
 O1453 O 0.60278 0.52827 0.85730
 O1454 O 0.63588 0.52902 0.82331
 C1455 C 0.61249 0.53842 0.83384
 C1456 C 0.59685 0.56192 0.81908
 C1457 C 0.60652 0.57239 0.79239
 H1458 H 0.62497 0.56273 0.78197
 O1459 O 0.39655 0.47032 0.85629
 O1460 O 0.36323 0.46965 0.82260
 C1461 C 0.38666 0.46022 0.83288
 C1462 C 0.40219 0.43670 0.81801
 C1463 C 0.39232 0.42582 0.79155
 H1464 H 0.37373 0.43526 0.78124
 O1465 O 0.52547 0.64431 0.89648
 O1466 O 0.52522 0.67754 0.86264
 C1467 C 0.53515 0.66764 0.88609
 C1468 C 0.55881 0.68285 0.90097
 C1469 C 0.56914 0.70925 0.89053
 H1470 H 0.55900 0.71910 0.87208
 O1471 O 0.47311 0.35613 0.89648
 O1472 O 0.47315 0.32230 0.86315
 C1473 C 0.46328 0.33265 0.88651
 C1474 C 0.43961 0.31779 0.90190
 C1475 C 0.42881 0.29139 0.89180
 H1476 H 0.43831 0.28118 0.87309
 O1477 O 0.64103 0.60536 0.97151
 O1478 O 0.67437 0.63902 0.97126
 C1479 C 0.66435 0.61548 0.96165
 C1480 C 0.67960 0.60011 0.93829
 C1481 C 0.70617 0.61020 0.92832
 H1482 H 0.71588 0.62871 0.93849
 O1483 O 0.35796 0.39537 0.97316
 O1484 O 0.32476 0.36158 0.97340
 C1485 C 0.33474 0.38494 0.96336
 C1486 C 0.31967 0.39969 0.93948
 C1487 C 0.29324 0.38928 0.92939
 H1488 H 0.28339 0.37101 0.93984
 Cu1489 Cu 0.50108 0.37930 0.88009
 Cu1490 Cu 0.50129 0.33878 0.84000
 Cu1491 Cu 0.49765 0.62068 0.88055
 Cu1492 Cu 0.49743 0.66045 0.83980
 Cu1493 Cu 0.37989 0.49818 0.87936
 Cu1494 Cu 0.33976 0.49744 0.83906
 Cu1495 Cu 0.61987 0.50032 0.87995
 Cu1496 Cu 0.65964 0.50120 0.83921
 C1497 C 0.42611 0.42382 0.83113
 H1498 H 0.43358 0.43175 0.85176
 C1499 C 0.40590 0.40224 0.77853
 C1500 C 0.57305 0.57510 0.83233
 H1501 H 0.56572 0.56748 0.85312
 C1502 C 0.59292 0.59579 0.77922
 C1503 C 0.33241 0.42328 0.92555
 H1504 H 0.35300 0.43116 0.93297
 C1505 C 0.27982 0.40195 0.90556
 C1506 C 0.66702 0.57617 0.92482
 H1507 H 0.64631 0.56854 0.93217
 C1508 C 0.71990 0.59695 0.90495
 C1509 C 0.42659 0.33079 0.92599
 H1510 H 0.43441 0.35135 0.93366
 C1511 C 0.40525 0.27830 0.90534
 C1512 C 0.57240 0.67009 0.92473
 H1513 H 0.56484 0.64953 0.93262
 C1514 C 0.59292 0.72256 0.90341
 C1515 C 0.42384 0.57382 0.83131
 H1516 H 0.43143 0.56616 0.85198
 C1517 C 0.40339 0.59466 0.77854
 C1518 C 0.57541 0.42479 0.83120
 H1519 H 0.56748 0.43246 0.85177
 C1520 C 0.59694 0.40416 0.77865
 C1521 C 0.57638 0.33154 0.92551
 H1522 H 0.56863 0.35207 0.93333
 C1523 C 0.59727 0.27918 0.90415
 C1524 C 0.42208 0.66820 0.92487
 H1525 H 0.42997 0.64764 0.93238
 C1526 C 0.40071 0.72074 0.90466
 C1527 C 0.33020 0.57231 0.92487
 H1528 H 0.35084 0.56499 0.93266
 C1529 C 0.27753 0.59218 0.90370
 C1530 C 0.66983 0.42593 0.92423
 H1531 H 0.64937 0.43354 0.93229
 C1532 C 0.72213 0.40543 0.90243
 O1533 O 0.52941 0.39742 1.14428
 O1534 O 0.52993 0.36402 1.17794
 C1535 C 0.53943 0.38748 1.16766
 C1536 C 0.56298 0.40292 1.18248
 C1537 C 0.57394 0.39274 1.20871
 H1538 H 0.56450 0.37402 1.21887
 O1539 O 0.47117 0.60459 1.14208
 O1540 O 0.47083 0.63817 1.17569
 C1541 C 0.46149 0.61454 1.16564
 C1542 C 0.43861 0.59890 1.18113
 C1543 C 0.42874 0.60887 1.20789
 H1544 H 0.43867 0.62751 1.21761
 O1545 O 0.35732 0.52717 1.10468
 O1546 O 0.32407 0.52716 1.13854
 C1547 C 0.33395 0.53684 1.11495
 C1548 C 0.31849 0.56009 1.09969
 C1549 C 0.29211 0.57032 1.11020
 H1550 H 0.28261 0.56051 1.12904
 O1551 O 0.64288 0.47409 1.10341
 O1552 O 0.67645 0.47477 1.13684
 C1553 C 0.66635 0.46462 1.11351
 C1554 C 0.68159 0.44102 1.09841
 C1555 C 0.70788 0.43072 1.10894
 H1556 H 0.71750 0.44078 1.12760
 O1557 O 0.60550 0.35824 1.02799
 O1558 O 0.63913 0.32490 1.02818
 C1559 C 0.61576 0.33504 1.03806
 C1560 C 0.60080 0.32013 1.06200
 C1561 C 0.61116 0.29375 1.07237
 H1562 H 0.62956 0.28389 1.06215
 O1563 O 0.39378 0.64208 1.02767
 O1564 O 0.35979 0.67506 1.02777
 C1565 C 0.38335 0.66534 1.03749
 C1566 C 0.39843 0.68080 1.06093
 C1567 C 0.38816 0.70736 1.07101
 H1568 H 0.36961 0.71698 1.06092
 O1569 O 0.39734 0.47145 1.14400
 O1570 O 0.36409 0.47155 1.17785
 C1571 C 0.38737 0.46172 1.16753
 C1572 C 0.40248 0.43814 1.18265
 C1573 C 0.39187 0.42765 1.20891
 H1574 H 0.37325 0.43766 1.21853
 O1575 O 0.60303 0.53004 1.14266
 O1576 O 0.63645 0.53081 1.17626
 C1577 C 0.61301 0.54027 1.16597
 C1578 C 0.59759 0.56394 1.18075
 C1579 C 0.60723 0.57441 1.20745
 H1580 H 0.62554 0.56459 1.21792
 O1581 O 0.47389 0.35743 1.10488
 O1582 O 0.47430 0.32387 1.13838
 C1583 C 0.46431 0.33398 1.11502
 C1584 C 0.44071 0.31881 1.09999
 C1585 C 0.43041 0.29245 1.11045
 H1586 H 0.44053 0.28269 1.12896
 O1587 O 0.52594 0.64501 1.10224
 O1588 O 0.52557 0.67867 1.13576
 C1589 C 0.53539 0.66857 1.11231
 C1590 C 0.55868 0.68385 1.09705
 C1591 C 0.56865 0.71047 1.10715
 H1592 H 0.55838 0.72040 1.12554
 O1593 O 0.35757 0.39525 1.02945
 O1594 O 0.32438 0.36145 1.02973
 C1595 C 0.33434 0.38495 1.03945
 C1596 C 0.31936 0.40016 1.06317
 C1597 C 0.29298 0.39011 1.07396
 H1598 H 0.28277 0.37150 1.06433
 O1599 O 0.64119 0.60605 1.02765
 O1600 O 0.67451 0.63973 1.02741
 C1601 C 0.66450 0.61635 1.03737
 C1602 C 0.67974 0.60134 1.06093
 C1603 C 0.70624 0.61164 1.07096
 H1604 H 0.71595 0.63013 1.06077
 O1605 O 0.52701 0.60575 1.14172
 O1606 O 0.52666 0.63928 1.17536
 C1607 C 0.53673 0.61601 1.16514
 C1608 C 0.56039 0.60103 1.18027
 C1609 C 0.57037 0.61115 1.20697
 H1610 H 0.56018 0.62955 1.21690
 O1611 O 0.47338 0.39621 1.14492
 O1612 O 0.47373 0.36283 1.17860
 C1613 C 0.46359 0.38602 1.16836
 C1614 C 0.43960 0.40097 1.18320
 C1615 C 0.42851 0.39069 1.20949
 H1616 H 0.43805 0.37210 1.21974
 O1617 O 0.64269 0.53021 1.10356
 O1618 O 0.67627 0.53095 1.13699
 C1619 C 0.66592 0.54046 1.11356
 C1620 C 0.68052 0.56421 1.09816
 C1621 C 0.70702 0.57487 1.10788
 H1622 H 0.71752 0.56512 1.12626
 O1623 O 0.35784 0.47116 1.10483
 O1624 O 0.32451 0.47118 1.13862
 C1625 C 0.33459 0.46131 1.11516
 C1626 C 0.31959 0.43762 1.10015
 C1627 C 0.29325 0.42734 1.11054
 H1628 H 0.28345 0.43756 1.12902
 O1629 O 0.60179 0.64530 1.02726
 O1630 O 0.63496 0.67913 1.02708
 C1631 C 0.61165 0.66888 1.03689
 C1632 C 0.59616 0.68400 1.06024
 C1633 C 0.60588 0.71064 1.07065
 H1634 H 0.62441 0.72090 1.06098
 O1635 O 0.39763 0.35660 1.02947
 O1636 O 0.36458 0.32267 1.02974
 C1637 C 0.38783 0.33315 1.03945
 C1638 C 0.40324 0.31842 1.06312
 C1639 C 0.39326 0.29205 1.07396
 H1640 H 0.37467 0.28178 1.06443
 O1641 O 0.60415 0.47390 1.14352
 O1642 O 0.63760 0.47460 1.17708
 C1643 C 0.61442 0.46435 1.16699
 C1644 C 0.59969 0.44051 1.18216
 C1645 C 0.61034 0.42996 1.20841
 H1646 H 0.62888 0.44000 1.21817
 O1647 O 0.39690 0.52756 1.14384
 O1648 O 0.36375 0.52763 1.17780
 C1649 C 0.38694 0.53747 1.16732
 C1650 C 0.40209 0.56125 1.18204
 C1651 C 0.39244 0.57161 1.20879
 H1652 H 0.37428 0.56160 1.21939
 O1653 O 0.46995 0.64412 1.10287
 O1654 O 0.46955 0.67782 1.13633
 C1655 C 0.45975 0.66735 1.11303
 C1656 C 0.43578 0.68183 1.09792
 C1657 C 0.42513 0.70838 1.10770
 H1658 H 0.43499 0.71900 1.12598
 O1659 O 0.52994 0.35779 1.10502
 O1660 O 0.53047 0.32420 1.13849
 C1661 C 0.54013 0.33453 1.11505
 C1662 C 0.56392 0.31984 1.09965
 C1663 C 0.57469 0.29344 1.10965
 H1664 H 0.56509 0.28316 1.12825
 O1665 O 0.64439 0.39795 1.02742
 O1666 O 0.67821 0.36481 1.02780
 C1667 C 0.66775 0.38816 1.03747
 C1668 C 0.68233 0.40366 1.06123
 C1669 C 0.70860 0.39371 1.07214
 H1670 H 0.71896 0.37516 1.06254
 O1671 O 0.35517 0.60213 1.02797
 O1672 O 0.32103 0.63495 1.02808
 C1673 C 0.33174 0.61188 1.03799
 C1674 C 0.31734 0.59672 1.06200
 C1675 C 0.29100 0.60665 1.07286
 H1676 H 0.28047 0.62492 1.06301
 Cu1677 Cu 0.50161 0.38057 1.12145
 Cu1678 Cu 0.50218 0.34036 1.16171
 Cu1679 Cu 0.49855 0.62154 1.11881
 Cu1680 Cu 0.49811 0.66189 1.15915
 Cu1681 Cu 0.38099 0.37933 1.00136
 Cu1682 Cu 0.34126 0.33865 1.00158
 Cu1683 Cu 0.62173 0.38097 0.99949
 Cu1684 Cu 0.66218 0.34108 0.99983
 Cu1685 Cu 0.37775 0.61869 0.99969
 Cu1686 Cu 0.33684 0.65819 0.99979
 Cu1687 Cu 0.61811 0.62201 0.99945
 Cu1688 Cu 0.65810 0.66250 0.99914
 Cu1689 Cu 0.38071 0.49937 1.12095
 Cu1690 Cu 0.34077 0.49938 1.16163
 Cu1691 Cu 0.61983 0.50199 1.11995
 Cu1692 Cu 0.66005 0.50285 1.16016
 C1693 C 0.57582 0.42701 1.16953
 H1694 H 0.56777 0.43472 1.14906
 C1695 C 0.59759 0.40608 1.22170
 C1696 C 0.42540 0.57487 1.16852
 H1697 H 0.43266 0.56734 1.14765
 C1698 C 0.40567 0.59539 1.22173
 C1699 C 0.33078 0.57324 1.07540
 H1700 H 0.35132 0.56574 1.06744
 C1701 C 0.27836 0.59359 1.09691
 C1702 C 0.66912 0.42752 1.07436
 H1703 H 0.64862 0.43504 1.06640
 C1704 C 0.72139 0.40708 1.09597
 C1705 C 0.57700 0.33288 1.07563
 H1706 H 0.56915 0.35342 1.06802
 C1707 C 0.59827 0.28036 1.09614
 C1708 C 0.42242 0.66837 1.07434
 H1709 H 0.43021 0.64770 1.06693
 C1710 C 0.40138 0.72121 1.09434
 C1711 C 0.42652 0.42488 1.17013
 H1712 H 0.43454 0.43267 1.14966
 C1713 C 0.40464 0.40395 1.22238
 C1714 C 0.57398 0.57724 1.16747
 H1715 H 0.56666 0.56956 1.14669
 C1716 C 0.59375 0.59795 1.22060
 C1717 C 0.42716 0.33149 1.07613
 H1718 H 0.43471 0.35204 1.06822
 C1719 C 0.40670 0.27905 1.09760
 C1720 C 0.57235 0.67095 1.07339
 H1721 H 0.56502 0.65017 1.06580
 C1722 C 0.59223 0.72389 1.09410
 C1723 C 0.33231 0.42411 1.07628
 H1724 H 0.35285 0.43173 1.06844
 C1725 C 0.27988 0.40363 1.09761
 C1726 C 0.66720 0.57744 1.07448
 H1727 H 0.64656 0.56965 1.06711
 C1728 C 0.71992 0.59854 1.09440
 C1729 C 1.09217 1.10938 1.27904
 C1730 C 1.11854 1.09787 1.29580
 C1731 C 1.12976 1.12878 1.29872
 C1732 C 1.10353 1.14052 1.28240
 C1733 C 1.14671 1.12593 1.27046
 C1734 C 1.13539 1.09483 1.26718
 C1735 C 1.10912 1.10647 1.25071
 C1736 C 1.12036 1.13745 1.25378
 H1737 H 1.06961 1.10244 1.28235
 H1738 H 1.11788 1.08169 1.31335
 H1739 H 1.09045 1.15942 1.28881
 H1740 H 1.16926 1.13287 1.26712
 H1741 H 1.14897 1.07606 1.26153
 H1742 H 1.12105 1.15365 1.23625
 C1743 C 1.13729 0.61894 0.75051
 C1744 C 1.12561 0.64491 0.76778
 C1745 C 1.12833 0.62731 0.79562
 C1746 C 1.14020 0.60146 0.77871
 C1747 C 1.09752 0.61610 0.79227
 C1748 C 1.09462 0.63361 0.76410
 C1749 C 1.10642 0.60771 0.74705
 C1750 C 1.10918 0.59009 0.77494
 H1751 H 1.15357 0.62007 0.73306
 H1752 H 1.13254 0.66758 0.76509
 H1753 H 1.15907 0.58832 0.78495
 H1754 H 1.08129 0.61501 0.80977
 H1755 H 1.07589 0.64728 0.75867
 H1756 H 1.10226 0.56742 0.77764
 C1757 C 0.63959 1.12120 0.75154
 C1758 C 0.62880 1.14756 0.76885
 C1759 C 0.63234 1.13030 0.79684
 C1760 C 0.64334 1.10408 0.77988
 C1761 C 0.60129 1.11938 0.79474
 C1762 C 0.59756 1.13652 0.76639
 C1763 C 0.60847 1.11026 0.74930
 C1764 C 0.61207 1.09301 0.77736
 H1765 H 0.65525 1.12193 0.73352
 H1766 H 0.63586 1.17011 0.76552
 H1767 H 0.66227 1.09076 0.78556
 H1768 H 0.58564 1.11867 0.81278
 H1769 H 0.57876 1.15023 0.76133
 H1770 H 0.60501 1.07046 0.78067
 C1771 C 0.63634 0.62025 1.25192
 C1772 C 0.62508 0.64622 1.26947
 C1773 C 0.62782 0.62839 1.29717
 C1774 C 0.63925 0.60253 1.27996
 C1775 C 0.59684 0.61757 1.29395
 C1776 C 0.59392 0.63531 1.26591
 C1777 C 0.60530 0.60941 1.24859
 C1778 C 0.60808 0.59155 1.27635
 H1779 H 0.65250 0.62134 1.23437
 H1780 H 0.63226 0.66883 1.26688
 H1781 H 0.65800 0.58911 1.28595
 H1782 H 0.58073 0.61652 1.31156
 H1783 H 0.57530 0.64917 1.26061
 H1784 H 0.60091 0.56895 1.27894
 C1785 C 0.87999 0.86266 1.25194
 C1786 C 0.89708 0.85921 1.28032
 C1787 C 0.87102 0.87074 1.29708
 C1788 C 0.85380 0.87397 1.26908
 C1789 C 0.88218 0.90170 1.29453
 C1790 C 0.90840 0.89039 1.27732
 C1791 C 0.89118 0.89368 1.24924
 C1792 C 0.86507 0.90512 1.26616
 H1793 H 0.87913 0.84670 1.23415
 H1794 H 0.91019 0.84022 1.28632
 H1795 H 0.83122 0.86704 1.26589
 H1796 H 0.88302 0.91763 1.31234
 H1797 H 0.93098 0.89732 1.28047
 H1798 H 0.85149 0.92397 1.26090
 C1799 C 0.88097 0.36284 0.75241
 C1800 C 0.89758 0.35955 0.78109
 C1801 C 0.87122 0.37118 0.79737
 C1802 C 0.85449 0.37424 0.76907
 C1803 C 0.88248 0.40210 0.79485
 C1804 C 0.90898 0.39070 0.77813
 C1805 C 0.89224 0.39383 0.74973
 C1806 C 0.86585 0.40537 0.76618
 H1807 H 0.88041 0.34678 0.73471
 H1808 H 0.91059 0.34059 0.78737
 H1809 H 0.83196 0.36734 0.76554
 H1810 H 0.88301 0.41813 0.81258
 H1811 H 0.93151 0.39760 0.78162
 H1812 H 0.85231 0.42418 0.76068
 C1813 C 0.38936 0.90945 0.77696
 C1814 C 0.35819 0.89819 0.77975
 C1815 C 0.36947 0.87204 0.79650
 C1816 C 0.40042 0.88313 0.79412
 C1817 C 0.37287 0.85483 0.76844
 C1818 C 0.36179 0.88110 0.75134
 C1819 C 0.39280 0.89221 0.74885
 C1820 C 0.40400 0.86601 0.76573
 H1821 H 0.39632 0.93205 0.78022
 H1822 H 0.33922 0.91133 0.78575
 H1823 H 0.41616 0.88389 0.81204
 H1824 H 0.36590 0.83223 0.76517
 H1825 H 0.34599 0.88031 0.73346
 H1826 H 0.42281 0.85233 0.76055
 C1827 C 0.38060 0.36104 1.25236
 C1828 C 0.39690 0.35766 1.28122
 C1829 C 0.37044 0.36941 1.29725
 C1830 C 0.35401 0.37256 1.26877
 C1831 C 0.38188 0.40027 1.29483
 C1832 C 0.40849 0.38875 1.27835
 C1833 C 0.39206 0.39197 1.24979
 C1834 C 0.36555 0.40362 1.26600
 H1835 H 0.38014 0.34497 1.23466
 H1836 H 0.40977 0.33863 1.28762
 H1837 H 0.33148 0.36577 1.26501
 H1838 H 0.38231 0.41632 1.31256
 H1839 H 0.43102 0.39554 1.28209
 H1840 H 0.35211 0.42249 1.26043
 C1841 C 0.89019 1.09281 0.72264
 C1842 C 0.85885 1.10367 0.72013
 C1843 C 0.86971 1.12995 0.70327
 C1844 C 0.90083 1.11925 0.70535
 C1845 C 0.87313 1.14724 0.73129
 C1846 C 0.86249 1.12082 0.74852
 C1847 C 0.89367 1.11010 0.75074
 C1848 C 0.90444 1.13642 0.73374
 H1849 H 0.89740 1.07031 0.71930
 H1850 H 0.84000 1.09024 0.71439
 H1851 H 0.91648 1.11863 0.68731
 H1852 H 0.86593 1.16974 0.73468
 H1853 H 0.84682 1.12146 0.76655
 H1854 H 0.92315 1.15025 0.73884
 C1855 C 0.90760 0.60790 0.22318
 C1856 C 0.88134 0.59700 0.20586
 C1857 C 0.87045 0.62808 0.20363
 C1858 C 0.89655 0.63918 0.22055
 C1859 C 0.85314 0.62465 0.23160
 C1860 C 0.86413 0.59338 0.23419
 C1861 C 0.89028 0.60443 0.25121
 C1862 C 0.87936 0.63557 0.24886
 H1863 H 0.93013 0.60082 0.21995
 H1864 H 0.88207 0.58129 0.18785
 H1865 H 0.90980 0.65814 0.21473
 H1866 H 0.83061 0.63173 0.23482
 H1867 H 0.85043 0.57456 0.23933
 H1868 H 0.87858 0.65133 0.26682
 C1869 C 0.37987 1.13767 0.24854
 C1870 C 0.39667 1.14102 0.21994
 C1871 C 0.37038 1.12954 0.20349
 C1872 C 0.35345 1.12642 0.23173
 C1873 C 0.38149 1.09857 0.20597
 C1874 C 0.40793 1.10983 0.22284
 C1875 C 0.39101 1.10664 0.25117
 C1876 C 0.36468 1.09524 0.23457
 H1877 H 0.37925 1.15368 0.26629
 H1878 H 0.40980 1.15996 0.21378
 H1879 H 0.33093 1.13339 0.23520
 H1880 H 0.38209 1.08259 0.18819
 H1881 H 0.43045 1.10286 0.21940
 H1882 H 0.35107 1.07645 0.24002
 C1883 C 0.36064 0.61774 0.74791
 C1884 C 0.37209 0.64402 0.73100
 C1885 C 0.36911 0.62688 0.70285
 C1886 C 0.35746 0.60072 0.71940
 C1887 C 0.39997 0.61567 0.70567
 C1888 C 0.40313 0.63273 0.73414
 C1889 C 0.39156 0.60653 0.75084
 C1890 C 0.38853 0.58935 0.72264
 H1891 H 0.34453 0.61855 0.76554
 H1892 H 0.36517 0.66663 0.73422
 H1893 H 0.33854 0.58764 0.71311
 H1894 H 0.41602 0.61489 0.68800
 H1895 H 0.42189 0.64639 0.73953
 H1896 H 0.39545 0.56674 0.71943
 C1897 C 1.11105 0.91017 0.72246
 C1898 C 1.14201 0.89856 0.71887
 C1899 C 1.13004 0.87258 0.70220
 C1900 C 1.09930 0.88403 0.70539
 C1901 C 1.12711 0.85533 0.73026
 C1902 C 1.13888 0.88143 0.74727
 C1903 C 1.10807 0.89289 0.75057
 C1904 C 1.09617 0.86686 0.73377
 H1905 H 1.10431 0.93285 0.71948
 H1906 H 1.16098 0.91153 0.71252
 H1907 H 1.08313 0.88502 0.68788
 H1908 H 1.13386 0.83265 0.73324
 H1909 H 1.15510 0.88041 0.76474
 H1910 H 1.07734 0.85334 0.73925
 C1911 C 1.13828 0.37933 0.24807
 C1912 C 1.12736 0.35297 0.23088
 C1913 C 1.13075 0.37021 0.20286
 C1914 C 1.14188 0.39643 0.21969
 C1915 C 1.09972 0.38113 0.20519
 C1916 C 1.09614 0.36402 0.23357
 C1917 C 1.10719 0.39028 0.25054
 C1918 C 1.11064 0.40752 0.22245
 H1919 H 1.15404 0.37861 0.26597
 H1920 H 1.13441 0.33041 0.23416
 H1921 H 1.16080 0.40972 0.21383
 H1922 H 1.08399 0.38183 0.18727
 H1923 H 1.07736 0.35032 0.23879
 H1924 H 1.10358 0.43007 0.21920
 C1925 C 0.63666 0.88124 0.24702
 C1926 C 0.62509 0.85546 0.22941
 C1927 C 0.62798 0.87337 0.20177
 C1928 C 0.63973 0.89904 0.21903
 C1929 C 0.59713 0.88451 0.20516
 C1930 C 0.59406 0.86668 0.23314
 C1931 C 0.60575 0.89239 0.25052
 C1932 C 0.60868 0.91033 0.22283
 H1933 H 0.65283 0.87992 0.26451
 H1934 H 0.63202 0.83277 0.23189
 H1935 H 0.65862 0.91228 0.21300
 H1936 H 0.58100 0.88579 0.18763
 H1937 H 0.57530 0.85297 0.23839
 H1938 H 0.60176 0.93302 0.22035
 C1939 C 0.62055 0.36136 0.74814
 C1940 C 0.60372 0.35795 0.71959
 C1941 C 0.62986 0.36974 0.70310
 C1942 C 0.64682 0.37292 0.73128
 C1943 C 0.61847 0.40060 0.70584
 C1944 C 0.59218 0.38904 0.72276
 C1945 C 0.60914 0.39229 0.75102
 C1946 C 0.63533 0.40397 0.73437
 H1947 H 0.62136 0.34529 0.76579
 H1948 H 0.59075 0.33892 0.71336
 H1949 H 0.66942 0.36614 0.73461
 H1950 H 0.61768 0.41664 0.68817
 H1951 H 0.56958 0.39582 0.71948
 H1952 H 0.64881 0.42286 0.73985
 C1953 C 1.26630 1.09576 1.13612
 C1954 C 1.29469 1.09916 1.11909
 C1955 C 1.29733 1.13005 1.13052
 C1956 C 1.26930 1.12685 1.14766
 C1957 C 1.28085 1.14176 1.10433
 C1958 C 1.27778 1.11065 1.09275
 C1959 C 1.24966 1.10738 1.10989
 C1960 C 1.25245 1.13833 1.12134
 H1961 H 1.26088 1.07687 1.14964
 H1962 H 1.31233 1.08315 1.11824
 H1963 H 1.26600 1.13366 1.17036
 H1964 H 1.28698 1.16079 1.09129
 H1965 H 1.28104 1.10384 1.07005
 H1966 H 1.23483 1.15436 1.12221
 C1967 C 1.26519 0.63521 0.59350
 C1968 C 1.26816 0.64606 0.62490
 C1969 C 1.29600 0.62865 0.62785
 C1970 C 1.29342 0.61793 0.59665
 C1971 C 1.27925 0.60244 0.63902
 C1972 C 1.25105 0.61972 0.63585
 C1973 C 1.24831 0.60896 0.60460
 C1974 C 1.27624 0.59156 0.60760
 H1975 H 1.25986 0.64903 0.57480
 H1976 H 1.26506 0.66858 0.63220
 H1977 H 1.31115 0.61726 0.58067
 H1978 H 1.28519 0.58901 0.65784
 H1979 H 1.23335 0.62040 0.65187
 H1980 H 1.27930 0.56904 0.60030
 C1981 C 0.77662 1.11103 0.59265
 C1982 C 0.77977 1.14215 0.60419
 C1983 C 0.79611 1.13041 0.63047
 C1984 C 0.79339 1.09952 0.61907
 C1985 C 0.76800 1.12735 0.64750
 C1986 C 0.75129 1.13886 0.62110
 C1987 C 0.74842 1.10791 0.60967
 C1988 C 0.76492 1.09626 0.63599
 H1989 H 0.77995 1.10419 0.56997
 H1990 H 0.78602 1.16113 0.59114
 H1991 H 0.81097 1.08344 0.61831
 H1992 H 0.76464 1.13420 0.67018
 H1993 H 0.73373 1.15497 0.62187
 H1994 H 0.75944 1.07742 0.64954
 C1995 C 0.76452 0.63644 1.09456
 C1996 C 0.76794 0.64744 1.12585
 C1997 C 0.79577 0.62996 1.12856
 C1998 C 0.79270 0.61906 1.09746
 C1999 C 0.77900 0.60389 1.14004
 C2000 C 0.75083 0.62125 1.13716
 C2001 C 0.74764 0.61033 1.10600
 C2002 C 0.77553 0.59283 1.10875
 H2003 H 0.75907 0.65023 1.07587
 H2004 H 0.76506 0.67002 1.13306
 H2005 H 0.81023 0.61824 1.08126
 H2006 H 0.78516 0.59056 1.15887
 H2007 H 0.73335 0.62211 1.15341
 H2008 H 0.77842 0.57025 1.10155
 C2009 C 1.26401 0.86515 0.90462
 C2010 C 1.26724 0.85409 0.87332
 C2011 C 1.29531 0.87116 0.87056
 C2012 C 1.29246 0.88212 0.90166
 C2013 C 1.27897 0.89750 0.85908
 C2014 C 1.25053 0.88055 0.86206
 C2015 C 1.24752 0.89153 0.89322
 C2016 C 1.27568 0.90860 0.89040
 H2017 H 1.25842 0.85142 0.92332
 H2018 H 1.26397 0.83155 0.86614
 H2019 H 1.30998 0.88269 0.91783
 H2020 H 1.28528 0.91076 0.84024
 H2021 H 1.23303 0.87995 0.84587
 H2022 H 1.27892 0.93114 0.89758
 C2023 C 1.27623 0.38894 0.40686
 C2024 C 1.27944 0.35779 0.39545
 C2025 C 1.29615 0.36942 0.36931
 C2026 C 1.29336 0.40035 0.38059
 C2027 C 1.26826 0.37248 0.35198
 C2028 C 1.25119 0.36107 0.37824
 C2029 C 1.24825 0.39207 0.38954
 C2030 C 1.26509 0.40361 0.36337
 H2031 H 1.27929 0.39585 0.42956
 H2032 H 1.28547 0.33884 0.40862
 H2033 H 1.31096 0.41641 0.38148
 H2034 H 1.26517 0.36557 0.32928
 H2035 H 1.23361 0.34499 0.37733
 H2036 H 1.25975 0.42244 0.34975
 C2037 C 0.76543 0.86609 0.40484
 C2038 C 0.76862 0.85469 0.37369
 C2039 C 0.79659 0.87188 0.37062
 C2040 C 0.79373 0.88319 0.40159
 C2041 C 0.78005 0.89796 0.35888
 C2042 C 0.75173 0.88088 0.36215
 C2043 C 0.74875 0.89221 0.39318
 C2044 C 0.77678 0.90943 0.39007
 H2045 H 0.76001 0.85252 0.42372
 H2046 H 0.76550 0.83205 0.36678
 H2047 H 0.81132 0.88406 0.41767
 H2048 H 0.78630 0.91098 0.33985
 H2049 H 0.73418 0.87998 0.34602
 H2050 H 0.77989 0.93208 0.39697
 C2051 C 0.77777 0.39057 0.90755
 C2052 C 0.78103 0.35938 0.89626
 C2053 C 0.79765 0.37091 0.87003
 C2054 C 0.79482 0.40190 0.88118
 C2055 C 0.76970 0.37387 0.85276
 C2056 C 0.75272 0.36254 0.87912
 C2057 C 0.74974 0.39359 0.89029
 C2058 C 0.76650 0.40505 0.86403
 H2059 H 0.78090 0.39759 0.93020
 H2060 H 0.78713 0.34049 0.90950
 H2061 H 0.81239 0.41800 0.88197
 H2062 H 0.76655 0.36685 0.83011
 H2063 H 0.73517 0.34643 0.87831
 H2064 H 0.76105 0.42380 0.85036
 C2065 C 0.72281 0.89256 1.08862
 C2066 C 0.71914 0.86150 1.10002
 C2067 C 0.70261 0.87340 1.12615
 C2068 C 0.70586 0.90426 1.11490
 C2069 C 0.73053 0.87611 1.14347
 C2070 C 0.74742 0.86440 1.11723
 C2071 C 0.75079 0.89532 1.10597
 C2072 C 0.73411 0.90715 1.13215
 H2073 H 0.71989 0.89948 1.06593
 H2074 H 0.71274 0.84259 1.08689
 H2075 H 0.68846 0.92051 1.11404
 H2076 H 0.73346 0.86918 1.16616
 H2077 H 0.76478 0.84809 1.11813
 H2078 H 0.73961 0.92589 1.14587
 C2079 C 0.72330 0.38975 0.59307
 C2080 C 0.72014 0.35862 0.60443
 C2081 C 0.70343 0.37025 0.63057
 C2082 C 0.70616 0.40117 0.61936
 C2083 C 0.73129 0.37338 0.64794
 C2084 C 0.74836 0.36197 0.62167
 C2085 C 0.75125 0.39295 0.61042
 C2086 C 0.73441 0.40451 0.63660
 H2087 H 0.72026 0.39664 0.57039
 H2088 H 0.71413 0.33963 0.59123
 H2089 H 0.68852 0.41717 0.61849
 H2090 H 0.73436 0.36650 0.67062
 H2091 H 0.76598 0.34593 0.62256
 H2092 H 0.73976 0.42336 0.65024
 C2093 C 0.22357 0.89081 0.59029
 C2094 C 0.22013 0.85967 0.60157
 C2095 C 0.20345 0.87139 0.62767
 C2096 C 0.20644 0.90231 0.61655
 C2097 C 0.23126 0.87428 0.64514
 C2098 C 0.24832 0.86277 0.61891
 C2099 C 0.25147 0.89376 0.60776
 C2100 C 0.23464 0.90539 0.63390
 H2101 H 0.22068 0.89779 0.56761
 H2102 H 0.21398 0.84075 0.58834
 H2103 H 0.18891 0.91844 0.61565
 H2104 H 0.23421 0.86731 0.66781
 H2105 H 0.26582 0.84662 0.61983
 H2106 H 0.24005 0.92417 0.64761
 C2107 C 0.22428 0.38873 1.09244
 C2108 C 0.22098 0.35769 1.10403
 C2109 C 0.20442 0.36959 1.13015
 C2110 C 0.20727 0.40041 1.11871
 C2111 C 0.23235 0.37269 1.14739
 C2112 C 0.24929 0.36102 1.12115
 C2113 C 0.25230 0.39191 1.10968
 C2114 C 0.23557 0.40371 1.13584
 H2115 H 0.22120 0.39548 1.06972
 H2116 H 0.21483 0.33864 1.09099
 H2117 H 0.18971 0.41650 1.11779
 H2118 H 0.23546 0.36595 1.17011
 H2119 H 0.26683 0.34490 1.12209
 H2120 H 0.24094 0.42262 1.14940
 C2121 C 0.73741 1.09629 0.86374
 C2122 C 0.70893 1.09945 0.88067
 C2123 C 0.70617 1.13034 0.86939
 C2124 C 0.73428 1.12738 0.85235
 C2125 C 0.72248 1.14209 0.89572
 C2126 C 0.72567 1.11098 0.90714
 C2127 C 0.75387 1.10795 0.89011
 C2128 C 0.75096 1.13891 0.87880
 H2129 H 0.74295 1.07747 0.85012
 H2130 H 0.69138 1.08333 0.88135
 H2131 H 0.73762 1.13426 0.82969
 H2132 H 0.71620 1.16104 0.90885
 H2133 H 0.72236 1.10410 0.92979
 H2134 H 0.76849 1.15505 0.87811
 C2135 C 0.73357 0.59262 0.36655
 C2136 C 0.70532 0.59610 0.38379
 C2137 C 0.70263 0.62694 0.37237
 C2138 C 0.73053 0.62366 0.35504
 C2139 C 0.71932 0.63871 0.39842
 C2140 C 0.72242 0.60767 0.41000
 C2141 C 0.75037 0.60435 0.39265
 C2142 C 0.74756 0.63525 0.38120
 H2143 H 0.73888 0.57369 0.35301
 H2144 H 0.68763 0.58014 0.38475
 H2145 H 0.73361 0.63041 0.33231
 H2146 H 0.71323 0.65780 0.41144
 H2147 H 0.71933 0.60093 0.43273
 H2148 H 0.76519 0.65126 0.38020
 C2149 C 0.23406 1.09449 0.36550
 C2150 C 0.20581 1.09788 0.38278
 C2151 C 0.20306 1.12873 0.37142
 C2152 C 0.23093 1.12555 0.35403
 C2153 C 0.21975 1.14052 0.39747
 C2154 C 0.22294 1.10944 0.40899
 C2155 C 0.25090 1.10618 0.39160
 C2156 C 0.24800 1.13711 0.38021
 H2157 H 0.23937 1.07559 0.35191
 H2158 H 0.18818 1.08185 0.38376
 H2159 H 0.23402 1.13233 0.33130
 H2160 H 0.21372 1.15956 0.41059
 H2161 H 0.21988 1.10266 0.43171
 H2162 H 0.26560 1.15316 0.37920
 C2163 C 0.23333 0.59250 0.86540
 C2164 C 0.20499 0.59567 0.88253
 C2165 C 0.20223 0.62667 0.87151
 C2166 C 0.23024 0.62367 0.85428
 C2167 C 0.21876 0.63814 0.89779
 C2168 C 0.22192 0.60695 0.90897
 C2169 C 0.24998 0.60392 0.89171
 C2170 C 0.24711 0.63497 0.88067
 H2171 H 0.23878 0.57374 0.85165
 H2172 H 0.18735 0.57965 0.88322
 H2173 H 0.23343 0.63073 0.83167
 H2174 H 0.21255 0.65704 0.91103
 H2175 H 0.21873 0.59990 0.93159
 H2176 H 0.26470 0.65105 0.87995
 C2177 C 1.11093 1.27576 1.09193
 C2178 C 1.09952 1.29310 1.11809
 C2179 C 1.13036 1.29572 1.12945
 C2180 C 1.14196 1.27879 1.10345
 C2181 C 1.12694 1.26789 1.14688
 C2182 C 1.09592 1.26493 1.13544
 C2183 C 1.10747 1.24787 1.10940
 C2184 C 1.13836 1.25061 1.12077
 H2185 H 1.10417 1.27875 1.06921
 H2186 H 1.08370 1.31090 1.11708
 H2187 H 1.16103 1.28472 1.09038
 H2188 H 1.13370 1.26490 1.16961
 H2189 H 1.07700 1.25978 1.14901
 H2190 H 1.15424 1.23286 1.12182
 C2191 C 1.10973 0.77816 0.58898
 C2192 C 1.09832 0.79525 0.61531
 C2193 C 1.12914 0.79778 0.62672
 C2194 C 1.14076 0.78110 0.60054
 C2195 C 1.12575 0.76977 0.64386
 C2196 C 1.09474 0.76690 0.63237
 C2197 C 1.10629 0.75008 0.60615
 C2198 C 1.13718 0.75274 0.61757
 H2199 H 1.10299 0.78138 0.56628
 H2200 H 1.08247 0.81303 0.61448
 H2201 H 1.15982 0.78715 0.58752
 H2202 H 1.13250 0.76654 0.66655
 H2203 H 1.07583 0.76166 0.64592
 H2204 H 1.15308 0.73500 0.61844
 C2205 C 0.63787 1.25098 0.61932
 C2206 C 0.64169 1.27940 0.60245
 C2207 C 0.62982 1.29598 0.62858
 C2208 C 0.62621 1.26791 0.64557
 C2209 C 0.59912 1.29355 0.61685
 C2210 C 0.61076 1.27656 0.59057
 C2211 C 0.60710 1.24844 0.60759
 C2212 C 0.59532 1.26516 0.63377
 H2213 H 0.65373 1.23320 0.62028
 H2214 H 0.66089 1.28550 0.58967
 H2215 H 0.63273 1.26459 0.66832
 H2216 H 0.58332 1.31138 0.61594
 H2217 H 0.60425 1.27988 0.56781
 H2218 H 0.57628 1.25996 0.64715
 C2219 C 0.60736 0.77943 1.08849
 C2220 C 0.59602 0.79673 1.11471
 C2221 C 0.62688 0.79936 1.12597
 C2222 C 0.63843 0.78247 1.09991
 C2223 C 0.62355 0.77150 1.14338
 C2224 C 0.59250 0.76853 1.13203
 C2225 C 0.60399 0.75153 1.10593
 C2226 C 0.63491 0.75428 1.11721
 H2227 H 0.60053 0.78244 1.06579
 H2228 H 0.58018 0.81452 1.11377
 H2229 H 0.65745 0.78844 1.08680
 H2230 H 0.63039 0.76849 1.16608
 H2231 H 0.57363 0.76334 1.14566
 H2232 H 0.65081 0.73654 1.11820
 C2233 C 0.86660 1.26588 0.90550
 C2234 C 0.88324 1.29448 0.90211
 C2235 C 0.87186 1.29700 0.87118
 C2236 C 0.85514 1.26873 0.87437
 C2237 C 0.89815 1.28075 0.85941
 C2238 C 0.90968 1.27782 0.89055
 C2239 C 0.89294 1.24949 0.89380
 C2240 C 0.88154 1.25213 0.86281
 H2241 H 0.85313 1.26039 0.92444
 H2242 H 0.88383 1.31219 0.91815
 H2243 H 0.83258 1.26522 0.86757
 H2244 H 0.91104 1.28708 0.84032
 H2245 H 0.93224 1.28134 0.89735
 H2246 H 0.88092 1.23447 0.84671
 C2247 C 0.90421 0.76453 0.36487
 C2248 C 0.87328 0.76815 0.35342
 C2249 C 0.87056 0.79619 0.37071
 C2250 C 0.90131 0.79290 0.38209
 C2251 C 0.85855 0.77971 0.39680
 C2252 C 0.86146 0.75132 0.37962
 C2253 C 0.89227 0.74792 0.39100
 C2254 C 0.88951 0.77602 0.40833
 H2255 H 0.92298 0.75892 0.35126
 H2256 H 0.86645 0.76515 0.33070
 H2257 H 0.91759 0.81031 0.38302
 H2258 H 0.83965 0.78618 0.40986
 H2259 H 0.84513 0.73396 0.37865
 H2260 H 0.89633 0.77902 0.43104
 C2261 C 0.40466 1.26463 0.36513
 C2262 C 0.37368 1.26732 0.35355
 C2263 C 0.37001 1.29522 0.37090
 C2264 C 0.40081 1.29286 0.38239
 C2265 C 0.35839 1.27836 0.39689
 C2266 C 0.36225 1.25010 0.37966
 C2267 C 0.39312 1.24764 0.39117
 C2268 C 0.38940 1.27559 0.40855
 H2269 H 0.42367 1.25956 0.35165
 H2270 H 0.36703 1.26415 0.33081
 H2271 H 0.41652 1.31077 0.38344
 H2272 H 0.33923 1.28424 0.40985
 H2273 H 0.34649 1.23223 0.37858
 H2274 H 0.39605 1.27876 0.43129
 C2275 C 0.37770 0.75173 0.86203
 C2276 C 0.35143 0.76855 0.87359
 C2277 C 0.36859 0.79663 0.87096
 C2278 C 0.39474 0.78016 0.85921
 C2279 C 0.37962 0.79347 0.90197
 C2280 C 0.36255 0.76506 0.90478
 C2281 C 0.38875 0.74846 0.89309
 C2282 C 0.40593 0.77660 0.89042
 H2283 H 0.37696 0.73432 0.84567
 H2284 H 0.32889 0.76546 0.86652
 H2285 H 0.40792 0.78658 0.84034
 H2286 H 0.38032 0.81093 0.91828
 H2287 H 0.34886 0.75943 0.92351
 H2288 H 0.42847 0.77970 0.89748
 C2289 C 1.13297 0.73278 0.90577
 C2290 C 1.11572 0.70458 0.90207
 C2291 C 1.12749 0.70178 0.87127
 C2292 C 1.14482 0.72965 0.87478
 C2293 C 1.10179 0.71864 0.85922
 C2294 C 1.08986 0.72186 0.89023
 C2295 C 1.10723 0.74978 0.89378
 C2296 C 1.11901 0.74686 0.86292
 H2297 H 1.14626 0.73799 0.92489
 H2298 H 1.11445 0.68689 0.91805
 H2299 H 1.16756 0.73262 0.86827
 H2300 H 1.08904 0.71261 0.83995
 H2301 H 1.06712 0.71889 0.89673
 H2302 H 1.12032 0.76451 0.84689
 C2303 C 1.09477 0.23358 0.36691
 C2304 C 1.12577 0.23070 0.35533
 C2305 C 1.12925 0.20286 0.37271
 C2306 C 1.09844 0.20539 0.38420
 C2307 C 1.14089 0.21976 0.39869
 C2308 C 1.13721 0.24796 0.38143
 C2309 C 1.10634 0.25062 0.39293
 C2310 C 1.10987 0.22272 0.41034
 H2311 H 1.07582 0.23867 0.35341
 H2312 H 1.13249 0.23374 0.33258
 H2313 H 1.08265 0.18756 0.38525
 H2314 H 1.15999 0.21384 0.41165
 H2315 H 1.15306 0.26575 0.38033
 H2316 H 1.10315 0.21968 0.43309
 C2317 C 0.59429 0.73350 0.36729
 C2318 C 0.62524 0.73024 0.35574
 C2319 C 0.62834 0.70234 0.37310
 C2320 C 0.59757 0.70528 0.38458
 C2321 C 0.64019 0.71909 0.39909
 C2322 C 0.63690 0.74734 0.38184
 C2323 C 0.60606 0.75040 0.39333
 C2324 C 0.60920 0.72245 0.41073
 H2325 H 0.57544 0.73879 0.35372
 H2326 H 0.63201 0.73320 0.33299
 H2327 H 0.58153 0.68766 0.38561
 H2328 H 0.65920 0.71290 0.41207
 H2329 H 0.65298 0.76492 0.38077
 H2330 H 0.60244 0.71950 0.43348
 C2331 C 0.59764 0.23492 0.86581
 C2332 C 0.62856 0.23228 0.85396
 C2333 C 0.63227 0.20426 0.87100
 C2334 C 0.60154 0.20658 0.88277
 C2335 C 0.64404 0.22096 0.89707
 C2336 C 0.64013 0.24933 0.88014
 C2337 C 0.60934 0.25177 0.89192
 C2338 C 0.61310 0.22369 0.90900
 H2339 H 0.57859 0.24002 0.85245
 H2340 H 0.63508 0.23559 0.83118
 H2341 H 0.58580 0.18869 0.88376
 H2342 H 0.66326 0.21499 0.90984
 H2343 H 0.65592 0.26718 0.87912
 H2344 H 0.60659 0.22038 0.93177
 C2345 C 0.86531 0.73553 1.09539
 C2346 C 0.88241 0.70719 1.09854
 C2347 C 0.87114 0.70425 1.12951
 C2348 C 0.85396 0.73227 1.12655
 C2349 C 0.89716 0.72085 1.14129
 C2350 C 0.90859 0.72419 1.11011
 C2351 C 0.89139 0.75226 1.10710
 C2352 C 0.88010 0.74922 1.13813
 H2353 H 0.85175 0.74098 1.07655
 H2354 H 0.88328 0.68959 1.08238
 H2355 H 0.83136 0.73536 1.13348
 H2356 H 0.91018 0.71459 1.16028
 H2357 H 0.93119 0.72109 1.10318
 H2358 H 0.87920 0.76677 1.15434
 C2359 C 0.90494 0.23494 0.63618
 C2360 C 0.87385 0.23218 0.64758
 C2361 C 0.87030 0.20435 0.63008
 C2362 C 0.90120 0.20676 0.61879
 C2363 C 0.85891 0.22133 0.60410
 C2364 C 0.86265 0.24950 0.62147
 C2365 C 0.89361 0.25203 0.61015
 C2366 C 0.89002 0.22414 0.59264
 H2367 H 0.92385 0.24006 0.64974
 H2368 H 0.86701 0.23525 0.67029
 H2369 H 0.91691 0.18886 0.61776
 H2370 H 0.83986 0.21552 0.59099
 H2371 H 0.84688 0.26736 0.62254
 H2372 H 0.89685 0.22106 0.56993
 C2373 C 0.40433 0.73336 0.63454
 C2374 C 0.37326 0.73025 0.64591
 C2375 C 0.37005 0.70238 0.62841
 C2376 C 0.40093 0.70514 0.61714
 C2377 C 0.35851 0.71927 0.60241
 C2378 C 0.36191 0.74748 0.61980
 C2379 C 0.39284 0.75036 0.60850
 C2380 C 0.38959 0.72243 0.59099
 H2381 H 0.42315 0.73862 0.64817
 H2382 H 0.36638 0.73324 0.66862
 H2383 H 0.41685 0.68743 0.61612
 H2384 H 0.33954 0.71328 0.58926
 H2385 H 0.34593 0.76515 0.62085
 H2386 H 0.39646 0.71943 0.56827
 C2387 C 0.40604 0.23471 1.13585
 C2388 C 0.37496 0.23202 1.14729
 C2389 C 0.37143 0.20406 1.13001
 C2390 C 0.40232 0.20642 1.11866
 C2391 C 0.36001 0.22085 1.10390
 C2392 C 0.36373 0.24915 1.12107
 C2393 C 0.39468 0.25162 1.10970
 C2394 C 0.39111 0.22360 1.09240
 H2395 H 0.42495 0.23989 1.14940
 H2396 H 0.36814 0.23524 1.16999
 H2397 H 0.41805 0.18852 1.11776
 H2398 H 0.34096 0.21493 1.09085
 H2399 H 0.34795 0.26700 1.12201
 H2400 H 0.39792 0.22037 1.06970
 C2401 C 1.09692 1.13630 0.73502
 C2402 C 1.12789 1.14780 0.73172
 C2403 C 1.13080 1.13089 0.70342
 C2404 C 1.10002 1.11946 0.70640
 C2405 C 1.14266 1.10467 0.71971
 C2406 C 1.13955 1.12146 0.74836
 C2407 C 1.10871 1.11003 0.75145
 C2408 C 1.11167 1.09309 0.72309
 H2409 H 1.07813 1.14983 0.74065
 H2410 H 1.13469 1.17043 0.73505
 H2411 H 1.08387 1.11874 0.68885
 H2412 H 1.16160 1.09172 0.71321
 H2413 H 1.15575 1.12222 0.76587
 H2414 H 1.10487 1.07046 0.71976
 C2415 C 1.09433 0.63444 0.23330
 C2416 C 1.12532 0.64612 0.23060
 C2417 C 1.12875 0.62943 0.20223
 C2418 C 1.09797 0.61786 0.20456
 C2419 C 1.14048 0.60311 0.21848
 C2420 C 1.13682 0.61968 0.24721
 C2421 C 1.10597 0.60808 0.24969
 C2422 C 1.10948 0.59139 0.22124
 H2423 H 1.07538 0.64780 0.23880
 H2424 H 1.13197 0.66875 0.23425
 H2425 H 1.08210 0.61720 0.18676
 H2426 H 1.15957 0.59025 0.21225
 H2427 H 1.15272 0.62036 0.26498
 H2428 H 1.10283 0.56876 0.21761
 C2429 C 0.61954 1.13803 0.24833
 C2430 C 0.64587 1.12705 0.23119
 C2431 C 0.62883 1.13073 0.20313
 C2432 C 0.60263 1.14193 0.21990
 C2433 C 0.61771 1.09971 0.20508
 C2434 C 0.63463 1.09584 0.23350
 C2435 C 0.60840 1.10694 0.25043
 C2436 C 0.59135 1.11068 0.22229
 H2437 H 0.62024 1.15368 0.26640
 H2438 H 0.66841 1.13397 0.23465
 H2439 H 0.58953 1.16100 0.21414
 H2440 H 0.61702 1.08408 0.18699
 H2441 H 0.64820 1.07692 0.23855
 H2442 H 0.56881 1.10375 0.21887
 C2443 C 0.59299 0.63341 0.73437
 C2444 C 0.62400 0.64480 0.73115
 C2445 C 0.62721 0.62730 0.70324
 C2446 C 0.59637 0.61599 0.70613
 C2447 C 0.63888 0.60142 0.72015
 C2448 C 0.63550 0.61882 0.74841
 C2449 C 0.60460 0.60750 0.75142
 C2450 C 0.60784 0.58996 0.72346
 H2451 H 0.57414 0.64699 0.73966
 H2452 H 0.63083 0.66748 0.73408
 H2453 H 0.58042 0.61491 0.68842
 H2454 H 0.65788 0.58836 0.71407
 H2455 H 0.65150 0.61994 0.76608
 H2456 H 0.60102 0.56728 0.72053
 C2457 C 0.89206 0.91009 0.72186
 C2458 C 0.90309 0.88374 0.70463
 C2459 C 0.87212 0.87268 0.70228
 C2460 C 0.86088 0.89888 0.71910
 C2461 C 0.87546 0.85550 0.73031
 C2462 C 0.90662 0.86664 0.73301
 C2463 C 0.89543 0.89288 0.74995
 C2464 C 0.86441 0.88181 0.74747
 H2465 H 0.89905 0.93267 0.71862
 H2466 H 0.91885 0.88444 0.68670
 H2467 H 0.84194 0.91207 0.71317
 H2468 H 0.86846 0.83292 0.73354
 H2469 H 0.92542 0.85298 0.73819
 H2470 H 0.84858 0.88107 0.76535
 C2471 C 0.88902 0.40737 0.22288
 C2472 C 0.90045 0.38120 0.20560
 C2473 C 0.86958 0.37001 0.20274
 C2474 C 0.85793 0.39603 0.21958
 C2475 C 0.87259 0.35261 0.23067
 C2476 C 0.90366 0.36391 0.23391
 C2477 C 0.89209 0.38997 0.25089
 C2478 C 0.86116 0.37875 0.24788
 H2479 H 0.89594 0.43001 0.21991
 H2480 H 0.91649 0.38214 0.18792
 H2481 H 0.83901 0.40920 0.21352
 H2482 H 0.86567 0.32997 0.23368
 H2483 H 0.92243 0.35028 0.23926
 H2484 H 0.84509 0.37779 0.26553
 C2485 C 0.40565 0.86540 0.23405
 C2486 C 0.37462 0.85407 0.23074
 C2487 C 0.37173 0.87131 0.20270
 C2488 C 0.40256 0.88255 0.20566
 C2489 C 0.35999 0.89739 0.21936
 C2490 C 0.36308 0.88027 0.24775
 C2491 C 0.39397 0.89153 0.25083
 C2492 C 0.39103 0.90879 0.22274
 H2493 H 0.42441 0.85180 0.23950
 H2494 H 0.36771 0.83144 0.23377
 H2495 H 0.41865 0.88339 0.18803
 H2496 H 0.34108 0.91046 0.21309
 H2497 H 0.34693 0.87939 0.26533
 H2498 H 0.39794 0.93143 0.21971
 C2499 C 0.39085 0.40718 0.72282
 C2500 C 0.40216 0.38084 0.70574
 C2501 C 0.37127 0.36963 0.70320
 C2502 C 0.35974 0.39582 0.71984
 C2503 C 0.37445 0.35250 0.73127
 C2504 C 0.40554 0.36383 0.73419
 C2505 C 0.39409 0.39006 0.75098
 C2506 C 0.36314 0.37882 0.74828
 H2507 H 0.39775 0.42979 0.71959
 H2508 H 0.41809 0.38159 0.68794
 H2509 H 0.34079 0.40893 0.71378
 H2510 H 0.36754 0.32989 0.73453
 H2511 H 0.42436 0.35026 0.73956
 H2512 H 0.34718 0.37804 0.76605
 C2513 C 1.11888 0.86206 1.25194
 C2514 C 1.14530 0.87344 1.26864
 C2515 C 1.12841 0.87046 1.29690
 C2516 C 1.10211 0.85885 1.28057
 C2517 C 1.11725 0.90139 1.29431
 C2518 C 1.13404 0.90458 1.26568
 C2519 C 1.10770 0.89306 1.24919
 C2520 C 1.09080 0.89001 1.27753
 H2521 H 1.11948 0.84597 1.23426
 H2522 H 1.16783 0.86648 1.26518
 H2523 H 1.08902 0.83992 1.28686
 H2524 H 1.11667 0.91745 1.31201
 H2525 H 1.14765 0.92336 1.26019
 H2526 H 1.06827 0.89698 1.28094
 C2527 C 1.12021 0.36304 0.75129
 C2528 C 1.14655 0.37399 0.76835
 C2529 C 1.12933 0.37096 0.79643
 C2530 C 1.10310 0.35983 0.77971
 C2531 C 1.11860 0.40208 0.79388
 C2532 C 1.13573 0.40529 0.76546
 C2533 C 1.10946 0.39421 0.74864
 C2534 C 1.09222 0.39115 0.77677
 H2535 H 1.12083 0.34708 0.73350
 H2536 H 1.16902 0.36675 0.76512
 H2537 H 1.08976 0.34101 0.78579
 H2538 H 1.11802 0.41799 0.81172
 H2539 H 1.14953 0.42397 0.76010
 H2540 H 1.06975 0.39839 0.78001
 C2541 C 0.59488 0.86687 0.76649
 C2542 C 0.62594 0.85555 0.76941
 C2543 C 0.62922 0.87286 0.79743
 C2544 C 0.59834 0.88409 0.79483
 C2545 C 0.64076 0.89889 0.78062
 C2546 C 0.63729 0.88170 0.75226
 C2547 C 0.60636 0.89294 0.74955
 C2548 C 0.60967 0.91029 0.77762
 H2549 H 0.57603 0.85327 0.76126
 H2550 H 0.63281 0.83291 0.76627
 H2551 H 0.58247 0.88500 0.81266
 H2552 H 0.65975 0.91197 0.78667
 H2553 H 0.65322 0.88075 0.73448
 H2554 H 0.60281 0.93292 0.78075
 C2555 C 0.59237 0.38981 1.27700
 C2556 C 0.60350 0.35851 1.27924
 C2557 C 0.62957 0.36949 1.29629
 C2558 C 0.61861 0.40057 1.29447
 C2559 C 0.64691 0.37331 1.26838
 C2560 C 0.62069 0.36254 1.25097
 C2561 C 0.60969 0.39368 1.24900
 C2562 C 0.63581 0.40459 1.26617
 H2563 H 0.56983 0.39679 1.28032
 H2564 H 0.59025 0.33945 1.28476
 H2565 H 0.61781 0.41608 1.31265
 H2566 H 0.66945 0.36633 1.26503
 H2567 H 0.62152 0.34700 1.23281
 H2568 H 0.64942 0.42352 1.26121
 C2569 C 0.88099 1.13839 1.25328
 C2570 C 0.85459 1.12723 1.27019
 C2571 C 0.87166 1.13022 1.29832
 C2572 C 0.89793 1.14160 1.28178
 C2573 C 0.88258 1.09919 1.29565
 C2574 C 0.86562 1.09601 1.26715
 C2575 C 0.89193 1.10729 1.25046
 C2576 C 0.90900 1.11034 1.27867
 H2577 H 0.88039 1.15441 1.23559
 H2578 H 0.83209 1.13435 1.26691
 H2579 H 0.91117 1.16046 1.28797
 H2580 H 0.88316 1.08320 1.31337
 H2581 H 0.85191 1.07728 1.26170
 H2582 H 0.93150 1.10323 1.28191
 C2583 C 0.86347 0.61968 0.75199
 C2584 C 0.86002 0.60245 0.78028
 C2585 C 0.87165 0.62844 0.79714
 C2586 C 0.87491 0.64578 0.76919
 C2587 C 0.90250 0.61714 0.79438
 C2588 C 0.89107 0.59099 0.77711
 C2589 C 0.89436 0.60836 0.74910
 C2590 C 0.90594 0.63439 0.76607
 H2591 H 0.84750 0.62068 0.73428
 H2592 H 0.84101 0.58940 0.78635
 H2593 H 0.86809 0.66844 0.76618
 H2594 H 0.91840 0.61619 0.81213
 H2595 H 0.89788 0.56834 0.78012
 H2596 H 0.92482 0.64792 0.76076
 C2597 C 0.38129 1.13841 0.75195
 C2598 C 0.35510 1.12702 0.76903
 C2599 C 0.37228 1.13032 0.79705
 C2600 C 0.39833 1.14194 0.78035
 C2601 C 0.38355 1.09941 0.79447
 C2602 C 0.36648 1.09591 0.76607
 C2603 C 0.39258 1.10744 0.74921
 C2604 C 0.40976 1.11080 0.77732
 H2605 H 0.38041 1.15434 0.73419
 H2606 H 0.33250 1.13385 0.76583
 H2607 H 0.41137 1.16099 0.78639
 H2608 H 0.38440 1.08350 0.81225
 H2609 H 0.35295 1.07701 0.76078
 H2610 H 0.43235 1.10397 0.78047
 C2611 C 0.40546 0.63325 1.26641
 C2612 C 0.37435 0.64444 1.26958
 C2613 C 0.37132 0.62706 1.29751
 C2614 C 0.40223 0.61599 1.29473
 C2615 C 0.35979 0.60097 1.28075
 C2616 C 0.36304 0.61822 1.25244
 C2617 C 0.39401 0.60713 1.24949
 C2618 C 0.39092 0.58974 1.27750
 H2619 H 0.42422 0.64693 1.26109
 H2620 H 0.36737 0.66704 1.26655
 H2621 H 0.41819 0.61515 1.31244
 H2622 H 0.34089 0.58776 1.28683
 H2623 H 0.34704 0.61908 1.23476
 H2624 H 0.39792 0.56713 1.28048
 C2625 C 1.09221 1.27744 0.89089
 C2626 C 1.11852 1.29455 0.90204
 C2627 C 1.12951 1.29707 0.87093
 C2628 C 1.10336 1.28040 0.85955
 C2629 C 1.14671 1.26908 0.87406
 C2630 C 1.13560 1.26620 0.90536
 C2631 C 1.10941 1.24938 0.89408
 C2632 C 1.12042 1.25204 0.86291
 H2633 H 1.06968 1.28064 0.89798
 H2634 H 1.11779 1.31232 0.91802
 H2635 H 1.09014 1.28640 0.84061
 H2636 H 1.16924 1.26584 0.86697
 H2637 H 1.14926 1.26089 0.92417
 H2638 H 1.12117 1.23430 0.84691
 C2639 C 1.09341 0.76522 0.36392
 C2640 C 1.09687 0.79341 0.38135
 C2641 C 1.12782 0.79604 0.37023
 C2642 C 1.12454 0.76820 0.35269
 C2643 C 1.13919 0.77912 0.39625
 C2644 C 1.10804 0.77609 0.40754
 C2645 C 1.10473 0.74819 0.38998
 C2646 C 1.13573 0.75093 0.37884
 H2647 H 1.07460 0.75999 0.35026
 H2648 H 1.08104 0.81121 0.38232
 H2649 H 1.13152 0.76519 0.33001
 H2650 H 1.15813 0.78505 0.40947
 H2651 H 1.10106 0.77910 0.43022
 H2652 H 1.15162 0.73318 0.37783
 C2653 C 0.63473 1.26403 0.40264
 C2654 C 0.64606 1.26709 0.37145
 C2655 C 0.62883 1.29505 0.36833
 C2656 C 0.61760 1.29234 0.39934
 C2657 C 0.60279 1.27836 0.35667
 C2658 C 0.61990 1.25002 0.36002
 C2659 C 0.60866 1.24716 0.39110
 C2660 C 0.59141 1.27520 0.38791
 H2661 H 0.64834 1.25876 0.42151
 H2662 H 0.66865 1.26393 0.36452
 H2663 H 0.61670 1.31001 0.41541
 H2664 H 0.58971 1.28443 0.33765
 H2665 H 0.62081 1.23235 0.34394
 H2666 H 0.56882 1.27832 0.39484
 C2667 C 0.63602 0.75249 0.88029
 C2668 C 0.62494 0.77003 0.85428
 C2669 C 0.62867 0.79775 0.87194
 C2670 C 0.63993 0.78054 0.89783
 C2671 C 0.59773 0.79545 0.88320
 C2672 C 0.59383 0.76739 0.86564
 C2673 C 0.60504 0.75008 0.89157
 C2674 C 0.60879 0.77785 0.90924
 H2675 H 0.65168 0.73454 0.87911
 H2676 H 0.63178 0.76705 0.83155
 H2677 H 0.65900 0.78615 0.91098
 H2678 H 0.58212 0.81344 0.88434
 H2679 H 0.57488 0.76244 0.85206
 H2680 H 0.60196 0.78084 0.93197
 C2681 C 0.86225 1.25070 1.12010
 C2682 C 0.87333 1.26787 1.14642
 C2683 C 0.87042 1.29577 1.12898
 C2684 C 0.85916 1.27894 1.10278
 C2685 C 0.90144 1.29293 1.11811
 C2686 C 0.90453 1.26470 1.13545
 C2687 C 0.89333 1.24775 1.10921
 C2688 C 0.89038 1.27570 1.09175
 H2689 H 0.84622 1.23306 1.12088
 H2690 H 0.86613 1.26488 1.16903
 H2691 H 0.84038 1.28502 1.08942
 H2692 H 0.91742 1.31061 1.11736
 H2693 H 0.92315 1.25940 1.14932
 H2694 H 0.89757 1.27870 1.06914
 C2695 C 0.86155 0.75255 0.61872
 C2696 C 0.87344 0.76973 0.64468
 C2697 C 0.87021 0.79761 0.62727
 C2698 C 0.85813 0.78078 0.60143
 C2699 C 0.90089 0.79456 0.61553
 C2700 C 0.90430 0.76637 0.63286
 C2701 C 0.89229 0.74939 0.60697
 C2702 C 0.88902 0.77732 0.58953
 H2703 H 0.84543 0.73501 0.62000
 H2704 H 0.86687 0.76683 0.66749
 H2705 H 0.83903 0.78692 0.58858
 H2706 H 0.91696 0.81214 0.61429
 H2707 H 0.92326 0.76107 0.64626
 H2708 H 0.89558 0.78022 0.56672
 C2709 C 0.40851 1.27683 0.61037
 C2710 C 0.38234 1.29393 0.59891
 C2711 C 0.37101 1.29663 0.62989
 C2712 C 0.39703 1.27996 0.64157
 C2713 C 0.35382 1.26863 0.62665
 C2714 C 0.36526 1.26556 0.59547
 C2715 C 0.39132 1.24875 0.60707
 C2716 C 0.37996 1.25160 0.63811
 H2717 H 0.43112 1.27999 0.60353
 H2718 H 0.38326 1.31160 0.58288
 H2719 H 0.41007 1.28602 0.66064
 H2720 H 0.33120 1.26544 0.63349
 H2721 H 0.35176 1.26020 0.57654
 H2722 H 0.37902 1.23396 0.65416
 C2723 C 0.36367 0.76597 1.09444
 C2724 C 0.35270 0.76959 1.12573
 C2725 C 0.37024 0.79743 1.12834
 C2726 C 0.38109 0.79420 1.09724
 C2727 C 0.39623 0.78067 1.13989
 C2728 C 0.37882 0.75246 1.13707
 C2729 C 0.38970 0.74907 1.10592
 C2730 C 0.40723 0.77700 1.10858
 H2731 H 0.34988 0.76044 1.07577
 H2732 H 0.33015 0.76674 1.13294
 H2733 H 0.38196 0.81165 1.08097
 H2734 H 0.40960 0.78686 1.15869
 H2735 H 0.37793 0.73503 1.15337
 H2736 H 0.42978 0.77982 1.10138
 C2737 C 0.89042 0.72370 0.90954
 C2738 C 0.85940 0.72045 0.89801
 C2739 C 0.87111 0.70344 0.87210
 C2740 C 0.90192 0.70629 0.88347
 C2741 C 0.87442 0.73123 0.85455
 C2742 C 0.86289 0.74858 0.88058
 C2743 C 0.89377 0.75154 0.89196
 C2744 C 0.90541 0.73440 0.86601
 H2745 H 0.89717 0.72084 0.93229
 H2746 H 0.84036 0.71450 0.91110
 H2747 H 0.91785 0.68859 0.88460
 H2748 H 0.86766 0.73410 0.83181
 H2749 H 0.84692 0.76624 0.87941
 H2750 H 0.92431 0.73957 0.85241
 C2751 C 0.88050 0.24832 0.36343
 C2752 C 0.89754 0.21996 0.35991
 C2753 C 0.87146 0.20334 0.37158
 C2754 C 0.85430 0.23132 0.37487
 C2755 C 0.88272 0.20593 0.40255
 C2756 C 0.90895 0.22300 0.39111
 C2757 C 0.89179 0.25107 0.39447
 C2758 C 0.86567 0.23430 0.40604
 H2759 H 0.87965 0.26602 0.34743
 H2760 H 0.91060 0.21391 0.34083
 H2761 H 0.83171 0.23454 0.36802
 H2762 H 0.88355 0.18821 0.41852
 H2763 H 0.93154 0.21982 0.39796
 H2764 H 0.85213 0.23963 0.42498
 C2765 C 0.40913 0.72143 0.39059
 C2766 C 0.38292 0.70446 0.40219
 C2767 C 0.37171 0.70139 0.37123
 C2768 C 0.39776 0.71796 0.35943
 C2769 C 0.35453 0.72942 0.37415
 C2770 C 0.36582 0.73281 0.40529
 C2771 C 0.39192 0.74952 0.39355
 C2772 C 0.38069 0.74633 0.36253
 H2773 H 0.43172 0.71837 0.39749
 H2774 H 0.38376 0.68694 0.41838
 H2775 H 0.41083 0.71163 0.34044
 H2776 H 0.33194 0.73248 0.36724
 H2777 H 0.35220 0.73830 0.42412
 H2778 H 0.37982 0.76380 0.34629
 C2779 C 0.38163 0.24815 0.86238
 C2780 C 0.39851 0.21971 0.85876
 C2781 C 0.37239 0.20318 0.87050
 C2782 C 0.35539 0.23125 0.87389
 C2783 C 0.38380 0.20568 0.90143
 C2784 C 0.41006 0.22265 0.88991
 C2785 C 0.39307 0.25081 0.89337
 C2786 C 0.36691 0.23413 0.90503
 H2787 H 0.38080 0.26587 0.84640
 H2788 H 0.41147 0.21363 0.83961
 H2789 H 0.33279 0.23460 0.86716
 H2790 H 0.38461 0.18794 0.91738
 H2791 H 0.43267 0.21934 0.89664
 H2792 H 0.35345 0.23946 0.92403
 C2793 C 1.10995 0.72313 1.09233
 C2794 C 1.14102 0.71998 1.10377
 C2795 C 1.12935 0.70325 1.12987
 C2796 C 1.09851 0.70598 1.11857
 C2797 C 1.12616 0.73121 1.14724
 C2798 C 1.13761 0.74830 1.12102
 C2799 C 1.10670 0.75117 1.10969
 C2800 C 1.09512 0.73429 1.13583
 H2801 H 1.10314 0.72002 1.06963
 H2802 H 1.16000 0.71395 1.09061
 H2803 H 1.08252 0.68830 1.11763
 H2804 H 1.13298 0.73435 1.16994
 H2805 H 1.15361 0.76596 1.12198
 H2806 H 1.07627 0.73962 1.14945
 C2807 C 1.11151 0.22456 0.59172
 C2808 C 1.14266 0.22142 0.60292
 C2809 C 1.13118 0.20487 0.62921
 C2810 C 1.10025 0.20758 0.61816
 C2811 C 1.12819 0.23292 0.64645
 C2812 C 1.13945 0.24984 0.62003
 C2813 C 1.10846 0.25269 0.60895
 C2814 C 1.09706 0.23600 0.63528
 H2815 H 1.10450 0.22134 0.56910
 H2816 H 1.16152 0.21528 0.58964
 H2817 H 1.08423 0.18992 0.61745
 H2818 H 1.13520 0.23617 0.66908
 H2819 H 1.15549 0.26747 0.62075
 H2820 H 1.07834 0.24142 0.64904
 C2821 C 0.61818 0.74726 0.63721
 C2822 C 0.60098 0.71896 0.64028
 C2823 C 0.62696 0.70231 0.62843
 C2824 C 0.64427 0.73026 0.62555
 C2825 C 0.61576 0.70536 0.59748
 C2826 C 0.58963 0.72243 0.60912
 C2827 C 0.60698 0.75043 0.60620
 C2828 C 0.63299 0.73364 0.59442
 H2829 H 0.61913 0.76477 0.65347
 H2830 H 0.58791 0.71269 0.65926
 H2831 H 0.66687 0.73323 0.63248
 H2832 H 0.61485 0.68781 0.58128
 H2833 H 0.56703 0.71947 0.60220
 H2834 H 0.64662 0.73908 0.57558
 C2835 C 0.62115 0.24971 1.13910
 C2836 C 0.60387 0.22144 1.14228
 C2837 C 0.62990 0.20467 1.13070
 C2838 C 0.64730 0.23256 1.12774
 C2839 C 0.61891 0.20751 1.09965
 C2840 C 0.59273 0.22472 1.11102
 C2841 C 0.61012 0.25270 1.10799
 C2842 C 0.63619 0.23577 1.09649
 H2843 H 0.62203 0.26732 1.15524
 H2844 H 0.59062 0.21541 1.16122
 H2845 H 0.66986 0.23559 1.13478
 H2846 H 0.61804 0.18988 1.08353
 H2847 H 0.57017 0.22171 1.10398
 H2848 H 0.64990 0.24113 1.07769
 C2849 C 1.25309 1.12051 0.86237
 C2850 C 1.26998 1.14667 0.87411
 C2851 C 1.29800 1.12957 0.87086
 C2852 C 1.28145 1.10352 0.85892
 C2853 C 1.29516 1.11804 0.90173
 C2854 C 1.26682 1.13506 0.90517
 C2855 C 1.25014 1.10896 0.89330
 C2856 C 1.27821 1.09184 0.89000
 H2857 H 1.23555 1.12147 0.84624
 H2858 H 1.26681 1.16935 0.86743
 H2859 H 1.28766 1.09061 0.83978
 H2860 H 1.31275 1.11711 0.91781
 H2861 H 1.26141 1.14850 0.92417
 H2862 H 1.28140 1.06916 0.89667
 C2863 C 1.25157 0.61829 0.36120
 C2864 C 1.26854 0.64431 0.37312
 C2865 C 1.29638 0.62685 0.37053
 C2866 C 1.27976 0.60093 0.35842
 C2867 C 1.29284 0.61556 0.40140
 C2868 C 1.26467 0.63295 0.40418
 C2869 C 1.24791 0.60699 0.39214
 C2870 C 1.27580 0.58949 0.38950
 H2871 H 1.23434 0.61936 0.34475
 H2872 H 1.26580 0.66699 0.36623
 H2873 H 1.28621 0.58783 0.33948
 H2874 H 1.31012 0.61453 0.41780
 H2875 H 1.25911 0.64661 0.42298
 H2876 H 1.27855 0.56681 0.39638
 C2877 C 0.77719 1.10980 0.40910
 C2878 C 0.79439 1.09857 0.38278
 C2879 C 0.79721 1.12958 0.37178
 C2880 C 0.78041 1.14100 0.39794
 C2881 C 0.76936 1.12651 0.35436
 C2882 C 0.76621 1.09533 0.36546
 C2883 C 0.74928 1.10669 0.39166
 C2884 C 0.75221 1.13776 0.38064
 H2885 H 0.78020 1.10276 0.43174
 H2886 H 0.81204 1.08258 0.38360
 H2887 H 0.78645 1.15991 0.41124
 H2888 H 0.76635 1.13356 0.33172
 H2889 H 0.76091 1.07656 0.35168
 H2890 H 0.73460 1.15380 0.37979
 C2891 C 0.75110 0.61988 0.86248
 C2892 C 0.76801 0.64604 0.87418
 C2893 C 0.79592 0.62869 0.87149
 C2894 C 0.77937 0.60264 0.85960
 C2895 C 0.79261 0.61753 0.90244
 C2896 C 0.76437 0.63480 0.90531
 C2897 C 0.74768 0.60871 0.89349
 C2898 C 0.77565 0.59133 0.89076
 H2899 H 0.73376 0.62079 0.84612
 H2900 H 0.76512 0.66867 0.86720
 H2901 H 0.78577 0.58950 0.84067
 H2902 H 0.81000 0.61665 0.91874
 H2903 H 0.75883 0.64849 0.92410
 H2904 H 0.77854 0.56870 0.89773
 C2905 C 1.26538 0.86606 1.09401
 C2906 C 1.29375 0.88308 1.09703
 C2907 C 1.29682 0.87171 1.12792
 C2908 C 1.26878 0.85461 1.12508
 C2909 C 1.28044 0.89783 1.13993
 C2910 C 1.27696 0.90935 1.10883
 C2911 C 1.24886 0.89222 1.10596
 C2912 C 1.25205 0.88084 1.13690
 H2913 H 1.25981 0.85251 1.07514
 H2914 H 1.31122 0.88390 1.08077
 H2915 H 1.26566 0.83196 1.13192
 H2916 H 1.28687 0.91081 1.15894
 H2917 H 1.28008 0.93200 1.10200
 H2918 H 1.23464 0.87998 1.15322
 C2919 C 1.25238 0.38030 0.63737
 C2920 C 1.26911 0.35394 0.62583
 C2921 C 1.29725 0.37080 0.62919
 C2922 C 1.28086 0.39705 0.64092
 C2923 C 1.29480 0.38223 0.59826
 C2924 C 1.26633 0.36545 0.59471
 C2925 C 1.24981 0.39175 0.60637
 C2926 C 1.27801 0.40863 0.60978
 H2927 H 1.23468 0.37957 0.65338
 H2928 H 1.26567 0.33132 0.63258
 H2929 H 1.28705 0.40997 0.66006
 H2930 H 1.31254 0.38293 0.58229
 H2931 H 1.26099 0.35197 0.57572
 H2932 H 1.28146 0.43126 0.60303
 C2933 C 0.76427 0.86725 0.59491
 C2934 C 0.79258 0.88439 0.59783
 C2935 C 0.79579 0.87305 0.62871
 C2936 C 0.76781 0.85584 0.62598
 C2937 C 0.77936 0.89911 0.64077
 C2938 C 0.77572 0.91060 0.60967
 C2939 C 0.74768 0.89335 0.60688
 C2940 C 0.75101 0.88201 0.63783
 H2941 H 0.75873 0.85363 0.57608
 H2942 H 0.80998 0.88528 0.58151
 H2943 H 0.76479 0.83319 0.63284
 H2944 H 0.78582 0.91211 0.65976
 H2945 H 0.77874 0.93325 0.60281
 H2946 H 0.73365 0.88109 0.65421
 C2947 C 0.77675 0.39147 1.09097
 C2948 C 0.79377 0.40253 1.11744
 C2949 C 0.79600 0.37151 1.12851
 C2950 C 0.77937 0.36025 1.10221
 C2951 C 0.76800 0.37498 1.14567
 C2952 C 0.76543 0.40619 1.13449
 C2953 C 0.74869 0.39499 1.10814
 C2954 C 0.75103 0.36391 1.11924
 H2955 H 0.78012 0.39844 1.06835
 H2956 H 0.81167 0.41826 1.11677
 H2957 H 0.78532 0.34123 1.08903
 H2958 H 0.76463 0.36801 1.16828
 H2959 H 0.76020 0.42506 1.14815
 H2960 H 0.73318 0.34812 1.11995
 C2961 C 0.72291 1.09255 1.11035
 C2962 C 0.71973 1.10409 1.14152
 C2963 C 0.70341 1.13033 1.12976
 C2964 C 0.70620 1.11894 1.09881
 C2965 C 0.73156 1.14723 1.12669
 C2966 C 0.74822 1.12089 1.13825
 C2967 C 0.75112 1.10948 1.10723
 C2968 C 0.73468 1.13576 1.09554
 H2969 H 0.71957 1.06993 1.10349
 H2970 H 0.71337 1.09114 1.16055
 H2971 H 0.68863 1.11822 1.08270
 H2972 H 0.73490 1.16985 1.13356
 H2973 H 0.76575 1.12163 1.15441
 H2974 H 0.74023 1.14927 1.07666
 C2975 C 0.74706 0.63701 0.61930
 C2976 C 0.71880 0.63987 0.60206
 C2977 C 0.70224 0.62794 0.62812
 C2978 C 0.73014 0.62527 0.64548
 C2979 C 0.70555 0.59709 0.61679
 C2980 C 0.72253 0.60881 0.59057
 C2981 C 0.75049 0.60610 0.60796
 C2982 C 0.73379 0.59423 0.63407
 H2983 H 0.76439 0.65335 0.62028
 H2984 H 0.71241 0.65876 0.58897
 H2985 H 0.73304 0.63220 0.66819
 H2986 H 0.68817 0.58079 0.61585
 H2987 H 0.71963 0.60189 0.56786
 H2988 H 0.73934 0.57548 0.64770
 C2989 C 0.22460 1.11076 0.59042
 C2990 C 0.20745 1.09973 0.61682
 C2991 C 0.20511 1.13076 0.62792
 C2992 C 0.22185 1.14201 0.60168
 C2993 C 0.23301 1.12738 0.64516
 C2994 C 0.23568 1.09617 0.63397
 C2995 C 0.25256 1.10734 0.60770
 C2996 C 0.25011 1.13844 0.61881
 H2997 H 0.22139 1.10374 0.56779
 H2998 H 0.18958 1.08397 0.61609
 H2999 H 0.21592 1.16099 0.58851
 H3000 H 0.23623 1.13441 0.66780
 H3001 H 0.24082 1.07734 0.64767
 H3002 H 0.26793 1.15425 0.61958
 C3003 C 0.22299 0.60896 1.09157
 C3004 C 0.20579 0.59796 1.11794
 C3005 C 0.20334 0.62903 1.12894
 C3006 C 0.22014 0.64023 1.10272
 C3007 C 0.23120 0.62574 1.14628
 C3008 C 0.23399 0.59449 1.13518
 C3009 C 0.25091 0.60563 1.10893
 C3010 C 0.24835 0.63676 1.11994
 H3011 H 0.21984 0.60186 1.06894
 H3012 H 0.18796 0.58216 1.11719
 H3013 H 0.21423 0.65916 1.08946
 H3014 H 0.23434 0.63285 1.16890
 H3015 H 0.23919 0.57570 1.14889
 H3016 H 0.26614 0.65262 1.12073
 C3017 C 0.74981 0.86341 0.88002
 C3018 C 0.72173 0.86041 0.89761
 C3019 C 0.70483 0.87193 0.87163
 C3020 C 0.73256 0.87475 0.85393
 C3021 C 0.70796 0.90293 0.88264
 C3022 C 0.72526 0.89161 0.90876
 C3023 C 0.75305 0.89447 0.89103
 C3024 C 0.73602 0.90593 0.86502
 H3025 H 0.76730 0.84725 0.87897
 H3026 H 0.71562 0.84156 0.91093
 H3027 H 0.73533 0.86763 0.83126
 H3028 H 0.69043 0.91905 0.88365
 H3029 H 0.72248 0.89872 0.93144
 H3030 H 0.74137 0.92464 0.85122
 C3031 C 0.73378 0.36268 0.40527
 C3032 C 0.70547 0.37972 0.40174
 C3033 C 0.70305 0.36856 0.37067
 C3034 C 0.73102 0.35141 0.37401
 C3035 C 0.71975 0.39473 0.35929
 C3036 C 0.72255 0.40605 0.39056
 C3037 C 0.75057 0.38890 0.39394
 C3038 C 0.74804 0.37770 0.36281
 H3039 H 0.73907 0.34910 0.42416
 H3040 H 0.68765 0.38047 0.41762
 H3041 H 0.73428 0.32881 0.36703
 H3042 H 0.71379 0.40785 0.34026
 H3043 H 0.71927 0.42865 0.39752
 H3044 H 0.76581 0.37691 0.34687
 C3045 C 0.23432 0.86464 0.40438
 C3046 C 0.20611 0.88189 0.40121
 C3047 C 0.20319 0.87070 0.37019
 C3048 C 0.23108 0.85336 0.37318
 C3049 C 0.21993 0.89674 0.35855
 C3050 C 0.22323 0.90808 0.38978
 C3051 C 0.25118 0.89072 0.39281
 C3052 C 0.24816 0.87951 0.36173
 H3053 H 0.23965 0.85098 0.42320
 H3054 H 0.18851 0.88280 0.41733
 H3055 H 0.23410 0.83073 0.36619
 H3056 H 0.21380 0.90987 0.33958
 H3057 H 0.22022 0.93071 0.39676
 H3058 H 0.26571 0.87858 0.34556
 C3059 C 0.23519 0.36411 0.90570
 C3060 C 0.20705 0.38147 0.90240
 C3061 C 0.20411 0.37010 0.87146
 C3062 C 0.23191 0.35264 0.87457
 C3063 C 0.22096 0.39597 0.85965
 C3064 C 0.22429 0.40750 0.89079
 C3065 C 0.25215 0.39003 0.89395
 C3066 C 0.24910 0.37863 0.86295
 H3067 H 0.24052 0.35059 0.92462
 H3068 H 0.18944 0.38256 0.91850
 H3069 H 0.23480 0.32995 0.86773
 H3070 H 0.21490 0.40901 0.84059
 H3071 H 0.22139 0.43019 0.89763
 H3072 H 0.26665 0.37750 0.84680
   
