data_POSCAR
  _audit_creation_date              2014-09-24
  _audit_creation_method            'ToBaCCo'
  _symmetry_space_group_name_H-M    'P1'
  _symmetry_Int_Tables_number       1
  _symmetry_cell_setting            triclinic
  loop_
  _symmetry_equiv_pos_as_xyz
 x,y,z
_cell_length_a 76.0828
_cell_length_b 76.1553
_cell_length_c 76.2916
_cell_angle_alpha 89.974600
_cell_angle_beta 89.977000
_cell_angle_gamma 89.929800
loop_
  _atom_site_label
  _atom_site_type_symbol
  _atom_site_fract_x
  _atom_site_fract_y
  _atom_site_fract_z
N1 N 0.36457 0.31582 0.32836
 N2 N 0.36418 0.32789 0.31602
 C3 C 0.37787 0.32536 0.30509
 C4 C 0.38719 0.31100 0.31097
 C5 C 0.37849 0.30521 0.32570
 H6 H 0.38091 0.33336 0.29377
 H7 H 0.38204 0.29416 0.33388
 Cu8 Cu 0.34593 0.34581 0.31556
 Cu9 Cu 0.34713 0.31481 0.34700
 Cu10 Cu 0.31488 0.34700 0.34697
 N11 N 0.32798 0.36403 0.31599
 N12 N 0.31589 0.36442 0.32832
 C13 C 0.30525 0.37831 0.32563
 C14 C 0.31104 0.38700 0.31089
 C15 C 0.32544 0.37770 0.30504
 H16 H 0.29418 0.38186 0.33380
 H17 H 0.33345 0.38072 0.29372
 N18 N 0.31605 0.32825 0.36473
 N19 N 0.32834 0.31598 0.36474
 C20 C 0.32567 0.30517 0.37848
 C21 C 0.31106 0.31099 0.38742
 C22 C 0.30523 0.32557 0.37847
 H23 H 0.33372 0.29395 0.38179
 H24 H 0.29399 0.33361 0.38177
 H25 H 0.32707 0.32696 0.33332
 H26 H 0.34149 0.34138 0.34691
 N27 N 0.36495 0.81598 -0.17213
 N28 N 0.36455 0.82807 -0.18445
 C29 C 0.37821 0.82553 -0.19545
 C30 C 0.38752 0.81115 -0.18956
 C31 C 0.37885 0.80535 -0.17481
 H32 H 0.38125 0.83359 -0.20671
 H33 H 0.38244 0.79432 -0.16660
 Cu34 Cu 0.34642 0.84615 -0.18447
 Cu35 Cu 0.34755 0.81500 -0.15338
 Cu36 Cu 0.31521 0.84722 -0.15340
 N37 N 0.32828 0.86421 -0.18449
 N38 N 0.31616 0.86460 -0.17219
 C39 C 0.30548 0.87845 -0.17491
 C40 C 0.31128 0.88710 -0.18969
 C41 C 0.32571 0.87782 -0.19552
 H42 H 0.29442 0.88202 -0.16673
 H43 H 0.33379 0.88086 -0.20678
 N44 N 0.31648 0.82848 -0.13556
 N45 N 0.32879 0.81622 -0.13555
 C46 C 0.32614 0.80542 -0.12180
 C47 C 0.31154 0.81121 -0.11284
 C48 C 0.30568 0.82579 -0.12180
 H49 H 0.33420 0.79420 -0.11850
 H50 H 0.29441 0.83380 -0.11851
 H51 H 0.32750 0.82724 -0.16694
 H52 H 0.34177 0.84154 -0.15317
 N53 N 0.86428 0.31644 -0.17174
 N54 N 0.86413 0.32875 -0.18384
 C55 C 0.87779 0.32619 -0.19481
 C56 C 0.88685 0.31155 -0.18918
 C57 C 0.87802 0.30564 -0.17457
 H58 H 0.88101 0.33436 -0.20595
 H59 H 0.88139 0.29441 -0.16656
 Cu60 Cu 0.84626 0.34707 -0.18382
 Cu61 Cu 0.84682 0.31542 -0.15310
 Cu62 Cu 0.81460 0.34769 -0.15309
 N63 N 0.82798 0.36496 -0.18384
 N64 N 0.81565 0.36515 -0.17173
 C65 C 0.80487 0.37890 -0.17455
 C66 C 0.81084 0.38770 -0.18917
 C67 C 0.82546 0.37862 -0.19481
 H68 H 0.79365 0.38231 -0.16653
 H69 H 0.83366 0.38180 -0.20595
 N70 N 0.81574 0.32889 -0.13534
 N71 N 0.82802 0.31661 -0.13535
 C72 C 0.82534 0.30580 -0.12162
 C73 C 0.81075 0.31162 -0.11266
 C74 C 0.80493 0.32622 -0.12160
 H75 H 0.83339 0.29456 -0.11831
 H76 H 0.79371 0.33428 -0.11828
 H77 H 0.82705 0.32791 -0.16687
 H78 H 0.84117 0.34198 -0.15265
 N79 N 0.86443 0.81637 0.32836
 N80 N 0.86426 0.82870 0.31626
 C81 C 0.87792 0.82617 0.30529
 C82 C 0.88704 0.81158 0.31093
 C83 C 0.87820 0.80562 0.32553
 H84 H 0.88107 0.83433 0.29411
 H85 H 0.88156 0.79434 0.33347
 Cu86 Cu 0.84612 0.84673 0.31613
 Cu87 Cu 0.84691 0.81529 0.34695
 Cu88 Cu 0.81462 0.84753 0.34693
 N89 N 0.82806 0.86484 0.31622
 N90 N 0.81571 0.86502 0.32831
 C91 C 0.80493 0.87877 0.32546
 C92 C 0.81092 0.88756 0.31084
 C93 C 0.82554 0.87847 0.30522
 H94 H 0.79363 0.88211 0.33340
 H95 H 0.83373 0.88161 0.29405
 N96 N 0.81577 0.82870 0.36465
 N97 N 0.82806 0.81643 0.36465
 C98 C 0.82538 0.80561 0.37838
 C99 C 0.81077 0.81142 0.38733
 C100 C 0.80494 0.82601 0.37838
 H101 H 0.83345 0.79440 0.38170
 H102 H 0.79371 0.83406 0.38169
 H103 H 0.82699 0.82761 0.33322
 H104 H 0.84116 0.84178 0.34724
 N105 N 0.63546 0.68414 0.32852
 N106 N 0.63586 0.67207 0.31619
 C107 C 0.62217 0.67459 0.30526
 C108 C 0.61284 0.68895 0.31113
 C109 C 0.62154 0.69475 0.32586
 H110 H 0.61914 0.66659 0.29395
 H111 H 0.61797 0.70579 0.33403
 Cu112 Cu 0.65411 0.65417 0.31573
 Cu113 Cu 0.65289 0.68515 0.34714
 Cu114 Cu 0.68515 0.65297 0.34713
 N115 N 0.67205 0.63595 0.31617
 N116 N 0.68414 0.63556 0.32849
 C117 C 0.69478 0.62167 0.32580
 C118 C 0.68898 0.61300 0.31107
 C119 C 0.67459 0.62230 0.30522
 H120 H 0.70585 0.61812 0.33396
 H121 H 0.66658 0.61927 0.29391
 N122 N 0.68397 0.67172 0.36487
 N123 N 0.67167 0.68399 0.36488
 C124 C 0.67434 0.69479 0.37861
 C125 C 0.68894 0.68898 0.38755
 C126 C 0.69478 0.67440 0.37860
 H127 H 0.66627 0.70601 0.38191
 H128 H 0.70602 0.66636 0.38191
 H129 H 0.67296 0.67301 0.33346
 H130 H 0.65854 0.65858 0.34707
 N131 N 0.63560 0.18379 -0.17179
 N132 N 0.63601 0.17170 -0.18410
 C133 C 0.62236 0.17423 -0.19507
 C134 C 0.61303 0.18861 -0.18923
 C135 C 0.62170 0.19441 -0.17449
 H136 H 0.61931 0.16618 -0.20634
 H137 H 0.61810 0.20544 -0.16630
 Cu138 Cu 0.65413 0.15364 -0.18411
 Cu139 Cu 0.65299 0.18479 -0.15305
 Cu140 Cu 0.68534 0.15257 -0.15306
 N141 N 0.67225 0.13558 -0.18413
 N142 N 0.68438 0.13519 -0.17182
 C143 C 0.69505 0.12133 -0.17456
 C144 C 0.68924 0.11269 -0.18933
 C145 C 0.67480 0.12197 -0.19514
 H146 H 0.70611 0.11776 -0.16639
 H147 H 0.66673 0.11894 -0.20640
 N148 N 0.68406 0.17131 -0.13524
 N149 N 0.67174 0.18357 -0.13525
 C150 C 0.67438 0.19438 -0.12152
 C151 C 0.68899 0.18860 -0.11256
 C152 C 0.69485 0.17402 -0.12150
 H153 H 0.66632 0.20560 -0.11823
 H154 H 0.70612 0.16601 -0.11820
 H155 H 0.67305 0.17256 -0.16661
 H156 H 0.65877 0.15825 -0.15282
 N157 N 0.13549 0.68407 -0.17158
 N158 N 0.13564 0.67176 -0.18367
 C159 C 0.12198 0.67431 -0.19462
 C160 C 0.11292 0.68894 -0.18900
 C161 C 0.12174 0.69486 -0.17440
 H162 H 0.11876 0.66613 -0.20575
 H163 H 0.11835 0.70609 -0.16640
 Cu164 Cu 0.15349 0.65345 -0.18364
 Cu165 Cu 0.15295 0.68510 -0.15295
 Cu166 Cu 0.18516 0.65282 -0.15295
 N167 N 0.17176 0.63557 -0.18367
 N168 N 0.18409 0.63538 -0.17157
 C169 C 0.19485 0.62161 -0.17439
 C170 C 0.18889 0.61281 -0.18899
 C171 C 0.17428 0.62191 -0.19462
 H172 H 0.20607 0.61819 -0.16639
 H173 H 0.16608 0.61871 -0.20574
 N174 N 0.18403 0.67162 -0.13524
 N175 N 0.17176 0.68391 -0.13524
 C176 C 0.17445 0.69472 -0.12152
 C177 C 0.18904 0.68889 -0.11258
 C178 C 0.19485 0.67429 -0.12152
 H179 H 0.16641 0.70595 -0.11820
 H180 H 0.20607 0.66622 -0.11820
 H181 H 0.17270 0.67260 -0.16673
 H182 H 0.15857 0.65853 -0.15249
 N183 N 0.13542 0.18406 0.32841
 N184 N 0.13582 0.17200 0.31607
 C185 C 0.12214 0.17453 0.30514
 C186 C 0.11281 0.18889 0.31102
 C187 C 0.12151 0.19467 0.32575
 H188 H 0.11911 0.16655 0.29382
 H189 H 0.11794 0.20571 0.33393
 Cu190 Cu 0.15407 0.15409 0.31560
 Cu191 Cu 0.15285 0.18506 0.34704
 Cu192 Cu 0.18509 0.15287 0.34701
 N193 N 0.17201 0.13588 0.31603
 N194 N 0.18410 0.13547 0.32835
 C195 C 0.19474 0.12159 0.32566
 C196 C 0.18894 0.11293 0.31092
 C197 C 0.17455 0.12223 0.30507
 H198 H 0.20580 0.11803 0.33382
 H199 H 0.16655 0.11922 0.29375
 N200 N 0.18391 0.17160 0.36477
 N201 N 0.17161 0.18387 0.36478
 C202 C 0.17428 0.19466 0.37852
 C203 C 0.18887 0.18884 0.38746
 C204 C 0.19471 0.17427 0.37850
 H205 H 0.16621 0.20588 0.38183
 H206 H 0.20596 0.16623 0.38181
 H207 H 0.17290 0.17293 0.33336
 H208 H 0.15848 0.15849 0.34694
 N209 N 0.63545 0.31587 0.67180
 N210 N 0.63584 0.32796 0.68411
 C211 C 0.62219 0.32543 0.69510
 C212 C 0.61288 0.31106 0.68927
 C213 C 0.62157 0.30526 0.67451
 H214 H 0.61914 0.33348 0.70638
 H215 H 0.61798 0.29424 0.66633
 Cu216 Cu 0.65392 0.34601 0.68412
 Cu217 Cu 0.65283 0.31487 0.65304
 Cu218 Cu 0.68512 0.34708 0.65304
 N219 N 0.67202 0.36406 0.68412
 N220 N 0.68413 0.36445 0.67180
 C221 C 0.69477 0.37830 0.67453
 C222 C 0.68896 0.38697 0.68929
 C223 C 0.67455 0.37768 0.69511
 H224 H 0.70582 0.38188 0.66635
 H225 H 0.66649 0.38072 0.70639
 N226 N 0.68388 0.32835 0.63522
 N227 N 0.67159 0.31610 0.63522
 C228 C 0.67426 0.30530 0.62148
 C229 C 0.68885 0.31110 0.61252
 C230 C 0.69468 0.32566 0.62147
 H231 H 0.66622 0.29408 0.61818
 H232 H 0.70593 0.33367 0.61816
 H233 H 0.67286 0.32706 0.66659
 H234 H 0.65855 0.34139 0.65282
 N235 N 0.63541 0.81611 1.17178
 N236 N 0.63562 0.82837 1.18393
 C237 C 0.62198 0.82585 1.19491
 C238 C 0.61285 0.81130 1.18924
 C239 C 0.62163 0.80539 1.17460
 H240 H 0.61882 0.83398 1.20609
 H241 H 0.61821 0.79420 1.16657
 Cu242 Cu 0.65355 0.84655 1.18391
 Cu243 Cu 0.65288 0.81501 1.15314
 Cu244 Cu 0.68514 0.84718 1.15315
 N245 N 0.67180 0.86442 1.18394
 N246 N 0.68408 0.86461 1.17179
 C247 C 0.69484 0.87835 1.17460
 C248 C 0.68893 0.88713 1.18924
 C249 C 0.67435 0.87804 1.19491
 H250 H 0.70606 0.88175 1.16657
 H251 H 0.66620 0.88121 1.20609
 N252 N 0.68399 0.82840 1.13542
 N253 N 0.67170 0.81615 1.13541
 C254 C 0.67440 0.80535 1.12168
 C255 C 0.68901 0.81114 1.11275
 C256 C 0.69482 0.82571 1.12170
 H257 H 0.66634 0.79414 1.11836
 H258 H 0.70605 0.83374 1.11839
 H259 H 0.67269 0.82737 1.16688
 H260 H 0.65855 0.84153 1.15273
 N261 N 0.13536 0.31618 1.17168
 N262 N 0.13556 0.32848 1.18379
 C263 C 0.12188 0.32601 1.19474
 C264 C 0.11275 0.31145 1.18912
 C265 C 0.12156 0.30549 1.17450
 H266 H 0.11871 0.33419 1.20589
 H267 H 0.11809 0.29434 1.16645
 Cu268 Cu 0.15355 0.34660 1.18376
 Cu269 Cu 0.15285 0.31506 1.15306
 Cu270 Cu 0.18510 0.34727 1.15304
 N271 N 0.17169 0.36457 1.18376
 N272 N 0.18400 0.36476 1.17163
 C273 C 0.19471 0.37855 1.17442
 C274 C 0.18875 0.38735 1.18903
 C275 C 0.17417 0.37824 1.19469
 H276 H 0.20587 0.38201 1.16634
 H277 H 0.16599 0.38142 1.20584
 N278 N 0.18398 0.32844 1.13536
 N279 N 0.17171 0.31617 1.13537
 C280 C 0.17441 0.30536 1.12165
 C281 C 0.18901 0.31116 1.11271
 C282 C 0.19481 0.32574 1.12164
 H283 H 0.16635 0.29416 1.11834
 H284 H 0.20602 0.33379 1.11830
 H285 H 0.17265 0.32746 1.16675
 H286 H 0.15848 0.34161 1.15260
 N287 N 0.13545 0.81616 0.67157
 N288 N 0.13584 0.82822 0.68390
 C289 C 0.12215 0.82572 0.69484
 C290 C 0.11283 0.81138 0.68897
 C291 C 0.12154 0.80557 0.67424
 H292 H 0.11912 0.83372 0.70616
 H293 H 0.11798 0.79453 0.66606
 Cu294 Cu 0.15407 0.84611 0.68437
 Cu295 Cu 0.15289 0.81513 0.65293
 Cu296 Cu 0.18510 0.84727 0.65293
 N297 N 0.17199 0.86430 0.68390
 N298 N 0.18407 0.86469 0.67156
 C299 C 0.19467 0.87858 0.67420
 C300 C 0.18886 0.88728 0.68893
 C301 C 0.17449 0.87799 0.69482
 H302 H 0.20573 0.88212 0.66602
 H303 H 0.16649 0.88103 0.70613
 N304 N 0.18395 0.82854 0.63519
 N305 N 0.17167 0.81628 0.63518
 C306 C 0.17436 0.80549 0.62144
 C307 C 0.18896 0.81130 0.61250
 C308 C 0.19477 0.82586 0.62146
 H309 H 0.16632 0.79428 0.61813
 H310 H 0.20600 0.83390 0.61815
 H311 H 0.17293 0.82723 0.66660
 H312 H 0.15848 0.84168 0.65302
 N313 N 0.36451 0.68413 0.67182
 N314 N 0.36411 0.67202 0.68414
 C315 C 0.37775 0.67455 0.69513
 C316 C 0.38705 0.68894 0.68932
 C317 C 0.37838 0.69475 0.67456
 H318 H 0.38080 0.66649 0.70641
 H319 H 0.38195 0.70580 0.66639
 Cu320 Cu 0.34606 0.65393 0.68411
 Cu321 Cu 0.34714 0.68513 0.65306
 Cu322 Cu 0.31491 0.65288 0.65301
 N323 N 0.32798 0.63588 0.68409
 N324 N 0.31589 0.63549 0.67176
 C325 C 0.30527 0.62161 0.67447
 C326 C 0.31107 0.61293 0.68922
 C327 C 0.32546 0.62223 0.69506
 H328 H 0.29424 0.61804 0.66628
 H329 H 0.33351 0.61917 0.70634
 N330 N 0.31614 0.67163 0.63521
 N331 N 0.32841 0.68390 0.63522
 C332 C 0.32573 0.69471 0.62148
 C333 C 0.31116 0.68890 0.61251
 C334 C 0.30535 0.67432 0.62146
 H335 H 0.33376 0.70595 0.61819
 H336 H 0.29411 0.66629 0.61815
 H337 H 0.32710 0.67288 0.66659
 H338 H 0.34146 0.65859 0.65281
 N339 N 0.36465 0.18392 1.17177
 N340 N 0.36426 0.17180 1.18407
 C341 C 0.37790 0.17431 1.19506
 C342 C 0.38720 0.18869 1.18925
 C343 C 0.37853 0.19453 1.17450
 H344 H 0.38095 0.16623 1.20632
 H345 H 0.38212 0.20557 1.16633
 Cu346 Cu 0.34621 0.15375 1.18407
 Cu347 Cu 0.34727 0.18494 1.15302
 Cu348 Cu 0.31501 0.15272 1.15304
 N349 N 0.32812 0.13572 1.18408
 N350 N 0.31601 0.13536 1.17178
 C351 C 0.30538 0.12149 1.17450
 C352 C 0.31120 0.11281 1.18923
 C353 C 0.32560 0.12209 1.19506
 H354 H 0.29434 0.11792 1.16632
 H355 H 0.33367 0.11902 1.20632
 N356 N 0.31623 0.17145 1.13524
 N357 N 0.32851 0.18372 1.13523
 C358 C 0.32581 0.19451 1.12149
 C359 C 0.31122 0.18870 1.11256
 C360 C 0.30541 0.17413 1.12151
 H361 H 0.33383 0.20575 1.11817
 H362 H 0.29417 0.16610 1.11823
 H363 H 0.32726 0.17272 1.16660
 H364 H 0.34158 0.15842 1.15279
 N365 N 0.86464 0.68386 1.17173
 N366 N 0.86451 0.67153 1.18383
 C367 C 0.87821 0.67402 1.19475
 C368 C 0.88729 0.68861 1.18909
 C369 C 0.87844 0.69455 1.17450
 H370 H 0.88142 0.66587 1.20592
 H371 H 0.88187 0.70571 1.16643
 Cu372 Cu 0.84639 0.65353 1.18402
 Cu373 Cu 0.84711 0.68502 1.15314
 Cu374 Cu 0.81491 0.65281 1.15315
 N375 N 0.82839 0.63541 1.18383
 N376 N 0.81606 0.63528 1.17173
 C377 C 0.80537 0.62148 1.17448
 C378 C 0.81131 0.61263 1.18906
 C379 C 0.82589 0.62171 1.19474
 H380 H 0.79421 0.61806 1.16640
 H381 H 0.83405 0.61848 1.20591
 N382 N 0.81596 0.67167 1.13548
 N383 N 0.82823 0.68395 1.13547
 C384 C 0.82554 0.69474 1.12172
 C385 C 0.81096 0.68891 1.11277
 C386 C 0.80516 0.67434 1.12173
 H387 H 0.83362 0.70592 1.11835
 H388 H 0.79398 0.66625 1.11838
 H389 H 0.82727 0.67265 1.16679
 H390 H 0.84147 0.65849 1.15275
 N391 N 0.86450 0.18390 0.67161
 N392 N 0.86433 0.17161 0.68374
 C393 C 0.87797 0.17415 0.69471
 C394 C 0.88704 0.18875 0.68907
 C395 C 0.87824 0.19467 0.67444
 H396 H 0.88117 0.16598 0.70586
 H397 H 0.88163 0.20588 0.66641
 Cu398 Cu 0.84649 0.15332 0.68371
 Cu399 Cu 0.84706 0.18494 0.65296
 Cu400 Cu 0.81487 0.15272 0.65297
 N401 N 0.82822 0.13548 0.68374
 N402 N 0.81593 0.13529 0.67161
 C403 C 0.80518 0.12155 0.67442
 C404 C 0.81111 0.11274 0.68904
 C405 C 0.82569 0.12182 0.69470
 H406 H 0.79398 0.11814 0.66639
 H407 H 0.83386 0.11862 0.70585
 N408 N 0.81601 0.17148 0.63523
 N409 N 0.82827 0.18376 0.63522
 C410 C 0.82557 0.19455 0.62147
 C411 C 0.81100 0.18871 0.61253
 C412 C 0.80520 0.17414 0.62149
 H413 H 0.83361 0.20576 0.61813
 H414 H 0.79400 0.16608 0.61818
 H415 H 0.82730 0.17249 0.66674
 H416 H 0.84146 0.15838 0.65254
 N417 N 0.31587 0.36457 0.67154
 N418 N 0.32796 0.36417 0.68386
 C419 C 0.32545 0.37786 0.69478
 C420 C 0.31108 0.38717 0.68891
 C421 C 0.30526 0.37848 0.67419
 H422 H 0.33347 0.38088 0.70608
 H423 H 0.29420 0.38204 0.66603
 Cu424 Cu 0.34589 0.34594 0.68432
 Cu425 Cu 0.31485 0.34714 0.65292
 Cu426 Cu 0.34707 0.31492 0.65293
 N427 N 0.36412 0.32801 0.68388
 N428 N 0.36451 0.31593 0.67156
 C429 C 0.37842 0.30531 0.67423
 C430 C 0.38713 0.31111 0.68894
 C431 C 0.37781 0.32549 0.69480
 H432 H 0.38197 0.29425 0.66606
 H433 H 0.38085 0.33349 0.70611
 N434 N 0.32829 0.31609 0.63520
 N435 N 0.31601 0.32837 0.63519
 C436 C 0.30519 0.32569 0.62147
 C437 C 0.31102 0.31109 0.61254
 C438 C 0.32561 0.30527 0.62148
 H439 H 0.29396 0.33374 0.61816
 H440 H 0.33366 0.29404 0.61818
 H441 H 0.32701 0.32710 0.66660
 H442 H 0.34145 0.34150 0.65298
 N443 N 0.31622 0.86494 0.17121
 N444 N 0.32851 0.86475 0.18335
 C445 C 0.32602 0.87846 0.19424
 C446 C 0.31147 0.88760 0.18853
 C447 C 0.30551 0.87876 0.17396
 H448 H 0.33415 0.88161 0.20542
 H449 H 0.29429 0.88216 0.16594
 Cu450 Cu 0.34649 0.84658 0.18364
 Cu451 Cu 0.31509 0.84739 0.15269
 Cu452 Cu 0.34732 0.81514 0.15276
 N453 N 0.36464 0.82858 0.18343
 N454 N 0.36484 0.81628 0.17133
 C455 C 0.37864 0.80556 0.17413
 C456 C 0.38745 0.81152 0.18872
 C457 C 0.37833 0.82609 0.19437
 H458 H 0.38204 0.79432 0.16615
 H459 H 0.38147 0.83422 0.20555
 N460 N 0.32847 0.81623 0.13509
 N461 N 0.31619 0.82852 0.13506
 C462 C 0.30537 0.82581 0.12134
 C463 C 0.31119 0.81120 0.11244
 C464 C 0.32579 0.80539 0.12139
 H465 H 0.29416 0.83388 0.11799
 H466 H 0.33386 0.79417 0.11809
 H467 H 0.32739 0.82750 0.16647
 H468 H 0.34164 0.84168 0.15246
 N469 N 0.81598 0.36482 0.17150
 N470 N 0.82808 0.36441 0.18379
 C471 C 0.82559 0.37807 0.19476
 C472 C 0.81121 0.38739 0.18893
 C473 C 0.80536 0.37872 0.17420
 H474 H 0.83365 0.38110 0.20603
 H475 H 0.79432 0.38232 0.16603
 Cu476 Cu 0.84613 0.34632 0.18382
 Cu477 Cu 0.81495 0.34744 0.15277
 Cu478 Cu 0.84722 0.31514 0.15280
 N479 N 0.86419 0.32825 0.18384
 N480 N 0.86460 0.31614 0.17155
 C481 C 0.87847 0.30550 0.17429
 C482 C 0.88714 0.31132 0.18903
 C483 C 0.87784 0.32572 0.19483
 H484 H 0.88206 0.29444 0.16613
 H485 H 0.88088 0.33378 0.20610
 N486 N 0.82846 0.31639 0.13500
 N487 N 0.81618 0.32868 0.13499
 C488 C 0.80538 0.32601 0.12126
 C489 C 0.81120 0.31141 0.11232
 C490 C 0.82578 0.30558 0.12128
 H491 H 0.79413 0.33404 0.11795
 H492 H 0.83381 0.29433 0.11800
 H493 H 0.82717 0.32740 0.16635
 H494 H 0.84151 0.34168 0.15256
 N495 N 0.81605 0.86503 0.67150
 N496 N 0.82815 0.86464 0.68382
 C497 C 0.82565 0.87835 0.69472
 C498 C 0.81128 0.88768 0.68885
 C499 C 0.80546 0.87896 0.67415
 H500 H 0.83367 0.88138 0.70602
 H501 H 0.79439 0.88251 0.66598
 Cu502 Cu 0.84607 0.84638 0.68428
 Cu503 Cu 0.81503 0.84755 0.65290
 Cu504 Cu 0.84723 0.81531 0.65291
 N505 N 0.86430 0.82843 0.68384
 N506 N 0.86468 0.81634 0.67153
 C507 C 0.87858 0.80572 0.67419
 C508 C 0.88730 0.81152 0.68890
 C509 C 0.87800 0.82590 0.69476
 H510 H 0.88213 0.79465 0.66603
 H511 H 0.88104 0.83391 0.70606
 N512 N 0.82845 0.81648 0.63519
 N513 N 0.81617 0.82876 0.63517
 C514 C 0.80535 0.82606 0.62145
 C515 C 0.81117 0.81146 0.61252
 C516 C 0.82576 0.80565 0.62148
 H517 H 0.79411 0.83411 0.61813
 H518 H 0.83382 0.79441 0.61818
 H519 H 0.82723 0.82748 0.66658
 H520 H 0.84165 0.84186 0.65295
 N521 N 0.68403 0.63525 0.67177
 N522 N 0.67172 0.63546 0.68391
 C523 C 0.67424 0.62180 0.69486
 C524 C 0.68883 0.61267 0.68920
 C525 C 0.69478 0.62148 0.67458
 H526 H 0.66607 0.61864 0.70603
 H527 H 0.70599 0.61806 0.66655
 Cu528 Cu 0.65360 0.65350 0.68380
 Cu529 Cu 0.68517 0.65277 0.65314
 Cu530 Cu 0.65287 0.68505 0.65316
 N531 N 0.63556 0.67162 0.68393
 N532 N 0.63535 0.68393 0.67180
 C533 C 0.62158 0.69467 0.67462
 C534 C 0.61276 0.68874 0.68924
 C535 C 0.62189 0.67414 0.69489
 H536 H 0.61816 0.70588 0.66660
 H537 H 0.61873 0.66598 0.70606
 N538 N 0.67173 0.68391 0.63545
 N539 N 0.68402 0.67162 0.63544
 C540 C 0.69484 0.67431 0.62170
 C541 C 0.68902 0.68891 0.61276
 C542 C 0.67442 0.69472 0.62172
 H543 H 0.70605 0.66624 0.61836
 H544 H 0.66634 0.70593 0.61840
 H545 H 0.67280 0.67267 0.66683
 H546 H 0.65862 0.65853 0.65269
 N547 N 0.68420 0.13499 0.17149
 N548 N 0.67210 0.13536 0.18382
 C549 C 0.67459 0.12165 0.19472
 C550 C 0.68897 0.11233 0.18884
 C551 C 0.69480 0.12106 0.17413
 H552 H 0.66657 0.11860 0.20602
 H553 H 0.70587 0.11752 0.16596
 Cu554 Cu 0.65417 0.15360 0.18429
 Cu555 Cu 0.68523 0.15245 0.15288
 Cu556 Cu 0.65301 0.18466 0.15293
 N557 N 0.63593 0.17153 0.18387
 N558 N 0.63556 0.18363 0.17155
 C559 C 0.62164 0.19424 0.17423
 C560 C 0.61293 0.18841 0.18894
 C561 C 0.62224 0.17403 0.19480
 H562 H 0.61809 0.20531 0.16607
 H563 H 0.61919 0.16601 0.20610
 N564 N 0.67180 0.18353 0.13519
 N565 N 0.68408 0.17125 0.13517
 C566 C 0.69491 0.17396 0.12144
 C567 C 0.68909 0.18857 0.11252
 C568 C 0.67448 0.19436 0.12148
 H569 H 0.70615 0.16592 0.11812
 H570 H 0.66643 0.20560 0.11819
 H571 H 0.67306 0.17246 0.16659
 H572 H 0.65864 0.15808 0.15296
 N573 N 0.18391 0.63531 0.17138
 N574 N 0.17158 0.63548 0.18347
 C575 C 0.17407 0.62180 0.19441
 C576 C 0.18868 0.61270 0.18878
 C577 C 0.19466 0.62154 0.17419
 H578 H 0.16587 0.61861 0.20554
 H579 H 0.20589 0.61812 0.16619
 Cu580 Cu 0.15332 0.65338 0.18346
 Cu581 Cu 0.18500 0.65279 0.15276
 Cu582 Cu 0.15278 0.68507 0.15280
 N583 N 0.13546 0.67167 0.18352
 N584 N 0.13530 0.68401 0.17144
 C585 C 0.12156 0.69479 0.17430
 C586 C 0.11273 0.68884 0.18890
 C587 C 0.12180 0.67420 0.19449
 H588 H 0.11816 0.70603 0.16631
 H589 H 0.11860 0.66600 0.20562
 N590 N 0.17159 0.68390 0.13506
 N591 N 0.18386 0.67161 0.13504
 C592 C 0.19470 0.67431 0.12133
 C593 C 0.18890 0.68893 0.11240
 C594 C 0.17430 0.69474 0.12135
 H595 H 0.20593 0.66626 0.11802
 H596 H 0.16626 0.70599 0.11806
 H597 H 0.17254 0.67255 0.16654
 H598 H 0.15842 0.65850 0.15230
 N599 N 0.18380 0.13488 0.67160
 N600 N 0.17146 0.13503 0.68369
 C601 C 0.17392 0.12129 0.69458
 C602 C 0.18853 0.11217 0.68893
 C603 C 0.19452 0.12106 0.67437
 H604 H 0.16572 0.11809 0.70571
 H605 H 0.20578 0.11770 0.66639
 Cu606 Cu 0.15343 0.15318 0.68387
 Cu607 Cu 0.18492 0.15245 0.65303
 Cu608 Cu 0.15267 0.18472 0.65307
 N609 N 0.13530 0.17124 0.68375
 N610 N 0.13515 0.18358 0.67167
 C611 C 0.12136 0.19432 0.67448
 C612 C 0.11249 0.18834 0.68904
 C613 C 0.12158 0.17372 0.69466
 H614 H 0.11800 0.20558 0.66651
 H615 H 0.11837 0.16553 0.70579
 N616 N 0.17154 0.18363 0.63539
 N617 N 0.18383 0.17134 0.63536
 C618 C 0.19464 0.17405 0.62163
 C619 C 0.18882 0.18866 0.61270
 C620 C 0.17422 0.19446 0.62167
 H621 H 0.20586 0.16599 0.61828
 H622 H 0.16615 0.20568 0.61836
 H623 H 0.17254 0.17235 0.66675
 H624 H 0.15834 0.15821 0.65269
 N625 N 0.31585 0.63532 0.32821
 N626 N 0.32816 0.63554 0.31607
 C627 C 0.32551 0.62204 0.30496
 C628 C 0.31096 0.61290 0.31064
 C629 C 0.30512 0.62157 0.32536
 H630 H 0.33362 0.61893 0.29372
 H631 H 0.29403 0.61804 0.33350
 Cu632 Cu 0.34633 0.65347 0.31606
 Cu633 Cu 0.31481 0.65260 0.34703
 Cu634 Cu 0.34583 0.68589 0.34565
 N635 N 0.36465 0.67128 0.31647
 N636 N 0.36447 0.68390 0.32826
 C637 C 0.37833 0.69454 0.32559
 C638 C 0.38752 0.68830 0.31132
 C639 C 0.37852 0.67363 0.30573
 H640 H 0.38144 0.70599 0.33338
 H641 H 0.38184 0.66538 0.29466
 N642 N 0.32799 0.68407 0.36428
 N643 N 0.31610 0.67143 0.36473
 C644 C 0.30565 0.67386 0.37879
 C645 C 0.31133 0.68862 0.38752
 C646 C 0.32547 0.69481 0.37810
 H647 H 0.29469 0.66559 0.38240
 H648 H 0.33325 0.70630 0.38107
 H649 H 0.32612 0.67204 0.33259
 H650 H 0.34117 0.65913 0.34706
 N651 N 0.31588 0.13506 0.82846
 N652 N 0.32816 0.13531 0.81633
 C653 C 0.32572 0.12161 0.80539
 C654 C 0.31110 0.11254 0.81100
 C655 C 0.30514 0.12132 0.82562
 H656 H 0.33391 0.11845 0.79424
 H657 H 0.29392 0.11791 0.83363
 Cu658 Cu 0.34640 0.15318 0.81635
 Cu659 Cu 0.31478 0.15250 0.84710
 Cu660 Cu 0.34700 0.18472 0.84709
 N661 N 0.36428 0.17142 0.81632
 N662 N 0.36449 0.18368 0.82846
 C663 C 0.37824 0.19442 0.82563
 C664 C 0.38707 0.18848 0.81102
 C665 C 0.37801 0.17387 0.80540
 H666 H 0.38163 0.20563 0.83363
 H667 H 0.38119 0.16570 0.79425
 N668 N 0.32817 0.18356 0.86480
 N669 N 0.31591 0.17129 0.86481
 C670 C 0.30508 0.17397 0.87853
 C671 C 0.31087 0.18856 0.88747
 C672 C 0.32546 0.19437 0.87853
 H673 H 0.29386 0.16593 0.88185
 H674 H 0.33349 0.20559 0.88184
 H675 H 0.32717 0.17228 0.83337
 H676 H 0.34134 0.15814 0.84752
 N677 N 0.81624 0.63517 0.82861
 N678 N 0.82854 0.63537 0.81647
 C679 C 0.82608 0.62168 0.80557
 C680 C 0.81150 0.61256 0.81122
 C681 C 0.80551 0.62141 0.82580
 H682 H 0.83423 0.61854 0.79439
 H683 H 0.79420 0.61809 0.83373
 Cu684 Cu 0.84652 0.65354 0.81621
 Cu685 Cu 0.81510 0.65271 0.84716
 Cu686 Cu 0.84729 0.68496 0.84711
 N687 N 0.86464 0.67155 0.81642
 N688 N 0.86482 0.68384 0.82854
 C689 C 0.87856 0.69461 0.82569
 C690 C 0.88741 0.68864 0.81111
 C691 C 0.87833 0.67404 0.80549
 H692 H 0.88185 0.70592 0.83360
 H693 H 0.88149 0.66591 0.79431
 N694 N 0.82845 0.68383 0.86480
 N695 N 0.81619 0.67156 0.86483
 C696 C 0.80535 0.67427 0.87854
 C697 C 0.81113 0.68887 0.88745
 C698 C 0.82573 0.69467 0.87850
 H699 H 0.79413 0.66623 0.88187
 H700 H 0.83375 0.70591 0.88179
 H701 H 0.82737 0.67266 0.83336
 H702 H 0.84165 0.65845 0.84739
 N703 N 0.81605 0.13515 0.32820
 N704 N 0.82816 0.13555 0.31590
 C705 C 0.82566 0.12192 0.30491
 C706 C 0.81129 0.11261 0.31076
 C707 C 0.80545 0.12127 0.32550
 H708 H 0.83374 0.11887 0.29366
 H709 H 0.79441 0.11767 0.33368
 Cu710 Cu 0.84619 0.15363 0.31588
 Cu711 Cu 0.81501 0.15249 0.34695
 Cu712 Cu 0.84721 0.18477 0.34690
 N713 N 0.86422 0.17169 0.31585
 N714 N 0.86459 0.18379 0.32814
 C715 C 0.87844 0.19443 0.32541
 C716 C 0.88712 0.18863 0.31066
 C717 C 0.87785 0.17423 0.30484
 H718 H 0.88201 0.20548 0.33357
 H719 H 0.88092 0.16617 0.29359
 N720 N 0.82847 0.18351 0.36472
 N721 N 0.81621 0.17123 0.36474
 C722 C 0.80540 0.17389 0.37849
 C723 C 0.81119 0.18847 0.38743
 C724 C 0.82577 0.19430 0.37846
 H725 H 0.79418 0.16585 0.38180
 H726 H 0.83378 0.20555 0.38176
 H727 H 0.82719 0.17248 0.33336
 H728 H 0.84153 0.15821 0.34715
 N729 N 0.68398 0.36467 0.32826
 N730 N 0.67172 0.36447 0.31609
 C731 C 0.67429 0.37811 0.30511
 C732 C 0.68888 0.38716 0.31077
 C733 C 0.69479 0.37835 0.32539
 H734 H 0.66617 0.38128 0.29391
 H735 H 0.70610 0.38164 0.33332
 Cu736 Cu 0.65345 0.34664 0.31610
 Cu737 Cu 0.68505 0.34724 0.34691
 Cu738 Cu 0.65287 0.31505 0.34689
 N739 N 0.63562 0.32837 0.31607
 N740 N 0.63542 0.31611 0.32823
 C741 C 0.62174 0.30529 0.32535
 C742 C 0.61292 0.31120 0.31073
 C743 C 0.62199 0.32580 0.30508
 H744 H 0.61846 0.29398 0.33327
 H745 H 0.61882 0.33393 0.29388
 N746 N 0.67162 0.31622 0.36466
 N747 N 0.68389 0.32849 0.36466
 C748 C 0.69475 0.32576 0.37835
 C749 C 0.68897 0.31114 0.38727
 C750 C 0.67436 0.30536 0.37835
 H751 H 0.70601 0.33376 0.38162
 H752 H 0.66637 0.29409 0.38161
 H753 H 0.67274 0.32746 0.33308
 H754 H 0.65857 0.34158 0.34725
 N755 N 0.68399 0.86484 0.82851
 N756 N 0.67169 0.86467 0.81639
 C757 C 0.67422 0.87832 0.80543
 C758 C 0.68883 0.88738 0.81107
 C759 C 0.69476 0.87857 0.82569
 H760 H 0.66607 0.88150 0.79426
 H761 H 0.70600 0.88194 0.83368
 Cu762 Cu 0.65352 0.84671 0.81626
 Cu763 Cu 0.68509 0.84738 0.84711
 Cu764 Cu 0.65286 0.81523 0.84715
 N765 N 0.63551 0.82859 0.81644
 N766 N 0.63534 0.81631 0.82858
 C767 C 0.62156 0.80557 0.82579
 C768 C 0.61273 0.81150 0.81118
 C769 C 0.62183 0.82608 0.80551
 H770 H 0.61819 0.79435 0.83380
 H771 H 0.61865 0.83422 0.79434
 N772 N 0.67170 0.81633 0.86483
 N773 N 0.68397 0.82859 0.86481
 C774 C 0.69480 0.82590 0.87853
 C775 C 0.68900 0.81133 0.88749
 C776 C 0.67440 0.80552 0.87857
 H777 H 0.70602 0.83395 0.88184
 H778 H 0.66635 0.79432 0.88191
 H779 H 0.67272 0.82761 0.83334
 H780 H 0.65854 0.84180 0.84744
 N781 N 0.18382 0.36456 0.82844
 N782 N 0.17173 0.36419 0.81611
 C783 C 0.17426 0.37787 0.80518
 C784 C 0.18864 0.38716 0.81104
 C785 C 0.19444 0.37844 0.82577
 H786 H 0.16625 0.38091 0.79386
 H787 H 0.20550 0.38197 0.83394
 Cu788 Cu 0.15380 0.34598 0.81569
 Cu789 Cu 0.18484 0.34712 0.84708
 Cu790 Cu 0.15264 0.31495 0.84709
 N791 N 0.13557 0.32807 0.81613
 N792 N 0.13520 0.31599 0.82846
 C793 C 0.12130 0.30538 0.82580
 C794 C 0.11259 0.31118 0.81107
 C795 C 0.12189 0.32555 0.80520
 H796 H 0.11776 0.29433 0.83398
 H797 H 0.11885 0.33355 0.79388
 N798 N 0.17142 0.31610 0.86483
 N799 N 0.18369 0.32836 0.86483
 C800 C 0.19451 0.32567 0.87856
 C801 C 0.18870 0.31109 0.88751
 C802 C 0.17411 0.30529 0.87857
 H803 H 0.20574 0.33370 0.88186
 H804 H 0.16607 0.29407 0.88189
 H805 H 0.17268 0.32709 0.83342
 H806 H 0.15824 0.34151 0.84702
 N807 N 0.18382 0.86485 0.32830
 N808 N 0.17132 0.86490 0.31639
 C809 C 0.17386 0.87855 0.30543
 C810 C 0.18868 0.88739 0.31087
 C811 C 0.19472 0.87845 0.32535
 H812 H 0.16558 0.88188 0.29441
 H813 H 0.20612 0.88165 0.33319
 Cu814 Cu 0.15287 0.84724 0.31646
 Cu815 Cu 0.18496 0.84735 0.34684
 Cu816 Cu 0.15276 0.81521 0.34685
 N817 N 0.13518 0.82883 0.31641
 N818 N 0.13522 0.81633 0.32833
 C819 C 0.12159 0.80546 0.32539
 C820 C 0.11264 0.81151 0.31091
 C821 C 0.12151 0.82631 0.30546
 H822 H 0.11838 0.79407 0.33323
 H823 H 0.11819 0.83459 0.29443
 N824 N 0.17162 0.81626 0.36452
 N825 N 0.18389 0.82852 0.36450
 C826 C 0.19472 0.82583 0.37822
 C827 C 0.18893 0.81125 0.38717
 C828 C 0.17432 0.80545 0.37825
 H829 H 0.20593 0.83389 0.38153
 H830 H 0.16626 0.79426 0.38159
 H831 H 0.17236 0.82785 0.33287
 H832 H 0.15842 0.84178 0.34749
 O833 O 0.24813 1.01723 0.27212
 O834 O 0.27226 0.98276 0.24832
 O835 O 0.27230 1.01717 0.24835
 O836 O 0.24812 0.98278 0.27212
 O837 O 0.22774 0.98284 0.25157
 O838 O 0.25192 1.01724 0.22779
 O839 O 0.25188 0.98283 0.22776
 O840 O 0.22775 1.01729 0.25157
 Cu841 Cu 0.26224 0.99998 0.26230
 Cu842 Cu 0.23777 1.00006 0.23762
 C843 C 0.23401 1.02343 0.26573
 C844 C 0.26602 0.97665 0.23413
 C845 C 0.26607 1.02334 0.23417
 C846 C 0.23398 0.97665 0.26572
 O847 O 0.25180 0.51721 0.72785
 O848 O 0.22767 0.48271 0.75164
 O849 O 0.22763 0.51716 0.75166
 O850 O 0.25180 0.48276 0.72780
 O851 O 0.27219 0.48270 0.74834
 O852 O 0.24803 0.51711 0.77219
 O853 O 0.24806 0.48267 0.77217
 O854 O 0.27219 0.51715 0.74839
 Cu855 Cu 0.23768 0.49996 0.73768
 Cu856 Cu 0.26216 0.49990 0.76233
 C857 C 0.26594 0.52335 0.73423
 C858 C 0.23392 0.47652 0.76580
 C859 C 0.23389 0.52329 0.76583
 C860 C 0.26594 0.47658 0.73416
 O861 O 0.77255 0.01687 0.25178
 O862 O 0.74836 -0.01751 0.22803
 O863 O 0.74841 0.01691 0.22798
 O864 O 0.77250 -0.01760 0.25180
 O865 O 0.75210 -0.01753 0.27236
 O866 O 0.72801 0.01698 0.24853
 O867 O 0.72796 -0.01745 0.24858
 O868 O 0.75216 0.01694 0.27234
 Cu869 Cu 0.76250 -0.00033 0.23784
 Cu870 Cu 0.73802 -0.00025 0.26252
 C871 C 0.76631 0.02305 0.26594
 C872 C 0.73420 -0.02362 0.23441
 C873 C 0.73425 0.02308 0.23433
 C874 C 0.76622 -0.02375 0.26596
 O875 O 0.72788 0.51708 0.74858
 O876 O 0.75204 0.48261 0.77239
 O877 O 0.75204 0.51708 0.77236
 O878 O 0.72789 0.48261 0.74859
 O879 O 0.74827 0.48259 0.72803
 O880 O 0.77243 0.51705 0.75180
 O881 O 0.77243 0.48257 0.75184
 O882 O 0.74826 0.51705 0.72802
 Cu883 Cu 0.73793 0.49984 0.76254
 Cu884 Cu 0.76239 0.49981 0.73786
 C885 C 0.73413 0.52323 0.73441
 C886 C 0.76618 0.47642 0.76601
 C887 C 0.76618 0.52323 0.76596
 C888 C 0.73413 0.47644 0.73442
 O889 O 0.24809 0.48280 0.22781
 O890 O 0.27225 0.51720 0.25158
 O891 O 0.27223 0.48274 0.25160
 O892 O 0.24809 0.51721 0.22780
 O893 O 0.22769 0.51726 0.24835
 O894 O 0.25183 0.48277 0.27215
 O895 O 0.25185 0.51724 0.27214
 O896 O 0.22770 0.48283 0.24836
 Cu897 Cu 0.26221 0.49999 0.23764
 Cu898 Cu 0.23773 0.50003 0.26232
 C899 C 0.23395 0.47667 0.23419
 C900 C 0.26599 0.52337 0.26575
 C901 C 0.26596 0.47658 0.26576
 C902 C 0.23393 0.52338 0.23416
 O903 O 0.74793 1.01757 0.77239
 O904 O 0.77206 0.98301 0.74861
 O905 O 0.77208 1.01742 0.74856
 O906 O 0.74793 0.98307 0.77245
 O907 O 0.72753 0.98309 0.75192
 O908 O 0.75168 1.01744 0.72803
 O909 O 0.75165 0.98304 0.72808
 O910 O 0.72753 1.01759 0.75186
 Cu911 Cu 0.76203 1.00027 0.76257
 Cu912 Cu 0.73754 1.00029 0.73793
 C913 C 0.73381 1.02378 0.76600
 C914 C 0.76582 0.97688 0.73443
 C915 C 0.76585 1.02354 0.73438
 C916 C 0.73381 0.97691 0.76607
 O917 O 0.77225 0.48282 0.24843
 O918 O 0.74808 0.51724 0.27226
 O919 O 0.74806 0.48279 0.27221
 O920 O 0.77221 0.51723 0.24846
 O921 O 0.75183 0.51728 0.22791
 O922 O 0.72767 0.48284 0.25167
 O923 O 0.72769 0.51731 0.25172
 O924 O 0.75186 0.48287 0.22788
 Cu925 Cu 0.76218 0.50001 0.26241
 Cu926 Cu 0.73771 0.50007 0.23774
 C927 C 0.76602 0.47672 0.23424
 C928 C 0.73396 0.52345 0.26588
 C929 C 0.73393 0.47665 0.26583
 C930 C 0.76597 0.52340 0.23429
 O931 O 0.27258 0.01679 0.75182
 O932 O 0.24842 -0.01754 0.72796
 O933 O 0.24841 0.01687 0.72806
 O934 O 0.27264 -0.01772 0.75170
 O935 O 0.25228 -0.01779 0.77229
 O936 O 0.22805 0.01683 0.74864
 O937 O 0.22806 -0.01759 0.74855
 O938 O 0.25223 0.01672 0.77241
 Cu939 Cu 0.26256 -0.00040 0.73784
 Cu940 Cu 0.23814 -0.00047 0.76255
 C941 C 0.26632 0.02293 0.76600
 C942 C 0.23427 -0.02368 0.73433
 C943 C 0.23426 0.02301 0.73446
 C944 C 0.26641 -0.02396 0.76585
 O945 O 0.24819 0.27209 0.98283
 O946 O 0.27215 0.24805 1.01722
 O947 O 0.27215 0.24804 0.98284
 O948 O 0.24826 0.27215 1.01722
 O949 O 0.22771 0.25174 1.01728
 O950 O 0.25160 0.22763 0.98290
 O951 O 0.25160 0.22764 1.01729
 O952 O 0.22764 0.25168 0.98290
 Cu953 Cu 0.26225 0.26213 1.00002
 Cu954 Cu 0.23758 0.23763 1.00009
 C955 C 0.23399 0.26581 0.97671
 C956 C 0.26579 0.23393 1.02341
 C957 C 0.26579 0.23389 0.97673
 C958 C 0.23409 0.26588 1.02341
 O959 O 0.24831 0.77244 0.48266
 O960 O 0.27229 0.74839 0.51706
 O961 O 0.27228 0.74838 0.48264
 O962 O 0.24835 0.77245 0.51704
 O963 O 0.22782 0.75203 0.51707
 O964 O 0.25175 0.72796 0.48267
 O965 O 0.25176 0.72797 0.51708
 O966 O 0.22778 0.75201 0.48269
 Cu967 Cu 0.26237 0.76246 0.49984
 Cu968 Cu 0.23772 0.73795 0.49988
 C969 C 0.23412 0.76615 0.47652
 C970 C 0.26593 0.73426 0.52324
 C971 C 0.26592 0.73425 0.47650
 C972 C 0.23417 0.76616 0.52321
 O973 O 0.27259 0.75171 -0.01739
 O974 O 0.24853 0.72783 0.01707
 O975 O 0.24853 0.72780 -0.01732
 O976 O 0.27253 0.75180 0.01703
 O977 O 0.25204 0.77231 0.01698
 O978 O 0.22804 0.74831 -0.01735
 O979 O 0.22805 0.74835 0.01704
 O980 O 0.25209 0.77222 -0.01743
 Cu981 Cu 0.26260 0.73773 -0.00015
 Cu982 Cu 0.23801 0.76235 -0.00020
 C983 C 0.26626 0.76586 -0.02358
 C984 C 0.23436 0.73418 0.02321
 C985 C 0.23436 0.73414 -0.02348
 C986 C 0.26620 0.76597 0.02315
 O987 O 0.22766 0.24816 0.48286
 O988 O 0.25164 0.27212 0.51724
 O989 O 0.25165 0.27211 0.48284
 O990 O 0.22765 0.24815 0.51726
 O991 O 0.24817 0.22766 0.51726
 O992 O 0.27217 0.25162 0.48285
 O993 O 0.27215 0.25163 0.51725
 O994 O 0.24818 0.22767 0.48287
 Cu995 Cu 0.23759 0.26218 0.50005
 Cu996 Cu 0.26222 0.23759 0.50006
 C997 C 0.23401 0.23400 0.47671
 C998 C 0.26581 0.26579 0.52339
 C999 C 0.26583 0.26578 0.47669
 C1000 C 0.23399 0.23399 0.52342
 O1001 O 0.74835 0.77231 0.98289
 O1002 O 0.77225 0.74821 1.01727
 O1003 O 0.77232 0.74826 0.98288
 O1004 O 0.74837 0.77231 1.01727
 O1005 O 0.72782 0.75191 1.01726
 O1006 O 0.75177 0.72786 0.98287
 O1007 O 0.75171 0.72780 1.01726
 O1008 O 0.72780 0.75191 0.98288
 Cu1009 Cu 0.76238 0.76232 1.00008
 Cu1010 Cu 0.73771 0.73783 1.00006
 C1011 C 0.73417 0.76605 0.97674
 C1012 C 0.76588 0.73408 1.02342
 C1013 C 0.76597 0.73413 0.97673
 C1014 C 0.73418 0.76603 1.02342
 O1015 O 0.75164 0.22756 0.48269
 O1016 O 0.72767 0.25160 0.51709
 O1017 O 0.72770 0.25164 0.48268
 O1018 O 0.75161 0.22753 0.51707
 O1019 O 0.77215 0.24794 0.51707
 O1020 O 0.74824 0.27204 0.48270
 O1021 O 0.74822 0.27200 0.51710
 O1022 O 0.77218 0.24798 0.48270
 Cu1023 Cu 0.73759 0.23754 0.49988
 Cu1024 Cu 0.76225 0.26204 0.49989
 C1025 C 0.76583 0.23384 0.47654
 C1026 C 0.73404 0.26572 0.52326
 C1027 C 0.73407 0.26577 0.47653
 C1028 C 0.76579 0.23381 0.52322
 O1029 O 0.77215 0.25197 -0.01730
 O1030 O 0.74831 0.22787 0.01713
 O1031 O 0.74825 0.22791 -0.01728
 O1032 O 0.77221 0.25191 0.01709
 O1033 O 0.75161 0.27232 0.01715
 O1034 O 0.72765 0.24832 -0.01724
 O1035 O 0.72771 0.24827 0.01718
 O1036 O 0.75156 0.27238 -0.01724
 Cu1037 Cu 0.76229 0.23787 -0.00010
 Cu1038 Cu 0.73757 0.26236 -0.00003
 C1039 C 0.76575 0.26612 -0.02342
 C1040 C 0.73412 0.23414 0.02332
 C1041 C 0.73405 0.23419 -0.02341
 C1042 C 0.76582 0.26604 0.02327
 O1043 O 0.72771 0.74839 0.48292
 O1044 O 0.75169 0.77239 0.51729
 O1045 O 0.75163 0.77242 0.48289
 O1046 O 0.72773 0.74839 0.51732
 O1047 O 0.74829 0.72794 0.51729
 O1048 O 0.77218 0.75197 0.48285
 O1049 O 0.77225 0.75195 0.51725
 O1050 O 0.74826 0.72795 0.48290
 Cu1051 Cu 0.73763 0.76245 0.50011
 Cu1052 Cu 0.76230 0.73790 0.50007
 C1053 C 0.73407 0.73425 0.47676
 C1054 C 0.76589 0.76609 0.52341
 C1055 C 0.76580 0.76612 0.47671
 C1056 C 0.73410 0.73424 0.52347
 O1057 O 0.98280 0.25208 0.22783
 O1058 O 1.01724 0.22788 0.25164
 O1059 O 0.98277 0.22785 0.25155
 O1060 O 1.01725 0.25208 0.22791
 O1061 O 1.01718 0.27238 0.24852
 O1062 O 0.98267 0.24815 0.27216
 O1063 O 1.01714 0.24818 0.27225
 O1064 O 0.98272 0.27238 0.24844
 Cu1065 Cu 1.00002 0.23794 0.23767
 Cu1066 Cu 0.99991 0.26231 0.26241
 C1067 C 0.97662 0.26619 0.23423
 C1068 C 1.02335 0.23409 0.26584
 C1069 C 0.97656 0.23403 0.26573
 C1070 C 1.02338 0.26618 0.23434
 O1071 O 0.48272 0.25173 0.72788
 O1072 O 0.51718 0.22757 0.75171
 O1073 O 0.48268 0.22759 0.75166
 O1074 O 0.51719 0.25174 0.72791
 O1075 O 0.51714 0.27208 0.74848
 O1076 O 0.48264 0.24792 0.77223
 O1077 O 0.51714 0.24791 0.77228
 O1078 O 0.48266 0.27208 0.74845
 Cu1079 Cu 0.49995 0.23762 0.73773
 Cu1080 Cu 0.49989 0.26203 0.76242
 C1081 C 0.47653 0.26585 0.73426
 C1082 C 0.52332 0.23379 0.76589
 C1083 C 0.47648 0.23382 0.76582
 C1084 C 0.52332 0.26586 0.73430
 O1085 O 0.01700 0.25185 0.77232
 O1086 O -0.01747 0.22771 0.74858
 O1087 O 0.01701 0.22768 0.74855
 O1088 O -0.01749 0.25195 0.77227
 O1089 O -0.01745 0.27226 0.75165
 O1090 O 0.01702 0.24800 0.72794
 O1091 O -0.01745 0.24803 0.72797
 O1092 O 0.01704 0.27216 0.75170
 Cu1093 Cu -0.00024 0.23777 0.76250
 Cu1094 Cu -0.00020 0.26215 0.73775
 C1095 C 0.02319 0.26595 0.76590
 C1096 C -0.02362 0.23392 0.73438
 C1097 C 0.02318 0.23388 0.73436
 C1098 C -0.02364 0.26607 0.76583
 O1099 O 0.48287 0.27202 0.25161
 O1100 O 0.51734 0.24785 0.22780
 O1101 O 0.48288 0.24783 0.22788
 O1102 O 0.51736 0.27206 0.25153
 O1103 O 0.51742 0.25173 0.27213
 O1104 O 0.48293 0.22751 0.24849
 O1105 O 0.51740 0.22753 0.24841
 O1106 O 0.48294 0.25170 0.27222
 Cu1107 Cu 0.50011 0.26198 0.23764
 Cu1108 Cu 0.50019 0.23759 0.26238
 C1109 C 0.47673 0.26580 0.26581
 C1110 C 0.52352 0.23373 0.23421
 C1111 C 0.47675 0.23371 0.23431
 C1112 C 0.52355 0.26585 0.26570
 O1113 O 1.01730 0.72792 0.75164
 O1114 O 0.98286 0.75209 0.72781
 O1115 O 1.01732 0.75208 0.72788
 O1116 O 0.98282 0.72795 0.75161
 O1117 O 0.98277 0.74830 0.77217
 O1118 O 1.01728 0.77244 0.74844
 O1119 O 0.98281 0.77244 0.74837
 O1120 O 1.01726 0.74827 0.77220
 Cu1121 Cu 1.00008 0.73797 0.73767
 Cu1122 Cu 1.00002 0.76240 0.76236
 C1123 C 1.02344 0.73415 0.76581
 C1124 C 0.97669 0.76622 0.73418
 C1125 C 1.02346 0.76620 0.73427
 C1126 C 0.97663 0.73418 0.76577
 O1127 O 0.51720 0.77239 0.24860
 O1128 O 0.48265 0.74822 0.27225
 O1129 O 0.51714 0.74820 0.27235
 O1130 O 0.48273 0.77238 0.24848
 O1131 O 0.48282 0.75204 0.22791
 O1132 O 0.51722 0.72787 0.25177
 O1133 O 0.48273 0.72789 0.25167
 O1134 O 0.51727 0.75205 0.22802
 Cu1135 Cu 0.49992 0.76233 0.26249
 Cu1136 Cu 0.50002 0.73792 0.23778
 C1137 C 0.52340 0.76616 0.23443
 C1138 C 0.47651 0.73411 0.26582
 C1139 C 0.52334 0.73409 0.26596
 C1140 C 0.47663 0.76616 0.23429
 O1141 O -0.01735 0.77237 0.25159
 O1142 O 0.01710 0.74816 0.22782
 O1143 O -0.01735 0.74813 0.22792
 O1144 O 0.01715 0.77232 0.25157
 O1145 O 0.01718 0.75202 0.27219
 O1146 O -0.01730 0.72781 0.24853
 O1147 O 0.01718 0.72785 0.24844
 O1148 O -0.01731 0.75206 0.27220
 Cu1149 Cu -0.00012 0.76228 0.23766
 Cu1150 Cu -0.00006 0.73790 0.26241
 C1151 C -0.02350 0.76616 0.26577
 C1152 C 0.02330 0.73405 0.23423
 C1153 C -0.02349 0.73402 0.23436
 C1154 C 0.02333 0.76612 0.26574
 O1155 O 0.48267 0.72797 0.74866
 O1156 O 0.51714 0.75212 0.77243
 O1157 O 0.48263 0.75215 0.77243
 O1158 O 0.51716 0.72795 0.74867
 O1159 O 0.51715 0.74828 0.72808
 O1160 O 0.48264 0.77248 0.75183
 O1161 O 0.51714 0.77245 0.75183
 O1162 O 0.48267 0.74830 0.72806
 Cu1163 Cu 0.49990 0.73802 0.76261
 Cu1164 Cu 0.49990 0.76241 0.73789
 C1165 C 0.47652 0.73418 0.73447
 C1166 C 0.52331 0.76623 0.76601
 C1167 C 0.47646 0.76627 0.76602
 C1168 C 0.52333 0.73416 0.73449
 C1169 C 0.43168 0.28995 0.28969
 C1170 C 0.43919 0.29736 0.27468
 C1171 C 0.45414 0.28978 0.26714
 C1172 C 0.40286 0.30367 0.30343
 C1173 C 0.45424 0.26743 0.28978
 C1174 C 0.43929 0.27504 0.29729
 C1175 C 0.41602 0.29746 0.29716
 C1176 C 0.46177 0.27465 0.27455
 H1177 H 0.43338 0.30888 0.26867
 H1178 H 0.45954 0.29560 0.25536
 H1179 H 0.45970 0.25573 0.29574
 H1180 H 0.43354 0.26917 0.30889
 C1181 C 0.43136 0.79056 0.78978
 C1182 C 0.43897 0.79795 0.77479
 C1183 C 0.45393 0.79033 0.76732
 C1184 C 0.40243 0.80427 0.80336
 C1185 C 0.45390 0.76799 0.78996
 C1186 C 0.43893 0.77564 0.79741
 C1187 C 0.41564 0.79808 0.79716
 C1188 C 0.46149 0.77517 0.77473
 H1189 H 0.43321 0.80948 0.76876
 H1190 H 0.45939 0.79613 0.75556
 H1191 H 0.45932 0.75628 0.79594
 H1192 H 0.43314 0.76979 0.80900
 C1193 C -0.06870 0.29037 0.78957
 C1194 C -0.06115 0.27545 0.79720
 C1195 C -0.04620 0.26779 0.78975
 C1196 C -0.09750 0.30418 0.80326
 C1197 C -0.04616 0.29012 0.76709
 C1198 C -0.06111 0.29775 0.77457
 C1199 C -0.08436 0.29794 0.79700
 C1200 C -0.03861 0.27497 0.77453
 H1201 H -0.06695 0.26960 0.80879
 H1202 H -0.04079 0.25608 0.79574
 H1203 H -0.04071 0.29592 0.75532
 H1204 H -0.06687 0.30928 0.76854
 C1205 C -0.06857 0.79038 0.28957
 C1206 C -0.06102 0.79777 0.27456
 C1207 C -0.04607 0.79017 0.26706
 C1208 C -0.09736 0.80419 0.30331
 C1209 C -0.04604 0.76784 0.28972
 C1210 C -0.06099 0.77547 0.29719
 C1211 C -0.08423 0.79793 0.29702
 C1212 C -0.03847 0.77503 0.27449
 H1213 H -0.06681 0.80929 0.26853
 H1214 H -0.04065 0.79596 0.25528
 H1215 H -0.04060 0.75613 0.29569
 H1216 H -0.06676 0.76962 0.30879
 C1217 C 0.56836 0.70996 0.28986
 C1218 C 0.56086 0.70254 0.27486
 C1219 C 0.54591 0.71011 0.26733
 C1220 C 0.59717 0.69626 0.30360
 C1221 C 0.54581 0.73247 0.28994
 C1222 C 0.56075 0.72487 0.29744
 C1223 C 0.58402 0.70246 0.29733
 C1224 C 0.53829 0.72524 0.27471
 H1225 H 0.56668 0.69102 0.26886
 H1226 H 0.54053 0.70429 0.25555
 H1227 H 0.54034 0.74417 0.29588
 H1228 H 0.56649 0.73075 0.30903
 C1229 C 0.56837 0.20955 0.78970
 C1230 C 0.56079 0.22447 0.79731
 C1231 C 0.54584 0.23211 0.78984
 C1232 C 0.59729 0.19587 0.80329
 C1233 C 0.54583 0.20974 0.76724
 C1234 C 0.56079 0.20214 0.77473
 C1235 C 0.58408 0.20205 0.79709
 C1236 C 0.53827 0.22491 0.77463
 H1237 H 0.56657 0.23034 0.80888
 H1238 H 0.54041 0.24382 0.79580
 H1239 H 0.54040 0.20393 0.75548
 H1240 H 0.56657 0.19061 0.76872
 C1241 C 1.06847 0.70999 0.78969
 C1242 C 1.06094 0.70256 0.77470
 C1243 C 1.04599 0.71014 0.76718
 C1244 C 1.09727 0.69628 0.80344
 C1245 C 1.04593 0.73251 0.78977
 C1246 C 1.06088 0.72490 0.79726
 C1247 C 1.08413 0.70248 0.79715
 C1248 C 1.03839 0.72529 0.77456
 H1249 H 1.06675 0.69103 0.76870
 H1250 H 1.04058 0.70432 0.75541
 H1251 H 1.04048 0.74422 0.79572
 H1252 H 1.06664 0.73078 0.80884
 C1253 C 1.06835 0.20992 0.28975
 C1254 C 1.06085 0.20251 0.27474
 C1255 C 1.04592 0.21009 0.26719
 C1256 C 1.09715 0.19621 0.30349
 C1257 C 1.04580 0.23243 0.28982
 C1258 C 1.06074 0.22482 0.29733
 C1259 C 1.08400 0.20241 0.29722
 C1260 C 1.03829 0.22523 0.27459
 H1261 H 1.06668 0.19099 0.26873
 H1262 H 1.04053 0.20428 0.25541
 H1263 H 1.04034 0.24414 0.29578
 H1264 H 1.06647 0.23069 0.30893
 C1265 C 0.56829 0.29013 0.71042
 C1266 C 0.56070 0.29754 0.72540
 C1267 C 0.54577 0.28993 0.73293
 C1268 C 0.59717 0.30380 0.69677
 C1269 C 0.54582 0.26757 0.71032
 C1270 C 0.56074 0.27521 0.70283
 C1271 C 0.58398 0.29763 0.70300
 C1272 C 0.53825 0.27476 0.72555
 H1273 H 0.56645 0.30907 0.73140
 H1274 H 0.54033 0.29574 0.74469
 H1275 H 0.54042 0.25585 0.70436
 H1276 H 0.56653 0.26935 0.69124
 C1277 C 0.56837 0.79035 0.21055
 C1278 C 0.56081 0.77544 0.20296
 C1279 C 0.54590 0.76782 0.21047
 C1280 C 0.59719 0.80401 0.19681
 C1281 C 0.54590 0.79018 0.23309
 C1282 C 0.56083 0.79778 0.22554
 C1283 C 0.58404 0.79784 0.20309
 C1284 C 0.53835 0.77503 0.22570
 H1285 H 0.56658 0.76958 0.19137
 H1286 H 0.54048 0.75612 0.20452
 H1287 H 0.54048 0.79600 0.24486
 H1288 H 0.56660 0.80931 0.23153
 C1289 C 1.06832 0.29045 0.21047
 C1290 C 1.06080 0.27552 0.20289
 C1291 C 1.04589 0.26787 0.21040
 C1292 C 1.09709 0.30417 0.19669
 C1293 C 1.04587 0.29021 0.23303
 C1294 C 1.06078 0.29783 0.22549
 C1295 C 1.08395 0.29799 0.20298
 C1296 C 1.03833 0.27506 0.22563
 H1297 H 1.06657 0.26966 0.19130
 H1298 H 1.04047 0.25618 0.20443
 H1299 H 1.04043 0.29602 0.24480
 H1300 H 1.06654 0.30936 0.23150
 C1301 C 1.06841 0.79038 0.71032
 C1302 C 1.06085 0.77545 0.70276
 C1303 C 1.04594 0.76784 0.71029
 C1304 C 1.09718 0.80408 0.69653
 C1305 C 1.04597 0.79021 0.73289
 C1306 C 1.06088 0.79780 0.72533
 C1307 C 1.08404 0.79788 0.70282
 C1308 C 1.03840 0.77506 0.72552
 H1309 H 1.06660 0.76957 0.69117
 H1310 H 1.04051 0.75613 0.70435
 H1311 H 1.04056 0.79603 0.74467
 H1312 H 1.06666 0.80933 0.73131
 C1313 C 0.43158 0.70991 0.71055
 C1314 C 0.43914 0.72483 0.70295
 C1315 C 0.45405 0.73247 0.71046
 C1316 C 0.40274 0.69621 0.69685
 C1317 C 0.45405 0.71012 0.73309
 C1318 C 0.43914 0.70250 0.72555
 C1319 C 0.41591 0.70239 0.70310
 C1320 C 0.46160 0.72529 0.72571
 H1321 H 0.43339 0.73069 0.69135
 H1322 H 0.45947 0.74418 0.70450
 H1323 H 0.45946 0.70431 0.74487
 H1324 H 0.43338 0.69097 0.73156
 C1325 C 0.43178 0.20950 0.21046
 C1326 C 0.43933 0.20209 0.22546
 C1327 C 0.45426 0.20968 0.23298
 C1328 C 0.40291 0.19591 0.19677
 C1329 C 0.45427 0.23203 0.21034
 C1330 C 0.43935 0.22441 0.20286
 C1331 C 0.41609 0.20203 0.20303
 C1332 C 0.46182 0.22483 0.22558
 H1333 H 0.43356 0.19056 0.23148
 H1334 H 0.45968 0.20387 0.24476
 H1335 H 0.45970 0.24373 0.20437
 H1336 H 0.43359 0.23028 0.19126
 C1337 C -0.06841 0.70977 0.21048
 C1338 C -0.06090 0.70238 0.22552
 C1339 C -0.04599 0.71000 0.23305
 C1340 C -0.09710 0.69596 0.19666
 C1341 C -0.04598 0.73235 0.21041
 C1342 C -0.06088 0.72471 0.20291
 C1343 C -0.08400 0.70220 0.20297
 C1344 C -0.03844 0.72515 0.22565
 H1345 H -0.06668 0.69086 0.23153
 H1346 H -0.04056 0.70418 0.24482
 H1347 H -0.04055 0.74404 0.20443
 H1348 H -0.06665 0.73057 0.19131
 C1349 C -0.06856 0.20974 0.71047
 C1350 C -0.06105 0.20233 0.72549
 C1351 C -0.04613 0.20992 0.73303
 C1352 C -0.09733 0.19607 0.69666
 C1353 C -0.04607 0.23226 0.71039
 C1354 C -0.06098 0.22465 0.70288
 C1355 C -0.08420 0.20225 0.70297
 C1356 C -0.03855 0.22506 0.72564
 H1357 H -0.06684 0.19081 0.73149
 H1358 H -0.04073 0.20410 0.74482
 H1359 H -0.04063 0.24396 0.70443
 H1360 H -0.06672 0.23052 0.69127
 C1361 C 0.28999 0.43144 0.28957
 C1362 C 0.27506 0.43905 0.29715
 C1363 C 0.26750 0.45402 0.28967
 C1364 C 0.30370 0.40264 0.30333
 C1365 C 0.28991 0.45395 0.26708
 C1366 C 0.29745 0.43897 0.27458
 C1367 C 0.29749 0.41578 0.29704
 C1368 C 0.27477 0.46158 0.27448
 H1369 H 0.26915 0.43329 0.30872
 H1370 H 0.25578 0.45949 0.29563
 H1371 H 0.29577 0.45936 0.25532
 H1372 H 0.30898 0.43316 0.26858
 C1373 C 0.29060 -0.06918 0.78949
 C1374 C 0.29801 -0.06157 0.77451
 C1375 C 0.29042 -0.04658 0.76706
 C1376 C 0.30436 -0.09805 0.80317
 C1377 C 0.26805 -0.04663 0.78969
 C1378 C 0.27567 -0.06162 0.79711
 C1379 C 0.29815 -0.08488 0.79691
 C1380 C 0.27527 -0.03900 0.77450
 H1381 H 0.30955 -0.06733 0.76848
 H1382 H 0.29625 -0.04112 0.75532
 H1383 H 0.25633 -0.04121 0.79568
 H1384 H 0.26979 -0.06742 0.80868
 C1385 C 0.79027 0.43136 0.78991
 C1386 C 0.77534 0.43897 0.79747
 C1387 C 0.76776 0.45393 0.78998
 C1388 C 0.80392 0.40252 0.80367
 C1389 C 0.79019 0.45385 0.76739
 C1390 C 0.79774 0.43889 0.77492
 C1391 C 0.79775 0.41568 0.79738
 C1392 C 0.77502 0.46146 0.77476
 H1393 H 0.76943 0.43322 0.80905
 H1394 H 0.75605 0.45939 0.79592
 H1395 H 0.79604 0.45925 0.75563
 H1396 H 0.80928 0.43308 0.76893
 C1397 C 0.79020 -0.06892 0.28978
 C1398 C 0.79768 -0.06138 0.27481
 C1399 C 0.79016 -0.04640 0.26730
 C1400 C 0.80393 -0.09769 0.30360
 C1401 C 0.76772 -0.04632 0.28987
 C1402 C 0.77527 -0.06130 0.29735
 C1403 C 0.79770 -0.08457 0.29727
 C1404 C 0.77501 -0.03876 0.27468
 H1405 H 0.80922 -0.06720 0.26882
 H1406 H 0.79602 -0.04099 0.25555
 H1407 H 0.75600 -0.04086 0.29580
 H1408 H 0.76934 -0.06706 0.30891
 C1409 C 0.29015 0.56835 0.71037
 C1410 C 0.29758 0.56077 0.72535
 C1411 C 0.28998 0.54584 0.73287
 C1412 C 0.30381 0.59722 0.69673
 C1413 C 0.26759 0.54586 0.71027
 C1414 C 0.27522 0.56079 0.70278
 C1415 C 0.29764 0.58403 0.70295
 C1416 C 0.27481 0.53829 0.72549
 H1417 H 0.30911 0.56652 0.73135
 H1418 H 0.29581 0.54040 0.74463
 H1419 H 0.25588 0.54045 0.70431
 H1420 H 0.26934 0.56657 0.69120
 C1421 C 0.29033 1.06824 0.21032
 C1422 C 0.29775 1.06067 0.22531
 C1423 C 0.29015 1.04575 0.23282
 C1424 C 0.30397 1.09711 0.19672
 C1425 C 0.26778 1.04579 0.21019
 C1426 C 0.27541 1.06070 0.20271
 C1427 C 0.29782 1.08393 0.20293
 C1428 C 0.27497 1.03823 0.22542
 H1429 H 0.30929 1.06642 0.23132
 H1430 H 0.29596 1.04032 0.24458
 H1431 H 0.25606 1.04038 0.20423
 H1432 H 0.26955 1.06648 0.19112
 C1433 C 0.79019 0.56829 0.21037
 C1434 C 0.77524 0.56076 0.20281
 C1435 C 0.76761 0.54587 0.21032
 C1436 C 0.80397 0.59700 0.19660
 C1437 C 0.79001 0.54586 0.23292
 C1438 C 0.79761 0.56077 0.22538
 C1439 C 0.79774 0.58389 0.20287
 C1440 C 0.77483 0.53832 0.22555
 H1441 H 0.76936 0.56653 0.19122
 H1442 H 0.75591 0.54043 0.20436
 H1443 H 0.79585 0.54043 0.24468
 H1444 H 0.80915 0.56654 0.23137
 C1445 C 0.79015 1.06831 0.71032
 C1446 C 0.77521 1.06076 0.70276
 C1447 C 0.76756 1.04589 0.71030
 C1448 C 0.80381 1.09709 0.69658
 C1449 C 0.78997 1.04590 0.73289
 C1450 C 0.79759 1.06078 0.72532
 C1451 C 0.79764 1.08395 0.70285
 C1452 C 0.77477 1.03838 0.72555
 H1453 H 0.76934 1.06651 0.69115
 H1454 H 0.75583 1.04048 0.70437
 H1455 H 0.79579 1.04050 0.74467
 H1456 H 0.80914 1.06654 0.73129
 C1457 C 0.70998 0.56857 0.28972
 C1458 C 0.70250 0.56106 0.27475
 C1459 C 0.71002 0.54609 0.26723
 C1460 C 0.69631 0.59736 0.30351
 C1461 C 0.73245 0.54597 0.28980
 C1462 C 0.72491 0.56094 0.29728
 C1463 C 0.70250 0.58422 0.29721
 C1464 C 0.72516 0.53844 0.27461
 H1465 H 0.69098 0.56690 0.26877
 H1466 H 0.70416 0.54069 0.25548
 H1467 H 0.74417 0.54049 0.29573
 H1468 H 0.73083 0.56669 0.30884
 C1469 C 0.70978 1.06898 0.78979
 C1470 C 0.70231 1.06142 0.77482
 C1471 C 0.70985 1.04644 0.76733
 C1472 C 0.69614 1.09784 0.80353
 C1473 C 0.73227 1.04637 0.78989
 C1474 C 0.72471 1.06136 0.79735
 C1475 C 0.70230 1.08467 0.79725
 C1476 C 0.72500 1.03880 0.77471
 H1477 H 0.69078 1.06724 0.76883
 H1478 H 0.70399 1.04102 0.75559
 H1479 H 0.74399 1.04091 0.79584
 H1480 H 0.73063 1.06712 0.80891
 C1481 C 0.20981 0.56832 0.78971
 C1482 C 0.20233 0.56080 0.77474
 C1483 C 0.20988 0.54585 0.76722
 C1484 C 0.19619 0.59715 0.80345
 C1485 C 0.23231 0.54576 0.78979
 C1486 C 0.22473 0.56071 0.79727
 C1487 C 0.20234 0.58400 0.79717
 C1488 C 0.22504 0.53823 0.77458
 H1489 H 0.19080 0.56662 0.76876
 H1490 H 0.20402 0.54044 0.75547
 H1491 H 0.24403 0.54030 0.79572
 H1492 H 0.23065 0.56647 0.80884
 C1493 C 0.20999 1.06852 0.28957
 C1494 C 0.22491 1.06091 0.29714
 C1495 C 0.23247 1.04595 0.28965
 C1496 C 0.19628 1.09730 0.30335
 C1497 C 0.21006 1.04605 0.26708
 C1498 C 0.20252 1.06101 0.27459
 C1499 C 0.20249 1.08417 0.29706
 C1500 C 0.22520 1.03841 0.27446
 H1501 H 0.23082 1.06666 0.30871
 H1502 H 0.24419 1.04048 0.29560
 H1503 H 0.20420 1.04065 0.25532
 H1504 H 0.19099 1.06684 0.26860
 C1505 C 0.70991 0.43149 0.71052
 C1506 C 0.72483 0.43906 0.70293
 C1507 C 0.73246 0.45397 0.71043
 C1508 C 0.69623 0.40266 0.69682
 C1509 C 0.71009 0.45395 0.73306
 C1510 C 0.70249 0.43903 0.72553
 C1511 C 0.70240 0.41582 0.70308
 C1512 C 0.72525 0.46151 0.72567
 H1513 H 0.73071 0.43331 0.69133
 H1514 H 0.74418 0.45940 0.70447
 H1515 H 0.70427 0.45935 0.74484
 H1516 H 0.69095 0.43326 0.73154
 C1517 C 0.70996 -0.06847 0.21049
 C1518 C 0.70252 -0.06093 0.22549
 C1519 C 0.71013 -0.04604 0.23303
 C1520 C 0.69626 -0.09724 0.19679
 C1521 C 0.73254 -0.04604 0.21042
 C1522 C 0.72490 -0.06093 0.20291
 C1523 C 0.70246 -0.08411 0.20305
 C1524 C 0.72532 -0.03851 0.22566
 H1525 H 0.69097 -0.06669 0.23147
 H1526 H 0.70430 -0.04063 0.24480
 H1527 H 0.74427 -0.04063 0.20448
 H1528 H 0.73078 -0.06668 0.19131
 C1529 C 0.20973 0.43178 0.21029
 C1530 C 0.22468 0.43932 0.20272
 C1531 C 0.23231 0.45422 0.21022
 C1532 C 0.19603 0.40302 0.19656
 C1533 C 0.20991 0.45421 0.23284
 C1534 C 0.20231 0.43930 0.22530
 C1535 C 0.20221 0.41616 0.20282
 C1536 C 0.22509 0.46175 0.22545
 H1537 H 0.23056 0.43356 0.19113
 H1538 H 0.24402 0.45965 0.20426
 H1539 H 0.20408 0.45963 0.24460
 H1540 H 0.19077 0.43354 0.23130
 C1541 C 0.20991 -0.06835 0.71020
 C1542 C 0.20250 -0.06087 0.72524
 C1543 C 0.21015 -0.04604 0.73285
 C1544 C 0.19617 -0.09707 0.69644
 C1545 C 0.23254 -0.04597 0.71022
 C1546 C 0.22486 -0.06080 0.70264
 C1547 C 0.20238 -0.08395 0.70271
 C1548 C 0.22535 -0.03850 0.72550
 H1549 H 0.19095 -0.06664 0.73122
 H1550 H 0.20435 -0.04067 0.74466
 H1551 H 0.24427 -0.04055 0.70429
 H1552 H 0.23072 -0.06651 0.69102
 C1553 C 0.28984 0.28977 0.43174
 C1554 C 0.29737 0.27479 0.43928
 C1555 C 0.28983 0.26723 0.45419
 C1556 C 0.30360 0.30353 0.40302
 C1557 C 0.26729 0.28976 0.45420
 C1558 C 0.27485 0.29730 0.43928
 C1559 C 0.29734 0.29727 0.41612
 C1560 C 0.27462 0.27456 0.46175
 H1561 H 0.30894 0.26884 0.43351
 H1562 H 0.29573 0.25548 0.45960
 H1563 H 0.25553 0.29567 0.45962
 H1564 H 0.26890 0.30887 0.43352
 C1565 C 0.29028 0.78985 -0.06857
 C1566 C 0.27529 0.79736 -0.06102
 C1567 C 0.26772 0.78982 -0.04610
 C1568 C 0.30406 0.80369 -0.09726
 C1569 C 0.29026 0.76729 -0.04611
 C1570 C 0.29780 0.77486 -0.06103
 C1571 C 0.29780 0.79739 -0.08417
 C1572 C 0.27505 0.77462 -0.03854
 H1573 H 0.26933 0.80893 -0.06678
 H1574 H 0.25597 0.79573 -0.04068
 H1575 H 0.29617 0.75554 -0.04069
 H1576 H 0.30938 0.76891 -0.06679
 C1577 C 0.78963 0.29031 -0.06833
 C1578 C 0.79722 0.27534 -0.06084
 C1579 C 0.78972 0.26771 -0.04594
 C1580 C 0.80330 0.30415 -0.09705
 C1581 C 0.76711 0.29017 -0.04584
 C1582 C 0.77464 0.29777 -0.06074
 C1583 C 0.79708 0.29787 -0.08394
 C1584 C 0.77450 0.27497 -0.03834
 H1585 H 0.80881 0.26944 -0.06664
 H1586 H 0.79568 0.25597 -0.04056
 H1587 H 0.75534 0.29603 -0.04039
 H1588 H 0.76863 0.30934 -0.06647
 C1589 C 0.78969 0.79020 0.43172
 C1590 C 0.79726 0.77523 0.43924
 C1591 C 0.78976 0.76764 0.45416
 C1592 C 0.80334 0.80397 0.40296
 C1593 C 0.76718 0.79013 0.45423
 C1594 C 0.77470 0.79769 0.43931
 C1595 C 0.79713 0.79772 0.41609
 C1596 C 0.77455 0.77493 0.46176
 H1597 H 0.80883 0.76930 0.43344
 H1598 H 0.79570 0.75589 0.45955
 H1599 H 0.75542 0.79601 0.45968
 H1600 H 0.76872 0.80926 0.43357
 C1601 C 0.71010 0.28975 0.56825
 C1602 C 0.70255 0.27481 0.56071
 C1603 C 0.71006 0.26724 0.54579
 C1604 C 0.69634 0.30359 0.59694
 C1605 C 0.73265 0.28967 0.54578
 C1606 C 0.72511 0.29721 0.56070
 C1607 C 0.70260 0.29730 0.58385
 C1608 C 0.72528 0.27451 0.53822
 H1609 H 0.69096 0.26891 0.56648
 H1610 H 0.70413 0.25552 0.54037
 H1611 H 0.74442 0.29553 0.54035
 H1612 H 0.73109 0.30875 0.56646
 C1613 C 0.71024 0.78998 1.06843
 C1614 C 0.70269 0.77506 1.06086
 C1615 C 0.71020 0.76752 1.04592
 C1616 C 0.69649 0.80369 1.09716
 C1617 C 0.73277 0.78997 1.04594
 C1618 C 0.72523 0.79748 1.06088
 C1619 C 0.70275 0.79746 1.08405
 C1620 C 0.72541 0.77482 1.03837
 H1621 H 0.69111 0.76913 1.06663
 H1622 H 0.70427 0.75581 1.04049
 H1623 H 0.74453 0.79586 1.04052
 H1624 H 0.73120 0.80901 1.06667
 C1625 C 0.21020 0.28993 1.06839
 C1626 C 0.22518 0.29741 1.06082
 C1627 C 0.23271 0.28986 1.04589
 C1628 C 0.19647 0.30370 1.09711
 C1629 C 0.21014 0.26742 1.04594
 C1630 C 0.20264 0.27499 1.06087
 C1631 C 0.20272 0.29744 1.08401
 C1632 C 0.22534 0.27469 1.03835
 H1633 H 0.23116 0.30895 1.06657
 H1634 H 0.24447 0.29572 1.04045
 H1635 H 0.20420 0.25569 1.04054
 H1636 H 0.19107 0.26907 1.06666
 C1637 C 0.21019 0.79016 0.56817
 C1638 C 0.22517 0.79766 0.56062
 C1639 C 0.23274 0.79013 0.54570
 C1640 C 0.19643 0.80387 0.59690
 C1641 C 0.21019 0.76766 0.54571
 C1642 C 0.20266 0.77522 0.56062
 C1643 C 0.20269 0.79764 0.58378
 C1644 C 0.22539 0.77496 0.53814
 H1645 H 0.23113 0.80921 0.56640
 H1646 H 0.24449 0.79601 0.54028
 H1647 H 0.20427 0.75593 0.54029
 H1648 H 0.19108 0.76928 0.56640
 C1649 C 0.28988 0.71024 0.56824
 C1650 C 0.29742 0.72519 0.56069
 C1651 C 0.28990 0.73276 0.54576
 C1652 C 0.30367 0.69641 0.59693
 C1653 C 0.26734 0.71031 0.54578
 C1654 C 0.27489 0.70276 0.56070
 C1655 C 0.29739 0.70270 0.58384
 C1656 C 0.27470 0.72547 0.53820
 H1657 H 0.30900 0.73111 0.56645
 H1658 H 0.29582 0.74449 0.54034
 H1659 H 0.25558 0.70444 0.54036
 H1660 H 0.26891 0.69122 0.56648
 C1661 C 0.28982 0.20994 1.06834
 C1662 C 0.29734 0.22489 1.06077
 C1663 C 0.28979 0.23244 1.04586
 C1664 C 0.30369 0.19618 1.09700
 C1665 C 0.26724 0.20998 1.04594
 C1666 C 0.27482 0.20245 1.06085
 C1667 C 0.29738 0.20244 1.08392
 C1668 C 0.27457 0.22514 1.03834
 H1669 H 0.30893 0.23082 1.06651
 H1670 H 0.29570 0.24417 1.04042
 H1671 H 0.25547 0.20410 1.04055
 H1672 H 0.26887 0.19090 1.06664
 C1673 C 0.78979 0.71005 1.06840
 C1674 C 0.79734 0.72499 1.06086
 C1675 C 0.78983 0.73256 1.04593
 C1676 C 0.80352 0.69632 1.09714
 C1677 C 0.76728 0.71009 1.04593
 C1678 C 0.77481 0.70256 1.06086
 C1679 C 0.79727 0.70255 1.08402
 C1680 C 0.77464 0.72527 1.03836
 H1681 H 0.80891 0.73092 1.06664
 H1682 H 0.79576 0.74428 1.04051
 H1683 H 0.75553 0.70422 1.04050
 H1684 H 0.76884 0.69101 1.06663
 C1685 C 0.78976 0.20981 0.56818
 C1686 C 0.79729 0.22476 0.56063
 C1687 C 0.78976 0.23231 0.54570
 C1688 C 0.80353 0.19613 0.59691
 C1689 C 0.76723 0.20983 0.54572
 C1690 C 0.77478 0.20231 0.56065
 C1691 C 0.79726 0.20234 0.58380
 C1692 C 0.77456 0.22500 0.53815
 H1693 H 0.80885 0.23071 0.56640
 H1694 H 0.79567 0.24405 0.54028
 H1695 H 0.75548 0.20394 0.54031
 H1696 H 0.76882 0.19076 0.56644
 C1697 C 0.71010 0.71022 0.43185
 C1698 C 0.72510 0.70272 0.43939
 C1699 C 0.73265 0.71027 0.45429
 C1700 C 0.69639 0.69644 0.40314
 C1701 C 0.71007 0.73276 0.45428
 C1702 C 0.70255 0.72518 0.43937
 C1703 C 0.70262 0.70271 0.41624
 C1704 C 0.72529 0.72546 0.46183
 H1705 H 0.73108 0.69116 0.43363
 H1706 H 0.74442 0.70438 0.45970
 H1707 H 0.70415 0.74450 0.45968
 H1708 H 0.69096 0.73112 0.43360
 C1709 C 0.71015 0.21006 -0.06833
 C1710 C 0.70256 0.22502 -0.06082
 C1711 C 0.71006 0.23263 -0.04592
 C1712 C 0.69644 0.19613 -0.09699
 C1713 C 0.73269 0.21020 -0.04588
 C1714 C 0.72517 0.20262 -0.06078
 C1715 C 0.70267 0.20247 -0.08391
 C1716 C 0.72529 0.22538 -0.03835
 H1717 H 0.69095 0.23091 -0.06659
 H1718 H 0.70410 0.24436 -0.04052
 H1719 H 0.74448 0.20435 -0.04046
 H1720 H 0.73118 0.19107 -0.06652
 C1721 C 0.21028 0.71009 -0.06831
 C1722 C 0.20278 0.72509 -0.06081
 C1723 C 0.21034 0.73267 -0.04593
 C1724 C 0.19651 0.69633 -0.09699
 C1725 C 0.23285 0.71011 -0.04589
 C1726 C 0.22526 0.70255 -0.06077
 C1727 C 0.20277 0.70258 -0.08390
 C1728 C 0.22554 0.72533 -0.03837
 H1729 H 0.19122 0.73106 -0.06659
 H1730 H 0.20446 0.74445 -0.04054
 H1731 H 0.24460 0.70419 -0.04046
 H1732 H 0.23119 0.69096 -0.06651
 C1733 C 0.21003 0.21002 0.43178
 C1734 C 0.20250 0.22500 0.43930
 C1735 C 0.21003 0.23256 0.45421
 C1736 C 0.19632 0.19628 0.40306
 C1737 C 0.23257 0.21003 0.45423
 C1738 C 0.22501 0.20250 0.43933
 C1739 C 0.20255 0.20253 0.41617
 C1740 C 0.22523 0.22522 0.46178
 H1741 H 0.19093 0.23096 0.43353
 H1742 H 0.20411 0.24431 0.45962
 H1743 H 0.24432 0.20412 0.45966
 H1744 H 0.23098 0.19093 0.43357
 C1745 C 0.29009 0.43163 0.71020
 C1746 C 0.29755 0.43913 0.72519
 C1747 C 0.28997 0.45405 0.73274
 C1748 C 0.30377 0.40283 0.69644
 C1749 C 0.26754 0.45414 0.71018
 C1750 C 0.27514 0.43922 0.70265
 C1751 C 0.29758 0.41598 0.70272
 C1752 C 0.27479 0.46165 0.72539
 H1753 H 0.30910 0.43332 0.73116
 H1754 H 0.29581 0.45944 0.74451
 H1755 H 0.25581 0.45959 0.70426
 H1756 H 0.26924 0.43348 0.69108
 C1757 C 0.29038 0.93192 0.20997
 C1758 C 0.27540 0.93948 0.20246
 C1759 C 0.26771 0.95432 0.21006
 C1760 C 0.30414 0.90323 0.19610
 C1761 C 0.29013 0.95422 0.23263
 C1762 C 0.29779 0.93938 0.22500
 C1763 C 0.29792 0.91634 0.20242
 C1764 C 0.27492 0.96178 0.22532
 H1765 H 0.26954 0.93378 0.19084
 H1766 H 0.25596 0.95975 0.20415
 H1767 H 0.29595 0.95958 0.24442
 H1768 H 0.30937 0.93360 0.23094
 C1769 C 0.79038 0.43196 0.21013
 C1770 C 0.79781 0.43946 0.22514
 C1771 C 0.79016 0.45432 0.23274
 C1772 C 0.80399 0.40311 0.19643
 C1773 C 0.76775 0.45439 0.21016
 C1774 C 0.77542 0.43953 0.20259
 C1775 C 0.79786 0.41629 0.20267
 C1776 C 0.77495 0.46187 0.22542
 H1777 H 0.80939 0.43368 0.23109
 H1778 H 0.79598 0.45969 0.24452
 H1779 H 0.75600 0.45981 0.20425
 H1780 H 0.76955 0.43381 0.19098
 C1781 C 0.79022 0.93213 0.71022
 C1782 C 0.79764 0.93961 0.72524
 C1783 C 0.78997 0.95445 0.73289
 C1784 C 0.80397 0.90336 0.69639
 C1785 C 0.76753 0.95453 0.71034
 C1786 C 0.77523 0.93969 0.70272
 C1787 C 0.79776 0.91651 0.70269
 C1788 C 0.77473 0.96200 0.72560
 H1789 H 0.80922 0.93384 0.73118
 H1790 H 0.79579 0.95981 0.74468
 H1791 H 0.75577 0.95995 0.70444
 H1792 H 0.76935 0.93399 0.69111
 C1793 C 0.70994 0.56825 0.71051
 C1794 C 0.70250 0.56071 0.72551
 C1795 C 0.71010 0.54578 0.73304
 C1796 C 0.69618 0.59702 0.69675
 C1797 C 0.73250 0.54573 0.71045
 C1798 C 0.72488 0.56067 0.70294
 C1799 C 0.70240 0.58389 0.70303
 C1800 C 0.72527 0.53819 0.72567
 H1801 H 0.69095 0.56649 0.73150
 H1802 H 0.70425 0.54036 0.74481
 H1803 H 0.74423 0.54029 0.70450
 H1804 H 0.73077 0.56641 0.69135
 C1805 C 0.70997 0.06788 0.21016
 C1806 C 0.70253 0.06041 0.22519
 C1807 C 0.71016 0.04555 0.23282
 C1808 C 0.69627 0.09666 0.19636
 C1809 C 0.73259 0.04543 0.21024
 C1810 C 0.72493 0.06029 0.20264
 C1811 C 0.70246 0.08351 0.20265
 C1812 C 0.72537 0.03797 0.22551
 H1813 H 0.69096 0.06621 0.23114
 H1814 H 0.70433 0.04019 0.24461
 H1815 H 0.74433 0.03999 0.20433
 H1816 H 0.73082 0.06600 0.19103
 C1817 C 0.20967 0.56821 0.21005
 C1818 C 0.20222 0.56072 0.22506
 C1819 C 0.20984 0.54584 0.23267
 C1820 C 0.19598 0.59702 0.19631
 C1821 C 0.23228 0.54576 0.21010
 C1822 C 0.22464 0.56064 0.20252
 C1823 C 0.20217 0.58386 0.20257
 C1824 C 0.22505 0.53827 0.22535
 H1825 H 0.19066 0.56651 0.23102
 H1826 H 0.20400 0.54047 0.24445
 H1827 H 0.24403 0.54032 0.20419
 H1828 H 0.23053 0.56636 0.19092
 C1829 C 0.20981 0.06783 0.71038
 C1830 C 0.20243 0.06033 0.72543
 C1831 C 0.21011 0.04547 0.73303
 C1832 C 0.19592 0.09654 0.69652
 C1833 C 0.23250 0.04544 0.71042
 C1834 C 0.22479 0.06029 0.70284
 C1835 C 0.20219 0.08343 0.70284
 C1836 C 0.22533 0.03792 0.72568
 H1837 H 0.19085 0.06608 0.73140
 H1838 H 0.20431 0.04007 0.74482
 H1839 H 0.24424 0.04002 0.70448
 H1840 H 0.23064 0.06602 0.69122
 C1841 C 0.29013 0.56834 0.28956
 C1842 C 0.29758 0.56078 0.27458
 C1843 C 0.29001 0.54585 0.26708
 C1844 C 0.30372 0.59720 0.30315
 C1845 C 0.26760 0.54586 0.28968
 C1846 C 0.27519 0.56079 0.29715
 C1847 C 0.29759 0.58402 0.29695
 C1848 C 0.27485 0.53830 0.27447
 H1849 H 0.30913 0.56655 0.26858
 H1850 H 0.29587 0.54041 0.25533
 H1851 H 0.25588 0.54044 0.29564
 H1852 H 0.26930 0.56657 0.30872
 C1853 C 0.29018 0.06811 0.78970
 C1854 C 0.27531 0.06048 0.79732
 C1855 C 0.26781 0.04547 0.78989
 C1856 C 0.30380 0.09691 0.80343
 C1857 C 0.29018 0.04559 0.76726
 C1858 C 0.29765 0.06059 0.77471
 C1859 C 0.29764 0.08377 0.79716
 C1860 C 0.27509 0.03793 0.77470
 H1861 H 0.26939 0.06623 0.80889
 H1862 H 0.25613 0.03999 0.79587
 H1863 H 0.29603 0.04019 0.75549
 H1864 H 0.30914 0.06644 0.76868
 C1865 C 0.79035 0.56822 0.78983
 C1866 C 0.79778 0.56067 0.77484
 C1867 C 0.79019 0.54575 0.76731
 C1868 C 0.80412 0.59696 0.80361
 C1869 C 0.76779 0.54574 0.78991
 C1870 C 0.77541 0.56066 0.79741
 C1871 C 0.79788 0.58385 0.79731
 C1872 C 0.77503 0.53818 0.77469
 H1873 H 0.80933 0.56644 0.76884
 H1874 H 0.79602 0.54035 0.75553
 H1875 H 0.75606 0.54033 0.79586
 H1876 H 0.76953 0.56641 0.80900
 C1877 C 0.79047 0.06804 0.28969
 C1878 C 0.79792 0.06046 0.27473
 C1879 C 0.79035 0.04552 0.26725
 C1880 C 0.80407 0.09691 0.30327
 C1881 C 0.76795 0.04555 0.28987
 C1882 C 0.77555 0.06049 0.29731
 C1883 C 0.79793 0.08373 0.29707
 C1884 C 0.77518 0.03798 0.27466
 H1885 H 0.80945 0.06622 0.26871
 H1886 H 0.79618 0.04008 0.25550
 H1887 H 0.75623 0.04014 0.29584
 H1888 H 0.76966 0.06628 0.30889
 C1889 C 0.70989 0.43162 0.28964
 C1890 C 0.70241 0.43918 0.27469
 C1891 C 0.70995 0.45413 0.26718
 C1892 C 0.69624 0.40278 0.30325
 C1893 C 0.73236 0.45415 0.28977
 C1894 C 0.72479 0.43920 0.29725
 C1895 C 0.70244 0.41593 0.29704
 C1896 C 0.72509 0.46171 0.27457
 H1897 H 0.69087 0.43340 0.26872
 H1898 H 0.70412 0.45952 0.25540
 H1899 H 0.74409 0.45957 0.29570
 H1900 H 0.73068 0.43345 0.30884
 C1901 C 0.70988 0.93175 0.78977
 C1902 C 0.72477 0.93933 0.79737
 C1903 C 0.73230 0.95433 0.78995
 C1904 C 0.69619 0.90298 0.80349
 C1905 C 0.70990 0.95431 0.76735
 C1906 C 0.70240 0.93932 0.77481
 C1907 C 0.70239 0.91610 0.79721
 C1908 C 0.72502 0.96192 0.77477
 H1909 H 0.73069 0.93354 0.80893
 H1910 H 0.74400 0.95977 0.79591
 H1911 H 0.70405 0.95975 0.75560
 H1912 H 0.69090 0.93351 0.76879
 C1913 C 0.20973 0.43157 0.78975
 C1914 C 0.20230 0.43911 0.77474
 C1915 C 0.20990 0.45402 0.76719
 C1916 C 0.19598 0.40281 0.80350
 C1917 C 0.23229 0.45404 0.78978
 C1918 C 0.22466 0.43913 0.79731
 C1919 C 0.20220 0.41594 0.79723
 C1920 C 0.22507 0.46158 0.77455
 H1921 H 0.19076 0.43334 0.76876
 H1922 H 0.20407 0.45943 0.75542
 H1923 H 0.24401 0.45946 0.79572
 H1924 H 0.23055 0.43338 0.80890
 C1925 C 0.20984 0.93167 0.28954
 C1926 C 0.20241 0.93922 0.27455
 C1927 C 0.20999 0.95415 0.26704
 C1928 C 0.19607 0.90296 0.30328
 C1929 C 0.23237 0.95414 0.28966
 C1930 C 0.22477 0.93922 0.29713
 C1931 C 0.20231 0.91606 0.29700
 C1932 C 0.22514 0.96171 0.27444
 H1933 H 0.19088 0.93344 0.26855
 H1934 H 0.20416 0.95957 0.25527
 H1935 H 0.24408 0.95957 0.29562
 H1936 H 0.23064 0.93344 0.30872
 C1937 C 0.43159 0.29007 0.71025
 C1938 C 0.43917 0.27512 0.70272
 C1939 C 0.45408 0.26749 0.71026
 C1940 C 0.40279 0.30379 0.69648
 C1941 C 0.45402 0.28990 0.73282
 C1942 C 0.43910 0.29750 0.72525
 C1943 C 0.41594 0.29758 0.70276
 C1944 C 0.46160 0.27472 0.72548
 H1945 H 0.43343 0.26924 0.69113
 H1946 H 0.45952 0.25576 0.70434
 H1947 H 0.45941 0.29573 0.74459
 H1948 H 0.43331 0.30905 0.73121
 C1949 C 0.43176 0.79041 0.21022
 C1950 C 0.43936 0.77547 0.20268
 C1951 C 0.45425 0.76783 0.21024
 C1952 C 0.40306 0.80417 0.19633
 C1953 C 0.45412 0.79020 0.23285
 C1954 C 0.43922 0.79781 0.22526
 C1955 C 0.41616 0.79795 0.20268
 C1956 C 0.46172 0.77504 0.22550
 H1957 H 0.43365 0.76962 0.19106
 H1958 H 0.45971 0.75612 0.20431
 H1959 H 0.45948 0.79601 0.24464
 H1960 H 0.43342 0.80935 0.23122
 C1961 C 0.93171 0.29045 0.21025
 C1962 C 0.93931 0.27555 0.20266
 C1963 C 0.95423 0.26791 0.21019
 C1964 C 0.90284 0.30407 0.19655
 C1965 C 0.95413 0.29025 0.23282
 C1966 C 0.93921 0.29786 0.22527
 C1967 C 0.91602 0.29793 0.20281
 C1968 C 0.96172 0.27509 0.22545
 H1969 H 0.93359 0.26969 0.19106
 H1970 H 0.95968 0.25620 0.20424
 H1971 H 0.95951 0.29605 0.24461
 H1972 H 0.93340 0.30939 0.23126
 C1973 C 0.93178 0.79046 0.71017
 C1974 C 0.93937 0.77553 0.70261
 C1975 C 0.95428 0.76790 0.71015
 C1976 C 0.90297 0.80419 0.69643
 C1977 C 0.95418 0.79027 0.73275
 C1978 C 0.93927 0.79788 0.72518
 C1979 C 0.91613 0.79798 0.70269
 C1980 C 0.96178 0.77510 0.72540
 H1981 H 0.93364 0.76966 0.69101
 H1982 H 0.95973 0.75618 0.70422
 H1983 H 0.95957 0.79608 0.74453
 H1984 H 0.93347 0.80941 0.73116
 C1985 C 0.56852 0.29008 0.28952
 C1986 C 0.56096 0.27518 0.29714
 C1987 C 0.54605 0.26754 0.28965
 C1988 C 0.59731 0.30382 0.30317
 C1989 C 0.54604 0.28988 0.26701
 C1990 C 0.56095 0.29750 0.27453
 C1991 C 0.58418 0.29759 0.29693
 C1992 C 0.53848 0.27474 0.27442
 H1993 H 0.56671 0.26934 0.30876
 H1994 H 0.54066 0.25581 0.29560
 H1995 H 0.54064 0.29567 0.25521
 H1996 H 0.56670 0.30904 0.26853
 C1997 C 0.56833 0.79041 0.78984
 C1998 C 0.56078 0.77548 0.79743
 C1999 C 0.54585 0.76786 0.78994
 C2000 C 0.59710 0.80416 0.80361
 C2001 C 0.54584 0.79023 0.76733
 C2002 C 0.56077 0.79782 0.77484
 C2003 C 0.58397 0.79794 0.79732
 C2004 C 0.53828 0.77508 0.77472
 H2005 H 0.56655 0.76961 0.80902
 H2006 H 0.54044 0.75615 0.79591
 H2007 H 0.54042 0.79605 0.75556
 H2008 H 0.56654 0.80936 0.76884
 C2009 C 0.06815 0.29013 0.78980
 C2010 C 0.06064 0.29752 0.77476
 C2011 C 0.04573 0.28993 0.76722
 C2012 C 0.09693 0.30386 0.80354
 C2013 C 0.04564 0.26762 0.78990
 C2014 C 0.06056 0.27524 0.79741
 C2015 C 0.08379 0.29765 0.79727
 C2016 C 0.03813 0.27480 0.77464
 H2017 H 0.06645 0.30903 0.76874
 H2018 H 0.04034 0.29572 0.75542
 H2019 H 0.04019 0.25593 0.79588
 H2020 H 0.06629 0.26939 0.80903
 C2021 C 0.06832 0.79035 0.28954
 C2022 C 0.06078 0.79773 0.27451
 C2023 C 0.04586 0.79011 0.26700
 C2024 C 0.09705 0.80413 0.30331
 C2025 C 0.04585 0.76780 0.28968
 C2026 C 0.06076 0.77544 0.29716
 C2027 C 0.08394 0.79790 0.29701
 C2028 C 0.03829 0.77498 0.27444
 H2029 H 0.06655 0.80924 0.26849
 H2030 H 0.04044 0.79590 0.25522
 H2031 H 0.04042 0.75611 0.29567
 H2032 H 0.06653 0.76960 0.30877
 C2033 C 0.56834 0.70990 0.71058
 C2034 C 0.56078 0.70249 0.72557
 C2035 C 0.54585 0.71011 0.73312
 C2036 C 0.59711 0.69609 0.69680
 C2037 C 0.54585 0.73250 0.71052
 C2038 C 0.56078 0.72485 0.70301
 C2039 C 0.58398 0.70234 0.70309
 C2040 C 0.53829 0.72529 0.72575
 H2041 H 0.56654 0.69093 0.73156
 H2042 H 0.54042 0.70428 0.74488
 H2043 H 0.54042 0.74422 0.70457
 H2044 H 0.56654 0.73072 0.69141
 C2045 C 0.56845 0.20946 0.21023
 C2046 C 0.56094 0.20206 0.22525
 C2047 C 0.54603 0.20968 0.23281
 C2048 C 0.59725 0.19573 0.19648
 C2049 C 0.54596 0.23204 0.21018
 C2050 C 0.56087 0.22439 0.20265
 C2051 C 0.58410 0.20194 0.20275
 C2052 C 0.53844 0.22485 0.22543
 H2053 H 0.56673 0.19053 0.23124
 H2054 H 0.54063 0.20388 0.24460
 H2055 H 0.54051 0.24376 0.20423
 H2056 H 0.56661 0.23025 0.19104
 C2057 C 0.06826 0.70986 0.21023
 C2058 C 0.06063 0.72477 0.20265
 C2059 C 0.04571 0.73238 0.21019
 C2060 C 0.09707 0.69616 0.19646
 C2061 C 0.04586 0.71005 0.23284
 C2062 C 0.06078 0.70246 0.22527
 C2063 C 0.08392 0.70236 0.20274
 C2064 C 0.03823 0.72518 0.22546
 H2065 H 0.06634 0.73064 0.19103
 H2066 H 0.04023 0.74408 0.20424
 H2067 H 0.04050 0.70424 0.24464
 H2068 H 0.06661 0.69094 0.23126
 C2069 C 0.06814 0.20959 0.71044
 C2070 C 0.06063 0.20221 0.72547
 C2071 C 0.04570 0.20983 0.73301
 C2072 C 0.09688 0.19573 0.69664
 C2073 C 0.04564 0.23216 0.71036
 C2074 C 0.06057 0.22452 0.70285
 C2075 C 0.08376 0.20201 0.70294
 C2076 C 0.03811 0.22498 0.72561
 H2077 H 0.06642 0.19069 0.73148
 H2078 H 0.04030 0.20403 0.74480
 H2079 H 0.04019 0.24387 0.70439
 H2080 H 0.06631 0.23037 0.69124
 C2081 C 0.43167 0.70971 0.28978
 C2082 C 0.43918 0.70238 0.27472
 C2083 C 0.45403 0.71008 0.26713
 C2084 C 0.40310 0.69572 0.30372
 C2085 C 0.45399 0.73241 0.28977
 C2086 C 0.43914 0.72469 0.29732
 C2087 C 0.41615 0.70204 0.29737
 C2088 C 0.46156 0.72524 0.27453
 H2089 H 0.43346 0.69083 0.26873
 H2090 H 0.45946 0.70430 0.25534
 H2091 H 0.45937 0.74413 0.29572
 H2092 H 0.43338 0.73051 0.30894
 C2093 C 0.43147 0.20961 0.78966
 C2094 C 0.43904 0.20220 0.77467
 C2095 C 0.45397 0.20981 0.76715
 C2096 C 0.40271 0.19582 0.80344
 C2097 C 0.45392 0.23217 0.78975
 C2098 C 0.43899 0.22454 0.79723
 C2099 C 0.41584 0.20205 0.79715
 C2100 C 0.46152 0.22496 0.77454
 H2101 H 0.43329 0.19066 0.76867
 H2102 H 0.45942 0.20399 0.75538
 H2103 H 0.45932 0.24390 0.79569
 H2104 H 0.43320 0.23041 0.80882
 C2105 C 0.93168 0.70992 0.78966
 C2106 C 0.93922 0.72484 0.79725
 C2107 C 0.95413 0.73250 0.78974
 C2108 C 0.90298 0.69606 0.80347
 C2109 C 0.95415 0.71016 0.76711
 C2110 C 0.93924 0.70253 0.77465
 C2111 C 0.91607 0.70234 0.79715
 C2112 C 0.96169 0.72531 0.77451
 H2113 H 0.93345 0.73068 0.80886
 H2114 H 0.95952 0.74421 0.79569
 H2115 H 0.95956 0.70438 0.75532
 H2116 H 0.93349 0.69100 0.76865
 C2117 C 0.93162 0.20966 0.28949
 C2118 C 0.93922 0.20230 0.27449
 C2119 C 0.95414 0.20995 0.26700
 C2120 C 0.90280 0.19591 0.30313
 C2121 C 0.95404 0.23226 0.28967
 C2122 C 0.93913 0.22458 0.29713
 C2123 C 0.91596 0.20211 0.29690
 C2124 C 0.96164 0.22511 0.27443
 H2125 H 0.93349 0.19077 0.26846
 H2126 H 0.95960 0.20418 0.25522
 H2127 H 0.95942 0.24396 0.29566
 H2128 H 0.93332 0.23039 0.30873
 C2129 C 0.28981 0.28984 0.56827
 C2130 C 0.29734 0.27485 0.56076
 C2131 C 0.28980 0.26727 0.54587
 C2132 C 0.30356 0.30363 0.59695
 C2133 C 0.26726 0.28980 0.54584
 C2134 C 0.27482 0.29735 0.56073
 C2135 C 0.29730 0.29735 0.58387
 C2136 C 0.27460 0.27459 0.53831
 H2137 H 0.30892 0.26891 0.56654
 H2138 H 0.29572 0.25552 0.54048
 H2139 H 0.25550 0.29569 0.54041
 H2140 H 0.26886 0.30892 0.56647
 C2141 C 0.29010 0.78998 0.06810
 C2142 C 0.27516 0.79752 0.06050
 C2143 C 0.26763 0.78998 0.04558
 C2144 C 0.30377 0.80373 0.09684
 C2145 C 0.29015 0.76742 0.04569
 C2146 C 0.29764 0.77499 0.06061
 C2147 C 0.29755 0.79749 0.08372
 C2148 C 0.27497 0.77476 0.03808
 H2149 H 0.26920 0.80911 0.06623
 H2150 H 0.25590 0.79590 0.04012
 H2151 H 0.29606 0.75566 0.04031
 H2152 H 0.30920 0.76903 0.06642
 C2153 C 0.78987 0.29009 0.06814
 C2154 C 0.79742 0.27514 0.06058
 C2155 C 0.78987 0.26755 0.04570
 C2156 C 0.80369 0.30391 0.09677
 C2157 C 0.76725 0.29001 0.04576
 C2158 C 0.77484 0.29756 0.06064
 C2159 C 0.79741 0.29763 0.08370
 C2160 C 0.77462 0.27484 0.03818
 H2161 H 0.80903 0.26922 0.06632
 H2162 H 0.79580 0.25582 0.04027
 H2163 H 0.75546 0.29588 0.04037
 H2164 H 0.76886 0.30911 0.06642
 C2165 C 0.78994 0.79016 0.56827
 C2166 C 0.79748 0.77519 0.56074
 C2167 C 0.78993 0.76761 0.54585
 C2168 C 0.80370 0.80397 0.59694
 C2169 C 0.76734 0.79008 0.54588
 C2170 C 0.77492 0.79764 0.56076
 C2171 C 0.79745 0.79769 0.58386
 C2172 C 0.77469 0.77490 0.53832
 H2173 H 0.80909 0.76927 0.56648
 H2174 H 0.79586 0.75586 0.54043
 H2175 H 0.75556 0.79596 0.54048
 H2176 H 0.76895 0.80920 0.56652
 C2177 C 0.29000 0.71006 0.43168
 C2178 C 0.29751 0.72504 0.43916
 C2179 C 0.28993 0.73268 0.45402
 C2180 C 0.30387 0.69614 0.40309
 C2181 C 0.26737 0.71023 0.45406
 C2182 C 0.27497 0.70262 0.43920
 C2183 C 0.29757 0.70246 0.41614
 C2184 C 0.27470 0.72542 0.46158
 H2185 H 0.30911 0.73094 0.43340
 H2186 H 0.29584 0.74443 0.45940
 H2187 H 0.25558 0.70439 0.45947
 H2188 H 0.26902 0.69106 0.43346
 C2189 C 0.28973 0.20974 0.93183
 C2190 C 0.29731 0.22468 0.93935
 C2191 C 0.28979 0.23228 0.95426
 C2192 C 0.30341 0.19599 0.90308
 C2193 C 0.26718 0.20988 0.95429
 C2194 C 0.27473 0.20230 0.93939
 C2195 C 0.29719 0.20223 0.91621
 C2196 C 0.27456 0.22504 0.96182
 H2197 H 0.30890 0.23056 0.93357
 H2198 H 0.29574 0.24401 0.95965
 H2199 H 0.25541 0.20404 0.95972
 H2200 H 0.26873 0.19076 0.93364
 C2201 C 0.78999 0.71004 0.93183
 C2202 C 0.77498 0.70259 0.93936
 C2203 C 0.76741 0.71015 0.95426
 C2204 C 0.80369 0.69632 0.90307
 C2205 C 0.79002 0.73256 0.95429
 C2206 C 0.79756 0.72497 0.93939
 C2207 C 0.79746 0.70256 0.91620
 C2208 C 0.77477 0.72531 0.96182
 H2209 H 0.76900 0.69106 0.93358
 H2210 H 0.75562 0.70430 0.95966
 H2211 H 0.79595 0.74427 0.95972
 H2212 H 0.80916 0.73086 0.93364
 C2213 C 0.78987 0.20975 0.43166
 C2214 C 0.79742 0.22469 0.43920
 C2215 C 0.78987 0.23228 0.45409
 C2216 C 0.80369 0.19595 0.40300
 C2217 C 0.76728 0.20986 0.45407
 C2218 C 0.77486 0.20229 0.43918
 C2219 C 0.79740 0.20222 0.41608
 C2220 C 0.77463 0.22502 0.46163
 H2221 H 0.80902 0.23059 0.43345
 H2222 H 0.79579 0.24400 0.45951
 H2223 H 0.75550 0.20400 0.45948
 H2224 H 0.76889 0.19075 0.43341
 C2225 C 0.71018 0.28988 0.43157
 C2226 C 0.72515 0.29735 0.43914
 C2227 C 0.73268 0.28978 0.45406
 C2228 C 0.69647 0.30365 0.40284
 C2229 C 0.71011 0.26733 0.45402
 C2230 C 0.70261 0.27493 0.43910
 C2231 C 0.70272 0.29739 0.41595
 C2232 C 0.72531 0.27460 0.46160
 H2233 H 0.73113 0.30890 0.43339
 H2234 H 0.74444 0.29564 0.45950
 H2235 H 0.70418 0.25560 0.45941
 H2236 H 0.69104 0.26902 0.43331
 C2237 C 0.71020 0.79016 0.93183
 C2238 C 0.72519 0.79763 0.93937
 C2239 C 0.73274 0.79006 0.95428
 C2240 C 0.69647 0.80390 0.90310
 C2241 C 0.71016 0.76763 0.95428
 C2242 C 0.70264 0.77522 0.93938
 C2243 C 0.70272 0.79766 0.91622
 C2244 C 0.72538 0.77489 0.96183
 H2245 H 0.73117 0.80917 0.93360
 H2246 H 0.74451 0.79592 0.95969
 H2247 H 0.70423 0.75590 0.95970
 H2248 H 0.69105 0.76931 0.93361
 C2249 C 0.20995 0.28986 0.93181
 C2250 C 0.22496 0.29734 0.93931
 C2251 C 0.23254 0.28979 0.95422
 C2252 C 0.19618 0.30362 0.90310
 C2253 C 0.20996 0.26735 0.95429
 C2254 C 0.20241 0.27493 0.93938
 C2255 C 0.20244 0.29737 0.91621
 C2256 C 0.22519 0.27462 0.96180
 H2257 H 0.23093 0.30888 0.93352
 H2258 H 0.24432 0.29565 0.95960
 H2259 H 0.20404 0.25563 0.95972
 H2260 H 0.19081 0.26902 0.93365
 C2261 C 0.21010 0.79018 0.43158
 C2262 C 0.22509 0.79768 0.43911
 C2263 C 0.23265 0.79014 0.45403
 C2264 C 0.19638 0.80384 0.40281
 C2265 C 0.21009 0.76768 0.45408
 C2266 C 0.20256 0.77524 0.43916
 C2267 C 0.20262 0.79764 0.41594
 C2268 C 0.22532 0.77497 0.46161
 H2269 H 0.23105 0.80922 0.43333
 H2270 H 0.24441 0.79603 0.45944
 H2271 H 0.20418 0.75596 0.45952
 H2272 H 0.19098 0.76932 0.43341
 C2273 C 0.71018 0.71017 0.56843
 C2274 C 0.70262 0.72514 0.56091
 C2275 C 0.71013 0.73272 0.54599
 C2276 C 0.69647 0.69638 0.59716
 C2277 C 0.73271 0.71024 0.54594
 C2278 C 0.72517 0.70268 0.56086
 C2279 C 0.70271 0.70265 0.58405
 C2280 C 0.72534 0.72543 0.53841
 H2281 H 0.69104 0.73107 0.56669
 H2282 H 0.70419 0.74446 0.54058
 H2283 H 0.74447 0.70435 0.54050
 H2284 H 0.73116 0.69111 0.56661
 C2285 C 0.71027 0.20996 0.06827
 C2286 C 0.70269 0.22494 0.06079
 C2287 C 0.71018 0.23256 0.04588
 C2288 C 0.69656 0.19607 0.09694
 C2289 C 0.73280 0.21011 0.04578
 C2290 C 0.72528 0.20251 0.06069
 C2291 C 0.70280 0.20238 0.08386
 C2292 C 0.72540 0.22530 0.03827
 H2293 H 0.69110 0.23084 0.06659
 H2294 H 0.70423 0.24431 0.04051
 H2295 H 0.74457 0.20426 0.04033
 H2296 H 0.73128 0.19094 0.06641
 C2297 C 0.21021 0.71018 0.06811
 C2298 C 0.20273 0.72518 0.06058
 C2299 C 0.21032 0.73275 0.04569
 C2300 C 0.19639 0.69641 0.09681
 C2301 C 0.23281 0.71018 0.04569
 C2302 C 0.22520 0.70264 0.06058
 C2303 C 0.20267 0.70267 0.08371
 C2304 C 0.22553 0.72541 0.03814
 H2305 H 0.19115 0.73115 0.06633
 H2306 H 0.20444 0.74452 0.04028
 H2307 H 0.24457 0.70426 0.04028
 H2308 H 0.23112 0.69104 0.06633
 C2309 C 0.20995 0.20991 0.56833
 C2310 C 0.20243 0.22491 0.56081
 C2311 C 0.20998 0.23250 0.54592
 C2312 C 0.19624 0.19613 0.59707
 C2313 C 0.23252 0.20997 0.54588
 C2314 C 0.22494 0.20241 0.56078
 C2315 C 0.20247 0.20239 0.58395
 C2316 C 0.22519 0.22518 0.53835
 H2317 H 0.19085 0.23086 0.56659
 H2318 H 0.20408 0.24426 0.54052
 H2319 H 0.24428 0.20408 0.54046
 H2320 H 0.23090 0.19083 0.56652
   
