data_POSCAR
  _audit_creation_date              2014-09-24
  _audit_creation_method            'ToBaCCo'
  _symmetry_space_group_name_H-M    'P1'
  _symmetry_Int_Tables_number       1
  _symmetry_cell_setting            triclinic
  loop_
  _symmetry_equiv_pos_as_xyz
 x,y,z
_cell_length_a 56.4315
_cell_length_b 55.8395
_cell_length_c 56.6668
_cell_angle_alpha 89.536300
_cell_angle_beta 90.210100
_cell_angle_gamma 90.111700
loop_
  _atom_site_label
  _atom_site_type_symbol
  _atom_site_fract_x
  _atom_site_fract_y
  _atom_site_fract_z
N1 N 0.16624 0.22532 0.22967
 N2 N 0.17415 0.20790 0.24327
 C3 C 0.15881 0.20437 0.26113
 C4 C 0.14027 0.22040 0.25853
 C5 C 0.14562 0.23342 0.23835
 H6 H 0.16064 0.19077 0.27469
 H7 H 0.13521 0.24760 0.23041
 Cu8 Cu 0.20326 0.19096 0.23585
 Cu9 Cu 0.18270 0.23560 0.20123
 Cu10 Cu 0.23379 0.20488 0.18665
 N11 N 0.23169 0.17356 0.22705
 N12 N 0.24362 0.17923 0.20792
 C13 C 0.26258 0.16477 0.20622
 C14 C 0.26251 0.14912 0.22527
 C15 C 0.24261 0.15520 0.23810
 H16 H 0.27539 0.16555 0.19210
 H17 H 0.23678 0.14705 0.25445
 N18 N 0.22103 0.23139 0.16738
 N19 N 0.20176 0.24332 0.17315
 C20 C 0.19756 0.26022 0.15658
 C21 C 0.21492 0.25879 0.13951
 C22 C 0.22951 0.24031 0.14692
 H23 H 0.18266 0.27235 0.15660
 H24 H 0.24513 0.23384 0.13805
 H25 H 0.19811 0.20273 0.19465
 H26 H 0.21620 0.22480 0.21162
 N27 N 0.67184 0.72874 0.73053
 N28 N 0.67863 0.70998 0.74297
 C29 C 0.66482 0.70802 0.76226
 C30 C 0.64847 0.72650 0.76177
 C31 C 0.65347 0.73924 0.74136
 H32 H 0.66645 0.69417 0.77559
 H33 H 0.64464 0.75524 0.73507
 Cu34 Cu 0.70485 0.69004 0.73263
 Cu35 Cu 0.68750 0.73857 0.70151
 Cu36 Cu 0.73397 0.70337 0.68243
 N37 N 0.73030 0.66983 0.72100
 N38 N 0.74194 0.67552 0.70170
 C39 C 0.75846 0.65875 0.69760
 C40 C 0.75704 0.64147 0.71515
 C41 C 0.73894 0.64906 0.72972
 H42 H 0.77022 0.65874 0.68258
 H43 H 0.73252 0.64009 0.74542
 N44 N 0.72321 0.73221 0.66531
 N45 N 0.70553 0.74565 0.67260
 C46 C 0.70205 0.76357 0.65694
 C47 C 0.71822 0.76125 0.63883
 C48 C 0.73137 0.74117 0.64474
 H49 H 0.68837 0.77701 0.65824
 H50 H 0.74569 0.73354 0.63470
 H51 H 0.69878 0.70466 0.69241
 H52 H 0.72005 0.72364 0.70937
 N53 N 0.33450 0.77637 0.72966
 N54 N 0.32690 0.79410 0.74273
 C55 C 0.34262 0.79799 0.76024
 C56 C 0.36111 0.78194 0.75793
 C57 C 0.35535 0.76849 0.73831
 H58 H 0.34108 0.81181 0.77338
 H59 H 0.36557 0.75408 0.73084
 Cu60 Cu 0.29771 0.81095 0.73497
 Cu61 Cu 0.31702 0.76512 0.70218
 Cu62 Cu 0.26471 0.79464 0.68827
 N63 N 0.26845 0.82752 0.72686
 N64 N 0.25544 0.82081 0.70880
 C65 C 0.23614 0.83486 0.70732
 C66 C 0.23711 0.85150 0.72536
 C67 C 0.25794 0.84623 0.73738
 H68 H 0.22262 0.83318 0.69388
 H69 H 0.26474 0.85507 0.75289
 N70 N 0.27707 0.76777 0.66965
 N71 N 0.29685 0.75639 0.67509
 C72 C 0.30072 0.73930 0.65893
 C73 C 0.28260 0.74001 0.64245
 C74 C 0.26792 0.75828 0.64980
 H75 H 0.31593 0.72757 0.65876
 H76 H 0.25184 0.76432 0.64125
 H77 H 0.30075 0.79738 0.69430
 H78 H 0.28394 0.77594 0.71340
 N79 N 0.83185 0.27718 0.22951
 N80 N 0.82355 0.29417 0.24308
 C81 C 0.83932 0.29860 0.26040
 C82 C 0.85870 0.28364 0.25749
 C83 C 0.85326 0.27034 0.23760
 H84 H 0.83706 0.31211 0.27374
 H85 H 0.86383 0.25645 0.22969
 Cu86 Cu 0.79325 0.30943 0.23662
 Cu87 Cu 0.81398 0.26468 0.20283
 Cu88 Cu 0.76322 0.29552 0.18709
 N89 N 0.76748 0.32931 0.22477
 N90 N 0.75559 0.32354 0.20567
 C91 C 0.73886 0.34016 0.20147
 C92 C 0.74040 0.35742 0.21877
 C93 C 0.75882 0.34997 0.23329
 H94 H 0.72681 0.34003 0.18659
 H95 H 0.76548 0.35890 0.24883
 N96 N 0.77394 0.26672 0.17052
 N97 N 0.79330 0.25488 0.17648
 C98 C 0.79558 0.23588 0.16216
 C99 C 0.77679 0.23585 0.14637
 C100 C 0.76346 0.25567 0.15222
 H101 H 0.80981 0.22298 0.16318
 H102 H 0.74706 0.26132 0.14402
 H103 H 0.79884 0.29763 0.19587
 H104 H 0.78053 0.27546 0.21284
 N105 N 0.83307 0.72503 0.26902
 N106 N 0.82886 0.70413 0.25934
 C107 C 0.84492 0.70029 0.24226
 C108 C 0.85995 0.71991 0.24114
 C109 C 0.85182 0.73527 0.25834
 H110 H 0.84572 0.68434 0.23161
 H111 H 0.85959 0.75222 0.26332
 Cu112 Cu 0.80323 0.68358 0.27029
 Cu113 Cu 0.81553 0.73631 0.29622
 Cu114 Cu 0.76606 0.70365 0.31226
 N115 N 0.77275 0.66843 0.27630
 N116 N 0.75829 0.67638 0.29257
 C117 C 0.73845 0.66298 0.29260
 C118 C 0.74055 0.64565 0.27541
 C119 C 0.76259 0.64965 0.26542
 H120 H 0.72360 0.66573 0.30425
 H121 H 0.77044 0.63995 0.25099
 N122 N 0.77700 0.73188 0.32980
 N123 N 0.79562 0.74462 0.32338
 C124 C 0.79901 0.76228 0.33907
 C125 C 0.78174 0.76051 0.35627
 C126 C 0.76806 0.74103 0.34979
 H127 H 0.81350 0.77495 0.33857
 H128 H 0.75295 0.73383 0.35913
 H129 H 0.80259 0.70372 0.30829
 H130 H 0.78473 0.71964 0.28502
 N131 N 0.32992 0.22811 -0.23148
 N132 N 0.32461 0.20797 -0.24213
 C133 C 0.34095 0.20361 -0.25880
 C134 C 0.35738 0.22213 -0.25873
 C135 C 0.34966 0.23740 -0.24118
 H136 H 0.34079 0.18817 -0.27016
 H137 H 0.35830 0.25356 -0.23519
 Cu138 Cu 0.29667 0.18974 -0.23313
 Cu139 Cu 0.31214 0.23961 -0.20438
 Cu140 Cu 0.26295 0.20613 -0.18752
 N141 N 0.26862 0.17154 -0.22438
 N142 N 0.25531 0.17823 -0.20664
 C143 C 0.23656 0.16338 -0.20493
 C144 C 0.23819 0.14646 -0.22259
 C145 C 0.25879 0.15220 -0.23456
 H146 H 0.22268 0.16495 -0.19195
 H147 H 0.26567 0.14335 -0.24997
 N148 N 0.27363 0.23495 -0.17056
 N149 N 0.29197 0.24800 -0.17730
 C150 C 0.29515 0.26591 -0.16181
 C151 C 0.27811 0.26397 -0.14442
 C152 C 0.26475 0.24417 -0.15057
 H153 H 0.30941 0.27884 -0.16251
 H154 H 0.24990 0.23677 -0.14095
 H155 H 0.29909 0.20668 -0.19374
 H156 H 0.28004 0.22480 -0.21403
 N157 N 0.66533 0.27411 -0.22840
 N158 N 0.67367 0.29097 -0.24239
 C159 C 0.65840 0.29443 -0.26041
 C160 C 0.63930 0.27904 -0.25749
 C161 C 0.64438 0.26641 -0.23689
 H162 H 0.66061 0.30775 -0.27417
 H163 H 0.63375 0.25260 -0.22862
 Cu164 Cu 0.70291 0.30773 -0.23487
 Cu165 Cu 0.68216 0.26355 -0.20009
 Cu166 Cu 0.73463 0.29306 -0.18658
 N167 N 0.73218 0.32429 -0.22705
 N168 N 0.74459 0.31843 -0.20821
 C169 C 0.76384 0.33265 -0.20694
 C170 C 0.76339 0.34838 -0.22595
 C171 C 0.74304 0.34253 -0.23832
 H172 H 0.77702 0.33177 -0.19307
 H173 H 0.73673 0.35090 -0.25441
 N174 N 0.72155 0.26689 -0.16698
 N175 N 0.70176 0.25547 -0.17230
 C176 C 0.69758 0.23865 -0.15565
 C177 C 0.71549 0.23962 -0.13897
 C178 C 0.73038 0.25774 -0.14672
 H179 H 0.68240 0.22683 -0.15539
 H180 H 0.74648 0.26375 -0.13824
 H181 H 0.69881 0.29588 -0.19359
 H182 H 0.71572 0.27352 -0.21108
 N183 N 0.17150 0.77252 0.26888
 N184 N 0.17779 0.79144 0.25645
 C185 C 0.16363 0.79320 0.23731
 C186 C 0.14755 0.77442 0.23791
 C187 C 0.15309 0.76170 0.25822
 H188 H 0.16485 0.80710 0.22398
 H189 H 0.14462 0.74550 0.26452
 Cu190 Cu 0.20386 0.81187 0.26664
 Cu191 Cu 0.18794 0.76277 0.29757
 Cu192 Cu 0.23577 0.79740 0.31500
 N193 N 0.23086 0.83109 0.27669
 N194 N 0.24355 0.82496 0.29525
 C195 C 0.26088 0.84119 0.29844
 C196 C 0.25892 0.85870 0.28105
 C197 C 0.23960 0.85162 0.26753
 H198 H 0.27340 0.84073 0.31290
 H199 H 0.23234 0.86071 0.25224
 N200 N 0.22506 0.76889 0.33269
 N201 N 0.20679 0.75576 0.32605
 C202 C 0.20343 0.73810 0.34200
 C203 C 0.22031 0.74024 0.35960
 C204 C 0.23374 0.75997 0.35312
 H205 H 0.18936 0.72497 0.34123
 H206 H 0.24857 0.76743 0.36269
 H207 H 0.20008 0.79642 0.30685
 H208 H 0.22014 0.77780 0.28836
 N209 N 0.47656 0.41730 0.47931
 N210 N 0.45903 0.42503 0.49238
 C211 C 0.45531 0.40937 0.51016
 C212 C 0.47131 0.39078 0.50813
 C213 C 0.48455 0.39641 0.48831
 H214 H 0.44157 0.41099 0.52329
 H215 H 0.49880 0.38603 0.48086
 Cu216 Cu 0.44198 0.45423 0.48446
 Cu217 Cu 0.48715 0.43458 0.45127
 Cu218 Cu 0.45632 0.48613 0.43590
 N219 N 0.42453 0.48278 0.47521
 N220 N 0.43025 0.49533 0.45635
 C221 C 0.41553 0.51421 0.45435
 C222 C 0.39965 0.51335 0.47292
 C223 C 0.40591 0.49315 0.48576
 H224 H 0.41629 0.52749 0.44039
 H225 H 0.39768 0.48673 0.50180
 N226 N 0.48324 0.47391 0.41750
 N227 N 0.49517 0.45449 0.42355
 C228 C 0.51231 0.45076 0.40752
 C229 C 0.51105 0.46859 0.39049
 C230 C 0.49241 0.48296 0.39738
 H231 H 0.52449 0.43585 0.40784
 H232 H 0.48596 0.49880 0.38838
 H233 H 0.47580 0.46814 0.46137
 H234 H 0.45460 0.44987 0.44361
 N235 N -0.02275 -0.08072 0.98024
 N236 N -0.04121 -0.07416 0.99267
 C237 C -0.04269 -0.08817 1.01208
 C238 C -0.02424 -0.10448 1.01167
 C239 C -0.01199 -0.09922 0.99118
 H240 H -0.05612 -0.08659 1.02552
 H241 H 0.00390 -0.10789 0.98497
 Cu242 Cu -0.06129 -0.04764 0.98266
 Cu243 Cu -0.01354 -0.06434 0.95132
 Cu244 Cu -0.04735 -0.01569 0.93374
 N245 N -0.07918 -0.01946 0.97298
 N246 N -0.07362 -0.00693 0.95405
 C247 C -0.08826 0.01201 0.95221
 C248 C -0.10388 0.01130 0.97099
 C249 C -0.09758 -0.00893 0.98378
 H250 H -0.08744 0.02541 0.93836
 H251 H -0.10539 -0.01509 1.00012
 N252 N -0.02003 -0.02731 0.91558
 N253 N -0.00695 -0.04561 0.92255
 C254 C 0.01062 -0.04884 0.90692
 C255 C 0.00855 -0.03181 0.88913
 C256 C -0.01121 -0.01855 0.89520
 H257 H 0.02388 -0.06270 0.90838
 H258 H -0.01867 -0.00363 0.88550
 H259 H -0.02781 -0.03152 0.96057
 H260 H -0.04686 -0.05168 0.94232
 N261 N 1.02261 0.58360 0.97723
 N262 N 1.04370 0.57922 0.98616
 C263 C 1.04744 0.59367 1.00471
 C264 C 1.02752 0.60774 1.00768
 C265 C 1.01212 0.60087 0.98989
 H266 H 1.06309 0.59331 1.01577
 H267 H 0.99447 0.60765 0.98660
 Cu268 Cu 1.06358 0.55387 0.97399
 Cu269 Cu 1.00994 0.56578 0.95062
 Cu270 Cu 1.04072 0.51482 0.93504
 N271 N 1.07840 0.52316 0.96818
 N272 N 1.06938 0.50787 0.95308
 C273 C 1.08274 0.48793 0.95306
 C274 C 1.10112 0.49084 0.96908
 C275 C 1.09775 0.51345 0.97834
 H276 H 1.07915 0.47242 0.94234
 H277 H 1.10822 0.52200 0.99190
 N278 N 1.01145 0.52520 0.91889
 N279 N 1.00016 0.54507 0.92435
 C280 C 0.98126 0.54759 0.90998
 C281 C 0.98047 0.52825 0.89494
 C282 C 0.99985 0.51439 0.90108
 H283 H 0.96866 0.56213 0.91070
 H284 H 1.00518 0.49777 0.89303
 H285 H 1.02679 0.53495 0.96208
 H286 H 1.04116 0.55180 0.93722
 N287 N 0.52045 0.07624 0.48615
 N288 N 0.54013 0.07055 0.49731
 C289 C 0.54246 0.08451 0.51642
 C290 C 0.52315 0.09967 0.51741
 C291 C 0.50947 0.09387 0.49794
 H292 H 0.55707 0.08374 0.52879
 H293 H 0.49306 0.10224 0.49245
 Cu294 Cu 0.56102 0.04563 0.48591
 Cu295 Cu 0.51138 0.06123 0.45652
 Cu296 Cu 0.55005 0.01902 0.43395
 N297 N 0.58219 0.02164 0.47317
 N298 N 0.57822 0.01173 0.45258
 C299 C 0.59580 -0.00379 0.44791
 C300 C 0.61154 -0.00369 0.46670
 C301 C 0.60234 0.01266 0.48238
 H302 H 0.59683 -0.01464 0.43224
 H303 H 0.60995 0.01775 0.49914
 N304 N 0.52055 0.02863 0.41784
 N305 N 0.50551 0.04418 0.42672
 C306 C 0.48696 0.04656 0.41186
 C307 C 0.49048 0.03182 0.39263
 C308 C 0.51203 0.02082 0.39705
 H309 H 0.47212 0.05833 0.41475
 H310 H 0.52096 0.00818 0.38586
 H311 H 0.52902 0.02920 0.46191
 H312 H 0.54568 0.05354 0.44636
 N313 N -0.02502 0.08291 0.51890
 N314 N -0.04655 0.07951 0.51064
 C315 C -0.05020 0.09421 0.49206
 C316 C -0.02979 0.10745 0.48835
 C317 C -0.01416 0.09981 0.50574
 H318 H -0.06623 0.09467 0.48156
 H319 H 0.00379 0.10599 0.50856
 Cu320 Cu -0.06734 0.05518 0.52377
 Cu321 Cu -0.01269 0.06492 0.54591
 Cu322 Cu -0.04624 0.01651 0.56447
 N323 N -0.08319 0.02503 0.53053
 N324 N -0.07487 0.00997 0.54643
 C325 C -0.08837 -0.00991 0.54661
 C326 C -0.10612 -0.00721 0.52986
 C327 C -0.10228 0.01525 0.52002
 H328 H -0.08512 -0.02537 0.55774
 H329 H -0.11205 0.02350 0.50568
 N330 N -0.01665 0.02617 0.58019
 N331 N -0.00362 0.04445 0.57300
 C332 C 0.01580 0.04595 0.58683
 C333 C 0.01490 0.02772 0.60352
 C334 C -0.00593 0.01558 0.59875
 H335 H 0.02959 0.05926 0.58483
 H336 H -0.01251 -0.00015 0.60783
 H337 H -0.03147 0.03483 0.53618
 H338 H -0.04442 0.05351 0.56024
 N339 N 0.47692 0.57714 0.01539
 N340 N 0.45767 0.57119 0.00368
 C341 C 0.45575 0.58526 -0.01563
 C342 C 0.47491 0.60071 -0.01618
 C343 C 0.48805 0.59503 0.00377
 H344 H 0.44170 0.58416 -0.02860
 H345 H 0.50435 0.60341 0.00950
 Cu346 Cu 0.43728 0.54527 0.01444
 Cu347 Cu 0.48586 0.56135 0.04493
 Cu348 Cu 0.44991 0.51459 0.06409
 N349 N 0.41744 0.51889 0.02515
 N350 N 0.42220 0.50720 0.04483
 C351 C 0.40517 0.49069 0.04866
 C352 C 0.38899 0.49201 0.03028
 C353 C 0.39739 0.51004 0.01567
 H354 H 0.40459 0.47866 0.06370
 H355 H 0.38910 0.51657 -0.00036
 N356 N 0.47867 0.52481 0.08114
 N357 N 0.49190 0.54311 0.07431
 C358 C 0.50924 0.54653 0.09035
 C359 C 0.50695 0.52940 0.10795
 C360 C 0.48749 0.51588 0.10149
 H361 H 0.52260 0.56040 0.08934
 H362 H 0.47996 0.50106 0.11133
 H363 H 0.47028 0.52883 0.03714
 H364 H 0.45221 0.55033 0.05452
 N365 N 0.52092 -0.08033 0.01764
 N366 N 0.54132 -0.07581 0.00738
 C367 C 0.54546 -0.09271 -0.00892
 C368 C 0.52656 -0.10854 -0.00896
 C369 C 0.51127 -0.10006 0.00803
 H370 H 0.56118 -0.09365 -0.01971
 H371 H 0.49489 -0.10831 0.01373
 Cu372 Cu 0.56088 -0.04878 0.01685
 Cu373 Cu 0.50974 -0.06217 0.04457
 Cu374 Cu 0.54561 -0.01577 0.06376
 N375 N 0.58058 -0.02238 0.02768
 N376 N 0.57443 -0.00954 0.04598
 C377 C 0.59104 0.00729 0.04985
 C378 C 0.60863 0.00493 0.03308
 C379 C 0.60141 -0.01415 0.01930
 H380 H 0.59055 0.02008 0.06405
 H381 H 0.61062 -0.02149 0.00433
 N382 N 0.51574 -0.02470 0.07939
 N383 N 0.50171 -0.04189 0.07169
 C384 C 0.48313 -0.04406 0.08641
 C385 C 0.48559 -0.02752 0.10436
 C386 C 0.50653 -0.01562 0.09928
 H387 H 0.46930 -0.05734 0.08465
 H388 H 0.51486 -0.00183 0.10968
 H389 H 0.52686 -0.03056 0.03611
 H390 H 0.54310 -0.05190 0.05589
 N391 N 1.02541 0.41885 0.52037
 N392 N 1.04642 0.42259 0.51108
 C393 C 1.05012 0.40644 0.49395
 C394 C 1.03029 0.39187 0.49239
 C395 C 1.01496 0.40034 0.50937
 H396 H 1.06609 0.40529 0.48355
 H397 H 0.99784 0.39297 0.51397
 Cu398 Cu 1.06722 0.44780 0.52249
 Cu399 Cu 1.01418 0.43668 0.54746
 Cu400 Cu 1.04754 0.48563 0.56423
 N401 N 1.08297 0.47809 0.52885
 N402 N 1.07523 0.49279 0.54508
 C403 C 1.08917 0.51236 0.54549
 C404 C 1.10664 0.50983 0.52859
 C405 C 1.10212 0.48782 0.51837
 H406 H 1.08669 0.52732 0.55719
 H407 H 1.11176 0.47970 0.50407
 N408 N 1.01887 0.47531 0.58121
 N409 N 1.00595 0.45682 0.57458
 C410 C 0.98817 0.45367 0.59006
 C411 C 0.98998 0.47096 0.60734
 C412 C 1.00967 0.48440 0.60112
 H413 H 0.97538 0.43926 0.58939
 H414 H 1.01705 0.49938 0.61062
 H415 H 1.03177 0.46744 0.53669
 H416 H 1.04650 0.44878 0.56015
 C417 C 0.40764 0.01359 0.21604
 H418 H 0.40743 0.03057 0.22511
 C419 C 0.42251 0.01047 0.19669
 H420 H 0.43320 0.02546 0.19123
 C421 C 0.39368 -0.02621 0.21297
 H422 H 0.38290 -0.04069 0.21978
 C423 C 0.40849 -0.03022 0.19371
 H424 H 0.40887 -0.04799 0.18629
 N425 N 0.39328 -0.00445 0.22351
 C426 C 0.34065 0.03521 0.26341
 H427 H 0.34125 0.02513 0.27979
 C428 C 0.32623 0.05539 0.26148
 H429 H 0.31595 0.06083 0.27660
 C430 C 0.35382 0.04043 0.22406
 H431 H 0.36429 0.03431 0.20938
 C432 C 0.33955 0.06069 0.22131
 H433 H 0.33922 0.06987 0.20442
 Zn434 Zn 0.37414 0.00150 0.25018
 N435 N 0.35448 0.02846 0.24505
 C436 C 0.39648 0.02942 0.28549
 N437 N 0.39487 0.00726 0.27589
 C438 C 0.40886 -0.01096 0.28366
 C439 C 0.42457 -0.00752 0.30245
 C440 C 0.41211 0.03372 0.30413
 C441 C 0.33908 -0.03220 0.23924
 C442 C 0.32291 -0.05072 0.24336
 C443 C 0.33677 -0.05296 0.28369
 C444 C 0.35286 -0.03460 0.27871
 N445 N 0.35382 -0.02472 0.25672
 H446 H 0.38600 0.04399 0.27843
 H447 H 0.40764 -0.02829 0.27534
 H448 H 0.43492 -0.02261 0.30831
 H449 H 0.41339 0.05174 0.31087
 H450 H 0.33991 -0.02373 0.22202
 H451 H 0.31181 -0.05667 0.22895
 H452 H 0.33600 -0.06017 0.30146
 H453 H 0.36411 -0.02786 0.29262
 C454 C 0.32575 0.06864 0.24030
 C455 C 0.42307 -0.01166 0.18495
 C456 C 0.32143 -0.06128 0.26592
 C457 C 0.42628 0.01504 0.31324
 C458 C 0.09348 -0.01385 0.71475
 H459 H 0.09319 -0.03036 0.72487
 C460 C 0.07911 -0.01139 0.69480
 H461 H 0.06801 -0.02628 0.68957
 C462 C 0.10857 0.02542 0.70934
 H463 H 0.11970 0.03991 0.71534
 C464 C 0.09438 0.02870 0.68932
 H465 H 0.09482 0.04579 0.68019
 N466 N 0.10814 0.00424 0.72137
 C467 C 0.16043 -0.03532 0.76284
 H468 H 0.15966 -0.02566 0.77929
 C469 C 0.17466 -0.05564 0.76106
 H470 H 0.18460 -0.06161 0.77638
 C471 C 0.14788 -0.03941 0.72315
 H472 H 0.13771 -0.03281 0.70829
 C473 C 0.16203 -0.05969 0.72052
 H474 H 0.16258 -0.06835 0.70352
 Zn475 Zn 0.12702 -0.00112 0.74857
 N476 N 0.14695 -0.02798 0.74423
 C477 C 0.10428 -0.02899 0.78385
 N478 N 0.10592 -0.00683 0.77394
 C479 C 0.09142 0.01117 0.78082
 C480 C 0.07527 0.00758 0.79915
 C481 C 0.08817 -0.03347 0.80198
 C482 C 0.16214 0.03210 0.73711
 C483 C 0.17667 0.05214 0.73974
 C484 C 0.16033 0.05784 0.77862
 C485 C 0.14600 0.03772 0.77518
 N486 N 0.14677 0.02564 0.75445
 H487 H 0.11504 -0.04347 0.77735
 H488 H 0.09250 0.02845 0.77210
 H489 H 0.06448 0.02253 0.80418
 H490 H 0.08690 -0.05158 0.80873
 H491 H 0.16271 0.02189 0.72098
 H492 H 0.18820 0.05736 0.72536
 H493 H 0.15948 0.06709 0.79530
 H494 H 0.13436 0.03179 0.78914
 C495 C 0.17537 -0.06837 0.73977
 C496 C 0.07953 0.01006 0.68166
 C497 C 0.17568 0.06555 0.76060
 C498 C 0.07357 -0.01496 0.81040
 C499 C 0.58653 0.49105 0.21971
 H500 H 0.58482 0.47590 0.23161
 C501 C 0.56962 0.49482 0.20203
 H502 H 0.55486 0.48250 0.20074
 C503 C 0.60729 0.52604 0.20804
 H504 H 0.62175 0.53842 0.21062
 C505 C 0.59107 0.53021 0.18979
 H506 H 0.59389 0.54547 0.17828
 N507 N 0.60480 0.50667 0.22252
 C508 C 0.66185 0.46858 0.25878
 H509 H 0.66246 0.47814 0.27530
 C510 C 0.67793 0.45016 0.25457
 H511 H 0.69049 0.44537 0.26828
 C512 C 0.64435 0.46330 0.22111
 H513 H 0.63147 0.46877 0.20799
 C514 C 0.66027 0.44494 0.21606
 H515 H 0.65941 0.43651 0.19894
 Zn516 Zn 0.62551 0.50105 0.24839
 N517 N 0.64544 0.47470 0.24219
 C518 C 0.60694 0.47305 0.28610
 N519 N 0.60622 0.49475 0.27507
 C520 C 0.59033 0.51173 0.28154
 C521 C 0.57445 0.50726 0.29992
 C522 C 0.59128 0.46776 0.30443
 C523 C 0.66160 0.53290 0.23619
 C524 C 0.67669 0.55259 0.23825
 C525 C 0.65907 0.56111 0.27604
 C526 C 0.64427 0.54123 0.27323
 N527 N 0.64546 0.52789 0.25329
 H528 H 0.61917 0.45949 0.28027
 H529 H 0.58982 0.52869 0.27219
 H530 H 0.56222 0.52121 0.30490
 H531 H 0.59182 0.45014 0.31254
 H532 H 0.66252 0.52168 0.22074
 H533 H 0.68897 0.55657 0.22411
 H534 H 0.65789 0.57142 0.29209
 H535 H 0.63191 0.53653 0.28700
 C536 C 0.67749 0.43819 0.23284
 C537 C 0.57162 0.51471 0.18675
 C538 C 0.67537 0.56721 0.25826
 C539 C 0.57457 0.48489 0.31149
 C540 C 0.90899 0.51053 0.71592
 H541 H 0.90821 0.52764 0.72472
 C542 C 0.92545 0.50690 0.69791
 H543 H 0.93696 0.52152 0.69272
 C544 C 0.89471 0.47085 0.71204
 H545 H 0.88314 0.45661 0.71791
 C546 C 0.91089 0.46642 0.69408
 H547 H 0.91141 0.44877 0.68633
 N548 N 0.89385 0.49270 0.72242
 C549 C 0.83445 0.52905 0.75624
 H550 H 0.83364 0.51924 0.77276
 C551 C 0.81818 0.54731 0.75158
 H552 H 0.80534 0.55172 0.76498
 C553 C 0.85248 0.53508 0.71900
 H554 H 0.86555 0.52996 0.70613
 C555 C 0.83639 0.55326 0.71349
 H556 H 0.83740 0.56190 0.69636
 Zn557 Zn 0.87237 0.49805 0.74752
 N558 N 0.85141 0.52355 0.74019
 C559 C 0.88644 0.52418 0.78843
 N560 N 0.89056 0.50467 0.77486
 C561 C 0.90821 0.48902 0.78030
 C562 C 0.92214 0.49231 0.80042
 C563 C 0.89967 0.52794 0.80894
 C564 C 0.83890 0.46373 0.73467
 C565 C 0.82500 0.44316 0.73681
 C566 C 0.84061 0.43726 0.77617
 C567 C 0.85438 0.45788 0.77319
 N568 N 0.85356 0.47041 0.75252
 H569 H 0.87275 0.53678 0.78358
 H570 H 0.91139 0.47388 0.76896
 H571 H 0.93628 0.47974 0.80403
 H572 H 0.89550 0.54318 0.81983
 H573 H 0.83837 0.47422 0.71854
 H574 H 0.81398 0.43786 0.72207
 H575 H 0.84138 0.42773 0.79286
 H576 H 0.86569 0.46385 0.78741
 C577 C 0.81892 0.55970 0.72989
 C578 C 0.92657 0.48455 0.68673
 C579 C 0.82586 0.42944 0.75771
 C580 C 0.91773 0.51178 0.81536
 C581 C 0.21333 0.41252 0.01023
 H582 H 0.22398 0.41317 0.02613
 C583 C 0.19366 0.42743 0.00778
 H584 H 0.18917 0.43940 0.02202
 C585 C 0.20624 0.39580 -0.02744
 H586 H 0.21139 0.38368 -0.04125
 C587 C 0.18637 0.41038 -0.03062
 H588 H 0.17649 0.40934 -0.04699
 N589 N 0.21900 0.39683 -0.00706
 C590 C 0.25607 0.33927 0.03000
 H591 H 0.27288 0.33916 0.02090
 C592 C 0.25169 0.32263 0.04802
 H593 H 0.26555 0.31020 0.05299
 C594 C 0.21774 0.35580 0.03443
 H595 H 0.20432 0.36835 0.02878
 C596 C 0.21254 0.33938 0.05236
 H597 H 0.19511 0.33966 0.06027
 Zn598 Zn 0.24561 0.37695 -0.00158
 N599 N 0.23929 0.35561 0.02378
 C600 C 0.28525 0.39426 0.02493
 N601 N 0.27156 0.39729 0.00534
 C602 C 0.27529 0.41587 -0.00982
 C603 C 0.29334 0.43239 -0.00555
 C604 C 0.30381 0.41013 0.02967
 C605 C 0.23590 0.34145 -0.03473
 C606 C 0.24051 0.32581 -0.05324
 C607 C 0.27882 0.34455 -0.05809
 C608 C 0.27342 0.35992 -0.03955
 N609 N 0.25226 0.35807 -0.02827
 H610 H 0.28184 0.37962 0.03699
 H611 H 0.26394 0.41803 -0.02511
 H612 H 0.29550 0.44733 -0.01763
 H613 H 0.31476 0.40691 0.04506
 H614 H 0.21932 0.34019 -0.02526
 H615 H 0.22707 0.31293 -0.05818
 H616 H 0.29599 0.34596 -0.06645
 H617 H 0.28637 0.37294 -0.03384
 C618 C 0.22960 0.32246 0.05943
 C619 C 0.17969 0.42629 -0.01275
 C620 C 0.26236 0.32700 -0.06502
 C621 C 0.30798 0.42972 0.01444
 C622 C 0.71806 0.08554 -0.00844
 H623 H 0.72638 0.08631 -0.02559
 C624 C 0.70004 0.06889 -0.00405
 H625 H 0.69435 0.05723 -0.01815
 C626 C 0.71540 0.10004 0.03062
 H627 H 0.72181 0.11174 0.04432
 C628 C 0.69744 0.08365 0.03579
 H629 H 0.69016 0.08314 0.05344
 N630 N 0.72515 0.10089 0.00872
 C631 C 0.75948 0.15877 -0.03088
 H632 H 0.77664 0.15895 -0.02230
 C633 C 0.75454 0.17517 -0.04896
 H634 H 0.76830 0.18750 -0.05448
 C635 C 0.72092 0.14225 -0.03395
 H636 H 0.70766 0.12980 -0.02766
 C637 C 0.71515 0.15847 -0.05195
 H638 H 0.69745 0.15816 -0.05936
 Zn639 Zn 0.75033 0.12243 0.00209
 N640 N 0.74281 0.14265 -0.02385
 C641 C 0.78878 0.10445 -0.02522
 N642 N 0.77745 0.10367 -0.00409
 C643 C 0.78475 0.08870 0.01349
 C644 C 0.80474 0.07442 0.01056
 C645 C 0.80880 0.09030 -0.02900
 C646 C 0.73755 0.15671 0.03518
 C647 C 0.73991 0.17137 0.05487
 C648 C 0.78026 0.15770 0.05938
 C649 C 0.77707 0.14316 0.03967
 N650 N 0.75579 0.14255 0.02832
 H651 H 0.78225 0.11589 -0.03926
 H652 H 0.77515 0.08815 0.02998
 H653 H 0.81055 0.06315 0.02509
 H654 H 0.81736 0.09102 -0.04604
 H655 H 0.72094 0.15617 0.02561
 H656 H 0.72486 0.18188 0.06043
 H657 H 0.79738 0.15797 0.06804
 H658 H 0.79164 0.13242 0.03347
 C659 C 0.73201 0.17536 -0.05963
 C660 C 0.68946 0.06777 0.01836
 C661 C 0.76140 0.17182 0.06747
 C662 C 0.81721 0.07516 -0.01086
 C663 C 0.22049 0.58701 0.48974
 H664 H 0.23101 0.58661 0.47382
 C665 C 0.20077 0.57207 0.49196
 H666 H 0.19615 0.56031 0.47755
 C667 C 0.21358 0.60334 0.52754
 H668 H 0.21880 0.61533 0.54149
 C669 C 0.19369 0.58869 0.53051
 H670 H 0.18388 0.58957 0.54686
 N671 N 0.22618 0.60264 0.50715
 C672 C 0.26252 0.65968 0.46877
 H673 H 0.27947 0.65984 0.47776
 C674 C 0.25804 0.67605 0.45053
 H675 H 0.27190 0.68840 0.44531
 C676 C 0.22399 0.64325 0.46482
 H677 H 0.21053 0.63088 0.47081
 C678 C 0.21872 0.65934 0.44660
 H679 H 0.20122 0.65901 0.43872
 Zn680 Zn 0.25227 0.62326 0.50145
 N681 N 0.24564 0.64362 0.47543
 C682 C 0.29069 0.60477 0.47455
 N683 N 0.27897 0.60380 0.49546
 C684 C 0.28585 0.58856 0.51299
 C685 C 0.30593 0.57433 0.51031
 C686 C 0.31079 0.59067 0.47102
 C687 C 0.24091 0.65862 0.53449
 C688 C 0.24501 0.67488 0.55267
 C689 C 0.28504 0.65999 0.55592
 C690 C 0.28012 0.64393 0.53781
 N691 N 0.25830 0.64343 0.52756
 H692 H 0.28451 0.61643 0.46054
 H693 H 0.27599 0.58791 0.52932
 H694 H 0.31147 0.56294 0.52485
 H695 H 0.31973 0.59163 0.45418
 H696 H 0.22384 0.65820 0.52573
 H697 H 0.23073 0.68649 0.55809
 H698 H 0.30270 0.66038 0.56344
 H699 H 0.29401 0.63235 0.53157
 C700 C 0.23580 0.67615 0.43928
 C701 C 0.18681 0.57305 0.51240
 C702 C 0.26742 0.67589 0.56355
 C703 C 0.31890 0.57542 0.48919
 C704 C 0.72275 0.91608 0.50590
 H705 H 0.73397 0.91726 0.52137
 C706 C 0.70526 0.93324 0.50189
 H707 H 0.70336 0.94766 0.51438
 C708 C 0.71266 0.89635 0.47040
 H709 H 0.71585 0.88218 0.45797
 C710 C 0.69467 0.91294 0.46587
 H711 H 0.68386 0.91079 0.45023
 N712 N 0.72617 0.89814 0.49023
 C713 C 0.76081 0.84066 0.52950
 H714 H 0.77740 0.83954 0.52008
 C715 C 0.75595 0.82455 0.54782
 H716 H 0.76920 0.81140 0.55266
 C717 C 0.72351 0.85934 0.53444
 H718 H 0.71073 0.87263 0.52886
 C719 C 0.71787 0.84352 0.55280
 H720 H 0.70072 0.84487 0.56118
 Zn721 Zn 0.75167 0.87721 0.49682
 N722 N 0.74467 0.85760 0.52320
 C723 C 0.79082 0.89533 0.52332
 N724 N 0.77846 0.89667 0.50270
 C725 C 0.78436 0.91279 0.48560
 C726 C 0.80380 0.92793 0.48856
 C727 C 0.81043 0.91016 0.52703
 C728 C 0.74063 0.84066 0.46477
 C729 C 0.74481 0.82434 0.44670
 C730 C 0.78418 0.84082 0.44244
 C731 C 0.77920 0.85688 0.46047
 N732 N 0.75766 0.85663 0.47114
 H733 H 0.78544 0.88288 0.53698
 H734 H 0.77398 0.91371 0.46953
 H735 H 0.80844 0.94030 0.47450
 H736 H 0.81991 0.90895 0.54363
 H737 H 0.72381 0.84052 0.47387
 H738 H 0.73083 0.81210 0.44169
 H739 H 0.80161 0.84109 0.43452
 H740 H 0.79280 0.86915 0.46623
 C741 C 0.73410 0.82564 0.55958
 C742 C 0.69088 0.93190 0.48162
 C743 C 0.76692 0.82417 0.43535
 C744 C 0.81726 0.92663 0.50942
 C745 C 0.00857 0.21998 0.40993
 H746 H 0.02396 0.23134 0.41216
 C747 C 0.00539 0.20006 0.42463
 H748 H 0.01832 0.19655 0.43836
 C749 C -0.02725 0.21156 0.38972
 H750 H -0.04007 0.21620 0.37627
 C751 C -0.03102 0.19132 0.40386
 H752 H -0.04656 0.18039 0.40074
 N753 N -0.00747 0.22516 0.39268
 C754 C 0.03146 0.26266 0.33732
 H755 H 0.02194 0.27944 0.33637
 C756 C 0.04969 0.25808 0.32138
 H757 H 0.05439 0.27173 0.30856
 C758 C 0.03658 0.22449 0.35515
 H759 H 0.03108 0.21119 0.36794
 C760 C 0.05487 0.21916 0.33954
 H761 H 0.06325 0.20176 0.34063
 Zn762 Zn -0.00105 0.25226 0.37336
 N763 N 0.02531 0.24597 0.35380
 C764 C 0.02520 0.29167 0.39199
 N765 N 0.00510 0.27829 0.39371
 C766 C -0.01093 0.28222 0.41108
 C767 C -0.00695 0.30000 0.42780
 C768 C 0.02973 0.30990 0.40815
 C769 C -0.03279 0.24286 0.33654
 C770 C -0.05082 0.24760 0.32024
 C771 C -0.05624 0.28632 0.33809
 C772 C -0.03826 0.28072 0.35423
 N773 N -0.02696 0.25927 0.35317
 H774 H 0.03787 0.28812 0.37823
 H775 H -0.02662 0.27112 0.41221
 H776 H -0.01969 0.30224 0.44182
 H777 H 0.04566 0.32051 0.40611
 H778 H -0.02327 0.22609 0.33586
 H779 H -0.05535 0.23399 0.30750
 H780 H -0.06462 0.30371 0.33894
 H781 H -0.03301 0.29375 0.36725
 C782 C 0.06153 0.23596 0.32220
 C783 C -0.01447 0.18516 0.42151
 C784 C -0.06269 0.26971 0.32066
 C785 C 0.01370 0.31411 0.42662
 C786 C -0.00925 0.71857 0.08791
 H787 H -0.02427 0.73043 0.08590
 C788 C -0.00654 0.69924 0.07266
 H789 H -0.01949 0.69666 0.05879
 C790 C 0.02630 0.70844 0.10788
 H791 H 0.03933 0.71221 0.12131
 C792 C 0.02956 0.68876 0.09324
 H793 H 0.04482 0.67740 0.09613
 N794 N 0.00688 0.72261 0.10531
 C795 C -0.02812 0.75955 0.16284
 H796 H -0.01633 0.77472 0.16475
 C797 C -0.04634 0.75584 0.17905
 H798 H -0.04825 0.76825 0.19349
 C799 C -0.03894 0.72443 0.14225
 H800 H -0.03580 0.71203 0.12808
 C801 C -0.05758 0.72018 0.15791
 H802 H -0.06887 0.70478 0.15510
 Zn803 Zn 0.00194 0.74916 0.12539
 N804 N -0.02466 0.74386 0.14499
 C805 C -0.02285 0.78971 0.10734
 N806 N -0.00272 0.77644 0.10600
 C807 C 0.01459 0.78198 0.09027
 C808 C 0.01245 0.80205 0.07563
 C809 C -0.02585 0.80984 0.09284
 C810 C 0.03393 0.73614 0.16122
 C811 C 0.05379 0.73818 0.17582
 C812 C 0.06141 0.77721 0.15879
 C813 C 0.04151 0.77431 0.14436
 N814 N 0.02855 0.75376 0.14542
 H815 H -0.03665 0.78466 0.11959
 H816 H 0.03027 0.77091 0.08937
 H817 H 0.02679 0.80643 0.06371
 H818 H -0.04215 0.81992 0.09401
 H819 H 0.02300 0.72022 0.16212
 H820 H 0.05815 0.72352 0.18766
 H821 H 0.07130 0.79379 0.15770
 H822 H 0.03648 0.78855 0.13238
 C823 C -0.06131 0.73580 0.17689
 C824 C 0.01295 0.68378 0.07538
 C825 C 0.06807 0.75881 0.17453
 C826 C -0.00793 0.81644 0.07684
 C827 C 0.48901 0.21695 0.58948
 H828 H 0.47506 0.22972 0.58580
 C829 C 0.49135 0.19668 0.57539
 H830 H 0.47927 0.19435 0.56073
 C831 C 0.52219 0.20534 0.61251
 H832 H 0.53439 0.20882 0.62676
 C833 C 0.52497 0.18468 0.59911
 H834 H 0.53906 0.17237 0.60371
 N835 N 0.50410 0.22074 0.60784
 C836 C 0.47149 0.25721 0.66612
 H837 H 0.48511 0.27039 0.66956
 C838 C 0.45336 0.25360 0.68243
 H839 H 0.45346 0.26396 0.69848
 C840 C 0.45568 0.22709 0.64141
 H841 H 0.45675 0.21667 0.62549
 C842 C 0.43697 0.22319 0.65705
 H843 H 0.42362 0.21006 0.65254
 Zn844 Zn 0.49909 0.24838 0.62642
 N845 N 0.47254 0.24379 0.64625
 C846 C 0.47288 0.28678 0.60683
 N847 N 0.49357 0.27443 0.60566
 C848 C 0.51004 0.27958 0.58892
 C849 C 0.50602 0.29788 0.57244
 C850 C 0.46806 0.30509 0.59061
 C851 C 0.53063 0.23836 0.66355
 C852 C 0.54878 0.24277 0.67974
 C853 C 0.55557 0.28100 0.66070
 C854 C 0.53749 0.27570 0.64466
 N855 N 0.52546 0.25463 0.64631
 H856 H 0.45990 0.28218 0.62010
 H857 H 0.52627 0.26933 0.58831
 H858 H 0.51956 0.30185 0.55951
 H859 H 0.45125 0.31433 0.59158
 H860 H 0.52038 0.22201 0.66489
 H861 H 0.55276 0.22924 0.69292
 H862 H 0.56446 0.29814 0.65937
 H863 H 0.53269 0.28874 0.63132
 C864 C 0.43582 0.23623 0.67817
 C865 C 0.50933 0.17995 0.58032
 C866 C 0.56139 0.26449 0.67868
 C867 C 0.48467 0.31080 0.57298
 C868 C 0.51282 0.71676 0.90976
 H869 H 0.52711 0.72917 0.91331
 C870 C 0.50998 0.69640 0.92395
 H871 H 0.52204 0.69367 0.93859
 C872 C 0.47926 0.70620 0.88688
 H873 H 0.46715 0.71017 0.87261
 C874 C 0.47601 0.68542 0.90035
 H875 H 0.46161 0.67346 0.89584
 N876 N 0.49765 0.72121 0.89157
 C877 C 0.53550 0.76346 0.83891
 H878 H 0.52444 0.77924 0.83796
 C879 C 0.55544 0.76173 0.82455
 H880 H 0.55973 0.77650 0.81283
 C881 C 0.54331 0.72528 0.85567
 H882 H 0.53836 0.71100 0.86766
 C883 C 0.56331 0.72270 0.84147
 H884 H 0.57337 0.70625 0.84263
 Zn885 Zn 0.50297 0.74941 0.87354
 N886 N 0.53008 0.74558 0.85439
 C887 C 0.52706 0.78923 0.89366
 N888 N 0.50760 0.77490 0.89500
 C889 C 0.49129 0.77775 0.91234
 C890 C 0.49425 0.79555 0.92927
 C891 C 0.53055 0.80747 0.91002
 C892 C 0.47233 0.74066 0.83542
 C893 C 0.45410 0.74544 0.81933
 C894 C 0.44618 0.78226 0.83990
 C895 C 0.46441 0.77666 0.85572
 N896 N 0.47702 0.75611 0.85327
 H897 H 0.54003 0.78655 0.88001
 H898 H 0.47611 0.76591 0.91318
 H899 H 0.48128 0.79711 0.94319
 H900 H 0.54594 0.81890 0.90816
 H901 H 0.48289 0.72463 0.83363
 H902 H 0.45047 0.73259 0.80559
 H903 H 0.43672 0.79895 0.84195
 H904 H 0.46874 0.78900 0.86967
 C905 C 0.56980 0.74120 0.82578
 C906 C 0.49149 0.68018 0.91922
 C907 C 0.44084 0.76662 0.82129
 C908 C 0.51416 0.81072 0.92834
 C909 C 0.11770 0.21080 0.29545
 C910 C 0.11890 0.22230 0.27345
 C911 C 0.09884 0.23544 0.26602
 C912 C 0.07971 0.23921 0.28147
 C913 C 0.08023 0.23003 0.30477
 C914 C 0.09889 0.21457 0.31067
 C915 C 0.11462 0.21429 0.33190
 C916 C 0.13524 0.21019 0.31524
 H917 H 0.09817 0.24356 0.24864
 H918 H 0.06494 0.24993 0.27533
 H919 H 0.11100 0.19867 0.34364
 H920 H 0.11534 0.23190 0.34089
 H921 H 0.14346 0.19223 0.31746
 H922 H 0.14795 0.22542 0.31454
 C923 C 0.61160 0.74790 0.77382
 C924 C 0.63001 0.73206 0.77934
 C925 C 0.63036 0.72205 0.80227
 C926 C 0.61132 0.72573 0.81788
 C927 C 0.59135 0.73932 0.81082
 C928 C 0.59279 0.75137 0.78910
 C929 C 0.57525 0.75276 0.76935
 C930 C 0.59584 0.74896 0.75260
 H931 H 0.64489 0.71075 0.80794
 H932 H 0.61201 0.71729 0.83512
 H933 H 0.56721 0.77085 0.76765
 H934 H 0.56240 0.73764 0.76961
 H935 H 0.59959 0.76487 0.74130
 H936 H 0.59496 0.73163 0.74310
 C937 C 0.38361 0.79087 0.79502
 C938 C 0.38269 0.78029 0.77275
 C939 C 0.40318 0.76831 0.76497
 C940 C 0.42259 0.76469 0.78031
 C941 C 0.42189 0.77272 0.80390
 C942 C 0.40264 0.78712 0.81018
 C943 C 0.38701 0.78584 0.83135
 C944 C 0.36616 0.78994 0.81476
 H945 H 0.40397 0.76101 0.74736
 H946 H 0.43775 0.75493 0.77382
 H947 H 0.39011 0.80102 0.84355
 H948 H 0.38698 0.76781 0.83982
 H949 H 0.35732 0.80747 0.81745
 H950 H 0.35400 0.77430 0.81359
 C951 C -0.11876 0.29501 0.29276
 C952 C -0.12065 0.28249 0.27145
 C953 C -0.10077 0.26880 0.26468
 C954 C -0.08136 0.26558 0.28008
 C955 C -0.08135 0.27564 0.30288
 C956 C -0.09971 0.29160 0.30801
 C957 C -0.11491 0.29320 0.32941
 C958 C -0.13580 0.29690 0.31281
 H959 H -0.10029 0.25989 0.24781
 H960 H -0.06680 0.25451 0.27433
 H961 H -0.11075 0.30928 0.34009
 H962 H -0.11575 0.27605 0.33950
 H963 H -0.14362 0.31509 0.31407
 H964 H -0.14881 0.28192 0.31329
 C965 C -0.10864 0.74591 0.22329
 C966 C -0.11882 0.72324 0.22627
 C967 C -0.10752 0.70379 0.21531
 C968 C -0.08832 0.70761 0.19987
 C969 C -0.08013 0.73104 0.19474
 C970 C -0.08992 0.74971 0.20789
 C971 C -0.09951 0.77332 0.19988
 C972 C -0.12000 0.76917 0.21676
 H973 H -0.11382 0.68568 0.21815
 H974 H -0.08037 0.69221 0.19161
 H975 H -0.10493 0.77333 0.18099
 H976 H -0.08789 0.78848 0.20516
 H977 H -0.13735 0.76679 0.20770
 H978 H -0.12010 0.78191 0.23173
 C979 C 0.39141 0.24557 0.72759
 C980 C 0.37787 0.22449 0.72740
 C981 C 0.38607 0.20566 0.71303
 C982 C 0.40545 0.20902 0.69777
 C983 C 0.41694 0.23147 0.69597
 C984 C 0.41027 0.24897 0.71223
 C985 C 0.40439 0.27473 0.70827
 C986 C 0.38375 0.27108 0.72502
 H987 H 0.37737 0.18839 0.71309
 H988 H 0.41089 0.19413 0.68700
 H989 H 0.39881 0.27861 0.68979
 H990 H 0.41825 0.28687 0.71541
 H991 H 0.36615 0.27289 0.71630
 H992 H 0.38580 0.28118 0.74173
 C993 C 0.61745 0.28964 0.70651
 C994 C 0.61898 0.27736 0.72817
 C995 C 0.59904 0.26362 0.73499
 C996 C 0.57978 0.26032 0.71946
 C997 C 0.58005 0.27025 0.69645
 C998 C 0.59859 0.28608 0.69111
 C999 C 0.61410 0.28727 0.66988
 C1000 C 0.63479 0.29112 0.68664
 H1001 H 0.59836 0.25484 0.75205
 H1002 H 0.56510 0.24936 0.72536
 H1003 H 0.61025 0.30320 0.65864
 H1004 H 0.61492 0.26996 0.66034
 H1005 H 0.64281 0.30924 0.68489
 H1006 H 0.64766 0.27606 0.68682
 C1007 C 0.11064 0.75258 0.22623
 C1008 C 0.12888 0.76858 0.22051
 C1009 C 0.12886 0.77850 0.19755
 C1010 C 0.10961 0.77460 0.18211
 C1011 C 0.08979 0.76090 0.18938
 C1012 C 0.09161 0.74891 0.21111
 C1013 C 0.07439 0.74744 0.23101
 C1014 C 0.09522 0.75146 0.24758
 H1015 H 0.14326 0.78990 0.19174
 H1016 H 0.11002 0.78297 0.16483
 H1017 H 0.06645 0.72929 0.23283
 H1018 H 0.06147 0.76245 0.23082
 H1019 H 0.09922 0.73561 0.25889
 H1020 H 0.09442 0.76881 0.25704
 C1021 C 0.27516 0.11255 0.24785
 C1022 C 0.28008 0.13035 0.23104
 C1023 C 0.30243 0.12968 0.21999
 C1024 C 0.31781 0.11013 0.22364
 C1025 C 0.31113 0.09070 0.23831
 C1026 C 0.29026 0.09326 0.25136
 C1027 C 0.27015 0.07619 0.25475
 C1028 C 0.25360 0.09730 0.25089
 H1029 H 0.30775 0.14374 0.20787
 H1030 H 0.33452 0.10995 0.21434
 H1031 H 0.26951 0.06887 0.27304
 H1032 H 0.26905 0.06258 0.24056
 H1033 H 0.24345 0.10206 0.26695
 H1034 H 0.24287 0.09598 0.23444
 C1035 C 0.79251 0.61700 0.70472
 C1036 C 0.77122 0.61930 0.71705
 C1037 C 0.76378 0.59960 0.73089
 C1038 C 0.77870 0.57962 0.73428
 C1039 C 0.80158 0.57902 0.72418
 C1040 C 0.80731 0.59748 0.70828
 C1041 C 0.82911 0.61259 0.70667
 C1042 C 0.81291 0.63396 0.70276
 H1043 H 0.74682 0.59988 0.73972
 H1044 H 0.77251 0.56510 0.74542
 H1045 H 0.83993 0.60827 0.69093
 H1046 H 0.83909 0.61326 0.72361
 H1047 H 0.81441 0.64187 0.68476
 H1048 H 0.81349 0.64709 0.71741
 C1049 C 0.77520 0.38515 0.75143
 C1050 C 0.78077 0.36728 0.76797
 C1051 C 0.80349 0.36804 0.77841
 C1052 C 0.81872 0.38770 0.77439
 C1053 C 0.81148 0.40717 0.76000
 C1054 C 0.79011 0.40456 0.74760
 C1055 C 0.76986 0.42154 0.74502
 C1056 C 0.75351 0.40030 0.74920
 H1057 H 0.80921 0.35397 0.79036
 H1058 H 0.83575 0.38792 0.78320
 H1059 H 0.76848 0.42906 0.72685
 H1060 H 0.76932 0.43498 0.75939
 H1061 H 0.74276 0.39565 0.73341
 H1062 H 0.74342 0.40140 0.76598
 C1063 C 0.29291 -0.11677 0.29277
 C1064 C 0.27281 -0.12049 0.27859
 C1065 C 0.26695 -0.10211 0.26227
 C1066 C 0.28213 -0.08232 0.25877
 C1067 C 0.30380 -0.08048 0.27119
 C1068 C 0.30794 -0.09740 0.28910
 C1069 C 0.32958 -0.11184 0.29422
 C1070 C 0.31323 -0.13310 0.29820
 H1071 H 0.25099 -0.10308 0.25170
 H1072 H 0.27708 -0.06891 0.24584
 H1073 H 0.33874 -0.10596 0.31058
 H1074 H 0.34119 -0.11378 0.27853
 H1075 H 0.31313 -0.13942 0.31685
 H1076 H 0.31535 -0.14742 0.28485
 C1077 C 0.22509 -0.11346 0.74814
 C1078 C 0.22056 -0.13051 0.73061
 C1079 C 0.19853 -0.12884 0.71871
 C1080 C 0.18328 -0.10928 0.72240
 C1081 C 0.18971 -0.09062 0.73785
 C1082 C 0.21012 -0.09409 0.75158
 C1083 C 0.23020 -0.07738 0.75628
 C1084 C 0.24665 -0.09847 0.75249
 H1085 H 0.19318 -0.14214 0.70599
 H1086 H 0.16686 -0.10849 0.71251
 H1087 H 0.23028 -0.07091 0.77477
 H1088 H 0.23190 -0.06316 0.74253
 H1089 H 0.25621 -0.10398 0.76883
 H1090 H 0.25795 -0.09650 0.73655
 C1091 C 0.70465 0.38161 0.20800
 C1092 C 0.72593 0.37937 0.22055
 C1093 C 0.73306 0.39891 0.23451
 C1094 C 0.71785 0.41861 0.23778
 C1095 C 0.69501 0.41909 0.22742
 C1096 C 0.68959 0.40088 0.21140
 C1097 C 0.66798 0.38555 0.20950
 C1098 C 0.68446 0.36444 0.20576
 H1099 H 0.74999 0.39871 0.24352
 H1100 H 0.72379 0.43300 0.24904
 H1101 H 0.65720 0.39002 0.19362
 H1102 H 0.65791 0.38445 0.22631
 H1103 H 0.68314 0.35684 0.18774
 H1104 H 0.68397 0.35105 0.22039
 C1105 C 0.72897 0.60816 0.25416
 C1106 C 0.72285 0.62734 0.26866
 C1107 C 0.69916 0.62848 0.27648
 C1108 C 0.68332 0.60943 0.27233
 C1109 C 0.69080 0.58872 0.26034
 C1110 C 0.71337 0.58938 0.25013
 C1111 C 0.73272 0.57121 0.25090
 C1112 C 0.74982 0.59176 0.25534
 H1113 H 0.69304 0.64358 0.28661
 H1114 H 0.66551 0.61065 0.27924
 H1115 H 0.73539 0.56256 0.23352
 H1116 H 0.73108 0.55865 0.26614
 H1117 H 0.76231 0.59487 0.24051
 H1118 H 0.75813 0.59114 0.27316
 C1119 C 0.22706 0.10922 0.75563
 C1120 C 0.22109 0.12728 0.77153
 C1121 C 0.19807 0.12669 0.78114
 C1122 C 0.18285 0.10709 0.77699
 C1123 C 0.19037 0.08753 0.76325
 C1124 C 0.21213 0.08990 0.75164
 C1125 C 0.23231 0.07276 0.75017
 C1126 C 0.24868 0.09391 0.75454
 H1127 H 0.19199 0.14089 0.79248
 H1128 H 0.16554 0.10704 0.78512
 H1129 H 0.23418 0.06517 0.73220
 H1130 H 0.23232 0.05937 0.76480
 H1131 H 0.25995 0.09842 0.73908
 H1132 H 0.25824 0.09280 0.77172
 C1133 C 0.20412 0.29476 0.11520
 C1134 C 0.21681 0.27340 0.11772
 C1135 C 0.23110 0.26634 0.09864
 C1136 C 0.23460 0.28175 0.07912
 C1137 C 0.22406 0.30469 0.07834
 C1138 C 0.20771 0.30999 0.09609
 C1139 C 0.20548 0.33183 0.11092
 C1140 C 0.20154 0.31516 0.13187
 H1141 H 0.24023 0.24932 0.09906
 H1142 H 0.24614 0.27591 0.06510
 H1143 H 0.18953 0.34254 0.10624
 H1144 H 0.22229 0.34220 0.11204
 H1145 H 0.18333 0.31631 0.13919
 H1146 H 0.21605 0.31584 0.14519
 C1147 C 0.70892 0.79860 0.61582
 C1148 C 0.72012 0.77630 0.61732
 C1149 C 0.73293 0.76868 0.59742
 C1150 C 0.73671 0.78428 0.57813
 C1151 C 0.72792 0.80796 0.57834
 C1152 C 0.71275 0.81401 0.59687
 C1153 C 0.71273 0.83559 0.61223
 C1154 C 0.70855 0.81874 0.63300
 H1155 H 0.74078 0.75103 0.59701
 H1156 H 0.74718 0.77798 0.56348
 H1157 H 0.69740 0.84750 0.60847
 H1158 H 0.73026 0.84470 0.61280
 H1159 H 0.69083 0.82102 0.64116
 H1160 H 0.72365 0.81806 0.64567
 C1161 C 0.79216 0.79680 0.37980
 C1162 C 0.77958 0.77531 0.37768
 C1163 C 0.76535 0.76816 0.39692
 C1164 C 0.76183 0.78355 0.41618
 C1165 C 0.77232 0.80655 0.41657
 C1166 C 0.78858 0.81199 0.39869
 C1167 C 0.79063 0.83386 0.38350
 C1168 C 0.79452 0.81723 0.36279
 H1169 H 0.75631 0.75106 0.39685
 H1170 H 0.75035 0.77765 0.43034
 H1171 H 0.80654 0.84470 0.38794
 H1172 H 0.77376 0.84408 0.38233
 H1173 H 0.81268 0.81855 0.35535
 H1174 H 0.77993 0.81778 0.34956
 C1175 C 0.28757 0.30083 -0.12124
 C1176 C 0.27599 0.27873 -0.12297
 C1177 C 0.26276 0.27091 -0.10329
 C1178 C 0.25906 0.28614 -0.08395
 C1179 C 0.26831 0.30968 -0.08392
 C1180 C 0.28379 0.31590 -0.10226
 C1181 C 0.28436 0.33778 -0.11755
 C1182 C 0.28848 0.32129 -0.13834
 H1183 H 0.25461 0.25335 -0.10304
 H1184 H 0.24835 0.27965 -0.06944
 H1185 H 0.29985 0.34941 -0.11357
 H1186 H 0.26699 0.34715 -0.11828
 H1187 H 0.30634 0.32347 -0.14629
 H1188 H 0.27352 0.32108 -0.15117
 C1189 C 0.70486 0.20361 -0.11457
 C1190 C 0.71770 0.22490 -0.11726
 C1191 C 0.73261 0.23176 -0.09845
 C1192 C 0.73654 0.21620 -0.07912
 C1193 C 0.72586 0.19329 -0.07826
 C1194 C 0.70887 0.18821 -0.09563
 C1195 C 0.70596 0.16650 -0.11057
 C1196 C 0.70157 0.18335 -0.13131
 H1197 H 0.74191 0.24872 -0.09898
 H1198 H 0.74856 0.22189 -0.06534
 H1199 H 0.69005 0.15586 -0.10560
 H1200 H 0.72263 0.15604 -0.11214
 H1201 H 0.68314 0.18238 -0.13823
 H1202 H 0.71567 0.18268 -0.14495
 C1203 C 0.21020 0.70367 0.38337
 C1204 C 0.22252 0.72535 0.38119
 C1205 C 0.23660 0.73252 0.40052
 C1206 C 0.24029 0.71701 0.41992
 C1207 C 0.23011 0.69387 0.42038
 C1208 C 0.21393 0.68837 0.40242
 C1209 C 0.21216 0.66660 0.38741
 C1210 C 0.20810 0.68334 0.36652
 H1211 H 0.24544 0.74973 0.40039
 H1212 H 0.25169 0.72292 0.43413
 H1213 H 0.19636 0.65553 0.39181
 H1214 H 0.22914 0.65659 0.38646
 H1215 H 0.18997 0.68185 0.35893
 H1216 H 0.22271 0.68306 0.35341
 C1217 C 0.29368 0.70435 0.61839
 C1218 C 0.28028 0.72520 0.62103
 C1219 C 0.26495 0.73167 0.60232
 C1220 C 0.26132 0.71615 0.58312
 C1221 C 0.27277 0.69368 0.58227
 C1222 C 0.28998 0.68902 0.59958
 C1223 C 0.29361 0.66726 0.61463
 C1224 C 0.29765 0.68404 0.63524
 H1225 H 0.25518 0.74830 0.60277
 H1226 H 0.24904 0.72155 0.56938
 H1227 H 0.30979 0.65721 0.60961
 H1228 H 0.27727 0.65623 0.61636
 H1229 H 0.31615 0.68360 0.64205
 H1230 H 0.28367 0.68276 0.64897
 C1231 C 0.75423 0.22298 0.11052
 C1232 C 0.77137 0.21816 0.12780
 C1233 C 0.78280 0.19574 0.12699
 C1234 C 0.77902 0.18016 0.10787
 C1235 C 0.76385 0.18672 0.08901
 C1236 C 0.75060 0.20771 0.09166
 C1237 C 0.74675 0.22799 0.07477
 C1238 C 0.75075 0.24474 0.09541
 H1239 H 0.79524 0.19049 0.14064
 H1240 H 0.78853 0.16336 0.10762
 H1241 H 0.72829 0.22847 0.06789
 H1242 H 0.76080 0.22922 0.06110
 H1243 H 0.73458 0.25486 0.10031
 H1244 H 0.76713 0.25572 0.09374
 C1245 C 0.46133 0.36815 0.54511
 C1246 C 0.47290 0.36916 0.52332
 C1247 C 0.48557 0.34866 0.51635
 C1248 C 0.48870 0.32918 0.53205
 C1249 C 0.47942 0.32983 0.55517
 C1250 C 0.46455 0.34906 0.56059
 C1251 C 0.46450 0.36495 0.58164
 C1252 C 0.46098 0.38588 0.56470
 H1253 H 0.49373 0.34790 0.49913
 H1254 H 0.49900 0.31402 0.52622
 H1255 H 0.48189 0.36528 0.59093
 H1256 H 0.44891 0.36163 0.59316
 H1257 H 0.47632 0.39840 0.56413
 H1258 H 0.44338 0.39456 0.56652
 C1259 C -0.00248 0.85853 0.02420
 C1260 C -0.01823 0.87702 0.02951
 C1261 C -0.02776 0.87738 0.05248
 C1262 C -0.02371 0.85823 0.06836
 C1263 C -0.01023 0.83813 0.06155
 C1264 C 0.00134 0.83961 0.03974
 C1265 C 0.00251 0.82183 0.02024
 C1266 C -0.00166 0.84256 0.00321
 H1267 H -0.03897 0.89199 0.05798
 H1268 H -0.03178 0.85893 0.08563
 H1269 H -0.01236 0.80875 0.02076
 H1270 H 0.02044 0.81382 0.01857
 H1271 H -0.01895 0.84151 -0.00621
 H1272 H 0.01388 0.84644 -0.00820
 C1273 C 0.04204 0.63463 0.03974
 C1274 C 0.02322 0.62514 0.02669
 C1275 C 0.00013 0.63250 0.03268
 C1276 C -0.00343 0.65085 0.04923
 C1277 C 0.01604 0.66253 0.05995
 C1278 C 0.03855 0.65288 0.05582
 C1279 C 0.06114 0.66506 0.04908
 C1280 C 0.06496 0.64506 0.03149
 H1281 H -0.01516 0.62467 0.02411
 H1282 H -0.02141 0.65628 0.05298
 H1283 H 0.07433 0.66491 0.06370
 H1284 H 0.05817 0.68285 0.04061
 H1285 H 0.08028 0.63341 0.03605
 H1286 H 0.06422 0.65120 0.01278
 C1287 C 0.53701 0.12676 0.54955
 C1288 C 0.51861 0.11814 0.53535
 C1289 C 0.49580 0.12765 0.53896
 C1290 C 0.49241 0.14707 0.55435
 C1291 C 0.51184 0.15769 0.56621
 C1292 C 0.53374 0.14604 0.56446
 C1293 C 0.55772 0.15603 0.55917
 C1294 C 0.56131 0.13491 0.54285
 H1295 H 0.48071 0.12068 0.52937
 H1296 H 0.47470 0.15414 0.55627
 H1297 H 0.56961 0.15557 0.57484
 H1298 H 0.55690 0.17355 0.54973
 H1299 H 0.57523 0.12233 0.54920
 H1300 H 0.56261 0.14014 0.52392
 C1301 C -0.04428 0.13550 0.45679
 C1302 C -0.02544 0.12509 0.46925
 C1303 C -0.00230 0.13191 0.46270
 C1304 C 0.00143 0.15066 0.44633
 C1305 C -0.01791 0.16329 0.43635
 C1306 C -0.04062 0.15414 0.44086
 C1307 C -0.06265 0.16673 0.44828
 C1308 C -0.06666 0.14632 0.46572
 H1309 H 0.01295 0.12340 0.47079
 H1310 H 0.01947 0.15571 0.44221
 H1311 H -0.07616 0.16736 0.43397
 H1312 H -0.05894 0.18417 0.45689
 H1313 H -0.08245 0.13524 0.46140
 H1314 H -0.06527 0.15189 0.48447
 C1315 C 0.46213 0.62777 0.95084
 C1316 C 0.48012 0.61894 0.96552
 C1317 C 0.50320 0.62790 0.96193
 C1318 C 0.50728 0.64704 0.94605
 C1319 C 0.48827 0.65799 0.93370
 C1320 C 0.46605 0.64683 0.93549
 C1321 C 0.44223 0.65733 0.94022
 C1322 C 0.43793 0.63642 0.95700
 H1323 H 0.51800 0.62069 0.97189
 H1324 H 0.52520 0.65365 0.94415
 H1325 H 0.43053 0.65695 0.92441
 H1326 H 0.44332 0.67491 0.94924
 H1327 H 0.42384 0.62403 0.95077
 H1328 H 0.43648 0.64185 0.97578
 C1329 C 0.50176 0.85874 0.97379
 C1330 C 0.52400 0.86924 0.97730
 C1331 C 0.54379 0.85755 0.96765
 C1332 C 0.54081 0.83777 0.95264
 C1333 C 0.51792 0.82945 0.94658
 C1334 C 0.49879 0.83946 0.95874
 C1335 C 0.47570 0.84881 0.94964
 C1336 C 0.47895 0.86990 0.96615
 H1337 H 0.56154 0.86408 0.97106
 H1338 H 0.55647 0.82964 0.94525
 H1339 H 0.46058 0.83707 0.95465
 H1340 H 0.47643 0.85390 0.93065
 H1341 H 0.46573 0.87022 0.98063
 H1342 H 0.48155 0.88726 0.95674
 C1343 C 0.00399 0.36142 0.47346
 C1344 C 0.02669 0.37076 0.47721
 C1345 C 0.04585 0.35877 0.46667
 C1346 C 0.04185 0.33979 0.45087
 C1347 C 0.01855 0.33256 0.44492
 C1348 C 0.00004 0.34295 0.45768
 C1349 C -0.02267 0.35370 0.44916
 C1350 C -0.01835 0.37391 0.46646
 H1351 H 0.06389 0.36438 0.47012
 H1352 H 0.05706 0.33130 0.44296
 H1353 H -0.03828 0.34248 0.45384
 H1354 H -0.02185 0.35953 0.43037
 H1355 H -0.03144 0.37424 0.48106
 H1356 H -0.01504 0.39151 0.45773
 C1357 C 0.36311 0.52456 0.49508
 C1358 C 0.38053 0.53046 0.47851
 C1359 C 0.37933 0.55336 0.46789
 C1360 C 0.35977 0.56846 0.47190
 C1361 C 0.34083 0.56093 0.48646
 C1362 C 0.34381 0.53935 0.49890
 C1363 C 0.32724 0.51864 0.50160
 C1364 C 0.34837 0.50243 0.49742
 H1365 H 0.39306 0.55937 0.45594
 H1366 H 0.35928 0.58569 0.46305
 H1367 H 0.31373 0.51791 0.48729
 H1368 H 0.32010 0.51713 0.51981
 H1369 H 0.34715 0.49223 0.48068
 H1370 H 0.35332 0.49161 0.51323
 C1371 C 0.86049 0.02343 -0.00586
 C1372 C 0.87755 0.02885 -0.02295
 C1373 C 0.87657 0.05177 -0.03359
 C1374 C 0.85748 0.06733 -0.02911
 C1375 C 0.83880 0.06026 -0.01401
 C1376 C 0.84165 0.03866 -0.00157
 C1377 C 0.82473 0.01834 0.00173
 C1378 C 0.84537 0.00163 -0.00296
 H1379 H 0.89008 0.05745 -0.04594
 H1380 H 0.85710 0.08453 -0.03802
 H1381 H 0.81079 0.01782 -0.01218
 H1382 H 0.81809 0.01709 0.02015
 H1383 H 0.84342 -0.00864 -0.01960
 H1384 H 0.85055 -0.00919 0.01277
 C1385 C 0.63358 0.04032 0.04401
 C1386 C 0.63061 0.01931 0.03103
 C1387 C 0.64947 0.01236 0.01631
 C1388 C 0.66915 0.02757 0.01277
 C1389 C 0.67039 0.05015 0.02380
 C1390 C 0.65290 0.05530 0.04047
 C1391 C 0.63834 0.07736 0.04334
 C1392 C 0.61715 0.06098 0.04720
 H1393 H 0.64873 -0.00437 0.00683
 H1394 H 0.68294 0.02190 0.00085
 H1395 H 0.63713 0.08820 0.02683
 H1396 H 0.64341 0.08752 0.05937
 H1397 H 0.60361 0.06232 0.03294
 H1398 H 0.61005 0.06182 0.06545
 C1399 C 0.14421 0.52064 0.50746
 C1400 C 0.12553 0.52713 0.52228
 C1401 C 0.12543 0.55083 0.53077
 C1402 C 0.14492 0.56617 0.52689
 C1403 C 0.16502 0.55817 0.51448
 C1404 C 0.16340 0.53576 0.50366
 C1405 C 0.18057 0.51548 0.50370
 C1406 C 0.15959 0.49890 0.50789
 H1407 H 0.11079 0.55732 0.54118
 H1408 H 0.14448 0.58397 0.53429
 H1409 H 0.19314 0.51613 0.51884
 H1410 H 0.18891 0.51302 0.48615
 H1411 H 0.15996 0.48991 0.52547
 H1412 H 0.15593 0.48690 0.49275
 C1413 C 0.13854 0.47974 -0.00948
 C1414 C 0.11965 0.47329 -0.02423
 C1415 C 0.11889 0.44936 -0.03209
 C1416 C 0.13795 0.43367 -0.02764
 C1417 C 0.15825 0.44151 -0.01527
 C1418 C 0.15728 0.46426 -0.00511
 C1419 C 0.17506 0.48407 -0.00560
 C1420 C 0.15457 0.50105 -0.01042
 H1421 H 0.10408 0.44293 -0.04243
 H1422 H 0.13706 0.41569 -0.03459
 H1423 H 0.18760 0.48263 -0.02062
 H1424 H 0.18348 0.48682 0.01193
 H1425 H 0.15519 0.50951 -0.02824
 H1426 H 0.15130 0.51359 0.00434
 C1427 C 0.64354 0.97883 0.49203
 C1428 C 0.63345 0.98217 0.46968
 C1429 C 0.64503 0.97167 0.45035
 C1430 C 0.66439 0.95611 0.45395
 C1431 C 0.67237 0.95039 0.47701
 C1432 C 0.66237 0.96330 0.49560
 C1433 C 0.65276 0.95465 0.51867
 C1434 C 0.63214 0.97169 0.51476
 H1435 H 0.63871 0.97480 0.43254
 H1436 H 0.67249 0.94808 0.43868
 H1437 H 0.66425 0.95982 0.53377
 H1438 H 0.64752 0.93545 0.51830
 H1439 H 0.63184 0.98664 0.52760
 H1440 H 0.61489 0.96240 0.51216
 C1441 C 0.85736 0.98116 0.50736
 C1442 C 0.87589 0.97493 0.52270
 C1443 C 0.87691 0.95092 0.53061
 C1444 C 0.85834 0.93481 0.52560
 C1445 C 0.83828 0.94235 0.51259
 C1446 C 0.83908 0.96529 0.50245
 C1447 C 0.82090 0.98466 0.50245
 C1448 C 0.84089 1.00206 0.50787
 H1449 H 0.89153 0.94469 0.54140
 H1450 H 0.85941 0.91675 0.53258
 H1451 H 0.80797 0.98265 0.51711
 H1452 H 0.81292 0.98753 0.48470
 H1453 H 0.83960 1.01016 0.52568
 H1454 H 0.84433 1.01495 0.49322
 C1455 C 0.35627 0.47630 0.00493
 C1456 C 0.36694 0.47808 0.02714
 C1457 C 0.35560 0.46657 0.04625
 C1458 C 0.33580 0.45162 0.04244
 C1459 C 0.32712 0.44748 0.01936
 C1460 C 0.33701 0.46133 0.00113
 C1461 C 0.34595 0.45396 -0.02250
 C1462 C 0.36701 0.47040 -0.01833
 H1463 H 0.36237 0.46853 0.06402
 H1464 H 0.32786 0.44287 0.05757
 H1465 H 0.33426 0.46024 -0.03711
 H1466 H 0.35079 0.43468 -0.02308
 H1467 H 0.36736 0.48611 -0.03048
 H1468 H 0.38412 0.46068 -0.01651
 C1469 C 0.54707 0.45837 0.36695
 C1470 C 0.52580 0.47097 0.36906
 C1471 C 0.51887 0.48560 0.34984
 C1472 C 0.53424 0.48950 0.33063
 C1473 C 0.55703 0.47905 0.33027
 C1474 C 0.56227 0.46234 0.34812
 C1475 C 0.58378 0.46010 0.36338
 C1476 C 0.56714 0.45574 0.38401
 H1477 H 0.50194 0.49467 0.34991
 H1478 H 0.52844 0.50125 0.31648
 H1479 H 0.59388 0.47716 0.36469
 H1480 H 0.59454 0.44413 0.35891
 H1481 H 0.56759 0.47026 0.39733
 H1482 H 0.56837 0.43727 0.39137
 C1483 C 0.01947 -0.01112 0.85100
 C1484 C 0.02392 -0.02880 0.86810
 C1485 C 0.04389 -0.04345 0.86467
 C1486 C 0.05985 -0.03890 0.84616
 C1487 C 0.05633 -0.01970 0.83004
 C1488 C 0.03524 -0.00654 0.83261
 C1489 C 0.03107 0.01988 0.83436
 C1490 C 0.01369 0.01468 0.85404
 H1491 H 0.04803 -0.05782 0.87689
 H1492 H 0.07557 -0.04988 0.84546
 H1493 H 0.02243 0.02736 0.81826
 H1494 H 0.04694 0.02987 0.84061
 H1495 H -0.00494 0.01878 0.84906
 H1496 H 0.01951 0.02173 0.87143
 C1497 C 0.02738 0.00486 0.63964
 C1498 C 0.03264 0.02159 0.62188
 C1499 C 0.05553 0.03180 0.62200
 C1500 C 0.07130 0.02740 0.64091
 C1501 C 0.06448 0.01279 0.66021
 C1502 C 0.04285 0.00061 0.65826
 C1503 C 0.02316 -0.00180 0.67562
 C1504 C 0.00618 0.00287 0.65524
 H1505 H 0.06105 0.04382 0.60799
 H1506 H 0.08846 0.03607 0.64069
 H1507 H 0.02327 0.01268 0.68899
 H1508 H 0.02177 -0.02028 0.68293
 H1509 H -0.00361 0.02006 0.65676
 H1510 H -0.00497 -0.01294 0.65091
 C1511 C 0.52313 0.50444 0.14106
 C1512 C 0.52141 0.52660 0.12955
 C1513 C 0.53365 0.54607 0.13954
 C1514 C 0.54917 0.54257 0.15881
 C1515 C 0.55326 0.51937 0.16823
 C1516 C 0.53875 0.50089 0.15973
 C1517 C 0.54512 0.47639 0.15150
 C1518 C 0.52797 0.48029 0.13110
 H1519 H 0.53178 0.56389 0.13209
 H1520 H 0.55837 0.55801 0.16572
 H1521 H 0.53917 0.46217 0.16399
 H1522 H 0.56393 0.47508 0.14587
 H1523 H 0.51216 0.46841 0.13196
 H1524 H 0.53679 0.48121 0.11360
 C1525 C 0.47627 -0.00843 0.14328
 C1526 C 0.47032 -0.02457 0.12542
 C1527 C 0.44937 -0.03801 0.12844
 C1528 C 0.43410 -0.03372 0.14754
 C1529 C 0.43927 -0.01594 0.16449
 C1530 C 0.46116 -0.00406 0.16214
 C1531 C 0.46715 0.02210 0.16163
 C1532 C 0.48385 0.01708 0.14143
 H1533 H 0.44410 -0.05122 0.11559
 H1534 H 0.41769 -0.04373 0.14824
 H1535 H 0.47650 0.02788 0.17793
 H1536 H 0.45198 0.03355 0.15608
 H1537 H 0.50279 0.01956 0.14629
 H1538 H 0.47834 0.02567 0.12451
 C1539 C 0.95421 0.45992 0.63105
 C1540 C 0.97515 0.47315 0.62870
 C1541 C 0.98180 0.48788 0.64776
 C1542 C 0.96647 0.49113 0.66707
 C1543 C 0.94407 0.47978 0.66776
 C1544 C 0.93912 0.46316 0.65002
 C1545 C 0.91751 0.46046 0.63501
 C1546 C 0.93402 0.45696 0.61420
 H1547 H 0.99846 0.49750 0.64752
 H1548 H 0.97196 0.50300 0.68107
 H1549 H 0.90692 0.47721 0.63380
 H1550 H 0.90725 0.44408 0.63963
 H1551 H 0.93304 0.47167 0.60089
 H1552 H 0.93317 0.43857 0.60687
 C1553 C 0.94887 0.54182 0.86686
 C1554 C 0.96238 0.52330 0.87674
 C1555 C 0.95795 0.49988 0.86874
 C1556 C 0.94257 0.49584 0.84953
 C1557 C 0.93159 0.51521 0.83754
 C1558 C 0.93402 0.53791 0.84771
 C1559 C 0.94035 0.56140 0.83660
 C1560 C 0.95658 0.56568 0.85761
 H1561 H 0.96694 0.48475 0.87678
 H1562 H 0.94001 0.47762 0.84371
 H1563 H 0.92506 0.57390 0.83592
 H1564 H 0.95003 0.55933 0.81968
 H1565 H 0.95055 0.58057 0.86901
 H1566 H 0.97569 0.56615 0.85291
 C1567 C 0.48070 0.01285 0.35367
 C1568 C 0.47503 0.02897 0.37158
 C1569 C 0.45395 0.04221 0.36883
 C1570 C 0.43824 0.03762 0.35005
 C1571 C 0.44306 0.01968 0.33323
 C1572 C 0.46510 0.00811 0.33518
 C1573 C 0.47141 -0.01794 0.33565
 C1574 C 0.48868 -0.01252 0.35542
 H1575 H 0.44894 0.05549 0.38165
 H1576 H 0.42177 0.04748 0.34949
 H1577 H 0.48028 -0.02366 0.31915
 H1578 H 0.45659 -0.02961 0.34167
 H1579 H 0.50750 -0.01467 0.35012
 H1580 H 0.48384 -0.02113 0.37251
   
