data_POSCAR
  _audit_creation_date              2014-09-24
  _audit_creation_method            'ToBaCCo'
  _symmetry_space_group_name_H-M    'P1'
  _symmetry_Int_Tables_number       1
  _symmetry_cell_setting            triclinic
  loop_
  _symmetry_equiv_pos_as_xyz
 x,y,z
_cell_length_a 52.1762
_cell_length_b 52.5586
_cell_length_c 55.0588
_cell_angle_alpha 89.816300
_cell_angle_beta 89.898900
_cell_angle_gamma 90.286500
loop_
  _atom_site_label
  _atom_site_type_symbol
  _atom_site_fract_x
  _atom_site_fract_y
  _atom_site_fract_z
O1 O 0.38216 0.33523 -0.03478
 O2 O 0.34615 0.36964 0.01156
 O3 O 0.38016 0.33491 0.01203
 O4 O 0.34834 0.37116 -0.03563
 O5 O 0.31696 0.34301 -0.03702
 O6 O 0.34998 0.30532 0.01069
 O7 O 0.31515 0.34092 0.01029
 O8 O 0.35171 0.30597 -0.03642
 Cu9 Cu 0.36717 0.35567 -0.01175
 Cu10 Cu 0.33027 0.32088 -0.01351
 C11 C 0.37351 0.31440 -0.04306
 C12 C 0.32480 0.36108 0.01917
 C13 C 0.37071 0.31406 0.01960
 C14 C 0.32700 0.36385 -0.04423
 O15 O 0.64700 0.62680 0.03619
 O16 O 0.61719 0.65849 -0.01590
 O17 O 0.65067 0.62268 -0.01039
 O18 O 0.61247 0.66153 0.03073
 O19 O 0.64262 0.69108 0.03131
 O20 O 0.68162 0.65132 -0.01057
 O21 O 0.64735 0.68808 -0.01559
 O22 O 0.67785 0.65564 0.03650
 Cu23 Cu 0.62884 0.63953 0.01011
 Cu24 Cu 0.66548 0.67447 0.01041
 C25 C 0.66769 0.63550 0.04509
 C26 C 0.62681 0.67891 -0.02440
 C27 C 0.67277 0.62984 -0.01735
 C28 C 0.62064 0.68298 0.03793
 O29 O 0.66349 0.32272 1.01924
 O30 O 0.70858 0.34328 0.97181
 O31 O 0.66787 0.31786 0.97101
 O32 O 0.70728 0.35072 1.01550
 O33 O 0.72585 0.31490 1.02648
 O34 O 0.68933 0.28242 0.97741
 O35 O 0.73253 0.30964 0.97977
 O36 O 0.68437 0.28678 1.02426
 Cu37 Cu 0.68373 0.33658 0.99471
 Cu38 Cu 0.71027 0.29478 1.00250
 C39 C 0.66562 0.30109 1.02938
 C40 C 0.72890 0.33057 0.96867
 C41 C 0.67199 0.29468 0.96614
 C42 C 0.72382 0.33897 1.02809
 O43 O 0.31775 0.64397 0.98994
 O44 O 0.34510 0.68828 1.03398
 O45 O 0.31051 0.65327 1.03562
 O46 O 0.35248 0.67874 0.98823
 O47 O 0.32343 0.70730 0.97829
 O48 O 0.28056 0.68091 1.02598
 O49 O 0.31621 0.71714 1.02424
 O50 O 0.28789 0.67184 0.98025
 Cu51 Cu 0.33439 0.66332 1.01295
 Cu52 Cu 0.29904 0.69727 1.00132
 C53 C 0.29820 0.65016 0.97762
 C54 C 0.33557 0.71025 1.03656
 C55 C 0.28818 0.66217 1.03873
 C56 C 0.34527 0.69720 0.97506
 O57 O 0.00499 0.32245 0.35290
 O58 O -0.03790 0.34428 0.30473
 O59 O -0.04171 0.31215 0.34054
 O60 O 0.00919 0.35374 0.31705
 O61 O 0.02266 0.32316 0.29285
 O62 O -0.02814 0.28090 0.31734
 O63 O -0.02445 0.31365 0.28060
 O64 O 0.01879 0.29137 0.32948
 Cu65 Cu -0.01783 0.33621 0.33108
 Cu66 Cu -0.00158 0.29909 0.30261
 C67 C 0.01919 0.30323 0.34959
 C68 C -0.03822 0.33317 0.28431
 C69 C -0.04326 0.28916 0.33363
 C70 C 0.02461 0.34569 0.30099
 O71 O 0.01346 0.67540 0.64053
 O72 O -0.03535 0.64547 0.67878
 O73 O -0.03533 0.68166 0.64710
 O74 O 0.01363 0.64001 0.67304
 O75 O 0.02142 0.66808 0.70184
 O76 O -0.02765 0.71039 0.67526
 O77 O -0.02792 0.67322 0.70798
 O78 O 0.02109 0.70433 0.66864
 Cu79 Cu -0.01167 0.65784 0.65706
 Cu80 Cu -0.00256 0.69184 0.69141
 C81 C 0.02549 0.69498 0.64777
 C82 C -0.03993 0.65390 0.69989
 C83 C -0.03963 0.70337 0.65631
 C84 C 0.02587 0.64677 0.69187
 O85 O 1.03801 0.61964 0.33692
 O86 O 0.98712 0.65300 0.36939
 O87 O 0.98839 0.61996 0.33540
 O88 O 1.03664 0.65173 0.37247
 O89 O 1.03849 0.68379 0.34664
 O90 O 0.99021 0.65077 0.30808
 O91 O 0.98901 0.68462 0.34290
 O92 O 1.04018 0.65079 0.30999
 Cu93 Cu 1.01250 0.63298 0.35617
 Cu94 Cu 1.01490 0.67065 0.32413
 C95 C 1.04749 0.62922 0.31771
 C96 C 0.97930 0.67441 0.36174
 C97 C 0.98082 0.62978 0.31563
 C98 C 1.04540 0.67345 0.36654
 O99 O 0.95948 0.34814 0.63191
 O100 O 1.01128 0.37949 0.66527
 O101 O 1.00897 0.34772 0.62997
 O102 O 0.96163 0.38113 0.66661
 O103 O 0.96168 0.35018 0.69376
 O104 O 1.00906 0.31544 0.65560
 O105 O 1.01169 0.34815 0.69207
 O106 O 0.95957 0.31632 0.65820
 Cu107 Cu 0.98527 0.36725 0.64588
 Cu108 Cu 0.98549 0.32937 0.67769
 C109 C 0.95101 0.32668 0.63900
 C110 C 1.02035 0.36931 0.68432
 C111 C 1.01695 0.32581 0.63599
 C112 C 0.95366 0.37175 0.68649
 O113 O 0.33677 -0.01455 0.37179
 O114 O 0.37039 0.03639 0.33934
 O115 O 0.33646 0.03467 0.37353
 O116 O 0.37054 -0.01280 0.33754
 O117 O 0.34002 -0.01220 0.30986
 O118 O 0.30515 0.03562 0.34664
 O119 O 0.33997 0.03740 0.31157
 O120 O 0.30541 -0.01380 0.34495
 Cu121 Cu 0.35657 0.01086 0.35824
 Cu122 Cu 0.31951 0.01187 0.32545
 C123 C 0.31535 -0.02278 0.36422
 C124 C 0.36127 0.04546 0.31982
 C125 C 0.31495 0.04310 0.36653
 C126 C 0.36139 -0.02056 0.31753
 O127 O 0.62875 0.01482 0.66231
 O128 O 0.66144 -0.03172 0.62417
 O129 O 0.62928 -0.03444 0.65959
 O130 O 0.65977 0.01737 0.62599
 O131 O 0.69256 0.01727 0.65124
 O132 O 0.66127 -0.03521 0.68577
 O133 O 0.69417 -0.03228 0.64951
 O134 O 0.66082 0.01423 0.68843
 Cu135 Cu 0.64158 -0.00845 0.64050
 Cu136 Cu 0.68053 -0.00905 0.67135
 C137 C 0.63903 0.02242 0.68189
 C138 C 0.68341 -0.03987 0.63013
 C139 C 0.63977 -0.04368 0.67838
 C140 C 0.68132 0.02617 0.63257
 O141 O 0.34416 1.03344 0.62947
 O142 O 0.37688 0.98317 0.66327
 O143 O 0.34428 0.98418 0.62814
 O144 O 0.37725 1.03243 0.66420
 O145 O 0.34612 1.03176 0.69140
 O146 O 0.31240 0.98294 0.65449
 O147 O 0.34577 0.98235 0.69051
 O148 O 0.31228 1.03278 0.65584
 Cu149 Cu 0.36374 1.00840 0.64363
 Cu150 Cu 0.32587 1.00738 0.67573
 C151 C 0.32264 1.04169 0.63666
 C152 C 0.36719 0.97429 0.68270
 C153 C 0.32278 0.97527 0.63491
 C154 C 0.36765 1.04023 0.68399
 O155 O 0.62915 0.96894 0.32747
 O156 O 0.65967 1.01630 0.36631
 O157 O 0.62876 1.01814 0.33012
 O158 O 0.65992 0.96715 0.36404
 O159 O 0.69298 0.96835 0.33901
 O160 O 0.66155 1.02038 0.30475
 O161 O 0.69332 1.01781 0.34211
 O162 O 0.66149 0.97116 0.30160
 Cu163 Cu 0.64111 0.99242 0.34945
 Cu164 Cu 0.68073 0.99461 0.31933
 C165 C 0.63976 0.96221 0.30779
 C166 C 0.68178 1.02504 0.36126
 C167 C 0.63961 1.02793 0.31168
 C168 C 0.68176 0.95907 0.35759
 C169 C 0.88669 0.78041 0.49533
 C170 C 0.88537 0.79510 0.47418
 C171 C 0.87097 0.81752 0.47421
 C172 C 0.85623 0.82433 0.49475
 C173 C 0.85759 0.80882 0.51579
 C174 C 0.87293 0.78703 0.51611
 C175 C 0.83797 0.84620 0.49359
 C176 C 0.82987 0.85859 0.51500
 C177 C 0.81016 0.87659 0.51427
 C178 C 0.79976 0.88369 0.49188
 C179 C 0.80803 0.87240 0.47034
 C180 C 0.82689 0.85356 0.47122
 H181 H 0.89847 0.76346 0.49558
 H182 H 0.87073 0.82901 0.45789
 H183 H 0.84600 0.81274 0.53162
 H184 H 0.83806 0.85374 0.53243
 H185 H 0.78489 0.89802 0.49124
 H186 H 0.83177 0.84399 0.45450
 C187 C 0.09735 0.20690 0.50287
 C188 C 0.10884 0.19834 0.48149
 C189 C 0.12871 0.18056 0.48298
 C190 C 0.13649 0.17009 0.50553
 C191 C 0.12413 0.17901 0.52684
 C192 C 0.10544 0.19815 0.52563
 C193 C 0.15813 0.15106 0.50665
 C194 C 0.17126 0.14600 0.52867
 C195 C 0.19223 0.12939 0.52932
 C196 C 0.20086 0.11834 0.50778
 C197 C 0.18860 0.12305 0.48572
 C198 C 0.16670 0.13840 0.48540
 H199 H 0.08195 0.22062 0.50187
 H200 H 0.13840 0.17584 0.46630
 H201 H 0.12917 0.17187 0.54457
 H202 H 0.16607 0.15526 0.54542
 H203 H 0.21711 0.10556 0.50821
 H204 H 0.15701 0.14059 0.46824
 C205 C 0.10782 0.79874 0.50153
 C206 C 0.11260 0.81159 0.52330
 C207 C 0.12911 0.83276 0.52317
 C208 C 0.14247 0.84005 0.50184
 C209 C 0.13768 0.82620 0.48028
 C210 C 0.12011 0.80591 0.47994
 C211 C 0.16232 0.86092 0.50231
 C212 C 0.16999 0.87344 0.48065
 C213 C 0.19062 0.89062 0.48058
 C214 C 0.20246 0.89697 0.50249
 C215 C 0.19462 0.88584 0.52438
 C216 C 0.17490 0.86759 0.52420
 H217 H 0.09423 0.78307 0.50139
 H218 H 0.13183 0.84296 0.53998
 H219 H 0.14813 0.83030 0.46376
 H220 H 0.16060 0.86955 0.46357
 H221 H 0.21788 0.91089 0.50248
 H222 H 0.17035 0.85813 0.54112
 C223 C 0.87441 0.21892 0.49515
 C224 C 0.87280 0.20444 0.51644
 C225 C 0.86006 0.18090 0.51595
 C226 C 0.84699 0.17261 0.49487
 C227 C 0.84882 0.18786 0.47366
 C228 C 0.86278 0.21071 0.47371
 C229 C 0.83025 0.14923 0.49554
 C230 C 0.82262 0.13681 0.47389
 C231 C 0.80441 0.11705 0.47445
 C232 C 0.79538 0.10817 0.49688
 C233 C 0.80307 0.11956 0.51853
 C234 C 0.82011 0.14017 0.51785
 H235 H 0.88513 0.23666 0.49519
 H236 H 0.85993 0.16961 0.53237
 H237 H 0.83879 0.18284 0.45721
 H238 H 0.82993 0.14282 0.45642
 H239 H 0.78183 0.09247 0.49750
 H240 H 0.82419 0.14962 0.53481
 C241 C 0.50366 0.89007 0.79706
 C242 C 0.47981 0.88612 0.80804
 C243 C 0.47818 0.87080 0.82892
 C244 C 0.49993 0.85760 0.83780
 C245 C 0.52372 0.86183 0.82593
 C246 C 0.52563 0.87827 0.80596
 C247 C 0.49758 0.83845 0.85816
 C248 C 0.51954 0.82948 0.87063
 C249 C 0.51767 0.80939 0.88736
 C250 C 0.49357 0.79963 0.89345
 C251 C 0.47139 0.80868 0.88226
 C252 C 0.47348 0.82765 0.86439
 H253 H 0.50518 0.90263 0.78145
 H254 H 0.45968 0.86892 0.83756
 H255 H 0.54085 0.85186 0.83125
 H256 H 0.53835 0.83731 0.86714
 H257 H 0.49213 0.78485 0.90717
 H258 H 0.45617 0.83297 0.85500
 C259 C 0.49987 0.10999 0.20021
 C260 C 0.47768 0.12176 0.19165
 C261 C 0.47922 0.13788 0.17134
 C262 C 0.50277 0.14175 0.15899
 C263 C 0.52462 0.12857 0.16747
 C264 C 0.52342 0.11358 0.18854
 C265 C 0.50491 0.16052 0.13839
 C266 C 0.52869 0.17225 0.13273
 C267 C 0.53070 0.19071 0.11434
 C268 C 0.50854 0.19840 0.10218
 C269 C 0.48469 0.18760 0.10774
 C270 C 0.48305 0.16806 0.12505
 H271 H 0.49877 0.09767 0.21602
 H272 H 0.46209 0.14791 0.16603
 H273 H 0.54287 0.13028 0.15829
 H274 H 0.54575 0.16792 0.14299
 H275 H 0.50976 0.21284 0.08812
 H276 H 0.46450 0.15947 0.12836
 C277 C 0.50664 0.09488 0.80589
 C278 C 0.53067 0.09907 0.81628
 C279 C 0.53267 0.11395 0.83728
 C280 C 0.51099 0.12665 0.84695
 C281 C 0.48693 0.12223 0.83558
 C282 C 0.48477 0.10625 0.81539
 C283 C 0.51372 0.14594 0.86715
 C284 C 0.49183 0.15643 0.87857
 C285 C 0.49393 0.17729 0.89422
 C286 C 0.51817 0.18656 0.90044
 C287 C 0.54028 0.17556 0.89087
 C288 C 0.53806 0.15566 0.87409
 H289 H 0.50501 0.08286 0.78999
 H290 H 0.55146 0.11604 0.84512
 H291 H 0.46972 0.13180 0.84123
 H292 H 0.47280 0.14938 0.87495
 H293 H 0.51982 0.20237 0.91296
 H294 H 0.55560 0.14891 0.86608
 C295 C 0.49354 0.90973 0.19139
 C296 C 0.51594 0.90375 0.17879
 C297 C 0.51448 0.88950 0.15740
 C298 C 0.49080 0.87927 0.14947
 C299 C 0.46838 0.88549 0.16274
 C300 C 0.46965 0.90097 0.18344
 C301 C 0.48979 0.86073 0.12875
 C302 C 0.46662 0.85596 0.11621
 C303 C 0.46495 0.83634 0.09915
 C304 C 0.48670 0.82225 0.09329
 C305 C 0.51014 0.82713 0.10466
 C306 C 0.51156 0.84609 0.12249
 H307 H 0.49480 0.92134 0.20760
 H308 H 0.53207 0.88583 0.14766
 H309 H 0.44993 0.87760 0.15792
 H310 H 0.44951 0.86676 0.12002
 H311 H 0.48520 0.80708 0.08005
 H312 H 0.52944 0.84822 0.13214
 C313 C 0.81424 0.50341 0.91863
 C314 C 0.82826 0.48201 0.91173
 C315 C 0.84433 0.48335 0.89135
 C316 C 0.84602 0.50581 0.87727
 C317 C 0.83139 0.52712 0.88447
 C318 C 0.81552 0.52598 0.90509
 C319 C 0.86206 0.50660 0.85463
 C320 C 0.87235 0.52983 0.84592
 C321 C 0.88577 0.53084 0.82385
 C322 C 0.89016 0.50838 0.81096
 C323 C 0.88110 0.48493 0.81959
 C324 C 0.86674 0.48418 0.84117
 H325 H 0.80166 0.50226 0.93430
 H326 H 0.85546 0.46674 0.88674
 H327 H 0.83131 0.54431 0.87361
 H328 H 0.86977 0.54728 0.85599
 H329 H 0.90132 0.50913 0.79433
 H330 H 0.85877 0.46610 0.84689
 C331 C 0.21620 0.49380 0.11398
 C332 C 0.20212 0.47119 0.11597
 C333 C 0.18005 0.47057 0.13056
 C334 C 0.17306 0.49198 0.14461
 C335 C 0.18813 0.51439 0.14259
 C336 C 0.20939 0.51535 0.12713
 C337 C 0.15136 0.49059 0.16248
 C338 C 0.13926 0.51304 0.17061
 C339 C 0.12168 0.51226 0.18979
 C340 C 0.11419 0.48882 0.19952
 C341 C 0.12505 0.46611 0.19133
 C342 C 0.14385 0.46710 0.17305
 H343 H 0.23280 0.49462 0.10211
 H344 H 0.16897 0.45315 0.13132
 H345 H 0.18432 0.53091 0.15362
 H346 H 0.14404 0.53138 0.16287
 H347 H 0.09985 0.48839 0.21379
 H348 H 0.15321 0.44958 0.16806
 C349 C 0.79887 0.51052 0.10793
 C350 C 0.80374 0.53029 0.12417
 C351 C 0.82284 0.52740 0.14174
 C352 C 0.83691 0.50456 0.14332
 C353 C 0.83187 0.48489 0.12649
 C354 C 0.81299 0.48793 0.10855
 C355 C 0.85589 0.50102 0.16322
 C356 C 0.85800 0.47728 0.17508
 C357 C 0.87384 0.47462 0.19542
 C358 C 0.88765 0.49559 0.20398
 C359 C 0.88595 0.51932 0.19250
 C360 C 0.87051 0.52183 0.17180
 H361 H 0.78384 0.51289 0.09455
 H362 H 0.82595 0.54260 0.15464
 H363 H 0.84285 0.46747 0.12705
 H364 H 0.84648 0.46119 0.16934
 H365 H 0.89958 0.49343 0.21996
 H366 H 0.86925 0.54022 0.16296
 C367 C 0.19888 0.49754 0.89223
 C368 C 0.18627 0.52049 0.88773
 C369 C 0.16612 0.52095 0.87089
 C370 C 0.15980 0.49912 0.85710
 C371 C 0.17349 0.47640 0.86160
 C372 C 0.19276 0.47550 0.87928
 C373 C 0.14017 0.50044 0.83721
 C374 C 0.12773 0.47817 0.82877
 C375 C 0.11131 0.47911 0.80868
 C376 C 0.10558 0.50260 0.79811
 C377 C 0.11696 0.52507 0.80641
 C378 C 0.13454 0.52386 0.82562
 H379 H 0.21375 0.49682 0.90594
 H380 H 0.15599 0.53861 0.86827
 H381 H 0.17014 0.45952 0.85088
 H382 H 0.13107 0.45991 0.83723
 H383 H 0.09194 0.50333 0.78329
 H384 H 0.14426 0.54123 0.83073
 C385 C 0.28465 0.37541 0.04021
 C386 C 0.27251 0.39070 0.05768
 C387 C 0.28763 0.40477 0.07428
 C388 C 0.31437 0.40320 0.07338
 C389 C 0.32621 0.38863 0.05558
 C390 C 0.31156 0.37488 0.03872
 C391 C 0.27593 0.42102 0.09092
 C392 C 0.24936 0.42435 0.09058
 C393 C 0.23399 0.41021 0.07435
 C394 C 0.24565 0.39305 0.05823
 C395 C 0.20738 0.41435 0.07391
 C396 C 0.19645 0.43339 0.08837
 C397 C 0.21198 0.44824 0.10361
 C398 C 0.23820 0.44278 0.10537
 H399 H 0.27327 0.36492 0.02713
 H400 H 0.32616 0.41384 0.08600
 H401 H 0.34696 0.38823 0.05491
 H402 H 0.28763 0.43202 0.10337
 H403 H 0.23398 0.38241 0.04550
 H404 H 0.19521 0.40363 0.06168
 H405 H 0.17616 0.43729 0.08682
 H406 H 0.25021 0.45390 0.11746
 C407 C 0.70611 0.62632 0.07112
 C408 C 0.71956 0.60965 0.08647
 C409 C 0.70698 0.58786 0.09595
 C410 C 0.68096 0.58383 0.09107
 C411 C 0.66790 0.60019 0.07550
 C412 C 0.68050 0.62109 0.06473
 C413 C 0.72088 0.56966 0.10897
 C414 C 0.74740 0.57245 0.11187
 C415 C 0.75987 0.59480 0.10358
 C416 C 0.74575 0.61351 0.09125
 C417 C 0.78653 0.59724 0.10638
 C418 C 0.80090 0.57682 0.11531
 C419 C 0.78874 0.55391 0.12175
 C420 C 0.76190 0.55233 0.12120
 H421 H 0.71603 0.64241 0.06299
 H422 H 0.67100 0.56737 0.09840
 H423 H 0.64811 0.59590 0.07117
 H424 H 0.71135 0.55256 0.11550
 H425 H 0.75543 0.63027 0.08414
 H426 H 0.79641 0.61430 0.10033
 H427 H 0.82162 0.57827 0.11553
 H428 H 0.75251 0.53461 0.12622
 C429 C 0.76622 0.35893 0.96586
 C430 C 0.78082 0.37646 0.95243
 C431 C 0.77930 0.37650 0.92678
 C432 C 0.76378 0.35839 0.91506
 C433 C 0.74844 0.34170 0.92870
 C434 C 0.74930 0.34226 0.95411
 C435 C 0.79183 0.39568 0.91342
 C436 C 0.80465 0.41552 0.92548
 C437 C 0.80655 0.41511 0.95112
 C438 C 0.79520 0.39522 0.96437
 C439 C 0.81836 0.43546 0.96321
 C440 C 0.82671 0.45679 0.95019
 C441 C 0.82408 0.45777 0.92485
 C442 C 0.81396 0.43667 0.91247
 H443 H 0.76628 0.35975 0.98556
 H444 H 0.76230 0.35819 0.89544
 H445 H 0.73501 0.32927 0.91950
 H446 H 0.79020 0.39607 0.89379
 H447 H 0.79614 0.39527 0.98406
 H448 H 0.81995 0.43546 0.98284
 H449 H 0.83443 0.47295 0.95996
 H450 H 0.81156 0.43758 0.89293
 C451 C 0.26110 0.63014 0.95574
 C452 C 0.25110 0.61050 0.94119
 C453 C 0.26801 0.59275 0.93050
 C454 C 0.29443 0.59492 0.93435
 C455 C 0.30409 0.61399 0.94932
 C456 C 0.28759 0.63158 0.96029
 C457 C 0.25827 0.57262 0.91672
 C458 C 0.23179 0.56944 0.91400
 C459 C 0.21472 0.58709 0.92448
 C460 C 0.22451 0.60775 0.93779
 C461 C 0.18818 0.58338 0.92183
 C462 C 0.17871 0.56199 0.90954
 C463 C 0.19565 0.54408 0.89963
 C464 C 0.22217 0.54836 0.90148
 H465 H 0.24826 0.64353 0.96436
 H466 H 0.30760 0.58148 0.92628
 H467 H 0.32456 0.61488 0.95250
 H468 H 0.27129 0.55896 0.90871
 H469 H 0.21147 0.62123 0.94602
 H470 H 0.17477 0.59671 0.92969
 H471 H 0.15819 0.55912 0.90834
 H472 H 0.23543 0.53500 0.89339
 C473 C 0.04516 0.26953 0.37053
 C474 C 0.05871 0.26085 0.39099
 C475 C 0.06346 0.27766 0.41052
 C476 C 0.05500 0.30285 0.40915
 C477 C 0.04116 0.31117 0.38903
 C478 C 0.03581 0.29458 0.36969
 C479 C 0.07592 0.26889 0.43142
 C480 C 0.08317 0.24335 0.43338
 C481 C 0.07882 0.22654 0.41381
 C482 C 0.06685 0.23546 0.39261
 C483 C 0.08594 0.20093 0.41608
 C484 C 0.09639 0.19189 0.43783
 C485 C 0.10007 0.20833 0.45763
 C486 C 0.09398 0.23421 0.45498
 H487 H 0.04102 0.25655 0.35577
 H488 H 0.05855 0.31598 0.42392
 H489 H 0.03435 0.33060 0.38875
 H490 H 0.07927 0.28177 0.44646
 H491 H 0.06324 0.22250 0.37770
 H492 H 0.08281 0.18775 0.40127
 H493 H 0.10081 0.17185 0.43944
 H494 H 0.09720 0.24719 0.46995
 C495 C 0.04693 0.73340 0.62943
 C496 C 0.06200 0.74431 0.61083
 C497 C 0.07524 0.72828 0.59449
 C498 C 0.07364 0.70183 0.59719
 C499 C 0.05811 0.69121 0.61519
 C500 C 0.04435 0.70680 0.63119
 C501 C 0.08911 0.73881 0.57512
 C502 C 0.08942 0.76516 0.57134
 C503 C 0.07664 0.78138 0.58776
 C504 C 0.06321 0.77086 0.60761
 C505 C 0.07702 0.80778 0.58360
 C506 C 0.08921 0.81785 0.56296
 C507 C 0.10120 0.80168 0.54620
 C508 C 0.10170 0.77540 0.55089
 H509 H 0.03611 0.74550 0.64157
 H510 H 0.08371 0.68933 0.58486
 H511 H 0.05644 0.67069 0.61634
 H512 H 0.09895 0.72642 0.56247
 H513 H 0.05308 0.78324 0.62004
 H514 H 0.06743 0.82057 0.59600
 H515 H 0.08863 0.83818 0.55973
 H516 H 0.11136 0.76282 0.53830
 C517 C 0.95858 0.71413 0.37698
 C518 C 0.94117 0.72615 0.39264
 C519 C 0.92339 0.71121 0.40600
 C520 C 0.92298 0.68475 0.40325
 C521 C 0.94085 0.67295 0.38829
 C522 C 0.95897 0.68744 0.37535
 C523 C 0.90703 0.72277 0.42273
 C524 C 0.90891 0.74890 0.42711
 C525 C 0.92628 0.76408 0.41362
 C526 C 0.94204 0.75264 0.39609
 C527 C 0.92824 0.79023 0.41865
 C528 C 0.91414 0.80086 0.43776
 C529 C 0.89779 0.78549 0.45187
 C530 C 0.89454 0.75978 0.44576
 H531 H 0.97270 0.72536 0.36716
 H532 H 0.90944 0.67309 0.41333
 H533 H 0.94075 0.65238 0.38708
 H534 H 0.89369 0.71121 0.43320
 H535 H 0.95569 0.76414 0.38595
 H536 H 0.94134 0.80222 0.40843
 H537 H 0.91679 0.82076 0.44216
 H538 H 0.88153 0.74795 0.45631
 C539 C 0.93268 0.28676 0.62152
 C540 C 0.91778 0.27456 0.60376
 C541 C 0.90123 0.28915 0.58895
 C542 C 0.89944 0.31546 0.59244
 C543 C 0.91494 0.32751 0.60955
 C544 C 0.93196 0.31337 0.62390
 C545 C 0.88760 0.27745 0.57014
 C546 C 0.89096 0.25153 0.56534
 C547 C 0.90709 0.23673 0.58031
 C548 C 0.92013 0.24828 0.59970
 C549 C 0.91050 0.21082 0.57509
 C550 C 0.89884 0.19997 0.55467
 C551 C 0.88355 0.21485 0.53927
 C552 C 0.87916 0.24044 0.54516
 H553 H 0.94605 0.27581 0.63234
 H554 H 0.88683 0.32688 0.58127
 H555 H 0.91410 0.34803 0.61118
 H556 H 0.87523 0.28875 0.55858
 H557 H 0.93284 0.23706 0.61098
 H558 H 0.92271 0.19914 0.58640
 H559 H 0.90245 0.18019 0.55048
 H560 H 0.86695 0.25193 0.53362
 C561 C 0.37392 0.06806 0.28123
 C562 C 0.39173 0.08306 0.26824
 C563 C 0.41181 0.09544 0.28088
 C564 C 0.41314 0.09361 0.30620
 C565 C 0.39577 0.07830 0.31885
 C566 C 0.37648 0.06482 0.30650
 C567 C 0.43105 0.10838 0.26800
 C568 C 0.43099 0.10848 0.24258
 C569 C 0.41043 0.09714 0.22981
 C570 C 0.39070 0.08476 0.24276
 C571 C 0.41069 0.09731 0.20430
 C572 C 0.43193 0.10700 0.19165
 C573 C 0.45311 0.11674 0.20434
 C574 C 0.45202 0.11840 0.22976
 H575 H 0.35916 0.05768 0.27153
 H576 H 0.42827 0.10315 0.31615
 H577 H 0.39796 0.07637 0.33833
 H578 H 0.44678 0.11723 0.27774
 H579 H 0.37529 0.07542 0.23299
 H580 H 0.39503 0.08890 0.19417
 H581 H 0.43247 0.10555 0.17203
 H582 H 0.46826 0.12613 0.23961
 C583 C 0.62699 0.04000 0.72258
 C584 C 0.61072 0.05501 0.73695
 C585 C 0.59298 0.07144 0.72554
 C586 C 0.59207 0.07300 0.70018
 C587 C 0.60771 0.05751 0.68611
 C588 C 0.62495 0.04064 0.69711
 C589 C 0.57559 0.08524 0.73956
 C590 C 0.57497 0.08217 0.76479
 C591 C 0.59291 0.06623 0.77645
 C592 C 0.61101 0.05301 0.76244
 C593 C 0.59170 0.06311 0.80181
 C594 C 0.57208 0.07463 0.81522
 C595 C 0.55357 0.08949 0.80343
 C596 C 0.55576 0.09390 0.77837
 H597 H 0.64013 0.02683 0.73115
 H598 H 0.57863 0.08555 0.69122
 H599 H 0.60602 0.05841 0.66651
 H600 H 0.56174 0.09750 0.73072
 H601 H 0.62454 0.04041 0.77126
 H602 H 0.60536 0.05109 0.81112
 H603 H 0.57073 0.07113 0.83458
 H604 H 0.54174 0.10574 0.76926
 C605 C 0.38075 0.95367 0.72182
 C606 C 0.39753 0.93755 0.73457
 C607 C 0.41460 0.92185 0.72145
 C608 C 0.41432 0.92208 0.69604
 C609 C 0.39818 0.93861 0.68359
 C610 C 0.38159 0.95481 0.69628
 C611 C 0.43246 0.90692 0.73385
 C612 C 0.43415 0.90803 0.75919
 C613 C 0.41687 0.92321 0.77252
 C614 C 0.39838 0.93766 0.76012
 C615 C 0.41906 0.92429 0.79795
 C616 C 0.43892 0.91141 0.80986
 C617 C 0.45676 0.89723 0.79649
 C618 C 0.45368 0.89498 0.77126
 H619 H 0.36815 0.96631 0.73171
 H620 H 0.42723 0.91011 0.68577
 H621 H 0.39899 0.93907 0.66393
 H622 H 0.44578 0.89523 0.72370
 H623 H 0.38537 0.94967 0.77025
 H624 H 0.40593 0.93571 0.80853
 H625 H 0.44094 0.91334 0.82934
 H626 H 0.46714 0.88369 0.76088
 C627 C 0.62499 0.94845 0.26668
 C628 C 0.60719 0.93502 0.25240
 C629 C 0.59090 0.91676 0.26353
 C630 C 0.59323 0.91156 0.28838
 C631 C 0.61030 0.92556 0.30250
 C632 C 0.62581 0.94447 0.29193
 C633 C 0.57152 0.90501 0.25005
 C634 C 0.56750 0.91193 0.22580
 C635 C 0.58419 0.92946 0.21425
 C636 C 0.60425 0.94064 0.22757
 C637 C 0.57973 0.93633 0.18993
 C638 C 0.55811 0.92701 0.17769
 C639 C 0.54082 0.91072 0.18965
 C640 C 0.54611 0.90259 0.21338
 H641 H 0.63673 0.96327 0.25853
 H642 H 0.58097 0.89755 0.29711
 H643 H 0.61078 0.92221 0.32192
 H644 H 0.55868 0.89149 0.25880
 H645 H 0.61670 0.95460 0.21896
 H646 H 0.59239 0.94960 0.18069
 H647 H 0.55426 0.93337 0.15933
 H648 H 0.53283 0.88980 0.22252
 C649 C 0.38875 0.27273 0.94070
 C650 C 0.40772 0.25850 0.92881
 C651 C 0.42748 0.27128 0.91594
 C652 C 0.42754 0.29788 0.91452
 C653 C 0.40906 0.31185 0.92690
 C654 C 0.38989 0.29947 0.94051
 C655 C 0.44749 0.25739 0.90555
 C656 C 0.44838 0.23092 0.90830
 C657 C 0.42836 0.21794 0.92056
 C658 C 0.40800 0.23182 0.93058
 C659 C 0.42946 0.19136 0.92308
 C660 C 0.45055 0.17791 0.91414
 C661 C 0.47086 0.19088 0.90272
 C662 C 0.46941 0.21733 0.89950
 H663 H 0.37418 0.26306 0.95138
 H664 H 0.44247 0.30792 0.90463
 H665 H 0.41020 0.33243 0.92645
 H666 H 0.46284 0.26727 0.89605
 H667 H 0.39286 0.22196 0.94038
 H668 H 0.41425 0.18106 0.93230
 H669 H 0.45133 0.15749 0.91666
 H670 H 0.48486 0.22734 0.89030
 C671 C 0.61495 0.71901 0.95357
 C672 C 0.59849 0.73212 0.93771
 C673 C 0.58060 0.71824 0.92363
 C674 C 0.57994 0.69164 0.92505
 C675 C 0.59585 0.67887 0.94127
 C676 C 0.61308 0.69239 0.95602
 C677 C 0.56283 0.73113 0.90918
 C678 C 0.56213 0.75776 0.90912
 C679 C 0.58037 0.77181 0.92255
 C680 C 0.59870 0.75887 0.93656
 C681 C 0.57927 0.79854 0.92240
 C682 C 0.55951 0.81109 0.91005
 C683 C 0.54067 0.79707 0.89771
 C684 C 0.54263 0.77046 0.89668
 H685 H 0.62805 0.72960 0.96503
 H686 H 0.56643 0.68076 0.91430
 H687 H 0.59421 0.65837 0.94274
 H688 H 0.54882 0.72043 0.89879
 H689 H 0.61240 0.76958 0.94729
 H690 H 0.59316 0.80967 0.93245
 H691 H 0.55831 0.83163 0.91098
 H692 H 0.52831 0.75959 0.88686
 C693 C 0.35373 0.75292 0.04705
 C694 C 0.37041 0.76764 0.06141
 C695 C 0.38032 0.75726 0.08321
 C696 C 0.37286 0.73282 0.09066
 C697 C 0.35713 0.71805 0.07587
 C698 C 0.34792 0.72773 0.05379
 C699 C 0.39869 0.77076 0.09650
 C700 C 0.40820 0.79401 0.08780
 C701 C 0.39791 0.80488 0.06642
 C702 C 0.37868 0.79182 0.05359
 C703 C 0.40807 0.82796 0.05761
 C704 C 0.42920 0.83927 0.06906
 C705 C 0.44004 0.82783 0.08961
 C706 C 0.42900 0.80571 0.09934
 H707 H 0.34693 0.76027 0.02982
 H708 H 0.38023 0.72465 0.10732
 H709 H 0.35276 0.69867 0.08130
 H710 H 0.40666 0.76247 0.11289
 H711 H 0.37119 0.79982 0.03688
 H712 H 0.40043 0.83664 0.04130
 H713 H 0.43775 0.85628 0.06131
 H714 H 0.43764 0.79683 0.11513
 C715 C 0.64527 0.26693 0.05507
 C716 C 0.62438 0.25757 0.06862
 C717 C 0.60359 0.27380 0.07393
 C718 C 0.60439 0.29925 0.06633
 C719 C 0.62505 0.30831 0.05262
 C720 C 0.64544 0.29217 0.04641
 C721 C 0.58193 0.26414 0.08600
 C722 C 0.58052 0.23832 0.09235
 C723 C 0.60158 0.22221 0.08773
 C724 C 0.62350 0.23200 0.07609
 C725 C 0.59996 0.19637 0.09407
 C726 C 0.57726 0.18633 0.10377
 C727 C 0.55584 0.20197 0.10741
 C728 C 0.55794 0.22815 0.10236
 H729 H 0.66085 0.25426 0.05043
 H730 H 0.58868 0.31197 0.07037
 H731 H 0.62472 0.32786 0.04634
 H732 H 0.56579 0.27651 0.08964
 H733 H 0.63946 0.21953 0.07212
 H734 H 0.61595 0.18376 0.09077
 H735 H 0.57608 0.16610 0.10745
 H736 H 0.54167 0.24047 0.10550
 C737 C 0.28320 0.06612 0.62464
 C738 C 0.27051 0.08238 0.60828
 C739 C 0.28458 0.09437 0.58942
 C740 C 0.31106 0.09073 0.58771
 C741 C 0.32340 0.07429 0.60370
 C742 C 0.30959 0.06135 0.62194
 C743 C 0.27187 0.10890 0.57187
 C744 C 0.24514 0.11098 0.57240
 C745 C 0.23101 0.09988 0.59167
 C746 C 0.24385 0.08591 0.60972
 C747 C 0.20418 0.10192 0.59183
 C748 C 0.19143 0.11323 0.57222
 C749 C 0.20536 0.12281 0.55232
 C750 C 0.23226 0.12266 0.55310
 H751 H 0.27236 0.05626 0.63863
 H752 H 0.32212 0.09993 0.57347
 H753 H 0.34377 0.07124 0.60140
 H754 H 0.28267 0.11753 0.55710
 H755 H 0.23298 0.07684 0.62419
 H756 H 0.19300 0.09371 0.60651
 H757 H 0.17068 0.11314 0.57194
 H758 H 0.24310 0.13030 0.53789
 C759 C 0.71946 0.04915 0.37537
 C760 C 0.73122 0.06421 0.39335
 C761 C 0.71638 0.07329 0.41300
 C762 C 0.69027 0.06750 0.41436
 C763 C 0.67896 0.05196 0.39699
 C764 C 0.69335 0.04224 0.37744
 C765 C 0.72795 0.08731 0.43154
 C766 C 0.75439 0.09167 0.43129
 C767 C 0.76946 0.08296 0.41170
 C768 C 0.75769 0.06956 0.39259
 C769 C 0.79609 0.08722 0.41204
 C770 C 0.80768 0.09904 0.43207
 C771 C 0.79276 0.10683 0.45193
 C772 C 0.76604 0.10379 0.45096
 H773 H 0.73093 0.04186 0.36052
 H774 H 0.67868 0.07441 0.42928
 H775 H 0.65879 0.04742 0.39910
 H776 H 0.71649 0.09399 0.44668
 H777 H 0.76922 0.06260 0.37763
 H778 H 0.80801 0.08081 0.39716
 H779 H 0.82832 0.10131 0.43241
 H780 H 0.75431 0.11030 0.46597
 C781 C 0.72333 0.93955 0.61418
 C782 C 0.73573 0.92469 0.59656
 C783 C 0.72095 0.91180 0.57888
 C784 C 0.69420 0.91342 0.57938
 C785 C 0.68211 0.92858 0.59658
 C786 C 0.69650 0.94211 0.61384
 C787 C 0.73309 0.89820 0.56041
 C788 C 0.75985 0.89782 0.55893
 C789 C 0.77482 0.91012 0.57680
 C790 C 0.76263 0.92330 0.59572
 C791 C 0.80169 0.90960 0.57494
 C792 C 0.81349 0.89793 0.55501
 C793 C 0.79855 0.88667 0.53675
 C794 C 0.77180 0.88607 0.53924
 H795 H 0.73458 0.95000 0.62737
 H796 H 0.68265 0.90355 0.56602
 H797 H 0.66142 0.93006 0.59611
 H798 H 0.72170 0.88867 0.54666
 H799 H 0.77403 0.93312 0.60925
 H800 H 0.81351 0.91879 0.58852
 H801 H 0.83418 0.89847 0.55341
 H802 H 0.76022 0.87696 0.52538
 C803 C 0.27502 0.95629 0.37957
 C804 C 0.26267 0.94029 0.39656
 C805 C 0.27758 0.92490 0.41219
 C806 C 0.30431 0.92510 0.41016
 C807 C 0.31637 0.94142 0.39373
 C808 C 0.30196 0.95753 0.37869
 C809 C 0.26570 0.91037 0.43035
 C810 C 0.23913 0.91149 0.43363
 C811 C 0.22395 0.92616 0.41768
 C812 C 0.23582 0.94029 0.39901
 C813 C 0.19729 0.92708 0.42129
 C814 C 0.18603 0.91460 0.44120
 C815 C 0.20130 0.90108 0.45771
 C816 C 0.22770 0.89899 0.45336
 H817 H 0.26378 0.96880 0.36814
 H818 H 0.31596 0.91331 0.42191
 H819 H 0.33713 0.94191 0.39320
 H820 H 0.27726 0.89901 0.44260
 H821 H 0.22429 0.95200 0.38705
 H822 H 0.18528 0.93808 0.40918
 H823 H 0.16561 0.91634 0.44428
 H824 H 0.23950 0.88826 0.46592
 C825 C 0.04246 0.38141 0.72304
 C826 C 0.05936 0.39755 0.73568
 C827 C 0.07527 0.41458 0.72248
 C828 C 0.07456 0.41480 0.69707
 C829 C 0.05724 0.39930 0.68476
 C830 C 0.04074 0.38287 0.69758
 C831 C 0.09077 0.43202 0.73481
 C832 C 0.08991 0.43341 0.76017
 C833 C 0.07462 0.41608 0.77358
 C834 C 0.05969 0.39793 0.76123
 C835 C 0.07375 0.41802 0.79904
 C836 C 0.08673 0.43783 0.81088
 C837 C 0.10082 0.45579 0.79739
 C838 C 0.10310 0.45284 0.77218
 H839 H 0.02961 0.36890 0.73303
 H840 H 0.08670 0.42766 0.68674
 H841 H 0.05635 0.40053 0.66514
 H842 H 0.10256 0.44537 0.72462
 H843 H 0.04753 0.38493 0.77142
 H844 H 0.06226 0.40483 0.80967
 H845 H 0.08483 0.43980 0.83037
 H846 H 0.11428 0.46650 0.76175
 C847 C 0.06704 0.61556 0.27840
 C848 C 0.08130 0.59773 0.26513
 C849 C 0.09568 0.57911 0.27769
 C850 C 0.09626 0.57908 0.30311
 C851 C 0.08145 0.59633 0.31609
 C852 C 0.06631 0.61428 0.30390
 C853 C 0.10825 0.56001 0.26476
 C854 C 0.10597 0.55872 0.23948
 C855 C 0.09230 0.57764 0.22669
 C856 C 0.08029 0.59729 0.23961
 C857 C 0.09016 0.57597 0.20129
 C858 C 0.10047 0.55513 0.18889
 C859 C 0.11296 0.53577 0.20178
 C860 C 0.11629 0.53809 0.22694
 H861 H 0.05517 0.62922 0.26890
 H862 H 0.10729 0.56501 0.31296
 H863 H 0.08123 0.59516 0.33574
 H864 H 0.11883 0.54547 0.27447
 H865 H 0.06932 0.61154 0.22993
 H866 H 0.07990 0.59037 0.19113
 H867 H 0.09791 0.55365 0.16943
 H868 H 0.12632 0.52332 0.23686
 C869 C 0.92579 0.36044 0.27030
 C870 C 0.91448 0.37563 0.25235
 C871 C 0.92354 0.37447 0.22816
 C872 C 0.94262 0.35682 0.22211
 C873 C 0.95392 0.34184 0.24020
 C874 C 0.94629 0.34430 0.26455
 C875 C 0.91444 0.39191 0.21084
 C876 C 0.89694 0.41085 0.21765
 C877 C 0.88691 0.41099 0.24157
 C878 C 0.89544 0.39312 0.25862
 C879 C 0.86973 0.43003 0.24854
 C880 C 0.86405 0.44989 0.23263
 C881 C 0.87500 0.45071 0.20937
 C882 C 0.89063 0.43067 0.20154
 H883 H 0.91960 0.36225 0.28902
 H884 H 0.94964 0.35547 0.20364
 H885 H 0.96968 0.32951 0.23536
 H886 H 0.92202 0.39163 0.19249
 H887 H 0.88837 0.39383 0.27715
 H888 H 0.86180 0.43033 0.26674
 H889 H 0.85212 0.46537 0.23888
 H890 H 0.89934 0.43155 0.18366
 C891 C 0.94390 0.63791 0.74022
 C892 C 0.92846 0.62069 0.75345
 C893 C 0.90946 0.60634 0.74118
 C894 C 0.90549 0.61009 0.71631
 C895 C 0.92125 0.62667 0.70328
 C896 C 0.94098 0.64020 0.71491
 C897 C 0.89556 0.58754 0.75361
 C898 C 0.90081 0.58231 0.77803
 C899 C 0.91900 0.59718 0.79072
 C900 C 0.93255 0.61652 0.77839
 C901 C 0.92403 0.59168 0.81525
 C902 C 0.91218 0.57080 0.82661
 C903 C 0.89520 0.55519 0.81359
 C904 C 0.88900 0.56155 0.78956
 H905 H 0.95921 0.64816 0.74927
 H906 H 0.89090 0.59938 0.70671
 H907 H 0.91853 0.62833 0.68384
 H908 H 0.88147 0.57617 0.74397
 H909 H 0.94699 0.62752 0.78792
 H910 H 0.93776 0.60295 0.82536
 H911 H 0.91717 0.56613 0.84518
 H912 H 0.87571 0.54963 0.77955
 C913 C 0.71286 0.61901 0.96117
 C914 C 0.72776 0.60091 0.94864
 C915 C 0.71689 0.57700 0.94276
 C916 C 0.69136 0.57179 0.94868
 C917 C 0.67681 0.58962 0.96115
 C918 C 0.68737 0.61327 0.96809
 C919 C 0.73182 0.55830 0.93160
 C920 C 0.75767 0.56297 0.92636
 C921 C 0.76855 0.58707 0.93137
 C922 C 0.75349 0.60597 0.94243
 C923 C 0.79448 0.59152 0.92574
 C924 C 0.80964 0.57198 0.91617
 C925 C 0.79913 0.54770 0.91221
 C926 C 0.77297 0.54356 0.91682
 H927 H 0.72140 0.63710 0.96615
 H928 H 0.68273 0.55362 0.94411
 H929 H 0.65727 0.58447 0.96579
 H930 H 0.72348 0.53985 0.92756
 H931 H 0.76192 0.62431 0.94671
 H932 H 0.80318 0.60989 0.92928
 H933 H 0.82979 0.57553 0.91272
 H934 H 0.76467 0.52493 0.91349
 C935 C 0.28869 0.37518 0.93213
 C936 C 0.27528 0.39342 0.91837
 C937 C 0.28808 0.41579 0.91054
 C938 C 0.31404 0.41926 0.91582
 C939 C 0.32697 0.40157 0.93002
 C940 C 0.31440 0.37963 0.93896
 C941 C 0.27454 0.43498 0.89857
 C942 C 0.24810 0.43264 0.89507
 C943 C 0.23522 0.41006 0.90209
 C944 C 0.24900 0.39036 0.91339
 C945 C 0.20859 0.40816 0.89868
 C946 C 0.19474 0.42901 0.88987
 C947 C 0.20736 0.45195 0.88421
 C948 C 0.23416 0.45322 0.88592
 H949 H 0.27864 0.35841 0.93872
 H950 H 0.32414 0.43621 0.90976
 H951 H 0.34682 0.40550 0.93444
 H952 H 0.28437 0.45233 0.89309
 H953 H 0.23906 0.37325 0.91930
 H954 H 0.19836 0.39096 0.90379
 H955 H 0.17406 0.42767 0.88864
 H956 H 0.24403 0.47078 0.88124
 C957 C 0.28142 0.63106 0.07096
 C958 C 0.26487 0.61568 0.08468
 C959 C 0.23813 0.61945 0.08335
 C960 C 0.22861 0.63992 0.06968
 C961 C 0.24530 0.65529 0.05602
 C962 C 0.27179 0.65021 0.05558
 C963 C 0.22144 0.60198 0.09467
 C964 C 0.23131 0.58053 0.10673
 C965 C 0.25816 0.57779 0.10918
 C966 C 0.27472 0.59559 0.09849
 C967 C 0.26815 0.55636 0.12092
 C968 C 0.25186 0.53675 0.12837
 C969 C 0.22534 0.53848 0.12462
 C970 C 0.21497 0.56091 0.11486
 H971 H 0.30182 0.62723 0.07148
 H972 H 0.20818 0.64338 0.06873
 H973 H 0.23725 0.67012 0.04471
 H974 H 0.20088 0.60429 0.09295
 H975 H 0.29529 0.59293 0.09969
 H976 H 0.28865 0.55410 0.12312
 H977 H 0.26007 0.51960 0.13598
 H978 H 0.19448 0.56215 0.11182
 C979 C 0.74569 0.37863 0.03659
 C980 C 0.76228 0.39345 0.05063
 C981 C 0.77240 0.38357 0.07245
 C982 C 0.76772 0.35793 0.07845
 C983 C 0.75251 0.34261 0.06333
 C984 C 0.74042 0.35316 0.04283
 C985 C 0.78665 0.39962 0.08786
 C986 C 0.79152 0.42507 0.08111
 C987 C 0.78351 0.43380 0.05800
 C988 C 0.76871 0.41809 0.04309
 C989 C 0.78952 0.45853 0.05047
 C990 C 0.80136 0.47531 0.06641
 C991 C 0.80693 0.46791 0.09040
 C992 C 0.80322 0.44230 0.09730
 H993 H 0.73751 0.38681 0.02024
 H994 H 0.77578 0.34977 0.09482
 H995 H 0.74916 0.32292 0.06835
 H996 H 0.79345 0.39250 0.10518
 H997 H 0.76170 0.42526 0.02584
 H998 H 0.78416 0.46523 0.03255
 H999 H 0.80491 0.49465 0.06038
 H1000 H 0.80774 0.43628 0.11563
 C1001 C 0.92817 0.71099 0.62516
 C1002 C 0.91420 0.72794 0.61073
 C1003 C 0.91509 0.75428 0.61565
 C1004 C 0.92836 0.76295 0.63620
 C1005 C 0.94210 0.74587 0.65071
 C1006 C 0.94317 0.71987 0.64465
 C1007 C 0.90377 0.77151 0.59934
 C1008 C 0.89200 0.76259 0.57803
 C1009 C 0.88971 0.73606 0.57411
 C1010 C 0.90054 0.71894 0.59062
 C1011 C 0.87805 0.72703 0.55293
 C1012 C 0.87073 0.74401 0.53479
 C1013 C 0.87463 0.77028 0.53764
 C1014 C 0.88408 0.77963 0.55979
 H1015 H 0.92811 0.69095 0.62053
 H1016 H 0.92893 0.78304 0.64052
 H1017 H 0.95309 0.75334 0.66578
 H1018 H 0.90528 0.79180 0.60259
 H1019 H 0.89957 0.69866 0.58708
 H1020 H 0.87589 0.70679 0.54980
 H1021 H 0.86324 0.73655 0.51789
 H1022 H 0.88719 0.79990 0.56199
 C1023 C 0.92221 0.28217 0.36286
 C1024 C 0.90812 0.26559 0.37780
 C1025 C 0.91053 0.23902 0.37487
 C1026 C 0.92568 0.22956 0.35589
 C1027 C 0.93983 0.24623 0.34111
 C1028 C 0.93917 0.27268 0.34516
 C1029 C 0.89883 0.22244 0.39168
 C1030 C 0.88540 0.23224 0.41169
 C1031 C 0.88192 0.25884 0.41377
 C1032 C 0.89293 0.27528 0.39659
 C1033 C 0.86883 0.26872 0.43383
 C1034 C 0.86103 0.25266 0.45265
 C1035 C 0.86578 0.22642 0.45154
 C1036 C 0.87690 0.21610 0.43051
 H1037 H 0.92090 0.30249 0.36599
 H1038 H 0.92747 0.20925 0.35313
 H1039 H 0.95234 0.23822 0.32743
 H1040 H 0.90136 0.20206 0.38992
 H1041 H 0.89093 0.29570 0.39868
 H1042 H 0.86581 0.28902 0.43556
 H1043 H 0.85228 0.26086 0.46865
 H1044 H 0.88073 0.19587 0.42968
 C1045 C 0.03962 0.28705 0.62285
 C1046 C 0.05431 0.27439 0.60508
 C1047 C 0.06430 0.28836 0.58515
 C1048 C 0.05981 0.31446 0.58331
 C1049 C 0.04464 0.32665 0.60043
 C1050 C 0.03398 0.31321 0.62026
 C1051 C 0.07795 0.27598 0.56683
 C1052 C 0.08114 0.24960 0.56757
 C1053 C 0.07153 0.23538 0.58743
 C1054 C 0.05841 0.24793 0.60629
 C1055 C 0.07468 0.20881 0.58762
 C1056 C 0.08637 0.19649 0.56792
 C1057 C 0.09514 0.21058 0.54780
 C1058 C 0.09307 0.23721 0.54819
 H1059 H 0.03157 0.27629 0.63789
 H1060 H 0.06744 0.32538 0.56818
 H1061 H 0.04113 0.34679 0.59790
 H1062 H 0.08534 0.28681 0.55150
 H1063 H 0.05076 0.23705 0.62144
 H1064 H 0.06755 0.19751 0.60270
 H1065 H 0.08780 0.17595 0.56806
 H1066 H 0.10029 0.24833 0.53299
 C1067 C 0.06836 0.71204 0.37979
 C1068 C 0.08149 0.72524 0.39828
 C1069 C 0.08909 0.71207 0.41951
 C1070 C 0.08421 0.68601 0.42169
 C1071 C 0.07061 0.67324 0.40371
 C1072 C 0.06189 0.68609 0.38279
 C1073 C 0.10050 0.72527 0.43874
 C1074 C 0.10375 0.75168 0.43746
 C1075 C 0.09688 0.76495 0.41609
 C1076 C 0.08608 0.75159 0.39646
 C1077 C 0.10009 0.79148 0.41514
 C1078 C 0.10877 0.80480 0.43558
 C1079 C 0.11446 0.79178 0.45723
 C1080 C 0.11269 0.76511 0.45771
 H1081 H 0.06192 0.72234 0.36385
 H1082 H 0.09010 0.67563 0.43777
 H1083 H 0.06646 0.65323 0.40658
 H1084 H 0.10585 0.71512 0.45515
 H1085 H 0.08035 0.76182 0.38024
 H1086 H 0.09508 0.80202 0.39890
 H1087 H 0.10998 0.82536 0.43479
 H1088 H 0.11748 0.75487 0.47421
 C1089 C 0.62852 0.93346 0.71711
 C1090 C 0.61148 0.91769 0.73017
 C1091 C 0.59234 0.90389 0.71754
 C1092 C 0.59127 0.90508 0.69218
 C1093 C 0.60777 0.92122 0.67946
 C1094 C 0.62596 0.93612 0.69180
 C1095 C 0.57360 0.89031 0.73044
 C1096 C 0.57311 0.89106 0.75583
 C1097 C 0.59283 0.90377 0.76862
 C1098 C 0.61217 0.91670 0.75568
 C1099 C 0.59198 0.90449 0.79412
 C1100 C 0.57082 0.89443 0.80662
 C1101 C 0.55039 0.88342 0.79379
 C1102 C 0.55220 0.88078 0.76851
 H1103 H 0.64245 0.94497 0.72675
 H1104 H 0.57687 0.89446 0.68225
 H1105 H 0.60570 0.92272 0.65994
 H1106 H 0.55851 0.88042 0.72069
 H1107 H 0.62687 0.92713 0.76544
 H1108 H 0.60700 0.91395 0.80428
 H1109 H 0.56967 0.89663 0.82615
 H1110 H 0.53647 0.87212 0.75861
 C1111 C 0.37291 0.95856 0.27786
 C1112 C 0.38989 0.94369 0.26399
 C1113 C 0.41017 0.93077 0.27570
 C1114 C 0.41270 0.93219 0.30095
 C1115 C 0.39614 0.94730 0.31447
 C1116 C 0.37646 0.96107 0.30309
 C1117 C 0.42828 0.91747 0.26197
 C1118 C 0.42689 0.91744 0.23658
 C1119 C 0.40624 0.92957 0.22474
 C1120 C 0.38766 0.94240 0.23856
 C1121 C 0.40518 0.92949 0.19925
 C1122 C 0.42514 0.91883 0.18566
 C1123 C 0.44638 0.90802 0.19737
 C1124 C 0.44660 0.90655 0.22285
 H1125 H 0.35785 0.96915 0.26889
 H1126 H 0.42803 0.92227 0.31019
 H1127 H 0.39912 0.94866 0.33389
 H1128 H 0.44410 0.90807 0.27101
 H1129 H 0.37211 0.95219 0.22949
 H1130 H 0.38943 0.93853 0.18982
 H1131 H 0.42462 0.92017 0.16603
 H1132 H 0.46276 0.89790 0.23200
 C1133 C 0.62570 0.04817 0.27265
 C1134 C 0.60867 0.06417 0.26010
 C1135 C 0.59246 0.08061 0.27338
 C1136 C 0.59394 0.08130 0.29875
 C1137 C 0.61024 0.06481 0.31104
 C1138 C 0.62585 0.04783 0.29819
 C1139 C 0.57414 0.09523 0.26127
 C1140 C 0.57111 0.09307 0.23612
 C1141 C 0.58760 0.07722 0.22259
 C1142 C 0.60656 0.06309 0.23465
 C1143 C 0.58414 0.07514 0.19736
 C1144 C 0.56382 0.08771 0.18590
 C1145 C 0.54675 0.10252 0.19953
 C1146 C 0.55103 0.10571 0.22449
 H1147 H 0.63749 0.03484 0.26270
 H1148 H 0.58171 0.09383 0.30915
 H1149 H 0.61021 0.06484 0.33072
 H1150 H 0.56144 0.10745 0.27157
 H1151 H 0.61892 0.05052 0.22439
 H1152 H 0.59665 0.06320 0.18663
 H1153 H 0.56085 0.08509 0.16661
 H1154 H 0.53814 0.11749 0.23502
 C1155 C 0.38031 0.05936 0.72402
 C1156 C 0.39801 0.07346 0.73788
 C1157 C 0.41753 0.08754 0.72594
 C1158 C 0.41843 0.08823 0.70055
 C1159 C 0.40124 0.07375 0.68701
 C1160 C 0.38252 0.05865 0.69855
 C1161 C 0.43672 0.09960 0.73948
 C1162 C 0.43721 0.09710 0.76478
 C1163 C 0.41720 0.08402 0.77695
 C1164 C 0.39747 0.07255 0.76341
 C1165 C 0.41806 0.08155 0.80236
 C1166 C 0.43939 0.09040 0.81532
 C1167 C 0.46001 0.10190 0.80302
 C1168 C 0.45830 0.10613 0.77792
 H1169 H 0.36599 0.04768 0.73307
 H1170 H 0.43315 0.09909 0.69116
 H1171 H 0.40312 0.07373 0.66741
 H1172 H 0.45204 0.10976 0.73021
 H1173 H 0.38249 0.06188 0.77265
 H1174 H 0.40282 0.07177 0.81206
 H1175 H 0.44046 0.08698 0.83470
 H1176 H 0.47417 0.11517 0.76844
 C1177 C 0.60790 0.72487 0.05661
 C1178 C 0.58954 0.73990 0.06860
 C1179 C 0.56691 0.72835 0.07775
 C1180 C 0.56340 0.70206 0.07561
 C1181 C 0.58150 0.68738 0.06352
 C1182 C 0.60362 0.69860 0.05341
 C1183 C 0.54770 0.74330 0.08818
 C1184 C 0.55055 0.76975 0.08936
 C1185 C 0.57346 0.78139 0.08110
 C1186 C 0.59291 0.76635 0.07086
 C1187 C 0.57615 0.80794 0.08263
 C1188 C 0.55593 0.82284 0.09130
 C1189 C 0.53270 0.81142 0.09843
 C1190 C 0.53040 0.78481 0.09796
 H1191 H 0.62486 0.73375 0.04889
 H1192 H 0.54628 0.69292 0.08270
 H1193 H 0.57781 0.66719 0.06158
 H1194 H 0.53017 0.73440 0.09470
 H1195 H 0.61027 0.77530 0.06404
 H1196 H 0.59362 0.81722 0.07656
 H1197 H 0.55804 0.84335 0.09155
 H1198 H 0.51262 0.77589 0.10376
 C1199 C 0.38469 0.27346 0.03979
 C1200 C 0.40126 0.26078 0.05590
 C1201 C 0.41715 0.27518 0.07158
 C1202 C 0.41575 0.30175 0.07149
 C1203 C 0.39979 0.31413 0.05511
 C1204 C 0.38457 0.30022 0.03881
 C1205 C 0.43503 0.26298 0.08640
 C1206 C 0.43785 0.23657 0.08536
 C1207 C 0.42159 0.22186 0.07037
 C1208 C 0.40314 0.23407 0.05587
 C1209 C 0.42478 0.19533 0.06956
 C1210 C 0.44466 0.18373 0.08257
 C1211 C 0.46154 0.19856 0.09648
 C1212 C 0.45753 0.22482 0.09835
 H1213 H 0.37309 0.26264 0.02715
 H1214 H 0.42769 0.31300 0.08349
 H1215 H 0.39976 0.33474 0.05482
 H1216 H 0.44750 0.27415 0.09801
 H1217 H 0.39099 0.22292 0.04396
 H1218 H 0.41242 0.18367 0.05832
 H1219 H 0.44751 0.16340 0.08102
 H1220 H 0.47041 0.23624 0.10933
 C1221 C 0.65334 0.25539 0.94669
 C1222 C 0.63429 0.24398 0.93218
 C1223 C 0.61759 0.25952 0.91845
 C1224 C 0.62092 0.28594 0.91846
 C1225 C 0.63959 0.29709 0.93306
 C1226 C 0.65548 0.28208 0.94787
 C1227 C 0.59712 0.24859 0.90572
 C1228 C 0.59276 0.22232 0.90683
 C1229 C 0.61004 0.20650 0.91955
 C1230 C 0.63084 0.21743 0.93204
 C1231 C 0.60559 0.18013 0.92030
 C1232 C 0.58351 0.16977 0.90970
 C1233 C 0.56559 0.18563 0.89831
 C1234 C 0.57071 0.21178 0.89631
 H1235 H 0.66547 0.24361 0.95800
 H1236 H 0.60846 0.29808 0.90784
 H1237 H 0.64100 0.31765 0.93336
 H1238 H 0.58397 0.26066 0.89576
 H1239 H 0.64370 0.20540 0.94236
 H1240 H 0.61870 0.16765 0.92977
 H1241 H 0.57980 0.14955 0.91141
 H1242 H 0.55696 0.22403 0.88735
 C1243 C 0.36191 0.73225 0.94806
 C1244 C 0.38099 0.74188 0.93238
 C1245 C 0.40074 0.72561 0.92422
 C1246 C 0.40079 0.70002 0.93125
 C1247 C 0.38220 0.69080 0.94723
 C1248 C 0.36292 0.70685 0.95614
 C1249 C 0.42080 0.73536 0.91005
 C1250 C 0.42200 0.76137 0.90465
 C1251 C 0.40203 0.77766 0.91215
 C1252 C 0.38138 0.76771 0.92567
 C1253 C 0.40372 0.80379 0.90692
 C1254 C 0.42574 0.81385 0.89582
 C1255 C 0.44622 0.79789 0.88959
 C1256 C 0.44367 0.77153 0.89309
 H1257 H 0.34715 0.74477 0.95493
 H1258 H 0.41571 0.68731 0.92505
 H1259 H 0.38318 0.67109 0.95297
 H1260 H 0.43617 0.72292 0.90425
 H1261 H 0.36629 0.78025 0.93187
 H1262 H 0.38855 0.81657 0.91238
 H1263 H 0.42732 0.83424 0.89328
 H1264 H 0.45924 0.75904 0.88794
 C1265 C 0.72082 0.93509 0.37123
 C1266 C 0.73295 0.91924 0.38832
 C1267 C 0.71814 0.90719 0.40664
 C1268 C 0.69153 0.91024 0.40701
 C1269 C 0.67973 0.92627 0.39029
 C1270 C 0.69425 0.93938 0.37267
 C1271 C 0.73020 0.89321 0.42497
 C1272 C 0.75695 0.89160 0.42566
 C1273 C 0.77185 0.90266 0.40688
 C1274 C 0.75971 0.91622 0.38814
 C1275 C 0.79868 0.90086 0.40782
 C1276 C 0.81062 0.88959 0.42790
 C1277 C 0.79586 0.87999 0.44722
 C1278 C 0.76905 0.88023 0.44557
 H1279 H 0.73220 0.94509 0.35773
 H1280 H 0.67992 0.90096 0.42080
 H1281 H 0.65921 0.92897 0.39162
 H1282 H 0.71883 0.88456 0.43934
 H1283 H 0.77112 0.92528 0.37405
 H1284 H 0.81044 0.90902 0.39352
 H1285 H 0.83135 0.88952 0.42892
 H1286 H 0.75763 0.87258 0.46039
 C1287 C 0.28355 0.95085 0.62140
 C1288 C 0.27125 0.93508 0.60430
 C1289 C 0.28570 0.92431 0.58517
 C1290 C 0.31213 0.92866 0.58385
 C1291 C 0.32407 0.94454 0.60061
 C1292 C 0.30993 0.95625 0.61922
 C1293 C 0.27346 0.91014 0.56706
 C1294 C 0.24681 0.90703 0.56740
 C1295 C 0.23229 0.91692 0.58687
 C1296 C 0.24465 0.93070 0.60537
 C1297 C 0.20554 0.91368 0.58691
 C1298 C 0.19325 0.90212 0.56718
 C1299 C 0.20753 0.89359 0.54718
 C1300 C 0.23438 0.89527 0.54787
 H1301 H 0.27245 0.95975 0.63566
 H1302 H 0.32347 0.92039 0.56941
 H1303 H 0.34444 0.94807 0.59866
 H1304 H 0.28456 0.90242 0.55214
 H1305 H 0.23348 0.93879 0.62005
 H1306 H 0.19406 0.92095 0.60174
 H1307 H 0.17251 0.90102 0.56696
 H1308 H 0.24552 0.88842 0.53260
 C1309 C 0.27438 0.06185 0.38335
 C1310 C 0.26188 0.07652 0.40114
 C1311 C 0.27664 0.09129 0.41746
 C1312 C 0.30338 0.09167 0.41547
 C1313 C 0.31560 0.07664 0.39823
 C1314 C 0.30134 0.06129 0.38232
 C1315 C 0.26458 0.10475 0.43612
 C1316 C 0.23798 0.10319 0.43918
 C1317 C 0.22299 0.08896 0.42269
 C1318 C 0.23502 0.07588 0.40357
 C1319 C 0.19631 0.08754 0.42609
 C1320 C 0.18480 0.09928 0.44615
 C1321 C 0.19981 0.11260 0.46307
 C1322 C 0.22631 0.11498 0.45906
 H1323 H 0.26326 0.04989 0.37127
 H1324 H 0.31491 0.10297 0.42778
 H1325 H 0.33635 0.07662 0.39765
 H1326 H 0.27602 0.11573 0.44881
 H1327 H 0.22362 0.06461 0.39111
 H1328 H 0.18444 0.07683 0.41359
 H1329 H 0.16433 0.09724 0.44889
 H1330 H 0.23796 0.12561 0.47183
 C1331 C 0.71984 0.05116 0.61829
 C1332 C 0.73127 0.06769 0.60120
 C1333 C 0.71576 0.07990 0.58364
 C1334 C 0.68919 0.07632 0.58403
 C1335 C 0.67810 0.05967 0.60074
 C1336 C 0.69328 0.04641 0.61758
 C1337 C 0.72705 0.09463 0.56529
 C1338 C 0.75373 0.09693 0.56384
 C1339 C 0.76935 0.08573 0.58186
 C1340 C 0.75799 0.07132 0.60060
 C1341 C 0.79612 0.08832 0.58019
 C1342 C 0.80725 0.10065 0.56016
 C1343 C 0.79175 0.11048 0.54160
 C1344 C 0.76502 0.10927 0.54394
 H1345 H 0.73172 0.04103 0.63120
 H1346 H 0.67706 0.08573 0.57085
 H1347 H 0.65756 0.05663 0.60002
 H1348 H 0.71512 0.10342 0.55152
 H1349 H 0.76995 0.06215 0.61409
 H1350 H 0.80843 0.08005 0.59390
 H1351 H 0.82793 0.10147 0.55857
 H1352 H 0.75306 0.11706 0.52967
 C1353 C 0.96060 0.61584 0.27628
 C1354 C 0.94340 0.59974 0.26382
 C1355 C 0.92584 0.58459 0.27724
 C1356 C 0.92527 0.58610 0.30259
 C1357 C 0.94272 0.60154 0.31474
 C1358 C 0.96080 0.61617 0.30184
 C1359 C 0.90972 0.56739 0.26528
 C1360 C 0.91130 0.56450 0.24009
 C1361 C 0.92829 0.57991 0.22639
 C1362 C 0.94409 0.59769 0.23834
 C1363 C 0.92965 0.57664 0.20108
 C1364 C 0.91515 0.55756 0.18971
 C1365 C 0.89913 0.54152 0.20349
 C1366 C 0.89678 0.54565 0.22856
 H1367 H 0.97462 0.62696 0.26623
 H1368 H 0.91185 0.57470 0.31308
 H1369 H 0.94239 0.60173 0.33442
 H1370 H 0.89661 0.55555 0.27571
 H1371 H 0.95747 0.60924 0.22794
 H1372 H 0.94243 0.58835 0.19021
 H1373 H 0.91716 0.55471 0.17033
 H1374 H 0.88409 0.53360 0.23923
 C1375 C 0.93407 0.38445 0.72659
 C1376 C 0.91988 0.40205 0.74038
 C1377 C 0.90657 0.42186 0.72842
 C1378 C 0.90676 0.42322 0.70305
 C1379 C 0.92118 0.40605 0.68959
 C1380 C 0.93549 0.38692 0.70114
 C1381 C 0.89414 0.44069 0.74194
 C1382 C 0.89527 0.44041 0.76735
 C1383 C 0.90766 0.42018 0.77948
 C1384 C 0.91971 0.40096 0.76592
 C1385 C 0.90859 0.42010 0.80498
 C1386 C 0.89862 0.44055 0.81819
 C1387 C 0.88756 0.46137 0.80613
 C1388 C 0.88521 0.46073 0.78072
 H1389 H 0.94510 0.36983 0.73568
 H1390 H 0.89650 0.43815 0.69362
 H1391 H 0.92171 0.40820 0.67002
 H1392 H 0.88449 0.45615 0.73266
 H1393 H 0.92975 0.38577 0.77521
 H1394 H 0.91783 0.40470 0.81465
 H1395 H 0.90068 0.44068 0.83776
 H1396 H 0.87642 0.47659 0.77131
 C1397 C 0.05244 0.63102 0.72682
 C1398 C 0.06809 0.61224 0.73729
 C1399 C 0.07687 0.59182 0.72286
 C1400 C 0.07047 0.59081 0.69820
 C1401 C 0.05450 0.60918 0.68810
 C1402 C 0.04495 0.62916 0.70234
 C1403 C 0.09100 0.57213 0.73344
 C1404 C 0.09573 0.57205 0.75847
 C1405 C 0.08762 0.59269 0.77292
 C1406 C 0.07417 0.61290 0.76216
 C1407 C 0.09215 0.59216 0.79805
 C1408 C 0.10311 0.57070 0.80892
 C1409 C 0.10993 0.54957 0.79478
 C1410 C 0.10719 0.55091 0.76943
 H1411 H 0.04510 0.64631 0.73798
 H1412 H 0.07715 0.57536 0.68689
 H1413 H 0.04924 0.60748 0.66915
 H1414 H 0.09726 0.55626 0.72240
 H1415 H 0.06749 0.62852 0.77329
 H1416 H 0.08621 0.60786 0.80942
 H1417 H 0.10503 0.57008 0.82849
 H1418 H 0.11285 0.53487 0.75832
 C1419 C 0.05387 0.36087 0.26768
 C1420 C 0.07040 0.37953 0.25797
 C1421 C 0.07835 0.40012 0.27271
 C1422 C 0.07010 0.40151 0.29687
 C1423 C 0.05313 0.38334 0.30612
 C1424 C 0.04457 0.36312 0.29158
 C1425 C 0.09350 0.41963 0.26283
 C1426 C 0.09993 0.41946 0.23813
 C1427 C 0.09248 0.39876 0.22337
 C1428 C 0.07813 0.37865 0.23351
 C1429 C 0.09858 0.39916 0.19851
 C1430 C 0.11047 0.42056 0.18815
 C1431 C 0.11673 0.44170 0.20255
 C1432 C 0.11244 0.44045 0.22773
 H1433 H 0.04718 0.34541 0.25630
 H1434 H 0.07607 0.41713 0.30839
 H1435 H 0.04638 0.38531 0.32464
 H1436 H 0.09919 0.43559 0.27409
 H1437 H 0.07202 0.36294 0.22213
 H1438 H 0.09315 0.38343 0.18691
 H1439 H 0.11362 0.42108 0.16870
 H1440 H 0.11774 0.45643 0.23910
   
