data_POSCAR
  _audit_creation_date              2014-09-24
  _audit_creation_method            'ToBaCCo'
  _symmetry_space_group_name_H-M    'P1'
  _symmetry_Int_Tables_number       1
  _symmetry_cell_setting            triclinic
  loop_
  _symmetry_equiv_pos_as_xyz
 x,y,z
_cell_length_a 53.9869
_cell_length_b 53.9865
_cell_length_c 53.9843
_cell_angle_alpha 89.997000
_cell_angle_beta 89.997700
_cell_angle_gamma 89.994500
loop_
  _atom_site_label
  _atom_site_type_symbol
  _atom_site_fract_x
  _atom_site_fract_y
  _atom_site_fract_z
N1 N 0.34701 1.34717 0.34686
 N2 N 0.34699 0.84719 0.84695
 N3 N 0.84728 1.34733 0.84724
 N4 N 0.84672 0.84690 0.34675
 N5 N 0.65289 0.65311 0.34708
 N6 N 0.65344 0.15330 0.84671
 N7 N 1.15303 0.65301 0.84699
 N8 N 1.15288 0.15300 0.34726
 N9 N 0.65300 1.34694 0.65292
 N10 N 0.65304 0.84703 1.15319
 N11 N 1.15351 1.34652 1.15302
 N12 N 1.15272 0.84678 0.65277
 N13 N 0.34668 0.65319 0.65347
 N14 N 0.34698 0.15299 1.15292
 N15 N 0.84725 0.65293 1.15308
 N16 N 0.84684 0.15291 0.65293
 N17 N 1.34685 0.34718 0.65325
 N18 N 1.34658 0.84642 1.15355
 N19 N 0.84738 0.34702 1.15293
 N20 N 0.84693 0.84733 0.65280
 N21 N 0.65285 0.65326 0.65310
 N22 N 0.65294 1.15275 1.15256
 N23 N 0.15318 0.65331 1.15327
 N24 N 0.15283 1.15297 0.65257
 N25 N 1.34706 0.65289 0.34669
 N26 N 1.34654 1.15328 0.84684
 N27 N 0.84755 0.65262 0.84711
 N28 N 0.84680 1.15287 0.34708
 N29 N 0.65266 0.34733 0.34740
 N30 N 0.65285 0.84736 0.84702
 N31 N 0.15365 0.34647 0.84680
 N32 N 0.15294 0.84670 0.34706
 O33 O 0.97596 0.90961 0.87716
 O34 O 0.97594 0.88057 0.84843
 C35 C 0.96751 0.90079 0.85705
 C36 C 0.94722 0.91385 0.84399
 C37 C 0.93835 0.90504 0.82118
 H38 H 0.94722 0.88927 0.81250
 O39 O 1.02473 1.08865 0.87571
 O40 O 1.02489 1.11730 0.84659
 C41 C 1.03327 1.09719 0.85551
 C42 C 1.05361 1.08393 0.84271
 C43 C 1.06275 1.09250 0.81989
 H44 H 1.05448 1.10864 0.81130
 O45 O 0.87705 0.97545 0.91045
 O46 O 0.84819 0.97534 0.88155
 C47 C 0.85689 0.96698 0.90176
 C48 C 0.84385 0.94672 0.91489
 C49 C 0.82107 0.93781 0.90607
 H50 H 0.81239 0.94666 0.89029
 O51 O 1.12350 1.02332 0.91027
 O52 O 1.15256 1.02314 0.88156
 C53 C 1.14368 1.03175 0.90159
 C54 C 1.15652 1.05222 0.91463
 C55 C 1.17920 1.06146 0.90581
 H56 H 1.18770 1.05319 0.88961
 O57 O 0.91031 0.87656 0.97641
 O58 O 0.88143 0.84767 0.97649
 C59 C 0.90161 0.85637 0.96804
 C60 C 0.91472 0.84330 0.94779
 C61 C 0.90594 0.82048 0.93894
 H62 H 0.89017 0.81180 0.94780
 O63 O 1.08951 1.12269 0.97535
 O64 O 1.11842 1.15155 0.97528
 C65 C 1.09831 1.14277 0.96678
 C66 C 1.08542 1.15562 0.94624
 C67 C 1.09431 1.17835 0.93726
 H68 H 1.10997 1.18713 0.94623
 O69 O 0.91120 1.02347 0.87621
 O70 O 0.88239 1.02335 0.84725
 C71 C 0.90252 1.03185 0.85601
 C72 C 0.91555 1.05219 0.84299
 C73 C 0.90664 1.06114 0.82026
 H74 H 0.89087 1.05227 0.81158
 O75 O 1.08967 0.97475 0.87666
 O76 O 1.11856 0.97444 0.84779
 C77 C 1.09840 0.96607 0.85661
 C78 C 1.08526 0.94562 0.84385
 C79 C 1.09387 0.93648 0.82105
 H80 H 1.10997 0.94480 0.81243
 O81 O 1.02415 0.87582 0.91138
 O82 O 1.02422 0.84667 0.88276
 C83 C 1.03266 0.85561 0.90283
 C84 C 1.05306 0.84284 0.91603
 C85 C 1.06227 0.82008 0.90739
 H86 H 1.05401 0.81148 0.89126
 O87 O 0.97648 1.12290 0.90942
 O88 O 0.97663 1.15171 0.88046
 C89 C 0.96811 1.14306 0.90063
 C90 C 0.94781 1.15615 0.91365
 C91 C 0.93905 1.17902 0.90488
 H92 H 0.94798 1.18771 0.88915
 O93 O 0.87715 1.08981 0.97471
 O94 O 0.84827 1.11870 0.97440
 C95 C 0.85706 1.09849 0.96609
 C96 C 0.84419 1.08525 0.94577
 C97 C 0.82142 1.09393 0.93660
 H98 H 0.81291 1.11015 0.94480
 O99 O 1.12320 0.91046 0.97661
 O100 O 1.15209 0.88158 0.97688
 C101 C 1.14335 0.90166 0.96824
 C102 C 1.15634 0.91452 0.94779
 C103 C 1.17916 0.90567 0.93898
 H104 H 1.18791 0.89003 0.94801
 O105 O 0.97639 1.08881 0.87568
 O106 O 0.97646 1.11748 0.84658
 C107 C 0.96792 1.09743 0.85549
 C108 C 0.94749 1.08430 0.84270
 C109 C 0.93825 1.09303 0.81998
 H110 H 0.94651 1.10919 0.81142
 O111 O 1.02428 0.90954 0.87727
 O112 O 1.02430 0.88051 0.84853
 C113 C 1.03277 0.90070 0.85719
 C114 C 1.05317 0.91366 0.84418
 C115 C 1.06200 0.90484 0.82136
 H116 H 1.05306 0.88914 0.81265
 O117 O 1.12350 0.97501 0.91065
 O118 O 1.15255 0.97474 0.88193
 C119 C 1.14368 0.96645 0.90210
 C120 C 1.15654 0.94621 0.91544
 C121 C 1.17935 0.93706 0.90687
 H122 H 1.18791 0.94526 0.89068
 O123 O 0.87720 1.02382 0.91005
 O124 O 0.84831 1.02371 0.88118
 C125 C 0.85710 1.03231 0.90124
 C126 C 0.84424 1.05288 0.91409
 C127 C 0.82147 1.06180 0.90522
 H128 H 0.81268 1.05280 0.88959
 O129 O 0.91116 1.12365 0.97468
 O130 O 0.88242 1.15268 0.97441
 C131 C 0.90255 1.14378 0.96606
 C132 C 0.91576 1.15654 0.94566
 C133 C 0.90723 1.17939 0.93657
 H134 H 0.89116 1.18804 0.94492
 O135 O 1.08926 0.87653 0.97676
 O136 O 1.11808 0.84757 0.97703
 C137 C 1.09798 0.85631 0.96845
 C138 C 1.08500 0.84323 0.94812
 C139 C 1.09391 0.82046 0.93925
 H140 H 1.10968 0.81181 0.94815
 O141 O 1.08969 1.02309 0.87627
 O142 O 1.11860 1.02286 0.84741
 C143 C 1.09846 1.03141 0.85609
 C144 C 1.08548 1.05175 0.84301
 C145 C 1.09430 1.06055 0.82018
 H146 H 1.11001 1.05158 0.81148
 O147 O 0.91094 0.97509 0.87646
 O148 O 0.88217 0.97497 0.84746
 C149 C 0.90225 0.96649 0.85635
 C150 C 0.91531 0.94598 0.84361
 C151 C 0.90666 0.93686 0.82081
 H152 H 0.89060 0.94525 0.81219
 O153 O 1.02478 1.12270 0.90948
 O154 O 1.02502 1.15151 0.88052
 C155 C 1.03338 1.14278 0.90073
 C156 C 1.05372 1.15566 0.91390
 C157 C 1.06292 1.17839 0.90516
 H158 H 1.05472 1.18687 0.88892
 O159 O 0.97579 0.87589 0.91129
 O160 O 0.97580 0.84673 0.88268
 C161 C 0.96729 0.85570 0.90272
 C162 C 0.94683 0.84294 0.91584
 C163 C 0.93772 0.82013 0.90721
 H164 H 0.94609 0.81152 0.89114
 O165 O 1.12328 1.08861 0.97561
 O166 O 1.15226 1.11740 0.97550
 C167 C 1.14344 1.09726 0.96710
 C168 C 1.15635 1.08419 0.94672
 C169 C 1.17905 1.09308 0.93768
 H170 H 1.18777 1.10884 0.94652
 O171 O 0.87639 0.91045 0.97606
 O172 O 0.84736 0.88172 0.97611
 C173 C 0.85625 0.90176 0.96754
 C174 C 0.84350 0.91479 0.94702
 C175 C 0.82073 0.90609 0.93786
 H176 H 0.81214 0.89000 0.94622
 Cu177 Cu 1.00004 0.89561 0.89715
 Cu178 Cu 1.00006 0.86069 0.86272
 Cu179 Cu 1.00058 1.10289 0.89547
 Cu180 Cu 1.00077 1.13738 0.86062
 Cu181 Cu 0.89699 0.99946 0.89619
 Cu182 Cu 0.86237 0.99933 0.86146
 Cu183 Cu 1.10369 0.99906 0.89634
 Cu184 Cu 1.13848 0.99877 0.86177
 C185 C 0.93573 0.93448 0.85492
 H186 H 0.94225 0.94115 0.87268
 C187 C 0.91805 0.91637 0.80948
 C188 C 1.06496 1.06340 0.85399
 H189 H 1.05828 1.05694 0.87177
 C190 C 1.08312 1.08096 0.80852
 C191 C 0.85478 0.93525 0.93553
 H192 H 0.87253 0.94180 0.94221
 C193 C 0.80942 0.91745 0.91734
 C194 C 1.14536 1.06360 0.93523
 H195 H 1.12767 1.05687 0.94189
 C196 C 1.19056 1.08194 0.91717
 C197 C 0.93534 0.85425 0.93628
 H198 H 0.94199 0.87202 0.94278
 C199 C 0.91724 0.80880 0.91861
 C200 C 1.06497 1.14455 0.93459
 H201 H 1.05824 1.12684 0.94120
 C202 C 1.08326 1.18984 0.91669
 C203 C 0.93614 1.06374 0.85393
 H204 H 0.94287 1.05715 0.87165
 C205 C 0.91778 1.08160 0.80866
 C206 C 1.06477 0.93421 0.85514
 H207 H 1.05827 0.94090 0.87291
 C208 C 1.08238 0.91607 0.80969
 C209 C 1.06442 0.85414 0.93654
 H210 H 1.05768 0.87188 0.94306
 C211 C 1.08274 0.80879 0.91885
 C212 C 0.93620 1.14520 0.93421
 H213 H 0.94264 1.12740 0.94086
 C214 C 0.91873 1.19075 0.91616
 C215 C 0.85532 1.06458 0.93452
 H216 H 0.87306 1.05802 0.94123
 C217 C 0.80996 1.08234 0.91630
 C218 C 1.14531 0.93495 0.93605
 H219 H 1.12754 0.94164 0.94251
 C220 C 1.19077 0.91677 0.91850
 O221 O 1.02365 0.91136 1.12395
 O222 O 1.02348 0.88268 1.15303
 C223 C 1.03203 0.90274 1.14417
 C224 C 1.05245 0.91574 1.15710
 C225 C 1.06141 0.90688 1.17984
 H226 H 1.05249 0.89118 1.18859
 O227 O 0.97568 1.09015 1.12310
 O228 O 0.97560 1.11914 1.15187
 C229 C 0.96711 1.09899 1.14316
 C230 C 0.94663 1.08601 1.15602
 C231 C 0.93749 1.09479 1.17876
 H232 H 0.94584 1.11091 1.18730
 O233 O 0.87649 1.02505 1.08873
 O234 O 0.84743 1.02533 1.11743
 C235 C 0.85634 1.03366 1.09730
 C236 C 0.84354 1.05400 1.08402
 C237 C 0.82072 1.06312 1.09258
 H238 H 0.81211 1.05486 1.10871
 O239 O 1.12328 0.97608 1.09029
 O240 O 1.15219 0.97612 1.11914
 C241 C 1.14340 0.96759 1.09904
 C242 C 1.15625 0.94713 1.08601
 C243 C 1.17895 0.93792 1.09484
 H244 H 1.18744 0.94621 1.11102
 O245 O 1.08906 0.87695 1.02512
 O246 O 1.11787 0.84799 1.02537
 C247 C 1.09774 0.85685 1.03374
 C248 C 1.08467 0.84406 1.05420
 C249 C 1.09352 0.82138 1.06333
 H250 H 1.10926 0.81260 1.05452
 O251 O 0.91092 1.12388 1.02304
 O252 O 0.88217 1.15290 1.02285
 C253 C 0.90223 1.14407 1.03146
 C254 C 0.91524 1.15693 1.05193
 C255 C 0.90641 1.17965 1.06110
 H256 H 0.89027 1.18816 1.05275
 O257 O 0.91012 0.97673 1.12302
 O258 O 0.88117 0.97697 1.15184
 C259 C 0.90130 0.96837 1.14318
 C260 C 0.91423 0.94799 1.15625
 C261 C 0.90531 0.93912 1.17901
 H262 H 0.88954 0.94803 1.18766
 O263 O 1.08937 1.02461 1.12387
 O264 O 1.11810 1.02476 1.15290
 C265 C 1.09800 1.03319 1.14400
 C266 C 1.08483 1.05363 1.15675
 C267 C 1.09341 1.06279 1.17955
 H268 H 1.10951 1.05448 1.18819
 O269 O 0.97540 0.87729 1.08999
 O270 O 0.97527 0.84850 1.11898
 C271 C 0.96688 0.85719 1.09877
 C272 C 0.94653 0.84420 1.08573
 C273 C 0.93768 0.82139 1.09454
 H274 H 0.94661 0.81266 1.11024
 O275 O 1.02425 1.12364 1.08914
 O276 O 1.02427 1.15278 1.11776
 C277 C 1.03278 1.14381 1.09772
 C278 C 1.05324 1.15654 1.08459
 C279 C 1.06250 1.17927 1.09327
 H280 H 1.05424 1.18786 1.10941
 O281 O 0.87621 0.91080 1.02438
 O282 O 0.84721 0.88204 1.02453
 C283 C 0.85601 0.90221 1.03287
 C284 C 0.84309 0.91550 1.05311
 C285 C 0.82033 0.90683 1.06229
 H286 H 0.81183 0.89059 1.05411
 O287 O 1.12328 1.08896 1.02401
 O288 O 1.15227 1.11774 1.02386
 C289 C 1.14344 1.09769 1.03247
 C290 C 1.15631 1.08482 1.05300
 C291 C 1.17908 1.09369 1.06191
 H292 H 1.18786 1.10932 1.05290
 O293 O 1.02402 1.08979 1.12313
 O294 O 1.02399 1.11881 1.15188
 C295 C 1.03244 1.09860 1.14326
 C296 C 1.05275 1.08559 1.15635
 C297 C 1.06155 1.09443 1.17917
 H298 H 1.05261 1.11016 1.18784
 O299 O 0.97528 0.91130 1.12382
 O300 O 0.97507 0.88263 1.15292
 C301 C 0.96666 0.90272 1.14396
 C302 C 0.94619 0.91589 1.15666
 C303 C 0.93696 0.90726 1.17941
 H304 H 0.94523 0.89114 1.18803
 O305 O 1.12331 1.02438 1.09001
 O306 O 1.15222 1.02456 1.11886
 C307 C 1.14346 1.03291 1.09867
 C308 C 1.15637 1.05317 1.08540
 C309 C 1.17914 1.06236 1.09408
 H310 H 1.18763 1.05418 1.11032
 O311 O 0.87630 0.97668 1.08901
 O312 O 0.84725 0.97696 1.11773
 C313 C 0.85609 0.96832 1.09770
 C314 C 0.84317 0.94786 1.08479
 C315 C 0.82040 0.93895 1.09366
 H316 H 0.81164 0.94793 1.10932
 O317 O 1.08939 1.12294 1.02375
 O318 O 1.11832 1.15178 1.02363
 C319 C 1.09816 1.14310 1.03214
 C320 C 1.08519 1.15616 1.05249
 C321 C 1.09413 1.17890 1.06140
 H322 H 1.10990 1.18755 1.05250
 O323 O 0.91006 0.87682 1.02473
 O324 O 0.88121 0.84791 1.02489
 C325 C 0.90133 0.85673 1.03333
 C326 C 0.91444 0.84394 1.05378
 C327 C 0.90580 0.82114 1.06291
 H328 H 0.88969 0.81255 1.05459
 O329 O 1.08927 0.97630 1.12409
 O330 O 1.11802 0.97632 1.15311
 C331 C 1.09790 0.96786 1.14429
 C332 C 1.08469 0.94755 1.15720
 C333 C 1.09343 0.93836 1.17993
 H334 H 1.10966 0.94656 1.18842
 O335 O 0.91028 1.02508 1.12282
 O336 O 0.88131 1.02532 1.15163
 C337 C 0.90151 1.03367 1.14290
 C338 C 0.91458 1.05403 1.15583
 C339 C 0.90575 1.06302 1.17858
 H340 H 0.89000 1.05417 1.18731
 O341 O 0.97591 1.12360 1.08872
 O342 O 0.97588 1.15271 1.11737
 C343 C 0.96747 1.14382 1.09726
 C344 C 0.94716 1.15675 1.08407
 C345 C 0.93812 1.17947 1.09288
 H346 H 0.94690 1.18819 1.10868
 O347 O 1.02375 0.87712 1.09036
 O348 O 1.02366 0.84832 1.11933
 C349 C 1.03221 0.85701 1.09920
 C350 C 1.05266 0.84407 1.08624
 C351 C 1.06184 0.82139 1.09516
 H352 H 1.05353 0.81295 1.11135
 O353 O 1.12309 0.91078 1.02499
 O354 O 1.15197 0.88189 1.02523
 C355 C 1.14319 0.90207 1.03357
 C356 C 1.15610 0.91514 1.05395
 C357 C 1.17881 0.90626 1.06299
 H358 H 1.18754 0.89051 1.05415
 O359 O 0.87700 1.09000 1.02305
 O360 O 0.84811 1.11888 1.02280
 C361 C 0.85683 1.09878 1.03140
 C362 C 0.84381 1.08584 1.05180
 C363 C 0.82097 1.09466 1.06060
 H364 H 0.81225 1.11034 1.05163
 Cu365 Cu 0.99954 0.89714 1.10413
 Cu366 Cu 0.99935 0.86265 1.13899
 Cu367 Cu 0.99997 1.10388 1.10316
 Cu368 Cu 0.99993 1.13879 1.13760
 Cu369 Cu 0.89613 0.89654 1.00039
 Cu370 Cu 0.86139 0.86194 1.00051
 Cu371 Cu 1.10326 0.89658 1.00084
 Cu372 Cu 1.13790 0.86185 1.00115
 Cu373 Cu 0.89695 1.10395 0.99889
 Cu374 Cu 0.86236 1.13870 0.99858
 Cu375 Cu 1.10346 1.10291 0.99970
 Cu376 Cu 1.13822 1.13751 0.99956
 Cu377 Cu 0.89620 1.00087 1.10301
 Cu378 Cu 0.86137 1.00118 1.13755
 Cu379 Cu 1.10343 1.00033 1.10418
 Cu380 Cu 1.13803 1.00046 1.13892
 C381 C 1.06405 0.93624 1.14605
 H382 H 1.05747 0.94294 1.12833
 C383 C 1.08195 0.91797 1.19134
 C384 C 0.93518 1.06549 1.14484
 H385 H 0.94185 1.05886 1.12711
 C386 C 0.91700 1.08344 1.19015
 C387 C 0.85481 1.06535 1.06348
 H388 H 0.87260 1.05867 1.05703
 C389 C 0.80932 1.08347 1.08102
 C390 C 1.14510 0.93573 1.06542
 H391 H 1.12740 0.94245 1.05877
 C392 C 1.19032 0.91744 1.08348
 C393 C 1.06409 0.85513 1.06562
 H394 H 1.05740 0.87281 1.05889
 C395 C 1.08232 0.80996 1.08385
 C396 C 0.93576 1.14575 1.06343
 H397 H 0.94241 1.12804 1.05676
 C398 C 0.91769 1.19100 1.08163
 C399 C 0.93483 0.93641 1.14535
 H400 H 0.94159 0.94292 1.12762
 C401 C 0.91649 0.91873 1.19071
 C402 C 1.06435 1.06503 1.14543
 H403 H 1.05788 1.05834 1.12765
 C404 C 1.08191 1.08322 1.19087
 C405 C 0.93496 0.85519 1.06519
 H406 H 0.94148 0.87296 1.05853
 C407 C 0.91727 0.80976 1.08332
 C408 C 1.06459 1.14526 1.06405
 H409 H 1.05782 1.12755 1.05750
 C410 C 1.08298 1.19056 1.08182
 C411 C 0.85423 0.93617 1.06435
 H412 H 0.87197 0.94271 1.05765
 C413 C 0.80889 0.91840 1.08261
 C414 C 1.14524 1.06440 1.06472
 H415 H 1.12750 1.05770 1.05816
 C416 C 1.19059 1.08266 1.08248
 O417 O 1.08897 0.52514 0.62365
 O418 O 1.11770 0.52543 0.65269
 C419 C 1.09759 0.53381 0.64375
 C420 C 1.08441 0.55428 0.65643
 C421 C 1.09295 0.56343 0.67925
 H422 H 1.10901 0.55509 0.68792
 O423 O 0.91027 0.47662 0.62324
 O424 O 0.88139 0.47679 0.65214
 C425 C 0.90155 0.46830 0.64345
 C426 C 0.91461 0.44804 0.65657
 C427 C 0.90578 0.43923 0.67939
 H428 H 0.89003 0.44813 0.68806
 O429 O 1.02386 0.62397 0.58829
 O430 O 1.02385 0.65314 0.61689
 C431 C 1.03239 0.64415 0.59687
 C432 C 1.05291 0.65684 0.58378
 C433 C 1.06210 0.67960 0.59245
 H434 H 1.05374 0.68823 0.60851
 O435 O 0.97576 0.37725 0.59035
 O436 O 0.97575 0.34850 0.61937
 C437 C 0.96734 0.35712 0.59914
 C438 C 0.94711 0.34399 0.58607
 C439 C 0.93830 0.32116 0.59489
 H440 H 0.94716 0.31252 0.61068
 O441 O 1.12342 0.58910 0.52365
 O442 O 1.15233 0.61796 0.52348
 C443 C 1.14352 0.59791 0.53213
 C444 C 1.15634 0.58513 0.55274
 C445 C 1.17909 0.59402 0.56169
 H446 H 1.18792 0.60960 0.55264
 O447 O 0.87697 0.41030 0.52457
 O448 O 0.84810 0.38141 0.52477
 C449 C 0.85684 0.40162 0.53309
 C450 C 0.84385 0.41480 0.55336
 C451 C 0.82111 0.40599 0.56236
 H452 H 0.81243 0.39016 0.55360
 O453 O 0.97539 0.59031 0.62226
 O454 O 0.97529 0.61935 0.65099
 C455 C 0.96686 0.59915 0.64233
 C456 C 0.94649 0.58613 0.65532
 C457 C 0.93765 0.59491 0.67815
 H458 H 0.94658 0.61062 0.68687
 O459 O 1.02393 0.41155 0.62417
 O460 O 1.02391 0.38288 0.65326
 C461 C 1.03238 0.40296 0.64438
 C462 C 1.05278 0.41603 0.65727
 C463 C 1.06190 0.40711 0.67993
 H464 H 1.05311 0.39132 0.68865
 O465 O 1.12298 0.47659 0.59016
 O466 O 1.15187 0.47683 0.61903
 C467 C 1.14313 0.46821 0.59894
 C468 C 1.15611 0.44780 0.58599
 C469 C 1.17892 0.43894 0.59483
 H470 H 1.18763 0.44788 0.61054
 O471 O 0.87627 0.52458 0.58881
 O472 O 0.84731 0.52474 0.61762
 C473 C 0.85610 0.53309 0.59744
 C474 C 0.84317 0.55342 0.58430
 C475 C 0.82045 0.56245 0.59314
 H476 H 0.81171 0.55363 0.60890
 O477 O 0.91010 0.62356 0.52318
 O478 O 0.88124 0.65248 0.52295
 C479 C 0.90138 0.64377 0.53149
 C480 C 0.91444 0.65686 0.55177
 C481 C 0.90560 0.67966 0.56063
 H482 H 0.88982 0.68832 0.55176
 O483 O 1.08955 0.37708 0.52526
 O484 O 1.11839 0.34815 0.52556
 C485 C 1.09823 0.35699 0.53391
 C486 C 1.08508 0.34419 0.55432
 C487 C 1.09368 0.32137 0.56341
 H488 H 1.10979 0.31277 0.55508
 O489 O 0.91010 0.52496 0.62281
 O490 O 0.88126 0.52517 0.65175
 C491 C 0.90138 0.53361 0.64289
 C492 C 0.91446 0.55410 0.65564
 C493 C 0.90586 0.56320 0.67846
 H494 H 0.88979 0.55483 0.68709
 O495 O 1.08921 0.47679 0.62421
 O496 O 1.11797 0.47698 0.65322
 C497 C 1.09789 0.46841 0.64442
 C498 C 1.08484 0.44801 0.65735
 C499 C 1.09375 0.43876 0.68000
 H500 H 1.10997 0.44701 0.68844
 O501 O 1.02408 0.37749 0.59041
 O502 O 1.02408 0.34871 0.61940
 C503 C 1.03257 0.35740 0.59924
 C504 C 1.05298 0.34443 0.58627
 C505 C 1.06182 0.32161 0.59505
 H506 H 1.05288 0.31286 0.61075
 O507 O 0.97546 0.62425 0.58836
 O508 O 0.97541 0.65341 0.61696
 C509 C 0.96694 0.64446 0.59690
 C510 C 0.94652 0.65724 0.58374
 C511 C 0.93736 0.68003 0.59238
 H512 H 0.94569 0.68864 0.60847
 O513 O 0.87611 0.58973 0.52341
 O514 O 0.84711 0.61850 0.52320
 C515 C 0.85594 0.59845 0.53182
 C516 C 0.84305 0.58544 0.55227
 C517 C 0.82034 0.59427 0.56145
 H518 H 0.81186 0.61045 0.55314
 O519 O 1.12343 0.41104 0.52511
 O520 O 1.15240 0.38225 0.52542
 C521 C 1.14356 0.40242 0.53373
 C522 C 1.15638 0.41564 0.55409
 C523 C 1.17917 0.40703 0.56324
 H524 H 1.18776 0.39089 0.55495
 O525 O 0.97558 0.41144 0.62403
 O526 O 0.97552 0.38280 0.65316
 C527 C 0.96705 0.40285 0.64421
 C528 C 0.94662 0.41601 0.65696
 C529 C 0.93747 0.40742 0.67977
 H530 H 0.94580 0.39133 0.68840
 O531 O 1.02371 0.59048 0.62265
 O532 O 1.02364 0.61953 0.65137
 C533 C 1.03212 0.59932 0.64278
 C534 C 1.05241 0.58632 0.65592
 C535 C 1.06117 0.59516 0.67876
 H536 H 1.05225 0.61092 0.68740
 O537 O 0.87637 0.47620 0.58931
 O538 O 0.84738 0.47632 0.61808
 C539 C 0.85626 0.46769 0.59806
 C540 C 0.84351 0.44709 0.58514
 C541 C 0.82078 0.43792 0.59393
 H542 H 0.81220 0.44634 0.61000
 O543 O 1.12314 0.52489 0.58997
 O544 O 1.15201 0.52520 0.61886
 C545 C 1.14327 0.53345 0.59862
 C546 C 1.15624 0.55364 0.58530
 C547 C 1.17899 0.56282 0.59399
 H548 H 1.18743 0.55471 0.61030
 O549 O 0.91082 0.37631 0.52481
 O550 O 0.88206 0.34730 0.52499
 C551 C 0.90215 0.35620 0.53343
 C552 C 0.91524 0.34349 0.55392
 C553 C 0.90663 0.32069 0.56305
 H554 H 0.89060 0.31203 0.55467
 O555 O 1.08952 0.62304 0.52331
 O556 O 1.11834 0.65199 0.52317
 C557 C 1.09819 0.64326 0.53165
 C558 C 1.08508 0.65635 0.55190
 C559 C 1.09395 0.67913 0.56079
 H560 H 1.10977 0.68776 0.55197
 Cu561 Cu 1.10318 0.50084 0.60412
 Cu562 Cu 1.13777 0.50114 0.63887
 Cu563 Cu 0.89614 0.50057 0.60315
 Cu564 Cu 0.86142 0.50078 0.63779
 Cu565 Cu 0.99961 0.60436 0.60251
 Cu566 Cu 0.99954 0.63929 0.63692
 Cu567 Cu 0.99983 0.39732 0.60434
 Cu568 Cu 0.99981 0.36284 0.63923
 C569 C 1.06399 0.56572 0.64504
 H570 H 1.05755 0.55902 0.62726
 C571 C 1.08147 0.58389 0.69054
 C572 C 0.93519 0.43647 0.64564
 H573 H 0.94187 0.44295 0.62786
 C574 C 0.91703 0.41888 0.69109
 C575 C 1.06440 0.64549 0.56336
 H576 H 1.05769 0.62775 0.55683
 C577 C 1.08265 0.69085 0.58110
 C578 C 0.93562 0.35486 0.56542
 H579 H 0.94210 0.37264 0.55874
 C580 C 0.91802 0.30940 0.58356
 C581 C 1.14520 0.56478 0.56452
 H582 H 1.12747 0.55807 0.55795
 C583 C 1.19052 0.58304 0.58234
 C584 C 0.85477 0.43552 0.56471
 H585 H 0.87249 0.44220 0.55807
 C586 C 0.80948 0.41733 0.58270
 C587 C 0.93492 0.56557 0.64434
 H588 H 0.94142 0.55892 0.62656
 C589 C 0.91731 0.58363 0.68983
 C590 C 1.06421 0.43664 0.64626
 H591 H 1.05750 0.44338 0.62859
 C592 C 1.08244 0.41825 0.69137
 C593 C 1.14512 0.43618 0.56546
 H594 H 1.12736 0.44268 0.55878
 C595 C 1.19055 0.41853 0.58363
 C596 C 0.85419 0.56487 0.56371
 H597 H 0.87190 0.55821 0.55703
 C598 C 0.80895 0.58294 0.58193
 C599 C 0.93506 0.64593 0.56329
 H600 H 0.94175 0.62817 0.55678
 C601 C 0.91687 0.69134 0.58098
 C602 C 1.06457 0.35545 0.56574
 H603 H 1.05807 0.37322 0.55908
 C604 C 1.08219 0.30996 0.58380
 O605 O 1.08965 0.47495 0.37642
 O606 O 1.11847 0.47477 0.34747
 C607 C 1.09835 0.46636 0.35630
 C608 C 1.08523 0.44594 0.34351
 C609 C 1.09388 0.43679 0.32073
 H610 H 1.10999 0.44511 0.31213
 O611 O 0.91054 0.52320 0.37670
 O612 O 0.88176 0.52297 0.34772
 C613 C 0.90185 0.53155 0.35649
 C614 C 0.91485 0.55192 0.34349
 C615 C 0.90599 0.56083 0.32072
 H616 H 0.89024 0.55194 0.31202
 O617 O 0.97572 0.62272 0.40993
 O618 O 0.97576 0.65148 0.38091
 C619 C 0.96726 0.64282 0.40108
 C620 C 0.94685 0.65585 0.41400
 C621 C 0.93803 0.67866 0.40514
 H622 H 0.94702 0.68737 0.38946
 O623 O 1.02458 0.37615 0.41128
 O624 O 1.02471 0.34699 0.38268
 C625 C 1.03314 0.35597 0.40274
 C626 C 1.05355 0.34323 0.41597
 C627 C 1.06275 0.32045 0.40738
 H628 H 1.05450 0.31184 0.39124
 O629 O 1.12349 0.41072 0.47671
 O630 O 1.15246 0.38193 0.47699
 C631 C 1.14364 0.40195 0.46831
 C632 C 1.15651 0.41478 0.44773
 C633 C 1.17929 0.40591 0.43884
 H634 H 1.18810 0.39032 0.44789
 O635 O 0.87624 0.58927 0.47509
 O636 O 0.84725 0.61805 0.47478
 C637 C 0.85609 0.59786 0.46651
 C638 C 0.84323 0.58453 0.44626
 C639 C 0.82043 0.59311 0.43710
 H640 H 0.81188 0.60931 0.44528
 O641 O 1.02408 0.58848 0.37627
 O642 O 1.02409 0.61714 0.34716
 C643 C 1.03257 0.59707 0.35607
 C644 C 1.05302 0.58401 0.34323
 C645 C 1.06209 0.59288 0.32054
 H646 H 1.05324 0.60861 0.31177
 O647 O 0.97610 0.40960 0.37711
 O648 O 0.97611 0.38059 0.34836
 C649 C 0.96760 0.40075 0.35704
 C650 C 0.94717 0.41375 0.34410
 C651 C 0.93807 0.40492 0.32136
 H652 H 0.94641 0.38875 0.31289
 O653 O 1.12349 0.52342 0.41019
 O654 O 1.15246 0.52327 0.38139
 C655 C 1.14366 0.53183 0.40147
 C656 C 1.15658 0.55226 0.41446
 C657 C 1.17934 0.56121 0.40562
 H658 H 1.18809 0.55232 0.38990
 O659 O 0.87662 0.47495 0.41077
 O660 O 0.84772 0.47468 0.38190
 C661 C 0.85651 0.46635 0.40208
 C662 C 0.84364 0.44601 0.41527
 C663 C 0.82083 0.43692 0.40665
 H664 H 0.81226 0.44522 0.39051
 O665 O 1.08951 0.62261 0.47499
 O666 O 1.11833 0.65157 0.47484
 C667 C 1.09820 0.64273 0.46642
 C668 C 1.08513 0.65558 0.44601
 C669 C 1.09393 0.67833 0.43699
 H670 H 1.10967 0.68709 0.44583
 O671 O 0.91086 0.37600 0.47646
 O672 O 0.88208 0.34701 0.47658
 C673 C 0.90219 0.35579 0.46806
 C674 C 0.91530 0.34283 0.44773
 C675 C 0.90648 0.32011 0.43858
 H676 H 0.89026 0.31166 0.44685
 O677 O 0.91073 0.47484 0.37703
 O678 O 0.88194 0.47460 0.34805
 C679 C 0.90208 0.46623 0.35691
 C680 C 0.91517 0.44581 0.34410
 C681 C 0.90641 0.43676 0.32135
 H682 H 0.89070 0.44561 0.31254
 O683 O 1.08957 0.52329 0.37630
 O684 O 1.11840 0.52321 0.34736
 C685 C 1.09828 0.53172 0.35613
 C686 C 1.08518 0.55210 0.34320
 C687 C 1.09403 0.56131 0.32051
 H688 H 1.11026 0.55307 0.31207
 O689 O 0.97623 0.37595 0.41129
 O690 O 0.97631 0.34682 0.38266
 C691 C 0.96781 0.35572 0.40272
 C692 C 0.94742 0.34284 0.41581
 C693 C 0.93839 0.32012 0.40698
 H694 H 0.94724 0.31134 0.39126
 O695 O 1.02409 0.62274 0.40983
 O696 O 1.02417 0.65151 0.38084
 C697 C 1.03263 0.64281 0.40101
 C698 C 1.05308 0.65570 0.41401
 C699 C 1.06221 0.67844 0.40521
 H700 H 1.05385 0.68695 0.38907
 O701 O 0.87694 0.40992 0.47625
 O702 O 0.84803 0.38105 0.47641
 C703 C 0.85679 0.40115 0.46784
 C704 C 0.84383 0.41411 0.44742
 C705 C 0.82101 0.40533 0.43857
 H706 H 0.81225 0.38965 0.44752
 O707 O 1.12366 0.58888 0.47524
 O708 O 1.15257 0.61774 0.47507
 C709 C 1.14380 0.59756 0.46670
 C710 C 1.15671 0.58439 0.44636
 C711 C 1.17946 0.59312 0.43721
 H712 H 1.18797 0.60930 0.44549
 O713 O 1.02443 0.40975 0.37702
 O714 O 1.02449 0.38070 0.34829
 C715 C 1.03290 0.40092 0.35691
 C716 C 1.05321 0.41394 0.34385
 C717 C 1.06207 0.40509 0.32105
 H718 H 1.05318 0.38934 0.31237
 O719 O 0.97572 0.58862 0.37619
 O720 O 0.97569 0.61725 0.34706
 C721 C 0.96721 0.59719 0.35600
 C722 C 0.94680 0.58402 0.34321
 C723 C 0.93762 0.59270 0.32045
 H724 H 0.94590 0.60884 0.31189
 O725 O 0.87655 0.52331 0.41055
 O726 O 0.84767 0.52306 0.38166
 C727 C 0.85640 0.53169 0.40174
 C728 C 0.84341 0.55216 0.41459
 C729 C 0.82061 0.56099 0.40572
 H730 H 0.81186 0.55197 0.39008
 O731 O 1.12342 0.47511 0.41049
 O732 O 1.15239 0.47488 0.38170
 C733 C 1.14358 0.46656 0.40189
 C734 C 1.15650 0.44633 0.41522
 C735 C 1.17928 0.43716 0.40658
 H736 H 1.18776 0.44531 0.39032
 O737 O 1.08961 0.37679 0.47690
 O738 O 1.11847 0.34789 0.47716
 C739 C 1.09837 0.35661 0.46856
 C740 C 1.08542 0.34357 0.44817
 C741 C 1.09430 0.32077 0.43933
 H742 H 1.11002 0.31208 0.44829
 O743 O 0.91008 0.62327 0.47487
 O744 O 0.88124 0.65220 0.47455
 C745 C 0.90140 0.64335 0.46621
 C746 C 0.91461 0.65613 0.44582
 C747 C 0.90602 0.67893 0.43665
 H748 H 0.88988 0.68753 0.44490
 Cu749 Cu 1.10364 0.49920 0.39622
 Cu750 Cu 1.13834 0.49901 0.36157
 Cu751 Cu 0.89649 0.49909 0.39667
 Cu752 Cu 0.86188 0.49880 0.36192
 Cu753 Cu 1.10366 0.60299 0.49931
 Cu754 Cu 1.13829 0.63771 0.49912
 Cu755 Cu 1.10363 0.39680 0.50098
 Cu756 Cu 1.13834 0.36216 0.50131
 Cu757 Cu 0.89602 0.60357 0.49916
 Cu758 Cu 0.86131 0.63821 0.49884
 Cu759 Cu 0.89680 0.39601 0.50050
 Cu760 Cu 0.86217 0.36129 0.50071
 Cu761 Cu 0.99990 0.60277 0.39597
 Cu762 Cu 0.99993 0.63722 0.36107
 Cu763 Cu 1.00033 0.39577 0.39704
 Cu764 Cu 1.00042 0.36084 0.36263
 C765 C 1.06474 0.43452 0.35479
 H766 H 1.05822 0.44121 0.37254
 C767 C 1.08245 0.41633 0.30938
 C768 C 0.93541 0.56349 0.35446
 H769 H 0.94212 0.55694 0.37220
 C770 C 0.91718 0.58125 0.30910
 C771 C 0.93517 0.64487 0.43450
 H772 H 0.94166 0.62710 0.44120
 C773 C 0.91759 0.69031 0.41629
 C774 C 1.06489 0.35452 0.43652
 H775 H 1.05816 0.37228 0.44301
 C776 C 1.08315 0.30911 0.41891
 C777 C 1.14539 0.43514 0.43594
 H778 H 1.12764 0.44184 0.44247
 C779 C 1.19078 0.41693 0.41824
 C780 C 0.85444 0.56390 0.43502
 H781 H 0.87221 0.55742 0.44173
 C782 C 0.80901 0.58149 0.41680
 C783 C 1.06453 0.56346 0.35429
 H784 H 1.05785 0.55675 0.37198
 C785 C 1.08265 0.58176 0.30910
 C786 C 0.93572 0.43433 0.35519
 H787 H 0.94235 0.44100 0.37292
 C788 C 0.91764 0.41628 0.30989
 C789 C 1.14555 0.56381 0.43499
 H790 H 1.12781 0.55723 0.44168
 C791 C 1.19088 0.58168 0.41680
 C792 C 0.85486 0.43461 0.43581
 H793 H 0.87264 0.44126 0.44232
 C794 C 0.80940 0.41655 0.41815
 C795 C 1.06455 0.64455 0.43456
 H796 H 1.05789 0.62683 0.44120
 C797 C 1.08268 0.68985 0.41655
 C798 C 0.93592 0.35392 0.43634
 H799 H 0.94257 0.37164 0.44301
 C800 C 0.91786 0.30866 0.41815
 O801 O 0.47604 0.90945 0.37723
 O802 O 0.47613 0.88044 0.34847
 C803 C 0.46761 0.90061 0.35712
 C804 C 0.44723 0.91362 0.34412
 C805 C 0.43806 0.90469 0.32144
 H806 H 0.44633 0.88845 0.31305
 O807 O 0.52446 1.08861 0.37567
 O808 O 0.52454 1.11720 0.34649
 C809 C 0.53301 1.09716 0.35548
 C810 C 0.55344 1.08398 0.34274
 C811 C 0.56261 1.09256 0.31994
 H812 H 0.55430 1.10865 0.31130
 O813 O 0.37686 0.97516 0.41060
 O814 O 0.34802 0.97495 0.38167
 C815 C 0.35674 0.96662 0.40188
 C816 C 0.34377 0.94630 0.41498
 C817 C 0.32102 0.93732 0.40614
 H818 H 0.31232 0.94615 0.39037
 O819 O 0.62342 1.02379 0.41066
 O820 O 0.65250 1.02365 0.38197
 C821 C 0.64357 1.03228 0.40198
 C822 C 0.65631 1.05285 0.41497
 C823 C 0.67906 1.06202 0.40622
 H824 H 0.68764 1.05364 0.39013
 O825 O 0.41045 0.87628 0.47646
 O826 O 0.38164 0.84733 0.47652
 C827 C 0.40180 0.85608 0.46808
 C828 C 0.41494 0.84305 0.44781
 C829 C 0.40612 0.82029 0.43885
 H830 H 0.39032 0.81160 0.44767
 O831 O 0.58901 1.12354 0.47528
 O832 O 0.61778 1.15253 0.47518
 C833 C 0.59771 1.14364 0.46668
 C834 C 0.58471 1.15635 0.44611
 C835 C 0.59335 1.17916 0.43702
 H836 H 0.60934 1.18783 0.44548
 O837 O 0.41087 1.02325 0.37633
 O838 O 0.38209 1.02301 0.34734
 C839 C 0.40220 1.03156 0.35609
 C840 C 0.41523 1.05186 0.34301
 C841 C 0.40633 1.06076 0.32025
 H842 H 0.39054 1.05189 0.31160
 O843 O 0.58976 0.97504 0.37708
 O844 O 0.61867 0.97479 0.34822
 C845 C 0.59852 0.96637 0.35703
 C846 C 0.58543 0.94589 0.34426
 C847 C 0.59409 0.93677 0.32147
 H848 H 0.61020 0.94510 0.31289
 O849 O 0.52434 0.87593 0.41157
 O850 O 0.52456 0.84679 0.38294
 C851 C 0.53295 0.85576 0.40303
 C852 C 0.55339 0.84307 0.41624
 C853 C 0.56261 0.82030 0.40766
 H854 H 0.55433 0.81166 0.39155
 O855 O 0.47600 1.12271 0.40924
 O856 O 0.47606 1.15144 0.38020
 C857 C 0.46755 1.14281 0.40038
 C858 C 0.44720 1.15588 0.41335
 C859 C 0.43841 1.17872 0.40454
 H860 H 0.44735 1.18740 0.38881
 O861 O 0.37670 1.08959 0.47465
 O862 O 0.34773 1.11839 0.47427
 C863 C 0.35656 1.09818 0.46604
 C864 C 0.34369 1.08485 0.44580
 C865 C 0.32086 1.09340 0.43668
 H866 H 0.31231 1.10960 0.44487
 O867 O 0.62343 0.91084 0.47686
 O868 O 0.65240 0.88204 0.47720
 C869 C 0.64362 0.90208 0.46854
 C870 C 0.65661 0.91496 0.44808
 C871 C 0.67938 0.90606 0.43921
 H872 H 0.68811 0.89038 0.44819
 O873 O 0.47610 1.08852 0.37562
 O874 O 0.47611 1.11712 0.34645
 C875 C 0.46763 1.09707 0.35540
 C876 C 0.44722 1.08390 0.34263
 C877 C 0.43801 1.09257 0.31988
 H878 H 0.44629 1.10871 0.31129
 O879 O 0.52438 0.90969 0.37751
 O880 O 0.52454 0.88069 0.34874
 C881 C 0.53294 0.90089 0.35744
 C882 C 0.55335 0.91391 0.34449
 C883 C 0.56224 0.90511 0.32169
 H884 H 0.55333 0.88940 0.31295
 O885 O 0.62370 0.97544 0.41098
 O886 O 0.65275 0.97522 0.38227
 C887 C 0.64390 0.96692 0.40244
 C888 C 0.65678 0.94667 0.41576
 C889 C 0.67955 0.93748 0.40712
 H890 H 0.68808 0.94566 0.39091
 O891 O 0.37689 1.02353 0.41021
 O892 O 0.34803 1.02329 0.38130
 C893 C 0.35676 1.03193 0.40137
 C894 C 0.34381 1.05244 0.41419
 C895 C 0.32099 1.06124 0.40535
 H896 H 0.31221 1.05219 0.38974
 O897 O 0.41065 1.12347 0.47448
 O898 O 0.38182 1.15240 0.47411
 C899 C 0.40198 1.14354 0.46579
 C900 C 0.41515 1.15628 0.44535
 C901 C 0.40659 1.17910 0.43623
 H902 H 0.39052 1.18774 0.44457
 O903 O 0.58956 0.87685 0.47695
 O904 O 0.61843 0.84796 0.47729
 C905 C 0.59833 0.85665 0.46866
 C906 C 0.58537 0.84354 0.44832
 C907 C 0.59428 0.82075 0.43949
 H908 H 0.61005 0.81212 0.44840
 O909 O 0.58973 1.02337 0.37652
 O910 O 0.61868 1.02319 0.34769
 C911 C 0.59850 1.03169 0.35633
 C912 C 0.58546 1.05195 0.34319
 C913 C 0.59431 1.06075 0.32036
 H914 H 0.61007 1.05184 0.31172
 O915 O 0.41096 0.97490 0.37684
 O916 O 0.38219 0.97468 0.34784
 C917 C 0.40229 0.96627 0.35674
 C918 C 0.41532 0.94576 0.34400
 C919 C 0.40648 0.93661 0.32134
 H920 H 0.39076 0.94544 0.31252
 O921 O 0.52428 1.12266 0.40947
 O922 O 0.52439 1.15139 0.38043
 C923 C 0.53275 1.14277 0.40068
 C924 C 0.55297 1.15587 0.41382
 C925 C 0.56181 1.17870 0.40505
 H926 H 0.55299 1.18735 0.38924
 O927 O 0.47597 0.87579 0.41141
 O928 O 0.47611 0.84666 0.38278
 C929 C 0.46754 0.85558 0.40281
 C930 C 0.44707 0.84276 0.41588
 C931 C 0.43792 0.82001 0.40715
 H932 H 0.44628 0.81145 0.39104
 O933 O 0.62283 1.08951 0.47563
 O934 O 0.65171 1.11839 0.47550
 C935 C 0.64298 1.09819 0.46714
 C936 C 0.65598 1.08503 0.44685
 C937 C 0.67874 1.09385 0.43789
 H938 H 0.68743 1.10965 0.44670
 O939 O 0.37643 0.91007 0.47608
 O940 O 0.34748 0.88126 0.47613
 C941 C 0.35631 0.90133 0.46757
 C942 C 0.34352 0.91433 0.44706
 C943 C 0.32079 0.90556 0.43789
 H944 H 0.31224 0.88944 0.44623
 Cu945 Cu 0.50016 0.89561 0.39730
 Cu946 Cu 0.50036 0.86072 0.36286
 Cu947 Cu 0.50021 1.10274 0.39539
 Cu948 Cu 0.50029 1.13716 0.36046
 Cu949 Cu 0.39678 0.99924 0.39640
 Cu950 Cu 0.36219 0.99896 0.36163
 Cu951 Cu 0.60376 0.99942 0.39669
 Cu952 Cu 0.63856 0.99919 0.36215
 C953 C 0.43586 0.93430 0.35512
 H954 H 0.44254 0.94104 0.37280
 C955 C 0.41762 0.91603 0.30997
 C956 C 0.56486 1.06352 0.35409
 H957 H 0.55816 1.05706 0.37186
 C958 C 0.58307 1.08109 0.30864
 C959 C 0.35473 0.93484 0.43560
 H960 H 0.37245 0.94146 0.44230
 C961 C 0.30944 0.91691 0.41739
 C962 C 0.64504 1.06437 0.43543
 H963 H 0.62732 1.05768 0.44202
 C964 C 0.69037 1.08256 0.41752
 C965 C 0.43558 0.85401 0.43636
 H966 H 0.44226 0.87175 0.44294
 C967 C 0.41740 0.80867 0.41848
 C968 C 0.56438 1.14498 0.43451
 H969 H 0.55787 1.12720 0.44116
 C970 C 0.58203 1.19045 0.41646
 C971 C 0.43583 1.06340 0.35392
 H972 H 0.44256 1.05686 0.37166
 C973 C 0.41752 1.08116 0.30859
 C974 C 0.56491 0.93446 0.35550
 H975 H 0.55837 0.94113 0.37326
 C976 C 0.58264 0.91635 0.31008
 C977 C 0.56476 0.85442 0.43673
 H978 H 0.55802 0.87217 0.44320
 C979 C 0.58308 0.80902 0.41913
 C980 C 0.43561 1.14494 0.43392
 H981 H 0.44207 1.12716 0.44060
 C982 C 0.41808 1.19044 0.41581
 C983 C 0.35488 1.06421 0.43458
 H984 H 0.37266 1.05775 0.44126
 C985 C 0.30940 1.08174 0.41643
 C986 C 0.64559 0.93542 0.43639
 H987 H 0.62784 0.94214 0.44290
 C988 C 0.69096 0.91714 0.41870
 O989 O 0.52356 0.91162 0.62387
 O990 O 0.52350 0.88300 0.65301
 C991 C 0.53198 0.90307 0.64411
 C992 C 0.55235 0.91619 0.65701
 C993 C 0.56137 0.90736 0.67974
 H994 H 0.55254 0.89161 0.68849
 O995 O 0.47490 1.09037 0.62284
 O996 O 0.47471 1.11935 0.65162
 C997 C 0.46632 1.09916 0.64291
 C998 C 0.44593 1.08607 0.65580
 C999 C 0.43681 1.09481 0.67856
 H1000 H 0.44512 1.11096 0.68708
 O1001 O 0.37611 1.02484 0.58857
 O1002 O 0.34703 1.02508 0.61725
 C1003 C 0.35594 1.03343 0.59713
 C1004 C 0.34315 1.05379 0.58388
 C1005 C 0.32036 1.06295 0.59248
 H1006 H 0.31176 1.05468 0.60862
 O1007 O 0.62284 0.97686 0.59012
 O1008 O 0.65169 0.97707 0.61903
 C1009 C 0.64298 0.96847 0.59893
 C1010 C 0.65598 0.94804 0.58601
 C1011 C 0.67881 0.93922 0.59483
 H1012 H 0.68755 0.94821 0.61049
 O1013 O 0.58927 0.87727 0.52530
 O1014 O 0.61815 0.84839 0.52565
 C1015 C 0.59797 0.85720 0.53395
 C1016 C 0.58485 0.84436 0.55435
 C1017 C 0.59365 0.82164 0.56342
 H1018 H 0.60939 0.81286 0.55461
 O1019 O 0.41042 1.12387 0.52285
 O1020 O 0.38156 1.15279 0.52252
 C1021 C 0.40164 1.14406 0.53117
 C1022 C 0.41452 1.15705 0.55162
 C1023 C 0.40564 1.17983 0.56048
 H1024 H 0.38997 1.18857 0.55149
 O1025 O 0.40985 0.97664 0.62288
 O1026 O 0.38088 0.97680 0.65168
 C1027 C 0.40104 0.96827 0.64304
 C1028 C 0.41404 0.94795 0.65614
 C1029 C 0.40517 0.93911 0.67894
 H1030 H 0.38938 0.94800 0.68757
 O1031 O 0.58871 1.02530 0.62369
 O1032 O 0.61742 1.02555 0.65274
 C1033 C 0.59731 1.03392 0.64383
 C1034 C 0.58410 1.05433 0.65658
 C1035 C 0.59271 1.06350 0.67936
 H1036 H 0.60884 1.05521 0.68796
 O1037 O 0.47542 0.87727 0.59004
 O1038 O 0.47538 0.84855 0.61909
 C1039 C 0.46696 0.85717 0.59887
 C1040 C 0.44664 0.84410 0.58586
 C1041 C 0.43778 0.82131 0.59473
 H1042 H 0.44669 0.81264 0.61048
 O1043 O 0.52333 1.12398 0.58880
 O1044 O 0.52323 1.15309 0.61746
 C1045 C 0.53178 1.14417 0.59742
 C1046 C 0.55224 1.15700 0.58438
 C1047 C 0.56132 1.17970 0.59322
 H1048 H 0.55248 1.18848 0.60895
 O1049 O 0.37623 0.91045 0.52439
 O1050 O 0.34729 0.88162 0.52454
 C1051 C 0.35604 0.90182 0.53287
 C1052 C 0.34305 0.91511 0.55306
 C1053 C 0.32028 0.90641 0.56220
 H1054 H 0.31183 0.89015 0.55403
 O1055 O 0.62273 1.08992 0.52400
 O1056 O 0.65165 1.11877 0.52389
 C1057 C 0.64285 1.09869 0.53248
 C1058 C 0.65573 1.08580 0.55300
 C1059 C 0.67853 1.09460 0.56189
 H1060 H 0.68734 1.11022 0.55288
 O1061 O 0.52323 1.09040 0.62304
 O1062 O 0.52310 1.11939 0.65182
 C1063 C 0.53163 1.09922 0.64317
 C1064 C 0.55199 1.08626 0.65624
 C1065 C 0.56084 1.09513 0.67903
 H1066 H 0.55192 1.11087 0.68771
 O1067 O 0.47519 0.91138 0.62376
 O1068 O 0.47509 0.88279 0.65293
 C1069 C 0.46661 0.90282 0.64393
 C1070 C 0.44611 0.91596 0.65661
 C1071 C 0.43692 0.90736 0.67939
 H1072 H 0.44525 0.89128 0.68804
 O1073 O 0.62276 1.02519 0.58990
 O1074 O 0.65162 1.02548 0.61880
 C1075 C 0.64287 1.03379 0.59859
 C1076 C 0.65577 1.05408 0.58535
 C1077 C 0.67857 1.06320 0.59399
 H1078 H 0.68708 1.05496 0.61019
 O1079 O 0.37602 0.97647 0.58887
 O1080 O 0.34695 0.97668 0.61758
 C1081 C 0.35583 0.96806 0.59756
 C1082 C 0.34298 0.94754 0.58467
 C1083 C 0.32021 0.93860 0.59350
 H1084 H 0.31139 0.94760 0.60912
 O1085 O 0.58880 1.12383 0.52367
 O1086 O 0.61760 1.15279 0.52361
 C1087 C 0.59747 1.14402 0.53209
 C1088 C 0.58436 1.15698 0.55244
 C1089 C 0.59321 1.17968 0.56161
 H1090 H 0.60943 1.18812 0.55334
 O1091 O 0.41016 0.87655 0.52478
 O1092 O 0.38138 0.84757 0.52493
 C1093 C 0.40148 0.85645 0.53339
 C1094 C 0.41459 0.84372 0.55387
 C1095 C 0.40595 0.82094 0.56306
 H1096 H 0.38985 0.81233 0.55475
 O1097 O 0.58886 0.97696 0.62398
 O1098 O 0.61759 0.97712 0.65302
 C1099 C 0.59751 0.96856 0.64419
 C1100 C 0.58442 0.94817 0.65710
 C1101 C 0.59323 0.93900 0.67982
 H1102 H 0.60942 0.94728 0.68830
 O1103 O 0.40983 1.02497 0.62270
 O1104 O 0.38085 1.02515 0.65149
 C1105 C 0.40103 1.03354 0.64277
 C1106 C 0.41403 1.05396 0.65568
 C1107 C 0.40522 1.06290 0.67846
 H1108 H 0.38952 1.05399 0.68722
 O1109 O 0.47501 1.12412 0.58874
 O1110 O 0.47485 1.15324 0.61739
 C1111 C 0.46649 1.14433 0.59727
 C1112 C 0.44621 1.15719 0.58397
 C1113 C 0.43704 1.17997 0.59259
 H1114 H 0.44522 1.18850 0.60880
 O1115 O 0.52377 0.87728 0.59038
 O1116 O 0.52376 0.84854 0.61941
 C1117 C 0.53229 0.85722 0.59925
 C1118 C 0.55277 0.84431 0.58631
 C1119 C 0.56190 0.82159 0.59518
 H1120 H 0.55354 0.81311 0.61133
 O1121 O 0.62325 0.91115 0.52523
 O1122 O 0.65224 0.88237 0.52558
 C1123 C 0.64338 0.90254 0.53387
 C1124 C 0.65620 0.91581 0.55419
 C1125 C 0.67903 0.90723 0.56331
 H1126 H 0.68761 0.89109 0.55505
 O1127 O 0.37663 1.08986 0.52295
 O1128 O 0.34766 1.11866 0.52263
 C1129 C 0.35643 1.09860 0.53128
 C1130 C 0.34344 1.08566 0.55170
 C1131 C 0.32064 1.09452 0.56054
 H1132 H 0.31193 1.11023 0.55160
 Cu1133 Cu 0.49949 0.89725 0.60410
 Cu1134 Cu 0.49943 0.86285 0.63904
 Cu1135 Cu 0.49911 1.10431 0.60299
 Cu1136 Cu 0.49896 1.13919 0.63745
 Cu1137 Cu 0.39620 0.89623 0.50043
 Cu1138 Cu 0.36155 0.86153 0.50054
 Cu1139 Cu 0.60349 0.89692 0.50105
 Cu1140 Cu 0.63821 0.86229 0.50147
 Cu1141 Cu 0.39650 1.10382 0.49875
 Cu1142 Cu 0.36179 1.13847 0.49834
 Cu1143 Cu 0.60294 1.10382 0.49966
 Cu1144 Cu 0.63758 1.13852 0.49953
 Cu1145 Cu 0.39585 1.00071 0.60287
 Cu1146 Cu 0.36101 1.00095 0.63738
 Cu1147 Cu 0.60291 1.00106 0.60403
 Cu1148 Cu 0.63747 1.00133 0.63881
 C1149 C 0.56383 0.93676 0.64596
 H1150 H 0.55719 0.94343 0.62824
 C1151 C 0.58187 0.91854 0.69122
 C1152 C 0.43455 1.06550 0.64464
 H1153 H 0.44121 1.05892 0.62689
 C1154 C 0.41642 1.08336 0.69000
 C1155 C 0.35442 1.06514 0.56334
 H1156 H 0.37218 1.05844 0.55684
 C1157 C 0.30900 1.08334 0.58096
 C1158 C 0.64496 0.93636 0.56553
 H1159 H 0.62718 0.94284 0.55886
 C1160 C 0.69044 0.91880 0.58365
 C1161 C 0.56425 0.85542 0.56576
 H1162 H 0.55760 0.87312 0.55906
 C1163 C 0.58239 0.81016 0.58388
 C1164 C 0.43497 1.14601 0.56333
 H1165 H 0.44168 1.12826 0.55682
 C1166 C 0.41672 1.19140 0.58100
 C1167 C 0.43467 0.93640 0.64525
 H1168 H 0.44140 0.94290 0.62750
 C1169 C 0.41643 0.91878 0.69067
 C1170 C 0.56359 1.06570 0.64529
 H1171 H 0.55709 1.05899 0.62753
 C1172 C 0.58123 1.08392 0.69070
 C1173 C 0.43508 0.85501 0.56527
 H1174 H 0.44159 0.87276 0.55855
 C1175 C 0.41741 0.80963 0.58352
 C1176 C 0.56373 1.14591 0.56382
 H1177 H 0.55705 1.12821 0.55714
 C1178 C 0.58185 1.19113 0.58205
 C1179 C 0.35411 0.93582 0.56428
 H1180 H 0.37186 0.94239 0.55761
 C1181 C 0.30877 0.91801 0.58247
 C1182 C 0.64463 1.06538 0.56471
 H1183 H 0.62686 1.05872 0.55817
 C1184 C 0.69006 1.08348 0.58240
 O1185 O 0.47626 0.40989 0.87721
 O1186 O 0.47625 0.38093 0.84840
 C1187 C 0.46778 0.40110 0.85710
 C1188 C 0.44740 0.41411 0.84413
 C1189 C 0.43848 0.40528 0.82135
 H1190 H 0.44736 0.38954 0.81263
 O1191 O 0.52436 0.58888 0.87649
 O1192 O 0.52438 0.61753 0.84737
 C1193 C 0.53285 0.59746 0.85630
 C1194 C 0.55328 0.58437 0.84346
 C1195 C 0.56233 0.59319 0.82075
 H1196 H 0.55348 0.60892 0.81196
 O1197 O 0.37710 0.47531 0.91089
 O1198 O 0.34822 0.47511 0.88199
 C1199 C 0.35698 0.46676 0.90219
 C1200 C 0.34406 0.44640 0.91529
 C1201 C 0.32134 0.43737 0.90644
 H1202 H 0.31261 0.44620 0.89067
 O1203 O 0.62365 0.52365 0.91050
 O1204 O 0.65259 0.52346 0.88166
 C1205 C 0.64382 0.53203 0.90175
 C1206 C 0.65679 0.55244 0.91469
 C1207 C 0.67960 0.56128 0.90588
 H1208 H 0.68837 0.55230 0.89022
 O1209 O 0.41079 0.37621 0.97648
 O1210 O 0.38199 0.34726 0.97659
 C1211 C 0.40210 0.35603 0.96806
 C1212 C 0.41519 0.34309 0.94768
 C1213 C 0.40632 0.32041 0.93848
 H1214 H 0.39010 0.31197 0.94674
 O1215 O 0.58979 0.62313 0.97505
 O1216 O 0.61865 0.65204 0.97489
 C1217 C 0.59850 0.64324 0.96649
 C1218 C 0.58543 0.65612 0.94609
 C1219 C 0.59421 0.67887 0.93708
 H1220 H 0.60994 0.68764 0.94592
 O1221 O 0.41100 0.52353 0.87672
 O1222 O 0.38220 0.52335 0.84776
 C1223 C 0.40229 0.53191 0.85653
 C1224 C 0.41525 0.55232 0.84355
 C1225 C 0.40633 0.56127 0.82082
 H1226 H 0.39059 0.55236 0.81212
 O1227 O 0.58958 0.47527 0.87681
 O1228 O 0.61841 0.47510 0.84787
 C1229 C 0.59827 0.46670 0.85670
 C1230 C 0.58523 0.44627 0.84387
 C1231 C 0.59399 0.43727 0.82110
 H1232 H 0.60965 0.44618 0.81227
 O1233 O 0.52457 0.37609 0.91124
 O1234 O 0.52464 0.34700 0.88257
 C1235 C 0.53308 0.35590 0.90266
 C1236 C 0.55344 0.34308 0.91586
 C1237 C 0.56265 0.32033 0.90718
 H1238 H 0.55442 0.31178 0.89100
 O1239 O 0.47603 0.62313 0.91015
 O1240 O 0.47606 0.65188 0.88113
 C1241 C 0.46757 0.64323 0.90131
 C1242 C 0.44718 0.65625 0.91426
 C1243 C 0.43836 0.67907 0.90543
 H1244 H 0.44734 0.68779 0.88974
 O1245 O 0.37659 0.58957 0.97517
 O1246 O 0.34764 0.61838 0.97492
 C1247 C 0.35646 0.59821 0.96659
 C1248 C 0.34362 0.58494 0.94626
 C1249 C 0.32084 0.59356 0.93708
 H1250 H 0.31229 0.60975 0.94528
 O1251 O 0.62339 0.41050 0.97653
 O1252 O 0.65233 0.38168 0.97670
 C1253 C 0.64353 0.40174 0.96808
 C1254 C 0.65642 0.41463 0.94757
 C1255 C 0.67920 0.40579 0.93867
 H1256 H 0.68798 0.39013 0.94765
 O1257 O 0.47601 0.58911 0.87631
 O1258 O 0.47598 0.61775 0.84717
 C1259 C 0.46751 0.59768 0.85611
 C1260 C 0.44711 0.58450 0.84331
 C1261 C 0.43787 0.59322 0.82058
 H1262 H 0.44609 0.60941 0.81204
 O1263 O 0.52458 0.40977 0.87707
 O1264 O 0.52463 0.38081 0.84826
 C1265 C 0.53306 0.40099 0.85695
 C1266 C 0.55338 0.41409 0.84395
 C1267 C 0.56246 0.40531 0.82118
 H1268 H 0.55417 0.38910 0.81273
 O1269 O 0.62354 0.47532 0.91068
 O1270 O 0.65249 0.47508 0.88186
 C1271 C 0.64367 0.46673 0.90203
 C1272 C 0.65653 0.44639 0.91526
 C1273 C 0.67931 0.43723 0.90661
 H1274 H 0.68783 0.44546 0.89041
 O1275 O 0.37692 0.52369 0.91048
 O1276 O 0.34802 0.52348 0.88160
 C1277 C 0.35677 0.53210 0.90168
 C1278 C 0.34381 0.55260 0.91455
 C1279 C 0.32103 0.56146 0.90567
 H1280 H 0.31228 0.55246 0.89001
 O1281 O 0.41041 0.62358 0.97506
 O1282 O 0.38162 0.65256 0.97485
 C1283 C 0.40176 0.64371 0.96647
 C1284 C 0.41498 0.65652 0.94610
 C1285 C 0.40638 0.67932 0.93696
 H1286 H 0.39024 0.68792 0.94523
 O1287 O 0.58953 0.37654 0.97677
 O1288 O 0.61838 0.34762 0.97695
 C1289 C 0.59827 0.35635 0.96841
 C1290 C 0.58530 0.34333 0.94804
 C1291 C 0.59420 0.32058 0.93913
 H1292 H 0.60994 0.31188 0.94804
 O1293 O 0.58976 0.52361 0.87656
 O1294 O 0.61858 0.52350 0.84761
 C1295 C 0.59847 0.53204 0.85639
 C1296 C 0.58540 0.55243 0.84345
 C1297 C 0.59424 0.56160 0.82074
 H1298 H 0.61044 0.55332 0.81228
 O1299 O 0.41090 0.47515 0.87682
 O1300 O 0.38212 0.47496 0.84783
 C1301 C 0.40224 0.46655 0.85669
 C1302 C 0.41536 0.44611 0.84389
 C1303 C 0.40667 0.43697 0.82112
 H1304 H 0.39055 0.44530 0.81255
 O1305 O 0.52439 0.62324 0.90995
 O1306 O 0.52445 0.65201 0.88094
 C1307 C 0.53292 0.64332 0.90111
 C1308 C 0.55336 0.65622 0.91411
 C1309 C 0.56247 0.67898 0.90532
 H1310 H 0.55410 0.68749 0.88919
 O1311 O 0.47623 0.37614 0.91128
 O1312 O 0.47624 0.34706 0.88259
 C1313 C 0.46774 0.35596 0.90266
 C1314 C 0.44730 0.34312 0.91572
 C1315 C 0.43820 0.32043 0.90685
 H1316 H 0.44702 0.31167 0.89110
 O1317 O 0.62386 0.58933 0.97525
 O1318 O 0.65282 0.61813 0.97506
 C1319 C 0.64402 0.59796 0.96672
 C1320 C 0.65693 0.58471 0.94645
 C1321 C 0.67973 0.59333 0.93734
 H1322 H 0.68827 0.60951 0.94557
 O1323 O 0.37688 0.41011 0.97629
 O1324 O 0.34792 0.38131 0.97640
 C1325 C 0.35673 0.40138 0.96782
 C1326 C 0.34389 0.41440 0.94734
 C1327 C 0.32118 0.40558 0.93816
 H1328 H 0.31267 0.38942 0.94648
 Cu1329 Cu 0.50043 0.39587 0.89708
 Cu1330 Cu 0.50044 0.36103 0.86257
 Cu1331 Cu 0.50019 0.60323 0.89614
 Cu1332 Cu 0.50021 0.63767 0.86123
 Cu1333 Cu 0.39687 0.49943 0.89662
 Cu1334 Cu 0.36225 0.49920 0.86190
 Cu1335 Cu 0.60374 0.49948 0.89653
 Cu1336 Cu 0.63841 0.49926 0.86184
 C1337 C 0.43587 0.43468 0.85512
 H1338 H 0.44243 0.44137 0.87286
 C1339 C 0.41808 0.41652 0.80974
 C1340 C 0.56477 0.56383 0.85454
 H1341 H 0.55811 0.55715 0.87225
 C1342 C 0.58286 0.58204 0.80930
 C1343 C 0.35505 0.43495 0.93590
 H1344 H 0.37276 0.44160 0.94260
 C1345 C 0.30981 0.41691 0.91766
 C1346 C 0.64574 0.56411 0.93514
 H1347 H 0.62796 0.55761 0.94180
 C1348 C 0.69117 0.58176 0.91701
 C1349 C 0.43582 0.35417 0.93629
 H1350 H 0.44252 0.37186 0.94300
 C1351 C 0.41766 0.30900 0.91801
 C1352 C 0.56484 0.64507 0.93464
 H1353 H 0.55820 0.62734 0.94128
 C1354 C 0.58293 0.69040 0.91666
 C1355 C 0.43581 0.56391 0.85451
 H1356 H 0.44256 0.55733 0.87223
 C1357 C 0.41743 0.58176 0.80924
 C1358 C 0.56476 0.43472 0.85502
 H1359 H 0.55814 0.44134 0.87276
 C1360 C 0.58281 0.41675 0.80967
 C1361 C 0.56476 0.35430 0.93644
 H1362 H 0.55803 0.37203 0.94298
 C1363 C 0.58307 0.30898 0.91866
 C1364 C 0.43552 0.64526 0.93476
 H1365 H 0.44201 0.62748 0.94144
 C1366 C 0.41794 0.69071 0.91659
 C1367 C 0.35483 0.56431 0.93500
 H1368 H 0.37258 0.55780 0.94172
 C1369 C 0.30943 0.58196 0.91675
 C1370 C 0.64536 0.43509 0.93589
 H1371 H 0.62761 0.44179 0.94243
 C1372 C 0.69075 0.41690 0.91816
 O1373 O 0.52431 0.41143 1.12408
 O1374 O 0.52430 0.38282 1.15324
 C1375 C 0.53280 0.40286 1.14429
 C1376 C 0.55322 0.41602 1.15709
 C1377 C 0.56234 0.40737 1.17989
 H1378 H 0.55400 0.39127 1.18848
 O1379 O 0.47615 0.59019 1.12251
 O1380 O 0.47610 0.61918 1.15129
 C1381 C 0.46764 0.59901 1.14260
 C1382 C 0.44722 0.58605 1.15556
 C1383 C 0.43831 0.59488 1.17834
 H1384 H 0.44723 0.61059 1.18708
 O1385 O 0.37673 0.52481 1.08892
 O1386 O 0.34782 0.52498 1.11778
 C1387 C 0.35658 0.53332 1.09759
 C1388 C 0.34361 0.55364 1.08446
 C1389 C 0.32088 0.56265 1.09331
 H1390 H 0.31217 0.55383 1.10909
 O1391 O 0.62381 0.47639 1.08984
 O1392 O 0.65275 0.47651 1.11867
 C1393 C 0.64394 0.46792 1.09860
 C1394 C 0.65678 0.44742 1.08562
 C1395 C 0.67951 0.43827 1.09442
 H1396 H 0.68805 0.44663 1.11054
 O1397 O 0.58958 0.37682 1.02513
 O1398 O 0.61839 0.34786 1.02533
 C1399 C 0.59827 0.35671 1.03374
 C1400 C 0.58515 0.34392 1.05418
 C1401 C 0.59376 0.32110 1.06327
 H1402 H 0.60984 0.31249 1.05492
 O1403 O 0.41045 0.62369 1.02336
 O1404 O 0.38165 0.65265 1.02328
 C1405 C 0.40177 0.64387 1.03179
 C1406 C 0.41491 0.65680 1.05213
 C1407 C 0.40604 0.67947 1.06137
 H1408 H 0.38977 0.68789 1.05319
 O1409 O 0.41071 0.47674 1.12325
 O1410 O 0.38186 0.47694 1.15217
 C1411 C 0.40200 0.46842 1.14346
 C1412 C 0.41502 0.44813 1.15656
 C1413 C 0.40613 0.43927 1.17934
 H1414 H 0.39035 0.44817 1.18799
 O1415 O 0.58990 0.52499 1.12333
 O1416 O 0.61867 0.52522 1.15233
 C1417 C 0.59855 0.53362 1.14343
 C1418 C 0.58539 0.55406 1.15617
 C1419 C 0.59395 0.56322 1.17898
 H1420 H 0.61004 0.55491 1.18762
 O1421 O 0.47596 0.37732 1.09031
 O1422 O 0.47593 0.34858 1.11934
 C1423 C 0.46749 0.35722 1.09913
 C1424 C 0.44717 0.34415 1.08609
 C1425 C 0.43833 0.32133 1.09492
 H1426 H 0.44721 0.31267 1.11069
 O1427 O 0.52456 0.62398 1.08853
 O1428 O 0.52454 0.65308 1.11720
 C1429 C 0.53305 0.64417 1.09715
 C1430 C 0.55349 0.65697 1.08405
 C1431 C 0.56266 0.67971 1.09277
 H1432 H 0.55433 0.68827 1.10890
 O1433 O 0.37687 0.41043 1.02461
 O1434 O 0.34793 0.38161 1.02483
 C1435 C 0.35672 0.40180 1.03317
 C1436 C 0.34383 0.41506 1.05346
 C1437 C 0.32108 0.40636 1.06265
 H1438 H 0.31260 0.39012 1.05446
 O1439 O 0.62370 0.58945 1.02358
 O1440 O 0.65266 0.61826 1.02342
 C1441 C 0.64385 0.59819 1.03201
 C1442 C 0.65676 0.58527 1.05249
 C1443 C 0.67954 0.59410 1.06139
 H1444 H 0.68832 0.60976 1.05242
 O1445 O 0.52451 0.59015 1.12257
 O1446 O 0.52445 0.61915 1.15133
 C1447 C 0.53294 0.59897 1.14269
 C1448 C 0.55328 0.58600 1.15576
 C1449 C 0.56206 0.59484 1.17859
 H1450 H 0.55310 0.61055 1.18727
 O1451 O 0.47595 0.41145 1.12404
 O1452 O 0.47588 0.38283 1.15319
 C1453 C 0.46742 0.40289 1.14423
 C1454 C 0.44700 0.41607 1.15698
 C1455 C 0.43779 0.40744 1.17974
 H1456 H 0.44608 0.39132 1.18836
 O1457 O 0.62378 0.52471 1.08939
 O1458 O 0.65270 0.52493 1.11823
 C1459 C 0.64393 0.53325 1.09804
 C1460 C 0.65684 0.55352 1.08478
 C1461 C 0.67962 0.56265 1.09344
 H1462 H 0.68813 0.55443 1.10965
 O1463 O 0.37686 0.47643 1.08925
 O1464 O 0.34793 0.47660 1.11809
 C1465 C 0.35674 0.46797 1.09803
 C1466 C 0.34387 0.44741 1.08517
 C1467 C 0.32112 0.43847 1.09405
 H1468 H 0.31234 0.44744 1.10970
 O1469 O 0.58989 0.62346 1.02338
 O1470 O 0.61874 0.65238 1.02325
 C1471 C 0.59861 0.64365 1.03176
 C1472 C 0.58556 0.65667 1.05208
 C1473 C 0.59441 0.67943 1.06102
 H1474 H 0.61020 0.68811 1.05218
 O1475 O 0.41080 0.37653 1.02485
 O1476 O 0.38201 0.34756 1.02505
 C1477 C 0.40212 0.35644 1.03348
 C1478 C 0.41522 0.34372 1.05399
 C1479 C 0.40660 0.32093 1.06313
 H1480 H 0.39054 0.31229 1.05476
 O1481 O 0.58971 0.47667 1.12355
 O1482 O 0.61850 0.47681 1.15252
 C1483 C 0.59837 0.46831 1.14376
 C1484 C 0.58527 0.44802 1.15679
 C1485 C 0.59406 0.43915 1.17961
 H1486 H 0.60981 0.44803 1.18831
 O1487 O 0.41066 0.52509 1.12286
 O1488 O 0.38184 0.52529 1.15182
 C1489 C 0.40197 0.53370 1.14296
 C1490 C 0.41509 0.55413 1.15576
 C1491 C 0.40642 0.56328 1.17854
 H1492 H 0.39028 0.55497 1.18710
 O1493 O 0.47617 0.62384 1.08832
 O1494 O 0.47614 0.65291 1.11701
 C1495 C 0.46766 0.64401 1.09694
 C1496 C 0.44717 0.65682 1.08393
 C1497 C 0.43807 0.67949 1.09284
 H1498 H 0.44694 0.68827 1.10855
 O1499 O 0.52429 0.37733 1.09035
 O1500 O 0.52429 0.34859 1.11938
 C1501 C 0.53276 0.35724 1.09918
 C1502 C 0.55311 0.34421 1.08618
 C1503 C 0.56194 0.32138 1.09496
 H1504 H 0.55301 0.31266 1.11068
 O1505 O 0.62344 0.41082 1.02489
 O1506 O 0.65236 0.38197 1.02507
 C1507 C 0.64359 0.40216 1.03341
 C1508 C 0.65656 0.41530 1.05370
 C1509 C 0.67931 0.40649 1.06269
 H1510 H 0.68802 0.39071 1.05387
 O1511 O 0.37641 0.58992 1.02349
 O1512 O 0.34745 0.61873 1.02337
 C1513 C 0.35626 0.59865 1.03194
 C1514 C 0.34340 0.58562 1.05240
 C1515 C 0.32069 0.59444 1.06159
 H1516 H 0.31218 0.61059 1.05328
 Cu1517 Cu 0.50013 0.39726 1.10430
 Cu1518 Cu 0.50010 0.36283 1.13921
 Cu1519 Cu 0.50036 0.60414 1.10260
 Cu1520 Cu 0.50030 0.63901 1.13709
 Cu1521 Cu 0.39672 0.39620 1.00054
 Cu1522 Cu 0.36206 0.36153 1.00074
 Cu1523 Cu 0.60359 0.39656 1.00082
 Cu1524 Cu 0.63827 0.36189 1.00103
 Cu1525 Cu 0.39634 0.60380 0.99928
 Cu1526 Cu 0.36168 0.63848 0.99908
 Cu1527 Cu 0.60392 0.60345 0.99932
 Cu1528 Cu 0.63862 0.63810 0.99914
 Cu1529 Cu 0.39663 0.50076 1.10318
 Cu1530 Cu 0.36195 0.50097 1.13785
 Cu1531 Cu 0.60392 0.50068 1.10363
 Cu1532 Cu 0.63855 0.50089 1.13835
 C1533 C 0.56469 0.43649 1.14582
 H1534 H 0.55803 0.44300 1.12804
 C1535 C 0.58279 0.41878 1.19125
 C1536 C 0.43564 0.56552 1.14454
 H1537 H 0.44219 0.55883 1.12680
 C1538 C 0.41789 0.58367 1.18994
 C1539 C 0.35458 0.56508 1.06384
 H1540 H 0.37230 0.55844 1.05715
 C1541 C 0.30934 0.58311 1.08210
 C1542 C 0.64558 0.43593 1.06512
 H1543 H 0.62785 0.44260 1.05850
 C1544 C 0.69087 0.41775 1.08310
 C1545 C 0.56468 0.35520 1.06563
 H1546 H 0.55818 0.37298 1.05898
 C1547 C 0.58229 0.30971 1.08369
 C1548 C 0.43562 0.64575 1.06342
 H1549 H 0.44231 0.62807 1.05669
 C1550 C 0.41746 0.69089 1.08178
 C1551 C 0.43562 0.43657 1.14566
 H1552 H 0.44235 0.44307 1.12791
 C1553 C 0.41732 0.41889 1.19103
 C1554 C 0.56490 0.56545 1.14483
 H1555 H 0.55844 0.55876 1.12706
 C1556 C 0.58243 0.58363 1.19031
 C1557 C 0.43565 0.35506 1.06547
 H1558 H 0.44215 0.37283 1.05878
 C1559 C 0.41802 0.30962 1.08362
 C1560 C 0.56494 0.64573 1.06356
 H1561 H 0.55823 0.62799 1.05698
 C1562 C 0.58315 0.69105 1.08141
 C1563 C 0.35495 0.43573 1.06472
 H1564 H 0.37267 0.44231 1.05800
 C1565 C 0.30963 0.41791 1.08297
 C1566 C 0.64569 0.56481 1.06415
 H1567 H 0.62793 0.55814 1.05761
 C1568 C 0.69107 0.58298 1.08190
 C1569 C 1.12144 1.12335 1.28155
 C1570 C 1.12905 1.10722 1.30048
 C1571 C 1.13917 1.11712 1.32227
 C1572 C 1.14174 1.14293 1.32512
 C1573 C 1.13390 1.15882 1.30597
 C1574 C 1.12374 1.14914 1.28414
 C1575 C 1.11107 1.11305 1.25848
 C1576 C 1.10364 1.12919 1.23949
 C1577 C 1.09401 1.11931 1.21750
 C1578 C 1.09177 1.09348 1.21441
 C1579 C 1.09927 1.07757 1.23370
 C1580 C 1.10895 1.08726 1.25578
 C1581 C 1.11603 1.16469 1.26476
 C1582 C 1.10615 1.15488 1.24280
 C1583 C 1.12652 1.08153 1.29717
 C1584 C 1.11664 1.07172 1.27520
 H1585 H 1.11771 1.18461 1.26654
 H1586 H 1.10049 1.16752 1.22827
 H1587 H 1.13231 1.06889 1.31165
 H1588 H 1.11508 1.05179 1.27337
 H1589 H 1.14509 1.10487 1.33702
 H1590 H 1.13610 1.17867 1.30799
 H1591 H 1.08868 1.13170 1.20263
 H1592 H 1.09739 1.05769 1.23158
 C1593 C 1.12141 0.62365 0.78122
 C1594 C 1.12907 0.60743 0.80007
 C1595 C 1.13931 0.61724 0.82184
 C1596 C 1.14194 0.64302 0.82477
 C1597 C 1.13408 0.65900 0.80570
 C1598 C 1.12381 0.64942 0.78388
 C1599 C 1.11087 0.61346 0.75817
 C1600 C 1.10340 0.62968 0.73927
 C1601 C 1.09363 0.61990 0.71729
 C1602 C 1.09131 0.59408 0.71413
 C1603 C 1.09882 0.57809 0.73335
 C1604 C 1.10864 0.58769 0.75542
 C1605 C 1.11605 0.66505 0.76458
 C1606 C 1.10602 0.65535 0.74265
 C1607 C 1.12642 0.58176 0.79669
 C1608 C 1.11638 0.57206 0.77475
 H1609 H 1.11781 0.68496 0.76642
 H1610 H 1.10032 0.66805 0.72819
 H1611 H 1.13224 0.56906 0.81110
 H1612 H 1.11473 0.55214 0.77286
 H1613 H 1.14524 0.60492 0.83655
 H1614 H 1.13632 0.67884 0.80779
 H1615 H 1.08829 0.63234 0.70247
 H1616 H 1.09687 0.55823 0.73119
 C1617 C 0.62161 1.12383 0.78111
 C1618 C 0.62934 1.10765 0.79995
 C1619 C 0.63967 1.11749 0.82166
 C1620 C 0.64231 1.14328 0.82454
 C1621 C 0.63438 1.15922 0.80547
 C1622 C 0.62402 1.14960 0.78371
 C1623 C 0.61095 1.11360 0.75813
 C1624 C 0.60338 1.12979 0.73924
 C1625 C 0.59350 1.11997 0.71733
 C1626 C 0.59116 1.09415 0.71422
 C1627 C 0.59877 1.07819 0.73344
 C1628 C 0.60870 1.08783 0.75544
 C1629 C 0.61617 1.16521 0.76442
 C1630 C 0.60603 1.15547 0.74255
 C1631 C 0.62668 1.08197 0.79663
 C1632 C 0.61653 1.07223 0.77475
 H1633 H 0.61794 1.18512 0.76622
 H1634 H 0.60027 1.16815 0.72810
 H1635 H 0.63256 1.06929 0.81104
 H1636 H 0.61487 1.05231 0.77291
 H1637 H 0.64565 1.10520 0.83637
 H1638 H 0.63663 1.17906 0.80752
 H1639 H 0.58808 1.13239 0.70251
 H1640 H 0.59682 1.05832 0.73131
 C1641 C 0.62166 0.62360 1.28120
 C1642 C 0.62924 0.60743 1.30012
 C1643 C 0.63927 0.61729 1.32195
 C1644 C 0.64181 0.64309 1.32488
 C1645 C 0.63399 0.65902 1.30576
 C1646 C 0.62392 0.64938 1.28387
 C1647 C 0.61138 0.61334 1.25807
 C1648 C 0.60398 0.62952 1.23910
 C1649 C 0.59443 0.61968 1.21705
 C1650 C 0.59223 0.59386 1.21389
 C1651 C 0.59970 0.57791 1.23316
 C1652 C 0.60930 0.58756 1.25530
 C1653 C 0.61624 0.66497 1.26450
 C1654 C 0.60645 0.65521 1.24248
 C1655 C 0.62675 0.58174 1.29673
 C1656 C 0.61695 0.57197 1.27470
 H1657 H 0.61790 0.68489 1.26634
 H1658 H 0.60081 0.66787 1.22797
 H1659 H 0.63252 0.56907 1.31119
 H1660 H 0.61542 0.55205 1.27281
 H1661 H 0.64517 0.60500 1.33670
 H1662 H 0.63616 0.67887 1.30784
 H1663 H 0.58911 0.63210 1.20220
 H1664 H 0.59785 0.55803 1.23099
 C1665 C 0.87635 0.87858 1.28113
 C1666 C 0.85057 0.87621 1.28369
 C1667 C 0.84089 0.86592 1.30547
 C1668 C 0.85679 0.85802 1.32459
 C1669 C 0.88259 0.86063 1.32175
 C1670 C 0.89249 0.87089 1.30003
 C1671 C 0.88664 0.88915 1.25814
 C1672 C 0.91242 0.89135 1.25548
 C1673 C 0.92211 0.90121 1.23347
 C1674 C 0.90620 0.90879 1.21421
 C1675 C 0.88037 0.90648 1.21727
 C1676 C 0.87050 0.89667 1.23919
 C1677 C 0.91817 0.87350 1.29675
 C1678 C 0.92797 0.88357 1.27485
 C1679 C 0.83501 0.88402 1.26435
 C1680 C 0.84481 0.89407 1.24246
 H1681 H 0.93081 0.86765 1.31120
 H1682 H 0.94789 0.88519 1.27304
 H1683 H 0.81510 0.88227 1.26611
 H1684 H 0.83217 0.89980 1.22796
 H1685 H 0.82105 0.86370 1.30749
 H1686 H 0.89485 0.85467 1.33649
 H1687 H 0.94199 0.90315 1.23138
 H1688 H 0.86799 0.91188 1.20241
 C1689 C 0.87691 0.37896 0.78161
 C1690 C 0.89304 0.37134 0.80054
 C1691 C 0.88314 0.36114 0.82229
 C1692 C 0.85734 0.35849 0.82511
 C1693 C 0.84145 0.36633 0.80596
 C1694 C 0.85113 0.37658 0.78417
 C1695 C 0.88720 0.38946 0.75859
 C1696 C 0.87106 0.39690 0.73961
 C1697 C 0.88094 0.40664 0.71766
 C1698 C 0.90676 0.40897 0.71461
 C1699 C 0.92268 0.40145 0.73389
 C1700 C 0.91298 0.39166 0.75593
 C1701 C 0.83557 0.38431 0.76479
 C1702 C 0.84537 0.39429 0.74288
 C1703 C 0.91873 0.37396 0.79726
 C1704 C 0.92853 0.38396 0.77534
 H1705 H 0.81566 0.38255 0.76655
 H1706 H 0.83274 0.39997 0.72836
 H1707 H 0.93137 0.36817 0.81174
 H1708 H 0.94845 0.38559 0.77353
 H1709 H 0.89540 0.35522 0.83704
 H1710 H 0.82160 0.36407 0.80796
 H1711 H 0.86855 0.41198 0.70279
 H1712 H 0.94255 0.40340 0.73179
 C1713 C 0.37647 0.87880 0.78124
 C1714 C 0.35070 0.87637 0.78383
 C1715 C 0.34107 0.86611 0.80564
 C1716 C 0.35701 0.85831 0.82477
 C1717 C 0.38280 0.86099 0.82191
 C1718 C 0.39265 0.87121 0.80015
 C1719 C 0.38672 0.88932 0.75821
 C1720 C 0.41249 0.89159 0.75552
 C1721 C 0.42213 0.90141 0.73348
 C1722 C 0.40619 0.90889 0.71420
 C1723 C 0.38037 0.90651 0.71729
 C1724 C 0.37054 0.89674 0.73924
 C1725 C 0.41832 0.87389 0.79684
 C1726 C 0.42808 0.88392 0.77491
 C1727 C 0.33511 0.88406 0.76447
 C1728 C 0.34486 0.89408 0.74255
 H1729 H 0.43099 0.86811 0.81130
 H1730 H 0.44799 0.88559 0.77308
 H1731 H 0.31520 0.88227 0.76625
 H1732 H 0.33219 0.89972 0.72804
 H1733 H 0.32123 0.86383 0.80767
 H1734 H 0.39508 0.85510 0.83665
 H1735 H 0.44200 0.90340 0.73137
 H1736 H 0.36796 0.91183 0.70243
 C1737 C 0.37687 0.37885 1.28135
 C1738 C 0.35109 0.37649 1.28382
 C1739 C 0.34133 0.36623 1.30558
 C1740 C 0.35716 0.35835 1.32476
 C1741 C 0.38297 0.36097 1.32202
 C1742 C 0.39294 0.37119 1.30032
 C1743 C 0.38725 0.38936 1.25837
 C1744 C 0.41305 0.39155 1.25580
 C1745 C 0.42282 0.40137 1.23381
 C1746 C 0.40697 0.40893 1.21449
 C1747 C 0.38113 0.40660 1.21745
 C1748 C 0.37118 0.39684 1.23935
 C1749 C 0.41864 0.37379 1.29713
 C1750 C 0.42852 0.38380 1.27525
 C1751 C 0.33560 0.38425 1.26440
 C1752 C 0.34548 0.39425 1.24253
 H1753 H 0.43123 0.36796 1.31163
 H1754 H 0.44845 0.38542 1.27350
 H1755 H 0.31568 0.38251 1.26610
 H1756 H 0.33289 0.39995 1.22798
 H1757 H 0.32147 0.36399 1.30751
 H1758 H 0.39517 0.35502 1.33681
 H1759 H 0.44270 0.40330 1.23178
 H1760 H 0.36880 0.41198 1.20255
 C1761 C 0.87699 1.12149 0.71843
 C1762 C 0.85118 1.12377 0.71603
 C1763 C 0.84133 1.13393 0.69426
 C1764 C 0.85708 1.14177 0.67500
 C1765 C 0.88290 1.13923 0.67767
 C1766 C 0.89298 1.12913 0.69938
 C1767 C 0.88746 1.11109 0.74141
 C1768 C 0.91327 1.10898 0.74392
 C1769 C 0.92314 1.09923 0.76590
 C1770 C 0.90736 1.09164 0.78527
 C1771 C 0.88151 1.09392 0.78239
 C1772 C 0.87147 1.10362 0.76050
 C1773 C 0.91869 1.12661 0.70251
 C1774 C 0.92867 1.11670 0.72440
 C1775 C 0.83578 1.11604 0.73552
 C1776 C 0.84575 1.10613 0.75739
 H1777 H 0.93122 1.13242 0.68795
 H1778 H 0.94861 1.11515 0.72609
 H1779 H 0.81584 1.11772 0.73388
 H1780 H 0.83322 1.10044 0.77200
 H1781 H 0.82146 1.13612 0.69239
 H1782 H 0.89504 1.14517 0.66283
 H1783 H 0.94303 1.09733 0.76787
 H1784 H 0.86924 1.08852 0.79733
 C1785 C 0.87697 0.62142 0.21873
 C1786 C 0.85119 0.62375 0.21619
 C1787 C 0.84148 0.63399 0.19440
 C1788 C 0.85735 0.64188 0.17525
 C1789 C 0.88316 0.63932 0.17808
 C1790 C 0.89308 0.62911 0.19981
 C1791 C 0.88729 0.61089 0.24173
 C1792 C 0.91307 0.60871 0.24437
 C1793 C 0.92279 0.59886 0.26637
 C1794 C 0.90689 0.59125 0.28563
 C1795 C 0.88106 0.59356 0.28260
 C1796 C 0.87117 0.60336 0.26069
 C1797 C 0.91878 0.62653 0.20308
 C1798 C 0.92860 0.61650 0.22498
 C1799 C 0.83565 0.61596 0.23555
 C1800 C 0.84547 0.60594 0.25743
 H1801 H 0.93140 0.63239 0.18862
 H1802 H 0.94853 0.61490 0.22678
 H1803 H 0.81573 0.61767 0.23380
 H1804 H 0.83285 0.60020 0.27195
 H1805 H 0.82163 0.63619 0.19240
 H1806 H 0.89540 0.64527 0.16332
 H1807 H 0.94267 0.59694 0.26845
 H1808 H 0.86869 0.58814 0.29746
 C1809 C 0.37696 1.12140 0.21841
 C1810 C 0.39300 1.12907 0.19942
 C1811 C 0.38299 1.13929 0.17773
 C1812 C 0.35717 1.14189 0.17503
 C1813 C 0.34138 1.13403 0.19424
 C1814 C 0.35117 1.12376 0.21598
 C1815 C 0.38737 1.11085 0.24136
 C1816 C 0.37132 1.10334 0.26039
 C1817 C 0.38130 1.09353 0.28225
 C1818 C 0.40714 1.09118 0.28517
 C1819 C 0.42297 1.09877 0.26584
 C1820 C 0.41316 1.10864 0.24388
 C1821 C 0.33571 1.11599 0.23541
 C1822 C 0.34562 1.10595 0.25725
 C1823 C 0.41870 1.12646 0.20257
 C1824 C 0.42862 1.11641 0.22442
 H1825 H 0.31578 1.11773 0.23375
 H1826 H 0.33305 1.10023 0.27182
 H1827 H 0.43127 1.13229 0.18805
 H1828 H 0.44855 1.11478 0.22613
 H1829 H 0.39516 1.14524 0.16292
 H1830 H 0.32152 1.13626 0.19233
 H1831 H 0.36899 1.08813 0.29717
 H1832 H 0.44285 1.09682 0.26783
 C1833 C 0.37675 0.62180 0.71902
 C1834 C 0.39276 0.62949 0.70002
 C1835 C 0.38272 0.63962 0.67831
 C1836 C 0.35689 0.64213 0.67559
 C1837 C 0.34112 0.63424 0.69482
 C1838 C 0.35095 0.62405 0.71658
 C1839 C 0.38719 0.61134 0.74200
 C1840 C 0.37117 0.60380 0.76104
 C1841 C 0.38118 0.59405 0.78291
 C1842 C 0.40703 0.59179 0.78584
 C1843 C 0.42283 0.59944 0.76651
 C1844 C 0.41300 0.60924 0.74454
 C1845 C 0.33551 0.61626 0.73602
 C1846 C 0.34546 0.60630 0.75789
 C1847 C 0.41848 0.62699 0.70319
 C1848 C 0.42842 0.61703 0.72507
 H1849 H 0.31558 0.61792 0.73436
 H1850 H 0.33291 0.60055 0.77246
 H1851 H 0.43102 0.63284 0.68866
 H1852 H 0.44836 0.61548 0.72678
 H1853 H 0.39488 0.64558 0.66349
 H1854 H 0.32126 0.63639 0.69290
 H1855 H 0.36889 0.58860 0.79783
 H1856 H 0.44272 0.59756 0.76851
 C1857 C 1.12167 0.87623 0.71876
 C1858 C 1.12392 0.85046 0.71606
 C1859 C 1.13396 0.84084 0.69414
 C1860 C 1.14174 0.85679 0.67502
 C1861 C 1.13922 0.88259 0.67799
 C1862 C 1.12922 0.89243 0.69986
 C1863 C 1.11139 0.88646 0.74191
 C1864 C 1.10930 0.91224 0.74471
 C1865 C 1.09968 0.92186 0.76686
 C1866 C 1.09221 0.90588 0.78611
 C1867 C 1.09444 0.88006 0.78291
 C1868 C 1.10400 0.87026 0.76086
 C1869 C 1.12673 0.91811 0.70328
 C1870 C 1.11694 0.92785 0.72533
 C1871 C 1.11626 0.83484 0.73542
 C1872 C 1.10647 0.84457 0.75745
 H1873 H 1.13248 0.93079 0.68883
 H1874 H 1.11540 0.94777 0.72724
 H1875 H 1.11791 0.81492 0.73355
 H1876 H 1.10084 0.83189 0.77194
 H1877 H 1.13612 0.82099 0.69204
 H1878 H 1.14509 0.89489 0.66325
 H1879 H 1.09782 0.94173 0.76905
 H1880 H 1.08912 0.86763 0.79776
 C1881 C 1.12222 0.37620 0.21879
 C1882 C 1.12452 0.35042 0.21621
 C1883 C 1.13467 0.34073 0.19437
 C1884 C 1.14249 0.35661 0.17522
 C1885 C 1.13994 0.38242 0.17807
 C1886 C 1.12984 0.39233 0.19986
 C1887 C 1.11181 0.38650 0.24185
 C1888 C 1.10966 0.41229 0.24454
 C1889 C 1.09992 0.42199 0.26660
 C1890 C 1.09238 0.40607 0.28587
 C1891 C 1.09466 0.38024 0.28280
 C1892 C 1.10435 0.37036 0.26083
 C1893 C 1.12729 0.41802 0.20317
 C1894 C 1.11737 0.42783 0.22513
 C1895 C 1.11680 0.33486 0.23559
 C1896 C 1.10688 0.34467 0.25753
 H1897 H 1.13309 0.43066 0.18869
 H1898 H 1.11579 0.44776 0.22695
 H1899 H 1.11849 0.31495 0.23381
 H1900 H 1.10120 0.33204 0.27205
 H1901 H 1.13685 0.32087 0.19235
 H1902 H 1.14585 0.39467 0.16330
 H1903 H 1.09801 0.44186 0.26871
 H1904 H 1.08930 0.36786 0.29766
 C1905 C 0.62202 0.87649 0.21919
 C1906 C 0.62428 0.85072 0.21650
 C1907 C 0.63432 0.84109 0.19459
 C1908 C 0.64208 0.85704 0.17545
 C1909 C 0.63955 0.88284 0.17841
 C1910 C 0.62956 0.89268 0.20028
 C1911 C 0.61174 0.88673 0.24234
 C1912 C 0.60964 0.91251 0.24513
 C1913 C 0.60002 0.92214 0.26727
 C1914 C 0.59254 0.90616 0.28652
 C1915 C 0.59479 0.88034 0.28334
 C1916 C 0.60437 0.87053 0.26130
 C1917 C 0.62706 0.91837 0.20369
 C1918 C 0.61727 0.92811 0.22573
 C1919 C 0.61664 0.83511 0.23587
 C1920 C 0.60685 0.84485 0.25790
 H1921 H 0.63280 0.93105 0.18923
 H1922 H 0.61573 0.94803 0.22764
 H1923 H 0.61830 0.81519 0.23401
 H1924 H 0.60122 0.83217 0.27240
 H1925 H 0.63648 0.82125 0.19249
 H1926 H 0.64540 0.89514 0.16366
 H1927 H 0.59813 0.94201 0.26945
 H1928 H 0.58947 0.86791 0.29819
 C1929 C 0.62312 0.37750 0.71894
 C1930 C 0.60704 0.36995 0.69994
 C1931 C 0.61701 0.36013 0.67806
 C1932 C 0.64284 0.35778 0.67517
 C1933 C 0.65867 0.36553 0.69440
 C1934 C 0.64892 0.37541 0.71633
 C1935 C 0.61275 0.38763 0.74209
 C1936 C 0.62885 0.39505 0.76112
 C1937 C 0.61892 0.40456 0.78313
 C1938 C 0.59308 0.40672 0.78621
 C1939 C 0.57720 0.39914 0.76693
 C1940 C 0.58695 0.38959 0.74480
 C1941 C 0.66442 0.38306 0.73577
 C1942 C 0.65455 0.39272 0.75779
 C1943 C 0.58133 0.37228 0.70328
 C1944 C 0.57145 0.38193 0.72534
 H1945 H 0.68435 0.38152 0.73397
 H1946 H 0.66715 0.39837 0.77235
 H1947 H 0.56873 0.36653 0.68876
 H1948 H 0.55152 0.38336 0.72718
 H1949 H 0.60481 0.35427 0.66324
 H1950 H 0.67854 0.36349 0.69237
 H1951 H 0.63127 0.40995 0.79801
 H1952 H 0.55731 0.40094 0.76905
 C1953 C 1.28120 1.12310 1.12184
 C1954 C 1.30017 1.10703 1.12950
 C1955 C 1.32198 1.11702 1.13947
 C1956 C 1.32482 1.14284 1.14188
 C1957 C 1.30563 1.15867 1.13400
 C1958 C 1.28378 1.14890 1.12396
 C1959 C 1.25811 1.11271 1.11159
 C1960 C 1.23910 1.12879 1.10408
 C1961 C 1.21713 1.11883 1.09451
 C1962 C 1.21406 1.09299 1.09241
 C1963 C 1.23335 1.07713 1.10004
 C1964 C 1.25543 1.08691 1.10964
 C1965 C 1.26436 1.16439 1.11620
 C1966 C 1.24239 1.15450 1.10642
 C1967 C 1.29687 1.08132 1.12715
 C1968 C 1.27487 1.07143 1.11739
 H1969 H 1.26613 1.18432 1.11776
 H1970 H 1.22785 1.16709 1.10070
 H1971 H 1.31137 1.06873 1.13298
 H1972 H 1.27305 1.05149 1.11596
 H1973 H 1.33676 1.10481 1.14542
 H1974 H 1.30763 1.17853 1.13608
 H1975 H 1.20225 1.13117 1.08907
 H1976 H 1.23123 1.05724 1.09828
 C1977 C 1.28096 0.62337 0.62219
 C1978 C 1.29985 0.60727 0.62997
 C1979 C 1.32162 0.61723 0.64006
 C1980 C 1.32449 0.64305 0.64246
 C1981 C 1.30536 0.65890 0.63449
 C1982 C 1.28355 0.64916 0.62433
 C1983 C 1.25793 0.61302 0.61177
 C1984 C 1.23900 0.62912 0.60412
 C1985 C 1.21707 0.61919 0.59440
 C1986 C 1.21398 0.59336 0.59231
 C1987 C 1.23319 0.57747 0.60006
 C1988 C 1.25522 0.58722 0.60981
 C1989 C 1.26422 0.66468 0.61643
 C1990 C 1.24231 0.65483 0.60649
 C1991 C 1.29653 0.58157 0.62760
 C1992 C 1.27459 0.57171 0.61769
 H1993 H 1.26601 0.68461 0.61799
 H1994 H 1.22782 0.66744 0.60067
 H1995 H 1.31098 0.56896 0.63353
 H1996 H 1.27275 0.55178 0.61626
 H1997 H 1.33637 0.60500 0.64608
 H1998 H 1.30738 0.67876 0.63656
 H1999 H 1.20224 0.63155 0.58886
 H2000 H 1.23106 0.55759 0.59831
 C2001 C 0.78088 1.12339 0.62186
 C2002 C 0.79975 1.10721 0.62952
 C2003 C 0.82161 1.11707 0.63953
 C2004 C 0.82459 1.14287 0.64195
 C2005 C 0.80549 1.15881 0.63408
 C2006 C 0.78359 1.14917 0.62401
 C2007 C 0.75775 1.11314 0.61155
 C2008 C 0.73884 1.12933 0.60403
 C2009 C 0.71682 1.11951 0.59442
 C2010 C 0.71361 1.09369 0.59229
 C2011 C 0.73281 1.07772 0.59991
 C2012 C 0.75494 1.08736 0.60956
 C2013 C 0.76428 1.16477 0.61624
 C2014 C 0.74227 1.15502 0.60641
 C2015 C 0.79631 1.08152 0.62713
 C2016 C 0.77428 1.07176 0.61732
 H2017 H 0.76615 1.18469 0.61782
 H2018 H 0.72780 1.16770 0.60068
 H2019 H 0.81074 1.06885 0.63296
 H2020 H 0.77236 1.05184 0.61586
 H2021 H 0.83632 1.10477 0.64546
 H2022 H 0.80760 1.17866 0.63617
 H2023 H 0.70201 1.13194 0.58899
 H2024 H 0.73060 1.05784 0.59813
 C2025 C 0.78154 0.62319 1.12174
 C2026 C 0.78410 0.64898 1.12403
 C2027 C 0.80591 0.65869 1.13419
 C2028 C 0.82508 0.64283 1.14203
 C2029 C 0.82225 0.61702 1.13949
 C2030 C 0.80048 0.60708 1.12939
 C2031 C 0.75850 0.61287 1.11132
 C2032 C 0.75584 0.58708 1.10921
 C2033 C 0.73380 0.57735 1.09946
 C2034 C 0.71454 0.59325 1.09186
 C2035 C 0.71759 0.61908 1.09411
 C2036 C 0.73953 0.62899 1.10382
 C2037 C 0.79720 0.58139 1.12687
 C2038 C 0.77525 0.57155 1.11695
 C2039 C 0.76472 0.66451 1.11627
 C2040 C 0.74280 0.65468 1.10634
 H2041 H 0.81168 0.56877 1.13269
 H2042 H 0.77344 0.55162 1.11539
 H2043 H 0.76648 0.68444 1.11795
 H2044 H 0.72827 0.66730 1.10063
 H2045 H 0.80790 0.67855 1.13638
 H2046 H 0.83702 0.60478 1.14542
 H2047 H 0.73170 0.55748 1.09758
 H2048 H 0.70273 0.63145 1.08869
 C2049 C 1.28132 0.87674 0.87858
 C2050 C 1.30018 0.89291 0.87086
 C2051 C 1.32193 0.88304 0.86064
 C2052 C 1.32483 0.85723 0.85808
 C2053 C 1.30574 0.84131 0.86601
 C2054 C 1.28394 0.85097 0.87628
 C2055 C 1.25830 0.88701 0.88910
 C2056 C 1.23938 0.87084 0.89666
 C2057 C 1.21744 0.88069 0.90642
 C2058 C 1.21431 0.90652 0.90863
 C2059 C 1.23352 0.92246 0.90101
 C2060 C 1.25557 0.91279 0.89121
 C2061 C 1.26464 0.83538 0.88412
 C2062 C 1.24273 0.84516 0.89414
 C2063 C 1.29684 0.91859 0.87339
 C2064 C 1.27491 0.92837 0.88340
 H2065 H 1.26645 0.81547 0.88243
 H2066 H 1.22826 0.83250 0.89990
 H2067 H 1.31126 0.93125 0.86751
 H2068 H 1.27304 0.94829 0.88496
 H2069 H 1.33665 0.89531 0.85466
 H2070 H 1.30779 0.82147 0.86382
 H2071 H 1.20261 0.86829 0.91186
 H2072 H 1.23136 0.94234 0.90286
 C2073 C 1.28132 0.37681 0.37838
 C2074 C 1.30018 0.39295 0.37062
 C2075 C 1.32195 0.38305 0.36046
 C2076 C 1.32485 0.35724 0.35797
 C2077 C 1.30576 0.34134 0.36594
 C2078 C 1.28395 0.35103 0.37617
 C2079 C 1.25828 0.38711 0.38884
 C2080 C 1.23937 0.37096 0.39646
 C2081 C 1.21742 0.38083 0.40619
 C2082 C 1.21428 0.40666 0.40832
 C2083 C 1.23349 0.42259 0.40063
 C2084 C 1.25554 0.41289 0.39087
 C2085 C 1.26464 0.33546 0.38404
 C2086 C 1.24272 0.34526 0.39402
 C2087 C 1.29682 0.41865 0.37306
 C2088 C 1.27488 0.42845 0.38301
 H2089 H 1.26646 0.31554 0.38242
 H2090 H 1.22826 0.33262 0.39982
 H2091 H 1.31124 0.43129 0.36715
 H2092 H 1.27300 0.44838 0.38450
 H2093 H 1.33666 0.39532 0.35445
 H2094 H 1.30780 0.32149 0.36381
 H2095 H 1.20261 0.36844 0.41169
 H2096 H 1.23132 0.44247 0.40242
 C2097 C 0.78123 0.87674 0.37850
 C2098 C 0.78374 0.85095 0.37620
 C2099 C 0.80548 0.84120 0.36589
 C2100 C 0.82462 0.85704 0.35792
 C2101 C 0.82184 0.88286 0.36048
 C2102 C 0.80014 0.89282 0.37074
 C2103 C 0.75827 0.88711 0.38907
 C2104 C 0.75565 0.91290 0.39119
 C2105 C 0.73367 0.92266 0.40104
 C2106 C 0.71441 0.90680 0.40873
 C2107 C 0.71743 0.88096 0.40650
 C2108 C 0.73931 0.87102 0.39668
 C2109 C 0.79691 0.91852 0.37328
 C2110 C 0.77504 0.92839 0.38333
 C2111 C 0.76438 0.83545 0.38408
 C2112 C 0.74254 0.84532 0.39415
 H2113 H 0.81137 0.93112 0.36737
 H2114 H 0.77326 0.94832 0.38489
 H2115 H 0.76611 0.81553 0.38239
 H2116 H 0.72803 0.83272 0.39994
 H2117 H 0.80744 0.82135 0.36370
 H2118 H 0.83659 0.89507 0.35447
 H2119 H 0.73160 0.94255 0.40290
 H2120 H 0.70257 0.86862 0.41198
 C2121 C 0.78147 0.37688 0.87859
 C2122 C 0.80036 0.39304 0.87095
 C2123 C 0.82218 0.38317 0.86087
 C2124 C 0.82510 0.35736 0.85836
 C2125 C 0.80599 0.34144 0.86623
 C2126 C 0.78413 0.35110 0.87636
 C2127 C 0.75837 0.38715 0.88895
 C2128 C 0.73943 0.37098 0.89643
 C2129 C 0.71743 0.38084 0.90607
 C2130 C 0.71428 0.40666 0.90826
 C2131 C 0.73351 0.42261 0.90068
 C2132 C 0.75561 0.41294 0.89100
 C2133 C 0.76478 0.33552 0.88411
 C2134 C 0.74280 0.34529 0.89398
 C2135 C 0.79698 0.41873 0.87341
 C2136 C 0.77498 0.42851 0.88327
 H2137 H 0.76662 0.31560 0.88247
 H2138 H 0.72831 0.33264 0.89968
 H2139 H 0.81143 0.43139 0.86759
 H2140 H 0.77309 0.44844 0.88478
 H2141 H 0.83690 0.39545 0.85493
 H2142 H 0.80805 0.32159 0.86407
 H2143 H 0.70259 0.36843 0.91148
 H2144 H 0.73134 0.44248 0.90251
 C2145 C 0.71859 0.87849 1.12319
 C2146 C 0.71610 0.87626 1.14899
 C2147 C 0.69434 0.86607 1.15879
 C2148 C 0.67515 0.85814 1.14300
 C2149 C 0.67790 0.86064 1.11717
 C2150 C 0.69962 0.87077 1.10715
 C2151 C 0.74158 0.88892 1.11277
 C2152 C 0.74417 0.89097 1.08696
 C2153 C 0.76617 0.90073 1.07715
 C2154 C 0.78546 0.90841 1.09298
 C2155 C 0.78248 0.90622 1.11882
 C2156 C 0.76059 0.89649 1.12882
 C2157 C 0.70283 0.87322 1.08144
 C2158 C 0.72473 0.88316 1.07151
 C2159 C 0.73551 0.88409 1.16445
 C2160 C 0.75739 0.89404 1.15453
 H2161 H 0.68833 0.86735 1.06887
 H2162 H 0.72649 0.88466 1.05158
 H2163 H 0.73381 0.88246 1.18438
 H2164 H 0.77194 0.89980 1.16709
 H2165 H 0.69241 0.86392 1.17866
 H2166 H 0.66311 0.85465 1.10499
 H2167 H 0.76822 0.90256 1.05726
 H2168 H 0.79737 0.91169 1.13114
 C2169 C 0.71891 0.37689 0.62220
 C2170 C 0.69986 0.39295 0.62968
 C2171 C 0.67802 0.38295 0.63959
 C2172 C 0.67523 0.35713 0.64205
 C2173 C 0.69450 0.34132 0.63436
 C2174 C 0.71639 0.35110 0.62443
 C2175 C 0.74201 0.38729 0.61199
 C2176 C 0.76110 0.37123 0.60466
 C2177 C 0.78307 0.38118 0.59510
 C2178 C 0.78605 0.40702 0.59276
 C2179 C 0.76669 0.42287 0.60023
 C2180 C 0.74462 0.41309 0.60987
 C2181 C 0.73589 0.33562 0.61686
 C2182 C 0.75788 0.34552 0.60715
 C2183 C 0.70310 0.41866 0.62720
 C2184 C 0.72509 0.42856 0.61745
 H2185 H 0.73416 0.31570 0.61851
 H2186 H 0.77249 0.33294 0.60156
 H2187 H 0.68853 0.43123 0.63289
 H2188 H 0.72686 0.44849 0.61589
 H2189 H 0.66316 0.39513 0.64541
 H2190 H 0.69252 0.32145 0.63649
 H2191 H 0.79801 0.36885 0.58981
 H2192 H 0.76872 0.44275 0.59829
 C2193 C 0.21837 0.87814 0.62288
 C2194 C 0.21582 0.87596 0.64868
 C2195 C 0.19402 0.86580 0.65844
 C2196 C 0.17486 0.85787 0.64261
 C2197 C 0.17768 0.86031 0.61679
 C2198 C 0.19944 0.87041 0.60681
 C2199 C 0.24139 0.88855 0.61250
 C2200 C 0.24405 0.89055 0.58669
 C2201 C 0.26608 0.90030 0.57692
 C2202 C 0.28532 0.90800 0.59279
 C2203 C 0.28228 0.90585 0.61863
 C2204 C 0.26036 0.89614 0.62858
 C2205 C 0.20272 0.87282 0.58110
 C2206 C 0.22465 0.88272 0.57121
 C2207 C 0.23519 0.88381 0.66417
 C2208 C 0.25709 0.89373 0.65429
 H2209 H 0.18824 0.86693 0.56851
 H2210 H 0.22646 0.88419 0.55127
 H2211 H 0.23344 0.88221 0.68410
 H2212 H 0.27161 0.89952 0.66688
 H2213 H 0.19204 0.86369 0.67830
 H2214 H 0.16292 0.85432 0.60458
 H2215 H 0.26818 0.90209 0.55704
 H2216 H 0.29713 0.91135 0.63097
 C2217 C 0.21921 0.37791 1.12325
 C2218 C 0.20031 0.37017 1.10714
 C2219 C 0.17855 0.36003 1.11708
 C2220 C 0.17569 0.35756 1.14290
 C2221 C 0.19483 0.36549 1.15876
 C2222 C 0.21663 0.37569 1.14904
 C2223 C 0.24223 0.38837 1.11291
 C2224 C 0.26117 0.39598 1.12902
 C2225 C 0.28309 0.40573 1.11911
 C2226 C 0.28616 0.40792 1.09328
 C2227 C 0.26693 0.40022 1.07738
 C2228 C 0.24491 0.39043 1.08711
 C2229 C 0.23597 0.38355 1.16456
 C2230 C 0.25787 0.39352 1.15473
 C2231 C 0.20362 0.37263 1.08144
 C2232 C 0.22554 0.38259 1.07159
 H2233 H 0.23419 0.38192 1.18449
 H2234 H 0.27236 0.39931 1.16734
 H2235 H 0.18917 0.36673 1.06882
 H2236 H 0.22737 0.38409 1.05166
 H2237 H 0.16381 0.35404 1.10484
 H2238 H 0.19281 0.36337 1.17862
 H2239 H 0.29792 0.41122 1.13148
 H2240 H 0.26905 0.40205 1.05750
 C2241 C 0.71926 1.12197 0.87627
 C2242 C 0.70038 1.12966 0.89243
 C2243 C 0.67857 1.13974 0.88256
 C2244 C 0.67563 1.14222 0.85675
 C2245 C 0.69473 1.13431 0.84083
 C2246 C 0.71659 1.12417 0.85049
 C2247 C 0.74235 1.11160 0.88654
 C2248 C 0.76127 1.10406 0.87037
 C2249 C 0.78327 1.09441 0.88022
 C2250 C 0.78643 1.09226 0.90605
 C2251 C 0.76722 1.09989 0.92200
 C2252 C 0.74513 1.10958 0.91233
 C2253 C 0.73591 1.11637 0.83490
 C2254 C 0.75789 1.10648 0.84468
 C2255 C 0.70378 1.12722 0.91812
 C2256 C 0.72577 1.11735 0.92791
 H2257 H 0.73407 1.11798 0.81498
 H2258 H 0.77236 1.10074 0.83202
 H2259 H 0.68934 1.13308 0.93078
 H2260 H 0.72767 1.11587 0.94783
 H2261 H 0.66385 1.14570 0.89484
 H2262 H 0.69265 1.13643 0.82098
 H2263 H 0.79809 1.08896 0.86782
 H2264 H 0.76940 1.09808 0.94188
 C2265 C 0.71852 0.62146 0.37670
 C2266 C 0.69964 0.62917 0.39284
 C2267 C 0.67790 0.63939 0.38295
 C2268 C 0.67504 0.64197 0.35715
 C2269 C 0.69415 0.63406 0.34124
 C2270 C 0.71594 0.62378 0.35092
 C2271 C 0.74153 0.61093 0.38699
 C2272 C 0.76047 0.60337 0.37083
 C2273 C 0.78240 0.59360 0.38070
 C2274 C 0.78550 0.59138 0.40653
 C2275 C 0.76626 0.59900 0.42246
 C2276 C 0.74423 0.60880 0.41277
 C2277 C 0.73526 0.61595 0.33535
 C2278 C 0.75716 0.60591 0.34514
 C2279 C 0.70295 0.62662 0.41853
 C2280 C 0.72487 0.61661 0.42833
 H2281 H 0.73348 0.61765 0.31543
 H2282 H 0.77164 0.60016 0.33250
 H2283 H 0.68852 0.63249 0.43118
 H2284 H 0.72671 0.61504 0.44825
 H2285 H 0.66317 0.64536 0.39521
 H2286 H 0.69213 0.63626 0.32139
 H2287 H 0.79724 0.58816 0.36832
 H2288 H 0.76840 0.59713 0.44234
 C2289 C 0.21869 1.12150 0.37664
 C2290 C 0.21599 1.12378 0.35087
 C2291 C 0.19415 1.13401 0.34127
 C2292 C 0.17509 1.14191 0.35725
 C2293 C 0.17806 1.13936 0.38304
 C2294 C 0.19985 1.12919 0.39286
 C2295 C 0.24176 1.11102 0.38685
 C2296 C 0.24456 1.10893 0.41263
 C2297 C 0.26665 1.09918 0.42223
 C2298 C 0.28583 1.09157 0.40624
 C2299 C 0.28263 1.09377 0.38042
 C2300 C 0.26064 1.10348 0.37063
 C2301 C 0.20327 1.12668 0.41853
 C2302 C 0.22525 1.11671 0.42825
 C2303 C 0.23527 1.11597 0.33523
 C2304 C 0.25722 1.10599 0.34495
 H2305 H 0.18888 1.13253 0.43123
 H2306 H 0.22717 1.11517 0.44817
 H2307 H 0.23340 1.11765 0.31532
 H2308 H 0.27167 1.10025 0.33225
 H2309 H 0.19205 1.13619 0.32143
 H2310 H 0.16337 1.14532 0.39536
 H2311 H 0.26886 1.09734 0.44211
 H2312 H 0.29743 1.08834 0.36799
 C2313 C 0.21878 0.62160 0.87662
 C2314 C 0.19989 0.62929 0.89276
 C2315 C 0.17810 0.63940 0.88286
 C2316 C 0.17520 0.64190 0.85705
 C2317 C 0.19431 0.63399 0.84115
 C2318 C 0.21615 0.62382 0.85083
 C2319 C 0.24185 0.61120 0.88692
 C2320 C 0.26080 0.60367 0.87077
 C2321 C 0.28278 0.59401 0.88065
 C2322 C 0.28591 0.59185 0.90648
 C2323 C 0.26666 0.59946 0.92240
 C2324 C 0.24459 0.60916 0.91271
 C2325 C 0.23550 0.61603 0.83527
 C2326 C 0.25745 0.60612 0.84507
 C2327 C 0.20324 0.62683 0.91846
 C2328 C 0.22521 0.61693 0.92826
 H2329 H 0.23368 0.61766 0.81535
 H2330 H 0.27194 0.60039 0.83243
 H2331 H 0.18879 0.63268 0.93110
 H2332 H 0.22708 0.61543 0.94819
 H2333 H 0.16337 0.64536 0.89513
 H2334 H 0.19227 0.63614 0.82130
 H2335 H 0.29762 0.58858 0.86826
 H2336 H 0.26882 0.59764 0.94228
 C2337 C 1.12355 1.28091 1.12166
 C2338 C 1.10751 1.29991 1.12930
 C2339 C 1.11752 1.32165 1.13941
 C2340 C 1.14334 1.32439 1.14194
 C2341 C 1.15914 1.30517 1.13409
 C2342 C 1.14935 1.28338 1.12393
 C2343 C 1.11314 1.25791 1.11124
 C2344 C 1.12919 1.23886 1.10376
 C2345 C 1.11920 1.21695 1.09406
 C2346 C 1.09336 1.21400 1.09180
 C2347 C 1.07753 1.23333 1.09937
 C2348 C 1.08734 1.25534 1.10912
 C2349 C 1.16481 1.26394 1.11619
 C2350 C 1.15489 1.24205 1.10628
 C2351 C 1.08180 1.29672 1.12678
 C2352 C 1.07189 1.27481 1.11686
 H2353 H 1.18473 1.26563 1.11787
 H2354 H 1.16746 1.22747 1.10058
 H2355 H 1.06923 1.31125 1.13259
 H2356 H 1.05195 1.27307 1.11530
 H2357 H 1.10534 1.33646 1.14534
 H2358 H 1.17900 1.30711 1.13626
 H2359 H 1.13151 1.20204 1.08867
 H2360 H 1.05765 1.23132 1.09748
 C2361 C 1.12295 0.78118 0.62125
 C2362 C 1.10685 0.80016 0.62884
 C2363 C 1.11680 0.82188 0.63905
 C2364 C 1.14260 0.82464 0.64169
 C2365 C 1.15846 0.80544 0.63390
 C2366 C 1.14873 0.78366 0.62366
 C2367 C 1.11261 0.75819 0.61073
 C2368 C 1.12871 0.73917 0.60330
 C2369 C 1.11879 0.71727 0.59352
 C2370 C 1.09296 0.71431 0.59110
 C2371 C 1.07709 0.73363 0.59860
 C2372 C 1.08682 0.75562 0.60845
 C2373 C 1.16425 0.76424 0.61597
 C2374 C 1.15440 0.74236 0.60596
 C2375 C 1.08116 0.79696 0.62617
 C2376 C 1.07132 0.77507 0.61614
 H2377 H 1.18416 0.76594 0.61775
 H2378 H 1.16701 0.72780 0.60031
 H2379 H 1.06856 0.81146 0.63195
 H2380 H 1.05139 0.77332 0.61446
 H2381 H 1.10458 0.83668 0.64494
 H2382 H 1.17830 0.80740 0.63616
 H2383 H 1.13114 0.70236 0.58819
 H2384 H 1.05721 0.73161 0.59660
 C2385 C 0.62196 1.28128 0.62275
 C2386 C 0.62961 1.30031 0.60676
 C2387 C 0.63965 1.32206 0.61682
 C2388 C 0.64208 1.32478 0.64266
 C2389 C 0.63425 1.30551 0.65841
 C2390 C 0.62417 1.28372 0.64856
 C2391 C 0.61158 1.25829 0.61229
 C2392 C 0.60405 1.23923 0.62830
 C2393 C 0.59431 1.21737 0.61827
 C2394 C 0.59203 1.21447 0.59243
 C2395 C 0.59970 1.23379 0.57663
 C2396 C 0.60949 1.25576 0.58648
 C2397 C 0.61641 1.26425 0.66398
 C2398 C 0.60652 1.24237 0.65402
 C2399 C 0.62716 1.29715 0.58104
 C2400 C 0.61726 1.27525 0.57107
 H2401 H 0.61804 1.26592 0.68391
 H2402 H 0.60079 1.22778 0.66655
 H2403 H 0.63299 1.31170 0.56850
 H2404 H 0.61574 1.27354 0.55113
 H2405 H 0.64557 1.33690 0.60468
 H2406 H 0.63636 1.30742 0.67828
 H2407 H 0.58886 1.20246 0.63056
 H2408 H 0.59782 1.23180 0.55674
 C2409 C 0.62334 0.78138 1.12167
 C2410 C 0.60722 0.80031 1.12934
 C2411 C 0.61714 0.82204 1.13955
 C2412 C 0.64295 0.82486 1.14213
 C2413 C 0.65882 0.80571 1.13427
 C2414 C 0.64912 0.78392 1.12402
 C2415 C 0.61303 0.75839 1.11113
 C2416 C 0.62916 0.73942 1.10362
 C2417 C 0.61927 0.71752 1.09380
 C2418 C 0.59344 0.71450 1.09145
 C2419 C 0.57754 0.73377 1.09904
 C2420 C 0.58725 0.75576 1.10892
 C2421 C 0.66467 0.76455 1.11625
 C2422 C 0.65485 0.74267 1.10622
 C2423 C 0.58153 0.79705 1.12673
 C2424 C 0.57171 0.77515 1.11669
 H2425 H 0.68458 0.76630 1.11798
 H2426 H 0.66747 0.72816 1.10050
 H2427 H 0.56891 0.81152 1.13257
 H2428 H 0.55179 0.77337 1.11506
 H2429 H 0.60490 0.83680 1.14550
 H2430 H 0.67867 0.80771 1.13648
 H2431 H 0.63164 0.70266 1.08840
 H2432 H 0.55766 0.73170 1.09709
 C2433 C 0.87886 1.28151 0.87652
 C2434 C 0.87122 1.30034 0.89277
 C2435 C 0.86100 1.32214 0.88299
 C2436 C 0.85837 1.32511 0.85720
 C2437 C 0.86622 1.30606 0.84120
 C2438 C 0.87648 1.28421 0.85076
 C2439 C 0.88938 1.25844 0.88669
 C2440 C 0.89684 1.23956 0.87045
 C2441 C 0.90658 1.21756 0.88020
 C2442 C 0.90889 1.21435 0.90601
 C2443 C 0.90138 1.23355 0.92203
 C2444 C 0.89159 1.25564 0.91246
 C2445 C 0.88423 1.26493 0.83510
 C2446 C 0.89423 1.24297 0.84478
 C2447 C 0.87384 1.29693 0.91843
 C2448 C 0.88386 1.27495 0.92812
 H2449 H 0.88248 1.26680 0.81519
 H2450 H 0.89992 1.22853 0.83206
 H2451 H 0.86803 1.31132 0.93115
 H2452 H 0.88549 1.27303 0.94803
 H2453 H 0.85507 1.33683 0.89532
 H2454 H 0.86398 1.30817 0.82137
 H2455 H 0.91192 1.20275 0.86773
 H2456 H 0.90332 1.23135 0.94189
 C2457 C 0.87807 0.78108 0.37629
 C2458 C 0.87042 0.79996 0.39246
 C2459 C 0.86033 0.82178 0.38259
 C2460 C 0.85780 0.82470 0.35679
 C2461 C 0.86567 0.80560 0.34086
 C2462 C 0.87582 0.78374 0.35051
 C2463 C 0.88844 0.75798 0.38656
 C2464 C 0.89593 0.73904 0.37038
 C2465 C 0.90556 0.71704 0.38022
 C2466 C 0.90775 0.71387 0.40605
 C2467 C 0.90019 0.73311 0.42200
 C2468 C 0.89051 0.75522 0.41234
 C2469 C 0.88358 0.76440 0.33492
 C2470 C 0.89346 0.74242 0.34469
 C2471 C 0.87291 0.79658 0.41815
 C2472 C 0.88278 0.77459 0.42792
 H2473 H 0.88193 0.76624 0.31500
 H2474 H 0.89916 0.72794 0.33203
 H2475 H 0.86709 0.81102 0.43081
 H2476 H 0.88431 0.77270 0.44784
 H2477 H 0.85440 0.83650 0.39488
 H2478 H 0.86351 0.80767 0.32101
 H2479 H 0.91095 0.70220 0.36781
 H2480 H 0.90203 0.73094 0.44188
 C2481 C 0.37842 1.28128 0.37615
 C2482 C 0.37083 1.30014 0.39238
 C2483 C 0.36069 1.32196 0.38260
 C2484 C 0.35806 1.32493 0.35682
 C2485 C 0.36587 1.30586 0.34082
 C2486 C 0.37606 1.28398 0.35038
 C2487 C 0.38886 1.25818 0.38632
 C2488 C 0.39627 1.23927 0.37008
 C2489 C 0.40596 1.21725 0.37984
 C2490 C 0.40826 1.21404 0.40565
 C2491 C 0.40079 1.23326 0.42166
 C2492 C 0.39106 1.25538 0.41209
 C2493 C 0.38375 1.26468 0.33472
 C2494 C 0.39368 1.24269 0.34441
 C2495 C 0.37344 1.29671 0.41805
 C2496 C 0.38339 1.27471 0.42774
 H2497 H 0.38201 1.26655 0.31481
 H2498 H 0.39933 1.22823 0.33169
 H2499 H 0.36767 1.31113 0.43077
 H2500 H 0.38501 1.27279 0.44765
 H2501 H 0.35480 1.33667 0.39493
 H2502 H 0.36363 1.30797 0.32098
 H2503 H 0.41127 1.20243 0.36738
 H2504 H 0.40272 1.23106 0.44153
 C2505 C 0.37841 0.78144 0.87654
 C2506 C 0.37616 0.78407 0.85076
 C2507 C 0.36600 0.80592 0.84109
 C2508 C 0.35812 0.82503 0.85700
 C2509 C 0.36066 0.82213 0.88281
 C2510 C 0.37077 0.80034 0.89269
 C2511 C 0.38878 0.75835 0.88682
 C2512 C 0.39085 0.75561 0.91261
 C2513 C 0.40053 0.73351 0.92229
 C2514 C 0.40808 0.71426 0.90635
 C2515 C 0.40589 0.71740 0.88052
 C2516 C 0.39626 0.73940 0.87066
 C2517 C 0.37325 0.79698 0.91839
 C2518 C 0.38313 0.77499 0.92818
 C2519 C 0.38391 0.76472 0.83518
 C2520 C 0.39379 0.74275 0.84497
 H2521 H 0.36743 0.81143 0.93104
 H2522 H 0.38465 0.77312 0.94810
 H2523 H 0.38226 0.76654 0.81526
 H2524 H 0.39949 0.72825 0.83232
 H2525 H 0.36383 0.80797 0.82124
 H2526 H 0.35472 0.83687 0.89508
 H2527 H 0.40237 0.73135 0.94216
 H2528 H 0.41126 0.70255 0.86812
 C2529 C 1.12318 0.71850 0.87872
 C2530 C 1.10710 0.69954 0.87104
 C2531 C 1.11708 0.67785 0.86080
 C2532 C 1.14289 0.67510 0.85817
 C2533 C 1.15872 0.69428 0.86606
 C2534 C 1.14896 0.71603 0.87635
 C2535 C 1.11280 0.74147 0.88926
 C2536 C 1.12888 0.76048 0.89676
 C2537 C 1.11892 0.78236 0.90656
 C2538 C 1.09309 0.78533 0.90888
 C2539 C 1.07724 0.76602 0.90130
 C2540 C 1.08701 0.74404 0.89146
 C2541 C 1.16445 0.73543 0.88413
 C2542 C 1.15458 0.75729 0.89416
 C2543 C 1.08140 0.70274 0.87365
 C2544 C 1.07153 0.72461 0.88369
 H2545 H 1.18437 0.73374 0.88239
 H2546 H 1.16717 0.77183 0.89988
 H2547 H 1.06882 0.68824 0.86781
 H2548 H 1.05160 0.72635 0.88531
 H2549 H 1.10487 0.66307 0.85484
 H2550 H 1.17857 0.69234 0.86382
 H2551 H 1.13126 0.79726 0.91195
 H2552 H 1.05736 0.76805 0.90323
 C2553 C 1.12327 0.21863 0.37891
 C2554 C 1.10713 0.19973 0.37125
 C2555 C 1.11702 0.17799 0.36102
 C2556 C 1.14282 0.17515 0.35840
 C2557 C 1.15872 0.19428 0.36627
 C2558 C 1.14905 0.21606 0.37654
 C2559 C 1.11298 0.24164 0.38944
 C2560 C 1.12913 0.26060 0.39694
 C2561 C 1.11925 0.28253 0.40671
 C2562 C 1.09343 0.28560 0.40901
 C2563 C 1.07751 0.26634 0.40145
 C2564 C 1.08720 0.24431 0.39163
 C2565 C 1.16461 0.23541 0.38432
 C2566 C 1.15481 0.25731 0.39434
 C2567 C 1.08144 0.20302 0.37386
 C2568 C 1.07164 0.22493 0.38388
 H2569 H 1.18452 0.23365 0.38257
 H2570 H 1.16746 0.27182 0.40005
 H2571 H 1.06880 0.18856 0.36802
 H2572 H 1.05172 0.22675 0.38550
 H2573 H 1.10476 0.16325 0.35508
 H2574 H 1.17857 0.19227 0.36403
 H2575 H 1.13163 0.29738 0.41210
 H2576 H 1.05763 0.26844 0.40337
 C2577 C 0.62325 0.71866 0.37888
 C2578 C 0.64902 0.71612 0.37648
 C2579 C 0.65871 0.69436 0.36614
 C2580 C 0.64281 0.67525 0.35823
 C2581 C 0.61701 0.67807 0.36087
 C2582 C 0.60711 0.69976 0.37117
 C2583 C 0.61295 0.74163 0.38950
 C2584 C 0.58717 0.74426 0.39174
 C2585 C 0.57747 0.76625 0.40163
 C2586 C 0.59338 0.78552 0.40921
 C2587 C 0.61920 0.78248 0.40687
 C2588 C 0.62909 0.76058 0.39703
 C2589 C 0.58143 0.70302 0.37383
 C2590 C 0.57162 0.72489 0.38394
 C2591 C 0.66458 0.73546 0.38429
 C2592 C 0.65477 0.75732 0.39439
 H2593 H 0.56879 0.68858 0.36797
 H2594 H 0.55170 0.72669 0.38559
 H2595 H 0.68449 0.73371 0.38253
 H2596 H 0.66741 0.77182 0.40013
 H2597 H 0.67855 0.69237 0.36389
 H2598 H 0.60476 0.66333 0.35490
 H2599 H 0.55760 0.76833 0.40358
 H2600 H 0.63158 0.79733 0.41227
 C2601 C 0.62355 0.21876 0.87846
 C2602 C 0.64934 0.21630 0.87609
 C2603 C 0.65911 0.19457 0.86580
 C2604 C 0.64329 0.17539 0.85791
 C2605 C 0.61748 0.17811 0.86054
 C2606 C 0.60749 0.19980 0.87078
 C2607 C 0.61316 0.24171 0.88901
 C2608 C 0.58737 0.24427 0.89121
 C2609 C 0.57759 0.26625 0.90106
 C2610 C 0.59343 0.28555 0.90866
 C2611 C 0.61927 0.28260 0.90634
 C2612 C 0.62923 0.26073 0.89654
 C2613 C 0.58179 0.20297 0.87339
 C2614 C 0.57190 0.22484 0.88343
 C2615 C 0.66482 0.23571 0.88389
 C2616 C 0.65493 0.25755 0.89394
 H2617 H 0.56921 0.18847 0.86754
 H2618 H 0.55197 0.22657 0.88505
 H2619 H 0.68474 0.23403 0.88214
 H2620 H 0.66751 0.27210 0.89967
 H2621 H 0.67896 0.19265 0.86355
 H2622 H 0.60528 0.16332 0.85458
 H2623 H 0.55771 0.26827 0.90298
 H2624 H 0.63159 0.29749 0.91176
 C2625 C 0.87816 0.71889 1.12343
 C2626 C 0.87064 0.69993 1.10729
 C2627 C 0.86071 0.67806 1.11720
 C2628 C 0.85824 0.67515 1.14301
 C2629 C 0.86600 0.69432 1.15891
 C2630 C 0.87597 0.71624 1.14922
 C2631 C 0.88835 0.74204 1.11312
 C2632 C 0.89571 0.76105 1.12927
 C2633 C 0.90521 0.78309 1.11939
 C2634 C 0.90740 0.78622 1.09356
 C2635 C 0.89993 0.76693 1.07764
 C2636 C 0.89038 0.74479 1.08733
 C2637 C 0.88360 0.73565 1.16477
 C2638 C 0.89330 0.75768 1.15497
 C2639 C 0.87306 0.70330 1.08160
 C2640 C 0.88277 0.72535 1.07178
 H2641 H 0.88199 0.73383 1.18470
 H2642 H 0.89891 0.77223 1.16761
 H2643 H 0.86733 0.68880 1.06896
 H2644 H 0.88426 0.72722 1.05186
 H2645 H 0.85485 0.66328 1.10495
 H2646 H 0.86387 0.69226 1.17876
 H2647 H 0.91052 0.79797 1.13179
 H2648 H 0.90177 0.76909 1.05776
 C2649 C 0.87819 0.21873 0.62344
 C2650 C 0.87581 0.21611 0.64922
 C2651 C 0.86563 0.19426 0.65884
 C2652 C 0.85785 0.17513 0.64290
 C2653 C 0.86046 0.17804 0.61710
 C2654 C 0.87061 0.19983 0.60726
 C2655 C 0.88865 0.24180 0.61321
 C2656 C 0.89088 0.24452 0.58744
 C2657 C 0.90066 0.26659 0.57780
 C2658 C 0.90813 0.28585 0.59377
 C2659 C 0.90577 0.28273 0.61959
 C2660 C 0.89605 0.26075 0.62940
 C2661 C 0.87324 0.20318 0.58158
 C2662 C 0.88321 0.22514 0.57184
 C2663 C 0.88349 0.23546 0.66482
 C2664 C 0.89344 0.25741 0.65508
 H2665 H 0.86747 0.18873 0.56890
 H2666 H 0.88485 0.22700 0.55192
 H2667 H 0.88174 0.23364 0.68474
 H2668 H 0.89908 0.27191 0.66776
 H2669 H 0.86340 0.19219 0.67868
 H2670 H 0.85458 0.16329 0.60482
 H2671 H 0.90263 0.26872 0.55794
 H2672 H 0.91108 0.29758 0.63201
 C2673 C 0.37783 0.71900 0.62374
 C2674 C 0.37025 0.70004 0.60762
 C2675 C 0.36020 0.67824 0.61755
 C2676 C 0.35767 0.67539 0.64336
 C2677 C 0.36546 0.69457 0.65923
 C2678 C 0.37556 0.71642 0.64952
 C2679 C 0.38819 0.74207 0.61341
 C2680 C 0.39560 0.76108 0.62953
 C2681 C 0.40524 0.78305 0.61963
 C2682 C 0.40750 0.78612 0.59380
 C2683 C 0.40000 0.76682 0.57790
 C2684 C 0.39031 0.74474 0.58762
 C2685 C 0.38324 0.73583 0.66506
 C2686 C 0.39310 0.75779 0.65523
 C2687 C 0.37278 0.70333 0.58193
 C2688 C 0.38264 0.72531 0.57209
 H2689 H 0.38157 0.73406 0.68498
 H2690 H 0.39875 0.77233 0.66785
 H2691 H 0.36701 0.68884 0.56930
 H2692 H 0.38420 0.72713 0.55217
 H2693 H 0.35432 0.66345 0.60532
 H2694 H 0.36329 0.69256 0.67909
 H2695 H 0.41058 0.79794 0.63200
 H2696 H 0.40189 0.76892 0.55802
 C2697 C 0.37824 0.21889 1.12346
 C2698 C 0.37064 0.20001 1.10727
 C2699 C 0.36052 0.17819 1.11710
 C2700 C 0.35796 0.17525 1.14290
 C2701 C 0.36577 0.19436 1.15885
 C2702 C 0.37592 0.21622 1.14923
 C2703 C 0.38868 0.24197 1.11324
 C2704 C 0.39611 0.26090 1.12944
 C2705 C 0.40581 0.28290 1.11963
 C2706 C 0.40812 0.28606 1.09382
 C2707 C 0.40062 0.26681 1.07784
 C2708 C 0.39086 0.24473 1.08746
 C2709 C 0.38363 0.23555 1.16485
 C2710 C 0.39355 0.25753 1.15512
 C2711 C 0.37322 0.20339 1.08159
 C2712 C 0.38317 0.22537 1.07185
 H2713 H 0.38192 0.23371 1.18476
 H2714 H 0.39922 0.27201 1.16780
 H2715 H 0.36744 0.18895 1.06890
 H2716 H 0.38477 0.22725 1.05193
 H2717 H 0.35463 0.16346 1.10480
 H2718 H 0.36358 0.19227 1.17869
 H2719 H 0.41115 0.29773 1.13207
 H2720 H 0.40255 0.26897 1.05797
 C2721 C 1.12321 1.12111 0.71809
 C2722 C 1.14899 1.12342 0.71550
 C2723 C 1.15867 1.13376 0.69375
 C2724 C 1.14276 1.14176 0.67468
 C2725 C 1.11696 1.13920 0.67754
 C2726 C 1.10707 1.12890 0.69924
 C2727 C 1.11292 1.11052 0.74107
 C2728 C 1.08714 1.10839 0.74377
 C2729 C 1.07746 1.09852 0.76578
 C2730 C 1.09338 1.09087 0.78500
 C2731 C 1.11921 1.09310 0.78190
 C2732 C 1.12908 1.10291 0.75998
 C2733 C 1.08138 1.12635 0.70255
 C2734 C 1.07158 1.11626 0.72444
 C2735 C 1.16456 1.11553 0.73480
 C2736 C 1.15477 1.10545 0.75667
 H2737 H 1.06873 1.13227 0.68814
 H2738 H 1.05166 1.11469 0.72628
 H2739 H 1.18448 1.11722 0.73301
 H2740 H 1.16741 1.09965 0.77114
 H2741 H 1.17852 1.13595 0.69173
 H2742 H 1.10470 1.14524 0.66283
 H2743 H 1.05758 1.09665 0.76791
 H2744 H 1.13160 1.08765 0.79673
 C2745 C 1.12247 0.62283 0.21896
 C2746 C 1.13010 0.60692 0.19985
 C2747 C 1.14002 0.61709 0.17809
 C2748 C 1.14235 0.64294 0.17544
 C2749 C 1.13454 0.65860 0.19478
 C2750 C 1.12457 0.64865 0.21658
 C2751 C 1.11220 0.61226 0.24196
 C2752 C 1.10468 0.62820 0.26109
 C2753 C 1.09503 0.61808 0.28295
 C2754 C 1.09282 0.59222 0.28578
 C2755 C 1.10051 0.57650 0.26641
 C2756 C 1.11021 0.58644 0.24443
 C2757 C 1.11683 0.66399 0.23613
 C2758 C 1.10705 0.65393 0.25801
 C2759 C 1.12775 0.58118 0.20296
 C2760 C 1.11797 0.57112 0.22487
 H2761 H 1.11838 0.68393 0.23451
 H2762 H 1.10132 0.66640 0.27265
 H2763 H 1.13357 0.56871 0.18835
 H2764 H 1.11652 0.55117 0.22652
 H2765 H 1.14593 0.60502 0.16319
 H2766 H 1.13657 0.67849 0.19293
 H2767 H 1.08957 0.63031 0.29791
 H2768 H 1.09868 0.55660 0.26834
 C2769 C 0.62326 1.12104 0.21814
 C2770 C 0.64904 1.12337 0.21558
 C2771 C 0.65874 1.13363 0.19380
 C2772 C 0.64285 1.14155 0.17467
 C2773 C 0.61705 1.13896 0.17750
 C2774 C 0.60714 1.12874 0.19923
 C2775 C 0.61295 1.11053 0.24115
 C2776 C 0.58716 1.10837 0.24382
 C2777 C 0.57746 1.09857 0.26584
 C2778 C 0.59336 1.09100 0.28512
 C2779 C 0.61919 1.09328 0.28205
 C2780 C 0.62908 1.10302 0.26012
 C2781 C 0.58144 1.12616 0.20251
 C2782 C 0.57163 1.11615 0.22443
 C2783 C 0.66459 1.11557 0.23494
 C2784 C 0.65477 1.10557 0.25684
 H2785 H 0.56881 1.13202 0.18806
 H2786 H 0.55170 1.11456 0.22624
 H2787 H 0.68450 1.11728 0.23317
 H2788 H 0.66740 1.09985 0.27135
 H2789 H 0.67859 1.13585 0.19180
 H2790 H 0.60480 1.14495 0.16276
 H2791 H 0.55758 1.09667 0.26794
 H2792 H 0.63157 1.08789 0.29692
 C2793 C 0.62235 0.62292 0.71894
 C2794 C 0.62989 0.60697 0.69983
 C2795 C 0.63971 0.61710 0.67801
 C2796 C 0.64206 0.64294 0.67530
 C2797 C 0.63433 0.65864 0.69465
 C2798 C 0.62446 0.64874 0.71651
 C2799 C 0.61219 0.61240 0.74201
 C2800 C 0.60477 0.62837 0.76114
 C2801 C 0.59521 0.61829 0.78306
 C2802 C 0.59299 0.59244 0.78595
 C2803 C 0.60059 0.57668 0.76657
 C2804 C 0.61020 0.58658 0.74453
 C2805 C 0.61681 0.66411 0.73606
 C2806 C 0.60713 0.65410 0.75801
 C2807 C 0.62754 0.58124 0.70299
 C2808 C 0.61786 0.57122 0.72496
 H2809 H 0.61836 0.68405 0.73440
 H2810 H 0.60147 0.66660 0.77265
 H2811 H 0.63329 0.56874 0.68838
 H2812 H 0.61640 0.55127 0.72666
 H2813 H 0.64556 0.60499 0.66310
 H2814 H 0.63638 0.67852 0.69275
 H2815 H 0.58981 0.63056 0.79802
 H2816 H 0.59876 0.55679 0.76855
 C2817 C 0.87835 0.87666 0.71867
 C2818 C 0.87598 0.85089 0.71599
 C2819 C 0.86582 0.84131 0.69411
 C2820 C 0.85803 0.85729 0.67501
 C2821 C 0.86066 0.88308 0.67796
 C2822 C 0.87079 0.89288 0.69979
 C2823 C 0.88876 0.88685 0.74178
 C2824 C 0.89096 0.91261 0.74456
 C2825 C 0.90069 0.92221 0.76667
 C2826 C 0.90815 0.90620 0.78591
 C2827 C 0.90581 0.88039 0.78273
 C2828 C 0.89614 0.87062 0.76071
 C2829 C 0.87339 0.91855 0.70319
 C2830 C 0.88332 0.92825 0.72520
 C2831 C 0.88364 0.83525 0.73532
 C2832 C 0.89355 0.84495 0.75731
 H2833 H 0.86764 0.93125 0.68876
 H2834 H 0.88494 0.94816 0.72710
 H2835 H 0.88190 0.81534 0.73346
 H2836 H 0.89917 0.83224 0.77179
 H2837 H 0.86357 0.82147 0.69201
 H2838 H 0.85478 0.89540 0.66324
 H2839 H 0.90264 0.94207 0.76884
 H2840 H 0.91111 0.86794 0.79756
 C2841 C 0.87730 0.37721 0.21910
 C2842 C 0.85150 0.37514 0.21649
 C2843 C 0.84173 0.36538 0.19452
 C2844 C 0.85755 0.35773 0.17524
 C2845 C 0.88338 0.36004 0.17813
 C2846 C 0.89337 0.36976 0.20006
 C2847 C 0.88768 0.38725 0.24229
 C2848 C 0.91348 0.38921 0.24499
 C2849 C 0.92324 0.39871 0.26713
 C2850 C 0.90737 0.40622 0.28644
 C2851 C 0.88153 0.40403 0.28339
 C2852 C 0.87159 0.39458 0.26136
 C2853 C 0.91908 0.37207 0.20339
 C2854 C 0.92896 0.38164 0.22548
 C2855 C 0.83600 0.38270 0.23598
 C2856 C 0.84588 0.39225 0.25804
 H2857 H 0.93167 0.36639 0.18883
 H2858 H 0.94890 0.38307 0.22731
 H2859 H 0.81607 0.38117 0.23419
 H2860 H 0.83329 0.39785 0.27264
 H2861 H 0.82186 0.36336 0.19249
 H2862 H 0.89558 0.35425 0.16327
 H2863 H 0.94312 0.40054 0.26923
 H2864 H 0.86918 0.40936 0.29829
 C2865 C 0.37683 0.87670 0.21952
 C2866 C 0.39280 0.86922 0.20040
 C2867 C 0.38270 0.85948 0.17854
 C2868 C 0.35686 0.85715 0.17579
 C2869 C 0.34113 0.86483 0.19514
 C2870 C 0.35101 0.87462 0.21705
 C2871 C 0.38733 0.88677 0.24263
 C2872 C 0.37134 0.89415 0.26177
 C2873 C 0.38139 0.90366 0.28372
 C2874 C 0.40724 0.90587 0.28663
 C2875 C 0.42302 0.89830 0.26726
 C2876 C 0.41314 0.88874 0.24519
 C2877 C 0.33562 0.88221 0.23660
 C2878 C 0.34561 0.89181 0.25859
 C2879 C 0.41853 0.87153 0.20360
 C2880 C 0.42853 0.88114 0.22562
 H2881 H 0.31568 0.88067 0.23491
 H2882 H 0.33309 0.89743 0.27324
 H2883 H 0.43104 0.86583 0.18899
 H2884 H 0.44847 0.88258 0.22734
 H2885 H 0.39482 0.85367 0.16363
 H2886 H 0.32126 0.86280 0.19320
 H2887 H 0.36911 0.90904 0.29867
 H2888 H 0.44291 0.90013 0.26926
 C2889 C 0.37826 0.37663 0.71907
 C2890 C 0.37065 0.39282 0.70018
 C2891 C 0.36052 0.38298 0.67838
 C2892 C 0.35794 0.35718 0.67545
 C2893 C 0.36576 0.34124 0.69456
 C2894 C 0.37593 0.35086 0.71642
 C2895 C 0.38868 0.38687 0.74215
 C2896 C 0.39612 0.37068 0.76110
 C2897 C 0.40582 0.38049 0.78308
 C2898 C 0.40813 0.40631 0.78622
 C2899 C 0.40060 0.42228 0.76698
 C2900 C 0.39085 0.41264 0.74490
 C2901 C 0.38363 0.33525 0.73577
 C2902 C 0.39356 0.34499 0.75773
 C2903 C 0.37322 0.41850 0.70355
 C2904 C 0.38316 0.42824 0.72553
 H2905 H 0.38192 0.31534 0.73394
 H2906 H 0.39922 0.33232 0.77223
 H2907 H 0.36744 0.43118 0.68910
 H2908 H 0.38476 0.44816 0.72740
 H2909 H 0.35462 0.39527 0.66364
 H2910 H 0.36355 0.32139 0.69249
 H2911 H 0.41118 0.36807 0.79792
 H2912 H 0.40253 0.44215 0.76913
 C2913 C 1.12185 0.87704 1.28149
 C2914 C 1.12400 0.85123 1.28390
 C2915 C 1.13408 0.84132 1.30566
 C2916 C 1.14198 0.85702 1.32494
 C2917 C 1.13960 0.88286 1.32226
 C2918 C 1.12957 0.89299 1.30054
 C2919 C 1.11148 0.88756 1.25852
 C2920 C 1.10948 0.91338 1.25601
 C2921 C 1.09973 0.92328 1.23404
 C2922 C 1.09203 0.90753 1.21470
 C2923 C 1.09421 0.88168 1.21759
 C2924 C 1.10391 0.87160 1.23945
 C2925 C 1.12718 0.91872 1.29741
 C2926 C 1.11730 0.92874 1.27552
 C2927 C 1.11618 0.83585 1.26442
 C2928 C 1.10630 0.84587 1.24256
 H2929 H 1.13305 0.93122 1.31197
 H2930 H 1.11584 0.94869 1.27383
 H2931 H 1.11775 0.81591 1.26606
 H2932 H 1.10052 0.83337 1.22796
 H2933 H 1.13615 0.82144 1.30754
 H2934 H 1.14558 0.89497 1.33711
 H2935 H 1.09792 0.94318 1.23207
 H2936 H 1.08873 0.86942 1.20266
 C2937 C 1.12262 0.37702 0.78129
 C2938 C 1.12480 0.35120 0.78359
 C2939 C 1.13487 0.34122 0.80534
 C2940 C 1.14271 0.35685 0.82469
 C2941 C 1.14029 0.38271 0.82211
 C2942 C 1.13027 0.39290 0.80041
 C2943 C 1.11225 0.38762 0.75835
 C2944 C 1.11017 0.41345 0.75596
 C2945 C 1.10038 0.42342 0.73404
 C2946 C 1.09269 0.40774 0.71464
 C2947 C 1.09497 0.38188 0.71740
 C2948 C 1.10471 0.37172 0.73921
 C2949 C 1.12783 0.41864 0.79739
 C2950 C 1.11795 0.42874 0.77554
 C2951 C 1.11704 0.33589 0.76404
 C2952 C 1.10716 0.34599 0.74221
 H2953 H 1.13367 0.43109 0.81201
 H2954 H 1.11644 0.44869 0.77394
 H2955 H 1.11865 0.31595 0.76560
 H2956 H 1.10143 0.33354 0.72755
 H2957 H 1.13696 0.32134 0.80714
 H2958 H 1.14622 0.39476 0.83702
 H2959 H 1.09850 0.44332 0.73216
 H2960 H 1.08950 0.36967 0.70242
 C2961 C 0.62182 0.87766 0.78140
 C2962 C 0.62400 0.85185 0.78380
 C2963 C 0.63406 0.84196 0.80559
 C2964 C 0.64189 0.85766 0.82488
 C2965 C 0.63947 0.88350 0.82220
 C2966 C 0.62947 0.89362 0.80046
 C2967 C 0.61148 0.88818 0.75840
 C2968 C 0.60943 0.91399 0.75590
 C2969 C 0.59968 0.92388 0.73393
 C2970 C 0.59202 0.90812 0.71457
 C2971 C 0.59428 0.88227 0.71745
 C2972 C 0.60397 0.87220 0.73931
 C2973 C 0.62704 0.91935 0.79733
 C2974 C 0.61718 0.92936 0.77543
 C2975 C 0.61625 0.83647 0.76430
 C2976 C 0.60640 0.84648 0.74242
 H2977 H 0.63286 0.93185 0.81191
 H2978 H 0.61568 0.94930 0.77375
 H2979 H 0.61786 0.81653 0.76594
 H2980 H 0.60068 0.83397 0.72781
 H2981 H 0.63616 0.82208 0.80746
 H2982 H 0.64541 0.89562 0.83707
 H2983 H 0.59781 0.94378 0.73196
 H2984 H 0.58884 0.87001 0.70251
 C2985 C 0.62296 0.37884 1.28175
 C2986 C 0.64874 0.37652 1.28431
 C2987 C 0.65845 0.36631 1.30611
 C2988 C 0.64257 0.35845 1.32526
 C2989 C 0.61676 0.36102 1.32243
 C2990 C 0.60684 0.37119 1.30068
 C2991 C 0.61265 0.38930 1.25872
 C2992 C 0.58686 0.39146 1.25606
 C2993 C 0.57715 0.40125 1.23402
 C2994 C 0.59306 0.40881 1.21474
 C2995 C 0.61888 0.40650 1.21780
 C2996 C 0.62877 0.39677 1.23974
 C2997 C 0.58115 0.37375 1.29739
 C2998 C 0.57133 0.38372 1.27546
 C2999 C 0.66429 0.38427 1.26493
 C3000 C 0.65447 0.39422 1.24301
 H3001 H 0.56852 0.36793 1.31187
 H3002 H 0.55140 0.38531 1.27365
 H3003 H 0.68421 0.38256 1.26669
 H3004 H 0.66709 0.39992 1.22849
 H3005 H 0.67830 0.36410 1.30811
 H3006 H 0.60452 0.35507 1.33719
 H3007 H 0.55727 0.40316 1.23193
 H3008 H 0.63126 0.41187 1.20293
 C3009 C 0.87667 1.12246 1.28098
 C3010 C 0.85088 1.12461 1.28358
 C3011 C 0.84112 1.13442 1.30554
 C3012 C 0.85695 1.14207 1.32481
 C3013 C 0.88278 1.13966 1.32194
 C3014 C 0.89275 1.12989 1.30003
 C3015 C 0.88705 1.11240 1.25780
 C3016 C 0.91284 1.11038 1.25511
 C3017 C 0.92260 1.10088 1.23296
 C3018 C 0.90672 1.09343 1.21363
 C3019 C 0.88089 1.09565 1.21668
 C3020 C 0.87095 1.10510 1.23872
 C3021 C 0.91846 1.12751 1.29670
 C3022 C 0.92834 1.11792 1.27463
 C3023 C 0.83538 1.11707 1.26408
 C3024 C 0.84525 1.10749 1.24203
 H3025 H 0.93106 1.13318 1.31126
 H3026 H 0.94827 1.11644 1.27280
 H3027 H 0.81545 1.11865 1.26587
 H3028 H 0.83265 1.10192 1.22743
 H3029 H 0.82126 1.13650 1.30756
 H3030 H 0.89499 1.14545 1.33679
 H3031 H 0.94248 1.09902 1.23087
 H3032 H 0.86853 1.09036 1.20177
 C3033 C 0.87837 0.62330 0.78097
 C3034 C 0.87092 0.60707 0.79989
 C3035 C 0.86102 0.61687 0.82182
 C3036 C 0.85850 0.64266 0.82483
 C3037 C 0.86618 0.65865 0.80570
 C3038 C 0.87612 0.64907 0.78372
 C3039 C 0.88853 0.61311 0.75775
 C3040 C 0.89580 0.62934 0.73878
 C3041 C 0.90526 0.61958 0.71667
 C3042 C 0.90751 0.59377 0.71344
 C3043 C 0.90013 0.57775 0.73270
 C3044 C 0.89061 0.58734 0.75490
 C3045 C 0.88366 0.66472 0.76435
 C3046 C 0.89334 0.65502 0.74225
 C3047 C 0.87340 0.58139 0.79641
 C3048 C 0.88309 0.57169 0.77430
 H3049 H 0.88201 0.68463 0.76625
 H3050 H 0.89888 0.66773 0.72774
 H3051 H 0.86774 0.56869 0.81088
 H3052 H 0.88463 0.55178 0.77235
 H3053 H 0.85522 0.60454 0.83656
 H3054 H 0.86401 0.67849 0.80784
 H3055 H 0.91051 0.63204 0.70182
 H3056 H 0.90201 0.55789 0.73047
 C3057 C 0.37628 1.12271 0.78075
 C3058 C 0.35049 1.12488 0.78339
 C3059 C 0.34078 1.13480 0.80532
 C3060 C 0.35666 1.14252 0.82453
 C3061 C 0.38247 1.14012 0.82161
 C3062 C 0.39240 1.13025 0.79973
 C3063 C 0.38659 1.11251 0.75761
 C3064 C 0.41238 1.11047 0.75488
 C3065 C 0.42209 1.10086 0.73277
 C3066 C 0.40617 1.09333 0.71349
 C3067 C 0.38034 1.09554 0.71660
 C3068 C 0.37046 1.10510 0.73861
 C3069 C 0.41810 1.12784 0.79637
 C3070 C 0.42792 1.11811 0.77432
 C3071 C 0.33494 1.11724 0.76398
 C3072 C 0.34476 1.10752 0.74196
 H3073 H 0.43073 1.13358 0.81087
 H3074 H 0.44785 1.11662 0.77246
 H3075 H 0.31502 1.11883 0.76580
 H3076 H 0.33213 1.10187 0.72742
 H3077 H 0.32092 1.13688 0.80739
 H3078 H 0.39471 1.14595 0.83642
 H3079 H 0.44197 1.09902 0.73063
 H3080 H 0.36796 1.09019 0.70173
 C3081 C 0.37822 0.62348 1.28073
 C3082 C 0.37062 0.60728 1.29960
 C3083 C 0.36055 0.61710 1.32145
 C3084 C 0.35803 0.64289 1.32442
 C3085 C 0.36585 0.65886 1.30532
 C3086 C 0.37595 0.64925 1.28343
 C3087 C 0.38860 0.61327 1.25761
 C3088 C 0.39605 0.62948 1.23869
 C3089 C 0.40571 0.61968 1.21668
 C3090 C 0.40797 0.59386 1.21349
 C3091 C 0.40043 0.57788 1.23271
 C3092 C 0.39072 0.58749 1.25482
 C3093 C 0.38366 0.66488 1.26410
 C3094 C 0.39354 0.65516 1.24210
 C3095 C 0.37313 0.58160 1.29618
 C3096 C 0.38302 0.57187 1.27417
 H3097 H 0.38199 0.68479 1.26597
 H3098 H 0.39921 0.66785 1.22763
 H3099 H 0.36735 0.56890 1.31061
 H3100 H 0.38458 0.55195 1.27226
 H3101 H 0.35466 0.60479 1.33617
 H3102 H 0.36369 0.67870 1.30743
 H3103 H 0.41108 0.63212 1.20186
 H3104 H 0.40232 0.55801 1.23052
 C3105 C 1.12370 1.28047 0.87736
 C3106 C 1.10764 1.29947 0.86976
 C3107 C 1.11764 1.32133 0.85991
 C3108 C 1.14346 1.32419 0.85757
 C3109 C 1.15928 1.30495 0.86535
 C3110 C 1.14950 1.28305 0.87527
 C3111 C 1.11331 1.25735 0.88755
 C3112 C 1.12938 1.23833 0.89503
 C3113 C 1.11943 1.21634 0.90459
 C3114 C 1.09358 1.21329 0.90672
 C3115 C 1.07773 1.23258 0.89910
 C3116 C 1.08751 1.25467 0.88950
 C3117 C 1.16499 1.26361 0.88298
 C3118 C 1.15510 1.24162 0.89269
 C3119 C 1.08193 1.29616 0.87209
 C3120 C 1.07203 1.27414 0.88180
 H3121 H 1.18492 1.26539 0.88144
 H3122 H 1.16768 1.22706 0.89839
 H3123 H 1.06934 1.31068 0.86631
 H3124 H 1.05210 1.27232 0.88323
 H3125 H 1.10544 1.33615 0.85403
 H3126 H 1.17915 1.30697 0.86333
 H3127 H 1.13176 1.20146 0.91002
 H3128 H 1.05784 1.23048 0.90088
 C3129 C 1.12304 0.78062 0.37746
 C3130 C 1.10697 0.79969 0.37005
 C3131 C 1.11695 0.82159 0.36029
 C3132 C 1.14278 0.82443 0.35786
 C3133 C 1.15860 0.80514 0.36548
 C3134 C 1.14883 0.78319 0.37529
 C3135 C 1.11265 0.75744 0.38752
 C3136 C 1.12874 0.73835 0.39480
 C3137 C 1.11879 0.71633 0.40426
 C3138 C 1.09296 0.71330 0.40652
 C3139 C 1.07709 0.73265 0.39908
 C3140 C 1.08686 0.75479 0.38957
 C3141 C 1.16432 0.76368 0.38280
 C3142 C 1.15444 0.74163 0.39239
 C3143 C 1.08126 0.79639 0.37245
 C3144 C 1.07137 0.77432 0.38205
 H3145 H 1.18425 0.76544 0.38120
 H3146 H 1.16703 0.72701 0.39794
 H3147 H 1.06867 0.81097 0.36681
 H3148 H 1.05144 0.77252 0.38355
 H3149 H 1.10475 0.83646 0.35452
 H3150 H 1.17846 0.80714 0.36338
 H3151 H 1.13114 0.70140 0.40954
 H3152 H 1.05721 0.73057 0.40096
 C3153 C 0.62150 1.28136 0.37675
 C3154 C 0.62895 1.30028 0.39297
 C3155 C 0.63900 1.32214 0.38317
 C3156 C 0.64164 1.32509 0.35738
 C3157 C 0.63395 1.30595 0.34140
 C3158 C 0.62388 1.28403 0.35099
 C3159 C 0.61118 1.25821 0.38695
 C3160 C 0.60391 1.23924 0.37072
 C3161 C 0.59431 1.21719 0.38050
 C3162 C 0.59192 1.21403 0.40631
 C3163 C 0.59927 1.23331 0.42231
 C3164 C 0.60894 1.25544 0.41272
 C3165 C 0.61634 1.26466 0.33535
 C3166 C 0.60652 1.24263 0.34505
 C3167 C 0.62632 1.29688 0.41864
 C3168 C 0.61648 1.27485 0.42835
 H3169 H 0.61810 1.26651 0.31544
 H3170 H 0.60098 1.22811 0.33235
 H3171 H 0.63199 1.31135 0.43134
 H3172 H 0.61483 1.27295 0.44826
 H3173 H 0.64481 1.33689 0.39548
 H3174 H 0.63621 1.30804 0.32156
 H3175 H 0.58909 1.20233 0.36805
 H3176 H 0.59728 1.23114 0.44217
 C3177 C 0.62309 0.78123 0.87746
 C3178 C 0.60698 0.80025 0.87003
 C3179 C 0.61692 0.82216 0.86023
 C3180 C 0.64274 0.82506 0.85780
 C3181 C 0.65860 0.80581 0.86545
 C3182 C 0.64888 0.78385 0.87529
 C3183 C 0.61276 0.75805 0.88758
 C3184 C 0.62889 0.73900 0.89489
 C3185 C 0.61900 0.71697 0.90438
 C3186 C 0.59317 0.71388 0.90664
 C3187 C 0.57726 0.73319 0.89917
 C3188 C 0.58697 0.75533 0.88963
 C3189 C 0.66442 0.76439 0.88283
 C3190 C 0.65459 0.74233 0.89247
 C3191 C 0.58128 0.79690 0.87244
 C3192 C 0.57145 0.77482 0.88208
 H3193 H 0.68434 0.76620 0.88123
 H3194 H 0.66721 0.72776 0.89804
 H3195 H 0.56866 0.81143 0.86677
 H3196 H 0.55152 0.77298 0.88358
 H3197 H 0.60469 0.83699 0.85445
 H3198 H 0.67846 0.80786 0.86335
 H3199 H 0.63138 0.70207 0.90968
 H3200 H 0.55738 0.73107 0.90105
 C3201 C 0.87804 1.28127 1.12257
 C3202 C 0.87585 1.28365 1.14838
 C3203 C 0.86593 1.30549 1.15830
 C3204 C 0.85822 1.32485 1.14261
 C3205 C 0.86064 1.32219 1.11676
 C3206 C 0.87052 1.30041 1.10662
 C3207 C 0.88825 1.25823 1.11203
 C3208 C 0.89033 1.25576 1.08621
 C3209 C 0.89999 1.23375 1.07630
 C3210 C 0.90754 1.21434 1.09205
 C3211 C 0.90523 1.21718 1.11790
 C3212 C 0.89563 1.23908 1.12799
 C3213 C 0.87295 1.29730 1.08089
 C3214 C 0.88270 1.27536 1.07086
 C3215 C 0.88346 1.26408 1.16374
 C3216 C 0.89318 1.24216 1.15371
 H3217 H 0.86723 1.31193 1.06840
 H3218 H 0.88422 1.27370 1.05092
 H3219 H 0.88185 1.26570 1.18368
 H3220 H 0.89881 1.22749 1.16621
 H3221 H 0.86382 1.30735 1.17817
 H3222 H 0.85480 1.33711 1.10467
 H3223 H 0.90189 1.23182 1.05641
 H3224 H 0.91058 1.20220 1.13016
 C3225 C 0.87664 0.78176 0.62107
 C3226 C 0.89276 0.80068 0.62876
 C3227 C 0.88283 0.82240 0.63899
 C3228 C 0.85703 0.82522 0.64160
 C3229 C 0.84115 0.80608 0.63370
 C3230 C 0.85086 0.78430 0.62343
 C3231 C 0.88697 0.75876 0.61055
 C3232 C 0.87085 0.73979 0.60305
 C3233 C 0.88075 0.71787 0.59328
 C3234 C 0.90658 0.71483 0.59095
 C3235 C 0.92247 0.73411 0.59853
 C3236 C 0.91275 0.75612 0.60836
 C3237 C 0.83533 0.76494 0.61565
 C3238 C 0.84515 0.74305 0.60563
 C3239 C 0.91845 0.79742 0.62616
 C3240 C 0.92828 0.77552 0.61612
 H3241 H 0.81541 0.76668 0.61738
 H3242 H 0.83253 0.72853 0.59992
 H3243 H 0.93107 0.81189 0.63200
 H3244 H 0.94820 0.77373 0.61451
 H3245 H 0.89507 0.83715 0.64496
 H3246 H 0.82130 0.80806 0.63594
 H3247 H 0.86838 0.70300 0.58789
 H3248 H 0.94235 0.73204 0.59660
 C3249 C 0.37653 1.28169 0.62136
 C3250 C 0.39266 1.30053 0.62919
 C3251 C 0.38275 1.32222 0.63951
 C3252 C 0.35694 1.32506 0.64207
 C3253 C 0.34106 1.30599 0.63404
 C3254 C 0.35075 1.28426 0.62367
 C3255 C 0.38684 1.25874 0.61072
 C3256 C 0.37070 1.23984 0.60305
 C3257 C 0.38059 1.21796 0.59318
 C3258 C 0.40643 1.21488 0.59096
 C3259 C 0.42233 1.23409 0.59868
 C3260 C 0.41263 1.25606 0.60860
 C3261 C 0.33520 1.26497 0.61572
 C3262 C 0.34501 1.24312 0.60559
 C3263 C 0.41835 1.29724 0.62664
 C3264 C 0.42817 1.27538 0.61652
 H3265 H 0.31528 1.26674 0.61741
 H3266 H 0.33238 1.22867 0.59975
 H3267 H 0.43099 1.31165 0.63260
 H3268 H 0.44809 1.27356 0.61495
 H3269 H 0.39500 1.33692 0.64557
 H3270 H 0.32120 1.30800 0.63622
 H3271 H 0.36822 1.20314 0.58767
 H3272 H 0.44221 1.23197 0.59682
 C3273 C 0.37743 0.78085 1.12299
 C3274 C 0.36974 0.79996 1.10710
 C3275 C 0.35977 0.82167 1.11730
 C3276 C 0.35743 0.82428 1.14315
 C3277 C 0.36529 0.80494 1.15879
 C3278 C 0.37532 0.78318 1.14881
 C3279 C 0.38777 0.75790 1.11239
 C3280 C 0.39535 0.73877 1.12830
 C3281 C 0.40506 0.71696 1.11815
 C3282 C 0.40726 0.71417 1.09228
 C3283 C 0.39953 0.73354 1.07659
 C3284 C 0.38977 0.75548 1.08656
 C3285 C 0.38312 0.76364 1.16412
 C3286 C 0.39297 0.74180 1.15404
 C3287 C 0.37211 0.79690 1.08136
 C3288 C 0.38195 0.77504 1.07126
 H3289 H 0.38156 0.76523 1.18407
 H3290 H 0.39874 0.72716 1.16649
 H3291 H 0.36624 0.81151 1.06891
 H3292 H 0.38341 0.77341 1.05131
 H3293 H 0.35382 0.83658 1.10524
 H3294 H 0.36326 0.80677 1.17868
 H3295 H 0.41056 0.70199 1.13036
 H3296 H 0.40135 0.73163 1.05668
 C3297 C 0.87718 0.71830 0.87860
 C3298 C 0.89332 0.69939 0.87096
 C3299 C 0.88342 0.67763 0.86077
 C3300 C 0.85762 0.67479 0.85819
 C3301 C 0.84172 0.69393 0.86604
 C3302 C 0.85140 0.71573 0.87625
 C3303 C 0.88747 0.74133 0.88909
 C3304 C 0.87132 0.76029 0.89656
 C3305 C 0.88118 0.78223 0.90631
 C3306 C 0.90700 0.78530 0.90865
 C3307 C 0.92293 0.76603 0.90110
 C3308 C 0.91325 0.74400 0.89129
 C3309 C 0.83584 0.73509 0.88399
 C3310 C 0.84563 0.75701 0.89397
 C3311 C 0.91901 0.70268 0.87356
 C3312 C 0.92880 0.72461 0.88356
 H3313 H 0.81592 0.73332 0.88226
 H3314 H 0.83298 0.77152 0.89966
 H3315 H 0.93165 0.68822 0.86774
 H3316 H 0.94872 0.72643 0.88518
 H3317 H 0.89567 0.66288 0.85484
 H3318 H 0.82188 0.69191 0.86382
 H3319 H 0.86878 0.79709 0.91167
 H3320 H 0.94280 0.76813 0.90305
 C3321 C 0.87785 0.21850 0.37734
 C3322 C 0.87568 0.21608 0.35153
 C3323 C 0.86561 0.19429 0.34165
 C3324 C 0.85775 0.17502 0.35737
 C3325 C 0.86015 0.17772 0.38322
 C3326 C 0.87017 0.19946 0.39331
 C3327 C 0.88820 0.24149 0.38784
 C3328 C 0.89024 0.24401 0.41365
 C3329 C 0.90001 0.26599 0.42353
 C3330 C 0.90770 0.28532 0.40775
 C3331 C 0.90546 0.28242 0.38190
 C3332 C 0.89575 0.26056 0.37185
 C3333 C 0.87258 0.20261 0.41904
 C3334 C 0.88245 0.22451 0.42904
 C3335 C 0.88346 0.23555 0.33613
 C3336 C 0.89333 0.25743 0.34612
 H3337 H 0.86674 0.18805 0.43156
 H3338 H 0.88394 0.22621 0.44898
 H3339 H 0.88186 0.23390 0.31620
 H3340 H 0.89908 0.27202 0.33360
 H3341 H 0.86352 0.19240 0.32178
 H3342 H 0.85420 0.16287 0.39534
 H3343 H 0.90186 0.26797 0.44342
 H3344 H 0.91093 0.29734 0.36962
 C3345 C 0.37697 0.71843 0.37824
 C3346 C 0.39303 0.69946 0.37057
 C3347 C 0.38304 0.67775 0.36037
 C3348 C 0.35723 0.67501 0.35780
 C3349 C 0.34141 0.69420 0.36568
 C3350 C 0.35118 0.71596 0.37592
 C3351 C 0.38736 0.74140 0.38875
 C3352 C 0.37129 0.76042 0.39626
 C3353 C 0.38124 0.78230 0.40605
 C3354 C 0.40708 0.78526 0.40839
 C3355 C 0.42292 0.76595 0.40079
 C3356 C 0.41315 0.74397 0.39094
 C3357 C 0.33570 0.73537 0.38369
 C3358 C 0.34558 0.75723 0.39369
 C3359 C 0.41873 0.70265 0.37315
 C3360 C 0.42862 0.72453 0.38317
 H3361 H 0.31577 0.73368 0.38198
 H3362 H 0.33300 0.77179 0.39941
 H3363 H 0.43132 0.68815 0.36731
 H3364 H 0.44855 0.72627 0.38477
 H3365 H 0.39524 0.66296 0.35441
 H3366 H 0.32155 0.69226 0.36348
 H3367 H 0.36890 0.79719 0.41145
 H3368 H 0.44281 0.76797 0.40273
 C3369 C 0.37755 0.21891 0.87713
 C3370 C 0.37534 0.21652 0.85132
 C3371 C 0.36527 0.19474 0.84143
 C3372 C 0.35745 0.17544 0.85714
 C3373 C 0.35989 0.17811 0.88298
 C3374 C 0.36991 0.19984 0.89309
 C3375 C 0.38792 0.24189 0.88764
 C3376 C 0.39001 0.24437 0.91346
 C3377 C 0.39980 0.26633 0.92335
 C3378 C 0.40747 0.28568 0.90759
 C3379 C 0.40518 0.28282 0.88173
 C3380 C 0.39544 0.26098 0.87167
 C3381 C 0.37237 0.20296 0.91882
 C3382 C 0.38225 0.22484 0.92883
 C3383 C 0.38309 0.23602 0.83594
 C3384 C 0.39297 0.25788 0.84594
 H3385 H 0.36655 0.18838 0.93133
 H3386 H 0.38378 0.22651 0.94877
 H3387 H 0.38146 0.23439 0.81600
 H3388 H 0.39870 0.27250 0.83343
 H3389 H 0.36316 0.19287 0.82155
 H3390 H 0.35398 0.16324 0.89510
 H3391 H 0.40169 0.26828 0.94324
 H3392 H 0.41063 0.29776 0.86947
 C3393 C 1.12301 0.71938 1.12308
 C3394 C 1.14882 0.71686 1.12515
 C3395 C 1.15867 0.69492 1.13491
 C3396 C 1.14292 0.67559 1.14256
 C3397 C 1.11708 0.67838 1.14024
 C3398 C 1.10701 0.70027 1.13053
 C3399 C 1.11254 0.74253 1.11303
 C3400 C 1.08673 0.74512 1.11105
 C3401 C 1.07688 0.76721 1.10152
 C3402 C 1.09268 0.78658 1.09399
 C3403 C 1.11853 0.78363 1.09621
 C3404 C 1.12855 0.76165 1.10569
 C3405 C 1.08129 0.70351 1.12821
 C3406 C 1.07132 0.72555 1.11863
 C3407 C 1.16424 0.73641 1.11760
 C3408 C 1.15427 0.75843 1.10803
 H3409 H 1.06875 0.68890 1.13389
 H3410 H 1.05138 0.72731 1.11718
 H3411 H 1.18418 0.73469 1.11913
 H3412 H 1.16681 0.77307 1.10244
 H3413 H 1.17855 0.69296 1.13693
 H3414 H 1.10494 0.66348 1.14603
 H3415 H 1.05699 0.76924 1.09968
 H3416 H 1.13083 0.79857 1.09086
 C3417 C 1.12160 0.21898 0.62336
 C3418 C 1.12393 0.21623 0.64913
 C3419 C 1.13402 0.19430 0.65867
 C3420 C 1.14178 0.17523 0.64265
 C3421 C 1.13919 0.17825 0.61686
 C3422 C 1.12914 0.20012 0.60710
 C3423 C 1.11127 0.24214 0.61321
 C3424 C 1.10912 0.24499 0.58744
 C3425 C 1.09947 0.26715 0.57789
 C3426 C 1.09203 0.28636 0.59393
 C3427 C 1.09431 0.28312 0.61974
 C3428 C 1.10391 0.26105 0.62947
 C3429 C 1.12658 0.20360 0.58144
 C3430 C 1.11674 0.22565 0.57177
 C3431 C 1.11629 0.23554 0.66481
 C3432 C 1.10645 0.25758 0.65514
 H3433 H 1.13231 0.18918 0.56871
 H3434 H 1.11515 0.22761 0.55186
 H3435 H 1.11800 0.23363 0.68471
 H3436 H 1.10085 0.27205 0.66788
 H3437 H 1.13624 0.19215 0.67850
 H3438 H 1.14505 0.16354 0.60451
 H3439 H 1.09756 0.26939 0.55803
 H3440 H 1.08901 0.29793 0.63221
 C3441 C 0.62285 0.71941 0.62295
 C3442 C 0.64865 0.71683 0.62503
 C3443 C 0.65845 0.69486 0.63476
 C3444 C 0.64265 0.67556 0.64240
 C3445 C 0.61682 0.67841 0.64009
 C3446 C 0.60680 0.70034 0.63039
 C3447 C 0.61243 0.74260 0.61294
 C3448 C 0.58663 0.74526 0.61096
 C3449 C 0.57684 0.76739 0.60146
 C3450 C 0.59269 0.78673 0.59396
 C3451 C 0.61853 0.78371 0.59618
 C3452 C 0.62849 0.76169 0.60562
 C3453 C 0.58109 0.70364 0.62807
 C3454 C 0.57117 0.72572 0.61851
 C3455 C 0.66412 0.73635 0.61749
 C3456 C 0.65421 0.75841 0.60795
 H3457 H 0.56851 0.68906 0.63374
 H3458 H 0.55123 0.72753 0.61707
 H3459 H 0.68405 0.73458 0.61902
 H3460 H 0.66678 0.77302 0.60238
 H3461 H 0.67832 0.69285 0.63679
 H3462 H 0.60464 0.66354 0.64587
 H3463 H 0.55695 0.76947 0.59962
 H3464 H 0.63086 0.79863 0.59086
 C3465 C 0.62170 0.21874 1.12330
 C3466 C 0.62400 0.21599 1.14907
 C3467 C 0.63410 0.19407 1.15863
 C3468 C 0.64187 0.17499 1.14262
 C3469 C 0.63930 0.17800 1.11683
 C3470 C 0.62924 0.19987 1.10706
 C3471 C 0.61137 0.24189 1.11313
 C3472 C 0.60924 0.24474 1.08736
 C3473 C 0.59959 0.26689 1.07780
 C3474 C 0.59213 0.28611 1.09382
 C3475 C 0.59440 0.28287 1.11963
 C3476 C 0.60400 0.26081 1.12938
 C3477 C 0.62670 0.20334 1.08138
 C3478 C 0.61686 0.22539 1.07170
 C3479 C 0.61635 0.23531 1.16474
 C3480 C 0.60652 0.25735 1.15506
 H3481 H 0.63244 0.18892 1.06866
 H3482 H 0.61529 0.22734 1.05179
 H3483 H 0.61804 0.23341 1.18464
 H3484 H 0.60090 0.27182 1.16778
 H3485 H 0.63630 0.19193 1.17846
 H3486 H 0.64517 0.16330 1.10449
 H3487 H 0.59769 0.26912 1.05793
 H3488 H 0.58910 0.29769 1.13210
 C3489 C 1.28084 1.12293 0.87762
 C3490 C 1.29994 1.10699 0.87000
 C3491 C 1.32171 1.11712 0.86010
 C3492 C 1.32440 1.14297 0.85776
 C3493 C 1.30509 1.15866 0.86559
 C3494 C 1.28326 1.14875 0.87552
 C3495 C 1.25780 1.11239 0.88782
 C3496 C 1.23868 1.12834 0.89530
 C3497 C 1.21678 1.11825 0.90487
 C3498 C 1.21391 1.09239 0.90706
 C3499 C 1.23329 1.07665 0.89943
 C3500 C 1.25530 1.08657 0.88979
 C3501 C 1.26372 1.16411 0.88323
 C3502 C 1.24180 1.15407 0.89295
 C3503 C 1.29680 1.08125 0.87234
 C3504 C 1.27486 1.07121 0.88207
 H3505 H 1.26537 1.18405 0.88169
 H3506 H 1.22716 1.16657 0.89864
 H3507 H 1.31139 1.06876 0.86653
 H3508 H 1.27317 1.05127 0.88352
 H3509 H 1.33659 1.10502 0.85417
 H3510 H 1.30698 1.17854 0.86355
 H3511 H 1.20182 1.13050 0.91029
 H3512 H 1.23133 1.05675 0.90125
 C3513 C 1.28134 0.62157 0.37649
 C3514 C 1.30029 0.62922 0.39259
 C3515 C 1.32207 0.63931 0.38263
 C3516 C 1.32489 0.64183 0.35682
 C3517 C 1.30572 0.63398 0.34097
 C3518 C 1.28390 0.62383 0.35070
 C3519 C 1.25830 0.61117 0.38685
 C3520 C 1.23931 0.60367 0.37074
 C3521 C 1.21738 0.59396 0.38066
 C3522 C 1.21434 0.59171 0.40650
 C3523 C 1.23361 0.59932 0.42238
 C3524 C 1.25565 0.60907 0.41264
 C3525 C 1.26450 0.61608 0.33519
 C3526 C 1.24258 0.60617 0.34504
 C3527 C 1.29702 0.62672 0.41829
 C3528 C 1.27507 0.61681 0.42815
 H3529 H 1.26626 0.61774 0.31526
 H3530 H 1.22805 0.60045 0.33243
 H3531 H 1.31150 0.63254 0.43090
 H3532 H 1.27327 0.61527 0.44808
 H3533 H 1.33684 0.64524 0.39486
 H3534 H 1.30770 0.63615 0.32111
 H3535 H 1.20251 0.58855 0.36831
 H3536 H 1.23152 0.59744 0.44226
 C3537 C 0.78091 1.12295 0.37789
 C3538 C 0.79992 1.10688 0.37032
 C3539 C 0.82174 1.11687 0.36036
 C3540 C 0.82457 1.14270 0.35794
 C3541 C 0.80533 1.15852 0.36571
 C3542 C 0.78346 1.14875 0.37569
 C3543 C 0.75783 1.11257 0.38817
 C3544 C 0.73879 1.12865 0.39559
 C3545 C 0.71683 1.11870 0.40521
 C3546 C 0.71382 1.09286 0.40749
 C3547 C 0.73315 1.07700 0.39994
 C3548 C 0.75520 1.08677 0.39026
 C3549 C 0.76401 1.16423 0.38336
 C3550 C 0.74204 1.15435 0.39314
 C3551 C 0.79665 1.08118 0.37277
 C3552 C 0.77468 1.07129 0.38258
 H3553 H 0.76575 1.18416 0.38174
 H3554 H 0.72747 1.16694 0.39879
 H3555 H 0.81118 1.06859 0.36700
 H3556 H 0.77289 1.05136 0.38411
 H3557 H 0.83656 1.10468 0.35448
 H3558 H 0.80733 1.17838 0.36361
 H3559 H 0.70193 1.13105 0.41056
 H3560 H 0.73109 1.05712 0.40184
 C3561 C 0.78179 0.62134 0.87683
 C3562 C 0.80073 0.62896 0.89295
 C3563 C 0.82253 0.63902 0.88302
 C3564 C 0.82538 0.64154 0.85721
 C3565 C 0.80622 0.63371 0.84134
 C3566 C 0.78438 0.62359 0.85104
 C3567 C 0.75872 0.61098 0.88715
 C3568 C 0.73974 0.60352 0.87102
 C3569 C 0.71777 0.59388 0.88092
 C3570 C 0.71468 0.59167 0.90675
 C3571 C 0.73395 0.59923 0.92266
 C3572 C 0.75602 0.60891 0.91294
 C3573 C 0.76500 0.61586 0.83550
 C3574 C 0.74305 0.60599 0.84533
 C3575 C 0.79742 0.62647 0.91865
 C3576 C 0.77544 0.61662 0.92848
 H3577 H 0.76678 0.61752 0.81558
 H3578 H 0.72852 0.60030 0.83270
 H3579 H 0.81190 0.63228 0.93127
 H3580 H 0.77360 0.61509 0.94840
 H3581 H 0.83730 0.64494 0.89526
 H3582 H 0.80822 0.63589 0.82148
 H3583 H 0.70290 0.58849 0.86854
 H3584 H 0.73181 0.59738 0.94254
 C3585 C 1.28070 0.87665 1.12303
 C3586 C 1.29977 0.89263 1.13062
 C3587 C 1.32158 0.88254 1.14048
 C3588 C 1.32434 0.85670 1.14279
 C3589 C 1.30504 0.84097 1.13502
 C3590 C 1.28317 0.85084 1.12513
 C3591 C 1.25763 0.88714 1.11283
 C3592 C 1.23854 0.87114 1.10537
 C3593 C 1.21661 0.88119 1.09579
 C3594 C 1.21369 0.90704 1.09358
 C3595 C 1.23305 0.92282 1.10119
 C3596 C 1.25508 0.91295 1.11083
 C3597 C 1.26366 0.83544 1.11745
 C3598 C 1.24171 0.84542 1.10774
 C3599 C 1.29657 0.91836 1.12827
 C3600 C 1.27460 0.92835 1.11853
 H3601 H 1.26536 0.81550 1.11899
 H3602 H 1.22710 0.83289 1.10206
 H3603 H 1.31115 0.93088 1.13404
 H3604 H 1.27288 0.94829 1.11708
 H3605 H 1.33646 0.89467 1.14636
 H3606 H 1.30699 0.82109 1.13704
 H3607 H 1.20168 0.86891 1.09038
 H3608 H 1.23104 0.94271 1.09935
 C3609 C 1.28115 0.37872 0.62367
 C3610 C 1.30007 0.37111 0.60752
 C3611 C 1.32184 0.36095 0.61740
 C3612 C 1.32469 0.35831 0.64320
 C3613 C 1.30556 0.36614 0.65911
 C3614 C 1.28374 0.37636 0.64945
 C3615 C 1.25810 0.38917 0.61340
 C3616 C 1.23913 0.39662 0.62956
 C3617 C 1.21717 0.40633 0.61970
 C3618 C 1.21407 0.40862 0.59388
 C3619 C 1.23334 0.40110 0.57794
 C3620 C 1.25540 0.39134 0.58762
 C3621 C 1.26438 0.38408 0.66503
 C3622 C 1.24244 0.39404 0.65525
 C3623 C 1.29675 0.37370 0.58184
 C3624 C 1.27480 0.38365 0.57205
 H3625 H 1.26616 0.38235 0.68494
 H3626 H 1.22793 0.39972 0.66790
 H3627 H 1.31121 0.36791 0.56918
 H3628 H 1.27296 0.38525 0.55213
 H3629 H 1.33659 0.35504 0.60513
 H3630 H 1.30758 0.36390 0.67896
 H3631 H 1.20231 0.41168 0.63210
 H3632 H 1.23121 0.40301 0.55807
 C3633 C 0.78115 0.87892 0.62342
 C3634 C 0.78383 0.87659 0.64919
 C3635 C 0.80567 0.86634 0.65878
 C3636 C 0.82473 0.85844 0.64281
 C3637 C 0.82177 0.86103 0.61702
 C3638 C 0.79998 0.87123 0.60721
 C3639 C 0.75808 0.88942 0.61322
 C3640 C 0.75529 0.89156 0.58745
 C3641 C 0.73321 0.90135 0.57784
 C3642 C 0.71402 0.90893 0.59384
 C3643 C 0.71721 0.90668 0.61965
 C3644 C 0.73920 0.89694 0.62944
 C3645 C 0.79658 0.87380 0.58153
 C3646 C 0.77461 0.88379 0.57182
 C3647 C 0.76455 0.88439 0.66483
 C3648 C 0.74260 0.89439 0.65512
 H3649 H 0.81097 0.86795 0.56883
 H3650 H 0.77270 0.88537 0.55190
 H3651 H 0.76641 0.88268 0.68474
 H3652 H 0.72816 0.90012 0.66782
 H3653 H 0.80775 0.86413 0.67863
 H3654 H 0.83646 0.85508 0.60470
 H3655 H 0.73101 0.90323 0.55797
 H3656 H 0.70241 0.91209 0.63210
 C3657 C 0.78143 0.37714 1.12244
 C3658 C 0.78395 0.35134 1.12455
 C3659 C 0.80585 0.34150 1.13441
 C3660 C 0.82514 0.35727 1.14214
 C3661 C 0.82234 0.38310 1.13981
 C3662 C 0.80049 0.39316 1.12998
 C3663 C 0.75832 0.38759 1.11230
 C3664 C 0.75572 0.41340 1.11030
 C3665 C 0.73364 0.42322 1.10071
 C3666 C 0.71429 0.40741 1.09316
 C3667 C 0.71726 0.38156 1.09539
 C3668 C 0.73924 0.37156 1.10491
 C3669 C 0.79725 0.41888 1.12763
 C3670 C 0.77524 0.42883 1.11794
 C3671 C 0.76445 0.33590 1.11692
 C3672 C 0.74246 0.34584 1.10727
 H3673 H 0.81182 0.43143 1.13337
 H3674 H 0.77348 0.44876 1.11648
 H3675 H 0.76618 0.31596 1.11847
 H3676 H 0.72785 0.33329 1.10164
 H3677 H 0.80783 0.32163 1.13644
 H3678 H 0.83721 0.39525 1.14567
 H3679 H 0.73161 0.44311 1.09886
 H3680 H 0.70233 0.36925 1.09004
 C3681 C 0.71867 1.12332 1.12093
 C3682 C 0.71603 1.14909 1.12330
 C3683 C 0.69421 1.15870 1.13357
 C3684 C 0.67512 1.14275 1.14143
 C3685 C 0.67804 1.11695 1.13879
 C3686 C 0.69981 1.10712 1.12858
 C3687 C 0.74172 1.11310 1.11041
 C3688 C 0.74447 1.08733 1.10822
 C3689 C 0.76654 1.07770 1.09843
 C3690 C 0.78576 1.09368 1.09088
 C3691 C 0.78260 1.11950 1.09317
 C3692 C 0.76063 1.12930 1.10292
 C3693 C 0.70318 1.08145 1.12597
 C3694 C 0.72513 1.07171 1.11596
 C3695 C 0.73534 1.16471 1.11553
 C3696 C 0.75727 1.15498 1.10551
 H3697 H 0.68876 1.06876 1.13179
 H3698 H 0.72701 1.05180 1.11435
 H3699 H 0.73351 1.18462 1.11728
 H3700 H 0.77174 1.16766 1.09981
 H3701 H 0.69216 1.17854 1.13582
 H3702 H 0.66333 1.10465 1.14472
 H3703 H 0.76871 1.05783 1.09652
 H3704 H 0.79742 1.13192 1.08779
 C3705 C 0.71865 0.62262 0.62279
 C3706 C 0.69958 0.63024 0.60682
 C3707 C 0.67778 0.64014 0.61694
 C3708 C 0.67505 0.64245 0.64279
 C3709 C 0.69436 0.63464 0.65850
 C3710 C 0.71620 0.62471 0.64860
 C3711 C 0.74169 0.61239 0.61227
 C3712 C 0.76078 0.60490 0.62825
 C3713 C 0.78269 0.59529 0.61819
 C3714 C 0.78559 0.59307 0.59234
 C3715 C 0.76624 0.60072 0.57657
 C3716 C 0.74423 0.61040 0.58646
 C3717 C 0.73571 0.61699 0.66399
 C3718 C 0.75764 0.60725 0.65398
 C3719 C 0.70275 0.62790 0.58109
 C3720 C 0.72469 0.61814 0.57108
 H3721 H 0.73404 0.61853 0.68393
 H3722 H 0.77225 0.60154 0.66649
 H3723 H 0.68817 0.63371 0.56858
 H3724 H 0.72640 0.61669 0.55114
 H3725 H 0.66291 0.64605 0.60483
 H3726 H 0.69244 0.63666 0.67838
 H3727 H 0.79762 0.58986 0.63046
 H3728 H 0.76822 0.59889 0.55667
 C3729 C 0.21847 1.12340 0.62090
 C3730 C 0.21591 1.14917 0.62332
 C3731 C 0.19412 1.15883 0.63358
 C3732 C 0.17497 1.14292 0.64139
 C3733 C 0.17780 1.11713 0.63871
 C3734 C 0.19955 1.10725 0.62850
 C3735 C 0.24150 1.11312 0.61040
 C3736 C 0.24417 1.08734 0.60816
 C3737 C 0.26621 1.07767 0.59837
 C3738 C 0.28548 1.09360 0.59087
 C3739 C 0.28242 1.11942 0.59321
 C3740 C 0.26047 1.12928 0.60296
 C3741 C 0.20283 1.08157 0.62584
 C3742 C 0.22477 1.07178 0.61585
 C3743 C 0.23528 1.16474 0.61561
 C3744 C 0.25719 1.15496 0.60560
 H3745 H 0.18836 1.06892 0.63162
 H3746 H 0.22658 1.05186 0.61420
 H3747 H 0.23352 1.18466 0.61739
 H3748 H 0.27171 1.16761 0.59994
 H3749 H 0.19212 1.17868 0.63587
 H3750 H 0.16304 1.10486 0.64460
 H3751 H 0.26832 1.05780 0.59642
 H3752 H 0.29729 1.13181 0.58786
 C3753 C 0.21900 0.62273 1.12296
 C3754 C 0.19992 0.63035 1.10700
 C3755 C 0.17813 0.64023 1.11711
 C3756 C 0.17539 0.64253 1.14296
 C3757 C 0.19469 0.63473 1.15867
 C3758 C 0.21654 0.62481 1.14878
 C3759 C 0.24205 0.61250 1.11245
 C3760 C 0.26114 0.60501 1.12843
 C3761 C 0.28305 0.59542 1.11837
 C3762 C 0.28596 0.59321 1.09251
 C3763 C 0.26660 0.60085 1.07675
 C3764 C 0.24458 0.61052 1.08664
 C3765 C 0.23605 0.61709 1.16416
 C3766 C 0.25799 0.60737 1.15416
 C3767 C 0.20310 0.62800 1.08127
 C3768 C 0.22505 0.61825 1.07126
 H3769 H 0.23438 0.61863 1.18411
 H3770 H 0.27261 0.60166 1.16667
 H3771 H 0.18852 0.63381 1.06876
 H3772 H 0.22676 0.61680 1.05131
 H3773 H 0.16325 0.64614 1.10500
 H3774 H 0.19277 0.63674 1.17855
 H3775 H 0.29799 0.59000 1.13064
 H3776 H 0.26859 0.59902 1.05685
 C3777 C 0.71878 0.87808 0.87694
 C3778 C 0.69977 0.87051 0.89301
 C3779 C 0.67793 0.86060 0.88302
 C3780 C 0.67509 0.85822 0.85719
 C3781 C 0.69432 0.86598 0.84137
 C3782 C 0.71621 0.87592 0.85114
 C3783 C 0.74188 0.88829 0.88733
 C3784 C 0.76093 0.89569 0.87125
 C3785 C 0.78291 0.90525 0.88120
 C3786 C 0.78594 0.90748 0.90704
 C3787 C 0.76661 0.89995 0.92290
 C3788 C 0.74453 0.89033 0.91313
 C3789 C 0.73567 0.88357 0.83565
 C3790 C 0.75766 0.89329 0.84554
 C3791 C 0.70305 0.87292 0.91872
 C3792 C 0.72505 0.88267 0.92861
 H3793 H 0.73391 0.88198 0.81572
 H3794 H 0.77224 0.89893 0.83295
 H3795 H 0.68852 0.86716 0.93131
 H3796 H 0.72685 0.88416 0.94854
 H3797 H 0.66310 0.85472 0.89521
 H3798 H 0.69231 0.86391 0.82151
 H3799 H 0.79782 0.91058 0.86885
 H3800 H 0.76868 0.90181 0.94278
 C3801 C 0.71857 0.37675 0.37864
 C3802 C 0.69968 0.39295 0.37106
 C3803 C 0.67784 0.38312 0.36100
 C3804 C 0.67489 0.35733 0.35846
 C3805 C 0.69399 0.34137 0.36626
 C3806 C 0.71588 0.35098 0.37637
 C3807 C 0.74170 0.38697 0.38898
 C3808 C 0.76063 0.37076 0.39641
 C3809 C 0.78265 0.38056 0.40603
 C3810 C 0.78584 0.40638 0.40827
 C3811 C 0.76661 0.42236 0.40076
 C3812 C 0.74449 0.41275 0.39109
 C3813 C 0.73522 0.33535 0.38405
 C3814 C 0.75722 0.34508 0.39391
 C3815 C 0.70310 0.41863 0.37357
 C3816 C 0.72512 0.42836 0.38342
 H3817 H 0.73336 0.31544 0.38238
 H3818 H 0.77171 0.33239 0.39956
 H3819 H 0.68866 0.43132 0.36779
 H3820 H 0.72703 0.44828 0.38496
 H3821 H 0.66311 0.39543 0.35511
 H3822 H 0.69191 0.32152 0.36407
 H3823 H 0.79748 0.36812 0.41138
 H3824 H 0.76881 0.44223 0.40263
 C3825 C 0.21887 0.87739 0.37698
 C3826 C 0.19986 0.86983 0.39305
 C3827 C 0.17803 0.85992 0.38306
 C3828 C 0.17519 0.85753 0.35724
 C3829 C 0.19442 0.86528 0.34141
 C3830 C 0.21632 0.87522 0.35118
 C3831 C 0.24197 0.88762 0.38737
 C3832 C 0.26101 0.89504 0.37129
 C3833 C 0.28298 0.90462 0.38123
 C3834 C 0.28600 0.90688 0.40707
 C3835 C 0.26668 0.89933 0.42293
 C3836 C 0.24461 0.88968 0.41316
 C3837 C 0.23577 0.88287 0.33569
 C3838 C 0.25776 0.89261 0.34558
 C3839 C 0.20314 0.87225 0.41876
 C3840 C 0.22513 0.88201 0.42865
 H3841 H 0.23402 0.88127 0.31576
 H3842 H 0.27233 0.89826 0.33299
 H3843 H 0.18861 0.86649 0.43135
 H3844 H 0.22693 0.88352 0.44858
 H3845 H 0.16320 0.85404 0.39525
 H3846 H 0.19242 0.86320 0.32155
 H3847 H 0.29789 0.90998 0.36889
 H3848 H 0.26874 0.90121 0.44282
 C3849 C 0.21944 0.37723 0.87696
 C3850 C 0.21696 0.37511 0.85115
 C3851 C 0.19511 0.36514 0.84131
 C3852 C 0.17585 0.35732 0.85706
 C3853 C 0.17861 0.35968 0.88290
 C3854 C 0.20040 0.36961 0.89296
 C3855 C 0.24249 0.38749 0.88743
 C3856 C 0.24506 0.38951 0.91324
 C3857 C 0.26708 0.39919 0.92308
 C3858 C 0.28642 0.40681 0.90728
 C3859 C 0.28348 0.40459 0.88143
 C3860 C 0.26156 0.39497 0.87141
 C3861 C 0.20361 0.37199 0.91869
 C3862 C 0.22556 0.38178 0.92865
 C3863 C 0.23644 0.38283 0.83573
 C3864 C 0.25837 0.39259 0.84569
 H3865 H 0.18905 0.36618 0.93123
 H3866 H 0.22729 0.38325 0.94859
 H3867 H 0.23473 0.38126 0.81579
 H3868 H 0.27297 0.39829 0.83315
 H3869 H 0.19316 0.36309 0.82143
 H3870 H 0.16376 0.35376 0.89504
 H3871 H 0.26910 0.40103 0.94297
 H3872 H 0.29840 0.41001 0.86913
   
