data_POSCAR
  _audit_creation_date              2014-09-24
  _audit_creation_method            'ToBaCCo'
  _symmetry_space_group_name_H-M    'P1'
  _symmetry_Int_Tables_number       1
  _symmetry_cell_setting            triclinic
  loop_
  _symmetry_equiv_pos_as_xyz
 x,y,z
_cell_length_a 57.6486
_cell_length_b 57.6499
_cell_length_c 57.6662
_cell_angle_alpha 89.976600
_cell_angle_beta 90.022600
_cell_angle_gamma 89.988400
loop_
  _atom_site_label
  _atom_site_type_symbol
  _atom_site_fract_x
  _atom_site_fract_y
  _atom_site_fract_z
C1 C 0.35469 1.35546 0.32503
 C2 C 0.36491 1.33612 0.33602
 C3 C 0.35615 1.32739 0.35686
 C4 C 0.33725 1.33819 0.36750
 C5 C 0.32591 1.35718 0.35696
 C6 C 0.33488 1.36540 0.33561
 H7 H 0.38038 1.32804 0.32920
 H8 H 0.33175 1.33154 0.38414
 H9 H 0.32522 1.37831 0.32615
 C10 C 0.35740 0.85761 0.82760
 C11 C 0.33947 0.86898 0.83943
 C12 C 0.32829 0.85826 0.85834
 C13 C 0.33681 0.83672 0.86626
 C14 C 0.35552 0.82561 0.85523
 C15 C 0.36525 0.83599 0.83547
 H16 H 0.33305 0.88526 0.83255
 H17 H 0.32954 0.82912 0.88180
 H18 H 0.37895 0.82727 0.82603
 C19 C 0.85724 1.35837 0.82794
 C20 C 0.86691 1.33832 0.83779
 C21 C 0.85698 1.32819 0.85742
 C22 C 0.83724 1.33810 0.86749
 C23 C 0.82691 1.35833 0.85818
 C24 C 0.83748 1.36831 0.83835
 H25 H 0.88171 1.32998 0.82978
 H26 H 0.83079 1.33019 0.88320
 H27 H 0.83005 1.38344 0.83025
 C28 C 0.85655 0.85607 0.32616
 C29 C 0.83541 0.86474 0.33459
 C30 C 0.82535 0.85563 0.35488
 C31 C 0.83645 0.83697 0.36606
 C32 C 0.85728 0.82785 0.35746
 C33 C 0.86760 0.83783 0.33786
 H34 H 0.82684 0.87855 0.32516
 H35 H 0.82914 0.82955 0.38169
 H36 H 0.88360 0.83068 0.33107
 C37 C 0.64032 0.64034 0.32900
 C38 C 0.66128 0.63143 0.33818
 C39 C 0.67289 0.64270 0.35634
 C40 C 0.66387 0.66327 0.36549
 C41 C 0.64269 0.67218 0.35748
 C42 C 0.63090 0.66032 0.33971
 H43 H 0.66970 0.61650 0.33062
 H44 H 0.67344 0.67223 0.37894
 H45 H 0.61386 0.66646 0.33492
 C46 C 0.64096 0.13967 0.82980
 C47 C 0.63218 0.16061 0.83861
 C48 C 0.64320 0.17184 0.85706
 C49 C 0.66346 0.16241 0.86662
 C50 C 0.67265 0.14115 0.85855
 C51 C 0.66070 0.12984 0.84031
 H52 H 0.61719 0.16874 0.83074
 H53 H 0.67214 0.17231 0.87995
 H54 H 0.66607 0.11282 0.83464
 C55 C 1.14485 0.64343 0.82761
 C56 C 1.13540 0.66388 0.83669
 C57 C 1.14335 0.67273 0.85788
 C58 C 1.16120 0.66122 0.86977
 C59 C 1.17178 0.64134 0.86029
 C60 C 1.16309 0.63236 0.83930
 H61 H 1.12147 0.67261 0.82756
 H62 H 1.16711 0.66817 0.88618
 H63 H 1.17098 0.61724 0.83144
 C64 C 1.13962 0.14022 0.33002
 C65 C 1.13073 0.16064 0.34023
 C66 C 1.14323 0.17308 0.35702
 C67 C 1.16474 0.16447 0.36448
 C68 C 1.17332 0.14315 0.35626
 C69 C 1.16062 0.13127 0.33905
 H70 H 1.11359 0.16673 0.33576
 H71 H 1.17434 0.17401 0.37747
 H72 H 1.16853 0.11616 0.33134
 C73 C 0.64138 1.35855 0.67188
 C74 C 0.66262 1.36676 0.66315
 C75 C 0.67374 1.35594 0.64411
 C76 C 0.66310 1.33597 0.63461
 C77 C 0.64164 1.32778 0.64277
 C78 C 0.63071 1.33961 0.66097
 H79 H 0.67011 1.38187 0.67120
 H80 H 0.67200 1.32581 0.62164
 H81 H 0.61375 1.33402 0.66675
 C82 C 0.64294 0.85813 1.17207
 C83 C 0.66423 0.86579 1.16298
 C84 C 0.67339 0.85583 1.14281
 C85 C 0.66181 0.83732 1.13215
 C86 C 0.64078 0.82890 1.14122
 C87 C 0.63116 0.84002 1.16071
 H88 H 0.67382 0.87948 1.17153
 H89 H 0.66976 0.82907 1.11728
 H90 H 0.61434 0.83461 1.16702
 C91 C 1.14257 1.35681 1.17340
 C92 C 1.16381 1.36517 1.16430
 C93 C 1.17435 1.35534 1.14443
 C94 C 1.16346 1.33590 1.13430
 C95 C 1.14274 1.32701 1.14319
 C96 C 1.13212 1.33773 1.16215
 H97 H 1.17324 1.37813 1.17391
 H98 H 1.17025 1.32786 1.11880
 H99 H 1.11556 1.33095 1.16775
 C100 C 1.14340 0.85706 0.67160
 C101 C 1.16312 0.86680 0.66121
 C102 C 1.17306 0.85665 0.64133
 C103 C 1.16263 0.83664 0.63196
 C104 C 1.14294 0.82683 0.64230
 C105 C 1.13335 0.83710 0.66207
 H106 H 1.17114 0.88176 0.66925
 H107 H 1.16957 0.82868 0.61643
 H108 H 1.11828 0.82938 0.67024
 C109 C 0.35723 0.64398 0.67311
 C110 C 0.36811 0.66237 0.66164
 C111 C 0.35760 0.67261 0.64232
 C112 C 0.33669 0.66360 0.63374
 C113 C 0.32556 0.64455 0.64453
 C114 C 0.33610 0.63528 0.66469
 H115 H 0.38414 0.66947 0.66844
 H116 H 0.32991 0.67126 0.61804
 H117 H 0.32780 0.62172 0.67461
 C118 C 0.35774 0.14188 1.17197
 C119 C 0.36736 0.16150 1.16103
 C120 C 0.35700 0.17131 1.14121
 C121 C 0.33683 0.16099 1.13221
 C122 C 0.32708 0.14144 1.14281
 C123 C 0.33756 0.13191 1.16255
 H124 H 0.38284 0.16934 1.16815
 H125 H 0.32870 0.16791 1.11675
 H126 H 0.32938 0.11725 1.17097
 C127 C 0.85831 0.64218 1.17203
 C128 C 0.86768 0.66206 1.16102
 C129 C 0.85731 0.67188 1.14120
 C130 C 0.83722 0.66158 1.13214
 C131 C 0.82762 0.64192 1.14256
 C132 C 0.83813 0.63225 1.16220
 H133 H 0.88334 0.66997 1.16749
 H134 H 0.82906 0.66861 1.11674
 H135 H 0.82940 0.61781 1.17036
 C136 C 0.85698 0.14436 0.67320
 C137 C 0.86727 0.16352 0.66191
 C138 C 0.85841 0.17223 0.64095
 C139 C 0.83924 0.16124 0.63078
 C140 C 0.82770 0.14271 0.64181
 C141 C 0.83683 0.13466 0.66309
 H142 H 0.88251 0.17167 0.66902
 H143 H 0.83390 0.16691 0.61374
 H144 H 0.82708 0.12207 0.67286
 C145 C 1.36121 0.35989 0.67011
 C146 C 1.33963 0.36831 0.66244
 C147 C 1.32744 0.35695 0.64476
 C148 C 1.33650 0.33660 0.63507
 C149 C 1.35851 0.32826 0.64168
 C150 C 1.37093 0.34052 0.65883
 H151 H 1.33175 0.38323 0.67068
 H152 H 1.32690 0.32818 0.62128
 H153 H 1.38772 0.33422 0.66439
 C154 C 1.35733 0.85782 1.17217
 C155 C 1.33856 0.86844 1.16084
 C156 C 1.32770 0.85757 1.14210
 C157 C 1.33640 0.83652 1.13366
 C158 C 1.35573 0.82557 1.14408
 C159 C 1.36560 0.83641 1.16378
 H160 H 1.33192 0.88494 1.16686
 H161 H 1.32828 0.82950 1.11830
 H162 H 1.37893 0.82770 1.17364
 C163 C 0.85984 0.35950 1.17028
 C164 C 0.87059 0.34108 1.15833
 C165 C 0.85931 0.32969 1.13984
 C166 C 0.83775 0.33838 1.13227
 C167 C 0.82743 0.35743 1.14319
 C168 C 0.83814 0.36750 1.16249
 H169 H 0.88723 0.33480 1.16434
 H170 H 0.82910 0.33077 1.11742
 H171 H 0.82941 0.38155 1.17139
 C172 C 0.85733 0.85709 0.67218
 C173 C 0.86708 0.83718 0.66218
 C174 C 0.85702 0.82719 0.64242
 C175 C 0.83715 0.83726 0.63262
 C176 C 0.82731 0.85717 0.64253
 C177 C 0.83748 0.86706 0.66228
 H178 H 0.88226 0.82927 0.66998
 H179 H 0.82916 0.82941 0.61751
 H180 H 0.82973 0.88228 0.67015
 C181 C 0.64148 0.64209 0.67212
 C182 C 0.66258 0.63333 0.66344
 C183 C 0.67256 0.64261 0.64330
 C184 C 0.66195 0.66144 0.63222
 C185 C 0.64125 0.67074 0.64087
 C186 C 0.63078 0.66067 0.66037
 H187 H 0.67143 0.61933 0.67232
 H188 H 0.67000 0.66909 0.61704
 H189 H 0.61453 0.66775 0.66658
 C190 C 0.64490 1.14391 1.17341
 C191 C 0.63508 1.16359 1.16281
 C192 C 0.64343 1.17231 1.14142
 C193 C 0.66250 1.16078 1.13116
 C194 C 0.67308 1.14179 1.14204
 C195 C 0.66408 1.13327 1.16288
 H196 H 0.62170 1.17275 1.17217
 H197 H 0.66936 1.16615 1.11457
 H198 H 0.67198 1.11808 1.17062
 C199 C 0.14102 0.64244 1.17157
 C200 C 0.12989 0.66060 1.15932
 C201 C 0.13971 0.67090 1.13929
 C202 C 0.16053 0.66127 1.13070
 C203 C 0.17155 0.64291 1.14209
 C204 C 0.16214 0.63395 1.16256
 H205 H 0.11267 0.66570 1.16450
 H206 H 0.16929 0.66861 1.11585
 H207 H 0.17191 0.62068 1.17150
 C208 C 0.14121 1.14244 0.67033
 C209 C 0.12957 1.16020 0.65826
 C210 C 0.13918 1.17070 0.63825
 C211 C 0.16023 1.16145 0.62966
 C212 C 0.17171 1.14337 0.64117
 C213 C 0.16248 1.13435 0.66170
 H214 H 0.11252 1.16511 0.66422
 H215 H 0.16882 1.16890 0.61477
 H216 H 0.17195 1.12094 0.67083
 C217 C 1.35882 0.64205 0.32861
 C218 C 1.33814 0.63334 0.33804
 C219 C 1.32762 0.64426 0.35697
 C220 C 1.33752 0.66439 0.36636
 C221 C 1.35857 0.67348 0.35764
 C222 C 1.36920 0.66153 0.33903
 H223 H 1.32964 0.61851 0.33027
 H224 H 1.32813 0.67303 0.38009
 H225 H 1.38611 0.66672 0.33289
 C226 C 1.35745 1.14226 0.82805
 C227 C 1.36746 1.16206 0.83829
 C228 C 1.35757 1.17280 0.85805
 C229 C 1.33735 1.16261 0.86749
 C230 C 1.32736 1.14281 0.85761
 C231 C 1.33742 1.13270 0.83803
 H232 H 1.38259 1.16940 0.83010
 H233 H 1.32952 1.16922 0.88318
 H234 H 1.32903 1.11785 0.83015
 C235 C 0.85598 0.64236 0.82752
 C236 C 0.86464 0.66358 0.83571
 C237 C 0.85550 0.67390 0.85584
 C238 C 0.83680 0.66298 0.86711
 C239 C 0.82767 0.64205 0.85872
 C240 C 0.83770 0.63148 0.83928
 H241 H 0.87846 0.67203 0.82620
 H242 H 0.82935 0.67051 0.88261
 H243 H 0.83055 0.61541 0.83264
 C244 C 0.85857 1.14175 0.32868
 C245 C 0.86764 1.16262 0.33730
 C246 C 0.85705 1.17379 0.35609
 C247 C 0.83708 1.16419 0.36606
 C248 C 0.82821 1.14303 0.35796
 C249 C 0.83922 1.13168 0.33945
 H250 H 0.88269 1.17036 0.32912
 H251 H 0.82869 1.17295 0.38043
 H252 H 0.83205 1.11566 0.33272
 C253 C 0.64233 0.35741 0.32724
 C254 C 0.63294 0.33758 0.33826
 C255 C 0.64310 0.32763 0.35826
 C256 C 0.66321 0.33829 0.36729
 C257 C 0.67290 0.35809 0.35695
 C258 C 0.66231 0.36752 0.33716
 H259 H 0.61764 0.32973 0.33107
 H260 H 0.67135 0.33162 0.38276
 H261 H 0.67037 0.38239 0.32917
 C262 C 0.64064 0.85857 0.82959
 C263 C 0.66177 0.86737 0.83813
 C264 C 0.67193 0.85808 0.85819
 C265 C 0.66147 0.83922 0.86933
 C266 C 0.64074 0.82987 0.86079
 C267 C 0.63008 0.83992 0.84136
 H268 H 0.67053 0.88139 0.82922
 H269 H 0.66965 0.83160 0.88445
 H270 H 0.61382 0.83280 0.83523
 C271 C 0.13980 0.35935 0.82912
 C272 C 0.16094 0.36810 0.83804
 C273 C 0.17265 0.35700 0.85637
 C274 C 0.16320 0.33665 0.86580
 C275 C 0.14180 0.32800 0.85810
 C276 C 0.13013 0.33971 0.84018
 H277 H 0.16894 0.38318 0.83044
 H278 H 0.17281 0.32724 0.87889
 H279 H 0.11298 0.33378 0.83554
 C280 C 0.14379 0.85638 0.32756
 C281 C 0.16461 0.86552 0.33654
 C282 C 0.17444 0.85647 0.35679
 C283 C 0.16383 0.83782 0.36809
 C284 C 0.14329 0.82800 0.35937
 C285 C 0.13317 0.83775 0.33936
 H286 H 0.17300 0.88016 0.32825
 H287 H 0.17162 0.83118 0.38385
 H288 H 0.11793 0.82968 0.33196
 O289 O 0.97775 0.91713 0.88379
 O290 O 0.97776 0.89014 0.85669
 C291 C 0.96983 0.90900 0.86492
 C292 C 0.95071 0.92123 0.85286
 C293 C 0.94255 0.91325 0.83136
 H294 H 0.95145 0.89904 0.82291
 O295 O 1.02302 1.08453 0.88377
 O296 O 1.02314 1.11178 0.85692
 C297 C 1.03099 1.09282 0.86498
 C298 C 1.04993 1.08053 0.85272
 C299 C 1.05831 1.08877 0.83140
 H300 H 1.05052 1.10391 0.82342
 O301 O 0.88487 0.97850 0.91573
 O302 O 0.85763 0.97872 0.88887
 C303 C 0.86585 0.97077 0.90772
 C304 C 0.85363 0.95180 0.92001
 C305 C 0.83203 0.94381 0.91206
 H306 H 0.82360 0.95275 0.89786
 O307 O 1.11491 1.02327 0.91516
 O308 O 1.14219 1.02359 0.88837
 C309 C 1.13377 1.03139 0.90719
 C310 C 1.14578 1.05030 0.91980
 C311 C 1.16714 1.05891 0.91185
 H312 H 1.17473 1.05164 0.89630
 O313 O 0.91635 0.88490 0.97593
 O314 O 0.88922 0.85794 0.97557
 C315 C 0.90807 0.86621 0.96772
 C316 C 0.92023 0.85431 0.94849
 C317 C 0.91165 0.83336 0.93952
 H318 H 0.89634 0.82543 0.94702
 O319 O 1.08340 1.11499 0.97794
 O320 O 1.11056 1.14192 0.97826
 C321 C 1.09167 1.13390 0.97022
 C322 C 1.07956 1.14629 0.95121
 C323 C 1.08744 1.16804 0.94356
 H324 H 1.10156 1.17639 0.95268
 O325 O 0.91693 1.02328 0.88354
 O326 O 0.88985 1.02346 0.85652
 C327 C 0.90878 1.03126 0.86468
 C328 C 0.92104 1.05037 0.85262
 C329 C 0.91284 1.05895 0.83133
 H330 H 0.89798 1.05094 0.82306
 O331 O 1.08395 0.97771 0.88321
 O332 O 1.11111 0.97782 0.85629
 C333 C 1.09229 0.96976 0.86445
 C334 C 1.08015 0.95062 0.85236
 C335 C 1.08842 0.94205 0.83112
 H336 H 1.10384 0.94962 0.82355
 O337 O 1.02319 0.88554 0.91546
 O338 O 1.02328 0.85842 0.88850
 C339 C 1.03123 0.86672 0.90731
 C340 C 1.05051 0.85482 0.91946
 C341 C 1.05867 0.83327 0.91160
 H342 H 1.04971 0.82467 0.89752
 O343 O 0.97781 1.11615 0.91572
 O344 O 0.97792 1.14353 0.88901
 C345 C 0.96989 1.13511 0.90772
 C346 C 0.95080 1.14711 0.92006
 C347 C 0.94215 1.16840 0.91190
 H348 H 0.94963 1.17605 0.89648
 O349 O 0.88557 1.08428 0.97745
 O350 O 0.85841 1.11122 0.97771
 C351 C 0.86663 1.09243 0.96965
 C352 C 0.85448 1.08029 0.95053
 C353 C 0.83291 1.08828 0.94242
 H354 H 0.82462 1.10298 0.95070
 O355 O 1.11622 0.91824 0.97742
 O356 O 1.14367 0.89159 0.97738
 C357 C 1.13537 0.91053 0.96974
 C358 C 1.14764 0.92317 0.95105
 C359 C 1.16981 0.91611 0.94390
 H360 H 1.17862 0.90293 0.95391
 O361 O 0.97776 1.08450 0.88398
 O362 O 0.97779 1.11176 0.85713
 C363 C 0.96979 1.09287 0.86522
 C364 C 0.95064 1.08078 0.85310
 C365 C 0.94191 1.08935 0.83204
 H366 H 0.94967 1.10453 0.82412
 O367 O 1.02294 0.91691 0.88328
 O368 O 1.02297 0.88990 0.85620
 C369 C 1.03081 0.90880 0.86436
 C370 C 1.04979 0.92109 0.85217
 C371 C 1.05789 0.91315 0.83063
 H372 H 1.04902 0.89891 0.82220
 O373 O 1.11557 0.97807 0.91501
 O374 O 1.14289 0.97825 0.88826
 C375 C 1.13460 0.97030 0.90707
 C376 C 1.14695 0.95167 0.91977
 C377 C 1.16856 0.94343 0.91202
 H378 H 1.17579 0.95061 0.89629
 O379 O 0.88551 1.02372 0.91563
 O380 O 0.85830 1.02398 0.88873
 C381 C 0.86668 1.03184 0.90755
 C382 C 0.85471 1.05089 0.91994
 C383 C 0.83332 1.05935 0.91192
 H384 H 0.82514 1.05145 0.89696
 O385 O 0.91739 1.11603 0.97739
 O386 O 0.89033 1.14308 0.97754
 C387 C 0.90919 1.13493 0.96956
 C388 C 0.92136 1.14714 0.95050
 C389 C 0.91335 1.16872 0.94251
 H390 H 0.89915 1.17710 0.95147
 O391 O 1.08479 0.88608 0.97615
 O392 O 1.11215 0.85933 0.97592
 C393 C 1.09327 0.86747 0.96794
 C394 C 1.08116 0.85539 0.94874
 C395 C 1.08944 0.83410 0.94024
 H396 H 1.10491 0.82658 0.94778
 O397 O 1.08355 1.02293 0.88301
 O398 O 1.11066 1.02316 0.85604
 C399 C 1.09170 1.03092 0.86417
 C400 C 1.07935 1.04995 0.85210
 C401 C 1.08715 1.05815 0.83052
 H402 H 1.10176 1.04990 0.82203
 O403 O 0.91651 0.97797 0.88389
 O404 O 0.88940 0.97807 0.85690
 C405 C 0.90819 0.96996 0.86512
 C406 C 0.92030 0.95075 0.85309
 C407 C 0.91197 0.94210 0.83188
 H408 H 0.89651 0.94963 0.82432
 O409 O 1.02311 1.11572 0.91603
 O410 O 1.02331 1.14311 0.88933
 C411 C 1.03118 1.13462 0.90810
 C412 C 1.05022 1.14650 0.92063
 C413 C 1.05871 1.16798 0.91287
 H414 H 1.05117 1.17582 0.89756
 O415 O 0.97789 0.88494 0.91517
 O416 O 0.97796 0.85785 0.88818
 C417 C 0.97000 0.86605 0.90701
 C418 C 0.95083 0.85397 0.91911
 C419 C 0.94231 0.83272 0.91076
 H420 H 0.95042 0.82445 0.89596
 O421 O 1.11503 1.08301 0.97789
 O422 O 1.14228 1.10985 0.97825
 C423 C 1.13399 1.09112 0.97011
 C424 C 1.14610 1.07912 0.95087
 C425 C 1.16776 1.08705 0.94304
 H426 H 1.17629 1.10099 0.95227
 O427 O 0.88474 0.91676 0.97641
 O428 O 0.85751 0.88989 0.97611
 C429 C 0.86584 0.90877 0.96836
 C430 C 0.85378 0.92127 0.94941
 C431 C 0.83247 0.91316 0.94081
 H432 H 0.82486 0.89770 0.94828
 Cu433 Cu 1.00044 0.90382 0.90215
 Cu434 Cu 1.00049 0.87134 0.86970
 Cu435 Cu 1.00042 1.09750 0.90256
 Cu436 Cu 1.00057 1.13029 0.87041
 Cu437 Cu 0.90369 1.00085 0.90236
 Cu438 Cu 0.87108 1.00108 0.87004
 Cu439 Cu 1.09676 1.00047 0.90177
 Cu440 Cu 1.12945 1.00075 0.86953
 C441 C 0.93970 0.94020 0.86339
 H442 H 0.94587 0.94638 0.88003
 C443 C 0.92301 0.92336 0.82077
 C444 C 1.06049 1.06103 0.86286
 H445 H 1.05449 1.05492 0.87958
 C446 C 1.07678 1.07759 0.82019
 C447 C 0.86417 0.94065 0.93894
 H448 H 0.88089 0.94664 0.94507
 C449 C 0.82133 0.92434 0.92218
 C450 C 1.13543 1.06050 0.93935
 H451 H 1.11868 1.05435 0.94525
 C452 C 1.17840 1.07724 0.92338
 C453 C 0.93989 0.86444 0.93822
 H454 H 0.94626 0.88089 0.94467
 C455 C 0.92267 0.82248 0.92079
 C456 C 1.06072 1.13585 0.93986
 H457 H 1.05463 1.11903 0.94561
 C458 C 1.07726 1.17903 0.92427
 C459 C 0.94017 1.06120 0.86317
 H460 H 0.94646 1.05481 0.87969
 C461 C 0.92310 1.07849 0.82105
 C462 C 1.06080 0.94006 0.86270
 H463 H 1.05469 0.94619 0.87936
 C464 C 1.07737 0.92333 0.81999
 C465 C 1.06166 0.86557 0.93825
 H466 H 1.05550 0.88223 0.94435
 C467 C 1.07827 0.82278 0.92171
 C468 C 0.94032 1.13668 0.93940
 H469 H 0.94651 1.11999 0.94542
 C470 C 0.92343 1.17946 0.92304
 C471 C 0.86508 1.06139 0.93934
 H472 H 0.88180 1.05526 0.94534
 C473 C 0.82231 1.07797 0.92308
 C474 C 1.13660 0.94133 0.93923
 H475 H 1.11955 0.94694 0.94476
 C476 C 1.18038 0.92568 0.92404
 O477 O 1.02285 0.91404 1.11472
 O478 O 1.02280 0.88662 1.14139
 C479 C 1.03075 0.90560 1.13349
 C480 C 1.04958 0.91788 1.14598
 C481 C 1.05835 0.90928 1.16705
 H482 H 1.05140 0.89323 1.17381
 O483 O 0.97748 1.08291 1.11634
 O484 O 0.97726 1.10983 1.14350
 C485 C 0.96953 1.09090 1.13524
 C486 C 0.95064 1.07837 1.14731
 C487 C 0.94271 1.08591 1.16903
 H488 H 0.95165 1.10000 1.17762
 O489 O 0.88560 1.02195 1.08306
 O490 O 0.85834 1.02174 1.10987
 C491 C 0.86665 1.02977 1.09109
 C492 C 0.85456 1.04889 1.07887
 C493 C 0.83279 1.05664 1.08653
 H494 H 0.82421 1.04742 1.10045
 O495 O 1.11426 0.97690 1.08551
 O496 O 1.14138 0.97670 1.11249
 C497 C 1.13317 0.96893 1.09358
 C498 C 1.14545 0.95016 1.08100
 C499 C 1.16695 0.94183 1.08895
 H500 H 1.17452 0.94922 1.10445
 O501 O 1.08421 0.88486 1.02139
 O502 O 1.11147 0.85802 1.02114
 C503 C 1.09238 0.86582 1.02892
 C504 C 1.07987 0.85301 1.04736
 C505 C 1.08728 0.83089 1.05443
 H506 H 1.10143 0.82259 1.04530
 O507 O 0.91775 1.11591 1.02255
 O508 O 0.89077 1.14304 1.02267
 C509 C 0.90972 1.13485 1.03042
 C510 C 0.92208 1.14703 1.04936
 C511 C 0.91488 1.16914 1.05655
 H512 H 0.90167 1.17793 1.04657
 O513 O 0.91729 0.97651 1.11474
 O514 O 0.89021 0.97629 1.14172
 C515 C 0.90910 0.96840 1.13350
 C516 C 0.92122 0.94907 1.14540
 C517 C 0.91323 0.94082 1.16687
 H518 H 0.89912 0.94978 1.17542
 O519 O 1.08255 1.02184 1.11771
 O520 O 1.10948 1.02162 1.14489
 C521 C 1.09063 1.02956 1.13671
 C522 C 1.07827 1.04844 1.14893
 C523 C 1.08567 1.05609 1.17086
 H524 H 1.10008 1.04759 1.17943
 O525 O 0.97790 0.88278 1.08206
 O526 O 0.97774 0.85524 1.10861
 C527 C 0.96996 0.86374 1.08982
 C528 C 0.95097 0.85185 1.07726
 C529 C 0.94268 0.83023 1.08486
 H530 H 0.95080 0.82156 1.09943
 O531 O 1.02261 1.11489 1.08485
 O532 O 1.02260 1.14200 1.11181
 C533 C 1.03056 1.13373 1.09299
 C534 C 1.04957 1.14581 1.08060
 C535 C 1.05798 1.16728 1.08851
 H536 H 1.05040 1.17501 1.10384
 O537 O 0.88487 0.91607 1.02175
 O538 O 0.85769 0.88916 1.02148
 C539 C 0.86606 0.90781 1.02971
 C540 C 0.85414 0.91974 1.04910
 C541 C 0.83311 0.91114 1.05788
 H542 H 0.82560 0.89572 1.05025
 O543 O 1.11466 1.08263 1.02326
 O544 O 1.14190 1.10948 1.02356
 C545 C 1.13352 1.09064 1.03137
 C546 C 1.14542 1.07835 1.05059
 C547 C 1.16703 1.08612 1.05868
 H548 H 1.17567 1.10014 1.04967
 O549 O 1.02255 1.08356 1.11701
 O550 O 1.02243 1.11052 1.14414
 C551 C 1.03032 1.09164 1.13597
 C552 C 1.04901 1.07911 1.14835
 C553 C 1.05687 1.08677 1.17008
 H554 H 1.04883 1.10167 1.17825
 O555 O 0.97756 0.91437 1.11400
 O556 O 0.97734 0.88701 1.14072
 C557 C 0.96946 0.90599 1.13268
 C558 C 0.95040 0.91827 1.14484
 C559 C 0.94174 0.90992 1.16604
 H560 H 0.94914 0.89435 1.17349
 O561 O 1.11377 1.02220 1.08544
 O562 O 1.14085 1.02209 1.11245
 C563 C 1.13261 1.03013 1.09363
 C564 C 1.14480 1.04913 1.08131
 C565 C 1.16613 1.05759 1.08954
 H566 H 1.17359 1.05011 1.10506
 O567 O 0.88506 0.97671 1.08335
 O568 O 0.85789 0.97650 1.11025
 C569 C 0.86614 0.96873 1.09137
 C570 C 0.85405 0.94971 1.07902
 C571 C 0.83270 0.94125 1.08717
 H572 H 0.82438 0.94981 1.10165
 O573 O 1.08313 1.11477 1.02317
 O574 O 1.11030 1.14170 1.02343
 C575 C 1.09131 1.13361 1.03116
 C576 C 1.07900 1.14586 1.05011
 C577 C 1.08675 1.16759 1.05788
 H578 H 1.10085 1.17604 1.04882
 O579 O 0.91646 0.88421 1.02118
 O580 O 0.88937 0.85721 1.02085
 C581 C 0.90825 0.86526 1.02887
 C582 C 0.92051 0.85281 1.04771
 C583 C 0.91214 0.83146 1.05594
 H584 H 0.89694 0.82362 1.04815
 O585 O 1.08201 0.97669 1.11676
 O586 O 1.10897 0.97642 1.14390
 C587 C 1.09010 0.96860 1.13557
 C588 C 1.07796 0.94925 1.14733
 C589 C 1.08562 0.94118 1.16897
 H590 H 1.09899 0.95084 1.17787
 O591 O 0.91652 1.02188 1.11567
 O592 O 0.88938 1.02166 1.14261
 C593 C 0.90822 1.02971 1.13454
 C594 C 0.92041 1.04870 1.14686
 C595 C 0.91228 1.05691 1.16834
 H596 H 0.89696 1.04917 1.17593
 O597 O 0.97733 1.11526 1.08517
 O598 O 0.97716 1.14237 1.11214
 C599 C 0.96932 1.13413 1.09327
 C600 C 0.95056 1.14639 1.08065
 C601 C 0.94226 1.16799 1.08840
 H602 H 0.94946 1.17529 1.10409
 O603 O 1.02310 0.88320 1.08219
 O604 O 1.02304 0.85560 1.10868
 C605 C 1.03104 0.86420 1.09002
 C606 C 1.05006 0.85234 1.07746
 C607 C 1.05801 0.83045 1.08462
 H608 H 1.05005 0.82221 1.09950
 O609 O 1.11536 0.91733 1.02262
 O610 O 1.14273 0.89060 1.02251
 C611 C 1.13423 0.90925 1.03063
 C612 C 1.14606 0.92129 1.05000
 C613 C 1.16782 0.91364 1.05780
 H614 H 1.17652 0.89983 1.04853
 O615 O 0.88588 1.08415 1.02278
 O616 O 0.85878 1.11115 1.02306
 C617 C 0.86705 1.09226 1.03087
 C618 C 0.85491 1.07973 1.04977
 C619 C 0.83341 1.08762 1.05813
 H620 H 0.82574 1.10305 1.05065
 Cu621 Cu 1.00037 0.90135 1.09560
 Cu622 Cu 1.00020 0.86837 1.12754
 Cu623 Cu 1.00000 1.09649 1.09811
 Cu624 Cu 0.99983 1.12892 1.13060
 Cu625 Cu 0.90331 0.90319 0.99885
 Cu626 Cu 0.87070 0.87086 0.99847
 Cu627 Cu 1.09739 0.90429 0.99942
 Cu628 Cu 1.13026 0.87221 0.99923
 Cu629 Cu 0.90433 1.09736 1.00003
 Cu630 Cu 0.87184 1.12982 1.00029
 Cu631 Cu 1.09635 1.09614 1.00053
 Cu632 Cu 1.12901 1.12840 1.00092
 Cu633 Cu 0.90385 0.99929 1.09654
 Cu634 Cu 0.87124 0.99902 1.12882
 Cu635 Cu 1.09545 0.99944 1.09865
 Cu636 Cu 1.12790 0.99918 1.13113
 C637 C 1.05960 0.93781 1.13623
 H638 H 1.05353 0.94405 1.11958
 C639 C 1.07634 0.92086 1.17894
 C640 C 0.93962 1.05953 1.13655
 H641 H 0.94561 1.05370 1.11973
 C642 C 0.92334 1.07552 1.17965
 C643 C 0.86531 1.06033 1.06024
 H644 H 0.88215 1.05449 1.05430
 C645 C 0.82210 1.07616 1.07649
 C646 C 1.13518 0.93979 1.06149
 H647 H 1.11835 0.94572 1.05559
 C648 C 1.17837 0.92357 1.07744
 C649 C 1.06104 0.86340 1.05875
 H650 H 1.05533 0.88051 1.05347
 C651 C 1.07654 0.81943 1.07314
 C652 C 0.94026 1.13604 1.06118
 H653 H 0.94597 1.11904 1.05560
 C654 C 0.92447 1.17976 1.07638
 C655 C 0.94004 0.93789 1.13471
 H656 H 0.94622 0.94410 1.11809
 C657 C 0.92318 0.92110 1.17730
 C658 C 1.05972 1.05986 1.13801
 H659 H 1.05406 1.05416 1.12102
 C660 C 1.07510 1.07529 1.18146
 C661 C 0.94000 0.86281 1.05842
 H662 H 0.94620 0.87955 1.05256
 C663 C 0.92324 0.82010 1.07435
 C664 C 1.06017 1.13529 1.06135
 H665 H 1.05418 1.11848 1.05550
 C666 C 1.07656 1.17842 1.07724
 C667 C 0.86444 0.93906 1.05976
 H668 H 0.88095 0.94543 1.05345
 C669 C 0.82212 0.92180 1.07689
 C670 C 1.13461 1.05962 1.06179
 H671 H 1.11789 1.05360 1.05569
 C672 C 1.17750 1.07605 1.07832
 O673 O 0.97789 0.41730 0.38354
 O674 O 0.97793 0.39035 0.35640
 C675 C 0.97002 0.40920 0.36462
 C676 C 0.95111 0.42157 0.35241
 C677 C 0.94288 0.41357 0.33094
 H678 H 0.95078 0.39856 0.32283
 O679 O 1.02285 0.58560 0.38489
 O680 O 1.02289 0.61305 0.35824
 C681 C 1.03083 0.59408 0.36619
 C682 C 1.04986 0.58194 0.35388
 C683 C 1.05808 0.59017 0.33248
 H684 H 1.05004 0.60517 0.32449
 O685 O 0.88552 0.47821 0.41502
 O686 O 0.85843 0.47839 0.38801
 C687 C 0.86667 0.47029 0.40679
 C688 C 0.85453 0.45116 0.41895
 C689 C 0.83325 0.44270 0.41060
 H690 H 0.82529 0.45044 0.39543
 O691 O 1.11542 0.52424 0.41556
 O692 O 1.14252 0.52450 0.38859
 C693 C 1.13425 0.53232 0.40746
 C694 C 1.14634 0.55127 0.41993
 C695 C 1.16745 0.56016 0.41163
 H696 H 1.17488 0.55300 0.39596
 O697 O 0.91638 0.38546 0.47676
 O698 O 0.88949 0.35826 0.47638
 C699 C 0.90838 0.36659 0.46866
 C700 C 0.92073 0.35462 0.44957
 C701 C 0.91268 0.33321 0.44120
 H702 H 0.89836 0.32476 0.44991
 O703 O 1.08401 0.61529 0.47812
 O704 O 1.11090 0.64250 0.47851
 C705 C 1.09212 0.63428 0.47041
 C706 C 1.07983 0.64669 0.45156
 C707 C 1.08802 0.66815 0.44346
 H708 H 1.10319 0.67604 0.45128
 O709 O 0.91719 0.52377 0.38358
 O710 O 0.89024 0.52398 0.35641
 C711 C 0.90910 0.53181 0.36472
 C712 C 0.92143 0.55091 0.35278
 C713 C 0.91375 0.55908 0.33114
 H714 H 0.89918 0.55083 0.32260
 O715 O 1.08385 0.47897 0.38364
 O716 O 1.11086 0.47907 0.35657
 C717 C 1.09202 0.47109 0.36476
 C718 C 1.07981 0.45197 0.35268
 C719 C 1.08786 0.44364 0.33123
 H720 H 1.10266 0.45175 0.32295
 O721 O 1.02304 0.38543 0.41538
 O722 O 1.02307 0.35838 0.38836
 C723 C 1.03104 0.36661 0.40718
 C724 C 1.05020 0.35456 0.41934
 C725 C 1.05883 0.33337 0.41096
 H726 H 1.05102 0.32532 0.39589
 O727 O 0.97722 0.61652 0.41688
 O728 O 0.97716 0.64410 0.39037
 C729 C 0.96920 0.63549 0.40903
 C730 C 0.95014 0.64734 0.42153
 C731 C 0.94176 0.66891 0.41387
 H732 H 0.94937 0.67682 0.39864
 O733 O 0.88487 0.58340 0.47795
 O734 O 0.85775 0.61038 0.47815
 C735 C 0.86602 0.59162 0.47002
 C736 C 0.85406 0.57967 0.45062
 C737 C 0.83261 0.58779 0.44236
 H738 H 0.82409 0.60193 0.45130
 O739 O 1.11553 0.41741 0.47677
 O740 O 1.14268 0.39047 0.47645
 C741 C 1.13435 0.40935 0.46866
 C742 C 1.14633 0.42174 0.44958
 C743 C 1.16762 0.41356 0.44106
 H744 H 1.17577 0.39857 0.44897
 O745 O 0.97761 0.58532 0.38469
 O746 O 0.97755 0.61275 0.35802
 C747 C 0.96970 0.59372 0.36593
 C748 C 0.95085 0.58146 0.35354
 C749 C 0.94264 0.58965 0.33212
 H750 H 0.95055 0.60472 0.32415
 O751 O 1.02313 0.41744 0.38392
 O752 O 1.02320 0.39048 0.35680
 C753 C 1.03113 0.40930 0.36508
 C754 C 1.05021 0.42157 0.35303
 C755 C 1.05874 0.41330 0.33179
 H756 H 1.05085 0.39826 0.32373
 O757 O 1.11543 0.47899 0.41565
 O758 O 1.14260 0.47914 0.38874
 C759 C 1.13437 0.47115 0.40757
 C760 C 1.14651 0.45209 0.41988
 C761 C 1.16800 0.44384 0.41186
 H762 H 1.17624 0.45193 0.39704
 O763 O 0.88555 0.52357 0.41542
 O764 O 0.85847 0.52385 0.38841
 C765 C 0.86671 0.53165 0.40731
 C766 C 0.85459 0.55061 0.41975
 C767 C 0.83342 0.55935 0.41143
 H768 H 0.82600 0.55205 0.39581
 O769 O 0.91645 0.61549 0.47835
 O770 O 0.88942 0.64256 0.47861
 C771 C 0.90834 0.63451 0.47070
 C772 C 0.92067 0.64700 0.45193
 C773 C 0.91296 0.66888 0.44446
 H774 H 0.89886 0.67722 0.45361
 O775 O 1.08416 0.38522 0.47664
 O776 O 1.11123 0.35818 0.47633
 C777 C 1.09230 0.36639 0.46859
 C778 C 1.07996 0.35431 0.44958
 C779 C 1.08800 0.33287 0.44126
 H780 H 1.10282 0.32457 0.44933
 O781 O 1.08359 0.52423 0.38390
 O782 O 1.11054 0.52442 0.35677
 C783 C 1.09169 0.53228 0.36506
 C784 C 1.07938 0.55145 0.35314
 C785 C 1.08712 0.55973 0.33158
 H786 H 1.10176 0.55154 0.32311
 O787 O 0.91722 0.47862 0.38320
 O788 O 0.89028 0.47879 0.35604
 C789 C 0.90916 0.47088 0.36421
 C790 C 0.92156 0.45200 0.35199
 C791 C 0.91389 0.44406 0.33026
 H792 H 0.89930 0.45234 0.32179
 O793 O 1.02244 0.61672 0.41727
 O794 O 1.02246 0.64433 0.39079
 C795 C 1.03030 0.63579 0.40954
 C796 C 1.04927 0.64769 0.42212
 C797 C 1.05740 0.66942 0.41466
 H798 H 1.04917 0.67814 0.40017
 O799 O 0.97766 0.38573 0.41546
 O800 O 0.97765 0.35870 0.38842
 C801 C 0.96963 0.36696 0.40721
 C802 C 0.95039 0.35494 0.41931
 C803 C 0.94167 0.33384 0.41080
 H804 H 0.94920 0.32638 0.39532
 O805 O 1.11584 0.58356 0.47814
 O806 O 1.14280 0.61069 0.47855
 C807 C 1.13469 0.59191 0.47035
 C808 C 1.14677 0.58010 0.45098
 C809 C 1.16817 0.58838 0.44278
 H810 H 1.17662 0.60248 0.45184
 O811 O 0.88464 0.41735 0.47673
 O812 O 0.85763 0.39028 0.47631
 C813 C 0.86585 0.40923 0.46858
 C814 C 0.85390 0.42159 0.44945
 C815 C 0.83236 0.41376 0.44114
 H816 H 0.82382 0.39915 0.44931
 Cu817 Cu 1.00042 0.40416 0.40231
 Cu818 Cu 1.00046 0.37174 0.36980
 Cu819 Cu 1.00004 0.59829 0.40359
 Cu820 Cu 1.00003 0.63133 0.37168
 Cu821 Cu 0.90405 0.50101 0.40202
 Cu822 Cu 0.87160 0.50127 0.36954
 Cu823 Cu 1.09686 0.50158 0.40237
 Cu824 Cu 1.12935 0.50178 0.36996
 C825 C 0.94041 0.44087 0.36273
 H826 H 0.94632 0.44680 0.37954
 C827 C 0.92441 0.42480 0.31976
 C828 C 1.06054 0.56249 0.36399
 H829 H 1.05460 0.55632 0.38071
 C830 C 1.07661 0.57911 0.32120
 C831 C 0.86466 0.44053 0.43845
 H832 H 0.88133 0.44659 0.44466
 C833 C 0.82210 0.42418 0.42171
 C834 C 1.13620 0.56132 0.43965
 H835 H 1.11964 0.55493 0.44581
 C836 C 1.17865 0.57867 0.42297
 C837 C 0.93983 0.36516 0.43874
 H838 H 0.94606 0.38173 0.44504
 C839 C 0.92283 0.32272 0.42164
 C840 C 1.06037 0.63665 0.44084
 H841 H 1.05429 0.61983 0.44661
 C842 C 1.07680 0.67959 0.42518
 C843 C 0.94021 0.56200 0.36365
 H844 H 0.94611 0.55590 0.38042
 C845 C 0.92421 0.57847 0.32080
 C846 C 1.06078 0.44100 0.36326
 H847 H 1.05460 0.44718 0.37989
 C848 C 1.07748 0.42425 0.32079
 C849 C 1.06083 0.36484 0.43872
 H850 H 1.05464 0.38145 0.44494
 C851 C 1.07761 0.32242 0.42191
 C852 C 0.93951 0.63657 0.44060
 H853 H 0.94549 0.61967 0.44624
 C854 C 0.92320 0.67996 0.42526
 C855 C 0.86472 0.56085 0.43941
 H856 H 0.88132 0.55457 0.44559
 C857 C 0.82215 0.57788 0.42264
 C858 C 1.13597 0.44110 0.43895
 H859 H 1.11930 0.44721 0.44510
 C860 C 1.17855 0.42451 0.42228
 O861 O 1.02315 0.41571 0.61524
 O862 O 1.02319 0.38837 0.64200
 C863 C 1.03103 0.40739 0.63406
 C864 C 1.04977 0.41977 0.64652
 C865 C 1.05754 0.41197 0.66825
 H866 H 1.04937 0.39710 0.67634
 O867 O 0.97749 0.58198 0.61683
 O868 O 0.97738 0.60888 0.64401
 C869 C 0.96955 0.59000 0.63573
 C870 C 0.95045 0.57768 0.64772
 C871 C 0.94223 0.58556 0.66923
 H872 H 0.95108 0.59973 0.67778
 O873 O 0.88440 0.52152 0.58386
 O874 O 0.85728 0.52133 0.61082
 C875 C 0.86550 0.52936 0.59200
 C876 C 0.85344 0.54855 0.57988
 C877 C 0.83203 0.55683 0.58801
 H878 H 0.82361 0.54796 0.60226
 O879 O 1.11551 0.47655 0.58447
 O880 O 1.14259 0.47623 0.61148
 C881 C 1.13426 0.46837 0.59265
 C882 C 1.14625 0.44925 0.58036
 C883 C 1.16727 0.44035 0.58888
 H884 H 1.17459 0.44760 0.60457
 O885 O 1.08402 0.38502 0.52178
 O886 O 1.11102 0.35791 0.52144
 C887 C 1.09211 0.36599 0.52939
 C888 C 1.07968 0.35348 0.54808
 C889 C 1.08688 0.33129 0.55511
 H890 H 1.10082 0.32280 0.54585
 O891 O 0.91671 0.61471 0.52351
 O892 O 0.88971 0.64181 0.52373
 C893 C 0.90859 0.63354 0.53156
 C894 C 0.92081 0.64551 0.55073
 C895 C 0.91292 0.66709 0.55878
 H896 H 0.89886 0.67563 0.54975
 O897 O 0.91627 0.47618 0.61539
 O898 O 0.88931 0.47594 0.64252
 C899 C 0.90815 0.46807 0.63419
 C900 C 0.92047 0.44893 0.64612
 C901 C 0.91231 0.44029 0.66737
 H902 H 0.89721 0.44797 0.67551
 O903 O 1.08447 0.52232 0.61622
 O904 O 1.11155 0.52214 0.64323
 C905 C 1.09278 0.53025 0.63502
 C906 C 1.08069 0.54941 0.64714
 C907 C 1.08937 0.55829 0.66810
 H908 H 1.10505 0.55095 0.67538
 O909 O 0.97805 0.38435 0.58287
 O910 O 0.97800 0.35685 0.60947
 C911 C 0.97013 0.36533 0.59070
 C912 C 0.95111 0.35339 0.57819
 C913 C 0.94309 0.33162 0.58568
 H914 H 0.95139 0.32297 0.60016
 O915 O 1.02252 0.61407 0.58512
 O916 O 1.02249 0.64111 0.61214
 C917 C 1.03045 0.63292 0.59329
 C918 C 1.04943 0.64512 0.58095
 C919 C 1.05791 0.66645 0.58918
 H920 H 1.05039 0.67398 0.60464
 O921 O 0.88392 0.41658 0.52201
 O922 O 0.85697 0.38944 0.52162
 C923 C 0.86506 0.40822 0.52979
 C924 C 0.85296 0.42004 0.54911
 C925 C 0.83182 0.41146 0.55770
 H926 H 0.82368 0.39662 0.54954
 O927 O 1.11563 0.58337 0.52351
 O928 O 1.14250 0.61058 0.52391
 C929 C 1.13435 0.59165 0.53169
 C930 C 1.14642 0.57943 0.55083
 C931 C 1.16739 0.58807 0.55973
 H932 H 1.17526 0.60333 0.55209
 O933 O 1.02272 0.58251 0.61704
 O934 O 1.02266 0.60944 0.64419
 C935 C 1.03068 0.59067 0.63589
 C936 C 1.05004 0.57865 0.64777
 C937 C 1.05859 0.58690 0.66904
 H938 H 1.04981 0.60116 0.67752
 O939 O 0.97795 0.41555 0.61524
 O940 O 0.97790 0.38822 0.64201
 C941 C 0.97002 0.40720 0.63402
 C942 C 0.95097 0.41937 0.64625
 C943 C 0.94285 0.41134 0.66778
 H944 H 0.95110 0.39664 0.67613
 O945 O 1.11600 0.52185 0.58432
 O946 O 1.14320 0.52162 0.61122
 C947 C 1.13494 0.52966 0.59242
 C948 C 1.14695 0.54886 0.58027
 C949 C 1.16814 0.55752 0.58864
 H950 H 1.17635 0.54951 0.60353
 O951 O 0.88417 0.47629 0.58405
 O952 O 0.85712 0.47603 0.61108
 C953 C 0.86536 0.46822 0.59221
 C954 C 0.85333 0.44917 0.57991
 C955 C 0.83242 0.44009 0.58849
 H956 H 0.82454 0.44755 0.60383
 O957 O 1.08335 0.61469 0.52335
 O958 O 1.11015 0.64198 0.52369
 C959 C 1.09127 0.63361 0.53140
 C960 C 1.07884 0.64558 0.55044
 C961 C 1.08661 0.66719 0.55850
 H962 H 1.10070 0.67577 0.54955
 O963 O 0.91626 0.38541 0.52203
 O964 O 0.88941 0.35818 0.52168
 C965 C 0.90818 0.36644 0.52979
 C966 C 0.92053 0.35415 0.54872
 C967 C 0.91246 0.33265 0.55686
 H968 H 0.89737 0.32465 0.54900
 O969 O 1.08382 0.47709 0.61629
 O970 O 1.11076 0.47686 0.64345
 C971 C 1.09182 0.46915 0.63522
 C972 C 1.07927 0.45026 0.64730
 C973 C 1.08655 0.44244 0.66921
 H974 H 1.10100 0.45080 0.67784
 O975 O 0.91583 0.52149 0.61599
 O976 O 0.88883 0.52131 0.64306
 C977 C 0.90765 0.52933 0.63488
 C978 C 0.91993 0.54830 0.64714
 C979 C 0.91158 0.55681 0.66840
 H980 H 0.89607 0.54930 0.67584
 O981 O 0.97719 0.61415 0.58546
 O982 O 0.97709 0.64117 0.61251
 C983 C 0.96915 0.63296 0.59366
 C984 C 0.95009 0.64509 0.58136
 C985 C 0.94151 0.66639 0.58959
 H986 H 0.94897 0.67392 0.60508
 O987 O 1.02331 0.38426 0.58319
 O988 O 1.02333 0.35676 0.60977
 C989 C 1.03125 0.36526 0.59105
 C990 C 1.05011 0.35322 0.57841
 C991 C 1.05786 0.33123 0.58554
 H992 H 1.04991 0.32307 0.60045
 O993 O 1.11603 0.41659 0.52217
 O994 O 1.14315 0.38963 0.52188
 C995 C 1.13488 0.40833 0.53007
 C996 C 1.14681 0.42019 0.54954
 C997 C 1.16814 0.41189 0.55798
 H998 H 1.17662 0.39767 0.54914
 O999 O 0.88464 0.58329 0.52336
 O1000 O 0.85755 0.61029 0.52357
 C1001 C 0.86582 0.59143 0.53143
 C1002 C 0.85375 0.57912 0.55051
 C1003 C 0.83262 0.58752 0.55930
 H1004 H 0.82514 0.60308 0.55190
 Cu1005 Cu 1.00062 0.40270 0.59647
 Cu1006 Cu 1.00060 0.36979 0.62849
 Cu1007 Cu 0.99998 0.59549 0.59839
 Cu1008 Cu 0.99988 0.62786 0.63093
 Cu1009 Cu 0.90297 0.40393 0.49942
 Cu1010 Cu 0.87068 0.37131 0.49893
 Cu1011 Cu 1.09726 0.40380 0.49938
 Cu1012 Cu 1.12979 0.37139 0.49900
 Cu1013 Cu 0.90333 0.59648 0.50074
 Cu1014 Cu 0.87086 0.62894 0.50102
 Cu1015 Cu 1.09705 0.59647 0.50074
 Cu1016 Cu 1.12930 0.62915 0.50122
 Cu1017 Cu 0.90288 0.49890 0.59712
 Cu1018 Cu 0.87042 0.49865 0.62960
 Cu1019 Cu 1.09724 0.49947 0.59762
 Cu1020 Cu 1.12977 0.49916 0.63004
 C1021 C 1.06065 0.43902 0.63628
 H1022 H 1.05507 0.44484 0.61930
 C1023 C 1.07582 0.42327 0.67971
 C1024 C 0.93941 0.55881 0.63700
 H1025 H 0.94558 0.55274 0.62033
 C1026 C 0.92263 0.57543 0.67967
 C1027 C 0.86397 0.55959 0.56089
 H1028 H 0.88055 0.55337 0.55460
 C1029 C 0.82151 0.57647 0.57802
 C1030 C 1.13620 0.43909 0.56065
 H1031 H 1.11972 0.44552 0.55431
 C1032 C 1.17851 0.42175 0.57778
 C1033 C 1.06108 0.36413 0.55961
 H1034 H 1.05552 0.38129 0.55433
 C1035 C 1.07617 0.32000 0.57392
 C1036 C 0.93964 0.63484 0.56190
 H1037 H 0.94575 0.61814 0.55581
 C1038 C 0.92293 0.67762 0.57839
 C1039 C 0.93988 0.43841 0.63575
 H1040 H 0.94593 0.44462 0.61909
 C1041 C 0.92350 0.42167 0.67829
 C1042 C 1.06099 0.55968 0.63716
 H1043 H 1.05455 0.55331 0.62071
 C1044 C 1.07842 0.57700 0.67931
 C1045 C 0.93993 0.36433 0.55945
 H1046 H 0.94593 0.38117 0.55365
 C1047 C 0.92374 0.32130 0.57518
 C1048 C 1.06000 0.63486 0.56154
 H1049 H 1.05400 0.61812 0.55547
 C1050 C 1.07650 0.67771 0.57806
 C1051 C 0.86338 0.43911 0.56014
 H1052 H 0.87977 0.44569 0.55374
 C1053 C 0.82157 0.42131 0.57745
 C1054 C 1.13641 0.55974 0.56114
 H1055 H 1.11996 0.55331 0.55472
 C1056 C 1.17834 0.57719 0.57856
 O1057 O 0.58321 1.02279 0.61647
 O1058 O 0.61013 1.02270 0.64365
 C1059 C 0.59126 1.03062 0.63542
 C1060 C 0.57864 1.04934 0.64774
 C1061 C 0.58619 1.05724 0.66952
 H1062 H 0.60149 1.04957 0.67725
 O1063 O 0.41548 0.97633 0.61469
 O1064 O 0.38817 0.97583 0.64145
 C1065 C 0.40719 0.96814 0.63338
 C1066 C 0.41965 0.94926 0.64560
 C1067 C 0.41165 0.94096 0.66707
 H1068 H 0.39621 0.94847 0.67465
 O1069 O 0.52158 1.11471 0.58522
 O1070 O 0.52132 1.14166 0.61235
 C1071 C 0.52942 1.13355 0.59353
 C1072 C 0.54843 1.14588 0.58137
 C1073 C 0.55657 1.16731 0.58960
 H1074 H 0.54864 1.17526 0.60467
 O1075 O 0.47777 0.88435 0.58366
 O1076 O 0.47753 0.85714 0.61054
 C1077 C 0.46978 0.86543 0.59164
 C1078 C 0.45104 0.85324 0.57895
 C1079 C 0.44263 0.83174 0.58677
 H1080 H 0.44994 0.82412 0.60229
 O1081 O 0.61514 1.08466 0.52459
 O1082 O 0.64201 1.11188 0.52516
 C1083 C 0.63382 1.09293 0.53286
 C1084 C 0.64588 1.08060 0.55188
 C1085 C 0.66726 1.08868 0.56029
 H1086 H 0.67537 1.10369 0.55240
 O1087 O 0.38596 0.91550 0.52149
 O1088 O 0.35907 0.88830 0.52099
 C1089 C 0.36709 0.90710 0.52920
 C1090 C 0.35463 0.91913 0.54816
 C1091 C 0.33328 0.91067 0.55632
 H1092 H 0.32551 0.89546 0.54848
 O1093 O 0.47594 1.08284 0.61633
 O1094 O 0.47555 1.10972 0.64352
 C1095 C 0.46773 1.09092 0.63510
 C1096 C 0.44856 1.07857 0.64691
 C1097 C 0.43978 1.08668 0.66811
 H1098 H 0.44737 1.10179 0.67632
 O1099 O 0.52292 0.91593 0.61567
 O1100 O 0.52284 0.88882 0.64266
 C1101 C 0.53081 0.90769 0.63451
 C1102 C 0.54976 0.91995 0.64677
 C1103 C 0.55800 0.91179 0.66818
 H1104 H 0.55014 0.89671 0.67619
 O1105 O 0.61487 0.97773 0.58436
 O1106 O 0.64194 0.97749 0.61139
 C1107 C 0.63374 0.96973 0.59244
 C1108 C 0.64587 0.95074 0.58005
 C1109 C 0.66750 0.94273 0.58788
 H1110 H 0.67594 0.95160 0.60210
 O1111 O 0.38399 1.02200 0.58320
 O1112 O 0.35657 1.02159 0.60985
 C1113 C 0.36503 1.02983 0.59123
 C1114 C 0.35315 1.04920 0.57920
 C1115 C 0.33173 1.05757 0.58727
 H1116 H 0.32319 1.04872 0.60145
 O1117 O 0.41666 1.11534 0.52225
 O1118 O 0.38965 1.14243 0.52217
 C1119 C 0.40858 1.13429 0.53004
 C1120 C 0.42083 1.14646 0.54906
 C1121 C 0.41332 1.16836 0.55660
 H1122 H 0.39983 1.17707 0.54690
 O1123 O 0.58337 0.88445 0.52238
 O1124 O 0.61049 0.85747 0.52246
 C1125 C 0.59148 0.86551 0.53019
 C1126 C 0.57908 0.85314 0.54897
 C1127 C 0.58662 0.83124 0.55648
 H1128 H 0.60059 0.82274 0.54727
 O1129 O 0.41529 1.02151 0.61542
 O1130 O 0.38800 1.02108 0.64222
 C1131 C 0.40695 1.02913 0.63433
 C1132 C 0.41906 1.04806 0.64677
 C1133 C 0.41088 1.05610 0.66827
 H1134 H 0.39613 1.04784 0.67647
 O1135 O 0.58349 0.97756 0.61655
 O1136 O 0.61040 0.97740 0.64374
 C1137 C 0.59155 0.96956 0.63544
 C1138 C 0.57921 0.95049 0.64744
 C1139 C 0.58686 0.94238 0.66912
 H1140 H 0.60139 0.95066 0.67770
 O1141 O 0.52296 0.88428 0.58390
 O1142 O 0.52284 0.85701 0.61073
 C1143 C 0.53082 0.86533 0.59195
 C1144 C 0.54972 0.85318 0.57948
 C1145 C 0.55793 0.83154 0.58719
 H1146 H 0.55030 0.82374 0.60246
 O1147 O 0.47628 1.11474 0.58480
 O1148 O 0.47594 1.14175 0.61186
 C1149 C 0.46822 1.13357 0.59291
 C1150 C 0.44943 1.14581 0.58029
 C1151 C 0.44092 1.16721 0.58827
 H1152 H 0.44805 1.17445 0.60402
 O1153 O 0.38463 1.08384 0.52276
 O1154 O 0.35750 1.11081 0.52275
 C1155 C 0.36581 1.09205 0.53078
 C1156 C 0.35373 1.07985 0.54992
 C1157 C 0.33259 1.08830 0.55861
 H1158 H 0.32519 1.10388 0.55117
 O1159 O 0.61502 0.91639 0.52301
 O1160 O 0.64225 0.88953 0.52309
 C1161 C 0.63384 0.90826 0.53111
 C1162 C 0.64577 0.92049 0.55035
 C1163 C 0.66712 0.91234 0.55886
 H1164 H 0.67479 0.89700 0.55123
 O1165 O 0.47766 0.91612 0.61540
 O1166 O 0.47751 0.88907 0.64245
 C1167 C 0.46964 0.90796 0.63422
 C1168 C 0.45047 0.92017 0.64620
 C1169 C 0.44258 0.91249 0.66791
 H1170 H 0.45168 0.89852 0.67656
 O1171 O 0.52120 1.08281 0.61691
 O1172 O 0.52086 1.10961 0.64419
 C1173 C 0.52887 1.09079 0.63595
 C1174 C 0.54783 1.07844 0.64818
 C1175 C 0.55523 1.08570 0.67022
 H1176 H 0.54588 1.09946 0.67891
 O1177 O 0.38412 0.97674 0.58252
 O1178 O 0.35665 0.97625 0.60912
 C1179 C 0.36518 0.96862 0.59029
 C1180 C 0.35343 0.94959 0.57768
 C1181 C 0.33182 0.94122 0.58519
 H1182 H 0.32307 0.94933 0.59970
 O1183 O 0.61534 1.02296 0.58511
 O1184 O 0.64242 1.02279 0.61213
 C1185 C 0.63422 1.03083 0.59333
 C1186 C 0.64630 1.04998 0.58122
 C1187 C 0.66787 1.05810 0.58917
 H1188 H 0.67623 1.04981 0.60382
 O1189 O 0.41818 0.88415 0.52115
 O1190 O 0.39138 0.85686 0.52062
 C1191 C 0.41013 0.86510 0.52876
 C1192 C 0.42226 0.85288 0.54785
 C1193 C 0.41452 0.83110 0.55551
 H1194 H 0.40067 0.82253 0.54618
 O1195 O 0.58287 1.11592 0.52393
 O1196 O 0.60961 1.14327 0.52447
 C1197 C 0.59068 1.13485 0.53203
 C1198 C 0.57803 1.14675 0.55096
 C1199 C 0.58554 1.16843 0.55914
 H1200 H 0.60010 1.17706 0.55097
 Cu1201 Cu 0.59653 1.00028 0.59792
 Cu1202 Cu 0.62895 1.00006 0.63044
 Cu1203 Cu 0.40244 0.99919 0.59628
 Cu1204 Cu 0.36957 0.99863 0.62832
 Cu1205 Cu 0.49880 1.09609 0.59810
 Cu1206 Cu 0.49841 1.12839 0.63071
 Cu1207 Cu 0.50034 0.90289 0.59697
 Cu1208 Cu 0.50015 0.87029 0.62933
 C1209 C 0.55941 1.06002 0.63727
 H1210 H 0.55384 1.05440 0.62024
 C1211 C 0.57453 1.07535 0.68106
 C1212 C 0.43911 0.93880 0.63536
 H1213 H 0.44504 0.94473 0.61855
 C1214 C 0.42304 0.92261 0.67847
 C1215 C 0.55922 1.13579 0.56196
 H1216 H 0.55341 1.11900 0.55584
 C1217 C 0.57498 1.17869 0.57848
 C1218 C 0.44077 0.86362 0.55945
 H1219 H 0.44676 0.88047 0.55368
 C1220 C 0.42438 0.82041 0.57514
 C1221 C 0.63561 1.06116 0.56238
 H1222 H 0.61890 1.05512 0.55628
 C1223 C 0.67837 1.07750 0.57884
 C1224 C 0.36451 0.93866 0.55891
 H1225 H 0.38123 0.94495 0.55309
 C1226 C 0.32180 0.92174 0.57467
 C1227 C 0.43815 1.05918 0.63643
 H1228 H 0.44447 1.05317 0.61980
 C1229 C 0.42111 1.07544 0.67887
 C1230 C 0.56041 0.93937 0.63659
 H1231 H 0.55450 0.94544 0.61982
 C1232 C 0.57641 0.92299 0.67946
 C1233 C 0.63532 0.93973 0.56104
 H1234 H 0.61859 0.94576 0.55496
 C1235 C 0.67824 0.92337 0.57759
 C1236 C 0.36382 1.06026 0.56031
 H1237 H 0.38039 1.05397 0.55405
 C1238 C 0.32132 1.07725 0.57723
 C1239 C 0.43923 1.13558 0.56070
 H1240 H 0.44515 1.11871 0.55492
 C1241 C 0.42293 1.17888 0.57646
 C1242 C 0.56038 0.86377 0.56033
 H1243 H 0.55455 0.88072 0.55466
 C1244 C 0.57637 0.82031 0.57576
 O1245 O 0.58530 0.97955 0.38470
 O1246 O 0.61264 0.97989 0.35797
 C1247 C 0.59367 0.97188 0.36582
 C1248 C 0.58160 0.95292 0.35336
 C1249 C 0.58991 0.94485 0.33192
 H1250 H 0.60471 0.95312 0.32380
 O1251 O 0.41806 1.02329 0.38370
 O1252 O 0.39123 1.02336 0.35643
 C1253 C 0.41005 1.03124 0.36479
 C1254 C 0.42235 1.05040 0.35288
 C1255 C 0.41463 1.05857 0.33127
 H1256 H 0.40016 1.05024 0.32263
 O1257 O 0.47812 1.11659 0.41704
 O1258 O 0.47817 1.14397 0.39031
 C1259 C 0.47019 1.13553 0.40905
 C1260 C 0.45097 1.14742 0.42124
 C1261 C 0.44295 1.16908 0.41352
 H1262 H 0.45205 1.17777 0.39959
 O1263 O 0.52433 0.88557 0.41479
 O1264 O 0.52469 0.85870 0.38758
 C1265 C 0.53237 0.86676 0.40659
 C1266 C 0.55119 0.85451 0.41907
 C1267 C 0.55977 0.83324 0.41086
 H1268 H 0.55221 0.82530 0.39559
 O1269 O 0.61535 0.91671 0.47759
 O1270 O 0.64253 0.88979 0.47762
 C1271 C 0.63424 0.90861 0.46965
 C1272 C 0.64635 0.92087 0.45056
 C1273 C 0.66725 0.91214 0.44158
 H1274 H 0.67500 0.89669 0.44899
 O1275 O 0.38469 1.08318 0.47743
 O1276 O 0.35747 1.11005 0.47739
 C1277 C 0.36577 1.09120 0.46951
 C1278 C 0.35386 1.07901 0.45026
 C1279 C 0.33231 1.08689 0.44203
 H1280 H 0.32357 1.10058 0.45140
 O1281 O 0.52359 1.08532 0.38515
 O1282 O 0.52366 1.11253 0.35826
 C1283 C 0.53161 1.09365 0.36640
 C1284 C 0.55089 1.08161 0.35442
 C1285 C 0.55939 1.08985 0.33312
 H1286 H 0.55120 1.10456 0.32473
 O1287 O 0.47955 0.91765 0.38271
 O1288 O 0.47988 0.89094 0.35534
 C1289 C 0.47185 0.90970 0.36366
 C1290 C 0.45280 0.92200 0.35157
 C1291 C 0.44454 0.91408 0.33006
 H1292 H 0.45275 0.89944 0.32160
 O1293 O 0.61664 1.02428 0.41759
 O1294 O 0.64416 1.02457 0.39104
 C1295 C 0.63564 1.03230 0.40983
 C1296 C 0.64762 1.05114 0.42253
 C1297 C 0.66911 1.05961 0.41481
 H1298 H 0.67693 1.05213 0.39948
 O1299 O 0.38623 0.97791 0.41519
 O1300 O 0.35919 0.97795 0.38813
 C1301 C 0.36745 0.96990 0.40693
 C1302 C 0.35546 0.95064 0.41906
 C1303 C 0.33427 0.94196 0.41069
 H1304 H 0.32663 0.94959 0.39532
 O1305 O 0.58408 1.11620 0.47865
 O1306 O 0.61093 1.14344 0.47917
 C1307 C 0.59231 1.13510 0.47086
 C1308 C 0.58033 1.14724 0.45163
 C1309 C 0.58870 1.16855 0.44333
 H1310 H 0.60369 1.17656 0.45135
 O1311 O 0.41818 0.88466 0.47586
 O1312 O 0.39136 0.85739 0.47538
 C1313 C 0.41019 0.86584 0.46765
 C1314 C 0.42256 0.85403 0.44849
 C1315 C 0.41484 0.83246 0.44021
 H1316 H 0.40018 0.82398 0.44836
 O1317 O 0.41786 0.97808 0.38336
 O1318 O 0.39092 0.97812 0.35620
 C1319 C 0.40976 0.97020 0.36444
 C1320 C 0.42212 0.95130 0.35222
 C1321 C 0.41380 0.94279 0.33098
 H1322 H 0.39856 0.95045 0.32306
 O1323 O 0.58522 1.02481 0.38557
 O1324 O 0.61263 1.02520 0.35890
 C1325 C 0.59368 1.03305 0.36698
 C1326 C 0.58157 1.05227 0.35497
 C1327 C 0.59014 1.06114 0.33396
 H1328 H 0.60544 1.05360 0.32607
 O1329 O 0.47909 0.88581 0.41439
 O1330 O 0.47935 0.85895 0.38718
 C1331 C 0.47123 0.86702 0.40601
 C1332 C 0.45216 0.85474 0.41810
 C1333 C 0.44392 0.83334 0.40985
 H1334 H 0.45194 0.82535 0.39486
 O1335 O 0.52332 1.11684 0.41716
 O1336 O 0.52343 1.14419 0.39041
 C1337 C 0.53124 1.13581 0.40925
 C1338 C 0.55021 1.14781 0.42175
 C1339 C 0.55853 1.16938 0.41402
 H1340 H 0.55050 1.17785 0.39928
 O1341 O 0.38640 0.91650 0.47624
 O1342 O 0.35948 0.88933 0.47574
 C1343 C 0.36759 0.90838 0.46814
 C1344 C 0.35543 0.92080 0.44919
 C1345 C 0.33398 0.91277 0.44093
 H1346 H 0.32563 0.89837 0.44963
 O1347 O 0.61588 1.08445 0.47942
 O1348 O 0.64283 1.11159 0.47996
 C1349 C 0.63489 1.09267 0.47192
 C1350 C 0.64741 1.08045 0.45310
 C1351 C 0.66919 1.08831 0.44551
 H1352 H 0.67752 1.10246 0.45461
 O1353 O 0.52478 0.91786 0.38365
 O1354 O 0.52520 0.89113 0.35630
 C1355 C 0.53301 0.90989 0.36485
 C1356 C 0.55220 0.92232 0.35314
 C1357 C 0.56108 0.91422 0.33198
 H1358 H 0.55350 0.89911 0.32375
 O1359 O 0.47832 1.08523 0.38493
 O1360 O 0.47830 1.11247 0.35807
 C1361 C 0.47041 1.09352 0.36611
 C1362 C 0.45155 1.08119 0.35376
 C1363 C 0.44319 1.08945 0.33241
 H1364 H 0.45084 1.10470 0.32452
 O1365 O 0.38597 1.02330 0.41511
 O1366 O 0.35902 1.02341 0.38797
 C1367 C 0.36718 1.03133 0.40685
 C1368 C 0.35492 1.05032 0.41914
 C1369 C 0.33392 1.05920 0.41050
 H1370 H 0.32706 1.05218 0.39452
 O1371 O 0.61634 0.97899 0.41723
 O1372 O 0.64381 0.97924 0.39062
 C1373 C 0.63528 0.97107 0.40924
 C1374 C 0.64707 0.95166 0.42131
 C1375 C 0.66825 0.94296 0.41298
 H1376 H 0.67662 0.95105 0.39823
 O1377 O 0.58391 0.88467 0.47723
 O1378 O 0.61101 0.85765 0.47733
 C1379 C 0.59219 0.86584 0.46930
 C1380 C 0.58018 0.85385 0.45003
 C1381 C 0.58819 0.83233 0.44187
 H1382 H 0.60271 0.82385 0.45028
 O1383 O 0.41597 1.11548 0.47706
 O1384 O 0.38884 1.14246 0.47697
 C1385 C 0.40773 1.13432 0.46909
 C1386 C 0.42011 1.14664 0.45023
 C1387 C 0.41194 1.16804 0.44185
 H1388 H 0.39639 1.17550 0.44928
 Cu1389 Cu 0.59813 1.00187 0.40393
 Cu1390 Cu 0.63107 1.00224 0.37197
 Cu1391 Cu 0.40471 1.00064 0.40207
 Cu1392 Cu 0.37236 1.00073 0.36948
 Cu1393 Cu 0.59679 1.09759 0.50159
 Cu1394 Cu 0.62902 1.13030 0.50226
 Cu1395 Cu 0.59672 0.90327 0.50006
 Cu1396 Cu 0.62934 0.87095 0.50016
 Cu1397 Cu 0.40318 1.09675 0.49987
 Cu1398 Cu 0.37062 1.12912 0.49982
 Cu1399 Cu 0.40488 0.90292 0.49874
 Cu1400 Cu 0.37263 0.87024 0.49812
 Cu1401 Cu 0.50084 1.09826 0.40374
 Cu1402 Cu 0.50089 1.13103 0.37156
 Cu1403 Cu 0.50189 0.90440 0.40161
 Cu1404 Cu 0.50231 0.87224 0.36885
 C1405 C 0.56251 0.94175 0.36364
 H1406 H 0.55611 0.94776 0.38024
 C1407 C 0.57981 0.92544 0.32128
 C1408 C 0.44106 1.06159 0.36379
 H1409 H 0.44703 1.05546 0.38052
 C1410 C 0.42489 1.07812 0.32108
 C1411 C 0.43966 1.13651 0.43983
 H1412 H 0.44570 1.11975 0.44580
 C1413 C 0.42326 1.17949 0.42350
 C1414 C 0.56144 0.86460 0.43873
 H1415 H 0.55528 0.88127 0.44484
 C1416 C 0.57814 0.82204 0.42225
 C1417 C 0.63643 0.94070 0.44035
 H1418 H 0.62002 0.94720 0.44678
 C1419 C 0.67827 0.92315 0.42291
 C1420 C 0.36476 1.06039 0.43899
 H1421 H 0.38135 1.05418 0.44528
 C1422 C 0.32221 1.07740 0.42188
 C1423 C 0.56189 1.06258 0.36501
 H1424 H 0.55552 1.05620 0.38149
 C1425 C 0.57904 1.07977 0.32295
 C1426 C 0.44170 0.94086 0.36232
 H1427 H 0.44786 0.94696 0.37898
 C1428 C 0.42498 0.92431 0.31981
 C1429 C 0.63697 1.06162 0.44174
 H1430 H 0.62012 1.05556 0.44742
 C1431 C 0.68017 1.07814 0.42622
 C1432 C 0.36585 0.93998 0.43836
 H1433 H 0.38247 0.94617 0.44455
 C1434 C 0.32330 0.92303 0.42153
 C1435 C 0.56102 1.13706 0.44079
 H1436 H 0.55480 1.12037 0.44677
 C1437 C 0.57782 1.17972 0.42465
 C1438 C 0.44143 0.86487 0.43751
 H1439 H 0.44736 0.88159 0.44370
 C1440 C 0.42536 0.82208 0.42088
 O1441 O 0.47833 0.41598 0.88449
 O1442 O 0.47847 0.38909 0.85730
 C1443 C 0.47055 0.40795 0.86550
 C1444 C 0.45186 0.42051 0.85310
 C1445 C 0.44400 0.41279 0.83138
 H1446 H 0.45192 0.39778 0.82329
 O1447 O 0.52300 0.58488 0.88566
 O1448 O 0.52312 0.61215 0.85882
 C1449 C 0.53100 0.59320 0.86689
 C1450 C 0.54997 0.58093 0.85468
 C1451 C 0.55829 0.58911 0.83330
 H1452 H 0.55046 0.60420 0.82528
 O1453 O 0.38567 0.47685 0.91485
 O1454 O 0.35888 0.47702 0.88754
 C1455 C 0.36695 0.46889 0.90637
 C1456 C 0.35468 0.44976 0.91835
 C1457 C 0.33359 0.44117 0.90967
 H1458 H 0.32588 0.44879 0.89431
 O1459 O 0.61519 0.52338 0.91695
 O1460 O 0.64245 0.52365 0.89014
 C1461 C 0.63408 0.53143 0.90898
 C1462 C 0.64618 0.55027 0.92162
 C1463 C 0.66778 0.55854 0.91395
 H1464 H 0.67552 0.55107 0.89858
 O1465 O 0.41593 0.38469 0.97643
 O1466 O 0.38886 0.35768 0.97597
 C1467 C 0.40780 0.36592 0.96826
 C1468 C 0.42025 0.35385 0.94931
 C1469 C 0.41208 0.33257 0.94074
 H1470 H 0.39689 0.32456 0.94839
 O1471 O 0.58346 0.61553 0.97908
 O1472 O 0.61058 0.64250 0.97944
 C1473 C 0.59168 0.63449 0.97143
 C1474 C 0.57942 0.64699 0.95262
 C1475 C 0.58702 0.66893 0.94527
 H1476 H 0.60105 0.67731 0.95452
 O1477 O 0.41740 0.52302 0.88429
 O1478 O 0.39061 0.52328 0.85699
 C1479 C 0.40934 0.53119 0.86547
 C1480 C 0.42150 0.55055 0.85372
 C1481 C 0.41362 0.55885 0.83223
 H1482 H 0.39951 0.54996 0.82360
 O1483 O 0.58384 0.47811 0.88484
 O1484 O 0.61094 0.47830 0.85787
 C1485 C 0.59205 0.47032 0.86595
 C1486 C 0.57983 0.45134 0.85370
 C1487 C 0.58760 0.44352 0.83197
 H1488 H 0.60214 0.45194 0.82354
 O1489 O 0.52360 0.38420 0.91628
 O1490 O 0.52379 0.35721 0.88920
 C1491 C 0.53171 0.36544 0.90804
 C1492 C 0.55091 0.35345 0.92023
 C1493 C 0.55969 0.33233 0.91185
 H1494 H 0.55219 0.32479 0.89638
 O1495 O 0.47774 0.61630 0.91766
 O1496 O 0.47776 0.64369 0.89095
 C1497 C 0.46976 0.63522 0.90966
 C1498 C 0.45039 0.64696 0.92178
 C1499 C 0.44165 0.66814 0.91349
 H1500 H 0.44975 0.67661 0.89880
 O1501 O 0.38453 0.58268 0.97788
 O1502 O 0.35715 0.60940 0.97774
 C1503 C 0.36563 0.59065 0.96983
 C1504 C 0.35373 0.57829 0.95069
 C1505 C 0.33216 0.58608 0.94251
 H1506 H 0.32377 0.60084 0.95058
 O1507 O 0.61545 0.41648 0.97796
 O1508 O 0.64286 0.38980 0.97797
 C1509 C 0.63440 0.40855 0.97002
 C1510 C 0.64640 0.42094 0.95094
 C1511 C 0.66773 0.41281 0.94244
 H1512 H 0.67589 0.39780 0.95029
 O1513 O 0.47774 0.58505 0.88548
 O1514 O 0.47776 0.61230 0.85864
 C1515 C 0.46980 0.59339 0.86669
 C1516 C 0.45080 0.58117 0.85442
 C1517 C 0.44227 0.58958 0.83318
 H1518 H 0.44976 0.60512 0.82576
 O1519 O 0.52354 0.41618 0.88485
 O1520 O 0.52374 0.38932 0.85763
 C1521 C 0.53156 0.40816 0.86598
 C1522 C 0.55050 0.42066 0.85392
 C1523 C 0.55887 0.41278 0.83246
 H1524 H 0.55114 0.39773 0.82428
 O1525 O 0.61539 0.47812 0.91691
 O1526 O 0.64266 0.47831 0.89009
 C1527 C 0.63438 0.47032 0.90890
 C1528 C 0.64655 0.45132 0.92126
 C1529 C 0.66812 0.44318 0.91333
 H1530 H 0.67642 0.45134 0.89858
 O1531 O 0.38539 0.52204 0.91591
 O1532 O 0.35845 0.52227 0.88875
 C1533 C 0.36642 0.52984 0.90786
 C1534 C 0.35392 0.54837 0.92058
 C1535 C 0.33207 0.55611 0.91300
 H1536 H 0.32374 0.54797 0.89825
 O1537 O 0.41570 0.61500 0.97797
 O1538 O 0.38842 0.64182 0.97778
 C1539 C 0.40736 0.63376 0.96993
 C1540 C 0.41954 0.64598 0.95089
 C1541 C 0.41073 0.66688 0.94196
 H1542 H 0.39523 0.67453 0.94934
 O1543 O 0.58416 0.38423 0.97772
 O1544 O 0.61146 0.35742 0.97773
 C1545 C 0.59253 0.36545 0.96978
 C1546 C 0.58047 0.35331 0.95060
 C1547 C 0.58866 0.33191 0.94232
 H1548 H 0.60301 0.32356 0.95109
 O1549 O 0.58361 0.52332 0.88500
 O1550 O 0.61072 0.52357 0.85803
 C1551 C 0.59177 0.53134 0.86618
 C1552 C 0.57944 0.55039 0.85411
 C1553 C 0.58717 0.55851 0.83248
 H1554 H 0.60174 0.55023 0.82396
 O1555 O 0.41788 0.47776 0.88358
 O1556 O 0.39122 0.47799 0.85614
 C1557 C 0.41004 0.47009 0.86447
 C1558 C 0.42260 0.45126 0.85232
 C1559 C 0.41534 0.44359 0.83036
 H1560 H 0.40099 0.45208 0.82166
 O1561 O 0.52300 0.61643 0.91754
 O1562 O 0.52311 0.64384 0.89086
 C1563 C 0.53100 0.63537 0.90962
 C1564 C 0.54997 0.64732 0.92217
 C1565 C 0.55822 0.66899 0.91464
 H1566 H 0.55055 0.67694 0.89946
 O1567 O 0.47825 0.38419 0.91631
 O1568 O 0.47838 0.35716 0.88927
 C1569 C 0.47035 0.36535 0.90809
 C1570 C 0.45111 0.35331 0.92017
 C1571 C 0.44292 0.33179 0.91217
 H1572 H 0.45127 0.32338 0.89759
 O1573 O 0.61509 0.58350 0.97913
 O1574 O 0.64234 0.61033 0.97951
 C1575 C 0.63410 0.59155 0.97145
 C1576 C 0.64635 0.57932 0.95246
 C1577 C 0.66824 0.58690 0.94496
 H1578 H 0.67679 0.60077 0.95427
 O1579 O 0.38408 0.41636 0.97660
 O1580 O 0.35688 0.38947 0.97620
 C1581 C 0.36525 0.40832 0.96843
 C1582 C 0.35353 0.42056 0.94912
 C1583 C 0.33217 0.41260 0.94052
 H1584 H 0.32354 0.39803 0.94869
 Cu1585 Cu 0.50089 0.40280 0.90322
 Cu1586 Cu 0.50108 0.37046 0.87065
 Cu1587 Cu 0.50038 0.59794 0.90427
 Cu1588 Cu 0.50045 0.63075 0.87213
 Cu1589 Cu 0.40427 0.49990 0.90237
 Cu1590 Cu 0.37211 0.50020 0.86960
 Cu1591 Cu 0.59679 0.50070 0.90361
 Cu1592 Cu 0.62944 0.50097 0.87134
 C1593 C 0.44112 0.43983 0.86336
 H1594 H 0.44672 0.44555 0.88035
 C1595 C 0.42589 0.42432 0.81990
 C1596 C 0.56060 0.56150 0.86488
 H1597 H 0.55463 0.55543 0.88163
 C1598 C 0.57674 0.57790 0.82210
 C1599 C 0.36446 0.43938 0.93813
 H1600 H 0.38099 0.44555 0.94460
 C1601 C 0.32224 0.42274 0.92076
 C1602 C 0.63564 0.56075 0.94091
 H1603 H 0.61872 0.55487 0.94657
 C1604 C 0.67908 0.57683 0.92554
 C1605 C 0.43985 0.36402 0.93897
 H1606 H 0.44595 0.38069 0.94514
 C1607 C 0.42336 0.32144 0.92229
 C1608 C 0.56066 0.63652 0.94120
 H1609 H 0.55477 0.61956 0.94675
 C1610 C 0.57671 0.68007 0.92613
 C1611 C 0.44032 0.56162 0.86451
 H1612 H 0.44642 0.55537 0.88115
 C1613 C 0.42368 0.57852 0.82185
 C1614 C 0.56104 0.44002 0.86434
 H1615 H 0.55503 0.44587 0.88115
 C1616 C 0.57727 0.42421 0.82139
 C1617 C 0.56136 0.36374 0.93966
 H1618 H 0.55504 0.38030 0.94587
 C1619 C 0.57851 0.32127 0.92281
 C1620 C 0.43944 0.63621 0.94073
 H1621 H 0.44599 0.61980 0.94713
 C1622 C 0.42177 0.67803 0.92339
 C1623 C 0.36443 0.55934 0.93968
 H1624 H 0.38133 0.55359 0.94553
 C1625 C 0.32124 0.57500 0.92383
 C1626 C 0.63600 0.44028 0.94029
 H1627 H 0.61929 0.44633 0.94639
 C1628 C 0.67868 0.42388 0.92375
 O1629 O 0.52181 0.41425 1.11489
 O1630 O 0.52168 0.38700 1.14174
 C1631 C 0.52964 0.40594 1.13374
 C1632 C 0.54852 0.41821 1.14615
 C1633 C 0.55682 0.40989 1.16750
 H1634 H 0.54903 0.39469 1.17536
 O1635 O 0.47625 0.58327 1.11598
 O1636 O 0.47595 0.61014 1.14319
 C1637 C 0.46813 0.59131 1.13481
 C1638 C 0.44914 0.57882 1.14680
 C1639 C 0.44068 0.58678 1.16819
 H1640 H 0.44833 0.60189 1.17633
 O1641 O 0.38403 0.52170 1.08399
 O1642 O 0.35694 0.52149 1.11097
 C1643 C 0.36514 0.52955 1.09217
 C1644 C 0.35302 0.54870 1.08003
 C1645 C 0.33158 0.55697 1.08814
 H1646 H 0.32322 0.54823 1.10250
 O1647 O 0.61416 0.47703 1.08509
 O1648 O 0.64103 0.47682 1.11232
 C1649 C 0.63303 0.46911 1.09328
 C1650 C 0.64537 0.45023 1.08093
 C1651 C 0.66680 0.44202 1.08914
 H1652 H 0.67498 0.45068 1.10365
 O1653 O 0.58396 0.38397 1.02288
 O1654 O 0.61126 0.35716 1.02293
 C1655 C 0.59225 0.36512 1.03074
 C1656 C 0.57986 0.35266 1.04947
 C1657 C 0.58796 0.33118 1.05765
 H1658 H 0.60337 0.32363 1.05003
 O1659 O 0.41570 0.61485 1.02327
 O1660 O 0.38848 0.64173 1.02313
 C1661 C 0.40733 0.63362 1.03120
 C1662 C 0.41935 0.64573 1.05041
 C1663 C 0.41072 0.66677 1.05915
 H1664 H 0.39557 0.67470 1.05135
 O1665 O 0.41583 0.47606 1.11524
 O1666 O 0.38883 0.47578 1.14232
 C1667 C 0.40766 0.46790 1.13400
 C1668 C 0.41979 0.44856 1.14581
 C1669 C 0.41158 0.43998 1.16708
 H1670 H 0.39682 0.44809 1.17542
 O1671 O 0.58189 0.52160 1.11734
 O1672 O 0.60861 0.52139 1.14471
 C1673 C 0.58979 0.52930 1.13641
 C1674 C 0.57731 0.54816 1.14859
 C1675 C 0.58484 0.55601 1.17041
 H1676 H 0.59939 0.54766 1.17890
 O1677 O 0.47694 0.38269 1.08244
 O1678 O 0.47674 0.35527 1.10913
 C1679 C 0.46900 0.36369 1.09028
 C1680 C 0.45003 0.35175 1.07773
 C1681 C 0.44181 0.33010 1.08532
 H1682 H 0.44997 0.32144 1.09987
 O1683 O 0.52193 0.61512 1.08501
 O1684 O 0.52171 0.64214 1.11206
 C1685 C 0.52982 0.63395 1.09329
 C1686 C 0.54890 0.64611 1.08114
 C1687 C 0.55695 0.66770 1.08905
 H1688 H 0.54888 0.67591 1.10390
 O1689 O 0.38400 0.41592 1.02194
 O1690 O 0.35687 0.38896 1.02159
 C1691 C 0.36516 0.40765 1.02982
 C1692 C 0.35318 0.41956 1.04917
 C1693 C 0.33216 0.41092 1.05794
 H1694 H 0.32416 0.39584 1.05007
 O1695 O 0.61465 0.58323 1.02441
 O1696 O 0.64186 0.61010 1.02479
 C1697 C 0.63349 0.59124 1.03254
 C1698 C 0.64537 0.57890 1.05171
 C1699 C 0.66694 0.58669 1.05990
 H1700 H 0.67554 0.60079 1.05099
 O1701 O 0.52146 0.58325 1.11664
 O1702 O 0.52124 0.61013 1.14385
 C1703 C 0.52918 0.59126 1.13566
 C1704 C 0.54790 0.57874 1.14804
 C1705 C 0.55592 0.58657 1.16966
 H1706 H 0.54792 0.60152 1.17777
 O1707 O 0.47649 0.41416 1.11445
 O1708 O 0.47626 0.38688 1.14127
 C1709 C 0.46836 0.40579 1.13314
 C1710 C 0.44918 0.41793 1.14520
 C1711 C 0.44039 0.40934 1.16624
 H1712 H 0.44805 0.39409 1.17412
 O1713 O 0.61388 0.52231 1.08583
 O1714 O 0.64073 0.52216 1.11307
 C1715 C 0.63262 0.53028 1.09425
 C1716 C 0.64480 0.54944 1.08217
 C1717 C 0.66609 0.55791 1.09053
 H1718 H 0.67357 0.55031 1.10598
 O1719 O 0.38397 0.47649 1.08357
 O1720 O 0.35685 0.47622 1.11054
 C1721 C 0.36507 0.46851 1.09161
 C1722 C 0.35298 0.44955 1.07918
 C1723 C 0.33171 0.44093 1.08738
 H1724 H 0.32355 0.44876 1.10239
 O1725 O 0.58317 0.61534 1.02421
 O1726 O 0.61026 0.64234 1.02456
 C1727 C 0.59126 0.63421 1.03220
 C1728 C 0.57871 0.64642 1.05097
 C1729 C 0.58616 0.66827 1.05878
 H1730 H 0.60073 0.67680 1.05052
 O1731 O 0.41556 0.38403 1.02165
 O1732 O 0.38852 0.35697 1.02122
 C1733 C 0.40735 0.36507 1.02932
 C1734 C 0.41957 0.35265 1.04820
 C1735 C 0.41127 0.33127 1.05640
 H1736 H 0.39609 0.32339 1.04858
 O1737 O 0.58209 0.47636 1.11657
 O1738 O 0.60882 0.47612 1.14393
 C1739 C 0.59008 0.46822 1.13542
 C1740 C 0.57781 0.44892 1.14714
 C1741 C 0.58552 0.44062 1.16871
 H1742 H 0.60004 0.44888 1.17733
 O1743 O 0.41577 0.52135 1.11586
 O1744 O 0.38880 0.52109 1.14297
 C1745 C 0.40766 0.52908 1.13483
 C1746 C 0.41989 0.54807 1.14707
 C1747 C 0.41204 0.55597 1.16875
 H1748 H 0.39749 0.54756 1.17717
 O1749 O 0.47667 0.61524 1.08443
 O1750 O 0.47637 0.64224 1.11150
 C1751 C 0.46864 0.63408 1.09255
 C1752 C 0.44959 0.64613 1.08020
 C1753 C 0.44098 0.66740 1.08838
 H1754 H 0.44890 0.67563 1.10331
 O1755 O 0.52212 0.38278 1.08288
 O1756 O 0.52197 0.35539 1.10960
 C1757 C 0.53001 0.36382 1.09089
 C1758 C 0.54922 0.35192 1.07870
 C1759 C 0.55727 0.33024 1.08636
 H1760 H 0.54835 0.32156 1.10042
 O1761 O 0.61519 0.41618 1.02340
 O1762 O 0.64259 0.38949 1.02345
 C1763 C 0.63402 0.40812 1.03153
 C1764 C 0.64573 0.42025 1.05097
 C1765 C 0.66686 0.41193 1.05982
 H1766 H 0.67461 0.39662 1.05221
 O1767 O 0.38404 0.58308 1.02324
 O1768 O 0.35673 0.60987 1.02310
 C1769 C 0.36513 0.59116 1.03118
 C1770 C 0.35313 0.57897 1.05037
 C1771 C 0.33196 0.58734 1.05907
 H1772 H 0.32439 0.60276 1.05150
 Cu1773 Cu 0.49936 0.40121 1.09600
 Cu1774 Cu 0.49914 0.36841 1.12815
 Cu1775 Cu 0.49912 0.59654 1.09779
 Cu1776 Cu 0.49879 0.62888 1.13038
 Cu1777 Cu 0.40257 0.40298 0.99920
 Cu1778 Cu 0.37004 0.37058 0.99869
 Cu1779 Cu 0.59698 0.40291 1.00048
 Cu1780 Cu 0.62984 0.37083 1.00051
 Cu1781 Cu 0.40272 0.59622 1.00060
 Cu1782 Cu 0.36995 0.62839 1.00040
 Cu1783 Cu 0.59638 0.59669 1.00166
 Cu1784 Cu 0.62903 0.62899 1.00210
 Cu1785 Cu 0.40261 0.49895 1.09697
 Cu1786 Cu 0.37015 0.49863 1.12943
 Cu1787 Cu 0.59533 0.49936 1.09848
 Cu1788 Cu 0.62750 0.49909 1.13124
 C1789 C 0.55907 0.43781 1.13617
 H1790 H 0.55313 0.44402 1.11947
 C1791 C 0.57519 0.42108 1.17888
 C1792 C 0.43869 0.55939 1.13643
 H1793 H 0.44476 0.55349 1.11966
 C1794 C 0.42228 0.57536 1.17926
 C1795 C 0.36346 0.55961 1.06093
 H1796 H 0.38005 0.55340 1.05466
 C1797 C 0.32091 0.57642 1.07791
 C1798 C 0.63516 0.43945 1.06161
 H1799 H 0.61858 0.44561 1.05526
 C1800 C 0.67766 0.42273 1.07887
 C1801 C 0.56042 0.36281 1.06004
 H1802 H 0.55439 0.37961 1.05416
 C1803 C 0.57675 0.31974 1.07607
 C1804 C 0.43887 0.63563 1.06099
 H1805 H 0.44529 0.61913 1.05470
 C1806 C 0.42150 0.67771 1.07804
 C1807 C 0.43881 0.43761 1.13518
 H1808 H 0.44513 0.44403 1.11869
 C1809 C 0.42170 0.42034 1.17728
 C1810 C 0.55862 0.55944 1.13773
 H1811 H 0.55286 0.55361 1.12083
 C1812 C 0.57430 0.57525 1.18096
 C1813 C 0.43903 0.36269 1.05891
 H1814 H 0.44519 0.37945 1.05306
 C1815 C 0.42240 0.31992 1.07479
 C1816 C 0.55984 0.63567 1.06203
 H1817 H 0.55408 0.61878 1.05617
 C1818 C 0.57541 0.67889 1.07784
 C1819 C 0.36339 0.43896 1.05986
 H1820 H 0.37987 0.44539 1.05355
 C1821 C 0.32133 0.42157 1.07694
 C1822 C 0.63462 0.56005 1.06274
 H1823 H 0.61794 0.55401 1.05654
 C1824 C 0.67740 0.57652 1.07948
 C1825 C 1.10899 1.11055 1.26927
 C1826 C 1.12337 1.09716 1.28368
 C1827 C 1.13273 1.10649 1.30403
 C1828 C 1.12839 1.12977 1.31054
 C1829 C 1.11325 1.14276 1.29621
 C1830 C 1.10363 1.13326 1.27616
 C1831 C 1.10019 1.10127 1.24680
 C1832 C 1.09774 1.11605 1.22751
 C1833 C 1.08941 1.10759 1.20642
 C1834 C 1.08374 1.08408 1.20395
 C1835 C 1.08646 1.06913 1.22298
 C1836 C 1.09442 1.07767 1.24426
 H1837 H 1.14312 1.09503 1.31462
 H1838 H 1.10955 1.16084 1.29943
 H1839 H 1.08778 1.11936 1.19186
 H1840 H 1.08204 1.05093 1.22146
 H1841 H 1.09219 1.14398 1.26582
 H1842 H 1.10259 1.13415 1.22853
 H1843 H 1.12789 1.07955 1.27901
 H1844 H 1.09575 1.06583 1.25876
 C1845 C 1.11713 0.61492 0.76451
 C1846 C 1.11746 0.60177 0.78510
 C1847 C 1.12686 0.61093 0.80548
 C1848 C 1.13564 0.63359 0.80586
 C1849 C 1.13526 0.64687 0.78551
 C1850 C 1.12637 0.63756 0.76498
 C1851 C 1.10712 0.60516 0.74273
 C1852 C 1.09596 0.61963 0.72654
 C1853 C 1.08683 0.61056 0.70602
 C1854 C 1.08809 0.58665 0.70129
 C1855 C 1.09896 0.57212 0.71761
 C1856 C 1.10855 0.58127 0.73791
 H1857 H 1.12682 0.60051 0.82111
 H1858 H 1.14214 0.66436 0.78546
 H1859 H 1.07903 0.62243 0.69375
 H1860 H 1.09999 0.55359 0.71483
 H1861 H 1.12698 0.64807 0.74944
 H1862 H 1.09408 0.63803 0.72972
 H1863 H 1.11010 0.58452 0.78568
 H1864 H 1.11731 0.56956 0.74967
 C1865 C 0.61015 1.10930 0.76864
 C1866 C 0.63391 1.10674 0.77304
 C1867 C 0.64382 1.11643 0.79290
 C1868 C 0.63007 1.12846 0.80913
 C1869 C 0.60606 1.13038 0.80489
 C1870 C 0.59628 1.12115 0.78470
 C1871 C 0.60012 1.10038 0.74685
 C1872 C 0.58936 1.11561 0.73126
 C1873 C 0.58109 1.10753 0.70996
 C1874 C 0.58292 1.08388 0.70402
 C1875 C 0.59327 1.06861 0.72006
 C1876 C 0.60204 1.07684 0.74112
 H1877 H 0.66241 1.11501 0.79514
 H1878 H 0.59477 1.13903 0.81713
 H1879 H 0.57378 1.11998 0.69797
 H1880 H 0.59457 1.05024 0.71643
 H1881 H 0.57785 1.12317 0.78163
 H1882 H 0.58798 1.13391 0.73529
 H1883 H 0.64493 1.09785 0.76068
 H1884 H 0.61022 1.06482 0.75303
 C1885 C 0.60989 0.61107 1.26791
 C1886 C 0.60441 0.63369 1.27500
 C1887 C 0.61412 0.64312 1.29506
 C1888 C 0.62947 0.63014 1.30918
 C1889 C 0.63420 0.60705 1.30228
 C1890 C 0.62472 0.59779 1.28195
 C1891 C 0.60060 0.60170 1.24567
 C1892 C 0.59497 0.57805 1.24332
 C1893 C 0.58654 0.56939 1.22227
 C1894 C 0.58321 0.58425 1.20328
 C1895 C 0.58870 0.60783 1.20556
 C1896 C 0.59748 0.61642 1.22642
 H1897 H 0.61021 0.66111 1.29851
 H1898 H 0.64488 0.59563 1.31261
 H1899 H 0.58228 0.55114 1.22091
 H1900 H 0.58661 0.61955 1.19102
 H1901 H 0.62942 0.58029 1.27706
 H1902 H 0.59679 0.56625 1.25780
 H1903 H 0.59271 0.64435 1.26490
 H1904 H 0.60217 0.63458 1.22730
 C1905 C 0.88550 0.88369 1.26318
 C1906 C 0.86294 0.87431 1.26356
 C1907 C 0.85351 0.86557 1.28409
 C1908 C 0.86659 0.86549 1.30457
 C1909 C 0.88922 0.87439 1.30430
 C1910 C 0.89850 0.88363 1.28388
 C1911 C 0.89530 0.89351 1.24133
 C1912 C 0.91918 0.89199 1.23647
 C1913 C 0.92826 0.90119 1.21594
 C1914 C 0.91367 0.91178 1.19949
 C1915 C 0.88979 0.91316 1.20430
 C1916 C 0.88079 0.90441 1.22501
 H1917 H 0.83610 0.85850 1.28391
 H1918 H 0.89952 0.87458 1.32001
 H1919 H 0.94678 0.90007 1.21307
 H1920 H 0.87786 0.92075 1.19195
 H1921 H 0.91573 0.89105 1.28447
 H1922 H 0.93091 0.88345 1.24837
 H1923 H 0.85256 0.87344 1.24794
 H1924 H 0.86241 0.90637 1.22822
 C1925 C 0.88620 0.38623 0.76451
 C1926 C 0.86219 0.38727 0.76881
 C1927 C 0.85285 0.37824 0.78925
 C1928 C 0.86728 0.36841 0.80630
 C1929 C 0.89133 0.36779 0.80223
 C1930 C 0.90064 0.37636 0.78155
 C1931 C 0.89601 0.39517 0.74229
 C1932 C 0.91836 0.40506 0.74149
 C1933 C 0.92748 0.41334 0.72059
 C1934 C 0.91427 0.41237 0.70023
 C1935 C 0.89201 0.40267 0.70086
 C1936 C 0.88307 0.39391 0.72159
 H1937 H 0.83421 0.37867 0.79143
 H1938 H 0.90307 0.36068 0.81505
 H1939 H 0.94467 0.42093 0.72038
 H1940 H 0.88167 0.40162 0.68520
 H1941 H 0.91915 0.37489 0.77883
 H1942 H 0.92872 0.40679 0.75704
 H1943 H 0.85049 0.39513 0.75641
 H1944 H 0.86610 0.38591 0.72126
 C1945 C 0.38581 0.88616 0.76483
 C1946 C 0.37582 0.86387 0.76511
 C1947 C 0.36680 0.85462 0.78556
 C1948 C 0.36708 0.86760 0.80611
 C1949 C 0.37656 0.88999 0.80594
 C1950 C 0.38606 0.89911 0.78555
 C1951 C 0.39588 0.89571 0.74301
 C1952 C 0.39467 0.91956 0.73800
 C1953 C 0.40380 0.92835 0.71732
 C1954 C 0.41404 0.91347 0.70092
 C1955 C 0.41527 0.88963 0.70598
 C1956 C 0.40656 0.88093 0.72681
 H1957 H 0.35925 0.83742 0.78529
 H1958 H 0.37701 0.90021 0.82169
 H1959 H 0.40285 0.94684 0.71424
 H1960 H 0.42263 0.87752 0.69368
 H1961 H 0.39390 0.91614 0.78617
 H1962 H 0.38634 0.93148 0.74985
 H1963 H 0.37469 0.85359 0.74945
 H1964 H 0.40829 0.86254 0.73019
 C1965 C 0.38292 0.38295 1.26211
 C1966 C 0.38738 0.35997 1.26877
 C1967 C 0.37791 0.35085 1.28911
 C1968 C 0.36388 0.36453 1.30389
 C1969 C 0.35958 0.38770 1.29700
 C1970 C 0.36878 0.39664 1.27644
 C1971 C 0.39300 0.39259 1.24033
 C1972 C 0.39970 0.41604 1.23895
 C1973 C 0.40894 0.42508 1.21845
 C1974 C 0.41211 0.41078 1.19904
 C1975 C 0.40570 0.38735 1.20036
 C1976 C 0.39605 0.37840 1.22069
 H1977 H 0.38122 0.33273 1.29254
 H1978 H 0.34982 0.39955 1.30774
 H1979 H 0.41393 0.44318 1.21782
 H1980 H 0.40773 0.37610 1.18546
 H1981 H 0.36469 0.41436 1.27178
 H1982 H 0.39808 0.42741 1.25380
 H1983 H 0.39838 0.34890 1.25834
 H1984 H 0.39066 0.36042 1.22085
 C1985 C 0.88526 1.11643 0.73598
 C1986 C 0.87093 1.10296 0.72165
 C1987 C 0.86182 1.11203 0.70111
 C1988 C 0.86633 1.13518 0.69424
 C1989 C 0.88066 1.14863 0.70895
 C1990 C 0.89006 1.13935 0.72928
 C1991 C 0.89510 1.10665 0.75781
 C1992 C 0.89828 1.12080 0.77746
 C1993 C 0.90761 1.11167 0.79788
 C1994 C 0.91359 1.08813 0.79927
 C1995 C 0.91028 1.07387 0.77986
 C1996 C 0.90135 1.08307 0.75927
 H1997 H 0.85189 1.10030 0.69038
 H1998 H 0.88423 1.16669 0.70552
 H1999 H 0.90977 1.12292 0.81277
 H2000 H 0.91497 1.05569 0.78053
 H2001 H 0.90123 1.15025 0.73971
 H2002 H 0.89322 1.13888 0.77724
 H2003 H 0.86659 1.08529 0.72629
 H2004 H 0.89964 1.07172 0.74443
 C2005 C 0.88785 0.61451 0.23432
 C2006 C 0.87381 0.60071 0.22000
 C2007 C 0.86448 0.60959 0.19946
 C2008 C 0.86848 0.63283 0.19261
 C2009 C 0.88275 0.64649 0.20718
 C2010 C 0.89238 0.63743 0.22748
 C2011 C 0.89745 0.60521 0.25646
 C2012 C 0.90002 0.61972 0.27592
 C2013 C 0.90902 0.61107 0.29668
 C2014 C 0.91524 0.58764 0.29861
 C2015 C 0.91255 0.57301 0.27937
 C2016 C 0.90396 0.58174 0.25844
 H2017 H 0.85464 0.59770 0.18883
 H2018 H 0.88596 0.66463 0.20380
 H2019 H 0.91068 0.62258 0.31144
 H2020 H 0.91742 0.55489 0.28048
 H2021 H 0.90337 0.64855 0.23786
 H2022 H 0.89471 0.63772 0.27531
 H2023 H 0.86976 0.58300 0.22472
 H2024 H 0.90267 0.57012 0.24376
 C2025 C 0.38768 1.11431 0.23509
 C2026 C 0.37700 1.09953 0.21886
 C2027 C 0.36767 1.10837 0.19830
 C2028 C 0.36832 1.13231 0.19357
 C2029 C 0.37891 1.14708 0.20984
 C2030 C 0.38869 1.13818 0.23013
 C2031 C 0.39748 1.10498 0.25716
 C2032 C 0.39714 1.11841 0.27757
 C2033 C 0.40643 1.10978 0.29821
 C2034 C 0.41574 1.08736 0.29906
 C2035 C 0.41593 1.07373 0.27895
 C2036 C 0.40715 1.08254 0.25813
 H2037 H 0.36000 1.09636 0.18608
 H2038 H 0.37940 1.16565 0.20716
 H2039 H 0.40592 1.12042 0.31368
 H2040 H 0.42318 1.05640 0.27932
 H2041 H 0.39714 1.15013 0.24189
 H2042 H 0.38937 1.13549 0.27778
 H2043 H 0.37550 1.08111 0.22213
 H2044 H 0.40819 1.07181 0.24277
 C2045 C 0.38624 0.61627 0.73603
 C2046 C 0.39913 0.61610 0.71527
 C2047 C 0.38984 0.62537 0.69486
 C2048 C 0.36731 0.63454 0.69467
 C2049 C 0.35437 0.63473 0.71523
 C2050 C 0.36380 0.62594 0.73573
 C2051 C 0.39600 0.60635 0.75785
 C2052 C 0.38141 0.59557 0.77417
 C2053 C 0.39036 0.58675 0.79487
 C2054 C 0.41425 0.58792 0.79967
 C2055 C 0.42892 0.59838 0.78321
 C2056 C 0.41989 0.60764 0.76268
 H2057 H 0.40004 0.62500 0.67909
 H2058 H 0.33705 0.64203 0.71547
 H2059 H 0.37838 0.57925 0.80723
 H2060 H 0.44745 0.59934 0.78610
 H2061 H 0.35353 0.62700 0.75140
 H2062 H 0.36300 0.59379 0.77096
 H2063 H 0.41627 0.60847 0.71463
 H2064 H 0.43168 0.61608 0.75076
 C2065 C 1.11521 0.88590 0.73424
 C2066 C 1.12471 0.86338 0.73395
 C2067 C 1.13367 0.85400 0.71352
 C2068 C 1.13386 0.86709 0.69306
 C2069 C 1.12488 0.88967 0.69322
 C2070 C 1.11539 0.89891 0.71353
 C2071 C 1.10515 0.89565 0.75599
 C2072 C 1.10642 0.91954 0.76081
 C2073 C 1.09709 0.92857 0.78129
 C2074 C 1.08664 0.91390 0.79776
 C2075 C 1.08546 0.89000 0.79295
 C2076 C 1.09430 0.88107 0.77227
 H2077 H 1.14077 0.83660 0.71372
 H2078 H 1.12481 0.89995 0.67749
 H2079 H 1.09803 0.94710 0.78413
 H2080 H 1.07797 0.87802 0.80531
 H2081 H 1.10789 0.91610 0.71286
 H2082 H 1.11490 0.93134 0.74894
 H2083 H 1.12550 0.85300 0.74957
 H2084 H 1.09250 0.86266 0.76908
 C2085 C 1.11358 0.38645 0.23495
 C2086 C 1.10765 0.36389 0.22800
 C2087 C 1.11701 0.35421 0.20787
 C2088 C 1.13248 0.36688 0.19365
 C2089 C 1.13781 0.38985 0.20052
 C2090 C 1.12867 0.39934 0.22086
 C2091 C 1.10431 0.39631 0.25697
 C2092 C 1.09902 0.42009 0.25885
 C2093 C 1.09052 0.42924 0.27965
 C2094 C 1.08679 0.41477 0.29885
 C2095 C 1.09198 0.39106 0.29704
 C2096 C 1.10081 0.38197 0.27642
 H2097 H 1.11265 0.33634 0.20433
 H2098 H 1.14859 0.40104 0.19004
 H2099 H 1.08646 0.44756 0.28063
 H2100 H 1.08954 0.37963 0.31175
 H2101 H 1.13374 0.41677 0.22566
 H2102 H 1.10110 0.43160 0.24418
 H2103 H 1.09578 0.35352 0.23819
 H2104 H 1.10521 0.36373 0.27587
 C2105 C 0.61587 0.88785 0.23543
 C2106 C 0.61215 0.86435 0.23002
 C2107 C 0.62097 0.85478 0.20962
 C2108 C 0.63332 0.86854 0.19370
 C2109 C 0.63668 0.89215 0.19887
 C2110 C 0.62825 0.90163 0.21954
 C2111 C 0.60698 0.89779 0.25759
 C2112 C 0.59948 0.92103 0.25884
 C2113 C 0.59102 0.93017 0.27965
 C2114 C 0.58943 0.91616 0.29946
 C2115 C 0.59688 0.89305 0.29835
 C2116 C 0.60580 0.88403 0.27774
 H2117 H 0.61833 0.83645 0.20653
 H2118 H 0.64577 0.90342 0.18692
 H2119 H 0.58521 0.94804 0.28018
 H2120 H 0.59604 0.88206 0.31357
 H2121 H 0.63176 0.91970 0.22316
 H2122 H 0.59972 0.93208 0.24367
 H2123 H 0.60232 0.85324 0.24151
 H2124 H 0.61196 0.86630 0.27773
 C2125 C 0.61245 0.38792 0.73461
 C2126 C 0.60987 0.36422 0.72946
 C2127 C 0.61912 0.35487 0.70916
 C2128 C 0.63075 0.36902 0.69304
 C2129 C 0.63273 0.39287 0.69781
 C2130 C 0.62391 0.40216 0.71841
 C2131 C 0.60357 0.39751 0.75694
 C2132 C 0.59517 0.42043 0.75838
 C2133 C 0.58690 0.42926 0.77941
 C2134 C 0.58640 0.41522 0.79925
 C2135 C 0.59467 0.39241 0.79796
 C2136 C 0.60342 0.38374 0.77713
 H2137 H 0.61752 0.33637 0.70639
 H2138 H 0.64116 0.40445 0.68567
 H2139 H 0.58046 0.44690 0.78011
 H2140 H 0.59468 0.38142 0.81320
 H2141 H 0.62649 0.42043 0.72179
 H2142 H 0.59461 0.43147 0.74321
 H2143 H 0.60070 0.35273 0.74113
 H2144 H 0.61032 0.36628 0.77700
 C2145 C 1.26382 1.11291 1.11559
 C2146 C 1.26447 1.13558 1.12470
 C2147 C 1.28510 1.14484 1.13336
 C2148 C 1.30539 1.13148 1.13366
 C2149 C 1.30486 1.10876 1.12510
 C2150 C 1.28435 1.09963 1.11590
 C2151 C 1.24187 1.10331 1.10577
 C2152 C 1.23674 1.07949 1.10737
 C2153 C 1.21613 1.07061 1.09818
 C2154 C 1.19983 1.08534 1.08754
 C2155 C 1.20493 1.10916 1.08605
 C2156 C 1.22574 1.11795 1.09475
 H2157 H 1.28519 1.16237 1.14014
 H2158 H 1.32046 1.09827 1.12510
 H2159 H 1.21306 1.05212 1.09937
 H2160 H 1.19271 1.12120 1.07841
 H2161 H 1.28475 1.08231 1.10869
 H2162 H 1.24849 1.06766 1.11600
 H2163 H 1.24899 1.14618 1.12540
 H2164 H 1.22916 1.13629 1.09270
 C2165 C 1.26283 0.61590 0.61693
 C2166 C 1.27705 0.60282 0.63175
 C2167 C 1.29755 0.61213 0.64074
 C2168 C 1.30452 0.63509 0.63550
 C2169 C 1.28986 0.64815 0.62075
 C2170 C 1.26956 0.63866 0.61153
 C2171 C 1.24110 0.60587 0.60713
 C2172 C 1.22146 0.61992 0.60347
 C2173 C 1.20120 0.61062 0.59399
 C2174 C 1.19995 0.58699 0.58831
 C2175 C 1.21935 0.57282 0.59217
 C2176 C 1.23978 0.58218 0.60128
 H2177 H 1.30817 0.60067 0.65110
 H2178 H 1.29334 0.66610 0.61666
 H2179 H 1.18631 0.62180 0.59146
 H2180 H 1.21881 0.55457 0.58774
 H2181 H 1.25920 0.64925 0.59999
 H2182 H 1.22158 0.63808 0.60823
 H2183 H 1.27235 0.58529 0.63655
 H2184 H 1.25464 0.57090 0.60341
 C2185 C 0.76520 1.11395 0.61398
 C2186 C 0.77919 1.10097 0.62912
 C2187 C 0.79983 1.11017 0.63792
 C2188 C 0.80712 1.13289 0.63214
 C2189 C 0.79297 1.14566 0.61666
 C2190 C 0.77253 1.13628 0.60768
 C2191 C 0.74291 1.10443 0.60504
 C2192 C 0.72368 1.11909 0.60164
 C2193 C 0.70282 1.11033 0.59303
 C2194 C 0.70055 1.08664 0.58794
 C2195 C 0.71954 1.07185 0.59159
 C2196 C 0.74056 1.08067 0.59989
 H2197 H 0.81020 1.09895 0.64879
 H2198 H 0.79685 1.16340 0.61204
 H2199 H 0.68828 1.12200 0.59066
 H2200 H 0.71821 1.05354 0.58761
 H2201 H 0.76241 1.14671 0.59578
 H2202 H 0.72460 1.13734 0.60593
 H2203 H 0.77408 1.08371 0.63447
 H2204 H 0.75506 1.06891 0.60193
 C2205 C 0.76400 0.61346 1.11604
 C2206 C 0.76477 0.63611 1.12519
 C2207 C 0.78553 0.64539 1.13354
 C2208 C 0.80584 0.63206 1.13347
 C2209 C 0.80521 0.60936 1.12483
 C2210 C 0.78456 0.60022 1.11595
 C2211 C 0.74191 0.60385 1.10656
 C2212 C 0.73684 0.58002 1.10816
 C2213 C 0.71614 0.57111 1.09918
 C2214 C 0.69971 0.58584 1.08873
 C2215 C 0.70471 0.60968 1.08734
 C2216 C 0.72560 0.61849 1.09583
 H2217 H 0.78569 0.66287 1.14041
 H2218 H 0.82081 0.59888 1.12459
 H2219 H 0.71312 0.55261 1.10031
 H2220 H 0.69238 0.62172 1.07988
 H2221 H 0.78486 0.58292 1.10869
 H2222 H 0.74873 0.56818 1.11659
 H2223 H 0.74929 0.64668 1.12619
 H2224 H 0.72895 0.63685 1.09380
 C2225 C 1.26738 0.88796 0.88790
 C2226 C 1.28587 0.90215 0.88050
 C2227 C 1.30577 0.89251 0.87046
 C2228 C 1.30836 0.86829 0.86856
 C2229 C 1.29013 0.85411 0.87650
 C2230 C 1.26983 0.86377 0.88540
 C2231 C 1.24558 0.89812 0.89785
 C2232 C 1.23112 0.88482 0.91237
 C2233 C 1.21006 0.89357 0.92042
 C2234 C 1.20314 0.91646 0.91540
 C2235 C 1.21804 0.93014 0.90170
 C2236 C 1.23863 0.92098 0.89267
 H2237 H 1.31956 0.90411 0.86516
 H2238 H 1.29084 0.83544 0.87457
 H2239 H 1.19916 0.88197 0.93031
 H2240 H 1.21395 0.94801 0.89777
 H2241 H 1.25591 0.85200 0.88976
 H2242 H 1.23583 0.86746 0.91765
 H2243 H 1.28530 0.92076 0.88261
 H2244 H 1.24879 0.93192 0.88134
 C2245 C 1.26439 0.38685 0.38603
 C2246 C 1.27143 0.36434 0.39206
 C2247 C 1.29155 0.35466 0.38267
 C2248 C 1.30567 0.36728 0.36707
 C2249 C 1.29871 0.39019 0.36162
 C2250 C 1.27838 0.39969 0.37080
 C2251 C 1.24237 0.39669 0.39532
 C2252 C 1.24043 0.42047 0.40054
 C2253 C 1.21964 0.42959 0.40909
 C2254 C 1.20050 0.41507 0.41295
 C2255 C 1.20236 0.39137 0.40782
 C2256 C 1.22298 0.38230 0.39894
 H2257 H 1.29515 0.33682 0.38712
 H2258 H 1.30912 0.40134 0.35072
 H2259 H 1.21861 0.44792 0.41309
 H2260 H 1.18769 0.37990 0.41035
 H2261 H 1.27350 0.41708 0.36565
 H2262 H 1.25507 0.43202 0.39834
 H2263 H 1.26132 0.35401 0.40403
 H2264 H 1.22357 0.36405 0.39460
 C2265 C 0.76214 0.88449 0.38333
 C2266 C 0.76703 0.86066 0.38537
 C2267 C 0.78720 0.85127 0.37580
 C2268 C 0.80338 0.86550 0.36435
 C2269 C 0.79854 0.88933 0.36236
 C2270 C 0.77811 0.89865 0.37150
 C2271 C 0.74055 0.89449 0.39355
 C2272 C 0.74026 0.91730 0.40232
 C2273 C 0.71997 0.92669 0.41171
 C2274 C 0.69972 0.91331 0.41304
 C2275 C 0.69991 0.89053 0.40457
 C2276 C 0.72002 0.88129 0.39469
 H2277 H 0.79000 0.83277 0.37733
 H2278 H 0.81067 0.90096 0.35400
 H2279 H 0.72014 0.94429 0.41829
 H2280 H 0.68433 0.88004 0.40521
 H2281 H 0.77484 0.91698 0.36914
 H2282 H 0.75576 0.92788 0.40226
 H2283 H 0.75543 0.84918 0.39464
 H2284 H 0.71929 0.86391 0.38767
 C2285 C 0.76473 0.38695 0.88715
 C2286 C 0.77113 0.36387 0.89156
 C2287 C 0.79138 0.35453 0.88211
 C2288 C 0.80639 0.36805 0.86816
 C2289 C 0.80001 0.39145 0.86430
 C2290 C 0.77950 0.40061 0.87344
 C2291 C 0.74264 0.39656 0.89660
 C2292 C 0.74094 0.42004 0.90316
 C2293 C 0.72010 0.42900 0.91178
 C2294 C 0.70069 0.41458 0.91446
 C2295 C 0.70231 0.39117 0.90809
 C2296 C 0.72296 0.38231 0.89905
 H2297 H 0.79441 0.33631 0.88522
 H2298 H 0.81096 0.40328 0.85478
 H2299 H 0.71922 0.44710 0.91675
 H2300 H 0.68742 0.37983 0.90974
 H2301 H 0.77515 0.41844 0.86949
 H2302 H 0.75577 0.43148 0.90197
 H2303 H 0.76044 0.35283 0.90234
 H2304 H 0.72332 0.36433 0.89367
 C2305 C 0.73672 0.88308 1.11438
 C2306 C 0.71604 0.88325 1.10135
 C2307 C 0.69560 0.87393 1.11045
 C2308 C 0.69525 0.86474 1.13294
 C2309 C 0.71568 0.86457 1.14609
 C2310 C 0.73628 0.87338 1.13682
 C2311 C 0.75854 0.89311 1.10472
 C2312 C 0.77491 0.90378 1.11935
 C2313 C 0.79548 0.91292 1.11038
 C2314 C 0.80008 0.91216 1.08643
 C2315 C 0.78356 0.90180 1.07175
 C2316 C 0.76323 0.89220 1.08079
 H2317 H 0.67989 0.87438 1.10015
 H2318 H 0.71573 0.85738 1.16345
 H2319 H 0.80789 0.92032 1.12235
 H2320 H 0.78624 0.90117 1.05319
 H2321 H 0.75187 0.87237 1.14722
 H2322 H 0.77184 0.90527 1.13780
 H2323 H 0.71545 0.89097 1.08425
 H2324 H 0.75131 0.88383 1.06895
 C2325 C 0.73694 0.38291 0.61585
 C2326 C 0.72248 0.36850 0.60261
 C2327 C 0.70186 0.35971 0.61181
 C2328 C 0.69501 0.36471 0.63485
 C2329 C 0.70992 0.37900 0.64812
 C2330 C 0.73035 0.38804 0.63871
 C2331 C 0.75875 0.39261 0.60588
 C2332 C 0.77846 0.39593 0.61992
 C2333 C 0.79876 0.40540 0.61069
 C2334 C 0.79997 0.41141 0.58715
 C2335 C 0.78053 0.40786 0.57297
 C2336 C 0.76006 0.39876 0.58227
 H2337 H 0.69104 0.34972 0.60023
 H2338 H 0.70656 0.38285 0.66612
 H2339 H 0.81368 0.40771 0.62187
 H2340 H 0.78105 0.41255 0.55479
 H2341 H 0.74089 0.39926 0.64945
 H2342 H 0.77836 0.39094 0.63801
 H2343 H 0.72707 0.36390 0.58500
 H2344 H 0.74516 0.39691 0.57100
 C2345 C 0.23599 0.88477 0.61151
 C2346 C 0.21957 0.89943 0.62206
 C2347 C 0.19906 0.89042 0.63136
 C2348 C 0.19459 0.86643 0.63081
 C2349 C 0.21107 0.85179 0.62035
 C2350 C 0.23130 0.86085 0.61059
 C2351 C 0.25800 0.89429 0.60176
 C2352 C 0.27856 0.88105 0.60221
 C2353 C 0.29915 0.88986 0.59299
 C2354 C 0.29981 0.91227 0.58364
 C2355 C 0.27955 0.92570 0.58333
 C2356 C 0.25878 0.91671 0.59204
 H2357 H 0.18669 0.90234 0.63890
 H2358 H 0.20859 0.83319 0.61992
 H2359 H 0.31473 0.87937 0.59361
 H2360 H 0.27978 0.94303 0.57606
 H2361 H 0.24320 0.84898 0.60225
 H2362 H 0.27892 0.86399 0.61003
 H2363 H 0.22262 0.91789 0.62349
 H2364 H 0.24332 0.92729 0.59090
 C2365 C 0.23688 0.38344 1.11585
 C2366 C 0.22253 0.39694 1.13015
 C2367 C 0.20208 0.38782 1.13942
 C2368 C 0.19535 0.36461 1.13509
 C2369 C 0.21014 0.35112 1.12089
 C2370 C 0.23034 0.36044 1.11132
 C2371 C 0.25856 0.39327 1.10573
 C2372 C 0.27825 0.37920 1.10242
 C2373 C 0.29849 0.38834 1.09274
 C2374 C 0.29966 0.41184 1.08657
 C2375 C 0.28022 0.42603 1.09001
 C2376 C 0.25979 0.41681 1.09927
 H2377 H 0.19132 0.39955 1.14930
 H2378 H 0.20683 0.33299 1.11751
 H2379 H 0.31343 0.37717 1.09050
 H2380 H 0.28075 0.44420 1.08521
 H2381 H 0.24078 0.34950 1.10019
 H2382 H 0.27821 0.36117 1.10763
 H2383 H 0.22707 0.41468 1.13430
 H2384 H 0.24491 0.42810 1.10107
 C2385 C 0.73547 1.11347 0.88683
 C2386 C 0.72779 1.10689 0.86470
 C2387 C 0.70727 1.11587 0.85547
 C2388 C 0.69338 1.13161 0.86818
 C2389 C 0.70110 1.13776 0.89066
 C2390 C 0.72181 1.12895 0.89972
 C2391 C 0.75777 1.10441 0.89627
 C2392 C 0.76027 1.09953 0.92007
 C2393 C 0.78128 1.09114 0.92884
 C2394 C 0.80012 1.08714 0.91396
 C2395 C 0.79769 1.09195 0.89023
 C2396 C 0.77683 1.10064 0.88151
 H2397 H 0.70310 1.11098 0.83787
 H2398 H 0.69102 1.14887 0.90187
 H2399 H 0.78271 1.08736 0.94719
 H2400 H 0.81210 1.08932 0.87847
 H2401 H 0.72721 1.13453 0.91680
 H2402 H 0.74588 1.10185 0.93191
 H2403 H 0.73769 1.09476 0.85434
 H2404 H 0.77578 1.10470 0.86321
 C2405 C 0.73625 0.61488 0.38441
 C2406 C 0.71574 0.60158 0.38419
 C2407 C 0.69530 0.61050 0.37467
 C2408 C 0.69475 0.63306 0.36563
 C2409 C 0.71502 0.64647 0.36588
 C2410 C 0.73562 0.63740 0.37492
 C2411 C 0.75813 0.60534 0.39448
 C2412 C 0.77423 0.62000 0.40550
 C2413 C 0.79492 0.61115 0.41455
 C2414 C 0.79991 0.58729 0.41329
 C2415 C 0.78362 0.57257 0.40263
 C2416 C 0.76316 0.58149 0.39316
 H2417 H 0.67974 0.59997 0.37482
 H2418 H 0.71496 0.66388 0.35879
 H2419 H 0.80713 0.62315 0.42224
 H2420 H 0.78660 0.55406 0.40164
 H2421 H 0.75108 0.64801 0.37422
 H2422 H 0.77088 0.63837 0.40731
 H2423 H 0.71530 0.58440 0.39173
 H2424 H 0.75146 0.56964 0.38452
 C2425 C 0.23622 1.11518 0.38343
 C2426 C 0.21748 1.10067 0.37748
 C2427 C 0.19716 1.10979 0.36789
 C2428 C 0.19437 1.13389 0.36494
 C2429 C 0.21297 1.14845 0.37118
 C2430 C 0.23369 1.13922 0.37973
 C2431 C 0.25815 1.10539 0.39346
 C2432 C 0.27281 1.11908 0.40742
 C2433 C 0.29355 1.11018 0.41624
 C2434 C 0.29997 1.08694 0.41234
 C2435 C 0.28502 1.07305 0.39893
 C2436 C 0.26476 1.08223 0.38925
 H2437 H 0.18312 1.09792 0.36402
 H2438 H 0.21205 1.16701 0.36843
 H2439 H 0.30460 1.12184 0.42592
 H2440 H 0.28878 1.05494 0.39582
 H2441 H 0.24778 1.15112 0.38307
 H2442 H 0.26838 1.13676 0.41177
 H2443 H 0.21809 1.08219 0.38061
 H2444 H 0.25451 1.07103 0.37827
 C2445 C 0.23408 0.61170 0.88993
 C2446 C 0.21772 0.59751 0.87867
 C2447 C 0.19719 0.60690 0.86978
 C2448 C 0.19264 0.63083 0.87149
 C2449 C 0.20884 0.64491 0.88308
 C2450 C 0.22908 0.63545 0.89241
 C2451 C 0.25649 0.60201 0.89855
 C2452 C 0.27675 0.61566 0.89834
 C2453 C 0.29770 0.60686 0.90670
 C2454 C 0.29903 0.58404 0.91492
 C2455 C 0.27911 0.57011 0.91479
 C2456 C 0.25797 0.57908 0.90692
 H2457 H 0.18498 0.59537 0.86140
 H2458 H 0.20628 0.66345 0.88449
 H2459 H 0.31300 0.61776 0.90646
 H2460 H 0.27985 0.55247 0.92123
 H2461 H 0.24088 0.64690 0.90145
 H2462 H 0.27659 0.63312 0.89145
 H2463 H 0.22096 0.57919 0.87618
 H2464 H 0.24275 0.56812 0.90774
 C2465 C 1.11380 1.26470 1.11413
 C2466 C 1.10090 1.28547 1.11422
 C2467 C 1.11016 1.30575 1.12383
 C2468 C 1.13265 1.30576 1.13307
 C2469 C 1.14563 1.28522 1.13292
 C2470 C 1.13624 1.26486 1.12381
 C2471 C 1.10403 1.24293 1.10411
 C2472 C 1.11863 1.22657 1.09341
 C2473 C 1.10975 1.20575 1.08484
 C2474 C 1.08589 1.20085 1.08616
 C2475 C 1.07117 1.21741 1.09640
 C2476 C 1.08014 1.23806 1.10544
 H2477 H 1.09994 1.32152 1.12374
 H2478 H 1.16293 1.28486 1.14025
 H2479 H 1.12177 1.19334 1.07751
 H2480 H 1.05266 1.21449 1.09743
 H2481 H 1.14652 1.24918 1.12471
 H2482 H 1.13703 1.22980 1.09157
 H2483 H 1.08376 1.28621 1.10660
 H2484 H 1.06833 1.25002 1.11379
 C2485 C 1.11404 0.76383 0.61499
 C2486 C 1.10097 0.78449 0.61505
 C2487 C 1.11026 0.80496 0.62418
 C2488 C 1.13294 0.80529 0.63291
 C2489 C 1.14610 0.78488 0.63280
 C2490 C 1.13668 0.76430 0.62422
 C2491 C 1.10425 0.74192 0.60531
 C2492 C 1.11878 0.72557 0.59450
 C2493 C 1.10982 0.70480 0.58591
 C2494 C 1.08594 0.69995 0.58729
 C2495 C 1.07133 0.71643 0.59779
 C2496 C 1.08038 0.73702 0.60687
 H2497 H 1.09992 0.82065 0.62407
 H2498 H 1.16357 0.78482 0.63973
 H2499 H 1.12178 0.69242 0.57842
 H2500 H 1.05281 0.71353 0.59891
 H2501 H 1.14711 0.74872 0.62510
 H2502 H 1.13715 0.72881 0.59249
 H2503 H 1.08369 0.78502 0.60775
 H2504 H 1.06863 0.74894 0.61536
 C2505 C 0.61174 1.26488 0.61472
 C2506 C 0.62429 1.28017 0.60041
 C2507 C 0.63361 1.30070 0.60934
 C2508 C 0.63104 1.30631 0.63294
 C2509 C 0.61854 1.29099 0.64724
 C2510 C 0.60881 1.27075 0.63821
 C2511 C 0.60204 1.24280 0.60536
 C2512 C 0.60064 1.22288 0.61945
 C2513 C 0.59146 1.20221 0.61080
 C2514 C 0.58395 1.20081 0.58773
 C2515 C 0.58548 1.22046 0.57348
 C2516 C 0.59419 1.24132 0.58226
 H2517 H 0.64281 1.31219 0.59769
 H2518 H 0.61649 1.29441 0.66558
 H2519 H 0.59069 1.18711 0.62196
 H2520 H 0.57964 1.21971 0.55564
 H2521 H 0.59890 1.25974 0.64974
 H2522 H 0.60701 1.22305 0.63711
 H2523 H 0.62725 1.27617 0.58232
 H2524 H 0.59453 1.25632 0.57099
 C2525 C 0.61037 0.76627 1.11306
 C2526 C 0.60790 0.77191 1.13666
 C2527 C 0.61757 0.79219 1.14564
 C2528 C 0.62951 0.80784 1.13120
 C2529 C 0.63131 0.80261 1.10743
 C2530 C 0.62208 0.78201 1.09853
 C2531 C 0.60121 0.74386 1.10388
 C2532 C 0.59301 0.74205 1.08093
 C2533 C 0.58481 0.72087 1.07236
 C2534 C 0.58415 0.70125 1.08671
 C2535 C 0.59208 0.70295 1.10960
 C2536 C 0.60078 0.72392 1.11802
 H2537 H 0.61610 0.79526 1.16409
 H2538 H 0.63998 0.81435 1.09563
 H2539 H 0.57863 0.71987 1.05465
 H2540 H 0.59196 0.68788 1.12083
 H2541 H 0.62461 0.77825 1.08033
 H2542 H 0.59264 0.75701 1.06961
 H2543 H 0.59856 0.76060 1.14836
 H2544 H 0.60749 0.72432 1.13554
 C2545 C 0.88570 1.26545 0.88577
 C2546 C 0.89876 1.28612 0.88548
 C2547 C 0.88954 1.30646 0.87601
 C2548 C 0.86691 1.30671 0.86715
 C2549 C 0.85372 1.28632 0.86753
 C2550 C 0.86309 1.26584 0.87647
 C2551 C 0.89551 1.24362 0.89567
 C2552 C 0.88102 1.22728 0.90654
 C2553 C 0.89002 1.20654 0.91524
 C2554 C 0.91391 1.20173 0.91388
 C2555 C 0.92850 1.21826 0.90340
 C2556 C 0.91940 1.23879 0.89421
 H2557 H 0.89990 1.32214 0.87594
 H2558 H 0.83627 1.28619 0.86053
 H2559 H 0.87809 1.19415 0.92275
 H2560 H 0.94702 1.21542 0.90232
 H2561 H 0.85265 1.25026 0.87577
 H2562 H 0.86262 1.23047 0.90847
 H2563 H 0.91601 1.28673 0.89285
 H2564 H 0.93114 1.25069 0.88569
 C2565 C 0.88610 0.76619 0.38799
 C2566 C 0.86360 0.76623 0.37846
 C2567 C 0.85425 0.78640 0.36889
 C2568 C 0.86733 0.80686 0.36809
 C2569 C 0.88989 0.80696 0.37716
 C2570 C 0.89910 0.78689 0.38728
 C2571 C 0.89587 0.74457 0.39838
 C2572 C 0.91974 0.73963 0.39706
 C2573 C 0.92868 0.71902 0.40622
 C2574 C 0.91394 0.70251 0.41654
 C2575 C 0.89011 0.70754 0.41797
 C2576 C 0.88127 0.72836 0.40932
 H2577 H 0.83690 0.78595 0.36168
 H2578 H 0.90019 0.82267 0.37674
 H2579 H 0.94718 0.71604 0.40515
 H2580 H 0.87806 0.69521 0.42539
 H2581 H 0.91630 0.78774 0.39475
 H2582 H 0.93157 0.75146 0.38855
 H2583 H 0.85324 0.75059 0.37800
 H2584 H 0.86289 0.73166 0.41122
 C2585 C 0.38550 1.26532 0.38609
 C2586 C 0.38513 1.28609 0.39898
 C2587 C 0.37542 1.30629 0.38962
 C2588 C 0.36635 1.30622 0.36706
 C2589 C 0.36677 1.28567 0.35412
 C2590 C 0.37598 1.26539 0.36360
 C2591 C 0.39570 1.24366 0.39592
 C2592 C 0.40677 1.22750 0.38140
 C2593 C 0.41555 1.20677 0.39031
 C2594 C 0.41406 1.20180 0.41415
 C2595 C 0.40343 1.21816 0.42879
 C2596 C 0.39419 1.23872 0.41978
 H2597 H 0.37531 1.32206 0.39982
 H2598 H 0.35956 1.28524 0.33677
 H2599 H 0.42319 1.19450 0.37835
 H2600 H 0.40225 1.21516 0.44728
 H2601 H 0.37531 1.24970 0.35333
 H2602 H 0.40875 1.23080 0.36303
 H2603 H 0.39262 1.28689 0.41617
 H2604 H 0.38555 1.25054 0.43151
 C2605 C 0.38354 0.76199 0.88363
 C2606 C 0.39798 0.77805 0.87227
 C2607 C 0.38891 0.79856 0.86309
 C2608 C 0.36504 0.80342 0.86454
 C2609 C 0.35051 0.78712 0.87543
 C2610 C 0.35966 0.76684 0.88506
 C2611 C 0.39334 0.74040 0.89401
 C2612 C 0.38022 0.71980 0.89471
 C2613 C 0.38935 0.69966 0.90464
 C2614 C 0.41195 0.69953 0.91360
 C2615 C 0.42522 0.71986 0.91280
 C2616 C 0.41594 0.74017 0.90337
 H2617 H 0.40077 0.81078 0.85518
 H2618 H 0.33198 0.78995 0.87653
 H2619 H 0.37896 0.68401 0.90490
 H2620 H 0.44267 0.72006 0.91978
 H2621 H 0.34796 0.75515 0.89393
 H2622 H 0.36301 0.71905 0.88727
 H2623 H 0.41637 0.77480 0.87035
 H2624 H 0.42642 0.75573 0.90369
 C2625 C 1.11499 0.73606 0.88530
 C2626 C 1.12461 0.73533 0.86286
 C2627 C 1.13349 0.71466 0.85388
 C2628 C 1.13344 0.69438 0.86730
 C2629 C 1.12415 0.69498 0.88975
 C2630 C 1.11478 0.71554 0.89858
 C2631 C 1.10530 0.75812 0.89475
 C2632 C 1.10672 0.76325 0.91857
 C2633 C 1.09771 0.78398 0.92735
 C2634 C 1.08741 0.80039 0.91250
 C2635 C 1.08611 0.79531 0.88867
 C2636 C 1.09467 0.77439 0.87998
 H2637 H 1.14085 0.71458 0.83660
 H2638 H 1.12383 0.67944 0.90030
 H2639 H 1.09875 0.78706 0.94583
 H2640 H 1.07871 0.80761 0.87657
 H2641 H 1.10714 0.71522 0.91571
 H2642 H 1.11508 0.75140 0.93050
 H2643 H 1.12566 0.75079 0.85228
 H2644 H 1.09281 0.77098 0.86162
 C2645 C 1.11525 0.23687 0.38501
 C2646 C 1.11157 0.23076 0.36168
 C2647 C 1.12086 0.21032 0.35261
 C2648 C 1.13370 0.19509 0.36672
 C2649 C 1.13722 0.20107 0.39010
 C2650 C 1.12831 0.22176 0.39907
 C2651 C 1.10554 0.25886 0.39457
 C2652 C 1.09826 0.26026 0.41785
 C2653 C 1.08933 0.28096 0.42679
 C2654 C 1.08702 0.30053 0.41254
 C2655 C 1.09403 0.29922 0.38930
 C2656 C 1.10342 0.27871 0.38047
 H2657 H 1.11807 0.20656 0.33443
 H2658 H 1.14669 0.18966 0.40163
 H2659 H 1.08388 0.28162 0.44475
 H2660 H 1.09265 0.31426 0.37811
 H2661 H 1.13188 0.22597 0.41700
 H2662 H 1.09914 0.24530 0.42915
 H2663 H 1.10129 0.24166 0.35036
 H2664 H 1.10931 0.27858 0.36266
 C2665 C 0.61482 0.73591 0.38574
 C2666 C 0.61145 0.73008 0.36229
 C2667 C 0.62061 0.70960 0.35318
 C2668 C 0.63296 0.69403 0.36735
 C2669 C 0.63606 0.69967 0.39088
 C2670 C 0.62730 0.72041 0.39990
 C2671 C 0.60546 0.75807 0.39526
 C2672 C 0.59776 0.75952 0.41840
 C2673 C 0.58908 0.78037 0.42726
 C2674 C 0.58747 0.80004 0.41305
 C2675 C 0.59496 0.79870 0.38997
 C2676 C 0.60409 0.77804 0.38123
 H2677 H 0.61817 0.70614 0.33489
 H2678 H 0.64516 0.68801 0.40245
 H2679 H 0.58325 0.78106 0.44510
 H2680 H 0.59412 0.81381 0.37882
 H2681 H 0.63058 0.72438 0.41794
 H2682 H 0.59808 0.74449 0.42963
 H2683 H 0.60159 0.74127 0.35088
 H2684 H 0.61035 0.77787 0.36355
 C2685 C 0.61551 0.23530 0.88485
 C2686 C 0.60229 0.21474 0.88498
 C2687 C 0.61118 0.19425 0.87556
 C2688 C 0.63363 0.19372 0.86629
 C2689 C 0.64698 0.21403 0.86620
 C2690 C 0.63793 0.23467 0.87514
 C2691 C 0.60599 0.25723 0.89480
 C2692 C 0.62069 0.27351 0.90548
 C2693 C 0.61184 0.29422 0.91445
 C2694 C 0.58794 0.29905 0.91347
 C2695 C 0.57318 0.28260 0.90312
 C2696 C 0.58209 0.26213 0.89370
 H2697 H 0.60071 0.17865 0.87595
 H2698 H 0.66431 0.21395 0.85894
 H2699 H 0.62387 0.30655 0.92189
 H2700 H 0.55464 0.28545 0.90234
 H2701 H 0.64847 0.25017 0.87417
 H2702 H 0.63911 0.27028 0.90710
 H2703 H 0.58520 0.21430 0.89271
 H2704 H 0.57019 0.25029 0.88532
 C2705 C 0.88576 0.73437 1.11080
 C2706 C 0.90043 0.71736 1.12036
 C2707 C 0.89130 0.69694 1.12972
 C2708 C 0.86720 0.69316 1.13028
 C2709 C 0.85254 0.71013 1.12065
 C2710 C 0.86169 0.73029 1.11082
 C2711 C 0.89542 0.75638 1.10118
 C2712 C 0.88279 0.77724 1.10275
 C2713 C 0.89175 0.79785 1.09371
 C2714 C 0.91374 0.79818 1.08341
 C2715 C 0.92660 0.77762 1.08198
 C2716 C 0.91743 0.75685 1.09053
 H2717 H 0.90323 0.68412 1.13650
 H2718 H 0.83388 0.70807 1.12100
 H2719 H 0.88171 0.81368 1.09513
 H2720 H 0.94358 0.77761 1.07395
 H2721 H 0.84979 0.74266 1.10321
 H2722 H 0.86609 0.77782 1.11129
 H2723 H 0.91902 0.71990 1.12100
 H2724 H 0.92752 0.74115 1.08853
 C2725 C 0.88728 0.23470 0.61083
 C2726 C 0.90173 0.21850 0.62204
 C2727 C 0.89258 0.19799 0.63125
 C2728 C 0.86866 0.19332 0.62994
 C2729 C 0.85429 0.20945 0.61856
 C2730 C 0.86349 0.22964 0.60891
 C2731 C 0.89680 0.25692 0.60154
 C2732 C 0.88315 0.27720 0.60151
 C2733 C 0.89185 0.29799 0.59264
 C2734 C 0.91457 0.29914 0.58411
 C2735 C 0.92844 0.27918 0.58438
 C2736 C 0.91957 0.25820 0.59276
 H2737 H 0.90433 0.18585 0.63944
 H2738 H 0.83574 0.20673 0.61745
 H2739 H 0.88099 0.31333 0.59282
 H2740 H 0.94601 0.27977 0.57775
 H2741 H 0.85182 0.24131 0.59995
 H2742 H 0.86580 0.27721 0.60866
 H2743 H 0.92008 0.22179 0.62415
 H2744 H 0.93051 0.24296 0.59206
 C2745 C 0.38676 0.73438 0.61230
 C2746 C 0.36406 0.73426 0.62134
 C2747 C 0.35459 0.71405 0.63071
 C2748 C 0.36773 0.69364 0.63180
 C2749 C 0.39047 0.69362 0.62320
 C2750 C 0.39982 0.71372 0.61329
 C2751 C 0.39667 0.75601 0.60209
 C2752 C 0.42048 0.76105 0.60395
 C2753 C 0.42955 0.78163 0.59483
 C2754 C 0.41499 0.79797 0.58401
 C2755 C 0.39120 0.79288 0.58211
 C2756 C 0.38225 0.77210 0.59073
 H2757 H 0.33710 0.71446 0.63757
 H2758 H 0.40083 0.67796 0.62384
 H2759 H 0.44801 0.78468 0.59631
 H2760 H 0.37928 0.80510 0.57431
 H2761 H 0.41717 0.71294 0.60619
 H2762 H 0.43215 0.74931 0.61281
 H2763 H 0.35364 0.74986 0.62155
 H2764 H 0.36392 0.76873 0.58845
 C2765 C 0.38530 0.23395 1.11101
 C2766 C 0.36129 0.22961 1.11061
 C2767 C 0.35218 0.20940 1.12037
 C2768 C 0.36685 0.19263 1.13034
 C2769 C 0.39092 0.19668 1.13023
 C2770 C 0.39999 0.21716 1.12093
 C2771 C 0.39488 0.25602 1.10147
 C2772 C 0.41706 0.25669 1.09121
 C2773 C 0.42612 0.27753 1.08271
 C2774 C 0.41300 0.29794 1.08380
 C2775 C 0.39084 0.29741 1.09373
 C2776 C 0.38197 0.27674 1.10272
 H2777 H 0.33355 0.20717 1.12040
 H2778 H 0.40285 0.18404 1.13731
 H2779 H 0.44324 0.27767 1.07496
 H2780 H 0.38059 0.31312 1.09489
 H2781 H 0.41853 0.21992 1.12191
 H2782 H 0.42737 0.24111 1.08947
 H2783 H 0.34940 0.24181 1.10272
 H2784 H 0.36513 0.27717 1.11098
 C2785 C 1.11289 1.11422 0.73387
 C2786 C 1.12548 1.10006 0.71849
 C2787 C 1.13434 1.10906 0.69779
 C2788 C 1.13124 1.13259 0.69208
 C2789 C 1.11872 1.14675 0.70750
 C2790 C 1.10947 1.13765 0.72794
 C2791 C 1.10355 1.10471 0.75604
 C2792 C 1.10211 1.11878 0.77596
 C2793 C 1.09314 1.11001 0.79668
 C2794 C 1.08589 1.08685 0.79812
 C2795 C 1.08754 1.07261 0.77849
 C2796 C 1.09604 1.08150 0.75759
 H2797 H 1.14353 1.09749 0.68623
 H2798 H 1.11626 1.16503 0.70396
 H2799 H 1.09226 1.12119 0.81175
 H2800 H 1.08188 1.05471 0.77926
 H2801 H 1.09952 1.14905 0.73904
 H2802 H 1.10821 1.13653 0.77572
 H2803 H 1.12882 1.08204 0.72252
 H2804 H 1.09642 1.07023 0.74260
 C2805 C 1.11252 0.61505 0.23441
 C2806 C 1.12794 0.60185 0.22097
 C2807 C 1.13705 0.61064 0.20030
 C2808 C 1.13129 0.63315 0.19237
 C2809 C 1.11569 0.64623 0.20607
 C2810 C 1.10639 0.63727 0.22657
 C2811 C 1.10305 0.60579 0.25661
 C2812 C 1.09920 0.62063 0.27561
 C2813 C 1.09038 0.61199 0.29645
 C2814 C 1.08551 0.58827 0.29892
 C2815 C 1.08943 0.57336 0.28010
 C2816 C 1.09794 0.58204 0.25911
 H2817 H 1.14807 0.59918 0.19038
 H2818 H 1.11113 0.66389 0.20173
 H2819 H 1.08779 0.62378 0.31084
 H2820 H 1.08559 0.55502 0.28154
 H2821 H 1.09435 0.64789 0.23630
 H2822 H 1.10339 0.63890 0.27455
 H2823 H 1.13323 0.58471 0.22651
 H2824 H 1.10025 0.57015 0.24478
 C2825 C 0.61667 1.11681 0.23751
 C2826 C 0.64059 1.11539 0.23283
 C2827 C 0.64977 1.12443 0.21230
 C2828 C 0.63524 1.13469 0.19559
 C2829 C 0.61130 1.13592 0.20017
 C2830 C 0.60219 1.12735 0.22092
 C2831 C 0.60690 1.10734 0.25953
 C2832 C 0.58436 1.09788 0.26019
 C2833 C 0.57518 1.08919 0.28088
 C2834 C 0.58853 1.08925 0.30119
 C2835 C 0.61103 1.09842 0.30067
 C2836 C 0.62003 1.10762 0.28015
 H2837 H 0.66833 1.12348 0.20968
 H2838 H 0.59945 1.14333 0.18762
 H2839 H 0.55782 1.08202 0.28098
 H2840 H 0.62148 1.09878 0.31628
 H2841 H 0.58376 1.12920 0.22397
 H2842 H 0.57386 1.09684 0.24468
 H2843 H 0.65231 1.10708 0.24490
 H2844 H 0.63719 1.11521 0.28058
 C2845 C 0.61242 0.61413 0.73544
 C2846 C 0.60961 0.63769 0.72971
 C2847 C 0.61902 0.64671 0.70930
 C2848 C 0.63107 0.63234 0.69370
 C2849 C 0.63344 0.60866 0.69917
 C2850 C 0.62446 0.59974 0.71984
 C2851 C 0.60312 0.60474 0.75769
 C2852 C 0.59514 0.58168 0.75925
 C2853 C 0.58678 0.57287 0.78024
 C2854 C 0.58573 0.58705 0.79995
 C2855 C 0.59342 0.61006 0.79850
 C2856 C 0.60226 0.61875 0.77769
 H2857 H 0.61712 0.66509 0.70599
 H2858 H 0.64222 0.59692 0.68746
 H2859 H 0.58077 0.55509 0.78103
 H2860 H 0.59297 0.62119 0.81363
 H2861 H 0.62731 0.58160 0.72370
 H2862 H 0.59506 0.57047 0.74421
 H2863 H 0.60008 0.64929 0.74097
 H2864 H 0.60874 0.63636 0.77745
 C2865 C 0.88580 0.88564 0.73483
 C2866 C 0.88562 0.89870 0.71416
 C2867 C 0.87619 0.88949 0.69381
 C2868 C 0.86728 0.86689 0.69357
 C2869 C 0.86758 0.85370 0.71396
 C2870 C 0.87648 0.86305 0.73444
 C2871 C 0.89560 0.89546 0.75668
 C2872 C 0.90642 0.88095 0.77306
 C2873 C 0.91507 0.88995 0.79380
 C2874 C 0.91373 0.91384 0.79857
 C2875 C 0.90326 0.92844 0.78204
 C2876 C 0.89411 0.91934 0.76150
 H2877 H 0.87615 0.89986 0.67814
 H2878 H 0.86050 0.83629 0.71410
 H2879 H 0.92256 0.87801 0.80620
 H2880 H 0.90218 0.94696 0.78487
 H2881 H 0.87570 0.85262 0.75003
 H2882 H 0.90837 0.86256 0.76989
 H2883 H 0.89302 0.91593 0.71356
 H2884 H 0.88561 0.93108 0.74957
 C2885 C 0.88941 0.38836 0.23292
 C2886 C 0.87704 0.40250 0.21733
 C2887 C 0.86802 0.39334 0.19678
 C2888 C 0.87071 0.36968 0.19143
 C2889 C 0.88325 0.35560 0.20693
 C2890 C 0.89269 0.36486 0.22722
 C2891 C 0.89846 0.39788 0.25522
 C2892 C 0.89947 0.38383 0.27519
 C2893 C 0.90811 0.39257 0.29604
 C2894 C 0.91545 0.41568 0.29758
 C2895 C 0.91419 0.42994 0.27792
 C2896 C 0.90601 0.42107 0.25687
 H2897 H 0.85883 0.40484 0.18512
 H2898 H 0.88541 0.33724 0.20373
 H2899 H 0.90871 0.38139 0.31113
 H2900 H 0.91993 0.44781 0.27878
 H2901 H 0.90252 0.35348 0.23845
 H2902 H 0.89327 0.36611 0.27488
 H2903 H 0.87387 0.42060 0.22116
 H2904 H 0.90593 0.43233 0.24186
 C2905 C 0.38697 0.88758 0.23438
 C2906 C 0.36328 0.89038 0.22922
 C2907 C 0.35373 0.88076 0.20915
 C2908 C 0.36767 0.86851 0.19334
 C2909 C 0.39148 0.86618 0.19819
 C2910 C 0.40095 0.87538 0.21853
 C2911 C 0.39689 0.89704 0.25632
 C2912 C 0.41996 0.90507 0.25728
 C2913 C 0.42921 0.91370 0.27799
 C2914 C 0.41545 0.91494 0.29798
 C2915 C 0.39246 0.90713 0.29713
 C2916 C 0.38335 0.89803 0.27663
 H2917 H 0.33527 0.88265 0.20631
 H2918 H 0.40289 0.85722 0.18628
 H2919 H 0.44698 0.91979 0.27831
 H2920 H 0.38167 0.90770 0.31250
 H2921 H 0.41919 0.87255 0.22196
 H2922 H 0.43083 0.90502 0.24199
 H2923 H 0.35198 0.90005 0.24067
 H2924 H 0.36576 0.89149 0.27685
 C2925 C 0.39181 0.38884 0.73226
 C2926 C 0.39468 0.36527 0.72667
 C2927 C 0.38506 0.35606 0.70646
 C2928 C 0.37279 0.37025 0.69083
 C2929 C 0.37068 0.39402 0.69595
 C2930 C 0.37987 0.40315 0.71648
 C2931 C 0.40067 0.39815 0.75473
 C2932 C 0.40855 0.42121 0.75664
 C2933 C 0.41652 0.42984 0.77788
 C2934 C 0.41725 0.41547 0.79748
 C2935 C 0.40956 0.39249 0.79570
 C2936 C 0.40111 0.38400 0.77466
 H2937 H 0.38676 0.33761 0.70351
 H2938 H 0.36172 0.40562 0.68421
 H2939 H 0.42251 0.44762 0.77893
 H2940 H 0.40971 0.38123 0.81074
 H2941 H 0.37707 0.42133 0.72018
 H2942 H 0.40886 0.43255 0.74169
 H2943 H 0.40422 0.35374 0.73800
 H2944 H 0.39461 0.36640 0.77419
 C2945 C 1.11475 0.88342 1.26516
 C2946 C 1.13894 0.88130 1.26800
 C2947 C 1.14844 0.87302 1.28868
 C2948 C 1.13410 0.86533 1.30687
 C2949 C 1.10989 0.86668 1.30381
 C2950 C 1.10041 0.87611 1.28357
 C2951 C 1.10467 0.89318 1.24321
 C2952 C 1.08180 0.88801 1.23628
 C2953 C 1.07245 0.89739 1.21594
 C2954 C 1.08595 0.91145 1.20122
 C2955 C 1.10895 0.91623 1.20794
 C2956 C 1.11790 0.90780 1.22879
 H2957 H 1.16713 0.87150 1.28981
 H2958 H 1.09816 0.86159 1.31756
 H2959 H 1.05454 0.89354 1.21196
 H2960 H 1.12041 0.92634 1.19709
 H2961 H 1.08178 0.87797 1.28274
 H2962 H 1.07093 0.87651 1.24633
 H2963 H 1.15084 0.88561 1.25419
 H2964 H 1.13530 0.91300 1.23342
 C2965 C 1.10975 0.38814 0.76761
 C2966 C 1.10412 0.36563 0.77493
 C2967 C 1.11365 0.35638 0.79518
 C2968 C 1.12898 0.36944 0.80922
 C2969 C 1.13377 0.39246 0.80213
 C2970 C 1.12448 0.40153 0.78163
 C2971 C 1.10078 0.39730 0.74515
 C2972 C 1.09532 0.42095 0.74245
 C2973 C 1.08734 0.42945 0.72116
 C2974 C 1.08429 0.41443 0.70226
 C2975 C 1.08958 0.39083 0.70491
 C2976 C 1.09791 0.38239 0.72603
 H2977 H 1.10967 0.33844 0.79885
 H2978 H 1.14435 0.40399 0.81242
 H2979 H 1.08320 0.44771 0.71953
 H2980 H 1.08768 0.37898 0.69046
 H2981 H 1.12927 0.41897 0.77659
 H2982 H 1.09694 0.43289 0.75684
 H2983 H 1.09248 0.35489 0.76485
 H2984 H 1.10247 0.36422 0.72719
 C2985 C 0.61146 0.88665 0.76635
 C2986 C 0.62343 0.90102 0.78202
 C2987 C 0.63239 0.89206 0.80269
 C2988 C 0.63007 0.86837 0.80809
 C2989 C 0.61801 0.85403 0.79248
 C2990 C 0.60862 0.86308 0.77205
 C2991 C 0.60230 0.89607 0.74405
 C2992 C 0.60158 0.88208 0.72403
 C2993 C 0.59292 0.89081 0.70315
 C2994 C 0.58529 0.91383 0.70166
 C2995 C 0.58620 0.92800 0.72138
 C2996 C 0.59437 0.91914 0.74244
 H2997 H 0.64116 0.90379 0.81443
 H2998 H 0.61612 0.83564 0.79575
 H2999 H 0.59257 0.87969 0.68801
 H3000 H 0.58021 0.94579 0.72056
 H3001 H 0.59912 0.85151 0.76074
 H3002 H 0.60803 0.86446 0.72432
 H3003 H 0.62630 0.91917 0.77820
 H3004 H 0.59418 0.93034 0.75749
 C3005 C 0.61257 0.38485 1.26490
 C3006 C 0.60884 0.36168 1.27137
 C3007 C 0.61863 0.35267 1.29162
 C3008 C 0.63220 0.36665 1.30657
 C3009 C 0.63550 0.39008 1.30003
 C3010 C 0.62604 0.39891 1.27952
 C3011 C 0.60266 0.39417 1.24288
 C3012 C 0.59547 0.41747 1.24122
 C3013 C 0.58660 0.42624 1.22042
 C3014 C 0.58429 0.41180 1.20099
 C3015 C 0.59113 0.38853 1.20259
 C3016 C 0.60043 0.37985 1.22321
 H3017 H 0.61611 0.33437 1.29468
 H3018 H 0.64478 0.40217 1.31092
 H3019 H 0.58127 0.44423 1.21955
 H3020 H 0.58977 0.37718 1.18767
 H3021 H 0.62951 0.41682 1.27507
 H3022 H 0.59645 0.42892 1.25605
 H3023 H 0.59833 0.35031 1.26076
 H3024 H 0.60625 0.36201 1.22355
 C3025 C 0.88641 1.11249 1.26603
 C3026 C 0.88635 1.09952 1.28677
 C3027 C 0.87709 1.10888 1.30717
 C3028 C 0.86824 1.13152 1.30733
 C3029 C 0.86828 1.14451 1.28680
 C3030 C 0.87698 1.13503 1.26633
 C3031 C 0.89627 1.10275 1.24417
 C3032 C 0.90698 1.11740 1.22786
 C3033 C 0.91550 1.10860 1.20701
 C3034 C 0.91420 1.08475 1.20204
 C3035 C 0.90389 1.06998 1.21851
 C3036 C 0.89486 1.07889 1.23920
 H3037 H 0.87721 1.09863 1.32291
 H3038 H 0.86117 1.16191 1.28655
 H3039 H 0.92285 1.12068 1.19466
 H3040 H 0.90284 1.05148 1.21552
 H3041 H 0.87603 1.14535 1.25069
 H3042 H 0.90891 1.13577 1.23116
 H3043 H 0.89375 1.08229 1.28739
 H3044 H 0.88650 1.06705 1.25112
 C3045 C 0.88415 0.61305 0.76502
 C3046 C 0.88412 0.60024 0.78584
 C3047 C 0.87463 0.60961 0.80610
 C3048 C 0.86544 0.63212 0.80607
 C3049 C 0.86542 0.64497 0.78544
 C3050 C 0.87442 0.63547 0.76508
 C3051 C 0.89435 0.60324 0.74337
 C3052 C 0.90523 0.61779 0.72710
 C3053 C 0.91426 0.60881 0.70652
 C3054 C 0.91318 0.58490 0.70181
 C3055 C 0.90267 0.57025 0.71825
 C3056 C 0.89320 0.57932 0.73865
 H3057 H 0.87489 0.59949 0.82193
 H3058 H 0.85813 0.66229 0.78504
 H3059 H 0.92179 0.62076 0.69416
 H3060 H 0.90180 0.55171 0.71545
 H3061 H 0.87350 0.64567 0.74936
 H3062 H 0.90693 0.63622 0.73023
 H3063 H 0.89179 0.58313 0.78665
 H3064 H 0.88470 0.56755 0.75055
 C3065 C 0.38513 1.11295 0.76474
 C3066 C 0.37532 1.09859 0.78187
 C3067 C 0.36677 1.10801 0.80251
 C3068 C 0.36737 1.13209 0.80643
 C3069 C 0.37712 1.14643 0.78927
 C3070 C 0.38612 1.13698 0.76888
 C3071 C 0.39412 1.10303 0.74260
 C3072 C 0.39280 1.11583 0.72182
 C3073 C 0.40171 1.10686 0.70118
 C3074 C 0.41161 1.08468 0.70071
 C3075 C 0.41260 1.07157 0.72114
 C3076 C 0.40418 1.08074 0.74196
 H3077 H 0.35970 1.09635 0.81542
 H3078 H 0.37751 1.16508 0.79134
 H3079 H 0.40063 1.11710 0.68546
 H3080 H 0.42034 1.05445 0.72105
 H3081 H 0.39393 1.14862 0.75641
 H3082 H 0.38467 1.13274 0.72137
 H3083 H 0.37390 1.08006 0.77927
 H3084 H 0.40593 1.07049 0.75758
 C3085 C 0.38706 0.61228 1.26575
 C3086 C 0.38958 0.63604 1.27064
 C3087 C 0.38051 0.64555 1.29095
 C3088 C 0.36916 0.63150 1.30735
 C3089 C 0.36717 0.60760 1.30280
 C3090 C 0.37581 0.59816 1.28218
 C3091 C 0.39585 0.60248 1.24347
 C3092 C 0.40441 0.57962 1.24224
 C3093 C 0.41269 0.57063 1.22128
 C3094 C 0.41303 0.58447 1.20129
 C3095 C 0.40457 0.60722 1.20237
 C3096 C 0.39582 0.61604 1.22314
 H3097 H 0.38207 0.66408 1.29351
 H3098 H 0.35889 0.59611 1.31512
 H3099 H 0.41927 0.55304 1.22074
 H3100 H 0.40445 0.61805 1.18702
 H3101 H 0.37327 0.57984 1.27900
 H3102 H 0.40511 0.56874 1.25752
 H3103 H 0.39858 0.64745 1.25876
 H3104 H 0.38880 0.63345 1.22311
 C3105 C 1.11324 1.26552 0.88795
 C3106 C 1.12626 1.28081 0.90166
 C3107 C 1.13519 1.30124 0.89213
 C3108 C 1.13175 1.30653 0.86852
 C3109 C 1.11881 1.29096 0.85485
 C3110 C 1.10944 1.27082 0.86454
 C3111 C 1.10394 1.24385 0.89791
 C3112 C 1.08019 1.23886 0.89646
 C3113 C 1.07145 1.21811 0.90546
 C3114 C 1.08640 1.20164 0.91560
 C3115 C 1.11026 1.20680 0.91695
 C3116 C 1.11887 1.22779 0.90843
 H3117 H 1.14463 1.31297 0.90335
 H3118 H 1.11621 1.29406 0.83652
 H3119 H 1.05295 1.21506 0.90454
 H3120 H 1.12243 1.19443 0.92411
 H3121 H 1.09964 1.25908 0.85363
 H3122 H 1.06837 1.25115 0.88855
 H3123 H 1.12923 1.27706 0.91983
 H3124 H 1.13731 1.23126 0.90948
 C3125 C 1.11414 0.76573 0.38956
 C3126 C 1.09967 0.78262 0.37947
 C3127 C 1.10898 0.80304 0.37025
 C3128 C 1.13308 0.80693 0.37042
 C3129 C 1.14750 0.79010 0.38065
 C3130 C 1.13815 0.76998 0.39033
 C3131 C 1.10440 0.74362 0.39883
 C3132 C 1.11734 0.72291 0.39766
 C3133 C 1.10843 0.70222 0.40652
 C3134 C 1.08618 0.70161 0.41622
 C3135 C 1.07297 0.72199 0.41717
 C3136 C 1.08209 0.74287 0.40880
 H3137 H 1.09723 0.81572 0.36293
 H3138 H 1.16615 0.79215 0.38082
 H3139 H 1.11873 0.68654 0.40544
 H3140 H 1.05577 0.72179 0.42472
 H3141 H 1.14988 0.75773 0.39839
 H3142 H 1.13428 0.72252 0.38959
 H3143 H 1.08113 0.77995 0.37825
 H3144 H 1.07172 0.75843 0.41043
 C3145 C 0.61488 1.26585 0.38845
 C3146 C 0.60092 1.28075 0.37517
 C3147 C 0.60995 1.30116 0.36574
 C3148 C 0.63354 1.30728 0.36875
 C3149 C 0.64736 1.29221 0.38235
 C3150 C 0.63814 1.27205 0.39214
 C3151 C 0.60534 1.24381 0.39808
 C3152 C 0.61947 1.22397 0.40006
 C3153 C 0.61056 1.20328 0.40898
 C3154 C 0.58723 1.20179 0.41565
 C3155 C 0.57297 1.22137 0.41356
 C3156 C 0.58198 1.24225 0.40510
 H3157 H 0.59788 1.31227 0.35667
 H3158 H 0.66570 1.29510 0.38484
 H3159 H 0.62178 1.18825 0.41023
 H3160 H 0.55495 1.22059 0.41880
 H3161 H 0.64942 1.26126 0.40258
 H3162 H 0.63734 1.22423 0.39435
 H3163 H 0.58293 1.27658 0.37177
 H3164 H 0.57065 1.25719 0.40432
 C3165 C 0.61289 0.76732 0.89040
 C3166 C 0.59962 0.78788 0.89010
 C3167 C 0.60856 0.80825 0.88036
 C3168 C 0.63109 0.80860 0.87126
 C3169 C 0.64446 0.78832 0.87170
 C3170 C 0.63539 0.76785 0.88090
 C3171 C 0.60337 0.74537 0.90030
 C3172 C 0.61815 0.72912 0.91095
 C3173 C 0.60954 0.70805 0.91922
 C3174 C 0.58576 0.70281 0.91766
 C3175 C 0.57085 0.71931 0.90757
 C3176 C 0.57956 0.74019 0.89881
 H3177 H 0.59803 0.82381 0.88021
 H3178 H 0.66179 0.78822 0.86444
 H3179 H 0.62171 0.69573 0.92646
 H3180 H 0.55238 0.71616 0.90641
 H3181 H 0.64596 0.75236 0.88015
 H3182 H 0.63649 0.73259 0.91295
 H3183 H 0.58242 0.78835 0.89758
 H3184 H 0.56762 0.75204 0.89049
 C3185 C 0.88775 1.26779 1.11107
 C3186 C 0.86363 1.27059 1.11389
 C3187 C 0.85436 1.29122 1.12248
 C3188 C 0.86888 1.30947 1.12973
 C3189 C 0.89303 1.30659 1.12733
 C3190 C 0.90226 1.28633 1.11765
 C3191 C 0.89754 1.24559 1.10163
 C3192 C 0.92039 1.23855 1.10677
 C3193 C 0.92931 1.21770 1.09812
 C3194 C 0.91539 1.20264 1.08484
 C3195 C 0.89249 1.20958 1.07994
 C3196 C 0.88396 1.23088 1.08765
 H3197 H 0.83574 1.29218 1.12475
 H3198 H 0.90489 1.32038 1.13198
 H3199 H 0.94719 1.21355 1.10196
 H3200 H 0.88075 1.19855 1.07037
 H3201 H 0.92082 1.28551 1.11518
 H3202 H 0.93152 1.24888 1.11776
 H3203 H 0.85165 1.25669 1.11008
 H3204 H 0.86656 1.23560 1.08249
 C3205 C 0.88537 0.76407 0.61469
 C3206 C 0.86264 0.76475 0.62366
 C3207 C 0.85334 0.78539 0.63227
 C3208 C 0.86672 0.80565 0.63265
 C3209 C 0.88945 0.80513 0.62408
 C3210 C 0.89861 0.78462 0.61492
 C3211 C 0.89514 0.74205 0.60519
 C3212 C 0.91897 0.73704 0.60702
 C3213 C 0.92803 0.71637 0.59810
 C3214 C 0.91345 0.69991 0.58753
 C3215 C 0.88960 0.70486 0.58590
 C3216 C 0.88065 0.72571 0.59432
 H3217 H 0.83583 0.78545 0.63910
 H3218 H 0.89997 0.82070 0.62418
 H3219 H 0.94652 0.71341 0.59942
 H3220 H 0.87766 0.69251 0.57835
 H3221 H 0.91596 0.78501 0.60779
 H3222 H 0.93070 0.74892 0.61558
 H3223 H 0.85206 0.74927 0.62439
 H3224 H 0.86230 0.72901 0.59212
 C3225 C 0.38612 1.26617 0.61253
 C3226 C 0.40068 1.28503 0.61797
 C3227 C 0.39171 1.30527 0.62785
 C3228 C 0.36770 1.30781 0.63167
 C3229 C 0.35307 1.28921 0.62559
 C3230 C 0.36217 1.26860 0.61672
 C3231 C 0.39580 1.24408 0.60281
 C3232 C 0.38192 1.22919 0.58931
 C3233 C 0.39055 1.20809 0.58114
 C3234 C 0.41373 1.20154 0.58524
 C3235 C 0.42785 1.21676 0.59810
 C3236 C 0.41891 1.23741 0.60712
 H3237 H 0.40361 1.31934 0.63146
 H3238 H 0.33460 1.28995 0.62891
 H3239 H 0.37875 1.19687 0.57186
 H3240 H 0.44591 1.21286 0.60130
 H3241 H 0.35026 1.25444 0.61370
 H3242 H 0.36425 1.23367 0.58490
 H3243 H 0.41907 1.28446 0.61437
 H3244 H 0.43025 1.24791 0.61775
 C3245 C 0.38356 0.76248 1.11647
 C3246 C 0.39703 0.77683 1.13080
 C3247 C 0.38798 0.79743 1.13980
 C3248 C 0.36489 0.80436 1.13513
 C3249 C 0.35140 0.78953 1.12096
 C3250 C 0.36064 0.76915 1.11167
 C3251 C 0.39335 0.74070 1.10654
 C3252 C 0.37921 0.72106 1.10323
 C3253 C 0.38831 0.70074 1.09367
 C3254 C 0.41183 0.69943 1.08761
 C3255 C 0.42609 0.71883 1.09107
 C3256 C 0.41691 0.73932 1.10022
 H3257 H 0.39972 0.80816 1.14971
 H3258 H 0.33334 0.79295 1.11735
 H3259 H 0.37708 0.68585 1.09143
 H3260 H 0.44426 0.71821 1.08635
 H3261 H 0.34973 0.75870 1.10053
 H3262 H 0.36115 0.72121 1.10833
 H3263 H 0.41469 0.77218 1.13516
 H3264 H 0.42826 0.75416 1.10204
 C3265 C 0.88435 0.73769 0.88296
 C3266 C 0.86054 0.73281 0.88519
 C3267 C 0.85115 0.71240 0.87611
 C3268 C 0.86538 0.69599 0.86499
 C3269 C 0.88922 0.70080 0.86289
 C3270 C 0.89852 0.72145 0.87153
 C3271 C 0.89433 0.75955 0.89256
 C3272 C 0.91717 0.76013 0.90129
 C3273 C 0.92649 0.78067 0.91020
 C3274 C 0.91303 0.80087 0.91107
 C3275 C 0.89025 0.80043 0.90259
 C3276 C 0.88108 0.78008 0.89318
 H3277 H 0.83266 0.70961 0.87773
 H3278 H 0.90085 0.68849 0.85480
 H3279 H 0.94408 0.78069 0.91683
 H3280 H 0.87970 0.81598 0.90291
 H3281 H 0.91684 0.72468 0.86906
 H3282 H 0.92778 0.74466 0.90161
 H3283 H 0.84906 0.74461 0.89419
 H3284 H 0.86368 0.78058 0.88616
 C3285 C 0.88532 0.23708 0.38352
 C3286 C 0.89849 0.21648 0.38349
 C3287 C 0.88940 0.19602 0.37420
 C3288 C 0.86681 0.19557 0.36527
 C3289 C 0.85350 0.21590 0.36537
 C3290 C 0.86275 0.23652 0.37413
 C3291 C 0.89500 0.25896 0.39340
 C3292 C 0.88042 0.27526 0.40422
 C3293 C 0.88939 0.29589 0.41318
 C3294 C 0.91331 0.30063 0.41211
 C3295 C 0.92795 0.28419 0.40159
 C3296 C 0.91890 0.26378 0.39215
 H3297 H 0.89983 0.18039 0.37442
 H3298 H 0.83607 0.21587 0.35835
 H3299 H 0.87743 0.30824 0.42070
 H3300 H 0.94649 0.28698 0.40072
 H3301 H 0.85224 0.25204 0.37328
 H3302 H 0.86201 0.27208 0.40597
 H3303 H 0.91569 0.21598 0.39098
 H3304 H 0.93070 0.25193 0.38365
 C3305 C 0.38812 0.73583 0.38509
 C3306 C 0.37272 0.72246 0.39840
 C3307 C 0.36324 0.70194 0.38960
 C3308 C 0.36861 0.69412 0.36697
 C3309 C 0.38416 0.70779 0.35377
 C3310 C 0.39382 0.72809 0.36274
 C3311 C 0.39798 0.75787 0.39430
 C3312 C 0.40190 0.77688 0.37948
 C3313 C 0.41113 0.79757 0.38807
 C3314 C 0.41633 0.79986 0.41172
 C3315 C 0.41237 0.78102 0.42662
 C3316 C 0.40346 0.76018 0.41798
 H3317 H 0.35225 0.69206 0.40112
 H3318 H 0.38841 0.70362 0.33601
 H3319 H 0.41373 0.81199 0.37631
 H3320 H 0.41643 0.78236 0.44491
 H3321 H 0.40583 0.73776 0.35203
 H3322 H 0.39744 0.77598 0.36127
 H3323 H 0.36774 0.72793 0.41564
 H3324 H 0.40111 0.74582 0.42985
 C3325 C 0.38634 0.23521 0.88630
 C3326 C 0.39998 0.22023 0.87280
 C3327 C 0.39077 0.19964 0.86390
 C3328 C 0.36734 0.19339 0.86781
 C3329 C 0.35386 0.20861 0.88156
 C3330 C 0.36325 0.22894 0.89076
 C3331 C 0.39601 0.25737 0.89548
 C3332 C 0.38183 0.27715 0.89758
 C3333 C 0.39072 0.29786 0.90645
 C3334 C 0.41408 0.29943 0.91300
 C3335 C 0.42844 0.27993 0.91064
 C3336 C 0.41946 0.25905 0.90218
 H3337 H 0.40257 0.18853 0.85453
 H3338 H 0.33563 0.20566 0.88469
 H3339 H 0.37942 0.31281 0.90786
 H3340 H 0.44650 0.28077 0.91576
 H3341 H 0.35224 0.23981 0.90139
 H3342 H 0.36388 0.27680 0.89208
 H3343 H 0.41783 0.22447 0.86883
 H3344 H 0.43084 0.24415 0.90123
 C3345 C 1.11034 0.73146 1.10819
 C3346 C 1.10454 0.72522 1.13091
 C3347 C 1.11394 0.70530 1.14102
 C3348 C 1.12923 0.69064 1.12854
 C3349 C 1.13428 0.69689 1.10531
 C3350 C 1.12519 0.71710 1.09545
 C3351 C 1.10152 0.75338 1.09817
 C3352 C 1.11696 0.76955 1.08860
 C3353 C 1.10888 0.79089 1.08040
 C3354 C 1.08508 0.79636 1.08119
 C3355 C 1.06961 0.77978 1.09028
 C3356 C 1.07778 0.75863 1.09890
 H3357 H 1.10996 0.70239 1.15909
 H3358 H 1.14482 0.68609 1.09422
 H3359 H 1.12142 0.80332 1.07402
 H3360 H 1.05113 0.78309 1.09072
 H3361 H 1.12959 0.72144 1.07771
 H3362 H 1.13540 0.76595 1.08814
 H3363 H 1.09335 0.73627 1.14119
 H3364 H 1.06554 0.74630 1.10605
 C3365 C 1.10934 0.23134 0.60780
 C3366 C 1.12430 0.21724 0.59491
 C3367 C 1.13350 0.19696 0.60452
 C3368 C 1.12843 0.19038 0.62765
 C3369 C 1.11292 0.20471 0.64024
 C3370 C 1.10343 0.22471 0.63038
 C3371 C 1.10064 0.25347 0.59816
 C3372 C 1.07696 0.25897 0.59914
 C3373 C 1.06894 0.28032 0.59086
 C3374 C 1.08453 0.29683 0.58185
 C3375 C 1.10827 0.29115 0.58086
 C3376 C 1.11619 0.26964 0.58873
 H3377 H 1.14418 0.18639 0.59335
 H3378 H 1.10885 0.20154 0.65824
 H3379 H 1.05051 0.28383 0.59147
 H3380 H 1.12088 0.30352 0.57454
 H3381 H 1.09215 0.23555 0.64078
 H3382 H 1.06464 0.24667 0.60621
 H3383 H 1.12878 0.22186 0.57726
 H3384 H 1.13459 0.26587 0.58810
 C3385 C 0.61296 0.73329 0.61168
 C3386 C 0.63554 0.73279 0.62101
 C3387 C 0.64476 0.71232 0.63004
 C3388 C 0.63147 0.69199 0.63050
 C3389 C 0.60885 0.69232 0.62158
 C3390 C 0.59976 0.71270 0.61201
 C3391 C 0.60332 0.75522 0.60186
 C3392 C 0.57951 0.76039 0.60349
 C3393 C 0.57070 0.78122 0.59470
 C3394 C 0.58551 0.79769 0.58443
 C3395 C 0.60929 0.79249 0.58281
 C3396 C 0.61800 0.77147 0.59109
 H3397 H 0.66215 0.71244 0.63717
 H3398 H 0.59837 0.67672 0.62177
 H3399 H 0.55223 0.78436 0.59595
 H3400 H 0.62140 0.80480 0.57545
 H3401 H 0.58249 0.71221 0.60466
 H3402 H 0.56765 0.74853 0.61191
 H3403 H 0.64606 0.74831 0.62173
 H3404 H 0.63633 0.76803 0.58899
 C3405 C 0.61366 0.23323 1.11155
 C3406 C 0.63610 0.22626 1.10544
 C3407 C 0.64586 0.20626 1.11506
 C3408 C 0.63331 0.19236 1.13097
 C3409 C 0.61039 0.19936 1.13639
 C3410 C 0.60087 0.21957 1.12700
 C3411 C 0.60383 0.25507 1.10233
 C3412 C 0.60467 0.25998 1.07851
 C3413 C 0.59559 0.28077 1.06992
 C3414 C 0.58583 0.29727 1.08505
 C3415 C 0.58515 0.29227 1.10893
 C3416 C 0.59387 0.27133 1.11743
 H3417 H 0.66371 0.20266 1.11069
 H3418 H 0.59923 0.18905 1.14736
 H3419 H 0.59605 0.28381 1.05140
 H3420 H 0.57829 0.30472 1.12119
 H3421 H 0.58331 0.22441 1.13162
 H3422 H 0.61211 0.24758 1.06652
 H3423 H 0.64641 0.23675 1.09375
 H3424 H 0.59332 0.26803 1.13592
 C3425 C 1.26466 1.11452 0.88640
 C3426 C 1.28517 1.10121 0.88571
 C3427 C 1.30550 1.11030 0.87610
 C3428 C 1.30589 1.13302 0.86750
 C3429 C 1.28567 1.14646 0.86830
 C3430 C 1.26520 1.13723 0.87738
 C3431 C 1.24282 1.10481 0.89636
 C3432 C 1.22672 1.11932 0.90755
 C3433 C 1.20591 1.11043 0.91620
 C3434 C 1.20080 1.08664 0.91444
 C3435 C 1.21712 1.07202 0.90369
 C3436 C 1.23771 1.08101 0.89457
 H3437 H 1.32104 1.09975 0.87573
 H3438 H 1.28564 1.16398 0.86151
 H3439 H 1.19370 1.12238 0.92395
 H3440 H 1.21406 1.05355 0.90233
 H3441 H 1.24973 1.14786 0.87699
 H3442 H 1.23013 1.13765 0.90976
 H3443 H 1.28567 1.08387 0.89287
 H3444 H 1.24942 1.06926 0.88580
 C3445 C 1.26452 0.61643 0.38547
 C3446 C 1.28502 0.60313 0.38507
 C3447 C 1.30542 0.61213 0.37555
 C3448 C 1.30593 0.63477 0.36672
 C3449 C 1.28571 0.64824 0.36728
 C3450 C 1.26515 0.63910 0.37631
 C3451 C 1.24263 0.60671 0.39532
 C3452 C 1.22643 0.62117 0.40646
 C3453 C 1.20574 0.61214 0.41529
 C3454 C 1.20084 0.58828 0.41372
 C3455 C 1.21719 0.57376 0.40291
 C3456 C 1.23765 0.58287 0.39363
 H3457 H 1.32095 0.60155 0.37542
 H3458 H 1.28576 0.66571 0.36035
 H3459 H 1.19347 0.62401 0.42308
 H3460 H 1.21429 0.55526 0.40165
 H3461 H 1.24969 0.64974 0.37578
 H3462 H 1.22972 0.63953 0.40853
 H3463 H 1.28549 0.58586 0.39238
 H3464 H 1.24941 0.57116 0.38488
 C3465 C 0.76615 1.11497 0.38835
 C3466 C 0.76629 1.13733 0.37847
 C3467 C 0.78653 1.14646 0.36882
 C3468 C 0.80695 1.13328 0.36832
 C3469 C 0.80693 1.11088 0.37777
 C3470 C 0.78681 1.10190 0.38793
 C3471 C 0.74453 1.10536 0.39881
 C3472 C 0.73963 1.08148 0.39775
 C3473 C 0.71911 1.07260 0.40711
 C3474 C 0.70265 1.08741 0.41738
 C3475 C 0.70761 1.11127 0.41856
 C3476 C 0.72835 1.12007 0.40966
 H3477 H 0.78618 1.16371 0.36137
 H3478 H 0.82261 1.10053 0.37767
 H3479 H 0.71617 1.05408 0.40623
 H3480 H 0.69529 1.12333 0.42597
 H3481 H 0.78761 1.08484 0.39572
 H3482 H 0.75143 1.06958 0.38929
 H3483 H 0.75068 1.14773 0.37785
 H3484 H 0.73163 1.13847 0.41132
 C3485 C 0.76569 0.61356 0.88888
 C3486 C 0.76600 0.63620 0.87970
 C3487 C 0.78629 0.64546 0.87031
 C3488 C 0.80660 0.63216 0.86934
 C3489 C 0.80644 0.60948 0.87810
 C3490 C 0.78625 0.60034 0.88803
 C3491 C 0.74394 0.60387 0.89904
 C3492 C 0.73874 0.58009 0.89731
 C3493 C 0.71802 0.57124 0.90631
 C3494 C 0.70169 0.58599 0.91686
 C3495 C 0.70695 0.60974 0.91865
 C3496 C 0.72787 0.61848 0.91017
 H3497 H 0.78602 0.66291 0.86332
 H3498 H 0.82202 0.59899 0.87754
 H3499 H 0.71484 0.55279 0.90494
 H3500 H 0.69476 0.62181 0.92625
 H3501 H 0.78689 0.58303 0.89525
 H3502 H 0.75045 0.56827 0.88864
 H3503 H 0.75048 0.64675 0.87935
 H3504 H 0.73136 0.63679 0.91236
 C3505 C 1.26505 0.88643 1.11359
 C3506 C 1.26548 0.86379 1.12278
 C3507 C 1.28596 0.85441 1.13162
 C3508 C 1.30638 0.86758 1.13201
 C3509 C 1.30610 0.89026 1.12324
 C3510 C 1.28569 0.89952 1.11388
 C3511 C 1.24313 0.89619 1.10386
 C3512 C 1.23801 0.91999 1.10572
 C3513 C 1.21724 0.92894 1.09689
 C3514 C 1.20084 0.91428 1.08633
 C3515 C 1.20597 0.89049 1.08454
 C3516 C 1.22690 0.88165 1.09289
 H3517 H 1.28578 0.83697 1.13864
 H3518 H 1.32175 0.90065 1.12335
 H3519 H 1.21412 0.94740 1.09830
 H3520 H 1.19369 0.87850 1.07696
 H3521 H 1.28622 0.91683 1.10663
 H3522 H 1.24987 0.93174 1.11430
 H3523 H 1.24990 0.85335 1.12351
 H3524 H 1.23032 0.86333 1.09065
 C3525 C 1.26397 0.38475 0.61699
 C3526 C 1.26464 0.36218 0.62638
 C3527 C 1.28523 0.35314 0.63548
 C3528 C 1.30544 0.36665 0.63592
 C3529 C 1.30483 0.38927 0.62703
 C3530 C 1.28441 0.39814 0.61744
 C3531 C 1.24217 0.39424 0.60670
 C3532 C 1.23713 0.41809 0.60793
 C3533 C 1.21683 0.42701 0.59815
 C3534 C 1.20065 0.41230 0.58732
 C3535 C 1.20563 0.38844 0.58615
 C3536 C 1.22620 0.37958 0.59548
 H3537 H 1.28536 0.33566 0.64238
 H3538 H 1.32036 0.39984 0.62695
 H3539 H 1.21389 0.44553 0.59907
 H3540 H 1.19351 0.37644 0.57831
 H3541 H 1.28486 0.41535 0.60995
 H3542 H 1.24871 0.42996 0.61671
 H3543 H 1.24922 0.35149 0.62689
 H3544 H 1.22957 0.36120 0.59374
 C3545 C 0.76452 0.88596 0.61449
 C3546 C 0.78512 0.88583 0.60133
 C3547 C 0.80550 0.87623 0.61034
 C3548 C 0.80584 0.86709 0.63284
 C3549 C 0.78551 0.86731 0.64613
 C3550 C 0.76500 0.87638 0.63697
 C3551 C 0.74264 0.89595 0.60488
 C3552 C 0.72635 0.90664 0.61957
 C3553 C 0.70554 0.91537 0.61076
 C3554 C 0.70060 0.91422 0.58690
 C3555 C 0.71708 0.90395 0.57212
 C3556 C 0.73768 0.89473 0.58101
 H3557 H 0.82113 0.87628 0.59991
 H3558 H 0.78546 0.86008 0.66347
 H3559 H 0.69319 0.92272 0.62283
 H3560 H 0.71414 0.90305 0.55361
 H3561 H 0.74947 0.87555 0.64746
 H3562 H 0.72963 0.90840 0.63796
 H3563 H 0.78566 0.89342 0.58417
 H3564 H 0.74954 0.88636 0.56913
 C3565 C 0.76386 0.38554 1.11618
 C3566 C 0.76458 0.37556 1.13850
 C3567 C 0.78531 0.36666 1.14744
 C3568 C 0.80558 0.36707 1.13406
 C3569 C 0.80500 0.37678 1.11180
 C3570 C 0.78445 0.38616 1.10304
 C3571 C 0.74181 0.39519 1.10662
 C3572 C 0.73710 0.39424 1.08269
 C3573 C 0.71656 0.40347 1.07369
 C3574 C 0.69987 0.41345 1.08841
 C3575 C 0.70448 0.41421 1.11236
 C3576 C 0.72524 0.40544 1.12130
 H3577 H 0.78547 0.35909 1.16463
 H3578 H 0.82059 0.37740 1.10134
 H3579 H 0.71388 0.40285 1.05513
 H3580 H 0.69193 0.42134 1.12436
 H3581 H 0.78484 0.39415 1.08607
 H3582 H 0.74915 0.38615 1.07081
 H3583 H 0.74908 0.37428 1.14900
 H3584 H 0.72830 0.40689 1.13975
 C3585 C 0.73552 1.11257 1.11352
 C3586 C 0.73515 1.12194 1.13607
 C3587 C 0.71473 1.13101 1.14536
 C3588 C 0.69432 1.13145 1.13218
 C3589 C 0.69453 1.12246 1.10959
 C3590 C 0.71486 1.11288 1.10043
 C3591 C 0.75738 1.10270 1.10379
 C3592 C 0.76244 1.10438 1.07998
 C3593 C 0.78317 1.09547 1.07105
 C3594 C 0.79962 1.08502 1.08576
 C3595 C 0.79454 1.08338 1.10956
 C3596 C 0.77363 1.09181 1.11838
 H3597 H 0.71496 1.13817 1.16273
 H3598 H 0.67888 1.12260 1.09920
 H3599 H 0.78624 1.09676 1.05258
 H3600 H 0.80686 1.07588 1.12158
 H3601 H 0.71427 1.10549 1.08319
 H3602 H 0.75057 1.11290 1.06819
 H3603 H 0.75074 1.12265 1.14651
 H3604 H 0.77027 1.08970 1.13672
 C3605 C 0.73567 0.61411 0.61562
 C3606 C 0.73507 0.62349 0.63819
 C3607 C 0.71448 0.63248 0.64731
 C3608 C 0.69422 0.63279 0.63389
 C3609 C 0.69469 0.62373 0.61136
 C3610 C 0.71511 0.61424 0.60240
 C3611 C 0.75758 0.60430 0.60594
 C3612 C 0.76245 0.60574 0.58206
 C3613 C 0.78291 0.59644 0.57299
 C3614 C 0.79936 0.58585 0.58758
 C3615 C 0.79458 0.58458 0.61148
 C3616 C 0.77390 0.59342 0.62047
 H3617 H 0.71444 0.63960 0.66469
 H3618 H 0.67912 0.62367 0.60083
 H3619 H 0.78573 0.59747 0.55447
 H3620 H 0.80694 0.57699 0.62340
 H3621 H 0.71464 0.60674 0.58521
 H3622 H 0.75059 0.61431 0.57030
 H3623 H 0.75056 0.62424 0.64876
 H3624 H 0.77069 0.59155 0.63887
 C3625 C 0.23525 1.11534 0.61386
 C3626 C 0.21478 1.11533 0.60050
 C3627 C 0.19427 1.12479 0.60928
 C3628 C 0.19361 1.13398 0.63176
 C3629 C 0.21383 1.13391 0.64526
 C3630 C 0.23450 1.12492 0.63632
 C3631 C 0.25722 1.10538 0.60443
 C3632 C 0.27336 1.09452 0.61917
 C3633 C 0.29409 1.08552 0.61041
 C3634 C 0.29909 1.08667 0.58656
 C3635 C 0.28279 1.09721 0.57176
 C3636 C 0.26228 1.10664 0.58059
 H3637 H 0.17874 1.12452 0.59869
 H3638 H 0.21368 1.14111 0.66261
 H3639 H 0.30632 1.07793 0.62247
 H3640 H 0.28577 1.09813 0.55325
 H3641 H 0.24993 1.12578 0.64698
 H3642 H 0.26999 1.09278 0.63755
 H3643 H 0.21443 1.10769 0.58337
 H3644 H 0.25055 1.11517 0.56867
 C3645 C 0.23489 0.61442 1.11475
 C3646 C 0.21430 0.61416 1.10157
 C3647 C 0.19384 0.62372 1.11037
 C3648 C 0.19336 0.63327 1.13271
 C3649 C 0.21368 0.63343 1.14604
 C3650 C 0.23430 0.62434 1.13708
 C3651 C 0.25682 0.60444 1.10527
 C3652 C 0.27315 0.59387 1.12002
 C3653 C 0.29387 0.58490 1.11120
 C3654 C 0.29867 0.58578 1.08729
 C3655 C 0.28218 0.59601 1.07249
 C3656 C 0.26168 0.60541 1.08137
 H3657 H 0.17823 0.62329 1.09992
 H3658 H 0.21365 0.64092 1.16327
 H3659 H 0.30625 0.57756 1.12326
 H3660 H 0.28501 0.59671 1.05396
 H3661 H 0.24981 0.62540 1.14759
 H3662 H 0.26994 0.59236 1.13844
 H3663 H 0.21383 0.60627 1.08456
 H3664 H 0.24979 0.61371 1.06944
 C3665 C 0.73509 0.88693 0.88533
 C3666 C 0.71460 0.88689 0.89864
 C3667 C 0.69417 0.87726 0.88988
 C3668 C 0.69362 0.86797 0.86744
 C3669 C 0.71380 0.86818 0.85393
 C3670 C 0.73441 0.87731 0.86287
 C3671 C 0.75704 0.89684 0.89484
 C3672 C 0.77328 0.90758 0.88014
 C3673 C 0.79406 0.91638 0.88895
 C3674 C 0.79900 0.91520 0.91282
 C3675 C 0.78258 0.90483 0.92758
 C3676 C 0.76203 0.89555 0.91869
 H3677 H 0.67864 0.87740 0.90045
 H3678 H 0.71369 0.86090 0.83662
 H3679 H 0.80638 0.92383 0.87691
 H3680 H 0.78553 0.90389 0.94610
 H3681 H 0.74985 0.87648 0.85225
 H3682 H 0.76997 0.90933 0.86175
 H3683 H 0.71420 0.89457 0.91576
 H3684 H 0.75022 0.88711 0.93058
 C3685 C 0.73607 0.38768 0.38483
 C3686 C 0.73198 0.38729 0.36077
 C3687 C 0.71163 0.37768 0.35179
 C3688 C 0.69449 0.36865 0.36661
 C3689 C 0.69833 0.36948 0.39068
 C3690 C 0.71892 0.37863 0.39965
 C3691 C 0.75819 0.39724 0.39436
 C3692 C 0.75875 0.40829 0.41616
 C3693 C 0.77958 0.41685 0.42517
 C3694 C 0.80014 0.41503 0.41237
 C3695 C 0.79973 0.40432 0.39059
 C3696 C 0.77905 0.39527 0.38178
 H3697 H 0.70954 0.37704 0.33315
 H3698 H 0.68540 0.36309 0.40270
 H3699 H 0.77962 0.42522 0.44199
 H3700 H 0.81554 0.40261 0.38058
 H3701 H 0.72146 0.37825 0.41824
 H3702 H 0.74307 0.41061 0.42620
 H3703 H 0.74447 0.39448 0.34875
 H3704 H 0.77956 0.38642 0.36524
 C3705 C 0.23751 0.88521 0.38409
 C3706 C 0.23720 0.86289 0.37414
 C3707 C 0.21662 0.85350 0.36547
 C3708 C 0.19606 0.86640 0.36607
 C3709 C 0.19621 0.88874 0.37559
 C3710 C 0.21667 0.89799 0.38474
 C3711 C 0.25939 0.89501 0.39382
 C3712 C 0.26395 0.91898 0.39283
 C3713 C 0.28444 0.92809 0.40205
 C3714 C 0.30117 0.91346 0.41213
 C3715 C 0.29669 0.88949 0.41295
 C3716 C 0.27601 0.88044 0.40418
 H3717 H 0.21677 0.83626 0.35799
 H3718 H 0.18038 0.89885 0.37627
 H3719 H 0.28708 0.94667 0.40136
 H3720 H 0.30927 0.87755 0.42014
 H3721 H 0.21603 0.91500 0.39264
 H3722 H 0.25181 0.93076 0.38470
 H3723 H 0.25291 0.85270 0.37277
 H3724 H 0.27304 0.86197 0.40570
 C3725 C 0.23674 0.38518 0.88361
 C3726 C 0.23150 0.38686 0.85982
 C3727 C 0.21101 0.37744 0.85092
 C3728 C 0.19488 0.36654 0.86563
 C3729 C 0.20005 0.36498 0.88942
 C3730 C 0.22077 0.37393 0.89823
 C3731 C 0.25871 0.39507 0.89311
 C3732 C 0.25957 0.40409 0.91581
 C3733 C 0.28026 0.41294 0.92485
 C3734 C 0.30036 0.41348 0.91122
 C3735 C 0.29961 0.40486 0.88851
 C3736 C 0.27908 0.39551 0.87963
 H3737 H 0.20795 0.37862 0.83245
 H3738 H 0.18796 0.35702 0.90138
 H3739 H 0.28052 0.41968 0.94238
 H3740 H 0.31506 0.40494 0.87783
 H3741 H 0.22428 0.37183 0.91655
 H3742 H 0.24422 0.40460 0.92659
 H3743 H 0.24310 0.39567 0.84800
 H3744 H 0.27936 0.38830 0.86231
   
