data_POSCAR
  _audit_creation_date              2014-09-24
  _audit_creation_method            'ToBaCCo'
  _symmetry_space_group_name_H-M    'P1'
  _symmetry_Int_Tables_number       1
  _symmetry_cell_setting            triclinic
  loop_
  _symmetry_equiv_pos_as_xyz
 x,y,z
_cell_length_a 66.4293
_cell_length_b 66.0856
_cell_length_c 66.3760
_cell_angle_alpha 92.446000
_cell_angle_beta 92.478100
_cell_angle_gamma 92.202200
loop_
  _atom_site_label
  _atom_site_type_symbol
  _atom_site_fract_x
  _atom_site_fract_y
  _atom_site_fract_z
C1 C 0.73175 0.66183 0.97264
 H2 H 0.74613 0.66032 0.96580
 C3 C 0.71688 0.67317 0.96341
 H4 H 0.72006 0.68066 0.94965
 C5 C 0.70982 0.65320 0.99844
 H6 H 0.70681 0.64492 1.01171
 C7 C 0.69462 0.66447 0.98981
 H8 H 0.68011 0.66471 0.99664
 N9 N 0.72798 0.65208 0.98981
 C10 C 0.78239 0.63945 1.02475
 H11 H 0.77762 0.62446 1.02902
 C12 C 0.80063 0.64815 1.03262
 H13 H 0.80948 0.63988 1.04334
 C14 C 0.77647 0.66824 1.00559
 H15 H 0.76709 0.67589 0.99486
 C16 C 0.79482 0.67744 1.01294
 H17 H 0.79943 0.69208 1.00761
 Zn18 Zn 0.74759 0.63471 1.00025
 N19 N 0.77078 0.64944 1.01138
 C20 C 0.77531 0.61739 0.97461
 N21 N 0.75543 0.61754 0.97868
 C22 C 0.74124 0.60711 0.96653
 C23 C 0.74690 0.59618 0.94928
 C24 C 0.78159 0.60669 0.95765
 C25 C 0.73366 0.63053 1.03853
 C26 C 0.72674 0.62097 1.05533
 C27 C 0.72654 0.58898 1.03635
 C28 C 0.73355 0.59929 1.01986
 N29 N 0.73687 0.61971 1.02125
 H30 H 0.78635 0.62603 0.98420
 H31 H 0.72550 0.60771 0.96996
 H32 H 0.73543 0.58808 0.93965
 H33 H 0.79743 0.60737 0.95442
 H34 H 0.73645 0.64679 1.03921
 H35 H 0.72349 0.63077 1.06810
 H36 H 0.72502 0.57267 1.03456
 H37 H 0.73665 0.59091 1.00608
 C38 C 0.80733 0.66722 1.02644
 C39 C 0.69797 0.67446 0.97195
 C40 C 0.72307 0.59965 1.05483
 C41 C 0.76733 0.59603 0.94459
 C42 C 0.73449 0.36845 0.51234
 H43 H 0.74776 0.37188 0.52209
 C44 C 0.71875 0.35621 0.51897
 H45 H 0.72001 0.35037 0.53395
 C46 C 0.71637 0.37294 0.48142
 H47 H 0.71538 0.37971 0.46691
 C48 C 0.70030 0.36071 0.48741
 H49 H 0.68722 0.35792 0.47723
 N50 N 0.73303 0.37656 0.49388
 C51 C 0.79255 0.38992 0.47189
 H52 H 0.79099 0.40555 0.46806
 C53 C 0.80984 0.37982 0.46689
 H54 H 0.82141 0.38779 0.45898
 C55 C 0.77880 0.36040 0.48600
 H56 H 0.76660 0.35281 0.49328
 C57 C 0.79590 0.34977 0.48145
 H58 H 0.79676 0.33417 0.48565
 Zn59 Zn 0.75410 0.39455 0.48671
 N60 N 0.77747 0.38014 0.48128
 C61 C 0.77868 0.41759 0.51602
 N62 N 0.75944 0.41341 0.50875
 C63 C 0.74344 0.42093 0.51830
 C64 C 0.74643 0.43256 0.53632
 C65 C 0.78237 0.42940 0.53383
 C66 C 0.74605 0.39699 0.44527
 C67 C 0.74002 0.40580 0.42738
 C68 C 0.73434 0.43676 0.44662
 C69 C 0.74067 0.42740 0.46414
 N70 N 0.74614 0.40779 0.46317
 H71 H 0.79117 0.41124 0.50841
 H72 H 0.72828 0.41719 0.51231
 H73 H 0.73353 0.43791 0.54409
 H74 H 0.79773 0.43199 0.53978
 H75 H 0.75063 0.38144 0.44494
 H76 H 0.74027 0.39696 0.41329
 H77 H 0.72946 0.45219 0.44783
 H78 H 0.74090 0.43570 0.47854
 C79 C 0.81170 0.35944 0.47166
 C80 C 0.70128 0.35229 0.50650
 C81 C 0.73387 0.42592 0.42789
 C82 C 0.76610 0.43664 0.54443
 C83 C 0.23409 -0.13381 0.01372
 H84 H 0.24810 -0.13152 0.02261
 C85 C 0.21787 -0.14452 0.02146
 H86 H 0.21948 -0.15034 0.03642
 C87 C 0.21480 -0.12814 -0.01623
 H88 H 0.21358 -0.12153 -0.03081
 C89 C 0.19818 -0.13875 -0.00907
 H90 H 0.18442 -0.14050 -0.01844
 N91 N 0.23233 -0.12596 -0.00484
 C92 C 0.29220 -0.11918 -0.02826
 H93 H 0.29198 -0.10350 -0.03231
 C94 C 0.30864 -0.13076 -0.03288
 H95 H 0.32087 -0.12388 -0.04078
 C96 C 0.27596 -0.14726 -0.01383
 H97 H 0.26312 -0.15369 -0.00658
 C98 C 0.29220 -0.15936 -0.01798
 H99 H 0.29176 -0.17492 -0.01350
 Zn100 Zn 0.25460 -0.11062 -0.01369
 N101 N 0.27634 -0.12751 -0.01884
 C102 C 0.28120 -0.09115 0.01598
 N103 N 0.26235 -0.09107 0.00718
 C104 C 0.24832 -0.07851 0.01438
 C105 C 0.25304 -0.06539 0.03115
 C106 C 0.28651 -0.07842 0.03282
 C107 C 0.24503 -0.11075 -0.05490
 C108 C 0.23944 -0.10305 -0.07347
 C109 C 0.23915 -0.06974 -0.05717
 C110 C 0.24500 -0.07814 -0.03897
 N111 N 0.24743 -0.09836 -0.03809
 H112 H 0.29199 -0.10160 0.01042
 H113 H 0.23328 -0.07903 0.00738
 H114 H 0.24164 -0.05555 0.03666
 H115 H 0.30136 -0.07940 0.04000
 H116 H 0.24755 -0.12676 -0.05386
 H117 H 0.23875 -0.11373 -0.08625
 H118 H 0.23632 -0.05378 -0.05637
 H119 H 0.24722 -0.06846 -0.02548
 C120 C 0.30886 -0.15115 -0.02767
 C121 C 0.19957 -0.14707 0.01004
 C122 C 0.23591 -0.08212 -0.07516
 C123 C 0.27230 -0.06543 0.04080
 C124 C 0.22591 0.14371 0.47120
 H125 H 0.23364 0.13413 0.46076
 C126 C 0.21014 0.15513 0.46393
 H127 H 0.20569 0.15377 0.44803
 C128 C 0.22210 0.15696 0.50445
 H129 H 0.22690 0.15790 0.52019
 C130 C 0.20625 0.16865 0.49781
 H131 H 0.19905 0.17842 0.50861
 N132 N 0.23134 0.14444 0.49124
 C133 C 0.28833 0.13272 0.52249
 H134 H 0.28625 0.11652 0.52383
 C135 C 0.30560 0.14285 0.53105
 H136 H 0.31687 0.13426 0.53881
 C137 C 0.27632 0.16335 0.51007
 H138 H 0.26487 0.17117 0.50175
 C139 C 0.29348 0.17411 0.51838
 H140 H 0.29501 0.19030 0.51659
 Zn141 Zn 0.25186 0.12731 0.50077
 N142 N 0.27418 0.14300 0.51218
 C143 C 0.27975 0.11451 0.47265
 N144 N 0.26067 0.11105 0.47871
 C145 C 0.24771 0.09751 0.46832
 C146 C 0.25375 0.08703 0.45099
 C147 C 0.28637 0.10443 0.45545
 C148 C 0.23924 0.12127 0.53948
 C149 C 0.23277 0.11092 0.55601
 C150 C 0.23284 0.07961 0.53593
 C151 C 0.23927 0.09064 0.51965
 N152 N 0.24211 0.11117 0.52163
 H153 H 0.28973 0.12563 0.48073
 H154 H 0.23246 0.09531 0.47313
 H155 H 0.24320 0.07640 0.44289
 H156 H 0.30139 0.10803 0.45059
 H157 H 0.24248 0.13740 0.54111
 H158 H 0.23027 0.11947 0.56989
 H159 H 0.23087 0.06329 0.53415
 H160 H 0.24225 0.08270 0.50563
 C161 C 0.30840 0.16382 0.52901
 C162 C 0.19988 0.16761 0.47734
 C163 C 0.22955 0.08979 0.55445
 C164 C 0.27328 0.09059 0.44423
 C165 C 0.15720 0.47046 0.22746
 H166 H 0.15687 0.46386 0.24209
 C167 C 0.16885 0.46198 0.21249
 H168 H 0.17766 0.44897 0.21573
 C169 C 0.14553 0.49500 0.20520
 H170 H 0.13595 0.50743 0.20215
 C171 C 0.15714 0.48717 0.18989
 H172 H 0.15642 0.49376 0.17523
 N173 N 0.14576 0.48659 0.22356
 C174 C 0.13140 0.51582 0.28077
 H175 H 0.11522 0.51578 0.27815
 C176 C 0.14023 0.52464 0.29858
 H177 H 0.13066 0.53122 0.30971
 C178 C 0.16335 0.50674 0.26950
 H179 H 0.17224 0.49981 0.25803
 C180 C 0.17285 0.51532 0.28727
 H181 H 0.18909 0.51501 0.28935
 Zn182 Zn 0.12836 0.49550 0.24369
 N183 N 0.14295 0.50698 0.26674
 C184 C 0.11684 0.46563 0.27006
 N185 N 0.11308 0.47249 0.25129
 C186 C 0.10047 0.46189 0.23760
 C187 C 0.09110 0.44356 0.24264
 C188 C 0.10806 0.44736 0.27560
 C189 C 0.12226 0.53372 0.23043
 C190 C 0.11197 0.55061 0.22457
 C191 C 0.08054 0.53130 0.22650
 C192 C 0.09151 0.51465 0.23234
 N193 N 0.11201 0.51618 0.23410
 H194 H 0.12729 0.47390 0.28059
 H195 H 0.09812 0.46740 0.22260
 H196 H 0.08138 0.43505 0.23153
 H197 H 0.11148 0.44202 0.29052
 H198 H 0.13854 0.53460 0.23223
 H199 H 0.12055 0.56431 0.22149
 H200 H 0.06423 0.53000 0.22546
 H201 H 0.08362 0.50071 0.23582
 C202 C 0.16120 0.52444 0.30207
 C203 C 0.16878 0.47028 0.19337
 C204 C 0.09082 0.54965 0.22273
 C205 C 0.09523 0.43596 0.26174
 C206 C -0.12206 0.02079 0.23424
 H207 H -0.11213 0.03084 0.24370
 C208 C -0.13321 0.02866 0.21834
 H209 H -0.13064 0.04454 0.21562
 C210 C -0.13642 -0.01201 0.22640
 H211 H -0.13788 -0.02781 0.22978
 C212 C -0.14788 -0.00481 0.21027
 H213 H -0.15826 -0.01544 0.20198
 N214 N -0.12360 0.00072 0.23785
 C215 C -0.11692 -0.02790 0.29513
 H216 H -0.10168 -0.03299 0.29428
 C217 C -0.12857 -0.03329 0.31119
 H218 H -0.12223 -0.04288 0.32246
 C219 C -0.14371 -0.00963 0.28103
 H220 H -0.14942 -0.00026 0.26928
 C221 C -0.15585 -0.01453 0.29694
 H222 H -0.17085 -0.00873 0.29732
 Zn223 Zn -0.10775 -0.00926 0.25951
 N224 N -0.12462 -0.01629 0.28049
 C225 C -0.09028 0.01932 0.28852
 N226 N -0.08874 0.01148 0.26940
 C227 C -0.07506 0.01942 0.25691
 C228 C -0.06234 0.03594 0.26351
 C229 C -0.07807 0.03596 0.29563
 C230 C -0.10646 -0.05035 0.24784
 C231 C -0.09807 -0.06842 0.24141
 C232 C -0.06559 -0.05075 0.24148
 C233 C -0.07458 -0.03304 0.24809
 N234 N -0.09477 -0.03303 0.25076
 H235 H -0.10150 0.01316 0.29811
 H236 H -0.07446 0.01332 0.24158
 H237 H -0.05158 0.04195 0.25331
 H238 H -0.08029 0.04240 0.31060
 H239 H -0.12232 -0.05023 0.25084
 H240 H -0.10767 -0.08204 0.23942
 H241 H -0.04960 -0.05022 0.23888
 H242 H -0.06534 -0.01938 0.25097
 C243 C -0.14830 -0.02649 0.31235
 C244 C -0.14640 0.01589 0.20577
 C245 C -0.07738 -0.06877 0.23792
 C246 C -0.06394 0.04467 0.28304
 C247 C 0.34672 0.49279 0.73151
 H248 H 0.34078 0.48933 0.74590
 C249 C 0.33366 0.49854 0.71589
 H250 H 0.31773 0.49947 0.71845
 C251 C 0.37455 0.49552 0.71049
 H252 H 0.39058 0.49450 0.70861
 C253 C 0.36205 0.50125 0.69448
 H254 H 0.36865 0.50483 0.68036
 N255 N 0.36684 0.49192 0.72869
 C256 C 0.37504 0.46047 0.78106
 H257 H 0.38493 0.44992 0.77412
 C258 C 0.36497 0.45494 0.79810
 H259 H 0.36719 0.44011 0.80398
 C260 C 0.36094 0.49285 0.78253
 H261 H 0.35952 0.50764 0.77635
 C262 C 0.35057 0.48794 0.79968
 H263 H 0.34098 0.49896 0.80648
 Zn264 Zn 0.38567 0.48590 0.74960
 N265 N 0.37249 0.47896 0.77331
 C266 C 0.41738 0.50791 0.77121
 N267 N 0.40296 0.50894 0.75615
 C268 C 0.40004 0.52650 0.74664
 C269 C 0.41195 0.54387 0.75209
 C270 C 0.42960 0.52499 0.77721
 C271 C 0.38934 0.44647 0.73428
 C272 C 0.39887 0.42938 0.72701
 C273 C 0.43065 0.44852 0.73019
 C274 C 0.42052 0.46518 0.73772
 N275 N 0.40025 0.46378 0.73982
 H276 H 0.41920 0.49384 0.77873
 H277 H 0.38815 0.52727 0.73513
 H278 H 0.40902 0.55779 0.74465
 H279 H 0.44099 0.52390 0.78925
 H280 H 0.37319 0.44587 0.73585
 H281 H 0.38987 0.41560 0.72341
 H282 H 0.44673 0.45008 0.72832
 H283 H 0.42884 0.47927 0.74168
 C284 C 0.35229 0.46862 0.80747
 C285 C 0.34135 0.50314 0.69717
 C286 C 0.41983 0.43021 0.72483
 C287 C 0.42689 0.54331 0.76764
 C288 C 0.65283 0.96850 0.72872
 H289 H 0.65279 0.96130 0.74305
 C290 C 0.66332 0.96003 0.71279
 H291 H 0.67134 0.94628 0.71502
 C292 C 0.64127 0.99436 0.70800
 H293 H 0.63226 1.00741 0.70592
 C294 C 0.65153 0.98645 0.69176
 H295 H 0.65065 0.99388 0.67754
 N296 N 0.64196 0.98528 0.72601
 C297 C 0.63013 1.01543 0.78360
 H298 H 0.61442 1.01818 0.78023
 C299 C 0.63932 1.02289 0.80180
 H300 H 0.63037 1.03202 0.81158
 C301 C 0.66047 1.00118 0.77369
 H302 H 0.66858 0.99259 0.76270
 C303 C 0.67032 1.00827 0.79186
 H304 H 0.68582 1.00430 0.79445
 Zn305 Zn 0.62540 0.99462 0.74676
 N306 N 0.64063 1.00458 0.77011
 C307 C 0.60849 0.96718 0.77326
 N308 N 0.60838 0.97257 0.75370
 C309 C 0.59734 0.96160 0.73901
 C310 C 0.58578 0.94444 0.74380
 C311 C 0.59707 0.95034 0.77872
 C312 C 0.62109 1.03392 0.73502
 C313 C 0.61145 1.05119 0.72914
 C314 C 0.57951 1.03244 0.72920
 C315 C 0.58982 1.01541 0.73510
 N316 N 0.61027 1.01647 0.73776
 H317 H 0.61771 0.97571 0.78468
 H318 H 0.59775 0.96602 0.72352
 H319 H 0.57708 0.93583 0.73197
 H320 H 0.59763 0.94618 0.79433
 H321 H 0.63732 1.03436 0.73742
 H322 H 0.62048 1.06479 0.72669
 H323 H 0.56322 1.03146 0.72732
 H324 H 0.58149 1.00147 0.73771
 C325 C 0.65973 1.01912 0.80660
 C326 C 0.66244 0.96884 0.69389
 C327 C 0.59037 1.05067 0.72624
 C328 C 0.58556 0.93869 0.76392
 C329 C 0.01543 0.23620 -0.13998
 H330 H 0.02275 0.25113 -0.13859
 C331 C 0.02376 0.22085 -0.15166
 H332 H 0.03737 0.22420 -0.15950
 C333 C -0.01120 0.21377 -0.13133
 H334 H -0.02460 0.21093 -0.12307
 C335 C -0.00336 0.19797 -0.14280
 H336 H -0.01085 0.18311 -0.14317
 N337 N -0.00182 0.23246 -0.13022
 C338 C -0.03008 0.29014 -0.12012
 H339 H -0.03262 0.28947 -0.10417
 C340 C -0.03689 0.30643 -0.13084
 H341 H -0.04484 0.31819 -0.12303
 C342 C -0.01721 0.27518 -0.14973
 H343 H -0.00973 0.26288 -0.15710
 C344 C -0.02378 0.29121 -0.16104
 H345 H -0.02092 0.29122 -0.17698
 Zn346 Zn -0.01166 0.25360 -0.11370
 N347 N -0.02020 0.27508 -0.12958
 C348 C 0.01540 0.28285 -0.09384
 N349 N 0.00971 0.26284 -0.09536
 C350 C 0.02061 0.24883 -0.08573
 C351 C 0.03850 0.25468 -0.07477
 C352 C 0.03299 0.28937 -0.08286
 C353 C -0.05138 0.23996 -0.11189
 C354 C -0.06898 0.23280 -0.10346
 C355 C -0.05127 0.23427 -0.07088
 C356 C -0.03399 0.24150 -0.08004
 N357 N -0.03433 0.24395 -0.10023
 H358 H 0.00675 0.29377 -0.10172
 H359 H 0.01592 0.23297 -0.08742
 H360 H 0.04750 0.24315 -0.06814
 H361 H 0.03731 0.30536 -0.08209
 H362 H -0.05132 0.24251 -0.12789
 H363 H -0.08216 0.23094 -0.11355
 H364 H -0.04964 0.23164 -0.05497
 H365 H -0.02022 0.24486 -0.07104
 C366 C -0.03367 0.30717 -0.15157
 C367 C 0.01438 0.20140 -0.15313
 C368 C -0.06943 0.22946 -0.08251
 C369 C 0.04519 0.27515 -0.07368
 C370 C 0.47905 0.22934 0.15349
 H371 H 0.47328 0.24443 0.15350
 C372 C 0.46998 0.21454 0.16492
 H373 H 0.45734 0.21839 0.17392
 C374 C 0.50220 0.20584 0.14131
 H375 H 0.51435 0.20229 0.13164
 C376 C 0.49373 0.19066 0.15265
 H377 H 0.49953 0.17558 0.15163
 N378 N 0.49485 0.22479 0.14199
 C379 C 0.52670 0.28162 0.13050
 H380 H 0.52701 0.27973 0.11425
 C381 C 0.53571 0.29890 0.14035
 H382 H 0.54276 0.31037 0.13151
 C383 C 0.51653 0.26910 0.16157
 H384 H 0.50912 0.25737 0.16975
 C385 C 0.52530 0.28627 0.17207
 H386 H 0.52462 0.28760 0.18834
 Zn387 Zn 0.50509 0.24510 0.12546
 N388 N 0.51716 0.26727 0.14112
 C389 C 0.47729 0.27361 0.11301
 N390 N 0.48302 0.25426 0.10973
 C391 C 0.47211 0.24105 0.09686
 C392 C 0.45473 0.24725 0.08657
 C393 C 0.46003 0.28038 0.10318
 C394 C 0.54244 0.22929 0.11942
 C395 C 0.55882 0.22250 0.10899
 C396 C 0.54032 0.22768 0.07762
 C397 C 0.52416 0.23428 0.08871
 N398 N 0.52550 0.23487 0.10925
 H399 H 0.48569 0.28371 0.12379
 H400 H 0.47675 0.22562 0.09483
 H401 H 0.44631 0.23657 0.07631
 H402 H 0.45549 0.29566 0.10658
 H403 H 0.54321 0.23020 0.13575
 H404 H 0.57196 0.21778 0.11750
 H405 H 0.53914 0.22766 0.06130
 H406 H 0.51076 0.23927 0.08091
 C407 C 0.53499 0.30148 0.16140
 C408 C 0.47729 0.19489 0.16453
 C409 C 0.55801 0.22176 0.08778
 C410 C 0.44840 0.26715 0.08978
 C411 C 0.95764 0.72469 0.64484
 H412 H 0.94698 0.73399 0.63718
 C413 C 0.95050 0.70886 0.65621
 H414 H 0.93439 0.70597 0.65687
 C415 C 0.99142 0.71674 0.65283
 H416 H 1.00735 0.71969 0.65148
 C417 C 0.98493 0.70068 0.66426
 H418 H 0.99600 0.69156 0.67165
 N419 N 0.97780 0.72807 0.64292
 C420 C 1.00523 0.78583 0.62658
 H421 H 1.00473 0.78323 0.61036
 C422 C 1.01346 0.80404 0.63523
 H423 H 1.01946 0.81539 0.62557
 C424 C 0.99811 0.77397 0.65884
 H425 H 0.99199 0.76218 0.66788
 C426 C 1.00647 0.79195 0.66817
 H427 H 1.00667 0.79398 0.68445
 Zn428 Zn 0.98638 0.74773 0.62455
 N429 N 0.99753 0.77139 0.63838
 C430 C 0.95643 0.77359 0.61073
 N431 N 0.96352 0.75462 0.60838
 C432 C 0.95340 0.74016 0.59622
 C433 C 0.93547 0.74459 0.58580
 C434 C 0.93852 0.77859 0.60078
 C435 C 1.02519 0.73570 0.61872
 C436 C 1.04136 0.72748 0.60903
 C437 C 1.02061 0.72390 0.57821
 C438 C 1.00465 0.73201 0.58863
 N439 N 1.00708 0.73723 0.60870
 H440 H 0.96427 0.78475 0.62087
 H441 H 0.95892 0.72499 0.59513
 H442 H 0.92739 0.73284 0.57648
 H443 H 0.93307 0.79372 0.60297
 H444 H 1.02715 0.74099 0.63434
 H445 H 1.05558 0.72618 0.61740
 H446 H 1.01841 0.71939 0.56237
 H447 H 0.99041 0.73398 0.58066
 C448 C 1.01406 0.80732 0.65626
 C449 C 0.96421 0.69632 0.66572
 C450 C 1.03909 0.72118 0.58860
 C451 C 0.92771 0.76395 0.58828
 C452 C 0.48413 0.73036 0.34721
 H453 H 0.48149 0.74475 0.34068
 C454 C 0.49067 0.71432 0.33510
 H455 H 0.49307 0.71654 0.31931
 C456 C 0.48417 0.70981 0.37562
 H457 H 0.48181 0.70830 0.39152
 C458 C 0.49056 0.69335 0.36405
 H459 H 0.49329 0.67924 0.37121
 N460 N 0.48153 0.72797 0.36720
 C461 C 0.44950 0.78027 0.37028
 H462 H 0.43806 0.77336 0.37911
 C463 C 0.44488 0.79715 0.35933
 H464 H 0.42992 0.80286 0.36046
 C465 C 0.48313 0.78203 0.36003
 H466 H 0.49804 0.77597 0.36040
 C467 C 0.47925 0.79910 0.34896
 H468 H 0.49135 0.80540 0.34049
 Zn469 Zn 0.47439 0.74959 0.38474
 N470 N 0.46823 0.77276 0.37009
 C471 C 0.49473 0.77325 0.41606
 N472 N 0.49639 0.75706 0.40296
 C473 C 0.51407 0.74751 0.40148
 C474 C 0.53109 0.75438 0.41321
 C475 C 0.51144 0.78069 0.42804
 C476 C 0.43510 0.73403 0.38676
 C477 C 0.41783 0.72656 0.39557
 C478 C 0.43527 0.73114 0.42824
 C479 C 0.45213 0.73890 0.41879
 N480 N 0.45168 0.74029 0.39840
 H481 H 0.48056 0.78073 0.41674
 H482 H 0.51529 0.73502 0.39064
 H483 H 0.54520 0.74703 0.41121
 H484 H 0.50996 0.79381 0.43814
 H485 H 0.43528 0.73502 0.37054
 H486 H 0.40466 0.72229 0.38595
 H487 H 0.43614 0.72970 0.44443
 H488 H 0.46566 0.74348 0.42772
 C489 C 0.45974 0.80689 0.34814
 C490 C 0.49424 0.69561 0.34360
 C491 C 0.41774 0.72486 0.41661
 C492 C 0.53001 0.77139 0.42647
 C493 C 0.38527 -0.01786 0.25648
 C494 C 0.37119 -0.02236 0.23785
 C495 C 0.35921 -0.00693 0.23288
 C496 C 0.36279 0.01213 0.24701
 C497 C 0.39730 0.00147 0.25129
 C498 C 0.38565 0.01739 0.24649
 C499 C 0.37154 -0.01092 0.27311
 C500 C 0.35980 0.00467 0.26830
 H501 H 0.37151 -0.03638 0.22882
 H502 H 0.35265 0.02449 0.24340
 H503 H 0.41339 0.00197 0.24975
 H504 H 0.37193 -0.01724 0.28791
 C505 C 0.10733 1.03040 0.75173
 C506 C 0.12130 1.03630 0.73501
 C507 C 0.13265 1.02106 0.72804
 C508 C 0.12920 1.00103 0.73850
 C509 C 0.09493 1.01175 0.74275
 C510 C 0.10633 0.99644 0.73589
 C511 C 0.12129 1.02176 0.76794
 C512 C 0.13307 1.00670 0.76116
 H513 H 0.12171 1.05120 0.72879
 H514 H 0.13851 0.98872 0.73256
 H515 H 0.07870 1.01001 0.74258
 H516 H 0.12138 1.02699 0.78363
 C517 C 0.60349 0.53443 0.25136
 C518 C 0.61557 0.54039 0.23323
 C519 C 0.62874 0.52641 0.22714
 C520 C 0.62838 0.50722 0.23941
 C521 C 0.59315 0.51391 0.24440
 C522 C 0.60613 0.49954 0.23832
 C523 C 0.61937 0.52925 0.26752
 C524 C 0.63229 0.51499 0.26142
 H525 H 0.61362 0.55434 0.22552
 H526 H 0.63935 0.49597 0.23452
 H527 H 0.57697 0.51130 0.24323
 H528 H 0.61949 0.53546 0.28290
 C529 C 0.87918 0.47986 0.75913
 C530 C 0.86217 0.47514 0.74313
 C531 C 0.85125 0.49134 0.73833
 C532 C 0.85809 0.51104 0.75014
 C533 C 0.89164 0.49754 0.75073
 C534 C 0.88062 0.51385 0.74604
 C535 C 0.86887 0.48967 0.77705
 C536 C 0.85784 0.50592 0.77251
 H537 H 0.86009 0.46054 0.73508
 H538 H 0.84891 0.52408 0.74616
 H539 H 0.90781 0.49798 0.74973
 H540 H 0.87035 0.48413 0.79215
 C541 C 0.26350 0.38306 -0.02026
 C542 C 0.24531 0.36852 -0.02547
 C543 C 0.24013 0.35656 -0.01023
 C544 C 0.25350 0.36021 0.00913
 C545 C 0.25742 0.39495 -0.00112
 C546 C 0.25231 0.38307 0.01441
 C547 C 0.28020 0.36950 -0.01292
 C548 C 0.27511 0.35757 0.00238
 H549 H 0.23661 0.36841 -0.03967
 H550 H 0.24944 0.34997 0.02124
 H551 H 0.25545 0.41110 -0.00050
 H552 H 0.29514 0.37000 -0.01887
 C553 C 0.75828 0.10287 1.03254
 C554 C 0.74035 0.11570 1.03776
 C555 C 0.73334 0.12690 1.02248
 C556 C 0.74482 0.12426 1.00302
 C557 C 0.75082 0.09013 1.01347
 C558 C 0.74356 0.10120 0.99796
 C559 C 0.77393 0.11790 1.02485
 C560 C 0.76708 0.12914 1.00952
 H561 H 0.73343 0.11544 1.05224
 H562 H 0.73907 0.13396 0.99104
 H563 H 0.75192 0.07395 1.01193
 H564 H 0.78951 0.11878 1.03050
 C565 C 0.24079 0.60407 0.53551
 C566 C 0.22302 0.61755 0.53994
 C567 C 0.21731 0.62904 0.52438
 C568 C 0.22956 0.62599 0.50553
 C569 C 0.23357 0.59162 0.51621
 C570 C 0.22785 0.60304 0.50044
 C571 C 0.25736 0.61866 0.52866
 C572 C 0.25161 0.63000 0.51296
 H573 H 0.21459 0.61717 0.55350
 H574 H 0.22493 0.63569 0.49304
 H575 H 0.23263 0.57522 0.51533
 H576 H 0.27273 0.61891 0.53485
 C577 C 0.75100 0.88503 0.47651
 C578 C 0.73155 0.87289 0.47019
 C579 C 0.72489 0.86003 0.48414
 C580 C 0.73843 0.86061 0.50363
 C581 C 0.74622 0.89583 0.49670
 C582 C 0.73978 0.88313 0.51110
 C583 C 0.76607 0.86915 0.48249
 C584 C 0.75960 0.85637 0.49653
 H585 H 0.72327 0.87511 0.45608
 H586 H 0.73343 0.84966 0.51473
 H587 H 0.74690 0.91205 0.49919
 H588 H 0.78112 0.86884 0.47683
 C589 C -0.01383 0.26608 0.39225
 C590 C -0.01888 0.24559 0.38117
 C591 C -0.00367 0.23827 0.37030
 C592 C 0.01546 0.25208 0.37139
 C593 C 0.00556 0.26260 0.40500
 C594 C 0.02083 0.25493 0.39422
 C595 C -0.00671 0.28006 0.37593
 C596 C 0.00841 0.27284 0.36486
 H597 H -0.03314 0.23731 0.38236
 H598 H 0.02758 0.24585 0.36228
 H599 H 0.00738 0.26605 0.42102
 H600 H -0.01256 0.29497 0.37407
 C601 C 1.03686 0.75566 0.11149
 C602 C 1.04181 0.73734 0.12406
 C603 C 1.02642 0.73066 0.13518
 C604 C 1.00721 0.74265 0.13277
 C605 C 1.01772 0.74862 0.09889
 C606 C 1.00207 0.74174 0.10983
 C607 C 1.02971 0.77143 0.12686
 C608 C 1.01421 0.76479 0.13789
 H609 H 1.05571 0.72944 0.12381
 H610 H 0.99517 0.73707 0.14240
 H611 H 1.01676 0.74966 0.08267
 H612 H 1.03597 0.78683 0.12836
 C613 C 0.53930 0.25169 0.60515
 C614 C 0.54424 0.23405 0.61867
 C615 C 0.52904 0.22846 0.63056
 C616 C 0.51006 0.24075 0.62793
 C617 C 0.51974 0.24431 0.59336
 C618 C 0.50433 0.23876 0.60520
 C619 C 0.53282 0.26851 0.61981
 C620 C 0.51751 0.26292 0.63158
 H621 H 0.55790 0.22571 0.61835
 H622 H 0.49790 0.23628 0.63799
 H623 H 0.51843 0.24336 0.57704
 H624 H 0.53911 0.28389 0.61999
 C625 C 0.47819 0.75579 0.88637
 C626 C 0.47340 0.73824 0.87096
 C627 C 0.48857 0.73409 0.85851
 C628 C 0.50755 0.74804 0.86265
 C629 C 0.49773 0.74981 0.89755
 C630 C 0.51330 0.74598 0.88526
 C631 C 0.48481 0.77357 0.87385
 C632 C 0.50010 0.76972 0.86146
 H633 H 0.45950 0.72910 0.87080
 H634 H 0.51975 0.74497 0.85224
 H635 H 0.49904 0.74789 0.91358
 H636 H 0.47774 0.78806 0.87478
 C637 C 0.44537 -0.14199 0.31398
 C638 C 0.46525 -0.14454 0.32110
 C639 C 0.47012 -0.16144 0.33208
 C640 C 0.45511 -0.17614 0.33655
 C641 C 0.43518 -0.17338 0.32913
 C642 C 0.43045 -0.15664 0.31802
 C643 C 0.43985 -0.12385 0.30290
 C644 C 0.42646 -0.12582 0.28591
 C645 C 0.41940 -0.10867 0.27678
 C646 C 0.42549 -0.08914 0.28449
 C647 C 0.43965 -0.08718 0.30090
 C648 C 0.44679 -0.10438 0.31000
 C649 C 0.41593 -0.07105 0.27640
 C650 C 0.42714 -0.05289 0.27414
 C651 C 0.41769 -0.03567 0.26742
 C652 C 0.39677 -0.03630 0.26267
 C653 C 0.38568 -0.05454 0.26510
 C654 C 0.39510 -0.07166 0.27176
 H655 H 0.47706 -0.13342 0.31818
 H656 H 0.48555 -0.16229 0.33776
 H657 H 0.42311 -0.18444 0.33122
 H658 H 0.41494 -0.15501 0.31280
 H659 H 0.42117 -0.14066 0.27990
 H660 H 0.40885 -0.11068 0.26389
 H661 H 0.44448 -0.07235 0.30731
 H662 H 0.45700 -0.10243 0.32316
 H663 H 0.44322 -0.05196 0.27767
 H664 H 0.42686 -0.02194 0.26650
 H665 H 0.36950 -0.05544 0.26214
 H666 H 0.38591 -0.08523 0.27385
 C667 C 0.94468 0.35726 0.81528
 C668 C 0.95377 0.36050 0.83472
 C669 C 0.96098 0.34429 0.84535
 C670 C 0.95925 0.32444 0.83680
 C671 C 0.95043 0.32122 0.81724
 C672 C 0.94321 0.33745 0.80660
 C673 C 0.93618 0.37442 0.80446
 C674 C 0.91749 0.37200 0.79370
 C675 C 0.90881 0.38848 0.78467
 C676 C 0.91861 0.40776 0.78623
 C677 C 0.93757 0.41004 0.79649
 C678 C 0.94626 0.39356 0.80550
 C679 C 0.90866 0.42561 0.77809
 C680 C 0.91983 0.44073 0.76871
 C681 C 0.91063 0.45811 0.76214
 C682 C 0.88998 0.46085 0.76494
 C683 C 0.87877 0.44530 0.77375
 C684 C 0.88797 0.42799 0.78031
 H685 H 0.95491 0.37553 0.84194
 H686 H 0.96794 0.34731 0.86028
 H687 H 0.94872 0.30608 0.81031
 H688 H 0.93645 0.33449 0.79157
 H689 H 0.90927 0.35750 0.79276
 H690 H 0.89431 0.38618 0.77664
 H691 H 0.94542 0.42472 0.79810
 H692 H 0.96080 0.39583 0.81345
 H693 H 0.93574 0.43912 0.76643
 H694 H 0.91995 0.46914 0.75499
 H695 H 0.86281 0.44678 0.77594
 H696 H 0.87895 0.41673 0.78765
 C697 C 0.04026 1.15195 0.81383
 C698 C 0.05268 1.16643 0.82503
 C699 C 0.04430 1.18256 0.83557
 C700 C 0.02330 1.18462 0.83511
 C701 C 0.01090 1.17027 0.82369
 C702 C 0.01928 1.15410 0.81319
 C703 C 0.04917 1.13445 0.80326
 C704 C 0.04023 1.11488 0.80398
 C705 C 0.04912 1.09825 0.79479
 C706 C 0.06711 1.10081 0.78464
 C707 C 0.07584 1.12044 0.78360
 C708 C 0.06698 1.13707 0.79283
 C709 C 0.07707 1.08302 0.77571
 C710 C 0.09811 1.08181 0.77741
 C711 C 0.10749 1.06489 0.76950
 C712 C 0.09613 1.04855 0.75981
 C713 C 0.07503 1.04999 0.75778
 C714 C 0.06565 1.06698 0.76570
 H715 H 0.06887 1.16500 0.82606
 H716 H 0.05425 1.19314 0.84450
 H717 H -0.00530 1.17162 0.82276
 H718 H 0.00936 1.14333 0.80445
 H719 H 0.02666 1.11236 0.81214
 H720 H 0.04219 1.08329 0.79612
 H721 H 0.08950 1.12297 0.77559
 H722 H 0.07403 1.15201 0.79176
 H723 H 0.10735 1.09379 0.78520
 H724 H 0.12376 1.06444 0.77111
 H725 H 0.06552 1.03831 0.75001
 H726 H 0.04942 1.06767 0.76379
 C727 C 0.52218 0.64700 0.31163
 C728 C 0.52866 0.66723 0.30940
 C729 C 0.51909 0.68304 0.31922
 C730 C 0.50295 0.67893 0.33161
 C731 C 0.49609 0.65872 0.33339
 C732 C 0.50556 0.64290 0.32339
 C733 C 0.53342 0.63027 0.30253
 C734 C 0.52327 0.61371 0.29207
 C735 C 0.53411 0.59805 0.28347
 C736 C 0.55531 0.59854 0.28537
 C737 C 0.56535 0.61499 0.29619
 C738 C 0.55455 0.63071 0.30454
 C739 C 0.56701 0.58211 0.27608
 C740 C 0.58568 0.58667 0.26785
 C741 C 0.59716 0.57131 0.25987
 C742 C 0.59003 0.55094 0.25914
 C743 C 0.57142 0.54634 0.26764
 C744 C 0.56001 0.56175 0.27588
 H745 H 0.54132 0.67079 0.30025
 H746 H 0.52481 0.69844 0.31770
 H747 H 0.48357 0.65515 0.34271
 H748 H 0.50034 0.62742 0.32541
 H749 H 0.50697 0.61309 0.29025
 H750 H 0.52591 0.58573 0.27506
 H751 H 0.58160 0.61564 0.29843
 H752 H 0.56271 0.64310 0.31290
 H753 H 0.59153 0.60217 0.26761
 H754 H 0.61182 0.57545 0.25444
 H755 H 0.56584 0.53085 0.26855
 H756 H 0.54596 0.55765 0.28262
 C757 C 0.55910 0.35792 0.18906
 C758 C 0.54105 0.34907 0.19556
 C759 C 0.53352 0.33041 0.18706
 C760 C 0.54386 0.32025 0.17188
 C761 C 0.56227 0.32876 0.16595
 C762 C 0.56980 0.34736 0.17444
 C763 C 0.56634 0.37846 0.19681
 C764 C 0.57415 0.39248 0.18354
 C765 C 0.58072 0.41192 0.19057
 C766 C 0.57967 0.41785 0.21107
 C767 C 0.57183 0.40385 0.22437
 C768 C 0.56522 0.38437 0.21731
 C769 C 0.58663 0.43861 0.21841
 C770 C 0.57574 0.44953 0.23262
 C771 C 0.58206 0.46926 0.23909
 C772 C 0.59940 0.47855 0.23149
 C773 C 0.61039 0.46749 0.21748
 C774 C 0.60408 0.44778 0.21101
 H775 H 0.53238 0.35692 0.20667
 H776 H 0.51920 0.32432 0.19179
 H777 H 0.57079 0.32109 0.15457
 H778 H 0.58396 0.35358 0.16945
 H779 H 0.57482 0.38853 0.16758
 H780 H 0.58630 0.42246 0.17987
 H781 H 0.57107 0.40788 0.24030
 H782 H 0.55946 0.37383 0.22793
 H783 H 0.56216 0.44295 0.23851
 H784 H 0.57343 0.47713 0.25021
 H785 H 0.62376 0.47404 0.21123
 H786 H 0.61296 0.43967 0.20027
 C787 C 0.04033 0.86391 0.68154
 C788 C 0.04522 0.84547 0.69005
 C789 C 0.03635 0.82710 0.68217
 C790 C 0.02256 0.82677 0.66552
 C791 C 0.01740 0.84518 0.65723
 C792 C 0.02609 0.86353 0.66521
 C793 C 0.05024 0.88343 0.68938
 C794 C 0.05523 0.89871 0.67610
 C795 C 0.06444 0.91709 0.68339
 C796 C 0.06909 0.92056 0.70411
 C797 C 0.06425 0.90531 0.71741
 C798 C 0.05485 0.88698 0.71014
 C799 C 0.07894 0.94002 0.71185
 C800 C 0.09512 0.94023 0.72621
 C801 C 0.10422 0.95857 0.73374
 C802 C 0.09725 0.97705 0.72722
 C803 C 0.08111 0.97690 0.71284
 C804 C 0.07211 0.95854 0.70511
 H805 H 0.05631 0.84515 0.70246
 H806 H 0.04071 0.81309 0.68871
 H807 H 0.00657 0.84537 0.64458
 H808 H 0.02158 0.87744 0.65860
 H809 H 0.05230 0.89636 0.65998
 H810 H 0.06824 0.92849 0.67279
 H811 H 0.06743 0.90771 0.73349
 H812 H 0.05094 0.87573 0.72084
 H813 H 0.10075 0.92617 0.73158
 H814 H 0.11629 0.95829 0.74511
 H815 H 0.07548 0.99099 0.70757
 H816 H 0.05956 0.95883 0.69418
 C817 C 0.94140 0.64267 0.69314
 C818 C 0.95850 0.64201 0.68143
 C819 C 0.96620 0.65955 0.67302
 C820 C 0.95691 0.67812 0.67603
 C821 C 0.94005 0.67887 0.68808
 C822 C 0.93241 0.66134 0.69662
 C823 C 0.93263 0.62382 0.70116
 C824 C 0.92593 0.62359 0.72093
 C825 C 0.91759 0.60579 0.72835
 C826 C 0.91565 0.58786 0.71611
 C827 C 0.92226 0.58816 0.69628
 C828 C 0.93070 0.60591 0.68892
 C829 C 0.90675 0.56890 0.72392
 C830 C 0.91460 0.55001 0.71873
 C831 C 0.90613 0.53216 0.72588
 C832 C 0.88967 0.53278 0.73846
 C833 C 0.88188 0.55164 0.74374
 C834 C 0.89030 0.56950 0.73653
 H835 H 0.96587 0.62789 0.67870
 H836 H 0.97908 0.65844 0.66364
 H837 H 0.93268 0.69300 0.69080
 H838 H 0.91915 0.66227 0.70549
 H839 H 0.92742 0.63712 0.73077
 H840 H 0.91293 0.60601 0.74379
 H841 H 0.92062 0.57475 0.68631
 H842 H 0.93539 0.60573 0.67349
 H843 H 0.92743 0.54901 0.70927
 H844 H 0.91237 0.51786 0.72135
 H845 H 0.86943 0.55270 0.75367
 H846 H 0.88375 0.58376 0.74065
 C847 C 0.44839 0.14595 0.19458
 C848 C 0.43685 0.15990 0.18421
 C849 C 0.44622 0.17611 0.17493
 C850 C 0.46734 0.17859 0.17566
 C851 C 0.47888 0.16486 0.18635
 C852 C 0.46949 0.14876 0.19581
 C853 C 0.43851 0.12807 0.20336
 C854 C 0.44448 0.12203 0.22268
 C855 C 0.43548 0.10481 0.23062
 C856 C 0.42046 0.09313 0.21932
 C857 C 0.41450 0.09928 0.20000
 C858 C 0.42336 0.11659 0.19216
 C859 C 0.41132 0.07437 0.22734
 C860 C 0.39087 0.06897 0.22314
 C861 C 0.38252 0.05077 0.22959
 C862 C 0.39433 0.03738 0.24050
 C863 C 0.41464 0.04327 0.24540
 C864 C 0.42304 0.06140 0.23878
 H865 H 0.42055 0.15817 0.18318
 H866 H 0.43696 0.18636 0.16666
 H867 H 0.49518 0.16651 0.18727
 H868 H 0.47875 0.13816 0.20359
 H869 H 0.45600 0.13074 0.23171
 H870 H 0.44020 0.10072 0.24567
 H871 H 0.40331 0.09045 0.19068
 H872 H 0.41871 0.12071 0.17709
 H873 H 0.38124 0.07882 0.21479
 H874 H 0.36686 0.04732 0.22559
 H875 H 0.42424 0.03395 0.25436
 H876 H 0.43887 0.06501 0.24228
 C877 C 0.31992 0.45002 -0.14109
 C878 C 0.32156 0.43674 -0.15799
 C879 C 0.33186 0.44291 -0.17470
 C880 C 0.34080 0.46251 -0.17493
 C881 C 0.33892 0.47594 -0.15818
 C882 C 0.32863 0.46973 -0.14138
 C883 C 0.30971 0.44292 -0.12306
 C884 C 0.31806 0.44764 -0.10353
 C885 C 0.30945 0.43935 -0.08671
 C886 C 0.29233 0.42615 -0.08909
 C887 C 0.28354 0.42207 -0.10855
 C888 C 0.29211 0.43038 -0.12533
 C889 C 0.28433 0.41573 -0.07157
 C890 C 0.27878 0.39501 -0.07341
 C891 C 0.27194 0.38484 -0.05688
 C892 C 0.27007 0.39514 -0.03809
 C893 C 0.27594 0.41589 -0.03620
 C894 C 0.28290 0.42606 -0.05278
 H895 H 0.31526 0.42138 -0.15815
 H896 H 0.33281 0.43231 -0.18748
 H897 H 0.34575 0.49110 -0.15788
 H898 H 0.32748 0.48034 -0.12864
 H899 H 0.33173 0.45709 -0.10131
 H900 H 0.31668 0.44261 -0.07193
 H901 H 0.27013 0.41226 -0.11080
 H902 H 0.28509 0.42679 -0.14014
 H903 H 0.28024 0.38649 -0.08754
 H904 H 0.26834 0.36873 -0.05873
 H905 H 0.27574 0.42434 -0.02194
 H906 H 0.28722 0.44201 -0.05090
 C907 C 0.81572 0.95546 0.36167
 C908 C 0.80675 0.95747 0.34231
 C909 C 0.81832 0.96358 0.32638
 C910 C 0.83913 0.96798 0.32945
 C911 C 0.84797 0.96658 0.34895
 C912 C 0.83644 0.96030 0.36482
 C913 C 0.80382 0.94738 0.37826
 C914 C 0.80780 0.95443 0.39839
 C915 C 0.79784 0.94555 0.41412
 C916 C 0.78354 0.92949 0.41009
 C917 C 0.77896 0.92302 0.38990
 C918 C 0.78904 0.93177 0.37420
 C919 C 0.77432 0.91873 0.42687
 C920 C 0.77113 0.89759 0.42539
 C921 C 0.76333 0.88722 0.44134
 C922 C 0.75864 0.89757 0.45942
 C923 C 0.76160 0.91883 0.46081
 C924 C 0.76931 0.92925 0.44470
 H925 H 0.79077 0.95417 0.33940
 H926 H 0.81103 0.96434 0.31154
 H927 H 0.86387 0.97023 0.35197
 H928 H 0.84394 0.95872 0.37944
 H929 H 0.81884 0.96666 0.40205
 H930 H 0.80185 0.95082 0.42949
 H931 H 0.76776 0.91095 0.38620
 H932 H 0.78570 0.92579 0.35894
 H933 H 0.77514 0.88890 0.41206
 H934 H 0.76125 0.87089 0.43972
 H935 H 0.75820 0.92767 0.47416
 H936 H 0.77131 0.94558 0.44622
 C937 C 0.82202 0.03948 1.15515
 C938 C 0.82563 0.01874 1.15562
 C939 C 0.83568 0.01089 1.17232
 C940 C 0.84248 0.02359 1.18914
 C941 C 0.83819 0.04437 1.18865
 C942 C 0.82819 0.05214 1.17194
 C943 C 0.81229 0.04808 1.13706
 C944 C 0.81968 0.06655 1.13000
 C945 C 0.81052 0.07487 1.11313
 C946 C 0.79371 0.06497 1.10293
 C947 C 0.78641 0.04638 1.10986
 C948 C 0.79563 0.03800 1.12675
 C949 C 0.78389 0.07414 1.08517
 C950 C 0.77707 0.06209 1.06811
 C951 C 0.76852 0.07090 1.05112
 C952 C 0.76661 0.09206 1.05079
 C953 C 0.77317 0.10396 1.06811
 C954 C 0.78163 0.09516 1.08504
 H955 H 0.82126 0.00865 1.14275
 H956 H 0.83894 -0.00501 1.17133
 H957 H 0.84191 0.05480 1.20137
 H958 H 0.82510 0.06812 1.17224
 H959 H 0.83274 0.07445 1.13739
 H960 H 0.81679 0.08898 1.10791
 H961 H 0.77335 0.03850 1.10246
 H962 H 0.78951 0.02384 1.13197
 H963 H 0.77876 0.04585 1.06769
 H964 H 0.76379 0.06089 1.03842
 H965 H 0.77187 0.12026 1.06845
 H966 H 0.78638 0.10485 1.09808
 C967 C 0.30553 0.52839 0.64956
 C968 C 0.31936 0.51346 0.64508
 C969 C 0.33059 0.50483 0.66055
 C970 C 0.32818 0.51089 0.68084
 C971 C 0.31387 0.52533 0.68534
 C972 C 0.30269 0.53401 0.66987
 C973 C 0.29482 0.53877 0.63312
 C974 C 0.29294 0.55987 0.63450
 C975 C 0.28347 0.56986 0.61883
 C976 C 0.27559 0.55899 0.60140
 C977 C 0.27737 0.53785 0.60005
 C978 C 0.28692 0.52784 0.61574
 C979 C 0.26586 0.56979 0.58463
 C980 C 0.26938 0.56437 0.56444
 C981 C 0.26096 0.57520 0.54874
 C982 C 0.24850 0.59153 0.55277
 C983 C 0.24530 0.59708 0.57309
 C984 C 0.25364 0.58620 0.58874
 H985 H 0.32198 0.50893 0.62957
 H986 H 0.34136 0.49357 0.65663
 H987 H 0.31180 0.53046 0.70080
 H988 H 0.29197 0.54531 0.67379
 H989 H 0.29924 0.56875 0.64752
 H990 H 0.28273 0.58620 0.62018
 H991 H 0.27123 0.52902 0.58694
 H992 H 0.28798 0.51154 0.61435
 H993 H 0.27916 0.55213 0.56078
 H994 H 0.26458 0.57105 0.53341
 H995 H 0.23687 0.61016 0.57718
 H996 H 0.25065 0.59079 0.60414
 C997 C 0.18519 0.54867 0.35978
 C998 C 0.17095 0.55924 0.34853
 C999 C 0.16371 0.55169 0.32953
 C1000 C 0.17054 0.53339 0.32129
 C1001 C 0.18539 0.52321 0.33214
 C1002 C 0.19264 0.53078 0.35122
 C1003 C 0.19158 0.55598 0.38064
 C1004 C 0.21180 0.55539 0.38769
 C1005 C 0.21765 0.56255 0.40730
 C1006 C 0.20339 0.57043 0.42027
 C1007 C 0.18315 0.57075 0.41328
 C1008 C 0.17732 0.56362 0.39372
 C1009 C 0.20957 0.57856 0.44092
 C1010 C 0.20137 0.59640 0.44871
 C1011 C 0.20716 0.60417 0.46808
 C1012 C 0.22125 0.59430 0.48016
 C1013 C 0.22941 0.57640 0.47241
 C1014 C 0.22365 0.56863 0.45300
 H1015 H 0.16528 0.57331 0.35450
 H1016 H 0.15257 0.56007 0.32134
 H1017 H 0.19081 0.50900 0.32622
 H1018 H 0.20353 0.52223 0.35958
 H1019 H 0.22315 0.54975 0.37791
 H1020 H 0.23340 0.56232 0.41218
 H1021 H 0.17174 0.57634 0.42303
 H1022 H 0.16155 0.56386 0.38891
 H1023 H 0.19066 0.60453 0.43971
 H1024 H 0.20044 0.61788 0.47356
 H1025 H 0.24054 0.56858 0.48120
 H1026 H 0.23011 0.55477 0.44748
 C1027 C 0.68716 0.04010 0.86353
 C1028 C 0.66619 0.03712 0.86099
 C1029 C 0.65729 0.03006 0.84247
 C1030 C 0.66902 0.02592 0.82559
 C1031 C 0.69019 0.02880 0.82839
 C1032 C 0.69907 0.03578 0.84704
 C1033 C 0.69641 0.04799 0.88329
 C1034 C 0.71285 0.06209 0.88415
 C1035 C 0.72084 0.07023 0.90271
 C1036 C 0.71252 0.06457 0.92088
 C1037 C 0.69630 0.05022 0.92002
 C1038 C 0.68841 0.04198 0.90148
 C1039 C 0.72046 0.07387 0.94060
 C1040 C 0.72152 0.06240 0.95793
 C1041 C 0.72872 0.07126 0.97648
 C1042 C 0.73540 0.09180 0.97822
 C1043 C 0.73407 0.10325 0.96084
 C1044 C 0.72671 0.09443 0.94234
 H1045 H 0.65650 0.04043 0.87331
 H1046 H 0.64113 0.02731 0.84189
 H1047 H 0.70012 0.02649 0.81610
 H1048 H 0.71533 0.03777 0.84852
 H1049 H 0.71926 0.06722 0.87045
 H1050 H 0.73355 0.08100 0.90282
 H1051 H 0.68936 0.04566 0.93366
 H1052 H 0.67596 0.03090 0.90141
 H1053 H 0.71692 0.04649 0.95716
 H1054 H 0.72877 0.06188 0.98942
 H1055 H 0.73874 0.11904 0.96119
 H1056 H 0.72569 0.10385 0.92941
 C1057 C 0.68905 0.94068 0.64215
 C1058 C 0.67006 0.94924 0.64038
 C1059 C 0.66155 0.95835 0.65716
 C1060 C 0.67182 0.95922 0.67615
 C1061 C 0.69084 0.95068 0.67798
 C1062 C 0.69941 0.94156 0.66112
 C1063 C 0.69783 0.93087 0.62417
 C1064 C 0.71837 0.93388 0.62038
 C1065 C 0.72626 0.92541 0.60286
 C1066 C 0.71380 0.91367 0.58882
 C1067 C 0.69336 0.91038 0.59283
 C1068 C 0.68549 0.91884 0.61029
 C1069 C 0.72177 0.90530 0.56973
 C1070 C 0.71529 0.88594 0.56196
 C1071 C 0.72147 0.87863 0.54327
 C1072 C 0.73426 0.89046 0.53170
 C1073 C 0.74147 0.90952 0.53999
 C1074 C 0.73524 0.91686 0.55870
 H1075 H 0.66180 0.94905 0.62594
 H1076 H 0.64674 0.96450 0.65528
 H1077 H 0.69917 0.95121 0.69239
 H1078 H 0.71401 0.93497 0.66298
 H1079 H 0.72822 0.94319 0.63072
 H1080 H 0.74211 0.92805 0.60030
 H1081 H 0.68328 0.90162 0.58224
 H1082 H 0.66968 0.91600 0.61290
 H1083 H 0.70529 0.87644 0.57031
 H1084 H 0.71574 0.86381 0.53797
 H1085 H 0.75192 0.91893 0.53211
 H1086 H 0.74055 0.93184 0.56426
 C1087 C 0.19834 0.44282 0.14331
 C1088 C 0.18741 0.43081 0.15633
 C1089 C 0.17834 0.43968 0.17295
 C1090 C 0.17982 0.46077 0.17674
 C1091 C 0.19105 0.47276 0.16392
 C1092 C 0.20034 0.46385 0.14744
 C1093 C 0.20698 0.43354 0.12505
 C1094 C 0.22670 0.43880 0.11985
 C1095 C 0.23462 0.43026 0.10239
 C1096 C 0.22288 0.41645 0.08962
 C1097 C 0.20311 0.41126 0.09489
 C1098 C 0.19531 0.41962 0.11245
 C1099 C 0.23104 0.40770 0.07073
 C1100 C 0.22582 0.38765 0.06401
 C1101 C 0.23277 0.37967 0.04588
 C1102 C 0.24529 0.39144 0.03400
 C1103 C 0.25092 0.41136 0.04100
 C1104 C 0.24379 0.41941 0.05904
 H1105 H 0.18578 0.41454 0.15356
 H1106 H 0.16964 0.43011 0.18249
 H1107 H 0.19251 0.48904 0.16658
 H1108 H 0.20858 0.47346 0.13756
 H1109 H 0.23607 0.44936 0.12943
 H1110 H 0.25001 0.43435 0.09902
 H1111 H 0.19347 0.40104 0.08523
 H1112 H 0.17994 0.41555 0.11594
 H1113 H 0.21634 0.37804 0.07279
 H1114 H 0.22793 0.36435 0.04118
 H1115 H 0.26091 0.42082 0.03263
 H1116 H 0.24801 0.43496 0.06362
 C1117 C -0.13613 0.32733 0.45367
 C1118 C -0.15524 0.31738 0.45336
 C1119 C -0.17209 0.32772 0.45937
 C1120 C -0.17023 0.34823 0.46601
 C1121 C -0.15103 0.35804 0.46676
 C1122 C -0.13421 0.34774 0.46059
 C1123 C -0.11843 0.31671 0.44606
 C1124 C -0.09908 0.32048 0.45521
 C1125 C -0.08232 0.31138 0.44726
 C1126 C -0.08452 0.29820 0.43004
 C1127 C -0.10395 0.29399 0.42126
 C1128 C -0.12067 0.30320 0.42910
 C1129 C -0.06660 0.28949 0.42080
 C1130 C -0.06564 0.28756 0.39972
 C1131 C -0.04871 0.27981 0.39092
 C1132 C -0.03201 0.27410 0.40286
 C1133 C -0.03319 0.27561 0.42403
 C1134 C -0.05024 0.28328 0.43285
 H1135 H -0.15723 0.30159 0.44839
 H1136 H -0.18665 0.31973 0.45836
 H1137 H -0.14897 0.37373 0.47208
 H1138 H -0.11978 0.35596 0.46081
 H1139 H -0.09686 0.33057 0.46847
 H1140 H -0.06756 0.31508 0.45432
 H1141 H -0.10625 0.28366 0.40819
 H1142 H -0.13529 0.30009 0.42152
 H1143 H -0.07784 0.29239 0.38994
 H1144 H -0.04855 0.27847 0.37461
 H1145 H -0.02126 0.27073 0.43400
 H1146 H -0.05072 0.28412 0.44915
 C1147 C 0.35884 0.81287 0.95535
 C1148 C 0.33919 0.80412 0.95528
 C1149 C 0.32305 0.81567 0.96107
 C1150 C 0.32616 0.83621 0.96727
 C1151 C 0.34590 0.84475 0.96800
 C1152 C 0.36200 0.83328 0.96200
 C1153 C 0.37577 0.80120 0.94749
 C1154 C 0.39548 0.80436 0.95595
 C1155 C 0.41167 0.79495 0.94722
 C1156 C 0.40852 0.78199 0.92992
 C1157 C 0.38869 0.77805 0.92207
 C1158 C 0.37254 0.78762 0.93066
 C1159 C 0.42591 0.77379 0.91928
 C1160 C 0.42557 0.77266 0.89810
 C1161 C 0.44228 0.76630 0.88794
 C1162 C 0.45999 0.76103 0.89856
 C1163 C 0.46020 0.76180 0.91982
 C1164 C 0.44333 0.76804 0.93002
 H1165 H 0.33623 0.78838 0.95054
 H1166 H 0.30804 0.80860 0.96015
 H1167 H 0.34894 0.86041 0.97305
 H1168 H 0.37685 0.84063 0.96203
 H1169 H 0.39847 0.81442 0.96913
 H1170 H 0.42673 0.79846 0.95359
 H1171 H 0.38567 0.76786 0.90900
 H1172 H 0.35763 0.78493 0.92360
 H1173 H 0.41261 0.77734 0.88929
 H1174 H 0.44160 0.76600 0.87159
 H1175 H 0.47327 0.75800 0.92886
 H1176 H 0.44400 0.76849 0.94636
 C1177 C 1.14865 0.82198 0.03490
 C1178 C 1.16815 0.81471 0.03756
 C1179 C 1.18461 0.82460 0.02932
 C1180 C 1.18197 0.84202 0.01822
 C1181 C 1.16243 0.84916 0.01534
 C1182 C 1.14596 0.83925 0.02359
 C1183 C 1.13131 0.81189 0.04437
 C1184 C 1.11661 0.82345 0.05354
 C1185 C 1.10084 0.81400 0.06334
 C1186 C 1.09946 0.79280 0.06423
 C1187 C 1.11391 0.78121 0.05470
 C1188 C 1.12965 0.79065 0.04486
 C1189 C 1.08349 0.78284 0.07573
 C1190 C 1.08818 0.76703 0.08834
 C1191 C 1.07345 0.75803 0.09981
 C1192 C 1.05344 0.76448 0.09881
 C1193 C 1.04886 0.78040 0.08612
 C1194 C 1.06365 0.78944 0.07473
 H1195 H 1.17076 0.80158 0.04639
 H1196 H 1.19943 0.81859 0.03161
 H1197 H 1.15992 0.86265 0.00704
 H1198 H 1.13110 0.84511 0.02111
 H1199 H 1.11762 0.83984 0.05367
 H1200 H 1.09009 0.82333 0.07077
 H1201 H 1.11304 0.76482 0.05487
 H1202 H 1.14052 0.78131 0.03762
 H1203 H 1.10346 0.76194 0.08978
 H1204 H 1.07823 0.74641 0.10963
 H1205 H 1.03374 0.78596 0.08517
 H1206 H 1.05956 0.80157 0.06508
 C1207 C 0.65099 0.31833 0.52912
 C1208 C 0.67085 0.31245 0.53302
 C1209 C 0.68713 0.32321 0.52537
 C1210 C 0.68395 0.34014 0.51368
 C1211 C 0.66406 0.34577 0.50946
 C1212 C 0.64779 0.33498 0.51706
 C1213 C 0.63378 0.30761 0.53821
 C1214 C 0.61789 0.31858 0.54595
 C1215 C 0.60215 0.30868 0.55536
 C1216 C 0.60196 0.28759 0.55732
 C1217 C 0.61765 0.27656 0.54931
 C1218 C 0.63337 0.28645 0.53982
 C1219 C 0.58590 0.27734 0.56848
 C1220 C 0.59082 0.26275 0.58244
 C1221 C 0.57600 0.25404 0.59404
 C1222 C 0.55574 0.25948 0.59174
 C1223 C 0.55090 0.27398 0.57754
 C1224 C 0.56575 0.28276 0.56604
 H1225 H 0.67386 0.29982 0.54242
 H1226 H 0.70224 0.31831 0.52868
 H1227 H 0.66108 0.35886 0.50068
 H1228 H 0.63266 0.33974 0.51356
 H1229 H 0.61792 0.33492 0.54528
 H1230 H 0.59045 0.31763 0.56168
 H1231 H 0.61776 0.26026 0.55039
 H1232 H 0.64521 0.27753 0.53373
 H1233 H 0.60631 0.25862 0.58497
 H1234 H 0.58089 0.24366 0.60517
 H1235 H 0.53558 0.27885 0.57563
 H1236 H 0.56149 0.29391 0.55532
 C1237 C 0.36428 0.19267 0.55263
 C1238 C 0.35376 0.17854 0.56390
 C1239 C 0.33538 0.16962 0.55646
 C1240 C 0.32708 0.17458 0.53756
 C1241 C 0.33730 0.18914 0.52652
 C1242 C 0.35572 0.19806 0.53396
 C1243 C 0.38446 0.20105 0.56003
 C1244 C 0.40019 0.20321 0.54667
 C1245 C 0.41952 0.20985 0.55382
 C1246 C 0.42358 0.21445 0.57450
 C1247 C 0.40777 0.21270 0.58780
 C1248 C 0.38843 0.20611 0.58065
 C1249 C 0.44431 0.22063 0.58224
 C1250 C 0.45224 0.21294 0.60019
 C1251 C 0.47176 0.21866 0.60749
 C1252 C 0.48383 0.23222 0.59704
 C1253 C 0.47590 0.23989 0.57904
 C1254 C 0.45638 0.23412 0.57170
 H1255 H 0.36001 0.17390 0.57823
 H1256 H 0.32775 0.15865 0.56544
 H1257 H 0.33136 0.19316 0.51185
 H1258 H 0.36335 0.20908 0.52504
 H1259 H 0.39770 0.19915 0.53076
 H1260 H 0.43145 0.21082 0.54325
 H1261 H 0.41036 0.21650 0.60376
 H1262 H 0.37657 0.20495 0.59127
 H1263 H 0.44343 0.20224 0.60846
 H1264 H 0.47739 0.21220 0.62122
 H1265 H 0.48459 0.25070 0.57080
 H1266 H 0.45059 0.24051 0.55797
 C1267 C 0.86582 0.69198 0.04811
 C1268 C 0.86258 0.67107 0.04379
 C1269 C 0.84375 0.66320 0.03653
 C1270 C 0.82749 0.67594 0.03364
 C1271 C 0.83071 0.69688 0.03781
 C1272 C 0.84967 0.70481 0.04492
 C1273 C 0.88588 0.70015 0.05627
 C1274 C 0.88738 0.71610 0.07103
 C1275 C 0.90619 0.72314 0.07932
 C1276 C 0.92399 0.71428 0.07320
 C1277 C 0.92249 0.69849 0.05826
 C1278 C 0.90371 0.69162 0.04982
 C1279 C 0.94399 0.72125 0.08254
 C1280 C 0.96127 0.72174 0.07107
 C1281 C 0.98005 0.72806 0.07992
 C1282 C 0.98210 0.73443 0.10047
 C1283 C 0.96476 0.73378 0.11192
 C1284 C 0.94602 0.72724 0.10312
 H1285 H 0.87453 0.66067 0.04633
 H1286 H 0.84198 0.64705 0.03310
 H1287 H 0.81852 0.70713 0.03589
 H1288 H 0.85169 0.72102 0.04782
 H1289 H 0.87398 0.72290 0.07654
 H1290 H 0.90677 0.73555 0.09053
 H1291 H 0.93580 0.69113 0.05331
 H1292 H 0.90318 0.67955 0.03823
 H1293 H 0.96030 0.71741 0.05513
 H1294 H 0.99293 0.72773 0.07052
 H1295 H 0.96534 0.73846 0.12770
 H1296 H 0.93314 0.72667 0.11256
 C1297 C 0.64748 0.70226 0.94295
 C1298 C 0.66081 0.69099 0.93151
 C1299 C 0.67760 0.68255 0.94083
 C1300 C 0.68135 0.68511 0.96180
 C1301 C 0.66835 0.69688 0.97314
 C1302 C 0.65163 0.70541 0.96381
 C1303 C 0.62877 0.70981 0.93338
 C1304 C 0.62209 0.72916 0.93869
 C1305 C 0.60392 0.73579 0.93037
 C1306 C 0.59198 0.72317 0.91662
 C1307 C 0.59882 0.70391 0.91115
 C1308 C 0.61701 0.69734 0.91939
 C1309 C 0.57224 0.72978 0.90837
 C1310 C 0.56588 0.72482 0.88826
 C1311 C 0.54696 0.73022 0.88074
 C1312 C 0.53378 0.74069 0.89311
 C1313 C 0.54048 0.74617 0.91312
 C1314 C 0.55938 0.74070 0.92065
 H1315 H 0.65811 0.68850 0.91537
 H1316 H 0.68724 0.67342 0.93171
 H1317 H 0.67098 0.69926 0.98930
 H1318 H 0.64156 0.71389 0.97305
 H1319 H 0.63096 0.73920 0.94925
 H1320 H 0.59926 0.75083 0.93465
 H1321 H 0.58984 0.69366 0.90090
 H1322 H 0.62158 0.68222 0.91527
 H1323 H 0.57558 0.71677 0.87825
 H1324 H 0.54280 0.72585 0.86525
 H1325 H 0.53125 0.75483 0.92307
 H1326 H 0.56376 0.74471 0.93626
 C1327 C 0.14783 0.19845 0.45531
 C1328 C 0.16516 0.19755 0.44394
 C1329 C 0.18219 0.18790 0.45123
 C1330 C 0.18228 0.17894 0.47007
 C1331 C 0.16509 0.18022 0.48162
 C1332 C 0.14807 0.18987 0.47433
 C1333 C 0.12935 0.20776 0.44711
 C1334 C 0.11023 0.19863 0.44974
 C1335 C 0.09285 0.20702 0.44165
 C1336 C 0.09414 0.22474 0.43071
 C1337 C 0.11324 0.23394 0.42816
 C1338 C 0.13065 0.22555 0.43628
 C1339 C 0.07564 0.23330 0.42171
 C1340 C 0.07545 0.24064 0.40215
 C1341 C 0.05779 0.24790 0.39336
 C1342 C 0.03991 0.24814 0.40392
 C1343 C 0.04021 0.24095 0.42359
 C1344 C 0.05784 0.23366 0.43237
 H1345 H 0.16540 0.20386 0.42916
 H1346 H 0.19527 0.18739 0.44208
 H1347 H 0.16458 0.17332 0.49610
 H1348 H 0.13505 0.19054 0.48357
 H1349 H 0.10873 0.18471 0.45768
 H1350 H 0.07840 0.19937 0.44357
 H1351 H 0.11471 0.24775 0.42003
 H1352 H 0.14514 0.23309 0.43422
 H1353 H 0.08885 0.24033 0.39344
 H1354 H 0.05828 0.25324 0.37826
 H1355 H 0.02669 0.24042 0.43211
 H1356 H 0.05753 0.22825 0.44753
 C1357 C 0.56360 0.10471 0.70531
 C1358 C 0.55589 0.08553 0.69809
 C1359 C 0.56408 0.06789 0.70535
 C1360 C 0.58007 0.06913 0.72001
 C1361 C 0.58698 0.08833 0.72794
 C1362 C 0.57890 0.10590 0.72063
 C1363 C 0.55688 0.12343 0.69598
 C1364 C 0.57130 0.13808 0.69062
 C1365 C 0.56539 0.15559 0.68140
 C1366 C 0.54486 0.15907 0.67748
 C1367 C 0.53038 0.14439 0.68289
 C1368 C 0.53635 0.12668 0.69196
 C1369 C 0.53892 0.17767 0.66718
 C1370 C 0.52279 0.17703 0.65263
 C1371 C 0.51882 0.19399 0.64138
 C1372 C 0.53101 0.21173 0.64435
 C1373 C 0.54652 0.21273 0.65937
 C1374 C 0.55028 0.19598 0.67084
 H1375 H 0.54417 0.08421 0.68619
 H1376 H 0.55850 0.05333 0.69886
 H1377 H 0.59891 0.08980 0.73962
 H1378 H 0.58485 0.12049 0.72672
 H1379 H 0.58724 0.13576 0.69315
 H1380 H 0.57702 0.16618 0.67692
 H1381 H 0.51445 0.14665 0.68026
 H1382 H 0.52494 0.11563 0.69602
 H1383 H 0.51386 0.16316 0.64925
 H1384 H 0.50697 0.19289 0.62962
 H1385 H 0.55600 0.22639 0.66190
 H1386 H 0.56243 0.19724 0.68228
 C1387 C 1.06235 0.60326 0.20310
 C1388 C 1.07830 0.60463 0.21771
 C1389 C 1.08689 0.58718 0.22466
 C1390 C 1.07987 0.56791 0.21704
 C1391 C 1.06318 0.56647 0.20318
 C1392 C 1.05444 0.58403 0.19630
 C1393 C 1.05526 0.62193 0.19398
 C1394 C 1.03466 0.62579 0.19174
 C1395 C 1.02845 0.64388 0.18353
 C1396 C 1.04277 0.65828 0.17723
 C1397 C 1.06333 0.65398 0.17903
 C1398 C 1.06948 0.63615 0.18741
 C1399 C 1.03667 0.67763 0.16848
 C1400 C 1.04897 0.69533 0.17210
 C1401 C 1.04508 0.71281 0.16183
 C1402 C 1.02851 0.71320 0.14809
 C1403 C 1.01529 0.69614 0.14545
 C1404 C 1.01941 0.67840 0.15547
 H1405 H 1.08441 0.61929 0.22346
 H1406 H 1.09934 0.58881 0.23577
 H1407 H 1.05746 0.55183 0.19700
 H1408 H 1.04218 0.58261 0.18497
 H1409 H 1.02342 0.61503 0.19672
 H1410 H 1.01251 0.64672 0.18244
 H1411 H 1.07477 0.66431 0.17373
 H1412 H 1.08543 0.63332 0.18854
 H1413 H 1.06199 0.69554 0.18251
 H1414 H 1.05530 0.72595 0.16425
 H1415 H 1.00246 0.69619 0.13481
 H1416 H 1.00964 0.66506 0.15227
 C1417 C 0.94960 0.87695 0.21519
 C1418 C 0.96026 0.89018 0.22934
 C1419 C 0.95142 0.90760 0.23696
 C1420 C 0.93178 0.91228 0.23045
 C1421 C 0.92106 0.89888 0.21645
 C1422 C 0.92984 0.88137 0.20898
 C1423 C 0.95932 0.85903 0.20633
 C1424 C 0.94879 0.84019 0.20383
 C1425 C 0.95775 0.82357 0.19464
 C1426 C 0.97736 0.82550 0.18755
 C1427 C 0.98792 0.84436 0.19031
 C1428 C 0.97905 0.86088 0.19967
 C1429 C 0.98651 0.80832 0.17649
 C1430 C 1.00740 0.80558 0.17832
 C1431 C 1.01631 0.79090 0.16626
 C1432 C 1.00450 0.77842 0.15238
 C1433 C 0.98356 0.78041 0.15118
 C1434 C 0.97464 0.79527 0.16305
 H1435 H 0.97543 0.88699 0.23457
 H1436 H 0.95997 0.91734 0.24802
 H1437 H 0.90605 0.90216 0.21084
 H1438 H 0.92139 0.87158 0.19786
 H1439 H 0.93364 0.83831 0.20904
 H1440 H 0.94930 0.80921 0.19306
 H1441 H 1.00286 0.84658 0.18467
 H1442 H 0.98739 0.87531 0.20112
 H1443 H 1.01695 0.81502 0.18882
 H1444 H 1.03250 0.78951 0.16751
 H1445 H 0.97423 0.77127 0.14028
 H1446 H 0.95857 0.79713 0.16098
 C1447 C 0.44975 0.37758 0.70225
 C1448 C 0.45962 0.39112 0.71663
 C1449 C 0.44992 0.40812 0.72403
 C1450 C 0.43024 0.41211 0.71697
 C1451 C 0.42051 0.39855 0.70241
 C1452 C 0.43009 0.38139 0.69527
 C1453 C 0.46008 0.35975 0.69413
 C1454 C 0.45038 0.34046 0.69302
 C1455 C 0.45991 0.32377 0.68469
 C1456 C 0.47923 0.32609 0.67696
 C1457 C 0.48893 0.34547 0.67826
 C1458 C 0.47952 0.36205 0.68690
 C1459 C 0.48896 0.30866 0.66687
 C1460 C 0.51006 0.30720 0.66805
 C1461 C 0.51932 0.29199 0.65701
 C1462 C 0.50769 0.27766 0.64488
 C1463 C 0.48662 0.27842 0.64440
 C1464 C 0.47734 0.29386 0.65515
 H1465 H 0.47475 0.38838 0.72232
 H1466 H 0.45776 0.41796 0.73550
 H1467 H 0.40556 0.40131 0.69625
 H1468 H 0.42230 0.37131 0.68395
 H1469 H 0.43545 0.33830 0.69871
 H1470 H 0.45213 0.30906 0.68431
 H1471 H 0.50358 0.34800 0.67209
 H1472 H 0.48719 0.37684 0.68737
 H1473 H 0.51948 0.31796 0.67732
 H1474 H 0.53562 0.29152 0.65778
 H1475 H 0.47737 0.26764 0.63494
 H1476 H 0.46110 0.29462 0.65359
 C1477 C 0.45775 0.59962 0.78763
 C1478 C 0.45167 0.58550 0.80166
 C1479 C 0.44228 0.56694 0.79515
 C1480 C 0.43870 0.56208 0.77447
 C1481 C 0.44541 0.57588 0.76042
 C1482 C 0.45484 0.59443 0.76692
 C1483 C 0.46584 0.62012 0.79466
 C1484 C 0.45956 0.63740 0.78487
 C1485 C 0.46537 0.65681 0.79272
 C1486 C 0.47758 0.65940 0.81054
 C1487 C 0.48460 0.64211 0.81982
 C1488 C 0.47880 0.62270 0.81196
 C1489 C 0.48150 0.67985 0.82044
 C1490 C 0.50022 0.68524 0.83029
 C1491 C 0.50292 0.70345 0.84181
 C1492 C 0.48694 0.71656 0.84378
 C1493 C 0.46856 0.71167 0.83309
 C1494 C 0.46587 0.69354 0.82155
 H1495 H 0.45339 0.58914 0.81772
 H1496 H 0.43704 0.55677 0.80635
 H1497 H 0.44316 0.57241 0.74437
 H1498 H 0.45966 0.60483 0.75574
 H1499 H 0.44945 0.63596 0.77161
 H1500 H 0.45990 0.66983 0.78510
 H1501 H 0.49386 0.64356 0.83367
 H1502 H 0.48411 0.60969 0.81969
 H1503 H 0.51262 0.67510 0.82955
 H1504 H 0.51712 0.70667 0.85002
 H1505 H 0.45602 0.72161 0.83419
 H1506 H 0.45119 0.68981 0.81432
 C1507 C -0.03270 0.10071 0.30391
 C1508 C -0.03648 0.08521 0.31730
 C1509 C -0.04578 0.06675 0.31038
 C1510 C -0.05192 0.06338 0.28994
 C1511 C -0.04753 0.07860 0.27641
 C1512 C -0.03791 0.09695 0.28328
 C1513 C -0.02462 0.12106 0.31169
 C1514 C -0.03137 0.13880 0.30300
 C1515 C -0.02550 0.15791 0.31160
 C1516 C -0.01305 0.15968 0.32923
 C1517 C -0.00569 0.14212 0.33756
 C1518 C -0.01123 0.12301 0.32876
 C1519 C -0.00928 0.17964 0.33991
 C1520 C -0.01410 0.18214 0.36021
 C1521 C -0.01218 0.20123 0.37008
 C1522 C -0.00504 0.21807 0.35993
 C1523 C 0.00043 0.21551 0.33983
 C1524 C -0.00195 0.19644 0.32977
 H1525 H -0.03295 0.08752 0.33332
 H1526 H -0.04850 0.05526 0.32119
 H1527 H -0.05216 0.07668 0.26059
 H1528 H -0.03491 0.10834 0.27244
 H1529 H -0.04194 0.13799 0.29010
 H1530 H -0.03151 0.17129 0.30506
 H1531 H 0.00408 0.14319 0.35109
 H1532 H -0.00529 0.10977 0.33558
 H1533 H -0.01993 0.16942 0.36826
 H1534 H -0.01628 0.20286 0.38567
 H1535 H 0.00597 0.22835 0.33177
 H1536 H 0.00184 0.19480 0.31410
 C1537 C 0.07102 0.37934 0.28165
 C1538 C 0.09188 0.38397 0.28316
 C1539 C 0.09970 0.40212 0.27617
 C1540 C 0.08692 0.41596 0.26726
 C1541 C 0.06622 0.41095 0.26471
 C1542 C 0.05831 0.39283 0.27194
 C1543 C 0.06257 0.36119 0.29135
 C1544 C 0.04592 0.34978 0.28250
 C1545 C 0.03748 0.33340 0.29238
 C1546 C 0.04559 0.32805 0.31125
 C1547 C 0.06244 0.33921 0.31987
 C1548 C 0.07078 0.35560 0.31009
 C1549 C 0.03585 0.31184 0.32270
 C1550 C 0.04758 0.29852 0.33373
 C1551 C 0.03856 0.28511 0.34670
 C1552 C 0.01767 0.28483 0.34902
 C1553 C 0.00582 0.29735 0.33713
 C1554 C 0.01481 0.31069 0.32410
 H1555 H 0.10216 0.37370 0.29006
 H1556 H 0.11579 0.40549 0.27795
 H1557 H 0.05608 0.42143 0.25792
 H1558 H 0.04216 0.38982 0.27067
 H1559 H 0.03939 0.35352 0.26797
 H1560 H 0.02457 0.32496 0.28532
 H1561 H 0.06876 0.33575 0.33458
 H1562 H 0.08328 0.36430 0.31759
 H1563 H 0.06382 0.29888 0.33274
 H1564 H 0.04810 0.27574 0.35559
 H1565 H -0.01039 0.29722 0.33830
 H1566 H 0.00537 0.32080 0.31586
 C1567 C 0.55412 0.88511 0.78293
 C1568 C 0.56466 0.88447 0.76501
 C1569 C 0.57433 0.90202 0.75838
 C1570 C 0.57380 0.92047 0.76968
 C1571 C 0.56286 0.92116 0.78731
 C1572 C 0.55314 0.90372 0.79384
 C1573 C 0.54496 0.86643 0.79097
 C1574 C 0.52634 0.86706 0.80019
 C1575 C 0.51892 0.85042 0.81022
 C1576 C 0.52990 0.83271 0.81122
 C1577 C 0.54793 0.83158 0.80101
 C1578 C 0.55543 0.84832 0.79100
 C1579 C 0.52312 0.81620 0.82409
 C1580 C 0.52299 0.79574 0.81733
 C1581 C 0.51584 0.78048 0.82956
 C1582 C 0.50886 0.78547 0.84877
 C1583 C 0.50975 0.80589 0.85571
 C1584 C 0.51669 0.82104 0.84350
 H1585 H 0.56555 0.87037 0.75622
 H1586 H 0.58278 0.90104 0.74481
 H1587 H 0.56205 0.93520 0.79621
 H1588 H 0.54538 0.90469 0.80784
 H1589 H 0.51771 0.88063 0.80004
 H1590 H 0.50476 0.85153 0.81761
 H1591 H 0.55671 0.81812 0.80161
 H1592 H 0.56988 0.84742 0.78415
 H1593 H 0.52790 0.79162 0.80241
 H1594 H 0.51524 0.76491 0.82375
 H1595 H 0.50509 0.81023 0.87066
 H1596 H 0.51715 0.83663 0.84932
 C1597 C 0.70022 0.57160 0.10564
 C1598 C 0.69899 0.56134 0.08670
 C1599 C 0.70692 0.57033 0.06985
 C1600 C 0.71635 0.59005 0.07140
 C1601 C 0.71832 0.59959 0.09100
 C1602 C 0.71034 0.59058 0.10765
 C1603 C 0.69031 0.56320 0.12324
 C1604 C 0.67926 0.57594 0.13566
 C1605 C 0.67046 0.56866 0.15273
 C1606 C 0.67256 0.54843 0.15793
 C1607 C 0.68317 0.53545 0.14523
 C1608 C 0.69195 0.54278 0.12799
 C1609 C 0.66353 0.54125 0.17658
 C1610 C 0.65336 0.52219 0.17687
 C1611 C 0.64284 0.51674 0.19382
 C1612 C 0.64229 0.53030 0.21060
 C1613 C 0.65333 0.54882 0.21073
 C1614 C 0.66395 0.55417 0.19399
 H1615 H 0.69114 0.54667 0.08473
 H1616 H 0.70427 0.56204 0.05557
 H1617 H 0.72665 0.61381 0.09408
 H1618 H 0.71216 0.59853 0.12227
 H1619 H 0.67732 0.59161 0.13210
 H1620 H 0.66186 0.57890 0.16181
 H1621 H 0.68506 0.51980 0.14886
 H1622 H 0.70043 0.53264 0.11866
 H1623 H 0.65268 0.51194 0.16366
 H1624 H 0.63424 0.50249 0.19334
 H1625 H 0.65329 0.55940 0.22365
 H1626 H 0.67209 0.56871 0.19448
 C1627 C 0.20738 1.06073 0.60646
 C1628 C 0.20079 1.05357 0.58696
 C1629 C 0.20842 1.06253 0.56996
 C1630 C 0.22288 1.07870 0.57220
 C1631 C 0.23021 1.08500 0.59174
 C1632 C 0.22247 1.07621 0.60866
 C1633 C 0.19762 1.05329 0.62453
 C1634 C 0.19096 1.06731 0.63898
 C1635 C 0.18163 1.06075 0.65607
 C1636 C 0.17899 1.03995 0.65939
 C1637 C 0.18559 1.02586 0.64483
 C1638 C 0.19471 1.03248 0.62748
 C1639 C 0.16896 1.03331 0.67781
 C1640 C 0.15579 1.01604 0.67716
 C1641 C 0.14475 1.01130 0.69398
 C1642 C 0.14647 1.02393 0.71154
 C1643 C 0.16025 1.04056 0.71257
 C1644 C 0.17156 1.04505 0.69600
 H1645 H 0.18908 1.04170 0.58491
 H1646 H 0.20238 1.05738 0.55513
 H1647 H 0.24176 1.09699 0.59401
 H1648 H 0.22804 1.08175 0.62353
 H1649 H 0.19265 1.08344 0.63685
 H1650 H 0.17618 1.07208 0.66652
 H1651 H 0.18395 1.00974 0.64693
 H1652 H 0.19978 1.02139 0.61654
 H1653 H 0.15328 1.00671 0.66341
 H1654 H 0.13407 0.99845 0.69291
 H1655 H 0.16194 1.05033 0.72611
 H1656 H 0.18203 1.05804 0.69734
 C1657 C 0.21402 0.94190 0.87023
 C1658 C 0.21390 0.92093 0.87254
 C1659 C 0.22130 0.91295 0.89043
 C1660 C 0.22939 0.92566 0.90686
 C1661 C 0.23002 0.94683 0.90388
 C1662 C 0.22237 0.95471 0.88604
 C1663 C 0.20471 0.95043 0.85180
 C1664 C 0.21285 0.96824 0.84390
 C1665 C 0.20313 0.97708 0.82757
 C1666 C 0.18522 0.96816 0.81862
 C1667 C 0.17744 0.95001 0.82601
 C1668 C 0.18700 0.94131 0.84248
 C1669 C 0.17380 0.97843 0.80264
 C1670 C 0.16546 0.96746 0.78550
 C1671 C 0.15299 0.97683 0.77149
 C1672 C 0.14816 0.99721 0.77462
 C1673 C 0.15739 1.00838 0.79129
 C1674 C 0.17007 0.99911 0.80512
 H1675 H 0.20780 0.91055 0.86055
 H1676 H 0.21941 0.89674 0.89124
 H1677 H 0.23686 0.95778 0.91487
 H1678 H 0.22269 0.97101 0.88485
 H1679 H 0.22667 0.97545 0.85042
 H1680 H 0.20952 0.99098 0.82202
 H1681 H 0.16348 0.94301 0.81957
 H1682 H 0.18007 0.92782 0.84834
 H1683 H 0.16841 0.95155 0.78309
 H1684 H 0.14672 0.96786 0.75862
 H1685 H 0.15466 1.02431 0.79385
 H1686 H 0.17633 1.00794 0.81818
 C1687 C 0.71142 0.45358 0.37411
 C1688 C 0.72302 0.46510 0.38898
 C1689 C 0.73062 0.45608 0.40624
 C1690 C 0.72660 0.43537 0.40911
 C1691 C 0.71517 0.42383 0.39407
 C1692 C 0.70775 0.43282 0.37673
 C1693 C 0.70237 0.46333 0.35638
 C1694 C 0.70277 0.45409 0.33695
 C1695 C 0.69330 0.46287 0.32043
 C1696 C 0.68305 0.48097 0.32303
 C1697 C 0.68290 0.49027 0.34250
 C1698 C 0.69254 0.48161 0.35894
 C1699 C 0.67181 0.48976 0.30581
 C1700 C 0.67055 0.51089 0.30471
 C1701 C 0.65822 0.51912 0.28986
 C1702 C 0.64713 0.50644 0.27558
 C1703 C 0.64915 0.48541 0.27592
 C1704 C 0.66127 0.47713 0.29097
 H1705 H 0.72625 0.48110 0.38721
 H1706 H 0.73969 0.46534 0.41730
 H1707 H 0.71145 0.40795 0.39592
 H1708 H 0.69860 0.42366 0.36564
 H1709 H 0.71044 0.44008 0.33455
 H1710 H 0.69401 0.45546 0.30563
 H1711 H 0.67479 0.50395 0.34521
 H1712 H 0.69174 0.48889 0.37380
 H1713 H 0.67886 0.52110 0.31553
 H1714 H 0.65711 0.53542 0.28970
 H1715 H 0.64057 0.47531 0.26518
 H1716 H 0.66166 0.46080 0.29146
 C1717 C 0.77960 0.46218 0.60428
 C1718 C 0.76372 0.44769 0.60061
 C1719 C 0.75869 0.44015 0.58098
 C1720 C 0.76966 0.44675 0.56470
 C1721 C 0.78509 0.46177 0.56828
 C1722 C 0.78991 0.46956 0.58790
 C1723 C 0.78661 0.46816 0.62524
 C1724 C 0.79047 0.48859 0.63132
 C1725 C 0.79834 0.49389 0.65082
 C1726 C 0.80290 0.47881 0.66451
 C1727 C 0.79875 0.45837 0.65832
 C1728 C 0.79056 0.45315 0.63901
 C1729 C 0.81310 0.48406 0.68463
 C1730 C 0.80986 0.47177 0.70111
 C1731 C 0.82170 0.47471 0.71897
 C1732 C 0.83659 0.49034 0.72097
 C1733 C 0.83890 0.50359 0.70524
 C1734 C 0.82741 0.50038 0.68714
 H1735 H 0.75552 0.44183 0.61301
 H1736 H 0.74685 0.42844 0.57865
 H1737 H 0.79371 0.46715 0.55595
 H1738 H 0.80231 0.48063 0.59040
 H1739 H 0.78743 0.50044 0.62095
 H1740 H 0.80099 0.50978 0.65510
 H1741 H 0.80252 0.44625 0.66809
 H1742 H 0.78803 0.43726 0.63456
 H1743 H 0.79857 0.45948 0.70004
 H1744 H 0.81959 0.46444 0.73107
 H1745 H 0.85047 0.51564 0.70645
 H1746 H 0.83056 0.51004 0.67481
 C1747 C 0.28814 -0.03405 0.09794
 C1748 C 0.26819 -0.04121 0.09332
 C1749 C 0.26284 -0.05072 0.07451
 C1750 C 0.27727 -0.05312 0.05979
 C1751 C 0.29692 -0.04494 0.06402
 C1752 C 0.30232 -0.03564 0.08287
 C1753 C 0.29462 -0.02653 0.11878
 C1754 C 0.30988 -0.01125 0.12209
 C1755 C 0.31791 -0.00627 0.14156
 C1756 C 0.31073 -0.01630 0.15825
 C1757 C 0.29460 -0.03065 0.15508
 C1758 C 0.28674 -0.03580 0.13560
 C1759 C 0.32118 -0.01317 0.17850
 C1760 C 0.32411 -0.02975 0.19073
 C1761 C 0.33571 -0.02746 0.20876
 C1762 C 0.34492 -0.00859 0.21498
 C1763 C 0.34128 0.00820 0.20327
 C1764 C 0.32954 0.00595 0.18522
 H1765 H 0.25677 -0.03992 0.10441
 H1766 H 0.24760 -0.05694 0.07187
 H1767 H 0.30833 -0.04616 0.05291
 H1768 H 0.31787 -0.03051 0.08589
 H1769 H 0.31603 -0.00351 0.10955
 H1770 H 0.33039 0.00477 0.14339
 H1771 H 0.28842 -0.03838 0.16762
 H1772 H 0.27511 -0.04774 0.13370
 H1773 H 0.31814 -0.04476 0.18600
 H1774 H 0.33779 -0.04065 0.21764
 H1775 H 0.34811 0.02290 0.20753
 H1776 H 0.32733 0.01911 0.17634
 C1777 C 0.29338 0.06498 0.38812
 C1778 C 0.30657 0.06722 0.40524
 C1779 C 0.29988 0.07492 0.42357
 C1780 C 0.27985 0.08074 0.42518
 C1781 C 0.26651 0.07803 0.40814
 C1782 C 0.27319 0.07015 0.38982
 C1783 C 0.30086 0.05750 0.36855
 C1784 C 0.28977 0.04262 0.35652
 C1785 C 0.29749 0.03482 0.33864
 C1786 C 0.31631 0.04195 0.33235
 C1787 C 0.32707 0.05729 0.34407
 C1788 C 0.31946 0.06493 0.36201
 C1789 C 0.32544 0.03254 0.31442
 C1790 C 0.33564 0.04452 0.30078
 C1791 C 0.34607 0.03545 0.28514
 C1792 C 0.34668 0.01427 0.28306
 C1793 C 0.33584 0.00231 0.29620
 C1794 C 0.32526 0.01135 0.31167
 H1795 H 0.32211 0.06295 0.40446
 H1796 H 0.31043 0.07639 0.43649
 H1797 H 0.25106 0.08260 0.40878
 H1798 H 0.26274 0.06868 0.37681
 H1799 H 0.27542 0.03660 0.36125
 H1800 H 0.28885 0.02308 0.32982
 H1801 H 0.34171 0.06290 0.33972
 H1802 H 0.32819 0.07658 0.37088
 H1803 H 0.33588 0.06090 0.30248
 H1804 H 0.35441 0.04500 0.27529
 H1805 H 0.33592 -0.01408 0.29476
 H1806 H 0.31766 0.00174 0.32203
 C1807 C 0.78918 0.57015 0.88951
 C1808 C 0.77037 0.57915 0.88940
 C1809 C 0.76283 0.58693 0.90740
 C1810 C 0.77393 0.58570 0.92582
 C1811 C 0.79225 0.57576 0.92596
 C1812 C 0.79982 0.56815 0.90802
 C1813 C 0.79826 0.56347 0.87046
 C1814 C 0.81863 0.56837 0.86751
 C1815 C 0.82785 0.56101 0.85037
 C1816 C 0.81695 0.54841 0.83581
 C1817 C 0.79630 0.54423 0.83830
 C1818 C 0.78701 0.55176 0.85547
 C1819 C 0.82758 0.53852 0.81903
 C1820 C 0.81866 0.53601 0.79942
 C1821 C 0.82867 0.52585 0.78406
 C1822 C 0.84763 0.51786 0.78814
 C1823 C 0.85666 0.52077 0.80762
 C1824 C 0.84675 0.53089 0.82286
 H1825 H 0.76190 0.58089 0.87531
 H1826 H 0.74875 0.59465 0.90677
 H1827 H 0.80093 0.57415 0.93994
 H1828 H 0.81414 0.56086 0.90857
 H1829 H 0.82752 0.57777 0.87862
 H1830 H 0.84364 0.56492 0.84866
 H1831 H 0.78755 0.53445 0.82742
 H1832 H 0.77127 0.54778 0.85741
 H1833 H 0.80396 0.54186 0.79599
 H1834 H 0.82134 0.52375 0.76919
 H1835 H 0.87143 0.51512 0.81116
 H1836 H 0.85395 0.53230 0.83784
 C1837 C 0.09085 0.69580 0.56186
 C1838 C 0.08370 0.68868 0.58000
 C1839 C 0.06660 0.69660 0.58830
 C1840 C 0.05606 0.71167 0.57858
 C1841 C 0.06252 0.71815 0.55995
 C1842 C 0.07982 0.71033 0.55168
 C1843 C 0.11016 0.68856 0.55425
 C1844 C 0.11264 0.68458 0.53354
 C1845 C 0.13072 0.67701 0.52679
 C1846 C 0.14668 0.67332 0.54062
 C1847 C 0.14423 0.67768 0.56126
 C1848 C 0.12630 0.68530 0.56795
 C1849 C 0.16551 0.66404 0.53398
 C1850 C 0.18413 0.66948 0.54408
 C1851 C 0.20125 0.65862 0.54020
 C1852 C 0.20023 0.64245 0.52582
 C1853 C 0.18212 0.63777 0.51471
 C1854 C 0.16484 0.64844 0.51880
 H1855 H 0.09146 0.67707 0.58793
 H1856 H 0.06169 0.69106 0.60248
 H1857 H 0.05465 0.72981 0.55221
 H1858 H 0.08497 0.71618 0.53773
 H1859 H 0.10047 0.68689 0.52260
 H1860 H 0.13217 0.67398 0.51077
 H1861 H 0.15599 0.67472 0.57242
 H1862 H 0.12508 0.68858 0.58396
 H1863 H 0.18534 0.68173 0.55548
 H1864 H 0.21518 0.66242 0.54887
 H1865 H 0.18104 0.62511 0.50377
 H1866 H 0.15074 0.64371 0.51087
 C1867 C 0.60951 0.20035 1.05681
 C1868 C 0.61203 0.21279 1.07453
 C1869 C 0.59536 0.22012 1.08418
 C1870 C 0.57567 0.21503 1.07656
 C1871 C 0.57309 0.20299 1.05857
 C1872 C 0.58983 0.19576 1.04879
 C1873 C 0.62738 0.19145 1.04751
 C1874 C 0.62638 0.17141 1.03933
 C1875 C 0.64373 0.16229 1.03276
 C1876 C 0.66248 0.17292 1.03445
 C1877 C 0.66338 0.19319 1.04177
 C1878 C 0.64601 0.20241 1.04806
 C1879 C 0.68124 0.16238 1.03035
 C1880 C 0.69728 0.16354 1.04490
 C1881 C 0.71437 0.15229 1.04212
 C1882 C 0.71590 0.13990 1.02459
 C1883 C 0.70023 0.13927 1.00966
 C1884 C 0.68290 0.15025 1.01263
 H1885 H 0.62688 0.21643 1.08136
 H1886 H 0.59795 0.22969 1.09777
 H1887 H 0.55814 0.19869 1.05233
 H1888 H 0.58732 0.18644 1.03503
 H1889 H 0.61239 0.16241 1.03888
 H1890 H 0.64270 0.14657 1.02734
 H1891 H 0.67764 0.20177 1.04298
 H1892 H 0.64727 0.21802 1.05376
 H1893 H 0.69629 0.17263 1.05876
 H1894 H 0.72634 0.15310 1.05376
 H1895 H 0.70108 0.12971 0.99608
 H1896 H 0.67072 0.14916 1.00120
 C1897 C 0.87817 0.20534 0.94342
 C1898 C 0.88035 0.20380 0.92253
 C1899 C 0.89757 0.21179 0.91396
 C1900 C 0.91347 0.22184 0.92596
 C1901 C 0.91085 0.22344 0.94708
 C1902 C 0.89355 0.21536 0.95557
 C1903 C 0.86016 0.19601 0.95248
 C1904 C 0.85102 0.20580 0.96873
 C1905 C 0.83443 0.19664 0.97754
 C1906 C 0.82659 0.17753 0.97025
 C1907 C 0.83555 0.16789 0.95384
 C1908 C 0.85215 0.17700 0.94508
 C1909 C 0.80985 0.16709 0.98031
 C1910 C 0.79456 0.15594 0.96890
 C1911 C 0.78004 0.14433 0.97843
 C1912 C 0.78059 0.14355 0.99952
 C1913 C 0.79533 0.15541 1.01097
 C1914 C 0.80979 0.16708 1.00147
 H1915 H 0.86870 0.19625 0.91270
 H1916 H 0.89844 0.20888 0.89791
 H1917 H 0.92159 0.23158 0.95740
 H1918 H 0.89236 0.21676 0.97179
 H1919 H 0.85664 0.22059 0.97457
 H1920 H 0.82771 0.20452 0.99005
 H1921 H 0.83012 0.15298 0.94814
 H1922 H 0.85904 0.16887 0.93284
 H1923 H 0.79409 0.15584 0.95257
 H1924 H 0.76906 0.13521 0.96923
 H1925 H 0.79599 0.15525 1.02729
 H1926 H 0.82143 0.17540 1.01069
 C1927 C 0.36508 0.69987 0.44428
 C1928 C 0.37014 0.69309 0.42485
 C1929 C 0.38725 0.70103 0.41604
 C1930 C 0.39961 0.71631 0.42621
 C1931 C 0.39443 0.72328 0.44555
 C1932 C 0.37747 0.71508 0.45452
 C1933 C 0.34715 0.69086 0.45387
 C1934 C 0.33563 0.70267 0.46687
 C1935 C 0.31909 0.69399 0.47616
 C1936 C 0.31350 0.67345 0.47235
 C1937 C 0.32474 0.66170 0.45920
 C1938 C 0.34148 0.67025 0.45021
 C1939 C 0.29647 0.66396 0.48259
 C1940 C 0.28165 0.65190 0.47150
 C1941 C 0.26649 0.64157 0.48137
 C1942 C 0.26615 0.64283 0.50251
 C1943 C 0.28067 0.65527 0.51358
 C1944 C 0.29560 0.66591 0.50368
 H1945 H 0.36082 0.68167 0.41631
 H1946 H 0.39088 0.69496 0.40129
 H1947 H 0.40338 0.73522 0.45375
 H1948 H 0.37427 0.72051 0.46961
 H1949 H 0.33927 0.71866 0.46978
 H1950 H 0.31054 0.70334 0.48619
 H1951 H 0.32089 0.64574 0.45630
 H1952 H 0.35019 0.66052 0.44071
 H1953 H 0.28201 0.65025 0.45522
 H1954 H 0.25556 0.63191 0.47255
 H1955 H 0.28063 0.65650 0.52990
 H1956 H 0.30695 0.67503 0.51253
 C1957 C 0.58617 0.79686 0.45279
 C1958 C 0.58177 0.77591 0.45312
 C1959 C 0.56319 0.76769 0.44534
 C1960 C 0.54859 0.78025 0.43718
 C1961 C 0.55263 0.80130 0.43781
 C1962 C 0.57122 0.80950 0.44550
 C1963 C 0.60672 0.80531 0.45858
 C1964 C 0.61600 0.81951 0.44643
 C1965 C 0.63565 0.82694 0.45113
 C1966 C 0.64650 0.82042 0.46812
 C1967 C 0.63718 0.80643 0.48047
 C1968 C 0.61750 0.79884 0.47567
 C1969 C 0.66740 0.82847 0.47282
 C1970 C 0.67368 0.83511 0.49256
 C1971 C 0.69272 0.84465 0.49645
 C1972 C 0.70582 0.84767 0.48071
 C1973 C 0.69989 0.84001 0.46118
 C1974 C 0.68090 0.83058 0.45727
 H1975 H 0.59303 0.76579 0.45856
 H1976 H 0.56041 0.75143 0.44525
 H1977 H 0.54177 0.81137 0.43150
 H1978 H 0.57411 0.82573 0.44531
 H1979 H 0.60819 0.82458 0.43301
 H1980 H 0.64234 0.83793 0.44149
 H1981 H 0.64523 0.80112 0.49364
 H1982 H 0.61068 0.78796 0.48533
 H1983 H 0.66354 0.83377 0.50481
 H1984 H 0.69670 0.85048 0.51156
 H1985 H 0.70983 0.84164 0.44878
 H1986 H 0.67663 0.82518 0.44199
 C1987 C 0.10490 0.29253 -0.04908
 C1988 C 0.09666 0.30180 -0.06604
 C1989 C 0.07729 0.29629 -0.07376
 C1990 C 0.06546 0.28149 -0.06461
 C1991 C 0.07351 0.27243 -0.04739
 C1992 C 0.09303 0.27792 -0.03968
 C1993 C 0.12587 0.29812 -0.04156
 C1994 C 0.13093 0.30051 -0.02078
 C1995 C 0.15040 0.30727 -0.01398
 C1996 C 0.16521 0.31179 -0.02784
 C1997 C 0.16023 0.30877 -0.04858
 C1998 C 0.14090 0.30192 -0.05532
 C1999 C 0.18535 0.32089 -0.02101
 C2000 C 0.20255 0.31652 -0.03182
 C2001 C 0.22073 0.32751 -0.02761
 C2002 C 0.22221 0.34272 -0.01220
 C2003 C 0.20557 0.34625 -0.00048
 C2004 C 0.18724 0.33549 -0.00488
 H2005 H 0.10522 0.31339 -0.07342
 H2006 H 0.07179 0.30335 -0.08723
 H2007 H 0.06474 0.26110 -0.03989
 H2008 H 0.09897 0.27044 -0.02664
 H2009 H 0.11968 0.29777 -0.00978
 H2010 H 0.15377 0.30921 0.00210
 H2011 H 0.17107 0.31236 -0.05974
 H2012 H 0.13764 0.29985 -0.07142
 H2013 H 0.20180 0.30506 -0.04401
 H2014 H 0.23348 0.32460 -0.03679
 H2015 H 0.20634 0.35824 0.01119
 H2016 H 0.17429 0.33946 0.00359
 C2017 C 0.39277 0.28832 0.06396
 C2018 C 0.39408 0.26805 0.06930
 C2019 C 0.41222 0.26102 0.07729
 C2020 C 0.42947 0.27406 0.07993
 C2021 C 0.42824 0.29415 0.07394
 C2022 C 0.41009 0.30122 0.06616
 C2023 C 0.37343 0.29620 0.05634
 C2024 C 0.36705 0.31499 0.06380
 C2025 C 0.34939 0.32305 0.05597
 C2026 C 0.33782 0.31257 0.04036
 C2027 C 0.34394 0.29354 0.03320
 C2028 C 0.36152 0.28536 0.04122
 C2029 C 0.32029 0.32220 0.03071
 C2030 C 0.31817 0.32241 0.00958
 C2031 C 0.30307 0.33341 0.00037
 C2032 C 0.28967 0.34425 0.01209
 C2033 C 0.29116 0.34330 0.03318
 C2034 C 0.30644 0.33248 0.04243
 H2035 H 0.38090 0.25784 0.06783
 H2036 H 0.41255 0.24554 0.08199
 H2037 H 0.44131 0.30449 0.07531
 H2038 H 0.40959 0.31680 0.06179
 H2039 H 0.37585 0.32355 0.07562
 H2040 H 0.34515 0.33782 0.06163
 H2041 H 0.33523 0.28511 0.02124
 H2042 H 0.36613 0.27087 0.03517
 H2043 H 0.32872 0.31477 0.00019
 H2044 H 0.30210 0.33374 -0.01594
 H2045 H 0.28107 0.35163 0.04254
 H2046 H 0.30768 0.33244 0.05875
 C2047 C 0.87186 0.78031 0.55928
 C2048 C 0.88591 0.76942 0.54838
 C2049 C 0.90386 0.76363 0.55789
 C2050 C 0.90819 0.76887 0.57839
 C2051 C 0.89395 0.77937 0.58936
 C2052 C 0.87594 0.78495 0.57993
 C2053 C 0.85359 0.78793 0.54899
 C2054 C 0.83485 0.78692 0.55802
 C2055 C 0.81804 0.79564 0.54903
 C2056 C 0.81967 0.80572 0.53089
 C2057 C 0.83837 0.80632 0.52170
 C2058 C 0.85509 0.79745 0.53059
 C2059 C 0.80238 0.81656 0.52206
 C2060 C 0.79954 0.81750 0.50100
 C2061 C 0.78505 0.82982 0.49270
 C2062 C 0.77285 0.84124 0.50523
 C2063 C 0.77473 0.83940 0.52619
 C2064 C 0.78945 0.82726 0.53455
 H2065 H 0.88306 0.76555 0.53247
 H2066 H 0.91462 0.75558 0.54910
 H2067 H 0.89682 0.78337 0.60524
 H2068 H 0.86548 0.79349 0.58865
 H2069 H 0.83325 0.77948 0.57212
 H2070 H 0.80382 0.79462 0.55635
 H2071 H 0.84034 0.81431 0.50798
 H2072 H 0.86942 0.79875 0.52347
 H2073 H 0.80884 0.80905 0.49092
 H2074 H 0.78363 0.83077 0.47645
 H2075 H 0.76559 0.84820 0.53615
 H2076 H 0.79132 0.82708 0.55082
   
