data_POSCAR
  _audit_creation_date              2014-09-24
  _audit_creation_method            'ToBaCCo'
  _symmetry_space_group_name_H-M    'P1'
  _symmetry_Int_Tables_number       1
  _symmetry_cell_setting            triclinic
  loop_
  _symmetry_equiv_pos_as_xyz
 x,y,z
_cell_length_a 65.7762
_cell_length_b 66.5490
_cell_length_c 66.0865
_cell_angle_alpha 89.935600
_cell_angle_beta 89.909000
_cell_angle_gamma 89.822100
loop_
  _atom_site_label
  _atom_site_type_symbol
  _atom_site_fract_x
  _atom_site_fract_y
  _atom_site_fract_z
C1 C 0.34428 1.36591 0.34258
 C2 C 0.35261 1.37301 0.32434
 C3 C 0.36858 1.36258 0.31446
 C4 C 0.37611 1.34484 0.32362
 C5 C 0.36803 1.33768 0.34188
 C6 C 0.35213 1.34829 0.35143
 C7 C 0.32799 1.37603 0.35193
 C8 C 0.31950 1.36897 0.37030
 C9 C 0.32795 1.35149 0.37908
 C10 C 0.34390 1.34110 0.36973
 C11 C 0.35139 1.32327 0.37822
 C12 C 0.36700 1.31243 0.36866
 C13 C 0.37546 1.31986 0.35061
 H14 H 0.34582 1.38619 0.31748
 H15 H 0.38883 1.33679 0.31707
 H16 H 0.32240 1.38976 0.34507
 H17 H 0.32139 1.34505 0.39264
 H18 H 0.34501 1.31776 0.39230
 H19 H 0.38742 1.31147 0.34308
 C20 C 0.34289 0.86612 0.83828
 C21 C 0.35286 0.87279 0.82077
 C22 C 0.36985 0.86238 0.81313
 C23 C 0.37689 0.84516 0.82332
 C24 C 0.36709 0.83833 0.84088
 C25 C 0.35005 0.84888 0.84842
 C26 C 0.32574 0.87634 0.84564
 C27 C 0.31542 0.86970 0.86319
 C28 C 0.32301 0.85250 0.87328
 C29 C 0.34004 0.84206 0.86596
 C30 C 0.34693 0.82462 0.87573
 C31 C 0.36372 0.81386 0.86819
 C32 C 0.37385 0.82093 0.85085
 H33 H 0.34710 0.88586 0.81279
 H34 H 0.39006 0.83713 0.81762
 H35 H 0.32095 0.88990 0.83791
 H36 H 0.31514 0.84638 0.88629
 H37 H 0.33922 0.81940 0.88925
 H38 H 0.38667 0.81259 0.84480
 C39 C 0.83613 1.36297 0.83833
 C40 C 0.84557 1.37256 0.82194
 C41 C 0.86286 1.36412 0.81239
 C42 C 0.87063 1.34577 0.82008
 C43 C 0.86143 1.33610 0.83660
 C44 C 0.84407 1.34469 0.84569
 C45 C 0.81855 1.37119 0.84719
 C46 C 0.80881 1.36134 0.86333
 C47 C 0.81705 1.34331 0.87080
 C48 C 0.83450 1.33490 0.86205
 C49 C 0.84237 1.31672 0.86929
 C50 C 0.85964 1.30799 0.86036
 C51 C 0.86921 1.31784 0.84409
 H52 H 0.83860 1.38612 0.81608
 H53 H 0.88429 1.33917 0.81375
 H54 H 0.81217 1.38500 0.84121
 H55 H 0.80984 1.33578 0.88346
 H56 H 0.83507 1.30936 0.88201
 H57 H 0.88243 1.31107 0.83701
 C58 C 0.84743 0.87017 0.34599
 C59 C 0.85536 0.87967 0.32878
 C60 C 0.87228 0.87162 0.31830
 C61 C 0.88125 0.85379 0.32591
 C62 C 0.87358 0.84426 0.34328
 C63 C 0.85655 0.85244 0.35331
 C64 C 0.83017 0.87796 0.35573
 C65 C 0.82183 0.86825 0.37271
 C66 C 0.83124 0.85077 0.38018
 C67 C 0.84849 0.84277 0.37056
 C68 C 0.85760 0.82508 0.37771
 C69 C 0.87462 0.81678 0.36784
 C70 C 0.88256 0.82653 0.35066
 H71 H 0.84748 0.89279 0.32305
 H72 H 0.89469 0.84751 0.31882
 H73 H 0.82317 0.89162 0.35007
 H74 H 0.82480 0.84307 0.39314
 H75 H 0.85150 0.81780 0.39108
 H76 H 0.89549 0.82008 0.34279
 C77 C 0.65505 0.63143 0.34284
 C78 C 0.64560 0.62341 0.32561
 C79 C 0.62746 0.63187 0.31782
 C80 C 0.61903 0.64864 0.32796
 C81 C 0.62844 0.65689 0.34504
 C82 C 0.64652 0.64832 0.35252
 C83 C 0.67297 0.62282 0.35049
 C84 C 0.68260 0.63094 0.36762
 C85 C 0.67410 0.64798 0.37704
 C86 C 0.65615 0.65674 0.36960
 C87 C 0.64768 0.67383 0.37889
 C88 C 0.62968 0.68252 0.37138
 C89 C 0.62015 0.67388 0.35449
 H90 H 0.65216 0.61009 0.31881
 H91 H 0.60564 0.65611 0.32209
 H92 H 0.67962 0.60994 0.34291
 H93 H 0.68131 0.65428 0.39032
 H94 H 0.65503 0.68031 0.39201
 H95 H 0.60647 0.68069 0.34841
 C96 C 0.66322 0.14177 0.83639
 C97 C 0.65322 0.13237 0.82022
 C98 C 0.63545 0.14080 0.81188
 C99 C 0.62757 0.15870 0.82008
 C100 C 0.63740 0.16830 0.83619
 C101 C 0.65536 0.15987 0.84427
 C102 C 0.68113 0.13352 0.84457
 C103 C 0.69166 0.14330 0.86040
 C104 C 0.68340 0.16136 0.86809
 C105 C 0.66551 0.16962 0.86018
 C106 C 0.65769 0.18760 0.86800
 C107 C 0.63989 0.19617 0.86003
 C108 C 0.62974 0.18637 0.84416
 H109 H 0.65924 0.11845 0.81414
 H110 H 0.61404 0.16544 0.81359
 H111 H 0.68725 0.11998 0.83781
 H112 H 0.69036 0.16883 0.88085
 H113 H 0.66543 0.19492 0.88044
 H114 H 0.61610 0.19300 0.83779
 C115 C 1.15207 0.63030 0.84524
 C116 C 1.14392 0.62143 0.82778
 C117 C 1.12649 0.62953 0.81847
 C118 C 1.11725 0.64670 0.82684
 C119 C 1.12520 0.65572 0.84426
 C120 C 1.14262 0.64744 0.85355
 C121 C 1.16956 0.62233 0.85444
 C122 C 1.17788 0.63112 0.87207
 C123 C 1.16802 0.64820 0.88023
 C124 C 1.15069 0.65643 0.87105
 C125 C 1.14154 0.67381 0.87894
 C126 C 1.12440 0.68237 0.86957
 C127 C 1.11620 0.67310 0.85232
 H128 H 1.15105 0.60811 0.82150
 H129 H 1.10406 0.65328 0.81955
 H130 H 1.17617 0.60880 0.84811
 H131 H 1.17432 0.65594 0.89317
 H132 H 1.14776 0.68070 0.89242
 H133 H 1.10311 0.67971 0.84487
 C134 C 1.15670 0.12906 0.34299
 C135 C 1.14918 0.12066 0.32510
 C136 C 1.13269 0.12947 0.31466
 C137 C 1.12345 0.14673 0.32316
 C138 C 1.13099 0.15537 0.34101
 C139 C 1.14784 0.14662 0.35086
 C140 C 1.17322 0.12016 0.35288
 C141 C 1.18166 0.12874 0.37048
 C142 C 1.17285 0.14668 0.37801
 C143 C 1.15593 0.15552 0.36844
 C144 C 1.14697 0.17314 0.37613
 C145 C 1.13005 0.18191 0.36649
 C146 C 1.12219 0.17290 0.34893
 H147 H 1.15595 0.10681 0.31974
 H148 H 1.11108 0.15424 0.31542
 H149 H 1.18015 0.10705 0.34601
 H150 H 1.17856 0.15348 0.39174
 H151 H 1.15304 0.17992 0.38974
 H152 H 1.10943 0.17978 0.34119
 C153 C 0.66463 1.36068 0.66314
 C154 C 0.65539 1.37069 0.67942
 C155 C 0.63799 1.36275 0.68887
 C156 C 0.62973 1.34461 0.68168
 C157 C 0.63879 1.33440 0.66537
 C158 C 0.65639 1.34244 0.65618
 C159 C 0.68222 1.36849 0.65401
 C160 C 0.69204 1.35824 0.63796
 C161 C 0.68339 1.34007 0.63113
 C162 C 0.66583 1.33218 0.64009
 C163 C 0.65763 1.31407 0.63315
 C164 C 0.64017 1.30586 0.64215
 C165 C 0.63071 1.31619 0.65821
 H166 H 0.66202 1.38448 0.68505
 H167 H 0.61621 1.33848 0.68874
 H168 H 0.68867 1.38209 0.66020
 H169 H 0.68979 1.33220 0.61828
 H170 H 0.66481 1.30636 0.62057
 H171 H 0.61732 1.30987 0.66533
 C172 C 0.66181 0.86403 1.15930
 C173 C 0.65427 0.87274 1.17706
 C174 C 0.63781 0.86415 1.18773
 C175 C 0.62871 0.84664 1.17966
 C176 C 0.63626 0.83764 1.16192
 C177 C 0.65289 0.84638 1.15173
 C178 C 0.67837 0.87263 1.14913
 C179 C 0.68636 0.86366 1.13159
 C180 C 0.67739 0.84607 1.12408
 C181 C 0.66079 0.83735 1.13408
 C182 C 0.65229 0.81949 1.12693
 C183 C 0.63600 0.81039 1.13715
 C184 C 0.62783 0.81970 1.15449
 H185 H 0.66103 0.88668 1.18211
 H186 H 0.61645 0.83925 1.18765
 H187 H 0.68512 0.88630 1.15492
 H188 H 0.68368 0.83885 1.11076
 H189 H 0.65842 0.81257 1.11337
 H190 H 0.61533 0.81267 1.16249
 C191 C 1.15206 1.36935 1.15461
 C192 C 1.14224 1.37704 1.17178
 C193 C 1.12561 1.36694 1.18043
 C194 C 1.11851 1.34919 1.17139
 C195 C 1.12819 1.34130 1.15419
 C196 C 1.14513 1.35135 1.14586
 C197 C 1.16904 1.37915 1.14644
 C198 C 1.17968 1.37111 1.12969
 C199 C 1.17236 1.35311 1.12100
 C200 C 1.15530 1.34326 1.12896
 C201 C 1.14844 1.32526 1.12038
 C202 C 1.13165 1.31506 1.12861
 C203 C 1.12153 1.32326 1.14548
 H204 H 1.14760 1.39089 1.17851
 H205 H 1.10583 1.34120 1.17809
 H206 H 1.17453 1.39246 1.15406
 H207 H 1.17949 1.34687 1.10763
 H208 H 1.15618 1.31914 1.10726
 H209 H 1.10878 1.31535 1.15212
 C210 C 1.15773 0.86456 0.65951
 C211 C 1.14782 0.87236 0.67659
 C212 C 1.13112 0.86234 0.68521
 C213 C 1.12412 0.84448 0.67628
 C214 C 1.13390 0.83648 0.65919
 C215 C 1.15086 0.84650 0.65086
 C216 C 1.17467 0.87439 0.65127
 C217 C 1.18529 0.86634 0.63450
 C218 C 1.17807 0.84823 0.62597
 C219 C 1.16106 0.83834 0.63400
 C220 C 1.15420 0.82031 0.62547
 C221 C 1.13736 0.81017 0.63367
 C222 C 1.12725 0.81842 0.65052
 H223 H 1.15310 0.88629 0.68321
 H224 H 1.11139 0.83656 0.68294
 H225 H 1.18008 0.88779 0.65878
 H226 H 1.18519 0.84196 0.61260
 H227 H 1.16194 0.81418 0.61235
 H228 H 1.11445 0.81056 0.65714
 C229 C 0.34002 0.63472 0.65752
 C230 C 0.34702 0.62578 0.67542
 C231 C 0.36401 0.63356 0.68562
 C232 C 0.37419 0.65030 0.67751
 C233 C 0.36736 0.65940 0.65959
 C234 C 0.35016 0.65163 0.64958
 C235 C 0.32281 0.62720 0.64765
 C236 C 0.31544 0.63643 0.62996
 C237 C 0.32568 0.65324 0.62206
 C238 C 0.34294 0.66091 0.63178
 C239 C 0.35293 0.67789 0.62414
 C240 C 0.37000 0.68583 0.63410
 C241 C 0.37719 0.67640 0.65176
 H242 H 0.33926 0.61273 0.68143
 H243 H 0.38713 0.65655 0.68541
 H244 H 0.31481 0.61447 0.65404
 H245 H 0.32020 0.66034 0.60834
 H246 H 0.34742 0.68495 0.61040
 H247 H 0.39015 0.68259 0.65968
 C248 C 0.34376 0.13422 1.15993
 C249 C 0.35297 0.12697 1.17764
 C250 C 0.36983 0.13687 1.18636
 C251 C 0.37736 0.15422 1.17651
 C252 C 0.36834 0.16156 1.15874
 C253 C 0.35146 0.15157 1.15044
 C254 C 0.32665 0.12459 1.15183
 C255 C 0.31710 0.13210 1.13435
 C256 C 0.32507 0.14926 1.12481
 C257 C 0.34215 0.15904 1.13273
 C258 C 0.34987 0.17633 1.12336
 C259 C 0.36674 0.18640 1.13151
 C260 C 0.37591 0.17886 1.14919
 H261 H 0.34617 0.11413 1.18506
 H262 H 0.39072 0.16181 1.18215
 H263 H 0.32045 0.11152 1.15941
 H264 H 0.31798 0.15499 1.11116
 H265 H 0.34247 0.18222 1.10995
 H266 H 0.38904 0.18642 1.15547
 C267 C 0.83494 0.63947 1.16300
 C268 C 0.84240 0.63012 1.18053
 C269 C 0.85991 0.63739 1.19024
 C270 C 0.87005 0.65414 1.18208
 C271 C 0.86279 0.66365 1.16456
 C272 C 0.84514 0.65633 1.15500
 C273 C 0.81732 0.63237 1.15349
 C274 C 0.80964 0.64194 1.13611
 C275 C 0.81994 0.65871 1.12819
 C276 C 0.83758 0.66597 1.13753
 C277 C 0.84770 0.68283 1.12976
 C278 C 0.86525 0.69030 1.13926
 C279 C 0.87273 0.68054 1.15663
 H280 H 0.83463 0.61707 1.18656
 H281 H 0.88337 0.66004 1.18963
 H282 H 0.80932 0.61963 1.15988
 H283 H 0.81426 0.66604 1.11467
 H284 H 0.84197 0.69011 1.11623
 H285 H 0.88607 0.68636 1.16422
 C286 C 0.84273 0.13101 0.65655
 C287 C 0.85011 0.12279 0.67460
 C288 C 0.86651 0.13161 0.68504
 C289 C 0.87580 0.14874 0.67639
 C290 C 0.86837 0.15724 0.65836
 C291 C 0.85161 0.14845 0.64851
 C292 C 0.82632 0.12204 0.64664
 C293 C 0.81801 0.13044 0.62885
 C294 C 0.82682 0.14826 0.62115
 C295 C 0.84364 0.15715 0.63074
 C296 C 0.85262 0.17462 0.62284
 C297 C 0.86945 0.18346 0.63247
 C298 C 0.87720 0.17464 0.65023
 H299 H 0.84332 0.10901 0.68007
 H300 H 0.88815 0.15623 0.68410
 H301 H 0.81937 0.10903 0.65363
 H302 H 0.82120 0.15491 0.60728
 H303 H 0.84665 0.18122 0.60906
 H304 H 0.88990 0.18157 0.65795
 C305 C 1.37501 0.34370 0.65550
 C306 C 1.38395 0.35261 0.67251
 C307 C 1.37508 0.36955 0.68197
 C308 C 1.35708 0.37760 0.67348
 C309 C 1.34810 0.36890 0.65636
 C310 C 1.35697 0.35176 0.64746
 C311 C 1.38369 0.32651 0.64677
 C312 C 1.37457 0.31687 0.63004
 C313 C 1.35646 0.32527 0.62210
 C314 C 1.34771 0.34261 0.63060
 C315 C 1.32984 0.35096 0.62250
 C316 C 1.32106 0.36829 0.63109
 C317 C 1.33028 0.37709 0.64809
 H318 H 1.39730 0.34551 0.67891
 H319 H 1.35026 0.39108 0.67967
 H320 H 1.39705 0.32014 0.65388
 H321 H 1.34938 0.31883 0.60884
 H322 H 1.32289 0.34413 0.60935
 H323 H 1.32338 0.39017 0.65508
 C324 C 1.37255 0.84460 1.15647
 C325 C 1.38201 0.85338 1.17327
 C326 C 1.37315 0.86995 1.18310
 C327 C 1.35483 0.87798 1.17567
 C328 C 1.34519 0.86932 1.15891
 C329 C 1.35400 0.85247 1.14934
 C330 C 1.38114 0.82771 1.14713
 C331 C 1.37140 0.81811 1.13073
 C332 C 1.35280 0.82628 1.12371
 C333 C 1.34414 0.84336 1.13282
 C334 C 1.32561 0.85133 1.12583
 C335 C 1.31674 0.86814 1.13532
 C336 C 1.32671 0.87706 1.15181
 H337 H 1.39599 0.84693 1.17909
 H338 H 1.34803 0.89092 1.18301
 H339 H 1.39491 0.82149 1.15357
 H340 H 1.34520 0.81984 1.11074
 H341 H 1.31787 0.84420 1.11329
 H342 H 1.32009 0.89014 1.15908
 C343 C 0.85821 0.33115 1.16578
 C344 C 0.86782 0.33948 1.18273
 C345 C 0.85968 0.35653 1.19243
 C346 C 0.84188 0.36546 1.18471
 C347 C 0.83206 0.35729 1.16778
 C348 C 0.84020 0.33998 1.15839
 C349 C 0.86616 0.31391 1.15634
 C350 C 0.85618 0.30498 1.13968
 C351 C 0.83819 0.31416 1.13250
 C352 C 0.83022 0.33142 1.14169
 C353 C 0.81230 0.34017 1.13438
 C354 C 0.80402 0.35734 1.14362
 C355 C 0.81406 0.36593 1.16026
 H356 H 0.88170 0.33270 1.18839
 H357 H 0.83538 0.37846 1.19219
 H358 H 0.87961 0.30701 1.16276
 H359 H 0.83056 0.30842 1.11921
 H360 H 0.80480 0.33366 1.12136
 H361 H 0.80765 0.37909 1.16756
 C362 C 0.86826 0.83634 0.66111
 C363 C 0.87577 0.84445 0.67912
 C364 C 0.86581 0.86060 0.68861
 C365 C 0.84832 0.86892 0.67962
 C366 C 0.84056 0.86089 0.66156
 C367 C 0.85054 0.84447 0.65232
 C368 C 0.87801 0.81992 0.65201
 C369 C 0.87019 0.81132 0.63427
 C370 C 0.85254 0.81951 0.62550
 C371 C 0.84266 0.83600 0.63442
 C372 C 0.82486 0.84394 0.62591
 C373 C 0.81470 0.86020 0.63507
 C374 C 0.82275 0.86869 0.65283
 H375 H 0.88943 0.83818 0.68581
 H376 H 0.84048 0.88128 0.68696
 H377 H 0.89138 0.81346 0.65907
 H378 H 0.84649 0.81301 0.61174
 H379 H 0.81890 0.83747 0.61210
 H380 H 0.81486 0.88105 0.66013
 C381 C 0.63870 0.66363 0.66485
 C382 C 0.63102 0.65414 0.68219
 C383 C 0.64056 0.63690 0.69009
 C384 C 0.65784 0.62907 0.68028
 C385 C 0.66568 0.63840 0.66291
 C386 C 0.65610 0.65576 0.65516
 C387 C 0.62941 0.68104 0.65722
 C388 C 0.63731 0.69079 0.64005
 C389 C 0.65459 0.68277 0.63039
 C390 C 0.66405 0.66537 0.63785
 C391 C 0.68151 0.65761 0.62846
 C392 C 0.69122 0.64037 0.63616
 C393 C 0.68312 0.63080 0.65335
 H394 H 0.61789 0.66046 0.68983
 H395 H 0.66516 0.61567 0.68615
 H396 H 0.61596 0.68699 0.66462
 H397 H 0.66096 0.69036 0.61732
 H398 H 0.68752 0.66495 0.61509
 H399 H 0.69069 0.61769 0.65957
 C400 C 0.62921 1.16076 1.15702
 C401 C 0.62089 1.15294 1.17489
 C402 C 0.62988 1.13635 1.18458
 C403 C 0.64714 1.12730 1.17590
 C404 C 0.65563 1.13499 1.15801
 C405 C 0.64677 1.15194 1.14863
 C406 C 0.62036 1.17751 1.14768
 C407 C 0.62889 1.18611 1.13006
 C408 C 0.64671 1.17721 1.12195
 C409 C 0.65556 1.16015 1.13100
 C410 C 0.67306 1.15114 1.12272
 C411 C 0.68182 1.13405 1.13184
 C412 C 0.67301 1.12615 1.14953
 H413 H 0.60735 1.15977 1.18130
 H414 H 0.65426 1.11458 1.18334
 H415 H 0.60734 1.18439 1.15497
 H416 H 0.65341 1.18298 1.10815
 H417 H 0.67974 1.15727 1.10905
 H418 H 0.67991 1.11328 1.15691
 C419 C 0.12511 0.65755 1.15631
 C420 C 0.11615 0.64763 1.17274
 C421 C 0.12528 0.63047 1.18149
 C422 C 0.14362 0.62325 1.17292
 C423 C 0.15256 0.63288 1.15621
 C424 C 0.14327 0.65012 1.14791
 C425 C 0.11629 0.67510 1.14852
 C426 C 0.12532 0.68566 1.13229
 C427 C 0.14322 0.67761 1.12358
 C428 C 0.15228 0.66012 1.13138
 C429 C 0.17052 0.65276 1.12321
 C430 C 0.17999 0.63562 1.13141
 C431 C 0.17082 0.62569 1.14786
 H432 H 0.10263 0.65421 1.17939
 H433 H 0.15077 0.60976 1.17874
 H434 H 0.10201 0.68016 1.15494
 H435 H 0.15097 0.68548 1.11149
 H436 H 0.17736 0.66038 1.11040
 H437 H 0.17817 0.61265 1.15447
 C438 C 0.13085 1.15850 0.65601
 C439 C 0.12121 1.15131 0.67351
 C440 C 0.12813 1.13373 0.68343
 C441 C 0.14493 1.12336 0.67500
 C442 C 0.15477 1.13046 0.65757
 C443 C 0.14773 1.14810 0.64806
 C444 C 0.12402 1.17616 0.64652
 C445 C 0.13402 1.18367 0.62928
 C446 C 0.15081 1.17315 0.62142
 C447 C 0.15776 1.15551 0.63072
 C448 C 0.17483 1.14536 0.62315
 C449 C 0.18219 1.12796 0.63277
 C450 C 0.17194 1.12047 0.64985
 H451 H 0.10789 1.15926 0.67893
 H452 H 0.15127 1.11030 0.68249
 H453 H 0.11125 1.18436 0.65286
 H454 H 0.15848 1.17873 0.60802
 H455 H 0.18248 1.15106 0.60980
 H456 H 0.17768 1.10719 0.65748
 C457 C 1.37088 0.65843 0.34662
 C458 C 1.37873 0.65141 0.32818
 C459 C 1.37055 0.63429 0.31852
 C460 C 1.35425 0.62424 0.32815
 C461 C 1.34620 0.63118 0.34656
 C462 C 1.35463 0.64827 0.35587
 C463 C 1.37906 0.67558 0.35585
 C464 C 1.37118 0.68301 0.37432
 C465 C 1.35495 0.67246 0.38344
 C466 C 1.34663 0.65534 0.37433
 C467 C 1.33002 0.64552 0.38319
 C468 C 1.32123 0.62871 0.37384
 C469 C 1.32954 0.62152 0.35559
 H470 H 1.39175 0.65908 0.32181
 H471 H 1.34696 0.61156 0.32096
 H472 H 1.39203 0.68268 0.34875
 H473 H 1.34789 0.67802 0.39714
 H474 H 1.32353 0.65135 0.39709
 H475 H 1.32298 0.60843 0.34841
 C476 C 1.35998 1.17053 0.83098
 C477 C 1.36742 1.16180 0.81316
 C478 C 1.35811 1.14472 0.80488
 C479 C 1.34127 1.13621 0.81480
 C480 C 1.33365 1.14480 0.83269
 C481 C 1.34309 1.16202 0.84083
 C482 C 1.36922 1.18771 0.83896
 C483 C 1.36188 1.19685 0.85684
 C484 C 1.34503 1.18796 0.86668
 C485 C 1.33557 1.17081 0.85873
 C486 C 1.31844 1.16254 0.86823
 C487 C 1.30871 1.14558 0.86009
 C488 C 1.31654 1.13669 0.84240
 H489 H 1.38058 1.16826 0.80574
 H490 H 1.33389 1.12315 0.80838
 H491 H 1.38263 1.19343 0.83143
 H492 H 1.33846 1.19485 0.88001
 H493 H 1.31268 1.16928 0.88203
 H494 H 1.30902 1.12375 0.83590
 C495 C 0.86291 0.66325 0.83542
 C496 C 0.87029 0.65349 0.81807
 C497 C 0.86015 0.63668 0.81009
 C498 C 0.84252 0.62961 0.81981
 C499 C 0.83495 0.63920 0.83716
 C500 C 0.84515 0.65610 0.84498
 C501 C 0.87286 0.68020 0.84320
 C502 C 0.86527 0.69016 0.86041
 C503 C 0.84762 0.68284 0.86991
 C504 C 0.83749 0.66595 0.86229
 C505 C 0.81976 0.65885 0.87166
 C506 C 0.80945 0.64205 0.86393
 C507 C 0.81722 0.63226 0.84670
 H508 H 0.88373 0.65923 0.81053
 H509 H 0.83474 0.61652 0.81393
 H510 H 0.88629 0.68588 0.83562
 H511 H 0.84181 0.69024 0.88334
 H512 H 0.81402 0.66635 0.88507
 H513 H 0.80923 0.61947 0.84046
 C514 C 0.87025 1.15861 0.34419
 C515 C 0.87937 1.14997 0.32709
 C516 C 0.87014 1.13380 0.31672
 C517 C 0.85147 1.12635 0.32431
 C518 C 0.84225 1.13478 0.34152
 C519 C 0.85166 1.15100 0.35146
 C520 C 0.87925 1.17511 0.35388
 C521 C 0.86993 1.18403 0.37080
 C522 C 0.85157 1.17614 0.37815
 C523 C 0.84236 1.15979 0.36855
 C524 C 0.82376 1.15236 0.37558
 C525 C 0.81420 1.13626 0.36577
 C526 C 0.82362 1.12740 0.34884
 H527 H 0.89317 1.15673 0.32137
 H528 H 0.84424 1.11353 0.31732
 H529 H 0.89351 1.18105 0.34824
 H530 H 0.84413 1.18314 0.39099
 H531 H 0.81673 1.15909 0.38879
 H532 H 0.81621 1.11508 0.34110
 C533 C 0.63426 0.34010 0.33824
 C534 C 0.62655 0.34998 0.32111
 C535 C 0.63590 0.36751 0.31336
 C536 C 0.65326 0.37491 0.32348
 C537 C 0.66122 0.36507 0.34052
 C538 C 0.65171 0.34761 0.34793
 C539 C 0.62482 0.32271 0.34574
 C540 C 0.63268 0.31262 0.36274
 C541 C 0.65016 0.32020 0.37228
 C542 C 0.65975 0.33756 0.36497
 C543 C 0.67733 0.34495 0.37433
 C544 C 0.68709 0.36223 0.36686
 C545 C 0.67884 0.37224 0.35000
 H546 H 0.61275 0.34425 0.31436
 H547 H 0.66137 0.38781 0.31765
 H548 H 0.61156 0.31680 0.33809
 H549 H 0.65623 0.31265 0.38551
 H550 H 0.68341 0.33727 0.38748
 H551 H 0.68640 0.38540 0.34396
 C552 C 0.63632 0.83784 0.83822
 C553 C 0.62866 0.84549 0.81990
 C554 C 0.63711 0.86287 0.81116
 C555 C 0.65295 0.87286 0.82117
 C556 C 0.66067 0.86550 0.83944
 C557 C 0.65246 0.84787 0.84798
 C558 C 0.62849 0.82011 0.84671
 C559 C 0.63673 0.81219 0.86469
 C560 C 0.65266 0.82242 0.87436
 C561 C 0.66059 0.84014 0.86613
 C562 C 0.67679 0.85007 0.87558
 C563 C 0.68505 0.86761 0.86707
 C564 C 0.67680 0.87529 0.84906
 H565 H 0.61651 0.83767 0.81216
 H566 H 0.65930 0.88643 0.81466
 H567 H 0.61636 0.81218 0.83906
 H568 H 0.65889 0.81656 0.88836
 H569 H 0.68303 0.84411 0.88953
 H570 H 0.68334 0.88859 0.84220
 C571 C 0.13380 0.33710 0.84054
 C572 C 0.12580 0.34442 0.82232
 C573 C 0.13527 0.36033 0.81198
 C574 C 0.15282 0.36912 0.82025
 C575 C 0.16102 0.36195 0.83850
 C576 C 0.15142 0.34589 0.84869
 C577 C 0.12455 0.32093 0.85056
 C578 C 0.13262 0.31317 0.86879
 C579 C 0.15013 0.32240 0.87688
 C580 C 0.15959 0.33844 0.86689
 C581 C 0.17747 0.34676 0.87463
 C582 C 0.18740 0.36245 0.86442
 C583 C 0.17893 0.37020 0.84649
 H584 H 0.11214 0.33773 0.81615
 H585 H 0.16035 0.38122 0.81223
 H586 H 0.11070 0.31484 0.84426
 H587 H 0.15731 0.31646 0.89035
 H588 H 0.18378 0.34097 0.88863
 H589 H 0.18659 0.38223 0.83850
 C590 C 0.12784 0.84284 0.34406
 C591 C 0.11874 0.85152 0.32694
 C592 C 0.12739 0.86839 0.31722
 C593 C 0.14533 0.87660 0.32554
 C594 C 0.15448 0.86814 0.34274
 C595 C 0.14584 0.85106 0.35192
 C596 C 0.11933 0.82576 0.35310
 C597 C 0.12855 0.81638 0.36997
 C598 C 0.14669 0.82486 0.37766
 C599 C 0.15526 0.84213 0.36886
 C600 C 0.17309 0.85068 0.37678
 C601 C 0.18158 0.86800 0.36794
 C602 C 0.17220 0.87653 0.35086
 H603 H 0.10544 0.84429 0.32071
 H604 H 0.15198 0.89005 0.31916
 H605 H 0.10598 0.81929 0.34615
 H606 H 0.15388 0.81859 0.39097
 H607 H 0.18019 0.84403 0.38998
 H608 H 0.17889 0.88959 0.34368
 O609 O 0.98111 0.92732 0.89886
 O610 O 0.98138 0.90398 0.87519
 C611 C 0.97432 0.92030 0.88234
 C612 C 0.95771 0.93105 0.87171
 C613 C 0.95095 0.92465 0.85261
 H614 H 0.95847 0.91218 0.84516
 O615 O 1.01968 1.07203 0.89844
 O616 O 1.01955 1.09528 0.87462
 C617 C 1.02649 1.07896 0.88184
 C618 C 1.04294 1.06810 0.87110
 C619 C 1.04906 1.07401 0.85162
 H620 H 1.04107 1.08610 0.84402
 O621 O 0.89932 0.98012 0.92665
 O622 O 0.87555 0.97974 0.90316
 C623 C 0.88288 0.97304 0.91963
 C624 C 0.87259 0.95646 0.93052
 C625 C 0.85402 0.94871 0.92352
 H626 H 0.84684 0.95522 0.91030
 O627 O 1.10162 1.02046 0.92635
 O628 O 1.12536 1.02048 0.90274
 C629 C 1.11809 1.02740 0.91915
 C630 C 1.12864 1.04396 0.92978
 C631 C 1.14750 1.05103 0.92282
 H632 H 1.15455 1.04410 0.90974
 O633 O 0.92827 0.89973 0.98048
 O634 O 0.90458 0.87636 0.98075
 C635 C 0.92102 0.88342 0.97362
 C636 C 0.93142 0.87300 0.95668
 C637 C 0.92360 0.85500 0.94889
 H638 H 0.91055 0.84810 0.95607
 O639 O 1.07338 1.10050 0.97945
 O640 O 1.09666 1.12428 0.97918
 C641 C 1.08027 1.11687 0.97236
 C642 C 1.06934 1.12704 0.95565
 C643 C 1.07615 1.14558 0.94804
 H644 H 1.08930 1.15274 0.95470
 O645 O 0.92670 1.01918 0.89857
 O646 O 0.90310 1.01904 0.87490
 C647 C 0.91962 1.02590 0.88201
 C648 C 0.93061 1.04211 0.87128
 C649 C 0.92466 1.04840 0.85185
 H650 H 0.91229 1.04083 0.84424
 O651 O 1.07426 0.98057 0.89925
 O652 O 1.09800 0.98048 0.87564
 C653 C 1.08153 0.97355 0.88289
 C654 C 1.07102 0.95683 0.87247
 C655 C 1.07847 0.94940 0.85400
 H656 H 1.09141 0.95656 0.84690
 O657 O 1.02065 0.90007 0.92694
 O658 O 1.02096 0.87644 0.90356
 C659 C 1.02777 0.88371 0.91999
 C660 C 1.04450 0.87342 0.93087
 C661 C 1.05177 0.85466 0.92429
 H662 H 1.04479 0.84742 0.91140
 O663 O 0.97995 1.09954 0.92618
 O664 O 0.97993 1.12292 0.90250
 C665 C 0.97302 1.11589 0.91900
 C666 C 0.95643 1.12658 0.92970
 C667 C 0.94979 1.14548 0.92295
 H668 H 0.95716 1.15246 0.91008
 O669 O 0.89826 1.07255 0.97958
 O670 O 0.87445 1.09595 0.97925
 C671 C 0.88172 1.07952 0.97256
 C672 C 0.87122 1.06864 0.95605
 C673 C 0.85225 1.07523 0.94883
 H674 H 0.84476 1.08788 0.95599
 O675 O 1.10217 0.92873 0.98019
 O676 O 1.12601 0.90535 0.98035
 C677 C 1.11881 0.92171 0.97343
 C678 C 1.12963 0.93255 0.95712
 C679 C 1.14906 0.92640 0.95081
 H680 H 1.15630 0.91369 0.95811
 O681 O 0.98009 1.07179 0.89876
 O682 O 0.98004 1.09509 0.87499
 C683 C 0.97322 1.07875 0.88222
 C684 C 0.95691 1.06792 0.87148
 C685 C 0.95076 1.07405 0.85213
 H686 H 0.95819 1.08671 0.84498
 O687 O 1.02078 0.92736 0.89908
 O688 O 1.02116 0.90390 0.87554
 C689 C 1.02798 0.92024 0.88273
 C690 C 1.04484 0.93081 0.87233
 C691 C 1.05257 0.92357 0.85388
 H692 H 1.04587 0.91041 0.84699
 O693 O 1.10214 0.98132 0.92684
 O694 O 1.12601 0.98131 0.90336
 C695 C 1.11884 0.97462 0.91991
 C696 C 1.12969 0.95852 0.93099
 C697 C 1.14918 0.95229 0.92495
 H698 H 1.15675 0.95999 0.91263
 O699 O 0.89913 1.01931 0.92659
 O700 O 0.87537 1.01904 0.90309
 C701 C 0.88252 1.02602 0.91948
 C702 C 0.87167 1.04244 0.93013
 C703 C 0.85273 1.04925 0.92314
 H704 H 0.84587 1.04217 0.91008
 O705 O 0.92597 1.10014 0.97919
 O706 O 0.90231 1.12370 0.97891
 C707 C 0.91887 1.11648 0.97212
 C708 C 0.92982 1.12687 0.95554
 C709 C 0.92329 1.14576 0.94849
 H710 H 0.91051 1.15319 0.95567
 O711 O 1.07442 0.90117 0.98013
 O712 O 1.09815 0.87769 0.98028
 C713 C 1.08160 0.88476 0.97334
 C714 C 1.07086 0.87403 0.95691
 C715 C 1.07787 0.85525 0.95014
 H716 H 1.09070 0.84819 0.95759
 O717 O 1.07380 1.01973 0.89867
 O718 O 1.09738 1.01970 0.87491
 C719 C 1.08075 1.02641 0.88205
 C720 C 1.06952 1.04240 0.87120
 C721 C 1.07553 1.04857 0.85178
 H722 H 1.08841 1.04136 0.84454
 O723 O 0.92727 0.98011 0.89906
 O724 O 0.90365 0.97992 0.87542
 C725 C 0.92026 0.97322 0.88258
 C726 C 0.93131 0.95699 0.87188
 C727 C 0.92481 0.95043 0.85280
 H728 H 0.91182 0.95756 0.84571
 O729 O 1.01959 1.09936 0.92635
 O730 O 1.01951 1.12268 0.90260
 C731 C 1.02643 1.11568 0.91912
 C732 C 1.04296 1.12638 0.92970
 C733 C 1.04985 1.14495 0.92243
 H734 H 1.04226 1.15192 0.90967
 O735 O 0.98101 0.89973 0.92653
 O736 O 0.98118 0.87625 0.90302
 C737 C 0.97411 0.88338 0.91942
 C738 C 0.95732 0.87297 0.93009
 C739 C 0.94924 0.85495 0.92249
 H740 H 0.95568 0.84830 0.90896
 O741 O 1.10153 1.07329 0.97963
 O742 O 1.12495 1.09693 0.97943
 C743 C 1.11795 1.08050 0.97261
 C744 C 1.12863 1.06991 0.95595
 C745 C 1.14749 1.07677 0.94877
 H746 H 1.15477 1.08940 0.95608
 O747 O 0.90057 0.92747 0.98039
 O748 O 0.87686 0.90412 0.98073
 C749 C 0.88402 0.92038 0.97364
 C750 C 0.87326 0.93077 0.95697
 C751 C 0.85472 0.92330 0.94981
 H752 H 0.84778 0.91050 0.95721
 Cu753 Cu 1.00083 0.91596 0.91519
 Cu754 Cu 1.00120 0.88778 0.88696
 Cu755 Cu 0.99985 1.08333 0.91482
 Cu756 Cu 0.99975 1.11137 0.88631
 Cu757 Cu 0.91546 0.99972 0.91509
 Cu758 Cu 0.88699 0.99941 0.88680
 Cu759 Cu 1.08558 1.00054 0.91514
 Cu760 Cu 1.11407 1.00049 0.88678
 C761 C 0.94790 0.94735 0.88111
 H762 H 0.95281 0.95219 0.89596
 C763 C 0.93454 0.93433 0.84302
 C764 C 1.05311 1.05215 0.88065
 H765 H 1.04859 1.04767 0.89576
 C766 C 1.06534 1.06431 0.84181
 C767 C 0.88199 0.94748 0.94737
 H768 H 0.89647 0.95312 0.95265
 C769 C 0.84507 0.93205 0.93303
 C770 C 1.11944 1.05338 0.94647
 H771 H 1.10477 1.04817 0.95174
 C772 C 1.15706 1.06741 0.93222
 C773 C 0.94840 0.88175 0.94730
 H774 H 0.95430 0.89581 0.95303
 C775 C 0.93230 0.84592 0.93173
 C776 C 1.05264 1.11764 0.94645
 H777 H 1.04753 1.10318 0.95197
 C778 C 1.06652 1.15460 0.93136
 C779 C 0.94688 1.05183 0.88085
 H780 H 0.95143 1.04722 0.89590
 C781 C 0.93475 1.06434 0.84211
 C782 C 1.05408 0.94755 0.88141
 H783 H 1.04842 0.95302 0.89580
 C784 C 1.06942 0.93273 0.84463
 C785 C 1.05404 0.88289 0.94731
 H786 H 1.04872 0.89750 0.95227
 C787 C 1.06848 0.84547 0.93383
 C788 C 0.94651 1.11750 0.94614
 H789 H 0.95144 1.10281 0.95127
 C790 C 0.93328 1.15521 0.93225
 C791 C 0.88069 1.05210 0.94672
 H792 H 0.89545 1.04709 0.95199
 C793 C 0.84288 1.06561 0.93237
 C794 C 1.12016 0.94872 0.94723
 H795 H 1.10503 0.95333 0.95182
 C796 C 1.15901 0.93623 0.93478
 O797 O 1.02076 0.92862 1.10107
 O798 O 1.02116 0.90529 1.12478
 C799 C 1.02798 0.92158 1.11745
 C800 C 1.04481 0.93223 1.12774
 C801 C 1.05232 0.92535 1.14642
 H802 H 1.04552 0.91234 1.15355
 O803 O 0.97942 1.07361 1.10067
 O804 O 0.97942 1.09722 1.12406
 C805 C 0.97246 1.08087 1.11708
 C806 C 0.95571 1.07037 1.12774
 C807 C 0.94801 1.07759 1.14625
 H808 H 0.95468 1.09078 1.15312
 O809 O 0.89842 1.02086 1.07332
 O810 O 0.87452 1.02070 1.09675
 C811 C 0.88178 1.02770 1.08037
 C812 C 0.87123 1.04435 1.06966
 C813 C 0.85281 1.05232 1.07707
 H814 H 0.84587 1.04592 1.09047
 O815 O 1.10249 0.98181 1.07256
 O816 O 1.12621 0.98199 1.09610
 C817 C 1.11909 0.97505 1.07967
 C818 C 1.12979 0.95860 1.06888
 C819 C 1.14908 0.95193 1.07518
 H820 H 1.15664 0.95939 1.08762
 O821 O 1.07408 0.90151 1.01957
 O822 O 1.09769 0.87790 1.01971
 C823 C 1.08110 0.88508 1.02646
 C824 C 1.06995 0.87442 1.04267
 C825 C 1.07579 0.85499 1.04858
 H826 H 1.08851 0.84775 1.04111
 O827 O 0.92605 1.10046 1.01863
 O828 O 0.90243 1.12406 1.01843
 C829 C 0.91895 1.11692 1.02538
 C830 C 0.92981 1.12747 1.04186
 C831 C 0.92317 1.14637 1.04873
 H832 H 0.91050 1.15375 1.04132
 O833 O 0.92655 0.98166 1.10104
 O834 O 0.90277 0.98135 1.12458
 C835 C 0.91941 0.97464 1.11747
 C836 C 0.93037 0.95815 1.12801
 C837 C 0.92326 0.95052 1.14660
 H838 H 0.90985 0.95701 1.15355
 O839 O 1.07390 1.02064 1.10000
 O840 O 1.09729 1.02088 1.12388
 C841 C 1.08067 1.02748 1.11660
 C842 C 1.06924 1.04354 1.12722
 C843 C 1.07496 1.04980 1.14670
 H844 H 1.08737 1.04227 1.15436
 O845 O 0.98088 0.90087 1.07406
 O846 O 0.98111 0.87754 1.09779
 C847 C 0.97403 0.88455 1.08136
 C848 C 0.95729 0.87399 1.07085
 C849 C 0.94929 0.85598 1.07864
 H850 H 0.95573 0.84944 1.09222
 O851 O 1.01904 1.10050 1.07223
 O852 O 1.01908 1.12418 1.09555
 C853 C 1.02592 1.11695 1.07910
 C854 C 1.04227 1.12760 1.06802
 C855 C 1.04833 1.14690 1.07401
 H856 H 1.04080 1.15415 1.08664
 O857 O 0.90044 0.92766 1.01984
 O858 O 0.87672 0.90431 1.02011
 C859 C 0.88388 0.92070 1.02683
 C860 C 0.87316 0.93149 1.04331
 C861 C 0.85462 0.92421 1.05093
 H862 H 0.84786 0.91089 1.04439
 O863 O 1.10150 1.07356 1.01912
 O864 O 1.12481 1.09730 1.01903
 C865 C 1.11786 1.08092 1.02605
 C866 C 1.12854 1.07061 1.04285
 C867 C 1.14698 1.07813 1.05029
 H868 H 1.15395 1.09097 1.04301
 O869 O 1.01910 1.07278 1.09979
 O870 O 1.01912 1.09632 1.12326
 C871 C 1.02602 1.07989 1.11619
 C872 C 1.04250 1.06913 1.12696
 C873 C 1.04850 1.07525 1.14635
 H874 H 1.04085 1.08782 1.15349
 O875 O 0.98099 0.92921 1.10088
 O876 O 0.98132 0.90595 1.12467
 C877 C 0.97417 0.92220 1.11741
 C878 C 0.95728 0.93267 1.12794
 C879 C 0.95005 0.92541 1.14652
 H880 H 0.95766 0.91283 1.15368
 O881 O 1.10216 1.02104 1.07266
 O882 O 1.12572 1.02135 1.09635
 C883 C 1.11853 1.02814 1.07987
 C884 C 1.12892 1.04481 1.06920
 C885 C 1.14737 1.05257 1.07647
 H886 H 1.15438 1.04601 1.08976
 O887 O 0.89950 0.98161 1.07262
 O888 O 0.87559 0.98136 1.09605
 C889 C 0.88303 0.97456 1.07965
 C890 C 0.87277 0.95786 1.06904
 C891 C 0.85425 0.95038 1.07637
 H892 H 0.84694 0.95760 1.08915
 O893 O 1.07313 1.10062 1.01889
 O894 O 1.09629 1.12451 1.01868
 C895 C 1.07987 1.11718 1.02561
 C896 C 1.06866 1.12774 1.04193
 C897 C 1.07452 1.14705 1.04815
 H898 H 1.08689 1.15461 1.04047
 O899 O 0.92834 0.90009 1.02012
 O900 O 0.90465 0.87672 1.02034
 C901 C 0.92111 0.88389 1.02726
 C902 C 0.93150 0.87368 1.04428
 C903 C 0.92375 0.85571 1.05225
 H904 H 0.91076 0.84869 1.04514
 O905 O 1.07448 0.98153 1.10009
 O906 O 1.09805 0.98170 1.12379
 C907 C 1.08161 0.97474 1.11659
 C908 C 1.07097 0.95824 1.12726
 C909 C 1.07814 0.95125 1.14599
 H910 H 1.09090 0.95867 1.15308
 O911 O 0.92653 1.02086 1.10071
 O912 O 0.90274 1.02063 1.12426
 C913 C 0.91924 1.02763 1.11715
 C914 C 0.92972 1.04422 1.12771
 C915 C 0.92230 1.05154 1.14621
 H916 H 0.90945 1.04423 1.15333
 O917 O 0.97942 1.10020 1.07202
 O918 O 0.97948 1.12391 1.09531
 C919 C 0.97254 1.11667 1.07893
 C920 C 0.95603 1.12727 1.06804
 C921 C 0.94918 1.14612 1.07469
 H922 H 0.95625 1.15305 1.08771
 O923 O 1.02044 0.90146 1.07303
 O924 O 1.02070 0.87794 1.09657
 C925 C 1.02737 0.88502 1.07997
 C926 C 1.04364 0.87433 1.06880
 C927 C 1.04957 0.85482 1.07441
 H928 H 1.04158 0.84720 1.08652
 O929 O 1.10214 0.92875 1.01961
 O930 O 1.12589 0.90528 1.01976
 C931 C 1.11871 0.92170 1.02653
 C932 C 1.12952 0.93253 1.04284
 C933 C 1.14881 0.92612 1.04928
 H934 H 1.15596 0.91333 1.04204
 O935 O 0.89837 1.07294 1.01912
 O936 O 0.87463 1.09640 1.01888
 C937 C 0.88189 1.08017 1.02605
 C938 C 0.87140 1.06996 1.04305
 C939 C 0.85304 1.07765 1.05065
 H940 H 0.84602 1.09049 1.04335
 Cu941 Cu 1.00075 0.91739 1.08491
 Cu942 Cu 1.00114 0.88938 1.11338
 Cu943 Cu 0.99923 1.08439 1.08387
 Cu944 Cu 0.99932 1.11278 1.11189
 Cu945 Cu 0.91682 0.91605 1.00019
 Cu946 Cu 0.88835 0.88800 1.00051
 Cu947 Cu 1.08583 0.91740 0.99986
 Cu948 Cu 1.11431 0.88918 1.00006
 Cu949 Cu 0.91452 1.08418 0.99912
 Cu950 Cu 0.88604 1.11236 0.99883
 Cu951 Cu 1.08507 1.08461 0.99929
 Cu952 Cu 1.11304 1.11313 0.99909
 Cu953 Cu 0.91512 1.00129 1.08458
 Cu954 Cu 0.88649 1.00097 1.11275
 Cu955 Cu 1.08594 1.00125 1.08393
 Cu956 Cu 1.11420 1.00151 1.11240
 C957 C 1.05417 0.94877 1.11836
 H958 H 1.04870 0.95395 1.10380
 C959 C 1.06903 0.93475 1.15565
 C960 C 0.94655 1.05359 1.11873
 H961 H 0.95216 1.04815 1.10432
 C962 C 0.93123 1.06828 1.15556
 C963 C 0.88028 1.05321 1.05254
 H964 H 0.89461 1.04740 1.04692
 C965 C 0.84369 1.06908 1.06771
 C966 C 1.12025 0.94890 1.05259
 H967 H 1.10527 0.95376 1.04782
 C968 C 1.15875 0.93575 1.06537
 C969 C 1.05376 0.88390 1.05276
 H970 H 1.04938 0.89902 1.04846
 C971 C 1.06562 0.84499 1.06434
 C972 C 0.94639 1.11816 1.05149
 H973 H 0.95143 1.10348 1.04647
 C974 C 0.93280 1.15582 1.06514
 C975 C 0.94748 0.94917 1.11891
 H976 H 0.95284 0.95467 1.10442
 C977 C 0.93297 0.93407 1.15590
 C978 C 1.05284 1.05316 1.11759
 H979 H 1.04845 1.04856 1.10250
 C980 C 1.06461 1.06562 1.15641
 C981 C 0.94840 0.88259 1.05356
 H982 H 0.95424 0.89663 1.04768
 C983 C 0.93242 0.84682 1.06950
 C984 C 1.05239 1.11822 1.05184
 H985 H 1.04794 1.10323 1.04730
 C986 C 1.06438 1.15678 1.06413
 C987 C 0.88203 0.94844 1.05237
 H988 H 0.89649 0.95392 1.04684
 C989 C 0.84515 0.93350 1.06753
 C990 C 1.11974 1.05383 1.05228
 H991 H 1.10536 1.04815 1.04679
 C992 C 1.15647 1.06929 1.06714
 O993 O 0.98044 0.42720 0.39806
 O994 O 0.98007 0.40418 0.37409
 C995 C 0.97329 0.42047 0.38155
 C996 C 0.95662 0.43147 0.37122
 C997 C 0.94922 0.42482 0.35246
 H998 H 0.95633 0.41208 0.34508
 O999 O 1.02111 0.57363 0.39970
 O1000 O 1.02126 0.59719 0.37620
 C1001 C 1.02804 0.58069 0.38321
 C1002 C 1.04444 0.56972 0.37247
 C1003 C 1.05174 0.57646 0.35364
 H1004 H 1.04510 0.58966 0.34666
 O1005 O 0.89987 0.48130 0.42674
 O1006 O 0.87603 0.48178 0.40331
 C1007 C 0.88324 0.47468 0.41969
 C1008 C 0.87249 0.45825 0.43042
 C1009 C 0.85331 0.45172 0.42383
 H1010 H 0.84615 0.45900 0.41101
 O1011 O 1.10147 0.51864 0.42647
 O1012 O 1.12504 0.51876 0.40270
 C1013 C 1.11799 0.52547 0.41929
 C1014 C 1.12885 0.54172 0.43001
 C1015 C 1.14768 0.54858 0.42285
 H1016 H 1.15472 0.54129 0.40997
 O1017 O 0.92712 0.39951 0.47935
 O1018 O 0.90315 0.37643 0.47908
 C1019 C 0.91978 0.38336 0.47224
 C1020 C 0.93051 0.37294 0.45551
 C1021 C 0.92344 0.35445 0.44806
 H1022 H 0.91026 0.34744 0.45490
 O1023 O 1.07497 0.59907 0.48066
 O1024 O 1.09894 0.62216 0.48094
 C1025 C 1.08231 0.61543 0.47398
 C1026 C 1.07170 0.62640 0.45755
 C1027 C 1.07904 0.64499 0.45070
 H1028 H 1.09189 0.65180 0.45825
 O1029 O 0.92799 0.52055 0.39935
 O1030 O 0.90437 0.52103 0.37570
 C1031 C 0.92093 0.52770 0.38297
 C1032 C 0.93181 0.54427 0.37259
 C1033 C 0.92523 0.55128 0.35364
 H1034 H 0.91264 0.54396 0.34614
 O1035 O 1.07337 0.47997 0.39837
 O1036 O 1.09695 0.48013 0.37461
 C1037 C 1.08044 0.47329 0.38177
 C1038 C 1.06964 0.45701 0.37101
 C1039 C 1.07666 0.45010 0.35218
 H1040 H 1.08948 0.45743 0.34502
 O1041 O 1.02037 0.39875 0.42470
 O1042 O 1.02001 0.37563 0.40083
 C1043 C 1.02722 0.38246 0.41725
 C1044 C 1.04413 0.37179 0.42755
 C1045 C 1.05171 0.35343 0.42002
 H1046 H 1.04481 0.34667 0.40682
 O1047 O 0.98183 0.60114 0.42789
 O1048 O 0.98170 0.62486 0.40457
 C1049 C 0.97481 0.61756 0.42098
 C1050 C 0.95806 0.62783 0.43191
 C1051 C 0.95044 0.64640 0.42513
 H1052 H 0.95720 0.65354 0.41202
 O1053 O 0.90061 0.57215 0.48069
 O1054 O 0.87698 0.59571 0.48161
 C1055 C 0.88404 0.57955 0.47413
 C1056 C 0.87325 0.56960 0.45724
 C1057 C 0.85474 0.57733 0.45000
 H1058 H 0.84780 0.59009 0.45751
 O1059 O 1.10219 0.42525 0.47820
 O1060 O 1.12588 0.40173 0.47753
 C1061 C 1.11868 0.41827 0.47102
 C1062 C 1.12914 0.42934 0.45457
 C1063 C 1.14801 0.42276 0.44698
 H1064 H 1.15529 0.40965 0.45348
 O1065 O 0.98155 0.57380 0.40008
 O1066 O 0.98155 0.59733 0.37655
 C1067 C 0.97460 0.58095 0.38365
 C1068 C 0.95802 0.57030 0.37294
 C1069 C 0.95121 0.57706 0.35398
 H1070 H 0.95835 0.58997 0.34699
 O1071 O 1.02008 0.42715 0.39790
 O1072 O 1.01977 0.40415 0.37391
 C1073 C 1.02683 0.42033 0.38126
 C1074 C 1.04343 0.43107 0.37072
 C1075 C 1.05071 0.42432 0.35192
 H1076 H 1.04382 0.41136 0.34482
 O1077 O 1.10120 0.47941 0.42614
 O1078 O 1.12479 0.47967 0.40238
 C1079 C 1.11771 0.47262 0.41881
 C1080 C 1.12854 0.45601 0.42913
 C1081 C 1.14741 0.44934 0.42186
 H1082 H 1.15452 0.45712 0.40932
 O1083 O 0.89966 0.52051 0.42662
 O1084 O 0.87592 0.52107 0.40310
 C1085 C 0.88317 0.52768 0.41960
 C1086 C 0.87276 0.54424 0.43051
 C1087 C 0.85424 0.55221 0.42345
 H1088 H 0.84718 0.54587 0.41012
 O1089 O 0.92852 0.59961 0.48111
 O1090 O 0.90491 0.62319 0.48207
 C1091 C 0.92134 0.61620 0.47474
 C1092 C 0.93189 0.62712 0.45822
 C1093 C 0.92452 0.64572 0.45126
 H1094 H 0.91159 0.65262 0.45871
 O1095 O 1.07426 0.39794 0.47759
 O1096 O 1.09783 0.37431 0.47703
 C1097 C 1.08133 0.38169 0.47031
 C1098 C 1.07058 0.37155 0.45351
 C1099 C 1.07789 0.35326 0.44581
 H1100 H 1.09087 0.34608 0.45287
 O1101 O 1.07334 0.51921 0.39909
 O1102 O 1.09690 0.51925 0.37530
 C1103 C 1.08047 0.52619 0.38266
 C1104 C 1.06993 0.54293 0.37227
 C1105 C 1.07692 0.54978 0.35345
 H1106 H 1.08937 0.54203 0.34604
 O1107 O 0.92741 0.48125 0.39868
 O1108 O 0.90371 0.48169 0.37511
 C1109 C 0.92017 0.47455 0.38220
 C1110 C 0.93073 0.45794 0.37149
 C1111 C 0.92355 0.45104 0.35273
 H1112 H 0.91047 0.45821 0.34585
 O1113 O 1.02153 0.60096 0.42754
 O1114 O 1.02159 0.62469 0.40424
 C1115 C 1.02861 0.61730 0.42056
 C1116 C 1.04551 0.62740 0.43133
 C1117 C 1.05319 0.64597 0.42458
 H1118 H 1.04642 0.65325 0.41156
 O1119 O 0.98068 0.39973 0.42587
 O1120 O 0.98026 0.37660 0.40201
 C1121 C 0.97354 0.38358 0.41864
 C1122 C 0.95685 0.37312 0.42936
 C1123 C 0.94962 0.35467 0.42220
 H1124 H 0.95699 0.34759 0.40938
 O1125 O 1.10258 0.57127 0.48004
 O1126 O 1.12667 0.59425 0.48023
 C1127 C 1.11919 0.57815 0.47312
 C1128 C 1.12954 0.56752 0.45631
 C1129 C 1.14841 0.57418 0.44891
 H1130 H 1.15576 0.58698 0.45584
 O1131 O 0.89967 0.42755 0.47966
 O1132 O 0.87556 0.40460 0.47948
 C1133 C 0.88299 0.42089 0.47273
 C1134 C 0.87240 0.43196 0.45632
 C1135 C 0.85323 0.42567 0.44951
 H1136 H 0.84575 0.41317 0.45689
 Cu1137 Cu 1.00045 0.41549 0.41403
 Cu1138 Cu 0.99996 0.38781 0.38532
 Cu1139 Cu 1.00153 0.58506 0.41616
 Cu1140 Cu 1.00151 0.61342 0.38805
 Cu1141 Cu 0.91609 0.50087 0.41519
 Cu1142 Cu 0.88766 0.50142 0.38693
 Cu1143 Cu 1.08496 0.49928 0.41490
 Cu1144 Cu 1.11329 0.49946 0.38636
 C1145 C 0.94738 0.44816 0.38052
 H1146 H 0.95281 0.45320 0.39512
 C1147 C 0.93268 0.43448 0.34310
 C1148 C 1.05355 0.55285 0.38157
 H1149 H 1.04827 0.54775 0.39623
 C1150 C 1.06805 0.56658 0.34406
 C1151 C 0.88181 0.44838 0.44679
 H1152 H 0.89671 0.45314 0.45179
 C1153 C 0.84355 0.43545 0.43328
 C1154 C 1.11999 0.55116 0.44685
 H1155 H 1.10531 0.54611 0.45226
 C1156 C 1.15754 0.56482 0.43213
 C1157 C 0.94734 0.38205 0.44615
 H1158 H 0.95268 0.39645 0.45156
 C1159 C 0.93288 0.34527 0.43135
 C1160 C 1.05481 0.61786 0.44791
 H1161 H 1.04924 0.60340 0.45299
 C1162 C 1.07001 0.65486 0.43417
 C1163 C 0.94834 0.55377 0.38203
 H1164 H 0.95333 0.54864 0.39678
 C1165 C 0.93485 0.56764 0.34420
 C1166 C 1.05288 0.44754 0.38004
 H1167 H 1.04757 0.45262 0.39470
 C1168 C 1.06736 0.43371 0.34255
 C1169 C 1.05360 0.38060 0.44440
 H1170 H 1.04808 0.39487 0.45010
 C1171 C 1.06868 0.34412 0.42902
 C1172 C 0.94879 0.61843 0.44858
 H1173 H 0.95437 0.60396 0.45368
 C1174 C 0.93364 0.65545 0.43469
 C1175 C 0.88201 0.55295 0.44751
 H1176 H 0.89642 0.54711 0.45285
 C1177 C 0.84514 0.56882 0.43307
 C1178 C 1.11962 0.44608 0.44562
 H1179 H 1.10492 0.45104 0.45111
 C1180 C 1.15721 0.43267 0.43055
 O1181 O 1.02126 0.42389 0.59901
 O1182 O 1.02159 0.40016 0.62232
 C1183 C 1.02843 0.41659 0.61528
 C1184 C 1.04513 0.42720 0.62585
 C1185 C 1.05178 0.42083 0.64503
 H1186 H 1.04421 0.40844 0.65251
 O1187 O 0.98309 0.56969 0.60226
 O1188 O 0.98344 0.59277 0.62617
 C1189 C 0.97638 0.57657 0.61892
 C1190 C 0.95980 0.56589 0.62963
 C1191 C 0.95286 0.57260 0.64858
 H1192 H 0.96005 0.58541 0.65565
 O1193 O 0.90188 0.51791 0.57430
 O1194 O 0.87805 0.51796 0.59782
 C1195 C 0.88532 0.52483 0.58138
 C1196 C 0.87462 0.54124 0.57054
 C1197 C 0.85551 0.54801 0.57724
 H1198 H 0.84845 0.54101 0.59027
 O1199 O 1.10354 0.47648 0.57151
 O1200 O 1.12739 0.47588 0.59492
 C1201 C 1.12003 0.46926 0.57848
 C1202 C 1.13035 0.45262 0.56761
 C1203 C 1.14896 0.44478 0.57457
 H1204 H 1.15615 0.45129 0.58775
 O1205 O 1.07413 0.39726 0.51704
 O1206 O 1.09753 0.37346 0.51652
 C1207 C 1.08104 0.38064 0.52355
 C1208 C 1.06993 0.36986 0.53976
 C1209 C 1.07587 0.35046 0.54577
 H1210 H 1.08826 0.34297 0.53799
 O1211 O 0.92923 0.59818 0.52064
 O1212 O 0.90556 0.62170 0.52153
 C1213 C 0.92212 0.61432 0.52810
 C1214 C 0.93283 0.62434 0.54500
 C1215 C 0.92544 0.64258 0.55269
 H1216 H 0.91252 0.64979 0.54556
 O1217 O 0.92901 0.47797 0.60173
 O1218 O 0.90531 0.47785 0.62536
 C1219 C 0.92173 0.47083 0.61804
 C1220 C 0.93225 0.45382 0.62812
 C1221 C 0.92491 0.44580 0.64643
 H1222 H 0.91164 0.45241 0.65354
 O1223 O 1.07608 0.51581 0.59971
 O1224 O 1.09994 0.51529 0.62311
 C1225 C 1.08342 0.52244 0.61618
 C1226 C 1.07294 0.53896 0.62708
 C1227 C 1.08023 0.54571 0.64583
 H1228 H 1.09306 0.53817 0.65279
 O1229 O 0.98084 0.39715 0.57176
 O1230 O 0.98101 0.37327 0.59492
 C1231 C 0.97379 0.38078 0.57876
 C1232 C 0.95666 0.37080 0.56822
 C1233 C 0.94872 0.35250 0.57534
 H1234 H 0.95547 0.34531 0.58843
 O1235 O 1.02239 0.59742 0.57419
 O1236 O 1.02256 0.62070 0.59791
 C1237 C 1.02930 0.61376 0.58129
 C1238 C 1.04562 0.62454 0.57032
 C1239 C 1.05203 0.64360 0.57673
 H1240 H 1.04471 0.65063 0.58961
 O1241 O 0.89982 0.42708 0.51920
 O1242 O 0.87567 0.40418 0.51904
 C1243 C 0.88319 0.42027 0.52613
 C1244 C 0.87287 0.43089 0.54299
 C1245 C 0.85375 0.42452 0.54997
 H1246 H 0.84605 0.41230 0.54237
 O1247 O 1.10268 0.57031 0.51944
 O1248 O 1.12672 0.59333 0.51970
 C1249 C 1.11940 0.57692 0.52629
 C1250 C 1.13023 0.56562 0.54234
 C1251 C 1.14949 0.57183 0.54893
 H1252 H 1.15683 0.58445 0.54160
 O1253 O 1.02278 0.56932 0.60135
 O1254 O 1.02320 0.59245 0.62521
 C1255 C 1.03002 0.57616 0.61775
 C1256 C 1.04685 0.56524 0.62790
 C1257 C 1.05440 0.57178 0.64665
 H1258 H 1.04761 0.58472 0.65397
 O1259 O 0.98162 0.42440 0.59966
 O1260 O 0.98188 0.40061 0.62291
 C1261 C 0.97491 0.41712 0.61613
 C1262 C 0.95837 0.42762 0.62714
 C1263 C 0.95095 0.41995 0.64549
 H1264 H 0.95820 0.40692 0.65219
 O1265 O 1.10338 0.51576 0.57143
 O1266 O 1.12735 0.51521 0.59472
 C1267 C 1.12002 0.52237 0.57843
 C1268 C 1.13062 0.53892 0.56778
 C1269 C 1.14986 0.54541 0.57422
 H1270 H 1.15721 0.53798 0.58684
 O1271 O 0.90136 0.47881 0.57391
 O1272 O 0.87753 0.47883 0.59743
 C1273 C 0.88466 0.47215 0.58085
 C1274 C 0.87365 0.45622 0.56975
 C1275 C 0.85456 0.44962 0.57651
 H1276 H 0.84774 0.45645 0.58976
 O1277 O 1.07529 0.59840 0.52015
 O1278 O 1.09917 0.62158 0.52047
 C1279 C 1.08258 0.61455 0.52731
 C1280 C 1.07178 0.62493 0.54400
 C1281 C 1.07802 0.64398 0.55066
 H1282 H 1.09045 0.65153 0.54305
 O1283 O 0.92714 0.39900 0.51886
 O1284 O 0.90310 0.37598 0.51865
 C1285 C 0.91973 0.38271 0.52564
 C1286 C 0.93024 0.37182 0.54221
 C1287 C 0.92259 0.35352 0.54950
 H1288 H 0.90948 0.34684 0.54227
 O1289 O 1.07527 0.47659 0.59885
 O1290 O 1.09901 0.47607 0.62238
 C1291 C 1.08237 0.46950 0.61523
 C1292 C 1.07137 0.45317 0.62582
 C1293 C 1.07775 0.44662 0.64498
 H1294 H 1.09060 0.45380 0.65218
 O1295 O 0.92943 0.51723 0.60231
 O1296 O 0.90576 0.51723 0.62597
 C1297 C 0.92235 0.52398 0.61887
 C1298 C 0.93329 0.54023 0.62960
 C1299 C 0.92653 0.54717 0.64854
 H1300 H 0.91369 0.54000 0.65582
 O1301 O 0.98275 0.59719 0.57449
 O1302 O 0.98285 0.62040 0.59828
 C1303 C 0.97578 0.61345 0.58182
 C1304 C 0.95895 0.62401 0.57131
 C1305 C 0.95127 0.64231 0.57880
 H1306 H 0.95798 0.64905 0.59212
 O1307 O 1.02054 0.39699 0.57066
 O1308 O 1.02076 0.37309 0.59379
 C1309 C 1.02743 0.38041 0.57730
 C1310 C 1.04363 0.36977 0.56596
 C1311 C 1.04977 0.35038 0.57172
 H1312 H 1.04233 0.34303 0.58434
 O1313 O 1.10240 0.42426 0.51766
 O1314 O 1.12595 0.40061 0.51708
 C1315 C 1.11890 0.41686 0.52437
 C1316 C 1.12970 0.42696 0.54117
 C1317 C 1.14829 0.41937 0.54832
 H1318 H 1.15523 0.40657 0.54088
 O1319 O 0.90118 0.57098 0.52028
 O1320 O 0.87745 0.59445 0.52111
 C1321 C 0.88474 0.57795 0.52759
 C1322 C 0.87429 0.56708 0.54418
 C1323 C 0.85519 0.57360 0.55112
 H1324 H 0.84764 0.58605 0.54365
 Cu1325 Cu 1.00106 0.41297 0.58295
 Cu1326 Cu 1.00139 0.38438 0.61081
 Cu1327 Cu 1.00273 0.58108 0.58571
 Cu1328 Cu 1.00306 0.60890 0.61429
 Cu1329 Cu 0.91584 0.41558 0.49927
 Cu1330 Cu 0.88695 0.38799 0.49903
 Cu1331 Cu 1.08591 0.41355 0.49769
 Cu1332 Cu 1.11417 0.38515 0.49700
 Cu1333 Cu 0.91724 0.58286 0.50054
 Cu1334 Cu 0.88886 0.61112 0.50169
 Cu1335 Cu 1.08647 0.58247 0.50006
 Cu1336 Cu 1.11528 0.61016 0.50039
 Cu1337 Cu 0.91784 0.49799 0.58576
 Cu1338 Cu 0.88929 0.49799 0.61404
 Cu1339 Cu 1.08721 0.49621 0.58302
 Cu1340 Cu 1.11581 0.49556 0.61113
 C1341 C 1.05493 0.44349 0.61647
 H1342 H 1.05007 0.44834 0.60158
 C1343 C 1.06801 0.43054 0.65476
 C1344 C 0.95005 0.54957 0.62039
 H1345 H 0.95514 0.54451 0.60565
 C1346 C 0.93625 0.56334 0.65817
 C1347 C 0.88380 0.55076 0.55387
 H1348 H 0.89866 0.54583 0.54878
 C1349 C 0.84569 0.56417 0.56763
 C1350 C 1.12096 0.44369 0.55079
 H1351 H 1.10648 0.44944 0.54552
 C1352 C 1.15802 0.42810 0.56504
 C1353 C 1.05366 0.37930 0.54983
 H1354 H 1.04915 0.39437 0.54547
 C1355 C 1.06581 0.34058 0.56169
 C1356 C 0.94971 0.61524 0.55429
 H1357 H 0.95529 0.60099 0.54861
 C1358 C 0.93442 0.65160 0.56963
 C1359 C 0.94908 0.44469 0.61871
 H1360 H 0.95459 0.45053 0.60442
 C1361 C 0.93413 0.42879 0.65519
 C1362 C 1.05613 0.54871 0.61833
 H1363 H 1.05060 0.54375 0.60375
 C1364 C 1.07111 0.56212 0.65572
 C1365 C 0.94739 0.38023 0.55155
 H1366 H 0.95319 0.39448 0.54616
 C1367 C 0.93162 0.34377 0.56612
 C1368 C 1.05545 0.61543 0.55382
 H1369 H 1.05073 0.60063 0.54895
 C1370 C 1.06815 0.65348 0.56696
 C1371 C 0.88259 0.44689 0.55287
 H1372 H 0.89745 0.45171 0.54776
 C1373 C 0.84447 0.43380 0.56672
 C1374 C 1.12102 0.54902 0.55172
 H1375 H 1.10605 0.54431 0.54688
 C1376 C 1.15942 0.56186 0.56487
 O1377 O 0.48174 0.92704 0.40018
 O1378 O 0.48174 0.90375 0.37647
 C1379 C 0.47464 0.91999 0.38380
 C1380 C 0.45762 0.93052 0.37351
 C1381 C 0.45024 0.92354 0.35485
 H1382 H 0.45730 0.91066 0.34767
 O1383 O 0.52001 1.07140 0.39836
 O1384 O 0.51955 1.09457 0.37447
 C1385 C 0.52666 1.07831 0.38171
 C1386 C 0.54316 1.06751 0.37100
 C1387 C 0.54954 1.07363 0.35167
 H1388 H 0.54173 1.08586 0.34411
 O1389 O 0.39780 0.97953 0.42728
 O1390 O 0.37421 0.97953 0.40362
 C1391 C 0.38138 0.97254 0.42002
 C1392 C 0.37109 0.95564 0.43045
 C1393 C 0.35268 0.94774 0.42311
 H1394 H 0.34549 0.95448 0.41002
 O1395 O 0.60134 1.01956 0.42683
 O1396 O 0.62519 1.01990 0.40334
 C1397 C 0.61779 1.02664 0.41979
 C1398 C 0.62823 1.04310 0.43067
 C1399 C 0.64747 1.04961 0.42432
 H1400 H 0.65481 1.04233 0.41159
 O1401 O 0.42779 0.89899 0.47973
 O1402 O 0.40456 0.87516 0.47984
 C1403 C 0.42100 0.88247 0.47295
 C1404 C 0.43214 0.87199 0.45657
 C1405 C 0.42543 0.85334 0.44922
 H1406 H 0.41215 0.84634 0.45585
 O1407 O 0.57259 1.10056 0.47976
 O1408 O 0.59615 1.12406 0.47963
 C1409 C 0.57977 1.11680 0.47263
 C1410 C 0.56940 1.12693 0.45553
 C1411 C 0.57699 1.14501 0.44765
 H1412 H 0.58984 1.15218 0.45487
 O1413 O 0.42599 1.01881 0.39993
 O1414 O 0.40257 1.01872 0.37610
 C1415 C 0.41903 1.02558 0.38333
 C1416 C 0.42999 1.04184 0.37255
 C1417 C 0.42343 1.04840 0.35342
 H1418 H 0.41040 1.04134 0.34642
 O1419 O 0.57463 0.97996 0.39890
 O1420 O 0.59825 0.98022 0.37517
 C1421 C 0.58179 0.97324 0.38236
 C1422 C 0.57094 0.95688 0.37174
 C1423 C 0.57719 0.95030 0.35248
 H1424 H 0.58969 0.95776 0.34491
 O1425 O 0.52210 0.89967 0.42722
 O1426 O 0.52233 0.87628 0.40360
 C1427 C 0.52931 0.88345 0.42000
 C1428 C 0.54635 0.87323 0.43057
 C1429 C 0.55397 0.85467 0.42366
 H1430 H 0.54704 0.84744 0.41072
 O1431 O 0.48080 1.09884 0.42667
 O1432 O 0.48038 1.12229 0.40307
 C1433 C 0.47382 1.11524 0.41972
 C1434 C 0.45770 1.12602 0.43098
 C1435 C 0.45162 1.14536 0.42504
 H1436 H 0.45897 1.15252 0.41226
 O1437 O 0.39973 1.07200 0.48053
 O1438 O 0.37609 1.09558 0.48059
 C1439 C 0.38319 1.07919 0.47368
 C1440 C 0.37234 1.06873 0.45718
 C1441 C 0.35369 1.07615 0.45013
 H1442 H 0.34676 1.08896 0.45755
 O1443 O 0.60396 0.92814 0.48022
 O1444 O 0.62793 0.90490 0.48024
 C1445 C 0.62056 0.92117 0.47329
 C1446 C 0.63099 0.93181 0.45657
 C1447 C 0.64981 0.92497 0.44915
 H1448 H 0.65706 0.91205 0.45608
 O1449 O 0.48034 1.07145 0.39888
 O1450 O 0.47985 1.09472 0.37510
 C1451 C 0.47311 1.07840 0.38247
 C1452 C 0.45641 1.06761 0.37212
 C1453 C 0.44970 1.07385 0.35295
 H1454 H 0.45740 1.08608 0.34532
 O1455 O 0.52144 0.92718 0.39948
 O1456 O 0.52144 0.90391 0.37574
 C1457 C 0.52826 0.92026 0.38288
 C1458 C 0.54461 0.93107 0.37205
 C1459 C 0.55107 0.92467 0.35287
 H1460 H 0.54376 0.91188 0.34586
 O1461 O 0.60259 0.98038 0.42650
 O1462 O 0.62634 0.98068 0.40291
 C1463 C 0.61928 0.97377 0.41940
 C1464 C 0.63027 0.95753 0.43017
 C1465 C 0.64911 0.95054 0.42300
 H1466 H 0.65611 0.95776 0.41006
 O1467 O 0.39823 1.01885 0.42777
 O1468 O 0.37466 1.01901 0.40408
 C1469 C 0.38182 1.02590 0.42053
 C1470 C 0.37148 1.04271 0.43112
 C1471 C 0.35282 1.05047 0.42414
 H1472 H 0.34554 1.04380 0.41110
 O1473 O 0.42773 1.09935 0.48070
 O1474 O 0.40416 1.12300 0.48070
 C1475 C 0.42071 1.11580 0.47385
 C1476 C 0.43172 1.12635 0.45745
 C1477 C 0.42582 1.14572 0.45129
 H1478 H 0.41356 1.15337 0.45912
 O1479 O 0.57612 0.90079 0.48005
 O1480 O 0.59998 0.87743 0.48010
 C1481 C 0.58342 0.88449 0.47314
 C1482 C 0.57281 0.87388 0.45655
 C1483 C 0.58018 0.85539 0.44942
 H1484 H 0.59318 0.84846 0.45669
 O1485 O 0.57406 1.01904 0.39863
 O1486 O 0.59775 1.01935 0.37497
 C1487 C 0.58104 1.02588 0.38207
 C1488 C 0.56979 1.04186 0.37122
 C1489 C 0.57597 1.04815 0.35189
 H1490 H 0.58892 1.04101 0.34471
 O1491 O 0.42682 0.97965 0.40082
 O1492 O 0.40337 0.97949 0.37701
 C1493 C 0.41991 0.97270 0.38435
 C1494 C 0.43090 0.95623 0.37388
 C1495 C 0.42381 0.94901 0.35527
 H1496 H 0.41080 0.95610 0.34817
 O1497 O 0.52033 1.09938 0.42556
 O1498 O 0.51998 1.12267 0.40180
 C1499 C 0.52711 1.11572 0.41824
 C1500 C 0.54377 1.12639 0.42878
 C1501 C 0.55160 1.14452 0.42110
 H1502 H 0.54514 1.15104 0.40752
 O1503 O 0.48239 0.89918 0.42754
 O1504 O 0.48259 0.87579 0.40392
 C1505 C 0.47563 0.88280 0.42041
 C1506 C 0.45901 0.87215 0.43101
 C1507 C 0.45218 0.85348 0.42396
 H1508 H 0.45993 0.84632 0.41140
 O1509 O 0.60063 1.07317 0.48000
 O1510 O 0.62430 1.09658 0.47987
 C1511 C 0.61719 1.08017 0.47306
 C1512 C 0.62799 1.06931 0.45662
 C1513 C 0.64725 1.07565 0.44996
 H1514 H 0.65465 1.08817 0.45735
 O1515 O 0.39941 0.92615 0.47961
 O1516 O 0.37610 0.90240 0.47975
 C1517 C 0.38297 0.91884 0.47279
 C1518 C 0.37205 0.92928 0.45623
 C1519 C 0.35369 0.92163 0.44873
 H1520 H 0.34697 0.90853 0.45579
 Cu1521 Cu 0.50193 0.91559 0.41598
 Cu1522 Cu 0.50204 0.88759 0.38756
 Cu1523 Cu 0.50043 1.08292 0.41472
 Cu1524 Cu 0.49985 1.11089 0.38620
 Cu1525 Cu 0.41448 0.99924 0.41638
 Cu1526 Cu 0.38634 0.99918 0.38782
 Cu1527 Cu 0.58578 0.99968 0.41507
 Cu1528 Cu 0.61431 1.00009 0.38676
 C1529 C 0.44793 0.94699 0.38283
 H1530 H 0.45332 0.95229 0.39735
 C1531 C 0.43328 0.93265 0.34570
 C1532 C 0.55325 1.05149 0.38055
 H1533 H 0.54859 1.04687 0.39558
 C1534 C 0.56592 1.06399 0.34198
 C1535 C 0.38049 0.94639 0.44712
 H1536 H 0.39482 0.95216 0.45266
 C1537 C 0.34392 0.93065 0.43213
 C1538 C 0.61869 1.05291 0.44697
 H1539 H 0.60374 1.04809 0.45180
 C1540 C 0.65714 1.06579 0.43389
 C1541 C 0.44905 0.88117 0.44746
 H1542 H 0.45410 0.89571 0.45278
 C1543 C 0.43534 0.84401 0.43286
 C1544 C 0.55268 1.11784 0.44610
 H1545 H 0.54696 1.10373 0.45193
 C1546 C 0.56830 1.15387 0.43038
 C1547 C 0.44659 1.05146 0.38171
 H1548 H 0.45155 1.04669 0.39659
 C1549 C 0.43321 1.06436 0.34345
 C1550 C 0.55451 0.94729 0.38126
 H1551 H 0.54974 0.95210 0.39619
 C1552 C 0.56725 0.93422 0.34287
 C1553 C 0.55579 0.88260 0.44714
 H1554 H 0.55022 0.89701 0.45239
 C1555 C 0.57094 0.84570 0.43297
 C1556 C 0.44782 1.11672 0.44732
 H1557 H 0.45229 1.10169 0.45181
 C1558 C 0.43577 1.15537 0.43515
 C1559 C 0.38101 1.05189 0.44774
 H1560 H 0.39554 1.04627 0.45300
 C1561 C 0.34387 1.06729 0.43355
 C1562 C 0.62146 0.94822 0.44708
 H1563 H 0.60679 0.95336 0.45250
 C1564 C 0.65896 0.93421 0.43233
 O1565 O 0.52130 0.92723 0.59942
 O1566 O 0.52156 0.90385 0.62309
 C1567 C 0.52828 0.92027 0.61592
 C1568 C 0.54461 0.93115 0.62671
 C1569 C 0.55097 0.92469 0.64590
 H1570 H 0.54365 0.91190 0.65293
 O1571 O 0.48049 1.07139 0.60118
 O1572 O 0.48005 1.09462 0.62495
 C1573 C 0.47331 1.07828 0.61762
 C1574 C 0.45657 1.06745 0.62794
 C1575 C 0.44901 1.07422 0.64664
 H1576 H 0.45605 1.08694 0.65403
 O1577 O 0.39907 1.01820 0.57254
 O1578 O 0.37534 1.01806 0.59614
 C1579 C 0.38254 1.02505 0.57973
 C1580 C 0.37203 1.04175 0.56917
 C1581 C 0.35337 1.04923 0.57637
 H1582 H 0.34628 1.04238 0.58946
 O1583 O 0.60280 0.98109 0.57302
 O1584 O 0.62652 0.98118 0.59656
 C1585 C 0.61944 0.97434 0.58009
 C1586 C 0.63036 0.95805 0.56930
 C1587 C 0.64945 0.95136 0.57606
 H1588 H 0.65643 0.95847 0.58903
 O1589 O 0.57604 0.90049 0.51947
 O1590 O 0.59985 0.87708 0.51955
 C1591 C 0.58317 0.88408 0.52630
 C1592 C 0.57212 0.87329 0.54252
 C1593 C 0.57875 0.85432 0.54916
 H1594 H 0.59188 0.84736 0.54213
 O1595 O 0.42740 1.09935 0.52023
 O1596 O 0.40372 1.12289 0.52013
 C1597 C 0.42017 1.11571 0.52713
 C1598 C 0.43066 1.12621 0.54384
 C1599 C 0.42345 1.14485 0.55076
 H1600 H 0.41083 1.15202 0.54308
 O1601 O 0.42731 0.97912 0.59996
 O1602 O 0.40379 0.97889 0.62378
 C1603 C 0.42040 0.97223 0.61651
 C1604 C 0.43164 0.95607 0.62713
 C1605 C 0.42553 0.94958 0.64643
 H1606 H 0.41263 0.95667 0.65375
 O1607 O 0.57437 1.01992 0.60096
 O1608 O 0.59804 1.01991 0.62455
 C1609 C 0.58147 1.02674 0.61744
 C1610 C 0.57072 1.04324 0.62810
 C1611 C 0.57839 1.05087 0.64634
 H1612 H 0.59160 1.04390 0.65319
 O1613 O 0.48180 0.89920 0.57211
 O1614 O 0.48203 0.87580 0.59576
 C1615 C 0.47494 0.88287 0.57935
 C1616 C 0.45814 0.87239 0.56886
 C1617 C 0.45052 0.85410 0.57635
 H1618 H 0.45733 0.84730 0.58962
 O1619 O 0.51980 1.09941 0.57353
 O1620 O 0.51943 1.12283 0.59712
 C1621 C 0.52644 1.11586 0.58059
 C1622 C 0.54277 1.12673 0.56969
 C1623 C 0.54947 1.14551 0.57659
 H1624 H 0.54234 1.15226 0.58973
 O1625 O 0.39967 0.92641 0.51909
 O1626 O 0.37631 0.90271 0.51924
 C1627 C 0.38328 0.91914 0.52609
 C1628 C 0.37260 0.92954 0.54283
 C1629 C 0.35416 0.92205 0.55032
 H1630 H 0.34716 0.90926 0.54301
 O1631 O 0.60040 1.07315 0.51949
 O1632 O 0.62392 1.09669 0.51933
 C1633 C 0.61688 1.08033 0.52633
 C1634 C 0.62772 1.06993 0.54296
 C1635 C 0.64634 1.07737 0.54994
 H1636 H 0.65324 1.09008 0.54236
 O1637 O 0.52023 1.07238 0.60177
 O1638 O 0.51992 1.09564 0.62550
 C1639 C 0.52715 1.07946 0.61822
 C1640 C 0.54420 1.06907 0.62856
 C1641 C 0.55217 1.07654 0.64680
 H1642 H 0.54544 1.08974 0.65371
 O1643 O 0.48167 0.92678 0.59972
 O1644 O 0.48198 0.90345 0.62346
 C1645 C 0.47489 0.91974 0.61628
 C1646 C 0.45830 0.93040 0.62701
 C1647 C 0.45198 0.92412 0.64630
 H1648 H 0.45985 0.91186 0.65376
 O1649 O 0.60206 1.02031 0.57309
 O1650 O 0.62585 1.02051 0.59656
 C1651 C 0.61848 1.02740 0.58017
 C1652 C 0.62865 1.04418 0.56939
 C1653 C 0.64727 1.05198 0.57627
 H1654 H 0.65459 1.04543 0.58939
 O1655 O 0.39911 0.97894 0.57265
 O1656 O 0.37545 0.97870 0.59632
 C1657 C 0.38268 0.97190 0.57984
 C1658 C 0.37226 0.95527 0.56920
 C1659 C 0.35384 0.94744 0.57658
 H1660 H 0.34690 0.95393 0.58995
 O1661 O 0.57264 1.10085 0.51944
 O1662 O 0.59607 1.12447 0.51935
 C1663 C 0.57966 1.11721 0.52640
 C1664 C 0.56887 1.12747 0.54325
 C1665 C 0.57548 1.14622 0.55053
 H1666 H 0.58814 1.15372 0.54328
 O1667 O 0.42786 0.89920 0.51917
 O1668 O 0.40456 0.87544 0.51929
 C1669 C 0.42096 0.88279 0.52616
 C1670 C 0.43176 0.87244 0.54285
 C1671 C 0.42443 0.85417 0.55050
 H1672 H 0.41142 0.84713 0.54345
 O1673 O 0.57462 0.98070 0.60043
 O1674 O 0.59816 0.98060 0.62414
 C1675 C 0.58170 0.97372 0.61686
 C1676 C 0.57083 0.95714 0.62724
 C1677 C 0.57705 0.95036 0.64643
 H1678 H 0.58954 0.95771 0.65407
 O1679 O 0.42691 1.01824 0.60017
 O1680 O 0.40328 1.01803 0.62389
 C1681 C 0.41977 1.02497 0.61671
 C1682 C 0.43045 1.04137 0.62745
 C1683 C 0.42319 1.04831 0.64618
 H1684 H 0.40999 1.04133 0.65299
 O1685 O 0.48022 1.09965 0.57421
 O1686 O 0.47978 1.12301 0.59785
 C1687 C 0.47303 1.11593 0.58134
 C1688 C 0.45637 1.12637 0.57047
 C1689 C 0.44885 1.14500 0.57729
 H1690 H 0.45552 1.15202 0.59048
 O1691 O 0.52153 0.89951 0.57193
 O1692 O 0.52178 0.87601 0.59548
 C1693 C 0.52864 0.88320 0.57902
 C1694 C 0.54542 0.87284 0.56828
 C1695 C 0.55226 0.85387 0.57472
 H1696 H 0.54461 0.84635 0.58710
 O1697 O 0.60368 0.92818 0.51971
 O1698 O 0.62763 0.90493 0.51980
 C1699 C 0.62026 0.92123 0.52668
 C1700 C 0.63075 0.93200 0.54325
 C1701 C 0.64985 0.92551 0.55023
 H1702 H 0.65739 0.91300 0.54287
 O1703 O 0.39977 1.07171 0.51996
 O1704 O 0.37604 1.09520 0.52000
 C1705 C 0.38320 1.07878 0.52684
 C1706 C 0.37246 1.06807 0.54333
 C1707 C 0.35381 1.07530 0.55071
 H1708 H 0.34677 1.08825 0.54363
 Cu1709 Cu 0.50154 0.91550 0.58340
 Cu1710 Cu 0.50190 0.88741 0.61181
 Cu1711 Cu 0.50022 1.08336 0.58535
 Cu1712 Cu 0.49977 1.11133 0.61376
 Cu1713 Cu 0.41601 0.91507 0.49934
 Cu1714 Cu 0.38803 0.88655 0.49954
 Cu1715 Cu 0.58759 0.91676 0.49989
 Cu1716 Cu 0.61626 0.88874 0.49996
 Cu1717 Cu 0.41605 1.08326 0.50034
 Cu1718 Cu 0.38762 1.11153 0.50034
 Cu1719 Cu 0.58417 1.08463 0.49969
 Cu1720 Cu 0.61244 1.11283 0.49954
 Cu1721 Cu 0.41543 0.99862 0.58392
 Cu1722 Cu 0.38706 0.99839 0.61239
 Cu1723 Cu 0.58612 1.00049 0.58452
 Cu1724 Cu 0.61452 1.00053 0.61282
 C1725 C 0.55448 0.94752 0.61760
 H1726 H 0.54976 0.95244 0.60269
 C1727 C 0.56709 0.93421 0.65591
 C1728 C 0.44728 1.05090 0.61856
 H1729 H 0.45277 1.04579 0.60398
 C1730 C 0.43233 1.06473 0.65586
 C1731 C 0.38133 1.05117 0.55253
 H1732 H 0.39588 1.04570 0.54710
 C1733 C 0.34421 1.06606 0.56727
 C1734 C 0.62124 0.94840 0.55276
 H1735 H 0.60639 0.95331 0.54766
 C1736 C 0.65935 0.93512 0.56662
 C1737 C 0.55533 0.88232 0.55205
 H1738 H 0.55031 0.89708 0.54719
 C1739 C 0.56890 0.84449 0.56523
 C1740 C 0.44724 1.11720 0.55365
 H1741 H 0.45270 1.10270 0.54852
 C1742 C 0.43233 1.15433 0.56753
 C1743 C 0.44815 0.94650 0.61764
 H1744 H 0.45279 0.95126 0.60265
 C1745 C 0.43564 0.93365 0.65615
 C1746 C 0.55350 1.05231 0.61945
 H1747 H 0.54770 1.04668 0.60521
 C1748 C 0.56936 1.06760 0.65573
 C1749 C 0.44875 0.88134 0.55200
 H1750 H 0.45429 0.89559 0.54635
 C1751 C 0.43358 0.84496 0.56732
 C1752 C 0.55240 1.11796 0.55287
 H1753 H 0.54743 1.10338 0.54761
 C1754 C 0.56576 1.15538 0.56714
 C1755 C 0.38141 0.94629 0.55222
 H1756 H 0.39580 0.95198 0.54668
 C1757 C 0.34472 0.93076 0.56728
 C1758 C 0.61908 1.05322 0.55264
 H1759 H 0.60457 1.04758 0.54745
 C1760 C 0.65616 1.06867 0.56665
 O1761 O 0.47938 0.43007 0.89878
 O1762 O 0.47956 0.40662 0.87523
 C1763 C 0.47249 0.42294 0.88235
 C1764 C 0.45573 0.43353 0.87182
 C1765 C 0.44846 0.42668 0.85307
 H1766 H 0.45546 0.41371 0.84599
 O1767 O 0.51751 0.57543 0.90035
 O1768 O 0.51705 0.59908 0.87695
 C1769 C 0.52420 0.58270 0.88387
 C1770 C 0.54072 0.57213 0.87292
 C1771 C 0.54746 0.57896 0.85395
 H1772 H 0.54029 0.59195 0.84707
 O1773 O 0.39785 0.48215 0.92743
 O1774 O 0.37413 0.48208 0.90388
 C1775 C 0.38137 0.47525 0.92034
 C1776 C 0.37075 0.45884 0.93115
 C1777 C 0.35162 0.45229 0.92459
 H1778 H 0.34448 0.45951 0.91172
 O1779 O 0.59849 0.52298 0.92693
 O1780 O 0.62246 0.52350 0.90358
 C1781 C 0.61499 0.53014 0.92003
 C1782 C 0.62541 0.54656 0.93106
 C1783 C 0.64452 0.55342 0.92460
 H1784 H 0.65178 0.54648 0.91164
 O1785 O 0.42616 0.40175 0.98058
 O1786 O 0.40276 0.37809 0.98026
 C1787 C 0.41925 0.38541 0.97350
 C1788 C 0.43025 0.37509 0.95694
 C1789 C 0.42375 0.35623 0.95008
 H1790 H 0.41081 0.34908 0.95721
 O1791 O 0.57041 0.60328 0.98151
 O1792 O 0.59379 0.62695 0.98175
 C1793 C 0.57737 0.61977 0.97475
 C1794 C 0.56646 0.63032 0.95824
 C1795 C 0.57289 0.64928 0.95136
 H1796 H 0.58549 0.65669 0.95875
 O1797 O 0.42511 0.52167 0.89980
 O1798 O 0.40163 0.52157 0.87601
 C1799 C 0.41804 0.52850 0.88329
 C1800 C 0.42886 0.54495 0.87276
 C1801 C 0.42282 0.55130 0.85340
 H1802 H 0.41055 0.54362 0.84573
 O1803 O 0.57207 0.48324 0.89863
 O1804 O 0.59598 0.48362 0.87522
 C1805 C 0.57958 0.47639 0.88228
 C1806 C 0.56940 0.45942 0.87187
 C1807 C 0.57748 0.45114 0.85395
 H1808 H 0.59100 0.45758 0.84722
 O1809 O 0.51906 0.40302 0.92689
 O1810 O 0.51923 0.37937 0.90353
 C1811 C 0.52605 0.38661 0.91996
 C1812 C 0.54259 0.37609 0.93086
 C1813 C 0.54932 0.35715 0.92436
 H1814 H 0.54205 0.35001 0.91156
 O1815 O 0.47758 0.60186 0.92881
 O1816 O 0.47707 0.62568 0.90558
 C1817 C 0.47038 0.61825 0.92201
 C1818 C 0.45383 0.62857 0.93315
 C1819 C 0.44759 0.64794 0.92746
 H1820 H 0.45514 0.65546 0.91501
 O1821 O 0.39515 0.57334 0.98111
 O1822 O 0.37124 0.59664 0.98111
 C1823 C 0.37867 0.58045 0.97405
 C1824 C 0.36844 0.57002 0.95710
 C1825 C 0.34974 0.57699 0.94946
 H1826 H 0.34246 0.58993 0.95630
 O1827 O 0.59991 0.43085 0.98051
 O1828 O 0.62403 0.40777 0.98027
 C1829 C 0.61659 0.42409 0.97355
 C1830 C 0.62713 0.43508 0.95712
 C1831 C 0.64632 0.42872 0.95025
 H1832 H 0.65385 0.41618 0.95758
 O1833 O 0.47796 0.57502 0.90046
 O1834 O 0.47748 0.59869 0.87707
 C1835 C 0.47094 0.58212 0.88404
 C1836 C 0.45478 0.57115 0.87316
 C1837 C 0.44858 0.57729 0.85380
 H1838 H 0.45588 0.59002 0.84665
 O1839 O 0.51911 0.43025 0.89891
 O1840 O 0.51935 0.40669 0.87547
 C1841 C 0.52626 0.42303 0.88258
 C1842 C 0.54324 0.43336 0.87215
 C1843 C 0.55150 0.42536 0.85430
 H1844 H 0.54467 0.41218 0.84756
 O1845 O 0.59913 0.48384 0.92703
 O1846 O 0.62318 0.48433 0.90374
 C1847 C 0.61594 0.47735 0.92014
 C1848 C 0.62685 0.46117 0.93107
 C1849 C 0.64605 0.45464 0.92445
 H1850 H 0.65315 0.46180 0.91153
 O1851 O 0.39696 0.52130 0.92725
 O1852 O 0.37339 0.52122 0.90356
 C1853 C 0.38037 0.52803 0.92009
 C1854 C 0.36936 0.54430 0.93077
 C1855 C 0.35062 0.55132 0.92347
 H1856 H 0.34370 0.54401 0.91058
 O1857 O 0.42313 0.60063 0.98179
 O1858 O 0.39936 0.62409 0.98188
 C1859 C 0.41606 0.61712 0.97510
 C1860 C 0.42723 0.62805 0.95903
 C1861 C 0.42118 0.64744 0.95309
 H1862 H 0.40865 0.65479 0.96079
 O1863 O 0.57259 0.40289 0.98033
 O1864 O 0.59657 0.37966 0.98002
 C1865 C 0.57991 0.38666 0.97327
 C1866 C 0.56908 0.37612 0.95677
 C1867 C 0.57570 0.35720 0.94995
 H1868 H 0.58848 0.34988 0.95722
 O1869 O 0.57081 0.52250 0.89912
 O1870 O 0.59463 0.52302 0.87560
 C1871 C 0.57794 0.52959 0.88275
 C1872 C 0.56696 0.54605 0.87234
 C1873 C 0.57348 0.55306 0.85338
 H1874 H 0.58609 0.54570 0.84583
 O1875 O 0.42542 0.48251 0.89939
 O1876 O 0.40179 0.48242 0.87576
 C1877 C 0.41839 0.47569 0.88288
 C1878 C 0.42932 0.45941 0.87214
 C1879 C 0.42237 0.45249 0.85335
 H1880 H 0.40957 0.45987 0.84619
 O1881 O 0.51722 0.60277 0.92825
 O1882 O 0.51671 0.62653 0.90496
 C1883 C 0.52381 0.61933 0.92130
 C1884 C 0.54020 0.63006 0.93213
 C1885 C 0.54680 0.64899 0.92548
 H1886 H 0.53957 0.65596 0.91252
 O1887 O 0.47948 0.40263 0.92665
 O1888 O 0.47967 0.37906 0.90320
 C1889 C 0.47272 0.38617 0.91966
 C1890 C 0.45632 0.37545 0.93058
 C1891 C 0.44966 0.35651 0.92397
 H1892 H 0.45716 0.34931 0.91129
 O1893 O 0.59807 0.57553 0.98119
 O1894 O 0.62161 0.59904 0.98139
 C1895 C 0.61454 0.58274 0.97429
 C1896 C 0.62524 0.57227 0.95753
 C1897 C 0.64435 0.57892 0.95078
 H1898 H 0.65171 0.59134 0.95838
 O1899 O 0.39779 0.42882 0.98068
 O1900 O 0.37426 0.40529 0.98026
 C1901 C 0.38135 0.42177 0.97359
 C1902 C 0.37070 0.43265 0.95712
 C1903 C 0.35154 0.42627 0.95030
 H1904 H 0.34410 0.41372 0.95764
 Cu1905 Cu 0.49919 0.41888 0.91512
 Cu1906 Cu 0.49947 0.39060 0.88697
 Cu1907 Cu 0.49763 0.58640 0.91681
 Cu1908 Cu 0.49700 0.61490 0.88881
 Cu1909 Cu 0.41372 0.50193 0.91583
 Cu1910 Cu 0.38535 0.50180 0.88743
 Cu1911 Cu 0.58270 0.50308 0.91522
 Cu1912 Cu 0.61145 0.50369 0.88717
 C1913 C 0.44615 0.45000 0.88114
 H1914 H 0.45141 0.45513 0.89576
 C1915 C 0.43174 0.43606 0.84372
 C1916 C 0.55044 0.55555 0.88187
 H1917 H 0.54552 0.55038 0.89663
 C1918 C 0.56383 0.56951 0.84406
 C1919 C 0.38008 0.44907 0.94756
 H1920 H 0.39496 0.45391 0.95253
 C1921 C 0.34187 0.43607 0.93407
 C1922 C 0.61598 0.55597 0.94765
 H1923 H 0.60114 0.55090 0.95258
 C1924 C 0.65415 0.56954 0.93437
 C1925 C 0.44666 0.38450 0.94722
 H1926 H 0.45154 0.39920 0.95225
 C1927 C 0.43337 0.34678 0.93364
 C1928 C 0.54999 0.62096 0.94863
 H1929 H 0.54512 0.60624 0.95366
 C1930 C 0.56310 0.65876 0.93500
 C1931 C 0.44497 0.55485 0.88242
 H1932 H 0.44954 0.55020 0.89746
 C1933 C 0.43267 0.56741 0.84377
 C1934 C 0.55217 0.45049 0.88070
 H1935 H 0.54605 0.45653 0.89466
 C1936 C 0.56870 0.43398 0.84517
 C1937 C 0.55240 0.38536 0.94722
 H1938 H 0.54741 0.40008 0.95216
 C1939 C 0.56582 0.34758 0.93381
 C1940 C 0.44370 0.61882 0.94909
 H1941 H 0.44830 0.60377 0.95340
 C1942 C 0.43136 0.65753 0.93739
 C1943 C 0.37803 0.55359 0.94772
 H1944 H 0.39260 0.54837 0.95326
 C1945 C 0.34074 0.56774 0.93258
 C1946 C 0.61762 0.45144 0.94755
 H1947 H 0.60268 0.45622 0.95255
 C1948 C 0.65588 0.43842 0.93393
 O1949 O 0.51876 0.42866 1.10089
 O1950 O 0.51906 0.40504 1.12431
 C1951 C 0.52582 0.42149 1.11726
 C1952 C 0.54249 0.43204 1.12786
 C1953 C 0.55023 0.42443 1.14611
 H1954 H 0.54315 0.41144 1.15300
 O1955 O 0.47675 0.57324 1.10238
 O1956 O 0.47641 0.59650 1.12611
 C1957 C 0.46977 0.58007 1.11893
 C1958 C 0.45341 0.56902 1.12958
 C1959 C 0.44685 0.57499 1.14891
 H1960 H 0.45445 0.58726 1.15650
 O1961 O 0.39621 0.51976 1.07409
 O1962 O 0.37239 0.51928 1.09761
 C1963 C 0.37948 0.52628 1.08115
 C1964 C 0.36843 0.54244 1.07027
 C1965 C 0.34907 0.54872 1.07672
 H1966 H 0.34200 0.54146 1.08960
 O1967 O 0.59888 0.48294 1.07354
 O1968 O 0.62266 0.48305 1.09702
 C1969 C 0.61556 0.47625 1.08053
 C1970 C 0.62649 0.46003 1.06970
 C1971 C 0.64536 0.45310 1.07677
 H1972 H 0.65219 0.46004 1.08992
 O1973 O 0.57241 0.40266 1.01980
 O1974 O 0.59644 0.37948 1.01950
 C1975 C 0.57981 0.38632 1.02652
 C1976 C 0.56929 0.37545 1.04305
 C1977 C 0.57678 0.35691 1.04992
 H1978 H 0.58965 0.35007 1.04230
 O1979 O 0.42262 0.60019 1.02121
 O1980 O 0.39871 0.62350 1.02131
 C1981 C 0.41527 0.61642 1.02824
 C1982 C 0.42581 0.62695 1.04492
 C1983 C 0.41863 0.64560 1.05179
 H1984 H 0.40591 0.65270 1.04421
 O1985 O 0.42475 0.48074 1.10148
 O1986 O 0.40114 0.48027 1.12520
 C1987 C 0.41779 0.47368 1.11794
 C1988 C 0.42897 0.45740 1.12850
 C1989 C 0.42264 0.45074 1.14765
 H1990 H 0.40964 0.45776 1.15485
 O1991 O 0.57040 0.52152 1.10164
 O1992 O 0.59413 0.52159 1.12517
 C1993 C 0.57750 0.52835 1.11810
 C1994 C 0.56669 0.54477 1.12878
 C1995 C 0.57405 0.55201 1.14729
 H1996 H 0.58700 0.54473 1.15430
 O1997 O 0.47931 0.40106 1.07308
 O1998 O 0.47952 0.37747 1.09653
 C1999 C 0.47245 0.38467 1.08016
 C2000 C 0.45567 0.37423 1.06961
 C2001 C 0.44818 0.35594 1.07706
 H2002 H 0.45542 0.34894 1.08999
 O2003 O 0.51580 0.60124 1.07433
 O2004 O 0.51539 0.62474 1.09783
 C2005 C 0.52245 0.61770 1.08136
 C2006 C 0.53889 0.62851 1.07056
 C2007 C 0.54534 0.64743 1.07730
 H2008 H 0.53793 0.65432 1.09021
 O2009 O 0.39774 0.42860 1.02015
 O2010 O 0.37423 0.40505 1.01975
 C2011 C 0.38123 0.42135 1.02688
 C2012 C 0.37039 0.43162 1.04358
 C2013 C 0.35166 0.42431 1.05055
 H2014 H 0.34462 0.41175 1.04290
 O2015 O 0.59831 0.57539 1.02074
 O2016 O 0.62183 0.59892 1.02103
 C2017 C 0.61476 0.58247 1.02777
 C2018 C 0.62545 0.57168 1.04427
 C2019 C 0.64455 0.57821 1.05109
 H2020 H 0.65192 0.59074 1.04365
 O2021 O 0.51640 0.57410 1.10242
 O2022 O 0.51616 0.59746 1.12606
 C2023 C 0.52336 0.58124 1.11883
 C2024 C 0.54034 0.57077 1.12919
 C2025 C 0.54805 0.57791 1.14768
 H2026 H 0.54126 0.59101 1.15471
 O2027 O 0.47910 0.42815 1.10119
 O2028 O 0.47936 0.40468 1.12477
 C2029 C 0.47227 0.42102 1.11769
 C2030 C 0.45558 0.43164 1.12842
 C2031 C 0.44905 0.42522 1.14763
 H2032 H 0.45683 0.41290 1.15505
 O2033 O 0.59849 0.52212 1.07408
 O2034 O 0.62230 0.52218 1.09753
 C2035 C 0.61499 0.52907 1.08113
 C2036 C 0.62554 0.54558 1.07035
 C2037 C 0.64463 0.55233 1.07694
 H2038 H 0.65182 0.54520 1.08983
 O2039 O 0.39661 0.48062 1.07415
 O2040 O 0.37285 0.48005 1.09772
 C2041 C 0.38017 0.47346 1.08120
 C2042 C 0.36984 0.45699 1.07026
 C2043 C 0.35114 0.44938 1.07713
 H2044 H 0.34397 0.45584 1.09039
 O2045 O 0.56984 0.60239 1.02097
 O2046 O 0.59319 0.62609 1.02131
 C2047 C 0.57669 0.61875 1.02808
 C2048 C 0.56552 0.62901 1.04466
 C2049 C 0.57178 0.64793 1.05170
 H2050 H 0.58446 0.65545 1.04449
 O2051 O 0.42558 0.40101 1.02007
 O2052 O 0.40215 0.37738 1.01979
 C2053 C 0.41854 0.38456 1.02687
 C2054 C 0.42927 0.37410 1.04357
 C2055 C 0.42198 0.35576 1.05129
 H2056 H 0.40868 0.34888 1.04463
 O2057 O 0.57146 0.48222 1.10167
 O2058 O 0.59517 0.48228 1.12523
 C2059 C 0.57880 0.47520 1.11801
 C2060 C 0.56847 0.45823 1.12829
 C2061 C 0.57614 0.45026 1.14649
 H2062 H 0.58948 0.45686 1.15334
 O2063 O 0.42386 0.51993 1.10199
 O2064 O 0.40021 0.51950 1.12568
 C2065 C 0.41666 0.52656 1.11854
 C2066 C 0.42738 0.54288 1.12934
 C2067 C 0.42095 0.54912 1.14862
 H2068 H 0.40813 0.54176 1.15574
 O2069 O 0.47611 0.60097 1.07486
 O2070 O 0.47562 0.62440 1.09842
 C2071 C 0.46880 0.61719 1.08198
 C2072 C 0.45191 0.62742 1.07122
 C2073 C 0.44442 0.64608 1.07795
 H2074 H 0.45126 0.65327 1.09095
 O2075 O 0.51906 0.40100 1.07333
 O2076 O 0.51935 0.37728 1.09665
 C2077 C 0.52625 0.38465 1.08028
 C2078 C 0.54319 0.37452 1.06943
 C2079 C 0.55104 0.35599 1.07621
 H2080 H 0.54437 0.34874 1.08930
 O2081 O 0.60002 0.43030 1.01999
 O2082 O 0.62415 0.40723 1.01980
 C2083 C 0.61666 0.42339 1.02686
 C2084 C 0.62704 0.43405 1.04358
 C2085 C 0.64587 0.42724 1.05097
 H2086 H 0.65333 0.41452 1.04388
 O2087 O 0.39508 0.57251 1.02064
 O2088 O 0.37104 0.59568 1.02073
 C2089 C 0.37841 0.57934 1.02754
 C2090 C 0.36787 0.56839 1.04403
 C2091 C 0.34853 0.57448 1.05072
 H2092 H 0.34083 0.58679 1.04319
 Cu2093 Cu 0.49904 0.41705 1.08476
 Cu2094 Cu 0.49933 0.38874 1.11291
 Cu2095 Cu 0.49629 0.58505 1.08615
 Cu2096 Cu 0.49585 0.61314 1.11446
 Cu2097 Cu 0.41417 0.41740 1.00040
 Cu2098 Cu 0.38600 0.38908 0.99996
 Cu2099 Cu 0.58383 0.41900 1.00017
 Cu2100 Cu 0.61272 0.39121 0.99986
 Cu2101 Cu 0.41134 0.58430 1.00116
 Cu2102 Cu 0.38267 0.61231 1.00127
 Cu2103 Cu 0.58183 0.58680 1.00108
 Cu2104 Cu 0.60997 0.61510 1.00142
 Cu2105 Cu 0.41272 0.50032 1.08557
 Cu2106 Cu 0.38427 0.49975 1.11394
 Cu2107 Cu 0.58240 0.50219 1.08541
 Cu2108 Cu 0.61093 0.50231 1.11362
 C2109 C 0.55156 0.44908 1.11920
 H2110 H 0.54582 0.45487 1.10498
 C2111 C 0.56716 0.43327 1.15546
 C2112 C 0.44372 0.55282 1.12004
 H2113 H 0.44856 0.54828 1.10505
 C2114 C 0.43064 0.56510 1.15859
 C2115 C 0.37759 0.55224 1.05379
 H2116 H 0.39262 0.54764 1.04889
 C2117 C 0.33899 0.56469 1.06703
 C2118 C 0.61757 0.45057 1.05296
 H2119 H 0.60289 0.45569 1.04760
 C2120 C 0.65514 0.43672 1.06755
 C2121 C 0.55237 0.38403 1.05275
 H2122 H 0.54669 0.39846 1.04766
 C2123 C 0.56791 0.34711 1.06656
 C2124 C 0.44257 0.61806 1.05460
 H2125 H 0.44803 0.60355 1.04950
 C2126 C 0.42774 0.65526 1.06833
 C2127 C 0.44556 0.44787 1.11909
 H2128 H 0.45034 0.45276 1.10419
 C2129 C 0.43262 0.43472 1.15740
 C2130 C 0.54970 0.55410 1.11997
 H2131 H 0.54413 0.54873 1.10554
 C2132 C 0.56498 0.56865 1.15679
 C2133 C 0.44623 0.38309 1.05275
 H2134 H 0.45174 0.39737 1.04712
 C2135 C 0.43129 0.34665 1.06811
 C2136 C 0.54893 0.61951 1.05409
 H2137 H 0.54419 0.60480 1.04897
 C2138 C 0.56173 0.65726 1.06799
 C2139 C 0.37924 0.44809 1.05339
 H2140 H 0.39383 0.45364 1.04822
 C2141 C 0.34197 0.43297 1.06738
 C2142 C 0.61618 0.55523 1.05389
 H2143 H 0.60134 0.55027 1.04889
 C2144 C 0.65428 0.56861 1.06739
 C2145 C 1.13953 1.11080 1.28317
 C2146 C 1.13302 1.10275 1.26483
 C2147 C 1.11281 1.10470 1.25879
 C2148 C 1.09905 1.11507 1.27125
 C2149 C 1.10554 1.12338 1.28956
 C2150 C 1.12592 1.12128 1.29601
 N2151 N 1.10684 1.09624 1.23983
 N2152 N 1.08840 1.09570 1.23408
 C2153 C 1.08280 1.08750 1.21488
 C2154 C 1.06219 1.08590 1.21002
 C2155 C 1.05625 1.07843 1.19119
 C2156 C 1.07091 1.07257 1.17680
 C2157 C 1.09161 1.07400 1.18183
 C2158 C 1.09751 1.08136 1.20071
 H2159 H 1.15552 1.10944 1.28670
 H2160 H 1.14382 1.09500 1.25519
 H2161 H 1.08328 1.11675 1.26685
 H2162 H 1.09424 1.13071 1.29893
 H2163 H 1.05071 1.09051 1.22084
 H2164 H 1.04018 1.07722 1.18790
 H2165 H 1.10327 1.06991 1.17099
 H2166 H 1.11356 1.08254 1.20408
 C2167 C 1.09693 0.61840 0.79727
 C2168 C 1.08897 0.61041 0.77942
 C2169 C 1.10191 0.60423 0.76379
 C2170 C 1.12306 0.60590 0.76631
 C2171 C 1.13105 0.61386 0.78417
 C2172 C 1.11807 0.62033 0.79981
 N2173 N 1.09319 0.59664 0.74547
 N2174 N 1.10408 0.59108 0.73055
 C2175 C 1.09543 0.58371 0.71212
 C2176 C 1.10845 0.57786 0.69642
 C2177 C 1.10057 0.57082 0.67814
 C2178 C 1.07943 0.56950 0.67523
 C2179 C 1.06637 0.57539 0.69104
 C2180 C 1.07429 0.58242 0.70934
 H2181 H 1.08656 0.62301 0.80914
 H2182 H 1.07266 0.60914 0.77770
 H2183 H 1.13339 0.60124 0.75443
 H2184 H 1.14737 0.61537 0.78558
 H2185 H 1.12476 0.57888 0.69834
 H2186 H 1.11102 0.56669 0.66617
 H2187 H 1.05004 0.57435 0.68932
 H2188 H 1.06390 0.58684 0.72126
 C2189 C 0.60409 1.13004 0.79311
 C2190 C 0.59468 1.12169 0.77613
 C2191 C 0.60634 1.11448 0.75995
 C2192 C 0.62766 1.11549 0.76105
 C2193 C 0.63709 1.12378 0.77803
 C2194 C 0.62541 1.13126 0.79421
 N2195 N 0.59625 1.10644 0.74254
 N2196 N 0.60613 1.10022 0.72718
 C2197 C 0.59643 1.09222 0.70956
 C2198 C 0.60859 1.08581 0.69344
 C2199 C 0.59979 1.07790 0.67598
 C2200 C 0.57855 1.07621 0.67432
 C2201 C 0.56631 1.08280 0.69050
 C2202 C 0.57517 1.09073 0.70801
 H2203 H 0.59469 1.13547 0.80543
 H2204 H 0.57825 1.12094 0.77551
 H2205 H 0.63704 1.11004 0.74874
 H2206 H 0.65351 1.12475 0.77831
 H2207 H 0.62498 1.08700 0.69441
 H2208 H 0.60963 1.07331 0.66366
 H2209 H 0.54992 1.08156 0.68972
 H2210 H 0.56544 1.09560 0.72030
 C2211 C 0.59696 0.62619 1.29679
 C2212 C 0.58794 0.61918 1.27903
 C2213 C 0.59967 0.61005 1.26401
 C2214 C 0.62063 0.60753 1.26713
 C2215 C 0.62971 0.61432 1.28495
 C2216 C 0.61812 0.62407 1.30010
 N2217 N 0.59003 0.60363 1.24570
 N2218 N 0.60025 0.59700 1.23075
 C2219 C 0.59093 0.59046 1.21234
 C2220 C 0.60344 0.58436 1.19637
 C2221 C 0.59501 0.57758 1.17827
 C2222 C 0.57378 0.57663 1.17585
 C2223 C 0.56120 0.58302 1.19184
 C2224 C 0.56970 0.58988 1.20997
 H2225 H 0.58705 0.63266 1.30813
 H2226 H 0.57171 0.62098 1.27691
 H2227 H 0.63006 0.60050 1.25570
 H2228 H 0.64603 0.61276 1.28620
 H2229 H 0.61982 0.58486 1.19799
 H2230 H 0.60513 0.57316 1.16612
 H2231 H 0.54482 0.58232 1.19048
 H2232 H 0.55971 0.59452 1.22214
 C2233 C 0.87710 0.90185 1.29704
 C2234 C 0.88367 0.91088 1.27909
 C2235 C 0.89282 0.89943 1.26390
 C2236 C 0.89579 0.87876 1.26704
 C2237 C 0.88943 0.86969 1.28505
 C2238 C 0.87967 0.88098 1.30038
 N2239 N 0.89882 0.90905 1.24543
 N2240 N 0.90546 0.89904 1.23039
 C2241 C 0.91164 0.90830 1.21181
 C2242 C 0.91791 0.89598 1.19586
 C2243 C 0.92448 0.90435 1.17764
 C2244 C 0.92504 0.92533 1.17505
 C2245 C 0.91842 0.93773 1.19099
 C2246 C 0.91177 0.92928 1.20926
 H2247 H 0.87059 0.91154 1.30849
 H2248 H 0.88153 0.92689 1.27697
 H2249 H 0.90284 0.86955 1.25549
 H2250 H 0.89132 0.85359 1.28630
 H2251 H 0.91775 0.87979 1.19761
 H2252 H 0.92909 0.89438 1.16552
 H2253 H 0.91881 0.95392 1.18950
 H2254 H 0.90698 0.93912 1.22141
 C2255 C 0.87028 0.39466 0.79236
 C2256 C 0.87843 0.40387 0.77516
 C2257 C 0.88820 0.39246 0.76033
 C2258 C 0.89019 0.37164 0.76309
 C2259 C 0.88223 0.36236 0.78035
 C2260 C 0.87183 0.37364 0.79528
 N2261 N 0.89573 0.40230 0.74253
 N2262 N 0.90310 0.39247 0.72772
 C2263 C 0.91062 0.40202 0.70979
 C2264 C 0.91732 0.38997 0.69379
 C2265 C 0.92477 0.39866 0.67605
 C2266 C 0.92583 0.41968 0.67402
 C2267 C 0.91898 0.43180 0.69010
 C2268 C 0.91142 0.42305 0.70785
 H2269 H 0.86334 0.40430 0.80360
 H2270 H 0.87702 0.41999 0.77333
 H2271 H 0.89768 0.36245 0.75178
 H2272 H 0.88343 0.34618 0.78127
 H2273 H 0.91666 0.37376 0.69507
 H2274 H 0.92953 0.38889 0.66382
 H2275 H 0.91976 0.44801 0.68907
 H2276 H 0.90635 0.43268 0.72005
 C2277 C 0.38595 0.85534 0.77939
 C2278 C 0.39453 0.86192 0.76121
 C2279 C 0.39716 0.88244 0.75749
 C2280 C 0.39141 0.89642 0.77237
 C2281 C 0.38284 0.88988 0.79057
 C2282 C 0.37985 0.86927 0.79421
 N2283 N 0.40521 0.88869 0.73836
 N2284 N 0.40735 0.90714 0.73378
 C2285 C 0.41499 0.91339 0.71448
 C2286 C 0.41656 0.93395 0.71034
 C2287 C 0.42339 0.94057 0.69145
 C2288 C 0.42881 0.92666 0.67636
 C2289 C 0.42740 0.90601 0.68063
 C2290 C 0.42054 0.89941 0.69952
 H2291 H 0.38361 0.83940 0.78164
 H2292 H 0.39886 0.85101 0.74983
 H2293 H 0.39337 0.91238 0.76989
 H2294 H 0.37856 0.90094 0.80181
 H2295 H 0.41235 0.94486 0.72177
 H2296 H 0.42455 0.95657 0.68868
 H2297 H 0.43122 0.89494 0.66923
 H2298 H 0.41939 0.88343 0.70233
 C2299 C 0.38570 0.35611 1.28176
 C2300 C 0.39370 0.36296 1.26343
 C2301 C 0.39316 0.38334 1.25851
 C2302 C 0.38434 0.39696 1.27216
 C2303 C 0.37616 0.39018 1.29048
 C2304 C 0.37673 0.36957 1.29577
 N2305 N 0.40149 0.38973 1.23953
 N2306 N 0.40248 0.40816 1.23446
 C2307 C 0.41058 0.41441 1.21534
 C2308 C 0.41185 0.43496 1.21106
 C2309 C 0.41926 0.44158 1.19238
 C2310 C 0.42548 0.42769 1.17755
 C2311 C 0.42436 0.40704 1.18197
 C2312 C 0.41700 0.40045 1.20069
 H2313 H 0.38587 0.34007 1.28437
 H2314 H 0.40027 0.35227 1.25292
 H2315 H 0.38381 0.41286 1.26872
 H2316 H 0.37019 0.40139 1.30075
 H2317 H 0.40703 0.44587 1.22224
 H2318 H 0.42020 0.45758 1.18956
 H2319 H 0.42876 0.39596 1.17079
 H2320 H 0.41610 0.38446 1.20361
 C2321 C 0.85948 1.11314 0.71661
 C2322 C 0.86594 1.10478 0.73486
 C2323 C 0.88620 1.10626 0.74082
 C2324 C 0.90003 1.11662 0.72845
 C2325 C 0.89357 1.12526 0.71023
 C2326 C 0.87318 1.12346 0.70378
 N2327 N 0.89218 1.09724 0.75956
 N2328 N 0.91065 1.09605 0.76509
 C2329 C 0.91630 1.08724 0.78404
 C2330 C 0.93692 1.08527 0.78874
 C2331 C 0.94293 1.07736 0.80738
 C2332 C 0.92834 1.07139 0.82176
 C2333 C 0.90762 1.07305 0.81686
 C2334 C 0.90163 1.08088 0.79815
 H2335 H 0.84346 1.11208 0.71310
 H2336 H 0.85508 1.09709 0.74444
 H2337 H 0.91582 1.11798 0.73282
 H2338 H 0.90490 1.13253 0.70090
 H2339 H 0.94836 1.09002 0.77795
 H2340 H 0.95902 1.07597 0.81058
 H2341 H 0.89602 1.06884 0.82769
 H2342 H 0.88557 1.08229 0.79489
 C2343 C 0.85364 0.62159 0.22420
 C2344 C 0.86068 0.61290 0.24214
 C2345 C 0.88152 0.61020 0.24537
 C2346 C 0.89535 0.61619 0.23032
 C2347 C 0.88833 0.62489 0.21235
 C2348 C 0.86739 0.62775 0.20912
 N2349 N 0.88819 0.60164 0.26413
 N2350 N 0.90692 0.59908 0.26824
 C2351 C 0.91352 0.59074 0.28713
 C2352 C 0.93437 0.58874 0.29080
 C2353 C 0.94133 0.58110 0.30926
 C2354 C 0.92748 0.57528 0.32439
 C2355 C 0.90653 0.57714 0.32058
 C2356 C 0.89960 0.58481 0.30213
 H2357 H 0.83744 0.62384 0.22230
 H2358 H 0.84987 0.60840 0.25366
 H2359 H 0.91155 0.61422 0.23244
 H2360 H 0.89929 0.62924 0.20092
 H2361 H 0.94525 0.59322 0.27935
 H2362 H 0.95755 0.57964 0.31166
 H2363 H 0.89550 0.57303 0.33203
 H2364 H 0.88339 0.58626 0.29968
 C2365 C 0.38877 1.14298 0.21805
 C2366 C 0.39695 1.13606 0.23629
 C2367 C 0.39554 1.11582 0.24167
 C2368 C 0.38588 1.10241 0.22848
 C2369 C 0.37755 1.10926 0.21028
 C2370 C 0.37871 1.12975 0.20466
 N2371 N 0.40367 1.10940 0.26072
 N2372 N 0.40374 1.09104 0.26616
 C2373 C 0.41151 1.08472 0.28540
 C2374 C 0.41228 1.06419 0.28988
 C2375 C 0.41947 1.05753 0.30863
 C2376 C 0.42592 1.07138 0.32334
 C2377 C 0.42515 1.09203 0.31876
 C2378 C 0.41806 1.09864 0.29996
 H2379 H 0.38959 1.15894 0.21511
 H2380 H 0.40422 1.14660 0.24642
 H2381 H 0.38473 1.08661 0.23224
 H2382 H 0.37084 1.09817 0.20041
 H2383 H 0.40731 1.05331 0.27878
 H2384 H 0.42012 1.04153 0.31156
 H2385 H 0.42968 1.10311 0.32984
 H2386 H 0.41749 1.11462 0.29691
 C2387 C 0.35645 0.61857 0.71963
 C2388 C 0.36277 0.61023 0.73798
 C2389 C 0.38346 0.60762 0.74206
 C2390 C 0.39789 0.61340 0.72747
 C2391 C 0.39159 0.62176 0.70910
 C2392 C 0.37079 0.62446 0.70499
 N2393 N 0.38936 0.59936 0.76118
 N2394 N 0.40790 0.59674 0.76601
 C2395 C 0.41371 0.58876 0.78529
 C2396 C 0.43438 0.58677 0.78980
 C2397 C 0.44057 0.57962 0.80870
 C2398 C 0.42610 0.57430 0.82344
 C2399 C 0.40533 0.57605 0.81877
 C2400 C 0.39917 0.58324 0.79987
 H2401 H 0.34034 0.62073 0.71704
 H2402 H 0.35152 0.60592 0.74914
 H2403 H 0.41399 0.61150 0.73028
 H2404 H 0.40297 0.62594 0.69802
 H2405 H 0.44572 0.59092 0.77867
 H2406 H 0.45667 0.57820 0.81179
 H2407 H 0.39385 0.57229 0.82990
 H2408 H 0.38308 0.58467 0.79675
 C2409 C 1.10014 0.87057 0.70601
 C2410 C 1.09115 0.87826 0.72360
 C2411 C 1.10322 0.88573 0.73930
 C2412 C 1.12449 0.88538 0.73724
 C2413 C 1.13347 0.87776 0.71969
 C2414 C 1.12141 0.87032 0.70385
 N2415 N 1.09363 0.89361 0.75710
 N2416 N 1.10400 0.90033 0.77185
 C2417 C 1.09488 0.90836 0.78980
 C2418 C 1.10755 0.91500 0.80537
 C2419 C 1.09930 0.92292 0.82313
 C2420 C 1.07811 0.92441 0.82563
 C2421 C 1.06538 0.91772 0.80995
 C2422 C 1.07368 0.90975 0.79216
 H2423 H 1.09046 0.86510 0.69399
 H2424 H 1.07474 0.87846 0.72498
 H2425 H 1.13418 0.89099 0.74918
 H2426 H 1.14990 0.87747 0.71861
 H2427 H 1.12391 0.91393 0.80374
 H2428 H 1.10951 0.92762 0.83505
 H2429 H 1.04901 0.91885 0.81135
 H2430 H 1.06357 0.90476 0.78029
 C2431 C 1.09499 0.37491 0.20186
 C2432 C 1.08634 0.38226 0.21975
 C2433 C 1.09871 0.38934 0.23539
 C2434 C 1.11994 0.38898 0.23297
 C2435 C 1.12859 0.38169 0.21512
 C2436 C 1.11623 0.37463 0.19934
 N2437 N 1.08949 0.39683 0.25355
 N2438 N 1.10019 0.40315 0.26824
 C2439 C 1.09150 0.41077 0.28657
 C2440 C 1.10454 0.41694 0.30202
 C2441 C 1.09671 0.42442 0.32016
 C2442 C 1.07559 0.42591 0.32315
 C2443 C 1.06248 0.41969 0.30757
 C2444 C 1.07036 0.41218 0.28941
 H2445 H 1.08510 0.36970 0.18989
 H2446 H 1.06996 0.38248 0.22142
 H2447 H 1.12986 0.39429 0.24485
 H2448 H 1.14499 0.38135 0.21377
 H2449 H 1.12085 0.41585 0.30001
 H2450 H 1.10720 0.42875 0.33198
 H2451 H 1.04616 0.42084 0.30936
 H2452 H 1.05998 0.40753 0.27762
 C2453 C 0.64436 0.88376 0.21869
 C2454 C 0.63766 0.89253 0.23668
 C2455 C 0.61740 0.89090 0.24268
 C2456 C 0.60381 0.88002 0.23058
 C2457 C 0.61050 0.87097 0.21264
 C2458 C 0.63091 0.87285 0.20617
 N2459 N 0.61119 0.90027 0.26119
 N2460 N 0.59266 0.90132 0.26666
 C2461 C 0.58670 0.91043 0.28540
 C2462 C 0.56601 0.91231 0.28987
 C2463 C 0.55968 0.92050 0.30829
 C2464 C 0.57402 0.92684 0.32272
 C2465 C 0.59482 0.92525 0.31803
 C2466 C 0.60112 0.91715 0.29953
 H2467 H 0.66038 0.88497 0.21519
 H2468 H 0.64836 0.90064 0.24605
 H2469 H 0.58801 0.87854 0.23496
 H2470 H 0.59932 0.86329 0.20351
 H2471 H 0.55475 0.90729 0.27907
 H2472 H 0.54354 0.92182 0.31129
 H2473 H 0.60625 0.92974 0.32889
 H2474 H 0.61724 0.91581 0.29644
 C2475 C 0.62710 0.39434 0.70680
 C2476 C 0.61943 0.40428 0.72383
 C2477 C 0.61342 0.39342 0.74095
 C2478 C 0.61490 0.37233 0.74073
 C2479 C 0.62252 0.36236 0.72368
 C2480 C 0.62887 0.37325 0.70657
 N2481 N 0.60608 0.40410 0.75836
 N2482 N 0.60089 0.39503 0.77452
 C2483 C 0.59349 0.40534 0.79210
 C2484 C 0.58758 0.39395 0.80888
 C2485 C 0.57982 0.40330 0.82616
 C2486 C 0.57783 0.42433 0.82701
 C2487 C 0.58417 0.43583 0.81030
 C2488 C 0.59188 0.42641 0.79292
 H2489 H 0.63162 0.40314 0.69377
 H2490 H 0.61828 0.42052 0.72374
 H2491 H 0.61035 0.36356 0.75377
 H2492 H 0.62391 0.34614 0.72408
 H2493 H 0.58887 0.37773 0.80850
 H2494 H 0.57542 0.39405 0.83891
 H2495 H 0.58273 0.45204 0.81050
 H2496 H 0.59642 0.43555 0.78014
 C2497 C 1.29693 1.10129 1.12553
 C2498 C 1.27926 1.09223 1.11817
 C2499 C 1.26290 1.10399 1.11156
 C2500 C 1.26440 1.12504 1.11234
 C2501 C 1.28203 1.13411 1.11965
 C2502 C 1.29850 1.12235 1.12634
 N2503 N 1.24495 1.09430 1.10416
 N2504 N 1.22960 1.10435 1.09819
 C2505 C 1.21149 1.09510 1.09069
 C2506 C 1.19544 1.10742 1.08444
 C2507 C 1.17758 1.09904 1.07687
 C2508 C 1.17545 1.07807 1.07540
 C2509 C 1.19156 1.06568 1.08183
 C2510 C 1.20947 1.07411 1.08940
 H2511 H 1.30944 1.09184 1.13039
 H2512 H 1.27832 1.07599 1.11760
 H2513 H 1.25195 1.13449 1.10737
 H2514 H 1.28266 1.15035 1.12037
 H2515 H 1.19679 1.12360 1.08545
 H2516 H 1.16532 1.10898 1.07237
 H2517 H 1.19042 1.04949 1.08073
 H2518 H 1.22171 1.06428 1.09414
 C2519 C 1.28177 0.64236 0.61317
 C2520 C 1.26366 0.63524 0.60483
 C2521 C 1.26012 0.61459 0.60331
 C2522 C 1.27509 0.60101 0.60998
 C2523 C 1.29320 0.60810 0.61834
 C2524 C 1.29667 0.62887 0.62017
 N2525 N 1.24107 0.60786 0.59542
 N2526 N 1.23670 0.58932 0.59377
 C2527 C 1.21742 0.58277 0.58623
 C2528 C 1.21367 0.56216 0.58444
 C2529 C 1.19488 0.55531 0.57745
 C2530 C 1.17948 0.56904 0.57213
 C2531 C 1.18332 0.58974 0.57393
 C2532 C 1.20211 0.59655 0.58089
 H2533 H 1.28388 0.65843 0.61461
 H2534 H 1.25222 0.64585 0.59980
 H2535 H 1.27272 0.58495 0.60890
 H2536 H 1.30451 0.59735 0.62337
 H2537 H 1.22535 0.55140 0.58850
 H2538 H 1.19245 0.53929 0.57602
 H2539 H 1.17167 0.60068 0.57028
 H2540 H 1.20458 0.61257 0.58225
 C2541 C 0.79753 1.10042 0.62128
 C2542 C 0.77990 1.09163 0.61369
 C2543 C 0.76504 1.10338 0.60434
 C2544 C 0.76844 1.12405 0.60174
 C2545 C 0.78626 1.13290 0.60905
 C2546 C 0.80090 1.12134 0.61955
 N2547 N 0.74649 1.09401 0.59819
 N2548 N 0.73122 1.10414 0.59217
 C2549 C 0.71255 1.09481 0.58629
 C2550 C 0.69617 1.10704 0.58079
 C2551 C 0.67776 1.09854 0.57483
 C2552 C 0.67543 1.07753 0.57413
 C2553 C 0.69182 1.06524 0.57999
 C2554 C 0.71025 1.07380 0.58602
 H2555 H 0.80867 1.09057 0.62816
 H2556 H 0.77761 1.07562 0.61548
 H2557 H 0.75717 1.13343 0.59442
 H2558 H 0.78777 1.14901 0.60751
 H2559 H 0.69769 1.12324 0.58111
 H2560 H 0.66531 1.10843 0.57078
 H2561 H 0.69053 1.04903 0.57945
 H2562 H 0.72272 1.06402 0.59027
 C2563 C 0.77585 0.64837 1.11963
 C2564 C 0.75778 0.64153 1.11097
 C2565 C 0.75413 0.62093 1.10896
 C2566 C 0.76891 0.60714 1.11562
 C2567 C 0.78699 0.61396 1.12430
 C2568 C 0.79064 0.63466 1.12647
 N2569 N 0.73523 0.61447 1.10044
 N2570 N 0.73089 0.59598 1.09821
 C2571 C 0.71185 0.58953 1.08998
 C2572 C 0.70810 0.56894 1.08809
 C2573 C 0.68950 0.56212 1.08059
 C2574 C 0.67427 0.57586 1.07482
 C2575 C 0.67816 0.59656 1.07656
 C2576 C 0.69677 0.60335 1.08407
 H2577 H 0.77808 0.66440 1.12132
 H2578 H 0.74648 0.65231 1.10597
 H2579 H 0.76647 0.59112 1.11419
 H2580 H 0.79819 0.60304 1.12920
 H2581 H 0.71961 0.55815 1.09254
 H2582 H 0.68707 0.54610 1.07919
 H2583 H 0.66665 0.60750 1.07250
 H2584 H 0.69928 0.61936 1.08544
 C2585 C 1.28476 0.89026 0.85680
 C2586 C 1.26683 0.89928 0.86365
 C2587 C 1.26135 0.89825 0.88403
 C2588 C 1.27416 0.88827 0.89770
 C2589 C 1.29204 0.87909 0.89092
 C2590 C 1.29766 0.87971 0.87027
 N2591 N 1.24241 0.90688 0.89032
 N2592 N 1.23692 0.90720 0.90878
 C2593 C 1.21766 0.91520 0.91495
 C2594 C 1.21310 0.91623 0.93560
 C2595 C 1.19416 0.92329 0.94209
 C2596 C 1.17938 0.92935 0.92795
 C2597 C 1.18409 0.92841 0.90721
 C2598 C 1.20307 0.92145 0.90075
 H2599 H 1.28775 0.89075 0.84072
 H2600 H 1.25696 0.90682 0.85293
 H2601 H 1.27032 0.88742 0.91361
 H2602 H 1.30165 0.87206 0.90216
 H2603 H 1.22423 0.91146 0.94668
 H2604 H 1.19110 0.92409 0.95818
 H2605 H 1.17295 0.93265 0.89593
 H2606 H 1.20620 0.92066 0.88469
 C2607 C 1.29904 0.37729 0.40051
 C2608 C 1.28140 0.38515 0.40924
 C2609 C 1.26662 0.39433 0.39725
 C2610 C 1.27007 0.39644 0.37638
 C2611 C 1.28783 0.38881 0.36759
 C2612 C 1.30245 0.37854 0.37940
 N2613 N 1.24802 0.40078 0.40651
 N2614 N 1.23301 0.40699 0.39611
 C2615 C 1.21422 0.41313 0.40518
 C2616 C 1.19821 0.41896 0.39259
 C2617 C 1.17964 0.42501 0.40083
 C2618 C 1.17677 0.42545 0.42193
 C2619 C 1.19282 0.41937 0.43458
 C2620 C 1.21142 0.41326 0.42629
 H2621 H 1.31013 0.37057 0.41054
 H2622 H 1.27905 0.38372 0.42540
 H2623 H 1.25885 0.40359 0.36679
 H2624 H 1.28929 0.38993 0.35132
 H2625 H 1.20014 0.41877 0.37631
 H2626 H 1.16746 0.42924 0.39066
 H2627 H 1.19111 0.41972 0.45088
 H2628 H 1.22360 0.40878 0.43634
 C2629 C 0.80077 0.87672 0.40336
 C2630 C 0.78284 0.88402 0.41213
 C2631 C 0.76678 0.89069 0.39995
 C2632 C 0.76887 0.89001 0.37879
 C2633 C 0.78676 0.88277 0.37002
 C2634 C 0.80293 0.87606 0.38219
 N2635 N 0.74855 0.89804 0.40931
 N2636 N 0.73346 0.90395 0.39882
 C2637 C 0.71506 0.91140 0.40769
 C2638 C 0.69923 0.91729 0.39489
 C2639 C 0.68103 0.92468 0.40289
 C2640 C 0.67836 0.92635 0.42394
 C2641 C 0.69429 0.92035 0.43680
 C2642 C 0.71252 0.91294 0.42875
 H2643 H 0.81304 0.87182 0.41311
 H2644 H 0.78144 0.88450 0.42845
 H2645 H 0.75666 0.89501 0.36901
 H2646 H 0.78784 0.88216 0.35368
 H2647 H 0.70099 0.91609 0.37864
 H2648 H 0.66894 0.92884 0.39259
 H2649 H 0.69274 0.92163 0.45306
 H2650 H 0.72459 0.90850 0.43895
 C2651 C 0.77366 0.35657 0.87711
 C2652 C 0.75576 0.36413 0.88558
 C2653 C 0.75356 0.38470 0.88921
 C2654 C 0.76953 0.39780 0.88419
 C2655 C 0.78749 0.39025 0.87571
 C2656 C 0.78976 0.36954 0.87215
 N2657 N 0.73496 0.39180 0.89792
 N2658 N 0.73158 0.41031 0.90139
 C2659 C 0.71279 0.41703 0.91005
 C2660 C 0.70946 0.43764 0.91264
 C2661 C 0.69105 0.44464 0.92059
 C2662 C 0.67570 0.43106 0.92617
 C2663 C 0.67918 0.41035 0.92377
 C2664 C 0.69754 0.40339 0.91576
 H2665 H 0.77481 0.34059 0.87424
 H2666 H 0.74351 0.35392 0.88930
 H2667 H 0.76816 0.41379 0.88689
 H2668 H 0.79971 0.40057 0.87222
 H2669 H 0.72112 0.44829 0.90834
 H2670 H 0.68884 0.46067 0.92244
 H2671 H 0.66752 0.39956 0.92768
 H2672 H 0.69973 0.38737 0.91390
 C2673 C 0.70583 0.87338 1.10036
 C2674 C 0.72322 0.88116 1.09104
 C2675 C 0.73957 0.88785 1.10273
 C2676 C 0.73832 0.88677 1.12394
 C2677 C 0.72098 0.87904 1.13325
 C2678 C 0.70455 0.87224 1.12157
 N2679 N 0.75729 0.89556 1.09283
 N2680 N 0.77257 0.90158 1.10289
 C2681 C 0.79051 0.90935 1.09354
 C2682 C 0.80643 0.91569 1.10593
 C2683 C 0.82418 0.92347 1.09747
 C2684 C 0.82629 0.92507 1.07636
 C2685 C 0.81032 0.91854 1.06388
 C2686 C 0.79252 0.91076 1.07241
 H2687 H 0.69333 0.86842 1.09099
 H2688 H 0.72398 0.88196 1.07469
 H2689 H 0.75078 0.89179 1.13333
 H2690 H 0.72057 0.87806 1.14960
 H2691 H 0.80507 0.91456 1.12223
 H2692 H 0.83636 0.92804 1.10745
 H2693 H 0.81150 0.91973 1.04758
 H2694 H 0.78037 0.90594 1.06253
 C2695 C 0.72444 0.35274 0.61984
 C2696 C 0.74218 0.36012 0.61097
 C2697 C 0.74623 0.38068 0.61087
 C2698 C 0.73233 0.39394 0.61993
 C2699 C 0.71457 0.38662 0.62896
 C2700 C 0.71016 0.36583 0.62901
 N2701 N 0.76464 0.38757 0.60165
 N2702 N 0.76905 0.40612 0.60017
 C2703 C 0.78769 0.41272 0.59114
 C2704 C 0.79151 0.43333 0.58964
 C2705 C 0.80980 0.44022 0.58141
 C2706 C 0.82464 0.42654 0.57457
 C2707 C 0.82064 0.40584 0.57588
 C2708 C 0.80233 0.39897 0.58407
 H2709 H 0.72254 0.33661 0.62014
 H2710 H 0.75294 0.34973 0.60425
 H2711 H 0.73512 0.40996 0.61997
 H2712 H 0.70402 0.39752 0.63510
 H2713 H 0.78032 0.44406 0.59497
 H2714 H 0.81233 0.45626 0.58037
 H2715 H 0.83186 0.39492 0.57102
 H2716 H 0.79976 0.38295 0.58512
 C2717 C 0.20582 0.89694 0.62878
 C2718 C 0.22340 0.90623 0.62147
 C2719 C 0.23865 0.89495 0.61209
 C2720 C 0.23602 0.87417 0.60979
 C2721 C 0.21842 0.86482 0.61691
 C2722 C 0.20294 0.87597 0.62672
 N2723 N 0.25667 0.90484 0.60510
 N2724 N 0.27163 0.89500 0.59789
 C2725 C 0.28978 0.90443 0.59068
 C2726 C 0.30575 0.89226 0.58396
 C2727 C 0.32363 0.90081 0.57657
 C2728 C 0.32581 0.92181 0.57563
 C2729 C 0.30979 0.93406 0.58258
 C2730 C 0.29189 0.92544 0.59005
 H2731 H 0.19425 0.90648 0.63538
 H2732 H 0.22516 0.92232 0.62315
 H2733 H 0.24764 0.86506 0.60264
 H2734 H 0.21760 0.84866 0.61548
 H2735 H 0.30433 0.87606 0.58448
 H2736 H 0.33582 0.89095 0.57173
 H2737 H 0.31095 0.95027 0.58189
 H2738 H 0.27969 0.93516 0.59515
 C2739 C 0.20071 0.40143 1.12443
 C2740 C 0.21860 0.41048 1.11758
 C2741 C 0.23387 0.39900 1.10847
 C2742 C 0.23091 0.37830 1.10590
 C2743 C 0.21301 0.36920 1.11256
 C2744 C 0.19755 0.38053 1.12217
 N2745 N 0.25227 0.40859 1.10211
 N2746 N 0.26724 0.39849 1.09531
 C2747 C 0.28580 0.40760 1.08877
 C2748 C 0.30172 0.39515 1.08243
 C2749 C 0.32000 0.40339 1.07571
 C2750 C 0.32265 0.42435 1.07508
 C2751 C 0.30668 0.43686 1.08164
 C2752 C 0.28838 0.42856 1.08844
 H2753 H 0.18917 0.41111 1.13088
 H2754 H 0.22061 0.42652 1.11944
 H2755 H 0.24254 0.36904 1.09894
 H2756 H 0.21195 0.35307 1.11100
 H2757 H 0.29993 0.37898 1.08273
 H2758 H 0.33213 0.39333 1.07114
 H2759 H 0.30822 0.45305 1.08117
 H2760 H 0.27624 0.43848 1.09326
 C2761 C 0.72473 1.14818 0.87721
 C2762 C 0.74250 1.14048 0.88573
 C2763 C 0.74620 1.11984 0.88590
 C2764 C 0.73204 1.10684 0.87701
 C2765 C 0.71425 1.11450 0.86827
 C2766 C 0.71005 1.13537 0.86846
 N2767 N 0.76443 1.11263 0.89524
 N2768 N 0.76839 1.09402 0.89732
 C2769 C 0.78682 1.08725 0.90668
 C2770 C 0.79020 1.06661 0.90896
 C2771 C 0.80824 1.05956 0.91764
 C2772 C 0.82326 1.07309 0.92416
 C2773 C 0.81969 1.09383 0.92207
 C2774 C 0.80165 1.10086 0.91342
 H2775 H 0.72303 1.16435 0.87695
 H2776 H 0.75348 1.15067 0.89228
 H2777 H 0.73461 1.09077 0.87697
 H2778 H 0.70344 1.10384 0.86228
 H2779 H 0.77887 1.05598 0.90391
 H2780 H 0.81043 1.04351 0.91928
 H2781 H 0.83107 1.10462 0.92666
 H2782 H 0.79942 1.11690 0.91180
 C2783 C 0.70367 0.60060 0.37650
 C2784 C 0.72161 0.59183 0.38371
 C2785 C 0.73779 0.60384 0.39012
 C2786 C 0.73578 0.62487 0.38932
 C2787 C 0.71784 0.63367 0.38213
 C2788 C 0.70158 0.62163 0.37557
 N2789 N 0.75601 0.59433 0.39730
 N2790 N 0.77132 0.60439 0.40322
 C2791 C 0.78961 0.59505 0.41042
 C2792 C 0.80562 0.60727 0.41681
 C2793 C 0.82364 0.59876 0.42407
 C2794 C 0.82599 0.57777 0.42511
 C2795 C 0.80993 0.56549 0.41853
 C2796 C 0.79187 0.57405 0.41128
 H2797 H 0.69135 0.59092 0.37183
 H2798 H 0.72291 0.57562 0.38432
 H2799 H 0.74808 0.63450 0.39415
 H2800 H 0.71681 0.64989 0.38138
 H2801 H 0.80411 0.62347 0.41614
 H2802 H 0.83583 0.60864 0.42869
 H2803 H 0.81122 0.54928 0.41929
 H2804 H 0.77969 0.56427 0.40644
 C2805 C 0.20237 1.09878 0.37829
 C2806 C 0.22008 1.09004 0.38593
 C2807 C 0.23489 1.10184 0.39512
 C2808 C 0.23141 1.12254 0.39746
 C2809 C 0.21353 1.13135 0.39009
 C2810 C 0.19889 1.11972 0.37979
 N2811 N 0.25348 1.09249 0.40142
 N2812 N 0.26868 1.10264 0.40741
 C2813 C 0.28738 1.09334 0.41346
 C2814 C 0.30368 1.10560 0.41891
 C2815 C 0.32211 1.09712 0.42503
 C2816 C 0.32455 1.07612 0.42595
 C2817 C 0.30824 1.06380 0.42016
 C2818 C 0.28978 1.07233 0.41397
 H2819 H 0.19126 1.08887 0.37156
 H2820 H 0.22243 1.07400 0.38434
 H2821 H 0.24265 1.13198 0.40466
 H2822 H 0.21195 1.14748 0.39144
 H2823 H 0.30207 1.12179 0.41842
 H2824 H 0.33449 1.10703 0.42901
 H2825 H 0.30961 1.04759 0.42087
 H2826 H 0.27738 1.06253 0.40978
 C2827 C 0.19969 0.62586 0.90207
 C2828 C 0.21767 0.61879 0.91084
 C2829 C 0.23241 0.60919 0.89908
 C2830 C 0.22877 0.60627 0.87837
 C2831 C 0.21072 0.61312 0.86955
 C2832 C 0.19586 0.62332 0.88116
 N2833 N 0.25095 0.60270 0.90844
 N2834 N 0.26574 0.59577 0.89814
 C2835 C 0.28437 0.58919 0.90722
 C2836 C 0.30030 0.58307 0.89463
 C2837 C 0.31865 0.57637 0.90286
 C2838 C 0.32136 0.57549 0.92396
 C2839 C 0.30536 0.58182 0.93662
 C2840 C 0.28700 0.58863 0.92833
 H2841 H 0.18859 0.63272 0.91201
 H2842 H 0.22017 0.62091 0.92689
 H2843 H 0.23998 0.59888 0.86891
 H2844 H 0.20908 0.61121 0.85339
 H2845 H 0.29849 0.58355 0.87835
 H2846 H 0.33078 0.57200 0.89266
 H2847 H 0.30689 0.58115 0.95291
 H2848 H 0.27486 0.59326 0.93838
 C2849 C 1.13950 1.28113 1.11401
 C2850 C 1.13334 1.26275 1.10594
 C2851 C 1.11269 1.25847 1.10356
 C2852 C 1.09812 1.27288 1.10934
 C2853 C 1.10426 1.29129 1.11745
 C2854 C 1.12503 1.29561 1.11987
 N2855 N 1.10696 1.23934 1.09550
 N2856 N 1.08847 1.23440 1.09292
 C2857 C 1.08285 1.21514 1.08510
 C2858 C 1.06222 1.21057 1.08301
 C2859 C 1.05620 1.19171 1.07598
 C2860 C 1.07078 1.17706 1.07089
 C2861 C 1.09152 1.18178 1.07275
 C2862 C 1.09751 1.20065 1.07982
 H2863 H 1.15559 1.28389 1.11597
 H2864 H 1.14469 1.25173 1.10163
 H2865 H 1.08205 1.26991 1.10763
 H2866 H 1.09278 1.30222 1.12163
 H2867 H 1.05078 1.22163 1.08698
 H2868 H 1.04012 1.18860 1.07446
 H2869 H 1.10309 1.17073 1.06918
 H2870 H 1.11357 1.20380 1.08133
 C2871 C 1.14490 0.77626 0.61879
 C2872 C 1.13857 0.75801 0.61053
 C2873 C 1.11787 0.75393 0.60812
 C2874 C 1.10345 0.76840 0.61409
 C2875 C 1.10976 0.78667 0.62238
 C2876 C 1.13057 0.79081 0.62482
 N2877 N 1.11195 0.73496 0.59979
 N2878 N 1.09340 0.73024 0.59720
 C2879 C 1.08751 0.71118 0.58906
 C2880 C 1.06681 0.70688 0.58705
 C2881 C 1.06051 0.68824 0.57967
 C2882 C 1.07488 0.67354 0.57413
 C2883 C 1.09568 0.67799 0.57592
 C2884 C 1.10196 0.69663 0.58335
 H2885 H 1.16102 0.77887 0.62073
 H2886 H 1.14982 0.74695 0.60607
 H2887 H 1.08734 0.76560 0.61236
 H2888 H 1.09838 0.79766 0.62667
 H2889 H 1.05553 0.71798 0.59134
 H2890 H 1.04439 0.68535 0.57822
 H2891 H 1.10710 0.66689 0.57200
 H2892 H 1.11807 0.69959 0.58479
 C2893 C 0.64554 1.27062 0.62993
 C2894 C 0.63835 1.25285 0.62137
 C2895 C 0.61766 1.25049 0.61727
 C2896 C 0.60402 1.26603 0.62235
 C2897 C 0.61121 1.28386 0.63101
 C2898 C 0.63211 1.28644 0.63459
 N2899 N 0.61108 1.23235 0.60767
 N2900 N 0.59260 1.22913 0.60305
 C2901 C 0.58633 1.21092 0.59331
 C2902 C 0.56561 1.20767 0.58998
 C2903 C 0.55895 1.18981 0.58110
 C2904 C 0.57297 1.17489 0.57527
 C2905 C 0.59383 1.17838 0.57819
 C2906 C 0.60046 1.19621 0.58719
 H2907 H 0.66168 1.27206 0.63280
 H2908 H 0.64898 1.24095 0.61765
 H2909 H 0.58792 1.26452 0.61938
 H2910 H 0.60054 1.29584 0.63432
 H2911 H 0.55458 1.21891 0.59451
 H2912 H 0.54280 1.18761 0.57885
 H2913 H 0.60495 1.16708 0.57405
 H2914 H 0.61659 1.19839 0.58954
 C2915 C 0.64162 0.77566 1.12382
 C2916 C 0.63439 0.75763 1.11590
 C2917 C 0.61352 0.75446 1.11375
 C2918 C 0.59979 0.76946 1.12004
 C2919 C 0.60702 0.78754 1.12808
 C2920 C 0.62804 0.79090 1.12980
 N2921 N 0.60683 0.73600 1.10492
 N2922 N 0.58819 0.73215 1.10166
 C2923 C 0.58193 0.71357 1.09271
 C2924 C 0.56119 0.70994 1.08995
 C2925 C 0.55461 0.69179 1.08163
 C2926 C 0.56874 0.67694 1.07587
 C2927 C 0.58959 0.68074 1.07840
 C2928 C 0.59614 0.69888 1.08676
 H2929 H 0.65788 0.77772 1.12526
 H2930 H 0.64510 0.74614 1.11123
 H2931 H 0.58355 0.76730 1.11856
 H2932 H 0.59624 0.79907 1.13248
 H2933 H 0.55010 0.72117 1.09438
 H2934 H 0.53846 0.68937 1.07966
 H2935 H 0.60081 0.66950 1.07435
 H2936 H 0.61228 0.70132 1.08872
 C2937 C 0.85377 1.27299 0.87300
 C2938 C 0.86081 1.25499 0.88131
 C2939 C 0.88155 1.25209 0.88488
 C2940 C 0.89535 1.26735 0.87966
 C2941 C 0.88831 1.28540 0.87127
 C2942 C 0.86741 1.28848 0.86809
 N2943 N 0.88806 1.23364 0.89401
 N2944 N 0.90660 1.23001 0.89816
 C2945 C 0.91284 1.21149 0.90735
 C2946 C 0.93356 1.20800 0.91058
 C2947 C 0.94020 1.18986 0.91899
 C2948 C 0.92614 1.17490 0.92440
 C2949 C 0.90530 1.17859 0.92150
 C2950 C 0.89869 1.19671 0.91300
 H2951 H 0.83761 1.27482 0.87043
 H2952 H 0.85006 1.24329 0.88516
 H2953 H 0.91149 1.26543 0.88225
 H2954 H 0.89914 1.29713 0.86776
 H2955 H 0.94460 1.21931 0.90638
 H2956 H 0.95633 1.18752 0.92127
 H2957 H 0.89415 1.16725 0.92531
 H2958 H 0.88257 1.19906 0.91069
 C2959 C 0.90508 0.79537 0.37615
 C2960 C 0.91366 0.77753 0.38348
 C2961 C 0.90123 0.76179 0.39009
 C2962 C 0.88000 0.76406 0.38919
 C2963 C 0.87141 0.78187 0.38188
 C2964 C 0.88384 0.79777 0.37534
 N2965 N 0.91045 0.74375 0.39768
 N2966 N 0.89985 0.72902 0.40394
 C2967 C 0.90875 0.71088 0.41163
 C2968 C 0.89591 0.69539 0.41796
 C2969 C 0.90397 0.67744 0.42550
 C2970 C 0.92513 0.67467 0.42688
 C2971 C 0.93803 0.69029 0.42051
 C2972 C 0.92992 0.70826 0.41295
 H2973 H 0.91506 0.80741 0.37141
 H2974 H 0.93004 0.77599 0.38412
 H2975 H 0.87003 0.75210 0.39412
 H2976 H 0.85501 0.78313 0.38116
 H2977 H 0.87957 0.69720 0.41695
 H2978 H 0.89363 0.66560 0.42995
 H2979 H 0.95438 0.68869 0.42157
 H2980 H 0.94016 0.72006 0.40820
 C2981 C 0.35972 1.27910 0.38461
 C2982 C 0.36615 1.26089 0.39295
 C2983 C 0.38686 1.25632 0.39422
 C2984 C 0.40121 1.27017 0.38691
 C2985 C 0.39479 1.28839 0.37847
 C2986 C 0.37398 1.29306 0.37733
 N2987 N 0.39281 1.23747 0.40282
 N2988 N 0.41135 1.23250 0.40509
 C2989 C 0.41709 1.21345 0.41343
 C2990 C 0.43774 1.20884 0.41543
 C2991 C 0.44383 1.19011 0.42283
 C2992 C 0.42930 1.17564 0.42835
 C2993 C 0.40855 1.18044 0.42664
 C2994 C 0.40248 1.19918 0.41924
 H2995 H 0.34358 1.28218 0.38364
 H2996 H 0.35496 1.25029 0.39843
 H2997 H 0.41733 1.26692 0.38771
 H2998 H 0.40609 1.29895 0.37311
 H2999 H 0.44912 1.21975 0.41107
 H3000 H 0.45992 1.18692 0.42423
 H3001 H 0.39701 1.16951 0.43054
 H3002 H 0.38640 1.20239 0.41780
 C3003 C 0.35581 0.78086 0.88468
 C3004 C 0.36195 0.76285 0.89370
 C3005 C 0.38259 0.75861 0.89640
 C3006 C 0.39717 0.77269 0.89004
 C3007 C 0.39105 0.79070 0.88097
 C3008 C 0.37030 0.79495 0.87815
 N3009 N 0.38832 0.73976 0.90517
 N3010 N 0.40681 0.73495 0.90815
 C3011 C 0.41251 0.71587 0.91644
 C3012 C 0.43315 0.71147 0.91896
 C3013 C 0.43928 0.69265 0.92611
 C3014 C 0.42479 0.67788 0.93088
 C3015 C 0.40404 0.68248 0.92873
 C3016 C 0.39793 0.70131 0.92155
 H3017 H 0.33973 0.78358 0.88245
 H3018 H 0.35059 0.75208 0.89844
 H3019 H 0.41324 0.76974 0.89198
 H3020 H 0.40254 0.80137 0.87628
 H3021 H 0.44452 0.72259 0.91513
 H3022 H 0.45537 0.68962 0.92787
 H3023 H 0.39255 0.67133 0.93207
 H3024 H 0.38186 0.70436 0.91970
 C3025 C 1.09427 0.70392 0.87862
 C3026 C 1.08599 0.72192 0.88587
 C3027 C 1.09869 0.73758 0.89204
 C3028 C 1.11988 0.73504 0.89093
 C3029 C 1.12817 0.71708 0.88372
 C3030 C 1.11547 0.70132 0.87747
 N3031 N 1.08979 0.75591 0.89926
 N3032 N 1.10069 0.77067 0.90482
 C3033 C 1.09218 0.78914 0.91204
 C3034 C 1.10535 0.80460 0.91767
 C3035 C 1.09766 0.82287 0.92475
 C3036 C 1.07657 0.82599 0.92635
 C3037 C 1.06334 0.81043 0.92065
 C3038 C 1.07107 0.79213 0.91356
 H3039 H 1.08411 0.69198 0.87409
 H3040 H 1.06963 0.72368 0.88669
 H3041 H 1.13005 0.74694 0.89554
 H3042 H 1.14455 0.71564 0.88273
 H3043 H 1.12164 0.80248 0.91648
 H3044 H 1.10824 0.83466 0.92870
 H3045 H 1.04703 0.81233 0.92190
 H3046 H 1.06058 0.78036 0.90932
 C3047 C 1.09941 0.20292 0.37504
 C3048 C 1.09059 0.22083 0.38185
 C3049 C 1.10278 0.23683 0.38811
 C3050 C 1.12405 0.23461 0.38776
 C3051 C 1.13291 0.21667 0.38103
 C3052 C 1.12068 0.20067 0.37446
 N3053 N 1.09324 0.25513 0.39465
 N3054 N 1.10354 0.27045 0.39979
 C3055 C 1.09430 0.28883 0.40645
 C3056 C 1.10688 0.30479 0.41199
 C3057 C 1.09853 0.32280 0.41902
 C3058 C 1.07734 0.32520 0.42067
 C3059 C 1.06467 0.30927 0.41475
 C3060 C 1.07307 0.29119 0.40773
 H3061 H 1.08959 0.19077 0.37032
 H3062 H 1.07419 0.22229 0.38213
 H3063 H 1.13384 0.24676 0.39255
 H3064 H 1.14932 0.21548 0.38055
 H3065 H 1.12324 0.30320 0.41095
 H3066 H 1.10869 0.33490 0.42312
 H3067 H 1.04830 0.31064 0.41598
 H3068 H 1.06302 0.27906 0.40350
 C3069 C 0.59982 0.70289 0.38336
 C3070 C 0.59144 0.72078 0.39069
 C3071 C 0.60395 0.73706 0.39542
 C3072 C 0.62514 0.73508 0.39320
 C3073 C 0.63356 0.71715 0.38591
 C3074 C 0.62096 0.70096 0.38065
 N3075 N 0.59476 0.75548 0.40200
 N3076 N 0.60524 0.77104 0.40590
 C3077 C 0.59618 0.78960 0.41228
 C3078 C 0.60887 0.80574 0.41696
 C3079 C 0.60066 0.82400 0.42345
 C3080 C 0.57949 0.82647 0.42535
 C3081 C 0.56672 0.81033 0.42034
 C3082 C 0.57499 0.79200 0.41391
 H3083 H 0.58976 0.69058 0.37968
 H3084 H 0.57512 0.72207 0.39243
 H3085 H 0.63515 0.74745 0.39678
 H3086 H 0.64986 0.71618 0.38380
 H3087 H 0.62521 0.80412 0.41564
 H3088 H 0.61087 0.83626 0.42690
 H3089 H 0.55038 0.81176 0.42179
 H3090 H 0.56485 0.77973 0.41031
 C3091 C 0.64568 0.23106 0.87289
 C3092 C 0.63862 0.24886 0.88161
 C3093 C 0.61797 0.25137 0.88594
 C3094 C 0.60426 0.23592 0.88115
 C3095 C 0.61130 0.21809 0.87238
 C3096 C 0.63213 0.21541 0.86835
 N3097 N 0.61142 0.26967 0.89529
 N3098 N 0.59293 0.27300 0.89990
 C3099 C 0.58660 0.29140 0.90921
 C3100 C 0.56588 0.29466 0.91270
 C3101 C 0.55913 0.31277 0.92106
 C3102 C 0.57308 0.32789 0.92618
 C3103 C 0.59393 0.32440 0.92309
 C3104 C 0.60065 0.30633 0.91463
 H3105 H 0.66176 0.22955 0.86967
 H3106 H 0.64930 0.26071 0.88512
 H3107 H 0.58820 0.23755 0.88435
 H3108 H 0.60056 0.20621 0.86920
 H3109 H 0.55492 0.28324 0.90867
 H3110 H 0.54299 0.31499 0.92348
 H3111 H 0.60499 0.33588 0.92669
 H3112 H 0.61677 0.30413 0.91212
 C3113 C 0.89688 0.70957 1.13038
 C3114 C 0.90647 0.72680 1.12292
 C3115 C 0.89496 0.74324 1.11626
 C3116 C 0.87363 0.74226 1.11714
 C3117 C 0.86403 0.72506 1.12457
 C3118 C 0.87553 0.70851 1.13126
 N3119 N 0.90520 0.76067 1.10863
 N3120 N 0.89540 0.77600 1.10243
 C3121 C 0.90517 0.79358 1.09462
 C3122 C 0.89305 0.80952 1.08790
 C3123 C 0.90191 0.82681 1.07987
 C3124 C 0.92317 0.82848 1.07839
 C3125 C 0.93537 0.81253 1.08538
 C3126 C 0.92645 0.79517 1.09339
 H3127 H 0.90614 0.69699 1.13523
 H3128 H 0.92291 0.72733 1.12228
 H3129 H 0.86437 0.75478 1.11214
 H3130 H 0.84759 0.72482 1.12533
 H3131 H 0.87665 0.80850 1.08886
 H3132 H 0.89211 0.83898 1.07496
 H3133 H 0.95178 0.81335 1.08432
 H3134 H 0.93614 0.78302 1.09851
 C3135 C 0.90011 0.20419 0.62368
 C3136 C 0.90895 0.22183 0.61628
 C3137 C 0.89677 0.23765 0.60930
 C3138 C 0.87550 0.23554 0.60963
 C3139 C 0.86664 0.21788 0.61696
 C3140 C 0.87884 0.20203 0.62417
 N3141 N 0.90633 0.25564 0.60209
 N3142 N 0.89608 0.27078 0.59613
 C3143 C 0.90544 0.28886 0.58889
 C3144 C 0.89298 0.30483 0.58285
 C3145 C 0.90148 0.32265 0.57558
 C3146 C 0.92271 0.32484 0.57416
 C3147 C 0.93522 0.30881 0.58040
 C3148 C 0.92667 0.29095 0.58768
 H3149 H 0.90992 0.19216 0.62888
 H3150 H 0.92535 0.22321 0.61605
 H3151 H 0.86573 0.24756 0.60432
 H3152 H 0.85022 0.21677 0.61735
 H3153 H 0.87661 0.30345 0.58380
 H3154 H 0.89141 0.33482 0.57125
 H3155 H 0.95161 0.30996 0.57933
 H3156 H 0.93664 0.27880 0.59226
 C3157 C 0.40125 0.70596 0.62592
 C3158 C 0.41050 0.72349 0.61877
 C3159 C 0.39866 0.73966 0.61202
 C3160 C 0.37735 0.73809 0.61245
 C3161 C 0.36810 0.72058 0.61954
 C3162 C 0.37994 0.70431 0.62636
 N3163 N 0.40851 0.75746 0.60477
 N3164 N 0.39836 0.77268 0.59887
 C3165 C 0.40769 0.79062 0.59141
 C3166 C 0.39518 0.80651 0.58531
 C3167 C 0.40361 0.82417 0.57763
 C3168 C 0.42481 0.82625 0.57588
 C3169 C 0.43740 0.81034 0.58225
 C3170 C 0.42892 0.79263 0.58994
 H3171 H 0.41076 0.69360 0.63090
 H3172 H 0.42692 0.72449 0.61846
 H3173 H 0.36783 0.75039 0.60736
 H3174 H 0.35166 0.71988 0.61998
 H3175 H 0.37882 0.80517 0.58647
 H3176 H 0.39351 0.83628 0.57321
 H3177 H 0.45377 0.81147 0.58096
 H3178 H 0.43890 0.78051 0.59457
 C3179 C 0.37593 0.20648 1.10058
 C3180 C 0.38295 0.22413 1.09147
 C3181 C 0.38861 0.24061 1.10330
 C3182 C 0.38724 0.23920 1.12449
 C3183 C 0.38026 0.22157 1.13362
 C3184 C 0.37449 0.20501 1.12178
 N3185 N 0.39566 0.25853 1.09353
 N3186 N 0.40091 0.27395 1.10359
 C3187 C 0.40807 0.29201 1.09421
 C3188 C 0.41389 0.30801 1.10657
 C3189 C 0.42128 0.32577 1.09808
 C3190 C 0.42298 0.32785 1.07696
 C3191 C 0.41687 0.31184 1.06452
 C3192 C 0.40951 0.29402 1.07307
 H3193 H 0.37182 0.19390 1.09106
 H3194 H 0.38398 0.22499 1.07513
 H3195 H 0.39149 0.25174 1.13400
 H3196 H 0.37905 0.22101 1.14996
 H3197 H 0.41275 0.30668 1.12286
 H3198 H 0.42553 0.33796 1.10805
 H3199 H 0.41813 0.31298 1.04822
 H3200 H 0.40508 0.28183 1.06320
 C3201 C 1.10895 1.14050 0.71489
 C3202 C 1.10054 1.13391 0.73314
 C3203 C 1.10151 1.11368 0.73863
 C3204 C 1.11086 1.09990 0.72551
 C3205 C 1.11941 1.10642 0.70728
 C3206 C 1.11879 1.12692 0.70161
 N3207 N 1.09341 1.10763 0.75780
 N3208 N 1.09318 1.08934 0.76346
 C3209 C 1.08560 1.08342 0.78288
 C3210 C 1.08482 1.06298 0.78771
 C3211 C 1.07804 1.05672 0.80675
 C3212 C 1.07200 1.07090 0.82137
 C3213 C 1.07269 1.09145 0.81640
 C3214 C 1.07939 1.09767 0.79733
 H3215 H 1.10855 1.15647 0.71190
 H3216 H 1.09350 1.14470 0.74324
 H3217 H 1.11165 1.08410 0.72935
 H3218 H 1.12591 1.09510 0.69746
 H3219 H 1.08954 1.05186 0.77669
 H3220 H 1.07743 1.04078 0.81000
 H3221 H 1.06845 1.10276 0.82741
 H3222 H 1.07997 1.11358 0.79400
 C3223 C 1.09538 0.62253 0.20265
 C3224 C 1.08698 0.61484 0.22044
 C3225 C 1.09935 0.60584 0.23500
 C3226 C 1.12027 0.60387 0.23125
 C3227 C 1.12874 0.61135 0.21336
 C3228 C 1.11653 0.62130 0.19887
 N3229 N 1.09040 0.59933 0.25364
 N3230 N 1.10115 0.59301 0.26832
 C3231 C 1.09241 0.58672 0.28712
 C3232 C 1.10538 0.58069 0.30272
 C3233 C 1.09747 0.57442 0.32128
 C3234 C 1.07633 0.57397 0.32453
 C3235 C 1.06330 0.58025 0.30890
 C3236 C 1.07127 0.58657 0.29031
 H3237 H 1.08505 0.62904 0.19172
 H3238 H 1.07077 0.61617 0.22303
 H3239 H 1.13016 0.59689 0.24231
 H3240 H 1.14506 0.61032 0.21167
 H3241 H 1.12169 0.58088 0.30048
 H3242 H 1.10792 0.57003 0.33314
 H3243 H 1.04696 0.57990 0.31091
 H3244 H 1.06093 0.59120 0.27845
 C3245 C 0.61519 1.14252 0.21902
 C3246 C 0.60731 1.13560 0.23736
 C3247 C 0.60555 1.11500 0.24107
 C3248 C 0.61181 1.10125 0.22616
 C3249 C 0.61973 1.10815 0.20778
 C3250 C 0.62147 1.12888 0.20401
 N3251 N 0.59753 1.10853 0.26013
 N3252 N 0.59541 1.09007 0.26464
 C3253 C 0.58754 1.08388 0.28387
 C3254 C 0.58584 1.06335 0.28807
 C3255 C 0.57864 1.05684 0.30687
 C3256 C 0.57297 1.07084 0.32179
 C3257 C 0.57451 1.09146 0.31745
 C3258 C 0.58173 1.09794 0.29866
 H3259 H 0.61663 1.15856 0.21668
 H3260 H 0.60262 1.14633 0.24878
 H3261 H 0.61058 1.08522 0.22870
 H3262 H 0.62428 1.09730 0.19643
 H3263 H 0.59022 1.05237 0.27678
 H3264 H 0.57740 1.04086 0.30971
 H3265 H 0.57052 1.10259 0.32873
 H3266 H 0.58294 1.11391 0.29580
 C3267 C 0.64628 0.62071 0.72392
 C3268 C 0.63893 0.61230 0.74186
 C3269 C 0.61801 0.61039 0.74510
 C3270 C 0.60440 0.61685 0.73006
 C3271 C 0.61172 0.62527 0.71209
 C3272 C 0.63275 0.62738 0.70887
 N3273 N 0.61105 0.60217 0.76389
 N3274 N 0.59226 0.60027 0.76805
 C3275 C 0.58547 0.59227 0.78701
 C3276 C 0.56459 0.59066 0.79070
 C3277 C 0.55750 0.58321 0.80919
 C3278 C 0.57127 0.57720 0.82431
 C3279 C 0.59224 0.57878 0.82052
 C3280 C 0.59930 0.58623 0.80204
 H3281 H 0.66254 0.62239 0.72200
 H3282 H 0.64956 0.60743 0.75337
 H3283 H 0.58814 0.61547 0.73220
 H3284 H 0.60094 0.63004 0.70068
 H3285 H 0.55379 0.59524 0.77922
 H3286 H 0.54127 0.58197 0.81160
 H3287 H 0.60321 0.57456 0.83197
 H3288 H 0.61553 0.58740 0.79959
 C3289 C 0.87994 0.85486 0.72328
 C3290 C 0.88804 0.86195 0.74141
 C3291 C 0.89002 0.88258 0.74476
 C3292 C 0.88346 0.89619 0.72982
 C3293 C 0.87525 0.88910 0.71166
 C3294 C 0.87361 0.86834 0.70814
 N3295 N 0.89884 0.88918 0.76337
 N3296 N 0.90183 0.90764 0.76733
 C3297 C 0.91065 0.91394 0.78608
 C3298 C 0.91311 0.93448 0.78975
 C3299 C 0.92118 0.94112 0.80811
 C3300 C 0.92698 0.92725 0.82312
 C3301 C 0.92480 0.90661 0.81926
 C3302 C 0.91669 0.89999 0.80092
 H3303 H 0.87856 0.83879 0.72111
 H3304 H 0.89293 0.85133 0.75285
 H3305 H 0.88481 0.91223 0.73211
 H3306 H 0.87061 0.89981 0.70019
 H3307 H 0.90860 0.94537 0.77841
 H3308 H 0.92290 0.95711 0.81057
 H3309 H 0.92890 0.89559 0.83063
 H3310 H 0.91495 0.88401 0.79844
 C3311 C 0.87683 0.35152 0.22596
 C3312 C 0.88581 0.35906 0.24352
 C3313 C 0.88766 0.37979 0.24643
 C3314 C 0.88044 0.39301 0.23145
 C3315 C 0.87141 0.38549 0.21387
 C3316 C 0.86950 0.36464 0.21093
 N3317 N 0.89670 0.38691 0.26478
 N3318 N 0.89901 0.40552 0.26853
 C3319 C 0.90786 0.41241 0.28707
 C3320 C 0.90997 0.43308 0.29028
 C3321 C 0.91818 0.44028 0.30837
 C3322 C 0.92445 0.42687 0.32362
 C3323 C 0.92244 0.40610 0.32028
 C3324 C 0.91423 0.39892 0.30219
 H3325 H 0.87532 0.33541 0.22430
 H3326 H 0.89124 0.34872 0.25498
 H3327 H 0.88172 0.40911 0.23335
 H3328 H 0.86610 0.39596 0.20248
 H3329 H 0.90516 0.44363 0.27874
 H3330 H 0.91974 0.45635 0.31040
 H3331 H 0.92684 0.39539 0.33183
 H3332 H 0.91270 0.38287 0.30012
 C3333 C 0.40379 0.88063 0.20303
 C3334 C 0.41262 0.88776 0.22086
 C3335 C 0.40047 0.89262 0.23756
 C3336 C 0.37926 0.89048 0.23617
 C3337 C 0.37042 0.88339 0.21838
 C3338 C 0.38259 0.87829 0.20164
 N3339 N 0.40993 0.89948 0.25578
 N3340 N 0.39951 0.90381 0.27141
 C3341 C 0.40848 0.91065 0.28985
 C3342 C 0.39569 0.91555 0.30602
 C3343 C 0.40377 0.92254 0.32419
 C3344 C 0.42489 0.92473 0.32651
 C3345 C 0.43778 0.91954 0.31033
 C3346 C 0.42964 0.91259 0.29209
 H3347 H 0.41352 0.87700 0.19031
 H3348 H 0.42897 0.88940 0.22172
 H3349 H 0.36952 0.89410 0.24888
 H3350 H 0.35409 0.88146 0.21789
 H3351 H 0.37938 0.91401 0.30449
 H3352 H 0.39350 0.92611 0.33650
 H3353 H 0.45409 0.92121 0.31168
 H3354 H 0.43983 0.90885 0.27977
 C3355 C 0.40485 0.37615 0.70377
 C3356 C 0.41322 0.38378 0.72159
 C3357 C 0.40090 0.39322 0.73595
 C3358 C 0.38004 0.39540 0.73210
 C3359 C 0.37161 0.38798 0.71422
 C3360 C 0.38379 0.37794 0.69974
 N3361 N 0.40984 0.40023 0.75439
 N3362 N 0.39907 0.40726 0.76875
 C3363 C 0.40770 0.41428 0.78731
 C3364 C 0.39463 0.42056 0.80276
 C3365 C 0.40243 0.42748 0.82110
 C3366 C 0.42355 0.42839 0.82427
 C3367 C 0.43668 0.42200 0.80871
 C3368 C 0.42883 0.41498 0.79037
 H3369 H 0.41518 0.36945 0.69295
 H3370 H 0.42938 0.38222 0.72428
 H3371 H 0.37016 0.40264 0.74302
 H3372 H 0.35533 0.38930 0.71245
 H3373 H 0.37833 0.41998 0.80060
 H3374 H 0.39189 0.43191 0.83289
 H3375 H 0.45301 0.42271 0.81061
 H3376 H 0.43925 0.41023 0.77860
 C3377 C 1.09746 0.87467 1.29548
 C3378 C 1.08891 0.88220 1.27765
 C3379 C 1.10104 0.89167 1.26318
 C3380 C 1.12191 0.89392 1.26689
 C3381 C 1.13050 0.88659 1.28477
 C3382 C 1.11851 0.87658 1.29940
 N3383 N 1.09191 0.89867 1.24480
 N3384 N 1.10251 0.90580 1.23037
 C3385 C 1.09368 0.91284 1.21187
 C3386 C 1.10657 0.91924 1.19634
 C3387 C 1.09858 0.92620 1.17807
 C3388 C 1.07743 0.92704 1.17504
 C3389 C 1.06447 0.92053 1.19068
 C3390 C 1.07252 0.91346 1.20895
 H3391 H 1.08725 0.86797 1.30639
 H3392 H 1.07274 0.88057 1.27507
 H3393 H 1.13165 0.90116 1.25588
 H3394 H 1.14679 0.88798 1.28644
 H3395 H 1.12290 0.91872 1.19839
 H3396 H 1.10899 0.93073 1.16622
 H3397 H 1.04812 0.92119 1.18889
 H3398 H 1.06224 0.90863 1.22078
 C3399 C 1.12032 0.35343 0.77783
 C3400 C 1.11214 0.35996 0.75947
 C3401 C 1.11037 0.38048 0.75526
 C3402 C 1.11708 0.39453 0.76963
 C3403 C 1.12536 0.38802 0.78801
 C3404 C 1.12695 0.36738 0.79234
 N3405 N 1.10178 0.38657 0.73631
 N3406 N 1.09913 0.40495 0.73166
 C3407 C 1.09068 0.41093 0.71260
 C3408 C 1.08838 0.43141 0.70844
 C3409 C 1.08073 0.43779 0.68978
 C3410 C 1.07522 0.42371 0.67492
 C3411 C 1.07726 0.40311 0.67926
 C3412 C 1.08494 0.39676 0.69793
 H3413 H 1.12164 0.33744 0.78061
 H3414 H 1.10713 0.34899 0.74847
 H3415 H 1.11589 0.41050 0.76670
 H3416 H 1.13018 0.39909 0.79897
 H3417 H 1.09267 0.44247 0.71964
 H3418 H 1.07908 0.45375 0.68699
 H3419 H 1.07337 0.39193 0.66804
 H3420 H 1.08659 0.38082 0.70078
 C3421 C 0.64399 0.87677 0.77666
 C3422 C 0.63740 0.88514 0.75844
 C3423 C 0.61666 0.88756 0.75460
 C3424 C 0.60241 0.88107 0.76908
 C3425 C 0.60900 0.87257 0.78733
 C3426 C 0.62988 0.87060 0.79139
 N3427 N 0.61059 0.89682 0.73599
 N3428 N 0.59208 0.90048 0.73177
 C3429 C 0.58627 0.90975 0.71307
 C3430 C 0.56562 0.91278 0.70907
 C3431 C 0.55940 0.92115 0.69069
 C3432 C 0.57380 0.92667 0.67596
 C3433 C 0.59457 0.92403 0.68018
 C3434 C 0.60077 0.91560 0.69857
 H3435 H 0.66017 0.87516 0.77928
 H3436 H 0.64850 0.88997 0.74735
 H3437 H 0.58627 0.88273 0.76639
 H3438 H 0.59782 0.86803 0.79847
 H3439 H 0.55431 0.90843 0.72016
 H3440 H 0.54330 0.92323 0.68795
 H3441 H 0.60599 0.92794 0.66904
 H3442 H 0.61685 0.91344 0.70132
 C3443 C 0.63118 0.39806 1.29246
 C3444 C 0.62385 0.40749 1.27500
 C3445 C 0.61361 0.39648 1.26023
 C3446 C 0.61050 0.37584 1.26323
 C3447 C 0.61762 0.36638 1.28074
 C3448 C 0.62825 0.37724 1.29573
 N3449 N 0.60652 0.40652 1.24237
 N3450 N 0.59882 0.39685 1.22767
 C3451 C 0.59142 0.40646 1.20972
 C3452 C 0.58456 0.39443 1.19383
 C3453 C 0.57693 0.40314 1.17618
 C3454 C 0.57584 0.42417 1.17413
 C3455 C 0.58293 0.43626 1.19007
 C3456 C 0.59068 0.42748 1.20773
 H3457 H 0.63846 0.40742 1.30366
 H3458 H 0.62617 0.42347 1.27297
 H3459 H 0.60268 0.36695 1.25199
 H3460 H 0.61548 0.35031 1.28188
 H3461 H 0.58515 0.37822 1.19515
 H3462 H 0.57201 0.39338 1.16405
 H3463 H 0.58214 0.45248 1.18903
 H3464 H 0.59587 0.43709 1.21986
 C3465 C 0.90046 1.12669 1.29568
 C3466 C 0.90925 1.11933 1.27789
 C3467 C 0.89721 1.11084 1.26280
 C3468 C 0.87615 1.10938 1.26586
 C3469 C 0.86728 1.11657 1.28370
 C3470 C 0.87921 1.12564 1.29894
 N3471 N 0.90668 1.10400 1.24449
 N3472 N 0.89634 1.09746 1.22964
 C3473 C 0.90554 1.09057 1.21124
 C3474 C 0.89295 1.08427 1.19548
 C3475 C 0.90129 1.07726 1.17736
 C3476 C 0.92250 1.07632 1.17469
 C3477 C 0.93516 1.08287 1.19049
 C3478 C 0.92676 1.08993 1.20864
 H3479 H 0.91061 1.13258 1.30707
 H3480 H 0.92556 1.12031 1.27582
 H3481 H 0.86647 1.10290 1.25438
 H3482 H 0.85090 1.11585 1.28487
 H3483 H 0.87659 1.08480 1.19726
 H3484 H 0.89111 1.07270 1.16537
 H3485 H 0.95154 1.08218 1.18896
 H3486 H 0.93682 1.09473 1.22063
 C3487 C 0.85413 0.62036 0.77637
 C3488 C 0.86129 0.61122 0.75869
 C3489 C 0.88213 0.60824 0.75569
 C3490 C 0.89586 0.61446 0.77069
 C3491 C 0.88873 0.62362 0.78839
 C3492 C 0.86778 0.62671 0.79142
 N3493 N 0.88891 0.59914 0.73721
 N3494 N 0.90764 0.59611 0.73337
 C3495 C 0.91437 0.58727 0.71474
 C3496 C 0.93524 0.58483 0.71137
 C3497 C 0.94236 0.57683 0.69312
 C3498 C 0.92866 0.57108 0.67788
 C3499 C 0.90768 0.57330 0.68142
 C3500 C 0.90059 0.58134 0.69967
 H3501 H 0.83794 0.62277 0.77811
 H3502 H 0.85056 0.60657 0.74721
 H3503 H 0.91206 0.61229 0.76874
 H3504 H 0.89960 0.62812 0.79980
 H3505 H 0.94602 0.58929 0.72288
 H3506 H 0.95859 0.57510 0.69094
 H3507 H 0.89676 0.56925 0.66989
 H3508 H 0.88437 0.58310 0.70189
 C3509 C 0.37169 1.14877 0.76970
 C3510 C 0.38016 1.14084 0.75205
 C3511 C 0.38316 1.12014 0.75007
 C3512 C 0.37720 1.10727 0.76588
 C3513 C 0.36865 1.11519 0.78358
 C3514 C 0.36604 1.13606 0.78575
 N3515 N 0.39252 1.11273 0.73198
 N3516 N 0.39622 1.09417 0.72912
 C3517 C 0.40574 1.08715 0.71093
 C3518 C 0.40866 1.06649 0.70823
 C3519 C 0.41755 1.05918 0.69047
 C3520 C 0.42376 1.07248 0.67512
 C3521 C 0.42106 1.09324 0.67800
 C3522 C 0.41211 1.10052 0.69572
 H3523 H 0.36957 1.16487 0.77082
 H3524 H 0.38458 1.15088 0.73992
 H3525 H 0.37935 1.09119 0.76466
 H3526 H 0.36456 1.10507 0.79576
 H3527 H 0.40390 1.05604 0.71987
 H3528 H 0.41962 1.04312 0.68873
 H3529 H 0.42545 1.10383 0.66633
 H3530 H 0.41004 1.11657 0.69745
 C3531 C 0.38762 0.64112 1.28589
 C3532 C 0.39509 0.63457 1.26723
 C3533 C 0.39370 0.61440 1.26167
 C3534 C 0.38462 0.60070 1.27503
 C3535 C 0.37696 0.60719 1.29368
 C3536 C 0.37833 0.62757 1.29958
 N3537 N 0.40145 0.60834 1.24234
 N3538 N 0.40180 0.59005 1.23672
 C3539 C 0.40934 0.58417 1.21724
 C3540 C 0.41047 0.56372 1.21249
 C3541 C 0.41754 0.55750 1.19353
 C3542 C 0.42353 0.57169 1.17891
 C3543 C 0.42241 0.59224 1.18377
 C3544 C 0.41543 0.59844 1.20276
 H3545 H 0.38842 0.65704 1.28901
 H3546 H 0.40188 0.64533 1.25695
 H3547 H 0.38345 0.58496 1.27109
 H3548 H 0.37072 0.59591 1.30368
 H3549 H 0.40588 0.55258 1.22353
 H3550 H 0.41847 0.54156 1.19039
 H3551 H 0.42659 0.60357 1.17276
 H3552 H 0.41460 0.61435 1.20603
 C3553 C 1.12581 1.29301 0.89948
 C3554 C 1.11809 1.27571 0.90867
 C3555 C 1.10843 1.26103 0.89713
 C3556 C 1.10597 1.26408 0.87627
 C3557 C 1.11347 1.28142 0.86704
 C3558 C 1.12387 1.29614 0.87839
 N3559 N 1.10161 1.24300 0.90679
 N3560 N 1.09477 1.22831 0.89659
 C3561 C 1.08797 1.21007 0.90578
 C3562 C 1.08187 1.19432 0.89325
 C3563 C 1.07511 1.17627 0.90156
 C3564 C 1.07420 1.17369 0.92267
 C3565 C 1.08048 1.18951 0.93528
 C3566 C 1.08734 1.20758 0.92690
 H3567 H 1.13279 1.30410 0.90917
 H3568 H 1.11985 1.27364 0.92483
 H3569 H 1.09853 1.25291 0.86699
 H3570 H 1.11201 1.28253 0.85078
 H3571 H 1.08243 1.19605 0.87696
 H3572 H 1.07076 1.16424 0.89145
 H3573 H 1.07978 1.18802 0.95158
 H3574 H 1.09199 1.21960 0.93688
 C3575 C 1.09881 0.79491 0.37719
 C3576 C 1.09044 0.77713 0.38469
 C3577 C 1.10278 0.76258 0.39369
 C3578 C 1.12369 0.76625 0.39568
 C3579 C 1.13213 0.78415 0.38838
 C3580 C 1.11992 0.79873 0.37859
 N3581 N 1.09372 0.74415 0.40037
 N3582 N 1.10428 0.72948 0.40694
 C3583 C 1.09527 0.71098 0.41348
 C3584 C 1.10800 0.69523 0.41951
 C3585 C 1.09981 0.67698 0.42599
 C3586 C 1.07861 0.67416 0.42670
 C3587 C 1.06583 0.68999 0.42048
 C3588 C 1.07408 0.70825 0.41392
 H3589 H 1.08843 0.80584 0.37081
 H3590 H 1.07424 0.77461 0.38333
 H3591 H 1.13357 0.75520 0.40263
 H3592 H 1.14843 0.78586 0.38953
 H3593 H 1.12434 0.69709 0.41911
 H3594 H 1.11010 0.66499 0.43030
 H3595 H 1.04947 0.68837 0.42103
 H3596 H 1.06391 0.72023 0.40934
 C3597 C 0.60149 1.29252 0.37133
 C3598 C 0.59226 1.27498 0.37851
 C3599 C 0.60410 1.25864 0.38483
 C3600 C 0.62540 1.26003 0.38387
 C3601 C 0.63464 1.27754 0.37671
 C3602 C 0.62280 1.29401 0.37038
 N3603 N 0.59420 1.24091 0.39224
 N3604 N 0.60426 1.22567 0.39828
 C3605 C 0.59476 1.20783 0.40587
 C3606 C 0.60712 1.19204 0.41254
 C3607 C 0.59852 1.17452 0.42036
 C3608 C 0.57729 1.17244 0.42167
 C3609 C 0.56485 1.18824 0.41473
 C3610 C 0.57351 1.20583 0.40693
 H3611 H 0.59195 1.30502 0.36678
 H3612 H 0.57584 1.27414 0.37922
 H3613 H 0.63492 1.24759 0.38861
 H3614 H 0.65108 1.27810 0.37589
 H3615 H 0.62351 1.19337 0.41171
 H3616 H 0.60851 1.16249 0.42525
 H3617 H 0.54846 1.18712 0.41567
 H3618 H 0.56363 1.21785 0.40185
 C3619 C 0.64294 0.77853 0.88061
 C3620 C 0.63595 0.76061 0.88910
 C3621 C 0.61511 0.75677 0.89049
 C3622 C 0.60120 0.77106 0.88303
 C3623 C 0.60819 0.78900 0.87442
 C3624 C 0.62915 0.79298 0.87326
 N3625 N 0.60858 0.73829 0.89949
 N3626 N 0.58990 0.73399 0.90200
 C3627 C 0.58360 0.71537 0.91091
 C3628 C 0.56282 0.71156 0.91315
 C3629 C 0.55614 0.69332 0.92128
 C3630 C 0.57021 0.67853 0.92733
 C3631 C 0.59110 0.68253 0.92533
 C3632 C 0.59775 0.70077 0.91719
 H3633 H 0.65917 0.78103 0.87964
 H3634 H 0.64680 0.74967 0.89469
 H3635 H 0.58500 0.76840 0.88390
 H3636 H 0.59723 0.79991 0.86902
 H3637 H 0.55176 0.72271 0.90845
 H3638 H 0.53996 0.69080 0.92286
 H3639 H 0.60230 0.67135 0.92961
 H3640 H 0.61391 0.70334 0.91560
 C3641 C 0.85061 1.27366 1.12054
 C3642 C 0.85805 1.25633 1.11122
 C3643 C 0.87881 1.25203 1.11130
 C3644 C 0.89219 1.26518 1.12111
 C3645 C 0.88480 1.28249 1.13064
 C3646 C 0.86382 1.28722 1.13041
 N3647 N 0.88577 1.23410 1.10151
 N3648 N 0.90454 1.22982 1.09967
 C3649 C 0.91124 1.21164 1.09014
 C3650 C 0.93209 1.20809 1.08802
 C3651 C 0.93912 1.19017 1.07947
 C3652 C 0.92533 1.17541 1.07296
 C3653 C 0.90436 1.17918 1.07480
 C3654 C 0.89736 1.19714 1.08330
 H3655 H 0.83431 1.27583 1.12061
 H3656 H 0.84755 1.24614 1.10394
 H3657 H 0.90837 1.26214 1.12134
 H3658 H 0.89580 1.29249 1.13739
 H3659 H 0.94292 1.21919 1.09316
 H3660 H 0.95535 1.18783 1.07801
 H3661 H 0.89337 1.16801 1.07019
 H3662 H 0.88115 1.19951 1.08482
 C3663 C 0.90137 0.79184 0.62425
 C3664 C 0.91064 0.77434 0.61697
 C3665 C 0.89883 0.75800 0.61088
 C3666 C 0.87752 0.75946 0.61177
 C3667 C 0.86823 0.77695 0.61897
 C3668 C 0.88006 0.79326 0.62546
 N3669 N 0.90876 0.74003 0.60410
 N3670 N 0.89870 0.72449 0.59920
 C3671 C 0.90818 0.70633 0.59240
 C3672 C 0.89579 0.69020 0.58696
 C3673 C 0.90435 0.67236 0.57984
 C3674 C 0.92556 0.67033 0.57803
 C3675 C 0.93805 0.68641 0.58387
 C3676 C 0.92942 0.70433 0.59096
 H3677 H 0.91085 0.80426 0.62895
 H3678 H 0.92707 0.77344 0.61627
 H3679 H 0.86804 0.74703 0.60713
 H3680 H 0.85181 0.77752 0.61997
 H3681 H 0.87942 0.69154 0.58813
 H3682 H 0.89437 0.66010 0.57578
 H3683 H 0.95442 0.68527 0.58252
 H3684 H 0.93930 0.71662 0.59514
 C3685 C 0.40432 1.29504 0.62343
 C3686 C 0.41268 1.27708 0.61625
 C3687 C 0.40035 1.26253 0.60740
 C3688 C 0.37946 1.26635 0.60527
 C3689 C 0.37103 1.28439 0.61225
 C3690 C 0.38324 1.29902 0.62183
 N3691 N 0.40935 1.24395 0.60098
 N3692 N 0.39871 1.22940 0.59447
 C3693 C 0.40757 1.21075 0.58811
 C3694 C 0.39471 1.19524 0.58197
 C3695 C 0.40274 1.17687 0.57554
 C3696 C 0.42390 1.17370 0.57502
 C3697 C 0.43681 1.18926 0.58139
 C3698 C 0.42873 1.20765 0.58789
 H3699 H 0.41469 1.30597 0.62968
 H3700 H 0.42887 1.27444 0.61773
 H3701 H 0.36957 1.25529 0.59846
 H3702 H 0.35474 1.28619 0.61103
 H3703 H 0.37838 1.19740 0.58219
 H3704 H 0.39236 1.16508 0.57110
 H3705 H 0.45316 1.18735 0.58099
 H3706 H 0.43899 1.21944 0.59256
 C3707 C 0.40106 0.79665 1.12270
 C3708 C 0.40925 0.77873 1.11528
 C3709 C 0.39666 0.76399 1.10714
 C3710 C 0.37567 0.76762 1.10586
 C3711 C 0.36739 0.78563 1.11308
 C3712 C 0.37988 0.80040 1.12205
 N3713 N 0.40550 0.74537 1.10066
 N3714 N 0.39469 0.73068 1.09479
 C3715 C 0.40340 0.71196 1.08847
 C3716 C 0.39041 0.69635 1.08288
 C3717 C 0.39831 0.67789 1.07658
 C3718 C 0.41945 0.67473 1.07567
 C3719 C 0.43250 0.69039 1.08148
 C3720 C 0.42455 0.70887 1.08783
 H3721 H 0.41158 0.80772 1.12843
 H3722 H 0.42551 0.77622 1.11609
 H3723 H 0.36559 0.75642 1.09959
 H3724 H 0.35104 0.78726 1.11259
 H3725 H 0.37409 0.69851 1.08344
 H3726 H 0.38785 0.66602 1.07254
 H3727 H 0.44884 0.68847 1.08076
 H3728 H 0.43491 0.72074 1.09209
 C3729 C 0.89689 0.70939 0.86936
 C3730 C 0.90645 0.72653 0.87702
 C3731 C 0.89493 0.74293 0.88376
 C3732 C 0.87361 0.74204 0.88266
 C3733 C 0.86404 0.72495 0.87502
 C3734 C 0.87555 0.70838 0.86834
 N3735 N 0.90513 0.76021 0.89173
 N3736 N 0.89531 0.77540 0.89825
 C3737 C 0.90506 0.79282 0.90639
 C3738 C 0.89292 0.80867 0.91333
 C3739 C 0.90177 0.82588 0.92153
 C3740 C 0.92303 0.82755 0.92295
 C3741 C 0.93523 0.81165 0.91583
 C3742 C 0.92633 0.79439 0.90764
 H3743 H 0.90617 0.69681 0.86453
 H3744 H 0.92289 0.72699 0.87782
 H3745 H 0.86433 0.75454 0.88769
 H3746 H 0.84760 0.72477 0.87414
 H3747 H 0.87652 0.80767 0.91237
 H3748 H 0.89196 0.83799 0.92653
 H3749 H 0.95164 0.81246 0.91686
 H3750 H 0.93603 0.78231 0.90238
 C3751 C 0.87927 0.20418 0.40148
 C3752 C 0.88651 0.22183 0.41035
 C3753 C 0.89325 0.23773 0.39825
 C3754 C 0.89311 0.23565 0.37708
 C3755 C 0.88598 0.21800 0.36821
 C3756 C 0.87879 0.20216 0.38031
 N3757 N 0.89981 0.25594 0.40772
 N3758 N 0.90491 0.27123 0.39734
 C3759 C 0.91143 0.28964 0.40636
 C3760 C 0.91674 0.30560 0.39368
 C3761 C 0.92345 0.32372 0.40182
 C3762 C 0.92501 0.32619 0.42289
 C3763 C 0.91937 0.31023 0.43566
 C3764 C 0.91266 0.29205 0.42746
 H3765 H 0.87400 0.19213 0.41117
 H3766 H 0.88662 0.22322 0.42667
 H3767 H 0.89828 0.24772 0.36739
 H3768 H 0.88555 0.21696 0.35186
 H3769 H 0.91572 0.30394 0.37742
 H3770 H 0.92735 0.33587 0.39162
 H3771 H 0.92056 0.31168 0.45193
 H3772 H 0.90859 0.27989 0.43756
 C3773 C 0.37776 0.70416 0.40435
 C3774 C 0.38498 0.72194 0.41295
 C3775 C 0.39350 0.73690 0.40082
 C3776 C 0.39506 0.73378 0.37989
 C3777 C 0.38801 0.71599 0.37122
 C3778 C 0.37902 0.70082 0.38324
 N3779 N 0.40028 0.75516 0.41002
 N3780 N 0.40696 0.76974 0.39949
 C3781 C 0.41380 0.78814 0.40831
 C3782 C 0.42016 0.80360 0.39549
 C3783 C 0.42702 0.82176 0.40346
 C3784 C 0.42773 0.82475 0.42451
 C3785 C 0.42121 0.80921 0.43740
 C3786 C 0.41429 0.79103 0.42937
 H3787 H 0.37186 0.69285 0.41452
 H3788 H 0.38389 0.72408 0.42916
 H3789 H 0.40153 0.74518 0.37014
 H3790 H 0.38879 0.71479 0.35493
 H3791 H 0.41975 0.80157 0.37923
 H3792 H 0.43158 0.83355 0.39311
 H3793 H 0.42175 0.81101 0.45367
 H3794 H 0.40946 0.77924 0.43959
 C3795 C 0.38115 0.22817 0.85144
 C3796 C 0.39021 0.24558 0.85891
 C3797 C 0.38970 0.24990 0.87955
 C3798 C 0.37983 0.23662 0.89279
 C3799 C 0.37057 0.21924 0.88538
 C3800 C 0.37112 0.21456 0.86451
 N3801 N 0.39906 0.26799 0.88654
 N3802 N 0.40043 0.27231 0.90524
 C3803 C 0.40947 0.29066 0.91198
 C3804 C 0.41134 0.29414 0.93275
 C3805 C 0.41947 0.31219 0.93982
 C3806 C 0.42579 0.32715 0.92615
 C3807 C 0.42413 0.32349 0.90527
 C3808 C 0.41607 0.30541 0.89823
 H3809 H 0.38137 0.22602 0.83522
 H3810 H 0.39757 0.25586 0.84852
 H3811 H 0.37929 0.23964 0.90888
 H3812 H 0.36375 0.20917 0.89628
 H3813 H 0.40636 0.28287 0.94349
 H3814 H 0.42081 0.31444 0.95599
 H3815 H 0.42857 0.33482 0.89436
 H3816 H 0.41471 0.30310 0.88208
 C3817 C 1.10571 0.71667 1.13860
 C3818 C 1.09784 0.73502 1.13201
 C3819 C 1.10064 0.74131 1.11208
 C3820 C 1.11149 0.72901 1.09862
 C3821 C 1.11960 0.71068 1.10518
 C3822 C 1.11687 0.70409 1.12535
 N3823 N 1.09272 0.76045 1.10610
 N3824 N 1.09320 0.76657 1.08787
 C3825 C 1.08567 0.78600 1.08229
 C3826 C 1.08488 0.79122 1.06181
 C3827 C 1.07808 0.81026 1.05593
 C3828 C 1.07211 0.82450 1.07052
 C3829 C 1.07281 0.81914 1.09110
 C3830 C 1.07947 0.80005 1.09693
 H3831 H 1.10378 0.71299 1.15443
 H3832 H 1.08968 0.74452 1.14258
 H3833 H 1.11379 0.73357 1.08305
 H3834 H 1.12738 0.70148 1.09411
 H3835 H 1.08958 0.78051 1.05039
 H3836 H 1.07742 0.81381 1.03995
 H3837 H 1.06864 0.82984 1.10273
 H3838 H 1.08007 0.79641 1.11289
 C3839 C 1.14171 0.21704 0.61343
 C3840 C 1.13546 0.23516 0.60474
 C3841 C 1.11478 0.23939 0.60224
 C3842 C 1.10029 0.22518 0.60849
 C3843 C 1.10652 0.20703 0.61722
 C3844 C 1.12731 0.20278 0.61980
 N3845 N 1.10895 0.25831 0.59369
 N3846 N 1.09043 0.26316 0.59094
 C3847 C 1.08468 0.28228 0.58277
 C3848 C 1.06403 0.28678 0.58056
 C3849 C 1.05787 0.30560 0.57340
 C3850 C 1.07236 0.32026 0.56832
 C3851 C 1.09313 0.31559 0.57022
 C3852 C 1.09925 0.29676 0.57741
 H3853 H 1.15782 0.21432 0.61549
 H3854 H 1.14675 0.24604 0.60008
 H3855 H 1.08420 0.22811 0.60670
 H3856 H 1.09510 0.19625 0.62179
 H3857 H 1.05267 0.27572 0.58459
 H3858 H 1.04178 0.30869 0.57185
 H3859 H 1.10462 0.32666 0.56665
 H3860 H 1.11533 0.29365 0.57902
 C3861 C 0.62125 0.72449 0.64611
 C3862 C 0.61266 0.74238 0.63901
 C3863 C 0.61047 0.74573 0.61824
 C3864 C 0.61685 0.73086 0.60451
 C3865 C 0.62545 0.71295 0.61159
 C3866 C 0.62779 0.70960 0.63248
 N3867 N 0.60201 0.76442 0.61153
 N3868 N 0.59983 0.76864 0.59287
 C3869 C 0.59160 0.78750 0.58630
 C3870 C 0.58994 0.79133 0.56556
 C3871 C 0.58243 0.80977 0.55866
 C3872 C 0.57640 0.82471 0.57249
 C3873 C 0.57794 0.82074 0.59333
 C3874 C 0.58548 0.80231 0.60019
 H3875 H 0.62311 0.72248 0.66226
 H3876 H 0.60786 0.75375 0.64972
 H3877 H 0.61526 0.73310 0.58837
 H3878 H 0.63012 0.70166 0.60074
 H3879 H 0.59458 0.78002 0.55471
 H3880 H 0.58121 0.81232 0.54252
 H3881 H 0.57368 0.83204 0.60434
 H3882 H 0.58667 0.79973 0.61633
 C3883 C 0.59883 0.20737 1.12327
 C3884 C 0.59016 0.22503 1.11576
 C3885 C 0.60215 0.23940 1.10611
 C3886 C 0.62298 0.23559 1.10335
 C3887 C 0.63172 0.21778 1.11062
 C3888 C 0.61990 0.20348 1.12120
 N3889 N 0.59285 0.25783 1.09968
 N3890 N 0.60319 0.27255 1.09302
 C3891 C 0.59392 0.29106 1.08677
 C3892 C 0.60643 0.30693 1.08078
 C3893 C 0.59799 0.32519 1.07454
 C3894 C 0.57676 0.32788 1.07401
 C3895 C 0.56419 0.31196 1.08024
 C3896 C 0.57269 0.29369 1.08658
 H3897 H 0.58874 0.19659 1.13026
 H3898 H 0.57401 0.22765 1.11770
 H3899 H 0.63257 0.24649 1.09585
 H3900 H 0.64797 0.21594 1.10888
 H3901 H 0.62280 0.30515 1.08100
 H3902 H 0.60811 0.33726 1.07022
 H3903 H 0.54781 0.31350 1.07984
 H3904 H 0.56269 0.28162 1.09115
 C3905 C 1.27494 1.15063 0.87710
 C3906 C 1.25727 1.14310 0.88605
 C3907 C 1.25435 1.12238 0.88793
 C3908 C 1.26941 1.10914 0.88076
 C3909 C 1.28711 1.11665 0.87177
 C3910 C 1.29006 1.13749 0.86983
 N3911 N 1.23589 1.11527 0.89692
 N3912 N 1.23216 1.09665 0.89923
 C3913 C 1.21352 1.08970 0.90801
 C3914 C 1.21031 1.06902 0.90997
 C3915 C 1.19208 1.06175 0.91802
 C3916 C 1.17670 1.07511 0.92428
 C3917 C 1.18006 1.09590 0.92247
 C3918 C 1.19829 1.10314 0.91441
 H3919 H 1.27662 1.16674 0.87557
 H3920 H 1.24574 1.15345 0.89143
 H3921 H 1.26751 1.09304 0.88206
 H3922 H 1.29857 1.10617 0.86650
 H3923 H 1.22194 1.05851 0.90514
 H3924 H 1.19005 1.04567 0.91943
 H3925 H 1.16841 1.10657 0.92689
 H3926 H 1.20037 1.11921 0.91301
 C3927 C 1.30116 0.61653 0.40379
 C3928 C 1.28330 0.60886 0.41224
 C3929 C 1.26684 0.60386 0.39988
 C3930 C 1.26858 0.60623 0.37881
 C3931 C 1.28643 0.61387 0.37033
 C3932 C 1.30285 0.61930 0.38275
 N3933 N 1.24843 0.59684 0.40906
 N3934 N 1.23283 0.59256 0.39857
 C3935 C 1.21420 0.58579 0.40744
 C3936 C 1.19803 0.58092 0.39468
 C3937 C 1.17962 0.57424 0.40271
 C3938 C 1.17704 0.57232 0.42375
 C3939 C 1.19324 0.57742 0.43659
 C3940 C 1.21172 0.58406 0.42851
 H3941 H 1.31365 0.62037 0.41371
 H3942 H 1.28218 0.60703 0.42849
 H3943 H 1.25605 0.60247 0.36891
 H3944 H 1.28717 0.61607 0.35411
 H3945 H 1.19973 0.58232 0.37844
 H3946 H 1.16730 0.57073 0.39246
 H3947 H 1.19172 0.57595 0.45285
 H3948 H 1.22402 0.58779 0.43869
 C3949 C 0.77908 1.14289 0.37889
 C3950 C 0.76062 1.13627 0.38686
 C3951 C 0.75694 1.11574 0.38939
 C3952 C 0.77187 1.10176 0.38346
 C3953 C 0.79037 1.10837 0.37538
 C3954 C 0.79424 1.12903 0.37323
 N3955 N 0.73802 1.10961 0.39816
 N3956 N 0.73385 1.09128 0.40168
 C3957 C 0.71485 1.08534 0.41044
 C3958 C 0.71102 1.06489 0.41337
 C3959 C 0.69242 1.05855 0.42134
 C3960 C 0.67731 1.07263 0.42656
 C3961 C 0.68134 1.09320 0.42396
 C3962 C 0.69994 1.09952 0.41594
 H3963 H 0.78153 1.15888 0.37713
 H3964 H 0.74918 1.14717 0.39126
 H3965 H 0.76933 1.08579 0.38523
 H3966 H 0.80182 1.09738 0.37128
 H3967 H 0.72242 1.05383 0.40929
 H3968 H 0.68984 1.04261 0.42341
 H3969 H 0.66992 1.10437 0.42764
 H3970 H 0.70256 1.11544 0.41384
 C3971 C 0.77564 0.64875 0.88038
 C3972 C 0.75759 0.64206 0.88928
 C3973 C 0.75392 0.62150 0.89166
 C3974 C 0.76863 0.60759 0.88508
 C3975 C 0.78669 0.61425 0.87616
 C3976 C 0.79039 0.63492 0.87366
 N3977 N 0.73507 0.61518 0.90050
 N3978 N 0.73074 0.59672 0.90308
 C3979 C 0.71177 0.59036 0.91161
 C3980 C 0.70799 0.56979 0.91361
 C3981 C 0.68940 0.56301 0.92125
 C3982 C 0.67421 0.57678 0.92706
 C3983 C 0.67816 0.59747 0.92531
 C3984 C 0.69676 0.60422 0.91763
 H3985 H 0.77791 0.66474 0.87844
 H3986 H 0.74635 0.65292 0.89421
 H3987 H 0.76617 0.59160 0.88679
 H3988 H 0.79786 0.60325 0.87136
 H3989 H 0.71945 0.55896 0.90909
 H3990 H 0.68692 0.54699 0.92266
 H3991 H 0.66668 0.60843 0.92943
 H3992 H 0.69931 0.62022 0.91620
 C3993 C 1.28205 0.88228 1.14241
 C3994 C 1.26358 0.89042 1.13592
 C3995 C 1.25958 0.89278 1.11529
 C3996 C 1.27428 0.88669 1.10107
 C3997 C 1.29278 0.87848 1.10754
 C3998 C 1.29691 0.87630 1.12830
 N3999 N 1.24053 0.90137 1.10925
 N4000 N 1.23595 0.90434 1.09078
 C4001 C 1.21682 0.91283 1.08486
 C4002 C 1.21262 0.91519 1.06425
 C4003 C 1.19390 0.92291 1.05792
 C4004 C 1.17900 0.92846 1.07216
 C4005 C 1.18337 0.92639 1.09288
 C4006 C 1.20210 0.91861 1.09919
 H4007 H 1.28466 0.88051 1.15849
 H4008 H 1.25234 0.89495 1.14702
 H4009 H 1.27153 0.88834 1.08501
 H4010 H 1.30400 0.87418 1.09634
 H4011 H 1.22386 0.91088 1.05306
 H4012 H 1.19107 0.92457 1.04186
 H4013 H 1.17212 0.93031 1.10420
 H4014 H 1.20498 0.91694 1.11523
 C4015 C 1.30004 0.39818 0.62079
 C4016 C 1.28210 0.40663 0.61326
 C4017 C 1.26596 0.39436 0.60730
 C4018 C 1.26805 0.37337 0.60878
 C4019 C 1.28602 0.36488 0.61630
 C4020 C 1.30218 0.37720 0.62250
 N4021 N 1.24765 0.40357 0.60000
 N4022 N 1.23231 0.39330 0.59455
 C4023 C 1.21392 0.40243 0.58734
 C4024 C 1.19788 0.39005 0.58138
 C4025 C 1.17974 0.39838 0.57421
 C4026 C 1.17729 0.41935 0.57288
 C4027 C 1.19339 0.43179 0.57902
 C4028 C 1.21158 0.42342 0.58616
 H4029 H 1.31231 0.40806 0.62517
 H4030 H 1.28072 0.42281 0.61212
 H4031 H 1.25578 0.36354 0.60429
 H4032 H 1.28710 0.34870 0.61763
 H4033 H 1.19945 0.37387 0.58231
 H4034 H 1.16752 0.38839 0.56992
 H4035 H 1.19203 0.44798 0.57801
 H4036 H 1.22377 0.43332 0.59068
 C4037 C 0.78062 0.85450 0.61911
 C4038 C 0.76249 0.86167 0.61078
 C4039 C 0.75877 0.88232 0.60942
 C4040 C 0.77345 0.89586 0.61660
 C4041 C 0.79161 0.88871 0.62500
 C4042 C 0.79541 0.86793 0.62629
 N4043 N 0.73996 0.88905 0.60081
 N4044 N 0.73560 0.90758 0.59868
 C4045 C 0.71665 0.91410 0.59020
 C4046 C 0.71282 0.93471 0.58827
 C4047 C 0.69432 0.94156 0.58042
 C4048 C 0.67928 0.92786 0.57434
 C4049 C 0.68325 0.90715 0.57613
 C4050 C 0.70176 0.90032 0.58398
 H4051 H 0.78297 0.83842 0.62017
 H4052 H 0.75126 0.85109 0.60539
 H4053 H 0.77091 0.91192 0.61571
 H4054 H 0.80279 0.89941 0.63024
 H4055 H 0.72418 0.94548 0.59295
 H4056 H 0.69181 0.95759 0.57901
 H4057 H 0.67189 0.89622 0.57185
 H4058 H 0.70432 0.88431 0.58535
 C4059 C 0.76865 0.35331 1.13038
 C4060 C 0.75102 0.36116 1.12169
 C4061 C 0.74916 0.38180 1.11818
 C4062 C 0.76504 0.39468 1.12393
 C4063 C 0.78272 0.38683 1.13271
 C4064 C 0.78480 0.36601 1.13575
 N4065 N 0.73115 0.38910 1.10848
 N4066 N 0.72844 0.40756 1.10423
 C4067 C 0.71033 0.41448 1.09438
 C4068 C 0.70765 0.43509 1.09116
 C4069 C 0.68988 0.44233 1.08210
 C4070 C 0.67453 0.42899 1.07600
 C4071 C 0.67744 0.40826 1.07890
 C4072 C 0.69516 0.40105 1.08804
 H4073 H 0.76972 0.33724 1.13283
 H4074 H 0.73883 0.35112 1.11745
 H4075 H 0.76391 0.41072 1.12139
 H4076 H 0.79499 0.39693 1.13658
 H4077 H 0.71926 0.44558 1.09589
 H4078 H 0.68812 0.45837 1.07988
 H4079 H 0.66577 0.39766 1.07458
 H4080 H 0.69689 0.38503 1.09032
 C4081 C 0.70198 1.10338 1.12228
 C4082 C 0.71975 1.09426 1.11512
 C4083 C 0.73622 1.10595 1.10880
 C4084 C 0.73458 1.12702 1.10939
 C4085 C 0.71676 1.13618 1.11648
 C4086 C 0.70033 1.12445 1.12321
 N4087 N 0.75443 1.09607 1.10210
 N4088 N 0.77021 1.10582 1.09686
 C4089 C 0.78851 1.09614 1.09016
 C4090 C 0.80495 1.10807 1.08432
 C4091 C 0.82292 1.09926 1.07731
 C4092 C 0.82480 1.07824 1.07601
 C4093 C 0.80839 1.06622 1.08223
 C4094 C 0.79034 1.07509 1.08921
 H4095 H 0.68948 1.09395 1.12710
 H4096 H 0.72077 1.07803 1.11466
 H4097 H 0.74709 1.13640 1.10455
 H4098 H 0.71601 1.15242 1.11719
 H4099 H 0.80378 1.12429 1.08510
 H4100 H 0.83541 1.10892 1.07296
 H4101 H 0.80935 1.05000 1.08128
 H4102 H 0.77783 1.06553 1.09370
 C4103 C 0.72530 0.64597 0.62004
 C4104 C 0.74329 0.63869 0.61146
 C4105 C 0.74644 0.61802 0.60923
 C4106 C 0.73125 0.60459 0.61555
 C4107 C 0.71323 0.61185 0.62413
 C4108 C 0.71010 0.63262 0.62655
 N4109 N 0.76528 0.61112 0.60082
 N4110 N 0.76935 0.59254 0.59864
 C4111 C 0.78835 0.58578 0.59047
 C4112 C 0.79198 0.56513 0.58872
 C4113 C 0.81055 0.55806 0.58119
 C4114 C 0.82580 0.57161 0.57525
 C4115 C 0.82205 0.59235 0.57691
 C4116 C 0.80350 0.59939 0.58445
 H4117 H 0.72346 0.66203 0.62195
 H4118 H 0.75492 0.64918 0.60670
 H4119 H 0.73332 0.58853 0.61393
 H4120 H 0.70170 0.60121 0.62878
 H4121 H 0.78041 0.55450 0.59327
 H4122 H 0.81292 0.54201 0.57988
 H4123 H 0.83361 0.60315 0.57273
 H4124 H 0.80109 0.61544 0.58572
 C4125 C 0.20252 1.09705 0.62415
 C4126 C 0.22038 1.08794 0.61709
 C4127 C 0.23699 1.09968 0.61120
 C4128 C 0.23558 1.12072 0.61249
 C4129 C 0.21779 1.12982 0.61950
 C4130 C 0.20103 1.11810 0.62534
 N4131 N 0.25506 1.09004 0.60390
 N4132 N 0.27048 1.10019 0.59842
 C4133 C 0.28875 1.09114 0.59092
 C4134 C 0.30479 1.10365 0.58520
 C4135 C 0.32280 1.09549 0.57758
 C4136 C 0.32507 1.07458 0.57554
 C4137 C 0.30898 1.06199 0.58146
 C4138 C 0.29092 1.07021 0.58908
 H4139 H 0.18980 1.08766 0.62840
 H4140 H 0.22126 1.07172 0.61614
 H4141 H 0.24823 1.13016 0.60811
 H4142 H 0.21722 1.14604 0.62058
 H4143 H 0.30330 1.11980 0.58664
 H4144 H 0.33505 1.10555 0.57348
 H4145 H 0.31026 1.04584 0.57992
 H4146 H 0.27867 1.06025 0.59341
 C4147 C 0.21494 0.64224 1.11769
 C4148 C 0.23351 0.63555 1.10989
 C4149 C 0.23726 0.61502 1.10735
 C4150 C 0.22213 0.60111 1.11271
 C4151 C 0.20351 0.60778 1.12052
 C4152 C 0.19970 0.62843 1.12308
 N4153 N 0.25654 0.60877 1.09941
 N4154 N 0.26117 0.59036 1.09687
 C4155 C 0.28056 0.58430 1.08903
 C4156 C 0.28488 0.56380 1.08709
 C4157 C 0.30379 0.55739 1.07982
 C4158 C 0.31873 0.57147 1.07431
 C4159 C 0.31428 0.59207 1.07612
 C4160 C 0.29538 0.59844 1.08343
 H4161 H 0.21260 0.65822 1.11977
 H4162 H 0.24508 0.64640 1.10589
 H4163 H 0.22466 0.58514 1.11084
 H4164 H 0.19201 0.59680 1.12433
 H4165 H 0.27358 0.55275 1.09130
 H4166 H 0.30670 0.54143 1.07837
 H4167 H 0.32556 0.60325 1.07225
 H4168 H 0.29243 0.61439 1.08483
 C4169 C 0.70403 0.89853 0.87763
 C4170 C 0.72143 0.90779 0.88533
 C4171 C 0.73796 0.89620 0.89182
 C4172 C 0.73676 0.87513 0.89093
 C4173 C 0.71937 0.86586 0.88331
 C4174 C 0.70291 0.87746 0.87639
 N4175 N 0.75590 0.90610 0.89886
 N4176 N 0.77163 0.89622 0.90406
 C4177 C 0.78982 0.90569 0.91098
 C4178 C 0.80625 0.89355 0.91655
 C4179 C 0.82423 0.90214 0.92353
 C4180 C 0.82608 0.92312 0.92508
 C4181 C 0.80964 0.93535 0.91924
 C4182 C 0.79159 0.92670 0.91227
 H4183 H 0.69148 0.90783 0.87260
 H4184 H 0.72214 0.92403 0.88601
 H4185 H 0.74934 0.86582 0.89587
 H4186 H 0.71904 0.84962 0.88229
 H4187 H 0.80509 0.87735 0.91549
 H4188 H 0.83677 0.89235 0.92759
 H4189 H 0.81062 0.95155 0.92041
 H4190 H 0.77906 0.93639 0.90800
 C4191 C 0.72133 0.35589 0.38244
 C4192 C 0.73955 0.36278 0.39075
 C4193 C 0.74300 0.38338 0.39310
 C4194 C 0.72784 0.39712 0.38723
 C4195 C 0.70959 0.39025 0.37893
 C4196 C 0.70617 0.36955 0.37633
 N4197 N 0.76208 0.38989 0.40117
 N4198 N 0.76644 0.40839 0.40338
 C4199 C 0.78567 0.41479 0.41121
 C4200 C 0.78952 0.43537 0.41305
 C4201 C 0.80826 0.44212 0.42029
 C4202 C 0.82351 0.42833 0.42586
 C4203 C 0.81954 0.40765 0.42409
 C4204 C 0.80081 0.40093 0.41682
 H4205 H 0.71930 0.33988 0.38039
 H4206 H 0.75114 0.35205 0.39516
 H4207 H 0.73011 0.41313 0.38897
 H4208 H 0.69811 0.40113 0.37462
 H4209 H 0.77798 0.44621 0.40880
 H4210 H 0.81077 0.45813 0.42170
 H4211 H 0.83106 0.39665 0.42798
 H4212 H 0.79824 0.38493 0.41548
 C4213 C 0.20197 0.89827 0.37788
 C4214 C 0.21982 0.90707 0.38507
 C4215 C 0.23636 0.89513 0.39084
 C4216 C 0.23473 0.87409 0.38960
 C4217 C 0.21684 0.86524 0.38246
 C4218 C 0.20031 0.87725 0.37636
 N4219 N 0.25458 0.90472 0.39773
 N4220 N 0.27036 0.89477 0.40270
 C4221 C 0.28865 0.90422 0.40959
 C4222 C 0.30516 0.89211 0.41505
 C4223 C 0.32313 0.90071 0.42214
 C4224 C 0.32495 0.92169 0.42393
 C4225 C 0.30844 0.93389 0.41815
 C4226 C 0.29041 0.92523 0.41108
 H4227 H 0.18941 0.90791 0.37358
 H4228 H 0.22083 0.92328 0.38605
 H4229 H 0.24731 0.86450 0.39398
 H4230 H 0.21610 0.84903 0.38128
 H4231 H 0.30405 0.87592 0.41386
 H4232 H 0.33568 0.89091 0.42613
 H4233 H 0.30934 0.95007 0.41948
 H4234 H 0.27785 0.93493 0.40691
 C4235 C 0.22187 0.35670 0.87926
 C4236 C 0.24000 0.36379 0.88750
 C4237 C 0.24350 0.38442 0.88909
 C4238 C 0.22874 0.39804 0.88198
 C4239 C 0.21060 0.39094 0.87361
 C4240 C 0.20691 0.37019 0.87238
 N4241 N 0.26210 0.39103 0.89805
 N4242 N 0.26609 0.40949 0.90095
 C4243 C 0.28484 0.41576 0.90990
 C4244 C 0.28845 0.43629 0.91251
 C4245 C 0.30683 0.44290 0.92070
 C4246 C 0.32193 0.42901 0.92644
 C4247 C 0.31812 0.40838 0.92411
 C4248 C 0.29975 0.40179 0.91590
 H4249 H 0.21957 0.34062 0.87821
 H4250 H 0.25131 0.35317 0.89281
 H4251 H 0.23117 0.41408 0.88301
 H4252 H 0.19927 0.40165 0.86852
 H4253 H 0.27706 0.44719 0.90803
 H4254 H 0.30924 0.45888 0.92254
 H4255 H 0.32955 0.39735 0.92815
 H4256 H 0.29732 0.38582 0.91404
   
