data_POSCAR
  _audit_creation_date              2014-09-24
  _audit_creation_method            'ToBaCCo'
  _symmetry_space_group_name_H-M    'P1'
  _symmetry_Int_Tables_number       1
  _symmetry_cell_setting            triclinic
  loop_
  _symmetry_equiv_pos_as_xyz
 x,y,z
_cell_length_a 113.8536
_cell_length_b 113.7644
_cell_length_c 113.8923
_cell_angle_alpha 90.058900
_cell_angle_beta 90.022800
_cell_angle_gamma 89.978000
loop_
  _atom_site_label
  _atom_site_type_symbol
  _atom_site_fract_x
  _atom_site_fract_y
  _atom_site_fract_z
N1 N 0.31514 0.42686 0.90251
 N2 N 0.32341 0.43489 0.90251
 C3 C 0.32145 0.44242 0.89358
 C4 C 0.31137 0.43893 0.88766
 C5 C 0.30764 0.42898 0.89362
 H6 H 0.32690 0.44993 0.89163
 H7 H 0.29996 0.42373 0.89179
 Cu8 Cu 0.33578 0.43489 0.91436
 Cu9 Cu 0.31437 0.41449 0.91430
 Cu10 Cu 0.33597 0.41454 0.93577
 N11 N 0.34771 0.43493 0.92664
 N12 N 0.34773 0.42693 0.93494
 C13 C 0.35662 0.42909 0.94242
 C14 C 0.36260 0.43905 0.93867
 C15 C 0.35665 0.44247 0.92855
 H16 H 0.35841 0.42384 0.95010
 H17 H 0.35854 0.44994 0.92302
 N18 N 0.32330 0.40276 0.93516
 N19 N 0.31507 0.40275 0.92701
 C20 C 0.30750 0.39393 0.92922
 C21 C 0.31110 0.38807 0.93926
 C22 C 0.32118 0.39395 0.94276
 H23 H 0.29982 0.39204 0.92397
 H24 H 0.32651 0.39208 0.95037
 H25 H 0.32272 0.42395 0.92748
 H26 H 0.33201 0.41417 0.91815
 N27 N 0.42686 0.84813 0.43498
 N28 N 0.43494 0.84814 0.42675
 C29 C 0.44247 0.85705 0.42877
 C30 C 0.43894 0.86301 0.43884
 C31 C 0.42893 0.85704 0.44246
 H32 H 0.45003 0.85892 0.42337
 H33 H 0.42354 0.85892 0.45003
 Cu34 Cu 0.43508 0.83614 0.41455
 Cu35 Cu 0.41451 0.83632 0.43573
 Cu36 Cu 0.41457 0.81485 0.41413
 N37 N 0.43499 0.82403 0.40245
 N38 N 0.42695 0.81574 0.40239
 C39 C 0.42907 0.80834 0.39343
 C40 C 0.43903 0.81209 0.38751
 C41 C 0.44252 0.82211 0.39353
 H42 H 0.42375 0.80074 0.39143
 H43 H 0.45006 0.82754 0.39164
 N44 N 0.40279 0.81547 0.42678
 N45 N 0.40277 0.82364 0.43499
 C46 C 0.39393 0.82148 0.44253
 C47 C 0.38809 0.81139 0.43894
 C48 C 0.39397 0.80788 0.42887
 H49 H 0.39204 0.82678 0.45017
 H50 H 0.39213 0.80025 0.42353
 H51 H 0.42395 0.82317 0.42733
 H52 H 0.41429 0.83260 0.41795
 N53 N 0.92623 0.90205 0.81594
 N54 N 0.93462 0.90241 0.82385
 C55 C 0.94226 0.89360 0.82175
 C56 C 0.93848 0.88738 0.81197
 C57 C 0.92823 0.89303 0.80856
 H58 H 0.95008 0.89199 0.82687
 H59 H 0.92271 0.89093 0.80113
 Cu60 Cu 0.93484 0.91454 0.83591
 Cu61 Cu 0.91376 0.91375 0.81524
 Cu62 Cu 0.91594 0.93712 0.83471
 N63 N 0.93481 0.92681 0.84786
 N64 N 0.92730 0.93556 0.84736
 C65 C 0.92932 0.94295 0.85635
 C66 C 0.93868 0.93868 0.86292
 C67 C 0.94189 0.92834 0.85721
 H68 H 0.92440 0.95095 0.85779
 H69 H 0.94893 0.92242 0.85953
 N70 N 0.90316 0.93565 0.82313
 N71 N 0.90222 0.92666 0.81587
 C72 C 0.89274 0.92828 0.80899
 C73 C 0.88742 0.93880 0.81205
 C74 C 0.89427 0.94319 0.82110
 H75 H 0.89004 0.92229 0.80214
 H76 H 0.89302 0.95136 0.82577
 H77 H 0.92408 0.92681 0.82197
 H78 H 0.91426 0.91927 0.83272
 N79 N 0.42644 -0.09786 0.31568
 N80 N 0.43520 -0.09712 0.32314
 C81 C 0.44283 -0.10591 0.32102
 C82 C 0.43868 -0.11251 0.31165
 C83 C 0.42821 -0.10711 0.30853
 H84 H 0.45093 -0.10722 0.32578
 H85 H 0.42241 -0.10952 0.30142
 Cu86 Cu 0.43603 -0.08461 0.33476
 Cu87 Cu 0.41392 -0.08623 0.31508
 Cu88 Cu 0.41648 -0.06245 0.33396
 N89 N 0.43539 -0.07271 0.34701
 N90 N 0.42772 -0.06410 0.34666
 C91 C 0.42952 -0.05689 0.35585
 C92 C 0.43885 -0.06119 0.36238
 C93 C 0.44233 -0.07129 0.35648
 H94 H 0.42452 -0.04897 0.35745
 H95 H 0.44947 -0.07710 0.35878
 N96 N 0.40350 -0.06420 0.32271
 N97 N 0.40237 -0.07336 0.31571
 C98 C 0.39280 -0.07183 0.30892
 C99 C 0.38762 -0.06119 0.31180
 C100 C 0.39465 -0.05663 0.32063
 H101 H 0.38997 -0.07793 0.30223
 H102 H 0.39359 -0.04830 0.32507
 H103 H 0.42433 -0.07288 0.32100
 H104 H 0.41524 -0.08040 0.33241
 N105 N 0.81487 0.32332 0.34749
 N106 N 0.82287 0.31501 0.34724
 C107 C 0.82076 0.30735 0.35599
 C108 C 0.81086 0.31103 0.36208
 C109 C 0.80740 0.32124 0.35640
 H110 H 0.82596 0.29959 0.35769
 H111 H 0.79990 0.32670 0.35842
 Cu112 Cu 0.83499 0.31484 0.33519
 Cu113 Cu 0.81432 0.33592 0.33594
 Cu114 Cu 0.83598 0.33588 0.31454
 N115 N 0.84723 0.31502 0.32327
 N116 N 0.84755 0.32330 0.31525
 C117 C 0.85662 0.32129 0.30796
 C118 C 0.86235 0.31116 0.31156
 C119 C 0.85611 0.30744 0.32134
 H120 H 0.85875 0.32675 0.30051
 H121 H 0.85781 0.29974 0.32661
 N122 N 0.82348 0.34785 0.31531
 N123 N 0.81527 0.34788 0.32347
 C124 C 0.80784 0.35685 0.32140
 C125 C 0.81152 0.36278 0.31144
 C126 C 0.82150 0.35680 0.30785
 H127 H 0.80019 0.35878 0.32667
 H128 H 0.82684 0.35867 0.30024
 H129 H 0.82248 0.32678 0.32255
 H130 H 0.83209 0.33586 0.33226
 N131 N -0.17630 0.84835 0.81519
 N132 N -0.18447 0.84827 0.82335
 C133 C -0.19199 0.85718 0.82136
 C134 C -0.18841 0.86322 0.81137
 C135 C -0.17836 0.85729 0.80775
 H136 H -0.19958 0.85901 0.82675
 H137 H -0.17296 0.85916 0.80019
 Cu138 Cu -0.18460 0.83625 0.83553
 Cu139 Cu -0.16386 0.83661 0.81454
 Cu140 Cu -0.16394 0.81513 0.83613
 N141 N -0.18455 0.82414 0.84762
 N142 N -0.17641 0.81594 0.84778
 C143 C -0.17852 0.80855 0.85675
 C144 C -0.18855 0.81226 0.86258
 C145 C -0.19210 0.82222 0.85650
 H146 H -0.17319 0.80094 0.85872
 H147 H -0.19972 0.82760 0.85831
 N148 N -0.15206 0.81581 0.82356
 N149 N -0.15202 0.82398 0.81535
 C150 C -0.14307 0.82188 0.80791
 C151 C -0.13715 0.81188 0.81158
 C152 C -0.14313 0.80831 0.82155
 H153 H -0.14111 0.82719 0.80031
 H154 H -0.14123 0.80071 0.82690
 H155 H -0.17312 0.82337 0.82283
 H156 H -0.16369 0.83289 0.83232
 N157 N 0.93509 0.34776 0.42690
 N158 N 0.92694 0.34762 0.43505
 C159 C 0.92888 0.35652 0.44260
 C160 C 0.93884 0.36262 0.43903
 C161 C 0.94249 0.35675 0.42896
 H162 H 0.92351 0.35828 0.45022
 H163 H 0.95002 0.35869 0.42355
 Cu164 Cu 0.91489 0.33547 0.43519
 Cu165 Cu 0.93585 0.33606 0.41444
 Cu166 Cu 0.91443 0.31439 0.41450
 N167 N 0.90292 0.32323 0.43515
 N168 N 0.90281 0.31505 0.42701
 C169 C 0.89399 0.30750 0.42919
 C170 C 0.88823 0.31107 0.43931
 C171 C 0.89418 0.32114 0.44282
 H172 H 0.89208 0.29987 0.42388
 H173 H 0.89240 0.32644 0.45049
 N174 N 0.92696 0.31522 0.40259
 N175 N 0.93511 0.32345 0.40257
 C176 C 0.94257 0.32142 0.39362
 C177 C 0.93897 0.31140 0.38769
 C178 C 0.92901 0.30774 0.39365
 H179 H 0.95014 0.32678 0.39167
 H180 H 0.92373 0.30009 0.39176
 H181 H 0.91814 0.33219 0.41426
 H182 H 0.92771 0.32275 0.42366
 N183 N 0.43454 0.42638 0.84786
 N184 N 0.42651 0.43467 0.84762
 C185 C 0.42849 0.44223 0.85650
 C186 C 0.43831 0.43848 0.86268
 C187 C 0.44188 0.42836 0.85690
 H188 H 0.42325 0.44995 0.85824
 H189 H 0.44931 0.42285 0.85900
 Cu190 Cu 0.41447 0.43488 0.83549
 Cu191 Cu 0.43514 0.41381 0.83628
 Cu192 Cu 0.41358 0.41386 0.81477
 N193 N 0.40230 0.43471 0.82349
 N194 N 0.40202 0.42645 0.81543
 C195 C 0.39296 0.42847 0.80813
 C196 C 0.38720 0.43858 0.81175
 C197 C 0.39341 0.44229 0.82156
 H198 H 0.39083 0.42299 0.80068
 H199 H 0.39169 0.45000 0.82684
 N200 N 0.42605 0.40186 0.81561
 N201 N 0.43424 0.40184 0.82380
 C202 C 0.44170 0.39289 0.82174
 C203 C 0.43810 0.38698 0.81172
 C204 C 0.42810 0.39293 0.80812
 H205 H 0.44935 0.39100 0.82702
 H206 H 0.42281 0.39106 0.80047
 H207 H 0.42690 0.42281 0.82302
 H208 H 0.41725 0.41373 0.83266
 N209 N 0.81565 0.90205 0.92601
 N210 N 0.82401 0.90200 0.93396
 C211 C 0.82206 0.89312 0.94152
 C212 C 0.81192 0.88726 0.93814
 C213 C 0.80813 0.89322 0.92822
 H214 H 0.82757 0.89116 0.94899
 H215 H 0.80039 0.89141 0.92304
 Cu216 Cu 0.83646 0.91370 0.93387
 Cu217 Cu 0.81489 0.91376 0.91361
 Cu218 Cu 0.83638 0.93525 0.91356
 N219 N 0.84816 0.92617 0.93392
 N220 N 0.84811 0.93450 0.92595
 C221 C 0.85694 0.94204 0.92815
 C222 C 0.86290 0.93827 0.93808
 C223 C 0.85705 0.92814 0.94148
 H224 H 0.85875 0.94976 0.92295
 H225 H 0.85900 0.92265 0.94896
 N226 N 0.82377 0.93453 0.90176
 N227 N 0.81558 0.92634 0.90178
 C228 C 0.80806 0.92841 0.89289
 C229 C 0.81165 0.93842 0.88695
 C230 C 0.82168 0.94202 0.89285
 H231 H 0.80043 0.92310 0.89100
 H232 H 0.82699 0.94964 0.89093
 H233 H 0.83266 0.91749 0.91311
 H234 H 0.82342 0.92678 0.92302
 N235 N 0.31473 0.84660 0.32246
 N236 N 0.32371 0.84736 0.31527
 C237 C 0.32218 0.85673 0.30821
 C238 C 0.31165 0.86215 0.31113
 C239 C 0.30719 0.85543 0.32025
 H240 H 0.32824 0.85934 0.30140
 H241 H 0.29897 0.85668 0.32482
 Cu242 Cu 0.33626 0.83574 0.31555
 Cu243 Cu 0.31310 0.83387 0.33371
 Cu244 Cu 0.33656 0.81463 0.33627
 N245 N 0.34821 0.82352 0.31571
 N246 N 0.34840 0.81546 0.32396
 C247 C 0.35734 0.80800 0.32189
 C248 C 0.36311 0.81153 0.31176
 C249 C 0.35703 0.82145 0.30811
 H250 H 0.35930 0.80043 0.32727
 H251 H 0.35874 0.82668 0.30039
 N252 N 0.32347 0.81513 0.34758
 N253 N 0.31444 0.82230 0.34648
 C254 C 0.30672 0.82014 0.35516
 C255 C 0.31102 0.81107 0.36205
 C256 C 0.32170 0.80816 0.35696
 H257 H 0.29846 0.82469 0.35622
 H258 H 0.32767 0.80133 0.35974
 H259 H 0.33099 0.83208 0.33591
 H260 H 0.32391 0.82141 0.32560
 N261 N 0.81535 0.40236 0.42659
 N262 N 0.82375 0.40231 0.43450
 C263 C 0.82171 0.39358 0.44221
 C264 C 0.81144 0.38784 0.43900
 C265 C 0.80769 0.39370 0.42900
 H266 H 0.82720 0.39171 0.44972
 H267 H 0.79983 0.39201 0.42397
 Cu268 Cu 0.83630 0.41392 0.43430
 Cu269 Cu 0.81461 0.41397 0.41409
 Cu270 Cu 0.83614 0.43542 0.41392
 N271 N 0.84798 0.42640 0.43427
 N272 N 0.84787 0.43474 0.42631
 C273 C 0.85666 0.44233 0.42851
 C274 C 0.86266 0.43858 0.43842
 C275 C 0.85688 0.42840 0.44181
 H276 H 0.85836 0.45011 0.42337
 H277 H 0.85885 0.42293 0.44931
 N278 N 0.82352 0.43466 0.40212
 N279 N 0.81533 0.42648 0.40217
 C280 C 0.80786 0.42847 0.39322
 C281 C 0.81149 0.43842 0.38722
 C282 C 0.82149 0.44207 0.39314
 H283 H 0.80027 0.42311 0.39129
 H284 H 0.82686 0.44963 0.39114
 H285 H 0.83239 0.41764 0.41353
 H286 H 0.82319 0.42697 0.42344
 N287 N 0.92481 0.84861 -0.06660
 N288 N 0.93379 0.84765 -0.07377
 C289 C 0.94200 0.85561 -0.07078
 C290 C 0.93795 0.86201 -0.06122
 C291 C 0.92695 0.85730 -0.05886
 H292 H 0.95030 0.85663 -0.07527
 H293 H 0.92087 0.85999 -0.05207
 Cu294 Cu 0.93372 0.83646 -0.08668
 Cu295 Cu 0.91103 0.83849 -0.06813
 Cu296 Cu 0.91697 0.81254 -0.08317
 N297 N 0.93407 0.82363 -0.09794
 N298 N 0.92748 0.81426 -0.09654
 C299 C 0.92980 0.80654 -0.10520
 C300 C 0.93831 0.81134 -0.11247
 C301 C 0.94078 0.82222 -0.10756
 H302 H 0.92574 0.79798 -0.10594
 H303 H 0.94708 0.82862 -0.11065
 N304 N 0.90354 0.81441 -0.07242
 N305 N 0.90110 0.82435 -0.06695
 C306 C 0.89140 0.82282 -0.06036
 C307 C 0.88750 0.81136 -0.06179
 C308 C 0.89541 0.80633 -0.06955
 H309 H 0.88753 0.82955 -0.05489
 H310 H 0.89536 0.79739 -0.07278
 H311 H 0.92274 0.82576 -0.07172
 H312 H 0.91332 0.82996 -0.08443
 N313 N 0.31507 0.34766 0.82327
 N314 N 0.32316 0.34737 0.81505
 C315 C 0.32127 0.35629 0.80751
 C316 C 0.31145 0.36252 0.81117
 C317 C 0.30779 0.35674 0.82125
 H318 H 0.32659 0.35801 0.79985
 H319 H 0.30029 0.35885 0.82666
 Cu320 Cu 0.33514 0.33514 0.81487
 Cu321 Cu 0.31426 0.33597 0.83573
 Cu322 Cu 0.33574 0.31438 0.83586
 N323 N 0.34729 0.32310 0.81519
 N324 N 0.34750 0.31507 0.82346
 C325 C 0.35654 0.30771 0.82153
 C326 C 0.36239 0.31129 0.81147
 C327 C 0.35624 0.32113 0.80771
 H328 H 0.35858 0.30023 0.82699
 H329 H 0.35803 0.32638 0.80003
 N330 N 0.32308 0.31516 0.84762
 N331 N 0.31490 0.32337 0.84758
 C332 C 0.30727 0.32122 0.85635
 C333 C 0.31077 0.31113 0.86222
 C334 C 0.32087 0.30758 0.85642
 H335 H 0.29960 0.32650 0.85816
 H336 H 0.32613 0.29990 0.85829
 H337 H 0.33202 0.33216 0.83584
 H338 H 0.32243 0.32254 0.82663
 N339 N 0.15285 0.57309 0.56465
 N340 N 0.15311 0.56479 0.57266
 C341 C 0.14434 0.55712 0.57055
 C342 C 0.13824 0.56079 0.56066
 C343 C 0.14393 0.57099 0.55719
 H344 H 0.14265 0.54937 0.57575
 H345 H 0.14190 0.57644 0.54970
 Cu346 Cu 0.16520 0.56467 0.58474
 Cu347 Cu 0.16439 0.58572 0.56412
 Cu348 Cu 0.18589 0.58566 0.58571
 N349 N 0.17723 0.56474 0.59689
 N350 N 0.18527 0.57302 0.59720
 C351 C 0.19268 0.57089 0.60614
 C352 C 0.18916 0.56069 0.61179
 C353 C 0.17927 0.55706 0.60564
 H354 H 0.20019 0.57631 0.60822
 H355 H 0.17405 0.54931 0.60729
 N356 N 0.18503 0.59768 0.57328
 N357 N 0.17685 0.59770 0.56508
 C358 C 0.17887 0.60670 0.55769
 C359 C 0.18884 0.61266 0.56137
 C360 C 0.19247 0.60666 0.57132
 H361 H 0.17358 0.60863 0.55006
 H362 H 0.20008 0.60855 0.57665
 H363 H 0.17782 0.57659 0.57222
 H364 H 0.16816 0.58569 0.58186
 N365 N 0.59748 0.67701 0.06461
 N366 N 0.59727 0.68529 0.07265
 C367 C 0.60594 0.69303 0.07045
 C368 C 0.61192 0.68943 0.06045
 C369 C 0.60627 0.67918 0.05704
 H370 H 0.60758 0.70082 0.07562
 H371 H 0.60819 0.67382 0.04944
 Cu372 Cu 0.58545 0.68543 0.08497
 Cu373 Cu 0.58575 0.66458 0.06388
 Cu374 Cu 0.56233 0.66715 0.08310
 N375 N 0.57285 0.68573 0.09651
 N376 N 0.56388 0.67851 0.09574
 C377 C 0.55628 0.68082 0.10448
 C378 C 0.56067 0.69004 0.11114
 C379 C 0.57124 0.69290 0.10579
 H380 H 0.54805 0.67626 0.10570
 H381 H 0.57726 0.69978 0.10835
 N382 N 0.56369 0.65433 0.07158
 N383 N 0.57272 0.65321 0.06442
 C384 C 0.57097 0.64379 0.05747
 C385 C 0.56031 0.63868 0.06040
 C386 C 0.55599 0.64561 0.06944
 H387 H 0.57694 0.64100 0.05065
 H388 H 0.54774 0.64454 0.07398
 H389 H 0.57310 0.67532 0.07067
 H390 H 0.58021 0.66501 0.08133
 N391 N 0.67771 0.18617 0.65347
 N392 N 0.68507 0.17730 0.65279
 C393 C 0.69201 0.17877 0.64332
 C394 C 0.68884 0.18916 0.63777
 C395 C 0.67970 0.19358 0.64452
 H396 H 0.69895 0.17281 0.64078
 H397 H 0.67500 0.20174 0.64324
 Cu398 Cu 0.68519 0.16511 0.66477
 Cu399 Cu 0.66665 0.18784 0.66637
 Cu400 Cu 0.66439 0.16421 0.68564
 N401 N 0.68523 0.15298 0.67678
 N402 N 0.67693 0.15257 0.68478
 C403 C 0.67915 0.14368 0.69221
 C404 C 0.68944 0.13814 0.68875
 C405 C 0.69303 0.14430 0.67887
 H406 H 0.67375 0.14163 0.69974
 H407 H 0.70086 0.14278 0.67372
 N408 N 0.65295 0.17724 0.68520
 N409 N 0.65395 0.18633 0.67808
 C410 C 0.64516 0.19394 0.68029
 C411 C 0.63831 0.18951 0.68932
 C412 C 0.64353 0.17888 0.69217
 H413 H 0.64396 0.20220 0.67578
 H414 H 0.64081 0.17285 0.69896
 H415 H 0.67462 0.17733 0.67902
 H416 H 0.66467 0.17003 0.66825
 N417 N 1.09700 0.07227 0.18566
 N418 N 1.09677 0.06397 0.17765
 C419 C 1.10560 0.05636 0.17972
 C420 C 1.11170 0.06008 0.18960
 C421 C 1.10596 0.07024 0.19309
 H422 H 1.10730 0.04859 0.17454
 H423 H 1.10794 0.07567 0.20062
 Cu424 Cu 1.08464 0.06371 0.16561
 Cu425 Cu 1.08531 0.08474 0.18632
 Cu426 Cu 1.06381 0.08463 0.16474
 N427 N 1.07264 0.06382 0.15344
 N428 N 1.06459 0.07208 0.15312
 C429 C 1.05721 0.06995 0.14415
 C430 C 1.06077 0.05976 0.13849
 C431 C 1.07065 0.05614 0.14465
 H432 H 1.04966 0.07532 0.14210
 H433 H 1.07587 0.04838 0.14303
 N434 N 1.06452 0.09653 0.17730
 N435 N 1.07269 0.09657 0.18551
 C436 C 1.07048 0.10539 0.19309
 C437 C 1.06038 0.11119 0.18953
 C438 C 1.05689 0.10532 0.17945
 H439 H 1.07573 0.10727 0.20076
 H440 H 1.04922 0.10713 0.17417
 H441 H 1.07193 0.07553 0.17817
 H442 H 1.08155 0.08468 0.16856
 N443 N 0.07320 0.15231 1.06503
 N444 N 0.06525 0.15227 1.07338
 C445 C 0.05756 0.14351 1.07130
 C446 C 0.06086 0.13773 1.06108
 C447 C 0.07088 0.14359 1.05740
 H448 H 0.05003 0.14161 1.07675
 H449 H 0.07603 0.14181 1.04964
 Cu450 Cu 0.06536 0.16396 1.08589
 Cu451 Cu 0.08571 0.16392 1.06438
 Cu452 Cu 0.08576 0.18546 1.08584
 N453 N 0.06531 0.17651 1.09755
 N454 N 0.07328 0.18485 1.09747
 C455 C 0.07099 0.19252 1.10618
 C456 C 0.06099 0.18886 1.11207
 C457 C 0.05765 0.17862 1.10632
 H458 H 0.07616 0.20029 1.10792
 H459 H 0.05013 0.17318 1.10825
 N460 N 0.09767 0.18462 1.07333
 N461 N 0.09765 0.17641 1.06516
 C462 C 0.10662 0.17839 1.05772
 C463 C 0.11261 0.18836 1.06135
 C464 C 0.10665 0.19204 1.07131
 H465 H 0.10853 0.17304 1.05012
 H466 H 0.10858 0.19967 1.07663
 H467 H 0.08620 0.16762 1.08218
 H468 H 0.07634 0.17692 1.07291
 N469 N 0.15465 0.68666 0.67818
 N470 N 0.15323 0.67734 0.68484
 C471 C 0.14371 0.67890 0.69166
 C472 C 0.13888 0.68983 0.68918
 C473 C 0.14611 0.69448 0.68056
 H474 H 0.14064 0.67260 0.69805
 H475 H 0.14542 0.70303 0.67648
 Cu476 Cu 0.16441 0.66442 0.68451
 Cu477 Cu 0.16795 0.68823 0.66758
 Cu478 Cu 0.18300 0.66224 0.66186
 N479 N 0.17735 0.65323 0.68466
 N480 N 0.18453 0.65222 0.67569
 C481 C 0.19231 0.64358 0.67791
 C482 C 0.18996 0.63896 0.68895
 C483 C 0.18036 0.64535 0.69293
 H484 H 0.19911 0.64087 0.67186
 H485 H 0.17586 0.64439 0.70122
 N486 N 0.18418 0.67629 0.65180
 N487 N 0.17870 0.68624 0.65416
 C488 C 0.18153 0.69423 0.64593
 C489 C 0.18925 0.68913 0.63803
 C490 C 0.19072 0.67772 0.64206
 H491 H 0.17829 0.70316 0.64580
 H492 H 0.19619 0.67095 0.63825
 H493 H 0.16675 0.67085 0.66414
 H494 H 0.17945 0.67513 0.67356
 N495 N 1.17807 0.15370 0.18602
 N496 N 1.18570 0.15332 0.17739
 C497 C 1.19274 0.14392 0.17889
 C498 C 1.18938 0.13812 0.18906
 C499 C 1.18000 0.14462 0.19332
 H500 H 1.19988 0.14162 0.17309
 H501 H 1.17507 0.14308 0.20127
 Cu502 Cu 1.18610 0.16545 0.16537
 Cu503 Cu 1.16677 0.16636 0.18764
 Cu504 Cu 1.16408 0.18528 0.16395
 N505 N 1.18523 0.17707 0.15288
 N506 N 1.17649 0.18458 0.15222
 C507 C 1.17819 0.19170 0.14296
 C508 C 1.18858 0.18852 0.13745
 C509 C 1.19277 0.17915 0.14402
 H510 H 1.17238 0.19883 0.14059
 H511 H 1.20083 0.17434 0.14263
 N512 N 1.15267 0.18475 0.17695
 N513 N 1.15385 0.17772 0.18607
 C514 C 1.14514 0.17989 0.19376
 C515 C 1.13815 0.18883 0.18934
 C516 C 1.14321 0.19165 0.17863
 H517 H 1.14414 0.17547 0.20208
 H518 H 1.14036 0.19840 0.17260
 H519 H 1.16531 0.16793 0.16969
 H520 H 1.17453 0.17928 0.17715
 N521 N 0.65281 1.06509 0.57300
 N522 N 0.65278 1.07345 0.56505
 C523 C 0.64405 1.07138 0.55733
 C524 C 0.63828 1.06114 0.56060
 C525 C 0.64412 1.05744 0.57062
 H526 H 0.64217 1.07684 0.54981
 H527 H 0.64237 1.04965 0.57573
 Cu528 Cu 0.66442 1.08599 0.56526
 Cu529 Cu 0.66443 1.06436 0.58549
 Cu530 Cu 0.68587 1.08591 0.58568
 N531 N 0.67684 1.09775 0.56533
 N532 N 0.68515 1.09767 0.57332
 C533 C 0.69270 1.10650 0.57117
 C534 C 0.68895 1.11250 0.56126
 C535 C 0.67882 1.10665 0.55781
 H536 H 0.70043 1.10828 0.57638
 H537 H 0.67336 1.10862 0.55031
 N538 N 0.68513 1.07327 0.59744
 N539 N 0.67694 1.06508 0.59739
 C540 C 0.67906 1.05748 0.60619
 C541 C 0.68911 1.06101 0.61210
 C542 C 0.69268 1.07109 0.60628
 H543 H 0.67378 1.04981 0.60800
 H544 H 0.70034 1.07636 0.60818
 H545 H 0.66809 1.08217 0.58603
 H546 H 0.67741 1.07293 0.57615
 N547 N 0.57177 0.56363 0.15443
 N548 N 0.56517 0.57299 0.15292
 C549 C 0.55842 0.57144 0.14334
 C550 C 0.56089 0.56048 0.13857
 C551 C 0.56943 0.55579 0.14589
 H552 H 0.55209 0.57777 0.14019
 H553 H 0.57347 0.54721 0.14527
 Cu554 Cu 0.56549 0.58594 0.16406
 Cu555 Cu 0.58223 0.56204 0.16785
 Cu556 Cu 0.58802 0.58803 0.18285
 N557 N 0.56529 0.59717 0.17697
 N558 N 0.57421 0.59814 0.18422
 C559 C 0.57196 0.60680 0.19198
 C560 C 0.56095 0.61146 0.18953
 C561 C 0.55702 0.60508 0.17991
 H562 H 0.57796 0.60947 0.19884
 H563 H 0.54875 0.60607 0.17535
 N564 N 0.59794 0.57387 0.18421
 N565 N 0.59554 0.56393 0.17874
 C566 C 0.60360 0.55582 0.18176
 C567 C 0.61143 0.56084 0.18961
 C568 C 0.60755 0.57232 0.19094
 H569 H 0.60366 0.54686 0.17857
 H570 H 0.61136 0.57906 0.19645
 H571 H 0.57635 0.57533 0.17918
 H572 H 0.58591 0.57948 0.16655
 N573 N 0.65344 0.67745 0.18528
 N574 N 0.65370 0.68576 0.17729
 C575 C 0.64490 0.69340 0.17938
 C576 C 0.63879 0.68970 0.18925
 C577 C 0.64451 0.67950 0.19271
 H578 H 0.64321 0.70116 0.17420
 H579 H 0.64248 0.67405 0.20020
 Cu580 Cu 0.66584 0.68597 0.16525
 Cu581 Cu 0.66506 0.66489 0.18587
 Cu582 Cu 0.68657 0.66497 0.16433
 N583 N 0.67785 0.68585 0.15310
 N584 N 0.68589 0.67757 0.15278
 C585 C 0.69329 0.67967 0.14383
 C586 C 0.68976 0.68987 0.13818
 C587 C 0.67989 0.69353 0.14434
 H588 H 0.70079 0.67424 0.14175
 H589 H 0.67467 0.70128 0.14269
 N590 N 0.68578 0.65301 0.17679
 N591 N 0.67760 0.65298 0.18499
 C592 C 0.67977 0.64412 0.19251
 C593 C 0.68983 0.63828 0.18893
 C594 C 0.69336 0.64417 0.17889
 H595 H 0.67453 0.64226 0.20019
 H596 H 0.70104 0.64237 0.17362
 H597 H 0.67846 0.67405 0.17780
 H598 H 0.66882 0.66495 0.16813
 N599 N 0.15303 0.07281 1.06455
 N600 N 0.15329 0.06451 1.07256
 C601 C 0.14450 0.05686 1.07046
 C602 C 0.13841 0.06053 1.06056
 C603 C 0.14411 0.07073 1.05709
 H604 H 0.14281 0.04911 1.07565
 H605 H 0.14210 0.07616 1.04958
 Cu606 Cu 0.16541 0.06430 1.08460
 Cu607 Cu 0.16460 0.08542 1.06402
 Cu608 Cu 0.18612 0.08531 1.08559
 N609 N 0.17744 0.06438 1.09675
 N610 N 0.18549 0.07264 1.09707
 C611 C 0.19293 0.07047 1.10599
 C612 C 0.18940 0.06026 1.11161
 C613 C 0.17949 0.05667 1.10548
 H614 H 0.20046 0.07586 1.10804
 H615 H 0.17425 0.04892 1.10711
 N616 N 0.18526 0.09734 1.07317
 N617 N 0.17708 0.09738 1.06497
 C618 C 0.17912 0.10636 1.05756
 C619 C 0.18910 0.11230 1.06124
 C620 C 0.19272 0.10631 1.07120
 H621 H 0.17381 0.10830 1.04995
 H622 H 0.20034 0.10819 1.07653
 H623 H 0.17802 0.07626 1.07211
 H624 H 0.16836 0.08532 1.08179
 N625 N 0.59744 0.18549 0.57288
 N626 N 0.59714 0.17745 0.56460
 C627 C 0.60608 0.17933 0.55709
 C628 C 0.61233 0.18911 0.56084
 C629 C 0.60655 0.19275 0.57092
 H630 H 0.60780 0.17404 0.54940
 H631 H 0.60867 0.20021 0.57640
 Cu632 Cu 0.58488 0.16554 0.56431
 Cu633 Cu 0.58577 0.18628 0.58534
 Cu634 Cu 0.56412 0.16486 0.58528
 N635 N 0.57279 0.15346 0.56448
 N636 N 0.56476 0.15322 0.57275
 C637 C 0.55731 0.14430 0.57066
 C638 C 0.56080 0.13858 0.56048
 C639 C 0.57070 0.14466 0.55683
 H640 H 0.54978 0.14230 0.57608
 H641 H 0.57592 0.14295 0.54910
 N642 N 0.56496 0.17743 0.59716
 N643 N 0.57317 0.18560 0.59717
 C644 C 0.57102 0.19320 0.60598
 C645 C 0.56093 0.18970 0.61181
 C646 C 0.55737 0.17963 0.60596
 H647 H 0.57630 0.20087 0.60783
 H648 H 0.54967 0.17439 0.60778
 H649 H 0.58190 0.16852 0.58530
 H650 H 0.57232 0.17822 0.57617
 N651 N 0.09761 0.57358 0.68493
 N652 N 0.09674 0.56468 0.67760
 C653 C 0.10500 0.55665 0.68028
 C654 C 0.11145 0.56071 0.68980
 C655 C 0.10648 0.57153 0.69247
 H656 H 0.10611 0.54839 0.67573
 H657 H 0.10905 0.57751 0.69939
 Cu658 Cu 0.08466 0.56447 0.66553
 Cu659 Cu 0.08708 0.58711 0.68421
 Cu660 Cu 0.06348 0.58491 0.66496
 N661 N 0.07259 0.56430 0.65344
 N662 N 0.06424 0.57228 0.65340
 C663 C 0.05675 0.57001 0.64457
 C664 C 0.06054 0.56002 0.63869
 C665 C 0.07067 0.55666 0.64460
 H666 H 0.04904 0.57521 0.64269
 H667 H 0.07615 0.54914 0.64273
 N668 N 0.06455 0.59705 0.67726
 N669 N 0.07359 0.59802 0.68444
 C670 C 0.07157 0.60695 0.69195
 C671 C 0.06072 0.61186 0.68937
 C672 C 0.05657 0.60533 0.67998
 H673 H 0.07751 0.60955 0.69888
 H674 H 0.04823 0.60636 0.67557
 H675 H 0.07321 0.57709 0.67827
 H676 H 0.08125 0.58565 0.66683
 N677 N 0.65311 0.56443 0.07232
 N678 N 0.65341 0.57243 0.06402
 C679 C 0.64461 0.57038 0.05637
 C680 C 0.63845 0.56052 0.06006
 C681 C 0.64414 0.55702 0.07024
 H682 H 0.64294 0.57559 0.04863
 H683 H 0.64204 0.54956 0.07571
 Cu684 Cu 0.66557 0.58448 0.06389
 Cu685 Cu 0.66472 0.56377 0.08489
 Cu686 Cu 0.68627 0.58531 0.08490
 N687 N 0.67762 0.59662 0.06403
 N688 N 0.68563 0.59692 0.07234
 C689 C 0.69304 0.60589 0.07028
 C690 C 0.68954 0.61157 0.06009
 C691 C 0.67968 0.60541 0.05639
 H692 H 0.70051 0.60797 0.07575
 H693 H 0.67447 0.60709 0.04864
 N694 N 0.68545 0.57278 0.09682
 N695 N 0.67725 0.56458 0.09682
 C696 C 0.67939 0.55702 0.10565
 C697 C 0.68946 0.56056 0.11152
 C698 C 0.69301 0.57063 0.10566
 H699 H 0.67412 0.54936 0.10750
 H700 H 0.70067 0.57591 0.10752
 H701 H 0.66848 0.58158 0.08491
 H702 H 0.67812 0.57191 0.07581
 N703 N 0.07335 0.68537 0.59715
 N704 N 0.06531 0.67709 0.59720
 C705 C 0.05765 0.67924 0.60595
 C706 C 0.06104 0.68945 0.61172
 C707 C 0.07109 0.69305 0.60585
 H708 H 0.05008 0.67385 0.60784
 H709 H 0.07630 0.70078 0.60761
 Cu710 Cu 0.06535 0.66449 0.58559
 Cu711 Cu 0.08583 0.68592 0.58552
 Cu712 Cu 0.08574 0.66435 0.56409
 N713 N 0.06522 0.65279 0.57308
 N714 N 0.07321 0.65277 0.56477
 C715 C 0.07089 0.64402 0.55717
 C716 C 0.06085 0.63819 0.56085
 C717 C 0.05752 0.64404 0.57102
 H718 H 0.07606 0.64220 0.54943
 H719 H 0.04997 0.64220 0.57645
 N720 N 0.09768 0.67684 0.56484
 N721 N 0.09772 0.68505 0.57301
 C722 C 0.10668 0.69249 0.57096
 C723 C 0.11260 0.68882 0.56097
 C724 C 0.10662 0.67884 0.55736
 H725 H 0.10862 0.70011 0.57627
 H726 H 0.10851 0.67349 0.54976
 H727 H 0.07632 0.67743 0.57252
 H728 H 0.08615 0.66812 0.58183
 N729 N 0.57253 1.06455 0.65277
 N730 N 0.56426 1.07261 0.65298
 C731 C 0.55666 1.07054 0.64415
 C732 C 0.56031 1.06060 0.63804
 C733 C 0.57048 1.05710 0.64382
 H734 H 0.54897 1.07583 0.64244
 H735 H 0.57596 1.04960 0.64186
 Cu736 Cu 0.56404 1.08467 0.66513
 Cu737 Cu 0.58503 1.06391 0.66443
 Cu738 Cu 0.58492 1.08550 0.68595
 N739 N 0.56415 1.09686 0.67716
 N740 N 0.57237 1.09712 0.68524
 C741 C 0.57025 1.10607 0.69267
 C742 C 0.56008 1.11181 0.68912
 C743 C 0.55650 1.10567 0.67917
 H744 H 0.57569 1.10806 0.70018
 H745 H 0.54882 1.10734 0.67385
 N746 N 0.59685 1.07297 0.68519
 N747 N 0.59690 1.06476 0.67701
 C748 C 0.60575 1.05722 0.67918
 C749 C 0.61159 1.06080 0.68925
 C750 C 0.60568 1.07086 0.69278
 H751 H 0.60764 1.04954 0.67392
 H752 H 0.60748 1.07614 0.70045
 H753 H 0.57579 1.07204 0.67779
 H754 H 0.58498 1.08168 0.66820
 N755 N 0.43493 0.34797 0.92683
 N756 N 0.42679 0.34776 0.93500
 C757 C 0.42872 0.35662 0.94261
 C758 C 0.43866 0.36277 0.93906
 C759 C 0.44229 0.35697 0.92893
 H760 H 0.42338 0.35831 0.95027
 H761 H 0.44972 0.35906 0.92343
 Cu762 Cu 0.41476 0.33561 0.93508
 Cu763 Cu 0.43567 0.33630 0.91430
 Cu764 Cu 0.41422 0.31462 0.91435
 N765 N 0.40277 0.32342 0.93508
 N766 N 0.40263 0.31525 0.92691
 C767 C 0.39382 0.30771 0.92913
 C768 C 0.38812 0.31123 0.93930
 C769 C 0.39406 0.32130 0.94280
 H770 H 0.39179 0.30017 0.92372
 H771 H 0.39234 0.32656 0.95051
 N772 N 0.42672 0.31549 0.90241
 N773 N 0.43489 0.32372 0.90239
 C774 C 0.44229 0.32173 0.89339
 C775 C 0.43865 0.31174 0.88742
 C776 C 0.42872 0.30807 0.89342
 H777 H 0.44986 0.32709 0.89144
 H778 H 0.42342 0.30043 0.89151
 H779 H 0.41791 0.33247 0.91405
 H780 H 0.42748 0.32302 0.92340
 N781 N 0.93466 0.42626 0.34820
 N782 N 0.92660 0.43452 0.34801
 C783 C 0.92856 0.44205 0.35694
 C784 C 0.93845 0.43835 0.36310
 C785 C 0.94202 0.42824 0.35723
 H786 H 0.92323 0.44970 0.35869
 H787 H 0.94950 0.42274 0.35921
 Cu788 Cu 0.91456 0.43480 0.33586
 Cu789 Cu 0.93527 0.41374 0.33655
 Cu790 Cu 0.91366 0.41380 0.31509
 N791 N 0.90236 0.43463 0.32387
 N792 N 0.90207 0.42637 0.31581
 C793 C 0.89304 0.42841 0.30848
 C794 C 0.88728 0.43853 0.31209
 C795 C 0.89348 0.44221 0.32193
 H796 H 0.89095 0.42297 0.30098
 H797 H 0.89177 0.44992 0.32721
 N798 N 0.92616 0.40185 0.31584
 N799 N 0.93440 0.40183 0.32399
 C800 C 0.94182 0.39285 0.32191
 C801 C 0.93813 0.38690 0.31195
 C802 C 0.92814 0.39288 0.30837
 H803 H 0.94947 0.39093 0.32719
 H804 H 0.92278 0.39098 0.30078
 H805 H 0.92712 0.42294 0.32318
 H806 H 0.91751 0.41381 0.33283
 N807 N 0.31578 0.92663 0.40229
 N808 N 0.32412 0.93459 0.40221
 C809 C 0.32218 0.94210 0.39328
 C810 C 0.31205 0.93867 0.38742
 C811 C 0.30827 0.92878 0.39343
 H812 H 0.32768 0.94957 0.39128
 H813 H 0.30054 0.92357 0.39164
 Cu814 Cu 0.33653 0.93459 0.41399
 Cu815 Cu 0.31495 0.91432 0.41411
 Cu816 Cu 0.33646 0.91442 0.43562
 N817 N 0.34830 0.93471 0.42642
 N818 N 0.34825 0.92677 0.43478
 C819 C 0.35710 0.92897 0.44229
 C820 C 0.36310 0.93890 0.43850
 C821 C 0.35720 0.94226 0.42834
 H822 H 0.35887 0.92376 0.45000
 H823 H 0.35912 0.94970 0.42278
 N824 N 0.32380 0.90265 0.43501
 N825 N 0.31561 0.90261 0.42683
 C826 C 0.30801 0.89382 0.42905
 C827 C 0.31155 0.88803 0.43916
 C828 C 0.32163 0.89389 0.44265
 H829 H 0.30035 0.89193 0.42378
 H830 H 0.32692 0.89207 0.45031
 H831 H 0.32344 0.92380 0.42704
 H832 H 0.33269 0.91383 0.41784
 O833 O 0.24908 0.53149 0.73462
 O834 O 0.26928 0.52779 0.73627
 O835 O 0.23482 0.50082 0.71884
 O836 O 0.23490 0.48133 0.72221
 O837 O 0.21865 0.51540 0.74938
 O838 O 0.22295 0.51455 0.76991
 O839 O 0.26567 0.46979 0.75084
 O840 O 0.26309 0.47287 0.73068
 O841 O 0.28054 0.49932 0.76537
 O842 O 0.27656 0.52073 0.76422
 O843 O 0.25116 0.48508 0.78065
 O844 O 0.22999 0.48582 0.77685
 O845 O 0.25167 0.46981 0.76509
 O846 O 0.22961 0.47385 0.76360
 O847 O 0.26522 0.49924 0.78067
 O848 O 0.26354 0.52101 0.77645
 O849 O 0.28047 0.48495 0.75150
 O850 O 0.27687 0.48900 0.73007
 O851 O 0.23513 0.53166 0.74896
 O852 O 0.23635 0.52741 0.76996
 O853 O 0.21857 0.50119 0.73533
 O854 O 0.22333 0.47991 0.73734
 O855 O 0.24871 0.51518 0.71880
 O856 O 0.27001 0.51247 0.72325
 Zr857 Zr 0.25627 0.51450 0.73568
 O858 O 0.26761 0.50435 0.74620
 Zr859 Zr 0.23556 0.49385 0.73593
 O860 O 0.24619 0.48265 0.74611
 Zr861 Zr 0.23572 0.51467 0.75645
 O862 O 0.24603 0.50426 0.76776
 Zr863 Zr 0.26399 0.48651 0.74330
 O864 O 0.25340 0.49660 0.73183
 Zr865 Zr 0.26386 0.50715 0.76403
 O866 O 0.25354 0.51851 0.75355
 Zr867 Zr 0.24337 0.48636 0.76396
 O868 O 0.23177 0.49678 0.75378
 O869 O 0.23853 0.51159 0.73875
 O870 O 0.26110 0.48936 0.76111
 C871 C 0.24082 0.53654 0.74047
 C872 C 0.24045 0.50925 0.71385
 C873 C 0.21362 0.50955 0.74111
 C874 C 0.26026 0.46500 0.75952
 C875 C 0.28528 0.49055 0.76004
 C876 C 0.25974 0.49062 0.78547
 H877 H 0.27588 0.50619 0.74429
 H878 H 0.24412 0.50612 0.77602
 H879 H 0.23347 0.51657 0.73374
 H880 H 0.24450 0.47434 0.74419
 H881 H 0.26060 0.47657 0.72321
 H882 H 0.24062 0.47511 0.72419
 H883 H 0.25718 0.51937 0.78213
 H884 H 0.24402 0.53144 0.76922
 H885 H 0.28245 0.48233 0.73049
 H886 H 0.26919 0.51866 0.71717
 H887 H 0.23055 0.49312 0.78154
 H888 H 0.21946 0.50658 0.76988
 H889 H 0.26900 0.53123 0.74425
 H890 H 0.28145 0.51987 0.75710
 H891 H 0.21869 0.48135 0.74455
 H892 H 0.23141 0.46805 0.75737
 O893 O 0.21898 0.01500 0.24913
 O894 O 0.22280 0.01345 0.26930
 O895 O 0.24939 0.03099 0.23467
 O896 O 0.26892 0.02775 0.23464
 O897 O 0.23496 0.00032 0.21866
 O898 O 0.23612 -0.02026 0.22295
 O899 O 0.28084 -0.00077 0.26541
 O900 O 0.27760 0.01945 0.26278
 O901 O 0.25157 -0.01540 0.28046
 O902 O 0.23015 -0.01437 0.27663
 O903 O 0.26574 -0.03068 0.25101
 O904 O 0.26482 -0.02694 0.22984
 O905 O 0.28085 -0.01508 0.25144
 O906 O 0.27675 -0.01361 0.22942
 O907 O 0.25166 -0.03075 0.26513
 O908 O 0.22985 -0.02666 0.26364
 O909 O 0.26581 -0.00142 0.28030
 O910 O 0.26161 0.01996 0.27671
 O911 O 0.21889 0.00058 0.23522
 O912 O 0.22331 -0.02037 0.23640
 O913 O 0.24908 0.01445 0.21847
 O914 O 0.27038 0.01260 0.22309
 O915 O 0.23508 0.03097 0.24861
 O916 O 0.23801 0.02665 0.26989
 Zr917 Zr 0.23601 0.01412 0.25622
 O918 O 0.24630 0.00371 0.26753
 Zr919 Zr 0.25652 0.01395 0.23540
 O920 O 0.26787 0.00387 0.24599
 Zr921 Zr 0.23591 -0.00675 0.23571
 O922 O 0.24646 -0.01795 0.24600
 Zr923 Zr 0.26409 0.00671 0.26381
 O924 O 0.25385 0.01809 0.25325
 Zr925 Zr 0.24362 -0.01416 0.26383
 O926 O 0.23215 -0.00381 0.25354
 Zr927 Zr 0.26429 -0.01402 0.24321
 O928 O 0.25374 -0.00396 0.23165
 O929 O 0.23884 0.01100 0.23848
 O930 O 0.26136 -0.01113 0.26096
 C931 C 0.21396 0.00905 0.24091
 C932 C 0.24091 0.03592 0.24030
 C933 C 0.24070 0.00862 0.21359
 C934 C 0.28564 -0.00947 0.26001
 C935 C 0.26029 -0.00998 0.28517
 C936 C 0.26029 -0.03551 0.25963
 H937 H 0.24449 0.00565 0.27580
 H938 H 0.24465 -0.02624 0.24412
 H939 H 0.23379 0.01595 0.23345
 H940 H 0.27614 0.00584 0.24425
 H941 H 0.27382 0.02689 0.26034
 H942 H 0.27517 0.02584 0.24035
 H943 H 0.23142 -0.03228 0.25720
 H944 H 0.21933 -0.01966 0.24409
 H945 H 0.26831 0.01956 0.28226
 H946 H 0.23172 0.03264 0.26913
 H947 H 0.25754 -0.03164 0.23042
 H948 H 0.24399 -0.02002 0.21926
 H949 H 0.21952 0.00540 0.26913
 H950 H 0.23112 -0.00733 0.28163
 H951 H 0.26899 0.00535 0.21849
 H952 H 0.28255 -0.00739 0.23124
 O953 O 0.53176 0.73512 0.24923
 O954 O 0.52860 0.73561 0.26856
 O955 O 0.50110 0.71898 0.23470
 O956 O 0.48158 0.72238 0.23486
 O957 O 0.51565 0.74957 0.21867
 O958 O 0.51464 0.77015 0.22293
 O959 O 0.47001 0.75110 0.26556
 O960 O 0.47317 0.73088 0.26299
 O961 O 0.49913 0.76597 0.28030
 O962 O 0.52091 0.76448 0.27644
 O963 O 0.48518 0.78088 0.25104
 O964 O 0.48602 0.77698 0.22980
 O965 O 0.46998 0.76530 0.25150
 O966 O 0.47397 0.76380 0.22954
 O967 O 0.49946 0.78106 0.26496
 O968 O 0.52106 0.77685 0.26362
 O969 O 0.48507 0.75181 0.28041
 O970 O 0.48920 0.73044 0.27696
 O971 O 0.53177 0.74927 0.23510
 O972 O 0.52755 0.77019 0.23632
 O973 O 0.50149 0.73548 0.21855
 O974 O 0.48018 0.73748 0.22326
 O975 O 0.51535 0.71897 0.24869
 O976 O 0.51242 0.72403 0.27043
 Zr977 Zr 0.51469 0.73591 0.25625
 O978 O 0.50458 0.74653 0.26760
 Zr979 Zr 0.49410 0.73608 0.23551
 O980 O 0.48289 0.74630 0.24613
 Zr981 Zr 0.51482 0.75668 0.23571
 O982 O 0.50439 0.76803 0.24595
 Zr983 Zr 0.48675 0.74356 0.26395
 O984 O 0.49683 0.73201 0.25337
 Zr985 Zr 0.50728 0.76436 0.26379
 O986 O 0.51864 0.75382 0.25355
 Zr987 Zr 0.48652 0.76417 0.24325
 O988 O 0.49696 0.75396 0.23170
 O989 O 0.51182 0.73893 0.23851
 O990 O 0.48952 0.76137 0.26100
 C991 C 0.53673 0.74090 0.24088
 C992 C 0.50950 0.71400 0.24039
 C993 C 0.50987 0.74126 0.21364
 C994 C 0.46519 0.75975 0.26011
 C995 C 0.49049 0.76053 0.28511
 C996 C 0.49077 0.78579 0.25953
 H997 H 0.50644 0.74472 0.27589
 H998 H 0.50624 0.77629 0.24401
 H999 H 0.51684 0.73392 0.23350
 H1000 H 0.47460 0.74436 0.24443
 H1001 H 0.47693 0.72338 0.26065
 H1002 H 0.47542 0.72434 0.24064
 H1003 H 0.51973 0.78220 0.25691
 H1004 H 0.53153 0.76950 0.24401
 H1005 H 0.48244 0.73082 0.28242
 H1006 H 0.51777 0.71724 0.26928
 H1007 H 0.49324 0.78177 0.23045
 H1008 H 0.50674 0.76998 0.21931
 H1009 H 0.52860 0.74342 0.27234
 H1010 H 0.51894 0.75866 0.28258
 H1011 H 0.48162 0.74468 0.21861
 H1012 H 0.46828 0.75747 0.23129
 O1013 O 0.03149 0.73483 0.74911
 O1014 O 0.02778 0.73661 0.76936
 O1015 O 0.00090 0.71895 0.73492
 O1016 O -0.01860 0.72232 0.73498
 O1017 O 0.01543 0.74947 0.71873
 O1018 O 0.01446 0.77009 0.72298
 O1019 O -0.03025 0.75111 0.76559
 O1020 O -0.02715 0.73086 0.76297
 O1021 O -0.00088 0.76564 0.78053
 O1022 O 0.02056 0.76442 0.77669
 O1023 O -0.01500 0.78085 0.75112
 O1024 O -0.01411 0.77698 0.72989
 O1025 O -0.03021 0.76533 0.75156
 O1026 O -0.02620 0.76381 0.72959
 O1027 O -0.00084 0.78091 0.76517
 O1028 O 0.02091 0.77665 0.76367
 O1029 O -0.01516 0.75169 0.78044
 O1030 O -0.01110 0.73029 0.77689
 O1031 O 0.03159 0.74920 0.73520
 O1032 O 0.02733 0.77018 0.73636
 O1033 O 0.00126 0.73539 0.71864
 O1034 O -0.01999 0.73741 0.72330
 O1035 O 0.01522 0.71896 0.74886
 O1036 O 0.01256 0.72348 0.77010
 Zr1037 Zr 0.01451 0.73589 0.75634
 O1038 O 0.00428 0.74641 0.76764
 Zr1039 Zr -0.00611 0.73606 0.73560
 O1040 O -0.01735 0.74628 0.74616
 Zr1041 Zr 0.01462 0.75664 0.73576
 O1042 O 0.00420 0.76797 0.74606
 Zr1043 Zr -0.01354 0.74350 0.76397
 O1044 O -0.00338 0.73201 0.75345
 Zr1045 Zr 0.00706 0.76425 0.76390
 O1046 O 0.01845 0.75378 0.75360
 Zr1047 Zr -0.01367 0.76415 0.74333
 O1048 O -0.00324 0.75393 0.73177
 O1049 O 0.01160 0.73892 0.73860
 O1050 O -0.01071 0.76131 0.76107
 C1051 C 0.03649 0.74069 0.74084
 C1052 C 0.00932 0.71398 0.74060
 C1053 C 0.00964 0.74115 0.71372
 C1054 C -0.03502 0.75980 0.76016
 C1055 C -0.00962 0.76028 0.78526
 C1056 C -0.00948 0.78569 0.75970
 H1057 H 0.00610 0.74450 0.77591
 H1058 H 0.00606 0.77623 0.74415
 H1059 H 0.01659 0.73388 0.73357
 H1060 H -0.02564 0.74436 0.74444
 H1061 H -0.02342 0.72337 0.76058
 H1062 H -0.02489 0.72438 0.74060
 H1063 H 0.01942 0.78220 0.75716
 H1064 H 0.03133 0.76949 0.74404
 H1065 H -0.01782 0.73071 0.78241
 H1066 H 0.01882 0.71746 0.76934
 H1067 H -0.00688 0.78174 0.73055
 H1068 H 0.00655 0.76994 0.71937
 H1069 H 0.03117 0.74461 0.76905
 H1070 H 0.01958 0.75738 0.78168
 H1071 H -0.01863 0.74469 0.71875
 H1072 H -0.03193 0.75752 0.73133
 O1073 O 0.00109 0.03046 0.01561
 O1074 O -0.01909 0.02677 0.01393
 O1075 O 0.01542 -0.00016 0.03129
 O1076 O 0.01548 -0.01966 0.02784
 O1077 O 0.03150 0.01454 0.00075
 O1078 O 0.02719 0.01361 -0.01979
 O1079 O -0.01534 -0.03129 -0.00070
 O1080 O -0.01272 -0.02817 0.01946
 O1081 O -0.03035 -0.00175 -0.01514
 O1082 O -0.02648 0.01960 -0.01401
 O1083 O -0.00097 -0.01600 -0.03049
 O1084 O 0.02020 -0.01519 -0.02678
 O1085 O -0.00136 -0.03127 -0.01497
 O1086 O 0.02069 -0.02713 -0.01351
 O1087 O -0.01503 -0.00183 -0.03047
 O1088 O -0.01340 0.02000 -0.02618
 O1089 O -0.03022 -0.01613 -0.00132
 O1090 O -0.02665 -0.01214 0.02006
 O1091 O 0.01498 0.03066 0.00122
 O1092 O 0.01371 0.02641 -0.01980
 O1093 O 0.03165 0.00034 0.01479
 O1094 O 0.02701 -0.02100 0.01270
 O1095 O 0.00146 0.01415 0.03139
 O1096 O -0.01983 0.01142 0.02691
 Zr1097 Zr -0.00608 0.01347 0.01450
 O1098 O -0.01739 0.00328 0.00399
 Zr1099 Zr 0.01471 -0.00712 0.01418
 O1100 O 0.00409 -0.01836 0.00401
 Zr1101 Zr 0.01443 0.01368 -0.00631
 O1102 O 0.00414 0.00322 -0.01761
 Zr1103 Zr -0.01372 -0.01455 0.00685
 O1104 O -0.00314 -0.00443 0.01831
 Zr1105 Zr -0.01368 0.00609 -0.01383
 O1106 O -0.00339 0.01748 -0.00336
 Zr1107 Zr 0.00687 -0.01467 -0.01384
 O1108 O 0.01846 -0.00420 -0.00368
 O1109 O 0.01166 0.01061 0.01140
 O1110 O -0.01087 -0.01171 -0.01095
 C1111 C 0.00932 0.03552 0.00974
 C1112 C 0.00975 0.00825 0.03630
 C1113 C 0.03654 0.00875 0.00903
 C1114 C -0.00992 -0.03609 -0.00937
 C1115 C -0.03507 -0.01050 -0.00981
 C1116 C -0.00957 -0.01048 -0.03528
 H1117 H -0.02567 0.00511 0.00592
 H1118 H 0.00603 0.00509 -0.02587
 H1119 H 0.01670 0.01560 0.01642
 H1120 H 0.00583 -0.02666 0.00592
 H1121 H -0.01033 -0.02443 0.02695
 H1122 H 0.00967 -0.02582 0.02592
 H1123 H -0.00705 0.01837 -0.03188
 H1124 H 0.00605 0.03044 -0.01901
 H1125 H -0.03216 -0.01887 0.01963
 H1126 H -0.01906 0.01764 0.03298
 H1127 H 0.01968 -0.00783 -0.03136
 H1128 H 0.03082 0.00571 -0.01969
 H1129 H -0.01890 0.03012 0.00591
 H1130 H -0.03138 0.01870 -0.00691
 H1131 H 0.03165 -0.01951 0.00551
 H1132 H 0.01889 -0.03296 -0.00733
 O1133 O 0.03127 0.51521 0.50072
 O1134 O 0.02743 0.51353 0.48053
 O1135 O 0.00081 0.53107 0.51520
 O1136 O -0.01869 0.52775 0.51527
 O1137 O 0.01541 0.50043 0.53118
 O1138 O 0.01440 0.47983 0.52682
 O1139 O -0.03054 0.49910 0.48456
 O1140 O -0.02740 0.51931 0.48712
 O1141 O -0.00124 0.48451 0.46944
 O1142 O 0.02014 0.48558 0.47316
 O1143 O -0.01526 0.46927 0.49893
 O1144 O -0.01429 0.47314 0.52015
 O1145 O -0.03045 0.48483 0.49854
 O1146 O -0.02635 0.48632 0.52049
 O1147 O -0.00121 0.46921 0.48478
 O1148 O 0.02062 0.47345 0.48626
 O1149 O -0.01553 0.49846 0.46961
 O1150 O -0.01140 0.51987 0.47319
 O1151 O 0.03145 0.50081 0.51461
 O1152 O 0.02721 0.47984 0.51341
 O1153 O 0.00126 0.51453 0.53140
 O1154 O -0.02008 0.51261 0.52680
 O1155 O 0.01506 0.53109 0.50121
 O1156 O 0.01214 0.52666 0.47993
 Zr1157 Zr 0.01424 0.51419 0.49362
 O1158 O 0.00398 0.50370 0.48235
 Zr1159 Zr -0.00623 0.51399 0.51448
 O1160 O -0.01754 0.50384 0.50392
 Zr1161 Zr 0.01448 0.49336 0.51413
 O1162 O 0.00397 0.48209 0.50388
 Zr1163 Zr -0.01381 0.50664 0.48609
 O1164 O -0.00361 0.51809 0.49662
 Zr1165 Zr 0.00674 0.48584 0.48604
 O1166 O 0.01820 0.49628 0.49629
 Zr1167 Zr -0.01387 0.48596 0.50671
 O1168 O -0.00334 0.49610 0.51824
 O1169 O 0.01145 0.51110 0.51137
 O1170 O -0.01100 0.48881 0.48895
 C1171 C 0.03631 0.50932 0.50895
 C1172 C 0.00922 0.53604 0.50953
 C1173 C 0.00966 0.50874 0.53625
 C1174 C -0.03530 0.49041 0.49000
 C1175 C -0.01000 0.48989 0.46475
 C1176 C -0.00981 0.46443 0.49032
 H1177 H 0.00576 0.50562 0.47407
 H1178 H 0.00582 0.47381 0.50577
 H1179 H 0.01648 0.51610 0.51639
 H1180 H -0.02581 0.50579 0.50568
 H1181 H -0.02365 0.52679 0.48954
 H1182 H -0.02491 0.52584 0.50952
 H1183 H 0.01903 0.46776 0.49263
 H1184 H 0.03114 0.48055 0.50569
 H1185 H -0.01813 0.51946 0.46767
 H1186 H 0.01841 0.53267 0.48066
 H1187 H -0.00705 0.46838 0.51948
 H1188 H 0.00656 0.48003 0.53056
 H1189 H 0.03077 0.50549 0.48073
 H1190 H 0.01926 0.49272 0.46829
 H1191 H -0.01866 0.50535 0.53138
 H1192 H -0.03216 0.49254 0.51870
 O1193 O 0.50083 0.03153 0.51516
 O1194 O 0.48061 0.02773 0.51345
 O1195 O 0.51513 0.00104 0.53116
 O1196 O 0.51515 -0.01850 0.52785
 O1197 O 0.53135 0.01549 0.50063
 O1198 O 0.52719 0.01445 0.48009
 O1199 O 0.48451 -0.03030 0.49903
 O1200 O 0.48702 -0.02710 0.51930
 O1201 O 0.46960 -0.00087 0.48444
 O1202 O 0.47345 0.02050 0.48554
 O1203 O 0.49909 -0.01514 0.46937
 O1204 O 0.52033 -0.01423 0.47329
 O1205 O 0.49864 -0.03031 0.48491
 O1206 O 0.52056 -0.02630 0.48644
 O1207 O 0.48502 -0.00100 0.46924
 O1208 O 0.48659 0.02085 0.47344
 O1209 O 0.46963 -0.01517 0.49835
 O1210 O 0.47311 -0.01106 0.51974
 O1211 O 0.51481 0.03161 0.50085
 O1212 O 0.51375 0.02724 0.47989
 O1213 O 0.53144 0.00136 0.51473
 O1214 O 0.52679 -0.01996 0.51280
 O1215 O 0.50121 0.01539 0.53108
 O1216 O 0.47997 0.01249 0.52661
 Zr1217 Zr 0.49370 0.01452 0.51418
 O1218 O 0.48244 0.00427 0.50365
 Zr1219 Zr 0.51449 -0.00606 0.51410
 O1220 O 0.50394 -0.01736 0.50390
 Zr1221 Zr 0.51433 0.01460 0.49347
 O1222 O 0.50410 0.00412 0.48216
 Zr1223 Zr 0.48609 -0.01355 0.50660
 O1224 O 0.49661 -0.00336 0.51809
 Zr1225 Zr 0.48625 0.00700 0.48584
 O1226 O 0.49649 0.01843 0.49630
 Zr1227 Zr 0.50683 -0.01374 0.48606
 O1228 O 0.51835 -0.00325 0.49625
 O1229 O 0.51146 0.01164 0.51118
 O1230 O 0.48907 -0.01077 0.48882
 C1231 C 0.50910 0.03654 0.50929
 C1232 C 0.50948 0.00952 0.53608
 C1233 C 0.53636 0.00973 0.50895
 C1234 C 0.49000 -0.03511 0.49040
 C1235 C 0.46483 -0.00959 0.48979
 C1236 C 0.49052 -0.00965 0.46451
 H1237 H 0.47416 0.00610 0.50553
 H1238 H 0.50603 0.00595 0.47391
 H1239 H 0.51647 0.01667 0.51618
 H1240 H 0.50565 -0.02565 0.50586
 H1241 H 0.48942 -0.02332 0.52677
 H1242 H 0.50939 -0.02470 0.52592
 H1243 H 0.49296 0.01920 0.46777
 H1244 H 0.50607 0.03127 0.48057
 H1245 H 0.46757 -0.01776 0.51930
 H1246 H 0.48069 0.01879 0.53260
 H1247 H 0.51964 -0.00705 0.46846
 H1248 H 0.53075 0.00651 0.48020
 H1249 H 0.48092 0.03112 0.50546
 H1250 H 0.46848 0.01961 0.49261
 H1251 H 0.53142 -0.01857 0.50557
 H1252 H 0.51889 -0.03190 0.49285
 O1253 O 0.53086 0.51537 0.00089
 O1254 O 0.52705 0.51376 -0.01930
 O1255 O 0.50034 0.53137 0.01523
 O1256 O 0.48085 0.52803 0.01537
 O1257 O 0.51498 0.50084 0.03135
 O1258 O 0.51389 0.48024 0.02718
 O1259 O 0.46905 0.49937 -0.01542
 O1260 O 0.47213 0.51948 -0.01281
 O1261 O 0.49845 0.48471 -0.03036
 O1262 O 0.51981 0.48579 -0.02652
 O1263 O 0.48423 0.46955 -0.00088
 O1264 O 0.48506 0.47336 0.02021
 O1265 O 0.46907 0.48516 -0.00139
 O1266 O 0.47320 0.48682 0.02066
 O1267 O 0.49830 0.46946 -0.01501
 O1268 O 0.52013 0.47358 -0.01346
 O1269 O 0.48416 0.49866 -0.03027
 O1270 O 0.48818 0.52012 -0.02670
 O1271 O 0.53101 0.50103 0.01484
 O1272 O 0.52662 0.48001 0.01364
 O1273 O 0.50083 0.51495 0.03149
 O1274 O 0.47946 0.51289 0.02689
 O1275 O 0.51466 0.53131 0.00131
 O1276 O 0.51182 0.52684 -0.01997
 Zr1277 Zr 0.51384 0.51441 -0.00623
 O1278 O 0.50359 0.50391 -0.01750
 Zr1279 Zr 0.49332 0.51429 0.01458
 O1280 O 0.48202 0.50413 0.00402
 Zr1281 Zr 0.51401 0.49364 0.01435
 O1282 O 0.50349 0.48236 0.00411
 Zr1283 Zr 0.48579 0.50688 -0.01381
 O1284 O 0.49598 0.51835 -0.00328
 Zr1285 Zr 0.50633 0.48606 -0.01372
 O1286 O 0.51778 0.49651 -0.00349
 Zr1287 Zr 0.48564 0.48626 0.00686
 O1288 O 0.49617 0.49640 0.01839
 O1289 O 0.51101 0.51138 0.01151
 O1290 O 0.48857 0.48906 -0.01090
 C1291 C 0.53590 0.50949 0.00913
 C1292 C 0.50879 0.53631 0.00958
 C1293 C 0.50925 0.50920 0.03637
 C1294 C 0.46425 0.49073 -0.00997
 C1295 C 0.48972 0.49008 -0.03509
 C1296 C 0.48969 0.46470 -0.00950
 H1297 H 0.50539 0.50581 -0.02578
 H1298 H 0.50532 0.47409 0.00601
 H1299 H 0.51605 0.51639 0.01651
 H1300 H 0.47374 0.50610 0.00575
 H1301 H 0.47583 0.52697 -0.01035
 H1302 H 0.47462 0.52610 0.00964
 H1303 H 0.51849 0.46791 -0.00709
 H1304 H 0.53068 0.48079 0.00600
 H1305 H 0.48148 0.51965 -0.03225
 H1306 H 0.51805 0.53289 -0.01920
 H1307 H 0.49254 0.46895 0.01992
 H1308 H 0.50604 0.48049 0.03091
 H1309 H 0.53040 0.50573 -0.01910
 H1310 H 0.51894 0.49290 -0.03143
 H1311 H 0.48094 0.50569 0.03154
 H1312 H 0.46726 0.49286 0.01870
 O1313 O 0.75114 0.26558 0.46907
 O1314 O 0.73089 0.26386 0.47283
 O1315 O 0.76538 0.28140 0.49968
 O1316 O 0.76531 0.27802 0.51919
 O1317 O 0.78161 0.25093 0.48511
 O1318 O 0.77740 0.23031 0.48599
 O1319 O 0.73457 0.24922 0.53062
 O1320 O 0.73722 0.26939 0.52769
 O1321 O 0.71980 0.23472 0.50116
 O1322 O 0.72375 0.23592 0.47978
 O1323 O 0.74921 0.21950 0.51540
 O1324 O 0.77043 0.22337 0.51458
 O1325 O 0.74865 0.23503 0.53062
 O1326 O 0.77069 0.23648 0.52669
 O1327 O 0.73519 0.21945 0.50121
 O1328 O 0.73682 0.22374 0.47945
 O1329 O 0.71979 0.24868 0.51544
 O1330 O 0.72338 0.27010 0.51156
 O1331 O 0.76510 0.25123 0.46894
 O1332 O 0.76407 0.23022 0.47316
 O1333 O 0.78166 0.26497 0.49932
 O1334 O 0.77696 0.26294 0.52058
 O1335 O 0.75151 0.28142 0.48531
 O1336 O 0.73027 0.27699 0.48816
 Zr1337 Zr 0.74397 0.26452 0.48604
 O1338 O 0.73267 0.25395 0.49616
 Zr1339 Zr 0.76469 0.26430 0.50667
 O1340 O 0.75410 0.25406 0.51785
 Zr1341 Zr 0.76459 0.24375 0.48588
 O1342 O 0.75430 0.23240 0.49625
 Zr1343 Zr 0.73629 0.25685 0.51398
 O1344 O 0.74683 0.26837 0.50393
 Zr1345 Zr 0.73647 0.23612 0.49334
 O1346 O 0.74676 0.24663 0.48203
 Zr1347 Zr 0.75697 0.23621 0.51412
 O1348 O 0.76855 0.24643 0.50375
 O1349 O 0.76171 0.26147 0.48895
 O1350 O 0.73923 0.23903 0.51112
 C1351 C 0.75941 0.25972 0.46406
 C1352 C 0.75977 0.28637 0.49123
 C1353 C 0.78659 0.25924 0.49093
 C1354 C 0.74001 0.24055 0.53539
 C1355 C 0.71501 0.24011 0.50985
 C1356 C 0.74065 0.21466 0.50984
 H1357 H 0.72440 0.25586 0.49432
 H1358 H 0.75623 0.22414 0.49437
 H1359 H 0.76675 0.26649 0.48398
 H1360 H 0.75581 0.25597 0.52615
 H1361 H 0.73955 0.27693 0.52403
 H1362 H 0.75951 0.27607 0.52534
 H1363 H 0.74321 0.21807 0.48105
 H1364 H 0.75638 0.23089 0.46916
 H1365 H 0.71787 0.26970 0.51830
 H1366 H 0.73096 0.28299 0.48189
 H1367 H 0.76988 0.21871 0.50727
 H1368 H 0.78109 0.23050 0.49386
 H1369 H 0.73123 0.25590 0.46935
 H1370 H 0.71876 0.24297 0.48073
 H1371 H 0.78153 0.25567 0.51920
 H1372 H 0.76886 0.24266 0.53252
 O1373 O 0.73472 0.74936 0.03085
 O1374 O 0.73649 0.76958 0.02716
 O1375 O 0.71865 0.73520 0.00035
 O1376 O 0.72189 0.73534 -0.01917
 O1377 O 0.74915 0.71883 0.01471
 O1378 O 0.76973 0.72293 0.01362
 O1379 O 0.75078 0.76591 -0.03081
 O1380 O 0.73058 0.76339 -0.02769
 O1381 O 0.76548 0.78062 -0.00137
 O1382 O 0.76446 0.77666 0.01995
 O1383 O 0.78051 0.75110 -0.01579
 O1384 O 0.77652 0.72991 -0.01507
 O1385 O 0.76491 0.75177 -0.03092
 O1386 O 0.76321 0.72971 -0.02699
 O1387 O 0.78068 0.76516 -0.00162
 O1388 O 0.77653 0.76347 0.02021
 O1389 O 0.75150 0.78070 -0.01560
 O1390 O 0.73012 0.77724 -0.01158
 O1391 O 0.74900 0.73533 0.03089
 O1392 O 0.76997 0.73631 0.02651
 O1393 O 0.73505 0.71884 0.00057
 O1394 O 0.73692 0.72359 -0.02072
 O1395 O 0.71878 0.74911 0.01471
 O1396 O 0.72333 0.77036 0.01193
 Zr1397 Zr 0.73571 0.75655 0.01389
 O1398 O 0.74626 0.76782 0.00371
 Zr1399 Zr 0.73570 0.73583 -0.00676
 O1400 O 0.74591 0.74640 -0.01800
 Zr1401 Zr 0.75637 0.73583 0.01388
 O1402 O 0.76770 0.74606 0.00343
 Zr1403 Zr 0.74325 0.76424 -0.01410
 O1404 O 0.73174 0.75372 -0.00397
 Zr1405 Zr 0.76408 0.76392 0.00640
 O1406 O 0.75360 0.75368 0.01778
 Zr1407 Zr 0.76376 0.74343 -0.01442
 O1408 O 0.75356 0.73190 -0.00398
 O1409 O 0.73866 0.73878 0.01094
 O1410 O 0.76105 0.76120 -0.01137
 C1411 C 0.74057 0.74107 0.03583
 C1412 C 0.71375 0.74087 0.00882
 C1413 C 0.74081 0.71386 0.00892
 C1414 C 0.75940 0.76044 -0.03565
 C1415 C 0.76010 0.78545 -0.01003
 C1416 C 0.78540 0.75966 -0.01028
 H1417 H 0.74440 0.77610 0.00558
 H1418 H 0.77595 0.74408 0.00524
 H1419 H 0.73364 0.73377 0.01594
 H1420 H 0.74393 0.74473 -0.02629
 H1421 H 0.72309 0.76103 -0.02397
 H1422 H 0.72391 0.74102 -0.02540
 H1423 H 0.78216 0.75706 0.01852
 H1424 H 0.76933 0.74399 0.03055
 H1425 H 0.73054 0.78279 -0.01828
 H1426 H 0.71733 0.76963 0.01821
 H1427 H 0.78120 0.73037 -0.00777
 H1428 H 0.76950 0.71931 0.00571
 H1429 H 0.74450 0.76927 0.03052
 H1430 H 0.75739 0.78166 0.01911
 H1431 H 0.74414 0.71893 -0.01938
 H1432 H 0.75699 0.73160 -0.03275
 O1433 O 1.00058 0.21832 0.23485
 O1434 O 0.98037 0.22216 0.23657
 O1435 O 1.01490 0.24882 0.21890
 O1436 O 1.01489 0.26834 0.22220
 O1437 O 1.03111 0.23429 0.24936
 O1438 O 1.02698 0.23535 0.26995
 O1439 O 0.98430 0.28016 0.25102
 O1440 O 0.98683 0.27701 0.23080
 O1441 O 0.96940 0.25076 0.26560
 O1442 O 0.97323 0.22940 0.26453
 O1443 O 0.99896 0.26497 0.28073
 O1444 O 1.02014 0.26409 0.27678
 O1445 O 0.99840 0.28015 0.26518
 O1446 O 1.02041 0.27608 0.26356
 O1447 O 0.98483 0.25088 0.28083
 O1448 O 0.98640 0.22902 0.27662
 O1449 O 0.96944 0.26504 0.25168
 O1450 O 0.97292 0.26098 0.23029
 O1451 O 1.01457 0.21820 0.24917
 O1452 O 1.01354 0.22256 0.27013
 O1453 O 1.03120 0.24846 0.23530
 O1454 O 1.02657 0.26980 0.23727
 O1455 O 1.00097 0.23449 0.21896
 O1456 O 0.97973 0.23741 0.22343
 Zr1457 Zr 0.99346 0.23535 0.23586
 O1458 O 0.98223 0.24560 0.24640
 Zr1459 Zr 1.01426 0.25591 0.23596
 O1460 O 1.00373 0.26721 0.24617
 Zr1461 Zr 1.01412 0.23521 0.25656
 O1462 O 1.00390 0.24572 0.26789
 Zr1463 Zr 0.98589 0.26342 0.24345
 O1464 O 0.99638 0.25323 0.23196
 Zr1465 Zr 0.98605 0.24287 0.26422
 O1466 O 0.99627 0.23143 0.25374
 Zr1467 Zr 1.00664 0.26358 0.26401
 O1468 O 1.01814 0.25307 0.25381
 O1469 O 1.01122 0.23820 0.23886
 O1470 O 0.98887 0.26064 0.26124
 C1471 C 1.00884 0.21329 0.24071
 C1472 C 1.00924 0.24035 0.21397
 C1473 C 1.03611 0.24005 0.24103
 C1474 C 0.98977 0.28495 0.25967
 C1475 C 0.96464 0.25948 0.26024
 C1476 C 0.99038 0.25950 0.28559
 H1477 H 0.97394 0.24379 0.24452
 H1478 H 1.00585 0.24388 0.27614
 H1479 H 1.01622 0.23317 0.23385
 H1480 H 1.00545 0.27550 0.24421
 H1481 H 0.98923 0.27325 0.22333
 H1482 H 1.00921 0.27461 0.22419
 H1483 H 0.99279 0.23066 0.28228
 H1484 H 1.00585 0.21857 0.26946
 H1485 H 0.96738 0.26769 0.23074
 H1486 H 0.98044 0.23112 0.21743
 H1487 H 1.01959 0.25680 0.28147
 H1488 H 1.03063 0.24325 0.26976
 H1489 H 0.98064 0.21879 0.24458
 H1490 H 0.96828 0.23028 0.25745
 H1491 H 1.03120 0.26840 0.24449
 H1492 H 1.01860 0.28183 0.25731
 O1493 O 0.74935 1.03124 0.73450
 O1494 O 0.76952 1.02747 0.73622
 O1495 O 0.73508 1.00064 0.71864
 O1496 O 0.73502 0.98114 0.72207
 O1497 O 0.71878 1.01538 0.74906
 O1498 O 0.72291 1.01462 0.76961
 O1499 O 0.76554 0.96953 0.75103
 O1500 O 0.76308 0.97250 0.73080
 O1501 O 0.78047 0.99900 0.76550
 O1502 O 0.77667 1.02039 0.76422
 O1503 O 0.75089 0.98495 0.78060
 O1504 O 0.72970 0.98587 0.77660
 O1505 O 0.75144 0.96966 0.76518
 O1506 O 0.72945 0.97372 0.76342
 O1507 O 0.76502 0.99903 0.78065
 O1508 O 0.76354 1.02086 0.77632
 O1509 O 0.78042 0.98460 0.75167
 O1510 O 0.77703 0.98848 0.73023
 O1511 O 0.73531 1.03146 0.74875
 O1512 O 0.73656 1.02727 0.76976
 O1513 O 0.71873 1.00120 0.73497
 O1514 O 0.72331 0.97985 0.73712
 O1515 O 0.74898 1.01500 0.71868
 O1516 O 0.77024 1.01208 0.72322
 Zr1517 Zr 0.75647 1.01422 0.73559
 O1518 O 0.76769 1.00404 0.74620
 Zr1519 Zr 0.73565 0.99370 0.73575
 O1520 O 0.74615 0.98246 0.74604
 Zr1521 Zr 0.73580 1.01453 0.75626
 O1522 O 0.74598 1.00411 0.76765
 Zr1523 Zr 0.76400 0.98620 0.74335
 O1524 O 0.75354 0.99632 0.73177
 Zr1525 Zr 0.76385 1.00691 0.76400
 O1526 O 0.75365 1.01828 0.75343
 Zr1527 Zr 0.74322 0.98622 0.76386
 O1528 O 0.73175 0.99667 0.75358
 O1529 O 0.73871 1.01142 0.73857
 O1530 O 0.76100 0.98913 0.76111
 C1531 C 0.74106 1.03631 0.74030
 C1532 C 0.74073 1.00908 0.71369
 C1533 C 0.71380 1.00961 0.74071
 C1534 C 0.76007 0.96481 0.75970
 C1535 C 0.78522 0.99021 0.76022
 C1536 C 0.75948 0.99045 0.78544
 H1537 H 0.77598 1.00583 0.74432
 H1538 H 0.74404 1.00601 0.77589
 H1539 H 0.73371 1.01641 0.73352
 H1540 H 0.74443 0.97416 0.74413
 H1541 H 0.76070 0.97618 0.72329
 H1542 H 0.74072 0.97491 0.72409
 H1543 H 0.75713 1.01929 0.78197
 H1544 H 0.74419 1.03135 0.76890
 H1545 H 0.78257 0.98177 0.73079
 H1546 H 0.76949 1.01827 0.71713
 H1547 H 0.73027 0.99319 0.78125
 H1548 H 0.71931 1.00670 0.76957
 H1549 H 0.76929 1.03086 0.74422
 H1550 H 0.78166 1.01940 0.75718
 H1551 H 0.71861 0.98137 0.74427
 H1552 H 0.73134 0.96784 0.75730
 O1553 O 0.71904 0.51565 0.24894
 O1554 O 0.72271 0.51389 0.26915
 O1555 O 0.74968 0.53141 0.23479
 O1556 O 0.76916 0.52799 0.23476
 O1557 O 0.73506 0.50090 0.21855
 O1558 O 0.73600 0.48032 0.22276
 O1559 O 0.78070 0.49935 0.26554
 O1560 O 0.77761 0.51955 0.26296
 O1561 O 0.75121 0.48480 0.28037
 O1562 O 0.72986 0.48594 0.27643
 O1563 O 0.76548 0.46956 0.25094
 O1564 O 0.76476 0.47336 0.22981
 O1565 O 0.78069 0.48508 0.25153
 O1566 O 0.77668 0.48670 0.22945
 O1567 O 0.75132 0.46952 0.26497
 O1568 O 0.72950 0.47380 0.26331
 O1569 O 0.76554 0.49870 0.28034
 O1570 O 0.76153 0.52013 0.27681
 O1571 O 0.71889 0.50128 0.23499
 O1572 O 0.72316 0.48022 0.23616
 O1573 O 0.74924 0.51496 0.21850
 O1574 O 0.77055 0.51283 0.22321
 O1575 O 0.73532 0.53146 0.24867
 O1576 O 0.73800 0.52697 0.26993
 Zr1577 Zr 0.73600 0.51454 0.25617
 O1578 O 0.74616 0.50401 0.26748
 Zr1579 Zr 0.75663 0.51430 0.23545
 O1580 O 0.76785 0.50411 0.24607
 Zr1581 Zr 0.73586 0.49376 0.23558
 O1582 O 0.74629 0.48244 0.24586
 Zr1583 Zr 0.76399 0.50691 0.26388
 O1584 O 0.75389 0.51840 0.25331
 Zr1585 Zr 0.74339 0.48617 0.26369
 O1586 O 0.73202 0.49666 0.25340
 Zr1587 Zr 0.76417 0.48626 0.24320
 O1588 O 0.75373 0.49643 0.23162
 O1589 O 0.73892 0.51148 0.23843
 O1590 O 0.76117 0.48910 0.26094
 C1591 C 0.71402 0.50980 0.24065
 C1592 C 0.74125 0.53640 0.24043
 C1593 C 0.74085 0.50921 0.21356
 C1594 C 0.78548 0.49065 0.26013
 C1595 C 0.75994 0.49015 0.28514
 C1596 C 0.75995 0.46473 0.25950
 H1597 H 0.74432 0.50592 0.27575
 H1598 H 0.74444 0.47418 0.24393
 H1599 H 0.73394 0.51652 0.23340
 H1600 H 0.77615 0.50604 0.24437
 H1601 H 0.77389 0.52705 0.26058
 H1602 H 0.77530 0.52608 0.24059
 H1603 H 0.73114 0.46812 0.25693
 H1604 H 0.71912 0.48097 0.24382
 H1605 H 0.76821 0.51968 0.28237
 H1606 H 0.73176 0.53301 0.26917
 H1607 H 0.75740 0.46876 0.23026
 H1608 H 0.74392 0.48045 0.21916
 H1609 H 0.71933 0.50588 0.26887
 H1610 H 0.73075 0.49304 0.28138
 H1611 H 0.76905 0.50565 0.21852
 H1612 H 0.78258 0.49278 0.23139
 O1613 O 0.53098 0.23432 0.74914
 O1614 O 0.52722 0.23597 0.76935
 O1615 O 0.50046 0.21855 0.73471
 O1616 O 0.48097 0.22189 0.73476
 O1617 O 0.51503 0.24915 0.71875
 O1618 O 0.51408 0.26972 0.72307
 O1619 O 0.46926 0.25060 0.76550
 O1620 O 0.47238 0.23034 0.76290
 O1621 O 0.49873 0.26505 0.78056
 O1622 O 0.52007 0.26395 0.77669
 O1623 O 0.48454 0.28037 0.75111
 O1624 O 0.48545 0.27656 0.72991
 O1625 O 0.46931 0.26483 0.75148
 O1626 O 0.47340 0.26338 0.72952
 O1627 O 0.49865 0.28038 0.76521
 O1628 O 0.52048 0.27608 0.76360
 O1629 O 0.48437 0.25119 0.78041
 O1630 O 0.48839 0.22978 0.77683
 O1631 O 0.53114 0.24876 0.73529
 O1632 O 0.52687 0.26976 0.73646
 O1633 O 0.50084 0.23510 0.71854
 O1634 O 0.47954 0.23706 0.72322
 O1635 O 0.51473 0.21846 0.74869
 O1636 O 0.51195 0.22290 0.76999
 Zr1637 Zr 0.51398 0.23536 0.75629
 O1638 O 0.50379 0.24588 0.76759
 Zr1639 Zr 0.49343 0.23564 0.73549
 O1640 O 0.48218 0.24582 0.74609
 Zr1641 Zr 0.51418 0.25621 0.73580
 O1642 O 0.50373 0.26751 0.74608
 Zr1643 Zr 0.48597 0.24300 0.76392
 O1644 O 0.49611 0.23152 0.75335
 Zr1645 Zr 0.50658 0.26373 0.76390
 O1646 O 0.51797 0.25326 0.75361
 Zr1647 Zr 0.48588 0.26368 0.74330
 O1648 O 0.49633 0.25352 0.73174
 O1649 O 0.51114 0.23847 0.73855
 O1650 O 0.48881 0.26082 0.76105
 C1651 C 0.53602 0.24023 0.74093
 C1652 C 0.50887 0.21354 0.74036
 C1653 C 0.50923 0.24089 0.71367
 C1654 C 0.46450 0.25928 0.76006
 C1655 C 0.48998 0.25971 0.78528
 C1656 C 0.49005 0.28520 0.75970
 H1657 H 0.50561 0.24395 0.77586
 H1658 H 0.50560 0.27578 0.74420
 H1659 H 0.51614 0.23347 0.73350
 H1660 H 0.47390 0.24389 0.74435
 H1661 H 0.47612 0.22285 0.76051
 H1662 H 0.47475 0.22384 0.74049
 H1663 H 0.51881 0.28184 0.75731
 H1664 H 0.53087 0.26903 0.74414
 H1665 H 0.48166 0.23019 0.78234
 H1666 H 0.51817 0.21683 0.76919
 H1667 H 0.49267 0.28134 0.73060
 H1668 H 0.50619 0.26959 0.71943
 H1669 H 0.53059 0.24398 0.76913
 H1670 H 0.51919 0.25684 0.78159
 H1671 H 0.48095 0.24431 0.71863
 H1672 H 0.46762 0.25712 0.73125
 O1673 O 0.28145 0.75106 0.48479
 O1674 O 0.27773 0.73085 0.48650
 O1675 O 0.25096 0.76541 0.46898
 O1676 O 0.23142 0.76541 0.47232
 O1677 O 0.26549 0.78152 0.49954
 O1678 O 0.26451 0.77725 0.52010
 O1679 O 0.21970 0.73469 0.50088
 O1680 O 0.22287 0.73727 0.48070
 O1681 O 0.24912 0.71968 0.51546
 O1682 O 0.27047 0.72351 0.51440
 O1683 O 0.23490 0.74912 0.53073
 O1684 O 0.23579 0.77035 0.52694
 O1685 O 0.21972 0.74872 0.51513
 O1686 O 0.22380 0.77073 0.51370
 O1687 O 0.24902 0.73502 0.53076
 O1688 O 0.27087 0.73664 0.52654
 O1689 O 0.23480 0.71980 0.50156
 O1690 O 0.23888 0.72332 0.48019
 O1691 O 0.28160 0.76501 0.49917
 O1692 O 0.27734 0.76378 0.52015
 O1693 O 0.25133 0.78165 0.48545
 O1694 O 0.23003 0.77702 0.48743
 O1695 O 0.26526 0.75144 0.46896
 O1696 O 0.26240 0.73013 0.47341
 Zr1697 Zr 0.26446 0.74389 0.48583
 O1698 O 0.25424 0.73259 0.49632
 Zr1699 Zr 0.24390 0.76470 0.48604
 O1700 O 0.23264 0.75412 0.49620
 Zr1701 Zr 0.26463 0.76447 0.50663
 O1702 O 0.25415 0.75419 0.51791
 Zr1703 Zr 0.23644 0.73628 0.49338
 O1704 O 0.24659 0.74682 0.48194
 Zr1705 Zr 0.25700 0.73634 0.51415
 O1706 O 0.26841 0.74661 0.50372
 Zr1707 Zr 0.23629 0.75694 0.51406
 O1708 O 0.24677 0.76850 0.50392
 O1709 O 0.26160 0.76164 0.48892
 O1710 O 0.23923 0.73917 0.51119
 C1711 C 0.28648 0.75933 0.49066
 C1712 C 0.25941 0.75975 0.46402
 C1713 C 0.25973 0.78655 0.49122
 C1714 C 0.21490 0.74014 0.50954
 C1715 C 0.24038 0.71495 0.51009
 C1716 C 0.24039 0.74050 0.53554
 H1717 H 0.25606 0.72431 0.49440
 H1718 H 0.25600 0.75609 0.52617
 H1719 H 0.26660 0.76668 0.48392
 H1720 H 0.22435 0.75585 0.49425
 H1721 H 0.22662 0.73965 0.47323
 H1722 H 0.22521 0.75966 0.47426
 H1723 H 0.26922 0.74299 0.53225
 H1724 H 0.28134 0.75609 0.51939
 H1725 H 0.23215 0.71780 0.48060
 H1726 H 0.26865 0.73087 0.46738
 H1727 H 0.24309 0.76979 0.53161
 H1728 H 0.25661 0.78089 0.51996
 H1729 H 0.28107 0.73108 0.49452
 H1730 H 0.26958 0.71859 0.50729
 H1731 H 0.23146 0.78165 0.49465
 H1732 H 0.21806 0.76898 0.50742
 O1733 O 0.25097 0.26544 0.96907
 O1734 O 0.23077 0.26364 0.97279
 O1735 O 0.26523 0.28133 0.99961
 O1736 O 0.26511 0.27798 1.01916
 O1737 O 0.28147 0.25092 0.98505
 O1738 O 0.27737 0.23029 0.98603
 O1739 O 0.23461 0.24912 1.03073
 O1740 O 0.23709 0.26936 1.02766
 O1741 O 0.21975 0.23451 1.00130
 O1742 O 0.22361 0.23570 0.97993
 O1743 O 0.24925 0.21941 1.01548
 O1744 O 0.27046 0.22336 1.01465
 O1745 O 0.24871 0.23494 1.03070
 O1746 O 0.27069 0.23657 1.02671
 O1747 O 0.23520 0.21930 1.00133
 O1748 O 0.23675 0.22357 0.97955
 O1749 O 0.21975 0.24844 1.01562
 O1750 O 0.22319 0.26986 1.01163
 O1751 O 0.26498 0.25113 0.96893
 O1752 O 0.26396 0.23014 0.97316
 O1753 O 0.28150 0.26499 0.99925
 O1754 O 0.27685 0.26289 1.02053
 O1755 O 0.25131 0.28128 0.98528
 O1756 O 0.23001 0.27675 0.98809
 Zr1757 Zr 0.24380 0.26436 0.98605
 O1758 O 0.23255 0.25378 0.99622
 Zr1759 Zr 0.26456 0.26425 1.00665
 O1760 O 0.25402 0.25399 1.01786
 Zr1761 Zr 0.26449 0.24367 0.98589
 O1762 O 0.25426 0.23230 0.99630
 Zr1763 Zr 0.23619 0.25671 1.01404
 O1764 O 0.24668 0.26825 1.00393
 Zr1765 Zr 0.23640 0.23596 0.99343
 O1766 O 0.24664 0.24648 0.98207
 Zr1767 Zr 0.25696 0.23615 1.01417
 O1768 O 0.26847 0.24639 1.00374
 O1769 O 0.26155 0.26137 0.98894
 O1770 O 0.23919 0.23891 1.01120
 C1771 C 0.25927 0.25961 0.96405
 C1772 C 0.25960 0.28626 0.99115
 C1773 C 0.28644 0.25927 0.99084
 C1774 C 0.24008 0.24046 1.03550
 C1775 C 0.21497 0.23986 1.01003
 C1776 C 0.24069 0.21454 1.00996
 H1777 H 0.22427 0.25566 0.99440
 H1778 H 0.25621 0.22404 0.99444
 H1779 H 0.26656 0.26640 0.98395
 H1780 H 0.25572 0.25593 1.02615
 H1781 H 0.23947 0.27686 1.02394
 H1782 H 0.25946 0.27593 1.02541
 H1783 H 0.24321 0.21798 0.98111
 H1784 H 0.25626 0.23079 0.96919
 H1785 H 0.21766 0.26940 1.01834
 H1786 H 0.23075 0.28279 0.98186
 H1787 H 0.26986 0.21861 1.00740
 H1788 H 0.28096 0.23044 0.99395
 H1789 H 0.23107 0.25563 0.96941
 H1790 H 0.21861 0.24275 0.98088
 H1791 H 0.28151 0.25568 1.01909
 H1792 H 0.26887 0.24282 1.03246
 C1793 C 0.29514 0.39246 0.79445
 C1794 C 0.30539 0.38743 0.78975
 C1795 C 0.31070 0.37776 0.79517
 C1796 C 0.30588 0.37287 0.80544
 C1797 C 0.29563 0.37793 0.81013
 C1798 C 0.29034 0.38759 0.80471
 C1799 C 0.28952 0.40275 0.78874
 N1800 N 0.27960 0.40758 0.79327
 N1801 N 0.27463 0.41690 0.78825
 C1802 C 0.27935 0.42181 0.77847
 N1803 N 0.28926 0.41696 0.77390
 N1804 N 0.29423 0.40762 0.77892
 C1805 C 0.27401 0.43243 0.77312
 C1806 C 0.27915 0.43777 0.76324
 C1807 C 0.27447 0.44814 0.75860
 C1808 C 0.26453 0.45342 0.76371
 C1809 C 0.25925 0.44793 0.77343
 C1810 C 0.26392 0.43757 0.77806
 H1811 H 0.30936 0.39096 0.78186
 H1812 H 0.31857 0.37418 0.79126
 H1813 H 0.29161 0.37448 0.81800
 H1814 H 0.28246 0.39124 0.80860
 H1815 H 0.28692 0.43407 0.75921
 H1816 H 0.27883 0.45216 0.75117
 H1817 H 0.25163 0.45177 0.77764
 H1818 H 0.25973 0.43370 0.78566
 C1819 C 0.29545 -0.10776 0.29468
 C1820 C 0.29071 -0.11260 0.30498
 C1821 C 0.29600 -0.12230 0.31034
 C1822 C 0.30616 -0.12743 0.30552
 C1823 C 0.31092 -0.12254 0.29523
 C1824 C 0.30564 -0.11284 0.28988
 C1825 C 0.28982 -0.09748 0.28900
 N1826 N 0.29448 -0.09263 0.27916
 N1827 N 0.28946 -0.08333 0.27413
 C1828 C 0.27956 -0.07849 0.27872
 N1829 N 0.27489 -0.08336 0.28854
 N1830 N 0.27991 -0.09266 0.29357
 C1831 C 0.27415 -0.06794 0.27332
 C1832 C 0.26404 -0.06285 0.27824
 C1833 C 0.25930 -0.05254 0.27356
 C1834 C 0.26457 -0.04707 0.26382
 C1835 C 0.27451 -0.05234 0.25871
 C1836 C 0.27924 -0.06265 0.26340
 H1837 H 0.28290 -0.10891 0.30895
 H1838 H 0.29209 -0.12570 0.31829
 H1839 H 0.31869 -0.12623 0.29120
 H1840 H 0.30953 -0.10934 0.28194
 H1841 H 0.25987 -0.06670 0.28587
 H1842 H 0.25167 -0.04872 0.27775
 H1843 H 0.27883 -0.04835 0.25125
 H1844 H 0.28703 -0.06634 0.25937
 C1845 C 0.79514 0.89253 0.79499
 C1846 C 0.79040 0.88758 0.80525
 C1847 C 0.79581 0.87797 0.81066
 C1848 C 0.80615 0.87300 0.80597
 C1849 C 0.81087 0.87803 0.79568
 C1850 C 0.80544 0.88764 0.79029
 C1851 C 0.78943 0.90277 0.78929
 N1852 N 0.79405 0.90760 0.77941
 N1853 N 0.78903 0.91690 0.77439
 C1854 C 0.77916 0.92177 0.77900
 N1855 N 0.77451 0.91691 0.78884
 N1856 N 0.77953 0.90761 0.79387
 C1857 C 0.77379 0.93235 0.77360
 C1858 C 0.76376 0.93758 0.77857
 C1859 C 0.75908 0.94791 0.77384
 C1860 C 0.76430 0.95325 0.76401
 C1861 C 0.77416 0.94786 0.75887
 C1862 C 0.77884 0.93754 0.76360
 H1863 H 0.78248 0.89114 0.80913
 H1864 H 0.79178 0.87452 0.81852
 H1865 H 0.81877 0.87463 0.79167
 H1866 H 0.80936 0.89123 0.78242
 H1867 H 0.75963 0.93383 0.78626
 H1868 H 0.75152 0.95184 0.77808
 H1869 H 0.77846 0.95176 0.75135
 H1870 H 0.78656 0.93376 0.75953
 C1871 C 0.45558 0.85799 0.29474
 C1872 C 0.46033 0.86293 0.30501
 C1873 C 0.45483 0.87244 0.31052
 C1874 C 0.44444 0.87727 0.30589
 C1875 C 0.43969 0.87230 0.29562
 C1876 C 0.44519 0.86279 0.29012
 C1877 C 0.46135 0.84783 0.28896
 N1878 N 0.45671 0.84298 0.27909
 N1879 N 0.46179 0.83373 0.27400
 C1880 C 0.47172 0.82895 0.27856
 N1881 N 0.47639 0.83383 0.28840
 N1882 N 0.47131 0.84308 0.29348
 C1883 C 0.47713 0.81839 0.27314
 C1884 C 0.48719 0.81322 0.27812
 C1885 C 0.49186 0.80287 0.27345
 C1886 C 0.48659 0.79742 0.26368
 C1887 C 0.47673 0.80277 0.25851
 C1888 C 0.47206 0.81313 0.26318
 H1889 H 0.46831 0.85945 0.30884
 H1890 H 0.45877 0.87593 0.31842
 H1891 H 0.43174 0.87574 0.29174
 H1892 H 0.44126 0.85921 0.28223
 H1893 H 0.49133 0.81704 0.28578
 H1894 H 0.49943 0.79898 0.27769
 H1895 H 0.47241 0.79881 0.25101
 H1896 H 0.46433 0.81688 0.25911
 C1897 C -0.04450 0.85799 0.79496
 C1898 C -0.05487 0.86281 0.79031
 C1899 C -0.06039 0.87229 0.79584
 C1900 C -0.05569 0.87722 0.80616
 C1901 C -0.04531 0.87238 0.81079
 C1902 C -0.03978 0.86289 0.80526
 C1903 C -0.03874 0.84783 0.78916
 N1904 N -0.02879 0.84304 0.79368
 N1905 N -0.02375 0.83377 0.78860
 C1906 C -0.02844 0.82889 0.77877
 N1907 N -0.03835 0.83371 0.77421
 N1908 N -0.04339 0.84298 0.77929
 C1909 C -0.02308 0.81829 0.77337
 C1910 C -0.02819 0.81303 0.76343
 C1911 C -0.02355 0.80266 0.75875
 C1912 C -0.01367 0.79731 0.76389
 C1913 C -0.00839 0.80274 0.77365
 C1914 C -0.01303 0.81311 0.77833
 H1915 H -0.05876 0.85926 0.78239
 H1916 H -0.06834 0.87572 0.79194
 H1917 H -0.04139 0.87585 0.81871
 H1918 H -0.03181 0.85939 0.80910
 H1919 H -0.03594 0.81678 0.75938
 H1920 H -0.02789 0.79870 0.75127
 H1921 H -0.00081 0.79885 0.77788
 H1922 H -0.00886 0.81692 0.78598
 C1923 C -0.04467 -0.10912 -0.04365
 C1924 C -0.03998 -0.11398 -0.05398
 C1925 C -0.04556 -0.12336 -0.05961
 C1926 C -0.05600 -0.12816 -0.05507
 C1927 C -0.06062 -0.12339 -0.04465
 C1928 C -0.05503 -0.11399 -0.03901
 C1929 C -0.03894 -0.09888 -0.03793
 N1930 N -0.04358 -0.09394 -0.02810
 N1931 N -0.03861 -0.08454 -0.02319
 C1932 C -0.02878 -0.07967 -0.02787
 N1933 N -0.02410 -0.08466 -0.03765
 N1934 N -0.02906 -0.09405 -0.04256
 C1935 C -0.02349 -0.06892 -0.02267
 C1936 C -0.01352 -0.06371 -0.02776
 C1937 C -0.00890 -0.05326 -0.02324
 C1938 C -0.01413 -0.04774 -0.01350
 C1939 C -0.02395 -0.05309 -0.00825
 C1940 C -0.02856 -0.06355 -0.01277
 H1941 H -0.03202 -0.11047 -0.05782
 H1942 H -0.04171 -0.12672 -0.06761
 H1943 H -0.06857 -0.12688 -0.04080
 H1944 H -0.05888 -0.11051 -0.03104
 H1945 H -0.00937 -0.06760 -0.03539
 H1946 H -0.00137 -0.04937 -0.02756
 H1947 H -0.02825 -0.04907 -0.00078
 H1948 H -0.03624 -0.06730 -0.00861
 C1949 C -0.04483 0.39190 0.45557
 C1950 C -0.04012 0.38705 0.44526
 C1951 C -0.04550 0.37746 0.43980
 C1952 C -0.05578 0.37240 0.44450
 C1953 C -0.06048 0.37733 0.45485
 C1954 C -0.05508 0.38693 0.46029
 C1955 C -0.03915 0.40215 0.46127
 N1956 N -0.04376 0.40701 0.47115
 N1957 N -0.03874 0.41634 0.47615
 C1958 C -0.02888 0.42119 0.47151
 N1959 N -0.02425 0.41629 0.46166
 N1960 N -0.02926 0.40698 0.45666
 C1961 C -0.02352 0.43181 0.47683
 C1962 C -0.01352 0.43699 0.47177
 C1963 C -0.00883 0.44736 0.47638
 C1964 C -0.01403 0.45281 0.48617
 C1965 C -0.02385 0.44747 0.49142
 C1966 C -0.02853 0.43709 0.48680
 H1967 H -0.03224 0.39066 0.44135
 H1968 H -0.04149 0.37411 0.43188
 H1969 H -0.06836 0.37386 0.45885
 H1970 H -0.05897 0.39046 0.46822
 H1971 H -0.00942 0.43316 0.46409
 H1972 H -0.00129 0.45125 0.47208
 H1973 H -0.02811 0.45144 0.49894
 H1974 H -0.03622 0.43334 0.49094
 C1975 C 0.45515 -0.10757 0.45525
 C1976 C 0.45998 -0.11252 0.44505
 C1977 C 0.45467 -0.12218 0.43961
 C1978 C 0.44433 -0.12719 0.44425
 C1979 C 0.43952 -0.12214 0.45450
 C1980 C 0.44485 -0.11249 0.45991
 C1981 C 0.46080 -0.09730 0.46097
 N1982 N 0.45613 -0.09241 0.47080
 N1983 N 0.46114 -0.08309 0.47582
 C1984 C 0.47104 -0.07827 0.47124
 N1985 N 0.47574 -0.08320 0.46144
 N1986 N 0.47073 -0.09251 0.45643
 C1987 C 0.47639 -0.06766 0.47661
 C1988 C 0.48649 -0.06251 0.47171
 C1989 C 0.49113 -0.05215 0.47642
 C1990 C 0.48580 -0.04669 0.48614
 C1991 C 0.47586 -0.05201 0.49120
 C1992 C 0.47123 -0.06237 0.48650
 H1993 H 0.46793 -0.10896 0.44122
 H1994 H 0.45878 -0.12562 0.43178
 H1995 H 0.43161 -0.12556 0.45845
 H1996 H 0.44087 -0.10891 0.46777
 H1997 H 0.49072 -0.06636 0.46411
 H1998 H 0.49876 -0.04828 0.47225
 H1999 H 0.47147 -0.04803 0.49864
 H2000 H 0.46346 -0.06610 0.49050
 C2001 C 0.45473 0.39221 -0.04443
 C2002 C 0.44454 0.38714 -0.03968
 C2003 C 0.43922 0.37749 -0.04512
 C2004 C 0.44395 0.37260 -0.05548
 C2005 C 0.45414 0.37779 -0.06023
 C2006 C 0.45944 0.38743 -0.05478
 C2007 C 0.46041 0.40245 -0.03869
 N2008 N 0.47029 0.40729 -0.04328
 N2009 N 0.47531 0.41659 -0.03825
 C2010 C 0.47067 0.42146 -0.02839
 N2011 N 0.46081 0.41659 -0.02377
 N2012 N 0.45579 0.40728 -0.02880
 C2013 C 0.47602 0.43208 -0.02305
 C2014 C 0.47093 0.43740 -0.01314
 C2015 C 0.47557 0.44779 -0.00852
 C2016 C 0.48545 0.45310 -0.01368
 C2017 C 0.49071 0.44763 -0.02343
 C2018 C 0.48606 0.43724 -0.02805
 H2019 H 0.44066 0.39061 -0.03171
 H2020 H 0.43141 0.37392 -0.04108
 H2021 H 0.45816 0.37448 -0.06816
 H2022 H 0.46728 0.39111 -0.05870
 H2023 H 0.46320 0.43366 -0.00906
 H2024 H 0.47123 0.45180 -0.00106
 H2025 H 0.49827 0.45151 -0.02769
 H2026 H 0.49024 0.43338 -0.03567
 C2027 C 0.79417 0.35910 0.45678
 C2028 C 0.80460 0.36393 0.46129
 C2029 C 0.81019 0.37324 0.45555
 C2030 C 0.80550 0.37796 0.44514
 C2031 C 0.79503 0.37314 0.44068
 C2032 C 0.78944 0.36384 0.44642
 C2033 C 0.78837 0.34904 0.46269
 N2034 N 0.77831 0.34436 0.45830
 N2035 N 0.77326 0.33513 0.46341
 C2036 C 0.77803 0.33019 0.47316
 N2037 N 0.78805 0.33492 0.47761
 N2038 N 0.79310 0.34415 0.47249
 C2039 C 0.77271 0.31956 0.47851
 C2040 C 0.77797 0.31411 0.48825
 C2041 C 0.77347 0.30360 0.49272
 C2042 C 0.76361 0.29826 0.48752
 C2043 C 0.75810 0.30393 0.47803
 C2044 C 0.76259 0.31446 0.47359
 H2045 H 0.80850 0.36050 0.46925
 H2046 H 0.81820 0.37667 0.45932
 H2047 H 0.79111 0.37646 0.43270
 H2048 H 0.78144 0.36033 0.44266
 H2049 H 0.78576 0.31780 0.49227
 H2050 H 0.77796 0.29947 0.50001
 H2051 H 0.75050 0.30008 0.47380
 H2052 H 0.75828 0.31842 0.46610
 C2053 C 0.79528 0.85767 -0.04496
 C2054 C 0.80555 0.86264 -0.04024
 C2055 C 0.81095 0.87221 -0.04572
 C2056 C 0.80623 0.87705 -0.05605
 C2057 C 0.79595 0.87205 -0.06076
 C2058 C 0.79055 0.86249 -0.05528
 C2059 C 0.78959 0.84746 -0.03923
 N2060 N 0.77966 0.84268 -0.04379
 N2061 N 0.77463 0.83340 -0.03876
 C2062 C 0.77932 0.82850 -0.02894
 N2063 N 0.78923 0.83331 -0.02436
 N2064 N 0.79425 0.84260 -0.02939
 C2065 C 0.77394 0.81793 -0.02359
 C2066 C 0.77902 0.81262 -0.01367
 C2067 C 0.77431 0.80227 -0.00904
 C2068 C 0.76440 0.79700 -0.01420
 C2069 C 0.75916 0.80248 -0.02395
 C2070 C 0.76386 0.81281 -0.02858
 H2071 H 0.80944 0.85915 -0.03230
 H2072 H 0.81883 0.87577 -0.04178
 H2073 H 0.79202 0.87545 -0.06869
 H2074 H 0.78267 0.85888 -0.05918
 H2075 H 0.78678 0.81632 -0.00960
 H2076 H 0.77863 0.79826 -0.00157
 H2077 H 0.75156 0.79864 -0.02820
 H2078 H 0.75971 0.81667 -0.03622
 C2079 C 0.79377 0.29392 0.39129
 C2080 C 0.80398 0.28910 0.38629
 C2081 C 0.80953 0.29465 0.37686
 C2082 C 0.80502 0.30516 0.37217
 C2083 C 0.79480 0.30997 0.37720
 C2084 C 0.78925 0.30442 0.38663
 C2085 C 0.78795 0.28812 0.40139
 N2086 N 0.77815 0.29284 0.40629
 N2087 N 0.77307 0.28779 0.41553
 C2088 C 0.77755 0.27779 0.42026
 N2089 N 0.78731 0.27303 0.41531
 N2090 N 0.79239 0.27808 0.40607
 C2091 C 0.77222 0.27250 0.43089
 C2092 C 0.77720 0.26246 0.43608
 C2093 C 0.77273 0.25801 0.44660
 C2094 C 0.76317 0.26350 0.45219
 C2095 C 0.75793 0.27328 0.44677
 C2096 C 0.76239 0.27773 0.43624
 H2097 H 0.80772 0.28103 0.38966
 H2098 H 0.81736 0.29064 0.37328
 H2099 H 0.79102 0.31803 0.37391
 H2100 H 0.78142 0.30840 0.39027
 H2101 H 0.78474 0.25818 0.43218
 H2102 H 0.77701 0.25048 0.45053
 H2103 H 0.75057 0.27776 0.45082
 H2104 H 0.75831 0.28545 0.43248
 C2105 C 0.79457 0.79567 -0.10777
 C2106 C 0.78986 0.80596 -0.11273
 C2107 C 0.79533 0.81135 -0.12231
 C2108 C 0.80565 0.80659 -0.12718
 C2109 C 0.81034 0.79630 -0.12218
 C2110 C 0.80487 0.79092 -0.11262
 C2111 C 0.78883 0.79000 -0.09755
 N2112 N 0.79337 0.78005 -0.09276
 N2113 N 0.78833 0.77504 -0.08348
 C2114 C 0.77851 0.77974 -0.07859
 N2115 N 0.77394 0.78966 -0.08340
 N2116 N 0.77898 0.79467 -0.09269
 C2117 C 0.77312 0.77434 -0.06804
 C2118 C 0.76319 0.77943 -0.06273
 C2119 C 0.75850 0.77470 -0.05243
 C2120 C 0.76362 0.76474 -0.04719
 C2121 C 0.77338 0.75950 -0.05265
 C2122 C 0.77806 0.76423 -0.06295
 H2123 H 0.78194 0.80988 -0.10922
 H2124 H 0.79142 0.81924 -0.12586
 H2125 H 0.81825 0.79232 -0.12561
 H2126 H 0.80876 0.78302 -0.10901
 H2127 H 0.75915 0.78722 -0.06640
 H2128 H 0.75103 0.77903 -0.04843
 H2129 H 0.77760 0.75187 -0.04883
 H2130 H 0.78571 0.76008 -0.06679
 C2131 C 0.29465 0.45572 0.85797
 C2132 C 0.28999 0.44536 0.86280
 C2133 C 0.29541 0.43993 0.87238
 C2134 C 0.30564 0.44471 0.87742
 C2135 C 0.31028 0.45509 0.87260
 C2136 C 0.30486 0.46053 0.86301
 C2137 C 0.28899 0.46140 0.84769
 N2138 N 0.29357 0.47131 0.84289
 N2139 N 0.28858 0.47631 0.83357
 C2140 C 0.27877 0.47162 0.82864
 N2141 N 0.27416 0.46172 0.83346
 N2142 N 0.27916 0.45673 0.84278
 C2143 C 0.27340 0.47699 0.81805
 C2144 C 0.26342 0.47193 0.81279
 C2145 C 0.25874 0.47660 0.80245
 C2146 C 0.26392 0.48646 0.79709
 C2147 C 0.27369 0.49172 0.80253
 C2148 C 0.27837 0.48705 0.81287
 H2149 H 0.28214 0.44140 0.85916
 H2150 H 0.29152 0.43196 0.87577
 H2151 H 0.31810 0.45909 0.87618
 H2152 H 0.30870 0.46850 0.85953
 H2153 H 0.25934 0.46421 0.81654
 H2154 H 0.25122 0.47230 0.79852
 H2155 H 0.27792 0.49931 0.79866
 H2156 H 0.28603 0.49120 0.81669
 C2157 C 0.29542 -0.04464 0.35766
 C2158 C 0.30572 -0.03991 0.36258
 C2159 C 0.31112 -0.04531 0.37220
 C2160 C 0.30636 -0.05558 0.37716
 C2161 C 0.29605 -0.06029 0.37222
 C2162 C 0.29066 -0.05489 0.36261
 C2163 C 0.28974 -0.03899 0.34738
 N2164 N 0.27982 -0.04360 0.34260
 N2165 N 0.27482 -0.03864 0.33326
 C2166 C 0.27950 -0.02885 0.32830
 N2167 N 0.28939 -0.02422 0.33312
 N2168 N 0.29440 -0.02917 0.34246
 C2169 C 0.27413 -0.02356 0.31768
 C2170 C 0.27920 -0.01364 0.31235
 C2171 C 0.27450 -0.00902 0.30200
 C2172 C 0.26460 -0.01419 0.29672
 C2173 C 0.25937 -0.02396 0.30218
 C2174 C 0.26408 -0.02858 0.31254
 H2175 H 0.30964 -0.03203 0.35899
 H2176 H 0.31902 -0.04138 0.37570
 H2177 H 0.29208 -0.06817 0.37572
 H2178 H 0.28274 -0.05879 0.35906
 H2179 H 0.28693 -0.00953 0.31606
 H2180 H 0.27880 -0.00154 0.29800
 H2181 H 0.25179 -0.02823 0.29833
 H2182 H 0.25993 -0.03622 0.31640
 C2183 C -0.04512 -0.04547 -0.10739
 C2184 C -0.04087 -0.05613 -0.11193
 C2185 C -0.04624 -0.06140 -0.12163
 C2186 C -0.05603 -0.05614 -0.12712
 C2187 C -0.06031 -0.04549 -0.12244
 C2188 C -0.05493 -0.04024 -0.11273
 C2189 C -0.03938 -0.03984 -0.09713
 N2190 N -0.04366 -0.02969 -0.09253
 N2191 N -0.03856 -0.02468 -0.08327
 C2192 C -0.02893 -0.02959 -0.07822
 N2193 N -0.02462 -0.03972 -0.08284
 N2194 N -0.02973 -0.04474 -0.09210
 C2195 C -0.02346 -0.02421 -0.06769
 C2196 C -0.01354 -0.02936 -0.06244
 C2197 C -0.00878 -0.02466 -0.05214
 C2198 C -0.01382 -0.01469 -0.04685
 C2199 C -0.02356 -0.00936 -0.05227
 C2200 C -0.02832 -0.01406 -0.06257
 H2201 H -0.03334 -0.06043 -0.10801
 H2202 H -0.04258 -0.06958 -0.12478
 H2203 H -0.06782 -0.04106 -0.12620
 H2204 H -0.05848 -0.03204 -0.10943
 H2205 H -0.00957 -0.03717 -0.06615
 H2206 H -0.00131 -0.02903 -0.04819
 H2207 H -0.02771 -0.00171 -0.04842
 H2208 H -0.03595 -0.00985 -0.06637
 C2209 C -0.04534 0.45466 0.39256
 C2210 C -0.05547 0.45953 0.38747
 C2211 C -0.06083 0.45417 0.37781
 C2212 C -0.05621 0.44374 0.37292
 C2213 C -0.04605 0.43889 0.37810
 C2214 C -0.04071 0.44427 0.38776
 C2215 C -0.03968 0.46033 0.40285
 N2216 N -0.02984 0.45566 0.40773
 N2217 N -0.02481 0.46068 0.41703
 C2218 C -0.02941 0.47058 0.42187
 N2219 N -0.03924 0.47526 0.41698
 N2220 N -0.04426 0.47025 0.40767
 C2221 C -0.02399 0.47598 0.43242
 C2222 C -0.02901 0.48599 0.43766
 C2223 C -0.02425 0.49073 0.44794
 C2224 C -0.01433 0.48558 0.45323
 C2225 C -0.00916 0.47574 0.44784
 C2226 C -0.01392 0.47100 0.43756
 H2227 H -0.05930 0.46752 0.39095
 H2228 H -0.06859 0.45830 0.37423
 H2229 H -0.04209 0.43092 0.37478
 H2230 H -0.03293 0.44025 0.39147
 H2231 H -0.03676 0.49006 0.43395
 H2232 H -0.02851 0.49827 0.45188
 H2233 H -0.00157 0.47149 0.45170
 H2234 H -0.00982 0.46330 0.43377
 C2235 C 0.45500 -0.04522 0.39274
 C2236 C 0.45986 -0.05537 0.38765
 C2237 C 0.45457 -0.06061 0.37789
 C2238 C 0.44430 -0.05583 0.37296
 C2239 C 0.43939 -0.04574 0.37815
 C2240 C 0.44468 -0.04050 0.38790
 C2241 C 0.46069 -0.03956 0.40300
 N2242 N 0.45613 -0.02962 0.40780
 N2243 N 0.46124 -0.02453 0.41701
 C2244 C 0.47114 -0.02915 0.42181
 N2245 N 0.47569 -0.03909 0.41702
 N2246 N 0.47059 -0.04418 0.40780
 C2247 C 0.47665 -0.02365 0.43224
 C2248 C 0.48663 -0.02870 0.43747
 C2249 C 0.49141 -0.02389 0.44771
 C2250 C 0.48632 -0.01392 0.45295
 C2251 C 0.47656 -0.00866 0.44751
 C2252 C 0.47178 -0.01347 0.43728
 H2253 H 0.46779 -0.05926 0.39116
 H2254 H 0.45866 -0.06835 0.37418
 H2255 H 0.43146 -0.04181 0.37471
 H2256 H 0.44066 -0.03271 0.39163
 H2257 H 0.49063 -0.03652 0.43381
 H2258 H 0.49891 -0.02820 0.45167
 H2259 H 0.47238 -0.00100 0.45131
 H2260 H 0.46412 -0.00932 0.43346
 C2261 C 0.45480 0.45505 -0.10743
 C2262 C 0.44459 0.45986 -0.11243
 C2263 C 0.43921 0.45449 -0.12207
 C2264 C 0.44392 0.44416 -0.12698
 C2265 C 0.45412 0.43933 -0.12192
 C2266 C 0.45948 0.44470 -0.11229
 C2267 C 0.46049 0.46073 -0.09719
 N2268 N 0.47034 0.45607 -0.09233
 N2269 N 0.47536 0.46107 -0.08302
 C2270 C 0.47075 0.47097 -0.07818
 N2271 N 0.46094 0.47566 -0.08308
 N2272 N 0.45592 0.47066 -0.09239
 C2273 C 0.47607 0.47630 -0.06756
 C2274 C 0.47101 0.48630 -0.06234
 C2275 C 0.47564 0.49097 -0.05199
 C2276 C 0.48547 0.48578 -0.04661
 C2277 C 0.49068 0.47592 -0.05195
 C2278 C 0.48604 0.47125 -0.06231
 H2279 H 0.44071 0.46780 -0.10889
 H2280 H 0.43137 0.45848 -0.12564
 H2281 H 0.45803 0.43139 -0.12537
 H2282 H 0.46732 0.44072 -0.10865
 H2283 H 0.46332 0.49041 -0.06613
 H2284 H 0.47135 0.49851 -0.04807
 H2285 H 0.49819 0.47162 -0.04799
 H2286 H 0.49017 0.46354 -0.06608
 C2287 C 0.45552 0.79570 0.35749
 C2288 C 0.46032 0.80592 0.36250
 C2289 C 0.45500 0.81125 0.37220
 C2290 C 0.44472 0.80650 0.37716
 C2291 C 0.43993 0.79628 0.37210
 C2292 C 0.44525 0.79095 0.36241
 C2293 C 0.46116 0.79006 0.34718
 N2294 N 0.45653 0.78020 0.34230
 N2295 N 0.46153 0.77524 0.33295
 C2296 C 0.47137 0.77991 0.32808
 N2297 N 0.47601 0.78975 0.33300
 N2298 N 0.47102 0.79471 0.34234
 C2299 C 0.47671 0.77456 0.31747
 C2300 C 0.48673 0.77956 0.31225
 C2301 C 0.49140 0.77481 0.30193
 C2302 C 0.48619 0.76494 0.29660
 C2303 C 0.47632 0.75982 0.30196
 C2304 C 0.47165 0.76456 0.31227
 H2305 H 0.46823 0.80981 0.35895
 H2306 H 0.45900 0.81909 0.37578
 H2307 H 0.43204 0.79232 0.37559
 H2308 H 0.44129 0.78308 0.35879
 H2309 H 0.49087 0.78725 0.31602
 H2310 H 0.49896 0.77904 0.29800
 H2311 H 0.47201 0.75228 0.29808
 H2312 H 0.46395 0.76049 0.31606
 C2313 C -0.04536 0.79525 0.85732
 C2314 C -0.05558 0.79040 0.86226
 C2315 C -0.06090 0.79564 0.87201
 C2316 C -0.05614 0.80587 0.87706
 C2317 C -0.04596 0.81075 0.87208
 C2318 C -0.04063 0.80551 0.86234
 C2319 C -0.03965 0.78967 0.84702
 N2320 N -0.02984 0.79442 0.84218
 N2321 N -0.02475 0.78946 0.83289
 C2322 C -0.02923 0.77951 0.82805
 N2323 N -0.03902 0.77474 0.83291
 N2324 N -0.04411 0.77970 0.84220
 C2325 C -0.02373 0.77416 0.81752
 C2326 C -0.02851 0.76397 0.81242
 C2327 C -0.02369 0.75925 0.80216
 C2328 C -0.01396 0.76460 0.79675
 C2329 C -0.00901 0.77464 0.80200
 C2330 C -0.01384 0.77936 0.81226
 H2331 H -0.05950 0.78254 0.85860
 H2332 H -0.06879 0.79167 0.87551
 H2333 H -0.04197 0.81856 0.87574
 H2334 H -0.03277 0.80949 0.85877
 H2335 H -0.03611 0.75972 0.81622
 H2336 H -0.02778 0.75155 0.79834
 H2337 H -0.00158 0.77904 0.79803
 H2338 H -0.00992 0.78721 0.81594
 C2339 C 0.39251 0.79456 0.29474
 C2340 C 0.38773 0.78994 0.30513
 C2341 C 0.37824 0.79544 0.31065
 C2342 C 0.37326 0.80572 0.30592
 C2343 C 0.37806 0.81034 0.29552
 C2344 C 0.38755 0.80483 0.29000
 C2345 C 0.40272 0.78881 0.28902
 N2346 N 0.40750 0.79335 0.27908
 N2347 N 0.41684 0.78834 0.27411
 C2348 C 0.42180 0.77858 0.27886
 N2349 N 0.41697 0.77400 0.28875
 N2350 N 0.40763 0.77900 0.29372
 C2351 C 0.43249 0.77327 0.27360
 C2352 C 0.43784 0.76341 0.27878
 C2353 C 0.44826 0.75880 0.27420
 C2354 C 0.45358 0.76393 0.26431
 C2355 C 0.44808 0.77363 0.25898
 C2356 C 0.43767 0.77823 0.26356
 H2357 H 0.39132 0.78204 0.30904
 H2358 H 0.37487 0.79158 0.31863
 H2359 H 0.37454 0.81824 0.29159
 H2360 H 0.39101 0.80865 0.28202
 H2361 H 0.43410 0.75936 0.28652
 H2362 H 0.45227 0.75138 0.27859
 H2363 H 0.45195 0.77785 0.25139
 H2364 H 0.43379 0.78583 0.25934
 C2365 C -0.10739 0.79506 0.79503
 C2366 C -0.11230 0.80533 0.79024
 C2367 C -0.12190 0.81078 0.79561
 C2368 C -0.12687 0.80611 0.80590
 C2369 C -0.12194 0.79583 0.81068
 C2370 C -0.11233 0.79038 0.80531
 C2371 C -0.09713 0.78933 0.78938
 N2372 N -0.09227 0.77949 0.79407
 N2373 N -0.08296 0.77444 0.78909
 C2374 C -0.07811 0.77901 0.77919
 N2375 N -0.08301 0.78882 0.77447
 N2376 N -0.09232 0.79386 0.77946
 C2377 C -0.06752 0.77361 0.77386
 C2378 C -0.06236 0.77853 0.76378
 C2379 C -0.05202 0.77382 0.75912
 C2380 C -0.04658 0.76406 0.76441
 C2381 C -0.05189 0.75898 0.77433
 C2382 C -0.06223 0.76369 0.77899
 H2383 H -0.10872 0.80920 0.78233
 H2384 H -0.12539 0.81866 0.79161
 H2385 H -0.12545 0.79192 0.81858
 H2386 H -0.10878 0.78249 0.80926
 H2387 H -0.06618 0.78616 0.75959
 H2388 H -0.04816 0.77802 0.75152
 H2389 H -0.04792 0.75151 0.77869
 H2390 H -0.06596 0.75966 0.78675
 C2391 C 0.85924 0.29383 0.45665
 C2392 C 0.86392 0.28926 0.44618
 C2393 C 0.87327 0.29486 0.44056
 C2394 C 0.87821 0.30518 0.44526
 C2395 C 0.87352 0.30973 0.45575
 C2396 C 0.86416 0.30412 0.46137
 C2397 C 0.84918 0.28797 0.46249
 N2398 N 0.84447 0.29245 0.47249
 N2399 N 0.83525 0.28734 0.47756
 C2400 C 0.83036 0.27751 0.47286
 N2401 N 0.83512 0.27299 0.46290
 N2402 N 0.84434 0.27810 0.45783
 C2403 C 0.81975 0.27214 0.47817
 C2404 C 0.81443 0.26228 0.47296
 C2405 C 0.80392 0.25777 0.47741
 C2406 C 0.79848 0.26302 0.48717
 C2407 C 0.80403 0.27262 0.49265
 C2408 C 0.81454 0.27712 0.48820
 H2409 H 0.86035 0.28135 0.44228
 H2410 H 0.87656 0.29105 0.43252
 H2411 H 0.87703 0.31763 0.45968
 H2412 H 0.86078 0.30789 0.46943
 H2413 H 0.81822 0.25819 0.46525
 H2414 H 0.79989 0.25039 0.47295
 H2415 H 0.80009 0.27690 0.50018
 H2416 H 0.81842 0.28469 0.49246
 C2417 C 0.85792 0.79457 -0.04511
 C2418 C 0.86311 0.78962 -0.05516
 C2419 C 0.87269 0.79507 -0.06057
 C2420 C 0.87729 0.80562 -0.05608
 C2421 C 0.87209 0.81058 -0.04604
 C2422 C 0.86255 0.80510 -0.04060
 C2423 C 0.84767 0.78885 -0.03944
 N2424 N 0.84272 0.79355 -0.02966
 N2425 N 0.83339 0.78854 -0.02469
 C2426 C 0.82861 0.77861 -0.02928
 N2427 N 0.83359 0.77388 -0.03904
 N2428 N 0.84292 0.77889 -0.04401
 C2429 C 0.81798 0.77326 -0.02395
 C2430 C 0.81274 0.76326 -0.02899
 C2431 C 0.80239 0.75860 -0.02432
 C2432 C 0.79701 0.76382 -0.01450
 C2433 C 0.80242 0.77365 -0.00929
 C2434 C 0.81277 0.77831 -0.01396
 H2435 H 0.85977 0.78153 -0.05890
 H2436 H 0.87638 0.79104 -0.06834
 H2437 H 0.87547 0.81862 -0.04226
 H2438 H 0.85879 0.80916 -0.03286
 H2439 H 0.81651 0.75914 -0.03669
 H2440 H 0.79845 0.75106 -0.02860
 H2441 H 0.79852 0.77795 -0.00175
 H2442 H 0.81655 0.78601 -0.00985
 C2443 C -0.10747 -0.04512 -0.04503
 C2444 C -0.11236 -0.05547 -0.04041
 C2445 C -0.12194 -0.06085 -0.04587
 C2446 C -0.12689 -0.05603 -0.05611
 C2447 C -0.12199 -0.04566 -0.06072
 C2448 C -0.11241 -0.04028 -0.05525
 C2449 C -0.09722 -0.03949 -0.03930
 N2450 N -0.09241 -0.02954 -0.04380
 N2451 N -0.08309 -0.02458 -0.03876
 C2452 C -0.07819 -0.02935 -0.02898
 N2453 N -0.08303 -0.03927 -0.02446
 N2454 N -0.09235 -0.04422 -0.02950
 C2455 C -0.06759 -0.02405 -0.02359
 C2456 C -0.06233 -0.02921 -0.01368
 C2457 C -0.05198 -0.02460 -0.00899
 C2458 C -0.04664 -0.01469 -0.01407
 C2459 C -0.05205 -0.00936 -0.02380
 C2460 C -0.06240 -0.01398 -0.02850
 H2461 H -0.10878 -0.05945 -0.03255
 H2462 H -0.12542 -0.06880 -0.04202
 H2463 H -0.12549 -0.04163 -0.06856
 H2464 H -0.10886 -0.03232 -0.05906
 H2465 H -0.06609 -0.03697 -0.00967
 H2466 H -0.04803 -0.02898 -0.00153
 H2467 H -0.04815 -0.00176 -0.02799
 H2468 H -0.06622 -0.00976 -0.03612
 C2469 C -0.10788 0.45550 0.45536
 C2470 C -0.11280 0.44522 0.46010
 C2471 C -0.12234 0.43974 0.45463
 C2472 C -0.12721 0.44441 0.44428
 C2473 C -0.12230 0.45473 0.43959
 C2474 C -0.11277 0.46020 0.44506
 C2475 C -0.09763 0.46121 0.46103
 N2476 N -0.09277 0.47105 0.45635
 N2477 N -0.08342 0.47606 0.46130
 C2478 C -0.07854 0.47145 0.47116
 N2479 N -0.08343 0.46163 0.47587
 N2480 N -0.09277 0.45662 0.47091
 C2481 C -0.06790 0.47679 0.47645
 C2482 C -0.06269 0.47180 0.48647
 C2483 C -0.05232 0.47646 0.49110
 C2484 C -0.04689 0.48622 0.48581
 C2485 C -0.05224 0.49136 0.47594
 C2486 C -0.06262 0.48670 0.47132
 H2487 H -0.10926 0.44133 0.46802
 H2488 H -0.12584 0.43184 0.45856
 H2489 H -0.12573 0.45863 0.43165
 H2490 H -0.10919 0.46810 0.44114
 H2491 H -0.06650 0.46415 0.49063
 H2492 H -0.04843 0.47223 0.49868
 H2493 H -0.04827 0.49883 0.47160
 H2494 H -0.06636 0.49076 0.46358
 C2495 C 0.39239 -0.04450 0.45472
 C2496 C 0.38743 -0.05469 0.45958
 C2497 C 0.37782 -0.06015 0.45425
 C2498 C 0.37285 -0.05559 0.44386
 C2499 C 0.37789 -0.04535 0.43902
 C2500 C 0.38750 -0.03990 0.44438
 C2501 C 0.40267 -0.03880 0.46036
 N2502 N 0.40759 -0.02900 0.45565
 N2503 N 0.41693 -0.02400 0.46064
 C2504 C 0.42174 -0.02857 0.47055
 N2505 N 0.41679 -0.03834 0.47528
 N2506 N 0.40745 -0.04334 0.47030
 C2507 C 0.43235 -0.02324 0.47591
 C2508 C 0.43752 -0.02827 0.48593
 C2509 C 0.44786 -0.02363 0.49064
 C2510 C 0.45329 -0.01382 0.48547
 C2511 C 0.44798 -0.00862 0.47560
 C2512 C 0.43763 -0.01327 0.47088
 H2513 H 0.39098 -0.05850 0.46754
 H2514 H 0.37438 -0.06797 0.45838
 H2515 H 0.37447 -0.04144 0.43108
 H2516 H 0.39111 -0.03206 0.44038
 H2517 H 0.43370 -0.03595 0.49004
 H2518 H 0.45173 -0.02791 0.49820
 H2519 H 0.45194 -0.00110 0.47133
 H2520 H 0.43390 -0.00916 0.46317
 C2521 C 0.39184 0.45566 -0.04497
 C2522 C 0.38686 0.44546 -0.04014
 C2523 C 0.37728 0.43999 -0.04553
 C2524 C 0.37234 0.44455 -0.05593
 C2525 C 0.37738 0.45481 -0.06074
 C2526 C 0.38697 0.46027 -0.05533
 C2527 C 0.40210 0.46137 -0.03930
 N2528 N 0.40703 0.47116 -0.04401
 N2529 N 0.41634 0.47619 -0.03900
 C2530 C 0.42112 0.47166 -0.02905
 N2531 N 0.41616 0.46189 -0.02432
 N2532 N 0.40686 0.45686 -0.02933
 C2533 C 0.43170 0.47706 -0.02366
 C2534 C 0.43686 0.47210 -0.01360
 C2535 C 0.44720 0.47678 -0.00892
 C2536 C 0.45264 0.48655 -0.01418
 C2537 C 0.44729 0.49171 -0.02404
 C2538 C 0.43695 0.48702 -0.02872
 H2539 H 0.39037 0.44165 -0.03217
 H2540 H 0.37383 0.43216 -0.04142
 H2541 H 0.37399 0.45872 -0.06869
 H2542 H 0.39057 0.46812 -0.05930
 H2543 H 0.43304 0.46445 -0.00944
 H2544 H 0.45107 0.47256 -0.00133
 H2545 H 0.45123 0.49923 -0.02834
 H2546 H 0.43320 0.49110 -0.03645
 C2547 C 0.35735 0.45530 0.79534
 C2548 C 0.36242 0.46011 0.80552
 C2549 C 0.37205 0.45468 0.81087
 C2550 C 0.37686 0.44430 0.80618
 C2551 C 0.37172 0.43946 0.79603
 C2552 C 0.36210 0.44489 0.79068
 C2553 C 0.34715 0.46105 0.78963
 N2554 N 0.34231 0.45643 0.77975
 N2555 N 0.33306 0.46149 0.77470
 C2556 C 0.32825 0.47141 0.77929
 N2557 N 0.33313 0.47607 0.78914
 N2558 N 0.34239 0.47100 0.79419
 C2559 C 0.31769 0.47679 0.77391
 C2560 C 0.31244 0.48678 0.77895
 C2561 C 0.30211 0.49147 0.77424
 C2562 C 0.29680 0.48629 0.76437
 C2563 C 0.30217 0.47643 0.75919
 C2564 C 0.31250 0.47176 0.76389
 H2565 H 0.35896 0.46810 0.80937
 H2566 H 0.37568 0.45869 0.81867
 H2567 H 0.37508 0.43148 0.79214
 H2568 H 0.35840 0.44090 0.78288
 H2569 H 0.31619 0.49088 0.78667
 H2570 H 0.29816 0.49899 0.77853
 H2571 H 0.29827 0.47214 0.75165
 H2572 H 0.31630 0.46407 0.75977
 C2573 C 0.35769 -0.04467 0.29539
 C2574 C 0.36260 -0.03996 0.30570
 C2575 C 0.37223 -0.04536 0.31106
 C2576 C 0.37721 -0.05560 0.30626
 C2577 C 0.37223 -0.06036 0.29599
 C2578 C 0.36261 -0.05496 0.29063
 C2579 C 0.34749 -0.03894 0.28968
 N2580 N 0.34271 -0.04351 0.27975
 N2581 N 0.33346 -0.03845 0.27469
 C2582 C 0.32859 -0.02859 0.27933
 N2583 N 0.33339 -0.02399 0.28924
 N2584 N 0.34265 -0.02905 0.29430
 C2585 C 0.31805 -0.02319 0.27390
 C2586 C 0.31278 -0.01321 0.27894
 C2587 C 0.30248 -0.00851 0.27420
 C2588 C 0.29720 -0.01367 0.26429
 C2589 C 0.30263 -0.02349 0.25909
 C2590 C 0.31293 -0.02818 0.26383
 H2591 H 0.35901 -0.03208 0.30965
 H2592 H 0.37570 -0.04147 0.31900
 H2593 H 0.37581 -0.06819 0.29197
 H2594 H 0.35904 -0.05885 0.28271
 H2595 H 0.31649 -0.00914 0.28670
 H2596 H 0.29851 -0.00100 0.27850
 H2597 H 0.29879 -0.02774 0.25150
 H2598 H 0.31675 -0.03586 0.25971
 C2599 C 0.14032 0.54335 0.70730
 C2600 C 0.13553 0.53869 0.69692
 C2601 C 0.12618 0.54430 0.69127
 C2602 C 0.12136 0.55472 0.69585
 C2603 C 0.12612 0.55935 0.70628
 C2604 C 0.13547 0.55374 0.71193
 C2605 C 0.15043 0.53754 0.71313
 N2606 N 0.15528 0.54219 0.72300
 N2607 N 0.16458 0.53716 0.72803
 C2608 C 0.16942 0.52726 0.72342
 N2609 N 0.16452 0.52258 0.71360
 N2610 N 0.15523 0.52760 0.70857
 C2611 C 0.18014 0.52202 0.72866
 C2612 C 0.18542 0.51207 0.72358
 C2613 C 0.19605 0.50771 0.72793
 C2614 C 0.20166 0.51321 0.73747
 C2615 C 0.19614 0.52288 0.74285
 C2616 C 0.18551 0.52723 0.73850
 H2617 H 0.13904 0.53071 0.69309
 H2618 H 0.12285 0.54045 0.68325
 H2619 H 0.12264 0.56730 0.71015
 H2620 H 0.13892 0.55758 0.71992
 H2621 H 0.18151 0.50779 0.71603
 H2622 H 0.20003 0.50025 0.72356
 H2623 H 0.20019 0.52733 0.75021
 H2624 H 0.18167 0.53487 0.74267
 C2625 C 0.14092 0.04296 0.20671
 C2626 C 0.13613 0.05336 0.21133
 C2627 C 0.12670 0.05891 0.20578
 C2628 C 0.12180 0.05420 0.19545
 C2629 C 0.12660 0.04378 0.19085
 C2630 C 0.13604 0.03823 0.19640
 C2631 C 0.15104 0.03717 0.21252
 N2632 N 0.15583 0.02722 0.20799
 N2633 N 0.16509 0.02218 0.21306
 C2634 C 0.16996 0.02687 0.22290
 N2635 N 0.16512 0.03678 0.22748
 N2636 N 0.15586 0.04182 0.22240
 C2637 C 0.18062 0.02160 0.22822
 C2638 C 0.18592 0.02680 0.23809
 C2639 C 0.19649 0.02241 0.24253
 C2640 C 0.20203 0.01273 0.23719
 C2641 C 0.19648 0.00726 0.22760
 C2642 C 0.18591 0.01164 0.22316
 H2643 H 0.13968 0.05728 0.21924
 H2644 H 0.12330 0.06690 0.20964
 H2645 H 0.12313 0.03985 0.18293
 H2646 H 0.13952 0.03024 0.19258
 H2647 H 0.18208 0.03446 0.24223
 H2648 H 0.20049 0.02686 0.24993
 H2649 H 0.20049 -0.00021 0.22326
 H2650 H 0.18206 0.00740 0.21557
 C2651 C 0.60953 0.70678 0.20635
 C2652 C 0.61451 0.71160 0.19615
 C2653 C 0.62395 0.70605 0.19058
 C2654 C 0.62867 0.69555 0.19508
 C2655 C 0.62365 0.69074 0.20529
 C2656 C 0.61422 0.69628 0.21085
 C2657 C 0.59943 0.71258 0.21221
 N2658 N 0.59456 0.70786 0.22201
 N2659 N 0.58534 0.71291 0.22713
 C2660 C 0.58059 0.72292 0.22268
 N2661 N 0.58550 0.72767 0.21291
 N2662 N 0.59473 0.72262 0.20779
 C2663 C 0.56996 0.72821 0.22805
 C2664 C 0.56474 0.73825 0.22310
 C2665 C 0.55420 0.74267 0.22758
 C2666 C 0.54863 0.73717 0.23712
 C2667 C 0.55409 0.72739 0.24234
 C2668 C 0.56462 0.72297 0.23786
 H2669 H 0.61111 0.71966 0.19242
 H2670 H 0.62751 0.71006 0.18275
 H2671 H 0.62696 0.68268 0.20906
 H2672 H 0.61059 0.69230 0.21868
 H2673 H 0.56863 0.74254 0.21556
 H2674 H 0.55025 0.75020 0.22331
 H2675 H 0.55004 0.72290 0.24968
 H2676 H 0.56842 0.71525 0.24193
 C2677 C 0.10916 0.70645 0.70592
 C2678 C 0.11406 0.71122 0.69564
 C2679 C 0.12365 0.70581 0.69019
 C2680 C 0.12859 0.69550 0.69487
 C2681 C 0.12365 0.69071 0.70512
 C2682 C 0.11407 0.69612 0.71058
 C2683 C 0.09897 0.71215 0.71170
 N2684 N 0.09414 0.70744 0.72153
 N2685 N 0.08489 0.71246 0.72666
 C2686 C 0.08009 0.72243 0.72220
 N2687 N 0.08494 0.72717 0.71239
 N2688 N 0.09419 0.72215 0.70726
 C2689 C 0.06952 0.72776 0.72766
 C2690 C 0.06436 0.73790 0.72283
 C2691 C 0.05391 0.74240 0.72744
 C2692 C 0.04835 0.73688 0.73699
 C2693 C 0.05376 0.72701 0.74209
 C2694 C 0.06421 0.72251 0.73749
 H2695 H 0.11049 0.71915 0.69178
 H2696 H 0.12712 0.70972 0.68226
 H2697 H 0.12722 0.68284 0.70906
 H2698 H 0.11055 0.69220 0.71848
 H2699 H 0.06824 0.74221 0.71531
 H2700 H 0.05002 0.75002 0.72328
 H2701 H 0.04973 0.72252 0.74944
 H2702 H 0.06797 0.71474 0.74147
 C2703 C 0.64233 0.20539 0.54432
 C2704 C 0.63723 0.19524 0.53947
 C2705 C 0.62753 0.18995 0.54482
 C2706 C 0.62269 0.19466 0.55517
 C2707 C 0.62783 0.20481 0.56001
 C2708 C 0.63751 0.21010 0.55466
 C2709 C 0.65264 0.21100 0.53869
 N2710 N 0.65755 0.22081 0.54339
 N2711 N 0.66691 0.22577 0.53843
 C2712 C 0.67175 0.22114 0.52856
 N2713 N 0.66681 0.21135 0.52384
 N2714 N 0.65745 0.20639 0.52879
 C2715 C 0.68241 0.22645 0.52329
 C2716 C 0.68765 0.22143 0.51330
 C2717 C 0.69805 0.22606 0.50872
 C2718 C 0.70343 0.23585 0.51401
 C2719 C 0.69805 0.24102 0.52385
 C2720 C 0.68766 0.23638 0.52842
 H2721 H 0.64072 0.19136 0.53152
 H2722 H 0.62388 0.18216 0.54079
 H2723 H 0.62442 0.20876 0.56795
 H2724 H 0.64122 0.21790 0.55866
 H2725 H 0.68384 0.21377 0.50911
 H2726 H 0.70199 0.22179 0.50119
 H2727 H 0.70199 0.24851 0.52821
 H2728 H 0.68387 0.24048 0.53612
 C2729 C 0.64073 0.70693 0.04302
 C2730 C 0.63593 0.71157 0.05340
 C2731 C 0.62662 0.70590 0.05906
 C2732 C 0.62185 0.69546 0.05447
 C2733 C 0.62664 0.69086 0.04405
 C2734 C 0.63594 0.69652 0.03840
 C2735 C 0.65079 0.71277 0.03715
 N2736 N 0.65557 0.70816 0.02723
 N2737 N 0.66482 0.71319 0.02216
 C2738 C 0.66970 0.72307 0.02677
 N2739 N 0.66486 0.72773 0.03664
 N2740 N 0.65561 0.72270 0.04171
 C2741 C 0.68039 0.72831 0.02148
 C2742 C 0.68572 0.73822 0.02658
 C2743 C 0.69630 0.74259 0.02217
 C2744 C 0.70183 0.73716 0.01255
 C2745 C 0.69627 0.72751 0.00717
 C2746 C 0.68568 0.72314 0.01158
 H2747 H 0.63939 0.71957 0.05722
 H2748 H 0.62323 0.70976 0.06705
 H2749 H 0.62326 0.68287 0.04018
 H2750 H 0.63941 0.69269 0.03041
 H2751 H 0.68187 0.74246 0.03418
 H2752 H 0.70032 0.75003 0.02655
 H2753 H 0.70027 0.72308 -0.00024
 H2754 H 0.68181 0.71553 0.00740
 C2755 C 0.10925 0.04330 0.04343
 C2756 C 0.11393 0.05378 0.03888
 C2757 C 0.12335 0.05936 0.04444
 C2758 C 0.12834 0.05462 0.05470
 C2759 C 0.12365 0.04412 0.05922
 C2760 C 0.11423 0.03854 0.05366
 C2761 C 0.09915 0.03748 0.03761
 N2762 N 0.09446 0.02746 0.04208
 N2763 N 0.08523 0.02237 0.03699
 C2764 C 0.08030 0.02706 0.02719
 N2765 N 0.08503 0.03705 0.02268
 N2766 N 0.09426 0.04214 0.02777
 C2767 C 0.06970 0.02170 0.02183
 C2768 C 0.06436 0.02683 0.01195
 C2769 C 0.05386 0.02231 0.00747
 C2770 C 0.04844 0.01256 0.01276
 C2771 C 0.05403 0.00716 0.02236
 C2772 C 0.06452 0.01167 0.02684
 H2773 H 0.11032 0.05771 0.03102
 H2774 H 0.12666 0.06740 0.04063
 H2775 H 0.12721 0.04015 0.06708
 H2776 H 0.11085 0.03049 0.05742
 H2777 H 0.06813 0.03453 0.00784
 H2778 H 0.04982 0.02671 0.00007
 H2779 H 0.05011 -0.00036 0.02667
 H2780 H 0.06841 0.00747 0.03443
 C2781 C 0.10897 0.54369 0.54359
 C2782 C 0.11365 0.55418 0.53907
 C2783 C 0.12309 0.55972 0.54462
 C2784 C 0.12812 0.55493 0.55483
 C2785 C 0.12342 0.54443 0.55935
 C2786 C 0.11397 0.53888 0.55380
 C2787 C 0.09887 0.53788 0.53775
 N2788 N 0.09419 0.52783 0.54217
 N2789 N 0.08497 0.52276 0.53705
 C2790 C 0.08004 0.52750 0.52727
 N2791 N 0.08477 0.53751 0.52281
 N2792 N 0.09398 0.54258 0.52793
 C2793 C 0.06944 0.52217 0.52188
 C2794 C 0.06410 0.52739 0.51205
 C2795 C 0.05360 0.52292 0.50753
 C2796 C 0.04819 0.51311 0.51273
 C2797 C 0.05377 0.50763 0.52229
 C2798 C 0.06427 0.51210 0.52681
 H2799 H 0.11001 0.55815 0.53124
 H2800 H 0.12639 0.56777 0.54083
 H2801 H 0.12699 0.54043 0.56718
 H2802 H 0.11058 0.53082 0.55754
 H2803 H 0.06786 0.53513 0.50800
 H2804 H 0.04954 0.52739 0.50018
 H2805 H 0.04985 0.50008 0.52654
 H2806 H 0.06816 0.50782 0.53435
 C2807 C 0.60933 0.04394 0.54309
 C2808 C 0.61405 0.03930 0.55350
 C2809 C 0.62341 0.04487 0.55916
 C2810 C 0.62832 0.05524 0.55455
 C2811 C 0.62361 0.05985 0.54410
 C2812 C 0.61424 0.05427 0.53844
 C2813 C 0.59923 0.03814 0.53724
 N2814 N 0.59440 0.04277 0.52736
 N2815 N 0.58513 0.03773 0.52230
 C2816 C 0.58030 0.02783 0.52688
 N2817 N 0.58518 0.02316 0.53671
 N2818 N 0.59445 0.02820 0.54177
 C2819 C 0.56964 0.02253 0.52158
 C2820 C 0.56442 0.01255 0.52664
 C2821 C 0.55386 0.00809 0.52224
 C2822 C 0.54826 0.01351 0.51266
 C2823 C 0.55371 0.02323 0.50732
 C2824 C 0.56427 0.02768 0.51173
 H2825 H 0.61049 0.03137 0.55734
 H2826 H 0.62672 0.04101 0.56716
 H2827 H 0.62712 0.06777 0.54023
 H2828 H 0.61083 0.05809 0.53044
 H2829 H 0.56832 0.00832 0.53421
 H2830 H 0.54992 0.00061 0.52659
 H2831 H 0.54965 0.02764 0.49994
 H2832 H 0.56806 0.03535 0.50758
 C2833 C 0.60898 0.54369 0.04306
 C2834 C 0.61382 0.53899 0.05339
 C2835 C 0.62332 0.54446 0.05891
 C2836 C 0.62826 0.55478 0.05424
 C2837 C 0.62339 0.55948 0.04390
 C2838 C 0.61388 0.55401 0.03838
 C2839 C 0.59882 0.53792 0.03728
 N2840 N 0.59396 0.54254 0.02742
 N2841 N 0.58467 0.53749 0.02239
 C2842 C 0.57986 0.52759 0.02701
 N2843 N 0.58477 0.52294 0.03683
 N2844 N 0.59405 0.52799 0.04185
 C2845 C 0.56918 0.52229 0.02175
 C2846 C 0.56396 0.51232 0.02685
 C2847 C 0.55340 0.50786 0.02244
 C2848 C 0.54781 0.51325 0.01284
 C2849 C 0.55327 0.52296 0.00749
 C2850 C 0.56382 0.52742 0.01189
 H2851 H 0.61025 0.53107 0.05725
 H2852 H 0.62676 0.54051 0.06682
 H2853 H 0.62689 0.56741 0.04000
 H2854 H 0.61037 0.55789 0.03045
 H2855 H 0.56786 0.50812 0.03443
 H2856 H 0.54946 0.50039 0.02681
 H2857 H 0.54921 0.52736 0.00010
 H2858 H 0.56762 0.53507 0.00772
 C2859 C 0.04384 0.04235 0.10932
 C2860 C 0.03906 0.05266 0.11415
 C2861 C 0.04455 0.05830 0.12357
 C2862 C 0.05498 0.05377 0.12842
 C2863 C 0.05975 0.04344 0.12358
 C2864 C 0.05425 0.03780 0.11415
 C2865 C 0.03809 0.03649 0.09920
 N2866 N 0.04283 0.02669 0.09429
 N2867 N 0.03781 0.02161 0.08501
 C2868 C 0.02782 0.02610 0.08027
 N2869 N 0.02304 0.03586 0.08523
 N2870 N 0.02807 0.04093 0.09450
 C2871 C 0.02253 0.02080 0.06960
 C2872 C 0.01246 0.02578 0.06447
 C2873 C 0.00801 0.02138 0.05392
 C2874 C 0.01353 0.01190 0.04822
 C2875 C 0.02334 0.00664 0.05358
 C2876 C 0.02779 0.01104 0.06414
 H2877 H 0.03107 0.05644 0.11064
 H2878 H 0.04056 0.06621 0.12699
 H2879 H 0.06775 0.03966 0.12701
 H2880 H 0.05820 0.02988 0.11064
 H2881 H 0.00817 0.03329 0.06844
 H2882 H 0.00043 0.02565 0.05006
 H2883 H 0.02782 -0.00067 0.04944
 H2884 H 0.03554 0.00697 0.06786
 C2885 C 0.04379 0.54279 0.60931
 C2886 C 0.03907 0.55316 0.61408
 C2887 C 0.04451 0.55874 0.62355
 C2888 C 0.05482 0.55410 0.62854
 C2889 C 0.05954 0.54372 0.62376
 C2890 C 0.05409 0.53814 0.61426
 C2891 C 0.03805 0.53696 0.59916
 N2892 N 0.04276 0.52713 0.59427
 N2893 N 0.03774 0.52207 0.58499
 C2894 C 0.02779 0.52660 0.58021
 N2895 N 0.02305 0.53639 0.58514
 N2896 N 0.02807 0.54145 0.59442
 C2897 C 0.02250 0.52131 0.56954
 C2898 C 0.01243 0.52630 0.56441
 C2899 C 0.00797 0.52190 0.55385
 C2900 C 0.01347 0.51241 0.54816
 C2901 C 0.02329 0.50715 0.55351
 C2902 C 0.02775 0.51154 0.56407
 H2903 H 0.03115 0.55702 0.61047
 H2904 H 0.04057 0.56671 0.62691
 H2905 H 0.06745 0.53983 0.62731
 H2906 H 0.05799 0.53017 0.61081
 H2907 H 0.00813 0.53380 0.56839
 H2908 H 0.00041 0.52619 0.54999
 H2909 H 0.02777 0.49984 0.54937
 H2910 H 0.03549 0.50746 0.56779
 C2911 C 0.54371 0.04395 0.60898
 C2912 C 0.55412 0.03936 0.61376
 C2913 C 0.55959 0.04485 0.62328
 C2914 C 0.55482 0.05511 0.62834
 C2915 C 0.54439 0.05969 0.62348
 C2916 C 0.53892 0.05418 0.61395
 C2917 C 0.53796 0.03815 0.59881
 N2918 N 0.52801 0.04268 0.59403
 N2919 N 0.52297 0.03761 0.58477
 C2920 C 0.52764 0.02775 0.57989
 N2921 N 0.53755 0.02318 0.58472
 N2922 N 0.54259 0.02825 0.59398
 C2923 C 0.52232 0.02240 0.56926
 C2924 C 0.52745 0.01248 0.56396
 C2925 C 0.52298 0.00799 0.55344
 C2926 C 0.51327 0.01331 0.54796
 C2927 C 0.50787 0.02296 0.55349
 C2928 C 0.51234 0.02745 0.56401
 H2929 H 0.55808 0.03149 0.61015
 H2930 H 0.56758 0.04093 0.62658
 H2931 H 0.54033 0.06755 0.62695
 H2932 H 0.53092 0.05798 0.61048
 H2933 H 0.53511 0.00833 0.56778
 H2934 H 0.52737 0.00055 0.54943
 H2935 H 0.50038 0.02729 0.54953
 H2936 H 0.50812 0.03505 0.56788
 C2937 C 0.54423 0.54374 0.10887
 C2938 C 0.53954 0.55408 0.11374
 C2939 C 0.54498 0.55954 0.12330
 C2940 C 0.55524 0.55479 0.12826
 C2941 C 0.55998 0.54448 0.12334
 C2942 C 0.55454 0.53902 0.11377
 C2943 C 0.53842 0.53795 0.09873
 N2944 N 0.54296 0.52801 0.09391
 N2945 N 0.53783 0.52292 0.08470
 C2946 C 0.52791 0.52755 0.07992
 N2947 N 0.52335 0.53745 0.08477
 N2948 N 0.52848 0.54254 0.09398
 C2949 C 0.52247 0.52218 0.06936
 C2950 C 0.51250 0.52728 0.06416
 C2951 C 0.50791 0.52276 0.05371
 C2952 C 0.51316 0.51302 0.04820
 C2953 C 0.52288 0.50765 0.05364
 C2954 C 0.52747 0.51218 0.06409
 H2955 H 0.53162 0.55797 0.11019
 H2956 H 0.54101 0.56741 0.12685
 H2957 H 0.56793 0.54061 0.12682
 H2958 H 0.55844 0.53110 0.11021
 H2959 H 0.50840 0.53497 0.06798
 H2960 H 0.50044 0.52715 0.04977
 H2961 H 0.52717 0.50016 0.04965
 H2962 H 0.53512 0.50798 0.06788
 C2963 C 0.20606 0.54346 0.64107
 C2964 C 0.19577 0.53878 0.63610
 C2965 C 0.19027 0.54436 0.62665
 C2966 C 0.19493 0.55478 0.62191
 C2967 C 0.20521 0.55947 0.62691
 C2968 C 0.21070 0.55388 0.63636
 C2969 C 0.21184 0.53761 0.65117
 N2970 N 0.22178 0.54215 0.65596
 N2971 N 0.22685 0.53705 0.66518
 C2972 C 0.22221 0.52718 0.67001
 N2973 N 0.21231 0.52260 0.66518
 N2974 N 0.20724 0.52770 0.65595
 C2975 C 0.22755 0.52186 0.68063
 C2976 C 0.22242 0.51199 0.68599
 C2977 C 0.22691 0.50757 0.69653
 C2978 C 0.23664 0.51292 0.70195
 C2979 C 0.24205 0.52249 0.69634
 C2980 C 0.23756 0.52690 0.68581
 H2981 H 0.19193 0.53078 0.63952
 H2982 H 0.18238 0.54046 0.62311
 H2983 H 0.20911 0.56746 0.62358
 H2984 H 0.21860 0.55777 0.63997
 H2985 H 0.21473 0.50784 0.68222
 H2986 H 0.22251 0.50019 0.70060
 H2987 H 0.24956 0.52684 0.70025
 H2988 H 0.24179 0.53447 0.68190
 C2989 C 0.20638 0.04287 0.14076
 C2990 C 0.21103 0.05330 0.13606
 C2991 C 0.20553 0.05892 0.12665
 C2992 C 0.19522 0.05427 0.12166
 C2993 C 0.19059 0.04381 0.12634
 C2994 C 0.19610 0.03819 0.13577
 C2995 C 0.21213 0.03704 0.15088
 N2996 N 0.20746 0.02718 0.15572
 N2997 N 0.21251 0.02209 0.16497
 C2998 C 0.22245 0.02663 0.16977
 N2999 N 0.22714 0.03645 0.16490
 N3000 N 0.22210 0.04154 0.15565
 C3001 C 0.22778 0.02130 0.18040
 C3002 C 0.23788 0.02624 0.18550
 C3003 C 0.24238 0.02179 0.19601
 C3004 C 0.23688 0.01230 0.20169
 C3005 C 0.22705 0.00707 0.19634
 C3006 C 0.22255 0.01152 0.18583
 H3007 H 0.21893 0.05717 0.13968
 H3008 H 0.20942 0.06692 0.12334
 H3009 H 0.18270 0.03991 0.12278
 H3010 H 0.19227 0.03017 0.13915
 H3011 H 0.24217 0.03374 0.18155
 H3012 H 0.24998 0.02604 0.19986
 H3013 H 0.22258 -0.00024 0.20046
 H3014 H 0.21478 0.00746 0.18212
 C3015 C 0.70495 0.20538 0.60754
 C3016 C 0.70980 0.19517 0.61251
 C3017 C 0.70456 0.18986 0.62225
 C3018 C 0.69432 0.19463 0.62727
 C3019 C 0.68943 0.20479 0.62221
 C3020 C 0.69467 0.21010 0.61248
 C3021 C 0.71056 0.21106 0.59725
 N3022 N 0.70589 0.22094 0.59243
 N3023 N 0.71088 0.22599 0.58314
 C3024 C 0.72077 0.22139 0.57829
 N3025 N 0.72545 0.21155 0.58314
 N3026 N 0.72046 0.20650 0.59242
 C3027 C 0.72614 0.22679 0.56774
 C3028 C 0.73618 0.22177 0.56257
 C3029 C 0.74090 0.22647 0.55227
 C3030 C 0.73570 0.23630 0.54690
 C3031 C 0.72580 0.24146 0.55220
 C3032 C 0.72110 0.23678 0.56251
 H3033 H 0.71770 0.19127 0.60891
 H3034 H 0.70863 0.18207 0.62586
 H3035 H 0.68151 0.20870 0.62571
 H3036 H 0.69065 0.21792 0.60885
 H3037 H 0.74029 0.21407 0.56634
 H3038 H 0.74846 0.22220 0.54839
 H3039 H 0.72150 0.24897 0.54824
 H3040 H 0.71337 0.24087 0.56625
 C3041 C 0.70663 0.70704 0.10887
 C3042 C 0.71132 0.69666 0.11364
 C3043 C 0.70584 0.69110 0.12310
 C3044 C 0.69552 0.69576 0.12805
 C3045 C 0.69083 0.70614 0.12326
 C3046 C 0.69631 0.71171 0.11379
 C3047 C 0.71238 0.71285 0.09875
 N3048 N 0.70776 0.72275 0.09394
 N3049 N 0.71278 0.72780 0.08467
 C3050 C 0.72266 0.72318 0.07981
 N3051 N 0.72732 0.71333 0.08466
 N3052 N 0.72230 0.70828 0.09393
 C3053 C 0.72792 0.72845 0.06913
 C3054 C 0.73785 0.72334 0.06386
 C3055 C 0.74225 0.72773 0.05328
 C3056 C 0.73684 0.73734 0.04773
 C3057 C 0.72716 0.74272 0.05323
 C3058 C 0.72276 0.73833 0.06380
 H3059 H 0.71924 0.69279 0.11007
 H3060 H 0.70977 0.68314 0.12648
 H3061 H 0.68290 0.71002 0.12676
 H3062 H 0.69243 0.71967 0.11033
 H3063 H 0.74208 0.71575 0.06773
 H3064 H 0.74970 0.72335 0.04930
 H3065 H 0.72275 0.75013 0.04921
 H3066 H 0.71513 0.74252 0.06764
 C3067 C 0.54411 0.70697 0.14077
 C3068 C 0.53939 0.69662 0.13596
 C3069 C 0.54480 0.69111 0.12642
 C3070 C 0.55506 0.69582 0.12141
 C3071 C 0.55981 0.70615 0.12626
 C3072 C 0.55440 0.71166 0.13582
 C3073 C 0.53837 0.71278 0.15092
 N3074 N 0.54304 0.72264 0.15578
 N3075 N 0.53798 0.72773 0.16503
 C3076 C 0.52803 0.72321 0.16980
 N3077 N 0.52333 0.71339 0.16489
 N3078 N 0.52839 0.70829 0.15565
 C3079 C 0.52270 0.72855 0.18041
 C3080 C 0.51263 0.72359 0.18555
 C3081 C 0.50815 0.72804 0.19608
 C3082 C 0.51364 0.73756 0.20173
 C3083 C 0.52344 0.74282 0.19635
 C3084 C 0.52791 0.73837 0.18582
 H3085 H 0.53151 0.69273 0.13957
 H3086 H 0.54089 0.68314 0.12303
 H3087 H 0.56766 0.71009 0.12266
 H3088 H 0.55830 0.71961 0.13930
 H3089 H 0.50835 0.71607 0.18159
 H3090 H 0.50060 0.72376 0.19995
 H3091 H 0.52790 0.75015 0.20045
 H3092 H 0.53564 0.74245 0.18209
 C3093 C 0.04380 0.70673 0.64082
 C3094 C 0.05421 0.71133 0.63604
 C3095 C 0.05978 0.70574 0.62663
 C3096 C 0.05510 0.69539 0.62174
 C3097 C 0.04466 0.69081 0.62651
 C3098 C 0.03909 0.69641 0.63592
 C3099 C 0.03801 0.71256 0.65094
 N3100 N 0.02806 0.70804 0.65571
 N3101 N 0.02301 0.71312 0.66496
 C3102 C 0.02769 0.72297 0.66984
 N3103 N 0.03760 0.72753 0.66503
 N3104 N 0.04264 0.72245 0.65577
 C3105 C 0.02239 0.72831 0.68049
 C3106 C 0.02757 0.73818 0.68583
 C3107 C 0.02314 0.74266 0.69637
 C3108 C 0.01340 0.73738 0.70182
 C3109 C 0.00795 0.72778 0.69625
 C3110 C 0.01239 0.72330 0.68572
 H3111 H 0.05810 0.71926 0.63958
 H3112 H 0.06778 0.70958 0.62327
 H3113 H 0.04074 0.68289 0.62303
 H3114 H 0.03110 0.69260 0.63938
 H3115 H 0.03525 0.74230 0.68203
 H3116 H 0.02758 0.75004 0.70041
 H3117 H 0.00044 0.72348 0.70020
 H3118 H 0.00814 0.71573 0.68183
 C3119 C 0.54322 0.64011 0.20717
 C3120 C 0.53864 0.63529 0.19676
 C3121 C 0.54434 0.62598 0.19110
 C3122 C 0.55477 0.62122 0.19570
 C3123 C 0.55926 0.62593 0.20621
 C3124 C 0.55356 0.63524 0.21187
 C3125 C 0.53741 0.65032 0.21288
 N3126 N 0.54193 0.65518 0.22280
 N3127 N 0.53696 0.66461 0.22767
 C3128 C 0.52724 0.66959 0.22283
 N3129 N 0.52267 0.66467 0.21296
 N3130 N 0.52764 0.65525 0.20810
 C3131 C 0.52204 0.68044 0.22793
 C3132 C 0.51230 0.68588 0.22261
 C3133 C 0.50794 0.69654 0.22691
 C3134 C 0.51321 0.70204 0.23665
 C3135 C 0.52271 0.69640 0.24220
 C3136 C 0.52706 0.68575 0.23789
 H3137 H 0.53069 0.63877 0.19288
 H3138 H 0.54058 0.62266 0.18304
 H3139 H 0.56720 0.62246 0.21011
 H3140 H 0.55731 0.63869 0.21990
 H3141 H 0.50819 0.68204 0.21494
 H3142 H 0.50064 0.70063 0.22239
 H3143 H 0.52700 0.70037 0.24970
 H3144 H 0.53454 0.68181 0.24224
 C3145 C 0.04321 0.64060 0.70694
 C3146 C 0.05354 0.63572 0.71164
 C3147 C 0.05921 0.62641 0.70597
 C3148 C 0.05470 0.62173 0.69546
 C3149 C 0.04433 0.62659 0.69081
 C3150 C 0.03866 0.63589 0.69648
 C3151 C 0.03735 0.65070 0.71275
 N3152 N 0.02751 0.65555 0.70806
 N3153 N 0.02245 0.66486 0.71305
 C3154 C 0.02701 0.66971 0.72295
 N3155 N 0.03680 0.66480 0.72769
 N3156 N 0.04186 0.65549 0.72271
 C3157 C 0.02177 0.68047 0.72813
 C3158 C 0.02684 0.68576 0.73808
 C3159 C 0.02250 0.69640 0.74240
 C3160 C 0.01297 0.70202 0.73690
 C3161 C 0.00763 0.69651 0.72721
 C3162 C 0.01198 0.68586 0.72288
 H3163 H 0.05729 0.63912 0.71970
 H3164 H 0.06711 0.62288 0.70989
 H3165 H 0.04058 0.62332 0.68272
 H3166 H 0.03074 0.63943 0.69259
 H3167 H 0.03437 0.68183 0.74237
 H3168 H 0.02684 0.70038 0.74987
 H3169 H 0.00029 0.70059 0.72273
 H3170 H 0.00782 0.68202 0.71523
 C3171 C 0.04343 0.10865 0.04393
 C3172 C 0.03883 0.11352 0.05430
 C3173 C 0.04447 0.12292 0.05986
 C3174 C 0.05486 0.12771 0.05519
 C3175 C 0.05942 0.12284 0.04479
 C3176 C 0.05378 0.11345 0.03923
 C3177 C 0.03760 0.09851 0.03815
 N3178 N 0.04211 0.09375 0.02818
 N3179 N 0.03707 0.08445 0.02316
 C3180 C 0.02730 0.07950 0.02789
 N3181 N 0.02275 0.08431 0.03782
 N3182 N 0.02778 0.09362 0.04283
 C3183 C 0.02203 0.06880 0.02261
 C3184 C 0.01224 0.06339 0.02782
 C3185 C 0.00782 0.05282 0.02336
 C3186 C 0.01307 0.04742 0.01357
 C3187 C 0.02261 0.05305 0.00811
 C3188 C 0.02703 0.06361 0.01258
 H3189 H 0.03086 0.11006 0.05816
 H3190 H 0.04064 0.12638 0.06783
 H3191 H 0.06738 0.12621 0.04088
 H3192 H 0.05759 0.10993 0.03125
 H3193 H 0.00813 0.06715 0.03553
 H3194 H 0.00048 0.04874 0.02782
 H3195 H 0.02690 0.04915 0.00057
 H3196 H 0.03455 0.06756 0.00830
 C3197 C 0.04346 0.60904 0.54379
 C3198 C 0.03885 0.61394 0.55415
 C3199 C 0.04447 0.62337 0.55967
 C3200 C 0.05485 0.62815 0.55499
 C3201 C 0.05943 0.62325 0.54461
 C3202 C 0.05381 0.61383 0.53909
 C3203 C 0.03763 0.59890 0.53802
 N3204 N 0.04212 0.59413 0.52805
 N3205 N 0.03705 0.58486 0.52301
 C3206 C 0.02726 0.57995 0.52772
 N3207 N 0.02272 0.58475 0.53766
 N3208 N 0.02779 0.59403 0.54270
 C3209 C 0.02195 0.56928 0.52242
 C3210 C 0.01210 0.56391 0.52759
 C3211 C 0.00766 0.55336 0.52311
 C3212 C 0.01296 0.54793 0.51335
 C3213 C 0.02254 0.55353 0.50794
 C3214 C 0.02697 0.56407 0.51241
 H3215 H 0.03089 0.61047 0.55803
 H3216 H 0.04062 0.62686 0.56762
 H3217 H 0.06739 0.62662 0.54069
 H3218 H 0.05764 0.61027 0.53114
 H3219 H 0.00799 0.56769 0.53528
 H3220 H 0.00029 0.54930 0.52753
 H3221 H 0.02685 0.54960 0.50042
 H3222 H 0.03453 0.56797 0.50818
 C3223 C 0.54362 0.10940 0.54333
 C3224 C 0.53910 0.11411 0.55380
 C3225 C 0.54469 0.12352 0.55936
 C3226 C 0.55494 0.12849 0.55460
 C3227 C 0.55946 0.12376 0.54411
 C3228 C 0.55388 0.11433 0.53855
 C3229 C 0.53775 0.09931 0.53753
 N3230 N 0.54218 0.09458 0.52750
 N3231 N 0.53705 0.08535 0.52246
 C3232 C 0.52726 0.08045 0.52721
 N3233 N 0.52279 0.08523 0.53718
 N3234 N 0.52792 0.09447 0.54223
 C3235 C 0.52190 0.06982 0.52193
 C3236 C 0.51208 0.06448 0.52718
 C3237 C 0.50761 0.05392 0.52278
 C3238 C 0.51284 0.04845 0.51301
 C3239 C 0.52238 0.05403 0.50750
 C3240 C 0.52685 0.06458 0.51190
 H3241 H 0.53124 0.11052 0.55775
 H3242 H 0.54089 0.12685 0.56739
 H3243 H 0.56733 0.12728 0.54014
 H3244 H 0.55762 0.11091 0.53050
 H3245 H 0.50802 0.06828 0.53490
 H3246 H 0.50027 0.04988 0.52727
 H3247 H 0.52665 0.05007 0.49998
 H3248 H 0.53439 0.06847 0.50761
 C3249 C 0.54323 0.60921 0.04368
 C3250 C 0.53867 0.61407 0.05407
 C3251 C 0.54424 0.62356 0.05953
 C3252 C 0.55452 0.62845 0.05472
 C3253 C 0.55910 0.62355 0.04435
 C3254 C 0.55352 0.61405 0.03890
 C3255 C 0.53738 0.59908 0.03794
 N3256 N 0.54186 0.59429 0.02797
 N3257 N 0.53675 0.58504 0.02295
 C3258 C 0.52693 0.58018 0.02766
 N3259 N 0.52241 0.58501 0.03759
 N3260 N 0.52752 0.59427 0.04262
 C3261 C 0.52159 0.56953 0.02238
 C3262 C 0.51172 0.56422 0.02754
 C3263 C 0.50724 0.55368 0.02309
 C3264 C 0.51254 0.54820 0.01336
 C3265 C 0.52214 0.55375 0.00794
 C3266 C 0.52661 0.56428 0.01239
 H3267 H 0.53079 0.61053 0.05804
 H3268 H 0.54047 0.62699 0.06754
 H3269 H 0.56694 0.62706 0.04032
 H3270 H 0.55730 0.61053 0.03091
 H3271 H 0.50760 0.56803 0.03523
 H3272 H 0.49985 0.54965 0.02751
 H3273 H 0.52646 0.54978 0.00044
 H3274 H 0.53419 0.56814 0.00816
 C3275 C 0.70576 0.14206 0.54444
 C3276 C 0.69551 0.13710 0.53966
 C3277 C 0.69006 0.12754 0.54510
 C3278 C 0.69471 0.12269 0.55547
 C3279 C 0.70498 0.12767 0.56022
 C3280 C 0.71042 0.13722 0.55478
 C3281 C 0.71147 0.15231 0.53877
 N3282 N 0.72133 0.15715 0.54343
 N3283 N 0.72634 0.16648 0.53846
 C3284 C 0.72172 0.17137 0.52862
 N3285 N 0.71188 0.16649 0.52393
 N3286 N 0.70687 0.15716 0.52889
 C3287 C 0.72707 0.18199 0.52331
 C3288 C 0.72204 0.18725 0.51334
 C3289 C 0.72669 0.19763 0.50873
 C3290 C 0.73649 0.20302 0.51398
 C3291 C 0.74171 0.19759 0.52377
 C3292 C 0.73706 0.18721 0.52838
 H3293 H 0.69166 0.14061 0.53171
 H3294 H 0.68220 0.12400 0.54112
 H3295 H 0.70886 0.12425 0.56818
 H3296 H 0.71829 0.14082 0.55873
 H3297 H 0.71435 0.18347 0.50920
 H3298 H 0.72240 0.20157 0.50121
 H3299 H 0.74924 0.20151 0.52807
 H3300 H 0.74117 0.18340 0.53605
 C3301 C 0.70645 0.64098 0.04307
 C3302 C 0.69618 0.63603 0.03834
 C3303 C 0.69067 0.62655 0.04386
 C3304 C 0.69530 0.62176 0.05427
 C3305 C 0.70557 0.62675 0.05900
 C3306 C 0.71107 0.63623 0.05348
 C3307 C 0.71225 0.65110 0.03728
 N3308 N 0.72216 0.65592 0.04189
 N3309 N 0.72723 0.66516 0.03684
 C3310 C 0.72264 0.67000 0.02695
 N3311 N 0.71279 0.66514 0.02229
 N3312 N 0.70771 0.65589 0.02734
 C3313 C 0.72798 0.68064 0.02166
 C3314 C 0.72289 0.68593 0.01173
 C3315 C 0.72737 0.69647 0.00729
 C3316 C 0.73704 0.70196 0.01267
 C3317 C 0.74239 0.69644 0.02234
 C3318 C 0.73791 0.68591 0.02678
 H3319 H 0.69235 0.63948 0.03035
 H3320 H 0.68279 0.62301 0.03991
 H3321 H 0.70945 0.62337 0.06698
 H3322 H 0.71895 0.63983 0.05739
 H3323 H 0.71526 0.68211 0.00754
 H3324 H 0.72300 0.70048 -0.00014
 H3325 H 0.74983 0.70043 0.02673
 H3326 H 0.74207 0.68206 0.03441
 C3327 C 0.20763 0.61030 0.70659
 C3328 C 0.21220 0.61501 0.69613
 C3329 C 0.20652 0.62433 0.69045
 C3330 C 0.19615 0.62920 0.69509
 C3331 C 0.19169 0.62457 0.70564
 C3332 C 0.19736 0.61527 0.71131
 C3333 C 0.21334 0.60008 0.71238
 N3334 N 0.20870 0.59531 0.72228
 N3335 N 0.21357 0.58590 0.72726
 C3336 C 0.22331 0.58085 0.72256
 N3337 N 0.22800 0.58566 0.71270
 N3338 N 0.22312 0.59507 0.70773
 C3339 C 0.22841 0.57003 0.72779
 C3340 C 0.23825 0.56459 0.72266
 C3341 C 0.24255 0.55396 0.72705
 C3342 C 0.23712 0.54848 0.73670
 C3343 C 0.22754 0.55412 0.74209
 C3344 C 0.22324 0.56477 0.73769
 H3345 H 0.22013 0.61146 0.69227
 H3346 H 0.21031 0.62767 0.68241
 H3347 H 0.18374 0.62801 0.70951
 H3348 H 0.19359 0.61190 0.71936
 H3349 H 0.24249 0.56841 0.71506
 H3350 H 0.24994 0.54988 0.72267
 H3351 H 0.22313 0.55017 0.74952
 H3352 H 0.21569 0.56872 0.74191
 C3353 C 0.20594 0.10816 0.20540
 C3354 C 0.19556 0.11295 0.21006
 C3355 C 0.19014 0.12257 0.20470
 C3356 C 0.19497 0.12767 0.19455
 C3357 C 0.20529 0.12279 0.18982
 C3358 C 0.21071 0.11316 0.19518
 C3359 C 0.21174 0.09802 0.21115
 N3360 N 0.22167 0.09325 0.20658
 N3361 N 0.22682 0.08407 0.21169
 C3362 C 0.22227 0.07928 0.22162
 N3363 N 0.21236 0.08408 0.22621
 N3364 N 0.20721 0.09325 0.22110
 C3365 C 0.22774 0.06879 0.22706
 C3366 C 0.22279 0.06366 0.23713
 C3367 C 0.22739 0.05326 0.24175
 C3368 C 0.23706 0.04774 0.23640
 C3369 C 0.24230 0.05312 0.22660
 C3370 C 0.23769 0.06352 0.22199
 H3371 H 0.19160 0.10929 0.21789
 H3372 H 0.18218 0.12597 0.20859
 H3373 H 0.20931 0.12642 0.18203
 H3374 H 0.21867 0.10968 0.19132
 H3375 H 0.21515 0.06751 0.24131
 H3376 H 0.22313 0.04938 0.24930
 H3377 H 0.24975 0.04911 0.22225
 H3378 H 0.24177 0.06726 0.21426
 C3379 C 0.70704 1.10927 0.70601
 C3380 C 0.71154 1.11398 0.69553
 C3381 C 0.70584 1.12330 0.68991
 C3382 C 0.69551 1.12817 0.69464
 C3383 C 0.69106 1.12345 0.70515
 C3384 C 0.69675 1.11415 0.71076
 C3385 C 0.71290 1.09920 0.71185
 N3386 N 0.70845 1.09455 0.72189
 N3387 N 0.71349 1.08528 0.72694
 C3388 C 0.72321 1.08026 0.72218
 N3389 N 0.72773 1.08497 0.71220
 N3390 N 0.72269 1.09424 0.70715
 C3391 C 0.72846 1.06957 0.72747
 C3392 C 0.73820 1.06408 0.72221
 C3393 C 0.74260 1.05353 0.72667
 C3394 C 0.73735 1.04819 0.73648
 C3395 C 0.72785 1.05387 0.74197
 C3396 C 0.72347 1.06444 0.73752
 H3397 H 0.71945 1.11043 0.69162
 H3398 H 0.70957 1.12663 0.68184
 H3399 H 0.68316 1.12691 0.70912
 H3400 H 0.69303 1.11075 0.71882
 H3401 H 0.74227 1.06778 0.71446
 H3402 H 0.74990 1.04939 0.72219
 H3403 H 0.72355 1.04999 0.74951
 H3404 H 0.71598 1.06843 0.74182
 C3405 C 0.70727 0.60932 0.20617
 C3406 C 0.69690 0.61412 0.21084
 C3407 C 0.69124 0.62347 0.20525
 C3408 C 0.69581 0.62827 0.19483
 C3409 C 0.70620 0.62346 0.19017
 C3410 C 0.71185 0.61411 0.19577
 C3411 C 0.71315 0.59928 0.21201
 N3412 N 0.72301 0.59441 0.20738
 N3413 N 0.72809 0.58518 0.21245
 C3414 C 0.72354 0.58042 0.22240
 N3415 N 0.71374 0.58535 0.22708
 N3416 N 0.70865 0.59458 0.22201
 C3417 C 0.72881 0.56975 0.22769
 C3418 C 0.72374 0.56458 0.23769
 C3419 C 0.72809 0.55399 0.24211
 C3420 C 0.73762 0.54833 0.23666
 C3421 C 0.74296 0.55373 0.22693
 C3422 C 0.73860 0.56432 0.22250
 H3423 H 0.69310 0.61064 0.21883
 H3424 H 0.68329 0.62687 0.20915
 H3425 H 0.71003 0.62685 0.18218
 H3426 H 0.71981 0.61062 0.19190
 H3427 H 0.71621 0.56854 0.24194
 H3428 H 0.72374 0.55009 0.24961
 H3429 H 0.75029 0.54960 0.22248
 H3430 H 0.74275 0.56807 0.21482
 C3431 C 0.54326 0.14081 0.70569
 C3432 C 0.55365 0.13605 0.71033
 C3433 C 0.55920 0.12656 0.70486
 C3434 C 0.55451 0.12149 0.69457
 C3435 C 0.54409 0.12633 0.68993
 C3436 C 0.53856 0.13584 0.69542
 C3437 C 0.53743 0.15093 0.71149
 N3438 N 0.52756 0.15579 0.70685
 N3439 N 0.52246 0.16501 0.71195
 C3440 C 0.52698 0.16976 0.72193
 N3441 N 0.53680 0.16486 0.72660
 N3442 N 0.54191 0.15564 0.72150
 C3443 C 0.52162 0.18036 0.72731
 C3444 C 0.52661 0.18550 0.73738
 C3445 C 0.52216 0.19601 0.74191
 C3446 C 0.51260 0.20165 0.73649
 C3447 C 0.50731 0.19627 0.72670
 C3448 C 0.51176 0.18575 0.72217
 H3449 H 0.55755 0.13966 0.71822
 H3450 H 0.56717 0.12328 0.70883
 H3451 H 0.54010 0.12286 0.68205
 H3452 H 0.53056 0.13929 0.69159
 H3453 H 0.53416 0.18156 0.74161
 H3454 H 0.52646 0.19989 0.74946
 H3455 H 0.49994 0.20036 0.72229
 H3456 H 0.50765 0.18201 0.71446
 C3457 C 1.04285 0.14007 0.20688
 C3458 C 1.03834 0.13535 0.19640
 C3459 C 1.04403 0.12603 0.19077
 C3460 C 1.05437 0.12117 0.19548
 C3461 C 1.05885 0.12590 0.20598
 C3462 C 1.05316 0.13521 0.21161
 C3463 C 1.03696 0.15013 0.21271
 N3464 N 1.04142 0.15485 0.22272
 N3465 N 1.03635 0.16414 0.22773
 C3466 C 1.02660 0.16910 0.22297
 N3467 N 1.02208 0.16430 0.21302
 N3468 N 1.02714 0.15502 0.20800
 C3469 C 1.02137 0.17984 0.22817
 C3470 C 1.01162 0.18527 0.22288
 C3471 C 1.00726 0.19590 0.22723
 C3472 C 1.01254 0.20136 0.23698
 C3473 C 1.02205 0.19572 0.24250
 C3474 C 1.02640 0.18509 0.23815
 H3475 H 1.03041 0.13886 0.19250
 H3476 H 1.04026 0.12270 0.18272
 H3477 H 1.06676 0.12245 0.20994
 H3478 H 1.05688 0.13862 0.21967
 H3479 H 1.00751 0.18147 0.21519
 H3480 H 0.99996 0.20001 0.22272
 H3481 H 1.02638 0.19968 0.25000
 H3482 H 1.03391 0.18114 0.24246
 C3483 C 0.20557 0.64238 0.54479
 C3484 C 0.19523 0.63755 0.54009
 C3485 C 0.18981 0.62795 0.54546
 C3486 C 0.19458 0.62292 0.55569
 C3487 C 0.20493 0.62778 0.56038
 C3488 C 0.21036 0.63738 0.55500
 C3489 C 0.21126 0.65264 0.53913
 N3490 N 0.22117 0.65744 0.54373
 N3491 N 0.22616 0.66678 0.53876
 C3492 C 0.22145 0.67173 0.52898
 N3493 N 0.21157 0.66689 0.52435
 N3494 N 0.20659 0.65755 0.52932
 C3495 C 0.22676 0.68237 0.52369
 C3496 C 0.22164 0.68767 0.51378
 C3497 C 0.22626 0.69805 0.50917
 C3498 C 0.23614 0.70339 0.51433
 C3499 C 0.24140 0.69796 0.52409
 C3500 C 0.23678 0.68757 0.52871
 H3501 H 0.19129 0.64119 0.53224
 H3502 H 0.18187 0.62452 0.54154
 H3503 H 0.20892 0.62420 0.56821
 H3504 H 0.21831 0.64088 0.55887
 H3505 H 0.21392 0.68391 0.50969
 H3506 H 0.22192 0.70202 0.50169
 H3507 H 0.24896 0.70187 0.52836
 H3508 H 0.24094 0.68374 0.53635
 C3509 C 0.20604 0.14182 1.04446
 C3510 C 0.19573 0.13695 1.03973
 C3511 C 0.19022 0.12744 1.04518
 C3512 C 0.19489 0.12252 1.05551
 C3513 C 0.20521 0.12741 1.06024
 C3514 C 0.21071 0.13693 1.05478
 C3515 C 0.21179 0.15202 1.03876
 N3516 N 0.22163 0.15689 1.04345
 N3517 N 0.22663 0.16622 1.03849
 C3518 C 0.22203 0.17108 1.02862
 N3519 N 0.21224 0.16616 1.02389
 N3520 N 0.20724 0.15682 1.02885
 C3521 C 0.22731 0.18177 1.02337
 C3522 C 0.22228 0.18698 1.01337
 C3523 C 0.22684 0.19742 1.00881
 C3524 C 0.23657 0.20290 1.01412
 C3525 C 0.24174 0.19755 1.02397
 C3526 C 0.23718 0.18711 1.02853
 H3527 H 0.19187 0.14050 1.03179
 H3528 H 0.18231 0.12399 1.04123
 H3529 H 0.20911 0.12394 1.06816
 H3530 H 0.21864 0.14045 1.05868
 H3531 H 0.21466 0.18313 1.00917
 H3532 H 0.22256 0.20133 1.00127
 H3533 H 0.24917 0.20156 1.02836
 H3534 H 0.24126 0.18335 1.03625
 C3535 C 0.20569 0.70566 0.60817
 C3536 C 0.19570 0.71066 0.61342
 C3537 C 0.19036 0.70529 0.62307
 C3538 C 0.19486 0.69476 0.62771
 C3539 C 0.20484 0.68973 0.62244
 C3540 C 0.21020 0.69513 0.61281
 C3541 C 0.21130 0.71131 0.59785
 N3542 N 0.22101 0.70653 0.59281
 N3543 N 0.22594 0.71150 0.58344
 C3544 C 0.22139 0.72146 0.57870
 N3545 N 0.21171 0.72627 0.58377
 N3546 N 0.20678 0.72131 0.59314
 C3547 C 0.22670 0.72680 0.56806
 C3548 C 0.22174 0.73687 0.56291
 C3549 C 0.22640 0.74155 0.55257
 C3550 C 0.23616 0.73627 0.54711
 C3551 C 0.24128 0.72635 0.55242
 C3552 C 0.23661 0.72168 0.56276
 H3553 H 0.19195 0.71874 0.61007
 H3554 H 0.18262 0.70935 0.62680
 H3555 H 0.20861 0.68169 0.62581
 H3556 H 0.21789 0.69103 0.60900
 H3557 H 0.21410 0.74105 0.56675
 H3558 H 0.22218 0.74915 0.54871
 H3559 H 0.24876 0.72201 0.54844
 H3560 H 0.24067 0.71392 0.56647
 C3561 C 0.20517 0.20526 1.10774
 C3562 C 0.19482 0.20991 1.11261
 C3563 C 0.18943 0.20446 1.12219
 C3564 C 0.19424 0.19422 1.12716
 C3565 C 0.20458 0.18956 1.12225
 C3566 C 0.20997 0.19500 1.11267
 C3567 C 0.21085 0.21100 1.09753
 N3568 N 0.22081 0.20648 1.09275
 N3569 N 0.22581 0.21153 1.08346
 C3570 C 0.22107 0.22133 1.07856
 N3571 N 0.21114 0.22588 1.08337
 N3572 N 0.20615 0.22083 1.09266
 C3573 C 0.22641 0.22671 1.06797
 C3574 C 0.22127 0.23662 1.06269
 C3575 C 0.22592 0.24131 1.05236
 C3576 C 0.23585 0.23622 1.04706
 C3577 C 0.24115 0.22647 1.05249
 C3578 C 0.23650 0.22178 1.06282
 H3579 H 0.19086 0.21779 1.10904
 H3580 H 0.18152 0.20838 1.12569
 H3581 H 0.20855 0.18167 1.12574
 H3582 H 0.21791 0.19115 1.10913
 H3583 H 0.21350 0.24066 1.06641
 H3584 H 0.22155 0.24877 1.04839
 H3585 H 0.24877 0.22226 1.04862
 H3586 H 0.24070 0.21415 1.06665
 C3587 C 0.70681 0.54321 0.14050
 C3588 C 0.71148 0.55356 0.13566
 C3589 C 0.70586 0.55918 0.12630
 C3590 C 0.69542 0.55460 0.12152
 C3591 C 0.69080 0.54420 0.12634
 C3592 C 0.69642 0.53859 0.13570
 C3593 C 0.71263 0.53739 0.15060
 N3594 N 0.70800 0.52752 0.15544
 N3595 N 0.71305 0.52247 0.16470
 C3596 C 0.72295 0.52707 0.16953
 N3597 N 0.72762 0.53689 0.16463
 N3598 N 0.72258 0.54194 0.15536
 C3599 C 0.72821 0.52181 0.18022
 C3600 C 0.73815 0.52690 0.18549
 C3601 C 0.74254 0.52252 0.19608
 C3602 C 0.73711 0.51293 0.20165
 C3603 C 0.72741 0.50759 0.19617
 C3604 C 0.72302 0.51197 0.18558
 H3605 H 0.71948 0.55737 0.13911
 H3606 H 0.70976 0.56712 0.12287
 H3607 H 0.68282 0.54033 0.12294
 H3608 H 0.69257 0.53061 0.13918
 H3609 H 0.74240 0.53447 0.18160
 H3610 H 0.75000 0.52689 0.20007
 H3611 H 0.72296 0.50022 0.20022
 H3612 H 0.71537 0.50780 0.18176
 C3613 C 0.70643 1.04347 0.64095
 C3614 C 0.71111 1.05384 0.63617
 C3615 C 0.70548 1.05955 0.62688
 C3616 C 0.69503 1.05502 0.62209
 C3617 C 0.69036 1.04463 0.62688
 C3618 C 0.69599 1.03892 0.63617
 C3619 C 0.71227 1.03755 0.65097
 N3620 N 0.70759 1.02771 0.65582
 N3621 N 0.71265 1.02260 0.66505
 C3622 C 0.72263 1.02709 0.66981
 N3623 N 0.72736 1.03688 0.66490
 N3624 N 0.72230 1.04199 0.65568
 C3625 C 0.72793 1.02176 0.68045
 C3626 C 0.73800 1.02673 0.68560
 C3627 C 0.74246 1.02229 0.69614
 C3628 C 0.73696 1.01278 0.70178
 C3629 C 0.72717 1.00753 0.69638
 C3630 C 0.72270 1.01197 0.68585
 H3631 H 0.71913 1.05760 0.63963
 H3632 H 0.70939 1.06751 0.62350
 H3633 H 0.68233 1.04083 0.62351
 H3634 H 0.69212 1.03096 0.63963
 H3635 H 0.74229 1.03424 0.68166
 H3636 H 0.75003 1.02656 0.70002
 H3637 H 0.72269 1.00020 0.70048
 H3638 H 0.71496 1.00790 0.68211
 C3639 C 0.54353 0.20712 0.64068
 C3640 C 0.55396 0.21172 0.63595
 C3641 C 0.55961 0.20607 0.62663
 C3642 C 0.55497 0.19568 0.62178
 C3643 C 0.54453 0.19111 0.62652
 C3644 C 0.53888 0.19675 0.63584
 C3645 C 0.53765 0.21297 0.65072
 N3646 N 0.52765 0.20844 0.65539
 N3647 N 0.52255 0.21349 0.66462
 C3648 C 0.52722 0.22330 0.66958
 N3649 N 0.53716 0.22789 0.66485
 N3650 N 0.54226 0.22284 0.65561
 C3651 C 0.52192 0.22852 0.68027
 C3652 C 0.52710 0.23832 0.68572
 C3653 C 0.52270 0.24264 0.69633
 C3654 C 0.51298 0.23726 0.70174
 C3655 C 0.50754 0.22773 0.69606
 C3656 C 0.51195 0.22342 0.68545
 H3657 H 0.55781 0.21968 0.63947
 H3658 H 0.56761 0.20991 0.62327
 H3659 H 0.54063 0.18315 0.62309
 H3660 H 0.53087 0.19294 0.63927
 H3661 H 0.53477 0.24250 0.68196
 H3662 H 0.52714 0.24997 0.70046
 H3663 H 0.50006 0.22334 0.69998
 H3664 H 0.50770 0.21588 0.68148
 C3665 C 1.04361 0.20612 0.14108
 C3666 C 1.05405 0.21071 0.13638
 C3667 C 1.05968 0.20511 0.12702
 C3668 C 1.05501 0.19478 0.12208
 C3669 C 1.04454 0.19022 0.12677
 C3670 C 1.03891 0.19582 0.13614
 C3671 C 1.03776 0.21194 0.15118
 N3672 N 1.02781 0.20739 0.15592
 N3673 N 1.02274 0.21244 0.16518
 C3674 C 1.02738 0.22229 0.17008
 N3675 N 1.03728 0.22689 0.16529
 N3676 N 1.04236 0.22184 0.15603
 C3677 C 1.02206 0.22759 0.18074
 C3678 C 1.02716 0.23751 0.18606
 C3679 C 1.02270 0.24196 0.19659
 C3680 C 1.01303 0.23659 0.20208
 C3681 C 1.00767 0.22692 0.19654
 C3682 C 1.01213 0.22248 0.18600
 H3683 H 1.05794 0.21862 0.13996
 H3684 H 1.06772 0.20893 0.12372
 H3685 H 1.04061 0.18231 0.12325
 H3686 H 1.03087 0.19203 0.13953
 H3687 H 1.03479 0.24170 0.18223
 H3688 H 1.02707 0.24940 0.20061
 H3689 H 1.00022 0.22255 0.20051
 H3690 H 1.00794 0.21486 0.18214
 C3691 C 0.60880 0.20624 0.70630
 C3692 C 0.61367 0.21103 0.69603
 C3693 C 0.62316 0.20557 0.69048
 C3694 C 0.62803 0.19517 0.69506
 C3695 C 0.62309 0.19035 0.70529
 C3696 C 0.61360 0.19581 0.71084
 C3697 C 0.59869 0.21199 0.71216
 N3698 N 0.59383 0.20723 0.72195
 N3699 N 0.58459 0.21224 0.72708
 C3700 C 0.57982 0.22225 0.72265
 N3701 N 0.58474 0.22706 0.71291
 N3702 N 0.59398 0.22204 0.70778
 C3703 C 0.56919 0.22750 0.72802
 C3704 C 0.56402 0.23761 0.72316
 C3705 C 0.55351 0.24204 0.72767
 C3706 C 0.54789 0.23646 0.73714
 C3707 C 0.55329 0.22659 0.74227
 C3708 C 0.56381 0.22217 0.73776
 H3709 H 0.61015 0.21902 0.69225
 H3710 H 0.62661 0.20953 0.68258
 H3711 H 0.62656 0.18240 0.70915
 H3712 H 0.61005 0.19185 0.71872
 H3713 H 0.56794 0.24195 0.71567
 H3714 H 0.54961 0.24964 0.72348
 H3715 H 0.54921 0.22204 0.74955
 H3716 H 0.56756 0.21438 0.74174
 C3717 C 1.10870 0.20559 0.20636
 C3718 C 1.11354 0.21035 0.19606
 C3719 C 1.12302 0.20488 0.19050
 C3720 C 1.12791 0.19451 0.19510
 C3721 C 1.12302 0.18973 0.20538
 C3722 C 1.11354 0.19520 0.21094
 C3723 C 1.09860 0.21136 0.21222
 N3724 N 1.09379 0.20670 0.22209
 N3725 N 1.08457 0.21177 0.22721
 C3726 C 1.07978 0.22172 0.22271
 N3727 N 1.08463 0.22642 0.21289
 N3728 N 1.09385 0.22136 0.20776
 C3729 C 1.06918 0.22706 0.22809
 C3730 C 1.06399 0.23711 0.22311
 C3731 C 1.05351 0.24162 0.22762
 C3732 C 1.04796 0.23620 0.23723
 C3733 C 1.05338 0.22641 0.24247
 C3734 C 1.06387 0.22190 0.23795
 H3735 H 1.11002 0.21834 0.19228
 H3736 H 1.12654 0.20890 0.18266
 H3737 H 1.12645 0.18172 0.20917
 H3738 H 1.11002 0.19125 0.21884
 H3739 H 1.06786 0.24134 0.21553
 H3740 H 1.04958 0.24915 0.22334
 H3741 H 1.04934 0.22198 0.24985
 H3742 H 1.06764 0.21418 0.24203
 C3743 C 0.14227 0.70548 0.54419
 C3744 C 0.13738 0.71024 0.55448
 C3745 C 0.12780 0.70484 0.55992
 C3746 C 0.12284 0.69453 0.55522
 C3747 C 0.12775 0.68978 0.54492
 C3748 C 0.13733 0.69518 0.53948
 C3749 C 0.15250 0.71115 0.53848
 N3750 N 0.15736 0.70647 0.52864
 N3751 N 0.16669 0.71145 0.52364
 C3752 C 0.17156 0.72133 0.52826
 N3753 N 0.16665 0.72604 0.53806
 N3754 N 0.15733 0.72107 0.54306
 C3755 C 0.18221 0.72662 0.52296
 C3756 C 0.18740 0.73665 0.52798
 C3757 C 0.19781 0.74125 0.52341
 C3758 C 0.20328 0.73595 0.51368
 C3759 C 0.19794 0.72609 0.50848
 C3760 C 0.18752 0.72149 0.51306
 H3761 H 0.14096 0.71815 0.55837
 H3762 H 0.12433 0.70881 0.56781
 H3763 H 0.12424 0.68188 0.54098
 H3764 H 0.14087 0.69126 0.53157
 H3765 H 0.18355 0.74084 0.53560
 H3766 H 0.20170 0.74881 0.52768
 H3767 H 0.20194 0.72172 0.50104
 H3768 H 0.18377 0.71376 0.50897
 C3769 C 0.14242 0.20493 1.04472
 C3770 C 0.13742 0.19470 1.03993
 C3771 C 0.12780 0.18932 1.04532
 C3772 C 0.12291 0.19404 1.05565
 C3773 C 0.12793 0.20427 1.06043
 C3774 C 0.13755 0.20965 1.05503
 C3775 C 0.15270 0.21058 1.03906
 N3776 N 0.15757 0.22044 1.04371
 N3777 N 0.16693 0.22540 1.03876
 C3778 C 0.17182 0.22073 1.02892
 N3779 N 0.16692 0.21091 1.02424
 N3780 N 0.15756 0.20594 1.02919
 C3781 C 0.18246 0.22606 1.02363
 C3782 C 0.18773 0.22100 1.01367
 C3783 C 0.19809 0.22568 1.00904
 C3784 C 0.20343 0.23554 1.01425
 C3785 C 0.19802 0.24073 1.02408
 C3786 C 0.18767 0.23605 1.02870
 H3787 H 0.14095 0.19080 1.03200
 H3788 H 0.12424 0.18147 1.04133
 H3789 H 0.12449 0.20821 1.06836
 H3790 H 0.14118 0.21751 1.05899
 H3791 H 0.18397 0.21330 1.00954
 H3792 H 0.20205 0.22140 1.00152
 H3793 H 0.20192 0.24828 1.02838
 H3794 H 0.18386 0.24017 1.03638
 C3795 C 0.64076 0.54393 0.20670
 C3796 C 0.63558 0.53893 0.19667
 C3797 C 0.62609 0.54442 0.19113
 C3798 C 0.62155 0.55506 0.19547
 C3799 C 0.62672 0.56007 0.20551
 C3800 C 0.63619 0.55455 0.21107
 C3801 C 0.65097 0.53820 0.21244
 N3802 N 0.65603 0.54302 0.22213
 N3803 N 0.66538 0.53803 0.22710
 C3804 C 0.67008 0.52801 0.22262
 N3805 N 0.66498 0.52316 0.21298
 N3806 N 0.65563 0.52814 0.20801
 C3807 C 0.68081 0.52275 0.22785
 C3808 C 0.68598 0.51268 0.22286
 C3809 C 0.69652 0.50820 0.22730
 C3810 C 0.70215 0.51366 0.23685
 C3811 C 0.69678 0.52351 0.24207
 C3812 C 0.68625 0.52799 0.23763
 H3813 H 0.63887 0.53077 0.19303
 H3814 H 0.62242 0.54035 0.18337
 H3815 H 0.62339 0.56818 0.20918
 H3816 H 0.63993 0.55865 0.21880
 H3817 H 0.68203 0.50840 0.21534
 H3818 H 0.70040 0.50063 0.22303
 H3819 H 0.70088 0.52798 0.24940
 H3820 H 0.68252 0.53573 0.24171
 C3821 C 0.64069 1.04365 0.70660
 C3822 C 0.63585 1.03892 0.69628
 C3823 C 0.62645 1.04447 0.69066
 C3824 C 0.62162 1.05491 0.69522
 C3825 C 0.62646 1.05961 0.70558
 C3826 C 0.63586 1.05406 0.71119
 C3827 C 0.65081 1.03787 0.71243
 N3828 N 0.65567 1.04254 0.72228
 N3829 N 0.66497 1.03753 0.72732
 C3830 C 0.66981 1.02762 0.72273
 N3831 N 0.66489 1.02290 0.71294
 N3832 N 0.65559 1.02791 0.70790
 C3833 C 0.68052 1.02237 0.72799
 C3834 C 0.68578 1.01241 0.72291
 C3835 C 0.69635 1.00799 0.72732
 C3836 C 0.70192 1.01342 0.73692
 C3837 C 0.69646 1.02316 0.74223
 C3838 C 0.68589 1.02758 0.73782
 H3839 H 0.63935 1.03093 0.69247
 H3840 H 0.62302 1.04052 0.68273
 H3841 H 0.62304 1.06760 0.70941
 H3842 H 0.63938 1.05797 0.71912
 H3843 H 0.68188 1.00816 0.71534
 H3844 H 0.70032 1.00051 0.72296
 H3845 H 0.70052 1.02761 0.74960
 H3846 H 0.68209 1.03526 0.74195
 C3847 C 0.85755 0.45537 0.29554
 C3848 C 0.86236 0.44500 0.29084
 C3849 C 0.87194 0.43955 0.29622
 C3850 C 0.87701 0.44431 0.30645
 C3851 C 0.87218 0.45468 0.31115
 C3852 C 0.86258 0.46014 0.30576
 C3853 C 0.84733 0.46111 0.28984
 N3854 N 0.84252 0.47103 0.29444
 N3855 N 0.83325 0.47608 0.28939
 C3856 C 0.82840 0.47145 0.27952
 N3857 N 0.83323 0.46155 0.27491
 N3858 N 0.84249 0.45649 0.27995
 C3859 C 0.81786 0.47687 0.27408
 C3860 C 0.81273 0.47187 0.26402
 C3861 C 0.80244 0.47658 0.25926
 C3862 C 0.79703 0.48642 0.26443
 C3863 C 0.80234 0.49160 0.27432
 C3864 C 0.81263 0.48688 0.27908
 H3865 H 0.85871 0.44106 0.28299
 H3866 H 0.87534 0.43159 0.29230
 H3867 H 0.87577 0.45865 0.31899
 H3868 H 0.85910 0.46811 0.30963
 H3869 H 0.81652 0.46416 0.25992
 H3870 H 0.79859 0.47232 0.25167
 H3871 H 0.79839 0.49914 0.27858
 H3872 H 0.81634 0.49097 0.28682
 C3873 C 0.85734 0.95518 0.79574
 C3874 C 0.86221 0.94485 0.79104
 C3875 C 0.87190 0.93951 0.79636
 C3876 C 0.87698 0.94437 0.80652
 C3877 C 0.87206 0.95468 0.81126
 C3878 C 0.86237 0.96002 0.80593
 C3879 C 0.84706 0.96082 0.79008
 N3880 N 0.84227 0.97078 0.79460
 N3881 N 0.83296 0.97577 0.78956
 C3882 C 0.82805 0.97102 0.77977
 N3883 N 0.83286 0.96108 0.77523
 N3884 N 0.84217 0.95610 0.78027
 C3885 C 0.81750 0.97639 0.77433
 C3886 C 0.81228 0.97125 0.76438
 C3887 C 0.80202 0.97596 0.75958
 C3888 C 0.79671 0.98593 0.76461
 C3889 C 0.80207 0.99122 0.77440
 C3890 C 0.81235 0.98651 0.77920
 H3891 H 0.85857 0.94087 0.78320
 H3892 H 0.87541 0.93163 0.79238
 H3893 H 0.87563 0.95868 0.81909
 H3894 H 0.85883 0.96796 0.80981
 H3895 H 0.81601 0.96345 0.76039
 H3896 H 0.79810 0.97160 0.75208
 H3897 H 0.79820 0.99886 0.77856
 H3898 H 0.81613 0.99069 0.78686
 C3899 C 0.39223 0.29464 0.79492
 C3900 C 0.38735 0.28997 0.80524
 C3901 C 0.37773 0.29538 0.81061
 C3902 C 0.37271 0.30561 0.80580
 C3903 C 0.37763 0.31029 0.79549
 C3904 C 0.38726 0.30487 0.79012
 C3905 C 0.40248 0.28892 0.78927
 N3906 N 0.40728 0.29343 0.77933
 N3907 N 0.41657 0.28836 0.77434
 C3908 C 0.42146 0.27855 0.77906
 N3909 N 0.41664 0.27401 0.78897
 N3910 N 0.40734 0.27908 0.79396
 C3911 C 0.43203 0.27312 0.77372
 C3912 C 0.43729 0.26319 0.77885
 C3913 C 0.44762 0.25846 0.77420
 C3914 C 0.45293 0.26354 0.76428
 C3915 C 0.44751 0.27330 0.75898
 C3916 C 0.43718 0.27802 0.76363
 H3917 H 0.39095 0.28211 0.80920
 H3918 H 0.37426 0.29147 0.81852
 H3919 H 0.37409 0.31814 0.79149
 H3920 H 0.39081 0.30873 0.78219
 H3921 H 0.43356 0.25918 0.78662
 H3922 H 0.45158 0.25100 0.77856
 H3923 H 0.45138 0.27748 0.75137
 H3924 H 0.43337 0.28566 0.75944
 C3925 C 0.89223 0.29444 0.29519
 C3926 C 0.88755 0.30491 0.29061
 C3927 C 0.87792 0.31032 0.29593
 C3928 C 0.87268 0.30542 0.30598
 C3929 C 0.87738 0.29495 0.31057
 C3930 C 0.88703 0.28953 0.30524
 C3931 C 0.90251 0.28875 0.28956
 N3932 N 0.90723 0.27877 0.29408
 N3933 N 0.91656 0.27376 0.28910
 C3934 C 0.92156 0.27851 0.27937
 N3935 N 0.91680 0.28847 0.27483
 N3936 N 0.90748 0.29347 0.27981
 C3937 C 0.93216 0.27316 0.27402
 C3938 C 0.93741 0.27827 0.26409
 C3939 C 0.94775 0.27361 0.25941
 C3940 C 0.95310 0.26372 0.26453
 C3941 C 0.94770 0.25845 0.27430
 C3942 C 0.93735 0.26311 0.27899
 H3943 H 0.89134 0.30895 0.28289
 H3944 H 0.87462 0.31836 0.29209
 H3945 H 0.87365 0.29087 0.31828
 H3946 H 0.89041 0.28148 0.30903
 H3947 H 0.93366 0.28601 0.26003
 H3948 H 0.95169 0.27795 0.25192
 H3949 H 0.95161 0.25087 0.27853
 H3950 H 0.93355 0.25895 0.28664
 C3951 C 0.35910 0.79397 0.45619
 C3952 C 0.36384 0.78943 0.44573
 C3953 C 0.37319 0.79508 0.44014
 C3954 C 0.37807 0.80542 0.44485
 C3955 C 0.37333 0.80992 0.45534
 C3956 C 0.36398 0.80427 0.46093
 C3957 C 0.34902 0.78809 0.46200
 N3958 N 0.34432 0.79255 0.47203
 N3959 N 0.33510 0.78744 0.47710
 C3960 C 0.33019 0.77764 0.47238
 N3961 N 0.33492 0.77314 0.46239
 N3962 N 0.34414 0.77825 0.45732
 C3963 C 0.31959 0.77226 0.47772
 C3964 C 0.31423 0.76241 0.47253
 C3965 C 0.30374 0.75790 0.47702
 C3966 C 0.29834 0.76313 0.48684
 C3967 C 0.30394 0.77271 0.49230
 C3968 C 0.31444 0.77721 0.48780
 H3969 H 0.36030 0.78151 0.44182
 H3970 H 0.37655 0.79128 0.43211
 H3971 H 0.37681 0.81783 0.45932
 H3972 H 0.36056 0.80802 0.46897
 H3973 H 0.31798 0.75833 0.46479
 H3974 H 0.29968 0.75053 0.47257
 H3975 H 0.30004 0.77697 0.49985
 H3976 H 0.31835 0.78476 0.49206
 C3977 C 0.35903 0.29405 0.95657
 C3978 C 0.36378 0.28944 0.94615
 C3979 C 0.37315 0.29504 0.94055
 C3980 C 0.37806 0.30537 0.94524
 C3981 C 0.37328 0.30999 0.95566
 C3982 C 0.36390 0.30439 0.96126
 C3983 C 0.34899 0.28815 0.96241
 N3984 N 0.34423 0.29264 0.97238
 N3985 N 0.33502 0.28749 0.97744
 C3986 C 0.33019 0.27763 0.97275
 N3987 N 0.33501 0.27310 0.96281
 N3988 N 0.34421 0.27824 0.95776
 C3989 C 0.31958 0.27224 0.97803
 C3990 C 0.31426 0.26237 0.97283
 C3991 C 0.30374 0.25787 0.97726
 C3992 C 0.29829 0.26311 0.98703
 C3993 C 0.30382 0.27273 0.99248
 C3994 C 0.31434 0.27723 0.98804
 H3995 H 0.36027 0.28149 0.94229
 H3996 H 0.37651 0.29117 0.93256
 H3997 H 0.37676 0.31792 0.95957
 H3998 H 0.36047 0.30818 0.96928
 H3999 H 0.31807 0.25827 0.96514
 H4000 H 0.29971 0.25049 0.97279
 H4001 H 0.29986 0.27704 0.99998
 H4002 H 0.31821 0.28481 0.99231
 C4003 C 0.79480 0.45505 0.35750
 C4004 C 0.80516 0.45973 0.36233
 C4005 C 0.81058 0.45432 0.37191
 C4006 C 0.80579 0.44409 0.37693
 C4007 C 0.79545 0.43941 0.37206
 C4008 C 0.79002 0.44482 0.36247
 C4009 C 0.78908 0.46078 0.34729
 N4010 N 0.77915 0.45622 0.34250
 N4011 N 0.77414 0.46124 0.33320
 C4012 C 0.77885 0.47104 0.32829
 N4013 N 0.78874 0.47564 0.33313
 N4014 N 0.79374 0.47062 0.34243
 C4015 C 0.77354 0.47639 0.31766
 C4016 C 0.77866 0.48632 0.31241
 C4017 C 0.77404 0.49099 0.30205
 C4018 C 0.76416 0.48586 0.29669
 C4019 C 0.75888 0.47608 0.30208
 C4020 C 0.76351 0.47141 0.31244
 H4021 H 0.80910 0.46759 0.35873
 H4022 H 0.81852 0.45823 0.37535
 H4023 H 0.79145 0.43157 0.37562
 H4024 H 0.78206 0.44096 0.35897
 H4025 H 0.78640 0.49038 0.31617
 H4026 H 0.77839 0.49847 0.29811
 H4027 H 0.75132 0.47184 0.29815
 H4028 H 0.75934 0.46375 0.31624
 C4029 C 0.79459 0.95536 0.85761
 C4030 C 0.78993 0.94502 0.86247
 C4031 C 0.79548 0.93951 0.87193
 C4032 C 0.80582 0.94421 0.87680
 C4033 C 0.81047 0.95456 0.87191
 C4034 C 0.80493 0.96006 0.86245
 C4035 C 0.78879 0.96113 0.84748
 N4036 N 0.79335 0.97105 0.84268
 N4037 N 0.78827 0.97611 0.83344
 C4038 C 0.77840 0.97147 0.82860
 N4039 N 0.77380 0.96158 0.83344
 N4040 N 0.77888 0.95652 0.84268
 C4041 C 0.77301 0.97685 0.81804
 C4042 C 0.76303 0.97181 0.81280
 C4043 C 0.75838 0.97646 0.80244
 C4044 C 0.76361 0.98628 0.79707
 C4045 C 0.77340 0.99151 0.80248
 C4046 C 0.77804 0.98686 0.81284
 H4047 H 0.78200 0.94113 0.85895
 H4048 H 0.79158 0.93157 0.87538
 H4049 H 0.81841 0.95849 0.87535
 H4050 H 0.80878 0.96801 0.85891
 H4051 H 0.75892 0.96410 0.81656
 H4052 H 0.75087 0.97217 0.79849
 H4053 H 0.77770 0.99905 0.79858
 H4054 H 0.78573 0.99098 0.81664
 C4055 C 0.29395 0.79428 0.39143
 C4056 C 0.30426 0.78952 0.38659
 C4057 C 0.30982 0.79499 0.37713
 C4058 C 0.30522 0.80537 0.37225
 C4059 C 0.29492 0.81014 0.37712
 C4060 C 0.28935 0.80467 0.38659
 C4061 C 0.28811 0.78851 0.40154
 N4062 N 0.27826 0.79318 0.40639
 N4063 N 0.27317 0.78813 0.41562
 C4064 C 0.27769 0.77817 0.42039
 N4065 N 0.28750 0.77346 0.41550
 N4066 N 0.29259 0.77851 0.40627
 C4067 C 0.27234 0.77282 0.43099
 C4068 C 0.27732 0.76275 0.43614
 C4069 C 0.27280 0.75821 0.44659
 C4070 C 0.26319 0.76362 0.45217
 C4071 C 0.25795 0.77343 0.44680
 C4072 C 0.26247 0.77798 0.43634
 H4073 H 0.30806 0.78154 0.39010
 H4074 H 0.31769 0.79098 0.37362
 H4075 H 0.29112 0.81815 0.37370
 H4076 H 0.28145 0.80861 0.39012
 H4077 H 0.28490 0.75852 0.43225
 H4078 H 0.27708 0.75065 0.45048
 H4079 H 0.25056 0.77785 0.45085
 H4080 H 0.25839 0.78572 0.43260
 C4081 C 0.29339 0.29382 0.89114
 C4082 C 0.28880 0.30425 0.88639
 C4083 C 0.29443 0.30987 0.87704
 C4084 C 0.30480 0.30519 0.87220
 C4085 C 0.30936 0.29474 0.87696
 C4086 C 0.30372 0.28913 0.88630
 C4087 C 0.28754 0.28798 0.90121
 N4088 N 0.29205 0.27799 0.90593
 N4089 N 0.28700 0.27294 0.91518
 C4090 C 0.27719 0.27764 0.92011
 N4091 N 0.27263 0.28758 0.91532
 N4092 N 0.27768 0.29263 0.90607
 C4093 C 0.27193 0.27237 0.93079
 C4094 C 0.26211 0.27757 0.93617
 C4095 C 0.25771 0.27315 0.94673
 C4096 C 0.26301 0.26340 0.95217
 C4097 C 0.27259 0.25796 0.94657
 C4098 C 0.27699 0.26239 0.93601
 H4099 H 0.28086 0.30813 0.88990
 H4100 H 0.29060 0.31788 0.87368
 H4101 H 0.31729 0.29081 0.87353
 H4102 H 0.30752 0.28111 0.88975
 H4103 H 0.25796 0.28525 0.93238
 H4104 H 0.25035 0.27761 0.95080
 H4105 H 0.27694 0.25047 0.95051
 H4106 H 0.28454 0.25813 0.93210
 C4107 C 0.45530 0.29497 0.85771
 C4108 C 0.44495 0.29032 0.86257
 C4109 C 0.43955 0.29577 0.87215
 C4110 C 0.44437 0.30600 0.87716
 C4111 C 0.45474 0.31062 0.87231
 C4112 C 0.46014 0.30517 0.86271
 C4113 C 0.46093 0.28926 0.84744
 N4114 N 0.47086 0.29379 0.84263
 N4115 N 0.47581 0.28877 0.83329
 C4116 C 0.47103 0.27900 0.82834
 N4117 N 0.46112 0.27446 0.83318
 N4118 N 0.45618 0.27947 0.84252
 C4119 C 0.47634 0.27360 0.81774
 C4120 C 0.47117 0.26369 0.81246
 C4121 C 0.47582 0.25896 0.80213
 C4122 C 0.48576 0.26400 0.79683
 C4123 C 0.49110 0.27374 0.80227
 C4124 C 0.48645 0.27847 0.81260
 H4125 H 0.44097 0.28248 0.85894
 H4126 H 0.43160 0.29190 0.87558
 H4127 H 0.45877 0.31845 0.87587
 H4128 H 0.46811 0.30900 0.85920
 H4129 H 0.46338 0.25970 0.81618
 H4130 H 0.47144 0.25149 0.79817
 H4131 H 0.49874 0.27789 0.79842
 H4132 H 0.49067 0.28609 0.81643
 C4133 C 0.95573 0.29459 0.35806
 C4134 C 0.96055 0.30480 0.36307
 C4135 C 0.95512 0.31025 0.37264
 C4136 C 0.94472 0.30564 0.37745
 C4137 C 0.93991 0.29542 0.37242
 C4138 C 0.94534 0.28997 0.36286
 C4139 C 0.96142 0.28886 0.34784
 N4140 N 0.95675 0.27902 0.34297
 N4141 N 0.96174 0.27398 0.33366
 C4142 C 0.97163 0.27857 0.32882
 N4143 N 0.97633 0.28839 0.33372
 N4144 N 0.97134 0.29342 0.34303
 C4145 C 0.97695 0.27319 0.31822
 C4146 C 0.98693 0.27820 0.31296
 C4147 C 0.99153 0.27353 0.30258
 C4148 C 0.98626 0.26371 0.29721
 C4149 C 0.97646 0.25852 0.30264
 C4150 C 0.97187 0.26320 0.31301
 H4151 H 0.96854 0.30861 0.35960
 H4152 H 0.95914 0.31807 0.37622
 H4153 H 0.93193 0.29156 0.37581
 H4154 H 0.94136 0.28213 0.35921
 H4155 H 0.99107 0.28589 0.31673
 H4156 H 0.99905 0.27780 0.29863
 H4157 H 0.97214 0.25100 0.29873
 H4158 H 0.96418 0.25910 0.31682
 C4159 C 0.45510 0.35761 0.79468
 C4160 C 0.45978 0.36246 0.80503
 C4161 C 0.45427 0.37194 0.81055
 C4162 C 0.44393 0.37685 0.80587
 C4163 C 0.43929 0.37201 0.79549
 C4164 C 0.44481 0.36252 0.78997
 C4165 C 0.46084 0.34742 0.78893
 N4166 N 0.45626 0.34262 0.77901
 N4167 N 0.46129 0.33333 0.77397
 C4168 C 0.47113 0.32844 0.77863
 N4169 N 0.47574 0.33327 0.78852
 N4170 N 0.47071 0.34256 0.79356
 C4171 C 0.47651 0.31786 0.77325
 C4172 C 0.48647 0.31261 0.77831
 C4173 C 0.49111 0.30223 0.77367
 C4174 C 0.48591 0.29684 0.76385
 C4175 C 0.47615 0.30229 0.75857
 C4176 C 0.47151 0.31267 0.76321
 H4177 H 0.46770 0.35890 0.80891
 H4178 H 0.45817 0.37537 0.81850
 H4179 H 0.43138 0.37549 0.79155
 H4180 H 0.44095 0.35901 0.78201
 H4181 H 0.49057 0.31638 0.78603
 H4182 H 0.49862 0.29828 0.77798
 H4183 H 0.47190 0.29839 0.75100
 H4184 H 0.46386 0.31650 0.75906
 C4185 C 0.95475 0.35721 0.29507
 C4186 C 0.95949 0.36205 0.30539
 C4187 C 0.95409 0.37163 0.31087
 C4188 C 0.94381 0.37662 0.30618
 C4189 C 0.93906 0.37173 0.29587
 C4190 C 0.94446 0.36216 0.29039
 C4191 C 0.96045 0.34701 0.28928
 N4192 N 0.95578 0.34217 0.27942
 N4193 N 0.96079 0.33289 0.27434
 C4194 C 0.97070 0.32805 0.27889
 N4195 N 0.97540 0.33292 0.28871
 N4196 N 0.97039 0.34220 0.29380
 C4197 C 0.97605 0.31746 0.27347
 C4198 C 0.98614 0.31231 0.27838
 C4199 C 0.99082 0.30197 0.27367
 C4200 C 0.98552 0.29652 0.26392
 C4201 C 0.97558 0.30182 0.25885
 C4202 C 0.97091 0.31217 0.26356
 H4203 H 0.96739 0.35845 0.30927
 H4204 H 0.95804 0.37506 0.31879
 H4205 H 0.93116 0.37526 0.29195
 H4206 H 0.94054 0.35864 0.28246
 H4207 H 0.99034 0.31614 0.28601
 H4208 H 0.99843 0.29811 0.27787
 H4209 H 0.97121 0.29784 0.25140
 H4210 H 0.96313 0.31589 0.25955
 C4211 C 0.29425 0.85915 0.45667
 C4212 C 0.30467 0.86394 0.46123
 C4213 C 0.31028 0.87326 0.45555
 C4214 C 0.30561 0.87805 0.44516
 C4215 C 0.29517 0.87324 0.44062
 C4216 C 0.28956 0.86392 0.44630
 C4217 C 0.28840 0.84912 0.46258
 N4218 N 0.27839 0.84440 0.45811
 N4219 N 0.27331 0.83520 0.46324
 C4220 C 0.27800 0.83032 0.47306
 N4221 N 0.28796 0.83510 0.47758
 N4222 N 0.29305 0.84430 0.47245
 C4223 C 0.27266 0.81972 0.47842
 C4224 C 0.27785 0.81434 0.48825
 C4225 C 0.27336 0.80383 0.49272
 C4226 C 0.26356 0.79844 0.48748
 C4227 C 0.25811 0.80404 0.47791
 C4228 C 0.26261 0.81455 0.47344
 H4229 H 0.30854 0.86048 0.46919
 H4230 H 0.31828 0.87666 0.45936
 H4231 H 0.29126 0.87663 0.43266
 H4232 H 0.28155 0.86045 0.44252
 H4233 H 0.28558 0.81809 0.49233
 H4234 H 0.27781 0.79975 0.50007
 H4235 H 0.25057 0.80014 0.47362
 H4236 H 0.25835 0.81846 0.46589
 C4237 C 0.29404 0.35891 0.95655
 C4238 C 0.30442 0.36376 0.96115
 C4239 C 0.30996 0.37317 0.95554
 C4240 C 0.30527 0.37799 0.94518
 C4241 C 0.29489 0.37310 0.94058
 C4242 C 0.28935 0.36369 0.94619
 C4243 C 0.28823 0.34884 0.96244
 N4244 N 0.27827 0.34407 0.95794
 N4245 N 0.27321 0.33484 0.96306
 C4246 C 0.27788 0.33000 0.97291
 N4247 N 0.28780 0.33484 0.97746
 N4248 N 0.29286 0.34406 0.97235
 C4249 C 0.27257 0.31937 0.97825
 C4250 C 0.27772 0.31405 0.98813
 C4251 C 0.27322 0.30355 0.99262
 C4252 C 0.26346 0.29811 0.98735
 C4253 C 0.25809 0.30364 0.97769
 C4254 C 0.26259 0.31414 0.97321
 H4255 H 0.30831 0.36028 0.96910
 H4256 H 0.31792 0.37661 0.95940
 H4257 H 0.29097 0.37649 0.93263
 H4258 H 0.28139 0.36016 0.94237
 H4259 H 0.28542 0.31784 0.99225
 H4260 H 0.27764 0.29951 1.00002
 H4261 H 0.25060 0.29968 0.97336
 H4262 H 0.25839 0.31798 0.96560
 C4263 C 0.79480 0.39234 0.29451
 C4264 C 0.79004 0.38747 0.30479
 C4265 C 0.79547 0.37793 0.31029
 C4266 C 0.80580 0.37300 0.30564
 C4267 C 0.81056 0.37790 0.29535
 C4268 C 0.80513 0.38744 0.28986
 C4269 C 0.78909 0.40253 0.28875
 N4270 N 0.79375 0.40736 0.27890
 N4271 N 0.78874 0.41665 0.27385
 C4272 C 0.77884 0.42150 0.27843
 N4273 N 0.77415 0.41663 0.28825
 N4274 N 0.77916 0.40734 0.29330
 C4275 C 0.77350 0.43210 0.27307
 C4276 C 0.76348 0.43731 0.27806
 C4277 C 0.75885 0.44769 0.27342
 C4278 C 0.76412 0.45311 0.26367
 C4279 C 0.77398 0.44775 0.25850
 C4280 C 0.77861 0.43736 0.26314
 H4281 H 0.78210 0.39103 0.30864
 H4282 H 0.79150 0.37448 0.31818
 H4283 H 0.81849 0.37441 0.29146
 H4284 H 0.80906 0.39097 0.28196
 H4285 H 0.75931 0.43350 0.28570
 H4286 H 0.75129 0.45160 0.27767
 H4287 H 0.77832 0.45171 0.25103
 H4288 H 0.78634 0.43360 0.25907
   
