data_POSCAR
  _audit_creation_date              2014-09-24
  _audit_creation_method            'ToBaCCo'
  _symmetry_space_group_name_H-M    'P1'
  _symmetry_Int_Tables_number       1
  _symmetry_cell_setting            triclinic
  loop_
  _symmetry_equiv_pos_as_xyz
 x,y,z
_cell_length_a 45.8318
_cell_length_b 46.0515
_cell_length_c 41.0523
_cell_angle_alpha 89.718100
_cell_angle_beta 89.820200
_cell_angle_gamma 88.453400
loop_
  _atom_site_label
  _atom_site_type_symbol
  _atom_site_fract_x
  _atom_site_fract_y
  _atom_site_fract_z
C1 C 0.36008 -0.00734 0.25129
 C2 C 0.14004 -0.00091 0.74226
 C3 C 0.64332 0.50463 0.24627
 C4 C 0.85771 0.50067 0.75346
 C5 C 0.25634 0.38972 1.00309
 C6 C 0.74526 0.11146 0.99945
 C7 C 0.24898 0.60720 0.49752
 C8 C 0.74725 0.89182 0.49908
 C9 C 0.00715 0.25222 0.37495
 C10 C 0.00399 0.75331 0.12191
 C11 C 0.49670 0.25086 0.62286
 C12 C 0.49382 0.75091 0.87386
 C13 C -0.24983 0.60842 1.00387
 C14 C -0.24571 0.39142 0.49899
 C15 C 0.25039 -0.11048 -0.00192
 C16 C 0.24167 1.10669 0.50315
 C17 C 0.14362 0.49770 0.25315
 C18 C -0.14452 0.99935 0.24787
 C19 C 0.35559 0.49354 -0.25181
 C20 C 0.63548 0.00648 -0.24886
 C21 C -0.00331 0.25430 0.87860
 C22 C 0.50779 0.25089 0.12600
 C23 C -0.00672 0.75033 0.62617
 C24 C 0.50363 0.75032 0.37668
 B25 B -0.01710 0.01997 1.02915
 B26 B -0.03334 0.01440 0.99356
 B27 B -0.00677 0.03827 0.99621
 B28 B 0.01860 0.02557 1.02282
 B29 B 0.00687 -0.00736 1.03642
 B30 B -0.02580 -0.01395 1.01828
 B31 B 0.01548 -0.01092 0.97079
 B32 B 0.03172 -0.00547 1.00642
 B33 B 0.00503 -0.02932 1.00378
 B34 B -0.02022 -0.01656 0.97716
 B35 B -0.00852 0.01637 0.96359
 B36 B 0.02414 0.02300 0.98173
 B37 B 0.48264 0.51589 0.52802
 B38 B 0.46752 0.50856 0.49219
 B39 B 0.49273 0.53397 0.49472
 B40 B 0.51810 0.52323 0.52235
 B41 B 0.50791 0.49001 0.53672
 B42 B 0.47607 0.48123 0.51801
 B43 B 0.51807 0.48527 0.47147
 B44 B 0.53327 0.49252 0.50727
 B45 B 0.50798 0.46713 0.50477
 B46 B 0.48266 0.47790 0.47716
 B47 B 0.49284 0.51111 0.46282
 B48 B 0.52465 0.51991 0.48151
 B49 B 0.51099 0.98297 0.53138
 B50 B 0.52711 0.99036 0.49600
 B51 B 0.50089 0.96596 0.49760
 B52 B 0.47540 0.97714 0.52490
 B53 B 0.48663 1.00963 0.53997
 B54 B 0.51919 1.01751 0.52203
 B55 B 0.47807 1.01609 0.47465
 B56 B 0.46189 1.00870 0.51000
 B57 B 0.48815 1.03309 0.50839
 B58 B 0.51363 1.02188 0.48113
 B59 B 0.50239 0.98944 0.46606
 B60 B 0.46984 0.98154 0.48397
 B61 B 0.02180 0.48702 1.02805
 B62 B 0.03756 0.49370 0.99215
 B63 B 0.01119 0.46947 0.99487
 B64 B -0.01391 0.48119 1.02229
 B65 B -0.00243 0.51386 1.03641
 B66 B 0.02995 0.52131 1.01772
 B67 B -0.01197 0.51917 0.97111
 B68 B -0.02769 0.51246 1.00696
 B69 B -0.00130 0.53673 1.00429
 B70 B 0.02378 0.52500 0.97681
 B71 B 0.01228 0.49232 0.96270
 B72 B -0.02004 0.48484 0.98142
 B73 B 0.01988 0.51558 0.47715
 B74 B 0.03564 0.50752 0.51279
 B75 B 0.00887 0.53280 0.51085
 B76 B -0.01598 0.52255 0.48318
 B77 B -0.00383 0.48976 0.46813
 B78 B 0.02863 0.48076 0.48649
 B79 B -0.01342 0.48337 0.53331
 B80 B -0.02919 0.49140 0.49772
 B81 B -0.00234 0.46614 0.49960
 B82 B 0.02243 0.47640 0.52731
 B83 B 0.01028 0.50918 0.54236
 B84 B -0.02214 0.51823 0.52398
 B85 B 0.51255 0.01726 -0.02634
 B86 B 0.53075 0.00948 0.00781
 B87 B 0.50241 0.03297 0.00858
 B88 B 0.47681 0.02175 -0.01765
 B89 B 0.49016 -0.00988 -0.03453
 B90 B 0.52406 -0.01719 -0.01875
 B91 B 0.48484 -0.01835 0.03094
 B92 B 0.46661 -0.01057 -0.00318
 B93 B 0.49496 -0.03405 -0.00394
 B94 B 0.52056 -0.02283 0.02227
 B95 B 0.50720 0.00879 0.03916
 B96 B 0.47330 0.01609 0.02338
 B97 B 0.48818 0.48089 -0.03581
 B98 B 0.47198 0.48814 -0.00021
 B99 B 0.49967 0.46386 -0.00208
 B100 B 0.52423 0.47517 -0.02984
 B101 B 0.51097 0.50765 -0.04496
 B102 B 0.47815 0.51536 -0.02656
 B103 B 0.51999 0.51388 0.02022
 B104 B 0.53625 0.50671 -0.01538
 B105 B 0.50849 0.53095 -0.01346
 B106 B 0.48398 0.51961 0.01423
 B107 B 0.49723 0.48718 0.02933
 B108 B 0.53004 0.47945 0.01096
 B109 B -0.02023 0.98107 0.46671
 B110 B -0.03739 0.98912 0.50145
 B111 B -0.00990 0.96464 0.50122
 B112 B 0.01553 0.97527 0.47413
 B113 B 0.00290 1.00752 0.45773
 B114 B -0.03040 1.01578 0.47469
 B115 B 0.00994 1.01503 0.52302
 B116 B 0.02713 1.00704 0.48828
 B117 B -0.00042 1.03150 0.48851
 B118 B -0.02579 1.02085 0.51559
 B119 B -0.01317 0.98862 0.53196
 B120 B 0.02010 0.98033 0.51501
 B121 B 0.77774 0.23984 0.21264
 B122 B 0.76987 0.22411 0.24810
 B123 B 0.79522 0.24942 0.24632
 B124 B 0.78473 0.27508 0.21886
 B125 B 0.75168 0.26489 0.20388
 B126 B 0.74281 0.23284 0.22206
 B127 B 0.74566 0.27381 0.26917
 B128 B 0.75346 0.28959 0.23369
 B129 B 0.72815 0.26418 0.23552
 B130 B 0.73869 0.23861 0.26292
 B131 B 0.77167 0.24878 0.27789
 B132 B 0.78058 0.28086 0.25975
 B133 B 0.72564 0.76698 0.71848
 B134 B 0.73125 0.78406 0.75350
 B135 B 0.70739 0.75740 0.75176
 B136 B 0.72021 0.73157 0.72596
 B137 B 0.75320 0.74307 0.71191
 B138 B 0.75969 0.77605 0.72899
 B139 B 0.75695 0.73611 0.77778
 B140 B 0.75149 0.71906 0.74271
 B141 B 0.77531 0.74579 0.74443
 B142 B 0.76245 0.77151 0.77027
 B143 B 0.72945 0.76005 0.78427
 B144 B 0.72291 0.72708 0.76718
 B145 B 0.26231 0.26180 0.77911
 B146 B 0.25523 0.27837 0.74375
 B147 B 0.27956 0.25080 0.74530
 B148 B 0.26810 0.22604 0.77262
 B149 B 0.23543 0.23905 0.78773
 B150 B 0.22777 0.27195 0.76977
 B151 B 0.22929 0.23101 0.72244
 B152 B 0.23644 0.21437 0.75781
 B153 B 0.21214 0.24200 0.75616
 B154 B 0.22361 0.26677 0.72890
 B155 B 0.25620 0.25371 0.71376
 B156 B 0.26388 0.22080 0.73168
 B157 B 0.24006 0.72861 0.27068
 B158 B 0.24794 0.71076 0.23645
 B159 B 0.22332 0.73810 0.23612
 B160 B 0.23407 0.76396 0.26211
 B161 B 0.26655 0.75183 0.27839
 B162 B 0.27487 0.71839 0.26247
 B163 B 0.27381 0.75760 0.21281
 B164 B 0.26583 0.77533 0.24710
 B165 B 0.29052 0.74800 0.24744
 B166 B 0.27977 0.72213 0.22135
 B167 B 0.24725 0.73428 0.20506
 B168 B 0.23893 0.76772 0.22103
 B169 B 0.25860 0.72773 0.72537
 B170 B 0.25179 0.71171 0.76095
 B171 B 0.27629 0.73780 0.75871
 B172 B 0.26471 0.76312 0.73150
 B173 B 0.23182 0.75202 0.71714
 B174 B 0.22411 0.71969 0.73543
 B175 B 0.22641 0.76082 0.78247
 B176 B 0.23333 0.77678 0.74685
 B177 B 0.20879 0.75067 0.74911
 B178 B 0.22038 0.72534 0.77638
 B179 B 0.25326 0.73647 0.79076
 B180 B 0.26099 0.76880 0.77244
 B181 B 0.24603 0.26504 0.22957
 B182 B 0.25288 0.28171 0.26451
 B183 B 0.22805 0.25589 0.26333
 B184 B 0.23949 0.22989 0.23706
 B185 B 0.27258 0.24030 0.22221
 B186 B 0.28060 0.27291 0.23925
 B187 B 0.27762 0.23290 0.28785
 B188 B 0.27066 0.21626 0.25288
 B189 B 0.29553 0.24206 0.25407
 B190 B 0.28409 0.26812 0.28038
 B191 B 0.25098 0.25767 0.29524
 B192 B 0.24297 0.22507 0.27819
 B193 B 0.77502 0.76365 0.28549
 B194 B 0.76658 0.78059 0.25070
 B195 B 0.79194 0.75392 0.25112
 B196 B 0.78189 0.72820 0.27813
 B197 B 0.74908 0.73983 0.29428
 B198 B 0.73995 0.77277 0.27723
 B199 B 0.74208 0.73270 0.22892
 B200 B 0.75038 0.71571 0.26375
 B201 B 0.72507 0.74252 0.26329
 B202 B 0.73519 0.76810 0.23631
 B203 B 0.76794 0.75651 0.22020
 B204 B 0.77714 0.72358 0.23722
 B205 B 0.72730 0.24013 0.78323
 B206 B 0.73480 0.22236 0.74884
 B207 B 0.71097 0.25039 0.74870
 B208 B 0.72237 0.27576 0.77497
 B209 B 0.75449 0.26258 0.79125
 B210 B 0.76188 0.22905 0.77503
 B211 B 0.76199 0.26854 0.72567
 B212 B 0.75455 0.28634 0.76008
 B213 B 0.77837 0.25828 0.76023
 B214 B 0.76695 0.23294 0.73396
 B215 B 0.73483 0.24609 0.71771
 B216 B 0.72744 0.27963 0.73391
 C217 C 0.41488 1.03130 0.30635
 C218 C 0.40477 1.02402 0.33740
 C219 C 0.38051 1.00658 0.34079
 C220 C 0.36665 0.99593 0.31337
 C221 C 0.37728 1.00175 0.28170
 C222 C 0.40089 1.02076 0.27874
 C223 C 0.42043 1.03189 0.36612
 C224 C 0.43341 1.03524 0.39117
 C225 C 0.44859 1.03463 0.42088
 C226 C 0.46164 1.02964 0.44571
 H227 H 0.43360 1.04495 0.30346
 H228 H 0.37236 1.00101 0.36477
 H229 H 0.34726 0.98348 0.31719
 H230 H 0.40855 1.02745 0.25497
 C231 C -0.08494 0.53795 0.80660
 C232 C -0.09298 0.52923 0.83796
 C233 C -0.11728 0.51195 0.84227
 C234 C -0.13298 0.50262 0.81542
 C235 C -0.12415 0.50956 0.78334
 C236 C -0.10074 0.52872 0.77961
 C237 C -0.07529 0.53568 0.86574
 C238 C -0.06059 0.53819 0.88979
 C239 C -0.04355 0.53713 0.91832
 C240 C -0.02925 0.53221 0.94236
 H241 H -0.06630 0.55159 0.80297
 H242 H -0.12397 0.50539 0.86650
 H243 H -0.15218 0.49009 0.82004
 H244 H -0.09443 0.53624 0.75565
 C245 C 0.09163 0.00978 0.81942
 C246 C 0.08930 -0.01855 0.83124
 C247 C 0.10261 -0.04151 0.81444
 C248 C 0.11841 -0.03628 0.78599
 C249 C 0.12133 -0.00770 0.77329
 C250 C 0.10742 0.01515 0.79095
 C251 C 0.07381 -0.02379 0.86110
 C252 C 0.06079 -0.02655 0.88640
 C253 C 0.04537 -0.02666 0.91611
 C254 C 0.03206 -0.02290 0.94110
 H255 H 0.08147 0.02784 0.83239
 H256 H 0.10106 -0.06356 0.82351
 H257 H 0.12844 -0.05514 0.77479
 H258 H 0.10905 0.03745 0.78279
 C259 C 0.58180 0.47705 0.30344
 C260 C 0.59406 0.48101 0.33409
 C261 C 0.62132 0.49345 0.33667
 C262 C 0.63645 0.50181 0.30879
 C263 C 0.62450 0.49858 0.27726
 C264 C 0.59690 0.48538 0.27541
 C265 C 0.57822 0.47394 0.36320
 C266 C 0.56502 0.47029 0.38821
 C267 C 0.54936 0.46970 0.41775
 C268 C 0.53566 0.47333 0.44249
 H269 H 0.56072 0.46719 0.30112
 H270 H 0.63105 0.49661 0.36038
 H271 H 0.65779 0.51030 0.31254
 H272 H 0.58742 0.47997 0.25222
 C273 C 0.58142 0.53216 0.18801
 C274 C 0.59397 0.52684 0.15754
 C275 C 0.62194 0.51433 0.15550
 C276 C 0.63728 0.50683 0.18372
 C277 C 0.62482 0.51092 0.21503
 C278 C 0.59676 0.52473 0.21638
 C279 C 0.57771 0.53216 0.12816
 C280 C 0.56439 0.53410 0.10299
 C281 C 0.54902 0.53260 0.07345
 C282 C 0.53601 0.52734 0.04887
 H283 H 0.55982 0.54218 0.18990
 H284 H 0.63196 0.51023 0.13196
 H285 H 0.65910 0.49807 0.18046
 H286 H 0.58695 0.53090 0.23939
 C287 C 0.11410 1.01291 0.65353
 C288 C 0.08632 1.02529 0.65781
 C289 C 0.07476 1.02827 0.68912
 C290 C 0.09120 1.01941 0.71623
 C291 C 0.11985 1.00736 0.71271
 C292 C 0.13051 1.00397 0.68040
 C293 C 0.06889 1.03199 0.62966
 C294 C 0.05475 1.03485 0.60519
 C295 C 0.03872 1.03399 0.57611
 C296 C 0.02550 1.02887 0.55168
 H297 H 0.12307 1.00989 0.62928
 H298 H 0.05283 1.03711 0.69261
 H299 H 0.08071 1.02209 0.73946
 H300 H 0.15214 0.99486 0.67576
 C301 C -0.07837 0.47182 0.69936
 C302 C -0.09169 0.47141 0.66877
 C303 C -0.12116 0.47941 0.66580
 C304 C -0.13702 0.48869 0.69305
 C305 C -0.12355 0.49112 0.72381
 C306 C -0.09425 0.48105 0.72675
 C307 C -0.07466 0.46581 0.63988
 C308 C -0.06055 0.46378 0.61515
 C309 C -0.04418 0.46520 0.58611
 C310 C -0.03035 0.47028 0.56187
 H311 H -0.05558 0.46536 0.70198
 H312 H -0.13178 0.47905 0.64227
 H313 H -0.15988 0.49457 0.69000
 H314 H -0.08346 0.48010 0.75012
 C315 C 0.38271 -0.02857 0.16432
 C316 C 0.41204 -0.03680 0.16796
 C317 C 0.42487 -0.03650 0.19882
 C318 C 0.40855 -0.02718 0.22587
 C319 C 0.37940 -0.01689 0.22220
 C320 C 0.36648 -0.01912 0.19114
 C321 C 0.42938 -0.04191 0.13929
 C322 C 0.44312 -0.04305 0.11430
 C323 C 0.45831 -0.04008 0.08472
 C324 C 0.47057 -0.03341 0.05998
 H325 H 0.37253 -0.02874 0.14053
 H326 H 0.44759 -0.04302 0.20189
 H327 H 0.41886 -0.02814 0.24951
 H328 H 0.34375 -0.01297 0.18752
 C329 C 0.33619 0.40716 0.01915
 C330 C 0.33591 0.43741 0.01946
 C331 C 0.30926 0.45301 0.01830
 C332 C 0.28303 0.43828 0.01490
 C333 C 0.28336 0.40778 0.01118
 C334 C 0.31029 0.39253 0.01550
 C335 C 0.36339 0.45171 0.01828
 C336 C 0.38734 0.46163 0.01574
 C337 C 0.41595 0.47145 0.01134
 C338 C 0.44058 0.47898 0.00669
 H339 H 0.35662 0.39480 0.02047
 H340 H 0.30879 0.47652 0.01932
 H341 H 0.26291 0.45099 0.01481
 H342 H 0.31143 0.36904 0.01417
 C343 C -0.17922 0.91525 0.53385
 C344 C -0.17366 0.93954 0.51459
 C345 C -0.19419 0.94948 0.49184
 C346 C -0.22014 0.93488 0.48795
 C347 C -0.22646 0.91044 0.50740
 C348 C -0.20519 0.90059 0.53005
 C349 C -0.14548 0.95204 0.51516
 C350 C -0.12145 0.96164 0.51402
 C351 C -0.09307 0.97186 0.51104
 C352 C -0.06862 0.97988 0.50737
 H353 H -0.16295 0.90689 0.55081
 H354 H -0.18961 0.96779 0.47613
 H355 H -0.23490 0.94217 0.46890
 H356 H -0.20797 0.88082 0.54393
 C357 C -0.19214 0.05483 1.00664
 C358 C -0.17278 0.06418 0.98273
 C359 C -0.18061 0.08746 0.96239
 C360 C -0.20756 0.10184 0.96638
 C361 C -0.22754 0.09275 0.99044
 C362 C -0.21906 0.06914 1.01073
 C363 C -0.14367 0.05211 0.98175
 C364 C -0.11896 0.04278 0.98243
 C365 C -0.08989 0.03263 0.98482
 C366 C -0.06499 0.02441 0.98801
 H367 H -0.18592 0.03726 1.02307
 H368 H -0.16536 0.09535 0.94440
 H369 H -0.21194 0.12097 0.95164
 H370 H -0.23292 0.06242 1.03064
 C371 C 0.30273 0.54308 0.47655
 C372 C 0.32887 0.55806 0.47457
 C373 C 0.32838 0.58828 0.47587
 C374 C 0.30230 0.60345 0.48157
 C375 C 0.27602 0.58873 0.48696
 C376 C 0.27628 0.55839 0.48193
 C377 C 0.35676 0.54316 0.47460
 C378 C 0.38117 0.53306 0.47658
 C379 C 0.41033 0.52350 0.48068
 C380 C 0.43546 0.51654 0.48527
 H381 H 0.30287 0.51962 0.47479
 H382 H 0.34843 0.60014 0.47396
 H383 H 0.30287 0.62685 0.48376
 H384 H 0.25649 0.54623 0.48261
 C385 C 0.19712 0.55051 0.53471
 C386 C 0.17016 0.56034 0.52234
 C387 C 0.16836 0.58599 0.50433
 C388 C 0.19337 0.60099 0.49699
 C389 C 0.22134 0.59016 0.50635
 C390 C 0.22245 0.56584 0.52754
 C391 C 0.14385 0.54452 0.52639
 C392 C 0.12030 0.53361 0.52659
 C393 C 0.09184 0.52321 0.52382
 C394 C 0.06719 0.51574 0.51971
 H395 H 0.19860 0.53105 0.54959
 H396 H 0.14747 0.59435 0.49556
 H397 H 0.19043 0.62124 0.48381
 H398 H 0.24299 0.55834 0.53793
 C399 C 0.68883 0.05076 -0.00067
 C400 C 0.66559 0.06425 0.01593
 C401 C 0.66852 0.09210 0.02856
 C402 C 0.69456 0.10660 0.02430
 C403 C 0.71854 0.09327 0.00799
 C404 C 0.71494 0.06521 -0.00498
 C405 C 0.63778 0.05083 0.01704
 C406 C 0.61407 0.04034 0.01672
 C407 C 0.58602 0.02896 0.01498
 C408 C 0.56181 0.01992 0.01245
 H409 H 0.68640 0.02951 -0.01138
 H410 H 0.65033 0.10301 0.04072
 H411 H 0.69576 0.12869 0.03302
 H412 H 0.73174 0.05475 -0.01968
 C413 C 0.67028 0.91178 0.46847
 C414 C 0.66536 0.93904 0.48243
 C415 C 0.68729 0.95198 0.50031
 C416 C 0.71410 0.93752 0.50463
 C417 C 0.71973 0.91006 0.49037
 C418 C 0.69704 0.89724 0.47274
 C419 C 0.63670 0.95201 0.48188
 C420 C 0.61229 0.96198 0.48301
 C421 C 0.58350 0.97259 0.48601
 C422 C 0.55872 0.98088 0.48978
 H423 H 0.65303 0.90123 0.45541
 H424 H 0.68325 0.97272 0.51209
 H425 H 0.72990 0.94742 0.52029
 H426 H 0.69971 0.87550 0.46309
 C427 C 0.17473 0.41316 1.00247
 C428 C 0.17454 0.43778 0.98270
 C429 C 0.20043 0.44636 0.96768
 C430 C 0.22667 0.43076 0.97370
 C431 C 0.22765 0.40734 0.99614
 C432 C 0.20062 0.39784 1.00857
 C433 C 0.14727 0.45363 0.97903
 C434 C 0.12321 0.46482 0.97894
 C435 C 0.09431 0.47588 0.98159
 C436 C 0.06940 0.48417 0.98550
 H437 H 0.15466 0.40570 1.01335
 H438 H 0.20037 0.46498 0.95146
 H439 H 0.24630 0.43726 0.96122
 H440 H 0.19902 0.37826 1.02301
 C441 C 0.00574 0.30461 0.44964
 C442 C -0.00025 0.33138 0.43440
 C443 C -0.00243 0.33255 0.40045
 C444 C 0.00046 0.30720 0.38198
 C445 C 0.00481 0.27968 0.39693
 C446 C 0.00864 0.27910 0.43116
 C447 C -0.00321 0.35796 0.45303
 C448 C -0.00527 0.38099 0.46710
 C449 C -0.00664 0.40898 0.48153
 C450 C -0.00626 0.43365 0.49155
 H451 H 0.00839 0.30345 0.47583
 H452 H -0.00638 0.35315 0.38816
 H453 H -0.00136 0.30893 0.35574
 H454 H 0.01426 0.25919 0.44393
 C455 C 0.49863 -0.19581 -0.05280
 C456 C 0.49039 -0.16941 -0.06761
 C457 C 0.48369 -0.16886 -0.10079
 C458 C 0.48478 -0.19445 -0.11895
 C459 C 0.49184 -0.22159 -0.10429
 C460 C 0.49971 -0.22156 -0.07095
 C461 C 0.49003 -0.14253 -0.04950
 C462 C 0.48999 -0.11930 -0.03584
 C463 C 0.49052 -0.09122 -0.02185
 C464 C 0.49175 -0.06655 -0.01210
 H465 H 0.50470 -0.19644 -0.02732
 H466 H 0.47788 -0.14852 -0.11280
 H467 H 0.47991 -0.19317 -0.14472
 H468 H 0.50751 -0.24109 -0.05878
 C469 C 0.01173 -0.16609 1.09800
 C470 C 0.00710 -0.16603 1.06436
 C471 C -0.00015 -0.19190 1.04896
 C472 C -0.00180 -0.21784 1.06689
 C473 C 0.00461 -0.21863 1.10063
 C474 C 0.01009 -0.19187 1.11593
 C475 C 0.00886 -0.13905 1.04629
 C476 C 0.01003 -0.11569 1.03278
 C477 C 0.01048 -0.08731 1.01920
 C478 C 0.00945 -0.06226 1.01015
 H479 H 0.01667 -0.14613 1.11046
 H480 H -0.00474 -0.19201 1.02309
 H481 H -0.00849 -0.23696 1.05411
 H482 H 0.01384 -0.19114 1.14195
 C483 C 0.51234 0.30354 0.55029
 C484 C 0.51064 0.33052 0.56589
 C485 C 0.50520 0.33149 0.59939
 C486 C 0.50087 0.30592 0.61702
 C487 C 0.50104 0.27851 0.60159
 C488 C 0.50803 0.27778 0.56796
 C489 C 0.51380 0.35748 0.54798
 C490 C 0.51535 0.38094 0.53468
 C491 C 0.51555 0.40943 0.52122
 C492 C 0.51386 0.43444 0.51201
 H493 H 0.51711 0.30236 0.52446
 H494 H 0.50417 0.35212 0.61197
 H495 H 0.49691 0.30753 0.64298
 H496 H 0.51071 0.25747 0.55512
 C497 C 0.50557 1.17081 0.59374
 C498 C 0.48572 1.16995 0.56803
 C499 C 0.46919 1.19502 0.56017
 C500 C 0.47295 1.22084 0.57760
 C501 C 0.49400 1.22250 0.60266
 C502 C 0.50935 1.19644 0.61113
 C503 C 0.48229 1.14287 0.55074
 C504 C 0.48093 1.11932 0.53786
 C505 C 0.48109 1.09079 0.52479
 C506 C 0.48289 1.06581 0.51576
 H507 H 0.51794 1.15140 0.60076
 H508 H 0.45324 1.19459 0.54078
 H509 H 0.45944 1.23971 0.57147
 H510 H 0.52391 1.19528 0.63175
 C511 C 0.01890 0.69293 1.05797
 C512 C -0.00275 0.67296 1.06511
 C513 C -0.02178 0.67837 1.09114
 C514 C -0.01977 0.70375 1.10944
 C515 C 0.00085 0.72511 1.10156
 C516 C 0.02096 0.71845 1.07627
 C517 C -0.00446 0.64595 1.04742
 C518 C -0.00582 0.62264 1.03411
 C519 C -0.00662 0.59439 1.02058
 C520 C -0.00580 0.56948 1.01135
 H521 H 0.03440 0.68865 1.03850
 H522 H -0.03795 0.66263 1.09776
 H523 H -0.03416 0.70598 1.13021
 H524 H 0.03819 0.73327 1.07049
 C525 C 0.48194 0.68903 -0.06355
 C526 C 0.50408 0.66880 -0.07174
 C527 C 0.52262 0.67466 -0.09788
 C528 C 0.51956 0.70068 -0.11532
 C529 C 0.49834 0.72219 -0.10645
 C530 C 0.47883 0.71520 -0.08099
 C531 C 0.50683 0.64116 -0.05502
 C532 C 0.50911 0.61738 -0.04250
 C533 C 0.51105 0.58874 -0.02973
 C534 C 0.51134 0.56367 -0.02085
 H535 H 0.46685 0.68444 -0.04395
 H536 H 0.53920 0.65878 -0.10526
 H537 H 0.53359 0.70332 -0.13626
 H538 H 0.46120 0.73021 -0.07449
 C539 C -0.01421 1.19064 0.43450
 C540 C 0.00738 1.16919 0.42867
 C541 C 0.02888 1.17428 0.40526
 C542 C 0.02916 1.20065 0.38817
 C543 C 0.00835 1.22322 0.39469
 C544 C -0.01397 1.21711 0.41743
 C545 C 0.00672 1.14129 0.44513
 C546 C 0.00620 1.11747 0.45776
 C547 C 0.00520 1.08893 0.47095
 C548 C 0.00356 1.06406 0.48034
 H549 H -0.03147 1.18679 0.45194
 H550 H 0.04520 1.15757 0.39968
 H551 H 0.04541 1.20269 0.36925
 H552 H -0.03131 1.23301 0.42202
 C553 C 0.78344 0.63574 0.92262
 C554 C 0.76470 0.65910 0.91505
 C555 C 0.74032 0.66507 0.93473
 C556 C 0.73540 0.64843 0.96270
 C557 C 0.75542 0.62616 0.97227
 C558 C 0.77861 0.61911 0.95048
 C559 C 0.76961 0.67599 0.88613
 C560 C 0.77237 0.69002 0.86156
 C561 C 0.77265 0.70631 0.83248
 C562 C 0.76901 0.71996 0.80771
 H563 H 0.80171 0.63017 0.90681
 H564 H 0.72505 0.68256 0.92843
 H565 H 0.71627 0.65339 0.97739
 H566 H 0.79317 0.60061 0.95452
 C567 C 0.28525 0.16250 0.45384
 C568 C 0.27878 0.15487 0.42183
 C569 C 0.26045 0.13179 0.41588
 C570 C 0.24804 0.11671 0.44170
 C571 C 0.25298 0.12496 0.47431
 C572 C 0.27295 0.14731 0.47983
 C573 C 0.28845 0.17195 0.39473
 C574 C 0.29325 0.18616 0.37074
 C575 C 0.29416 0.20261 0.34184
 C576 C 0.29025 0.21639 0.31723
 H577 H 0.29959 0.18028 0.45872
 H578 H 0.25553 0.12551 0.39112
 H579 H 0.23496 0.09827 0.43586
 H580 H 0.27894 0.15309 0.50440
 C581 C 0.74679 0.37387 0.40734
 C582 C 0.73515 0.34622 0.40794
 C583 C 0.73041 0.33236 0.43767
 C584 C 0.73724 0.34615 0.46678
 C585 C 0.74982 0.37399 0.46698
 C586 C 0.75366 0.38771 0.43636
 C587 C 0.72969 0.33156 0.37788
 C588 C 0.72731 0.31905 0.35242
 C589 C 0.72811 0.30400 0.32270
 C590 C 0.73277 0.29075 0.29800
 H591 H 0.75045 0.38488 0.38435
 H592 H 0.72105 0.31101 0.43842
 H593 H 0.73107 0.33542 0.48913
 H594 H 0.76148 0.40950 0.43440
 C595 C 0.21108 0.83317 0.94600
 C596 C 0.21805 0.84202 0.91440
 C597 C 0.23476 0.86661 0.90957
 C598 C 0.24530 0.88180 0.93618
 C599 C 0.24017 0.87211 0.96836
 C600 C 0.22151 0.84843 0.97271
 C601 C 0.21084 0.82453 0.88685
 C602 C 0.20781 0.80973 0.86308
 C603 C 0.20849 0.79245 0.83490
 C604 C 0.21330 0.77799 0.81108
 H605 H 0.19796 0.81426 0.95002
 H606 H 0.24002 0.87385 0.88514
 H607 H 0.25742 0.90119 0.93138
 H608 H 0.21535 0.84143 0.99693
 C609 C 0.27397 0.86551 0.08419
 C610 C 0.28353 0.83681 0.07928
 C611 C 0.28308 0.82499 0.04801
 C612 C 0.27238 0.84160 0.02184
 C613 C 0.26081 0.87004 0.02672
 C614 C 0.26320 0.88210 0.05815
 C615 C 0.29054 0.81878 0.10696
 C616 C 0.29347 0.80387 0.13094
 C617 C 0.29262 0.78690 0.15950
 C618 C 0.28753 0.77313 0.18373
 H619 H 0.27432 0.87493 0.10832
 H620 H 0.29067 0.80282 0.04389
 H621 H 0.27334 0.83207 -0.00217
 H622 H 0.25633 0.90439 0.06266
 C623 C 0.76240 0.36872 0.58945
 C624 C 0.77491 0.34087 0.58731
 C625 C 0.78023 0.32856 0.55684
 C626 C 0.77302 0.34410 0.52854
 C627 C 0.75946 0.37216 0.52993
 C628 C 0.75514 0.38428 0.56127
 C629 C 0.78053 0.32454 0.61660
 C630 C 0.78277 0.31118 0.64176
 C631 C 0.78147 0.29592 0.67145
 C632 C 0.77610 0.28332 0.69637
 H633 H 0.75830 0.37854 0.61302
 H634 H 0.79027 0.30706 0.55490
 H635 H 0.77959 0.33449 0.50561
 H636 H 0.74660 0.40610 0.56449
 C637 C 0.21603 0.12675 0.58954
 C638 C 0.21011 0.15655 0.58684
 C639 C 0.21251 0.17036 0.55658
 C640 C 0.22206 0.15462 0.52933
 C641 C 0.23054 0.12499 0.53227
 C642 C 0.22566 0.11105 0.56247
 C643 C 0.20571 0.17331 0.61589
 C644 C 0.20513 0.18698 0.64077
 C645 C 0.20849 0.20253 0.66983
 C646 C 0.21510 0.21543 0.69397
 H647 H 0.21416 0.11581 0.61285
 H648 H 0.20771 0.19343 0.55420
 H649 H 0.22296 0.16586 0.50619
 H650 H 0.23031 0.08801 0.56535
 C651 C 0.74179 0.67344 0.06357
 C652 C 0.73180 0.65925 0.09149
 C653 C 0.72975 0.62909 0.09173
 C654 C 0.73660 0.61325 0.06378
 C655 C 0.74481 0.62730 0.03456
 C656 C 0.74864 0.65763 0.03545
 C657 C 0.72631 0.67526 0.12087
 C658 C 0.72375 0.68849 0.14593
 C659 C 0.72432 0.70387 0.17540
 C660 C 0.72892 0.71689 0.20005
 H661 H 0.74470 0.69671 0.06367
 H662 H 0.72303 0.61777 0.11359
 H663 H 0.73467 0.58987 0.06455
 H664 H 0.75727 0.66933 0.01488
 C665 C 0.19967 0.55779 0.26287
 C666 C 0.19181 0.57702 0.23780
 C667 C 0.16849 0.57086 0.21742
 C668 C 0.15320 0.54537 0.22181
 C669 C 0.16151 0.52497 0.24618
 C670 C 0.18443 0.53225 0.26733
 C671 C 0.20608 0.60420 0.23463
 C672 C 0.21718 0.62749 0.23281
 C673 C 0.22904 0.65528 0.23200
 C674 C 0.23814 0.67948 0.23278
 H675 H 0.21720 0.56281 0.27941
 H676 H 0.16163 0.58615 0.19862
 H677 H 0.13438 0.54221 0.20654
 H678 H 0.19047 0.51812 0.28750
 C679 C 0.65380 0.08455 0.72731
 C680 C 0.68218 0.08692 0.73902
 C681 C 0.69643 0.06288 0.75330
 C682 C 0.68220 0.03652 0.75618
 C683 C 0.65356 0.03359 0.74417
 C684 C 0.63952 0.05834 0.73021
 C685 C 0.69543 0.11479 0.73896
 C686 C 0.70548 0.13863 0.73974
 C687 C 0.71619 0.16689 0.74166
 C688 C 0.72470 0.19123 0.74419
 H689 H 0.64233 0.10324 0.71689
 H690 H 0.71817 0.06478 0.76324
 H691 H 0.69330 0.01896 0.76908
 H692 H 0.61707 0.05753 0.72223
 C693 C 0.79930 0.06244 0.24035
 C694 C 0.81066 0.08262 0.26187
 C695 C 0.83486 0.07509 0.28092
 C696 C 0.84826 0.04773 0.27787
 C697 C 0.83726 0.02692 0.25621
 C698 C 0.81262 0.03496 0.23729
 C699 C 0.79991 0.11212 0.26157
 C700 C 0.79220 0.13724 0.26030
 C701 C 0.78426 0.16682 0.25758
 C702 C 0.77790 0.19211 0.25417
 H703 H 0.78097 0.06839 0.22486
 H704 H 0.84429 0.09087 0.29700
 H705 H 0.86818 0.04352 0.29136
 H706 H 0.80441 0.02043 0.21904
 C707 C 0.32978 0.56683 0.78527
 C708 C 0.30592 0.57408 0.76552
 C709 C 0.29736 0.55499 0.74124
 C710 C 0.31274 0.52876 0.73657
 C711 C 0.33661 0.52068 0.75667
 C712 C 0.34523 0.54064 0.78067
 C713 C 0.29219 0.60235 0.76796
 C714 C 0.28164 0.62653 0.76886
 C715 C 0.27038 0.65523 0.76834
 C716 C 0.26163 0.68001 0.76630
 H717 H 0.33715 0.58192 0.80347
 H718 H 0.27938 0.56079 0.72519
 H719 H 0.30637 0.51495 0.71670
 H720 H 0.36461 0.53678 0.79516
 C721 C 0.33724 0.41584 0.72355
 C722 C 0.30874 0.41333 0.73508
 C723 C 0.29463 0.43697 0.75015
 C724 C 0.30900 0.46313 0.75373
 C725 C 0.33764 0.46633 0.74156
 C726 C 0.35166 0.44187 0.72713
 C727 C 0.29516 0.38566 0.73402
 C728 C 0.28479 0.36196 0.73412
 C729 C 0.27373 0.33381 0.73559
 C730 C 0.26509 0.30950 0.73817
 H731 H 0.34863 0.39740 0.71260
 H732 H 0.27283 0.43490 0.76005
 H733 H 0.29793 0.48034 0.76712
 H734 H 0.37412 0.44285 0.71903
 C735 C 0.79581 0.94202 0.25185
 C736 C 0.80952 0.91902 0.23519
 C737 C 0.83664 0.92277 0.22050
 C738 C 0.85047 0.94917 0.22319
 C739 C 0.83715 0.97278 0.23994
 C740 C 0.80957 0.96861 0.25447
 C741 C 0.79777 0.89054 0.23636
 C742 C 0.78945 0.86608 0.23826
 C743 C 0.78107 0.83711 0.24148
 C744 C 0.77455 0.81222 0.24503
 H745 H 0.77511 0.93900 0.26406
 H746 H 0.84775 0.90483 0.20825
 H747 H 0.87227 0.95075 0.21324
 H748 H 0.79922 0.98531 0.26929
 C749 C 0.65927 0.93096 0.78402
 C750 C 0.68235 0.92372 0.76309
 C751 C 0.69173 0.94388 0.74006
 C752 C 0.67764 0.97105 0.73751
 C753 C 0.65421 0.97888 0.75844
 C754 C 0.64510 0.95805 0.78152
 C755 C 0.69433 0.89461 0.76307
 C756 C 0.70339 0.86988 0.76225
 C757 C 0.71319 0.84074 0.76035
 C758 C 0.72120 0.81577 0.75792
 H759 H 0.65136 0.91518 0.80137
 H760 H 0.70919 0.93820 0.72321
 H761 H 0.68437 0.98563 0.71832
 H762 H 0.62608 0.96193 0.79668
 C763 C 0.20805 0.44144 0.25329
 C764 C 0.19470 0.41741 0.26715
 C765 C 0.16541 0.41930 0.27648
 C766 C 0.14952 0.44522 0.27222
 C767 C 0.16278 0.47016 0.25938
 C768 C 0.19219 0.46750 0.24904
 C769 C 0.21010 0.39000 0.26941
 C770 C 0.22180 0.36637 0.27043
 C771 C 0.23401 0.33809 0.27031
 C772 C 0.24318 0.31347 0.26883
 H773 H 0.23050 0.43982 0.24500
 H774 H 0.15467 0.40053 0.28641
 H775 H 0.12662 0.44586 0.27886
 H776 H 0.20287 0.48509 0.23673
 C777 C 0.04980 0.25490 0.80415
 C778 C 0.07623 0.24696 0.81914
 C779 C 0.07712 0.24314 0.85289
 C780 C 0.05167 0.24620 0.87144
 C781 C 0.02436 0.25231 0.85665
 C782 C 0.02418 0.25798 0.82271
 C783 C 0.10286 0.24363 0.80052
 C784 C 0.12609 0.24114 0.78671
 C785 C 0.15438 0.23919 0.77288
 C786 C 0.17937 0.23901 0.76351
 H787 H 0.04901 0.25889 0.77813
 H788 H 0.09756 0.23771 0.86496
 H789 H 0.05311 0.24300 0.89755
 H790 H 0.00452 0.26510 0.81026
 C791 C 0.58590 0.74118 0.35730
 C792 C 0.58704 0.74441 0.32344
 C793 C 0.56132 0.75125 0.30640
 C794 C 0.53453 0.75385 0.32294
 C795 C 0.53272 0.74881 0.35694
 C796 C 0.55924 0.74376 0.37385
 C797 C 0.61483 0.74154 0.30667
 C798 C 0.63865 0.73951 0.29390
 C799 C 0.66732 0.73816 0.28064
 C800 C 0.69237 0.73855 0.27126
 H801 H 0.60567 0.73657 0.37099
 H802 H 0.56198 0.75475 0.28030
 H803 H 0.51551 0.76011 0.30884
 H804 H 0.55913 0.74103 0.40007
 C805 C 0.58963 0.26023 0.14425
 C806 C 0.58994 0.26597 0.17765
 C807 C 0.56348 0.26775 0.19476
 C808 C 0.53699 0.26314 0.17875
 C809 C 0.53642 0.25573 0.14530
 C810 C 0.56328 0.25560 0.12823
 C811 C 0.61760 0.26931 0.19407
 C812 C 0.64143 0.27100 0.20648
 C813 C 0.67019 0.27137 0.21926
 C814 C 0.69535 0.26983 0.22817
 H815 H 0.60985 0.25915 0.13050
 H816 H 0.56329 0.27277 0.22052
 H817 H 0.51712 0.26588 0.19274
 H818 H 0.56385 0.25139 0.10230
 C819 C 0.05307 0.73315 0.69056
 C820 C 0.07326 0.75486 0.68474
 C821 C 0.06832 0.77460 0.65928
 C822 C 0.04311 0.77325 0.64031
 C823 C 0.02149 0.75258 0.64695
 C824 C 0.02775 0.73175 0.67160
 C825 C 0.10000 0.75594 0.70327
 C826 C 0.12310 0.75674 0.71738
 C827 C 0.15116 0.75687 0.73183
 C828 C 0.17599 0.75556 0.74168
 H829 H 0.05699 0.71713 0.70956
 H830 H 0.08427 0.79085 0.65368
 H831 H 0.04120 0.78824 0.62008
 H832 H 0.01269 0.71452 0.67644
 C833 C 0.91222 0.74242 0.64960
 C834 C 0.91223 0.74606 0.68339
 C835 C 0.93823 0.75292 0.69902
 C836 C 0.96424 0.75505 0.68117
 C837 C 0.96501 0.74950 0.64726
 C838 C 0.93810 0.74455 0.63174
 C839 C 0.88524 0.74362 0.70148
 C840 C 0.86190 0.74192 0.71511
 C841 C 0.83352 0.74093 0.72890
 C842 C 0.80841 0.74160 0.73808
 H843 H 0.89214 0.73783 0.63698
 H844 H 0.93839 0.75677 0.72503
 H845 H 0.98347 0.76138 0.69420
 H846 H 0.93735 0.74148 0.60561
 C847 C 0.42916 0.25896 0.16142
 C848 C 0.43006 0.23931 0.18746
 C849 C 0.45577 0.22307 0.19340
 C850 C 0.48053 0.22698 0.17376
 C851 C 0.48048 0.24788 0.14833
 C852 C 0.45374 0.26289 0.14183
 C853 C 0.40404 0.23574 0.20706
 C854 C 0.38117 0.23428 0.22177
 C855 C 0.35316 0.23444 0.23665
 C856 C 0.32833 0.23638 0.24668
 H857 H 0.40917 0.27109 0.15589
 H858 H 0.45667 0.20726 0.21301
 H859 H 0.49995 0.21374 0.17852
 H860 H 0.45122 0.27733 0.12116
 C861 C 0.42817 0.77378 0.34007
 C862 C 0.42487 0.75333 0.31539
 C863 C 0.44660 0.73176 0.31089
 C864 C 0.47163 0.73104 0.33050
 C865 C 0.47605 0.75238 0.35457
 C866 C 0.45310 0.77311 0.35969
 C867 C 0.39832 0.75357 0.29630
 C868 C 0.37542 0.75370 0.28163
 C869 C 0.34764 0.75330 0.26640
 C870 C 0.32309 0.75197 0.25581
 H871 H 0.41111 0.79002 0.34462
 H872 H 0.44405 0.71525 0.29249
 H873 H 0.48779 0.71379 0.32677
 H874 H 0.45371 0.78859 0.37934
 C875 C 0.91967 0.27935 0.84810
 C876 C 0.91478 0.25948 0.82320
 C877 C 0.93576 0.23759 0.81687
 C878 C 0.96174 0.23606 0.83478
 C879 C 0.96785 0.25693 0.85883
 C880 C 0.94558 0.27787 0.86603
 C881 C 0.88749 0.26069 0.80561
 C882 C 0.86409 0.26156 0.79205
 C883 C 0.83588 0.26197 0.77797
 C884 C 0.81107 0.26132 0.76816
 H885 H 0.90318 0.29580 0.85406
 H886 H 0.93195 0.22152 0.79829
 H887 H 0.97738 0.21864 0.82960
 H888 H 0.94761 0.29295 0.88591
 C889 C 0.57925 0.96784 0.69786
 C890 C 0.58801 0.97573 0.66648
 C891 C 0.61197 0.99347 0.66228
 C892 C 0.62681 1.00383 0.68922
 C893 C 0.61748 0.99742 0.72126
 C894 C 0.59420 0.97810 0.72497
 C895 C 0.57136 0.96797 0.63839
 C896 C 0.55753 0.96454 0.61390
 C897 C 0.54142 0.96489 0.58476
 C898 C 0.52775 0.96961 0.56025
 H899 H 0.56081 0.95393 0.70140
 H900 H 0.61913 0.99948 0.63804
 H901 H 0.64592 1.01653 0.68470
 H902 H 0.58751 0.97100 0.74896
 C903 C 0.08052 0.47324 1.19738
 C904 C 0.09481 0.47169 1.16722
 C905 C 0.12449 0.47739 1.16523
 C906 C 0.13965 0.48554 1.19293
 C907 C 0.12534 0.48903 1.22329
 C908 C 0.09574 0.48130 1.22533
 C909 C 0.07880 0.46724 1.13765
 C910 C 0.06593 0.46607 1.11216
 C911 C 0.05111 0.46827 1.08217
 C912 C 0.03834 0.47379 1.05722
 H913 H 0.05753 0.46856 1.19924
 H914 H 0.13585 0.47617 1.14207
 H915 H 0.16267 0.48982 1.19054
 H916 H 0.08423 0.48128 1.24834
 C917 C -0.08539 0.03578 1.19564
 C918 C -0.09549 0.03075 1.16413
 C919 C -0.12159 0.01641 1.15961
 C920 C -0.13708 0.00619 1.18633
 C921 C -0.12631 0.00919 1.21833
 C922 C -0.10102 0.02569 1.22254
 C923 C -0.07799 0.03729 1.13614
 C924 C -0.06364 0.03961 1.11174
 C925 C -0.04725 0.03813 1.08277
 C926 C -0.03361 0.03289 1.05836
 H927 H -0.06529 0.04712 1.19941
 H928 H -0.12976 0.01267 1.13528
 H929 H -0.15757 -0.00417 1.18179
 H930 H -0.09314 0.03050 1.24669
 C931 C 0.41062 0.53295 0.69318
 C932 C 0.40212 0.52433 0.66211
 C933 C 0.37815 0.50656 0.65857
 C934 C 0.36329 0.49658 0.68592
 C935 C 0.37269 0.50335 0.71770
 C936 C 0.39564 0.52309 0.72068
 C937 C 0.41923 0.53116 0.63382
 C938 C 0.43358 0.53389 0.60943
 C939 C 0.45040 0.53304 0.58066
 C940 C 0.46477 0.52836 0.55658
 H941 H 0.42903 0.54696 0.69621
 H942 H 0.37111 0.50007 0.63457
 H943 H 0.34429 0.48366 0.68190
 H944 H 0.40230 0.53050 0.74444
 C945 C 0.37937 0.47095 -0.16536
 C946 C 0.40910 0.46454 -0.16932
 C947 C 0.42173 0.46603 -0.20032
 C948 C 0.40488 0.47494 -0.22711
 C949 C 0.37527 0.48365 -0.22309
 C950 C 0.36255 0.47992 -0.19199
 C951 C 0.42698 0.45986 -0.14098
 C952 C 0.44156 0.45873 -0.11664
 C953 C 0.45814 0.46123 -0.08802
 C954 C 0.47185 0.46714 -0.06411
 H955 H 0.36929 0.46975 -0.14150
 H956 H 0.44473 0.46080 -0.20370
 H957 H 0.41521 0.47494 -0.25081
 H958 H 0.33955 0.48477 -0.18814
 C959 C -0.08228 0.96529 0.30037
 C960 C -0.09510 0.96600 0.33132
 C961 C -0.12382 0.97630 0.33505
 C962 C -0.13933 0.98692 0.30822
 C963 C -0.12616 0.98837 0.27711
 C964 C -0.09789 0.97578 0.27335
 C965 C -0.07803 0.95998 0.35990
 C966 C -0.06418 0.95822 0.38469
 C967 C -0.04853 0.96057 0.41390
 C968 C -0.03563 0.96673 0.43823
 H969 H -0.06007 0.95712 0.29721
 H970 H -0.13401 0.97687 0.35890
 H971 H -0.16162 0.99461 0.31193
 H972 H -0.08768 0.97409 0.24963
 C973 C 0.11985 0.50760 0.34290
 C974 C 0.09532 0.52600 0.33997
 C975 C 0.08641 0.53572 0.30913
 C976 C 0.10176 0.52646 0.28129
 C977 C 0.12550 0.50630 0.28367
 C978 C 0.13502 0.49823 0.31529
 C979 C 0.07856 0.53268 0.36880
 C980 C 0.06505 0.53514 0.39390
 C981 C 0.04958 0.53385 0.42360
 C982 C 0.03644 0.52873 0.44832
 H983 H 0.12722 0.50026 0.36670
 H984 H 0.06758 0.55026 0.30657
 H985 H 0.09495 0.53489 0.25777
 H986 H 0.15452 0.48493 0.31906
 C987 C 0.57153 0.03495 -0.19459
 C988 C 0.58499 0.03540 -0.16408
 C989 C 0.61452 0.02765 -0.16126
 C990 C 0.63032 0.01850 -0.18856
 C991 C 0.61675 0.01603 -0.21924
 C992 C 0.58739 0.02590 -0.22209
 C993 C 0.56809 0.04032 -0.13499
 C994 C 0.55452 0.04145 -0.10986
 C995 C 0.53932 0.03864 -0.08022
 C996 C 0.52695 0.03216 -0.05545
 H997 H 0.54867 0.04115 -0.19706
 H998 H 0.62521 0.02798 -0.13776
 H999 H 0.65321 0.01269 -0.18559
 H1000 H 0.57652 0.02672 -0.24542
 C1001 C 0.69785 0.55246 -0.03327
 C1002 C 0.67118 0.56090 -0.01894
 C1003 C 0.66982 0.58492 0.00150
 C1004 C 0.69486 0.59991 0.00864
 C1005 C 0.72260 0.59070 -0.00343
 C1006 C 0.72323 0.56768 -0.02615
 C1007 C 0.64461 0.54567 -0.02424
 C1008 C 0.62096 0.53493 -0.02576
 C1009 C 0.59239 0.52424 -0.02464
 C1010 C 0.56772 0.51615 -0.02169
 H1011 H 0.69903 0.53430 -0.04992
 H1012 H 0.64917 0.59227 0.01193
 H1013 H 0.69195 0.61916 0.02336
 H1014 H 0.74343 0.56136 -0.03824
 C1015 C 0.18529 1.04595 0.49906
 C1016 C 0.16225 1.06039 0.48311
 C1017 C 0.16509 1.08910 0.47284
 C1018 C 0.19093 1.10344 0.47859
 C1019 C 0.21480 1.08910 0.49401
 C1020 C 0.21121 1.06022 0.50484
 C1021 C 0.13461 1.04690 0.48046
 C1022 C 0.11092 1.03644 0.47970
 C1023 C 0.08278 1.02526 0.48062
 C1024 C 0.05841 1.01661 0.48296
 H1025 H 0.18286 1.02398 0.50806
 H1026 H 0.14699 1.10071 0.46129
 H1027 H 0.19217 1.12605 0.47149
 H1028 H 0.22787 1.04885 0.51891
 C1029 C 0.17592 -0.08552 1.03383
 C1030 C 0.16927 -0.06127 1.01440
 C1031 C 0.18925 -0.05208 0.99106
 C1032 C 0.21572 -0.06725 0.98687
 C1033 C 0.22316 -0.09158 1.00656
 C1034 C 0.20241 -0.10076 1.02973
 C1035 C 0.14079 -0.04764 1.01599
 C1036 C 0.11658 -0.03692 1.01595
 C1037 C 0.08797 -0.02524 1.01434
 C1038 C 0.06331 -0.01601 1.01169
 H1039 H 0.16016 -0.09332 1.05132
 H1040 H 0.18395 -0.03377 0.97528
 H1041 H 0.23015 -0.06042 0.96754
 H1042 H 0.20598 -0.12041 1.04385
 C1043 C 0.67195 0.41215 0.50393
 C1044 C 0.67182 0.44057 0.51520
 C1045 C 0.69817 0.45332 0.52321
 C1046 C 0.72465 0.43781 0.51872
 C1047 C 0.72545 0.40966 0.50473
 C1048 C 0.69814 0.39680 0.49939
 C1049 C 0.64418 0.45589 0.51788
 C1050 C 0.61988 0.46649 0.51820
 C1051 C 0.59067 0.47674 0.51651
 C1052 C 0.56545 0.48422 0.51347
 H1053 H 0.65162 0.40168 0.49857
 H1054 H 0.69826 0.47507 0.53311
 H1055 H 0.74431 0.44778 0.52710
 H1056 H 0.69637 0.37464 0.49174
 C1057 C -0.16416 0.41111 0.49554
 C1058 C -0.16514 0.44016 0.48615
 C1059 C -0.19197 0.45373 0.47876
 C1060 C -0.21785 0.43837 0.48209
 C1061 C -0.21757 0.40947 0.49433
 C1062 C -0.18976 0.39589 0.49895
 C1063 C -0.13814 0.45529 0.48475
 C1064 C -0.11433 0.46571 0.48532
 C1065 C -0.08567 0.47576 0.48782
 C1066 C -0.06088 0.48313 0.49132
 H1067 H -0.14342 0.40006 0.50036
 H1068 H -0.19291 0.47604 0.47027
 H1069 H -0.23790 0.44909 0.47426
 H1070 H -0.18715 0.37330 0.50520
 C1071 C 0.32802 -0.09142 -0.02842
 C1072 C 0.33117 -0.06411 -0.01445
 C1073 C 0.30778 -0.05081 0.00208
 C1074 C 0.28132 -0.06492 0.00502
 C1075 C 0.27751 -0.09243 -0.00928
 C1076 C 0.30163 -0.10559 -0.02552
 C1077 C 0.35922 -0.05109 -0.01437
 C1078 C 0.38307 -0.04092 -0.01323
 C1079 C 0.41124 -0.02984 -0.01081
 C1080 C 0.43550 -0.02098 -0.00793
 H1081 H 0.34628 -0.10222 -0.04057
 H1082 H 0.31032 -0.02999 0.01378
 H1083 H 0.26438 -0.05470 0.01972
 H1084 H 0.30031 -0.12734 -0.03520
 C1085 C 0.31432 1.08009 0.54157
 C1086 C 0.32249 1.05764 0.52046
 C1087 C 0.30390 1.04975 0.49535
 C1088 C 0.27736 1.06468 0.49092
 C1089 C 0.26851 1.08743 0.51203
 C1090 C 0.28778 1.09509 0.53724
 C1091 C 0.35140 1.04524 0.52185
 C1092 C 0.37607 1.03586 0.52146
 C1093 C 0.40518 1.02591 0.51923
 C1094 C 0.43016 1.01804 0.51597
 H1095 H 0.32907 1.08691 0.56047
 H1096 H 0.31046 1.03288 0.47831
 H1097 H 0.26409 1.05910 0.47023
 H1098 H 0.28324 1.11359 0.55272
 C1099 C -0.19316 0.54550 1.02059
 C1100 C -0.16757 0.56138 1.02267
 C1101 C -0.16928 0.59162 1.02231
 C1102 C -0.19602 0.60599 1.01780
 C1103 C -0.22187 0.59051 1.01278
 C1104 C -0.22027 0.55997 1.01635
 C1105 C -0.13908 0.54748 1.02252
 C1106 C -0.11435 0.53801 1.02086
 C1107 C -0.08493 0.52871 1.01742
 C1108 C -0.05971 0.52152 1.01344
 H1109 H -0.19210 0.52199 1.02155
 H1110 H -0.14972 0.60420 1.02425
 H1111 H -0.19634 0.62949 1.01641
 H1112 H -0.23954 0.54705 1.01546
 C1113 C 0.02507 0.69335 0.56520
 C1114 C 0.00855 0.66890 0.57207
 C1115 C -0.01225 0.67035 0.59698
 C1116 C -0.01718 0.69604 0.61434
 C1117 C -0.00207 0.72163 0.60658
 C1118 C 0.02017 0.71923 0.58264
 C1119 C 0.01277 0.64191 0.55446
 C1120 C 0.01462 0.61846 0.54126
 C1121 C 0.01492 0.59009 0.52781
 C1122 C 0.01350 0.56526 0.51849
 H1123 H 0.04178 0.69242 0.54650
 H1124 H -0.02460 0.65137 0.60331
 H1125 H -0.03256 0.69527 0.63428
 H1126 H 0.03358 0.73764 0.57718
 C1127 C 0.53018 0.17361 0.09494
 C1128 C 0.50871 0.16881 0.07159
 C1129 C 0.48681 0.19005 0.06637
 C1130 C 0.48675 0.21611 0.08386
 C1131 C 0.50909 0.22203 0.10641
 C1132 C 0.53018 0.19962 0.11246
 C1133 C 0.50838 0.14145 0.05439
 C1134 C 0.50799 0.11810 0.04100
 C1135 C 0.50711 0.09005 0.02694
 C1136 C 0.50569 0.06544 0.01697
 H1137 H 0.54675 0.15699 0.10002
 H1138 H 0.46957 0.18638 0.04899
 H1139 H 0.46926 0.23193 0.07959
 H1140 H 0.54650 0.20160 0.13120
 C1141 C 0.00481 0.17455 0.90918
 C1142 C -0.01406 0.17441 0.93592
 C1143 C -0.03043 0.19961 0.94351
 C1144 C -0.02713 0.22502 0.92493
 C1145 C -0.00658 0.22609 0.89915
 C1146 C 0.00815 0.19975 0.89072
 C1147 C -0.01646 0.14789 0.95459
 C1148 C -0.01667 0.12456 0.96822
 C1149 C -0.01508 0.09613 0.98153
 C1150 C -0.01231 0.07109 0.99019
 H1151 H 0.01691 0.15496 0.90234
 H1152 H -0.04573 0.19963 0.96366
 H1153 H -0.04031 0.24411 0.93100
 H1154 H 0.02210 0.19811 0.86951
 C1155 C 0.51110 0.67070 0.40853
 C1156 C 0.48951 0.66998 0.43259
 C1157 C 0.47200 0.69486 0.43814
 C1158 C 0.47660 0.72042 0.42021
 C1159 C 0.49948 0.72205 0.39705
 C1160 C 0.51573 0.69608 0.39067
 C1161 C 0.48551 0.64322 0.45062
 C1162 C 0.48397 0.61987 0.46415
 C1163 C 0.48426 0.59149 0.47791
 C1164 C 0.48647 0.56658 0.48734
 H1165 H 0.52428 0.65140 0.40322
 H1166 H 0.45470 0.69450 0.45617
 H1167 H 0.46241 0.73918 0.42462
 H1168 H 0.53179 0.69476 0.37139
 C1169 C 0.51213 0.80322 0.45009
 C1170 C 0.51136 0.83021 0.43419
 C1171 C 0.50961 0.83109 0.40020
 C1172 C 0.50767 0.80542 0.38235
 C1173 C 0.50654 0.77802 0.39797
 C1174 C 0.51022 0.77739 0.43223
 C1175 C 0.51164 0.85717 0.45232
 C1176 C 0.51103 0.88045 0.46602
 C1177 C 0.50920 0.90861 0.48007
 C1178 C 0.50650 0.93334 0.48980
 H1179 H 0.51416 0.80210 0.47635
 H1180 H 0.50943 0.85173 0.38740
 H1181 H 0.50625 0.80695 0.35606
 H1182 H 0.51192 0.75715 0.44553
 C1183 C 0.01366 0.30637 0.95047
 C1184 C 0.01217 0.33339 0.93470
 C1185 C 0.00672 0.33459 0.90124
 C1186 C 0.00202 0.30917 0.88382
 C1187 C 0.00175 0.28177 0.89950
 C1188 C 0.00898 0.28079 0.93302
 C1189 C 0.01547 0.36014 0.95247
 C1190 C 0.01712 0.38345 0.96571
 C1191 C 0.01749 0.41178 0.97902
 C1192 C 0.01612 0.43674 0.98801
 H1193 H 0.01850 0.30505 0.97625
 H1194 H 0.00591 0.35529 0.88856
 H1195 H -0.00197 0.31089 0.85789
 H1196 H 0.01156 0.26042 0.94597
 C1197 C 0.49736 0.33095 0.09907
 C1198 C 0.50072 0.32963 0.06524
 C1199 C 0.50744 0.30289 0.05060
 C1200 C 0.51002 0.27753 0.06955
 C1201 C 0.50511 0.27822 0.10363
 C1202 C 0.49994 0.30572 0.11803
 C1203 C 0.49838 0.35604 0.04608
 C1204 C 0.49682 0.37891 0.03148
 C1205 C 0.49590 0.40672 0.01648
 C1206 C 0.49638 0.43132 0.00612
 H1207 H 0.49285 0.35158 0.11089
 H1208 H 0.51101 0.30167 0.02454
 H1209 H 0.51638 0.25766 0.05727
 H1210 H 0.49741 0.30755 0.14418
 C1211 C -0.01632 0.83081 0.60074
 C1212 C -0.01799 0.82958 0.56678
 C1213 C -0.01814 0.80245 0.55154
 C1214 C -0.01545 0.77677 0.57003
 C1215 C -0.01153 0.77772 0.60421
 C1216 C -0.01358 0.80531 0.61919
 C1217 C -0.01855 0.85636 0.54806
 C1218 C -0.01811 0.87954 0.53402
 C1219 C -0.01657 0.90759 0.51966
 C1220 C -0.01433 0.93221 0.50964
 H1221 H -0.01663 0.85160 0.61301
 H1222 H -0.02014 0.80111 0.52531
 H1223 H -0.01655 0.75640 0.55724
 H1224 H -0.01197 0.80711 0.64542
 C1225 C 0.23707 0.36945 0.09121
 C1226 C 0.24003 0.33924 0.09120
 C1227 C 0.25102 0.32491 0.06363
 C1228 C 0.25764 0.34065 0.03547
 C1229 C 0.25248 0.37102 0.03418
 C1230 C 0.24367 0.38521 0.06322
 C1231 C 0.23390 0.32324 0.12038
 C1232 C 0.23053 0.31002 0.14537
 C1233 C 0.23001 0.29457 0.17495
 C1234 C 0.23372 0.28135 0.19995
 H1235 H 0.22957 0.38086 0.11282
 H1236 H 0.25466 0.30156 0.06395
 H1237 H 0.26684 0.32884 0.01505
 H1238 H 0.24074 0.40862 0.06370
 C1239 C 0.72381 0.87113 0.58591
 C1240 C 0.71450 0.84277 0.58194
 C1241 C 0.71489 0.83016 0.55104
 C1242 C 0.72541 0.84565 0.52429
 C1243 C 0.73688 0.87359 0.52829
 C1244 C 0.73441 0.88655 0.55933
 C1245 C 0.70806 0.82577 0.61029
 C1246 C 0.70574 0.81182 0.63494
 C1247 C 0.70723 0.79590 0.66418
 C1248 C 0.71254 0.78272 0.68887
 H1249 H 0.72347 0.88115 0.60975
 H1250 H 0.70750 0.80823 0.54770
 H1251 H 0.72454 0.83564 0.50055
 H1252 H 0.74113 0.90863 0.56316
 C1253 C 0.28465 0.63061 0.57839
 C1254 C 0.26717 0.65459 0.58693
 C1255 C 0.24319 0.66270 0.56760
 C1256 C 0.23728 0.64738 0.53918
 C1257 C 0.25589 0.62427 0.52884
 C1258 C 0.27881 0.61528 0.55006
 C1259 C 0.27257 0.66976 0.61666
 C1260 C 0.27538 0.68255 0.64188
 C1261 C 0.27534 0.69779 0.67145
 C1262 C 0.27125 0.71106 0.69624
 H1263 H 0.30256 0.62344 0.59389
 H1264 H 0.22888 0.68071 0.57467
 H1265 H 0.21830 0.65381 0.52499
 H1266 H 0.29224 0.59611 0.54530
 C1267 C 0.78693 0.16753 0.04943
 C1268 C 0.78090 0.15889 0.08135
 C1269 C 0.76355 0.13492 0.08706
 C1270 C 0.75166 0.11996 0.06104
 C1271 C 0.75610 0.12925 0.02859
 C1272 C 0.77514 0.15251 0.02330
 C1273 C 0.78981 0.17605 0.10848
 C1274 C 0.79415 0.19063 0.13210
 C1275 C 0.79470 0.20781 0.16029
 C1276 C 0.79057 0.22236 0.18417
 H1277 H 0.80047 0.18602 0.04474
 H1278 H 0.75895 0.12791 0.11174
 H1279 H 0.73926 0.10090 0.06655
 H1280 H 0.78074 0.15919 -0.00120
 C1281 C 0.72006 0.13404 0.91353
 C1282 C 0.71180 0.16319 0.91772
 C1283 C 0.71303 0.17567 0.94863
 C1284 C 0.72351 0.15930 0.97509
 C1285 C 0.73409 0.13044 0.97078
 C1286 C 0.73062 0.11771 0.93985
 C1287 C 0.70593 0.18095 0.88955
 C1288 C 0.70419 0.19549 0.86519
 C1289 C 0.70653 0.21190 0.83637
 C1290 C 0.71272 0.22513 0.81213
 H1291 H 0.71912 0.12412 0.88969
 H1292 H 0.70646 0.19821 0.95217
 H1293 H 0.72336 0.16942 0.99880
 H1294 H 0.73679 0.09515 0.93587
 C1295 C 0.22512 0.62871 0.41105
 C1296 C 0.22869 0.65866 0.41058
 C1297 C 0.24061 0.67244 0.43757
 C1298 C 0.24800 0.65641 0.46550
 C1299 C 0.24285 0.62634 0.46710
 C1300 C 0.23251 0.61267 0.43876
 C1301 C 0.22310 0.67456 0.38107
 C1302 C 0.22059 0.68733 0.35561
 C1303 C 0.22143 0.70182 0.32549
 C1304 C 0.22640 0.71394 0.30021
 H1305 H 0.21691 0.61767 0.38984
 H1306 H 0.24468 0.69550 0.43680
 H1307 H 0.25811 0.66765 0.48534
 H1308 H 0.22949 0.58942 0.43849
 C1309 C 0.76766 0.86818 0.41189
 C1310 C 0.78381 0.84253 0.41752
 C1311 C 0.78884 0.83295 0.44941
 C1312 C 0.77700 0.84866 0.47557
 C1313 C 0.75880 0.87350 0.47022
 C1314 C 0.75569 0.88376 0.43789
 C1315 C 0.79186 0.82471 0.39024
 C1316 C 0.79509 0.81003 0.36632
 C1317 C 0.79410 0.79333 0.33784
 C1318 C 0.78875 0.77963 0.31388
 H1319 H 0.76383 0.87590 0.38724
 H1320 H 0.80148 0.81315 0.45402
 H1321 H 0.78182 0.84120 0.50006
 H1322 H 0.74396 0.90390 0.43252
 C1323 C 0.28947 0.36236 0.92133
 C1324 C 0.27189 0.33895 0.91454
 C1325 C 0.24833 0.33290 0.93498
 C1326 C 0.24309 0.34954 0.96289
 C1327 C 0.26202 0.37189 0.97165
 C1328 C 0.28431 0.37899 0.94915
 C1329 C 0.27692 0.32212 0.88559
 C1330 C 0.27953 0.30807 0.86108
 C1331 C 0.27937 0.29169 0.83224
 C1332 C 0.27519 0.27796 0.80794
 H1333 H 0.30703 0.36799 0.90492
 H1334 H 0.23390 0.31539 0.92929
 H1335 H 0.22456 0.34453 0.97812
 H1336 H 0.29787 0.39756 0.95257
 C1337 C 0.83875 0.42273 0.77769
 C1338 C 0.81014 0.42069 0.76656
 C1339 C 0.79614 0.44477 0.75206
 C1340 C 0.81075 0.47087 0.74862
 C1341 C 0.83952 0.47356 0.76036
 C1342 C 0.85340 0.44870 0.77425
 C1343 C 0.79623 0.39315 0.76758
 C1344 C 0.78552 0.36959 0.76759
 C1345 C 0.77400 0.34160 0.76649
 C1346 C 0.76495 0.31741 0.76448
 H1347 H 0.85005 0.40398 0.78822
 H1348 H 0.77425 0.44312 0.74249
 H1349 H 0.79975 0.48844 0.73564
 H1350 H 0.87595 0.44927 0.78196
 C1351 C 0.29988 0.93583 0.24623
 C1352 C 0.31385 0.91194 0.26111
 C1353 C 0.34158 0.91463 0.27447
 C1354 C 0.35562 0.94099 0.27245
 C1355 C 0.34193 0.96555 0.25772
 C1356 C 0.31386 0.96236 0.24424
 C1357 C 0.30128 0.88386 0.25985
 C1358 C 0.29201 0.85980 0.25798
 C1359 C 0.28239 0.83127 0.25499
 C1360 C 0.27484 0.80670 0.25185
 H1361 H 0.27868 0.93366 0.23504
 H1362 H 0.35284 0.89602 0.28537
 H1363 H 0.37771 0.94202 0.28158
 H1364 H 0.30314 0.97982 0.23080
 C1365 C 0.16057 0.92158 0.71378
 C1366 C 0.18769 0.91680 0.72840
 C1367 C 0.20109 0.93944 0.74464
 C1368 C 0.18685 0.96657 0.74739
 C1369 C 0.15881 0.97159 0.73384
 C1370 C 0.14619 0.94847 0.71661
 C1371 C 0.19974 0.88775 0.73007
 C1372 C 0.20835 0.86294 0.73253
 C1373 C 0.21722 0.83365 0.73645
 C1374 C 0.22432 0.80858 0.74057
 H1375 H 0.14974 0.90400 0.70170
 H1376 H 0.22197 0.93577 0.75647
 H1377 H 0.19738 0.98295 0.76157
 H1378 H 0.12420 0.95049 0.70720
 C1379 C 0.70755 0.45190 0.22092
 C1380 C 0.69571 0.42496 0.22794
 C1381 C 0.66707 0.42353 0.23904
 C1382 C 0.65054 0.44881 0.24435
 C1383 C 0.66242 0.47662 0.23980
 C1384 C 0.69091 0.47742 0.22616
 C1385 C 0.71241 0.39834 0.22470
 C1386 C 0.72436 0.37479 0.22389
 C1387 C 0.73612 0.34629 0.22508
 C1388 C 0.74460 0.32148 0.22780
 H1389 H 0.72953 0.45321 0.21135
 H1390 H 0.65742 0.40268 0.24378
 H1391 H 0.62838 0.44595 0.25205
 H1392 H 0.70033 0.49772 0.21887
 C1393 C 0.70533 0.55552 0.27382
 C1394 C 0.69354 0.58278 0.26543
 C1395 C 0.66562 0.58509 0.25227
 C1396 C 0.64975 0.56033 0.24655
 C1397 C 0.66160 0.53214 0.25291
 C1398 C 0.68939 0.53055 0.26815
 C1399 C 0.70962 0.60881 0.26951
 C1400 C 0.72131 0.63183 0.27110
 C1401 C 0.73299 0.65976 0.27084
 C1402 C 0.74151 0.68418 0.26887
 H1403 H 0.72675 0.55354 0.28483
 H1404 H 0.65602 0.60622 0.24630
 H1405 H 0.62810 0.56391 0.23708
 H1406 H 0.69878 0.50999 0.27630
 C1407 C 0.18398 0.05813 0.78688
 C1408 C 0.19135 0.07634 0.76100
 C1409 C 0.18592 0.06784 0.72917
 C1410 C 0.17116 0.04244 0.72310
 C1411 C 0.16045 0.02508 0.74884
 C1412 C 0.16936 0.03239 0.78082
 C1413 C 0.20270 0.10470 0.76622
 C1414 C 0.21107 0.12920 0.76775
 C1415 C 0.21995 0.15823 0.76666
 C1416 C 0.22718 0.18303 0.76380
 H1417 H 0.18889 0.06410 0.81171
 H1418 H 0.19233 0.08138 0.70883
 H1419 H 0.16785 0.03745 0.69792
 H1420 H 0.16435 0.01867 0.80144
 C1421 C 0.30363 0.05510 0.26101
 C1422 C 0.31405 0.07558 0.23898
 C1423 C 0.33768 0.06849 0.21877
 C1424 C 0.35150 0.04125 0.22120
 C1425 C 0.34150 0.02018 0.24348
 C1426 C 0.31736 0.02778 0.26348
 C1427 C 0.30293 0.10491 0.23982
 C1428 C 0.29480 0.12986 0.24151
 C1429 C 0.28627 0.15923 0.24449
 C1430 C 0.27938 0.18437 0.24776
 H1431 H 0.28574 0.06069 0.27733
 H1432 H 0.34637 0.08454 0.20224
 H1433 H 0.37101 0.03747 0.20680
 H1434 H 0.30989 0.01296 0.28208
 C1435 C 0.80013 0.56239 0.76356
 C1436 C 0.80840 0.58208 0.73948
 C1437 C 0.83195 0.57525 0.71900
 C1438 C 0.84729 0.54885 0.72260
 C1439 C 0.83888 0.52825 0.74628
 C1440 C 0.81542 0.53595 0.76722
 C1441 C 0.79439 0.61030 0.73761
 C1442 C 0.78346 0.63435 0.73689
 C1443 C 0.77159 0.66285 0.73722
 C1444 C 0.76221 0.68746 0.73870
 H1445 H 0.78238 0.56781 0.78014
 H1446 H 0.83907 0.59076 0.70091
 H1447 H 0.86640 0.54521 0.70749
 H1448 H 0.80926 0.52162 0.78691
 C1449 C 0.92387 0.76337 0.14963
 C1450 C 0.92600 0.76503 0.18352
 C1451 C 0.95363 0.76527 0.19794
 C1452 C 0.97894 0.76257 0.17870
 C1453 C 0.97708 0.75850 0.14460
 C1454 C 0.94900 0.76061 0.13042
 C1455 C 0.89962 0.76524 0.20303
 C1456 C 0.87669 0.76437 0.21766
 C1457 C 0.84884 0.76218 0.23253
 C1458 C 0.82431 0.75929 0.24279
 H1459 H 0.90267 0.76361 0.13799
 H1460 H 0.95565 0.76727 0.22412
 H1461 H 0.99972 0.76370 0.19086
 H1462 H 0.94652 0.75891 0.10428
 C1463 C 0.41943 0.27434 0.65448
 C1464 C 0.41520 0.25435 0.67970
 C1465 C 0.43663 0.23281 0.68574
 C1466 C 0.46240 0.23177 0.66729
 C1467 C 0.46785 0.25280 0.64292
 C1468 C 0.44515 0.27336 0.63600
 C1469 C 0.38816 0.25510 0.69802
 C1470 C 0.36497 0.25554 0.71222
 C1471 C 0.33697 0.25543 0.72701
 C1472 C 0.31225 0.25435 0.73728
 H1473 H 0.40260 0.29053 0.64876
 H1474 H 0.43335 0.21666 0.70458
 H1475 H 0.47845 0.21468 0.67236
 H1476 H 0.44673 0.28855 0.61598
 C1477 C 0.41285 0.75626 0.84583
 C1478 C 0.41265 0.73648 0.82013
 C1479 C 0.43822 0.72064 0.81250
 C1480 C 0.46398 0.72523 0.82992
 C1481 C 0.46507 0.74651 0.85464
 C1482 C 0.43847 0.76089 0.86320
 C1483 C 0.38584 0.73262 0.80231
 C1484 C 0.36250 0.73094 0.78884
 C1485 C 0.33413 0.73084 0.77513
 C1486 C 0.30913 0.73253 0.76581
 H1487 H 0.39301 0.76807 0.85268
 H1488 H 0.43829 0.70474 0.79314
 H1489 H 0.48336 0.71242 0.82375
 H1490 H 0.43696 0.77552 0.88365
 C1491 C 0.92864 0.26211 0.33997
 C1492 C 0.92906 0.24246 0.31415
 C1493 C 0.95430 0.22541 0.30842
 C1494 C 0.97911 0.22861 0.32795
 C1495 C 0.97965 0.24962 0.35301
 C1496 C 0.95329 0.26535 0.35943
 C1497 C 0.90306 0.23983 0.29450
 C1498 C 0.88027 0.23923 0.27970
 C1499 C 0.85241 0.24038 0.26463
 C1500 C 0.82777 0.24307 0.25432
 H1501 H 0.90901 0.27485 0.34537
 H1502 H 0.95479 0.20958 0.28899
 H1503 H 0.99817 0.21483 0.32329
 H1504 H 0.95110 0.27990 0.37990
 C1505 C 0.08916 0.25949 0.35549
 C1506 C 0.08957 0.26388 0.32176
 C1507 C 0.06310 0.26608 0.30487
 C1508 C 0.03649 0.26297 0.32141
 C1509 C 0.03579 0.25661 0.35520
 C1510 C 0.06269 0.25635 0.37202
 C1511 C 0.11732 0.26526 0.30482
 C1512 C 0.14119 0.26538 0.29207
 C1513 C 0.16997 0.26416 0.27907
 C1514 C 0.19514 0.26171 0.27018
 H1515 H 0.10939 0.25816 0.36906
 H1516 H 0.06300 0.27014 0.27886
 H1517 H 0.01667 0.26584 0.30748
 H1518 H 0.06320 0.25287 0.39813
 C1519 C 0.57342 0.76176 0.84703
 C1520 C 0.57123 0.76529 0.81331
 C1521 C 0.54365 0.76623 0.79873
 C1522 C 0.51847 0.76248 0.81768
 C1523 C 0.52052 0.75668 0.85152
 C1524 C 0.54844 0.75794 0.86591
 C1525 C 0.59765 0.76668 0.79415
 C1526 C 0.62090 0.76665 0.78018
 C1527 C 0.64931 0.76519 0.76655
 C1528 C 0.67442 0.76268 0.75773
 H1529 H 0.59458 0.76141 0.85875
 H1530 H 0.54160 0.76962 0.77270
 H1531 H 0.49763 0.76424 0.80554
 H1532 H 0.55098 0.75491 0.89194
 C1533 C 0.57738 0.24291 0.64898
 C1534 C 0.57617 0.24803 0.68250
 C1535 C 0.54934 0.25516 0.69711
 C1536 C 0.52374 0.25641 0.67850
 C1537 C 0.52430 0.24971 0.64485
 C1538 C 0.55191 0.24416 0.63034
 C1539 C 0.60278 0.24696 0.70133
 C1540 C 0.62577 0.24633 0.71570
 C1541 C 0.65368 0.24626 0.73045
 C1542 C 0.67834 0.24718 0.74062
 H1543 H 0.59809 0.23805 0.63715
 H1544 H 0.54821 0.26008 0.72287
 H1545 H 0.50378 0.26318 0.69065
 H1546 H 0.55361 0.24029 0.60439
 C1547 C 0.08485 0.75857 0.14953
 C1548 C 0.08649 0.73818 0.17480
 C1549 C 0.06201 0.72179 0.18214
 C1550 C 0.03585 0.72650 0.16493
 C1551 C 0.03320 0.74847 0.14077
 C1552 C 0.05886 0.76332 0.13239
 C1553 C 0.11367 0.73431 0.19241
 C1554 C 0.13722 0.73269 0.20566
 C1555 C 0.16570 0.73254 0.21918
 C1556 C 0.19064 0.73391 0.22852
 H1557 H 0.10385 0.77079 0.14283
 H1558 H 0.06311 0.70538 0.20112
 H1559 H 0.01737 0.71328 0.17086
 H1560 H 0.05939 0.77846 0.11224
   
