data_POSCAR
  _audit_creation_date              2014-09-24
  _audit_creation_method            'ToBaCCo'
  _symmetry_space_group_name_H-M    'P1'
  _symmetry_Int_Tables_number       1
  _symmetry_cell_setting            triclinic
  loop_
  _symmetry_equiv_pos_as_xyz
 x,y,z
_cell_length_a 56.1142
_cell_length_b 55.7243
_cell_length_c 56.2058
_cell_angle_alpha 90.003800
_cell_angle_beta 90.043500
_cell_angle_gamma 90.048500
loop_
  _atom_site_label
  _atom_site_type_symbol
  _atom_site_fract_x
  _atom_site_fract_y
  _atom_site_fract_z
C1 C 0.30218 0.44987 0.91578
 N2 N 0.32223 0.45936 0.92542
 C3 C 0.33255 0.44920 0.94480
 N4 N 0.32259 0.42921 0.95458
 C5 C 0.30242 0.41958 0.94508
 N6 N 0.29237 0.42992 0.92564
 C7 C 0.44637 0.83428 0.44395
 N8 N 0.42664 0.82420 0.45387
 C9 C 0.41663 0.80429 0.44407
 N10 N 0.42637 0.79456 0.42421
 C11 C 0.44607 0.80440 0.41419
 N12 N 0.45597 0.82429 0.42410
 C13 C 0.94474 0.91754 0.80709
 N14 N 0.92428 0.92714 0.79829
 C15 C 0.91408 0.94641 0.80909
 N16 N 0.92438 0.95591 0.82884
 C17 C 0.94482 0.94640 0.83779
 N18 N 0.95485 0.92722 0.82682
 C19 C 0.44861 -0.08332 0.30387
 N20 N 0.45787 -0.07384 0.32420
 C21 C 0.44824 -0.05369 0.33391
 N22 N 0.42917 -0.04317 0.32329
 C23 C 0.41983 -0.05251 0.30299
 N24 N 0.42963 -0.07254 0.29343
 C25 C 0.80584 0.30010 0.33552
 N26 N 0.79526 0.31971 0.32577
 C27 C 0.80456 0.33024 0.30607
 N28 N 0.82469 0.32110 0.29617
 C29 C 0.83541 0.30152 0.30575
 N30 N 0.82596 0.29113 0.32549
 C31 C -0.19611 0.83502 0.80687
 N32 N -0.20533 0.82378 0.82623
 C33 C -0.19465 0.80389 0.83536
 N34 N -0.17457 0.79530 0.82493
 C35 C -0.16523 0.80634 0.80548
 N36 N -0.17603 0.82618 0.79660
 C37 C 0.94435 0.33499 0.44322
 N38 N 0.92538 0.32434 0.45389
 C39 C 0.91605 0.30372 0.44493
 N40 N 0.92573 0.29382 0.42503
 C41 C 0.94471 0.30441 0.41424
 N42 N 0.95385 0.32498 0.42340
 C43 C 0.44378 0.44878 0.83338
 N44 N 0.42419 0.45866 0.82316
 C45 C 0.41463 0.44907 0.80311
 N46 N 0.42475 0.42927 0.79325
 C47 C 0.44442 0.41923 0.80329
 N48 N 0.45380 0.42901 0.82336
 C49 C 0.80655 0.91431 0.94809
 N50 N 0.79597 0.92424 0.92867
 C51 C 0.80502 0.94440 0.91858
 N52 N 0.82492 0.95466 0.92796
 C53 C 0.83567 0.94494 0.94737
 N54 N 0.82637 0.92475 0.95732
 C55 C 0.30614 0.83431 0.30295
 N56 N 0.32620 0.82442 0.29348
 C57 C 0.33596 0.80441 0.30333
 N58 N 0.32564 0.79440 0.32278
 C59 C 0.30565 0.80406 0.33235
 N60 N 0.29600 0.82404 0.32240
 C61 C 0.80543 0.41409 0.44562
 N62 N 0.79506 0.42336 0.42586
 C63 C 0.80407 0.44329 0.41535
 N64 N 0.82377 0.45394 0.42467
 C65 C 0.83431 0.44483 0.44446
 N66 N 0.82512 0.42482 0.45486
 C67 C 0.94735 0.83309 -0.05466
 N68 N 0.92846 0.82146 -0.04490
 C69 C 0.91914 0.80167 -0.05556
 N70 N 0.92880 0.79357 -0.07618
 C71 C 0.94776 0.80500 -0.08614
 N72 N 0.95691 0.82476 -0.07531
 C73 C 0.29823 0.33143 0.79934
 N74 N 0.31745 0.32104 0.78895
 C75 C 0.32791 0.30154 0.79888
 N76 N 0.31900 0.29235 0.81942
 C77 C 0.29967 0.30245 0.82991
 N78 N 0.28940 0.32214 0.81991
 C79 C 0.16773 0.55341 0.55012
 N80 N 0.17620 0.54426 0.57087
 C81 C 0.19524 0.55446 0.58185
 N82 N 0.20572 0.57415 0.57206
 C83 C 0.19737 0.58338 0.55127
 N84 N 0.17841 0.57293 0.54042
 C85 C 0.58518 0.69785 0.05230
 N86 N 0.57530 0.70841 0.07168
 C87 C 0.55524 0.69932 0.08166
 N88 N 0.54500 0.67942 0.07211
 C89 C 0.55462 0.66873 0.05265
 N90 N 0.57483 0.67793 0.04285
 C91 C 0.69329 0.19515 0.66651
 N92 N 0.70336 0.17599 0.67760
 C93 C 0.69319 0.16660 0.69749
 N94 N 0.67281 0.17637 0.70613
 C95 C 0.66264 0.19552 0.69516
 N96 N 0.67292 0.20476 0.67534
 C97 C 1.08744 0.05272 0.19513
 N98 N 1.07666 0.07192 0.20553
 C99 C 1.05580 0.08059 0.19669
 N100 N 1.04583 0.07005 0.17732
 C101 C 1.05645 0.05092 0.16674
 N102 N 1.07723 0.04238 0.17574
 C103 C 0.05382 0.16581 1.05485
 N104 N 0.04443 0.17596 1.07477
 C105 C 0.05434 0.19613 1.08427
 N106 N 0.07379 0.20603 1.07371
 C107 C 0.08324 0.19604 1.05378
 N108 N 0.07320 0.17597 1.04451
 C109 C 0.16775 0.70093 0.69562
 N110 N 0.17774 0.68133 0.70589
 C111 C 0.19647 0.67010 0.69550
 N112 N 0.20527 0.67865 0.67464
 C113 C 0.19555 0.69836 0.66428
 N114 N 0.17666 0.70938 0.67475
 C115 C 1.19723 0.16695 0.19277
 N116 N 1.17758 0.17649 0.20327
 C117 C 1.16696 0.19625 0.19388
 N118 N 1.17598 0.20631 0.17383
 C119 C 1.19556 0.19693 0.16317
 N120 N 1.20610 0.17719 0.17273
 C121 C 0.66700 1.05190 0.55644
 N122 N 0.67701 1.07187 0.54675
 C123 C 0.69632 1.08235 0.55700
 N124 N 0.70570 1.07266 0.57717
 C125 C 0.69591 1.05263 0.58694
 N126 N 0.67655 1.04243 0.57655
 C127 C 0.55155 0.55192 0.16624
 N128 N 0.54265 0.57204 0.17652
 C129 C 0.55271 0.58110 0.19661
 N130 N 0.57191 0.56997 0.20629
 C131 C 0.58100 0.54983 0.19613
 N132 N 0.57081 0.54093 0.17606
 C133 C 0.66940 0.69657 0.19602
 N134 N 0.67982 0.70540 0.17604
 C135 C 0.69934 0.69451 0.16664
 N136 N 0.70827 0.67457 0.17725
 C137 C 0.69796 0.66554 0.19721
 N138 N 0.67851 0.67657 0.20648
 C139 C 0.16615 0.05321 1.05547
 N140 N 0.17658 0.04423 1.07538
 C141 C 0.19601 0.05512 1.08508
 N142 N 0.20494 0.07522 1.07467
 C143 C 0.19470 0.08435 1.05470
 N144 N 0.17532 0.07331 1.04523
 C145 C 0.58484 0.19628 0.55605
 N146 N 0.57407 0.20612 0.57536
 C147 C 0.55388 0.19618 0.58441
 N148 N 0.54459 0.17623 0.57410
 C149 C 0.55524 0.16626 0.55479
 N150 N 0.57538 0.17630 0.54590
 C151 C 0.08123 0.55495 0.69531
 N152 N 0.07084 0.57468 0.70496
 C153 C 0.05114 0.58448 0.69479
 N154 N 0.04195 0.57446 0.67481
 C155 C 0.05213 0.55473 0.66500
 N156 N 0.07187 0.54505 0.67524
 C157 C 0.66594 0.55104 0.05288
 N158 N 0.67640 0.57096 0.04359
 C159 C 0.69645 0.58018 0.05371
 N160 N 0.70586 0.56945 0.07327
 C161 C 0.69548 0.54955 0.08266
 N162 N 0.67551 0.54051 0.07243
 C163 C 0.05287 0.69947 0.58077
 N164 N 0.07267 0.70952 0.57095
 C165 C 0.08228 0.70011 0.55079
 N166 N 0.07209 0.68055 0.54063
 C167 C 0.05245 0.67031 0.55035
 N168 N 0.04293 0.67980 0.57048
 C169 C 0.55317 1.05230 0.66727
 N170 N 0.54279 1.07254 0.67598
 C171 C 0.55172 1.08358 0.69559
 N172 N 0.57127 1.07431 0.70651
 C173 C 0.58176 1.05409 0.69807
 N174 N 0.57267 1.04320 0.67840
 C175 C 0.44424 0.33556 0.94454
 N176 N 0.45412 0.32518 0.92496
 C177 C 0.44467 0.30466 0.91578
 N178 N 0.42519 0.29469 0.92616
 C179 C 0.41524 0.30493 0.94570
 N180 N 0.42482 0.32532 0.95474
 C181 C 0.94311 0.44402 0.33564
 N182 N 0.92291 0.45282 0.32558
 C183 C 0.91336 0.44221 0.30598
 N184 N 0.92410 0.42258 0.29652
 C185 C 0.94434 0.41364 0.30640
 N186 N 0.95373 0.42438 0.32594
 C187 C 0.30696 0.94918 0.41575
 N188 N 0.29610 0.92976 0.42557
 C189 C 0.30522 0.91925 0.44536
 N190 N 0.32544 0.92821 0.45529
 C191 C 0.33651 0.94759 0.44563
 N192 N 0.32718 0.95797 0.42579
 O193 O 0.31157 0.50118 0.77849
 O194 O 0.30247 0.54303 0.77672
 O195 O 0.24965 0.47208 0.81271
 O196 O 0.21029 0.47171 0.80629
 O197 O 0.27833 0.43801 0.75038
 O198 O 0.27628 0.44675 0.70871
 O199 O 0.18526 0.53240 0.74755
 O200 O 0.19261 0.52877 0.78887
 O201 O 0.24540 0.56447 0.71809
 O202 O 0.28877 0.55591 0.71965
 O203 O 0.21676 0.50297 0.68691
 O204 O 0.21873 0.45953 0.69600
 O205 O 0.18515 0.50353 0.71895
 O206 O 0.19378 0.45976 0.72166
 O207 O 0.24505 0.53218 0.68651
 O208 O 0.28853 0.53016 0.69461
 O209 O 0.21673 0.56442 0.74665
 O210 O 0.22014 0.55692 0.78962
 O211 O 0.31156 0.47177 0.75037
 O212 O 0.30244 0.47384 0.70842
 O213 O 0.25019 0.43803 0.77950
 O214 O 0.20757 0.44696 0.77580
 O215 O 0.27818 0.50115 0.81221
 O216 O 0.27608 0.54321 0.80294
 Zr217 Zr 0.27679 0.51527 0.77752
 O218 O 0.25562 0.53803 0.75646
 Zr219 Zr 0.23528 0.47270 0.77812
 O220 O 0.21204 0.49383 0.75736
 Zr221 Zr 0.27687 0.47284 0.73600
 O222 O 0.25539 0.49362 0.71318
 Zr223 Zr 0.21948 0.53039 0.76254
 O224 O 0.24063 0.50939 0.78575
 Zr225 Zr 0.26097 0.53020 0.72032
 O226 O 0.28453 0.50944 0.74132
 Zr227 Zr 0.21923 0.48783 0.72113
 O228 O 0.24073 0.46465 0.74193
 O229 O 0.27125 0.47883 0.77202
 O230 O 0.22478 0.52441 0.72633
 C231 C 0.32174 0.48428 0.76673
 C232 C 0.26628 0.48448 0.82261
 C233 C 0.26663 0.42781 0.76722
 C234 C 0.17526 0.52072 0.73057
 C235 C 0.22826 0.57440 0.72959
 C236 C 0.22805 0.52022 0.67680
 H237 H 0.25960 0.55491 0.76010
 H238 H 0.25911 0.48954 0.69648
 H239 H 0.28157 0.46877 0.78224
 H240 H 0.19531 0.49015 0.76148
 H241 H 0.19983 0.52105 0.80301
 H242 H 0.19619 0.48101 0.80118
 H243 H 0.28639 0.51584 0.68443
 H244 H 0.31025 0.48975 0.70936
 H245 H 0.23426 0.56724 0.78714
 H246 H 0.26032 0.54236 0.81080
 H247 H 0.23293 0.46130 0.68573
 H248 H 0.26042 0.43899 0.70944
 H249 H 0.30982 0.54255 0.76072
 H250 H 0.28687 0.56644 0.73368
 H251 H 0.20999 0.43800 0.76079
 H252 H 0.18339 0.46220 0.73566
 O253 O 0.25536 -0.02812 0.31228
 O254 O 0.21343 -0.02639 0.30359
 O255 O 0.28385 -0.06271 0.25074
 O256 O 0.28338 -0.05676 0.21132
 O257 O 0.31707 0.00045 0.27884
 O258 O 0.30823 0.04258 0.27571
 O259 O 0.22231 0.00251 0.18627
 O260 O 0.22700 -0.03946 0.19350
 O261 O 0.19098 0.03186 0.24593
 O262 O 0.19962 0.03065 0.28917
 O263 O 0.25168 0.06354 0.21693
 O264 O 0.29498 0.05472 0.21894
 O265 O 0.25137 0.03097 0.18564
 O266 O 0.29469 0.02884 0.19403
 O267 O 0.22281 0.06390 0.24527
 O268 O 0.22517 0.05601 0.28888
 O269 O 0.19091 0.00232 0.21801
 O270 O 0.19899 -0.04050 0.22107
 O271 O 0.28357 0.00126 0.31192
 O272 O 0.28170 0.04316 0.30217
 O273 O 0.31712 -0.02868 0.25045
 O274 O 0.30782 -0.02584 0.20802
 O275 O 0.25513 -0.06226 0.27933
 O276 O 0.21325 -0.05339 0.27756
 Zr277 Zr 0.24073 -0.02742 0.27771
 O278 O 0.21774 -0.00663 0.25647
 Zr279 Zr 0.28255 -0.02802 0.23592
 O280 O 0.26126 -0.00743 0.21267
 Zr281 Zr 0.28245 0.01493 0.27705
 O282 O 0.26137 0.03753 0.25564
 Zr283 Zr 0.22506 -0.01292 0.22033
 O284 O 0.24623 -0.03598 0.24159
 Zr285 Zr 0.22513 0.02996 0.26144
 O286 O 0.24621 0.00925 0.28502
 Zr287 Zr 0.26701 0.02921 0.21961
 O288 O 0.29035 0.00859 0.24101
 O289 O 0.27677 -0.02152 0.27183
 O290 O 0.23075 0.02368 0.22535
 C291 C 0.27182 -0.01555 0.32227
 C292 C 0.27179 -0.07267 0.26754
 C293 C 0.32724 -0.01640 0.26696
 C294 C 0.23400 0.01950 0.17606
 C295 C 0.18098 0.01971 0.22921
 C296 C 0.23451 0.07366 0.22818
 H297 H 0.20106 -0.01048 0.26056
 H298 H 0.26527 0.05444 0.25921
 H299 H 0.28694 -0.03160 0.28217
 H300 H 0.26481 -0.01166 0.19597
 H301 H 0.23457 -0.05372 0.20080
 H302 H 0.27427 -0.05172 0.19711
 H303 H 0.23900 0.06672 0.28632
 H304 H 0.26583 0.04255 0.30983
 H305 H 0.18949 -0.03869 0.23576
 H306 H 0.21405 -0.06154 0.26193
 H307 H 0.29312 0.06527 0.23297
 H308 H 0.31614 0.04125 0.26002
 H309 H 0.21413 -0.01026 0.31094
 H310 H 0.18952 0.01619 0.28760
 H311 H 0.31655 -0.01053 0.21011
 H312 H 0.29251 0.01446 0.18395
 O313 O 0.50474 0.68747 0.21826
 O314 O 0.46286 0.69583 0.21985
 O315 O 0.53226 0.75149 0.18563
 O316 O 0.53240 0.79084 0.19316
 O317 O 0.56628 0.72120 0.24745
 O318 O 0.55749 0.72293 0.28923
 O319 O 0.47094 0.81342 0.25164
 O320 O 0.47514 0.80685 0.21001
 O321 O 0.43985 0.75166 0.27932
 O322 O 0.44908 0.70818 0.27689
 O323 O 0.49972 0.78112 0.31173
 O324 O 0.54311 0.77974 0.30343
 O325 O 0.49942 0.81343 0.28044
 O326 O 0.54296 0.80544 0.27816
 O327 O 0.47173 0.75161 0.31132
 O328 O 0.47440 0.70810 0.30206
 O329 O 0.43963 0.78130 0.25153
 O330 O 0.44733 0.77893 0.20872
 O331 O 0.53312 0.68738 0.24723
 O332 O 0.53119 0.69600 0.28912
 O333 O 0.56601 0.75044 0.21919
 O334 O 0.55634 0.79321 0.22386
 O335 O 0.50459 0.72160 0.18533
 O336 O 0.46265 0.72297 0.19390
 Zr337 Zr 0.48998 0.72219 0.21980
 O338 O 0.46671 0.74263 0.24102
 Zr339 Zr 0.53134 0.76489 0.22062
 O340 O 0.50971 0.78739 0.24166
 Zr341 Zr 0.53166 0.72212 0.26185
 O342 O 0.51030 0.74274 0.28487
 Zr343 Zr 0.47361 0.77934 0.23589
 O344 O 0.49511 0.75893 0.21247
 Zr345 Zr 0.47418 0.73657 0.27711
 O346 O 0.49554 0.71375 0.25591
 Zr347 Zr 0.51545 0.77942 0.27779
 O348 O 0.53912 0.75877 0.25676
 O349 O 0.52595 0.72841 0.22588
 O350 O 0.47930 0.77325 0.27202
 C351 C 0.52130 0.67723 0.23042
 C352 C 0.52075 0.73447 0.17530
 C353 C 0.57631 0.73359 0.23093
 C354 C 0.48229 0.82334 0.26889
 C355 C 0.42979 0.76909 0.26825
 C356 C 0.48286 0.76895 0.32144
 H357 H 0.45006 0.73841 0.23711
 H358 H 0.51420 0.73867 0.30153
 H359 H 0.53619 0.71839 0.21555
 H360 H 0.51312 0.80439 0.23794
 H361 H 0.48282 0.79986 0.19574
 H362 H 0.52247 0.80455 0.19829
 H363 H 0.48838 0.71029 0.31255
 H364 H 0.51550 0.68792 0.28814
 H365 H 0.43766 0.76421 0.21051
 H366 H 0.46325 0.73909 0.18652
 H367 H 0.54137 0.76522 0.31339
 H368 H 0.56495 0.73902 0.28864
 H369 H 0.46348 0.68797 0.23563
 H370 H 0.43883 0.71015 0.26271
 H371 H 0.56530 0.79045 0.23879
 H372 H 0.54061 0.81610 0.26429
 O373 O 0.06320 0.72244 0.74556
 O374 O 0.05489 0.72389 0.78728
 O375 O -0.00025 0.68938 0.71789
 O376 O -0.03923 0.69688 0.71735
 O377 O 0.03002 0.75187 0.68404
 O378 O 0.02817 0.79391 0.69283
 O379 O -0.06177 0.75574 0.77941
 O380 O -0.05543 0.71398 0.77513
 O381 O -0.00050 0.78395 0.81022
 O382 O 0.04252 0.78178 0.80103
 O383 O -0.03019 0.81634 0.75053
 O384 O -0.02885 0.80839 0.70747
 O385 O -0.06204 0.78443 0.75065
 O386 O -0.05363 0.78217 0.70691
 O387 O -0.00077 0.81615 0.77835
 O388 O 0.04262 0.80696 0.77556
 O389 O -0.02976 0.75570 0.81043
 O390 O -0.02727 0.71231 0.80246
 O391 O 0.06340 0.75149 0.71709
 O392 O 0.05480 0.79390 0.71939
 O393 O 0.00092 0.72340 0.68420
 O394 O -0.04174 0.72793 0.69392
 O395 O 0.02940 0.68913 0.74556
 O396 O 0.02788 0.69783 0.78751
 Zr397 Zr 0.02874 0.72390 0.76019
 O398 O 0.00845 0.74531 0.78341
 Zr399 Zr -0.01355 0.72466 0.71879
 O400 O -0.03597 0.74571 0.74045
 Zr401 Zr 0.02892 0.76632 0.71862
 O402 O 0.00825 0.78947 0.73986
 Zr403 Zr -0.02795 0.73995 0.77649
 O404 O -0.00771 0.71640 0.75496
 Zr405 Zr 0.01438 0.78174 0.77592
 O406 O 0.03713 0.76033 0.75469
 Zr407 Zr -0.02817 0.78217 0.73473
 O408 O -0.00748 0.76112 0.71109
 O409 O 0.02266 0.73002 0.72427
 O410 O -0.02202 0.77641 0.77081
 C411 C 0.07340 0.73454 0.72898
 C412 C 0.01664 0.67899 0.72940
 C413 C 0.01770 0.73524 0.67398
 C414 C -0.07177 0.77293 0.76791
 C415 C -0.01768 0.77261 0.82028
 C416 C -0.01815 0.82620 0.76736
 H417 H 0.01267 0.74138 0.80002
 H418 H 0.01221 0.80630 0.73598
 H419 H 0.03261 0.71961 0.71405
 H420 H -0.05284 0.74187 0.73704
 H421 H -0.04867 0.69964 0.76723
 H422 H -0.05267 0.70172 0.72765
 H423 H 0.04025 0.81767 0.76172
 H424 H 0.06299 0.79264 0.73495
 H425 H -0.01296 0.71452 0.81250
 H426 H 0.01198 0.69017 0.78672
 H427 H -0.01410 0.81802 0.70878
 H428 H 0.01213 0.79341 0.68549
 H429 H 0.06260 0.73987 0.78681
 H430 H 0.04079 0.76732 0.81108
 H431 H -0.03882 0.74280 0.68473
 H432 H -0.06455 0.76848 0.70954
 O433 O 0.00286 0.06205 0.03339
 O434 O -0.03894 0.05376 0.03156
 O435 O 0.03033 -0.00204 0.06581
 O436 O 0.03057 -0.04126 0.05828
 O437 O 0.06435 0.02856 0.00421
 O438 O 0.05582 0.02692 -0.03752
 O439 O -0.03124 -0.06379 -0.00048
 O440 O -0.02722 -0.05738 0.04104
 O441 O -0.06193 -0.00181 -0.02837
 O442 O -0.05269 0.04128 -0.02621
 O443 O -0.00158 -0.03140 -0.06042
 O444 O 0.04138 -0.03050 -0.05184
 O445 O -0.00256 -0.06379 -0.02903
 O446 O 0.04125 -0.05578 -0.02626
 O447 O -0.03014 -0.00250 -0.06005
 O448 O -0.02670 0.04153 -0.05085
 O449 O -0.06230 -0.03151 -0.00064
 O450 O -0.05462 -0.02911 0.04246
 O451 O 0.03103 0.06228 0.00426
 O452 O 0.02939 0.05356 -0.03771
 O453 O 0.06408 -0.00078 0.03237
 O454 O 0.05423 -0.04374 0.02751
 O455 O 0.00277 0.02791 0.06608
 O456 O -0.03939 0.02627 0.05729
 Zr457 Zr -0.01193 0.02734 0.03157
 O458 O -0.03516 0.00699 0.01012
 Zr459 Zr 0.02940 -0.01532 0.03082
 O460 O 0.00772 -0.03782 0.00977
 Zr461 Zr 0.02980 0.02753 -0.01035
 O462 O 0.00861 0.00682 -0.03349
 Zr463 Zr -0.02839 -0.02972 0.01530
 O464 O -0.00685 -0.00941 0.03885
 Zr465 Zr -0.02753 0.01300 -0.02598
 O466 O -0.00632 0.03583 -0.00453
 Zr467 Zr 0.01369 -0.02985 -0.02630
 O468 O 0.03731 -0.00911 -0.00525
 O469 O 0.02404 0.02116 0.02559
 O470 O -0.02248 -0.02367 -0.02079
 C471 C 0.01934 0.07235 0.02118
 C472 C 0.01895 0.01504 0.07610
 C473 C 0.07437 0.01615 0.02072
 C474 C -0.01983 -0.07370 -0.01766
 C475 C -0.07205 -0.01925 -0.01739
 C476 C -0.01866 -0.01964 -0.07015
 H477 H -0.05180 0.01124 0.01392
 H478 H 0.01260 0.01085 -0.05014
 H479 H 0.03426 0.03119 0.03595
 H480 H 0.01105 -0.05482 0.01352
 H481 H -0.01937 -0.05056 0.05531
 H482 H 0.02030 -0.05481 0.05332
 H483 H -0.01338 0.03856 -0.06199
 H484 H 0.01368 0.06157 -0.03685
 H485 H -0.06454 -0.01462 0.04033
 H486 H -0.03854 0.01026 0.06487
 H487 H 0.04033 -0.01555 -0.06126
 H488 H 0.06331 0.01085 -0.03692
 H489 H -0.03833 0.06160 0.01577
 H490 H -0.06246 0.03986 -0.01164
 H491 H 0.06349 -0.04075 0.01282
 H492 H 0.03844 -0.06679 -0.01275
 O493 O 0.00154 0.56535 0.52835
 O494 O -0.04032 0.55666 0.52662
 O495 O 0.03022 0.50254 0.56126
 O496 O 0.03003 0.46297 0.55447
 O497 O 0.06317 0.53199 0.49873
 O498 O 0.05399 0.53006 0.45719
 O499 O -0.03149 0.43874 0.49601
 O500 O -0.02693 0.44549 0.53748
 O501 O -0.06309 0.49994 0.46800
 O502 O -0.05434 0.54332 0.46973
 O503 O -0.00317 0.47054 0.43582
 O504 O 0.04039 0.47275 0.44387
 O505 O -0.00256 0.43862 0.46770
 O506 O 0.04072 0.44738 0.46930
 O507 O -0.03147 0.49971 0.43589
 O508 O -0.02892 0.54350 0.44463
 O509 O -0.06281 0.47055 0.49606
 O510 O -0.05470 0.47351 0.53906
 O511 O 0.02955 0.56554 0.49906
 O512 O 0.02742 0.55651 0.45724
 O513 O 0.06336 0.50333 0.52756
 O514 O 0.05421 0.46043 0.52363
 O515 O 0.00136 0.53123 0.56151
 O516 O -0.04046 0.52985 0.55273
 Zr517 Zr -0.01305 0.53051 0.52696
 O518 O -0.03615 0.50951 0.50604
 Zr519 Zr 0.02886 0.48842 0.52655
 O520 O 0.00739 0.46536 0.50585
 Zr521 Zr 0.02840 0.53067 0.48476
 O522 O 0.00723 0.50946 0.46205
 Zr523 Zr -0.02880 0.47296 0.51157
 O524 O -0.00743 0.49393 0.53471
 Zr525 Zr -0.02890 0.51528 0.46986
 O526 O -0.00776 0.53864 0.49076
 Zr527 Zr 0.01286 0.47297 0.46961
 O528 O 0.03636 0.49420 0.49030
 O529 O 0.02298 0.52474 0.52084
 O530 O -0.02333 0.47874 0.47538
 C531 C 0.01788 0.57568 0.51595
 C532 C 0.01807 0.51914 0.57153
 C533 C 0.07343 0.52002 0.51535
 C534 C -0.01978 0.42870 0.47907
 C535 C -0.07288 0.48251 0.47930
 C536 C -0.02024 0.48232 0.42601
 H537 H -0.05282 0.51357 0.50998
 H538 H 0.01101 0.51335 0.44532
 H539 H 0.03319 0.53498 0.53101
 H540 H 0.01101 0.44845 0.50975
 H541 H -0.01908 0.45254 0.55163
 H542 H 0.02066 0.44885 0.54932
 H543 H -0.01518 0.54110 0.43388
 H544 H 0.01166 0.56441 0.45824
 H545 H -0.06506 0.48765 0.53669
 H546 H -0.03991 0.51378 0.56020
 H547 H 0.03815 0.48685 0.43344
 H548 H 0.06141 0.51395 0.45761
 H549 H -0.03964 0.56449 0.51082
 H550 H -0.06415 0.54172 0.48425
 H551 H 0.06305 0.46310 0.50862
 H552 H 0.03887 0.43710 0.48352
 O553 O 0.56597 0.02848 0.50282
 O554 O 0.55740 0.02664 0.46091
 O555 O 0.50384 0.06206 0.53117
 O556 O 0.46449 0.05544 0.53127
 O557 O 0.53266 -0.00127 0.56418
 O558 O 0.53013 -0.04328 0.55483
 O559 O 0.43993 -0.00287 0.46974
 O560 O 0.44712 0.03892 0.47456
 O561 O 0.49994 -0.03182 0.43800
 O562 O 0.54342 -0.03002 0.44655
 O563 O 0.47106 -0.06419 0.49776
 O564 O 0.47322 -0.05620 0.54117
 O565 O 0.43961 -0.03181 0.49826
 O566 O 0.44827 -0.03027 0.54158
 O567 O 0.50009 -0.06421 0.46958
 O568 O 0.54339 -0.05571 0.47159
 O569 O 0.47161 -0.00267 0.43830
 O570 O 0.47468 0.04031 0.44665
 O571 O 0.56591 -0.00119 0.53066
 O572 O 0.55659 -0.04328 0.52836
 O573 O 0.50447 0.02806 0.56432
 O574 O 0.46186 0.02432 0.55535
 O575 O 0.53253 0.06212 0.50255
 O576 O 0.53112 0.05342 0.46081
 Zr577 Zr 0.53142 0.02733 0.48811
 O578 O 0.51029 0.00659 0.46497
 Zr579 Zr 0.48958 0.02714 0.52993
 O580 O 0.46646 0.00653 0.50849
 Zr581 Zr 0.53114 -0.01535 0.52940
 O582 O 0.50989 -0.03796 0.50811
 Zr583 Zr 0.47406 0.01249 0.47242
 O584 O 0.49518 0.03550 0.49376
 Zr585 Zr 0.51564 -0.03000 0.47203
 O586 O 0.53908 -0.00929 0.49328
 Zr587 Zr 0.47370 -0.03012 0.51378
 O588 O 0.49497 -0.00950 0.53732
 O589 O 0.52559 0.02109 0.52405
 O590 O 0.47942 -0.02413 0.47766
 C591 C 0.57609 0.01589 0.51916
 C592 C 0.52050 0.07230 0.51914
 C593 C 0.52095 0.01565 0.57440
 C594 C 0.42983 -0.02005 0.48122
 C595 C 0.48296 -0.01986 0.42822
 C596 C 0.48278 -0.07413 0.48078
 H597 H 0.51431 0.01061 0.44834
 H598 H 0.51363 -0.05488 0.51182
 H599 H 0.53583 0.03127 0.53426
 H600 H 0.44971 0.01058 0.51213
 H601 H 0.45435 0.05309 0.48240
 H602 H 0.45036 0.05035 0.52202
 H603 H 0.54140 -0.06617 0.48567
 H604 H 0.56445 -0.04227 0.51263
 H605 H 0.48905 0.03829 0.43669
 H606 H 0.51529 0.06122 0.46143
 H607 H 0.48732 -0.06662 0.53908
 H608 H 0.51425 -0.04248 0.56244
 H609 H 0.56495 0.01060 0.46159
 H610 H 0.54147 -0.01566 0.43639
 H611 H 0.46435 0.00908 0.56406
 H612 H 0.43812 -0.01590 0.53969
 O613 O 0.56218 0.53119 0.00019
 O614 O 0.55341 0.52984 -0.04160
 O615 O 0.50007 0.56546 0.02860
 O616 O 0.46071 0.55916 0.02860
 O617 O 0.52845 0.50208 0.06169
 O618 O 0.52558 0.46004 0.05254
 O619 O 0.43588 0.50092 -0.03272
 O620 O 0.44359 0.54284 -0.02805
 O621 O 0.49583 0.47152 -0.06447
 O622 O 0.53921 0.47285 -0.05582
 O623 O 0.46694 0.43924 -0.00428
 O624 O 0.46868 0.44781 0.03903
 O625 O 0.43545 0.47165 -0.00454
 O626 O 0.44358 0.47353 0.03875
 O627 O 0.49537 0.43915 -0.03307
 O628 O 0.53894 0.44728 -0.03056
 O629 O 0.46774 0.50091 -0.06433
 O630 O 0.47076 0.54348 -0.05630
 O631 O 0.56177 0.50156 0.02807
 O632 O 0.55202 0.45967 0.02617
 O633 O 0.50005 0.53121 0.06188
 O634 O 0.45758 0.52815 0.05250
 O635 O 0.52946 0.56513 0.00070
 O636 O 0.52715 0.55689 -0.04135
 Zr637 Zr 0.52755 0.53054 -0.01428
 O638 O 0.50636 0.50986 -0.03746
 Zr639 Zr 0.48556 0.53064 0.02734
 O640 O 0.46238 0.51016 0.00587
 Zr641 Zr 0.52684 0.48785 0.02698
 O642 O 0.50550 0.46534 0.00569
 Zr643 Zr 0.47015 0.51601 -0.03017
 O644 O 0.49135 0.53895 -0.00881
 Zr645 Zr 0.51138 0.47320 -0.03040
 O646 O 0.53490 0.49383 -0.00912
 Zr647 Zr 0.46937 0.47348 0.01128
 O648 O 0.49070 0.49399 0.03482
 O649 O 0.52157 0.52432 0.02164
 O650 O 0.47519 0.47936 -0.02485
 C651 C 0.57216 0.51844 0.01647
 C652 C 0.51722 0.57545 0.01711
 C653 C 0.51651 0.51884 0.07196
 C654 C 0.42572 0.48365 -0.02147
 C655 C 0.47900 0.48361 -0.07434
 C656 C 0.47829 0.42924 -0.02144
 H657 H 0.51048 0.51382 -0.05408
 H658 H 0.50912 0.44841 0.00946
 H659 H 0.53190 0.53433 0.03191
 H660 H 0.44565 0.51434 0.00944
 H661 H 0.45110 0.55704 -0.02053
 H662 H 0.44670 0.55430 0.01905
 H663 H 0.53643 0.43648 -0.01682
 H664 H 0.55969 0.46031 0.01033
 H665 H 0.48586 0.54222 -0.06524
 H666 H 0.51158 0.56515 -0.04018
 H667 H 0.48278 0.43735 0.03717
 H668 H 0.50982 0.46118 0.06035
 H669 H 0.56074 0.51369 -0.04113
 H670 H 0.53746 0.48726 -0.06594
 H671 H 0.45968 0.51276 0.06105
 H672 H 0.43347 0.48790 0.03667
 O673 O 0.81555 0.24787 0.47193
 O674 O 0.80626 0.20576 0.47508
 O675 O 0.75406 0.27701 0.43862
 O676 O 0.71469 0.27744 0.44504
 O677 O 0.78380 0.31097 0.50020
 O678 O 0.78149 0.30267 0.54213
 O679 O 0.68916 0.21788 0.50499
 O680 O 0.69617 0.22141 0.46323
 O681 O 0.74894 0.18514 0.53384
 O682 O 0.79223 0.19290 0.53212
 O683 O 0.72173 0.24763 0.56478
 O684 O 0.72438 0.29088 0.55524
 O685 O 0.68980 0.24732 0.53299
 O686 O 0.69913 0.29076 0.52993
 O687 O 0.74917 0.21765 0.56517
 O688 O 0.79296 0.21922 0.55666
 O689 O 0.72021 0.18539 0.50529
 O690 O 0.72287 0.19237 0.46274
 O691 O 0.81634 0.27652 0.50080
 O692 O 0.80741 0.27543 0.54258
 O693 O 0.75469 0.31111 0.47197
 O694 O 0.71223 0.30251 0.47521
 O695 O 0.78200 0.24742 0.43897
 O696 O 0.77958 0.20544 0.44870
 Zr697 Zr 0.78077 0.23364 0.47383
 O698 O 0.75934 0.21131 0.49519
 Zr699 Zr 0.73972 0.27655 0.47321
 O700 O 0.71636 0.25601 0.49434
 Zr701 Zr 0.78170 0.27631 0.51508
 O702 O 0.76018 0.25595 0.53821
 Zr703 Zr 0.72321 0.21934 0.48939
 O704 O 0.74456 0.23977 0.46582
 Zr705 Zr 0.76506 0.21922 0.53128
 O706 O 0.78879 0.23957 0.50998
 Zr707 Zr 0.72409 0.26229 0.53043
 O708 O 0.74566 0.28494 0.50924
 O709 O 0.77567 0.27014 0.47915
 O710 O 0.72893 0.22557 0.52550
 C711 C 0.82608 0.26445 0.48394
 C712 C 0.77039 0.26433 0.42863
 C713 C 0.77159 0.32121 0.48370
 C714 C 0.67952 0.23010 0.52183
 C715 C 0.73163 0.17536 0.52239
 C716 C 0.73258 0.23013 0.57491
 H717 H 0.76301 0.19436 0.49163
 H718 H 0.76412 0.26008 0.55485
 H719 H 0.78597 0.28008 0.46880
 H720 H 0.69966 0.25992 0.49033
 H721 H 0.70357 0.22842 0.44882
 H722 H 0.70043 0.26846 0.45031
 H723 H 0.79065 0.23319 0.56726
 H724 H 0.81464 0.25924 0.54215
 H725 H 0.73749 0.18264 0.46441
 H726 H 0.76380 0.20640 0.44087
 H727 H 0.73866 0.28900 0.56540
 H728 H 0.76593 0.31096 0.54102
 H729 H 0.81408 0.20686 0.49084
 H730 H 0.79062 0.18293 0.51766
 H731 H 0.71457 0.31142 0.49027
 H732 H 0.68854 0.28839 0.51605
 O733 O 0.78489 0.80997 -0.00121
 O734 O 0.78387 0.80070 0.04030
 O735 O 0.81692 0.74647 -0.03064
 O736 O 0.80927 0.70711 -0.03118
 O737 O 0.75480 0.77758 -0.06316
 O738 O 0.71313 0.77614 -0.05397
 O739 O 0.75124 0.68359 0.03048
 O740 O 0.79277 0.68995 0.02594
 O741 O 0.72389 0.74479 0.06269
 O742 O 0.72638 0.78829 0.05443
 O743 O 0.69068 0.71679 0.00244
 O744 O 0.69874 0.71850 -0.04056
 O745 O 0.72199 0.68425 0.00247
 O746 O 0.72420 0.69301 -0.04118
 O747 O 0.69166 0.74548 0.03118
 O748 O 0.70119 0.78917 0.02909
 O749 O 0.75195 0.71538 0.06225
 O750 O 0.79472 0.71750 0.05394
 O751 O 0.75595 0.81071 -0.02961
 O752 O 0.71375 0.80243 -0.02700
 O753 O 0.78292 0.74818 -0.06379
 O754 O 0.77815 0.70523 -0.05479
 O755 O 0.81765 0.77576 -0.00240
 O756 O 0.80956 0.77332 0.03969
 Zr757 Zr 0.78334 0.77494 0.01270
 O758 O 0.76216 0.75420 0.03573
 Zr759 Zr 0.78185 0.73309 -0.02941
 O760 O 0.76091 0.71027 -0.00798
 Zr761 Zr 0.74083 0.77611 -0.02845
 O762 O 0.71785 0.75509 -0.00738
 Zr763 Zr 0.76711 0.71764 0.02813
 O764 O 0.79046 0.73830 0.00677
 Zr765 Zr 0.72595 0.76052 0.02871
 O766 O 0.74718 0.78369 0.00769
 Zr767 Zr 0.72470 0.71847 -0.01321
 O768 O 0.74560 0.73957 -0.03666
 O769 O 0.77685 0.76948 -0.02326
 O770 O 0.73087 0.72393 0.02293
 C771 C 0.77290 0.82054 -0.01763
 C772 C 0.82743 0.76328 -0.01899
 C773 C 0.77114 0.76531 -0.07359
 C774 C 0.73374 0.67397 0.01927
 C775 C 0.73525 0.72732 0.07240
 C776 C 0.68122 0.72859 0.01965
 H777 H 0.76625 0.75811 0.05238
 H778 H 0.70115 0.75930 -0.01107
 H779 H 0.78712 0.77964 -0.03343
 H780 H 0.76453 0.69332 -0.01169
 H781 H 0.80698 0.69691 0.01808
 H782 H 0.80414 0.69319 -0.02155
 H783 H 0.69042 0.78714 0.01530
 H784 H 0.71524 0.81037 -0.01132
 H785 H 0.79322 0.73213 0.06377
 H786 H 0.81719 0.75736 0.03835
 H787 H 0.68930 0.73339 -0.03898
 H788 H 0.71346 0.76019 -0.06172
 H789 H 0.76801 0.80846 0.04024
 H790 H 0.74077 0.78617 0.06438
 H791 H 0.76312 0.70823 -0.06353
 H792 H 0.73770 0.68188 -0.03875
 O793 O 1.06499 0.21799 0.24878
 O794 O 1.05611 0.21948 0.29066
 O795 O 1.00262 0.18440 0.22022
 O796 O 0.96335 0.19123 0.21958
 O797 O 1.03185 0.24786 0.18728
 O798 O 1.02950 0.28977 0.19660
 O799 O 0.93893 0.24958 0.28132
 O800 O 0.94599 0.20769 0.27658
 O801 O 0.99950 0.27786 0.31341
 O802 O 1.04259 0.27662 0.30480
 O803 O 0.97035 0.31068 0.25346
 O804 O 0.97267 0.30270 0.20997
 O805 O 0.93879 0.27841 0.25268
 O806 O 0.94753 0.27693 0.20952
 O807 O 0.99908 0.31051 0.28199
 O808 O 1.04267 0.30205 0.27960
 O809 O 0.97028 0.24956 0.31284
 O810 O 0.97352 0.20637 0.30469
 O811 O 1.06505 0.24782 0.22110
 O812 O 1.05574 0.28983 0.22314
 O813 O 1.00369 0.21845 0.18693
 O814 O 0.96092 0.22235 0.19580
 O815 O 1.03183 0.18439 0.24834
 O816 O 1.02959 0.19265 0.29024
 Zr817 Zr 1.03034 0.21901 0.26321
 O818 O 1.00928 0.23982 0.28631
 Zr819 Zr 0.98861 0.21941 0.22126
 O820 O 0.96553 0.24003 0.24268
 Zr821 Zr 1.03029 0.26185 0.22205
 O822 O 1.00909 0.28448 0.24324
 Zr823 Zr 0.97300 0.23409 0.27881
 O824 O 0.99405 0.21101 0.25746
 Zr825 Zr 1.01481 0.27640 0.27929
 O826 O 1.03818 0.25563 0.25815
 Zr827 Zr 0.97292 0.27666 0.23740
 O828 O 0.99415 0.25604 0.21392
 O829 O 1.02462 0.22539 0.22727
 O830 O 0.97857 0.27066 0.27354
 C831 C 1.07518 0.23073 0.23263
 C832 C 1.01955 0.17421 0.23185
 C833 C 1.02021 0.23093 0.17696
 C834 C 0.92894 0.26675 0.26974
 C835 C 0.98214 0.26642 0.32304
 C836 C 0.98189 0.32051 0.27065
 H837 H 1.01329 0.23579 0.30295
 H838 H 1.01288 0.30140 0.23958
 H839 H 1.03490 0.21528 0.21708
 H840 H 0.94878 0.23601 0.23898
 H841 H 0.95322 0.19347 0.26887
 H842 H 0.94944 0.19613 0.22920
 H843 H 1.04021 0.31303 0.26599
 H844 H 1.06343 0.28896 0.23897
 H845 H 0.98781 0.20850 0.31476
 H846 H 1.01371 0.18494 0.28937
 H847 H 0.98666 0.31326 0.21228
 H848 H 1.01360 0.28909 0.18898
 H849 H 1.06394 0.23539 0.28995
 H850 H 1.04113 0.26185 0.31445
 H851 H 0.96363 0.23747 0.18695
 H852 H 0.93746 0.26246 0.21123
 O853 O 0.74658 1.06461 0.72417
 O854 O 0.78837 1.05593 0.72632
 O855 O 0.71874 1.00128 0.69096
 O856 O 0.71756 0.96200 0.69818
 O857 O 0.68452 1.03141 0.75311
 O858 O 0.69320 1.02958 0.79477
 O859 O 0.77887 0.93813 0.75694
 O860 O 0.77505 0.94496 0.71544
 O861 O 0.81045 0.99945 0.78531
 O862 O 0.80168 1.04265 0.78383
 O863 O 0.74954 0.97016 0.81705
 O864 O 0.70653 0.97185 0.80831
 O865 O 0.74996 0.93808 0.78527
 O866 O 0.70640 0.94680 0.78254
 O867 O 0.77857 0.99863 0.81704
 O868 O 0.77576 1.04277 0.80849
 O869 O 0.81044 0.96992 0.75738
 O870 O 0.80293 0.97284 0.71438
 O871 O 0.71820 1.06492 0.75309
 O872 O 0.71996 1.05594 0.79502
 O873 O 0.68473 1.00283 0.72419
 O874 O 0.69375 0.95966 0.72873
 O875 O 0.74664 1.03096 0.69117
 O876 O 0.78863 1.02878 0.70020
 Zr877 Zr 0.76104 1.02980 0.72577
 O878 O 0.78388 1.00890 0.74706
 Zr879 Zr 0.71911 0.98768 0.72586
 O880 O 0.74034 0.96468 0.74676
 Zr881 Zr 0.71913 1.03007 0.76752
 O882 O 0.73995 1.00883 0.79051
 Zr883 Zr 0.77659 0.97235 0.74145
 O884 O 0.75547 0.99321 0.71804
 Zr885 Zr 0.77620 1.01461 0.78318
 O886 O 0.75539 1.03796 0.76193
 Zr887 Zr 0.73436 0.97233 0.78291
 O888 O 0.71114 0.99359 0.76197
 O889 O 0.72495 1.02402 0.73153
 O890 O 0.77065 0.97808 0.77758
 C891 C 0.73006 1.07495 0.73626
 C892 C 0.73043 1.01831 0.68089
 C893 C 0.67450 1.01952 0.73626
 C894 C 0.76716 0.92814 0.77391
 C895 C 0.82037 0.98200 0.77417
 C896 C 0.76681 0.98153 0.82693
 H897 H 0.80059 1.01299 0.74333
 H898 H 0.73597 1.01272 0.80719
 H899 H 0.71489 1.03422 0.72120
 H900 H 0.73677 0.94777 0.74281
 H901 H 0.76738 0.95204 0.70120
 H902 H 0.72765 0.94829 0.70300
 H903 H 0.76226 1.03992 0.81943
 H904 H 0.73580 1.06373 0.79421
 H905 H 0.81297 0.98725 0.71661
 H906 H 0.78767 1.01285 0.69245
 H907 H 0.70803 0.98647 0.81817
 H908 H 0.68558 1.01356 0.79416
 H909 H 0.78757 1.06378 0.74210
 H910 H 0.81138 1.04138 0.76921
 H911 H 0.68444 0.96267 0.74338
 H912 H 0.70890 0.93609 0.76873
 O913 O 0.68412 0.52574 0.24775
 O914 O 0.69274 0.52403 0.28965
 O915 O 0.74648 0.55959 0.21966
 O916 O 0.78581 0.55287 0.21957
 O917 O 0.71774 0.49623 0.18622
 O918 O 0.71982 0.45427 0.19548
 O919 O 0.81000 0.49408 0.28089
 O920 O 0.80302 0.53599 0.27620
 O921 O 0.74951 0.46554 0.31241
 O922 O 0.70618 0.46713 0.30350
 O923 O 0.77875 0.43311 0.25259
 O924 O 0.77653 0.44134 0.20903
 O925 O 0.81030 0.46542 0.25210
 O926 O 0.80178 0.46699 0.20893
 O927 O 0.74976 0.43308 0.28082
 O928 O 0.70643 0.44148 0.27847
 O929 O 0.77842 0.49415 0.31217
 O930 O 0.77539 0.53725 0.30415
 O931 O 0.68422 0.49638 0.21958
 O932 O 0.69333 0.45431 0.22183
 O933 O 0.74583 0.52571 0.18627
 O934 O 0.78838 0.52191 0.19534
 O935 O 0.71753 0.55950 0.24801
 O936 O 0.71909 0.55076 0.28972
 Zr937 Zr 0.71869 0.52468 0.26241
 O938 O 0.73968 0.50379 0.28550
 Zr939 Zr 0.76062 0.52461 0.22070
 O940 O 0.78360 0.50383 0.24209
 Zr941 Zr 0.71892 0.48216 0.22096
 O942 O 0.74002 0.45940 0.24218
 Zr943 Zr 0.77596 0.50961 0.27819
 O944 O 0.75498 0.53280 0.25691
 Zr945 Zr 0.73417 0.46726 0.27826
 O946 O 0.71089 0.48811 0.25706
 Zr947 Zr 0.77623 0.46721 0.23662
 O948 O 0.75512 0.48801 0.21314
 O949 O 0.72457 0.51858 0.22645
 O950 O 0.77044 0.47305 0.27274
 C951 C 0.67402 0.51329 0.23129
 C952 C 0.72972 0.56978 0.23158
 C953 C 0.72946 0.51321 0.17609
 C954 C 0.82006 0.47698 0.26929
 C955 C 0.76668 0.47714 0.32221
 C956 C 0.76705 0.42316 0.26961
 H957 H 0.73561 0.50776 0.30213
 H958 H 0.73624 0.44250 0.23841
 H959 H 0.71437 0.52879 0.21625
 H960 H 0.80038 0.50786 0.23851
 H961 H 0.79582 0.55026 0.26853
 H962 H 0.79987 0.54772 0.22888
 H963 H 0.70855 0.43100 0.26443
 H964 H 0.68552 0.45522 0.23759
 H965 H 0.76103 0.53514 0.31412
 H966 H 0.73500 0.55844 0.28918
 H967 H 0.76269 0.43061 0.21136
 H968 H 0.73577 0.45492 0.18800
 H969 H 0.68500 0.50807 0.28885
 H970 H 0.70799 0.48154 0.31362
 H971 H 0.78589 0.50669 0.18658
 H972 H 0.81178 0.48151 0.21070
 O973 O 0.43350 0.25298 0.77857
 O974 O 0.44199 0.21092 0.77661
 O975 O 0.49604 0.28119 0.81232
 O976 O 0.53539 0.28060 0.80578
 O977 O 0.46714 0.31551 0.75054
 O978 O 0.46940 0.30708 0.70874
 O979 O 0.55912 0.21972 0.74645
 O980 O 0.55223 0.22354 0.78797
 O981 O 0.49831 0.18868 0.71753
 O982 O 0.45514 0.19776 0.71946
 O983 O 0.52789 0.24946 0.68648
 O984 O 0.52613 0.29305 0.69521
 O985 O 0.55952 0.24920 0.71847
 O986 O 0.55115 0.29288 0.72086
 O987 O 0.49868 0.22117 0.68603
 O988 O 0.45526 0.22367 0.69469
 O989 O 0.52724 0.18824 0.74587
 O990 O 0.52436 0.19561 0.78881
 O991 O 0.43371 0.28194 0.75000
 O992 O 0.44278 0.28047 0.70819
 O993 O 0.49598 0.31507 0.77902
 O994 O 0.53841 0.30540 0.77537
 O995 O 0.46711 0.25253 0.81203
 O996 O 0.46859 0.21040 0.80281
 Zr997 Zr 0.46807 0.23830 0.77734
 O998 O 0.48876 0.21523 0.75610
 Zr999 Zr 0.51026 0.28016 0.77769
 O1000 O 0.53299 0.25874 0.75672
 Zr1001 Zr 0.46837 0.28078 0.73582
 O1002 O 0.48927 0.25966 0.71283
 Zr1003 Zr 0.52510 0.22227 0.76186
 O1004 O 0.50442 0.24355 0.78529
 Zr1005 Zr 0.48321 0.22317 0.72001
 O1006 O 0.46016 0.24430 0.74118
 Zr1007 Zr 0.52555 0.26494 0.72055
 O1008 O 0.50465 0.28841 0.74157
 O1009 O 0.47414 0.27463 0.77179
 O1010 O 0.51953 0.22843 0.72573
 C1011 C 0.42344 0.26978 0.76649
 C1012 C 0.47925 0.26912 0.82232
 C1013 C 0.47936 0.32551 0.76720
 C1014 C 0.56922 0.23169 0.72970
 C1015 C 0.51543 0.17847 0.72883
 C1016 C 0.51604 0.23255 0.67635
 H1017 H 0.48457 0.19841 0.75974
 H1018 H 0.48547 0.26378 0.69615
 H1019 H 0.46400 0.28482 0.78205
 H1020 H 0.54980 0.26221 0.76074
 H1021 H 0.54518 0.23112 0.80226
 H1022 H 0.54933 0.27111 0.80056
 H1023 H 0.45764 0.23779 0.68430
 H1024 H 0.43481 0.26463 0.70889
 H1025 H 0.50994 0.18566 0.78655
 H1026 H 0.48447 0.21096 0.81047
 H1027 H 0.51189 0.29131 0.68497
 H1028 H 0.48537 0.31460 0.70958
 H1029 H 0.43444 0.21164 0.76070
 H1030 H 0.45688 0.18735 0.73360
 H1031 H 0.53602 0.31453 0.76045
 H1032 H 0.56150 0.29051 0.73491
 O1033 O 0.31349 0.75205 0.46865
 O1034 O 0.30430 0.71013 0.47060
 O1035 O 0.25157 0.78115 0.43465
 O1036 O 0.21208 0.78099 0.44116
 O1037 O 0.28061 0.81525 0.49656
 O1038 O 0.27850 0.80677 0.53832
 O1039 O 0.18738 0.72081 0.50050
 O1040 O 0.19440 0.72438 0.45901
 O1041 O 0.24758 0.68891 0.52971
 O1042 O 0.29098 0.69732 0.52761
 O1043 O 0.21906 0.75008 0.56062
 O1044 O 0.22151 0.79378 0.55159
 O1045 O 0.18739 0.74994 0.52882
 O1046 O 0.19615 0.79352 0.52616
 O1047 O 0.24801 0.72157 0.56114
 O1048 O 0.29126 0.72321 0.55242
 O1049 O 0.21883 0.68884 0.50117
 O1050 O 0.22175 0.69610 0.45827
 O1051 O 0.31364 0.78154 0.49669
 O1052 O 0.30477 0.77973 0.53868
 O1053 O 0.25199 0.81510 0.46785
 O1054 O 0.20951 0.80612 0.47149
 O1055 O 0.27997 0.75199 0.43508
 O1056 O 0.27782 0.70997 0.44438
 Zr1057 Zr 0.27871 0.73792 0.46979
 O1058 O 0.25765 0.71521 0.49102
 Zr1059 Zr 0.23719 0.78040 0.46926
 O1060 O 0.21409 0.75936 0.49029
 Zr1061 Zr 0.27905 0.78051 0.51119
 O1062 O 0.25778 0.75973 0.53420
 Zr1063 Zr 0.22145 0.72281 0.48518
 O1064 O 0.24248 0.74370 0.46174
 Zr1065 Zr 0.26331 0.72314 0.52709
 O1066 O 0.28671 0.74391 0.50592
 Zr1067 Zr 0.22155 0.76545 0.52648
 O1068 O 0.24286 0.78859 0.50541
 O1069 O 0.27320 0.77436 0.47522
 O1070 O 0.22707 0.72888 0.52132
 C1071 C 0.32373 0.76900 0.48033
 C1072 C 0.26816 0.76875 0.42472
 C1073 C 0.26866 0.82536 0.47980
 C1074 C 0.17745 0.73264 0.51740
 C1075 C 0.23037 0.67893 0.51827
 C1076 C 0.23081 0.73316 0.57081
 H1077 H 0.26156 0.69832 0.48741
 H1078 H 0.26165 0.76384 0.55086
 H1079 H 0.28346 0.78441 0.46495
 H1080 H 0.19733 0.76303 0.48626
 H1081 H 0.20157 0.73192 0.44475
 H1082 H 0.19788 0.77197 0.44651
 H1083 H 0.28944 0.73770 0.56242
 H1084 H 0.31274 0.76392 0.53766
 H1085 H 0.23608 0.68603 0.46046
 H1086 H 0.26198 0.71075 0.43665
 H1087 H 0.23549 0.79164 0.56211
 H1088 H 0.26262 0.81445 0.53759
 H1089 H 0.31179 0.71071 0.48654
 H1090 H 0.28885 0.68669 0.51368
 H1091 H 0.21184 0.81500 0.48657
 H1092 H 0.18583 0.79125 0.51206
 O1093 O 0.31198 0.25266 0.96860
 O1094 O 0.30322 0.21065 0.97067
 O1095 O 0.24995 0.28136 0.93478
 O1096 O 0.21065 0.28154 0.94117
 O1097 O 0.27918 0.31519 0.99684
 O1098 O 0.27635 0.30671 1.03862
 O1099 O 0.18585 0.22047 0.99976
 O1100 O 0.19318 0.22427 0.95837
 O1101 O 0.24590 0.18865 1.02929
 O1102 O 0.28922 0.19710 1.02763
 O1103 O 0.21736 0.24997 1.06046
 O1104 O 0.21914 0.29331 1.05151
 O1105 O 0.18577 0.24920 1.02849
 O1106 O 0.19420 0.29308 1.02572
 O1107 O 0.24573 0.22089 1.06077
 O1108 O 0.28935 0.22308 1.05246
 O1109 O 0.21741 0.18852 1.00051
 O1110 O 0.22070 0.19615 0.95763
 O1111 O 0.31208 0.28112 0.99767
 O1112 O 0.30255 0.27976 1.03938
 O1113 O 0.25041 0.31522 0.96827
 O1114 O 0.20777 0.30597 0.97173
 O1115 O 0.27852 0.25237 0.93511
 O1116 O 0.27672 0.21026 0.94431
 Zr1117 Zr 0.27733 0.23816 0.96979
 O1118 O 0.25624 0.21520 0.99077
 Zr1119 Zr 0.23564 0.28048 0.96936
 O1120 O 0.21249 0.25915 0.99003
 Zr1121 Zr 0.27725 0.28044 1.01150
 O1122 O 0.25590 0.25946 1.03423
 Zr1123 Zr 0.22004 0.22265 0.98474
 O1124 O 0.24111 0.24384 0.96160
 Zr1125 Zr 0.26157 0.22292 1.02695
 O1126 O 0.28504 0.24389 1.00603
 Zr1127 Zr 0.21972 0.26512 1.02627
 O1128 O 0.24110 0.28848 1.00555
 O1129 O 0.27165 0.27453 0.97545
 O1130 O 0.22537 0.22858 1.02095
 C1131 C 0.32221 0.26916 0.98097
 C1132 C 0.26656 0.26906 0.92479
 C1133 C 0.26716 0.32540 0.98018
 C1134 C 0.17589 0.23201 1.01683
 C1135 C 0.22881 0.17863 1.01771
 C1136 C 0.22872 0.23275 1.07052
 H1137 H 0.26024 0.19835 0.98709
 H1138 H 0.25964 0.26349 1.05094
 H1139 H 0.28195 0.28464 0.96526
 H1140 H 0.19575 0.26277 0.98591
 H1141 H 0.20042 0.23197 0.94423
 H1142 H 0.19666 0.27197 0.94612
 H1143 H 0.28687 0.23701 1.06308
 H1144 H 0.31027 0.26380 1.03876
 H1145 H 0.23495 0.18600 0.95999
 H1146 H 0.26093 0.21099 0.93649
 H1147 H 0.23359 0.29185 1.06148
 H1148 H 0.26060 0.31462 1.03749
 H1149 H 0.31058 0.21125 0.98667
 H1150 H 0.28747 0.18681 1.01340
 H1151 H 0.21016 0.31494 0.98675
 H1152 H 0.18365 0.29046 1.01186
 C1153 C 0.28844 0.35354 0.78882
 C1154 C 0.27188 0.36695 0.79973
 C1155 C 0.26367 0.39077 0.79127
 C1156 C 0.27353 0.40302 0.77320
 H1157 H 0.26428 0.36071 0.81632
 H1158 H 0.24954 0.39904 0.80151
 H1159 H 0.29612 0.35913 0.77211
 H1160 H 0.28797 0.39546 0.76297
 C1161 C 0.29627 -0.14458 0.29379
 C1162 C 0.30554 -0.13266 0.27516
 C1163 C 0.29697 -0.10905 0.26640
 C1164 C 0.27783 -0.09736 0.27481
 H1165 H 0.32109 -0.13981 0.26621
 H1166 H 0.30776 -0.10063 0.25278
 H1167 H 0.28086 -0.13762 0.30298
 H1168 H 0.26664 -0.10530 0.28829
 C1169 C 0.79316 0.85604 0.79855
 C1170 C 0.80185 0.86866 0.78010
 C1171 C 0.79259 0.89212 0.77188
 C1172 C 0.77400 0.90377 0.78147
 H1173 H 0.81736 0.86211 0.77065
 H1174 H 0.80240 0.90048 0.75750
 H1175 H 0.77767 0.86227 0.80811
 H1176 H 0.76383 0.89596 0.79581
 C1177 C 0.45747 0.89553 0.29393
 C1178 C 0.47540 0.88284 0.30357
 C1179 C 0.48390 0.85934 0.29453
 C1180 C 0.47452 0.84758 0.27587
 H1181 H 0.48415 0.88943 0.31948
 H1182 H 0.49823 0.85108 0.30452
 H1183 H 0.44867 0.88927 0.27802
 H1184 H 0.46012 0.85519 0.26562
 C1185 C -0.04441 0.89598 0.79651
 C1186 C -0.05368 0.88463 0.77758
 C1187 C -0.04470 0.86156 0.76796
 C1188 C -0.02479 0.85047 0.77535
 H1189 H -0.06952 0.89183 0.76920
 H1190 H -0.05573 0.85303 0.75457
 H1191 H -0.02888 0.88902 0.80551
 H1192 H -0.01330 0.85860 0.78849
 C1193 C -0.04411 -0.14602 -0.04380
 C1194 C -0.02614 -0.13293 -0.05286
 C1195 C -0.01773 -0.10965 -0.04322
 C1196 C -0.02767 -0.09789 -0.02490
 H1197 H -0.01714 -0.13904 -0.06880
 H1198 H -0.00296 -0.10147 -0.05261
 H1199 H -0.05304 -0.14034 -0.02774
 H1200 H -0.04256 -0.10543 -0.01530
 C1201 C -0.04573 0.35781 0.45207
 C1202 C -0.05435 0.36921 0.47126
 C1203 C -0.04593 0.39297 0.47972
 C1204 C -0.02645 0.40427 0.47155
 H1205 H -0.06912 0.36137 0.48092
 H1206 H -0.05674 0.40157 0.49322
 H1207 H -0.03143 0.36549 0.44173
 H1208 H -0.01513 0.39596 0.45840
 C1209 C 0.45644 -0.14473 0.45312
 C1210 C 0.44764 -0.13314 0.47217
 C1211 C 0.45656 -0.10977 0.48116
 C1212 C 0.47597 -0.09841 0.47293
 H1213 H 0.43227 -0.14040 0.48136
 H1214 H 0.44598 -0.10135 0.49494
 H1215 H 0.47157 -0.13757 0.44360
 H1216 H 0.48702 -0.10643 0.45939
 C1217 C 0.45289 0.35709 -0.04608
 C1218 C 0.47131 0.36927 -0.05544
 C1219 C 0.47968 0.39305 -0.04690
 C1220 C 0.47063 0.40486 -0.02813
 H1221 H 0.48052 0.36208 -0.07080
 H1222 H 0.49375 0.40136 -0.05720
 H1223 H 0.44345 0.36409 -0.03086
 H1224 H 0.45666 0.39709 -0.01742
 C1225 C 0.79582 0.39174 0.45571
 C1226 C 0.80526 0.38088 0.47483
 C1227 C 0.79738 0.35718 0.48388
 C1228 C 0.77748 0.34593 0.47672
 H1229 H 0.82044 0.38894 0.48367
 H1230 H 0.80905 0.34845 0.49657
 H1231 H 0.78116 0.38376 0.44610
 H1232 H 0.76530 0.35442 0.46447
 C1233 C 0.79806 0.89299 -0.04188
 C1234 C 0.77905 0.88109 -0.05050
 C1235 C 0.77078 0.85731 -0.04203
 C1236 C 0.78004 0.84531 -0.02350
 H1237 H 0.76933 0.88842 -0.06548
 H1238 H 0.75669 0.84906 -0.05237
 H1239 H 0.80802 0.88586 -0.02704
 H1240 H 0.79398 0.85310 -0.01272
 C1241 C 0.79669 0.28923 0.35761
 C1242 C 0.77723 0.29755 0.36878
 C1243 C 0.76877 0.28917 0.39232
 C1244 C 0.77734 0.27001 0.40398
 H1245 H 0.76748 0.31240 0.36105
 H1246 H 0.75514 0.30006 0.40065
 H1247 H 0.80706 0.27477 0.36511
 H1248 H 0.79064 0.25859 0.39594
 C1249 C 0.79671 0.79278 -0.14406
 C1250 C 0.77742 0.80071 -0.13226
 C1251 C 0.76913 0.79131 -0.10904
 C1252 C 0.77794 0.77183 -0.09809
 H1253 H 0.76760 0.81598 -0.13908
 H1254 H 0.75546 0.80177 -0.10026
 H1255 H 0.80682 0.77775 -0.13734
 H1256 H 0.79133 0.76084 -0.10652
 C1257 C 0.29240 0.46054 0.89389
 C1258 C 0.27342 0.45140 0.88250
 C1259 C 0.26473 0.45968 0.85898
 C1260 C 0.27322 0.47884 0.84725
 H1261 H 0.26432 0.43602 0.89002
 H1262 H 0.25119 0.44864 0.85066
 H1263 H 0.30210 0.47561 0.88667
 H1264 H 0.28654 0.49033 0.85517
 C1265 C 0.29794 -0.04005 0.39353
 C1266 C 0.27846 -0.04840 0.38235
 C1267 C 0.27006 -0.04019 0.35871
 C1268 C 0.27876 -0.02117 0.34694
 H1269 H 0.26861 -0.06314 0.39015
 H1270 H 0.25634 -0.05105 0.35044
 H1271 H 0.30842 -0.02570 0.38597
 H1272 H 0.29214 -0.00978 0.35493
 C1273 C -0.04474 -0.04473 -0.14140
 C1274 C -0.05393 -0.02641 -0.12884
 C1275 C -0.04462 -0.01787 -0.10562
 C1276 C -0.02560 -0.02705 -0.09434
 H1277 H -0.06980 -0.01742 -0.13524
 H1278 H -0.05476 -0.00375 -0.09711
 H1279 H -0.02890 -0.05383 -0.13531
 H1280 H -0.01513 -0.04117 -0.10229
 C1281 C -0.04798 0.45473 0.35631
 C1282 C -0.02850 0.44660 0.36772
 C1283 C -0.01959 0.45593 0.39076
 C1284 C -0.02816 0.47534 0.40198
 H1285 H -0.01885 0.43140 0.36057
 H1286 H -0.00549 0.44563 0.39905
 H1287 H -0.05795 0.46969 0.36335
 H1288 H -0.04200 0.48616 0.39403
 C1289 C 0.45736 -0.04361 0.35638
 C1290 C 0.47538 -0.05359 0.36859
 C1291 C 0.48400 -0.04525 0.39214
 C1292 C 0.47530 -0.02624 0.40395
 H1293 H 0.48407 -0.06937 0.36145
 H1294 H 0.49786 -0.05597 0.40033
 H1295 H 0.44823 -0.02795 0.36304
 H1296 H 0.46148 -0.01521 0.39629
 C1297 C 0.45256 0.45856 -0.14545
 C1298 C 0.47130 0.44936 -0.13364
 C1299 C 0.47989 0.45792 -0.11015
 C1300 C 0.47143 0.47721 -0.09863
 H1301 H 0.48055 0.43393 -0.14085
 H1302 H 0.49360 0.44713 -0.10180
 H1303 H 0.44301 0.47379 -0.13838
 H1304 H 0.45792 0.48844 -0.10656
 C1305 C 0.45554 0.79398 0.39204
 C1306 C 0.47436 0.80327 0.38053
 C1307 C 0.48323 0.79479 0.35716
 C1308 C 0.47510 0.77531 0.34567
 H1309 H 0.48337 0.81874 0.38797
 H1310 H 0.49685 0.80575 0.34887
 H1311 H 0.44592 0.77882 0.38490
 H1312 H 0.46171 0.76390 0.35356
 C1313 C -0.04255 0.79737 0.89223
 C1314 C -0.05110 0.77843 0.88007
 C1315 C -0.04266 0.77063 0.85633
 C1316 C -0.02402 0.78006 0.84464
 H1317 H -0.06588 0.76825 0.88729
 H1318 H -0.05292 0.75645 0.84800
 H1319 H -0.02797 0.80783 0.88516
 H1320 H -0.01328 0.79403 0.85255
 C1321 C 0.35827 0.79394 0.29415
 C1322 C 0.37036 0.80341 0.27582
 C1323 C 0.39386 0.79475 0.26728
 C1324 C 0.40548 0.77555 0.27590
 H1325 H 0.36326 0.81907 0.26689
 H1326 H 0.40218 0.80543 0.25348
 H1327 H 0.36499 0.77847 0.30356
 H1328 H 0.39764 0.76447 0.28957
 C1329 C -0.14293 0.79791 0.79449
 C1330 C -0.13062 0.77913 0.80297
 C1331 C -0.10720 0.77105 0.79383
 C1332 C -0.09589 0.78052 0.77499
 H1333 H -0.13751 0.76936 0.81814
 H1334 H -0.09872 0.75674 0.80376
 H1335 H -0.13643 0.80818 0.77956
 H1336 H -0.10391 0.79469 0.76463
 C1337 C 0.89471 0.29332 0.45623
 C1338 C 0.88410 0.27328 0.44824
 C1339 C 0.86109 0.26393 0.45733
 C1340 C 0.85060 0.27132 0.47749
 H1341 H 0.89164 0.26394 0.43312
 H1342 H 0.85211 0.25086 0.44622
 H1343 H 0.88716 0.30340 0.47080
 H1344 H 0.85942 0.28396 0.48913
 C1345 C 0.89773 0.78976 -0.04597
 C1346 C 0.88692 0.79726 -0.02603
 C1347 C 0.86373 0.78818 -0.01724
 C1348 C 0.85200 0.76922 -0.02620
 H1349 H 0.89456 0.81206 -0.01612
 H1350 H 0.85563 0.79852 -0.00307
 H1351 H 0.89034 0.77531 -0.05645
 H1352 H 0.85981 0.75833 -0.04005
 C1353 C -0.14337 -0.04468 -0.04389
 C1354 C -0.13130 -0.05374 -0.02524
 C1355 C -0.10798 -0.04482 -0.01652
 C1356 C -0.09630 -0.02572 -0.02524
 H1357 H -0.13821 -0.06937 -0.01607
 H1358 H -0.09980 -0.05529 -0.00248
 H1359 H -0.13671 -0.02914 -0.05325
 H1360 H -0.10401 -0.01485 -0.03916
 C1361 C -0.14369 0.45604 0.45346
 C1362 C -0.13172 0.44734 0.47224
 C1363 C -0.10837 0.45641 0.48066
 C1364 C -0.09714 0.47574 0.47188
 H1365 H -0.13872 0.43188 0.48160
 H1366 H -0.09983 0.44594 0.49449
 H1367 H -0.13704 0.47122 0.44354
 H1368 H -0.10527 0.48666 0.45824
 C1369 C 0.35778 -0.04423 0.45576
 C1370 C 0.37040 -0.02579 0.44682
 C1371 C 0.39395 -0.01773 0.45580
 C1372 C 0.40552 -0.02739 0.47439
 H1373 H 0.36372 -0.01623 0.43141
 H1374 H 0.40237 -0.00339 0.44587
 H1375 H 0.36418 -0.05394 0.47111
 H1376 H 0.39764 -0.04169 0.48468
 C1377 C 0.35376 0.45901 -0.04650
 C1378 C 0.36596 0.44966 -0.02813
 C1379 C 0.38951 0.45842 -0.01979
 C1380 C 0.40141 0.47714 -0.02908
 H1381 H 0.35896 0.43408 -0.01895
 H1382 H 0.39766 0.44816 -0.00558
 H1383 H 0.36053 0.47452 -0.05583
 H1384 H 0.39382 0.48778 -0.04322
 C1385 C 0.39258 0.45956 0.79339
 C1386 C 0.38140 0.45064 0.77421
 C1387 C 0.35783 0.45893 0.76553
 C1388 C 0.34644 0.47849 0.77354
 H1389 H 0.38907 0.43542 0.76499
 H1390 H 0.34926 0.44767 0.75234
 H1391 H 0.38508 0.47434 0.80327
 H1392 H 0.35471 0.49026 0.78639
 C1393 C 0.39831 -0.04233 0.29191
 C1394 C 0.38652 -0.02355 0.30110
 C1395 C 0.36320 -0.01469 0.29231
 C1396 C 0.35183 -0.02326 0.27308
 H1397 H 0.39349 -0.01481 0.31685
 H1398 H 0.35463 -0.00108 0.30307
 H1399 H 0.39170 -0.05163 0.27641
 H1400 H 0.35993 -0.03674 0.26192
 C1401 C 0.10328 0.54557 0.70611
 C1402 C 0.11573 0.52741 0.69657
 C1403 C 0.13916 0.51885 0.70539
 C1404 C 0.15096 0.52824 0.72398
 H1405 H 0.10897 0.51861 0.68075
 H1406 H 0.14736 0.50454 0.69525
 H1407 H 0.10951 0.55473 0.72185
 H1408 H 0.14334 0.54259 0.73438
 C1409 C 0.10925 0.04386 0.20335
 C1410 C 0.12111 0.05334 0.22193
 C1411 C 0.14498 0.04533 0.23012
 C1412 C 0.15658 0.02601 0.22178
 H1413 H 0.11357 0.06847 0.23138
 H1414 H 0.15344 0.05636 0.24357
 H1415 H 0.11673 0.02902 0.19353
 H1416 H 0.14852 0.01450 0.20858
 C1417 C 0.64750 0.70796 0.20512
 C1418 C 0.63594 0.69969 0.22436
 C1419 C 0.61251 0.70852 0.23280
 C1420 C 0.60091 0.72757 0.22389
 H1421 H 0.64326 0.68458 0.23402
 H1422 H 0.60416 0.69799 0.24669
 H1423 H 0.64051 0.72279 0.19492
 H1424 H 0.60890 0.73858 0.21024
 C1425 C 0.14643 0.71156 0.70663
 C1426 C 0.13330 0.72848 0.69586
 C1427 C 0.11001 0.73730 0.70470
 C1428 C 0.09788 0.72741 0.72281
 H1429 H 0.13929 0.73585 0.67906
 H1430 H 0.10192 0.75174 0.69463
 H1431 H 0.14113 0.70416 0.72357
 H1432 H 0.10522 0.71261 0.73280
 C1433 C 0.60732 0.20669 0.54723
 C1434 C 0.61942 0.19708 0.52895
 C1435 C 0.64305 0.20532 0.52049
 C1436 C 0.65517 0.22398 0.52952
 H1437 H 0.61213 0.18156 0.51990
 H1438 H 0.65103 0.19478 0.50641
 H1439 H 0.61410 0.22210 0.55672
 H1440 H 0.64768 0.23486 0.54354
 C1441 C 0.60763 0.70764 0.04279
 C1442 C 0.62039 0.69655 0.02586
 C1443 C 0.64412 0.70463 0.01739
 C1444 C 0.65687 0.72241 0.02733
 H1445 H 0.61350 0.68025 0.01793
 H1446 H 0.65175 0.69454 0.00280
 H1447 H 0.61388 0.72408 0.05081
 H1448 H 0.64997 0.73246 0.04223
 C1449 C 0.14554 0.04226 0.04659
 C1450 C 0.13374 0.05057 0.02745
 C1451 C 0.11047 0.04139 0.01890
 C1452 C 0.09892 0.02233 0.02788
 H1453 H 0.14066 0.06596 0.01790
 H1454 H 0.10211 0.05177 0.00490
 H1455 H 0.13882 0.02699 0.05634
 H1456 H 0.10686 0.01147 0.04169
 C1457 C 0.14617 0.54357 0.53875
 C1458 C 0.13338 0.52577 0.54853
 C1459 C 0.10998 0.51727 0.53965
 C1460 C 0.09806 0.52696 0.52130
 H1461 H 0.13973 0.51738 0.56472
 H1462 H 0.10170 0.50304 0.54985
 H1463 H 0.14044 0.55220 0.52254
 H1464 H 0.10571 0.54133 0.51092
 C1465 C 0.64641 0.04157 0.54686
 C1466 C 0.63524 0.05033 0.52754
 C1467 C 0.61195 0.04161 0.51849
 C1468 C 0.60066 0.02189 0.52631
 H1469 H 0.64260 0.06577 0.51841
 H1470 H 0.60343 0.05276 0.50519
 H1471 H 0.63908 0.02641 0.55634
 H1472 H 0.60886 0.01022 0.53928
 C1473 C 0.64356 0.54136 0.04310
 C1474 C 0.63231 0.55113 0.02439
 C1475 C 0.60855 0.54342 0.01568
 C1476 C 0.59693 0.52381 0.02331
 H1477 H 0.64015 0.56652 0.01559
 H1478 H 0.60005 0.55512 0.00284
 H1479 H 0.63593 0.52637 0.05257
 H1480 H 0.60507 0.51163 0.03584
 C1481 C 0.04704 0.04063 0.14608
 C1482 C 0.02706 0.04868 0.13553
 C1483 C 0.01810 0.04024 0.11218
 C1484 C 0.02602 0.02069 0.10073
 H1485 H 0.01733 0.06346 0.14340
 H1486 H 0.00471 0.05141 0.10381
 H1487 H 0.05719 0.02624 0.13812
 H1488 H 0.03897 0.00894 0.10890
 C1489 C 0.04223 0.54520 0.64264
 C1490 C 0.05155 0.52629 0.63116
 C1491 C 0.04348 0.51780 0.60746
 C1492 C 0.02390 0.52577 0.59622
 H1493 H 0.06679 0.51715 0.63876
 H1494 H 0.05483 0.50482 0.59870
 H1495 H 0.02742 0.55503 0.63523
 H1496 H 0.01207 0.53844 0.60465
 C1497 C 0.54489 0.04133 0.64645
 C1498 C 0.52624 0.04979 0.63398
 C1499 C 0.51826 0.04055 0.61057
 C1500 C 0.52789 0.02185 0.59897
 H1501 H 0.51657 0.06526 0.64053
 H1502 H 0.50409 0.05063 0.60214
 H1503 H 0.55468 0.02589 0.64018
 H1504 H 0.54197 0.01134 0.60691
 C1505 C 0.54103 0.54327 0.14378
 C1506 C 0.54949 0.52409 0.13206
 C1507 C 0.54121 0.51615 0.10827
 C1508 C 0.52242 0.52537 0.09667
 H1509 H 0.56424 0.51412 0.13958
 H1510 H 0.55179 0.50237 0.09974
 H1511 H 0.52663 0.55384 0.13656
 H1512 H 0.51136 0.53889 0.10486
 C1513 C 0.20345 0.54448 0.60470
 C1514 C 0.22160 0.55399 0.61707
 C1515 C 0.22961 0.54557 0.64079
 C1516 C 0.22045 0.52671 0.65253
 H1517 H 0.23096 0.56938 0.60990
 H1518 H 0.24361 0.55605 0.64908
 H1519 H 0.19365 0.52925 0.61143
 H1520 H 0.20653 0.51586 0.64475
 C1521 C 0.20643 0.04657 0.10605
 C1522 C 0.19823 0.02720 0.11778
 C1523 C 0.20742 0.01860 0.14101
 C1524 C 0.22698 0.02706 0.15191
 H1525 H 0.18310 0.01739 0.11075
 H1526 H 0.19696 0.00480 0.14968
 H1527 H 0.22126 0.05673 0.11303
 H1528 H 0.23794 0.04058 0.14356
 C1529 C 0.70326 0.20499 0.64433
 C1530 C 0.72286 0.19609 0.63391
 C1531 C 0.73210 0.20415 0.61054
 C1532 C 0.72479 0.22401 0.59917
 H1533 H 0.73209 0.18118 0.64215
 H1534 H 0.74531 0.19272 0.60225
 H1535 H 0.69327 0.21933 0.63612
 H1536 H 0.71205 0.23600 0.60727
 C1537 C 0.71026 0.70312 0.14438
 C1538 C 0.70154 0.72179 0.13208
 C1539 C 0.71044 0.72991 0.10859
 C1540 C 0.72861 0.71986 0.09667
 H1541 H 0.68633 0.73145 0.13905
 H1542 H 0.70076 0.74461 0.10049
 H1543 H 0.72536 0.69307 0.13791
 H1544 H 0.73861 0.70518 0.10423
 C1545 C 0.54594 0.71031 0.10362
 C1546 C 0.52696 0.70151 0.11523
 C1547 C 0.51868 0.70990 0.13883
 C1548 C 0.52755 0.72890 0.15058
 H1549 H 0.51753 0.68626 0.10784
 H1550 H 0.50502 0.69905 0.14718
 H1551 H 0.55593 0.72525 0.11069
 H1552 H 0.54095 0.74024 0.14261
 C1553 C 0.04260 0.70869 0.60309
 C1554 C 0.05146 0.72784 0.61457
 C1555 C 0.04310 0.73639 0.63812
 C1556 C 0.02364 0.72820 0.64941
 H1557 H 0.06656 0.73728 0.60705
 H1558 H 0.05417 0.74976 0.64673
 H1559 H 0.02787 0.69863 0.61039
 H1560 H 0.01209 0.71512 0.64114
 C1561 C 0.54408 0.60365 0.20728
 C1562 C 0.52630 0.61651 0.19765
 C1563 C 0.51844 0.64044 0.20608
 C1564 C 0.52815 0.65244 0.22439
 H1565 H 0.51729 0.60971 0.18199
 H1566 H 0.50440 0.64885 0.19582
 H1567 H 0.55343 0.60988 0.22289
 H1568 H 0.54223 0.64458 0.23492
 C1569 C 0.04045 0.60672 0.70410
 C1570 C 0.04926 0.61836 0.72307
 C1571 C 0.04103 0.64220 0.73138
 C1572 C 0.02214 0.65405 0.72262
 H1573 H 0.06434 0.61082 0.73248
 H1574 H 0.05188 0.65064 0.74496
 H1575 H 0.02568 0.61397 0.69411
 H1576 H 0.01079 0.64599 0.70931
 C1577 C 0.04477 0.14452 0.04532
 C1578 C 0.02633 0.13245 0.05483
 C1579 C 0.01790 0.10863 0.04648
 C1580 C 0.02627 0.09712 0.02723
 H1581 H 0.01741 0.13960 0.07038
 H1582 H 0.00459 0.09994 0.05746
 H1583 H 0.05397 0.13750 0.02997
 H1584 H 0.03940 0.10534 0.01581
 C1585 C 0.04283 0.64817 0.53967
 C1586 C 0.02453 0.63598 0.54919
 C1587 C 0.01606 0.61222 0.54080
 C1588 C 0.02473 0.60051 0.52182
 H1589 H 0.01580 0.64305 0.56487
 H1590 H 0.00255 0.60366 0.55164
 H1591 H 0.05208 0.64152 0.52419
 H1592 H 0.03812 0.60860 0.51060
 C1593 C 0.54617 0.14389 0.54416
 C1594 C 0.52685 0.13245 0.55251
 C1595 C 0.51855 0.10865 0.54415
 C1596 C 0.52724 0.09712 0.52508
 H1597 H 0.51710 0.14014 0.56729
 H1598 H 0.50500 0.10004 0.55490
 H1599 H 0.55656 0.13642 0.52980
 H1600 H 0.54047 0.10542 0.51383
 C1601 C 0.54361 0.64658 0.04340
 C1602 C 0.55230 0.63466 0.02457
 C1603 C 0.54331 0.61115 0.01603
 C1604 C 0.52369 0.60008 0.02424
 H1605 H 0.56774 0.64174 0.01538
 H1606 H 0.55409 0.60232 0.00267
 H1607 H 0.52849 0.63977 0.05317
 H1608 H 0.51244 0.60854 0.03736
 C1609 C 0.70544 0.10346 0.54713
 C1610 C 0.72376 0.11572 0.55670
 C1611 C 0.73265 0.13920 0.54791
 C1612 C 0.72363 0.15113 0.52922
 H1613 H 0.73254 0.10881 0.57244
 H1614 H 0.74698 0.14728 0.55807
 H1615 H 0.69653 0.11007 0.53142
 H1616 H 0.70929 0.14364 0.51878
 C1617 C 0.70747 0.60240 0.04469
 C1618 C 0.69835 0.61489 0.02641
 C1619 C 0.70745 0.63839 0.01799
 C1620 C 0.72669 0.64965 0.02680
 H1621 H 0.68264 0.60813 0.01741
 H1622 H 0.69712 0.64703 0.00415
 H1623 H 0.72297 0.60874 0.05419
 H1624 H 0.73741 0.64149 0.04054
 C1625 C 0.20593 0.64804 0.70640
 C1626 C 0.22246 0.63438 0.69574
 C1627 C 0.23085 0.61087 0.70476
 C1628 C 0.22069 0.59874 0.72273
 H1629 H 0.23014 0.64031 0.67907
 H1630 H 0.24548 0.60277 0.69511
 H1631 H 0.19829 0.64283 0.72326
 H1632 H 0.20570 0.60611 0.73228
 C1633 C 0.20837 0.14488 0.20193
 C1634 C 0.19980 0.13298 0.22083
 C1635 C 0.20886 0.10957 0.22943
 C1636 C 0.22772 0.09793 0.22035
 H1637 H 0.18452 0.14013 0.23021
 H1638 H 0.19878 0.10133 0.24369
 H1639 H 0.22341 0.13811 0.19203
 H1640 H 0.23823 0.10572 0.20625
 C1641 C 0.70299 1.14504 0.70904
 C1642 C 0.72266 1.13392 0.70117
 C1643 C 0.73146 1.11063 0.71033
 C1644 C 0.72316 1.09962 0.72988
 H1645 H 0.73219 1.14132 0.68611
 H1646 H 0.74497 1.10185 0.69968
 H1647 H 0.69280 1.13778 0.72366
 H1648 H 0.71001 1.10812 0.74108
 C1649 C 0.70663 0.64312 0.20810
 C1650 C 0.72486 0.63055 0.19894
 C1651 C 0.73275 0.60664 0.20739
 C1652 C 0.72305 0.59465 0.22569
 H1653 H 0.73417 0.63752 0.18355
 H1654 H 0.74680 0.59823 0.19716
 H1655 H 0.69691 0.63667 0.22338
 H1656 H 0.70902 0.60254 0.23623
 C1657 C 0.54076 0.10612 0.70393
 C1658 C 0.54944 0.11852 0.72250
 C1659 C 0.54059 0.14220 0.73061
 C1660 C 0.52204 0.15405 0.72114
 H1661 H 0.56462 0.11147 0.73213
 H1662 H 0.55058 0.15044 0.74495
 H1663 H 0.52575 0.11272 0.69385
 H1664 H 0.51167 0.14628 0.70689
 C1665 C 1.04446 0.10217 0.20672
 C1666 C 1.05406 0.11472 0.22470
 C1667 C 1.04496 0.13809 0.23345
 C1668 C 1.02577 0.14954 0.22476
 H1669 H 1.07028 0.10829 0.23296
 H1670 H 1.05558 0.14671 0.24710
 H1671 H 1.02833 0.10812 0.19807
 H1672 H 1.01485 0.14149 0.21110
 C1673 C 0.20757 0.60532 0.54079
 C1674 C 0.22383 0.61889 0.55203
 C1675 C 0.23263 0.64236 0.54317
 C1676 C 0.22263 0.65466 0.52521
 H1677 H 0.23091 0.61293 0.56895
 H1678 H 0.24730 0.65032 0.55292
 H1679 H 0.20061 0.61056 0.52365
 H1680 H 0.20752 0.64748 0.51566
 C1681 C 0.20350 0.10672 1.04373
 C1682 C 0.22178 0.11932 1.05277
 C1683 C 0.23018 0.14285 1.04367
 C1684 C 0.22113 0.15430 1.02468
 H1685 H 0.23091 0.11258 1.06839
 H1686 H 0.24425 0.15135 1.05384
 H1687 H 0.19393 0.11301 1.02827
 H1688 H 0.20710 0.14630 1.01418
 C1689 C 0.20512 0.70674 0.64135
 C1690 C 0.19651 0.72602 0.62991
 C1691 C 0.20471 0.73419 0.60619
 C1692 C 0.22424 0.72593 0.59513
 H1693 H 0.18192 0.73600 0.63772
 H1694 H 0.19378 0.74758 0.59746
 H1695 H 0.21920 0.69606 0.63369
 H1696 H 0.23570 0.71293 0.60361
 C1697 C 0.20381 0.20718 1.14203
 C1698 C 0.22249 0.19842 1.12987
 C1699 C 0.23064 0.20738 1.10642
 C1700 C 0.22117 0.22611 1.09474
 H1701 H 0.23215 0.18311 1.13680
 H1702 H 0.24494 0.19731 1.09820
 H1703 H 0.19396 0.22239 1.13533
 H1704 H 0.20699 0.23661 1.10245
 C1705 C 0.70456 0.53843 0.10465
 C1706 C 0.72354 0.54702 0.11644
 C1707 C 0.73170 0.53829 0.13998
 C1708 C 0.72268 0.51921 0.15147
 H1709 H 0.73310 0.56226 0.10924
 H1710 H 0.74544 0.54892 0.14850
 H1711 H 0.69444 0.52349 0.11154
 H1712 H 0.70918 0.50809 0.14333
 C1713 C 0.70502 1.04244 0.60936
 C1714 C 0.72365 1.05181 0.62113
 C1715 C 0.73191 1.04365 0.64486
 C1716 C 0.72381 1.02405 0.65617
 H1717 H 0.73282 1.06721 0.61373
 H1718 H 0.74490 1.05502 0.65361
 H1719 H 0.69524 1.02740 0.61651
 H1720 H 0.71108 1.01221 0.64778
 C1721 C 0.54261 0.20580 0.60607
 C1722 C 0.55142 0.22471 0.61797
 C1723 C 0.54226 0.23356 0.64109
 C1724 C 0.52287 0.22498 0.65219
 H1725 H 0.56704 0.23381 0.61111
 H1726 H 0.55274 0.24744 0.64964
 H1727 H 0.52725 0.19615 0.61258
 H1728 H 0.51195 0.21128 0.64406
 C1729 C 1.04560 0.20629 0.10527
 C1730 C 1.02696 0.19718 0.11729
 C1731 C 1.01854 0.20586 0.14077
 C1732 C 1.02733 0.22497 0.15241
 H1733 H 1.01770 0.18162 0.11031
 H1734 H 1.00479 0.19514 0.14914
 H1735 H 1.05506 0.22173 0.11205
 H1736 H 1.04093 0.23612 0.14450
 C1737 C 0.64002 0.20578 0.70368
 C1738 C 0.62837 0.19709 0.72267
 C1739 C 0.60474 0.20559 0.73085
 C1740 C 0.59348 0.22499 0.72229
 H1741 H 0.63593 0.18216 0.73243
 H1742 H 0.59619 0.19487 0.74448
 H1743 H 0.63270 0.22029 0.69327
 H1744 H 0.60172 0.23624 0.70898
 C1745 C 1.14496 0.20621 0.20414
 C1746 C 1.13442 0.19701 0.22353
 C1747 C 1.11096 0.20496 0.23269
 C1748 C 1.09984 0.22509 0.22576
 H1749 H 1.14249 0.18181 0.23244
 H1750 H 1.10227 0.19308 0.24524
 H1751 H 1.13691 0.22085 0.19446
 H1752 H 1.10834 0.23749 0.21367
 C1753 C 0.10434 0.70980 0.54031
 C1754 C 0.11759 0.72676 0.55094
 C1755 C 0.14109 0.73521 0.54219
 C1756 C 0.15317 0.72517 0.52411
 H1757 H 0.11135 0.73466 0.56741
 H1758 H 0.14920 0.74979 0.55205
 H1759 H 0.10993 0.70181 0.52374
 H1760 H 0.14579 0.71027 0.51429
 C1761 C 0.10501 0.20570 1.04269
 C1762 C 0.11698 0.22451 1.05162
 C1763 C 0.14021 0.23332 1.04254
 C1764 C 0.15168 0.22434 1.02356
 H1765 H 0.11007 0.23358 1.06720
 H1766 H 0.14853 0.24752 1.05277
 H1767 H 0.11152 0.19615 1.02732
 H1768 H 0.14384 0.21025 1.01294
 C1769 C 0.60274 0.53843 0.20556
 C1770 C 0.61435 0.54700 0.22465
 C1771 C 0.63777 0.53826 0.23319
 C1772 C 0.64941 0.51924 0.22431
 H1773 H 0.60710 0.56231 0.23404
 H1774 H 0.64613 0.54888 0.24703
 H1775 H 0.60963 0.52338 0.19562
 H1776 H 0.64143 0.50816 0.21070
 C1777 C 0.60364 1.04516 0.70958
 C1778 C 0.61529 1.02567 0.70176
 C1779 C 0.63866 1.01736 0.71087
 C1780 C 0.64999 1.02655 0.72985
 H1781 H 0.60809 1.01568 0.68687
 H1782 H 0.64718 1.00330 0.70066
 H1783 H 0.61055 1.05571 0.72416
 H1784 H 0.64180 1.04034 0.74057
 C1785 C 0.89094 0.45093 0.29540
 C1786 C 0.87894 0.46977 0.30420
 C1787 C 0.85546 0.47815 0.29541
 C1788 C 0.84429 0.46949 0.27611
 H1789 H 0.88610 0.47929 0.31941
 H1790 H 0.84685 0.49194 0.30593
 H1791 H 0.88411 0.44082 0.28049
 H1792 H 0.85250 0.45590 0.26516
 C1793 C 0.89143 0.95658 0.80046
 C1794 C 0.87974 0.94771 0.78156
 C1795 C 0.85610 0.95614 0.77324
 C1796 C 0.84465 0.97545 0.78177
 H1797 H 0.88729 0.93268 0.77195
 H1798 H 0.84769 0.94541 0.75953
 H1799 H 0.88414 0.97123 0.81068
 H1800 H 0.85271 0.98668 0.79522
 C1801 C 0.34976 0.29181 0.78805
 C1802 C 0.36279 0.27456 0.79846
 C1803 C 0.38641 0.26630 0.78999
 C1804 C 0.39878 0.27662 0.77231
 H1805 H 0.35639 0.26640 0.81474
 H1806 H 0.39445 0.25176 0.79996
 H1807 H 0.35546 0.30005 0.77163
 H1808 H 0.39142 0.29142 0.76232
 C1809 C 0.85777 0.29265 0.29519
 C1810 C 0.86987 0.27398 0.30425
 C1811 C 0.89336 0.26552 0.29557
 C1812 C 0.90468 0.27425 0.27641
 H1813 H 0.86278 0.26467 0.31961
 H1814 H 0.90187 0.25168 0.30610
 H1815 H 0.86449 0.30251 0.28009
 H1816 H 0.89660 0.28796 0.26549
 C1817 C 0.39455 0.79380 0.45370
 C1818 C 0.38330 0.80279 0.47278
 C1819 C 0.35976 0.79445 0.48143
 C1820 C 0.34838 0.77484 0.47344
 H1821 H 0.39093 0.81807 0.48196
 H1822 H 0.35119 0.80571 0.49460
 H1823 H 0.38711 0.77893 0.44386
 H1824 H 0.35662 0.76307 0.46059
 C1825 C 0.39329 0.29527 0.95640
 C1826 C 0.38201 0.27587 0.94779
 C1827 C 0.35842 0.26732 0.95611
 C1828 C 0.34694 0.27588 0.97525
 H1829 H 0.38961 0.26637 0.93280
 H1830 H 0.34988 0.25380 0.94519
 H1831 H 0.38590 0.30543 0.97098
 H1832 H 0.35516 0.28907 0.98669
 C1833 C 0.79298 0.45213 0.39327
 C1834 C 0.80158 0.47095 0.38111
 C1835 C 0.79248 0.47912 0.35773
 C1836 C 0.77348 0.46983 0.34647
 H1837 H 0.81689 0.48053 0.38801
 H1838 H 0.80265 0.49322 0.34918
 H1839 H 0.77792 0.44203 0.38674
 H1840 H 0.76287 0.45588 0.35456
 C1841 C 0.79377 0.95398 0.89686
 C1842 C 0.80222 0.97329 0.88533
 C1843 C 0.79304 0.98225 0.86224
 C1844 C 0.77366 0.97373 0.85104
 H1845 H 0.81755 0.98265 0.89248
 H1846 H 0.80344 0.99628 0.85385
 H1847 H 0.77875 0.94403 0.89000
 H1848 H 0.76278 0.95993 0.85906
 C1849 C 0.29568 0.79345 0.35423
 C1850 C 0.27642 0.80242 0.36525
 C1851 C 0.26741 0.79409 0.38864
 C1852 C 0.27524 0.77450 0.40012
 H1853 H 0.26735 0.81772 0.35755
 H1854 H 0.25414 0.80537 0.39704
 H1855 H 0.30540 0.77854 0.36172
 H1856 H 0.28820 0.76274 0.39203
 C1857 C 0.29108 0.29256 0.85265
 C1858 C 0.27245 0.30179 0.86448
 C1859 C 0.26448 0.29377 0.88835
 C1860 C 0.27331 0.27477 0.90009
 H1861 H 0.26293 0.31687 0.85691
 H1862 H 0.25097 0.30473 0.89679
 H1863 H 0.30115 0.27776 0.85989
 H1864 H 0.28660 0.26336 0.89207
 C1865 C 0.45422 0.29373 0.89391
 C1866 C 0.47268 0.30306 0.88188
 C1867 C 0.48120 0.29430 0.85845
 C1868 C 0.47241 0.27512 0.84692
 H1869 H 0.48156 0.31884 0.88884
 H1870 H 0.49485 0.30507 0.84997
 H1871 H 0.44487 0.27813 0.88736
 H1872 H 0.45885 0.26399 0.85490
 C1873 C 0.95498 0.29478 0.39210
 C1874 C 0.94679 0.27491 0.38136
 C1875 C 0.95549 0.26603 0.35805
 C1876 C 0.97538 0.27384 0.34726
 H1877 H 0.93206 0.26519 0.38924
 H1878 H 0.94452 0.25266 0.34931
 H1879 H 0.96910 0.30525 0.38420
 H1880 H 0.98692 0.28674 0.35583
 C1881 C 0.45497 0.39704 0.79371
 C1882 C 0.44616 0.38571 0.77454
 C1883 C 0.45447 0.36203 0.76584
 C1884 C 0.47356 0.35028 0.77428
 H1885 H 0.43109 0.39341 0.76524
 H1886 H 0.44359 0.35365 0.75224
 H1887 H 0.46969 0.38961 0.80363
 H1888 H 0.48491 0.35830 0.78761
 C1889 C 0.95564 0.39173 0.29703
 C1890 C 0.94668 0.37951 0.27848
 C1891 C 0.95594 0.35626 0.26962
 C1892 C 0.97490 0.34470 0.27859
 H1893 H 0.93097 0.38630 0.26953
 H1894 H 0.94588 0.34801 0.25534
 H1895 H 0.97122 0.38542 0.30640
 H1896 H 0.98531 0.35244 0.29281
 C1897 C 0.29383 0.89738 0.45475
 C1898 C 0.30268 0.88524 0.47340
 C1899 C 0.29373 0.86172 0.48188
 C1900 C 0.27490 0.85005 0.47275
 H1901 H 0.31824 0.89218 0.48252
 H1902 H 0.30407 0.85328 0.49584
 H1903 H 0.27845 0.89089 0.44516
 H1904 H 0.26419 0.85801 0.45888
 C1905 C 0.29189 0.39730 0.95455
 C1906 C 0.30122 0.38528 0.97303
 C1907 C 0.29265 0.36161 0.98159
 C1908 C 0.27335 0.35012 0.97318
 H1909 H 0.31681 0.39247 0.98191
 H1910 H 0.30350 0.35298 0.99504
 H1911 H 0.27655 0.39047 0.94513
 H1912 H 0.26209 0.35830 0.95989
 C1913 C 0.79336 0.35218 0.29660
 C1914 C 0.80225 0.36418 0.27788
 C1915 C 0.79314 0.38747 0.26894
 C1916 C 0.77395 0.39892 0.27751
 H1917 H 0.81786 0.35721 0.26891
 H1918 H 0.80347 0.39582 0.25492
 H1919 H 0.77796 0.35875 0.30608
 H1920 H 0.76322 0.39101 0.29139
   
